drugbank_target|P05042 Fumarate hydratase class II (DB02749; DB03452; DB03499; DB04272)
 OpenBabel12092120023D

  0  0  0     0  0            999 V3000
M  V30 BEGIN CTAB
M  V30 COUNTS 7092 7150 0 0 0
M  V30 BEGIN ATOM
M  V30 1 H -0.908 1.98254 -0.117106 0
M  V30 2 N 0 1.576 0 0
M  V30 3 C 0.933 2.03868 1.02534 0
M  V30 4 C 1.911 0.928543 1.3348 0
M  V30 5 O 3.095 1.19667 1.45644 0
M  V30 6 C 0.222 2.43627 2.35294 0
M  V30 7 C -0.732 3.65373 2.2001 0
M  V30 8 S 0.101 5.13292 1.52614 0
M  V30 9 C 1.257 5.56322 2.86805 0
M  V30 10 H 1.49 2.90518 0.631377 0
M  V30 11 H -0.977 1.52953 0.210867 0
M  V30 12 H 0.981 2.67203 3.11629 0
M  V30 13 H -0.358 1.57376 2.7183 0
M  V30 14 H -1.165 3.90944 3.18086 0
M  V30 15 H -1.563 3.418 1.51819 0
M  V30 16 H 0.729 5.58782 3.83104 0
M  V30 17 H 1.672 6.56266 2.65933 0
M  V30 18 H 2.08 4.83886 2.90714 0
M  V30 19 N 1.4781 -0.272755 1.55222 0
M  V30 20 C 2.4261 -1.35705 1.88909 0
M  V30 21 C 3.4201 -1.5112 0.765456 0
M  V30 22 O 4.6261 -1.52901 0.949802 0
M  V30 23 H 1.0011 -0.453868 0.59959 0
M  V30 24 H 2.9721 -1.04544 2.79487 0
M  V30 25 C 1.7211 -2.71049 2.17779 0
M  V30 26 H 1.0441 -2.59979 3.03728 0
M  V30 27 H 2.4841 -3.45858 2.45272 0
M  V30 28 C 0.9431 -3.22165 0.985473 0
M  V30 29 O 1.4731 -4.01096 0.220233 0
M  V30 30 N -0.3209 -2.7985 0.783108 0
M  V30 31 H -0.7739 -2.15775 1.40708 0
M  V30 32 H -0.8159 -3.14397 -0.0130392 0
M  V30 33 N 2.9562 -1.48159 -0.537278 0
M  V30 34 C 4.1842 -1.59454 -1.31841 0
M  V30 35 C 4.5992 -0.252065 -1.8711 0
M  V30 36 O 3.9562 0.757621 -1.66031 0
M  V30 37 C 4.0072 -2.63546 -2.47439 0
M  V30 38 O 3.7282 -3.92583 -1.94449 0
M  V30 39 C 5.2292 -2.85212 -3.39366 0
M  V30 40 H 2.4492 -0.53785 -0.401196 0
M  V30 41 H 4.9932 -1.93932 -0.648891 0
M  V30 42 H 3.1482 -2.31946 -3.1029 0
M  V30 43 H 3.5622 -4.49629 -2.70063 0
M  V30 44 H 5.0362 -3.61863 -4.16844 0
M  V30 45 H 5.5132 -1.93765 -3.94147 0
M  V30 46 H 6.1192 -3.18086 -2.82314 0
M  V30 47 N 4.4343 0.785586 -1.36625 0
M  V30 48 C 5.6803 1.54591 -1.31261 0
M  V30 49 C 6.0133 1.93906 0.106823 0
M  V30 50 O 5.2883 1.63007 1.06108 0
M  V30 51 C 5.5713 2.82038 -2.23889 0
M  V30 52 C 5.4243 2.49066 -3.74548 0
M  V30 53 C 6.7433 3.83887 -2.15217 0
M  V30 54 H 3.8623 0.560846 -0.478143 0
M  V30 55 H 6.5043 0.902278 -1.67209 0
M  V30 56 H 4.6543 3.36961 -1.93363 0
M  V30 57 H 6.3263 2.00164 -4.15611 0
M  V30 58 H 4.5693 1.81954 -3.93796 0
M  V30 59 H 5.2403 3.40109 -4.34776 0
M  V30 60 H 7.7163 3.38421 -2.42096 0
M  V30 61 H 6.5923 4.70806 -2.82193 0
M  V30 62 H 6.8533 4.27131 -1.14068 0
M  V30 63 N 5.9124 1.20967 1.01018 0
M  V30 64 C 7.3284 0.965905 1.27053 0
M  V30 65 C 7.5284 -0.350785 1.98423 0
M  V30 66 O 6.5844 -1.07773 2.28344 0
M  V30 67 C 7.8974 2.15294 2.09926 0
M  V30 68 C 9.4454 2.19463 2.23171 0
M  V30 69 C 9.9204 3.3767 3.09424 0
M  V30 70 N 11.4114 3.37724 3.17012 0
M  V30 71 C 12.1464 4.25837 3.83993 0
M  V30 72 N 11.6424 5.24138 4.53047 0
M  V30 73 N 13.4354 4.1366 3.80581 0
M  V30 74 H 5.5864 2.0565 0.531194 0
M  V30 75 H 7.8494 0.90024 0.297106 0
M  V30 76 H 7.5554 3.10684 1.64828 0
M  V30 77 H 7.4294 2.13923 3.10672 0
M  V30 78 H 9.8164 1.24632 2.6749 0
M  V30 79 H 9.8974 2.2488 1.21912 0
M  V30 80 H 9.5414 4.32791 2.65808 0
M  V30 81 H 9.4714 3.29491 4.10784 0
M  V30 82 H 11.9624 2.6658 2.6785 0
M  V30 83 H 12.2754 5.87684 5.01844 0
M  V30 84 H 10.6204 5.28068 4.5185 0
M  V30 85 H 13.8114 3.36127 3.25785 0
M  V30 86 H 13.9844 4.82538 4.32505 0
M  V30 87 N 7.3905 -1.2043 1.01659 0
M  V30 88 C 8.6155 -1.94318 0.724942 0
M  V30 89 C 9.0405 -1.74266 -0.708034 0
M  V30 90 O 8.3985 -1.03694 -1.48719 0
M  V30 91 C 8.4465 -3.44486 1.06591 0
M  V30 92 O 7.5505 -4.12017 0.177599 0
M  V30 93 H 6.8915 -0.60708 0.26898 0
M  V30 94 H 9.4215 -1.52861 1.35995 0
M  V30 95 H 9.4315 -3.95106 1.01762 0
M  V30 96 H 8.1065 -3.58404 2.10997 0
M  V30 97 H 6.6835 -3.71821 0.283421 0
M  V30 98 N 8.8686 -0.792821 -1.36206 0
M  V30 99 C 9.7786 -0.194808 -2.3379 0
M  V30 100 C 10.7946 0.654869 -1.61206 0
M  V30 101 O 11.9706 0.569856 -1.9317 0
M  V30 102 C 9.0356 0.657721 -3.40404 0
M  V30 103 C 8.0966 -0.210849 -4.28782 0
M  V30 104 C 7.3296 0.601086 -5.30304 0
M  V30 105 O 7.5526 1.83682 -5.40016 0
M  V30 106 O 6.4866 -0.000808277 -6.019 0
M  V30 107 H 10.3126 -1.00172 -2.86704 0
M  V30 108 H 7.8976 -0.554341 -1.38735 0
M  V30 109 H 9.7796 1.14375 -4.05581 0
M  V30 110 H 8.4546 1.44247 -2.89784 0
M  V30 111 H 7.3616 -0.743714 -3.66633 0
M  V30 112 H 8.6946 -0.959195 -4.82763 0
M  V30 113 N 10.3467 1.47872 -0.545128 0
M  V30 114 C 11.2937 2.29849 0.2093 0
M  V30 115 C 12.2637 1.38313 0.919707 0
M  V30 116 O 13.4487 1.67277 0.917772 0
M  V30 117 C 10.5887 3.22019 1.24088 0
M  V30 118 C 9.7017 4.2864 0.537778 0
M  V30 119 C 8.8367 5.07973 1.5536 0
M  V30 120 C 7.8757 6.06381 0.8348 0
M  V30 121 N 7.0127 6.78717 1.79688 0
M  V30 122 H 11.8527 2.93845 -0.49591 0
M  V30 123 H 9.3897 1.44848 -0.256389 0
M  V30 124 H 11.3477 3.73868 1.85144 0
M  V30 125 H 9.9777 2.59914 1.91428 0
M  V30 126 H 9.0297 3.7994 -0.187046 0
M  V30 127 H 10.3417 4.98793 -0.0258907 0
M  V30 128 H 9.4957 5.63912 2.23803 0
M  V30 129 H 8.2347 4.37693 2.15118 0
M  V30 130 H 7.2397 5.49631 0.136388 0
M  V30 131 H 8.4647 6.78665 0.24313 0
M  V30 132 H 6.4107 6.11177 2.38326 0
M  V30 133 H 6.3277 7.44998 1.28505 0
M  V30 134 H 7.5957 7.39237 2.47282 0
M  V30 135 N 11.8248 0.280983 1.55075 0
M  V30 136 C 13.1018 -0.386207 1.91749 0
M  V30 137 C 13.4818 -1.73264 1.20594 0
M  V30 138 O 12.8298 -2.26034 0.334784 0
M  V30 139 C 13.0398 -0.520687 3.45094 0
M  V30 140 C 14.3878 -0.800865 4.16979 0
M  V30 141 O 15.4118 -0.605271 3.5102 0
M  V30 142 O 14.2708 -1.1753 5.33712 0
M  V30 143 H 11.3648 -0.212408 0.799257 0
M  V30 144 H 13.9108 0.327568 1.66509 0
M  V30 145 H 12.6828 0.426633 3.88967 0
M  V30 146 H 12.3058 -1.2837 3.76307 0
M  V30 147 N 13.3029 -1.57598 0.00835791 0
M  V30 148 C 14.5279 -1.95617 -0.689103 0
M  V30 149 C 14.9529 -0.883753 -1.66046 0
M  V30 150 O 14.3109 0.157352 -1.80616 0
M  V30 151 C 14.3589 -3.32736 -1.38994 0
M  V30 152 O 13.4629 -3.27631 -2.50463 0
M  V30 153 H 12.8039 -0.638379 -0.182668 0
M  V30 154 H 15.3339 -2.045 0.064036 0
M  V30 155 H 15.3439 -3.68494 -1.75147 0
M  V30 156 H 14.0189 -4.1034 -0.677778 0
M  V30 157 H 12.5959 -3.03561 -2.16576 0
M  V30 158 N 14.781 0.264519 -1.55364 0
M  V30 159 C 15.714 1.35297 -1.83766 0
M  V30 160 C 16.692 1.47171 -0.691336 0
M  V30 161 O 17.876 1.63663 -0.935238 0
M  V30 162 C 15.003 2.72847 -2.00679 0
M  V30 163 C 14.049 2.78214 -3.23263 0
M  V30 164 S 14.882 2.36601 -4.80396 0
M  V30 165 C 16.038 3.7611 -5.00292 0
M  V30 166 H 16.271 1.11003 -2.758 0
M  V30 167 H 13.804 0.464596 -1.47244 0
M  V30 168 H 15.762 3.52057 -2.11108 0
M  V30 169 H 14.423 2.94388 -1.09518 0
M  V30 170 H 13.616 3.7919 -3.3201 0
M  V30 171 H 13.218 2.07034 -3.11469 0
M  V30 172 H 15.51 4.71457 -4.86554 0
M  V30 173 H 16.453 3.7231 -6.02321 0
M  V30 174 H 16.861 3.67806 -4.28228 0
M  V30 175 N 16.2591 1.48442 0.529413 0
M  V30 176 C 17.5071 1.56179 1.28267 0
M  V30 177 C 17.8281 0.237721 1.93546 0
M  V30 178 O 17.0981 -0.740779 1.81354 0
M  V30 179 H 15.6781 0.575367 0.476405 0
M  V30 180 H 18.3401 1.84909 0.61602 0
M  V30 181 H 17.4361 2.34312 2.06165 0
M  V30 182 N 17.7372 -0.778329 1.37039 0
M  V30 183 C 18.7002 -1.87301 1.32102 0
M  V30 184 C 19.7002 -1.59198 0.226405 0
M  V30 185 O 20.8902 -1.67403 0.481861 0
M  V30 186 C 18.0222 -3.24309 1.05055 0
M  V30 187 H 19.2152 -1.93093 2.29467 0
M  V30 188 H 16.7682 -0.977358 1.21973 0
M  V30 189 H 17.5032 -3.24196 0.0819373 0
M  V30 190 H 17.2882 -3.46098 1.84279 0
M  V30 191 H 18.7782 -4.04382 1.04234 0
M  V30 192 N 19.2153 -1.21501 -1.00376 0
M  V30 193 C 20.4643 -1.02718 -1.73586 0
M  V30 194 C 20.7773 0.439589 -1.90596 0
M  V30 195 O 21.9833 0.746848 -2.61026 0
M  V30 196 C 20.4393 -1.78929 -3.1227 0
M  V30 197 C 20.0473 -3.29783 -3.03228 0
M  V30 198 C 21.7913 -1.68557 -3.89601 0
M  V30 199 C 19.6983 -3.98479 -4.36999 0
M  V30 200 H 18.6283 -0.380733 -0.650814 0
M  V30 201 H 21.2793 -1.45248 -1.1214 0
M  V30 202 H 19.6613 -1.29192 -3.74333 0
M  V30 203 H 20.8353 -3.86832 -2.50395 0
M  V30 204 H 19.1503 -3.40711 -2.39385 0
M  V30 205 H 21.7473 -2.17211 -4.88593 0
M  V30 206 H 22.0903 -0.644021 -4.11288 0
M  V30 207 H 22.6233 -2.15778 -3.34193 0
M  V30 208 H 19.3623 -5.02841 -4.20513 0
M  V30 209 H 18.8823 -3.46219 -4.89788 0
M  V30 210 H 20.5613 -4.03462 -5.05794 0
M  V30 211 N 20.6934 1.19889 -1.02296 0
M  V30 212 C 21.9704 1.85148 -0.630832 0
M  V30 213 C 22.3504 1.91385 0.890782 0
M  V30 214 O 21.6984 1.42642 1.78509 0
M  V30 215 C 21.9084 3.24442 -1.28602 0
M  V30 216 C 23.2564 4.00663 -1.4055 0
M  V30 217 O 24.2804 3.33818 -1.24273 0
M  V30 218 O 23.1394 5.20387 -1.66913 0
M  V30 219 H 20.2334 0.797613 -0.218499 0
M  V30 220 H 22.7794 1.27427 -1.12074 0
M  V30 221 H 21.5514 3.14704 -2.32545 0
M  V30 222 H 21.1744 3.89802 -0.7836 0
M  V30 223 N 22.1715 0.800033 1.35784 0
M  V30 224 C 23.4175 0.377901 1.99248 0
M  V30 225 C 23.7505 -1.05052 1.63333 0
M  V30 226 O 23.0255 -1.72768 0.893385 0
M  V30 227 C 23.3085 0.553922 3.55814 0
M  V30 228 C 23.1615 2.0268 4.01548 0
M  V30 229 C 24.4805 -0.0244802 4.40093 0
M  V30 230 H 21.5995 0.138782 0.723815 0
M  V30 231 H 24.2415 1.00835 1.61035 0
M  V30 232 H 22.3915 0.0172398 3.88496 0
M  V30 233 H 24.0635 2.62536 3.79305 0
M  V30 234 H 22.3065 2.5256 3.52698 0
M  V30 235 H 22.9775 2.10087 5.10458 0
M  V30 236 H 25.4535 0.433775 4.13833 0
M  V30 237 H 24.3295 0.128637 5.48749 0
M  V30 238 H 24.5905 -1.11758 4.27741 0
M  V30 239 N 23.6496 -1.47581 0.552962 0
M  V30 240 C 25.0606 -1.86324 0.118463 0
M  V30 241 C 25.4116 -1.46006 -1.3106 0
M  V30 242 O 24.5366 -0.861182 -1.98526 0
M  V30 243 C 25.1316 -3.3816 0.20821 0
M  V30 244 C 23.6906 -3.7601 -0.171226 0
M  V30 245 C 22.8376 -2.71634 0.557686 0
M  V30 246 H 25.7886 -1.39159 0.762928 0
M  V30 247 H 25.8096 -3.76141 -0.574278 0
M  V30 248 H 25.3216 -3.67473 1.24841 0
M  V30 249 H 23.4226 -3.52313 -1.21269 0
M  V30 250 H 23.5356 -4.78745 0.184379 0
M  V30 251 H 21.8996 -2.547 0.00125792 0
M  V30 252 H 22.6826 -3.0379 1.59896 0
M  V30 253 N 25.1277 -0.289203 -1.54924 0
M  V30 254 C 26.0907 0.579144 -2.21762 0
M  V30 255 C 27.0907 1.07047 -1.1999 0
M  V30 256 O 28.2807 0.968384 -1.44803 0
M  V30 257 C 25.4127 1.80055 -2.8947 0
M  V30 258 H 26.6057 -0.00464908 -2.999 0
M  V30 259 H 24.1587 -0.0399306 -1.56249 0
M  V30 260 H 24.8937 2.42449 -2.15381 0
M  V30 261 H 24.6787 1.45602 -3.64064 0
M  V30 262 H 26.1687 2.41773 -3.40493 0
M  V30 263 N 26.6058 1.57591 -0.0167156 0
M  V30 264 C 27.8828 1.82547 0.702564 0
M  V30 265 C 28.2628 0.898018 1.91047 0
M  V30 266 O 27.6108 -0.0493456 2.28447 0
M  V30 267 C 27.8208 3.31459 1.09251 0
M  V30 268 C 29.1688 3.97622 1.48937 0
M  V30 269 O 30.1928 3.35881 1.18584 0
M  V30 270 O 29.0518 5.06415 2.05442 0
M  V30 271 H 26.1458 0.752268 0.343544 0
M  V30 272 H 28.6918 1.69644 -0.0434495 0
M  V30 273 H 27.4638 3.9061 0.23227 0
M  V30 274 H 27.0868 3.49422 1.89709 0
M  V30 275 N 28.0839 -0.256276 1.55502 0
M  V30 276 C 29.0309 -1.31714 1.89526 0
M  V30 277 C 30.0009 -1.4828 0.748479 0
M  V30 278 O 31.1859 -1.62416 1.00128 0
M  V30 279 C 28.3259 -2.66933 2.18725 0
M  V30 280 C 27.4389 -2.58452 3.4616 0
M  V30 281 C 26.5739 -3.85961 3.64976 0
M  V30 282 C 25.6129 -3.72059 4.86044 0
M  V30 283 N 24.7499 -4.9144 5.01429 0
M  V30 284 H 29.5899 -1.01998 2.80001 0
M  V30 285 H 27.1269 -0.492413 1.38613 0
M  V30 286 H 29.0849 -3.4563 2.33657 0
M  V30 287 H 27.7149 -2.94816 1.31466 0
M  V30 288 H 26.7669 -1.71374 3.3961 0
M  V30 289 H 28.0789 -2.44085 4.34999 0
M  V30 290 H 27.2329 -4.73101 3.79816 0
M  V30 291 H 25.9719 -4.03215 2.74353 0
M  V30 292 H 24.9769 -2.83302 4.7119 0
M  V30 293 H 26.2019 -3.56309 5.78118 0
M  V30 294 H 24.1479 -5.09072 4.13741 0
M  V30 295 H 24.0649 -4.79668 5.84341 0
M  V30 296 H 25.3329 -5.80104 5.20672 0
M  V30 297 N 29.562 -1.4872 -0.521534 0
M  V30 298 C 30.492 -1.66771 -1.63431 0
M  V30 299 C 31.473 -0.516499 -1.62069 0
M  V30 300 O 32.658 -0.750013 -1.79132 0
M  V30 301 C 29.788 -1.71515 -3.01993 0
M  V30 302 C 28.742 -2.86222 -3.18216 0
M  V30 303 C 28.068 -2.76061 -4.57924 0
M  V30 304 C 29.368 -4.27419 -3.00184 0
M  V30 305 H 31.062 -2.59932 -1.48579 0
M  V30 306 H 28.608 -1.25089 -0.713358 0
M  V30 307 H 30.561 -1.82731 -3.7972 0
M  V30 308 H 29.285 -0.749393 -3.17886 0
M  V30 309 H 27.944 -2.74575 -2.42908 0
M  V30 310 H 27.592 -1.77437 -4.70665 0
M  V30 311 H 27.292 -3.53037 -4.69722 0
M  V30 312 H 28.816 -2.89256 -5.37739 0
M  V30 313 H 30.23 -4.39855 -3.67697 0
M  V30 314 H 28.627 -5.05458 -3.2347 0
M  V30 315 H 29.697 -4.43293 -1.96518 0
M  V30 316 N 31.0401 0.771051 -1.3745 0
M  V30 317 C 32.2861 1.53109 -1.339 0
M  V30 318 C 32.6411 1.9225 0.0758401 0
M  V30 319 O 31.9341 1.61264 1.03463 0
M  V30 320 C 32.1281 2.80676 -2.2126 0
M  V30 321 C 31.9571 2.54003 -3.71096 0
M  V30 322 C 30.7271 2.48097 -4.402 0
M  V30 323 C 32.9251 2.21953 -4.63941 0
M  V30 324 N 30.9071 2.13515 -5.75573 0
M  V30 325 C 32.2781 1.97516 -5.87697 0
M  V30 326 C 34.3331 2.08114 -4.5232 0
M  V30 327 C 33.0361 1.60638 -7.01133 0
M  V30 328 C 35.0621 1.72636 -5.65642 0
M  V30 329 C 34.4241 1.4906 -6.88448 0
M  V30 330 H 30.5231 0.56055 -0.54526 0
M  V30 331 H 33.1071 0.899472 -1.72678 0
M  V30 332 H 31.2781 3.41674 -1.84698 0
M  V30 333 H 33.0101 3.46578 -2.08963 0
M  V30 334 H 29.7651 2.63974 -3.93211 0
M  V30 335 H 30.1891 1.98919 -6.47117 0
M  V30 336 H 34.8311 2.25024 -3.57944 0
M  V30 337 H 32.5491 1.42467 -7.95443 0
M  V30 338 H 36.1351 1.62586 -5.58621 0
M  V30 339 H 35.0151 1.22014 -7.7465 0
M  V30 340 N 32.5182 1.22032 0.997298 0
M  V30 341 C 33.7662 1.04016 1.73278 0
M  V30 342 C 34.0872 -0.426255 1.90284 0
M  V30 343 O 33.3572 -1.30694 1.45931 0
M  V30 344 H 31.9372 0.381897 0.642 0
M  V30 345 H 34.5992 1.5347 1.20137 0
M  V30 346 H 33.6952 1.51441 2.72896 0
M  V30 347 N 33.9963 -1.19345 1.0293 0
M  V30 348 C 34.9593 -2.20793 0.615069 0
M  V30 349 C 35.9593 -1.57553 -0.321533 0
M  V30 350 O 37.1493 -1.73862 -0.108483 0
M  V30 351 C 34.2813 -3.40754 -0.0999222 0
M  V30 352 H 35.4743 -2.58955 1.51269 0
M  V30 353 H 33.0273 -1.3303 0.820534 0
M  V30 354 H 33.7623 -3.0811 -1.01187 0
M  V30 355 H 33.5473 -3.87889 0.57309 0
M  V30 356 H 35.0373 -4.15898 -0.376645 0
M  V30 357 N 35.4744 -0.807222 -1.35358 0
M  V30 358 C 36.4064 -0.175717 -2.28525 0
M  V30 359 C 37.4194 0.625354 -1.5031 0
M  V30 360 O 38.6084 0.457611 -1.72535 0
M  V30 361 C 35.7084 0.773471 -3.29956 0
M  V30 362 C 34.8814 0.0186296 -4.37396 0
M  V30 363 C 33.9404 0.886395 -5.18681 0
M  V30 364 O 32.9664 0.337106 -5.68201 0
M  V30 365 N 34.1684 2.20839 -5.36852 0
M  V30 366 H 36.9334 -0.976091 -2.83359 0
M  V30 367 H 34.4944 -0.662737 -1.47714 0
M  V30 368 H 36.4864 1.35824 -3.81227 0
M  V30 369 H 35.0564 1.47465 -2.75632 0
M  V30 370 H 34.2764 -0.747349 -3.87051 0
M  V30 371 H 35.5644 -0.501577 -5.06322 0
M  V30 372 H 34.9624 2.67858 -4.98265 0
M  V30 373 H 33.5194 2.74237 -5.91301 0
M  V30 374 N 36.9525 1.47285 -0.560781 0
M  V30 375 C 38.1805 2.06855 -0.0430262 0
M  V30 376 C 38.5955 1.41291 1.25229 0
M  V30 377 O 37.9525 0.510648 1.7521 0
M  V30 378 C 38.0035 3.61178 0.152518 0
M  V30 379 O 37.7245 4.24285 -1.0915 0
M  V30 380 C 39.2255 4.37624 0.707145 0
M  V30 381 H 36.4455 0.669319 -0.0474652 0
M  V30 382 H 38.9895 1.89237 -0.77521 0
M  V30 383 H 37.1445 3.78298 0.834843 0
M  V30 384 H 37.5585 5.16868 -0.891482 0
M  V30 385 H 39.0325 5.46271 0.793244 0
M  V30 386 H 39.5095 4.04152 1.71923 0
M  V30 387 H 40.1155 4.25257 0.0604027 0
M  V30 388 N 38.4306 0.297415 1.54768 0
M  V30 389 C 39.3626 -0.613881 2.20826 0
M  V30 390 C 40.3756 -1.10032 1.19987 0
M  V30 391 O 41.5646 -1.01839 1.46598 0
M  V30 392 C 38.6646 -1.852 2.83821 0
M  V30 393 C 37.8376 -1.50865 4.10559 0
M  V30 394 C 36.8966 -2.60154 4.57391 0
M  V30 395 O 35.9226 -2.25398 5.2267 0
M  V30 396 N 37.1246 -3.90629 4.29406 0
M  V30 397 H 39.8896 -0.048389 2.99661 0
M  V30 398 H 37.4506 0.11946 1.61459 0
M  V30 399 H 39.4426 -2.57652 3.12086 0
M  V30 400 H 38.0126 -2.32597 2.08847 0
M  V30 401 H 37.2326 -0.616925 3.89343 0
M  V30 402 H 38.5206 -1.25458 4.9309 0
M  V30 403 H 37.9186 -4.21677 3.77101 0
M  V30 404 H 36.4756 -4.59391 4.62388 0
M  V30 405 N 39.9087 -1.5758 0.0250728 0
M  V30 406 C 41.3247 -1.56124 -0.331282 0
M  V30 407 C 41.5247 -1.03029 -1.73169 0
M  V30 408 O 40.5807 -0.675215 -2.43305 0
M  V30 409 C 41.8937 -3.00139 -0.183584 0
M  V30 410 C 43.4417 -3.11946 -0.256654 0
M  V30 411 C 43.9167 -4.57793 -0.137792 0
M  V30 412 N 45.4077 -4.6279 -0.194904 0
M  V30 413 C 46.1427 -5.7326 -0.126655 0
M  V30 414 N 45.6387 -6.928 -0.00755288 0
M  V30 415 N 47.4317 -5.61811 -0.180348 0
M  V30 416 H 39.5827 -1.90424 0.94087 0
M  V30 417 H 41.8457 -0.875761 0.362968 0
M  V30 418 H 41.5517 -3.4292 0.780927 0
M  V30 419 H 41.4257 -3.64899 -0.955448 0
M  V30 420 H 43.8127 -2.69079 -1.21162 0
M  V30 421 H 43.8937 -2.49915 0.545517 0
M  V30 422 H 43.5377 -5.01339 0.813739 0
M  V30 423 H 43.4677 -5.17798 -0.958775 0
M  V30 424 H 45.9587 -3.76807 -0.287267 0
M  V30 425 H 46.2717 -7.72791 0.0379428 0
M  V30 426 H 44.6167 -6.94995 0.0271731 0
M  V30 427 H 47.8077 -4.6731 -0.271767 0
M  V30 428 H 47.9807 -6.47882 -0.123697 0
M  V30 429 N 41.3868 0.248026 -1.55636 0
M  V30 430 C 42.6118 0.998028 -1.81808 0
M  V30 431 C 43.0368 1.78207 -0.601979 0
M  V30 432 O 42.3948 1.75653 0.448961 0
M  V30 433 C 42.4428 1.9125 -3.05705 0
M  V30 434 O 41.5468 3.00406 -2.82542 0
M  V30 435 H 40.8878 0.284045 -0.600179 0
M  V30 436 H 43.4178 0.269357 -2.02819 0
M  V30 437 H 43.4278 2.32737 -3.35108 0
M  V30 438 H 42.1028 1.33602 -3.93857 0
M  V30 439 H 40.6798 2.63056 -2.64303 0
M  V30 440 N 42.8649 1.48995 0.513639 0
M  V30 441 C 43.7949 1.67636 1.62544 0
M  V30 442 C 44.7759 0.525087 1.61793 0
M  V30 443 O 45.9609 0.759502 1.78732 0
M  V30 444 C 43.0909 1.73114 3.01079 0
M  V30 445 C 42.0449 2.87905 3.16693 0
M  V30 446 C 41.3709 2.78486 4.56453 0
M  V30 447 C 42.6709 4.29005 2.97913 0
M  V30 448 H 44.3649 2.60716 1.47198 0
M  V30 449 H 41.9109 1.25465 0.706714 0
M  V30 450 H 43.8639 1.84742 3.78746 0
M  V30 451 H 42.5879 0.766241 3.17484 0
M  V30 452 H 41.2469 2.75859 2.41448 0
M  V30 453 H 40.8949 1.7993 4.69717 0
M  V30 454 H 40.5949 3.55523 4.67843 0
M  V30 455 H 42.1189 2.92104 5.36197 0
M  V30 456 H 43.5329 4.41798 3.65359 0
M  V30 457 H 41.9299 5.07166 3.20785 0
M  V30 458 H 42.9999 4.44329 1.94165 0
M  V30 459 N 44.343 -0.763751 1.37857 0
M  V30 460 C 45.253 -1.90817 1.36478 0
M  V30 461 C 46.269 -1.71997 0.263248 0
M  V30 462 O 47.445 -1.95095 0.499979 0
M  V30 463 C 44.51 -3.2605 1.17864 0
M  V30 464 C 43.571 -3.57467 2.3773 0
M  V30 465 C 42.804 -4.86249 2.19995 0
M  V30 466 O 43.027 -5.57884 1.18836 0
M  V30 467 O 41.961 -5.16911 3.08361 0
M  V30 468 H 45.787 -1.94933 2.32884 0
M  V30 469 H 43.372 -0.907619 1.1867 0
M  V30 470 H 45.254 -4.06924 1.09504 0
M  V30 471 H 43.929 -3.22769 0.245372 0
M  V30 472 H 42.836 -2.76796 2.51664 0
M  V30 473 H 44.169 -3.655 3.29652 0
M  V30 474 N 45.8211 -1.22559 -0.990812 0
M  V30 475 C 46.7711 -0.964807 -2.0658 0
M  V30 476 C 47.7551 0.0853472 -1.60673 0
M  V30 477 O 48.9471 -0.125443 -1.76555 0
M  V30 478 C 46.0761 -0.546707 -3.38919 0
M  V30 479 C 45.1621 -1.6317 -3.91454 0
M  V30 480 N 45.5531 -2.85985 -4.17189 0
M  V30 481 C 43.8511 -1.50387 -4.19881 0
M  V30 482 C 44.5521 -3.56159 -4.59919 0
M  V30 483 N 43.5281 -2.83637 -4.63736 0
M  V30 484 H 47.3301 -1.89769 -2.24421 0
M  V30 485 H 44.8441 -1.12343 -1.17273 0
M  V30 486 H 46.8411 -0.34119 -4.15502 0
M  V30 487 H 45.5011 0.379254 -3.22478 0
M  V30 488 H 46.5121 -3.22392 -4.05319 0
M  V30 489 H 43.1891 -0.644254 -4.12499 0
M  V30 490 H 44.5791 -4.6139 -4.88435 0
M  V30 491 N 47.2992 1.18797 -1.03562 0
M  V30 492 C 48.5462 1.8865 -0.736023 0
M  V30 493 C 48.8742 1.80041 0.735889 0
M  V30 494 O 48.1292 1.19179 1.55225 0
M  V30 495 C 48.4282 3.38692 -1.14117 0
M  V30 496 C 48.0942 3.67504 -2.6125 0
M  V30 497 C 46.7562 3.75078 -3.01447 0
M  V30 498 C 49.1082 3.80293 -3.56408 0
M  V30 499 C 46.4362 3.92915 -4.35701 0
M  V30 500 C 48.7882 3.99645 -4.90374 0
M  V30 501 C 47.4522 4.05453 -5.30249 0
M  V30 502 H 46.7222 0.690321 -0.26933 0
M  V30 503 H 49.3692 1.40641 -1.29971 0
M  V30 504 H 47.6742 3.88645 -0.496202 0
M  V30 505 H 49.3712 3.91072 -0.886789 0
M  V30 506 H 45.9612 3.62223 -2.29113 0
M  V30 507 H 50.1452 3.73779 -3.26501 0
M  V30 508 H 45.4012 3.95653 -4.66121 0
M  V30 509 H 49.5752 4.08482 -5.64017 0
M  V30 510 H 47.2022 4.19027 -6.34288 0
M  V30 511 N 48.7773 0.814389 1.34928 0
M  V30 512 C 50.1933 0.499084 1.51596 0
M  V30 513 C 50.3933 -0.978319 1.76157 0
M  V30 514 O 49.4493 -1.76309 1.80752 0
M  V30 515 C 50.7623 1.35121 2.68631 0
M  V30 516 C 52.3103 1.34746 2.82511 0
M  V30 517 C 52.7853 2.18388 4.0258 0
M  V30 518 N 54.2763 2.15966 4.09772 0
M  V30 519 C 55.0113 2.77437 5.01813 0
M  V30 520 N 54.5073 3.47866 5.99134 0
M  V30 521 N 56.3003 2.67037 4.94619 0
M  V30 522 H 48.4513 1.7711 1.17243 0
M  V30 523 H 50.7143 0.754256 0.574284 0
M  V30 524 H 50.4203 2.40001 2.57085 0
M  V30 525 H 50.2943 1.00991 3.63429 0
M  V30 526 H 52.6813 0.30648 2.93504 0
M  V30 527 H 52.7623 1.72869 1.88547 0
M  V30 528 H 52.4063 3.2253 3.92347 0
M  V30 529 H 52.3363 1.77621 4.9574 0
M  V30 530 H 54.8273 1.64729 3.40107 0
M  V30 531 H 55.1403 3.92038 6.65977 0
M  V30 532 H 53.4853 3.51972 5.99284 0
M  V30 533 H 56.6763 2.11597 4.17546 0
M  V30 534 H 56.8493 3.15232 5.66156 0
M  V30 535 N 50.2554 -1.46986 0.568584 0
M  V30 536 C 51.5044 -2.01646 0.0465894 0
M  V30 537 C 51.8174 -1.44721 -1.31587 0
M  V30 538 O 53.0234 -1.91113 -1.92842 0
M  V30 539 C 51.4794 -3.59885 0.032752 0
M  V30 540 C 51.0874 -4.25804 1.39266 0
M  V30 541 C 52.8314 -4.22255 -0.436038 0
M  V30 542 C 50.7384 -5.76081 1.33732 0
M  V30 543 H 49.6684 -0.753876 0.013647 0
M  V30 544 H 52.3194 -1.68864 0.718131 0
M  V30 545 H 50.7014 -3.8968 -0.704669 0
M  V30 546 H 51.8754 -4.07637 2.1487 0
M  V30 547 H 50.1904 -3.7547 1.80032 0
M  V30 548 H 52.7874 -5.32394 -0.49602 0
M  V30 549 H 53.1304 -3.90212 -1.45053 0
M  V30 550 H 53.6634 -3.97033 0.246877 0
M  V30 551 H 50.4024 -6.12761 2.32817 0
M  V30 552 H 49.9224 -5.96553 0.623267 0
M  V30 553 H 51.6014 -6.38518 1.0442 0
M  V30 554 N 51.7335 -0.305618 -1.54608 0
M  V30 555 C 52.9585 0.307562 -2.05107 0
M  V30 556 C 53.3835 1.46385 -1.18123 0
M  V30 557 O 52.7415 1.8034 -0.186324 0
M  V30 558 C 52.7895 0.73704 -3.52987 0
M  V30 559 O 51.8935 1.84134 -3.6901 0
M  V30 560 H 51.2345 0.0589143 -0.661381 0
M  V30 561 H 53.7645 -0.448807 -1.99617 0
M  V30 562 H 53.7745 1.02459 -3.94925 0
M  V30 563 H 52.4495 -0.108773 -4.15758 0
M  V30 564 H 51.0265 1.55398 -3.38978 0
M  V30 565 N 53.2116 1.57565 -0.0334293 0
M  V30 566 C 54.4396 1.9628 0.654347 0
M  V30 567 C 54.8546 0.910138 1.65414 0
M  V30 568 O 54.2116 -0.107595 1.82183 0
M  V30 569 C 54.2626 3.35067 1.35693 0
M  V30 570 O 53.9836 4.36296 0.397191 0
M  V30 571 C 55.4846 3.88439 2.13613 0
M  V30 572 H 52.7046 0.646369 0.180132 0
M  V30 573 H 55.2486 2.04282 -0.0944721 0
M  V30 574 H 53.4036 3.2827 2.05712 0
M  V30 575 H 53.8176 5.1678 0.896597 0
M  V30 576 H 55.2916 4.8788 2.58219 0
M  V30 577 H 55.7686 3.22914 2.97696 0
M  V30 578 H 56.3746 3.98516 1.48543 0
M  V30 579 N 54.6897 -0.239769 1.55765 0
M  V30 580 C 55.5997 -1.31831 1.94056 0
M  V30 581 C 56.6157 -1.52275 0.841925 0
M  V30 582 O 57.7917 -1.65759 1.14394 0
M  V30 583 C 54.8567 -2.65156 2.23368 0
M  V30 584 C 53.9177 -2.53173 3.46701 0
M  V30 585 C 53.1507 -3.8014 3.74606 0
M  V30 586 O 53.3737 -4.82343 3.04469 0
M  V30 587 O 52.3077 -3.78344 4.68123 0
M  V30 588 H 56.1337 -1.02347 2.85935 0
M  V30 589 H 53.7187 -0.441123 1.42739 0
M  V30 590 H 55.6007 -3.43929 2.43497 0
M  V30 591 H 54.2757 -2.94358 1.34666 0
M  V30 592 H 53.1827 -1.72662 3.31871 0
M  V30 593 H 54.5157 -2.28915 4.35728 0
M  V30 594 N 56.1678 -1.49265 -0.50573 0
M  V30 595 C 57.1148 -1.65585 -1.6078 0
M  V30 596 C 58.0848 -0.497396 -1.58478 0
M  V30 597 O 59.2698 -0.72385 -1.76536 0
M  V30 598 C 56.4098 -1.72408 -2.98948 0
M  V30 599 C 55.5228 -2.99525 -3.11301 0
M  V30 600 C 54.6578 -2.97356 -4.40174 0
M  V30 601 C 53.6968 -4.19074 -4.46143 0
M  V30 602 N 52.8338 -4.14841 -5.66437 0
M  V30 603 H 57.6738 -2.59688 -1.46172 0
M  V30 604 H 55.2108 -1.28761 -0.711261 0
M  V30 605 H 57.1688 -1.74344 -3.79025 0
M  V30 606 H 55.7988 -0.817753 -3.1227 0
M  V30 607 H 54.8508 -3.07222 -2.24318 0
M  V30 608 H 56.1628 -3.89518 -3.11572 0
M  V30 609 H 55.3168 -2.97829 -5.28567 0
M  V30 610 H 54.0558 -2.05133 -4.42461 0
M  V30 611 H 53.0608 -4.1885 -3.56153 0
M  V30 612 H 54.2858 -5.12483 -4.45575 0
M  V30 613 H 52.2318 -3.25453 -5.69575 0
M  V30 614 H 52.1488 -4.98564 -5.68304 0
M  V30 615 H 53.4168 -4.1941 -6.57051 0
M  V30 616 N 57.6459 0.756429 -1.3826 0
M  V30 617 C 58.5789 1.87802 -1.29637 0
M  V30 618 C 59.5569 1.61667 -0.173939 0
M  V30 619 O 60.7409 1.85208 -0.350775 0
M  V30 620 C 57.8679 3.23354 -1.00797 0
M  V30 621 C 56.9139 3.68379 -2.14939 0
M  V30 622 S 57.7469 3.8025 -3.77054 0
M  V30 623 C 58.9029 5.18626 -3.50396 0
M  V30 624 H 59.1359 1.94829 -2.24564 0
M  V30 625 H 56.6689 0.919117 -1.24063 0
M  V30 626 H 58.6269 4.01637 -0.848413 0
M  V30 627 H 57.2879 3.14008 -0.0759369 0
M  V30 628 H 56.4809 4.66693 -1.90299 0
M  V30 629 H 56.0829 2.97242 -2.26988 0
M  V30 630 H 58.3749 6.04289 -3.06334 0
M  V30 631 H 59.3179 5.48286 -4.48094 0
M  V30 632 H 59.7259 4.87289 -2.84973 0
M  V30 633 N 59.124 1.23083 0.984299 0
M  V30 634 C 60.535 1.05609 1.5396 0
M  V30 635 C 60.886 -0.377793 1.92528 0
M  V30 636 O 60.011 -1.26398 1.75649 0
M  V30 637 C 60.606 1.91087 2.7977 0
M  V30 638 C 59.165 1.77885 3.31713 0
M  V30 639 C 58.312 1.87028 2.04733 0
M  V30 640 H 61.263 1.36802 0.804419 0
M  V30 641 H 61.284 1.43336 3.5247 0
M  V30 642 H 60.796 2.9544 2.51668 0
M  V30 643 H 58.897 0.762995 3.64704 0
M  V30 644 H 59.01 2.61047 4.01735 0
M  V30 645 H 57.374 1.30565 2.18689 0
M  V30 646 H 58.157 2.92929 1.79017 0
M  V30 647 N 60.6021 -1.18246 1.0419 0
M  V30 648 C 61.8301 -1.92195 0.766072 0
M  V30 649 C 62.2451 -1.76247 -0.676933 0
M  V30 650 O 61.6021 -1.09293 -1.46155 0
M  V30 651 C 61.6531 -3.43568 1.12442 0
M  V30 652 O 61.3741 -3.59015 2.51078 0
M  V30 653 C 62.8751 -4.34613 0.873275 0
M  V30 654 H 60.0951 -0.610114 0.279288 0
M  V30 655 H 62.6391 -1.50007 1.38989 0
M  V30 656 H 60.7941 -3.8354 0.545542 0
M  V30 657 H 61.2081 -4.5273 2.64831 0
M  V30 658 H 62.6821 -5.39374 1.17385 0
M  V30 659 H 63.1591 -4.38781 -0.191909 0
M  V30 660 H 63.7651 -4.00341 1.43551 0
M  V30 661 N 62.0802 -0.821533 -1.34494 0
M  V30 662 C 63.3052 -0.420873 -2.03085 0
M  V30 663 C 63.7302 0.964915 -1.61465 0
M  V30 664 O 63.0882 1.62763 -0.798607 0
M  V30 665 C 63.1362 -0.529414 -3.56693 0
M  V30 666 O 62.2402 0.451302 -4.09923 0
M  V30 667 H 61.5812 -0.173489 -0.640935 0
M  V30 668 H 64.1112 -1.11157 -1.71771 0
M  V30 669 H 64.1212 -0.404671 -4.05988 0
M  V30 670 H 62.7962 -1.54014 -3.86332 0
M  V30 671 H 61.3732 0.285558 -3.71805 0
M  V30 672 N 63.5583 1.46682 -0.576371 0
M  V30 673 C 64.4883 2.33028 0.148397 0
M  V30 674 C 65.4693 1.44961 0.889956 0
M  V30 675 O 66.6543 1.73789 0.866662 0
M  V30 676 C 63.7843 3.27117 1.1667 0
M  V30 677 C 62.7383 4.24575 0.540386 0
M  V30 678 C 62.0643 5.08126 1.6647 0
M  V30 679 C 63.3643 5.19722 -0.518331 0
M  V30 680 H 65.0583 2.93875 -0.572509 0
M  V30 681 H 62.6043 1.41315 -0.276768 0
M  V30 682 H 64.5573 3.86374 1.68204 0
M  V30 683 H 63.2813 2.64364 1.9178 0
M  V30 684 H 61.9403 3.66571 0.0461769 0
M  V30 685 H 61.5883 4.41762 2.40531 0
M  V30 686 H 61.2883 5.74122 1.25131 0
M  V30 687 H 62.8123 5.70246 2.18293 0
M  V30 688 H 64.2263 5.73232 -0.0883058 0
M  V30 689 H 62.6233 5.94026 -0.851679 0
M  V30 690 H 63.6933 4.64037 -1.40703 0
M  V30 691 N 65.0364 0.313813 1.54444 0
M  V30 692 C 66.2854 -0.292519 1.99568 0
M  V30 693 C 66.5984 -1.54011 1.20582 0
M  V30 694 O 67.8044 -2.22183 1.56035 0
M  V30 695 C 66.2604 -0.571752 3.55329 0
M  V30 696 C 65.8684 0.658229 4.43138 0
M  V30 697 C 67.6124 -1.13857 4.08946 0
M  V30 698 C 65.5194 0.351439 5.90355 0
M  V30 699 H 64.4494 -0.113079 0.745472 0
M  V30 700 H 67.1004 0.424518 1.78522 0
M  V30 701 H 65.4824 -1.34872 3.72325 0
M  V30 702 H 66.6564 1.43403 4.37918 0
M  V30 703 H 64.9714 1.14458 4.0036 0
M  V30 704 H 67.5684 -1.38257 5.16516 0
M  V30 705 H 67.9114 -2.08489 3.6033 0
M  V30 706 H 68.4444 -0.423015 3.95544 0
M  V30 707 H 65.1834 1.26667 6.43145 0
M  V30 708 H 64.7034 -0.386842 5.98551 0
M  V30 709 H 66.3824 -0.0423134 6.46986 0
M  V30 710 N 66.5145 -1.57545 0.0417849 0
M  V30 711 C 67.4645 -2.07483 -0.945247 0
M  V30 712 C 68.4485 -0.977983 -1.27767 0
M  V30 713 O 69.6405 -1.24142 -1.26166 0
M  V30 714 C 66.7695 -2.61576 -2.22335 0
M  V30 715 C 65.8555 -3.78213 -1.91874 0
M  V30 716 N 66.2465 -4.88344 -1.31733 0
M  V30 717 C 64.5445 -3.8694 -2.21796 0
M  V30 718 C 65.2455 -5.69462 -1.1869 0
M  V30 719 N 64.2215 -5.16771 -1.68666 0
M  V30 720 H 68.0235 -2.90029 -0.475441 0
M  V30 721 H 65.5375 -1.61581 -0.162911 0
M  V30 722 H 67.5345 -2.95651 -2.93932 0
M  V30 723 H 66.1945 -1.80465 -2.69931 0
M  V30 724 H 67.2055 -5.08335 -0.990729 0
M  V30 725 H 63.8825 -3.16757 -2.71977 0
M  V30 726 H 65.2725 -6.68023 -0.720793 0
M  V30 727 N 67.9926 0.231505 -1.5589 0
M  V30 728 C 68.9556 1.27028 -1.90779 0
M  V30 729 C 69.9556 1.40308 -0.785507 0
M  V30 730 O 71.1456 1.38744 -1.05336 0
M  V30 731 C 68.2776 2.64566 -2.14983 0
M  V30 732 H 69.4706 0.973017 -2.83677 0
M  V30 733 H 67.0236 0.471486 -1.49019 0
M  V30 734 H 67.7586 2.99406 -1.24604 0
M  V30 735 H 67.5436 2.56305 -2.96732 0
M  V30 736 H 69.0336 3.39543 -2.43105 0
M  V30 737 N 69.4707 1.49531 0.497807 0
M  V30 738 C 70.4007 1.6935 1.60757 0
M  V30 739 C 71.3817 0.542218 1.61227 0
M  V30 740 O 72.5667 0.778417 1.77917 0
M  V30 741 C 69.6967 1.76298 2.99226 0
M  V30 742 C 68.6507 2.91248 3.13622 0
M  V30 743 C 67.9767 2.83312 4.53474 0
M  V30 744 C 69.2767 4.3214 2.93346 0
M  V30 745 H 70.9707 2.62263 1.44425 0
M  V30 746 H 68.5167 1.26208 0.693367 0
M  V30 747 H 70.4697 1.88749 3.76765 0
M  V30 748 H 69.1937 0.799871 3.16654 0
M  V30 749 H 67.8527 2.78404 2.38509 0
M  V30 750 H 67.5007 1.84902 4.67782 0
M  V30 751 H 67.2007 3.60465 4.64046 0
M  V30 752 H 68.7247 2.97775 5.33069 0
M  V30 753 H 70.1387 4.45649 3.60652 0
M  V30 754 H 68.5357 5.1054 3.15387 0
M  V30 755 H 69.6057 4.46363 1.89441 0
M  V30 756 N 70.9488 -0.749086 1.3866 0
M  V30 757 C 71.9118 -1.84457 1.36045 0
M  V30 758 C 72.9118 -1.58682 0.260122 0
M  V30 759 O 74.1018 -1.66343 0.517261 0
M  V30 760 C 71.2338 -3.22008 1.11911 0
M  V30 761 H 72.4268 -1.88182 2.33512 0
M  V30 762 H 69.9798 -0.951266 1.24019 0
M  V30 763 H 70.7148 -3.2395 0.150686 0
M  V30 764 H 70.4998 -3.42111 1.91579 0
M  V30 765 H 71.9898 -4.0208 1.12788 0
M  V30 766 N 72.4269 -1.23603 -0.977757 0
M  V30 767 C 73.3569 -1.04401 -2.0886 0
M  V30 768 C 74.3379 0.0399052 -1.70053 0
M  V30 769 O 75.5229 -0.125246 -1.93796 0
M  V30 770 C 72.6529 -0.637269 -3.41403 0
M  V30 771 C 71.6069 -1.66883 -3.94124 0
M  V30 772 C 70.9329 -1.11745 -5.22893 0
M  V30 773 C 72.2329 -3.06247 -4.23096 0
M  V30 774 H 73.9269 -1.97316 -2.25182 0
M  V30 775 H 71.4729 -0.950096 -1.08209 0
M  V30 776 H 73.4259 -0.48998 -4.18542 0
M  V30 777 H 72.1499 0.327557 -3.24953 0
M  V30 778 H 70.8089 -1.80416 -3.19133 0
M  V30 779 H 70.4569 -0.143527 -5.02795 0
M  V30 780 H 70.1569 -1.80672 -5.59134 0
M  V30 781 H 71.6809 -0.982067 -6.02651 0
M  V30 782 H 73.0949 -2.96001 -4.90975 0
M  V30 783 H 71.4919 -3.72436 -4.70544 0
M  V30 784 H 72.5619 -3.55041 -3.30263 0
M  V30 785 N 73.905 1.17692 -1.04816 0
M  V30 786 C 75.133 1.91786 -0.776254 0
M  V30 787 C 75.548 1.76604 0.667577 0
M  V30 788 O 74.905 1.10067 1.45573 0
M  V30 789 C 74.956 3.42967 -1.14263 0
M  V30 790 O 74.677 3.57678 -2.52978 0
M  V30 791 C 76.178 4.34144 -0.896311 0
M  V30 792 H 73.398 0.608624 -0.282519 0
M  V30 793 H 75.942 1.49268 -1.39783 0
M  V30 794 H 74.097 3.83245 -0.565874 0
M  V30 795 H 74.511 4.51319 -2.67229 0
M  V30 796 H 75.985 5.38744 -1.20244 0
M  V30 797 H 76.462 4.38876 0.168636 0
M  V30 798 H 77.068 3.99574 -1.45672 0
M  V30 799 N 75.3831 0.828654 1.34056 0
M  V30 800 C 76.3301 0.252567 2.29414 0
M  V30 801 C 77.3001 -0.62588 1.53857 0
M  V30 802 O 78.4851 -0.566312 1.82202 0
M  V30 803 C 75.6251 -0.574831 3.40279 0
M  V30 804 C 74.7381 0.326499 4.30764 0
M  V30 805 C 73.8731 -0.511016 5.28736 0
M  V30 806 C 72.9121 0.389342 6.1086 0
M  V30 807 N 72.0491 -0.409439 7.00905 0
M  V30 808 H 76.8891 1.07108 2.78086 0
M  V30 809 H 74.4261 0.539677 1.36843 0
M  V30 810 H 76.3841 -1.06992 4.03248 0
M  V30 811 H 75.0141 -1.35841 2.92826 0
M  V30 812 H 74.0661 0.939837 3.68607 0
M  V30 813 H 75.3781 1.01857 4.88289 0
M  V30 814 H 74.5321 -1.07035 5.97184 0
M  V30 815 H 73.2711 -1.23657 4.71763 0
M  V30 816 H 72.2761 0.960769 5.4134 0
M  V30 817 H 73.5011 1.1131 6.69916 0
M  V30 818 H 71.4471 -1.11856 6.46393 0
M  V30 819 H 71.3641 0.224126 7.55668 0
M  V30 820 H 72.6321 -0.951336 7.73673 0
M  V30 821 N 76.8612 -1.46375 0.584142 0
M  V30 822 C 78.2772 -1.57694 0.245929 0
M  V30 823 C 78.4772 -1.57903 -1.25175 0
M  V30 824 O 77.5332 -1.49676 -2.03355 0
M  V30 825 C 78.8462 -2.87028 0.896402 0
M  V30 826 C 80.3942 -3.00662 0.870127 0
M  V30 827 C 80.8692 -4.32734 1.50017 0
M  V30 828 N 82.3602 -4.39436 1.46458 0
M  V30 829 C 83.0952 -5.40248 1.92144 0
M  V30 830 N 82.5912 -6.47726 2.4581 0
M  V30 831 N 84.3842 -5.31459 1.83052 0
M  V30 832 H 76.5352 -1.44483 1.55687 0
M  V30 833 H 78.7982 -0.689291 0.650831 0
M  V30 834 H 78.5042 -2.9269 1.95002 0
M  V30 835 H 78.3782 -3.75014 0.405486 0
M  V30 836 H 80.7652 -2.94581 -0.174871 0
M  V30 837 H 80.8462 -2.14148 1.39908 0
M  V30 838 H 80.4902 -4.39573 2.54437 0
M  V30 839 H 80.4202 -5.18025 0.946432 0
M  V30 840 H 82.9112 -3.62367 1.07231 0
M  V30 841 H 83.2242 -7.20863 2.78525 0
M  V30 842 H 81.5692 -6.48542 2.49836 0
M  V30 843 H 84.7602 -4.46396 1.40883 0
M  V30 844 H 84.9332 -6.09881 2.18973 0
M  V30 845 N 78.3393 -0.321999 -1.54275 0
M  V30 846 C 79.3023 0.531975 -2.22941 0
M  V30 847 C 80.3023 1.04478 -1.22234 0
M  V30 848 O 81.4923 0.937452 -1.46825 0
M  V30 849 C 78.6243 1.73874 -2.93224 0
M  V30 850 H 79.8173 -0.0682612 -2.99822 0
M  V30 851 H 77.3703 -0.0730644 -1.56129 0
M  V30 852 H 78.1053 2.37825 -2.20476 0
M  V30 853 H 77.8903 1.37847 -3.6707 0
M  V30 854 H 79.3803 2.34496 -3.45545 0
M  V30 855 N 79.8174 1.5752 -0.0501392 0
M  V30 856 C 80.7804 2.1037 0.909786 0
M  V30 857 C 81.7804 1.02308 1.24056 0
M  V30 858 O 82.9704 1.28385 1.17741 0
M  V30 859 C 80.1024 2.58708 2.21998 0
M  V30 860 H 81.2954 2.96479 0.451665 0
M  V30 861 H 78.8484 1.55038 0.198248 0
M  V30 862 H 79.5834 1.75989 2.72394 0
M  V30 863 H 79.3684 3.37675 1.99295 0
M  V30 864 H 80.8584 2.99747 2.9076 0
M  V30 865 N 81.2955 -0.223234 1.56011 0
M  V30 866 C 82.2585 -1.26014 1.9145 0
M  V30 867 C 83.2585 -1.3989 0.792937 0
M  V30 868 O 84.4485 -1.38184 1.0607 0
M  V30 869 C 81.5805 -2.63422 2.16383 0
M  V30 870 H 82.7735 -0.95796 2.84189 0
M  V30 871 H 80.3265 -0.463576 1.49267 0
M  V30 872 H 81.0615 -2.98741 1.2619 0
M  V30 873 H 80.8465 -2.54728 2.98088 0
M  V30 874 H 82.3365 -3.38249 2.44903 0
M  V30 875 N 82.7736 -1.49793 -0.48987 0
M  V30 876 C 83.7206 -1.67281 -1.59014 0
M  V30 877 C 84.6906 -0.514177 -1.57941 0
M  V30 878 O 85.8756 -0.742533 -1.75759 0
M  V30 879 C 83.0156 -1.75569 -2.97102 0
M  V30 880 C 82.1286 -3.0281 -3.08107 0
M  V30 881 C 81.2636 -3.02008 -4.36995 0
M  V30 882 C 80.3026 -4.23782 -4.41673 0
M  V30 883 N 79.4396 -4.20826 -5.62005 0
M  V30 884 H 84.2796 -2.61224 -1.43409 0
M  V30 885 H 81.8166 -1.29508 -0.697565 0
M  V30 886 H 83.7746 -1.78354 -3.77155 0
M  V30 887 H 82.4046 -0.850827 -3.11385 0
M  V30 888 H 81.4566 -3.09584 -2.21047 0
M  V30 889 H 82.7686 -3.92801 -3.07423 0
M  V30 890 H 81.9226 -3.03418 -5.25378 0
M  V30 891 H 80.6616 -2.09815 -4.4026 0
M  V30 892 H 79.6666 -4.22604 -3.5169 0
M  V30 893 H 80.8916 -5.17181 -4.40115 0
M  V30 894 H 78.8376 -3.31476 -5.66091 0
M  V30 895 H 78.7546 -5.04564 -5.62984 0
M  V30 896 H 80.0226 -4.26355 -6.52565 0
M  V30 897 N 84.2517 0.741722 -1.39055 0
M  V30 898 C 85.4977 1.50336 -1.36113 0
M  V30 899 C 85.8307 1.94148 0.0450796 0
M  V30 900 O 85.1057 1.66301 1.00868 0
M  V30 901 C 85.3887 2.74773 -2.32749 0
M  V30 902 C 85.2417 2.37023 -3.82283 0
M  V30 903 C 86.5607 3.76846 -2.27322 0
M  V30 904 H 83.6797 0.545351 -0.495743 0
M  V30 905 H 86.3217 0.848624 -1.69995 0
M  V30 906 H 84.4717 3.30639 -2.03986 0
M  V30 907 H 86.1437 1.8684 -4.21768 0
M  V30 908 H 84.3867 1.69334 -3.99385 0
M  V30 909 H 85.0577 3.26104 -4.45376 0
M  V30 910 H 87.5337 3.30548 -2.5274 0
M  V30 911 H 86.4097 4.6159 -2.97028 0
M  V30 912 H 86.6707 4.23286 -1.27599 0
M  V30 913 N 85.7298 1.2412 0.971189 0
M  V30 914 C 86.6778 1.02812 2.08644 0
M  V30 915 C 87.6718 -0.0358403 1.69362 0
M  V30 916 O 88.8778 0.118429 1.7961 0
M  V30 917 H 85.2528 0.315428 0.682649 0
M  V30 918 H 87.2238 1.97397 2.23779 0
M  V30 919 C 85.9728 0.645874 3.41649 0
M  V30 920 H 85.2958 1.45632 3.72332 0
M  V30 921 H 86.7358 0.536366 4.20594 0
M  V30 922 C 85.1948 -0.646713 3.30635 0
M  V30 923 O 85.7248 -1.69338 3.64263 0
M  V30 924 N 83.9308 -0.626115 2.83775 0
M  V30 925 H 83.4778 0.225988 2.56607 0
M  V30 926 H 83.4358 -1.49117 2.76788 0
M  V30 927 N 87.2079 -1.17134 1.05439 0
M  V30 928 C 88.1179 -2.24878 0.668365 0
M  V30 929 C 89.1339 -1.71186 -0.311687 0
M  V30 930 O 90.3099 -2.00738 -0.163161 0
M  V30 931 C 87.3749 -3.46662 0.051648 0
M  V30 932 C 86.4359 -4.15429 1.08246 0
M  V30 933 C 85.6689 -5.31399 0.495082 0
M  V30 934 O 85.8919 -5.66153 -0.694743 0
M  V30 935 O 84.8259 -5.89187 1.23056 0
M  V30 936 H 88.6519 -2.60189 1.56637 0
M  V30 937 H 86.2369 -1.24482 0.826104 0
M  V30 938 H 88.1189 -4.20394 -0.290966 0
M  V30 939 H 86.7939 -3.13142 -0.819971 0
M  V30 940 H 85.7009 -3.43704 1.47711 0
M  V30 941 H 87.0339 -4.52982 1.92532 0
M  V30 942 N 88.686 -0.835752 -1.33615 0
M  V30 943 C 89.963 -0.352017 -1.92406 0
M  V30 944 C 90.343 1.16225 -1.76224 0
M  V30 945 O 89.691 1.97526 -1.14873 0
M  V30 946 C 89.901 -0.795485 -3.39813 0
M  V30 947 C 91.249 -0.801703 -4.16963 0
M  V30 948 O 92.273 -0.738889 -3.48452 0
M  V30 949 O 91.132 -0.886607 -5.3926 0
M  V30 950 H 88.226 -0.0989641 -0.821057 0
M  V30 951 H 90.772 -0.921397 -1.42507 0
M  V30 952 H 89.544 -1.83795 -3.45449 0
M  V30 953 H 89.167 -0.202505 -3.97084 0
M  V30 954 N 90.1641 1.46063 -0.591896 0
M  V30 955 C 91.0941 2.33172 0.123673 0
M  V30 956 C 92.0751 1.45897 0.87453 0
M  V30 957 O 93.2601 1.74698 0.848181 0
M  V30 958 C 90.3901 3.28336 1.13194 0
M  V30 959 C 89.3441 4.25124 0.495324 0
M  V30 960 C 88.6701 5.09863 1.61071 0
M  V30 961 C 89.9701 5.19143 -0.573425 0
M  V30 962 H 91.6641 2.93252 -0.603646 0
M  V30 963 H 89.2101 1.41014 -0.291741 0
M  V30 964 H 91.1631 3.88137 1.64097 0
M  V30 965 H 89.8871 2.66383 1.88965 0
M  V30 966 H 88.5461 3.66599 0.00729452 0
M  V30 967 H 88.1941 4.44288 2.35832 0
M  V30 968 H 87.8941 5.75417 1.19035 0
M  V30 969 H 89.4181 5.72529 2.12233 0
M  V30 970 H 90.8321 5.73106 -0.1491 0
M  V30 971 H 89.2291 5.93089 -0.914636 0
M  V30 972 H 90.2991 4.62519 -1.45617 0
M  V30 973 N 91.6422 0.330177 1.54103 0
M  V30 974 C 92.8902 -0.269871 2.0029 0
M  V30 975 C 93.2112 -1.52133 1.21986 0
M  V30 976 O 92.4812 -1.93212 0.323438 0
M  V30 977 H 91.0612 -0.10271 0.739905 0
M  V30 978 H 93.7232 0.448249 1.89675 0
M  V30 979 H 92.8192 -0.52166 3.07709 0
M  V30 980 N 93.1203 -1.57491 0.0584922 0
M  V30 981 C 94.0503 -2.14988 -0.911178 0
M  V30 982 C 95.0313 -1.07343 -1.31952 0
M  V30 983 O 96.2163 -1.35318 -1.39294 0
M  V30 984 C 93.3463 -2.70078 -2.18347 0
M  V30 985 C 92.3003 -3.82771 -1.91495 0
M  V30 986 C 91.6263 -4.24408 -3.25241 0
M  V30 987 C 92.9263 -5.07592 -1.23075 0
M  V30 988 H 94.6203 -2.96263 -0.432246 0
M  V30 989 H 92.1663 -1.42512 -0.206469 0
M  V30 990 H 94.1193 -3.08943 -2.86587 0
M  V30 991 H 92.8433 -1.86005 -2.68458 0
M  V30 992 H 91.5023 -3.44389 -1.25664 0
M  V30 993 H 91.1503 -3.37275 -3.73168 0
M  V30 994 H 90.8503 -5.00366 -3.08071 0
M  V30 995 H 92.3743 -4.65879 -3.94701 0
M  V30 996 H 93.7883 -5.43857 -1.81362 0
M  V30 997 H 92.1853 -5.88741 -1.16207 0
M  V30 998 H 93.2553 -4.84454 -0.207847 0
M  V30 999 N 94.5984 0.214957 -1.56127 0
M  V30 1000 C 95.5284 1.2695 -1.95974 0
M  V30 1001 C 96.5094 1.48539 -0.828868 0
M  V30 1002 O 97.6944 1.60611 -1.09168 0
M  V30 1003 C 94.8244 2.61794 -2.28214 0
M  V30 1004 C 93.7784 2.54851 -3.43853 0
M  V30 1005 C 93.1044 3.93785 -3.61715 0
M  V30 1006 C 94.4044 2.09065 -4.78632 0
M  V30 1007 H 96.0984 0.93846 -2.84312 0
M  V30 1008 H 93.6444 0.449996 -1.36788 0
M  V30 1009 H 95.5974 3.35731 -2.54682 0
M  V30 1010 H 94.3214 2.96599 -1.36736 0
M  V30 1011 H 92.9804 1.8337 -3.17444 0
M  V30 1012 H 92.6284 4.25908 -2.67602 0
M  V30 1013 H 92.3284 3.90019 -4.39498 0
M  V30 1014 H 93.8524 4.69374 -3.90539 0
M  V30 1015 H 95.2664 2.7275 -5.04262 0
M  V30 1016 H 93.6634 2.16346 -5.59745 0
M  V30 1017 H 94.7334 1.04315 -4.73547 0
M  V30 1018 N 96.0765 1.50051 0.48192 0
M  V30 1019 C 97.3015 1.64508 1.26301 0
M  V30 1020 C 97.7265 0.323851 1.85291 0
M  V30 1021 O 97.0845 -0.710969 1.66778 0
M  V30 1022 C 97.1325 2.7305 2.35533 0
M  V30 1023 O 96.2365 2.3355 3.39895 0
M  V30 1024 H 95.5775 0.549978 0.372048 0
M  V30 1025 H 98.1075 1.9636 0.574786 0
M  V30 1026 H 98.1175 2.95799 2.8101 0
M  V30 1027 H 96.7925 3.68946 1.91967 0
M  V30 1028 H 95.3695 2.21205 3.00204 0
M  V30 1029 N 97.5546 -0.734337 1.39446 0
M  V30 1030 C 98.4646 -1.87879 1.40495 0
M  V30 1031 C 99.4806 -1.714 0.299672 0
M  V30 1032 O 100.657 -1.93991 0.541249 0
M  V30 1033 C 97.7216 -3.23477 1.24754 0
M  V30 1034 C 96.7826 -3.52344 2.45259 0
M  V30 1035 C 96.0156 -4.81473 2.30259 0
M  V30 1036 O 96.2386 -5.55237 1.30643 0
M  V30 1037 O 95.1726 -5.10254 3.19256 0
M  V30 1038 H 98.9986 -1.89949 2.36966 0
M  V30 1039 H 96.5836 -0.882243 1.20569 0
M  V30 1040 H 98.4656 -4.04509 1.18111 0
M  V30 1041 H 97.1406 -3.22176 0.313781 0
M  V30 1042 H 96.0476 -2.71396 2.57478 0
M  V30 1043 H 97.3806 -3.58426 3.37331 0
M  V30 1044 N 99.0327 -1.24633 -0.964593 0
M  V30 1045 C 99.9427 -1.05859 -2.09359 0
M  V30 1046 C 100.959 0.00148855 -1.74 0
M  V30 1047 O 102.135 -0.197346 -2.00431 0
M  V30 1048 C 99.1997 -0.668879 -3.40187 0
M  V30 1049 C 98.2607 -1.80578 -3.89474 0
M  V30 1050 C 97.4937 -1.43457 -5.14058 0
M  V30 1051 O 97.7167 -0.325775 -5.69469 0
M  V30 1052 O 96.6507 -2.2613 -5.57807 0
M  V30 1053 H 100.477 -2.00516 -2.28094 0
M  V30 1054 H 98.0617 -1.03481 -1.0776 0
M  V30 1055 H 99.9437 -0.463211 -4.18846 0
M  V30 1056 H 98.6187 0.248536 -3.22744 0
M  V30 1057 H 97.5257 -2.06623 -3.11862 0
M  V30 1058 H 98.8587 -2.70208 -4.11398 0
M  V30 1059 N 100.511 1.16574 -1.06058 0
M  V30 1060 C 101.458 2.20883 -0.669263 0
M  V30 1061 C 102.428 1.62729 0.332918 0
M  V30 1062 O 103.613 1.895 0.222346 0
M  V30 1063 C 100.753 3.45049 -0.0593572 0
M  V30 1064 C 99.8658 4.17458 -1.11143 0
M  V30 1065 C 99.0008 5.29135 -0.467916 0
M  V30 1066 C 98.0398 5.93343 -1.50369 0
M  V30 1067 N 97.1768 6.96516 -0.883706 0
M  V30 1068 H 102.017 2.53709 -1.5632 0
M  V30 1069 H 99.5538 1.24616 -0.781625 0
M  V30 1070 H 101.512 4.16033 0.311771 0
M  V30 1071 H 100.142 3.12781 0.797992 0
M  V30 1072 H 99.1938 3.45101 -1.60029 0
M  V30 1073 H 100.506 4.61307 -1.89731 0
M  V30 1074 H 99.6598 6.06684 -0.0436871 0
M  V30 1075 H 98.3988 4.86443 0.349864 0
M  V30 1076 H 97.4038 5.14517 -1.93784 0
M  V30 1077 H 98.6288 6.38114 -2.32352 0
M  V30 1078 H 96.5748 6.55943 -0.086595 0
M  V30 1079 H 96.4918 7.38723 -1.607 0
M  V30 1080 H 97.7598 7.77993 -0.484543 0
M  V30 1081 N 101.989 0.842826 1.3317 0
M  V30 1082 C 102.952 0.284065 2.27433 0
M  V30 1083 C 103.952 -0.54948 1.5112 0
M  V30 1084 O 105.142 -0.362699 1.70382 0
M  V30 1085 C 102.274 -0.599384 3.35589 0
M  V30 1086 H 103.467 1.11589 2.78366 0
M  V30 1087 H 101.02 0.616221 1.4364 0
M  V30 1088 H 101.755 -1.45349 2.89904 0
M  V30 1089 H 101.54 -0.00291266 3.921 0
M  V30 1090 H 103.03 -0.983488 4.05854 0
M  V30 1091 N 103.467 -1.45747 0.599634 0
M  V30 1092 C 104.692 -2.07178 0.0960198 0
M  V30 1093 C 105.117 -1.44268 -1.207 0
M  V30 1094 O 104.475 -0.532503 -1.73303 0
M  V30 1095 C 104.523 -3.60579 -0.0385348 0
M  V30 1096 O 103.627 -3.97713 -1.0908 0
M  V30 1097 H 102.968 -0.660251 0.0704593 0
M  V30 1098 H 105.498 -1.87124 0.827385 0
M  V30 1099 H 105.508 -4.07298 -0.239304 0
M  V30 1100 H 104.183 -4.05756 0.912947 0
M  V30 1101 H 102.76 -3.62678 -0.867135 0
M  V30 1102 N 104.945 -0.338344 -1.53925 0
M  V30 1103 C 105.908 0.508299 -2.23493 0
M  V30 1104 C 106.908 1.03175 -1.23335 0
M  V30 1105 O 108.098 0.921826 -1.47811 0
M  V30 1106 C 105.23 1.70754 -2.95052 0
M  V30 1107 H 106.423 -0.100058 -2.99733 0
M  V30 1108 H 103.976 -0.0896198 -1.56043 0
M  V30 1109 H 104.711 2.35474 -2.22986 0
M  V30 1110 H 104.496 1.33946 -3.68512 0
M  V30 1111 H 105.986 2.30818 -3.48013 0
M  V30 1112 N 106.423 1.57458 -0.0668435 0
M  V30 1113 C 107.672 1.92477 0.602947 0
M  V30 1114 C 107.985 0.948419 1.71068 0
M  V30 1115 O 109.191 1.19124 2.43971 0
M  V30 1116 C 107.647 3.41903 1.12383 0
M  V30 1117 C 107.255 4.47975 0.04737 0
M  V30 1118 C 108.999 3.85931 1.76797 0
M  V30 1119 C 106.906 5.88529 0.582022 0
M  V30 1120 H 105.836 0.718387 0.22899 0
M  V30 1121 H 108.487 1.82978 -0.138276 0
M  V30 1122 H 106.869 3.46459 1.91787 0
M  V30 1123 H 108.043 4.55029 -0.726978 0
M  V30 1124 H 106.358 4.13384 -0.500243 0
M  V30 1125 H 108.955 4.88322 2.17821 0
M  V30 1126 H 109.298 3.23029 2.62599 0
M  V30 1127 H 109.831 3.83958 1.04024 0
M  V30 1128 H 106.57 6.55065 -0.238721 0
M  V30 1129 H 106.09 5.85004 1.324 0
M  V30 1130 H 107.769 6.38258 1.05999 0
M  V30 1131 N 107.901 -0.206675 1.56239 0
M  V30 1132 C 109.317 -0.557025 1.49564 0
M  V30 1133 C 109.517 -1.86424 0.764735 0
M  V30 1134 O 108.573 -2.50584 0.310491 0
M  V30 1135 C 109.886 -0.622478 2.94186 0
M  V30 1136 C 111.434 -0.712099 3.04792 0
M  V30 1137 C 111.909 -0.808767 4.50803 0
M  V30 1138 N 113.4 -0.8726 4.54907 0
M  V30 1139 C 114.135 -0.967365 5.65181 0
M  V30 1140 N 113.631 -1.02515 6.85173 0
M  V30 1141 N 115.424 -1.00366 5.53067 0
M  V30 1142 H 107.575 0.650943 2.02179 0
M  V30 1143 H 109.838 0.230387 0.919579 0
M  V30 1144 H 109.544 0.268727 3.50672 0
M  V30 1145 H 109.418 -1.4811 3.46905 0
M  V30 1146 H 111.805 -1.59374 2.48363 0
M  V30 1147 H 111.886 0.172489 2.55218 0
M  V30 1148 H 111.53 0.0684754 5.07854 0
M  V30 1149 H 111.46 -1.70899 4.98098 0
M  V30 1150 H 113.951 -0.837657 3.68499 0
M  V30 1151 H 114.264 -1.09765 7.64965 0
M  V30 1152 H 112.609 -0.994026 6.87855 0
M  V30 1153 H 115.8 -0.95527 4.58249 0
M  V30 1154 H 115.973 -1.07405 6.39037 0
M  V30 1155 N 109.379 -1.50304 -0.473955 0
M  V30 1156 C 110.311 -1.65109 -1.58971 0
M  V30 1157 C 111.324 -0.532676 -1.53839 0
M  V30 1158 O 112.513 -0.805751 -1.59279 0
M  V30 1159 C 109.613 -1.61684 -2.97845 0
M  V30 1160 C 108.786 -2.8951 -3.27876 0
M  V30 1161 C 107.845 -2.78768 -4.4629 0
M  V30 1162 O 106.871 -3.52722 -4.46739 0
M  V30 1163 N 108.073 -1.9213 -5.47783 0
M  V30 1164 H 110.838 -2.61347 -1.46689 0
M  V30 1165 H 108.399 -1.47732 -0.662324 0
M  V30 1166 H 110.391 -1.52114 -3.75024 0
M  V30 1167 H 108.961 -0.731925 -3.03911 0
M  V30 1168 H 108.181 -3.13228 -2.39336 0
M  V30 1169 H 109.469 -3.74199 -3.4475 0
M  V30 1170 H 108.867 -1.31353 -5.50239 0
M  V30 1171 H 107.424 -1.88466 -6.23958 0
M  V30 1172 N 110.857 0.726932 -1.39834 0
M  V30 1173 C 111.82 1.82269 -1.38962 0
M  V30 1174 C 112.82 1.58248 -0.285334 0
M  V30 1175 O 114.01 1.65499 -0.54366 0
M  V30 1176 C 111.142 3.20186 -1.17019 0
M  V30 1177 H 112.335 1.84443 -2.36476 0
M  V30 1178 H 109.888 0.931416 -1.25516 0
M  V30 1179 H 110.623 3.23669 -0.202204 0
M  V30 1180 H 110.408 3.3902 -1.96998 0
M  V30 1181 H 111.898 4.00235 -1.1917 0
M  V30 1182 N 112.336 1.25143 0.95797 0
M  V30 1183 C 113.299 1.05321 2.03569 0
M  V30 1184 C 114.299 0.007152 1.60798 0
M  V30 1185 O 115.489 0.24903 1.72411 0
M  V30 1186 C 112.621 0.598394 3.35607 0
M  V30 1187 H 113.814 2.00986 2.22586 0
M  V30 1188 H 111.367 1.07502 1.13459 0
M  V30 1189 H 112.102 -0.361014 3.22284 0
M  V30 1190 H 111.887 1.35351 3.67998 0
M  V30 1191 H 113.377 0.48104 4.1482 0
M  V30 1192 N 113.814 -1.1601 1.06675 0
M  V30 1193 C 115.091 -1.82679 0.699114 0
M  V30 1194 C 115.471 -1.94559 -0.819137 0
M  V30 1195 O 114.819 -1.49169 -1.73092 0
M  V30 1196 C 115.029 -3.19445 1.40555 0
M  V30 1197 C 116.377 -3.95171 1.55323 0
M  V30 1198 O 117.401 -3.28976 1.36577 0
M  V30 1199 O 116.26 -5.13833 1.86112 0
M  V30 1200 H 113.354 -0.788954 0.247951 0
M  V30 1201 H 115.9 -1.23179 1.16726 0
M  V30 1202 H 114.672 -3.05856 2.44065 0
M  V30 1203 H 114.295 -3.86625 0.927733 0
M  V30 1204 N 115.292 -0.849877 -1.32721 0
M  V30 1205 C 116.202 -0.293791 -2.32753 0
M  V30 1206 C 117.218 0.585906 -1.63839 0
M  V30 1207 O 118.394 0.487413 -1.95413 0
M  V30 1208 C 115.459 0.512752 -3.42887 0
M  V30 1209 C 114.52 -0.39252 -4.27502 0
M  V30 1210 C 113.753 0.375625 -5.32377 0
M  V30 1211 O 113.976 1.60613 -5.4732 0
M  V30 1212 O 112.91 -0.256094 -6.01355 0
M  V30 1213 H 116.736 -1.12242 -2.82197 0
M  V30 1214 H 114.321 -0.612685 -1.36259 0
M  V30 1215 H 116.203 0.970704 -4.10067 0
M  V30 1216 H 114.878 1.31826 -2.95641 0
M  V30 1217 H 113.785 -0.898547 -3.63149 0
M  V30 1218 H 115.118 -1.16309 -4.7826 0
M  V30 1219 N 116.77 1.45427 -0.607355 0
M  V30 1220 C 118.016 2.0254 -0.102607 0
M  V30 1221 C 118.349 1.47478 1.26348 0
M  V30 1222 O 117.624 0.64939 1.83339 0
M  V30 1223 C 117.907 3.60044 -0.0634347 0
M  V30 1224 C 117.76 4.2544 -1.46017 0
M  V30 1225 C 119.079 4.35646 0.624514 0
M  V30 1226 H 116.198 0.73598 -0.0387607 0
M  V30 1227 H 118.84 1.73284 -0.779282 0
M  V30 1228 H 116.99 3.85101 0.512808 0
M  V30 1229 H 118.662 4.11569 -2.08347 0
M  V30 1230 H 116.905 3.83849 -2.02094 0
M  V30 1231 H 117.576 5.34342 -1.385 0
M  V30 1232 H 120.052 4.15882 0.134723 0
M  V30 1233 H 118.928 5.45376 0.621028 0
M  V30 1234 H 119.189 4.08501 1.69055 0
M  V30 1235 N 118.248 0.346503 1.53744 0
M  V30 1236 C 119.178 -0.501193 2.28058 0
M  V30 1237 C 120.159 -1.10014 1.29734 0
M  V30 1238 O 121.344 -1.12097 1.58581 0
M  V30 1239 C 118.474 -1.65078 3.05559 0
M  V30 1240 C 117.428 -1.18003 4.11411 0
M  V30 1241 C 116.754 -2.41837 4.76884 0
M  V30 1242 C 118.054 -0.278394 5.21558 0
M  V30 1243 H 119.748 0.11875 2.99164 0
M  V30 1244 H 117.294 0.0585531 1.43881 0
M  V30 1245 H 119.247 -2.25028 3.56287 0
M  V30 1246 H 117.971 -2.29767 2.32109 0
M  V30 1247 H 116.63 -0.603331 3.61601 0
M  V30 1248 H 116.278 -3.0494 4.00026 0
M  V30 1249 H 115.978 -2.1102 5.48402 0
M  V30 1250 H 117.502 -3.02508 5.30397 0
M  V30 1251 H 118.916 -0.784823 5.67903 0
M  V30 1252 H 117.313 -0.0619707 6.00068 0
M  V30 1253 H 118.383 0.684677 4.80042 0
M  V30 1254 N 119.726 -1.57421 0.075193 0
M  V30 1255 C 120.689 -2.11791 -0.876203 0
M  V30 1256 C 121.689 -1.04268 -1.22412 0
M  V30 1257 O 122.879 -1.30242 -1.15684 0
M  V30 1258 C 120.011 -2.62207 -2.17854 0
M  V30 1259 H 121.204 -2.9716 -0.40444 0
M  V30 1260 H 118.757 -1.55333 -0.173557 0
M  V30 1261 H 119.492 -1.803 -2.6956 0
M  V30 1262 H 119.277 -3.40802 -1.93897 0
M  V30 1263 H 120.767 -3.04335 -2.85955 0
M  V30 1264 N 121.204 0.198386 -1.56346 0
M  V30 1265 C 122.452 0.91747 -1.80075 0
M  V30 1266 C 122.773 1.83929 -0.647692 0
M  V30 1267 O 122.043 1.93029 0.334166 0
M  V30 1268 H 120.623 0.341774 -0.664228 0
M  V30 1269 H 123.285 0.204684 -1.93822 0
M  V30 1270 H 122.381 1.51055 -2.7311 0
M  V30 1271 N 122.682 1.50554 0.465978 0
M  V30 1272 C 123.614 1.65949 1.58093 0
M  V30 1273 C 124.627 0.540827 1.53554 0
M  V30 1274 O 125.816 0.814187 1.5885 0
M  V30 1275 C 122.916 1.63261 2.96983 0
M  V30 1276 C 122.089 2.91245 3.26336 0
M  V30 1277 C 121.148 2.8113 4.44806 0
M  V30 1278 O 120.174 3.55086 4.44862 0
M  V30 1279 N 121.376 1.95032 5.46756 0
M  V30 1280 H 124.141 2.62122 1.45301 0
M  V30 1281 H 121.702 1.48082 0.65448 0
M  V30 1282 H 123.694 1.54101 3.74212 0
M  V30 1283 H 122.264 0.748032 3.03518 0
M  V30 1284 H 121.484 3.14493 2.37672 0
M  V30 1285 H 122.772 3.76022 3.42761 0
M  V30 1286 H 122.17 1.3427 5.49534 0
M  V30 1287 H 120.727 1.91772 6.2295 0
M  V30 1288 N 124.16 -0.719506 1.40217 0
M  V30 1289 C 125.11 -1.8251 1.36653 0
M  V30 1290 C 126.094 -1.59028 0.244732 0
M  V30 1291 O 127.286 -1.70268 0.483524 0
M  V30 1292 C 124.415 -3.20599 1.22763 0
M  V30 1293 C 123.501 -3.49858 2.39708 0
M  V30 1294 N 123.892 -3.49957 3.6519 0
M  V30 1295 C 122.19 -3.80297 2.33002 0
M  V30 1296 C 122.891 -3.77449 4.42614 0
M  V30 1297 N 121.867 -3.96002 3.72402 0
M  V30 1298 H 125.669 -1.80914 2.31619 0
M  V30 1299 H 123.183 -0.918455 1.33933 0
M  V30 1300 H 125.18 -3.99766 1.18292 0
M  V30 1301 H 123.84 -3.23424 0.287614 0
M  V30 1302 H 124.851 -3.309 3.98404 0
M  V30 1303 H 121.528 -3.90635 1.47346 0
M  V30 1304 H 122.918 -3.83863 5.51451 0
M  V30 1305 N 125.638 -1.25649 -0.95132 0
M  V30 1306 C 126.915 -1.01361 -1.67288 0
M  V30 1307 C 127.295 0.459135 -2.06046 0
M  V30 1308 O 126.643 1.43723 -1.7764 0
M  V30 1309 C 126.853 -1.95256 -2.89268 0
M  V30 1310 C 128.201 -2.23289 -3.61147 0
M  V30 1311 O 129.225 -1.93041 -2.99355 0
M  V30 1312 O 128.084 -2.74741 -4.72419 0
M  V30 1313 H 125.178 -0.38464 -0.732107 0
M  V30 1314 H 127.724 -1.36817 -1.00395 0
M  V30 1315 H 126.496 -2.94685 -2.57442 0
M  V30 1316 H 126.119 -1.60218 -3.6389 0
M  V30 1317 N 127.117 1.15442 -1.07289 0
M  V30 1318 C 128.394 1.82306 -0.708792 0
M  V30 1319 C 128.774 1.94991 0.808807 0
M  V30 1320 O 128.122 1.50085 1.72298 0
M  V30 1321 C 128.332 3.18695 -1.42247 0
M  V30 1322 C 129.68 3.94341 -1.57417 0
M  V30 1323 O 130.704 3.28247 -1.38319 0
M  V30 1324 O 129.563 5.12839 -1.88834 0
M  V30 1325 H 126.657 0.787628 -0.252132 0
M  V30 1326 H 129.203 1.22559 -1.17377 0
M  V30 1327 H 127.975 3.04557 -2.45684 0
M  V30 1328 H 127.598 3.86128 -0.948223 0
M  V30 1329 N 128.595 0.856903 1.32268 0
M  V30 1330 C 129.505 0.306131 2.32594 0
M  V30 1331 C 130.521 -0.577209 1.64147 0
M  V30 1332 O 131.697 -0.477043 1.95669 0
M  V30 1333 C 128.762 -0.494561 3.43154 0
M  V30 1334 C 127.823 0.415186 4.27288 0
M  V30 1335 C 127.056 -0.347387 5.32568 0
M  V30 1336 O 127.279 -1.57708 5.48165 0
M  V30 1337 O 126.213 0.287982 6.01211 0
M  V30 1338 H 130.039 1.13737 2.81598 0
M  V30 1339 H 127.624 0.619902 1.35932 0
M  V30 1340 H 129.506 -0.948944 4.10576 0
M  V30 1341 H 128.181 -1.30257 2.96336 0
M  V30 1342 H 127.088 0.917793 3.62667 0
M  V30 1343 H 128.421 1.18844 4.77637 0
M  V30 1344 N 130.073 -1.45103 0.615059 0
M  V30 1345 C 131.32 -2.02183 0.113179 0
M  V30 1346 C 131.648 -1.48249 -1.25906 0
M  V30 1347 O 130.903 -0.650265 -1.84581 0
M  V30 1348 C 131.202 -3.57386 0.0318797 0
M  V30 1349 C 130.868 -4.30505 1.34077 0
M  V30 1350 C 129.53 -4.50197 1.69929 0
M  V30 1351 C 131.882 -4.72238 2.20546 0
M  V30 1352 C 129.21 -5.08881 2.91988 0
M  V30 1353 C 131.562 -5.32272 3.41861 0
M  V30 1354 C 130.226 -5.50187 3.77956 0
M  V30 1355 H 129.496 -0.739842 0.0414151 0
M  V30 1356 H 132.143 -1.74073 0.798168 0
M  V30 1357 H 130.448 -3.84817 -0.736409 0
M  V30 1358 H 132.145 -3.99264 -0.372712 0
M  V30 1359 H 128.735 -4.15496 1.05173 0
M  V30 1360 H 132.919 -4.56751 1.94146 0
M  V30 1361 H 128.175 -5.20939 3.2005 0
M  V30 1362 H 132.349 -5.63563 4.09109 0
M  V30 1363 H 129.976 -5.95427 4.72622 0
M  V30 1364 N 131.551 -0.354651 -1.53558 0
M  V30 1365 C 132.962 0.126902 -1.86268 0
M  V30 1366 C 133.313 1.49075 -1.27558 0
M  V30 1367 O 132.438 2.08105 -0.5934 0
M  V30 1368 C 133.033 0.237046 -3.3797 0
M  V30 1369 C 131.592 0.662842 -3.70518 0
M  V30 1370 C 130.739 -0.196652 -2.76602 0
M  V30 1371 H 133.69 -0.573849 -1.47962 0
M  V30 1372 H 133.711 1.06259 -3.65362 0
M  V30 1373 H 133.223 -0.755725 -3.80671 0
M  V30 1374 H 131.324 1.66424 -3.33367 0
M  V30 1375 H 131.437 0.445034 -4.77029 0
M  V30 1376 H 129.801 0.332763 -2.52517 0
M  V30 1377 H 130.584 -1.18676 -3.22135 0
M  V30 1378 N 133.029 1.57378 -0.0835403 0
M  V30 1379 C 133.959 2.1641 0.87686 0
M  V30 1380 C 134.94 1.09429 1.30228 0
M  V30 1381 O 136.125 1.37516 1.37124 0
M  V30 1382 C 133.255 2.73517 2.14022 0
M  V30 1383 C 132.209 3.85769 1.85381 0
M  V30 1384 C 131.535 4.29529 3.18448 0
M  V30 1385 C 132.835 5.09486 1.14984 0
M  V30 1386 H 134.529 2.96914 0.385059 0
M  V30 1387 H 132.075 1.42823 0.18377 0
M  V30 1388 H 134.028 3.13463 2.81636 0
M  V30 1389 H 132.752 1.90252 2.65465 0
M  V30 1390 H 131.411 3.46345 1.20169 0
M  V30 1391 H 131.059 3.43169 3.67755 0
M  V30 1392 H 130.759 5.05204 3.00071 0
M  V30 1393 H 132.283 4.72099 3.8724 0
M  V30 1394 H 133.697 5.46674 1.72687 0
M  V30 1395 H 132.094 5.90515 1.06826 0
M  V30 1396 H 133.164 4.84724 0.130749 0
M  V30 1397 N 134.507 -0.190092 1.56449 0
M  V30 1398 C 135.47 -1.21925 1.9408 0
M  V30 1399 C 136.47 -1.38176 0.822431 0
M  V30 1400 O 137.66 -1.35903 1.08977 0
M  V30 1401 C 134.792 -2.58773 2.21922 0
M  V30 1402 H 135.985 -0.897464 2.86157 0
M  V30 1403 H 133.538 -0.43181 1.50217 0
M  V30 1404 H 134.273 -2.95998 1.32499 0
M  V30 1405 H 134.058 -2.48348 3.03424 0
M  V30 1406 H 135.548 -3.32978 2.52022 0
M  V30 1407 N 135.985 -1.50799 -0.457987 0
M  V30 1408 C 137.234 -1.6168 -1.20593 0
M  V30 1409 C 137.547 -0.32888 -1.92815 0
M  V30 1410 O 138.753 -0.316773 -2.69646 0
M  V30 1411 C 137.209 -2.8545 -2.19195 0
M  V30 1412 C 136.817 -4.21168 -1.52715 0
M  V30 1413 C 138.561 -3.05681 -2.94549 0
M  V30 1414 C 136.468 -5.3611 -2.4968 0
M  V30 1415 H 135.398 -0.602134 -0.453818 0
M  V30 1416 H 138.049 -1.77245 -0.475031 0
M  V30 1417 H 136.431 -2.63472 -2.95632 0
M  V30 1418 H 137.605 -4.53449 -0.819775 0
M  V30 1419 H 135.92 -4.06648 -0.895922 0
M  V30 1420 H 138.517 -3.88727 -3.67145 0
M  V30 1421 H 138.86 -2.17929 -3.54701 0
M  V30 1422 H 139.393 -3.27901 -2.25223 0
M  V30 1423 H 136.132 -6.26057 -1.94249 0
M  V30 1424 H 135.652 -5.0823 -3.18532 0
M  V30 1425 H 137.331 -5.6722 -3.11241 0
M  V30 1426 N 137.463 0.71206 -1.40597 0
M  V30 1427 C 138.709 1.47292 -1.40274 0
M  V30 1428 C 139.064 1.92399 -0.00576812 0
M  V30 1429 O 138.357 1.65507 0.965297 0
M  V30 1430 C 138.551 2.71039 -2.32965 0
M  V30 1431 C 138.38 2.38035 -3.81536 0
M  V30 1432 C 137.15 2.29203 -4.50327 0
M  V30 1433 C 139.348 2.02076 -4.72938 0
M  V30 1434 N 137.33 1.88911 -5.84111 0
M  V30 1435 C 138.701 1.72412 -5.95545 0
M  V30 1436 C 140.756 1.88742 -4.60739 0
M  V30 1437 C 139.459 1.30756 -7.07316 0
M  V30 1438 C 141.485 1.4849 -5.72455 0
M  V30 1439 C 140.847 1.19726 -6.94151 0
M  V30 1440 H 136.946 0.536919 -0.568544 0
M  V30 1441 H 139.53 0.825424 -1.76337 0
M  V30 1442 H 137.701 3.33533 -1.99023 0
M  V30 1443 H 139.433 3.37404 -2.23474 0
M  V30 1444 H 136.188 2.47059 -4.04053 0
M  V30 1445 H 136.612 1.71293 -6.54972 0
M  V30 1446 H 141.254 2.0964 -3.67166 0
M  V30 1447 H 138.972 1.08601 -8.00769 0
M  V30 1448 H 142.558 1.38747 -5.65014 0
M  V30 1449 H 141.438 0.890482 -7.79128 0
M  V30 1450 N 138.941 1.26152 0.944643 0
M  V30 1451 C 139.873 1.03199 2.04652 0
M  V30 1452 C 140.886 -0.00642356 1.62799 0
M  V30 1453 O 142.075 0.233263 1.76969 0
M  V30 1454 C 139.175 0.540111 3.34568 0
M  V30 1455 C 138.348 1.64697 4.05208 0
M  V30 1456 C 137.407 1.15374 5.13396 0
M  V30 1457 O 136.433 1.85013 5.38293 0
M  V30 1458 N 137.635 0.00031529 5.805 0
M  V30 1459 H 140.4 1.9808 2.2491 0
M  V30 1460 H 137.961 1.17491 1.11389 0
M  V30 1461 H 139.953 0.194401 4.04233 0
M  V30 1462 H 138.523 -0.315021 3.11009 0
M  V30 1463 H 137.743 2.16379 3.29506 0
M  V30 1464 H 139.031 2.3903 4.49157 0
M  V30 1465 H 138.429 -0.581336 5.62705 0
M  V30 1466 H 136.986 -0.286346 6.51171 0
M  V30 1467 N 140.419 -1.14872 1.07899 0
M  V30 1468 C 141.647 -1.89661 0.82683 0
M  V30 1469 C 142.062 -1.78312 -0.620519 0
M  V30 1470 O 141.419 -1.13888 -1.42604 0
M  V30 1471 C 141.47 -3.39817 1.23316 0
M  V30 1472 O 141.191 -3.50845 2.62372 0
M  V30 1473 C 142.692 -4.31615 1.0111 0
M  V30 1474 H 139.912 -0.60092 0.298557 0
M  V30 1475 H 142.456 -1.4551 1.43691 0
M  V30 1476 H 140.611 -3.8161 0.667286 0
M  V30 1477 H 141.025 -4.44076 2.79101 0
M  V30 1478 H 142.499 -5.35367 1.34486 0
M  V30 1479 H 142.976 -4.39169 -0.0522168 0
M  V30 1480 H 143.582 -3.95572 1.56215 0
M  V30 1481 N 141.898 -0.863906 -1.31812 0
M  V30 1482 C 143.146 -0.470904 -1.96537 0
M  V30 1483 C 143.467 0.978771 -1.68657 0
M  V30 1484 O 142.737 1.6853 -0.998717 0
M  V30 1485 H 141.317 -0.171148 -0.72713 0
M  V30 1486 H 143.979 -1.10236 -1.60729 0
M  V30 1487 H 143.075 -0.623616 -3.05806 0
M  V30 1488 N 143.376 1.44774 -0.622745 0
M  V30 1489 C 144.601 2.06999 -0.128968 0
M  V30 1490 C 145.026 1.4617 1.1839 0
M  V30 1491 O 144.384 0.560007 1.72434 0
M  V30 1492 C 144.432 3.60595 -0.0188351 0
M  V30 1493 O 143.536 3.99398 1.02739 0
M  V30 1494 H 142.877 0.659047 -0.0809544 0
M  V30 1495 H 145.407 1.85784 -0.85705 0
M  V30 1496 H 145.417 4.07627 0.174476 0
M  V30 1497 H 144.092 4.04252 -0.977384 0
M  V30 1498 H 142.669 3.64011 0.809326 0
M  V30 1499 N 144.854 0.36279 1.53368 0
M  V30 1500 C 146.102 -0.227326 2.00817 0
M  V30 1501 C 146.423 -1.49511 1.25186 0
M  V30 1502 O 145.693 -1.92482 0.364348 0
M  V30 1503 H 144.273 -0.0869923 0.741917 0
M  V30 1504 H 146.935 0.488381 1.88682 0
M  V30 1505 H 146.031 -0.456273 3.08747 0
M  V30 1506 N 146.332 -1.57332 0.0918853 0
M  V30 1507 C 147.56 -1.98574 -0.581048 0
M  V30 1508 C 147.975 -0.970903 -1.61923 0
M  V30 1509 O 147.332 0.0399054 -1.82456 0
M  V30 1510 C 147.383 -3.39872 -1.23164 0
M  V30 1511 O 147.104 -4.37469 -0.234989 0
M  V30 1512 C 148.605 -3.96099 -1.99049 0
M  V30 1513 H 145.825 -0.65261 -0.156018 0
M  V30 1514 H 148.369 -2.0379 0.170225 0
M  V30 1515 H 146.524 -3.35679 -1.93386 0
M  V30 1516 H 146.938 -5.19751 -0.70418 0
M  V30 1517 H 148.412 -4.97127 -2.39934 0
M  V30 1518 H 148.889 -3.3374 -2.85507 0
M  V30 1519 H 149.495 -4.03755 -1.3365 0
M  V30 1520 N 147.81 0.181792 -1.56548 0
M  V30 1521 C 148.742 1.24956 -1.92142 0
M  V30 1522 C 149.755 1.41022 -0.813422 0
M  V30 1523 O 150.944 1.41212 -1.09186 0
M  V30 1524 C 148.044 2.61981 -2.14987 0
M  V30 1525 C 147.217 2.6735 -3.46183 0
M  V30 1526 C 146.276 3.85664 -3.5798 0
M  V30 1527 O 145.302 3.72148 -4.30691 0
M  V30 1528 N 146.504 5.01683 -2.92053 0
M  V30 1529 H 149.269 0.947329 -2.84334 0
M  V30 1530 H 146.83 0.371629 -1.57577 0
M  V30 1531 H 148.822 3.3958 -2.20154 0
M  V30 1532 H 147.392 2.84637 -1.2923 0
M  V30 1533 H 146.612 1.75925 -3.52766 0
M  V30 1534 H 147.9 2.67939 -4.32534 0
M  V30 1535 H 147.298 5.15564 -2.32832 0
M  V30 1536 H 145.855 5.77181 -3.0283 0
M  V30 1537 N 149.288 1.51039 0.449983 0
M  V30 1538 C 150.513 1.6715 1.22783 0
M  V30 1539 C 150.938 0.363081 1.84563 0
M  V30 1540 O 150.296 -0.675433 1.68249 0
M  V30 1541 C 150.344 2.77985 2.29689 0
M  V30 1542 O 149.448 2.40707 3.34864 0
M  V30 1543 H 148.789 0.557746 0.360299 0
M  V30 1544 H 151.319 1.97535 0.533005 0
M  V30 1545 H 151.329 3.01693 2.74673 0
M  V30 1546 H 150.004 3.72935 1.84098 0
M  V30 1547 H 148.581 2.27523 2.95445 0
M  V30 1548 N 150.766 -0.704594 1.40972 0
M  V30 1549 C 151.714 -1.83994 1.42299 0
M  V30 1550 C 152.708 -1.66684 0.302111 0
M  V30 1551 O 153.914 -1.73655 0.473697 0
M  V30 1552 H 150.289 -0.606171 0.44504 0
M  V30 1553 H 152.26 -1.79992 2.38003 0
M  V30 1554 C 151.009 -3.21946 1.31323 0
M  V30 1555 H 150.332 -3.35878 2.16855 0
M  V30 1556 H 151.772 -4.01491 1.36311 0
M  V30 1557 C 150.231 -3.36891 0.0245977 0
M  V30 1558 O 150.761 -3.90687 -0.934153 0
M  V30 1559 N 148.967 -2.90559 -0.0485243 0
M  V30 1560 H 148.514 -2.46968 0.732419 0
M  V30 1561 H 148.472 -3.00937 -0.910171 0
M  V30 1562 N 152.244 -1.26651 -0.937939 0
M  V30 1563 C 153.177 -1.02811 -2.03728 0
M  V30 1564 C 154.155 0.0481915 -1.62529 0
M  V30 1565 O 155.339 -0.0948839 -1.88261 0
M  V30 1566 C 152.466 -0.557517 -3.3408 0
M  V30 1567 C 151.512 -1.62686 -3.94253 0
M  V30 1568 S 152.345 -3.21667 -4.28125 0
M  V30 1569 C 153.501 -2.76384 -5.61572 0
M  V30 1570 H 153.734 -1.95891 -2.23638 0
M  V30 1571 H 151.267 -1.10367 -1.07974 0
M  V30 1572 H 153.225 -0.292674 -4.09455 0
M  V30 1573 H 151.886 0.353062 -3.12109 0
M  V30 1574 H 151.079 -1.24866 -4.88287 0
M  V30 1575 H 150.681 -1.84324 -3.25424 0
M  V30 1576 H 152.973 -2.2105 -6.40424 0
M  V30 1577 H 153.916 -3.69123 -6.0428 0
M  V30 1578 H 154.324 -2.15847 -5.21604 0
M  V30 1579 N 153.722 1.14298 -1.08507 0
M  V30 1580 C 154.67 2.21483 -0.710483 0
M  V30 1581 C 155.664 1.66998 0.284234 0
M  V30 1582 O 156.87 1.79401 0.146692 0
M  V30 1583 H 153.245 0.721578 -0.211729 0
M  V30 1584 H 155.216 2.50348 -1.62384 0
M  V30 1585 C 153.965 3.4743 -0.137007 0
M  V30 1586 H 153.288 3.89686 -0.893592 0
M  V30 1587 H 154.728 4.2391 0.0872789 0
M  V30 1588 C 153.187 3.17548 1.12538 0
M  V30 1589 O 153.717 3.35437 2.21009 0
M  V30 1590 N 151.923 2.71499 1.03617 0
M  V30 1591 H 151.47 2.57143 0.153403 0
M  V30 1592 H 151.428 2.51881 1.88158 0
M  V30 1593 N 155.201 0.870884 1.31352 0
M  V30 1594 C 156.134 0.271983 2.26573 0
M  V30 1595 C 157.112 -0.599385 1.51149 0
M  V30 1596 O 158.296 -0.552605 1.80218 0
M  V30 1597 C 155.423 -0.614801 3.33073 0
M  V30 1598 C 154.469 0.185342 4.26097 0
M  V30 1599 S 155.302 1.56444 5.12138 0
M  V30 1600 C 156.458 0.683807 6.22153 0
M  V30 1601 H 156.691 1.07916 2.77023 0
M  V30 1602 H 154.224 0.669459 1.39132 0
M  V30 1603 H 156.182 -1.12074 3.94905 0
M  V30 1604 H 154.843 -1.39593 2.81376 0
M  V30 1605 H 154.036 -0.490771 5.01605 0
M  V30 1606 H 153.638 0.623415 3.68768 0
M  V30 1607 H 155.93 -0.10521 6.77418 0
M  V30 1608 H 156.873 1.41004 6.93919 0
M  V30 1609 H 157.281 0.250952 5.63942 0
M  V30 1610 N 156.679 -1.44442 0.630414 0
M  V30 1611 C 157.627 -2.32437 -0.0871428 0
M  V30 1612 C 158.621 -1.47304 -0.836525 0
M  V30 1613 O 159.827 -1.63653 -0.749506 0
M  V30 1614 H 156.202 -0.750533 -0.0469495 0
M  V30 1615 H 158.173 -2.90709 0.673096 0
M  V30 1616 C 156.922 -3.31288 -1.05563 0
M  V30 1617 H 156.245 -3.96805 -0.488426 0
M  V30 1618 H 157.685 -3.9554 -1.52721 0
M  V30 1619 C 156.144 -2.6016 -2.14052 0
M  V30 1620 O 156.674 -2.39997 -3.22124 0
M  V30 1621 N 154.88 -2.19911 -1.89967 0
M  V30 1622 H 154.427 -2.36509 -1.02085 0
M  V30 1623 H 154.385 -1.72646 -2.62756 0
M  V30 1624 N 158.157 -0.370918 -1.53173 0
M  V30 1625 C 159.067 0.480823 -2.2962 0
M  V30 1626 C 160.083 1.08789 -1.35798 0
M  V30 1627 O 161.259 1.09768 -1.68858 0
M  V30 1628 C 158.324 1.60227 -3.07454 0
M  V30 1629 C 157.385 1.0222 -4.16953 0
M  V30 1630 C 156.618 2.0902 -4.91066 0
M  V30 1631 O 156.841 3.30222 -4.65091 0
M  V30 1632 O 155.775 1.71778 -5.76867 0
M  V30 1633 H 159.601 -0.141421 -3.03371 0
M  V30 1634 H 157.186 -0.135146 -1.48787 0
M  V30 1635 H 159.068 2.25417 -3.56041 0
M  V30 1636 H 157.743 2.20982 -2.36535 0
M  V30 1637 H 156.65 0.334064 -3.72605 0
M  V30 1638 H 157.983 0.459131 -4.90054 0
M  V30 1639 N 159.635 1.57281 -0.100228 0
M  V30 1640 C 160.881 1.94826 0.563101 0
M  V30 1641 C 161.214 0.982475 1.67514 0
M  V30 1642 O 160.489 0.0164069 1.94493 0
M  V30 1643 C 160.772 3.42453 1.11346 0
M  V30 1644 C 160.625 4.498 0.00612081 0
M  V30 1645 C 161.944 3.91506 2.01024 0
M  V30 1646 H 159.063 0.708428 0.203221 0
M  V30 1647 H 161.705 1.8922 -0.171979 0
M  V30 1648 H 159.855 3.47361 1.7399 0
M  V30 1649 H 161.527 4.57 -0.628357 0
M  V30 1650 H 159.77 4.28756 -0.659581 0
M  V30 1651 H 160.441 5.50306 0.432109 0
M  V30 1652 H 162.917 3.88784 1.48278 0
M  V30 1653 H 161.793 4.95358 2.36457 0
M  V30 1654 H 162.054 3.31099 2.92961 0
M  V30 1655 N 161.113 -0.173488 1.56642 0
M  V30 1656 C 162.043 -1.2171 1.99271 0
M  V30 1657 C 163.024 -1.46289 0.867959 0
M  V30 1658 O 164.209 -1.5766 1.13388 0
M  V30 1659 C 161.339 -2.55651 2.35074 0
M  V30 1660 C 160.293 -2.45645 3.50489 0
M  V30 1661 C 159.619 -3.84056 3.72028 0
M  V30 1662 C 160.919 -1.96302 4.84007 0
M  V30 1663 H 162.613 -0.86275 2.867 0
M  V30 1664 H 160.159 -0.413571 1.37933 0
M  V30 1665 H 162.112 -3.2886 2.63494 0
M  V30 1666 H 160.836 -2.92869 1.44552 0
M  V30 1667 H 159.495 -1.7489 3.22194 0
M  V30 1668 H 159.143 -4.18664 2.788 0
M  V30 1669 H 158.843 -3.7823 4.49684 0
M  V30 1670 H 160.367 -4.58854 4.02846 0
M  V30 1671 H 161.781 -2.59284 5.11317 0
M  V30 1672 H 160.178 -2.01429 5.65284 0
M  V30 1673 H 161.248 -0.917226 4.76146 0
M  V30 1674 N 162.591 -1.51276 -0.441967 0
M  V30 1675 C 163.554 -1.7167 -1.51862 0
M  V30 1676 C 164.554 -0.586793 -1.49711 0
M  V30 1677 O 165.744 -0.854276 -1.51815 0
M  V30 1678 C 162.876 -1.76889 -2.91416 0
M  V30 1679 H 164.069 -2.67754 -1.35084 0
M  V30 1680 H 161.622 -1.41196 -0.670333 0
M  V30 1681 H 162.357 -0.826026 -3.13604 0
M  V30 1682 H 162.142 -2.59001 -2.94382 0
M  V30 1683 H 163.632 -1.94522 -3.69528 0
M  V30 1684 N 164.069 0.697108 -1.41344 0
M  V30 1685 C 165.017 1.83237 -1.43272 0
M  V30 1686 C 166.011 1.66522 -0.310947 0
M  V30 1687 O 167.217 1.73402 -0.482899 0
M  V30 1688 H 163.592 0.603802 -0.448249 0
M  V30 1689 H 165.563 1.78727 -2.38954 0
M  V30 1690 C 164.312 3.21245 -1.33029 0
M  V30 1691 H 163.635 3.34723 -2.18633 0
M  V30 1692 H 165.075 4.00763 -1.38439 0
M  V30 1693 C 163.534 3.36873 -0.0424635 0
M  V30 1694 O 164.064 3.91177 0.913421 0
M  V30 1695 N 162.27 2.90581 0.0331145 0
M  V30 1696 H 161.817 2.46577 -0.745506 0
M  V30 1697 H 161.775 3.01416 0.894199 0
M  V30 1698 N 165.547 1.27147 0.931209 0
M  V30 1699 C 166.963 1.04475 1.20653 0
M  V30 1700 C 167.163 -0.223885 2.00252 0
M  V30 1701 O 166.219 -0.930332 2.34736 0
M  V30 1702 C 167.532 2.28209 1.95809 0
M  V30 1703 C 169.08 2.33211 2.08762 0
M  V30 1704 C 169.555 3.56665 2.87323 0
M  V30 1705 N 171.046 3.57201 2.94892 0
M  V30 1706 C 171.781 4.49395 3.56134 0
M  V30 1707 N 171.277 5.51889 4.18796 0
M  V30 1708 N 173.07 4.37026 3.53504 0
M  V30 1709 H 165.221 2.08612 0.399333 0
M  V30 1710 H 167.484 0.917312 0.239253 0
M  V30 1711 H 167.19 3.20538 1.44736 0
M  V30 1712 H 167.064 2.33247 2.96438 0
M  V30 1713 H 169.451 1.41391 2.59023 0
M  V30 1714 H 169.532 2.32178 1.07364 0
M  V30 1715 H 169.176 4.4882 2.37746 0
M  V30 1716 H 169.106 3.54948 3.88998 0
M  V30 1717 H 171.597 2.83074 2.50354 0
M  V30 1718 H 171.91 6.18409 4.63454 0
M  V30 1719 H 170.255 5.55735 4.17353 0
M  V30 1720 H 173.446 3.56166 3.03749 0
M  V30 1721 H 173.619 5.09067 4.00942 0
M  V30 1722 N 167.025 -1.13721 1.09112 0
M  V30 1723 C 167.988 -2.17222 0.731241 0
M  V30 1724 C 168.988 -1.59035 -0.237566 0
M  V30 1725 O 170.178 -1.74192 -0.0161704 0
M  V30 1726 C 167.31 -3.40804 0.0808443 0
M  V30 1727 H 168.503 -2.50573 1.64783 0
M  V30 1728 H 166.056 -1.28493 0.889897 0
M  V30 1729 H 166.791 -3.1304 -0.847127 0
M  V30 1730 H 166.576 -3.84306 0.777896 0
M  V30 1731 H 168.066 -4.1731 -0.155657 0
M  V30 1732 N 168.503 -0.877838 -1.30888 0
M  V30 1733 C 169.728 -0.506629 -2.01117 0
M  V30 1734 C 170.153 0.895564 -1.65412 0
M  V30 1735 O 169.511 1.5923 -0.866922 0
M  V30 1736 C 169.559 -0.680223 -3.54126 0
M  V30 1737 O 168.663 0.277033 -4.11468 0
M  V30 1738 H 168.004 -0.200518 -0.633 0
M  V30 1739 H 170.534 -1.18342 -1.66902 0
M  V30 1740 H 170.544 -0.5765 -4.03907 0
M  V30 1741 H 169.219 -1.70261 -3.79452 0
M  V30 1742 H 167.796 0.127606 -3.72682 0
M  V30 1743 N 169.982 1.44106 -0.638065 0
M  V30 1744 C 170.892 2.34513 0.0637334 0
M  V30 1745 C 171.908 1.53018 0.828346 0
M  V30 1746 O 173.084 1.85723 0.779036 0
M  V30 1747 C 170.149 3.31095 1.02844 0
M  V30 1748 C 169.21 4.28497 0.26244 0
M  V30 1749 C 168.443 5.20465 1.1812 0
M  V30 1750 O 168.666 5.16514 2.42011 0
M  V30 1751 O 167.6 5.98251 0.661774 0
M  V30 1752 H 171.426 2.95989 -0.68003 0
M  V30 1753 H 169.011 1.43994 -0.398252 0
M  V30 1754 H 170.893 3.90526 1.58327 0
M  V30 1755 H 169.568 2.72144 1.7527 0
M  V30 1756 H 168.475 3.72592 -0.335602 0
M  V30 1757 H 169.808 4.90388 -0.421936 0
M  V30 1758 N 171.46 0.379036 1.52974 0
M  V30 1759 C 172.39 -0.452706 2.29069 0
M  V30 1760 C 173.371 -1.07237 1.32039 0
M  V30 1761 O 174.556 -1.08708 1.60923 0
M  V30 1762 C 171.686 -1.5856 3.08992 0
M  V30 1763 C 170.64 -1.0925 4.13822 0
M  V30 1764 C 169.966 -2.31668 4.81907 0
M  V30 1765 C 171.266 -0.167702 5.22031 0
M  V30 1766 H 172.96 0.182181 2.98845 0
M  V30 1767 H 170.506 0.0890592 1.43724 0
M  V30 1768 H 172.459 -2.1742 3.6098 0
M  V30 1769 H 171.183 -2.24792 2.36931 0
M  V30 1770 H 169.842 -0.526494 3.628 0
M  V30 1771 H 169.49 -2.96386 4.06404 0
M  V30 1772 H 169.19 -1.9934 5.52754 0
M  V30 1773 H 170.714 -2.91189 5.36695 0
M  V30 1774 H 172.128 -0.664186 5.6944 0
M  V30 1775 H 170.525 0.0653265 6.00064 0
M  V30 1776 H 171.595 0.786347 4.78482 0
M  V30 1777 N 172.938 -1.57226 0.108567 0
M  V30 1778 C 173.868 -2.17778 -0.84232 0
M  V30 1779 C 174.849 -1.11487 -1.2847 0
M  V30 1780 O 176.034 -1.39681 -1.34918 0
M  V30 1781 C 173.164 -2.76888 -2.09644 0
M  V30 1782 C 172.118 -3.88669 -1.79221 0
M  V30 1783 C 171.444 -4.34541 -3.11574 0
M  V30 1784 C 172.744 -5.11251 -1.06864 0
M  V30 1785 H 174.438 -2.97489 -0.337774 0
M  V30 1786 H 171.984 -1.43097 -0.161025 0
M  V30 1787 H 173.937 -3.17904 -2.76614 0
M  V30 1788 H 172.661 -1.94451 -2.62405 0
M  V30 1789 H 171.32 -3.48213 -1.14644 0
M  V30 1790 H 170.968 -3.48977 -3.62249 0
M  V30 1791 H 170.668 -5.09914 -2.91996 0
M  V30 1792 H 172.192 -4.782 -3.7968 0
M  V30 1793 H 173.606 -5.49352 -1.63968 0
M  V30 1794 H 172.003 -5.9214 -0.974178 0
M  V30 1795 H 173.073 -4.8487 -0.0536168 0
M  V30 1796 N 174.416 0.165178 -1.56732 0
M  V30 1797 C 175.664 0.879068 -1.8198 0
M  V30 1798 C 175.985 1.82514 -0.686561 0
M  V30 1799 O 175.255 1.93694 0.293146 0
M  V30 1800 H 173.835 0.327608 -0.671329 0
M  V30 1801 H 176.497 0.163526 -1.94213 0
M  V30 1802 H 175.593 1.45228 -2.76252 0
M  V30 1803 N 175.894 1.51508 0.433938 0
M  V30 1804 C 177.142 1.6402 1.18075 0
M  V30 1805 C 177.463 0.360328 1.91642 0
M  V30 1806 O 176.733 -0.623945 1.85698 0
M  V30 1807 H 175.313 0.6045 0.43885 0
M  V30 1808 H 177.975 1.88452 0.497178 0
M  V30 1809 H 177.071 2.46949 1.90847 0
M  V30 1810 N 177.372 -0.689602 1.41712 0
M  V30 1811 C 178.618 -1.45181 1.41599 0
M  V30 1812 C 178.951 -1.94181 0.0270081 0
M  V30 1813 O 178.226 -1.6993 -0.946265 0
M  V30 1814 C 178.509 -2.65945 2.42787 0
M  V30 1815 C 178.362 -2.22672 3.90816 0
M  V30 1816 C 179.681 -3.68149 2.41151 0
M  V30 1817 H 176.8 -0.526576 0.515642 0
M  V30 1818 H 179.442 -0.784947 1.73028 0
M  V30 1819 H 177.592 -3.2284 2.16116 0
M  V30 1820 H 179.264 -1.71058 4.28412 0
M  V30 1821 H 177.507 -1.54394 4.05395 0
M  V30 1822 H 178.178 -3.0935 4.57172 0
M  V30 1823 H 180.654 -3.2094 2.64834 0
M  V30 1824 H 179.53 -4.50248 3.13955 0
M  V30 1825 H 179.791 -4.18259 1.43221 0
M  V30 1826 N 178.85 -1.27639 -0.924453 0
M  V30 1827 C 180.266 -1.05113 -1.20097 0
M  V30 1828 C 180.466 0.213262 -2.00368 0
M  V30 1829 O 179.522 0.91787 -2.35226 0
M  V30 1830 C 180.835 -2.29244 -1.94596 0
M  V30 1831 C 182.383 -2.34315 -2.07522 0
M  V30 1832 C 182.858 -3.58183 -2.85427 0
M  V30 1833 N 184.349 -3.5876 -2.92994 0
M  V30 1834 C 185.084 -4.51277 -3.53746 0
M  V30 1835 N 184.58 -5.54102 -4.15863 0
M  V30 1836 N 186.373 -4.38894 -3.51181 0
M  V30 1837 H 178.524 -2.08821 -0.388264 0
M  V30 1838 H 180.787 -0.918568 -0.234385 0
M  V30 1839 H 180.493 -3.21301 -1.43034 0
M  V30 1840 H 180.367 -2.34816 -2.95197 0
M  V30 1841 H 182.754 -1.42762 -2.58269 0
M  V30 1842 H 182.835 -2.32744 -1.06131 0
M  V30 1843 H 182.479 -4.50074 -2.35363 0
M  V30 1844 H 182.409 -3.57006 -3.8711 0
M  V30 1845 H 184.9 -2.84398 -2.4885 0
M  V30 1846 H 185.213 -6.20859 -4.60168 0
M  V30 1847 H 183.558 -5.57941 -4.144 0
M  V30 1848 H 186.749 -3.57772 -3.01856 0
M  V30 1849 H 186.922 -5.11186 -3.98237 0
M  V30 1850 N 180.328 1.1314 -1.09713 0
M  V30 1851 C 181.576 1.84119 -0.833338 0
M  V30 1852 C 181.897 1.84097 0.642904 0
M  V30 1853 O 181.167 1.29881 1.46655 0
M  V30 1854 H 179.747 0.681766 -0.305293 0
M  V30 1855 H 182.409 1.37038 -1.38588 0
M  V30 1856 H 181.505 2.88543 -1.18951 0
M  V30 1857 N 181.806 0.884767 1.30421 0
M  V30 1858 C 182.739 0.295999 2.26272 0
M  V30 1859 C 183.717 -0.58332 1.51777 0
M  V30 1860 O 184.901 -0.53346 1.80794 0
M  V30 1861 C 182.028 -0.57944 3.33707 0
M  V30 1862 C 181.074 0.230525 4.25877 0
M  V30 1863 S 181.907 1.61867 5.1045 0
M  V30 1864 C 183.063 0.749756 6.21393 0
M  V30 1865 H 183.296 1.10848 2.75862 0
M  V30 1866 H 180.829 0.684178 1.38414 0
M  V30 1867 H 182.787 -1.07879 3.96071 0
M  V30 1868 H 181.448 -1.36601 2.82841 0
M  V30 1869 H 180.641 -0.437542 5.02097 0
M  V30 1870 H 180.243 0.662493 3.68086 0
M  V30 1871 H 182.535 -0.0333547 6.77492 0
M  V30 1872 H 183.478 1.48356 6.92384 0
M  V30 1873 H 183.886 0.310751 5.63644 0
M  V30 1874 N 183.284 -1.43765 0.645699 0
M  V30 1875 C 184.194 -2.34544 -0.0512957 0
M  V30 1876 C 185.21 -1.53455 -0.82022 0
M  V30 1877 O 186.386 -1.86133 -0.769176 0
M  V30 1878 C 183.451 -3.31636 -1.01087 0
M  V30 1879 C 182.512 -4.2863 -0.239712 0
M  V30 1880 C 181.745 -5.21084 -1.15358 0
M  V30 1881 O 181.968 -5.1779 -2.39269 0
M  V30 1882 O 180.902 -5.98593 -0.630038 0
M  V30 1883 H 184.728 -2.95624 0.695718 0
M  V30 1884 H 182.313 -1.43781 0.405882 0
M  V30 1885 H 184.195 -3.9136 -1.56254 0
M  V30 1886 H 182.87 -2.73069 -1.73824 0
M  V30 1887 H 181.777 -3.72408 0.355356 0
M  V30 1888 H 183.11 -4.90157 0.447936 0
M  V30 1889 N 184.763 -0.387143 -1.52771 0
M  V30 1890 C 186.179 -0.037007 -1.59557 0
M  V30 1891 C 186.379 1.44801 -1.40124 0
M  V30 1892 O 185.435 2.21227 -1.21716 0
M  V30 1893 C 186.748 -0.512256 -2.96305 0
M  V30 1894 C 188.296 -0.468328 -3.09476 0
M  V30 1895 C 188.771 -0.919731 -4.4867 0
M  V30 1896 N 190.262 -0.875656 -4.54848 0
M  V30 1897 C 190.997 -1.19637 -5.6078 0
M  V30 1898 N 190.493 -1.58745 -6.74368 0
M  V30 1899 N 192.286 -1.11776 -5.50874 0
M  V30 1900 H 184.437 -1.35395 -1.63652 0
M  V30 1901 H 186.7 -0.554818 -0.768688 0
M  V30 1902 H 186.406 -1.54935 -3.15734 0
M  V30 1903 H 186.28 0.089805 -3.77093 0
M  V30 1904 H 188.667 0.559671 -2.89744 0
M  V30 1905 H 188.748 -1.10616 -2.30646 0
M  V30 1906 H 188.392 -1.94595 -4.69143 0
M  V30 1907 H 188.322 -0.258927 -5.25963 0
M  V30 1908 H 190.813 -0.587843 -3.733 0
M  V30 1909 H 191.126 -1.81586 -7.51163 0
M  V30 1910 H 189.471 -1.6263 -6.75705 0
M  V30 1911 H 192.662 -0.811264 -4.61016 0
M  V30 1912 H 192.835 -1.37103 -6.3333 0
M  V30 1913 N 186.241 1.57166 -0.116904 0
M  V30 1914 C 187.188 2.15202 0.83408 0
M  V30 1915 C 188.158 1.07644 1.26499 0
M  V30 1916 O 189.343 1.35541 1.34288 0
M  V30 1917 C 186.483 2.75405 2.07957 0
M  V30 1918 C 185.596 3.97264 1.69721 0
M  V30 1919 C 184.731 4.45561 2.89221 0
M  V30 1920 C 183.77 5.59956 2.47215 0
M  V30 1921 N 182.907 6.03006 3.59622 0
M  V30 1922 H 187.747 2.96141 0.332335 0
M  V30 1923 H 185.284 1.46309 0.152349 0
M  V30 1924 H 187.242 3.08439 2.80929 0
M  V30 1925 H 185.872 1.97159 2.55594 0
M  V30 1926 H 184.924 3.70404 0.866316 0
M  V30 1927 H 186.236 4.80226 1.34849 0
M  V30 1928 H 185.39 4.80493 3.7042 0
M  V30 1929 H 184.129 3.61544 3.27318 0
M  V30 1930 H 183.134 5.2463 1.64448 0
M  V30 1931 H 184.359 6.45738 2.10238 0
M  V30 1932 H 182.305 5.21931 3.97396 0
M  V30 1933 H 182.222 6.80819 3.28667 0
M  V30 1934 H 183.49 6.42576 4.41267 0
M  V30 1935 N 187.719 -0.156864 1.56817 0
M  V30 1936 C 188.965 -0.872416 1.83076 0
M  V30 1937 C 189.298 -1.81261 0.697001 0
M  V30 1938 O 188.573 -1.92171 -0.30008 0
M  V30 1939 C 188.856 -1.65551 3.19789 0
M  V30 1940 C 188.709 -0.737467 4.43713 0
M  V30 1941 C 190.028 -2.62012 3.53606 0
M  V30 1942 H 187.147 -0.315715 0.665953 0
M  V30 1943 H 189.789 -0.138004 1.89498 0
M  V30 1944 H 187.939 -2.28159 3.14445 0
M  V30 1945 H 189.611 -0.123143 4.61136 0
M  V30 1946 H 187.854 -0.0464067 4.33775 0
M  V30 1947 H 188.525 -1.32122 5.35955 0
M  V30 1948 H 191.001 -2.09525 3.59497 0
M  V30 1949 H 189.877 -3.13861 4.50314 0
M  V30 1950 H 190.138 -3.42902 2.79053 0
M  V30 1951 N 189.197 -1.51736 -0.425897 0
M  V30 1952 C 190.147 -1.70258 -1.51645 0
M  V30 1953 C 191.131 -0.556488 -1.5097 0
M  V30 1954 O 192.323 -0.812879 -1.5723 0
M  V30 1955 C 189.452 -1.84143 -2.89735 0
M  V30 1956 C 188.538 -3.04572 -2.95122 0
M  V30 1957 N 188.929 -4.2756 -2.70233 0
M  V30 1958 C 187.227 -3.04061 -3.26286 0
M  V30 1959 C 187.928 -5.08908 -2.81757 0
M  V30 1960 N 186.904 -4.43797 -3.13919 0
M  V30 1961 H 190.706 -2.63004 -1.31172 0
M  V30 1962 H 188.22 -1.4954 -0.633375 0
M  V30 1963 H 190.217 -1.95525 -3.68206 0
M  V30 1964 H 188.877 -0.925857 -3.1122 0
M  V30 1965 H 189.888 -4.56315 -2.44943 0
M  V30 1966 H 186.565 -2.22179 -3.53473 0
M  V30 1967 H 187.955 -6.16843 -2.66372 0
M  V30 1968 N 190.675 0.682077 -1.42076 0
M  V30 1969 C 192.086 1.26246 -1.37546 0
M  V30 1970 C 192.437 1.96092 -0.0651481 0
M  V30 1971 O 191.562 1.99587 0.836297 0
M  V30 1972 C 192.157 2.29594 -2.49143 0
M  V30 1973 C 190.716 2.83175 -2.47969 0
M  V30 1974 C 189.863 1.57395 -2.28303 0
M  V30 1975 H 192.814 0.475937 -1.51395 0
M  V30 1976 H 192.835 3.11175 -2.18976 0
M  V30 1977 H 192.347 1.78729 -3.44496 0
M  V30 1978 H 190.448 3.3818 -1.56413 0
M  V30 1979 H 190.561 3.32687 -3.44755 0
M  V30 1980 H 188.925 1.83699 -1.76428 0
M  V30 1981 H 189.708 1.08507 -3.25701 0
M  V30 1982 N 192.153 1.28127 0.917671 0
M  V30 1983 C 193.101 1.11569 2.04096 0
M  V30 1984 C 194.095 0.0360242 1.69362 0
M  V30 1985 O 195.301 0.194501 1.78946 0
M  V30 1986 H 191.676 0.344097 0.668656 0
M  V30 1987 H 193.647 2.06711 2.15205 0
M  V30 1988 C 192.396 0.790197 3.38602 0
M  V30 1989 H 191.719 1.61293 3.6582 0
M  V30 1990 H 193.159 0.714271 4.1794 0
M  V30 1991 C 191.618 -0.505897 3.3308 0
M  V30 1992 O 192.148 -1.53736 3.71117 0
M  V30 1993 N 190.354 -0.505193 2.86175 0
M  V30 1994 H 189.901 0.334621 2.55417 0
M  V30 1995 H 189.859 -1.37243 2.82863 0
M  V30 1996 N 193.631 -1.12557 1.10312 0
M  V30 1997 C 194.908 -1.80363 0.756878 0
M  V30 1998 C 195.288 -1.97067 -0.756824 0
M  V30 1999 O 194.636 -1.54601 -1.68259 0
M  V30 2000 C 194.846 -3.14812 1.50647 0
M  V30 2001 C 196.194 -3.90029 1.67817 0
M  V30 2002 O 197.218 -3.24464 1.46974 0
M  V30 2003 O 196.077 -5.07652 2.02365 0
M  V30 2004 H 193.171 -0.780667 0.272926 0
M  V30 2005 H 195.717 -1.19404 1.20586 0
M  V30 2006 H 194.489 -2.97936 2.53672 0
M  V30 2007 H 194.112 -3.83478 1.05026 0
M  V30 2008 N 195.109 -0.891671 -1.2995 0
M  V30 2009 C 196.386 -0.433307 -1.9074 0
M  V30 2010 C 196.766 1.08646 -1.80995 0
M  V30 2011 O 196.114 1.92476 -1.23147 0
M  V30 2012 C 196.324 -0.938895 -3.36134 0
M  V30 2013 C 197.672 -0.977829 -4.13187 0
M  V30 2014 O 198.696 -0.886015 -3.45005 0
M  V30 2015 O 197.555 -1.11453 -5.35015 0
M  V30 2016 H 194.649 -0.133699 -0.816121 0
M  V30 2017 H 197.195 -0.981011 -1.38471 0
M  V30 2018 H 195.967 -1.98281 -3.37343 0
M  V30 2019 H 195.59 -0.37074 -3.95868 0
M  V30 2020 N 196.587 1.43421 -0.653314 0
M  V30 2021 C 197.833 2.02111 -0.166992 0
M  V30 2022 C 198.166 1.51423 1.21592 0
M  V30 2023 O 197.441 0.707389 1.8118 0
M  V30 2024 C 197.724 3.5966 -0.177948 0
M  V30 2025 C 197.577 4.20579 -1.59478 0
M  V30 2026 C 198.896 4.37413 0.4856 0
M  V30 2027 H 196.015 0.734374 -0.0621557 0
M  V30 2028 H 198.657 1.70717 -0.834016 0
M  V30 2029 H 196.807 3.86537 0.390032 0
M  V30 2030 H 198.479 4.04732 -2.21336 0
M  V30 2031 H 196.722 3.77226 -2.14204 0
M  V30 2032 H 197.393 5.29665 -1.5543 0
M  V30 2033 H 199.869 4.161 0.00234528 0
M  V30 2034 H 198.745 5.47075 0.447207 0
M  V30 2035 H 199.006 4.13672 1.55974 0
M  V30 2036 N 198.065 0.39524 1.52563 0
M  V30 2037 C 199.013 -0.451859 2.28169 0
M  V30 2038 C 200.007 -1.05792 1.32304 0
M  V30 2039 O 201.213 -0.997718 1.49818 0
M  V30 2040 H 197.588 -0.164481 0.733792 0
M  V30 2041 H 199.559 0.207199 2.9768 0
M  V30 2042 C 198.308 -1.56385 3.10546 0
M  V30 2043 H 197.631 -1.10682 3.84174 0
M  V30 2044 H 199.071 -2.13067 3.66577 0
M  V30 2045 C 197.53 -2.52328 2.23231 0
M  V30 2046 O 198.06 -3.5588 1.86312 0
M  V30 2047 N 196.266 -2.22209 1.87274 0
M  V30 2048 H 195.813 -1.38033 2.17496 0
M  V30 2049 H 195.771 -2.86652 1.29143 0
M  V30 2050 N 199.544 -1.57102 0.125237 0
M  V30 2051 C 200.491 -2.15641 -0.822655 0
M  V30 2052 C 201.461 -1.08313 -1.25927 0
M  V30 2053 O 202.646 -1.36251 -1.33567 0
M  V30 2054 C 199.786 -2.76504 -2.06494 0
M  V30 2055 C 198.899 -3.98158 -1.67612 0
M  V30 2056 C 198.034 -4.47088 -2.86854 0
M  V30 2057 C 197.073 -5.6126 -2.44242 0
M  V30 2058 N 196.21 -6.04905 -3.56419 0
M  V30 2059 H 201.05 -2.96313 -0.316625 0
M  V30 2060 H 198.587 -1.46388 -0.144588 0
M  V30 2061 H 200.545 -3.09925 -2.79289 0
M  V30 2062 H 199.175 -1.98512 -2.54545 0
M  V30 2063 H 198.227 -3.70858 -0.846661 0
M  V30 2064 H 199.539 -4.80934 -1.32301 0
M  V30 2065 H 198.693 -4.82451 -3.67867 0
M  V30 2066 H 197.432 -3.63275 -3.25396 0
M  V30 2067 H 196.437 -5.25495 -1.61663 0
M  V30 2068 H 197.662 -6.46843 -2.0681 0
M  V30 2069 H 195.608 -5.24032 -3.94623 0
M  V30 2070 H 195.525 -6.82552 -3.25051 0
M  V30 2071 H 196.793 -6.44907 -4.37853 0
M  V30 2072 N 201.022 0.148545 -1.56898 0
M  V30 2073 C 202.247 0.880385 -1.87787 0
M  V30 2074 C 202.672 1.74018 -0.714093 0
M  V30 2075 O 202.03 1.78153 0.336343 0
M  V30 2076 C 202.078 1.71422 -3.17249 0
M  V30 2077 O 201.182 2.8183 -3.01074 0
M  V30 2078 H 200.523 0.245301 -0.617028 0
M  V30 2079 H 203.053 0.139826 -2.04122 0
M  V30 2080 H 203.063 2.10954 -3.49231 0
M  V30 2081 H 201.738 1.08284 -4.01556 0
M  V30 2082 H 200.315 2.45715 -2.80497 0
M  V30 2083 N 202.5 1.5196 0.417844 0
M  V30 2084 C 203.432 1.70895 1.52733 0
M  V30 2085 C 204.445 0.589405 1.51756 0
M  V30 2086 O 205.634 0.864312 1.56179 0
M  V30 2087 C 202.734 1.72627 2.91639 0
M  V30 2088 C 201.907 3.01479 3.16905 0
M  V30 2089 C 200.966 2.95139 4.35637 0
M  V30 2090 O 199.992 3.69059 4.3334 0
M  V30 2091 N 201.194 2.12328 5.40275 0
M  V30 2092 H 203.959 2.66612 1.36888 0
M  V30 2093 H 201.52 1.50089 0.607037 0
M  V30 2094 H 203.512 1.65928 3.6912 0
M  V30 2095 H 202.082 0.844216 3.00985 0
M  V30 2096 H 201.302 3.21895 2.27546 0
M  V30 2097 H 202.59 3.86736 3.30625 0
M  V30 2098 H 201.988 1.51685 5.44985 0
M  V30 2099 H 200.545 2.11494 6.16534 0
M  V30 2100 N 203.978 -0.674533 1.42435 0
M  V30 2101 C 205.203 -1.46784 1.46524 0
M  V30 2102 C 205.628 -1.87938 0.078066 0
M  V30 2103 O 204.986 -1.56014 -0.92354 0
M  V30 2104 C 205.034 -2.69307 2.39805 0
M  V30 2105 O 204.138 -3.67587 1.86959 0
M  V30 2106 H 203.479 -0.440959 0.496439 0
M  V30 2107 H 206.009 -0.827326 1.87127 0
M  V30 2108 H 206.019 -3.17374 2.56393 0
M  V30 2109 H 204.694 -2.38692 3.40586 0
M  V30 2110 H 203.271 -3.2662 1.79927 0
M  V30 2111 N 205.456 -1.28612 -0.910864 0
M  V30 2112 C 206.681 -1.1891 -1.69927 0
M  V30 2113 C 207.106 0.248372 -1.86453 0
M  V30 2114 O 206.464 1.17961 -1.37676 0
M  V30 2115 C 206.512 -1.89578 -3.06745 0
M  V30 2116 O 205.616 -1.20521 -3.94396 0
M  V30 2117 H 204.957 -0.412632 -0.520222 0
M  V30 2118 H 207.487 -1.69985 -1.1387 0
M  V30 2119 H 207.497 -1.97597 -3.56958 0
M  V30 2120 H 206.172 -2.94136 -2.94035 0
M  V30 2121 H 204.749 -1.20684 -3.52831 0
M  V30 2122 N 206.934 1.1197 -1.10907 0
M  V30 2123 C 207.882 2.19927 -0.757303 0
M  V30 2124 C 208.876 1.67564 0.248747 0
M  V30 2125 O 210.082 1.79672 0.108605 0
M  V30 2126 H 206.457 0.716925 -0.226987 0
M  V30 2127 H 208.428 2.46847 -1.67658 0
M  V30 2128 C 207.177 3.47061 -0.210671 0
M  V30 2129 H 206.5 3.87703 -0.976049 0
M  V30 2130 H 207.94 4.24 -0.0026584 0
M  V30 2131 C 206.399 3.19864 1.05777 0
M  V30 2132 O 206.929 3.40049 2.13845 0
M  V30 2133 N 205.135 2.73636 0.978349 0
M  V30 2134 H 204.682 2.5741 0.0988246 0
M  V30 2135 H 204.64 2.55815 1.82773 0
M  V30 2136 N 208.412 0.89855 1.29475 0
M  V30 2137 C 209.689 0.443416 1.90508 0
M  V30 2138 C 210.069 -1.07685 1.81569 0
M  V30 2139 O 209.417 -1.9182 1.24166 0
M  V30 2140 C 209.627 0.956708 3.35631 0
M  V30 2141 C 210.975 0.999728 4.12663 0
M  V30 2142 O 211.999 0.904299 3.4453 0
M  V30 2143 O 210.858 1.14289 5.34416 0
M  V30 2144 H 207.952 0.138025 0.815401 0
M  V30 2145 H 210.498 0.98834 1.37949 0
M  V30 2146 H 209.27 2.00067 3.36287 0
M  V30 2147 H 208.893 0.391728 3.95666 0
M  V30 2148 N 209.89 -1.43072 0.660911 0
M  V30 2149 C 211.136 -2.0202 0.177708 0
M  V30 2150 C 211.469 -1.52066 -1.20787 0
M  V30 2151 O 210.744 -0.716987 -1.80802 0
M  V30 2152 C 211.027 -3.59561 0.197019 0
M  V30 2153 C 210.88 -4.19727 1.61706 0
M  V30 2154 C 212.199 -4.37664 -0.462396 0
M  V30 2155 H 209.318 -0.734034 0.0660494 0
M  V30 2156 H 211.96 -1.70272 0.843058 0
M  V30 2157 H 210.11 -3.86739 -0.369527 0
M  V30 2158 H 211.782 -4.03553 2.23479 0
M  V30 2159 H 210.025 -3.76084 2.16201 0
M  V30 2160 H 210.696 -5.28834 1.58237 0
M  V30 2161 H 213.172 -4.16095 0.0197215 0
M  V30 2162 H 212.048 -5.47305 -0.418188 0
M  V30 2163 H 212.309 -4.14493 -1.53778 0
M  V30 2164 N 211.368 -0.403325 -1.52352 0
M  V30 2165 C 212.615 0.174347 -2.01748 0
M  V30 2166 C 212.943 1.45636 -1.2892 0
M  V30 2167 O 212.198 1.9193 -0.382258 0
M  V30 2168 C 212.497 0.474665 -3.54234 0
M  V30 2169 C 212.163 -0.717458 -4.45155 0
M  V30 2170 C 210.825 -1.04447 -4.69728 0
M  V30 2171 C 213.177 -1.51432 -4.98716 0
M  V30 2172 C 210.505 -2.16963 -5.45109 0
M  V30 2173 C 212.857 -2.6302 -5.75329 0
M  V30 2174 C 211.521 -2.96213 -5.98175 0
M  V30 2175 H 210.791 0.0637981 -0.738248 0
M  V30 2176 H 213.438 -0.543553 -1.83624 0
M  V30 2177 H 211.743 1.27406 -3.70506 0
M  V30 2178 H 213.44 0.934496 -3.89959 0
M  V30 2179 H 210.03 -0.452596 -4.26204 0
M  V30 2180 H 214.214 -1.27491 -4.79645 0
M  V30 2181 H 209.47 -2.43034 -5.61021 0
M  V30 2182 H 213.644 -3.25158 -6.15829 0
M  V30 2183 H 211.271 -3.83516 -6.56368 0
M  V30 2184 N 212.846 1.57033 -0.133567 0
M  V30 2185 C 214.257 1.82593 0.389464 0
M  V30 2186 C 214.608 1.05156 1.6564 0
M  V30 2187 O 213.733 0.292644 2.14412 0
M  V30 2188 C 214.328 3.31204 0.713377 0
M  V30 2189 C 212.887 3.57393 1.18098 0
M  V30 2190 C 212.034 2.76598 0.197126 0
M  V30 2191 H 214.985 1.54598 -0.358481 0
M  V30 2192 H 215.006 3.46627 1.56939 0
M  V30 2193 H 214.518 3.87537 -0.2089 0
M  V30 2194 H 212.619 3.06433 2.11966 0
M  V30 2195 H 212.732 4.65915 1.11624 0
M  V30 2196 H 211.096 2.45257 0.687088 0
M  V30 2197 H 211.879 3.35697 -0.718504 0
M  V30 2198 N 214.325 -0.140222 1.56975 0
M  V30 2199 C 215.553 -0.866437 1.87884 0
M  V30 2200 C 215.968 -1.74428 0.722517 0
M  V30 2201 O 215.325 -1.79891 -0.30749 0
M  V30 2202 C 215.376 -1.71753 3.18093 0
M  V30 2203 O 215.097 -0.875056 4.29272 0
M  V30 2204 C 216.598 -2.55074 3.62563 0
M  V30 2205 H 213.818 -0.25019 0.622612 0
M  V30 2206 H 216.362 -0.130977 2.0408 0
M  V30 2207 H 214.517 -2.40598 3.03631 0
M  V30 2208 H 214.931 -1.46002 5.03769 0
M  V30 2209 H 216.405 -3.10356 4.5649 0
M  V30 2210 H 216.882 -3.31434 2.88181 0
M  V30 2211 H 217.488 -1.91509 3.79743 0
M  V30 2212 N 215.803 -1.52179 -0.40978 0
M  V30 2213 C 216.766 -1.74853 -1.48186 0
M  V30 2214 C 217.766 -0.618417 -1.48433 0
M  V30 2215 O 218.956 -0.886286 -1.49969 0
M  V30 2216 C 216.088 -1.8303 -2.87598 0
M  V30 2217 H 217.281 -2.70559 -1.29374 0
M  V30 2218 H 214.834 -1.42586 -0.640233 0
M  V30 2219 H 215.569 -0.89236 -3.11781 0
M  V30 2220 H 215.354 -2.65187 -2.88822 0
M  V30 2221 H 216.844 -2.02316 -3.65319 0
M  V30 2222 N 217.281 0.66697 -1.42791 0
M  V30 2223 C 218.214 1.79177 -1.41318 0
M  V30 2224 C 219.192 1.60234 -0.276401 0
M  V30 2225 O 220.376 1.82602 -0.46785 0
M  V30 2226 C 217.503 3.16289 -1.21157 0
M  V30 2227 C 216.549 3.53964 -2.37932 0
M  V30 2228 S 217.382 3.55501 -4.00474 0
M  V30 2229 C 218.538 4.95292 -3.8267 0
M  V30 2230 H 218.771 1.80153 -2.365 0
M  V30 2231 H 216.304 0.838357 -1.29657 0
M  V30 2232 H 218.262 3.95428 -1.10212 0
M  V30 2233 H 216.923 3.1289 -0.275481 0
M  V30 2234 H 216.116 4.53646 -2.19594 0
M  V30 2235 H 215.718 2.82204 -2.45432 0
M  V30 2236 H 218.01 5.83584 -3.44145 0
M  V30 2237 H 218.953 5.18679 -4.82055 0
M  V30 2238 H 219.361 4.68179 -3.15386 0
M  V30 2239 N 218.759 1.29093 0.90403 0
M  V30 2240 C 219.709 1.10482 1.99443 0
M  V30 2241 C 220.693 0.0255401 1.6088 0
M  V30 2242 O 221.885 0.24677 1.75271 0
M  V30 2243 C 219.014 0.778882 3.34348 0
M  V30 2244 C 218.1 1.89749 3.79284 0
M  V30 2245 N 218.491 3.14045 3.96497 0
M  V30 2246 C 216.789 1.78955 4.08523 0
M  V30 2247 C 217.49 3.86996 4.34292 0
M  V30 2248 N 216.466 3.14909 4.43095 0
M  V30 2249 H 220.268 2.04778 2.10815 0
M  V30 2250 H 217.782 1.20155 1.09255 0
M  V30 2251 H 219.779 0.62661 4.12164 0
M  V30 2252 H 218.439 -0.156205 3.24324 0
M  V30 2253 H 219.45 3.49548 3.82148 0
M  V30 2254 H 216.127 0.926886 4.07081 0
M  V30 2255 H 217.517 4.93941 4.55491 0
M  V30 2256 N 220.237 -1.11381 1.11499 0
M  V30 2257 C 221.483 -1.83403 0.865512 0
M  V30 2258 C 221.816 -1.84459 -0.607329 0
M  V30 2259 O 221.091 -1.29811 -1.44842 0
M  V30 2260 C 221.374 -3.30552 1.42855 0
M  V30 2261 C 221.227 -3.37886 2.96906 0
M  V30 2262 C 222.546 -4.26643 1.08 0
M  V30 2263 H 219.665 -0.665879 0.31587 0
M  V30 2264 H 222.307 -1.30601 1.37998 0
M  V30 2265 H 220.457 -3.75648 0.990985 0
M  V30 2266 H 222.129 -3.01343 3.49271 0
M  V30 2267 H 220.372 -2.78088 3.32941 0
M  V30 2268 H 221.043 -4.41458 3.31389 0
M  V30 2269 H 223.519 -3.89729 1.45775 0
M  V30 2270 H 222.395 -5.27986 1.50072 0
M  V30 2271 H 222.656 -4.42099 -0.00915037 0
M  V30 2272 N 221.715 -0.905404 -1.28997 0
M  V30 2273 C 222.678 -0.392253 -2.25819 0
M  V30 2274 C 223.678 0.476753 -1.5357 0
M  V30 2275 O 224.868 0.280994 -1.71919 0
M  V30 2276 C 222 0.438588 -3.38067 0
M  V30 2277 H 223.193 -1.24743 -2.72725 0
M  V30 2278 H 220.746 -0.684051 -1.40536 0
M  V30 2279 H 221.481 1.31352 -2.96508 0
M  V30 2280 H 221.266 -0.184167 -3.91667 0
M  V30 2281 H 222.756 0.78873 -4.10084 0
M  V30 2282 N 223.193 1.4272 -0.668489 0
M  V30 2283 C 224.156 2.292 0.00448567 0
M  V30 2284 C 225.156 1.43001 0.735339 0
M  V30 2285 O 226.346 1.64461 0.57429 0
M  V30 2286 C 223.478 3.25375 1.01705 0
M  V30 2287 H 224.671 2.90199 -0.756608 0
M  V30 2288 H 222.224 1.50254 -0.430506 0
M  V30 2289 H 222.959 2.69301 1.80686 0
M  V30 2290 H 222.744 3.88944 0.496463 0
M  V30 2291 H 224.234 3.90245 1.48655 0
M  V30 2292 N 224.671 0.411399 1.52136 0
M  V30 2293 C 225.601 -0.404015 2.29978 0
M  V30 2294 C 226.582 -1.04412 1.34284 0
M  V30 2295 O 227.767 -1.0527 1.63192 0
M  V30 2296 C 224.897 -1.5197 3.12286 0
M  V30 2297 C 223.851 -1.00448 4.16046 0
M  V30 2298 C 223.177 -2.21393 4.86712 0
M  V30 2299 C 224.477 -0.0569336 5.22269 0
M  V30 2300 H 226.171 0.245529 2.98392 0
M  V30 2301 H 223.717 0.119525 1.43503 0
M  V30 2302 H 225.67 -2.09715 3.6551 0
M  V30 2303 H 224.394 -2.19716 2.41646 0
M  V30 2304 H 223.053 -0.449421 3.63835 0
M  V30 2305 H 222.701 -2.87699 4.12599 0
M  V30 2306 H 222.401 -1.87571 5.56858 0
M  V30 2307 H 223.925 -2.7974 5.4275 0
M  V30 2308 H 225.339 -0.54325 5.7072 0
M  V30 2309 H 223.736 0.192594 5.99791 0
M  V30 2310 H 224.806 0.887663 4.76706 0
M  V30 2311 N 226.149 -1.5696 0.141893 0
M  V30 2312 C 227.079 -2.19516 -0.795936 0
M  V30 2313 C 228.06 -1.14187 -1.26077 0
M  V30 2314 O 229.245 -1.42511 -1.31925 0
M  V30 2315 C 226.375 -2.81272 -2.03723 0
M  V30 2316 C 225.329 -3.92384 -1.70936 0
M  V30 2317 C 224.655 -4.41052 -3.02287 0
M  V30 2318 C 225.955 -5.13403 -0.959954 0
M  V30 2319 H 227.649 -2.98138 -0.274596 0
M  V30 2320 H 225.195 -1.43406 -0.130636 0
M  V30 2321 H 227.148 -3.237 -2.69808 0
M  V30 2322 H 225.872 -1.99973 -2.58221 0
M  V30 2323 H 224.531 -3.50566 -1.07232 0
M  V30 2324 H 224.179 -3.56582 -3.54765 0
M  V30 2325 H 223.879 -5.15993 -2.81114 0
M  V30 2326 H 225.403 -4.86146 -3.69451 0
M  V30 2327 H 226.817 -5.52706 -1.52279 0
M  V30 2328 H 225.214 -5.94073 -0.848357 0
M  V30 2329 H 226.284 -4.84875 0.0492434 0
M  V30 2330 N 227.627 0.131896 -1.57047 0
M  V30 2331 C 228.59 1.14638 -1.98471 0
M  V30 2332 C 229.59 1.35029 -0.873148 0
M  V30 2333 O 230.78 1.31764 -1.13946 0
M  V30 2334 C 227.912 2.50358 -2.31373 0
M  V30 2335 H 229.105 0.79064 -2.8929 0
M  V30 2336 H 226.658 0.375761 -1.51716 0
M  V30 2337 H 227.393 2.90876 -1.43393 0
M  V30 2338 H 227.178 2.36915 -3.12432 0
M  V30 2339 H 228.668 3.23395 -2.64207 0
M  V30 2340 N 229.106 1.52395 0.401703 0
M  V30 2341 C 230.036 1.79231 1.49661 0
M  V30 2342 C 231.017 0.643654 1.57452 0
M  V30 2343 O 232.202 0.889989 1.72606 0
M  V30 2344 C 229.332 1.94971 2.87409 0
M  V30 2345 C 228.286 3.10604 2.94465 0
M  V30 2346 C 227.612 3.11577 4.34538 0
M  V30 2347 C 228.912 4.49921 2.6527 0
M  V30 2348 H 230.606 2.70917 1.27454 0
M  V30 2349 H 228.152 1.30362 0.6117 0
M  V30 2350 H 230.105 2.12328 3.63999 0
M  V30 2351 H 228.829 0.999632 3.10926 0
M  V30 2352 H 227.488 2.93009 2.20321 0
M  V30 2353 H 227.136 2.14277 4.55076 0
M  V30 2354 H 226.836 3.89247 4.40183 0
M  V30 2355 H 228.36 3.31073 5.13053 0
M  V30 2356 H 229.774 4.67683 3.31581 0
M  V30 2357 H 228.171 5.29564 2.82281 0
M  V30 2358 H 229.241 4.57507 1.60671 0
M  V30 2359 N 230.584 -0.659388 1.43143 0
M  V30 2360 C 232 -0.974337 1.26407 0
M  V30 2361 C 232.2 -2.007 0.179341 0
M  V30 2362 O 231.256 -2.4856 -0.444295 0
M  V30 2363 C 232.569 -1.46447 2.62628 0
M  V30 2364 C 234.117 -1.58144 2.7011 0
M  V30 2365 C 234.592 -2.1055 4.06734 0
M  V30 2366 N 236.083 -2.17861 4.08767 0
M  V30 2367 C 236.818 -2.59519 5.1131 0
M  V30 2368 N 236.314 -3.00518 6.24228 0
M  V30 2369 N 238.107 -2.59404 4.98664 0
M  V30 2370 H 230.258 0.0240528 2.12386 0
M  V30 2371 H 232.521 -0.0518065 0.946583 0
M  V30 2372 H 232.227 -0.780123 3.42939 0
M  V30 2373 H 232.101 -2.44058 2.87603 0
M  V30 2374 H 234.488 -2.25682 1.90136 0
M  V30 2375 H 234.569 -0.589828 2.48907 0
M  V30 2376 H 234.213 -1.43616 4.87172 0
M  V30 2377 H 234.143 -3.10531 4.25298 0
M  V30 2378 H 236.634 -1.88975 3.27257 0
M  V30 2379 H 236.947 -3.31036 6.98309 0
M  V30 2380 H 235.292 -2.98337 6.2771 0
M  V30 2381 H 238.483 -2.26747 4.09516 0
M  V30 2382 H 238.656 -2.91548 5.78709 0
M  V30 2383 N 232.062 -1.29571 -0.897171 0
M  V30 2384 C 233.009 -1.14916 -2.00158 0
M  V30 2385 C 233.979 -0.0418149 -1.66047 0
M  V30 2386 O 235.164 -0.209793 -1.89643 0
M  V30 2387 C 232.304 -0.834307 -3.34863 0
M  V30 2388 C 231.417 -2.02234 -3.8174 0
M  V30 2389 C 230.552 -1.64664 -5.05034 0
M  V30 2390 C 229.591 -2.80033 -5.44286 0
M  V30 2391 N 228.728 -2.42843 -6.58765 0
M  V30 2392 H 233.568 -2.09403 -2.12025 0
M  V30 2393 H 231.105 -1.042 -1.0383 0
M  V30 2394 H 233.063 -0.632436 -4.12379 0
M  V30 2395 H 231.693 0.0736656 -3.22716 0
M  V30 2396 H 230.745 -2.33583 -3.00238 0
M  V30 2397 H 232.057 -2.88673 -4.06779 0
M  V30 2398 H 231.211 -1.4078 -5.9014 0
M  V30 2399 H 229.95 -0.753766 -4.8184 0
M  V30 2400 H 228.955 -3.04596 -4.57713 0
M  V30 2401 H 230.18 -3.69989 -5.6946 0
M  V30 2402 H 228.126 -1.56046 -6.3717 0
M  V30 2403 H 228.043 -3.22815 -6.83613 0
M  V30 2404 H 229.311 -2.22285 -7.47134 0
M  V30 2405 N 233.54 1.10788 -1.12088 0
M  V30 2406 C 234.472 2.16816 -0.743213 0
M  V30 2407 C 235.485 1.6119 0.228412 0
M  V30 2408 O 236.674 1.78497 0.0102931 0
M  V30 2409 C 233.774 3.38809 -0.0787313 0
M  V30 2410 C 232.947 4.23885 -1.0789 0
M  V30 2411 C 232.006 5.24334 -0.442713 0
M  V30 2412 O 231.032 5.58497 -1.09864 0
M  V30 2413 N 232.234 5.75079 0.791457 0
M  V30 2414 H 234.999 2.49825 -1.65552 0
M  V30 2415 H 232.56 1.26373 -1.012 0
M  V30 2416 H 234.552 4.03107 0.358766 0
M  V30 2417 H 233.122 3.03805 0.736275 0
M  V30 2418 H 232.342 3.55939 -1.69414 0
M  V30 2419 H 233.63 4.77562 -1.75533 0
M  V30 2420 H 233.028 5.49517 1.3434 0
M  V30 2421 H 231.585 6.4118 1.17183 0
M  V30 2422 N 235.018 0.912232 1.28515 0
M  V30 2423 C 235.948 0.416403 2.29757 0
M  V30 2424 C 236.929 -0.515194 1.6211 0
M  V30 2425 O 238.114 -0.423253 1.89532 0
M  V30 2426 C 235.244 -0.34572 3.45575 0
M  V30 2427 C 234.198 0.496599 4.25109 0
M  V30 2428 C 233.524 -0.393771 5.33248 0
M  V30 2429 C 234.824 1.75307 4.92001 0
M  V30 2430 H 236.518 1.26249 2.7148 0
M  V30 2431 H 234.064 0.608515 1.30511 0
M  V30 2432 H 236.017 -0.703422 4.15488 0
M  V30 2433 H 234.741 -1.2257 3.02728 0
M  V30 2434 H 233.4 0.8368 3.56922 0
M  V30 2435 H 233.048 -1.27225 4.86644 0
M  V30 2436 H 232.748 0.166209 5.87365 0
M  V30 2437 H 234.272 -0.747389 6.06009 0
M  V30 2438 H 235.686 1.46437 5.54283 0
M  V30 2439 H 234.083 2.25534 5.56106 0
M  V30 2440 H 235.153 2.48176 4.16577 0
M  V30 2441 N 236.496 -1.42363 0.676048 0
M  V30 2442 C 237.745 -2.00745 0.196037 0
M  V30 2443 C 238.058 -1.54083 -1.20489 0
M  V30 2444 O 239.264 -2.04891 -1.78134 0
M  V30 2445 C 237.72 -3.58651 0.299616 0
M  V30 2446 C 237.328 -4.143 1.70468 0
M  V30 2447 C 239.072 -4.24326 -0.121619 0
M  V30 2448 C 236.979 -5.64574 1.76096 0
M  V30 2449 H 235.909 -0.750787 0.0695301 0
M  V30 2450 H 238.56 -1.63072 0.841412 0
M  V30 2451 H 236.942 -3.93833 -0.413673 0
M  V30 2452 H 238.116 -3.90575 2.44515 0
M  V30 2453 H 236.431 -3.61081 2.07387 0
M  V30 2454 H 239.028 -5.34607 -0.0997362 0
M  V30 2455 H 239.371 -3.99897 -1.15708 0
M  V30 2456 H 239.904 -3.94108 0.540706 0
M  V30 2457 H 236.643 -5.93804 2.77628 0
M  V30 2458 H 236.163 -5.90286 1.06406 0
M  V30 2459 H 237.842 -6.29013 1.51496 0
M  V30 2460 N 237.974 -0.419461 -1.51915 0
M  V30 2461 C 239.385 0.0477853 -1.86639 0
M  V30 2462 C 239.736 1.43531 -1.33766 0
M  V30 2463 O 238.861 2.05401 -0.68113 0
M  V30 2464 C 239.456 0.0934885 -3.38671 0
M  V30 2465 C 238.015 0.505097 -3.72996 0
M  V30 2466 C 237.162 -0.313792 -2.75519 0
M  V30 2467 H 240.113 -0.636088 -1.45395 0
M  V30 2468 H 240.134 0.906667 -3.6954 0
M  V30 2469 H 239.646 -0.916501 -3.77123 0
M  V30 2470 H 237.747 1.52135 -3.40126 0
M  V30 2471 H 237.86 0.242309 -4.78487 0
M  V30 2472 H 236.224 0.225363 -2.53701 0
M  V30 2473 H 237.007 -1.32232 -3.16812 0
M  V30 2474 N 239.452 1.56882 -0.150215 0
M  V30 2475 C 240.384 2.14057 0.819286 0
M  V30 2476 C 241.397 1.09082 1.20851 0
M  V30 2477 O 242.586 1.36347 1.15203 0
M  V30 2478 C 239.686 2.65102 2.11127 0
M  V30 2479 C 238.859 3.94511 1.88891 0
M  V30 2480 C 237.918 4.30834 3.02107 0
M  V30 2481 O 236.944 4.99099 2.73659 0
M  V30 2482 N 238.146 3.90676 4.29363 0
M  V30 2483 H 240.911 2.97871 0.330618 0
M  V30 2484 H 238.472 1.61866 0.0332538 0
M  V30 2485 H 240.464 2.86411 2.85921 0
M  V30 2486 H 239.034 1.85994 2.51247 0
M  V30 2487 H 238.254 3.81795 0.981152 0
M  V30 2488 H 239.542 4.7907 1.71376 0
M  V30 2489 H 238.94 3.35677 4.55343 0
M  V30 2490 H 237.497 4.1703 5.00928 0
M  V30 2491 N 240.93 -0.123565 1.57115 0
M  V30 2492 C 241.86 -1.15309 2.03042 0
M  V30 2493 C 242.841 -1.43454 0.914061 0
M  V30 2494 O 244.026 -1.53973 1.18347 0
M  V30 2495 C 241.156 -2.48043 2.43089 0
M  V30 2496 C 240.11 -2.3437 3.58127 0
M  V30 2497 C 239.436 -3.72026 3.84059 0
M  V30 2498 C 240.736 -1.80804 4.90007 0
M  V30 2499 H 242.43 -0.771102 2.893 0
M  V30 2500 H 239.976 -0.369479 1.39179 0
M  V30 2501 H 241.929 -3.20311 2.73823 0
M  V30 2502 H 240.653 -2.88122 1.53796 0
M  V30 2503 H 239.312 -1.64551 3.27595 0
M  V30 2504 H 238.96 -4.09582 2.91979 0
M  V30 2505 H 238.66 -3.63732 4.6149 0
M  V30 2506 H 240.184 -4.45806 4.1724 0
M  V30 2507 H 241.598 -2.42886 5.19307 0
M  V30 2508 H 239.995 -1.83343 5.71407 0
M  V30 2509 H 241.065 -0.76528 4.78823 0
M  V30 2510 N 242.408 -1.52605 -0.393616 0
M  V30 2511 C 243.355 -1.77055 -1.48054 0
M  V30 2512 C 244.325 -0.61358 -1.54352 0
M  V30 2513 O 245.51 -0.852806 -1.70681 0
M  V30 2514 C 242.65 -1.94108 -2.85335 0
M  V30 2515 C 241.763 -3.21792 -2.88226 0
M  V30 2516 C 240.898 -3.29188 -4.16904 0
M  V30 2517 C 239.937 -4.51013 -4.13828 0
M  V30 2518 N 239.074 -4.55716 -5.34105 0
M  V30 2519 H 243.914 -2.69815 -1.26506 0
M  V30 2520 H 241.451 -1.33683 -0.61379 0
M  V30 2521 H 243.409 -2.01979 -3.65049 0
M  V30 2522 H 242.039 -1.04713 -3.05344 0
M  V30 2523 H 241.091 -3.23015 -2.00911 0
M  V30 2524 H 242.403 -4.11557 -2.8182 0
M  V30 2525 H 241.557 -3.36216 -5.05018 0
M  V30 2526 H 240.296 -2.37389 -4.26026 0
M  V30 2527 H 239.301 -4.44115 -3.24102 0
M  V30 2528 H 240.526 -5.44123 -4.06333 0
M  V30 2529 H 238.472 -3.66807 -5.43865 0
M  V30 2530 H 238.389 -5.39346 -5.29756 0
M  V30 2531 H 239.657 -4.66993 -6.2413 0
M  V30 2532 N 243.887 0.651787 -1.4349 0
M  V30 2533 C 245.115 1.43937 -1.48626 0
M  V30 2534 C 245.53 1.8851 -0.104587 0
M  V30 2535 O 244.887 1.5958 0.885464 0
M  V30 2536 C 244.938 2.6734 -2.43334 0
M  V30 2537 O 244.659 2.24631 -3.76128 0
M  V30 2538 C 246.16 3.60683 -2.57726 0
M  V30 2539 H 243.38 0.44213 -0.504739 0
M  V30 2540 H 245.924 0.798944 -1.88248 0
M  V30 2541 H 244.079 3.2752 -2.06904 0
M  V30 2542 H 244.493 3.04485 -4.2707 0
M  V30 2543 H 245.967 4.43933 -3.28067 0
M  V30 2544 H 246.444 4.08126 -1.62265 0
M  V30 2545 H 247.05 3.06384 -2.94973 0
M  V30 2546 N 245.365 1.30045 0.890287 0
M  V30 2547 C 246.295 1.18541 2.01172 0
M  V30 2548 C 247.276 0.0773356 1.69924 0
M  V30 2549 O 248.461 0.25845 1.92473 0
M  V30 2550 C 245.591 0.870941 3.36202 0
M  V30 2551 C 244.545 1.93637 3.81692 0
M  V30 2552 C 243.871 1.475 5.13953 0
M  V30 2553 C 245.171 3.34666 4.00994 0
M  V30 2554 H 246.865 2.12359 2.11054 0
M  V30 2555 H 244.411 1.02238 1.01407 0
M  V30 2556 H 246.364 0.777141 4.14172 0
M  V30 2557 H 245.088 -0.102926 3.26438 0
M  V30 2558 H 243.747 2.01972 3.05946 0
M  V30 2559 H 243.395 0.489551 5.00612 0
M  V30 2560 H 243.095 2.1876 5.4536 0
M  V30 2561 H 244.619 1.39489 5.94454 0
M  V30 2562 H 246.033 3.2912 4.69417 0
M  V30 2563 H 244.43 4.03966 4.43769 0
M  V30 2564 H 245.5 3.76949 3.05021 0
M  V30 2565 N 246.843 -1.10192 1.12674 0
M  V30 2566 C 248.071 -1.85983 0.906527 0
M  V30 2567 C 248.486 -1.80783 -0.544333 0
M  V30 2568 O 247.843 -1.19834 -1.37645 0
M  V30 2569 C 247.894 -3.34281 1.37618 0
M  V30 2570 O 247.615 -3.39401 2.77017 0
M  V30 2571 C 249.116 -4.26938 1.19325 0
M  V30 2572 H 246.336 -0.587716 0.323775 0
M  V30 2573 H 248.88 -1.39284 1.49734 0
M  V30 2574 H 247.035 -3.78436 0.828539 0
M  V30 2575 H 247.449 -4.31838 2.97684 0
M  V30 2576 H 248.923 -5.29181 1.57071 0
M  V30 2577 H 249.4 -4.38995 0.134097 0
M  V30 2578 H 250.006 -3.8859 1.72852 0
M  V30 2579 N 248.321 -0.919034 -1.28029 0
M  V30 2580 C 249.253 -0.368762 -2.26214 0
M  V30 2581 C 250.266 0.495716 -1.55069 0
M  V30 2582 O 251.455 0.30974 -1.75792 0
M  V30 2583 C 248.555 0.491049 -3.35324 0
M  V30 2584 C 247.728 -0.352133 -4.3598 0
M  V30 2585 C 246.787 0.443622 -5.24327 0
M  V30 2586 O 245.813 -0.14566 -5.69014 0
M  V30 2587 N 247.015 1.74545 -5.53637 0
M  V30 2588 H 249.78 -1.21273 -2.74068 0
M  V30 2589 H 247.341 -0.785541 -1.41566 0
M  V30 2590 H 249.333 1.03026 -3.91366 0
M  V30 2591 H 247.903 1.23574 -2.87138 0
M  V30 2592 H 247.123 -1.07269 -3.79324 0
M  V30 2593 H 248.411 -0.928883 -5.00249 0
M  V30 2594 H 247.809 2.24666 -5.19174 0
M  V30 2595 H 246.366 2.23138 -6.12416 0
M  V30 2596 N 249.799 1.42003 -0.683588 0
M  V30 2597 C 251.027 2.05746 -0.218182 0
M  V30 2598 C 251.442 1.51396 1.12804 0
M  V30 2599 O 250.799 0.657303 1.70252 0
M  V30 2600 C 250.85 3.61171 -0.154131 0
M  V30 2601 O 250.571 4.13508 -1.44716 0
M  V30 2602 C 252.072 4.42042 0.333713 0
M  V30 2603 H 249.292 0.662888 -0.10402 0
M  V30 2604 H 251.836 1.81987 -0.9328 0
M  V30 2605 H 249.991 3.84012 0.511231 0
M  V30 2606 H 250.405 5.07453 -1.32632 0
M  V30 2607 H 251.879 5.51028 0.327423 0
M  V30 2608 H 252.356 4.17269 1.37053 0
M  V30 2609 H 252.962 4.24239 -0.300222 0
M  V30 2610 N 251.277 0.427512 1.51691 0
M  V30 2611 C 252.207 -0.3796 2.30394 0
M  V30 2612 C 253.188 -1.02982 1.35384 0
M  V30 2613 O 254.373 -1.03534 1.643 0
M  V30 2614 C 251.503 -1.48649 3.1388 0
M  V30 2615 C 250.457 -0.960294 4.17088 0
M  V30 2616 C 249.783 -2.16219 4.89033 0
M  V30 2617 C 251.083 -0.00153679 5.223 0
M  V30 2618 H 252.777 0.277164 2.98114 0
M  V30 2619 H 250.323 0.134739 1.43368 0
M  V30 2620 H 252.276 -2.05826 3.67714 0
M  V30 2621 H 251 -2.1714 2.43962 0
M  V30 2622 H 249.659 -0.410806 3.64291 0
M  V30 2623 H 249.307 -2.83307 4.15628 0
M  V30 2624 H 249.007 -1.81654 5.58816 0
M  V30 2625 H 250.531 -2.73968 5.45687 0
M  V30 2626 H 251.945 -0.482687 5.71264 0
M  V30 2627 H 250.342 0.256199 5.99553 0
M  V30 2628 H 251.412 0.938174 4.75738 0
M  V30 2629 N 252.755 -1.56801 0.158532 0
M  V30 2630 C 253.703 -2.18638 -0.793729 0
M  V30 2631 C 254.697 -1.14669 -1.24689 0
M  V30 2632 O 255.903 -1.32895 -1.21403 0
M  V30 2633 H 252.278 -0.700226 -0.274204 0
M  V30 2634 H 254.249 -2.97367 -0.248095 0
M  V30 2635 C 252.998 -2.83139 -2.0181 0
M  V30 2636 H 252.321 -3.62863 -1.67841 0
M  V30 2637 H 253.761 -3.29894 -2.66357 0
M  V30 2638 C 252.22 -1.82244 -2.83353 0
M  V30 2639 O 252.75 -1.3 -3.80083 0
M  V30 2640 N 250.956 -1.51288 -2.48114 0
M  V30 2641 H 250.503 -1.93964 -1.69516 0
M  V30 2642 H 250.461 -0.840296 -3.02963 0
M  V30 2643 N 254.233 0.115231 -1.57178 0
M  V30 2644 C 255.143 1.15994 -2.03918 0
M  V30 2645 C 256.159 1.45103 -0.960268 0
M  V30 2646 O 257.335 1.56144 -1.27204 0
M  V30 2647 C 254.4 2.46568 -2.43732 0
M  V30 2648 C 253.461 2.24822 -3.65723 0
M  V30 2649 C 252.694 3.4917 -4.03629 0
M  V30 2650 O 252.917 4.56623 -3.41835 0
M  V30 2651 O 251.851 3.39949 -4.96708 0
M  V30 2652 H 255.677 0.793019 -2.93164 0
M  V30 2653 H 253.262 0.3263 -1.45793 0
M  V30 2654 H 255.144 3.23492 -2.70057 0
M  V30 2655 H 253.819 2.82726 -1.57631 0
M  V30 2656 H 252.726 1.45744 -3.44542 0
M  V30 2657 H 254.059 1.93566 -4.52541 0
M  V30 2658 N 255.711 1.52812 0.385517 0
M  V30 2659 C 256.658 1.77838 1.47113 0
M  V30 2660 C 257.628 0.621757 1.54024 0
M  V30 2661 O 258.813 0.861846 1.70226 0
M  V30 2662 C 255.953 1.95618 2.84302 0
M  V30 2663 C 255.066 3.23316 2.86515 0
M  V30 2664 C 254.201 3.31394 4.15152 0
M  V30 2665 C 253.24 4.53201 4.1143 0
M  V30 2666 N 252.377 4.58542 5.3168 0
M  V30 2667 H 257.217 2.70482 1.25073 0
M  V30 2668 H 254.754 1.34006 0.606692 0
M  V30 2669 H 256.712 2.03912 3.63972 0
M  V30 2670 H 255.342 1.06331 3.04784 0
M  V30 2671 H 254.394 3.24076 1.99195 0
M  V30 2672 H 255.706 4.13045 2.79634 0
M  V30 2673 H 254.86 3.3889 5.03228 0
M  V30 2674 H 253.599 2.39645 4.24761 0
M  V30 2675 H 252.604 4.45827 3.21742 0
M  V30 2676 H 253.829 5.46271 4.03442 0
M  V30 2677 H 251.775 3.69686 5.41912 0
M  V30 2678 H 251.692 5.42148 5.26889 0
M  V30 2679 H 252.96 4.70296 6.21644 0
M  V30 2680 N 257.189 -0.644168 1.43834 0
M  V30 2681 C 258.414 -1.43642 1.49605 0
M  V30 2682 C 258.839 -1.8773 0.117913 0
M  V30 2683 O 258.197 -1.57938 -0.890239 0
M  V30 2684 C 258.245 -2.6416 2.45463 0
M  V30 2685 O 257.349 -3.63538 1.94714 0
M  V30 2686 H 256.69 -0.430329 0.50568 0
M  V30 2687 H 259.22 -0.787448 1.8884 0
M  V30 2688 H 259.23 -3.11864 2.63068 0
M  V30 2689 H 257.905 -2.31414 3.45572 0
M  V30 2690 H 256.482 -3.2273 1.86814 0
M  V30 2691 N 258.668 -1.30515 -0.883378 0
M  V30 2692 C 260.084 -1.08881 -1.16692 0
M  V30 2693 C 260.284 0.149409 -2.00945 0
M  V30 2694 O 259.34 0.84257 -2.38027 0
M  V30 2695 C 260.653 -2.35319 -1.87204 0
M  V30 2696 C 262.201 -2.40799 -1.99962 0
M  V30 2697 C 262.676 -3.67083 -2.73887 0
M  V30 2698 N 264.167 -3.679 -2.81432 0
M  V30 2699 C 264.902 -4.62303 -3.3921 0
M  V30 2700 N 264.398 -5.67052 -3.98025 0
M  V30 2701 N 266.191 -4.49845 -3.3704 0
M  V30 2702 H 258.342 -2.09951 -0.321633 0
M  V30 2703 H 260.605 -0.92556 -0.205043 0
M  V30 2704 H 260.311 -3.25689 -1.3274 0
M  V30 2705 H 260.185 -2.44089 -2.87577 0
M  V30 2706 H 262.572 -1.50907 -2.53597 0
M  V30 2707 H 262.653 -2.36003 -0.98673 0
M  V30 2708 H 262.297 -4.57334 -2.20925 0
M  V30 2709 H 262.227 -3.69141 -3.75556 0
M  V30 2710 H 264.718 -2.92171 -2.39676 0
M  V30 2711 H 265.031 -6.35184 -4.40183 0
M  V30 2712 H 263.376 -5.70842 -3.96439 0
M  V30 2713 H 266.567 -3.67194 -2.90321 0
M  V30 2714 H 266.74 -5.23597 -3.81772 0
M  V30 2715 N 260.146 1.09593 -1.13257 0
M  V30 2716 C 261.109 2.14359 -0.811358 0
M  V30 2717 C 262.109 1.59808 0.178377 0
M  V30 2718 O 263.299 1.74132 -0.0484911 0
M  V30 2719 C 260.431 3.40269 -0.207276 0
M  V30 2720 H 261.624 2.44284 -1.73969 0
M  V30 2721 H 259.177 1.25102 -0.936973 0
M  V30 2722 H 259.912 3.15969 0.73036 0
M  V30 2723 H 259.697 3.81154 -0.919992 0
M  V30 2724 H 261.187 4.176 0.000667944 0
M  V30 2725 N 261.624 0.925811 1.2754 0
M  V30 2726 C 262.871 0.565255 1.94451 0
M  V30 2727 C 263.199 -0.89316 1.7278 0
M  V30 2728 O 262.454 -1.65213 1.04895 0
M  V30 2729 C 262.753 0.835296 3.47502 0
M  V30 2730 C 262.419 2.27515 3.89291 0
M  V30 2731 C 261.081 2.66879 4.00411 0
M  V30 2732 C 263.433 3.21158 4.10496 0
M  V30 2733 C 260.761 3.99014 4.30122 0
M  V30 2734 C 263.113 4.52871 4.4169 0
M  V30 2735 C 261.777 4.92072 4.51023 0
M  V30 2736 H 261.047 0.206841 0.711546 0
M  V30 2737 H 263.694 1.16942 1.51647 0
M  V30 2738 H 261.999 0.148442 3.91519 0
M  V30 2739 H 263.696 0.535322 3.97411 0
M  V30 2740 H 260.286 1.95976 3.81171 0
M  V30 2741 H 264.47 2.9195 4.01346 0
M  V30 2742 H 259.726 4.2907 4.35556 0
M  V30 2743 H 263.9 5.25436 4.57045 0
M  V30 2744 H 261.527 5.9449 4.738 0
M  V30 2745 N 263.102 -1.41638 0.69111 0
M  V30 2746 C 264.065 -2.29178 0.0319786 0
M  V30 2747 C 265.065 -1.44153 -0.712496 0
M  V30 2748 O 266.255 -1.65354 -0.548053 0
M  V30 2749 C 263.387 -3.26952 -0.965161 0
M  V30 2750 H 264.58 -2.88959 0.802681 0
M  V30 2751 H 262.133 -1.4955 0.454356 0
M  V30 2752 H 262.868 -2.72142 -1.76378 0
M  V30 2753 H 262.653 -3.89685 -0.434522 0
M  V30 2754 H 264.143 -3.92561 -1.42428 0
M  V30 2755 N 264.58 -0.43555 -1.51462 0
M  V30 2756 C 265.857 0.191364 -1.94662 0
M  V30 2757 C 266.237 1.60254 -1.37411 0
M  V30 2758 O 265.585 2.2152 -0.560458 0
M  V30 2759 C 265.795 0.17091 -3.48581 0
M  V30 2760 C 267.143 0.377357 -4.2292 0
M  V30 2761 O 268.167 0.249104 -3.55328 0
M  V30 2762 O 267.026 0.63247 -5.42828 0
M  V30 2763 H 264.12 0.130932 -0.816569 0
M  V30 2764 H 266.666 -0.4934 -1.62369 0
M  V30 2765 H 265.438 -0.815738 -3.82703 0
M  V30 2766 H 265.061 0.898659 -3.87311 0
M  V30 2767 N 266.058 1.56714 -0.166846 0
M  V30 2768 C 267.307 1.95922 0.479318 0
M  V30 2769 C 267.62 1.05529 1.6469 0
M  V30 2770 O 268.826 1.34399 2.35901 0
M  V30 2771 C 267.282 3.48359 0.90412 0
M  V30 2772 C 266.89 4.47369 -0.237621 0
M  V30 2773 C 268.634 3.96394 1.51896 0
M  V30 2774 C 266.541 5.91039 0.206561 0
M  V30 2775 H 265.471 0.731495 0.18284 0
M  V30 2776 H 268.122 1.81728 -0.254363 0
M  V30 2777 H 266.504 3.57955 1.69365 0
M  V30 2778 H 267.678 4.49485 -1.01489 0
M  V30 2779 H 265.993 4.09366 -0.762128 0
M  V30 2780 H 268.59 5.01186 1.86325 0
M  V30 2781 H 268.933 3.39075 2.41524 0
M  V30 2782 H 269.466 3.89796 0.79395 0
M  V30 2783 H 266.205 6.52221 -0.654834 0
M  V30 2784 H 265.725 5.9224 0.949282 0
M  V30 2785 H 267.404 6.43707 0.651939 0
M  V30 2786 N 267.536 -0.106894 1.57237 0
M  V30 2787 C 268.782 -0.81373 1.85759 0
M  V30 2788 C 269.115 -1.78952 0.754315 0
M  V30 2789 O 268.39 -1.93029 -0.23879 0
M  V30 2790 C 268.673 -1.55293 3.24894 0
M  V30 2791 C 268.526 -0.595929 4.45835 0
M  V30 2792 C 269.845 -2.5063 3.61763 0
M  V30 2793 H 266.964 -0.294369 0.67566 0
M  V30 2794 H 269.606 -0.0776472 1.89841 0
M  V30 2795 H 267.756 -2.1804 3.21544 0
M  V30 2796 H 269.428 0.0236262 4.61294 0
M  V30 2797 H 267.671 0.0916191 4.33703 0
M  V30 2798 H 268.342 -1.15004 5.39887 0
M  V30 2799 H 270.818 -1.97982 3.65981 0
M  V30 2800 H 269.694 -2.99376 4.60071 0
M  V30 2801 H 269.955 -3.3385 2.89821 0
M  V30 2802 N 269.014 -1.53014 -0.377408 0
M  V30 2803 C 269.961 -1.78616 -1.46168 0
M  V30 2804 C 270.931 -0.629917 -1.53692 0
M  V30 2805 O 272.116 -0.870861 -1.69766 0
M  V30 2806 C 269.256 -1.97123 -2.8326 0
M  V30 2807 C 268.369 -3.24831 -2.84796 0
M  V30 2808 C 267.504 -3.33591 -4.13389 0
M  V30 2809 C 266.543 -4.55377 -4.09021 0
M  V30 2810 N 265.68 -4.61355 -5.29241 0
M  V30 2811 H 270.52 -2.71142 -1.23637 0
M  V30 2812 H 268.057 -1.34326 -0.599577 0
M  V30 2813 H 270.015 -2.05839 -3.62886 0
M  V30 2814 H 268.645 -1.07946 -3.04216 0
M  V30 2815 H 267.697 -3.25128 -1.97474 0
M  V30 2816 H 269.009 -4.14523 -2.77439 0
M  V30 2817 H 268.163 -3.41554 -5.01424 0
M  V30 2818 H 266.902 -2.41894 -4.23484 0
M  V30 2819 H 265.907 -4.47527 -3.19373 0
M  V30 2820 H 267.132 -5.48402 -4.00539 0
M  V30 2821 H 265.078 -3.72554 -5.39944 0
M  V30 2822 H 264.995 -5.44935 -5.24006 0
M  V30 2823 H 266.263 -4.73586 -6.19141 0
M  V30 2824 N 270.492 0.636531 -1.44174 0
M  V30 2825 C 271.741 1.39213 -1.45954 0
M  V30 2826 C 272.054 1.95374 -0.0939119 0
M  V30 2827 O 273.26 2.71498 0.0107767 0
M  V30 2828 C 271.716 2.52025 -2.56927 0
M  V30 2829 C 271.324 2.024 -3.99673 0
M  V30 2830 C 273.068 3.29269 -2.67922 0
M  V30 2831 C 270.975 3.12521 -5.0208 0
M  V30 2832 H 269.905 0.523132 -0.542999 0
M  V30 2833 H 272.556 0.685349 -1.70221 0
M  V30 2834 H 270.938 3.25253 -2.25891 0
M  V30 2835 H 272.112 1.36073 -4.40251 0
M  V30 2836 H 270.427 1.37987 -3.92872 0
M  V30 2837 H 273.024 4.11352 -3.41605 0
M  V30 2838 H 273.367 3.78397 -1.73555 0
M  V30 2839 H 273.9 2.63129 -2.98342 0
M  V30 2840 H 270.639 2.68343 -5.98057 0
M  V30 2841 H 270.159 3.77507 -4.66099 0
M  V30 2842 H 271.838 3.77385 -5.25538 0
M  V30 2843 N 271.97 1.30982 0.876444 0
M  V30 2844 C 273.218 1.20058 1.62575 0
M  V30 2845 C 273.539 -0.242947 1.93481 0
M  V30 2846 O 272.809 -1.1619 1.57724 0
M  V30 2847 H 271.389 0.44135 0.602677 0
M  V30 2848 H 274.051 1.64222 1.04962 0
M  V30 2849 H 273.147 1.76762 2.57219 0
M  V30 2850 N 273.449 -1.08991 1.13837 0
M  V30 2851 C 274.865 -1.33312 0.877506 0
M  V30 2852 C 275.065 -1.95587 -0.48456 0
M  V30 2853 O 274.121 -2.20509 -1.23013 0
M  V30 2854 C 275.434 -2.24045 2.0056 0
M  V30 2855 C 276.982 -2.37542 2.03821 0
M  V30 2856 C 277.457 -3.31614 3.15905 0
M  V30 2857 N 278.948 -3.39189 3.15445 0
M  V30 2858 C 279.683 -4.11992 3.98811 0
M  V30 2859 N 279.179 -4.87553 4.92203 0
M  V30 2860 N 280.972 -4.07762 3.86894 0
M  V30 2861 H 273.123 -0.669456 2.01574 0
M  V30 2862 H 275.386 -0.357482 0.878015 0
M  V30 2863 H 275.092 -1.85521 2.98789 0
M  V30 2864 H 274.966 -3.24466 1.92359 0
M  V30 2865 H 277.353 -2.75327 1.06202 0
M  V30 2866 H 277.434 -1.36884 2.16093 0
M  V30 2867 H 277.078 -2.94551 4.13766 0
M  V30 2868 H 277.008 -4.32186 3.0087 0
M  V30 2869 H 279.499 -2.85314 2.47799 0
M  V30 2870 H 279.812 -5.40549 5.52292 0
M  V30 2871 H 278.157 -4.86627 4.96205 0
M  V30 2872 H 281.348 -3.47833 3.13257 0
M  V30 2873 H 281.521 -4.64238 4.52092 0
M  V30 2874 N 274.927 -0.932562 -1.27047 0
M  V30 2875 C 276.155 -0.592031 -1.98249 0
M  V30 2876 C 276.57 0.831062 -1.69525 0
M  V30 2877 O 275.927 1.55299 -0.958561 0
M  V30 2878 C 275.978 -0.814279 -3.5221 0
M  V30 2879 O 275.699 -2.18139 -3.7993 0
M  V30 2880 C 277.2 -0.483121 -4.4066 0
M  V30 2881 H 274.42 -0.223896 -0.632544 0
M  V30 2882 H 276.964 -1.25091 -1.61779 0
M  V30 2883 H 275.119 -0.20213 -3.86872 0
M  V30 2884 H 275.533 -2.235 -4.74498 0
M  V30 2885 H 277.007 -0.689298 -5.47679 0
M  V30 2886 H 277.484 0.581546 -4.35333 0
M  V30 2887 H 278.09 -1.07362 -4.11526 0
M  V30 2888 N 276.405 1.4127 -0.698611 0
M  V30 2889 C 277.355 2.27997 -0.0119836 0
M  V30 2890 C 278.339 1.42363 0.749765 0
M  V30 2891 O 279.531 1.65607 0.624758 0
M  V30 2892 C 276.66 3.30702 0.921458 0
M  V30 2893 C 275.746 4.23814 0.155796 0
M  V30 2894 N 276.137 4.98572 -0.852015 0
M  V30 2895 C 274.435 4.44284 0.390836 0
M  V30 2896 C 275.136 5.66744 -1.3106 0
M  V30 2897 N 274.112 5.39867 -0.635944 0
M  V30 2898 H 277.914 2.83232 -0.784649 0
M  V30 2899 H 275.428 1.53518 -0.529711 0
M  V30 2900 H 277.425 3.91661 1.42854 0
M  V30 2901 H 276.085 2.77028 1.69369 0
M  V30 2902 H 277.096 5.03024 -1.23235 0
M  V30 2903 H 273.773 4.01614 1.14071 0
M  V30 2904 H 275.163 6.36672 -2.14707 0
M  V30 2905 N 277.883 0.443576 1.51229 0
M  V30 2906 C 278.813 -0.355142 2.30783 0
M  V30 2907 C 279.794 -1.0154 1.36468 0
M  V30 2908 O 280.979 -1.01785 1.65389 0
M  V30 2909 C 278.109 -1.45312 3.15439 0
M  V30 2910 C 277.063 -0.916002 4.18083 0
M  V30 2911 C 276.389 -2.1102 4.91299 0
M  V30 2912 C 277.689 0.0538602 5.22272 0
M  V30 2913 H 279.383 0.308767 2.97804 0
M  V30 2914 H 276.929 0.149937 1.43217 0
M  V30 2915 H 278.882 -2.01914 3.69876 0
M  V30 2916 H 277.606 -2.14541 2.46252 0
M  V30 2917 H 276.265 -0.372145 3.64706 0
M  V30 2918 H 275.913 -2.78882 4.18609 0
M  V30 2919 H 275.613 -1.75717 5.60712 0
M  V30 2920 H 277.137 -2.68164 5.48562 0
M  V30 2921 H 278.551 -0.422069 5.71744 0
M  V30 2922 H 276.948 0.319776 5.99247 0
M  V30 2923 H 278.018 0.98858 4.74716 0
M  V30 2924 N 279.361 -1.56624 0.175154 0
M  V30 2925 C 280.293 -2.15333 -0.785128 0
M  V30 2926 C 281.306 -1.1099 -1.19101 0
M  V30 2927 O 282.495 -1.38162 -1.13019 0
M  V30 2928 C 279.595 -2.68427 -2.06882 0
M  V30 2929 C 278.768 -3.97466 -1.8259 0
M  V30 2930 C 277.827 -4.35585 -2.95215 0
M  V30 2931 O 276.853 -5.03389 -2.65684 0
M  V30 2932 N 278.055 -3.97457 -4.23094 0
M  V30 2933 H 280.82 -2.98359 -0.283187 0
M  V30 2934 H 278.381 -1.61898 -0.00749817 0
M  V30 2935 H 280.373 -2.90924 -2.81328 0
M  V30 2936 H 278.943 -1.89968 -2.48256 0
M  V30 2937 H 278.163 -3.83307 -0.920287 0
M  V30 2938 H 279.451 -4.81736 -1.63733 0
M  V30 2939 H 278.849 -3.42878 -4.49945 0
M  V30 2940 H 277.406 -4.24947 -4.9423 0
M  V30 2941 N 280.839 0.0985539 -1.57292 0
M  V30 2942 C 282.116 0.834155 -1.76921 0
M  V30 2943 C 282.496 1.97101 -0.755928 0
M  V30 2944 O 281.844 2.27474 0.216245 0
M  V30 2945 C 282.054 1.33194 -3.22584 0
M  V30 2946 C 283.402 1.77611 -3.85668 0
M  V30 2947 O 284.426 1.42825 -3.26312 0
M  V30 2948 O 283.285 2.4192 -4.90038 0
M  V30 2949 H 280.379 0.397628 -0.725135 0
M  V30 2950 H 282.925 0.0807044 -1.69508 0
M  V30 2951 H 281.697 0.517248 -3.87866 0
M  V30 2952 H 281.32 2.1475 -3.34616 0
M  V30 2953 N 282.317 1.53212 0.369288 0
M  V30 2954 C 283.28 1.7872 1.43498 0
M  V30 2955 C 284.28 0.657554 1.46741 0
M  V30 2956 O 285.47 0.925736 1.47566 0
M  V30 2957 C 282.602 1.90591 2.82645 0
M  V30 2958 H 283.795 2.73894 1.22156 0
M  V30 2959 H 281.348 1.44233 0.602203 0
M  V30 2960 H 282.083 0.974709 3.09306 0
M  V30 2961 H 281.868 2.72751 2.8169 0
M  V30 2962 H 283.358 2.11931 3.59826 0
M  V30 2963 N 283.795 -0.628877 1.44509 0
M  V30 2964 C 285.023 -1.41554 1.50897 0
M  V30 2965 C 285.438 -1.8832 0.134564 0
M  V30 2966 O 284.795 -1.60969 -0.859965 0
M  V30 2967 C 284.846 -2.63435 2.47556 0
M  V30 2968 O 284.567 -2.18619 3.79654 0
M  V30 2969 C 286.068 -3.56537 2.63431 0
M  V30 2970 H 283.288 -0.434044 0.511709 0
M  V30 2971 H 285.832 -0.768895 1.89495 0
M  V30 2972 H 283.987 -3.24187 2.12089 0
M  V30 2973 H 284.401 -2.97652 4.31861 0
M  V30 2974 H 285.875 -4.38657 3.35088 0
M  V30 2975 H 286.352 -4.05493 1.68738 0
M  V30 2976 H 286.958 -3.01653 2.9981 0
M  V30 2977 N 285.273 -1.31445 -0.869486 0
M  V30 2978 C 286.684 -1.19042 -1.43826 0
M  V30 2979 C 287.035 0.202919 -1.95148 0
M  V30 2980 O 286.16 1.10071 -1.86315 0
M  V30 2981 C 286.755 -2.15499 -2.6143 0
M  V30 2982 C 285.314 -2.07028 -3.14351 0
M  V30 2983 C 284.461 -2.04701 -1.87063 0
M  V30 2984 H 287.412 -1.43489 -0.677984 0
M  V30 2985 H 287.433 -1.74488 -3.38134 0
M  V30 2986 H 286.945 -3.16899 -2.24046 0
M  V30 2987 H 285.046 -1.08825 -3.56354 0
M  V30 2988 H 285.159 -2.96157 -3.766 0
M  V30 2989 H 283.523 -1.49724 -2.06046 0
M  V30 2990 H 284.306 -3.07857 -1.51917 0
M  V30 2991 N 286.751 1.08385 -1.14413 0
M  V30 2992 C 287.681 2.17321 -0.854044 0
M  V30 2993 C 288.662 1.69024 0.191049 0
M  V30 2994 O 289.847 1.94141 0.0476779 0
M  V30 2995 C 286.977 3.45719 -0.330983 0
M  V30 2996 C 285.931 4.07409 -1.31155 0
M  V30 2997 C 285.257 5.30762 -0.64778 0
M  V30 2998 C 286.557 4.48665 -2.67388 0
M  V30 2999 H 288.251 2.41845 -1.76498 0
M  V30 3000 H 285.797 1.16233 -0.850051 0
M  V30 3001 H 287.75 4.21241 -0.115645 0
M  V30 3002 H 286.474 3.2075 0.615381 0
M  V30 3003 H 285.133 3.33919 -1.51306 0
M  V30 3004 H 284.781 5.02078 0.304398 0
M  V30 3005 H 284.481 5.72992 -1.30207 0
M  V30 3006 H 286.005 6.08998 -0.441972 0
M  V30 3007 H 287.419 5.15364 -2.51143 0
M  V30 3008 H 285.816 5.01814 -3.29093 0
M  V30 3009 H 286.886 3.60543 -3.24248 0
M  V30 3010 N 288.23 0.939286 1.26551 0
M  V30 3011 C 289.458 0.602536 1.97932 0
M  V30 3012 C 289.873 -0.82206 1.69964 0
M  V30 3013 O 289.23 -1.54789 0.966784 0
M  V30 3014 C 289.281 0.832946 3.51773 0
M  V30 3015 O 289.002 2.20151 3.78768 0
M  V30 3016 C 290.503 0.506483 4.40397 0
M  V30 3017 H 287.723 0.227248 0.631347 0
M  V30 3018 H 290.267 1.25948 1.61113 0
M  V30 3019 H 288.422 0.222644 3.8676 0
M  V30 3020 H 288.836 2.26013 4.73306 0
M  V30 3021 H 290.31 0.718333 5.47306 0
M  V30 3022 H 290.787 -0.558451 4.35635 0
M  V30 3023 H 291.393 1.09543 4.10951 0
M  V30 3024 N 289.708 -1.40897 0.706093 0
M  V30 3025 C 290.638 -2.33418 0.0620085 0
M  V30 3026 C 291.619 -1.52385 -0.755827 0
M  V30 3027 O 292.804 -1.80886 -0.706674 0
M  V30 3028 C 289.934 -3.36293 -0.867445 0
M  V30 3029 C 288.888 -4.27716 -0.155932 0
M  V30 3030 C 288.214 -5.2105 -1.20046 0
M  V30 3031 C 289.514 -5.12944 0.984149 0
M  V30 3032 H 291.208 -2.87527 0.83477 0
M  V30 3033 H 288.754 -1.38249 0.402875 0
M  V30 3034 H 290.707 -3.99949 -1.32735 0
M  V30 3035 H 289.431 -2.80556 -1.67199 0
M  V30 3036 H 288.09 -3.65498 0.284047 0
M  V30 3037 H 287.738 -4.61624 -1.99781 0
M  V30 3038 H 287.438 -5.83056 -0.729328 0
M  V30 3039 H 288.962 -5.87584 -1.66066 0
M  V30 3040 H 290.376 -5.70109 0.604048 0
M  V30 3041 H 288.773 -5.83945 1.38304 0
M  V30 3042 H 289.843 -4.49485 1.81911 0
M  V30 3043 N 291.186 -0.45159 -1.50991 0
M  V30 3044 C 292.434 0.109857 -2.01801 0
M  V30 3045 C 292.755 1.41958 -1.3369 0
M  V30 3046 O 292.025 1.9003 -0.475951 0
M  V30 3047 H 290.605 0.0435884 -0.745727 0
M  V30 3048 H 293.267 -0.597557 -1.85514 0
M  V30 3049 H 292.363 0.275489 -3.10882 0
M  V30 3050 N 292.664 1.56529 -0.183458 0
M  V30 3051 C 293.596 2.15747 0.773697 0
M  V30 3052 C 294.609 1.1162 1.1851 0
M  V30 3053 O 295.798 1.3876 1.12285 0
M  V30 3054 C 292.898 2.6952 2.05456 0
M  V30 3055 C 292.071 3.98429 1.8048 0
M  V30 3056 C 291.13 4.37145 2.92901 0
M  V30 3057 O 290.156 5.04791 2.6301 0
M  V30 3058 N 291.358 3.99695 4.2098 0
M  V30 3059 H 294.123 2.98505 0.26736 0
M  V30 3060 H 291.684 1.619 -0.0010878 0
M  V30 3061 H 293.676 2.92412 2.79781 0
M  V30 3062 H 292.246 1.91282 2.47245 0
M  V30 3063 H 291.466 3.8379 0.899947 0
M  V30 3064 H 292.754 4.82597 1.61175 0
M  V30 3065 H 292.152 3.4526 4.48121 0
M  V30 3066 H 290.709 4.27562 4.9197 0
M  V30 3067 N 294.142 -0.090211 1.57342 0
M  V30 3068 C 295.052 -1.12735 2.05738 0
M  V30 3069 C 296.068 -1.43557 0.983231 0
M  V30 3070 O 297.244 -1.54101 1.29672 0
M  V30 3071 C 294.309 -2.42659 2.47624 0
M  V30 3072 C 293.37 -2.18975 3.69254 0
M  V30 3073 C 292.603 -3.42704 4.09133 0
M  V30 3074 O 292.826 -4.51127 3.49057 0
M  V30 3075 O 291.76 -3.32003 5.02053 0
M  V30 3076 H 295.586 -0.746279 2.94388 0
M  V30 3077 H 293.171 -0.303064 1.46294 0
M  V30 3078 H 295.053 -3.19155 2.7517 0
M  V30 3079 H 293.728 -2.80182 1.62109 0
M  V30 3080 H 292.635 -1.40244 3.46818 0
M  V30 3081 H 293.968 -1.86342 4.55563 0
M  V30 3082 N 295.62 -1.53406 -0.361157 0
M  V30 3083 C 296.869 -1.69022 -1.10066 0
M  V30 3084 C 297.182 -0.450838 -1.90333 0
M  V30 3085 O 298.388 -0.487617 -2.67085 0
M  V30 3086 C 296.844 -2.98812 -2.00598 0
M  V30 3087 C 296.452 -4.30027 -1.25621 0
M  V30 3088 C 298.196 -3.23795 -2.74513 0
M  V30 3089 C 296.103 -5.50903 -2.1508 0
M  V30 3090 H 295.033 -0.629776 -0.414606 0
M  V30 3091 H 297.684 -1.79907 -0.361348 0
M  V30 3092 H 296.066 -2.8174 -2.78278 0
M  V30 3093 H 297.24 -4.57745 -0.529739 0
M  V30 3094 H 295.555 -4.11522 -0.635496 0
M  V30 3095 H 298.152 -4.11289 -3.41681 0
M  V30 3096 H 298.495 -2.40045 -3.40123 0
M  V30 3097 H 299.028 -3.41561 -2.03914 0
M  V30 3098 H 295.767 -6.37143 -1.54041 0
M  V30 3099 H 295.287 -5.27459 -2.85565 0
M  V30 3100 H 296.966 -5.85865 -2.74538 0
M  V30 3101 N 297.098 0.621204 -1.44841 0
M  V30 3102 C 298.323 1.41244 -1.51871 0
M  V30 3103 C 298.748 1.87519 -0.147764 0
M  V30 3104 O 298.106 1.59334 0.865 0
M  V30 3105 C 298.154 2.60221 -2.49634 0
M  V30 3106 O 297.258 3.60395 -2.00473 0
M  V30 3107 H 296.599 0.42223 -0.512463 0
M  V30 3108 H 299.129 0.757305 -1.90069 0
M  V30 3109 H 299.139 3.0764 -2.67996 0
M  V30 3110 H 297.814 2.25887 -3.4921 0
M  V30 3111 H 296.391 3.19717 -1.91925 0
M  V30 3112 N 298.576 1.31904 0.862503 0
M  V30 3113 C 299.824 1.21776 1.61292 0
M  V30 3114 C 300.145 -0.222413 1.93727 0
M  V30 3115 O 299.415 -1.1451 1.58947 0
M  V30 3116 H 297.995 0.447717 0.597962 0
M  V30 3117 H 300.657 1.65326 1.03215 0
M  V30 3118 H 299.753 1.7948 2.5533 0
M  V30 3119 N 300.054 -1.07777 1.14986 0
M  V30 3120 C 301.3 -1.80719 0.93339 0
M  V30 3121 C 301.655 -1.8484 -0.534019 0
M  V30 3122 O 300.948 -1.31795 -1.3907 0
M  V30 3123 C 301.142 -3.25495 1.47608 0
M  V30 3124 C 300.971 -3.3548 2.99472 0
M  V30 3125 C 299.741 -3.46293 3.6798 0
M  V30 3126 C 301.939 -3.26596 3.97291 0
M  V30 3127 N 299.921 -3.45136 5.07695 0
M  V30 3128 C 301.292 -3.32506 5.23297 0
M  V30 3129 C 303.347 -3.10376 3.89321 0
M  V30 3130 C 302.05 -3.23866 6.42264 0
M  V30 3131 C 304.076 -3.03069 5.07842 0
M  V30 3132 C 303.438 -3.09587 6.32721 0
M  V30 3133 H 299.537 -0.674814 0.395158 0
M  V30 3134 H 302.121 -1.28681 1.46114 0
M  V30 3135 H 300.292 -3.75963 0.975022 0
M  V30 3136 H 302.024 -3.86535 1.19887 0
M  V30 3137 H 298.779 -3.50456 3.18555 0
M  V30 3138 H 299.203 -3.48097 5.80653 0
M  V30 3139 H 303.845 -3.04194 2.93642 0
M  V30 3140 H 301.563 -3.28807 7.38181 0
M  V30 3141 H 305.149 -2.91629 5.03432 0
M  V30 3142 H 304.029 -3.0397 7.22891 0
M  V30 3143 N 301.532 -0.945985 -1.26051 0
M  V30 3144 C 302.778 -0.597002 -1.93814 0
M  V30 3145 C 303.111 0.862484 -1.73997 0
M  V30 3146 O 302.386 1.61769 -1.07986 0
M  V30 3147 C 302.669 -0.945937 -3.47454 0
M  V30 3148 C 302.522 -2.46052 -3.76535 0
M  V30 3149 C 303.841 -0.464785 -4.37639 0
M  V30 3150 H 300.96 -0.218366 -0.703907 0
M  V30 3151 H 303.602 -1.18107 -1.48831 0
M  V30 3152 H 301.752 -0.448902 -3.85898 0
M  V30 3153 H 303.424 -3.03065 -3.47778 0
M  V30 3154 H 301.667 -2.90194 -3.22444 0
M  V30 3155 H 302.338 -2.65517 -4.83947 0
M  V30 3156 H 304.814 -0.891016 -4.06448 0
M  V30 3157 H 303.69 -0.737712 -5.4392 0
M  V30 3158 H 303.951 0.635274 -4.37512 0
M  V30 3159 N 303.011 1.40521 -0.713556 0
M  V30 3160 C 303.974 2.29098 -0.0684347 0
M  V30 3161 C 304.974 1.45268 0.689472 0
M  V30 3162 O 306.164 1.66205 0.521677 0
M  V30 3163 C 303.296 3.28446 0.913024 0
M  V30 3164 H 304.489 2.87645 -0.84855 0
M  V30 3165 H 302.042 1.48809 -0.47809 0
M  V30 3166 H 302.777 2.74913 1.72027 0
M  V30 3167 H 302.562 3.90327 0.372472 0
M  V30 3168 H 304.052 3.94777 1.36165 0
M  V30 3169 N 304.489 0.459591 1.5075 0
M  V30 3170 C 305.422 -0.386257 2.24907 0
M  V30 3171 C 306.4 -1.006 1.27744 0
M  V30 3172 O 307.584 -1.04416 1.56938 0
M  V30 3173 C 304.711 -1.54021 3.01654 0
M  V30 3174 C 303.757 -1.03898 4.13651 0
M  V30 3175 S 304.59 0.0370501 5.35487 0
M  V30 3176 C 305.746 -1.12105 6.15779 0
M  V30 3177 H 305.979 0.243272 2.96303 0
M  V30 3178 H 303.512 0.244339 1.52454 0
M  V30 3179 H 305.47 -2.20163 3.46466 0
M  V30 3180 H 304.131 -2.14121 2.29806 0
M  V30 3181 H 303.324 -1.90254 4.66711 0
M  V30 3182 H 302.926 -0.45545 3.71216 0
M  V30 3183 H 305.218 -2.03501 6.46215 0
M  V30 3184 H 306.161 -0.62995 7.05292 0
M  V30 3185 H 306.569 -1.36967 5.47631 0
M  V30 3186 N 305.967 -1.56429 0.191757 0
M  V30 3187 C 306.897 -2.21937 -0.725696 0
M  V30 3188 C 307.878 -1.1814 -1.2238 0
M  V30 3189 O 309.063 -1.46636 -1.27325 0
M  V30 3190 C 306.193 -2.87611 -1.94672 0
M  V30 3191 C 305.147 -3.97623 -1.58366 0
M  V30 3192 C 304.473 -4.50446 -2.88102 0
M  V30 3193 C 305.773 -5.16197 -0.796133 0
M  V30 3194 H 307.467 -2.98861 -0.179606 0
M  V30 3195 H 305.013 -1.43749 -0.0849464 0
M  V30 3196 H 306.966 -3.3212 -2.59373 0
M  V30 3197 H 305.69 -2.08087 -2.51728 0
M  V30 3198 H 304.349 -3.53801 -0.960247 0
M  V30 3199 H 303.997 -3.67688 -3.43241 0
M  V30 3200 H 303.697 -5.24675 -2.64556 0
M  V30 3201 H 305.221 -4.97654 -3.53798 0
M  V30 3202 H 306.635 -5.57271 -1.34618 0
M  V30 3203 H 305.032 -5.96471 -0.658928 0
M  V30 3204 H 306.102 -4.84473 0.203478 0
M  V30 3205 N 307.445 0.0818655 -1.57387 0
M  V30 3206 C 308.355 1.11642 -2.06333 0
M  V30 3207 C 309.371 1.43033 -0.99083 0
M  V30 3208 O 310.547 1.53411 -1.30488 0
M  V30 3209 C 307.612 2.41342 -2.48907 0
M  V30 3210 C 306.673 2.17014 -3.7041 0
M  V30 3211 C 305.906 3.4053 -4.10944 0
M  V30 3212 O 306.129 4.4927 -3.51444 0
M  V30 3213 O 305.063 3.29336 -5.03807 0
M  V30 3214 H 308.889 0.730657 -2.9478 0
M  V30 3215 H 306.474 0.295301 -1.46452 0
M  V30 3216 H 308.356 3.17691 -2.76858 0
M  V30 3217 H 307.031 2.79319 -1.63593 0
M  V30 3218 H 305.938 1.38403 -3.47556 0
M  V30 3219 H 307.271 1.83923 -4.56545 0
M  V30 3220 N 308.923 1.53595 0.353017 0
M  V30 3221 C 309.873 1.77299 1.43349 0
M  V30 3222 C 310.857 0.627884 1.48143 0
M  V30 3223 O 312.049 0.88697 1.53173 0
M  V30 3224 C 309.178 1.97757 2.80619 0
M  V30 3225 C 308.264 3.18305 2.80254 0
M  V30 3226 N 308.655 4.39967 2.49526 0
M  V30 3227 C 306.953 3.19283 3.11407 0
M  V30 3228 C 307.654 5.21772 2.57156 0
M  V30 3229 N 306.63 4.58269 2.92388 0
M  V30 3230 H 310.432 2.68963 1.18474 0
M  V30 3231 H 307.946 1.52391 0.561306 0
M  V30 3232 H 309.943 2.1287 3.58458 0
M  V30 3233 H 308.603 1.07329 3.06448 0
M  V30 3234 H 309.614 4.67482 2.22893 0
M  V30 3235 H 306.291 2.3879 3.4247 0
M  V30 3236 H 307.681 6.2885 2.36638 0
M  V30 3237 N 310.401 -0.613514 1.45168 0
M  V30 3238 C 311.349 -1.74572 1.53712 0
M  V30 3239 C 312.343 -1.64426 0.407505 0
M  V30 3240 O 313.549 -1.70291 0.583176 0
M  V30 3241 H 309.924 -0.576641 0.48269 0
M  V30 3242 H 311.895 -1.64492 2.48968 0
M  V30 3243 C 310.644 -3.12943 1.51532 0
M  V30 3244 H 309.967 -3.21407 2.37776 0
M  V30 3245 H 311.407 -3.9201 1.61569 0
M  V30 3246 C 309.866 -3.36053 0.238798 0
M  V30 3247 O 310.396 -3.95837 -0.6838 0
M  V30 3248 N 308.602 -2.9028 0.136359 0
M  V30 3249 H 308.149 -2.41811 0.887999 0
M  V30 3250 H 308.107 -3.06116 -0.716944 0
M  V30 3251 N 311.879 -1.3236 -0.855495 0
M  V30 3252 C 312.809 -1.23833 -1.97958 0
M  V30 3253 C 313.79 -0.122361 -1.69659 0
M  V30 3254 O 314.975 -0.30939 -1.9172 0
M  V30 3255 C 312.105 -0.959772 -3.33775 0
M  V30 3256 C 311.059 -2.03689 -3.76424 0
M  V30 3257 C 310.385 -1.61075 -5.09862 0
M  V30 3258 C 311.685 -3.4518 -3.9198 0
M  V30 3259 H 313.379 -2.1788 -2.0535 0
M  V30 3260 H 310.925 -1.04891 -0.986605 0
M  V30 3261 H 312.878 -0.886678 -4.11966 0
M  V30 3262 H 311.602 0.0163404 -3.26596 0
M  V30 3263 H 310.261 -2.10012 -3.00484 0
M  V30 3264 H 309.909 -0.622107 -4.99138 0
M  V30 3265 H 309.609 -2.33143 -5.39368 0
M  V30 3266 H 311.133 -1.55201 -5.90546 0
M  V30 3267 H 312.547 -3.4145 -4.60526 0
M  V30 3268 H 310.944 -4.1559 -4.32903 0
M  V30 3269 H 312.014 -3.84903 -2.94919 0
M  V30 3270 N 313.357 1.07166 -1.15556 0
M  V30 3271 C 314.304 2.14417 -0.854055 0
M  V30 3272 C 315.274 1.64965 0.193806 0
M  V30 3273 O 316.459 1.90703 0.0609443 0
M  V30 3274 C 313.599 3.43304 -0.351574 0
M  V30 3275 C 312.712 4.06537 -1.46123 0
M  V30 3276 C 311.847 5.23266 -0.914677 0
M  V30 3277 C 310.886 5.78464 -2.00114 0
M  V30 3278 N 310.023 6.86521 -1.47083 0
M  V30 3279 H 314.863 2.39548 -1.77259 0
M  V30 3280 H 312.4 1.17543 -0.884425 0
M  V30 3281 H 314.358 4.17179 -0.0419409 0
M  V30 3282 H 312.988 3.18419 0.530037 0
M  V30 3283 H 312.04 3.30297 -1.88701 0
M  V30 3284 H 313.352 4.43567 -2.28144 0
M  V30 3285 H 312.506 6.04131 -0.557698 0
M  V30 3286 H 311.245 4.87658 -0.0636583 0
M  V30 3287 H 310.25 4.96243 -2.36692 0
M  V30 3288 H 311.475 6.16126 -2.85597 0
M  V30 3289 H 309.421 6.52849 -0.642198 0
M  V30 3290 H 309.338 7.22446 -2.22729 0
M  V30 3291 H 310.606 7.71087 -1.14215 0
M  V30 3292 N 314.835 0.952656 1.25548 0
M  V30 3293 C 315.785 0.442033 2.23674 0
M  V30 3294 C 316.769 -0.467632 1.53955 0
M  V30 3295 O 317.961 -0.301006 1.74422 0
M  V30 3296 C 315.09 -0.280816 3.4215 0
M  V30 3297 C 314.176 0.646803 4.19139 0
M  V30 3298 N 314.567 1.77759 4.73535 0
M  V30 3299 C 312.865 0.454617 4.43677 0
M  V30 3300 C 313.566 2.35658 5.31827 0
M  V30 3301 N 312.542 1.64333 5.18166 0
M  V30 3302 H 316.344 1.30505 2.63336 0
M  V30 3303 H 313.858 0.809904 1.40763 0
M  V30 3304 H 315.855 -0.663747 4.11582 0
M  V30 3305 H 314.515 -1.14046 3.04012 0
M  V30 3306 H 315.526 2.15949 4.7073 0
M  V30 3307 H 312.203 -0.362312 4.15925 0
M  V30 3308 H 313.593 3.30998 5.84713 0
M  V30 3309 N 316.313 -1.40141 0.720998 0
M  V30 3310 C 317.562 -2.0002 0.259804 0
M  V30 3311 C 317.875 -1.57839 -1.15526 0
M  V30 3312 O 319.081 -2.10455 -1.71525 0
M  V30 3313 C 317.537 -3.57516 0.413566 0
M  V30 3314 C 317.145 -4.08667 1.83562 0
M  V30 3315 C 318.889 -4.24498 0.0134387 0
M  V30 3316 C 316.796 -5.58686 1.93968 0
M  V30 3317 H 315.726 -0.748195 0.0933806 0
M  V30 3318 H 318.377 -1.60313 0.892866 0
M  V30 3319 H 316.759 -3.9495 -0.288169 0
M  V30 3320 H 317.933 -3.82598 2.56817 0
M  V30 3321 H 316.248 -3.543 2.1877 0
M  V30 3322 H 318.845 -5.34654 0.0703954 0
M  V30 3323 H 319.188 -4.03375 -1.02927 0
M  V30 3324 H 319.721 -3.92188 0.665815 0
M  V30 3325 H 316.46 -5.8467 2.96379 0
M  V30 3326 H 315.98 -5.86602 1.25131 0
M  V30 3327 H 317.659 -6.23875 1.71431 0
M  V30 3328 N 317.792 -0.46758 -1.50504 0
M  V30 3329 C 318.702 0.33382 -2.32213 0
M  V30 3330 C 319.718 0.999323 -1.42441 0
M  V30 3331 O 320.894 0.988068 -1.75497 0
M  V30 3332 C 317.959 1.4035 -3.17022 0
M  V30 3333 C 317.02 0.754961 -4.2261 0
M  V30 3334 C 316.253 1.77367 -5.03365 0
M  V30 3335 O 316.476 2.99976 -4.8515 0
M  V30 3336 O 315.41 1.34744 -5.86624 0
M  V30 3337 H 319.236 -0.334067 -3.01857 0
M  V30 3338 H 316.821 -0.229496 -1.47627 0
M  V30 3339 H 318.703 2.02318 -3.69656 0
M  V30 3340 H 317.378 2.05492 -2.5011 0
M  V30 3341 H 316.285 0.0964244 -3.73976 0
M  V30 3342 H 317.618 0.146545 -4.91982 0
M  V30 3343 N 319.27 1.56325 -0.20005 0
M  V30 3344 C 320.5 2.01811 0.442232 0
M  V30 3345 C 320.908 1.07932 1.55394 0
M  V30 3346 O 320.251 0.0772685 1.83537 0
M  V30 3347 C 320.313 3.43685 1.05457 0
M  V30 3348 C 319.977 4.56928 0.0809833 0
M  V30 3349 C 320.974 5.15009 -0.711471 0
M  V30 3350 C 318.659 5.0229 -0.0315364 0
M  V30 3351 C 320.653 6.16904 -1.60336 0
M  V30 3352 C 318.34 6.04028 -0.926981 0
M  V30 3353 C 319.338 6.6121 -1.71146 0
M  V30 3354 O 319.026 7.60971 -2.59189 0
M  V30 3355 H 318.758 0.666173 0.114848 0
M  V30 3356 H 321.312 2.03085 -0.307511 0
M  V30 3357 H 319.542 3.39413 1.85299 0
M  V30 3358 H 321.231 3.72948 1.60201 0
M  V30 3359 H 321.997 4.80827 -0.634873 0
M  V30 3360 H 317.876 4.57476 0.568902 0
M  V30 3361 H 321.42 6.61464 -2.21611 0
M  V30 3362 H 317.317 6.37634 -1.00468 0
M  V30 3363 H 318.085 7.7841 -2.53023 0
M  V30 3364 N 320.748 -0.0735177 1.57428 0
M  V30 3365 C 321.973 -0.789787 1.91774 0
M  V30 3366 C 322.398 -1.70413 0.796306 0
M  V30 3367 O 321.756 -1.79555 -0.250961 0
M  V30 3368 C 321.804 -1.5609 3.25067 0
M  V30 3369 O 320.908 -2.67144 3.14178 0
M  V30 3370 H 320.249 -0.215582 0.628029 0
M  V30 3371 H 322.779 -0.0422781 2.04556 0
M  V30 3372 H 322.789 -1.94052 3.58898 0
M  V30 3373 H 321.464 -0.890015 4.06265 0
M  V30 3374 H 320.041 -2.32052 2.91901 0
M  V30 3375 N 322.226 -1.5378 -0.344866 0
M  V30 3376 C 323.156 -1.84662 -1.42906 0
M  V30 3377 C 324.137 -0.701648 -1.54955 0
M  V30 3378 O 325.322 -0.953438 -1.69184 0
M  V30 3379 C 322.452 -2.05503 -2.79974 0
M  V30 3380 C 321.406 -3.21318 -2.82734 0
M  V30 3381 C 320.732 -3.2749 -4.22675 0
M  V30 3382 C 322.032 -4.59456 -2.48389 0
M  V30 3383 H 323.726 -2.75461 -1.17311 0
M  V30 3384 H 321.272 -1.32542 -0.562896 0
M  V30 3385 H 323.225 -2.25691 -3.55867 0
M  V30 3386 H 321.949 -1.11434 -3.07002 0
M  V30 3387 H 320.608 -3.00984 -2.09294 0
M  V30 3388 H 320.256 -2.31019 -4.4681 0
M  V30 3389 H 319.956 -4.05316 -4.25433 0
M  V30 3390 H 321.48 -3.49887 -5.00412 0
M  V30 3391 H 322.894 -4.79667 -3.13995 0
M  V30 3392 H 321.291 -5.39675 -2.62432 0
M  V30 3393 H 322.361 -4.63155 -1.4358 0
M  V30 3394 N 323.704 0.605807 -1.45491 0
M  V30 3395 C 325.115 1.18777 -1.44045 0
M  V30 3396 C 325.466 1.95471 -0.169001 0
M  V30 3397 O 324.591 2.0374 0.729324 0
M  V30 3398 C 325.186 2.16064 -2.60963 0
M  V30 3399 C 323.745 2.69633 -2.62631 0
M  V30 3400 C 322.892 1.45072 -2.36325 0
M  V30 3401 H 325.843 0.395017 -1.53705 0
M  V30 3402 H 325.864 2.9913 -2.35163 0
M  V30 3403 H 325.376 1.60217 -3.53486 0
M  V30 3404 H 323.477 3.29414 -1.74119 0
M  V30 3405 H 323.59 3.13944 -3.61906 0
M  V30 3406 H 321.954 1.74089 -1.85917 0
M  V30 3407 H 322.737 0.910899 -3.30995 0
M  V30 3408 N 325.182 1.32811 0.848464 0
M  V30 3409 C 326.132 1.18842 1.94578 0
M  V30 3410 C 327.116 0.0937517 1.60627 0
M  V30 3411 O 328.308 0.320887 1.74067 0
M  V30 3412 C 325.437 0.91999 3.30743 0
M  V30 3413 C 324.523 2.05665 3.70894 0
M  V30 3414 N 324.914 3.30579 3.8282 0
M  V30 3415 C 323.212 1.9612 4.00566 0
M  V30 3416 C 323.913 4.05067 4.17487 0
M  V30 3417 N 322.889 3.33419 4.2934 0
M  V30 3418 H 326.691 2.13536 2.0194 0
M  V30 3419 H 324.205 1.2468 1.0406 0
M  V30 3420 H 326.202 0.800859 4.09136 0
M  V30 3421 H 324.862 -0.0185076 3.24695 0
M  V30 3422 H 325.873 3.65441 3.66978 0
M  V30 3423 H 322.55 1.09871 4.02784 0
M  V30 3424 H 323.94 5.12815 4.34131 0
M  V30 3425 N 326.66 -1.06551 1.16123 0
M  V30 3426 C 327.906 -1.79567 0.94252 0
M  V30 3427 C 328.239 -1.86869 -0.528547 0
M  V30 3428 O 327.514 -1.35838 -1.39206 0
M  V30 3429 C 327.797 -3.24195 1.56747 0
M  V30 3430 C 327.65 -3.24989 3.10969 0
M  V30 3431 C 328.969 -4.21678 1.25998 0
M  V30 3432 H 326.088 -0.651883 0.343828 0
M  V30 3433 H 328.73 -1.2463 1.43413 0
M  V30 3434 H 326.88 -3.71107 1.14942 0
M  V30 3435 H 328.552 -2.86258 3.61737 0
M  V30 3436 H 326.795 -2.63716 3.44436 0
M  V30 3437 H 327.466 -4.27005 3.49815 0
M  V30 3438 H 329.942 -3.83196 1.62174 0
M  V30 3439 H 328.818 -5.21146 1.7233 0
M  V30 3440 H 329.079 -4.4174 0.178367 0
M  V30 3441 N 328.138 -0.959301 -1.25041 0
M  V30 3442 C 329.101 -0.487677 -2.23952 0
M  V30 3443 C 330.101 0.41119 -1.55454 0
M  V30 3444 O 331.291 0.207825 -1.72956 0
M  V30 3445 C 328.423 0.294807 -3.39623 0
M  V30 3446 H 329.616 -1.36198 -2.67189 0
M  V30 3447 H 327.169 -0.743042 -1.37508 0
M  V30 3448 H 327.904 1.18658 -3.01813 0
M  V30 3449 H 327.689 -0.35012 -3.90534 0
M  V30 3450 H 329.179 0.614089 -4.1306 0
M  V30 3451 N 329.616 1.39756 -0.72842 0
M  V30 3452 C 330.526 2.34444 -0.0855374 0
M  V30 3453 C 331.542 1.57976 0.729356 0
M  V30 3454 O 332.718 1.90301 0.659346 0
M  V30 3455 C 329.783 3.36965 0.815798 0
M  V30 3456 C 328.844 4.29299 -0.0105996 0
M  V30 3457 C 328.077 5.26923 0.84781 0
M  V30 3458 O 328.3 5.30859 2.08673 0
M  V30 3459 O 327.234 6.01249 0.279969 0
M  V30 3460 H 331.06 2.91065 -0.866892 0
M  V30 3461 H 328.645 1.4117 -0.48902 0
M  V30 3462 H 330.527 3.99804 1.33171 0
M  V30 3463 H 329.202 2.82739 1.57608 0
M  V30 3464 H 328.109 3.69703 -0.571877 0
M  V30 3465 H 329.442 4.86712 -0.73295 0
M  V30 3466 N 331.094 0.475555 1.50254 0
M  V30 3467 C 332.024 -0.30611 2.31485 0
M  V30 3468 C 333.005 -0.986228 1.38591 0
M  V30 3469 O 334.19 -0.982541 1.67511 0
M  V30 3470 C 331.32 -1.38588 3.1845 0
M  V30 3471 C 330.274 -0.827115 4.19932 0
M  V30 3472 C 329.6 -2.00551 4.95665 0
M  V30 3473 C 330.9 0.16463 5.2204 0
M  V30 3474 H 332.594 0.371866 2.97082 0
M  V30 3475 H 330.14 0.180282 1.42867 0
M  V30 3476 H 332.093 -1.94023 3.74076 0
M  V30 3477 H 330.817 -2.09269 2.50747 0
M  V30 3478 H 329.476 -0.294702 3.65414 0
M  V30 3479 H 329.124 -2.6994 4.2443 0
M  V30 3480 H 328.824 -1.63784 5.64313 0
M  V30 3481 H 330.348 -2.56468 5.54127 0
M  V30 3482 H 331.762 -0.300699 5.72511 0
M  V30 3483 H 330.159 0.446813 5.98434 0
M  V30 3484 H 331.229 1.08905 4.72512 0
M  V30 3485 N 332.573 -1.56217 0.208337 0
M  V30 3486 C 333.536 -2.18455 -0.693557 0
M  V30 3487 C 334.536 -1.14268 -1.13135 0
M  V30 3488 O 335.726 -1.39577 -1.0423 0
M  V30 3489 C 332.858 -2.79727 -1.94848 0
M  V30 3490 H 334.051 -2.99519 -0.15114 0
M  V30 3491 H 331.604 -1.56245 -0.041287 0
M  V30 3492 H 332.339 -2.02497 -2.53309 0
M  V30 3493 H 332.124 -3.56009 -1.64316 0
M  V30 3494 H 333.614 -3.27475 -2.59133 0
M  V30 3495 N 334.051 0.0651679 -1.57465 0
M  V30 3496 C 334.981 1.07693 -2.07182 0
M  V30 3497 C 335.962 1.39962 -0.966673 0
M  V30 3498 O 337.147 1.49475 -1.2398 0
M  V30 3499 C 334.277 2.3885 -2.52127 0
M  V30 3500 C 333.231 2.20917 -3.66579 0
M  V30 3501 C 332.557 3.57515 -3.97601 0
M  V30 3502 C 333.857 1.62493 -4.9638 0
M  V30 3503 H 335.551 0.663199 -2.91962 0
M  V30 3504 H 333.097 0.317569 -1.40455 0
M  V30 3505 H 335.05 3.09928 -2.85522 0
M  V30 3506 H 333.774 2.82215 -1.64384 0
M  V30 3507 H 332.433 1.52279 -3.33477 0
M  V30 3508 H 332.081 3.98463 -3.06979 0
M  V30 3509 H 331.781 3.46353 -4.74672 0
M  V30 3510 H 333.305 4.30013 -4.33499 0
M  V30 3511 H 334.719 2.23445 -5.27963 0
M  V30 3512 H 333.116 1.62009 -5.77818 0
M  V30 3513 H 334.186 0.587041 -4.81333 0
M  V30 3514 N 335.529 1.53961 0.336706 0
M  V30 3515 C 336.777 1.71197 1.07405 0
M  V30 3516 C 337.098 0.481475 1.88962 0
M  V30 3517 O 336.368 -0.504585 1.8929 0
M  V30 3518 H 334.948 0.631185 0.399517 0
M  V30 3519 H 337.61 1.91232 0.376323 0
M  V30 3520 H 336.706 2.58587 1.74755 0
M  V30 3521 N 337.007 -0.598083 1.45811 0
M  V30 3522 C 338.255 -1.35413 1.50026 0
M  V30 3523 C 338.576 -1.94444 0.147177 0
M  V30 3524 O 337.846 -1.77701 -0.824571 0
M  V30 3525 H 336.426 -0.502727 0.552517 0
M  V30 3526 H 339.088 -0.701606 1.81834 0
M  V30 3527 H 338.184 -2.16871 2.2444 0
M  V30 3528 N 338.485 -1.33259 -0.841409 0
M  V30 3529 C 339.713 -1.27605 -1.62864 0
M  V30 3530 C 340.128 0.153507 -1.88175 0
M  V30 3531 O 339.485 1.09485 -1.46011 0
M  V30 3532 C 339.536 -2.04596 -2.98031 0
M  V30 3533 O 339.257 -3.41975 -2.73834 0
M  V30 3534 C 340.758 -2.06122 -3.92465 0
M  V30 3535 H 337.978 -0.439718 -0.506842 0
M  V30 3536 H 340.522 -1.75591 -1.04824 0
M  V30 3537 H 338.677 -1.60299 -3.5268 0
M  V30 3538 H 339.091 -3.81549 -3.59889 0
M  V30 3539 H 340.565 -2.64451 -4.84531 0
M  V30 3540 H 341.042 -1.05083 -4.26444 0
M  V30 3541 H 341.648 -2.50427 -3.43753 0
M  V30 3542 N 339.963 1.05934 -1.16686 0
M  V30 3543 C 340.926 2.11669 -0.879144 0
M  V30 3544 C 341.926 1.60294 0.127445 0
M  V30 3545 O 343.116 1.7389 -0.103865 0
M  V30 3546 C 340.248 3.39438 -0.315425 0
M  V30 3547 H 341.441 2.38626 -1.81653 0
M  V30 3548 H 338.994 1.22058 -0.976299 0
M  V30 3549 H 339.729 3.18132 0.629468 0
M  V30 3550 H 339.514 3.78034 -1.04079 0
M  V30 3551 H 341.004 4.17391 -0.132189 0
M  V30 3552 N 341.441 0.965919 1.2453 0
M  V30 3553 C 342.687 0.62776 1.92839 0
M  V30 3554 C 343.02 -0.834694 1.75347 0
M  V30 3555 O 342.295 -1.60031 1.10546 0
M  V30 3556 C 342.578 1.00109 3.45905 0
M  V30 3557 C 342.431 2.52011 3.72573 0
M  V30 3558 C 343.75 0.53435 4.36844 0
M  V30 3559 H 340.869 0.229537 0.700344 0
M  V30 3560 H 343.511 1.2046 1.46933 0
M  V30 3561 H 341.661 0.510238 3.85135 0
M  V30 3562 H 343.333 3.08559 3.42912 0
M  V30 3563 H 341.576 2.95287 3.17786 0
M  V30 3564 H 342.247 2.73183 4.79661 0
M  V30 3565 H 344.723 0.955565 4.04979 0
M  V30 3566 H 343.599 0.824152 5.42678 0
M  V30 3567 H 343.86 -0.565589 4.38467 0
M  V30 3568 N 342.919 -1.39368 0.735821 0
M  V30 3569 C 344.167 -2.00101 0.283562 0
M  V30 3570 C 344.488 -1.5868 -1.13338 0
M  V30 3571 O 343.758 -0.835423 -1.77193 0
M  V30 3572 H 342.338 -0.740024 0.101851 0
M  V30 3573 H 345 -1.70404 0.945962 0
M  V30 3574 H 344.096 -3.10323 0.332604 0
M  V30 3575 N 344.397 -0.483516 -1.5 0
M  V30 3576 C 345.625 0.0644831 -2.06799 0
M  V30 3577 C 346.04 1.32399 -1.34596 0
M  V30 3578 O 345.397 1.77626 -0.418946 0
M  V30 3579 C 345.448 0.339927 -3.59898 0
M  V30 3580 O 345.169 -0.869635 -4.29382 0
M  V30 3581 C 346.67 0.933515 -4.33359 0
M  V30 3582 H 343.89 -0.0126333 -0.670881 0
M  V30 3583 H 346.434 -0.675864 -1.93009 0
M  V30 3584 H 344.589 1.03022 -3.7345 0
M  V30 3585 H 345.003 -0.62179 -5.20801 0
M  V30 3586 H 346.477 1.07593 -5.41413 0
M  V30 3587 H 346.954 1.92685 -3.94676 0
M  V30 3588 H 347.56 0.281221 -4.24369 0
M  V30 3589 N 345.875 1.56104 -0.216619 0
M  V30 3590 C 347.123 1.97781 0.415593 0
M  V30 3591 C 347.444 1.10536 1.60645 0
M  V30 3592 O 346.714 0.181303 1.95059 0
M  V30 3593 H 345.294 0.730415 0.156534 0
M  V30 3594 H 347.956 1.92445 -0.308366 0
M  V30 3595 H 347.052 3.03072 0.74525 0
M  V30 3596 N 347.353 -0.0568162 1.57498 0
M  V30 3597 C 348.283 -1.06593 2.0775 0
M  V30 3598 C 349.264 -1.39448 0.974082 0
M  V30 3599 O 350.449 -1.48815 1.24771 0
M  V30 3600 C 347.579 -2.37509 2.5339 0
M  V30 3601 C 346.533 -2.1897 3.67745 0
M  V30 3602 C 345.859 -3.55402 3.99492 0
M  V30 3603 C 347.159 -1.59859 4.97235 0
M  V30 3604 H 348.853 -0.647706 2.9231 0
M  V30 3605 H 346.399 -0.310116 1.40621 0
M  V30 3606 H 348.352 -3.08409 2.87162 0
M  V30 3607 H 347.076 -2.8134 1.65878 0
M  V30 3608 H 345.735 -1.50508 3.3428 0
M  V30 3609 H 345.383 -3.9683 3.09088 0
M  V30 3610 H 345.083 -3.43831 4.76502 0
M  V30 3611 H 346.607 -4.27708 4.35773 0
M  V30 3612 H 348.021 -2.20642 5.29141 0
M  V30 3613 H 346.418 -1.58942 5.78669 0
M  V30 3614 H 347.488 -0.561506 4.81638 0
M  V30 3615 N 348.832 -1.54138 -0.328536 0
M  V30 3616 C 349.78 -1.83894 -1.42428 0
M  V30 3617 C 350.774 -0.710478 -1.53781 0
M  V30 3618 O 351.98 -0.894062 -1.56226 0
M  V30 3619 H 348.355 -0.582837 -0.475189 0
M  V30 3620 H 350.326 -2.75537 -1.14552 0
M  V30 3621 C 349.075 -2.07866 -2.78724 0
M  V30 3622 H 348.398 -2.94158 -2.7076 0
M  V30 3623 H 349.838 -2.32644 -3.54476 0
M  V30 3624 C 348.297 -0.868689 -3.25508 0
M  V30 3625 O 348.827 -0.0754908 -4.01629 0
M  V30 3626 N 347.033 -0.681711 -2.82491 0
M  V30 3627 H 346.58 -1.32838 -2.20708 0
M  V30 3628 H 346.538 0.126374 -3.14146 0
M  V30 3629 N 350.31 0.590341 -1.46126 0
M  V30 3630 C 351.538 1.37504 -1.54597 0
M  V30 3631 C 351.953 1.87897 -0.184447 0
M  V30 3632 O 351.31 1.63192 0.816984 0
M  V30 3633 C 351.361 2.56779 -2.54454 0
M  V30 3634 O 351.082 2.08476 -3.85317 0
M  V30 3635 C 352.583 3.49427 -2.72792 0
M  V30 3636 H 349.803 0.420325 -0.523037 0
M  V30 3637 H 352.347 0.718383 -1.91467 0
M  V30 3638 H 350.502 3.1845 -2.20609 0
M  V30 3639 H 350.916 2.86097 -4.396 0
M  V30 3640 H 352.39 4.29619 -3.466 0
M  V30 3641 H 352.867 4.00876 -1.79429 0
M  V30 3642 H 353.473 2.93598 -3.07702 0
M  V30 3643 N 351.788 1.33704 0.83433 0
M  V30 3644 C 352.738 1.20899 1.93306 0
M  V30 3645 C 353.722 0.110783 1.60518 0
M  V30 3646 O 354.914 0.339331 1.73717 0
M  V30 3647 C 352.043 0.955018 3.29749 0
M  V30 3648 C 351.129 2.09587 3.68692 0
M  V30 3649 N 351.52 3.34621 3.79292 0
M  V30 3650 C 349.818 2.00358 3.98463 0
M  V30 3651 C 350.519 4.09472 4.13167 0
M  V30 3652 N 349.495 3.37954 4.25779 0
M  V30 3653 H 353.297 2.15665 1.99664 0
M  V30 3654 H 350.811 1.25777 1.02732 0
M  V30 3655 H 352.808 0.844208 4.08263 0
M  V30 3656 H 351.468 0.0159317 3.24696 0
M  V30 3657 H 352.479 3.69313 3.63082 0
M  V30 3658 H 349.156 1.14137 4.01596 0
M  V30 3659 H 350.546 5.17391 4.28668 0
M  V30 3660 N 353.266 -1.05314 1.17247 0
M  V30 3661 C 354.677 -1.59753 0.96623 0
M  V30 3662 C 355.028 -1.9005 -0.487378 0
M  V30 3663 O 354.153 -1.68126 -1.36245 0
M  V30 3664 C 354.748 -2.90249 1.74759 0
M  V30 3665 C 353.307 -3.41352 1.58606 0
M  V30 3666 C 352.454 -2.15103 1.75002 0
M  V30 3667 H 355.405 -0.881406 1.31973 0
M  V30 3668 H 355.426 -3.60097 1.22925 0
M  V30 3669 H 354.938 -2.68166 2.8055 0
M  V30 3670 H 353.039 -3.68474 0.552985 0
M  V30 3671 H 353.152 -4.16019 2.37624 0
M  V30 3672 H 351.516 -2.25804 1.17833 0
M  V30 3673 H 352.299 -1.95491 2.82202 0
M  V30 3674 N 354.744 -0.972509 -1.24016 0
M  V30 3675 C 355.654 -0.5143 -2.28893 0
M  V30 3676 C 356.67 0.427078 -1.68677 0
M  V30 3677 O 357.846 0.298939 -1.99169 0
M  V30 3678 C 354.911 0.183598 -3.46214 0
M  V30 3679 C 353.972 -0.798202 -4.21814 0
M  V30 3680 C 353.205 -0.133514 -5.33533 0
M  V30 3681 O 353.428 1.07714 -5.60137 0
M  V30 3682 O 352.362 -0.828103 -5.96176 0
M  V30 3683 H 356.188 -1.38629 -2.70214 0
M  V30 3684 H 353.773 -0.739769 -1.29799 0
M  V30 3685 H 355.655 0.575433 -4.17453 0
M  V30 3686 H 354.33 1.03048 -3.0686 0
M  V30 3687 H 353.237 -1.24059 -3.52931 0
M  V30 3688 H 354.57 -1.61364 -4.64997 0
M  V30 3689 N 356.222 1.38976 -0.743202 0
M  V30 3690 C 357.452 2.04339 -0.304807 0
M  V30 3691 C 357.86 1.56162 1.06819 0
M  V30 3692 O 357.203 0.725284 1.68776 0
M  V30 3693 C 357.265 3.58716 -0.237369 0
M  V30 3694 C 356.929 4.29905 -1.55018 0
M  V30 3695 C 357.926 4.55987 -2.49744 0
M  V30 3696 C 355.611 4.68294 -1.81675 0
M  V30 3697 C 357.605 5.19478 -3.69353 0
M  V30 3698 C 355.292 5.31512 -3.0156 0
M  V30 3699 C 356.29 5.57037 -3.9522 0
M  V30 3700 O 355.978 6.18941 -5.12998 0
M  V30 3701 H 355.71 0.663439 -0.12971 0
M  V30 3702 H 358.264 1.78852 -1.01001 0
M  V30 3703 H 356.494 3.83133 0.524003 0
M  V30 3704 H 358.183 4.05543 0.170121 0
M  V30 3705 H 358.949 4.26767 -2.30423 0
M  V30 3706 H 354.828 4.47779 -1.09615 0
M  V30 3707 H 358.372 5.39318 -4.42473 0
M  V30 3708 H 354.269 5.60153 -3.20778 0
M  V30 3709 H 355.037 6.37433 -5.13441 0
M  V30 3710 N 357.7 0.491464 1.49741 0
M  V30 3711 C 358.663 -0.280906 2.27472 0
M  V30 3712 C 359.663 -0.902454 1.33088 0
M  V30 3713 O 360.853 -0.768465 1.56334 0
M  V30 3714 C 357.985 -1.40209 3.10732 0
M  V30 3715 H 359.178 0.401056 2.97206 0
M  V30 3716 H 356.731 0.246131 1.5435 0
M  V30 3717 H 357.466 -2.11849 2.45541 0
M  V30 3718 H 357.251 -0.961969 3.80117 0
M  V30 3719 H 358.741 -1.9464 3.69466 0
M  V30 3720 N 359.178 -1.55987 0.224894 0
M  V30 3721 C 360.594 -1.59066 -0.130426 0
M  V30 3722 C 360.794 -1.24176 -1.5869 0
M  V30 3723 O 359.85 -0.978592 -2.32766 0
M  V30 3724 C 361.163 -3.00042 0.198883 0
M  V30 3725 C 362.711 -3.1268 0.141391 0
M  V30 3726 C 363.186 -4.55839 0.444422 0
M  V30 3727 N 364.677 -4.6152 0.394115 0
M  V30 3728 C 365.412 -5.70231 0.602038 0
M  V30 3729 N 364.908 -6.87291 0.871914 0
M  V30 3730 N 366.701 -5.59555 0.534245 0
M  V30 3731 H 358.852 -1.76941 1.17497 0
M  V30 3732 H 361.115 -0.822604 0.471197 0
M  V30 3733 H 360.821 -3.30234 1.2099 0
M  V30 3734 H 360.695 -3.74075 -0.484535 0
M  V30 3735 H 363.082 -2.82283 -0.860265 0
M  V30 3736 H 363.163 -2.40969 0.858335 0
M  V30 3737 H 362.807 -4.86954 1.44353 0
M  V30 3738 H 362.737 -5.2578 -0.293752 0
M  V30 3739 H 365.228 -3.77405 0.193356 0
M  V30 3740 H 365.541 -7.66058 1.01858 0
M  V30 3741 H 363.886 -6.89028 0.909145 0
M  V30 3742 H 367.077 -4.6698 0.323612 0
M  V30 3743 H 367.25 -6.44211 0.699693 0
M  V30 3744 N 360.656 0.0484629 -1.57525 0
M  V30 3745 C 362.072 0.40375 -1.54409 0
M  V30 3746 C 362.272 1.77786 -0.948384 0
M  V30 3747 O 361.328 2.46189 -0.560983 0
M  V30 3748 C 362.641 0.323394 -2.98956 0
M  V30 3749 C 364.189 0.401892 -3.10409 0
M  V30 3750 C 364.664 0.351195 -4.56652 0
M  V30 3751 N 366.155 0.410576 -4.61377 0
M  V30 3752 C 366.89 0.393933 -5.72045 0
M  V30 3753 N 366.386 0.330724 -6.9201 0
M  V30 3754 N 368.179 0.442227 -5.60358 0
M  V30 3755 H 360.33 -0.851016 -1.94606 0
M  V30 3756 H 362.593 -0.321721 -0.89174 0
M  V30 3757 H 362.299 -0.62011 -3.4619 0
M  V30 3758 H 362.173 1.12463 -3.60044 0
M  V30 3759 H 364.56 1.33582 -2.63134 0
M  V30 3760 H 364.641 -0.428342 -2.52188 0
M  V30 3761 H 364.285 -0.578987 -5.04589 0
M  V30 3762 H 364.215 1.19928 -5.12762 0
M  V30 3763 H 366.706 0.462729 -3.75056 0
M  V30 3764 H 367.019 0.322592 -7.72126 0
M  V30 3765 H 365.364 0.29706 -6.94365 0
M  V30 3766 H 368.555 0.489464 -4.65534 0
M  V30 3767 H 368.728 0.425788 -6.466 0
M  V30 3768 N 362.134 1.5431 0.320358 0
M  V30 3769 C 363.38 1.72924 1.05949 0
M  V30 3770 C 363.713 0.503185 1.87568 0
M  V30 3771 O 362.988 -0.499839 1.87968 0
M  V30 3772 C 363.271 3.00676 1.98156 0
M  V30 3773 C 363.124 4.3354 1.19845 0
M  V30 3774 C 364.443 3.24198 2.9763 0
M  V30 3775 H 361.562 0.629195 0.383774 0
M  V30 3776 H 364.204 1.87008 0.335854 0
M  V30 3777 H 362.354 2.888 2.59859 0
M  V30 3778 H 364.026 4.57305 0.605773 0
M  V30 3779 H 362.269 4.309 0.500784 0
M  V30 3780 H 362.94 5.19156 1.87567 0
M  V30 3781 H 365.416 3.35557 2.4605 0
M  V30 3782 H 364.292 4.14938 3.59329 0
M  V30 3783 H 364.553 2.41577 3.7026 0
M  V30 3784 N 363.613 -0.582584 1.46437 0
M  V30 3785 C 364.576 -1.67366 1.56592 0
M  V30 3786 C 365.576 -1.54575 0.443072 0
M  V30 3787 O 366.766 -1.59191 0.707381 0
M  V30 3788 C 363.898 -3.06791 1.48634 0
M  V30 3789 H 365.091 -1.5972 2.5383 0
M  V30 3790 H 362.644 -0.800432 1.34249 0
M  V30 3791 H 363.379 -3.19993 0.526763 0
M  V30 3792 H 363.164 -3.17484 2.30101 0
M  V30 3793 H 364.654 -3.86218 1.58826 0
M  V30 3794 N 365.091 -1.34144 -0.827227 0
M  V30 3795 C 366.368 -1.16844 -1.56865 0
M  V30 3796 C 366.748 0.260654 -2.09485 0
M  V30 3797 O 366.096 1.26138 -1.9053 0
M  V30 3798 C 366.306 -2.21939 -2.6934 0
M  V30 3799 C 367.654 -2.56695 -3.3822 0
M  V30 3800 O 368.678 -2.20695 -2.79593 0
M  V30 3801 O 367.537 -3.18518 -4.44082 0
M  V30 3802 H 364.631 -0.452669 -0.692112 0
M  V30 3803 H 367.177 -1.45763 -0.868973 0
M  V30 3804 H 365.949 -3.17882 -2.28182 0
M  V30 3805 H 365.572 -1.94172 -3.46962 0
M  V30 3806 N 366.569 1.04691 -1.17803 0
M  V30 3807 C 367.479 2.16057 -0.914151 0
M  V30 3808 C 368.495 1.73589 0.119503 0
M  V30 3809 O 369.671 2.01308 -0.0609468 0
M  V30 3810 C 366.736 3.4394 -0.436603 0
M  V30 3811 C 365.797 4.00825 -1.53746 0
M  V30 3812 C 365.03 5.22604 -1.0826 0
M  V30 3813 O 365.253 5.70367 0.0612244 0
M  V30 3814 O 364.187 5.7186 -1.87775 0
M  V30 3815 H 368.013 2.41169 -1.84584 0
M  V30 3816 H 365.598 1.1453 -0.959334 0
M  V30 3817 H 367.48 4.21024 -0.178057 0
M  V30 3818 H 366.155 3.20316 0.466869 0
M  V30 3819 H 365.062 3.25158 -1.84995 0
M  V30 3820 H 366.395 4.28778 -2.41683 0
M  V30 3821 N 368.047 0.979072 1.23499 0
M  V30 3822 C 368.977 0.537606 2.27227 0
M  V30 3823 C 369.958 -0.428539 1.64613 0
M  V30 3824 O 371.143 -0.322191 1.91509 0
M  V30 3825 C 368.273 -0.162052 3.46922 0
M  V30 3826 C 367.227 0.721242 4.21879 0
M  V30 3827 C 366.553 -0.110555 5.34586 0
M  V30 3828 C 367.853 2.01141 4.82016 0
M  V30 3829 H 369.547 1.40462 2.64406 0
M  V30 3830 H 367.093 0.67684 1.27102 0
M  V30 3831 H 369.046 -0.482192 4.18632 0
M  V30 3832 H 367.77 -1.06351 3.08799 0
M  V30 3833 H 366.429 1.02482 3.51984 0
M  V30 3834 H 366.077 -1.0125 4.92704 0
M  V30 3835 H 365.777 0.477325 5.85658 0
M  V30 3836 H 367.301 -0.425107 6.09118 0
M  V30 3837 H 368.715 1.75612 5.45741 0
M  V30 3838 H 367.112 2.54695 5.43369 0
M  V30 3839 H 368.182 2.69909 4.02836 0
M  V30 3840 N 369.525 -1.3858 0.750561 0
M  V30 3841 C 370.488 -2.28836 0.129152 0
M  V30 3842 C 371.488 -1.47045 -0.650714 0
M  V30 3843 O 372.678 -1.6753 -0.477428 0
M  V30 3844 C 369.81 -3.30751 -0.825622 0
M  V30 3845 H 371.003 -2.85294 0.924516 0
M  V30 3846 H 368.556 -1.47489 0.517376 0
M  V30 3847 H 369.291 -2.79378 -1.64677 0
M  V30 3848 H 369.076 -3.91177 -0.268852 0
M  V30 3849 H 370.566 -3.98249 -1.2565 0
M  V30 3850 N 371.003 -0.499398 -1.49478 0
M  V30 3851 C 372.249 0.0457576 -2.02748 0
M  V30 3852 C 372.582 1.36793 -1.37846 0
M  V30 3853 O 371.857 1.87596 -0.513601 0
M  V30 3854 C 372.14 0.199986 -3.59544 0
M  V30 3855 C 371.993 -1.1452 -4.34977 0
M  V30 3856 C 373.312 0.94137 -4.29914 0
M  V30 3857 H 370.431 0.0151552 -0.736844 0
M  V30 3858 H 373.073 -0.650498 -1.78518 0
M  V30 3859 H 371.223 0.793007 -3.8032 0
M  V30 3860 H 372.895 -1.77697 -4.25701 0
M  V30 3861 H 371.138 -1.73488 -3.97598 0
M  V30 3862 H 371.809 -0.990607 -5.43039 0
M  V30 3863 H 374.285 0.43844 -4.13784 0
M  V30 3864 H 373.161 1.01812 -5.39375 0
M  V30 3865 H 373.422 1.98471 -3.95046 0
M  V30 3866 N 372.481 1.55866 -0.233164 0
M  V30 3867 C 373.73 1.97779 0.39579 0
M  V30 3868 C 374.043 1.12419 1.60066 0
M  V30 3869 O 375.249 1.44283 2.29988 0
M  V30 3870 C 373.705 3.5188 0.755556 0
M  V30 3871 C 373.313 4.45959 -0.427152 0
M  V30 3872 C 375.057 4.02479 1.34946 0
M  V30 3873 C 372.964 5.91383 -0.0443043 0
M  V30 3874 H 371.894 0.738592 0.15165 0
M  V30 3875 H 374.545 1.80486 -0.331212 0
M  V30 3876 H 372.927 3.64816 1.5403 0
M  V30 3877 H 374.101 4.44776 -1.20462 0
M  V30 3878 H 372.416 4.05765 -0.935068 0
M  V30 3879 H 375.013 5.08637 1.649 0
M  V30 3880 H 375.356 3.49014 2.26925 0
M  V30 3881 H 375.889 3.92813 0.62791 0
M  V30 3882 H 372.628 6.48857 -0.930874 0
M  V30 3883 H 372.148 5.95734 0.697238 0
M  V30 3884 H 373.827 6.45893 0.378334 0
M  V30 3885 N 373.959 -0.0401083 1.57549 0
M  V30 3886 C 375.187 -0.745196 1.93014 0
M  V30 3887 C 375.602 -1.6948 0.831984 0
M  V30 3888 O 374.959 -1.81482 -0.192463 0
M  V30 3889 C 375.01 -1.51176 3.28372 0
M  V30 3890 O 374.731 -0.600284 4.33968 0
M  V30 3891 C 376.232 -2.315 3.78051 0
M  V30 3892 H 373.452 -0.210088 0.637263 0
M  V30 3893 H 375.996 -0.000924689 2.045 0
M  V30 3894 H 374.151 -2.20801 3.18317 0
M  V30 3895 H 374.565 -1.13669 5.12035 0
M  V30 3896 H 376.039 -2.80697 4.75303 0
M  V30 3897 H 376.516 -3.12436 3.08675 0
M  V30 3898 H 377.122 -1.66971 3.91153 0
M  V30 3899 N 375.437 -1.54477 -0.31217 0
M  V30 3900 C 376.677 -1.74958 -1.05684 0
M  V30 3901 C 377.041 -0.518414 -1.84869 0
M  V30 3902 O 378.242 -0.600759 -2.62001 0
M  V30 3903 C 376.513 -2.99656 -1.94785 0
M  V30 3904 S 378.072 -3.4109 -2.76049 0
M  V30 3905 H 374.89 -0.615104 -0.356606 0
M  V30 3906 H 377.492 -1.92669 -0.331514 0
M  V30 3907 H 376.196 -3.87397 -1.35468 0
M  V30 3908 H 375.727 -2.845 -2.71704 0
M  V30 3909 H 377.742 -2.97283 -3.97287 0
M  V30 3910 N 376.915 0.57481 -1.46744 0
M  V30 3911 C 377.878 1.66533 -1.57478 0
M  V30 3912 C 378.878 1.54338 -0.451263 0
M  V30 3913 O 380.068 1.58814 -0.715813 0
M  V30 3914 C 377.2 3.05999 -1.50259 0
M  V30 3915 H 378.393 1.58372 -2.54673 0
M  V30 3916 H 375.946 0.793301 -1.34672 0
M  V30 3917 H 376.681 3.19709 -0.543725 0
M  V30 3918 H 376.466 3.16259 -2.31781 0
M  V30 3919 H 377.956 3.8537 -1.60872 0
M  V30 3920 N 378.394 1.34581 0.820102 0
M  V30 3921 C 379.805 1.24298 1.39309 0
M  V30 3922 C 380.156 -0.130351 1.95767 0
M  V30 3923 O 379.281 -1.0308 1.90272 0
M  V30 3924 C 379.876 2.25054 2.53251 0
M  V30 3925 C 378.435 2.18552 3.0645 0
M  V30 3926 C 377.582 2.11503 1.79337 0
M  V30 3927 H 380.533 1.45906 0.624262 0
M  V30 3928 H 380.554 1.86917 3.31425 0
M  V30 3929 H 380.066 3.24996 2.1213 0
M  V30 3930 H 378.167 1.21976 3.52069 0
M  V30 3931 H 378.28 3.0993 3.65349 0
M  V30 3932 H 376.644 1.57268 2.00347 0
M  V30 3933 H 377.427 3.13284 1.40386 0
M  V30 3934 N 379.872 -1.04064 1.18357 0
M  V30 3935 C 381.119 -1.77265 0.978947 0
M  V30 3936 C 381.447 -1.88189 -0.491428 0
M  V30 3937 O 380.702 -1.38653 -1.38108 0
M  V30 3938 C 381.001 -3.20634 1.57888 0
M  V30 3939 C 380.667 -3.29743 3.07539 0
M  V30 3940 C 379.329 -3.31937 3.48384 0
M  V30 3941 C 381.681 -3.29841 4.03552 0
M  V30 3942 C 379.009 -3.3187 4.83818 0
M  V30 3943 C 381.361 -3.31313 5.38901 0
M  V30 3944 C 380.025 -3.31799 5.79194 0
M  V30 3945 H 379.295 -0.648659 0.358222 0
M  V30 3946 H 381.942 -1.22225 1.47422 0
M  V30 3947 H 380.247 -3.78675 1.00561 0
M  V30 3948 H 381.944 -3.75917 1.39598 0
M  V30 3949 H 378.534 -3.28757 2.74986 0
M  V30 3950 H 382.718 -3.27337 3.73047 0
M  V30 3951 H 377.974 -3.30562 5.14333 0
M  V30 3952 H 382.148 -3.30338 6.13066 0
M  V30 3953 H 379.775 -3.315 6.84114 0
M  V30 3954 N 381.35 -0.985608 -1.22978 0
M  V30 3955 C 382.596 -0.65836 -1.91816 0
M  V30 3956 C 382.929 0.806692 -1.76653 0
M  V30 3957 O 382.204 1.58252 -1.13078 0
M  V30 3958 C 382.487 -1.056 -3.44268 0
M  V30 3959 C 382.34 -2.57906 -3.68516 0
M  V30 3960 C 383.659 -0.603781 -4.35939 0
M  V30 3961 H 380.778 -0.24065 -0.696604 0
M  V30 3962 H 383.42 -1.22783 -1.44998 0
M  V30 3963 H 381.57 -0.571445 -3.84274 0
M  V30 3964 H 383.242 -3.13976 -3.3796 0
M  V30 3965 H 381.485 -3.00305 -3.13048 0
M  V30 3966 H 382.156 -2.80779 -4.75255 0
M  V30 3967 H 384.632 -1.01987 -4.03408 0
M  V30 3968 H 383.508 -0.910383 -5.41298 0
M  V30 3969 H 383.769 0.495761 -4.39312 0
M  V30 3970 N 382.828 1.3818 -0.7579 0
M  V30 3971 C 384.056 2.04301 -0.326937 0
M  V30 3972 C 384.471 1.57163 1.0462 0
M  V30 3973 O 383.828 0.746626 1.66529 0
M  V30 3974 C 383.879 3.59846 -0.345363 0
M  V30 3975 O 383.6 4.05256 -1.66432 0
M  V30 3976 C 385.101 4.4319 0.098927 0
M  V30 3977 H 382.321 0.656443 -0.139012 0
M  V30 3978 H 384.865 1.76786 -1.02796 0
M  V30 3979 H 383.02 3.86182 0.306955 0
M  V30 3980 H 383.434 4.99709 -1.59345 0
M  V30 3981 H 384.908 5.51989 0.0348745 0
M  V30 3982 H 385.385 4.23947 1.14741 0
M  V30 3983 H 385.991 4.22051 -0.52468 0
M  V30 3984 N 384.306 0.507319 1.49211 0
M  V30 3985 C 385.269 -0.256763 2.27757 0
M  V30 3986 C 386.269 -0.888287 1.34038 0
M  V30 3987 O 387.459 -0.751841 1.5714 0
M  V30 3988 C 384.591 -1.36905 3.12202 0
M  V30 3989 H 385.784 0.432557 2.96764 0
M  V30 3990 H 383.337 0.262488 1.5408 0
M  V30 3991 H 384.072 -2.09233 2.47775 0
M  V30 3992 H 383.857 -0.921599 3.81115 0
M  V30 3993 H 385.347 -1.9071 3.7151 0
M  V30 3994 N 385.784 -1.5574 0.241426 0
M  V30 3995 C 387.195 -1.84842 -0.262755 0
M  V30 3996 C 387.546 -1.16317 -1.58003 0
M  V30 3997 O 386.671 -0.439653 -2.11887 0
M  V30 3998 C 387.266 -3.35332 -0.483523 0
M  V30 3999 C 385.825 -3.6468 -0.931977 0
M  V30 4000 C 384.972 -2.77299 -0.0061151 0
M  V30 4001 H 387.923 -1.51761 0.464129 0
M  V30 4002 H 387.944 -3.56615 -1.32688 0
M  V30 4003 H 387.456 -3.85178 0.47537 0
M  V30 4004 H 385.557 -3.20307 -1.90353 0
M  V30 4005 H 385.67 -4.72498 -0.792628 0
M  V30 4006 H 384.034 -2.49408 -0.516503 0
M  V30 4007 H 384.817 -3.2995 0.948052 0
M  V30 4008 N 387.262 0.0317525 -1.57568 0
M  V30 4009 C 388.21 1.05165 -2.07468 0
M  V30 4010 C 389.204 1.3761 -0.98792 0
M  V30 4011 O 390.41 1.36546 -1.17282 0
M  V30 4012 H 386.785 0.35666 -0.66204 0
M  V30 4013 H 388.756 0.604958 -2.92203 0
M  V30 4014 C 387.505 2.34488 -2.56731 0
M  V30 4015 H 386.828 2.10383 -3.39969 0
M  V30 4016 H 388.268 3.04203 -2.95358 0
M  V30 4017 C 386.727 3.03266 -1.46736 0
M  V30 4018 O 387.257 3.92988 -0.832069 0
M  V30 4019 N 385.463 2.6455 -1.20256 0
M  V30 4020 H 385.01 1.91674 -1.72102 0
M  V30 4021 H 384.968 3.10886 -0.468737 0
M  V30 4022 N 388.74 1.54641 0.303973 0
M  V30 4023 C 389.687 1.85386 1.37479 0
M  V30 4024 C 390.657 0.702528 1.50512 0
M  V30 4025 O 391.842 0.950867 1.65418 0
M  V30 4026 C 388.982 2.10413 2.73533 0
M  V30 4027 C 388.095 3.38049 2.68974 0
M  V30 4028 C 387.23 3.52934 3.97002 0
M  V30 4029 C 386.269 4.74373 3.86829 0
M  V30 4030 N 385.406 4.8608 5.06627 0
M  V30 4031 H 390.246 2.76732 1.1056 0
M  V30 4032 H 387.783 1.37034 0.534805 0
M  V30 4033 H 389.741 2.22919 3.52652 0
M  V30 4034 H 388.371 1.22338 2.98719 0
M  V30 4035 H 387.423 3.3418 1.81736 0
M  V30 4036 H 388.735 4.27288 2.57346 0
M  V30 4037 H 387.889 3.65088 4.84557 0
M  V30 4038 H 386.628 2.61824 4.1146 0
M  V30 4039 H 385.633 4.62255 2.97658 0
M  V30 4040 H 386.858 5.66888 3.73918 0
M  V30 4041 H 384.804 3.97891 5.21554 0
M  V30 4042 H 384.721 5.69315 4.9741 0
M  V30 4043 H 385.989 5.02587 5.95841 0
M  V30 4044 N 390.218 -0.567019 1.47046 0
M  V30 4045 C 391.465 -1.32462 1.53167 0
M  V30 4046 C 391.793 -1.93571 0.189841 0
M  V30 4047 O 391.048 -1.77865 -0.816243 0
M  V30 4048 C 391.347 -2.4623 2.59047 0
M  V30 4049 C 391.013 -2.03014 4.02612 0
M  V30 4050 C 389.675 -1.90944 4.41694 0
M  V30 4051 C 392.027 -1.69895 4.92732 0
M  V30 4052 C 389.355 -1.44035 5.68745 0
M  V30 4053 C 391.707 -1.2446 6.20236 0
M  V30 4054 C 390.371 -1.10979 6.5821 0
M  V30 4055 H 389.641 -0.484713 0.560477 0
M  V30 4056 H 392.288 -0.636888 1.80599 0
M  V30 4057 H 390.593 -3.20517 2.25335 0
M  V30 4058 H 392.29 -3.04427 2.61008 0
M  V30 4059 H 388.88 -2.13348 3.71726 0
M  V30 4060 H 393.064 -1.78098 4.63244 0
M  V30 4061 H 388.32 -1.32254 5.96925 0
M  V30 4062 H 392.494 -0.978924 6.89485 0
M  V30 4063 H 390.121 -0.744078 7.5655 0
M  V30 4064 N 391.696 -1.35014 -0.812953 0
M  V30 4065 C 392.606 -1.2951 -1.95613 0
M  V30 4066 C 393.622 -0.20107 -1.72834 0
M  V30 4067 O 394.798 -0.42932 -1.96771 0
M  V30 4068 C 391.863 -1.06033 -3.30088 0
M  V30 4069 C 390.924 -2.24688 -3.65805 0
M  V30 4070 C 390.157 -2.02322 -4.93864 0
M  V30 4071 O 390.38 -0.986464 -5.61805 0
M  V30 4072 O 389.314 -2.89525 -5.27692 0
M  V30 4073 H 393.14 -2.25705 -2.03202 0
M  V30 4074 H 390.725 -1.15321 -0.949811 0
M  V30 4075 H 392.607 -0.94763 -4.10607 0
M  V30 4076 H 391.282 -0.128852 -3.23443 0
M  V30 4077 H 390.189 -2.41521 -2.85689 0
M  V30 4078 H 391.522 -3.16261 -3.77147 0
M  V30 4079 N 393.175 1.03435 -1.18907 0
M  V30 4080 C 394.138 2.09756 -0.923844 0
M  V30 4081 C 395.138 1.60528 0.093416 0
M  V30 4082 O 396.328 1.73631 -0.140727 0
M  V30 4083 C 393.46 3.38692 -0.387354 0
M  V30 4084 H 394.653 2.34719 -1.86674 0
M  V30 4085 H 392.206 1.19959 -1.00197 0
M  V30 4086 H 392.941 3.19396 0.561845 0
M  V30 4087 H 392.726 3.75742 -1.12074 0
M  V30 4088 H 394.216 4.17016 -0.220694 0
M  V30 4089 N 394.653 0.992116 1.22453 0
M  V30 4090 C 395.583 0.561677 2.26644 0
M  V30 4091 C 396.564 -0.411055 1.65059 0
M  V30 4092 O 397.749 -0.301861 1.9184 0
M  V30 4093 C 394.879 -0.125247 3.47074 0
M  V30 4094 C 393.833 0.765948 4.21091 0
M  V30 4095 C 393.159 -0.0538484 5.34673 0
M  V30 4096 C 394.459 2.06242 4.79856 0
M  V30 4097 H 396.153 1.43259 2.62902 0
M  V30 4098 H 393.699 0.690283 1.26377 0
M  V30 4099 H 395.652 -0.437764 4.1912 0
M  V30 4100 H 394.376 -1.03069 3.0991 0
M  V30 4101 H 393.035 1.0621 3.50878 0
M  V30 4102 H 392.683 -0.960188 4.9375 0
M  V30 4103 H 392.383 0.539415 5.85119 0
M  V30 4104 H 393.907 -0.360477 6.09535 0
M  V30 4105 H 395.321 1.8139 5.43848 0
M  V30 4106 H 393.718 2.60444 5.40638 0
M  V30 4107 H 394.788 2.74167 3.99951 0
M  V30 4108 N 396.131 -1.37776 0.765217 0
M  V30 4109 C 397.094 -2.28686 0.153416 0
M  V30 4110 C 398.094 -1.47727 -0.635081 0
M  V30 4111 O 399.284 -1.68027 -0.459632 0
M  V30 4112 C 396.416 -3.31608 -0.790495 0
M  V30 4113 H 397.609 -2.84297 0.954723 0
M  V30 4114 H 395.162 -1.46932 0.53299 0
M  V30 4115 H 395.897 -2.81109 -1.61705 0
M  V30 4116 H 395.682 -3.9144 -0.227348 0
M  V30 4117 H 397.172 -3.99559 -1.21419 0
M  V30 4118 N 397.609 -0.515225 -1.4894 0
M  V30 4119 C 398.837 0.0206034 -2.0689 0
M  V30 4120 C 399.252 1.29514 -1.37374 0
M  V30 4121 O 398.609 1.76698 -0.456529 0
M  V30 4122 C 398.66 0.26351 -3.60538 0
M  V30 4123 O 398.381 -0.960517 -4.27441 0
M  V30 4124 C 399.882 0.841383 -4.35242 0
M  V30 4125 H 397.102 -0.0268608 -0.670462 0
M  V30 4126 H 399.646 -0.716651 -1.91532 0
M  V30 4127 H 397.801 0.950777 -3.75552 0
M  V30 4128 H 398.215 -0.73212 -5.19365 0
M  V30 4129 H 399.689 0.96085 -5.43573 0
M  V30 4130 H 400.166 1.8427 -3.98674 0
M  V30 4131 H 400.772 0.191143 -4.2487 0
M  V30 4132 N 399.087 1.5561 -0.249682 0
M  V30 4133 C 400.327 2.00916 0.37579 0
M  V30 4134 C 400.691 1.13409 1.54927 0
M  V30 4135 O 401.892 1.48183 2.24266 0
M  V30 4136 C 400.163 3.48949 0.772633 0
M  V30 4137 S 401.722 4.16261 1.38824 0
M  V30 4138 H 398.54 0.70112 0.118117 0
M  V30 4139 H 401.142 1.92052 -0.365567 0
M  V30 4140 H 399.846 4.103 -0.090683 0
M  V30 4141 H 399.377 3.61745 1.5461 0
M  V30 4142 H 401.392 4.17778 2.67724 0
M  V30 4143 N 400.565 -0.0233959 1.57583 0
M  V30 4144 C 401.842 -0.748794 1.807 0
M  V30 4145 C 402.222 -1.9327 0.849106 0
M  V30 4146 O 401.57 -2.28247 -0.107468 0
M  V30 4147 C 401.78 -1.17651 3.28571 0
M  V30 4148 C 403.128 -1.59008 3.93702 0
M  V30 4149 O 404.152 -1.27094 3.32755 0
M  V30 4150 O 403.011 -2.18264 5.01022 0
M  V30 4151 H 400.105 -0.362578 0.743281 0
M  V30 4152 H 402.651 0.000261958 1.697 0
M  V30 4153 H 401.423 -0.331603 3.89892 0
M  V30 4154 H 401.046 -1.98541 3.44481 0
M  V30 4155 N 402.043 -1.548 -0.295768 0
M  V30 4156 C 403.006 -1.85363 -1.34808 0
M  V30 4157 C 404.006 -0.726817 -1.43436 0
M  V30 4158 O 405.196 -0.995088 -1.42981 0
M  V30 4159 C 402.328 -2.03859 -2.73229 0
M  V30 4160 H 403.521 -2.7941 -1.08949 0
M  V30 4161 H 401.074 -1.46942 -0.532702 0
M  V30 4162 H 401.809 -1.12117 -3.04303 0
M  V30 4163 H 401.594 -2.8588 -2.68356 0
M  V30 4164 H 403.084 -2.28857 -3.49305 0
M  V30 4165 N 403.521 0.559213 -1.47345 0
M  V30 4166 C 404.451 1.67622 -1.62558 0
M  V30 4167 C 405.432 1.63331 -0.475087 0
M  V30 4168 O 406.617 1.80983 -0.704182 0
M  V30 4169 C 403.747 3.0626 -1.63774 0
M  V30 4170 C 402.701 3.25397 -2.7803 0
M  V30 4171 C 402.027 4.64801 -2.64318 0
M  V30 4172 C 403.327 3.10965 -4.19641 0
M  V30 4173 H 405.021 1.55146 -2.56067 0
M  V30 4174 H 402.567 0.744961 -1.23233 0
M  V30 4175 H 404.52 3.84247 -1.73008 0
M  V30 4176 H 403.244 3.1969 -0.66825 0
M  V30 4177 H 401.903 2.49817 -2.68304 0
M  V30 4178 H 401.551 4.75028 -1.65401 0
M  V30 4179 H 401.251 4.78555 -3.40968 0
M  V30 4180 H 402.775 5.44926 -2.75478 0
M  V30 4181 H 404.189 3.78772 -4.30354 0
M  V30 4182 H 402.586 3.36229 -4.97062 0
M  V30 4183 H 403.656 2.07736 -4.38148 0
M  V30 4184 N 404.999 1.35443 0.805782 0
M  V30 4185 C 406.245 1.28952 1.56522 0
M  V30 4186 C 406.578 -0.135597 1.93726 0
M  V30 4187 O 405.853 -1.08516 1.61414 0
M  V30 4188 C 406.136 2.19678 2.85331 0
M  V30 4189 C 405.989 3.7081 2.54598 0
M  V30 4190 C 407.308 2.09495 3.8704 0
M  V30 4191 H 404.427 0.469764 0.567883 0
M  V30 4192 H 407.069 1.65851 0.927001 0
M  V30 4193 H 405.219 1.8834 3.39795 0
M  V30 4194 H 406.891 4.12593 2.06312 0
M  V30 4195 H 405.134 3.91051 1.8778 0
M  V30 4196 H 405.805 4.29679 3.46525 0
M  V30 4197 H 408.281 2.37045 3.41978 0
M  V30 4198 H 407.157 2.75173 4.74943 0
M  V30 4199 H 407.418 1.07714 4.28777 0
M  V30 4200 N 406.477 -1.02803 1.19454 0
M  V30 4201 C 407.409 -2.11181 0.890807 0
M  V30 4202 C 408.422 -1.6238 -0.116829 0
M  V30 4203 O 409.611 -1.78144 0.112694 0
M  V30 4204 C 406.711 -3.37461 0.311942 0
M  V30 4205 C 405.884 -4.15446 1.36834 0
M  V30 4206 C 404.943 -5.20039 0.802864 0
M  V30 4207 O 403.969 -5.49602 1.48077 0
M  V30 4208 N 405.171 -5.79165 -0.393417 0
M  V30 4209 H 407.936 -2.37827 1.82369 0
M  V30 4210 H 405.497 -1.19101 1.09666 0
M  V30 4211 H 407.489 -4.0462 -0.0802225 0
M  V30 4212 H 406.059 -3.08156 -0.52524 0
M  V30 4213 H 405.279 -3.43423 1.93531 0
M  V30 4214 H 406.567 -4.64335 2.08015 0
M  V30 4215 H 405.965 -5.57466 -0.961658 0
M  V30 4216 H 404.522 -6.47729 -0.727351 0
M  V30 4217 N 407.956 -0.998596 -1.21925 0
M  V30 4218 C 408.919 -0.558679 -2.22287 0
M  V30 4219 C 409.919 0.361525 -1.56683 0
M  V30 4220 O 411.109 0.152695 -1.73529 0
M  V30 4221 C 408.241 0.18661 -3.40389 0
M  V30 4222 H 409.434 -1.4463 -2.62721 0
M  V30 4223 H 406.987 -0.786413 -1.35075 0
M  V30 4224 H 407.722 1.08996 -3.05435 0
M  V30 4225 H 407.507 -0.474188 -3.89222 0
M  V30 4226 H 408.997 0.482367 -4.14805 0
M  V30 4227 N 409.434 1.37368 -0.772513 0
M  V30 4228 C 410.384 2.27613 -0.132823 0
M  V30 4229 C 411.368 1.46138 0.673247 0
M  V30 4230 O 412.56 1.68686 0.536095 0
M  V30 4231 C 409.689 3.35122 0.744864 0
M  V30 4232 C 408.775 4.24044 -0.0690771 0
M  V30 4233 N 409.166 4.93355 -1.1151 0
M  V30 4234 C 407.464 4.45731 0.154782 0
M  V30 4235 C 408.165 5.59 -1.60917 0
M  V30 4236 N 407.141 5.35737 -0.921222 0
M  V30 4237 H 410.943 2.78675 -0.933681 0
M  V30 4238 H 408.457 1.50494 -0.610342 0
M  V30 4239 H 410.454 3.98683 1.21892 0
M  V30 4240 H 409.114 2.85616 1.54446 0
M  V30 4241 H 410.125 4.95785 -1.49726 0
M  V30 4242 H 406.802 4.07096 0.926224 0
M  V30 4243 H 408.192 6.24395 -2.48153 0
M  V30 4244 N 410.912 0.523116 1.48665 0
M  V30 4245 C 412.16 -0.0134497 2.02096 0
M  V30 4246 C 412.481 -1.35418 1.40311 0
M  V30 4247 O 411.751 -1.87543 0.566074 0
M  V30 4248 H 410.331 -0.00795915 0.746958 0
M  V30 4249 H 412.993 0.685388 1.82451 0
M  V30 4250 H 412.089 -0.126849 3.11842 0
M  V30 4251 N 412.39 -1.55475 0.257931 0
M  V30 4252 C 413.353 -2.20551 -0.623706 0
M  V30 4253 C 414.353 -1.17809 -1.09443 0
M  V30 4254 O 415.543 -1.42823 -0.997362 0
M  V30 4255 C 412.675 -2.85784 -1.8585 0
M  V30 4256 H 413.868 -2.99848 -0.0557743 0
M  V30 4257 H 411.421 -1.56298 0.0084422 0
M  V30 4258 H 412.156 -2.10453 -2.46739 0
M  V30 4259 H 411.941 -3.61057 -1.52907 0
M  V30 4260 H 413.431 -3.35553 -2.48584 0
M  V30 4261 N 413.868 0.0150385 -1.57593 0
M  V30 4262 C 414.798 1.01047 -2.10503 0
M  V30 4263 C 415.779 1.36816 -1.01071 0
M  V30 4264 O 416.964 1.45455 -1.28672 0
M  V30 4265 C 414.094 2.30708 -2.59598 0
M  V30 4266 C 413.048 2.09142 -3.73421 0
M  V30 4267 C 412.374 3.44685 -4.08774 0
M  V30 4268 C 413.674 1.46619 -5.01298 0
M  V30 4269 H 415.368 0.569978 -2.93925 0
M  V30 4270 H 412.914 0.272724 -1.41394 0
M  V30 4271 H 414.867 3.00687 -2.95238 0
M  V30 4272 H 413.591 2.76843 -1.73279 0
M  V30 4273 H 412.25 1.41592 -3.38153 0
M  V30 4274 H 411.898 3.88495 -3.195 0
M  V30 4275 H 411.598 3.31077 -4.8545 0
M  V30 4276 H 413.122 4.16004 -4.4696 0
M  V30 4277 H 414.536 2.06535 -5.34805 0
M  V30 4278 H 412.933 1.43544 -5.82679 0
M  V30 4279 H 414.003 0.433611 -4.82957 0
M  V30 4280 N 415.346 1.54954 0.287554 0
M  V30 4281 C 416.293 1.86834 1.35505 0
M  V30 4282 C 417.263 0.718452 1.49758 0
M  V30 4283 O 418.448 0.968358 1.644 0
M  V30 4284 C 415.588 2.13303 2.71286 0
M  V30 4285 C 414.701 3.40883 2.65373 0
M  V30 4286 C 413.836 3.57125 3.93236 0
M  V30 4287 C 412.875 4.78449 3.81776 0
M  V30 4288 N 412.012 4.91426 5.01443 0
M  V30 4289 H 416.852 2.77889 1.07619 0
M  V30 4290 H 414.389 1.37593 0.520241 0
M  V30 4291 H 416.347 2.26646 3.50267 0
M  V30 4292 H 414.977 1.25499 2.97405 0
M  V30 4293 H 414.029 3.36088 1.78182 0
M  V30 4294 H 415.341 4.29993 2.52799 0
M  V30 4295 H 414.495 3.70207 4.80658 0
M  V30 4296 H 413.234 2.66173 4.0866 0
M  V30 4297 H 412.239 4.65386 2.92738 0
M  V30 4298 H 413.464 5.70822 3.67884 0
M  V30 4299 H 411.41 4.03401 5.17304 0
M  V30 4300 H 411.327 5.74559 4.91343 0
M  V30 4301 H 412.595 5.08879 5.90477 0
M  V30 4302 N 416.824 -0.551391 1.4764 0
M  V30 4303 C 418.072 -1.30572 1.54258 0
M  V30 4304 C 418.393 -1.93877 0.208963 0
M  V30 4305 O 417.663 -1.80234 -0.767619 0
M  V30 4306 H 416.243 -0.484894 0.568231 0
M  V30 4307 H 418.905 -0.643402 1.83974 0
M  V30 4308 H 418.001 -2.09621 2.31226 0
M  V30 4309 N 418.302 -1.35869 -0.798587 0
M  V30 4310 C 419.232 -1.32118 -1.92528 0
M  V30 4311 C 420.213 -0.194209 -1.68988 0
M  V30 4312 O 421.398 -0.390426 -1.90235 0
M  V30 4313 C 418.528 -1.10047 -3.29404 0
M  V30 4314 C 417.482 -2.19471 -3.67446 0
M  V30 4315 C 416.808 -1.82555 -5.02571 0
M  V30 4316 C 418.108 -3.61495 -3.76987 0
M  V30 4317 H 419.802 -2.26394 -1.95924 0
M  V30 4318 H 417.348 -1.08981 -0.94123 0
M  V30 4319 H 419.301 -1.06061 -4.07835 0
M  V30 4320 H 418.025 -0.122195 -3.26371 0
M  V30 4321 H 416.684 -2.22568 -2.91306 0
M  V30 4322 H 416.332 -0.833249 -4.9605 0
M  V30 4323 H 416.032 -2.5581 -5.28995 0
M  V30 4324 H 417.556 -1.80108 -5.83432 0
M  V30 4325 H 418.97 -3.60676 -4.4563 0
M  V30 4326 H 417.367 -4.33577 -4.14887 0
M  V30 4327 H 418.437 -3.97065 -2.78329 0
M  V30 4328 N 419.78 1.02168 -1.19998 0
M  V30 4329 C 420.743 2.08765 -0.94604 0
M  V30 4330 C 421.743 1.60618 0.0763846 0
M  V30 4331 O 422.933 1.73472 -0.159135 0
M  V30 4332 C 420.065 3.38262 -0.423255 0
M  V30 4333 H 421.258 2.32726 -1.89153 0
M  V30 4334 H 418.811 1.1889 -1.01464 0
M  V30 4335 H 419.546 3.19974 0.527938 0
M  V30 4336 H 419.331 3.74532 -1.16053 0
M  V30 4337 H 420.821 4.16759 -0.264911 0
M  V30 4338 N 421.258 1.00505 1.21394 0
M  V30 4339 C 422.221 0.570459 2.21987 0
M  V30 4340 C 423.221 -0.353211 1.56873 0
M  V30 4341 O 424.411 -0.14349 1.73608 0
M  V30 4342 C 421.543 -0.168555 3.40483 0
M  V30 4343 H 422.736 1.46021 2.6195 0
M  V30 4344 H 420.289 0.793565 1.34656 0
M  V30 4345 H 421.024 -1.07374 3.06009 0
M  V30 4346 H 420.809 0.494823 3.88965 0
M  V30 4347 H 422.299 -0.460362 4.15055 0
M  V30 4348 N 422.737 -1.36956 0.779787 0
M  V30 4349 C 423.962 -2.04283 0.358224 0
M  V30 4350 C 424.387 -1.58422 -1.01411 0
M  V30 4351 O 423.745 -0.748179 -1.65142 0
M  V30 4352 C 423.793 -3.58152 0.419479 0
M  V30 4353 O 422.897 -4.08342 -0.577142 0
M  V30 4354 H 422.238 -0.645967 0.153698 0
M  V30 4355 H 424.768 -1.75108 1.05822 0
M  V30 4356 H 424.778 -4.07041 0.279636 0
M  V30 4357 H 423.453 -3.90886 1.42061 0
M  V30 4358 H 422.03 -3.70751 -0.399755 0
M  V30 4359 N 424.215 -0.530993 -1.48385 0
M  V30 4360 C 425.145 0.219985 -2.32461 0
M  V30 4361 C 426.126 0.934111 -1.42156 0
M  V30 4362 O 427.311 0.919694 -1.71042 0
M  V30 4363 C 424.441 1.26674 -3.23375 0
M  V30 4364 C 423.395 0.67069 -4.22712 0
M  V30 4365 C 422.721 1.82017 -5.02766 0
M  V30 4366 C 424.021 -0.358268 -5.2107 0
M  V30 4367 H 425.715 -0.48187 -2.95497 0
M  V30 4368 H 423.261 -0.233182 -1.42099 0
M  V30 4369 H 425.214 1.80006 -3.81019 0
M  V30 4370 H 423.938 1.99818 -2.58341 0
M  V30 4371 H 422.597 0.158878 -3.66256 0
M  V30 4372 H 422.245 2.54002 -4.34157 0
M  V30 4373 H 421.945 1.42727 -5.70003 0
M  V30 4374 H 423.469 2.35725 -5.63264 0
M  V30 4375 H 424.883 0.0880081 -5.73232 0
M  V30 4376 H 423.28 -0.66861 -5.96364 0
M  V30 4377 H 424.35 -1.26367 -4.68145 0
M  V30 4378 N 425.693 1.55336 -0.266172 0
M  V30 4379 C 426.626 2.18256 0.666296 0
M  V30 4380 C 427.604 1.14064 1.1588 0
M  V30 4381 O 428.788 1.42546 1.23341 0
M  V30 4382 C 425.915 2.79867 1.90768 0
M  V30 4383 C 424.961 3.97283 1.55141 0
M  V30 4384 S 425.794 5.31694 0.637313 0
M  V30 4385 C 426.95 5.96769 1.88727 0
M  V30 4386 H 427.183 2.97008 0.131647 0
M  V30 4387 H 424.716 1.54317 -0.0504869 0
M  V30 4388 H 426.674 3.15996 2.62025 0
M  V30 4389 H 425.335 2.01025 2.41346 0
M  V30 4390 H 424.528 4.3905 2.4749 0
M  V30 4391 H 424.13 3.6253 0.919113 0
M  V30 4392 H 426.422 6.15458 2.83227 0
M  V30 4393 H 427.365 6.91752 1.51276 0
M  V30 4394 H 427.773 5.26034 2.04814 0
M  V30 4395 N 427.171 -0.0066808 1.57599 0
M  V30 4396 C 428.118 -1.00024 2.08 0
M  V30 4397 C 429.088 -1.34549 0.973943 0
M  V30 4398 O 430.273 -1.44502 1.24595 0
M  V30 4399 C 427.413 -2.2891 2.58252 0
M  V30 4400 C 426.526 -2.00346 3.82734 0
M  V30 4401 C 425.661 -3.23265 4.21513 0
M  V30 4402 C 424.7 -2.90357 5.3885 0
M  V30 4403 N 423.837 -4.05793 5.72954 0
M  V30 4404 H 428.677 -0.563499 2.92624 0
M  V30 4405 H 426.214 -0.266592 1.44664 0
M  V30 4406 H 428.172 -3.04247 2.85464 0
M  V30 4407 H 426.802 -2.70265 1.76512 0
M  V30 4408 H 425.854 -1.15406 3.62471 0
M  V30 4409 H 427.166 -1.72086 4.68175 0
M  V30 4410 H 426.32 -4.06953 4.49971 0
M  V30 4411 H 425.059 -3.54657 3.34768 0
M  V30 4412 H 424.064 -2.05075 5.10122 0
M  V30 4413 H 425.289 -2.60219 6.27266 0
M  V30 4414 H 423.235 -4.37094 4.89167 0
M  V30 4415 H 423.152 -3.81034 6.52954 0
M  V30 4416 H 424.42 -4.90289 6.06001 0
M  V30 4417 N 428.649 -1.55105 -0.279332 0
M  V30 4418 C 429.898 -1.74618 -1.00952 0
M  V30 4419 C 430.211 -0.551096 -1.87676 0
M  V30 4420 O 431.417 -0.628507 -2.64125 0
M  V30 4421 C 429.873 -3.09025 -1.84476 0
M  V30 4422 C 429.481 -4.36081 -1.0265 0
M  V30 4423 C 431.225 -3.37891 -2.56963 0
M  V30 4424 C 429.132 -5.6153 -1.85576 0
M  V30 4425 H 428.062 -0.650868 -0.38064 0
M  V30 4426 H 430.713 -1.81569 -0.265475 0
M  V30 4427 H 429.095 -2.96095 -2.62952 0
M  V30 4428 H 430.269 -4.59909 -0.286354 0
M  V30 4429 H 428.584 -4.14312 -0.416464 0
M  V30 4430 H 431.181 -4.28822 -3.19399 0
M  V30 4431 H 431.524 -2.57737 -3.26921 0
M  V30 4432 H 432.057 -3.5189 -1.85522 0
M  V30 4433 H 428.796 -6.44413 -1.2005 0
M  V30 4434 H 428.316 -5.41854 -2.57204 0
M  V30 4435 H 429.995 -5.99594 -2.43096 0
M  V30 4436 N 430.127 0.543554 -1.4793 0
M  V30 4437 C 431.09 1.63156 -1.60975 0
M  V30 4438 C 432.09 1.53346 -0.483899 0
M  V30 4439 O 433.28 1.5726 -0.749339 0
M  V30 4440 C 430.412 3.02743 -1.56716 0
M  V30 4441 H 431.605 1.52934 -2.57975 0
M  V30 4442 H 429.158 0.764557 -1.36324 0
M  V30 4443 H 429.893 3.18484 -0.611418 0
M  V30 4444 H 429.678 3.11272 -2.38438 0
M  V30 4445 H 431.168 3.81871 -1.6901 0
M  V30 4446 N 431.605 1.3629 0.791371 0
M  V30 4447 C 432.553 1.30514 1.92533 0
M  V30 4448 C 433.547 0.197285 1.68247 0
M  V30 4449 O 434.753 0.364176 1.76278 0
M  V30 4450 H 431.128 0.406263 0.632815 0
M  V30 4451 H 433.099 2.26282 1.94523 0
M  V30 4452 C 431.848 1.10933 3.29529 0
M  V30 4453 H 431.171 1.95427 3.48781 0
M  V30 4454 H 432.611 1.10937 4.0923 0
M  V30 4455 C 431.07 -0.186123 3.36385 0
M  V30 4456 O 431.6 -1.17664 3.84081 0
M  V30 4457 N 429.806 -0.230128 2.89687 0
M  V30 4458 H 429.353 0.576545 2.51065 0
M  V30 4459 H 429.311 -1.09658 2.94657 0
M  V30 4460 N 433.083 -1.0153 1.20538 0
M  V30 4461 C 434.36 -1.72327 0.925343 0
M  V30 4462 C 434.74 -2.03383 -0.565547 0
M  V30 4463 O 434.088 -1.69934 -1.52757 0
M  V30 4464 C 434.298 -2.9902 1.79967 0
M  V30 4465 C 435.646 -3.72258 2.04228 0
M  V30 4466 O 436.67 -3.08979 1.77231 0
M  V30 4467 O 435.529 -4.86053 2.4983 0
M  V30 4468 H 432.623 -0.751099 0.346092 0
M  V30 4469 H 435.169 -1.07366 1.31417 0
M  V30 4470 H 433.941 -2.72402 2.80915 0
M  V30 4471 H 433.564 -3.71721 1.41099 0
M  V30 4472 N 434.561 -1.01147 -1.20859 0
M  V30 4473 C 435.807 -0.698899 -1.90377 0
M  V30 4474 C 436.14 0.76904 -1.78324 0
M  V30 4475 O 435.415 1.55817 -1.16409 0
M  V30 4476 C 435.698 -1.12878 -3.41951 0
M  V30 4477 C 435.551 -2.65665 -3.62963 0
M  V30 4478 C 436.87 -0.696114 -4.3456 0
M  V30 4479 H 433.989 -0.255372 -0.691342 0
M  V30 4480 H 436.631 -1.25831 -1.42361 0
M  V30 4481 H 434.781 -0.652827 -3.82976 0
M  V30 4482 H 436.453 -3.21074 -3.31224 0
M  V30 4483 H 434.696 -3.06878 -3.06608 0
M  V30 4484 H 435.367 -2.90797 -4.69192 0
M  V30 4485 H 437.843 -1.10521 -4.01154 0
M  V30 4486 H 436.719 -1.025 -5.39245 0
M  V30 4487 H 436.98 0.402465 -4.40264 0
M  V30 4488 N 436.039 1.36541 -0.78704 0
M  V30 4489 C 437.455 1.52571 -0.46844 0
M  V30 4490 C 437.655 1.7415 1.01361 0
M  V30 4491 O 436.711 1.77163 1.79915 0
M  V30 4492 C 438.024 2.71299 -1.29682 0
M  V30 4493 C 439.572 2.85169 -1.29027 0
M  V30 4494 C 440.047 4.06898 -2.10233 0
M  V30 4495 N 441.538 4.1404 -2.07666 0
M  V30 4496 C 442.273 5.07301 -2.67271 0
M  V30 4497 N 441.769 6.06021 -3.35724 0
M  V30 4498 N 443.562 4.99898 -2.57018 0
M  V30 4499 H 435.713 1.20788 -1.74711 0
M  V30 4500 H 437.976 0.589364 -0.742532 0
M  V30 4501 H 437.682 2.61868 -2.34773 0
M  V30 4502 H 437.556 3.6539 -0.936479 0
M  V30 4503 H 439.943 2.94062 -0.247284 0
M  V30 4504 H 440.024 1.91992 -1.69035 0
M  V30 4505 H 439.668 3.98766 -3.1456 0
M  V30 4506 H 439.598 4.99218 -1.67597 0
M  V30 4507 H 442.089 3.43357 -1.57843 0
M  V30 4508 H 442.402 6.73741 -3.78541 0
M  V30 4509 H 440.747 6.06253 -3.39826 0
M  V30 4510 H 443.938 4.21724 -2.03142 0
M  V30 4511 H 444.111 5.72392 -3.03761 0
M  V30 4512 N 437.518 0.538854 1.48102 0
M  V30 4513 C 438.764 0.0161732 2.03394 0
M  V30 4514 C 439.119 -1.31154 1.40771 0
M  V30 4515 O 438.412 -1.83613 0.547421 0
M  V30 4516 C 438.606 -0.153808 3.57069 0
M  V30 4517 C 438.435 1.15588 4.34591 0
M  V30 4518 C 437.205 1.71818 4.75191 0
M  V30 4519 C 439.403 2.06867 4.70861 0
M  V30 4520 N 437.385 2.96983 5.37284 0
M  V30 4521 C 438.756 3.16609 5.33066 0
M  V30 4522 C 440.811 2.07085 4.52791 0
M  V30 4523 C 439.514 4.26645 5.79109 0
M  V30 4524 C 441.54 3.16121 4.99821 0
M  V30 4525 C 440.902 4.24582 5.62058 0
M  V30 4526 H 437.001 0.0476346 0.780548 0
M  V30 4527 H 439.585 0.722094 1.80815 0
M  V30 4528 H 437.756 -0.828825 3.79454 0
M  V30 4529 H 439.488 -0.676896 3.98999 0
M  V30 4530 H 436.243 1.25845 4.56574 0
M  V30 4531 H 436.667 3.60732 5.72889 0
M  V30 4532 H 441.309 1.24522 4.04047 0
M  V30 4533 H 439.027 5.0998 6.26854 0
M  V30 4534 H 442.613 3.17355 4.87624 0
M  V30 4535 H 441.493 5.07562 5.97788 0
M  V30 4536 N 438.996 -1.55193 0.274407 0
M  V30 4537 C 439.926 -2.25471 -0.607032 0
M  V30 4538 C 440.907 -1.24461 -1.15946 0
M  V30 4539 O 442.092 -1.53179 -1.19373 0
M  V30 4540 C 439.222 -2.97526 -1.79153 0
M  V30 4541 C 438.176 -4.05459 -1.37067 0
M  V30 4542 C 437.502 -4.65084 -2.6382 0
M  V30 4543 C 438.802 -5.19691 -0.521389 0
M  V30 4544 H 440.496 -2.99393 -0.0209343 0
M  V30 4545 H 438.042 -1.43997 -0.00862866 0
M  V30 4546 H 439.995 -3.45402 -2.41404 0
M  V30 4547 H 438.719 -2.21138 -2.40344 0
M  V30 4548 H 437.378 -3.58393 -0.771355 0
M  V30 4549 H 437.026 -3.85365 -3.23268 0
M  V30 4550 H 436.726 -5.37961 -2.36372 0
M  V30 4551 H 438.25 -5.15708 -3.26921 0
M  V30 4552 H 439.664 -5.63623 -1.04889 0
M  V30 4553 H 438.061 -5.99126 -0.341825 0
M  V30 4554 H 439.131 -4.82713 0.46 0
M  V30 4555 N 440.474 -0.00167713 -1.576 0
M  V30 4556 C 441.437 0.974046 -2.07473 0
M  V30 4557 C 442.437 1.27143 -0.984444 0
M  V30 4558 O 443.627 1.21633 -1.24703 0
M  V30 4559 C 440.759 2.29849 -2.51759 0
M  V30 4560 H 441.952 0.54262 -2.9495 0
M  V30 4561 H 439.505 0.245829 -1.54355 0
M  V30 4562 H 440.24 2.77677 -1.67529 0
M  V30 4563 H 440.025 2.09584 -3.31386 0
M  V30 4564 H 441.515 2.9984 -2.90664 0
M  V30 4565 N 441.952 1.55251 0.271103 0
M  V30 4566 C 443.177 1.80306 1.02491 0
M  V30 4567 C 443.602 0.575457 1.79081 0
M  V30 4568 O 442.96 -0.474987 1.74967 0
M  V30 4569 C 443.008 3.02832 1.95768 0
M  V30 4570 O 442.112 2.78051 3.04568 0
M  V30 4571 H 441.453 0.595896 0.292923 0
M  V30 4572 H 443.983 2.02397 0.299436 0
M  V30 4573 H 443.993 3.31616 2.37686 0
M  V30 4574 H 442.668 3.9183 1.39434 0
M  V30 4575 H 441.245 2.60369 2.66951 0
M  V30 4576 N 443.43 -0.535701 1.48216 0
M  V30 4577 C 444.678 -1.28928 1.55634 0
M  V30 4578 C 444.999 -1.93645 0.229514 0
M  V30 4579 O 444.269 -1.81038 -0.74846 0
M  V30 4580 H 442.849 -0.47884 0.573342 0
M  V30 4581 H 445.511 -0.623853 1.84646 0
M  V30 4582 H 444.607 -2.07157 2.33436 0
M  V30 4583 N 444.908 -1.36708 -0.784132 0
M  V30 4584 C 446.319 -1.27947 -1.35965 0
M  V30 4585 C 446.67 0.0784013 -1.96043 0
M  V30 4586 O 445.795 0.979989 -1.92938 0
M  V30 4587 C 446.39 -2.31689 -2.47195 0
M  V30 4588 C 444.949 -2.26601 -3.00548 0
M  V30 4589 C 444.096 -2.16184 -1.73666 0
M  V30 4590 H 447.047 -1.4751 -0.585358 0
M  V30 4591 H 447.068 -1.95638 -3.26352 0
M  V30 4592 H 446.58 -3.30506 -2.03439 0
M  V30 4593 H 444.681 -1.31268 -3.48711 0
M  V30 4594 H 444.794 -3.19508 -3.57004 0
M  V30 4595 H 443.158 -1.62524 -1.96107 0
M  V30 4596 H 443.941 -3.16896 -1.32031 0
M  V30 4597 N 446.386 1.0089 -1.21074 0
M  V30 4598 C 447.802 1.2695 -0.967257 0
M  V30 4599 C 448.002 1.9846 0.348673 0
M  V30 4600 O 447.058 2.28459 1.0753 0
M  V30 4601 C 448.371 2.09697 -2.15517 0
M  V30 4602 C 449.919 2.22937 -2.197 0
M  V30 4603 C 450.394 3.09064 -3.37999 0
M  V30 4604 N 451.885 3.16653 -3.38061 0
M  V30 4605 C 452.62 3.8354 -4.26245 0
M  V30 4606 N 452.116 4.52488 -5.2462 0
M  V30 4607 N 453.909 3.80141 -4.14064 0
M  V30 4608 H 446.06 0.529005 -2.05707 0
M  V30 4609 H 448.323 0.296148 -0.900556 0
M  V30 4610 H 448.029 1.64497 -3.10859 0
M  V30 4611 H 447.903 3.10444 -2.14253 0
M  V30 4612 H 450.29 2.67357 -1.24916 0
M  V30 4613 H 450.371 1.21673 -2.2501 0
M  V30 4614 H 450.015 2.65347 -4.33074 0
M  V30 4615 H 449.945 4.10433 -3.29928 0
M  V30 4616 H 452.436 2.67566 -2.66865 0
M  V30 4617 H 452.749 5.01219 -5.88217 0
M  V30 4618 H 451.094 4.51288 -5.28549 0
M  V30 4619 H 454.285 3.25427 -3.36474 0
M  V30 4620 H 454.458 4.31992 -4.82998 0
M  V30 4621 N 447.864 1.01787 1.20321 0
M  V30 4622 C 449.104 0.716493 1.91431 0
M  V30 4623 C 449.468 -0.740352 1.77152 0
M  V30 4624 O 450.669 -1.1543 2.42754 0
M  V30 4625 C 448.94 1.14169 3.38674 0
M  V30 4626 S 450.499 0.962482 4.28114 0
M  V30 4627 H 447.317 0.261175 0.661293 0
M  V30 4628 H 449.919 1.30539 1.45533 0
M  V30 4629 H 448.623 2.19784 3.46588 0
M  V30 4630 H 448.154 0.545621 3.89598 0
M  V30 4631 H 450.169 -0.133253 4.96021 0
M  V30 4632 N 449.342 -1.36122 0.79427 0
M  V30 4633 C 450.59 -1.98718 0.368177 0
M  V30 4634 C 450.911 -1.63345 -1.06506 0
M  V30 4635 O 450.181 -0.909825 -1.73491 0
M  V30 4636 H 448.761 -0.735038 0.133146 0
M  V30 4637 H 451.423 -1.66239 1.01739 0
M  V30 4638 H 450.519 -3.08633 0.463923 0
M  V30 4639 N 450.82 -0.546701 -1.47814 0
M  V30 4640 C 452.069 -0.0166497 -2.01693 0
M  V30 4641 C 452.382 1.33721 -1.42752 0
M  V30 4642 O 453.588 1.95658 -1.8823 0
M  V30 4643 C 452.044 0.0206769 -3.59894 0
M  V30 4644 C 451.652 -1.3293 -4.27824 0
M  V30 4645 C 453.396 0.498674 -4.21561 0
M  V30 4646 C 451.303 -1.25165 -5.78003 0
M  V30 4647 H 450.233 -0.0024541 -0.753996 0
M  V30 4648 H 452.884 -0.692984 -1.69912 0
M  V30 4649 H 451.266 0.76244 -3.88591 0
M  V30 4650 H 452.44 -2.08795 -4.10781 0
M  V30 4651 H 450.755 -1.74438 -3.78101 0
M  V30 4652 H 453.352 0.575 -5.31599 0
M  V30 4653 H 453.695 1.5083 -3.88016 0
M  V30 4654 H 454.228 -0.18791 -3.97356 0
M  V30 4655 H 450.967 -2.23695 -6.1615 0
M  V30 4656 H 450.487 -0.53464 -5.97412 0
M  V30 4657 H 452.166 -0.949299 -6.39998 0
M  V30 4658 N 452.299 1.55045 -0.282633 0
M  V30 4659 C 453.547 1.99365 0.331334 0
M  V30 4660 C 453.868 1.1725 1.55812 0
M  V30 4661 O 453.138 0.263871 1.94115 0
M  V30 4662 H 451.718 0.736397 0.125414 0
M  V30 4663 H 454.38 1.90964 -0.389711 0
M  V30 4664 H 453.476 3.0596 0.616036 0
M  V30 4665 N 453.777 0.010035 1.57597 0
M  V30 4666 C 454.687 -0.994226 2.12491 0
M  V30 4667 C 455.703 -1.37013 1.07254 0
M  V30 4668 O 456.879 -1.45542 1.3921 0
M  V30 4669 C 453.944 -2.2642 2.62555 0
M  V30 4670 C 453.005 -1.95049 3.82432 0
M  V30 4671 C 452.238 -3.15991 4.30099 0
M  V30 4672 O 452.461 -4.28015 3.7704 0
M  V30 4673 O 451.395 -2.99403 5.22151 0
M  V30 4674 H 455.221 -0.557549 2.98538 0
M  V30 4675 H 452.806 -0.209413 1.47925 0
M  V30 4676 H 454.688 -3.01009 2.9491 0
M  V30 4677 H 453.363 -2.69306 1.796 0
M  V30 4678 H 452.27 -1.17904 3.55034 0
M  V30 4679 H 453.603 -1.56992 4.66491 0
M  V30 4680 N 455.255 -1.55392 -0.262866 0
M  V30 4681 C 456.504 -1.75679 -0.990943 0
M  V30 4682 C 456.817 -0.57097 -1.87081 0
M  V30 4683 O 458.023 -0.656486 -2.63444 0
M  V30 4684 C 456.479 -3.10964 -1.81188 0
M  V30 4685 C 456.087 -4.37146 -0.980188 0
M  V30 4686 C 457.831 -3.40597 -2.53365 0
M  V30 4687 C 455.738 -5.63466 -1.7961 0
M  V30 4688 H 454.668 -0.654868 -0.373716 0
M  V30 4689 H 457.319 -1.81841 -0.246203 0
M  V30 4690 H 455.701 -2.98867 -2.59797 0
M  V30 4691 H 456.875 -4.60187 -0.237558 0
M  V30 4692 H 455.19 -4.14731 -0.372497 0
M  V30 4693 H 457.787 -4.32186 -3.14833 0
M  V30 4694 H 458.13 -2.6119 -3.24169 0
M  V30 4695 H 458.663 -3.53838 -1.81779 0
M  V30 4696 H 455.402 -6.4565 -1.13209 0
M  V30 4697 H 454.922 -5.44552 -2.51443 0
M  V30 4698 H 456.601 -6.02139 -2.36723 0
M  V30 4699 N 456.733 0.527833 -1.48498 0
M  V30 4700 C 457.958 1.313 -1.60546 0
M  V30 4701 C 458.383 1.86199 -0.26672 0
M  V30 4702 O 457.741 1.64513 0.761918 0
M  V30 4703 C 457.789 2.43818 -2.65678 0
M  V30 4704 O 456.893 3.46916 -2.22987 0
M  V30 4705 H 456.234 0.388784 -0.538277 0
M  V30 4706 H 458.764 0.634896 -1.945 0
M  V30 4707 H 458.774 2.89973 -2.87018 0
M  V30 4708 H 457.449 2.03222 -3.62869 0
M  V30 4709 H 456.026 3.06864 -2.11869 0
M  V30 4710 N 458.211 1.37122 0.776871 0
M  V30 4711 C 459.46 1.31373 1.53049 0
M  V30 4712 C 459.773 -0.101016 1.95339 0
M  V30 4713 O 460.979 -0.280953 2.70042 0
M  V30 4714 C 459.435 2.30567 2.76346 0
M  V30 4715 C 459.043 3.77543 2.41175 0
M  V30 4716 C 460.787 2.33818 3.54301 0
M  V30 4717 C 458.694 4.68481 3.60943 0
M  V30 4718 H 457.624 0.488234 0.574581 0
M  V30 4719 H 460.275 1.62554 0.851372 0
M  V30 4720 H 458.657 1.92396 3.46121 0
M  V30 4721 H 459.831 4.24521 1.79216 0
M  V30 4722 H 458.146 3.77187 1.76405 0
M  V30 4723 H 460.743 2.98965 4.4331 0
M  V30 4724 H 461.086 1.3503 3.93793 0
M  V30 4725 H 461.619 2.7067 2.91518 0
M  V30 4726 H 458.358 5.68378 3.26537 0
M  V30 4727 H 457.878 4.2621 4.22025 0
M  V30 4728 H 459.557 4.85366 4.27819 0
M  V30 4729 N 459.689 -1.00246 1.21608 0
M  V30 4730 C 461.1 -1.55511 1.03312 0
M  V30 4731 C 461.451 -1.91946 -0.406332 0
M  V30 4732 O 460.576 -1.73753 -1.28992 0
M  V30 4733 C 461.171 -2.82576 1.86913 0
M  V30 4734 C 459.73 -3.34318 1.72941 0
M  V30 4735 C 458.877 -2.07487 1.83968 0
M  V30 4736 H 461.828 -0.824638 1.35593 0
M  V30 4737 H 461.849 -3.54559 1.38087 0
M  V30 4738 H 461.361 -2.56026 2.91672 0
M  V30 4739 H 459.462 -3.65797 0.70877 0
M  V30 4740 H 459.575 -4.05566 2.55055 0
M  V30 4741 H 457.939 -2.20603 1.27304 0
M  V30 4742 H 458.722 -1.83346 2.9024 0
M  V30 4743 N 461.167 -1.02423 -1.1978 0
M  V30 4744 C 462.077 -0.610919 -2.26506 0
M  V30 4745 C 463.093 0.355152 -1.70337 0
M  V30 4746 O 464.269 0.214195 -2.00258 0
M  V30 4747 C 461.334 0.0365921 -3.46681 0
M  V30 4748 C 460.395 -0.976389 -4.18049 0
M  V30 4749 C 459.628 -0.359683 -5.32487 0
M  V30 4750 O 459.851 0.838601 -5.64202 0
M  V30 4751 O 458.785 -1.08022 -5.92127 0
M  V30 4752 H 462.611 -1.49965 -2.64091 0
M  V30 4753 H 460.196 -0.794156 -1.26545 0
M  V30 4754 H 462.078 0.39786 -4.19518 0
M  V30 4755 H 460.753 0.899398 -3.10954 0
M  V30 4756 H 459.66 -1.38916 -3.47352 0
M  V30 4757 H 460.993 -1.80941 -4.57735 0
M  V30 4758 N 462.645 1.35699 -0.801477 0
M  V30 4759 C 463.593 2.3177 -0.196317 0
M  V30 4760 C 464.587 1.56388 0.651081 0
M  V30 4761 O 465.793 1.71557 0.544815 0
M  V30 4762 H 462.168 0.750669 -0.0447189 0
M  V30 4763 H 464.139 2.8036 -1.02181 0
M  V30 4764 C 462.888 3.41671 0.644702 0
M  V30 4765 H 462.211 3.998 0.0019921 0
M  V30 4766 H 463.651 4.11184 1.0346 0
M  V30 4767 C 462.11 2.84271 1.80808 0
M  V30 4768 O 462.64 2.77408 2.9053 0
M  V30 4769 N 460.846 2.41391 1.61799 0
M  V30 4770 H 460.393 2.47173 0.725493 0
M  V30 4771 H 460.351 2.03334 2.39797 0
M  V30 4772 N 464.123 0.554532 1.47522 0
M  V30 4773 C 465.033 -0.197865 2.33764 0
M  V30 4774 C 466.049 -0.914576 1.48025 0
M  V30 4775 O 467.225 -0.884067 1.80959 0
M  V30 4776 C 464.29 -1.21628 3.24665 0
M  V30 4777 C 463.351 -0.507283 4.26292 0
M  V30 4778 C 462.584 -1.47718 5.1285 0
M  V30 4779 O 462.807 -2.7118 5.01814 0
M  V30 4780 O 461.741 -1.00313 5.93482 0
M  V30 4781 H 465.567 0.50949 2.99396 0
M  V30 4782 H 463.152 0.315176 1.46038 0
M  V30 4783 H 465.034 -1.80421 3.80823 0
M  V30 4784 H 463.709 -1.9056 2.61665 0
M  V30 4785 H 462.616 0.121778 3.73902 0
M  V30 4786 H 463.949 0.140544 4.91999 0
M  V30 4787 N 465.601 -1.54893 0.290851 0
M  V30 4788 C 467.012 -1.85584 -0.203816 0
M  V30 4789 C 467.363 -1.21285 -1.54222 0
M  V30 4790 O 466.488 -0.506841 -2.10381 0
M  V30 4791 C 467.083 -3.367 -0.376595 0
M  V30 4792 C 465.642 -3.6746 -0.815485 0
M  V30 4793 C 464.789 -2.77178 0.0821087 0
M  V30 4794 H 467.74 -1.50208 0.512175 0
M  V30 4795 H 467.761 -3.60656 -1.21275 0
M  V30 4796 H 467.273 -3.8347 0.59767 0
M  V30 4797 H 465.374 -3.26201 -1.80066 0
M  V30 4798 H 465.487 -4.7478 -0.641905 0
M  V30 4799 H 463.851 -2.50925 -0.436895 0
M  V30 4800 H 464.634 -3.26767 1.05254 0
M  V30 4801 N 467.08 -0.0183926 -1.57589 0
M  V30 4802 C 468.328 0.661253 -1.90976 0
M  V30 4803 C 468.649 1.73281 -0.894353 0
M  V30 4804 O 467.919 1.9579 0.0656788 0
M  V30 4805 H 466.499 0.247233 -0.704901 0
M  V30 4806 H 469.161 -0.0636639 -1.94796 0
M  V30 4807 H 468.257 1.12083 -2.9128 0
M  V30 4808 N 468.558 1.5553 0.254621 0
M  V30 4809 C 469.783 1.81383 1.00573 0
M  V30 4810 C 470.208 0.594419 1.78461 0
M  V30 4811 O 469.566 -0.456403 1.75461 0
M  V30 4812 C 469.614 3.04892 1.92545 0
M  V30 4813 O 468.718 2.81266 3.01601 0
M  V30 4814 H 468.059 0.598969 0.286587 0
M  V30 4815 H 470.589 2.02703 0.277952 0
M  V30 4816 H 470.599 3.34119 2.34155 0
M  V30 4817 H 469.274 3.93287 1.3527 0
M  V30 4818 H 467.851 2.63185 2.64174 0
M  V30 4819 N 470.036 -0.519951 1.48776 0
M  V30 4820 C 471.261 -1.30447 1.6124 0
M  V30 4821 C 471.686 -1.86055 0.276591 0
M  V30 4822 O 471.044 -1.64915 -0.753183 0
M  V30 4823 C 471.092 -2.42406 2.66967 0
M  V30 4824 O 470.196 -3.45728 2.24824 0
M  V30 4825 H 469.537 -0.385924 0.540332 0
M  V30 4826 H 472.067 -0.624572 1.94834 0
M  V30 4827 H 472.077 -2.88447 2.88552 0
M  V30 4828 H 470.752 -2.01294 3.63941 0
M  V30 4829 H 469.329 -3.05737 2.13494 0
M  V30 4830 N 471.514 -1.37532 -0.769588 0
M  V30 4831 C 472.763 -1.32183 -1.5235 0
M  V30 4832 C 473.076 0.0906555 -1.9539 0
M  V30 4833 O 474.282 0.266628 -2.70188 0
M  V30 4834 C 472.738 -2.32029 -2.75119 0
M  V30 4835 C 472.346 -3.78816 -2.3917 0
M  V30 4836 C 474.09 -2.35694 -3.53056 0
M  V30 4837 C 471.997 -4.70388 -3.58453 0
M  V30 4838 H 470.927 -0.491275 -0.571984 0
M  V30 4839 H 473.578 -1.63004 -0.842739 0
M  V30 4840 H 471.96 -1.94229 -3.45096 0
M  V30 4841 H 473.134 -4.25466 -1.76962 0
M  V30 4842 H 471.449 -3.78117 -1.74402 0
M  V30 4843 H 474.046 -3.01312 -4.41718 0
M  V30 4844 H 474.389 -1.37117 -3.93071 0
M  V30 4845 H 474.922 -2.72212 -2.90078 0
M  V30 4846 H 471.661 -5.70102 -3.23518 0
M  V30 4847 H 471.181 -4.28442 -4.19758 0
M  V30 4848 H 472.86 -4.87628 -4.25239 0
M  V30 4849 N 472.992 0.995999 -1.22138 0
M  V30 4850 C 473.925 2.08302 -0.931952 0
M  V30 4851 C 474.903 1.62127 0.123956 0
M  V30 4852 O 476.087 1.88499 -0.00696004 0
M  V30 4853 C 473.214 3.36317 -0.401068 0
M  V30 4854 C 472.26 4.01413 -1.44117 0
M  V30 4855 S 473.093 4.42664 -3.01345 0
M  V30 4856 C 474.249 5.73853 -2.49887 0
M  V30 4857 H 474.482 2.32532 -1.85246 0
M  V30 4858 H 472.015 1.13005 -1.0521 0
M  V30 4859 H 473.973 4.10375 -0.101352 0
M  V30 4860 H 472.634 3.10123 0.498272 0
M  V30 4861 H 471.827 4.9358 -1.01952 0
M  V30 4862 H 471.429 3.33668 -1.68943 0
M  V30 4863 H 473.721 6.50039 -1.90934 0
M  V30 4864 H 474.664 6.20841 -3.40532 0
M  V30 4865 H 475.072 5.31105 -1.9128 0
M  V30 4866 N 474.47 1.03057 1.19235 0
M  V30 4867 C 475.881 0.757449 1.70645 0
M  V30 4868 C 476.232 -0.722735 1.82403 0
M  V30 4869 O 475.357 -1.56325 1.49638 0
M  V30 4870 C 475.952 1.36833 3.09939 0
M  V30 4871 C 474.511 1.14375 3.58602 0
M  V30 4872 C 473.658 1.46533 2.35422 0
M  V30 4873 H 476.609 1.19828 1.04052 0
M  V30 4874 H 476.63 0.766184 3.72706 0
M  V30 4875 H 476.142 2.44562 3.01349 0
M  V30 4876 H 474.243 0.0847542 3.72504 0
M  V30 4877 H 474.356 1.83366 4.42622 0
M  V30 4878 H 472.72 0.884712 2.38841 0
M  V30 4879 H 473.503 2.55349 2.2946 0
M  V30 4880 N 475.948 -1.35272 0.808662 0
M  V30 4881 C 477.196 -1.98316 0.389233 0
M  V30 4882 C 477.517 -1.64465 -1.04767 0
M  V30 4883 O 476.787 -0.928175 -1.72516 0
M  V30 4884 H 475.367 -0.733585 0.140935 0
M  V30 4885 H 478.029 -1.6515 1.03496 0
M  V30 4886 H 477.125 -3.08123 0.496631 0
M  V30 4887 N 477.426 -0.562348 -1.47226 0
M  V30 4888 C 478.373 0.182461 -2.30078 0
M  V30 4889 C 479.343 0.903503 -1.39377 0
M  V30 4890 O 480.528 0.898188 -1.68337 0
M  V30 4891 C 477.668 1.20322 -3.23445 0
M  V30 4892 C 476.781 0.487717 -4.29238 0
M  V30 4893 C 475.916 1.49422 -5.09752 0
M  V30 4894 C 474.955 0.763976 -6.07314 0
M  V30 4895 N 474.092 1.71755 -6.80768 0
M  V30 4896 H 478.932 -0.530169 -2.93246 0
M  V30 4897 H 476.469 -0.273276 -1.44539 0
M  V30 4898 H 478.427 1.80768 -3.76004 0
M  V30 4899 H 477.057 1.88382 -2.6213 0
M  V30 4900 H 476.109 -0.231374 -3.79696 0
M  V30 4901 H 477.421 -0.0841003 -4.98729 0
M  V30 4902 H 476.575 2.17206 -5.66486 0
M  V30 4903 H 475.314 2.09995 -4.40174 0
M  V30 4904 H 474.319 0.0722344 -5.49753 0
M  V30 4905 H 475.544 0.16391 -6.78902 0
M  V30 4906 H 473.49 2.31177 -6.13916 0
M  V30 4907 H 473.407 1.19802 -7.46447 0
M  V30 4908 H 474.675 2.38638 -7.42073 0
M  V30 4909 N 478.904 1.54736 -0.299062 0
M  V30 4910 C 480.15 2.00397 0.311244 0
M  V30 4911 C 480.483 1.18716 1.53688 0
M  V30 4912 O 479.758 0.263154 1.92712 0
M  V30 4913 C 480.041 3.53817 0.669761 0
M  V30 4914 C 479.894 4.46239 -0.564882 0
M  V30 4915 C 481.213 4.13856 1.49702 0
M  V30 4916 H 478.332 0.728493 0.111653 0
M  V30 4917 H 480.974 1.85506 -0.410774 0
M  V30 4918 H 479.124 3.66637 1.28491 0
M  V30 4919 H 480.796 4.45328 -1.20337 0
M  V30 4920 H 479.039 4.16916 -1.19849 0
M  V30 4921 H 479.71 5.5134 -0.269918 0
M  V30 4922 H 482.186 4.04461 0.977284 0
M  V30 4923 H 481.062 5.21365 1.71666 0
M  V30 4924 H 481.323 3.65608 2.48563 0
M  V30 4925 N 480.382 0.0267497 1.57577 0
M  V30 4926 C 481.33 -0.973923 2.11229 0
M  V30 4927 C 482.324 -1.33849 1.03831 0
M  V30 4928 O 483.53 -1.321 1.22269 0
M  V30 4929 H 479.905 -0.331844 0.674821 0
M  V30 4930 H 481.876 -0.496092 2.94247 0
M  V30 4931 C 480.625 -2.24798 2.65257 0
M  V30 4932 H 479.948 -1.9762 3.47543 0
M  V30 4933 H 481.388 -2.93031 3.06445 0
M  V30 4934 C 479.847 -2.97611 1.57891 0
M  V30 4935 O 480.377 -3.89629 0.97735 0
M  V30 4936 N 478.583 -2.59905 1.29992 0
M  V30 4937 H 478.13 -1.85154 1.79097 0
M  V30 4938 H 478.088 -3.08932 0.583798 0
M  V30 4939 N 481.861 -1.55662 -0.24637 0
M  V30 4940 C 483.272 -1.67953 -0.81539 0
M  V30 4941 C 483.623 -0.624302 -1.86002 0
M  V30 4942 O 482.748 0.229328 -2.15181 0
M  V30 4943 C 483.343 -3.04484 -1.48576 0
M  V30 4944 C 481.902 -3.18713 -2.00248 0
M  V30 4945 C 481.049 -2.6383 -0.853766 0
M  V30 4946 H 484 -1.58685 -0.0221692 0
M  V30 4947 H 484.021 -2.98959 -2.3538 0
M  V30 4948 H 483.533 -3.81264 -0.725222 0
M  V30 4949 H 481.634 -2.46757 -2.79181 0
M  V30 4950 H 481.747 -4.25628 -2.1995 0
M  V30 4951 H 480.111 -2.21667 -1.25442 0
M  V30 4952 H 480.894 -3.43135 -0.106302 0
M  V30 4953 N 483.339 0.512053 -1.4905 0
M  V30 4954 C 484.567 1.29116 -1.61669 0
M  V30 4955 C 484.982 1.86655 -0.283787 0
M  V30 4956 O 484.339 1.67293 0.729331 0
M  V30 4957 C 484.39 2.4293 -2.67707 0
M  V30 4958 O 484.111 1.87758 -3.95826 0
M  V30 4959 C 485.612 3.34476 -2.90931 0
M  V30 4960 H 482.832 0.392009 -0.544583 0
M  V30 4961 H 485.376 0.615881 -1.95006 0
M  V30 4962 H 483.531 3.06308 -2.37179 0
M  V30 4963 H 483.945 2.62393 -4.54148 0
M  V30 4964 H 485.419 4.10642 -3.68886 0
M  V30 4965 H 485.896 3.90801 -2.00427 0
M  V30 4966 H 486.502 2.76874 -3.22832 0
M  V30 4967 N 484.817 1.37938 0.762283 0
M  V30 4968 C 485.749 1.30349 1.88525 0
M  V30 4969 C 486.762 0.217402 1.61342 0
M  V30 4970 O 487.951 0.474291 1.72084 0
M  V30 4971 C 485.051 0.994844 3.23969 0
M  V30 4972 C 484.224 2.18829 3.78725 0
M  V30 4973 C 483.283 1.84844 4.92665 0
M  V30 4974 O 482.309 2.57244 5.07754 0
M  V30 4975 N 483.511 0.798201 5.74986 0
M  V30 4976 H 486.276 2.27114 1.95549 0
M  V30 4977 H 483.837 1.31686 0.941825 0
M  V30 4978 H 485.829 0.748168 3.97724 0
M  V30 4979 H 484.399 0.115446 3.12387 0
M  V30 4980 H 483.619 2.59615 2.96637 0
M  V30 4981 H 484.907 2.98497 4.1204 0
M  V30 4982 H 484.305 0.197611 5.65355 0
M  V30 4983 H 482.862 0.611396 6.48926 0
M  V30 4984 N 486.295 -0.989507 1.22664 0
M  V30 4985 C 487.535 -1.7447 1.06488 0
M  V30 4986 C 487.899 -1.8794 -0.392737 0
M  V30 4987 O 489.1 -2.60175 -0.675446 0
M  V30 4988 C 487.371 -3.11043 1.76031 0
M  V30 4989 S 488.93 -4.02258 1.7531 0
M  V30 4990 H 485.748 -0.600123 0.381278 0
M  V30 4991 H 488.35 -1.18283 1.55658 0
M  V30 4992 H 487.054 -2.98884 2.81241 0
M  V30 4993 H 486.585 -3.72301 1.27105 0
M  V30 4994 H 488.6 -4.89623 0.805208 0
M  V30 4995 N 487.773 -1.03688 -1.18687 0
M  V30 4996 C 488.683 -0.634908 -2.25845 0
M  V30 4997 C 489.699 0.337065 -1.70704 0
M  V30 4998 O 490.875 0.192943 -2.00474 0
M  V30 4999 C 487.94 -0.000180054 -3.467 0
M  V30 5000 C 487.001 -1.02067 -4.1699 0
M  V30 5001 C 486.234 -0.41614 -5.32075 0
M  V30 5002 O 486.457 0.778712 -5.65059 0
M  V30 5003 O 485.391 -1.14296 -5.90948 0
M  V30 5004 H 489.217 -1.52757 -2.62486 0
M  V30 5005 H 486.802 -0.807533 -1.25695 0
M  V30 5006 H 488.684 0.353342 -4.19916 0
M  V30 5007 H 487.359 0.866367 -3.11891 0
M  V30 5008 H 486.266 -1.42592 -3.45859 0
M  V30 5009 H 487.599 -1.85786 -4.5579 0
M  V30 5010 N 489.251 1.34841 -0.815825 0
M  V30 5011 C 490.214 2.27959 -0.238185 0
M  V30 5012 C 491.214 1.49983 0.579816 0
M  V30 5013 O 492.404 1.69617 0.396953 0
M  V30 5014 C 489.536 3.34314 0.666876 0
M  V30 5015 H 490.729 2.80558 -1.05958 0
M  V30 5016 H 488.282 1.44852 -0.587156 0
M  V30 5017 H 489.017 2.86916 1.5116 0
M  V30 5018 H 488.802 3.92014 0.0819106 0
M  V30 5019 H 490.292 4.0379 1.06506 0
M  V30 5020 N 490.729 0.570148 1.46925 0
M  V30 5021 C 491.659 -0.158274 2.32963 0
M  V30 5022 C 492.64 -0.896093 1.44583 0
M  V30 5023 O 493.825 -0.874022 1.7342 0
M  V30 5024 C 490.955 -1.18055 3.26619 0
M  V30 5025 C 489.909 -0.558379 4.24342 0
M  V30 5026 C 489.235 -1.68623 5.07415 0
M  V30 5027 C 490.535 0.496295 5.19937 0
M  V30 5028 H 492.229 0.560046 2.94115 0
M  V30 5029 H 489.775 0.270775 1.41431 0
M  V30 5030 H 491.728 -1.69841 3.85658 0
M  V30 5031 H 490.452 -1.92899 2.63548 0
M  V30 5032 H 489.111 -0.0617157 3.66548 0
M  V30 5033 H 488.759 -2.42402 4.40738 0
M  V30 5034 H 488.459 -1.27564 5.73586 0
M  V30 5035 H 489.983 -2.20709 5.69315 0
M  V30 5036 H 491.397 0.0640052 5.73264 0
M  V30 5037 H 489.794 0.82649 5.94381 0
M  V30 5038 H 490.864 1.38735 4.6463 0
M  V30 5039 N 492.207 -1.54576 0.307264 0
M  V30 5040 C 493.435 -2.04675 -0.302597 0
M  V30 5041 C 493.85 -1.18425 -1.47041 0
M  V30 5042 O 493.207 -0.211257 -1.81273 0
M  V30 5043 C 493.258 -3.53575 -0.752801 0
M  V30 5044 O 492.979 -4.36547 0.368536 0
M  V30 5045 C 494.48 -4.19699 -1.42717 0
M  V30 5046 H 491.7 -0.66786 -0.0648374 0
M  V30 5047 H 494.244 -1.99516 0.448716 0
M  V30 5048 H 492.399 -3.59074 -1.45412 0
M  V30 5049 H 492.813 -5.24497 0.0168937 0
M  V30 5050 H 494.287 -5.25388 -1.69327 0
M  V30 5051 H 494.764 -3.69815 -2.36925 0
M  V30 5052 H 495.37 -4.18293 -0.768856 0
M  V30 5053 N 493.685 -0.035106 -1.57561 0
M  V30 5054 C 494.618 0.979673 -2.06101 0
M  V30 5055 C 495.596 1.31378 -0.958046 0
M  V30 5056 O 496.78 1.42942 -1.22881 0
M  V30 5057 C 493.907 2.29809 -2.48808 0
M  V30 5058 C 492.953 2.11817 -3.70184 0
M  V30 5059 S 493.786 1.41143 -5.16565 0
M  V30 5060 C 494.942 2.74341 -5.62572 0
M  V30 5061 H 495.175 0.566506 -2.91853 0
M  V30 5062 H 492.708 0.176744 -1.53385 0
M  V30 5063 H 494.666 3.056 -2.74078 0
M  V30 5064 H 493.327 2.68257 -1.63392 0
M  V30 5065 H 492.52 3.09299 -3.97933 0
M  V30 5066 H 492.122 1.44168 -3.45097 0
M  V30 5067 H 494.414 3.70562 -5.67177 0
M  V30 5068 H 495.357 2.51249 -6.62027 0
M  V30 5069 H 495.765 2.79863 -4.90242 0
M  V30 5070 N 495.163 1.55791 0.238111 0
M  V30 5071 C 496.093 1.94068 1.29846 0
M  V30 5072 C 497.074 0.806726 1.49753 0
M  V30 5073 O 498.259 1.06772 1.62214 0
M  V30 5074 C 495.389 2.24302 2.65153 0
M  V30 5075 C 494.343 3.40032 2.59927 0
M  V30 5076 C 493.669 3.55829 3.99111 0
M  V30 5077 C 494.969 4.75476 2.16148 0
M  V30 5078 H 496.663 2.82887 0.980563 0
M  V30 5079 H 494.209 1.36105 0.470253 0
M  V30 5080 H 496.162 2.4967 3.39475 0
M  V30 5081 H 494.886 1.32318 2.98596 0
M  V30 5082 H 493.545 3.14687 1.88063 0
M  V30 5083 H 493.193 2.6125 4.29834 0
M  V30 5084 H 492.893 4.3366 3.96501 0
M  V30 5085 H 494.417 3.83528 4.7512 0
M  V30 5086 H 495.831 5.00158 2.80205 0
M  V30 5087 H 494.228 5.56472 2.24631 0
M  V30 5088 H 495.298 4.71946 1.11333 0
M  V30 5089 N 496.642 -0.504142 1.49319 0
M  V30 5090 C 497.882 -1.26867 1.60263 0
M  V30 5091 C 498.246 -1.89924 0.281578 0
M  V30 5092 O 499.447 -2.67479 0.266176 0
M  V30 5093 C 497.718 -2.30956 2.72753 0
M  V30 5094 S 499.277 -3.1679 3.03628 0
M  V30 5095 H 496.095 -0.431198 0.565322 0
M  V30 5096 H 498.697 -0.571407 1.86963 0
M  V30 5097 H 497.401 -1.83156 3.67263 0
M  V30 5098 H 496.932 -3.05356 2.48035 0
M  V30 5099 H 498.947 -4.31549 2.44908 0
M  V30 5100 N 498.12 -1.38341 -0.754957 0
M  V30 5101 C 499.36 -1.35888 -1.52689 0
M  V30 5102 C 499.724 0.0513682 -1.91931 0
M  V30 5103 O 500.925 0.200761 -2.68049 0
M  V30 5104 C 499.196 -2.28666 -2.74676 0
M  V30 5105 S 500.755 -2.4422 -3.64558 0
M  V30 5106 H 497.573 -0.482165 -0.522531 0
M  V30 5107 H 500.175 -1.74253 -0.886358 0
M  V30 5108 H 498.879 -3.30023 -2.43953 0
M  V30 5109 H 498.41 -1.91445 -3.43675 0
M  V30 5110 H 500.425 -1.66525 -4.67423 0
M  V30 5111 N 499.598 0.982988 -1.23187 0
M  V30 5112 C 500.53 2.07729 -0.968572 0
M  V30 5113 C 501.543 1.62702 0.0564821 0
M  V30 5114 O 502.732 1.77603 -0.178733 0
M  V30 5115 C 499.832 3.36071 -0.436974 0
M  V30 5116 C 499.005 4.10081 -1.52159 0
M  V30 5117 C 498.064 5.16701 -0.99532 0
M  V30 5118 O 497.09 5.43727 -1.68373 0
M  V30 5119 N 498.292 5.80226 0.178192 0
M  V30 5120 H 501.057 2.30894 -1.9107 0
M  V30 5121 H 498.618 1.14949 -1.1401 0
M  V30 5122 H 500.61 4.04639 -0.0700051 0
M  V30 5123 H 499.18 3.09893 0.410509 0
M  V30 5124 H 498.4 3.36004 -2.06144 0
M  V30 5125 H 499.688 4.56295 -2.25105 0
M  V30 5126 H 499.086 5.60651 0.754096 0
M  V30 5127 H 497.643 6.49982 0.486449 0
M  V30 5128 N 501.076 1.04316 1.18135 0
M  V30 5129 C 502.322 0.749128 1.88457 0
M  V30 5130 C 502.655 -0.72149 1.803 0
M  V30 5131 O 501.93 -1.52676 1.205 0
M  V30 5132 C 502.213 1.21905 3.38838 0
M  V30 5133 C 502.066 2.75195 3.55792 0
M  V30 5134 C 503.385 0.811085 4.32561 0
M  V30 5135 H 500.504 0.273611 0.684329 0
M  V30 5136 H 503.146 1.29561 1.38975 0
M  V30 5137 H 501.296 0.754137 3.8111 0
M  V30 5138 H 502.968 3.29743 3.22595 0
M  V30 5139 H 501.211 3.14899 2.98364 0
M  V30 5140 H 501.882 3.03135 4.61317 0
M  V30 5141 H 504.358 1.21118 3.98082 0
M  V30 5142 H 503.234 1.16761 5.36338 0
M  V30 5143 H 503.495 -0.285596 4.41177 0
M  V30 5144 N 502.554 -1.34406 0.822964 0
M  V30 5145 C 503.487 -2.27407 0.190124 0
M  V30 5146 C 504.465 -1.4889 -0.653486 0
M  V30 5147 O 505.649 -1.78109 -0.617216 0
M  V30 5148 C 502.776 -3.3064 -0.734477 0
M  V30 5149 C 501.822 -4.26488 0.0316099 0
M  V30 5150 S 502.655 -5.17445 1.3788 0
M  V30 5151 C 503.811 -6.24214 0.45907 0
M  V30 5152 H 504.044 -2.80733 0.978586 0
M  V30 5153 H 501.577 -1.41455 0.618866 0
M  V30 5154 H 503.535 -3.90607 -1.26238 0
M  V30 5155 H 502.196 -2.76161 -1.49646 0
M  V30 5156 H 501.389 -4.9951 -0.671285 0
M  V30 5157 H 500.991 -3.70775 0.490066 0
M  V30 5158 H 503.283 -6.76599 -0.349357 0
M  V30 5159 H 504.226 -6.98551 1.15896 0
M  V30 5160 H 504.634 -5.6448 0.0474825 0
M  V30 5161 N 504.032 -0.577932 -1.46621 0
M  V30 5162 C 505.28 -0.061566 -2.02006 0
M  V30 5163 C 505.601 1.30117 -1.4524 0
M  V30 5164 O 504.871 1.85313 -0.63529 0
M  V30 5165 H 503.451 -0.0197692 -0.746738 0
M  V30 5166 H 506.113 -0.752631 -1.79782 0
M  V30 5167 H 505.209 0.0110238 -3.12098 0
M  V30 5168 N 505.51 1.54411 -0.315457 0
M  V30 5169 C 506.458 2.25514 0.569771 0
M  V30 5170 C 507.452 1.2663 1.12522 0
M  V30 5171 O 508.658 1.44434 1.07419 0
M  V30 5172 H 505.033 0.724257 0.202376 0
M  V30 5173 H 507.004 2.98354 -0.0522895 0
M  V30 5174 C 505.753 3.02004 1.72305 0
M  V30 5175 H 505.076 3.77906 1.30488 0
M  V30 5176 H 506.516 3.55014 2.31821 0
M  V30 5177 C 504.975 2.09822 2.63583 0
M  V30 5178 O 505.505 1.67574 3.65078 0
M  V30 5179 N 503.711 1.75478 2.31637 0
M  V30 5180 H 503.258 2.10032 1.49145 0
M  V30 5181 H 503.216 1.14079 2.92973 0
M  V30 5182 N 506.988 0.0434614 1.5754 0
M  V30 5183 C 508.265 -0.671479 1.83713 0
M  V30 5184 C 508.645 -1.89495 0.930315 0
M  V30 5185 O 507.993 -2.28498 -0.0105639 0
M  V30 5186 C 508.203 -1.0361 3.33266 0
M  V30 5187 C 509.551 -1.42167 4.00092 0
M  V30 5188 O 510.575 -1.12866 3.37846 0
M  V30 5189 O 509.434 -1.96817 5.09829 0
M  V30 5190 H 506.528 -0.330726 0.75799 0
M  V30 5191 H 509.074 0.0722373 1.69546 0
M  V30 5192 H 507.846 -0.165938 3.90948 0
M  V30 5193 H 507.469 -1.83751 3.52592 0
M  V30 5194 N 508.466 -1.55915 -0.229846 0
M  V30 5195 C 509.712 -1.78807 -0.956868 0
M  V30 5196 C 510.045 -0.611687 -1.84315 0
M  V30 5197 O 509.32 0.389398 -1.90562 0
M  V30 5198 C 509.603 -3.11718 -1.80288 0
M  V30 5199 C 509.456 -4.3979 -0.943649 0
M  V30 5200 C 510.775 -3.40999 -2.78222 0
M  V30 5201 H 507.894 -0.6505 -0.346437 0
M  V30 5202 H 510.536 -1.88648 -0.226252 0
M  V30 5203 H 508.686 -3.03459 -2.42579 0
M  V30 5204 H 510.358 -4.60059 -0.338121 0
M  V30 5205 H 508.601 -4.33086 -0.248705 0
M  V30 5206 H 509.272 -5.29208 -1.5698 0
M  V30 5207 H 511.748 -3.49332 -2.26067 0
M  V30 5208 H 510.624 -4.35183 -3.34526 0
M  V30 5209 H 510.885 -2.62754 -3.55546 0
M  V30 5210 N 509.944 0.496216 -1.49584 0
M  V30 5211 C 510.907 1.57952 -1.66084 0
M  V30 5212 C 511.907 1.51729 -0.53244 0
M  V30 5213 O 513.097 1.54796 -0.79899 0
M  V30 5214 C 510.229 2.97604 -1.66268 0
M  V30 5215 H 511.422 1.44649 -2.6271 0
M  V30 5216 H 508.975 0.7208 -1.38687 0
M  V30 5217 H 509.71 3.16378 -0.712432 0
M  V30 5218 H 509.495 3.03528 -2.4822 0
M  V30 5219 H 510.985 3.76301 -1.81073 0
M  V30 5220 N 511.423 1.38739 0.74761 0
M  V30 5221 C 512.672 1.3459 1.50228 0
M  V30 5222 C 512.985 -0.0595592 1.95509 0
M  V30 5223 O 514.191 -0.22361 2.70578 0
M  V30 5224 C 512.647 2.36377 2.71393 0
M  V30 5225 C 512.255 3.82573 2.33113 0
M  V30 5226 C 513.999 2.41281 3.49262 0
M  V30 5227 C 511.906 4.76032 3.50924 0
M  V30 5228 H 510.836 0.500312 0.564096 0
M  V30 5229 H 513.487 1.64324 0.8167 0
M  V30 5230 H 511.869 1.99694 3.41962 0
M  V30 5231 H 513.043 4.28227 1.70171 0
M  V30 5232 H 511.358 3.80844 1.68365 0
M  V30 5233 H 513.955 3.08301 4.36869 0
M  V30 5234 H 514.298 1.43353 3.9084 0
M  V30 5235 H 514.831 2.76793 2.85711 0
M  V30 5236 H 511.57 5.75177 3.14408 0
M  V30 5237 H 511.09 4.35066 4.12889 0
M  V30 5238 H 512.769 4.94331 4.17427 0
M  V30 5239 N 512.901 -0.976442 1.23707 0
M  V30 5240 C 513.849 -2.09078 1.01927 0
M  V30 5241 C 514.843 -1.69345 -0.0430193 0
M  V30 5242 O 516.049 -1.79659 0.110814 0
M  V30 5243 H 512.424 -0.68398 0.312531 0
M  V30 5244 H 514.395 -2.24614 1.96447 0
M  V30 5245 C 513.144 -3.41919 0.631385 0
M  V30 5246 H 512.467 -3.72946 1.44053 0
M  V30 5247 H 513.907 -4.20817 0.518532 0
M  V30 5248 C 512.366 -3.30357 -0.660723 0
M  V30 5249 O 512.896 -3.63542 -1.70881 0
M  V30 5250 N 511.102 -2.83507 -0.638139 0
M  V30 5251 H 510.649 -2.567 0.215108 0
M  V30 5252 H 510.607 -2.76153 -1.50289 0
M  V30 5253 N 514.379 -1.04941 -1.1758 0
M  V30 5254 C 515.312 -0.592518 -2.20373 0
M  V30 5255 C 516.29 0.377561 -1.58156 0
M  V30 5256 O 517.474 0.28978 -1.86259 0
M  V30 5257 C 514.601 0.133215 -3.38438 0
M  V30 5258 C 513.647 -0.791484 -4.19092 0
M  V30 5259 S 514.48 -2.27925 -4.84572 0
M  V30 5260 C 515.636 -1.56462 -6.06028 0
M  V30 5261 H 515.869 -1.46342 -2.58788 0
M  V30 5262 H 513.402 -0.861148 -1.28155 0
M  V30 5263 H 515.36 0.545746 -4.06856 0
M  V30 5264 H 514.021 0.980124 -2.98416 0
M  V30 5265 H 513.214 -0.230039 -5.03475 0
M  V30 5266 H 512.816 -1.14326 -3.56098 0
M  V30 5267 H 515.108 -0.862539 -6.71987 0
M  V30 5268 H 516.051 -2.38583 -6.66696 0
M  V30 5269 H 516.459 -1.05313 -5.5459 0
M  V30 5270 N 515.857 1.33968 -0.830081 0
M  V30 5271 C 517.105 1.97672 -0.420734 0
M  V30 5272 C 517.426 1.66111 1.02138 0
M  V30 5273 O 516.696 0.955503 1.71017 0
M  V30 5274 H 515.276 0.73125 -0.152587 0
M  V30 5275 H 517.938 1.63483 -1.0611 0
M  V30 5276 H 517.034 3.07294 -0.545588 0
M  V30 5277 N 517.335 0.585699 1.46312 0
M  V30 5278 C 518.583 0.072278 2.01971 0
M  V30 5279 C 518.904 -1.29345 1.45928 0
M  V30 5280 O 518.174 -1.84973 0.645109 0
M  V30 5281 H 516.754 0.023729 0.746623 0
M  V30 5282 H 519.416 0.762155 1.7938 0
M  V30 5283 H 518.512 0.00552767 3.121 0
M  V30 5284 N 518.813 -1.54241 0.323641 0
M  V30 5285 C 519.776 -2.22997 -0.529602 0
M  V30 5286 C 520.776 -1.22345 -1.04347 0
M  V30 5287 O 521.966 -1.46924 -0.935889 0
M  V30 5288 C 519.098 -2.93409 -1.73562 0
M  V30 5289 H 520.291 -2.99815 0.0714518 0
M  V30 5290 H 517.844 -1.56121 0.0747258 0
M  V30 5291 H 518.579 -2.20729 -2.37591 0
M  V30 5292 H 518.364 -3.67217 -1.37456 0
M  V30 5293 H 519.854 -3.45794 -2.34128 0
M  V30 5294 N 520.291 -0.0518155 -1.57515 0
M  V30 5295 C 521.516 0.634896 -1.97443 0
M  V30 5296 C 521.941 1.63546 -0.929207 0
M  V30 5297 O 521.299 1.80981 0.107484 0
M  V30 5298 C 521.347 1.29765 -3.36442 0
M  V30 5299 O 520.451 2.41333 -3.34413 0
M  V30 5300 H 519.792 0.164994 -0.643174 0
M  V30 5301 H 522.322 -0.120407 -2.04245 0
M  V30 5302 H 522.332 1.64918 -3.73184 0
M  V30 5303 H 521.007 0.564361 -4.12053 0
M  V30 5304 H 519.584 2.08122 -3.09418 0
M  V30 5305 N 521.769 1.56035 0.221574 0
M  V30 5306 C 523.017 1.78693 0.944102 0
M  V30 5307 C 523.338 0.620317 1.8487 0
M  V30 5308 O 522.608 -0.362784 1.92512 0
M  V30 5309 H 521.188 0.659082 0.351597 0
M  V30 5310 H 523.85 1.93497 0.233435 0
M  V30 5311 H 522.946 2.70837 1.55093 0
M  V30 5312 N 523.247 -0.488276 1.49845 0
M  V30 5313 C 524.195 -1.60917 1.67954 0
M  V30 5314 C 525.189 -1.6038 0.54539 0
M  V30 5315 O 526.395 -1.64736 0.7254 0
M  V30 5316 H 522.77 -0.533658 0.529824 0
M  V30 5317 H 524.741 -1.428 2.62013 0
M  V30 5318 C 523.49 -2.98975 1.77509 0
M  V30 5319 H 522.813 -3.00099 2.6416 0
M  V30 5320 H 524.253 -3.76906 1.9421 0
M  V30 5321 C 522.712 -3.3282 0.522745 0
M  V30 5322 O 523.242 -4.00208 -0.345866 0
M  V30 5323 N 521.448 -2.8808 0.381882 0
M  V30 5324 H 520.995 -2.33415 1.08974 0
M  V30 5325 H 520.953 -3.11091 -0.454929 0
M  V30 5326 N 524.725 -1.39134 -0.740242 0
M  V30 5327 C 525.972 -1.36071 -1.49969 0
M  V30 5328 C 526.3 0.0450245 -1.94448 0
M  V30 5329 O 525.555 1.02482 -1.66721 0
M  V30 5330 C 525.854 -2.27457 -2.75678 0
M  V30 5331 C 525.52 -3.75185 -2.50094 0
M  V30 5332 C 524.182 -4.15439 -2.42825 0
M  V30 5333 C 526.534 -4.68643 -2.28086 0
M  V30 5334 C 523.862 -5.4722 -2.11584 0
M  V30 5335 C 526.214 -6.00695 -1.98363 0
M  V30 5336 C 524.878 -6.40018 -1.8956 0
M  V30 5337 H 524.148 -0.497921 -0.548777 0
M  V30 5338 H 526.795 -1.71599 -0.85007 0
M  V30 5339 H 525.1 -1.8503 -3.45356 0
M  V30 5340 H 526.797 -2.22384 -3.33686 0
M  V30 5341 H 523.387 -3.43279 -2.56627 0
M  V30 5342 H 527.571 -4.3838 -2.32672 0
M  V30 5343 H 522.827 -5.76615 -2.03287 0
M  V30 5344 H 527.001 -6.72644 -1.80341 0
M  V30 5345 H 524.628 -7.42051 -1.65117 0
M  V30 5346 N 526.204 0.969867 -1.24223 0
M  V30 5347 C 527.114 2.09806 -1.0497 0
M  V30 5348 C 528.13 1.73998 0.00886455 0
M  V30 5349 O 529.306 2.00513 -0.188848 0
M  V30 5350 C 526.371 3.40467 -0.654452 0
M  V30 5351 C 525.432 3.90236 -1.78926 0
M  V30 5352 C 524.665 5.14662 -1.41277 0
M  V30 5353 O 524.888 5.69602 -0.301632 0
M  V30 5354 O 523.822 5.58761 -2.23763 0
M  V30 5355 H 527.648 2.28942 -1.99548 0
M  V30 5356 H 525.233 1.08197 -1.03023 0
M  V30 5357 H 527.115 4.19039 -0.445452 0
M  V30 5358 H 525.79 3.22636 0.262216 0
M  V30 5359 H 524.697 3.12735 -2.05299 0
M  V30 5360 H 526.03 4.1254 -2.68462 0
M  V30 5361 N 527.682 1.05563 1.17022 0
M  V30 5362 C 528.612 0.681026 2.23348 0
M  V30 5363 C 529.593 -0.322983 1.67005 0
M  V30 5364 O 530.778 -0.199746 1.9317 0
M  V30 5365 C 527.908 0.0589053 3.4725 0
M  V30 5366 C 526.862 0.988082 4.16438 0
M  V30 5367 C 526.188 0.229646 5.34207 0
M  V30 5368 C 527.488 2.31388 4.68249 0
M  V30 5369 H 529.182 1.56993 2.54938 0
M  V30 5370 H 526.728 0.756302 1.2254 0
M  V30 5371 H 528.681 -0.214982 4.20851 0
M  V30 5372 H 527.405 -0.864968 3.14938 0
M  V30 5373 H 526.064 1.24659 3.44754 0
M  V30 5374 H 525.712 -0.697111 4.98146 0
M  V30 5375 H 525.412 0.848815 5.81437 0
M  V30 5376 H 526.936 -0.0368694 6.10589 0
M  V30 5377 H 528.35 2.09964 5.33468 0
M  V30 5378 H 526.747 2.88736 5.26072 0
M  V30 5379 H 527.817 2.94982 3.84855 0
M  V30 5380 N 529.16 -1.33526 0.837174 0
M  V30 5381 C 530.108 -2.31168 0.257698 0
M  V30 5382 C 531.102 -1.5806 -0.609388 0
M  V30 5383 O 532.308 -1.72941 -0.499139 0
M  V30 5384 H 528.683 -0.74922 0.0646058 0
M  V30 5385 H 530.654 -2.77552 1.09578 0
M  V30 5386 C 529.403 -3.4326 -0.553887 0
M  V30 5387 H 528.726 -3.99665 0.104008 0
M  V30 5388 H 530.166 -4.13782 -0.925219 0
M  V30 5389 C 528.625 -2.88965 -1.73207 0
M  V30 5390 O 529.155 -2.85013 -2.83073 0
M  V30 5391 N 527.361 -2.45596 -1.55342 0
M  V30 5392 H 526.908 -2.49009 -0.659705 0
M  V30 5393 H 526.866 -2.0962 -2.34322 0
M  V30 5394 N 530.638 -0.59345 -1.46 0
M  V30 5395 C 531.884 -0.0832754 -2.02629 0
M  V30 5396 C 532.217 1.27749 -1.46266 0
M  V30 5397 O 531.492 1.8395 -0.631866 0
M  V30 5398 C 531.775 -0.0290756 -3.60088 0
M  V30 5399 C 531.628 -1.41951 -4.26814 0
M  V30 5400 C 532.947 0.666055 -4.35031 0
M  V30 5401 H 530.066 -0.031736 -0.736316 0
M  V30 5402 H 532.708 -0.762711 -1.74019 0
M  V30 5403 H 530.858 0.549532 -3.84594 0
M  V30 5404 H 532.53 -2.04411 -4.13538 0
M  V30 5405 H 530.773 -1.98422 -3.8576 0
M  V30 5406 H 531.444 -1.33395 -5.3564 0
M  V30 5407 H 533.92 0.174401 -4.15734 0
M  V30 5408 H 532.796 0.673041 -5.44758 0
M  V30 5409 H 533.057 1.72946 -4.06869 0
M  V30 5410 N 532.116 1.54067 -0.331816 0
M  V30 5411 C 533.363 2.00715 0.268269 0
M  V30 5412 C 533.691 1.21986 1.51491 0
M  V30 5413 O 532.946 0.292309 1.93505 0
M  V30 5414 C 533.245 3.51634 0.639392 0
M  V30 5415 C 532.911 4.48018 -0.509019 0
M  V30 5416 C 531.573 4.74089 -0.824209 0
M  V30 5417 C 533.925 5.05237 -1.28003 0
M  V30 5418 C 531.253 5.54637 -1.91298 0
M  V30 5419 C 533.605 5.86972 -2.35895 0
M  V30 5420 C 532.269 6.11342 -2.67987 0
M  V30 5421 H 531.539 0.734469 0.0981667 0
M  V30 5422 H 534.186 1.8596 -0.457304 0
M  V30 5423 H 532.491 3.6416 1.44551 0
M  V30 5424 H 534.188 3.85175 1.11539 0
M  V30 5425 H 530.778 4.27851 -0.253287 0
M  V30 5426 H 534.962 4.8507 -1.04978 0
M  V30 5427 H 530.218 5.71747 -2.16599 0
M  V30 5428 H 534.392 6.30327 -2.96076 0
M  V30 5429 H 532.019 6.73544 -3.5248 0
M  V30 5430 N 533.594 0.0601682 1.57485 0
M  V30 5431 C 535.01 -0.296422 1.56823 0
M  V30 5432 C 535.21 -1.70831 1.0686 0
M  V30 5433 O 534.266 -2.4174 0.729245 0
M  V30 5434 C 535.579 -0.116681 3.00474 0
M  V30 5435 C 537.127 -0.187103 3.1244 0
M  V30 5436 C 537.602 -0.035783 4.57986 0
M  V30 5437 N 539.093 -0.0917676 4.63109 0
M  V30 5438 C 539.828 0.00107251 5.734 0
M  V30 5439 N 539.324 0.146773 6.92645 0
M  V30 5440 N 541.117 -0.0551577 5.62073 0
M  V30 5441 H 533.268 0.983055 1.88281 0
M  V30 5442 H 535.531 0.382386 0.867459 0
M  V30 5443 H 535.237 0.85712 3.41096 0
M  V30 5444 H 535.111 -0.873929 3.66936 0
M  V30 5445 H 537.498 -1.15138 2.71712 0
M  V30 5446 H 537.579 0.601052 2.48638 0
M  V30 5447 H 537.223 0.925212 4.99402 0
M  V30 5448 H 537.153 -0.843196 5.19806 0
M  V30 5449 H 539.644 -0.203261 3.77353 0
M  V30 5450 H 539.957 0.210076 7.72514 0
M  V30 5451 H 538.302 0.181979 6.94762 0
M  V30 5452 H 541.493 -0.167605 4.678 0
M  V30 5453 H 541.666 0.020652 6.47997 0
M  V30 5454 N 535.072 -1.5615 -0.213296 0
M  V30 5455 C 536.483 -1.69645 -0.779582 0
M  V30 5456 C 536.834 -0.663615 -1.84636 0
M  V30 5457 O 535.959 0.183633 -2.15619 0
M  V30 5458 C 536.554 -3.07567 -1.42084 0
M  V30 5459 C 535.113 -3.22889 -1.93442 0
M  V30 5460 C 534.26 -2.65581 -0.797612 0
M  V30 5461 H 537.211 -1.58696 0.0114951 0
M  V30 5462 H 537.232 -3.03884 -2.28986 0
M  V30 5463 H 536.744 -3.82716 -0.644187 0
M  V30 5464 H 534.845 -2.52623 -2.73884 0
M  V30 5465 H 534.958 -4.30197 -2.10872 0
M  V30 5466 H 533.322 -2.24278 -1.20712 0
M  V30 5467 H 534.105 -3.43284 -0.033494 0
M  V30 5468 N 536.55 0.480323 -1.50102 0
M  V30 5469 C 537.483 1.59789 -1.62919 0
M  V30 5470 C 538.461 1.55429 -0.477557 0
M  V30 5471 O 539.645 1.75186 -0.695851 0
M  V30 5472 C 536.772 2.98351 -1.60325 0
M  V30 5473 C 535.818 3.20899 -2.80938 0
M  V30 5474 S 536.651 3.01791 -4.4236 0
M  V30 5475 C 537.807 4.42712 -4.42444 0
M  V30 5476 H 538.04 1.48676 -2.57454 0
M  V30 5477 H 535.573 0.666996 -1.3925 0
M  V30 5478 H 537.531 3.7824 -1.59514 0
M  V30 5479 H 536.192 3.06862 -0.670419 0
M  V30 5480 H 535.385 4.22102 -2.75401 0
M  V30 5481 H 534.987 2.48768 -2.79268 0
M  V30 5482 H 537.279 5.3518 -4.15438 0
M  V30 5483 H 538.222 4.53294 -5.43995 0
M  V30 5484 H 538.63 4.24359 -3.72263 0
M  V30 5485 N 538.028 1.39524 0.732853 0
M  V30 5486 C 539.274 1.37068 1.49467 0
M  V30 5487 C 539.607 -0.0327166 1.94172 0
M  V30 5488 O 538.882 -0.998071 1.66939 0
M  V30 5489 C 539.165 2.34494 2.73285 0
M  V30 5490 C 539.018 3.83784 2.34585 0
M  V30 5491 C 540.337 2.29717 3.75391 0
M  V30 5492 H 537.456 0.499206 0.542183 0
M  V30 5493 H 540.098 1.70532 0.837783 0
M  V30 5494 H 538.248 2.06087 3.29333 0
M  V30 5495 H 539.92 4.22949 1.84151 0
M  V30 5496 H 538.163 4.00455 1.66787 0
M  V30 5497 H 538.834 4.47444 3.23262 0
M  V30 5498 H 541.31 2.54839 3.28932 0
M  V30 5499 H 540.186 2.99962 4.59689 0
M  V30 5500 H 540.447 1.30291 4.22465 0
M  V30 5501 N 539.506 -0.963266 1.24736 0
M  V30 5502 C 540.755 -1.70115 1.08369 0
M  V30 5503 C 541.068 -1.91939 -0.376688 0
M  V30 5504 O 542.274 -2.6334 -0.660624 0
M  V30 5505 C 540.73 -3.06218 1.89099 0
M  V30 5506 C 540.338 -2.92221 3.39574 0
M  V30 5507 C 542.082 -3.83848 1.81275 0
M  V30 5508 C 539.989 -4.23662 4.12631 0
M  V30 5509 H 538.919 -0.637944 0.401924 0
M  V30 5510 H 541.57 -1.07304 1.48856 0
M  V30 5511 H 539.952 -3.69884 1.41429 0
M  V30 5512 H 541.126 -2.37541 3.94856 0
M  V30 5513 H 539.441 -2.28054 3.48397 0
M  V30 5514 H 542.038 -4.81188 2.33158 0
M  V30 5515 H 542.381 -4.08949 0.778895 0
M  V30 5516 H 542.914 -3.26918 2.26649 0
M  V30 5517 H 539.653 -4.03753 5.16395 0
M  V30 5518 H 539.173 -4.78141 3.62135 0
M  V30 5519 H 540.852 -4.92256 4.19873 0
M  V30 5520 N 540.985 -1.06182 -1.16461 0
M  V30 5521 C 541.935 -0.641619 -2.18786 0
M  V30 5522 C 542.919 0.327122 -1.5754 0
M  V30 5523 O 544.111 0.142746 -1.76423 0
M  V30 5524 C 541.24 -0.0283734 -3.43288 0
M  V30 5525 C 540.326 -1.02154 -4.11613 0
M  V30 5526 N 540.717 -2.19671 -4.55608 0
M  V30 5527 C 539.015 -0.852229 -4.37782 0
M  V30 5528 C 539.716 -2.82583 -5.0845 0
M  V30 5529 N 538.692 -2.10318 -5.01266 0
M  V30 5530 H 542.494 -1.53684 -2.50516 0
M  V30 5531 H 540.008 -0.933349 -1.329 0
M  V30 5532 H 542.005 0.29049 -4.15887 0
M  V30 5533 H 540.665 0.862118 -3.13046 0
M  V30 5534 H 541.676 -2.57453 -4.49375 0
M  V30 5535 H 538.353 -0.0136314 -4.17498 0
M  V30 5536 H 539.743 -3.82298 -5.52538 0
M  V30 5537 N 542.463 1.3308 -0.844243 0
M  V30 5538 C 543.411 2.31028 -0.269954 0
M  V30 5539 C 544.405 1.58381 0.600997 0
M  V30 5540 O 545.611 1.73203 0.48996 0
M  V30 5541 H 541.986 0.748866 -0.0685782 0
M  V30 5542 H 543.957 2.76967 -1.11049 0
M  V30 5543 C 542.706 3.43549 0.535676 0
M  V30 5544 H 542.029 3.99604 -0.125202 0
M  V30 5545 H 543.469 4.14267 0.903262 0
M  V30 5546 C 541.928 2.8988 1.71672 0
M  V30 5547 O 542.458 2.86511 2.81557 0
M  V30 5548 N 540.664 2.46416 1.54037 0
M  V30 5549 H 540.211 2.49356 0.64649 0
M  V30 5550 H 540.169 2.1086 2.33207 0
M  V30 5551 N 543.941 0.601185 1.45683 0
M  V30 5552 C 545.188 0.0938811 2.02282 0
M  V30 5553 C 545.516 -1.27315 1.47041 0
M  V30 5554 O 544.771 -1.85193 0.632623 0
M  V30 5555 C 545.07 -0.00222425 3.574 0
M  V30 5556 C 544.736 1.29963 4.31764 0
M  V30 5557 C 543.398 1.65625 4.51798 0
M  V30 5558 C 545.75 2.1603 4.74321 0
M  V30 5559 C 543.078 2.87119 5.11644 0
M  V30 5560 C 545.43 3.36766 5.3551 0
M  V30 5561 C 544.094 3.72689 5.53768 0
M  V30 5562 H 543.364 0.0343535 0.740203 0
M  V30 5563 H 546.011 0.781522 1.74827 0
M  V30 5564 H 544.316 -0.773096 3.84097 0
M  V30 5565 H 546.013 -0.410794 3.9889 0
M  V30 5566 H 542.603 1.01204 4.1648 0
M  V30 5567 H 546.787 1.89778 4.58582 0
M  V30 5568 H 542.043 3.15065 5.2397 0
M  V30 5569 H 546.217 4.03713 5.67441 0
M  V30 5570 H 543.844 4.66918 5.99909 0
M  V30 5571 N 545.419 -1.53889 0.339982 0
M  V30 5572 C 546.349 -2.27843 -0.510856 0
M  V30 5573 C 547.33 -1.29267 -1.10563 0
M  V30 5574 O 548.515 -1.58104 -1.12768 0
M  V30 5575 C 545.645 -3.04857 -1.66372 0
M  V30 5576 C 544.599 -4.10907 -1.19746 0
M  V30 5577 C 543.925 -4.75855 -2.43857 0
M  V30 5578 C 545.225 -5.21435 -0.300501 0
M  V30 5579 H 546.919 -2.99212 0.106067 0
M  V30 5580 H 544.465 -1.43904 0.0524533 0
M  V30 5581 H 546.418 -3.5533 -2.26537 0
M  V30 5582 H 545.142 -2.31133 -2.30749 0
M  V30 5583 H 543.801 -3.61342 -0.618654 0
M  V30 5584 H 543.449 -3.9873 -3.06633 0
M  V30 5585 H 543.149 -5.47502 -2.13343 0
M  V30 5586 H 544.673 -5.2911 -3.04754 0
M  V30 5587 H 546.087 -5.67565 -0.80889 0
M  V30 5588 H 544.484 -6.00036 -0.0874076 0
M  V30 5589 H 545.554 -4.80328 0.664321 0
M  V30 5590 N 546.897 -0.0685191 -1.57451 0
M  V30 5591 C 547.829 0.929372 -2.09512 0
M  V30 5592 C 548.842 1.26354 -1.02657 0
M  V30 5593 O 550.031 1.2213 -1.30179 0
M  V30 5594 C 547.131 2.24612 -2.53777 0
M  V30 5595 C 546.304 2.09128 -3.84167 0
M  V30 5596 C 545.363 3.24079 -4.14559 0
M  V30 5597 O 544.389 2.99215 -4.8421 0
M  V30 5598 N 545.591 4.49077 -3.67845 0
M  V30 5599 H 548.356 0.484901 -2.95751 0
M  V30 5600 H 545.917 0.11729 -1.61475 0
M  V30 5601 H 547.909 3.00412 -2.71172 0
M  V30 5602 H 546.479 2.60569 -1.72692 0
M  V30 5603 H 545.699 1.17815 -3.76182 0
M  V30 5604 H 546.987 1.9603 -4.69521 0
M  V30 5605 H 546.385 4.72165 -3.11571 0
M  V30 5606 H 544.942 5.21915 -3.90446 0
M  V30 5607 N 548.375 1.56261 0.205012 0
M  V30 5608 C 549.6 1.84491 0.947512 0
M  V30 5609 C 550.025 0.650894 1.76479 0
M  V30 5610 O 549.383 -0.40035 1.76824 0
M  V30 5611 C 549.431 3.10863 1.82747 0
M  V30 5612 O 548.535 2.90719 2.925 0
M  V30 5613 H 547.876 0.607783 0.267386 0
M  V30 5614 H 550.406 2.03485 0.213323 0
M  V30 5615 H 550.416 3.41399 2.23407 0
M  V30 5616 H 549.091 3.97392 1.2269 0
M  V30 5617 H 547.668 2.71457 2.55667 0
M  V30 5618 N 549.853 -0.472356 1.50355 0
M  V30 5619 C 551.099 -1.22634 1.6152 0
M  V30 5620 C 551.432 -1.91645 0.313995 0
M  V30 5621 O 550.707 -1.82059 -0.684446 0
M  V30 5622 C 550.99 -2.27099 2.7946 0
M  V30 5623 C 550.843 -1.62402 4.19459 0
M  V30 5624 C 552.162 -3.28421 2.92964 0
M  V30 5625 H 549.281 -0.444494 0.587873 0
M  V30 5626 H 551.923 -0.520321 1.82737 0
M  V30 5627 H 550.073 -2.87314 2.61501 0
M  V30 5628 H 551.745 -1.05793 4.49005 0
M  V30 5629 H 549.988 -0.927184 4.23776 0
M  V30 5630 H 550.659 -2.38309 4.97909 0
M  V30 5631 H 553.135 -2.78227 3.09401 0
M  V30 5632 H 552.011 -3.98845 3.77113 0
M  V30 5633 H 552.272 -3.92467 2.03525 0
M  V30 5634 N 551.331 -1.39911 -0.725443 0
M  V30 5635 C 552.747 -1.21725 -1.03224 0
M  V30 5636 C 552.947 -0.0855224 -2.01318 0
M  V30 5637 O 552.003 0.55976 -2.46217 0
M  V30 5638 C 553.316 -2.55511 -1.58539 0
M  V30 5639 C 554.864 -2.62439 -1.70572 0
M  V30 5640 C 555.339 -3.9647 -2.29294 0
M  V30 5641 N 556.83 -3.98159 -2.36692 0
M  V30 5642 C 557.565 -4.98647 -2.83088 0
M  V30 5643 N 557.061 -6.0953 -3.2931 0
M  V30 5644 N 558.854 -4.8602 -2.82384 0
M  V30 5645 H 551.005 -2.12267 -0.075048 0
M  V30 5646 H 553.268 -0.943136 -0.0959066 0
M  V30 5647 H 552.974 -3.38926 -0.939249 0
M  V30 5648 H 552.848 -2.75905 -2.57208 0
M  V30 5649 H 555.235 -1.79401 -2.34306 0
M  V30 5650 H 555.316 -2.45885 -0.705297 0
M  V30 5651 H 554.96 -4.79942 -1.66186 0
M  V30 5652 H 554.89 -4.10349 -3.30032 0
M  V30 5653 H 557.381 -3.18085 -2.04035 0
M  V30 5654 H 557.694 -6.82106 -3.6325 0
M  V30 5655 H 556.039 -6.1311 -3.27294 0
M  V30 5656 H 559.23 -3.98493 -2.45603 0
M  V30 5657 H 559.403 -5.64478 -3.18226 0
M  V30 5658 N 552.809 0.956637 -1.25245 0
M  V30 5659 C 553.739 2.07058 -1.07931 0
M  V30 5660 C 554.72 1.70096 0.0110361 0
M  V30 5661 O 555.905 1.93555 -0.158121 0
M  V30 5662 C 553.035 3.40272 -0.695124 0
M  V30 5663 C 551.989 3.91235 -1.73549 0
M  V30 5664 C 551.315 5.20921 -1.20604 0
M  V30 5665 C 552.615 4.17837 -3.13385 0
M  V30 5666 H 554.309 2.218 -2.01109 0
M  V30 5667 H 551.855 1.06581 -0.968326 0
M  V30 5668 H 553.808 4.1765 -0.560949 0
M  V30 5669 H 552.532 3.25462 0.272355 0
M  V30 5670 H 551.191 3.16025 -1.85807 0
M  V30 5671 H 550.839 5.02479 -0.228846 0
M  V30 5672 H 550.539 5.55987 -1.90136 0
M  V30 5673 H 552.063 6.00897 -1.08421 0
M  V30 5674 H 553.477 4.8588 -3.04292 0
M  V30 5675 H 551.874 4.64154 -3.80369 0
M  V30 5676 H 552.944 3.2419 -3.60595 0
M  V30 5677 N 554.287 1.06798 1.15896 0
M  V30 5678 C 555.217 0.704677 2.22613 0
M  V30 5679 C 556.198 -0.305252 1.67339 0
M  V30 5680 O 557.383 -0.179247 1.93371 0
M  V30 5681 C 554.513 0.0957325 3.47168 0
M  V30 5682 C 553.467 1.0322 4.15367 0
M  V30 5683 C 552.793 0.286293 5.33933 0
M  V30 5684 C 554.093 2.36341 4.65768 0
M  V30 5685 H 555.787 1.59688 2.53259 0
M  V30 5686 H 553.333 0.769257 1.21731 0
M  V30 5687 H 555.286 -0.170333 4.21056 0
M  V30 5688 H 554.01 -0.831516 3.15838 0
M  V30 5689 H 552.669 1.28309 3.43413 0
M  V30 5690 H 552.317 -0.644237 4.98857 0
M  V30 5691 H 552.017 0.910436 5.80504 0
M  V30 5692 H 553.541 0.0278938 6.10594 0
M  V30 5693 H 554.955 2.1561 5.31211 0
M  V30 5694 H 553.352 2.94299 5.2298 0
M  V30 5695 H 554.422 2.99047 3.81705 0
M  V30 5696 N 555.766 -1.3263 0.851289 0
M  V30 5697 C 556.729 -2.27247 0.298541 0
M  V30 5698 C 557.729 -1.51467 -0.539847 0
M  V30 5699 O 558.919 -1.7061 -0.351843 0
M  V30 5700 C 556.051 -3.35964 -0.578004 0
M  V30 5701 H 557.244 -2.7765 1.13359 0
M  V30 5702 H 554.797 -1.43245 0.625354 0
M  V30 5703 H 555.532 -2.90823 -1.435 0
M  V30 5704 H 555.317 -3.92094 0.0220539 0
M  V30 5705 H 556.807 -4.06472 -0.957626 0
M  V30 5706 N 557.244 -0.608902 -1.45362 0
M  V30 5707 C 558.521 -0.0365378 -1.95566 0
M  V30 5708 C 558.901 1.43169 -1.55131 0
M  V30 5709 O 558.249 2.1349 -0.814513 0
M  V30 5710 C 558.459 -0.236026 -3.48201 0
M  V30 5711 C 559.807 -0.117518 -4.24437 0
M  V30 5712 O 560.831 -0.166217 -3.55812 0
M  V30 5713 O 559.69 -0.00372127 -5.465 0
M  V30 5714 H 556.784 0.0349874 -0.82626 0
M  V30 5715 H 559.33 -0.679055 -1.55521 0
M  V30 5716 H 558.102 -1.25569 -3.70605 0
M  V30 5717 H 557.725 0.441691 -3.95139 0
M  V30 5718 N 558.722 1.53707 -0.348139 0
M  V30 5719 C 559.97 2.00591 0.246478 0
M  V30 5720 C 560.291 1.23753 1.50699 0
M  V30 5721 O 559.561 0.345964 1.92821 0
M  V30 5722 H 558.141 0.741053 0.0940679 0
M  V30 5723 H 560.803 1.89139 -0.470354 0
M  V30 5724 H 559.899 3.08297 0.485714 0
M  V30 5725 N 560.2 0.0768682 1.57412 0
M  V30 5726 C 561.133 -0.924685 2.08626 0
M  V30 5727 C 562.111 -1.28792 0.992542 0
M  V30 5728 O 563.295 -1.39634 1.26628 0
M  V30 5729 C 560.422 -2.23131 2.54814 0
M  V30 5730 C 559.468 -2.01928 3.75669 0
M  V30 5731 S 560.301 -1.27397 5.20125 0
M  V30 5732 C 561.457 -2.59329 5.69648 0
M  V30 5733 H 561.69 -0.488928 2.93252 0
M  V30 5734 H 559.223 -0.136014 1.538 0
M  V30 5735 H 561.181 -2.98226 2.82084 0
M  V30 5736 H 559.842 -2.63831 1.70447 0
M  V30 5737 H 559.035 -2.98639 4.05993 0
M  V30 5738 H 558.637 -1.34967 3.48798 0
M  V30 5739 H 560.929 -3.55394 5.76803 0
M  V30 5740 H 561.872 -2.33608 6.68456 0
M  V30 5741 H 562.28 -2.66767 4.9749 0
M  V30 5742 N 561.678 -1.56367 -0.196722 0
M  V30 5743 C 562.588 -1.97617 -1.2643 0
M  V30 5744 C 563.604 -0.883598 -1.49895 0
M  V30 5745 O 564.78 -1.18921 -1.62541 0
M  V30 5746 C 561.845 -2.30595 -2.58895 0
M  V30 5747 C 560.906 -3.53551 -2.43516 0
M  V30 5748 C 560.139 -3.84946 -3.69665 0
M  V30 5749 O 560.362 -3.17655 -4.73763 0
M  V30 5750 O 559.296 -4.78379 -3.65291 0
M  V30 5751 H 563.122 -2.88648 -0.944233 0
M  V30 5752 H 560.707 -1.43901 -0.401592 0
M  V30 5753 H 562.589 -2.52889 -3.37083 0
M  V30 5754 H 561.264 -1.42732 -2.90533 0
M  V30 5755 H 560.171 -3.36507 -1.63445 0
M  V30 5756 H 561.504 -4.41875 -2.16812 0
M  V30 5757 N 563.156 0.464375 -1.50603 0
M  V30 5758 C 564.381 1.24372 -1.65971 0
M  V30 5759 C 564.806 1.84901 -0.345453 0
M  V30 5760 O 564.164 1.67596 0.691457 0
M  V30 5761 C 564.212 2.32331 -2.7578 0
M  V30 5762 O 563.316 3.37146 -2.375 0
M  V30 5763 H 562.657 0.365604 -0.554283 0
M  V30 5764 H 565.187 0.55183 -1.97018 0
M  V30 5765 H 565.197 2.77539 -2.99059 0
M  V30 5766 H 563.872 1.87648 -3.71162 0
M  V30 5767 H 562.449 2.97602 -2.24694 0
M  V30 5768 N 564.634 1.40294 0.718013 0
M  V30 5769 C 565.881 1.3844 1.47786 0
M  V30 5770 C 566.209 -0.0140838 1.94495 0
M  V30 5771 O 565.464 -0.998165 1.68331 0
M  V30 5772 C 565.763 2.31814 2.72024 0
M  V30 5773 C 565.429 3.79117 2.44093 0
M  V30 5774 C 564.091 4.19249 2.36185 0
M  V30 5775 C 566.443 4.72212 2.20602 0
M  V30 5776 C 563.771 5.50516 2.02851 0
M  V30 5777 C 566.123 6.03775 1.88781 0
M  V30 5778 C 564.787 6.42953 1.79354 0
M  V30 5779 H 564.057 0.506588 0.540786 0
M  V30 5780 H 566.704 1.72929 0.822663 0
M  V30 5781 H 565.009 1.90501 3.42369 0
M  V30 5782 H 566.706 2.27664 3.30106 0
M  V30 5783 H 563.296 3.47318 2.51133 0
M  V30 5784 H 567.48 4.42026 2.25669 0
M  V30 5785 H 562.736 5.79776 1.94088 0
M  V30 5786 H 566.91 6.75428 1.69617 0
M  V30 5787 H 564.537 7.44584 1.53291 0
M  V30 5788 N 566.112 -0.949982 1.2575 0
M  V30 5789 C 567.06 -2.06869 1.06339 0
M  V30 5790 C 568.054 -1.69399 -0.00708901 0
M  V30 5791 O 569.26 -1.79383 0.148897 0
M  V30 5792 H 565.635 -0.677197 0.326969 0
M  V30 5793 H 567.606 -2.20396 2.01167 0
M  V30 5794 C 566.355 -3.40503 0.703769 0
M  V30 5795 H 565.678 -3.69807 1.51931 0
M  V30 5796 H 567.118 -4.19623 0.607677 0
M  V30 5797 C 565.577 -3.31685 -0.5905 0
M  V30 5798 O 566.107 -3.67085 -1.63131 0
M  V30 5799 N 564.313 -2.84797 -0.577859 0
M  V30 5800 H 563.86 -2.56186 0.26951 0
M  V30 5801 H 563.818 -2.79279 -1.44398 0
M  V30 5802 N 567.59 -1.07411 -1.15328 0
M  V30 5803 C 568.537 -0.694995 -2.20087 0
M  V30 5804 C 569.507 0.313904 -1.63107 0
M  V30 5805 O 570.692 0.200216 -1.89747 0
M  V30 5806 C 567.832 -0.0996218 -3.44956 0
M  V30 5807 C 566.945 -1.16007 -4.16133 0
M  V30 5808 C 566.08 -0.529636 -5.28553 0
M  V30 5809 C 565.119 -1.57283 -5.91548 0
M  V30 5810 N 564.256 -0.964932 -6.95438 0
M  V30 5811 H 569.096 -1.5927 -2.51867 0
M  V30 5812 H 566.633 -0.796115 -1.23695 0
M  V30 5813 H 568.591 0.263197 -4.16369 0
M  V30 5814 H 567.221 0.761435 -3.13691 0
M  V30 5815 H 566.273 -1.64045 -3.4321 0
M  V30 5816 H 567.585 -1.95101 -4.59061 0
M  V30 5817 H 566.739 -0.114487 -6.06592 0
M  V30 5818 H 565.478 0.29307 -4.86819 0
M  V30 5819 H 564.483 -1.99775 -5.12221 0
M  V30 5820 H 565.708 -2.39783 -6.35359 0
M  V30 5821 H 563.654 -0.16314 -6.55797 0
M  V30 5822 H 563.571 -1.69311 -7.36797 0
M  V30 5823 H 564.839 -0.575305 -7.77374 0
M  V30 5824 N 569.068 1.32177 -0.85831 0
M  V30 5825 C 570.018 2.26307 -0.277307 0
M  V30 5826 C 571.002 1.50123 0.578946 0
M  V30 5827 O 572.194 1.71754 0.427731 0
M  V30 5828 C 569.323 3.39181 0.530232 0
M  V30 5829 C 568.409 4.22746 -0.338613 0
M  V30 5830 N 568.8 4.85265 -1.4266 0
M  V30 5831 C 567.098 4.45813 -0.129 0
M  V30 5832 C 567.799 5.47634 -1.96142 0
M  V30 5833 N 566.775 5.28794 -1.26007 0
M  V30 5834 H 570.577 2.72173 -1.10902 0
M  V30 5835 H 568.091 1.46308 -0.704816 0
M  V30 5836 H 570.088 4.05628 0.962904 0
M  V30 5837 H 568.748 2.9486 1.35969 0
M  V30 5838 H 569.759 4.85259 -1.80953 0
M  V30 5839 H 566.436 4.12163 0.665451 0
M  V30 5840 H 567.826 6.0735 -2.8736 0
M  V30 5841 N 570.547 0.616602 1.45037 0
M  V30 5842 C 571.787 0.118453 2.04056 0
M  V30 5843 C 572.151 -1.23104 1.47341 0
M  V30 5844 O 573.352 -1.82044 1.97771 0
M  V30 5845 C 571.623 0.0892842 3.57288 0
M  V30 5846 S 573.182 -0.346361 4.37431 0
M  V30 5847 H 570 0.0539728 0.708948 0
M  V30 5848 H 572.602 0.816731 1.77623 0
M  V30 5849 H 571.306 1.07481 3.96076 0
M  V30 5850 H 570.837 -0.630703 3.88311 0
M  V30 5851 H 572.852 -1.59389 4.69904 0
M  V30 5852 N 572.025 -1.5352 0.356285 0
M  V30 5853 C 572.988 -2.24071 -0.482182 0
M  V30 5854 C 573.988 -1.24531 -1.01729 0
M  V30 5855 O 575.178 -1.48876 -0.904513 0
M  V30 5856 C 572.31 -2.97025 -1.67299 0
M  V30 5857 H 573.503 -2.99596 0.135031 0
M  V30 5858 H 571.056 -1.55928 0.107825 0
M  V30 5859 H 571.791 -2.25719 -2.32855 0
M  V30 5860 H 571.576 -3.7005 -1.29636 0
M  V30 5861 H 573.066 -3.50683 -2.26741 0
M  V30 5862 N 573.503 -0.0852151 -1.57369 0
M  V30 5863 C 574.749 0.581666 -1.94279 0
M  V30 5864 C 575.082 1.68444 -0.966446 0
M  V30 5865 O 574.357 1.945 0.00215277 0
M  V30 5866 C 574.64 1.14609 -3.41375 0
M  V30 5867 C 574.493 0.0490414 -4.49773 0
M  V30 5868 C 575.812 2.04751 -3.8957 0
M  V30 5869 H 572.931 0.209972 -0.706456 0
M  V30 5870 H 575.573 -0.153915 -1.89376 0
M  V30 5871 H 573.723 1.77297 -3.45685 0
M  V30 5872 H 575.395 -0.584721 -4.57579 0
M  V30 5873 H 573.638 -0.618638 -4.29366 0
M  V30 5874 H 574.309 0.484601 -5.49869 0
M  V30 5875 H 576.785 1.51981 -3.87351 0
M  V30 5876 H 575.661 2.41173 -4.93079 0
M  V30 5877 H 575.922 2.96107 -3.28288 0
M  V30 5878 N 574.981 1.5647 0.188427 0
M  V30 5879 C 576.229 1.80655 0.905986 0
M  V30 5880 C 576.55 0.659391 1.83513 0
M  V30 5881 O 575.82 -0.321868 1.93238 0
M  V30 5882 H 574.4 0.666391 0.337538 0
M  V30 5883 H 577.062 1.93949 0.192339 0
M  V30 5884 H 576.158 2.74066 1.49313 0
M  V30 5885 N 576.459 -0.456382 1.50847 0
M  V30 5886 C 577.708 -1.2042 1.61808 0
M  V30 5887 C 578.021 -1.9278 0.330932 0
M  V30 5888 O 579.227 -2.69612 0.319643 0
M  V30 5889 C 577.683 -2.18891 2.85683 0
M  V30 5890 C 577.291 -1.52267 4.2133 0
M  V30 5891 C 579.035 -2.94224 3.05994 0
M  V30 5892 C 576.942 -2.4911 5.36375 0
M  V30 5893 H 575.872 -0.453177 0.602616 0
M  V30 5894 H 578.523 -0.473144 1.77295 0
M  V30 5895 H 576.905 -2.95351 2.63787 0
M  V30 5896 H 578.079 -0.814949 4.53536 0
M  V30 5897 H 576.394 -0.891594 4.06743 0
M  V30 5898 H 578.991 -3.66732 3.89117 0
M  V30 5899 H 579.334 -3.54469 2.18306 0
M  V30 5900 H 579.867 -2.24874 3.28141 0
M  V30 5901 H 576.606 -1.93582 6.26264 0
M  V30 5902 H 576.126 -3.17991 5.08569 0
M  V30 5903 H 577.805 -3.10637 5.67551 0
M  V30 5904 N 577.937 -1.40673 -0.710563 0
M  V30 5905 C 578.847 -1.43663 -1.85467 0
M  V30 5906 C 579.863 -0.328721 -1.70867 0
M  V30 5907 O 581.039 -0.574098 -1.93044 0
M  V30 5908 C 578.104 -1.30226 -3.21313 0
M  V30 5909 C 577.165 -2.51204 -3.48131 0
M  V30 5910 C 576.398 -2.38398 -4.77495 0
M  V30 5911 O 576.621 -1.40048 -5.5294 0
M  V30 5912 O 575.555 -3.2787 -5.04762 0
M  V30 5913 H 579.381 -2.40156 -1.859 0
M  V30 5914 H 576.966 -1.22049 -0.861652 0
M  V30 5915 H 578.848 -1.2496 -4.02446 0
M  V30 5916 H 577.523 -0.368419 -3.21597 0
M  V30 5917 H 576.43 -2.62048 -2.66987 0
M  V30 5918 H 577.763 -3.43366 -3.52648 0
M  V30 5919 N 579.415 0.9433 -1.26252 0
M  V30 5920 C 580.826 1.50404 -1.10614 0
M  V30 5921 C 581.177 1.93666 0.31429 0
M  V30 5922 O 580.302 1.79709 1.20555 0
M  V30 5923 C 580.897 2.73336 -2.00182 0
M  V30 5924 C 579.456 3.25686 -1.88695 0
M  V30 5925 C 578.603 1.98474 -1.93658 0
M  V30 5926 H 581.554 0.759006 -1.39373 0
M  V30 5927 H 581.575 3.47567 -1.54847 0
M  V30 5928 H 581.087 2.41818 -3.03555 0
M  V30 5929 H 579.188 3.61998 -0.882489 0
M  V30 5930 H 579.301 3.92935 -2.74115 0
M  V30 5931 H 577.665 2.14278 -1.37684 0
M  V30 5932 H 578.448 1.6929 -2.98657 0
M  V30 5933 N 580.893 1.08022 1.14757 0
M  V30 5934 C 581.841 0.701088 2.21783 0
M  V30 5935 C 582.835 -0.291311 1.66876 0
M  V30 5936 O 584.041 -0.154296 1.79337 0
M  V30 5937 H 580.416 0.208668 0.722469 0
M  V30 5938 H 582.387 1.61321 2.51034 0
M  V30 5939 C 581.136 0.122278 3.47485 0
M  V30 5940 H 580.459 0.877065 3.90061 0
M  V30 5941 H 581.899 -0.105248 4.23869 0
M  V30 5942 C 580.358 -1.13883 3.17068 0
M  V30 5943 O 580.888 -2.22429 3.34497 0
M  V30 5944 N 579.094 -1.04767 2.71058 0
M  V30 5945 H 578.641 -0.164302 2.57075 0
M  V30 5946 H 578.599 -1.89224 2.51081 0
M  V30 5947 N 582.371 -1.3172 0.865308 0
M  V30 5948 C 583.787 -1.4958 0.556596 0
M  V30 5949 C 583.987 -1.79763 -0.910353 0
M  V30 5950 O 583.043 -1.87351 -1.6928 0
M  V30 5951 C 584.356 -2.63277 1.45279 0
M  V30 5952 C 585.904 -2.77161 1.45433 0
M  V30 5953 C 586.379 -3.93949 2.33598 0
M  V30 5954 N 587.87 -4.01228 2.31453 0
M  V30 5955 C 588.605 -4.90855 2.96393 0
M  V30 5956 N 588.101 -5.85416 3.70486 0
M  V30 5957 N 589.894 -4.84063 2.85726 0
M  V30 5958 H 582.045 -1.10396 1.81456 0
M  V30 5959 H 584.308 -0.54507 0.775631 0
M  V30 5960 H 584.014 -2.47734 2.49641 0
M  V30 5961 H 583.888 -3.59309 1.14792 0
M  V30 5962 H 586.275 -2.9212 0.41831 0
M  V30 5963 H 586.356 -1.8181 1.79941 0
M  V30 5964 H 586 -3.79748 3.37274 0
M  V30 5965 H 585.93 -4.88598 1.96417 0
M  V30 5966 H 588.421 -3.3357 1.77593 0
M  V30 5967 H 588.734 -6.50525 4.17178 0
M  V30 5968 H 587.079 -5.85409 3.74594 0
M  V30 5969 H 590.27 -4.09163 2.27384 0
M  V30 5970 H 590.443 -5.53708 3.36617 0
M  V30 5971 N 583.85 -0.624285 -1.44708 0
M  V30 5972 C 584.76 0.0861083 -2.34442 0
M  V30 5973 C 585.776 0.84291 -1.5222 0
M  V30 5974 O 586.952 0.796723 -1.84971 0
M  V30 5975 C 584.017 1.05999 -3.30099 0
M  V30 5976 C 583.077 0.303316 -4.28227 0
M  V30 5977 C 582.311 1.23081 -5.19314 0
M  V30 5978 O 582.534 2.46929 -5.14181 0
M  V30 5979 O 581.468 0.71883 -5.97592 0
M  V30 5980 H 585.293 -0.651756 -2.96624 0
M  V30 5981 H 582.879 -0.384493 -1.44368 0
M  V30 5982 H 584.76 1.62046 -3.88997 0
M  V30 5983 H 583.436 1.77859 -2.70459 0
M  V30 5984 H 582.343 -0.300033 -3.72895 0
M  V30 5985 H 583.676 -0.375123 -4.90768 0
M  V30 5986 N 585.328 1.53329 -0.364422 0
M  V30 5987 C 586.744 1.59594 -0.0133165 0
M  V30 5988 C 586.944 1.37959 1.46865 0
M  V30 5989 O 586 1.18418 2.2301 0
M  V30 5990 C 587.313 2.97032 -0.468213 0
M  V30 5991 C 588.861 3.10138 -0.422334 0
M  V30 5992 C 589.336 4.49986 -0.853024 0
M  V30 5993 N 590.827 4.56098 -0.808037 0
M  V30 5994 C 591.562 5.62495 -1.11299 0
M  V30 5995 N 591.058 6.7665 -1.48717 0
M  V30 5996 N 592.851 5.52473 -1.03586 0
M  V30 5997 H 585.002 1.65644 -1.32951 0
M  V30 5998 H 587.265 0.77684 -0.543345 0
M  V30 5999 H 586.971 3.18 -1.5023 0
M  V30 6000 H 586.845 3.76918 0.145775 0
M  V30 6001 H 589.232 2.88881 0.602622 0
M  V30 6002 H 589.313 2.32263 -1.0718 0
M  V30 6003 H 588.957 4.7198 -1.87609 0
M  V30 6004 H 588.887 5.26289 -0.180819 0
M  V30 6005 H 591.378 3.74131 -0.532361 0
M  V30 6006 H 591.691 7.53776 -1.70415 0
M  V30 6007 H 590.036 6.78044 -1.52581 0
M  V30 6008 H 593.227 4.6217 -0.742736 0
M  V30 6009 H 593.4 6.35295 -1.27686 0
M  V30 6010 N 586.806 0.0935595 1.57322 0
M  V30 6011 C 588.055 -0.570191 1.93473 0
M  V30 6012 C 588.368 -1.69434 0.977318 0
M  V30 6013 O 589.574 -2.41914 1.23248 0
M  V30 6014 C 588.03 -1.06564 3.43762 0
M  V30 6015 C 587.638 0.0286723 4.47991 0
M  V30 6016 C 589.382 -1.70221 3.88877 0
M  V30 6017 C 587.289 -0.482046 5.89432 0
M  V30 6018 H 586.219 -0.216764 0.72217 0
M  V30 6019 H 588.87 0.169313 1.82717 0
M  V30 6020 H 587.252 -1.85878 3.49664 0
M  V30 6021 H 588.426 0.804106 4.5373 0
M  V30 6022 H 586.741 0.570336 4.12476 0
M  V30 6023 H 589.338 -2.09502 4.91948 0
M  V30 6024 H 589.681 -2.57078 3.27439 0
M  V30 6025 H 590.214 -0.974919 3.85668 0
M  V30 6026 H 586.953 0.349871 6.54566 0
M  V30 6027 H 586.473 -1.22452 5.87167 0
M  V30 6028 H 588.152 -0.951508 6.39965 0
M  V30 6029 N 588.284 -1.56567 -0.180126 0
M  V30 6030 C 589.232 -1.96632 -1.24251 0
M  V30 6031 C 590.226 -0.853818 -1.46309 0
M  V30 6032 O 591.432 -1.0389 -1.46993 0
M  V30 6033 H 587.807 -0.625476 -0.417473 0
M  V30 6034 H 589.778 -2.85201 -0.877679 0
M  V30 6035 C 588.527 -2.33486 -2.57642 0
M  V30 6036 H 587.85 -3.18626 -2.4149 0
M  V30 6037 H 589.29 -2.65371 -3.30688 0
M  V30 6038 C 587.749 -1.17499 -3.15746 0
M  V30 6039 O 588.279 -0.457956 -3.99081 0
M  V30 6040 N 586.485 -0.94786 -2.74707 0
M  V30 6041 H 586.032 -1.53269 -2.07042 0
M  V30 6042 H 585.99 -0.173626 -3.1392 0
M  V30 6043 N 589.762 0.448376 -1.51087 0
M  V30 6044 C 590.694 1.56146 -1.67783 0
M  V30 6045 C 591.707 1.52913 -0.55871 0
M  V30 6046 O 592.896 1.57889 -0.83267 0
M  V30 6047 C 589.996 2.95057 -1.66716 0
M  V30 6048 C 589.169 3.22915 -2.95033 0
M  V30 6049 C 588.228 4.41495 -2.86302 0
M  V30 6050 O 587.254 4.40688 -3.60254 0
M  V30 6051 N 588.456 5.44443 -2.014 0
M  V30 6052 H 591.221 1.42232 -2.638 0
M  V30 6053 H 588.782 0.637153 -1.48835 0
M  V30 6054 H 590.774 3.72388 -1.58458 0
M  V30 6055 H 589.344 3.02624 -0.783403 0
M  V30 6056 H 588.564 2.33985 -3.17245 0
M  V30 6057 H 589.852 3.38349 -3.79996 0
M  V30 6058 H 589.25 5.4793 -1.40674 0
M  V30 6059 H 587.807 6.2067 -1.99029 0
M  V30 6060 N 591.24 1.41047 0.703093 0
M  V30 6061 C 592.17 1.45067 1.82969 0
M  V30 6062 C 593.151 0.31016 1.67248 0
M  V30 6063 O 594.336 0.520548 1.87093 0
M  V30 6064 C 591.466 1.32478 3.2104 0
M  V30 6065 C 590.42 2.44262 3.51454 0
M  V30 6066 C 589.746 2.16742 4.88801 0
M  V30 6067 C 591.046 3.86606 3.51189 0
M  V30 6068 H 592.74 2.39353 1.79863 0
M  V30 6069 H 590.286 1.15206 0.863919 0
M  V30 6070 H 592.239 1.33904 3.99559 0
M  V30 6071 H 590.963 0.346735 3.24754 0
M  V30 6072 H 589.622 2.42107 2.75282 0
M  V30 6073 H 589.27 1.17299 4.89132 0
M  V30 6074 H 588.97 2.91643 5.10116 0
M  V30 6075 H 590.494 2.19872 5.69639 0
M  V30 6076 H 591.908 3.90517 4.19725 0
M  V30 6077 H 590.305 4.61128 3.84033 0
M  V30 6078 H 591.375 4.15296 2.50315 0
M  V30 6079 N 592.718 -0.936591 1.26751 0
M  V30 6080 C 593.648 -2.05315 1.11212 0
M  V30 6081 C 594.629 -1.70092 0.0160262 0
M  V30 6082 O 595.814 -1.93279 0.188894 0
M  V30 6083 C 592.944 -3.39123 0.749171 0
M  V30 6084 C 591.898 -3.88425 1.79751 0
M  V30 6085 C 591.224 -5.18936 1.28876 0
M  V30 6086 C 592.524 -4.12798 3.19992 0
M  V30 6087 H 594.218 -2.18573 2.04613 0
M  V30 6088 H 591.764 -1.05027 0.985159 0
M  V30 6089 H 593.717 -4.16704 0.627323 0
M  V30 6090 H 592.441 -3.25855 -0.220543 0
M  V30 6091 H 591.1 -3.13028 1.90811 0
M  V30 6092 H 590.748 -5.02051 0.308757 0
M  V30 6093 H 590.448 -5.52892 1.98958 0
M  V30 6094 H 591.972 -5.99096 1.17967 0
M  V30 6095 H 593.386 -4.80977 3.11983 0
M  V30 6096 H 591.783 -4.58044 3.87705 0
M  V30 6097 H 592.853 -3.18412 3.65707 0
M  V30 6098 N 594.196 -1.08629 -1.14182 0
M  V30 6099 C 595.144 -0.71284 -2.21408 0
M  V30 6100 C 596.138 0.282457 -1.67029 0
M  V30 6101 O 597.344 0.144783 -1.79417 0
M  V30 6102 H 593.719 -0.212497 -0.721352 0
M  V30 6103 H 595.69 -1.6265 -2.50175 0
M  V30 6104 C 594.439 -0.140704 -3.47415 0
M  V30 6105 H 593.762 -0.897739 -3.8959 0
M  V30 6106 H 595.202 0.0827677 -4.23919 0
M  V30 6107 C 593.661 1.122 -3.17668 0
M  V30 6108 O 594.191 2.20652 -3.35672 0
M  V30 6109 N 592.397 1.03328 -2.71609 0
M  V30 6110 H 591.944 0.150666 -2.57159 0
M  V30 6111 H 591.902 1.8789 -2.52081 0
M  V30 6112 N 595.674 1.31259 -0.872281 0
M  V30 6113 C 596.584 2.32221 -0.333255 0
M  V30 6114 C 597.6 1.6481 0.558013 0
M  V30 6115 O 598.776 1.96212 0.454175 0
M  V30 6116 C 595.841 3.43708 0.454479 0
M  V30 6117 C 594.902 4.26774 -0.465024 0
M  V30 6118 C 594.135 5.32937 0.28521 0
M  V30 6119 O 594.358 5.49968 1.513 0
M  V30 6120 O 593.292 6.00834 -0.358126 0
M  V30 6121 H 597.118 2.80252 -1.17016 0
M  V30 6122 H 594.703 1.352 -0.635724 0
M  V30 6123 H 596.585 4.11656 0.900963 0
M  V30 6124 H 595.26 2.97836 1.26789 0
M  V30 6125 H 594.167 3.61571 -0.960055 0
M  V30 6126 H 595.5 4.76217 -1.2441 0
M  V30 6127 N 597.152 0.631951 1.44375 0
M  V30 6128 C 598.377 0.142146 2.06912 0
M  V30 6129 C 598.802 -1.17456 1.4692 0
M  V30 6130 O 598.16 -1.72074 0.570975 0
M  V30 6131 C 598.208 0.0417952 3.60576 0
M  V30 6132 O 597.312 -1.00194 4.00044 0
M  V30 6133 H 596.653 0.0851491 0.658518 0
M  V30 6134 H 599.183 0.868863 1.85235 0
M  V30 6135 H 599.193 -0.148517 4.0773 0
M  V30 6136 H 597.868 1.0031 4.03622 0
M  V30 6137 H 596.445 -0.786131 3.64519 0
M  V30 6138 N 598.631 -1.53133 0.372548 0
M  V30 6139 C 599.561 -2.28876 -0.462412 0
M  V30 6140 C 600.542 -1.31583 -1.07796 0
M  V30 6141 O 601.727 -1.60461 -1.09389 0
M  V30 6142 C 598.857 -3.08317 -1.59868 0
M  V30 6143 C 597.811 -4.13355 -1.11003 0
M  V30 6144 C 597.137 -4.8092 -2.33708 0
M  V30 6145 C 598.437 -5.21955 -0.18983 0
M  V30 6146 H 600.131 -2.9892 0.169511 0
M  V30 6147 H 597.677 -1.43761 0.0829658 0
M  V30 6148 H 599.63 -3.60055 -2.18949 0
M  V30 6149 H 598.354 -2.35976 -2.25794 0
M  V30 6150 H 597.013 -3.62573 -0.541869 0
M  V30 6151 H 596.661 -4.05144 -2.98106 0
M  V30 6152 H 596.361 -5.51904 -2.01682 0
M  V30 6153 H 597.885 -5.35455 -2.93462 0
M  V30 6154 H 599.299 -5.69153 -0.688319 0
M  V30 6155 H 597.696 -6.00087 0.0398887 0
M  V30 6156 H 598.766 -4.78811 0.766057 0
M  V30 6157 N 600.109 -0.101901 -1.5727 0
M  V30 6158 C 601.042 0.891377 -2.10071 0
M  V30 6159 C 602.02 1.27197 -1.01291 0
M  V30 6160 O 603.204 1.37602 -1.28833 0
M  V30 6161 C 600.331 2.19049 -2.58331 0
M  V30 6162 C 599.377 1.95925 -3.78834 0
M  V30 6163 S 600.21 1.19106 -5.22086 0
M  V30 6164 C 601.366 2.50234 -5.73702 0
M  V30 6165 H 601.599 0.442212 -2.93993 0
M  V30 6166 H 599.132 0.111529 -1.53997 0
M  V30 6167 H 601.09 2.937 -2.86793 0
M  V30 6168 H 599.751 2.61086 -1.74622 0
M  V30 6169 H 598.944 2.92143 -4.10693 0
M  V30 6170 H 598.546 1.29401 -3.50901 0
M  V30 6171 H 600.838 3.46173 -5.82384 0
M  V30 6172 H 601.781 2.22944 -6.72088 0
M  V30 6173 H 602.189 2.58818 -5.01671 0
M  V30 6174 N 601.587 1.56661 0.17182 0
M  V30 6175 C 602.517 1.99401 1.21498 0
M  V30 6176 C 603.498 0.869516 1.46197 0
M  V30 6177 O 604.683 1.13556 1.57539 0
M  V30 6178 C 601.813 2.35346 2.55401 0
M  V30 6179 C 600.767 3.5075 2.45272 0
M  V30 6180 C 600.093 3.72437 3.8366 0
M  V30 6181 C 601.393 4.84216 1.95787 0
M  V30 6182 H 603.087 2.86792 0.859699 0
M  V30 6183 H 600.633 1.37977 0.412103 0
M  V30 6184 H 602.586 2.63843 3.2858 0
M  V30 6185 H 601.31 1.44864 2.92715 0
M  V30 6186 H 599.969 3.2238 1.74547 0
M  V30 6187 H 599.617 2.79246 4.18367 0
M  V30 6188 H 599.317 4.50087 3.77751 0
M  V30 6189 H 600.841 4.03334 4.58426 0
M  V30 6190 H 602.255 5.11592 2.5874 0
M  V30 6191 H 600.652 5.65498 2.00827 0
M  V30 6192 H 601.722 4.76243 0.912159 0
M  V30 6193 N 603.065 -0.440357 1.51323 0
M  V30 6194 C 604.311 -1.19181 1.64085 0
M  V30 6195 C 604.644 -1.90936 0.354575 0
M  V30 6196 O 603.919 -1.8347 -0.645675 0
M  V30 6197 C 604.202 -2.2112 2.84215 0
M  V30 6198 C 604.055 -1.53468 4.22809 0
M  V30 6199 C 605.374 -3.22133 2.99864 0
M  V30 6200 H 602.493 -0.431924 0.597169 0
M  V30 6201 H 605.135 -0.481443 1.83799 0
M  V30 6202 H 603.285 -2.81703 2.67537 0
M  V30 6203 H 604.957 -0.962455 4.51148 0
M  V30 6204 H 603.2 -0.837086 4.25647 0
M  V30 6205 H 603.871 -2.27694 5.02852 0
M  V30 6206 H 606.347 -2.71601 3.15233 0
M  V30 6207 H 605.223 -3.90756 3.85488 0
M  V30 6208 H 605.484 -3.88061 2.11804 0
M  V30 6209 N 604.543 -1.41418 -0.695603 0
M  V30 6210 C 605.771 -1.4413 -1.48439 0
M  V30 6211 C 606.186 -0.0465698 -1.88743 0
M  V30 6212 O 605.543 0.934117 -1.56782 0
M  V30 6213 C 605.594 -2.34998 -2.74696 0
M  V30 6214 O 605.315 -3.69043 -2.36091 0
M  V30 6215 C 606.816 -2.46513 -3.68438 0
M  V30 6216 H 604.036 -0.490905 -0.457442 0
M  V30 6217 H 606.58 -1.85702 -0.856454 0
M  V30 6218 H 604.735 -1.96735 -3.33728 0
M  V30 6219 H 605.149 -4.17505 -3.17474 0
M  V30 6220 H 606.623 -3.1426 -4.53811 0
M  V30 6221 H 607.1 -1.49638 -4.12922 0
M  V30 6222 H 607.706 -2.85412 -3.1531 0
M  V30 6223 N 606.021 0.929856 -1.27246 0
M  V30 6224 C 606.984 2.01172 -1.09829 0
M  V30 6225 C 607.984 1.60743 -0.0429687 0
M  V30 6226 O 609.174 1.71813 -0.287373 0
M  V30 6227 C 606.306 3.34191 -0.673003 0
M  V30 6228 H 607.499 2.18054 -2.05895 0
M  V30 6229 H 605.052 1.11036 -1.10003 0
M  V30 6230 H 605.787 3.23009 0.289134 0
M  V30 6231 H 605.572 3.64892 -1.43515 0
M  V30 6232 H 607.062 4.13646 -0.573323 0
M  V30 6233 N 607.499 1.09233 1.13605 0
M  V30 6234 C 608.429 0.751738 2.21068 0
M  V30 6235 C 609.41 -0.269688 1.67948 0
M  V30 6236 O 610.595 -0.13819 1.93708 0
M  V30 6237 C 607.725 0.16935 3.46887 0
M  V30 6238 C 606.679 1.12007 4.13084 0
M  V30 6239 C 606.005 0.399483 5.33206 0
M  V30 6240 C 607.305 2.46168 4.6065 0
M  V30 6241 H 608.999 1.65024 2.49815 0
M  V30 6242 H 606.545 0.794905 1.20072 0
M  V30 6243 H 608.498 -0.0809824 4.21322 0
M  V30 6244 H 607.222 -0.764335 3.1753 0
M  V30 6245 H 605.881 1.35564 3.40614 0
M  V30 6246 H 605.529 -0.538277 5.00112 0
M  V30 6247 H 605.229 1.03337 5.78442 0
M  V30 6248 H 606.753 0.157403 6.10397 0
M  V30 6249 H 608.167 2.26829 5.26518 0
M  V30 6250 H 606.564 3.05326 5.1662 0
M  V30 6251 H 607.634 3.07076 3.75276 0
M  V30 6252 N 608.977 -1.30795 0.87923 0
M  V30 6253 C 609.925 -2.30231 0.331112 0
M  V30 6254 C 610.919 -1.59918 -0.558794 0
M  V30 6255 O 612.125 -1.74441 -0.443866 0
M  V30 6256 H 608.5 -0.746785 0.088409 0
M  V30 6257 H 610.471 -2.73925 1.18353 0
M  V30 6258 C 609.22 -3.44848 -0.444401 0
M  V30 6259 H 608.543 -3.99131 0.231106 0
M  V30 6260 H 609.983 -4.16516 -0.793109 0
M  V30 6261 C 608.442 -2.94329 -1.63926 0
M  V30 6262 O 608.972 -2.93875 -2.73862 0
M  V30 6263 N 607.178 -2.50413 -1.4745 0
M  V30 6264 H 606.725 -2.50982 -0.58015 0
M  V30 6265 H 606.683 -2.16969 -2.27534 0
M  V30 6266 N 610.455 -0.639598 -1.44038 0
M  V30 6267 C 611.683 -0.154811 -2.0632 0
M  V30 6268 C 612.098 1.17406 -1.47856 0
M  V30 6269 O 611.455 1.72193 -0.604638 0
M  V30 6270 C 611.506 -0.0429958 -3.61474 0
M  V30 6271 O 611.227 -1.31932 -4.17763 0
M  V30 6272 C 612.728 0.469486 -4.40807 0
M  V30 6273 H 609.948 -0.0835862 -0.665773 0
M  V30 6274 H 612.492 -0.876397 -1.84769 0
M  V30 6275 H 610.647 0.629075 -3.82258 0
M  V30 6276 H 611.061 -1.16965 -5.11292 0
M  V30 6277 H 612.535 0.496712 -5.49761 0
M  V30 6278 H 613.012 1.49819 -4.12857 0
M  V30 6279 H 613.618 -0.169624 -4.24962 0
M  V30 6280 N 611.933 1.52934 -0.380664 0
M  V30 6281 C 612.883 2.22989 0.475399 0
M  V30 6282 C 613.867 1.23058 1.03661 0
M  V30 6283 O 615.059 1.48436 0.964146 0
M  V30 6284 C 612.188 3.0338 1.60671 0
M  V30 6285 C 611.274 4.107 1.05766 0
M  V30 6286 N 611.665 5.05264 0.232837 0
M  V30 6287 C 609.963 4.25676 1.33101 0
M  V30 6288 C 610.664 5.81658 -0.0695134 0
M  V30 6289 N 609.64 5.40989 0.532144 0
M  V30 6290 H 613.442 2.93456 -0.161418 0
M  V30 6291 H 610.956 1.61291 -0.189495 0
M  V30 6292 H 612.953 3.52098 2.23232 0
M  V30 6293 H 611.613 2.34446 2.24644 0
M  V30 6294 H 612.624 5.17739 -0.129204 0
M  V30 6295 H 609.301 3.6797 1.97241 0
M  V30 6296 H 610.691 6.67843 -0.737269 0
M  V30 6297 N 613.412 0.11024 1.57214 0
M  V30 6298 C 614.661 -0.549638 1.94067 0
M  V30 6299 C 614.974 -1.68388 0.995234 0
M  V30 6300 O 616.18 -2.40593 1.25807 0
M  V30 6301 C 614.636 -1.02912 3.44873 0
M  V30 6302 C 614.244 0.0761861 4.47935 0
M  V30 6303 C 615.988 -1.66087 3.9066 0
M  V30 6304 C 613.895 -0.419502 5.8991 0
M  V30 6305 H 612.825 -0.209092 0.724428 0
M  V30 6306 H 615.476 0.188683 1.82527 0
M  V30 6307 H 613.858 -1.82159 3.51616 0
M  V30 6308 H 615.032 0.852185 4.52851 0
M  V30 6309 H 613.347 0.614052 4.11847 0
M  V30 6310 H 615.944 -2.04272 4.94143 0
M  V30 6311 H 616.287 -2.53591 3.30148 0
M  V30 6312 H 616.82 -0.933959 3.86681 0
M  V30 6313 H 613.559 0.419277 6.54158 0
M  V30 6314 H 613.079 -1.16217 5.88433 0
M  V30 6315 H 614.758 -0.883577 6.40938 0
M  V30 6316 N 614.89 -1.56749 -0.16351 0
M  V30 6317 C 616.138 -1.82074 -0.87713 0
M  V30 6318 C 616.459 -0.688503 -1.82441 0
M  V30 6319 O 615.729 0.291085 -1.93725 0
M  V30 6320 H 614.309 -0.671677 -0.326893 0
M  V30 6321 H 616.971 -1.9423 -0.161459 0
M  V30 6322 H 616.067 -2.76407 -1.44934 0
M  V30 6323 N 616.368 0.432326 -1.51554 0
M  V30 6324 C 617.598 1.2019 -1.68042 0
M  V30 6325 C 618.006 1.85356 -0.379434 0
M  V30 6326 O 617.349 1.71724 0.652427 0
M  V30 6327 C 617.411 2.32387 -2.74292 0
M  V30 6328 C 617.075 1.87548 -4.16743 0
M  V30 6329 C 618.072 1.37611 -5.01357 0
M  V30 6330 C 615.757 1.95087 -4.62868 0
M  V30 6331 C 617.751 0.958069 -6.30159 0
M  V30 6332 C 615.438 1.52894 -5.91664 0
M  V30 6333 C 616.436 1.03336 -6.75137 0
M  V30 6334 O 616.124 0.617435 -8.01525 0
M  V30 6335 H 615.856 0.368132 -0.56697 0
M  V30 6336 H 618.41 0.517875 -1.98764 0
M  V30 6337 H 616.64 3.04082 -2.38895 0
M  V30 6338 H 618.329 2.94235 -2.79608 0
M  V30 6339 H 619.095 1.31178 -4.66923 0
M  V30 6340 H 614.974 2.32606 -3.98015 0
M  V30 6341 H 618.518 0.570562 -6.95263 0
M  V30 6342 H 614.415 1.58999 -6.25611 0
M  V30 6343 H 615.183 0.742835 -8.15122 0
M  V30 6344 N 617.846 1.41785 0.688094 0
M  V30 6345 C 619.123 1.32031 1.44316 0
M  V30 6346 C 619.503 -0.0486079 2.11044 0
M  V30 6347 O 618.851 -1.06332 2.02252 0
M  V30 6348 C 619.061 2.47906 2.45649 0
M  V30 6349 C 620.409 2.89415 3.10683 0
M  V30 6350 O 621.433 2.477 2.55975 0
M  V30 6351 O 620.292 3.61573 4.09789 0
M  V30 6352 H 617.386 0.519994 0.643067 0
M  V30 6353 H 619.932 1.53765 0.71794 0
M  V30 6354 H 618.704 3.39222 1.95048 0
M  V30 6355 H 618.327 2.28089 3.25671 0
M  V30 6356 N 619.324 -0.923095 1.27737 0
M  V30 6357 C 620.271 -2.02432 1.1086 0
M  V30 6358 C 621.241 -1.66098 0.00835195 0
M  V30 6359 O 622.426 -1.90027 0.171542 0
M  V30 6360 C 619.566 -3.36476 0.766671 0
M  V30 6361 C 618.679 -3.85737 1.94501 0
M  V30 6362 C 617.814 -5.08249 1.54455 0
M  V30 6363 C 616.853 -5.49818 2.6901 0
M  V30 6364 N 615.99 -6.63524 2.29521 0
M  V30 6365 H 620.83 -2.16201 2.05089 0
M  V30 6366 H 618.367 -1.05909 1.02087 0
M  V30 6367 H 620.325 -4.13569 0.549223 0
M  V30 6368 H 618.955 -3.22502 -0.13867 0
M  V30 6369 H 618.007 -3.04883 2.27487 0
M  V30 6370 H 619.319 -4.12513 2.80419 0
M  V30 6371 H 618.473 -5.92857 1.28862 0
M  V30 6372 H 617.212 -4.83261 0.656534 0
M  V30 6373 H 616.217 -4.63757 2.95313 0
M  V30 6374 H 617.442 -5.76799 3.5844 0
M  V30 6375 H 615.388 -6.40185 1.43177 0
M  V30 6376 H 615.305 -6.89978 3.08977 0
M  V30 6377 H 616.573 -7.51461 2.07187 0
M  V30 6378 N 620.802 -1.09834 -1.13024 0
M  V30 6379 C 621.765 -0.745058 -2.16752 0
M  V30 6380 C 622.765 0.227435 -1.59183 0
M  V30 6381 O 623.955 0.0050786 -1.74199 0
M  V30 6382 C 621.087 -0.102543 -3.40746 0
M  V30 6383 H 622.28 -1.66375 -2.49518 0
M  V30 6384 H 619.833 -0.898061 -1.27924 0
M  V30 6385 H 620.568 0.827177 -3.13573 0
M  V30 6386 H 620.353 -0.80235 -3.83803 0
M  V30 6387 H 621.843 0.129082 -4.174 0
M  V30 6388 N 622.28 1.30327 -0.886154 0
M  V30 6389 C 623.243 2.26376 -0.358687 0
M  V30 6390 C 624.243 1.52845 0.499498 0
M  V30 6391 O 625.433 1.71483 0.306485 0
M  V30 6392 C 622.565 3.37379 0.488726 0
M  V30 6393 H 623.758 2.74547 -1.20681 0
M  V30 6394 H 621.311 1.41536 -0.663113 0
M  V30 6395 H 622.046 2.94526 1.35739 0
M  V30 6396 H 621.831 3.91897 -0.126003 0
M  V30 6397 H 623.321 4.08868 0.84952 0
M  V30 6398 N 623.758 0.647228 1.43697 0
M  V30 6399 C 624.668 -0.0487997 2.34549 0
M  V30 6400 C 625.684 -0.818586 1.53542 0
M  V30 6401 O 626.86 -0.767195 1.86215 0
M  V30 6402 C 623.925 -1.00734 3.31743 0
M  V30 6403 C 622.986 -0.23515 4.28655 0
M  V30 6404 C 622.219 -1.14803 5.21206 0
M  V30 6405 O 622.442 -2.38717 5.18045 0
M  V30 6406 O 621.376 -0.623667 5.9866 0
M  V30 6407 H 625.202 0.698863 2.9555 0
M  V30 6408 H 622.787 0.407412 1.43738 0
M  V30 6409 H 624.669 -1.55837 3.91526 0
M  V30 6410 H 623.344 -1.73534 2.73254 0
M  V30 6411 H 622.251 0.359319 3.7237 0
M  V30 6412 H 623.584 0.453152 4.9011 0
M  V30 6413 N 625.236 -1.5273 0.388769 0
M  V30 6414 C 626.485 -2.00757 -0.194833 0
M  V30 6415 C 626.798 -1.27951 -1.47946 0
M  V30 6416 O 628.004 -1.66686 -2.14308 0
M  V30 6417 C 626.46 -3.57695 -0.397762 0
M  V30 6418 C 626.068 -4.394 0.873583 0
M  V30 6419 C 627.812 -4.14012 -0.937759 0
M  V30 6420 C 625.719 -5.87938 0.638962 0
M  V30 6421 H 624.649 -0.750101 -0.0765845 0
M  V30 6422 H 627.3 -1.76239 0.511086 0
M  V30 6423 H 625.682 -3.7846 -1.16552 0
M  V30 6424 H 626.856 -4.30403 1.64591 0
M  V30 6425 H 625.171 -3.94301 1.33849 0
M  V30 6426 H 627.768 -5.22645 -1.12899 0
M  V30 6427 H 628.111 -3.7007 -1.90666 0
M  V30 6428 H 628.644 -3.97137 -0.229588 0
M  V30 6429 H 625.383 -6.36202 1.57885 0
M  V30 6430 H 624.903 -5.99726 -0.094443 0
M  V30 6431 H 626.582 -6.46423 0.273299 0
M  V30 6432 N 626.714 -0.118576 -1.57153 0
M  V30 6433 C 627.677 0.817464 -2.14127 0
M  V30 6434 C 628.677 1.1949 -1.07604 0
M  V30 6435 O 629.867 1.12048 -1.33382 0
M  V30 6436 C 626.999 2.10541 -2.68115 0
M  V30 6437 H 628.192 0.322339 -2.98163 0
M  V30 6438 H 625.745 0.130655 -1.55753 0
M  V30 6439 H 626.48 2.64485 -1.87665 0
M  V30 6440 H 626.265 1.84425 -3.4602 0
M  V30 6441 H 627.755 2.77453 -3.12105 0
M  V30 6442 N 628.193 1.56834 0.155195 0
M  V30 6443 C 629.14 1.97646 1.19184 0
M  V30 6444 C 630.11 0.842788 1.4313 0
M  V30 6445 O 631.295 1.1042 1.55602 0
M  V30 6446 C 628.435 2.35527 2.52232 0
M  V30 6447 C 627.548 3.62147 2.35529 0
M  V30 6448 C 626.683 3.89167 3.61555 0
M  V30 6449 C 625.722 5.09084 3.39853 0
M  V30 6450 N 624.859 5.32156 4.5799 0
M  V30 6451 H 629.699 2.8601 0.836802 0
M  V30 6452 H 627.236 1.41507 0.401758 0
M  V30 6453 H 629.194 2.55516 3.29799 0
M  V30 6454 H 627.824 1.50253 2.85699 0
M  V30 6455 H 626.876 3.4998 1.49057 0
M  V30 6456 H 628.188 4.49871 2.15448 0
M  V30 6457 H 627.342 4.09611 4.47553 0
M  V30 6458 H 626.081 2.9985 3.84632 0
M  V30 6459 H 625.086 4.88522 2.52243 0
M  V30 6460 H 626.311 5.99947 3.18183 0
M  V30 6461 H 624.257 4.45791 4.81255 0
M  V30 6462 H 624.174 6.14133 4.40882 0
M  V30 6463 H 625.442 5.57091 5.45225 0
M  V30 6464 N 629.671 -0.424282 1.51781 0
M  V30 6465 C 630.618 -1.51591 1.74037 0
M  V30 6466 C 631.588 -1.55556 0.582358 0
M  V30 6467 O 632.773 -1.72364 0.818245 0
M  V30 6468 C 629.913 -2.89188 1.8832 0
M  V30 6469 C 629.026 -2.9465 3.1592 0
M  V30 6470 C 628.161 -4.23452 3.20721 0
M  V30 6471 C 627.2 -4.22831 4.42584 0
M  V30 6472 N 626.337 -5.43178 4.44862 0
M  V30 6473 H 631.177 -1.31917 2.67212 0
M  V30 6474 H 628.714 -0.640599 1.32419 0
M  V30 6475 H 630.672 -3.69044 1.94583 0
M  V30 6476 H 629.302 -3.07392 0.985402 0
M  V30 6477 H 628.354 -2.07378 3.18902 0
M  V30 6478 H 629.666 -2.90055 4.05795 0
M  V30 6479 H 628.82 -5.1169 3.25973 0
M  V30 6480 H 627.559 -4.30722 2.28757 0
M  V30 6481 H 626.564 -3.32984 4.37495 0
M  V30 6482 H 627.789 -4.17213 5.35826 0
M  V30 6483 H 625.735 -5.51145 3.55775 0
M  V30 6484 H 625.652 -5.40515 5.28563 0
M  V30 6485 H 626.92 -6.33412 4.54324 0
M  V30 6486 N 631.149 -1.42148 -0.680565 0
M  V30 6487 C 632.112 -1.4488 -1.77602 0
M  V30 6488 C 633.112 -0.337209 -1.57224 0
M  V30 6489 O 634.302 -0.597778 -1.63622 0
M  V30 6490 C 631.434 -1.27483 -3.16166 0
M  V30 6491 H 632.627 -2.42412 -1.76568 0
M  V30 6492 H 630.18 -1.28511 -0.889645 0
M  V30 6493 H 630.915 -0.30851 -3.22829 0
M  V30 6494 H 630.7 -2.08037 -3.3236 0
M  V30 6495 H 632.19 -1.32265 -3.96101 0
M  V30 6496 N 632.627 0.916307 -1.28225 0
M  V30 6497 C 633.577 2.00488 -1.08574 0
M  V30 6498 C 634.561 1.60897 -0.0101874 0
M  V30 6499 O 635.753 1.75499 -0.230034 0
M  V30 6500 C 632.882 3.35076 -0.746943 0
M  V30 6501 C 631.968 3.81077 -1.86121 0
M  V30 6502 N 632.359 3.99475 -3.10247 0
M  V30 6503 C 630.657 4.10212 -1.75048 0
M  V30 6504 C 631.358 4.37965 -3.82834 0
M  V30 6505 N 630.334 4.4608 -3.10667 0
M  V30 6506 H 634.136 2.1276 -2.02757 0
M  V30 6507 H 631.65 1.10397 -1.19107 0
M  V30 6508 H 633.647 4.12743 -0.587252 0
M  V30 6509 H 632.307 3.2416 0.187146 0
M  V30 6510 H 633.318 3.85466 -3.45885 0
M  V30 6511 H 629.995 4.07947 -0.887999 0
M  V30 6512 H 631.385 4.60183 -4.89572 0
M  V30 6513 N 634.105 1.10431 1.1244 0
M  V30 6514 C 635.052 0.753103 2.18167 0
M  V30 6515 C 636.022 -0.270549 1.63882 0
M  V30 6516 O 637.207 -0.149837 1.90211 0
M  V30 6517 C 634.347 0.191046 3.44571 0
M  V30 6518 C 633.46 1.26999 4.12911 0
M  V30 6519 C 632.595 0.669586 5.26963 0
M  V30 6520 C 631.634 1.72912 5.87169 0
M  V30 6521 N 630.771 1.14898 6.92635 0
M  V30 6522 H 635.611 1.65892 2.47556 0
M  V30 6523 H 633.148 0.828631 1.21541 0
M  V30 6524 H 635.106 -0.152712 4.1692 0
M  V30 6525 H 633.736 -0.677997 3.15599 0
M  V30 6526 H 632.788 1.73087 3.3874 0
M  V30 6527 H 634.1 2.07204 4.53727 0
M  V30 6528 H 633.254 0.275274 6.06075 0
M  V30 6529 H 631.993 -0.163895 4.87425 0
M  V30 6530 H 630.998 2.13286 5.06744 0
M  V30 6531 H 632.223 2.56544 6.28778 0
M  V30 6532 H 630.169 0.336956 6.55134 0
M  V30 6533 H 630.086 1.88786 7.32049 0
M  V30 6534 H 631.354 0.78121 7.75576 0
M  V30 6535 N 635.583 -1.29855 0.893053 0
M  V30 6536 C 636.493 -2.31661 0.370157 0
M  V30 6537 C 637.509 -1.65677 -0.531723 0
M  V30 6538 O 638.685 -1.9691 -0.422902 0
M  V30 6539 C 635.75 -3.44388 -0.399741 0
M  V30 6540 C 634.811 -4.2598 0.532861 0
M  V30 6541 C 634.044 -5.33324 -0.200388 0
M  V30 6542 O 634.267 -5.52305 -1.42531 0
M  V30 6543 O 633.201 -6.00188 0.453668 0
M  V30 6544 H 637.027 -2.78354 1.2146 0
M  V30 6545 H 634.612 -1.34171 0.657153 0
M  V30 6546 H 636.494 -4.13037 -0.835358 0
M  V30 6547 H 635.169 -2.99815 -1.22035 0
M  V30 6548 H 634.076 -3.59998 1.01746 0
M  V30 6549 H 635.409 -4.74178 1.3197 0
M  V30 6550 N 637.061 -0.65484 -1.43351 0
M  V30 6551 C 638.309 -0.168559 -2.01396 0
M  V30 6552 C 638.63 1.22235 -1.51933 0
M  V30 6553 O 637.9 1.81685 -0.732627 0
M  V30 6554 H 636.48 -0.0593244 -0.744641 0
M  V30 6555 H 639.142 -0.846871 -1.75539 0
M  V30 6556 H 638.238 -0.154428 -3.11718 0
M  V30 6557 N 638.539 1.52521 -0.396863 0
M  V30 6558 C 639.469 2.29582 0.425941 0
M  V30 6559 C 640.45 1.33281 1.05689 0
M  V30 6560 O 641.635 1.62181 1.06823 0
M  V30 6561 C 638.765 3.10821 1.54943 0
M  V30 6562 C 637.719 4.15069 1.04413 0
M  V30 6563 C 637.045 4.84578 2.26028 0
M  V30 6564 C 638.345 5.22191 0.106767 0
M  V30 6565 H 640.039 2.98612 -0.217045 0
M  V30 6566 H 637.585 1.43611 -0.105826 0
M  V30 6567 H 639.538 3.63492 2.13193 0
M  V30 6568 H 638.262 2.39538 2.22011 0
M  V30 6569 H 636.921 3.63389 0.484118 0
M  V30 6570 H 636.569 4.09835 2.91623 0
M  V30 6571 H 636.269 5.55043 1.92876 0
M  V30 6572 H 637.793 5.40056 2.84906 0
M  V30 6573 H 639.207 5.70176 0.597685 0
M  V30 6574 H 637.604 5.99947 -0.135352 0
M  V30 6575 H 638.674 4.77531 -0.842134 0
M  V30 6576 N 640.017 0.126909 1.57088 0
M  V30 6577 C 641.245 -0.53667 1.99819 0
M  V30 6578 C 641.66 -1.5972 1.00673 0
M  V30 6579 O 641.017 -1.825 0.000747365 0
M  V30 6580 C 641.068 -1.15563 3.42531 0
M  V30 6581 O 640.789 -0.137483 4.37884 0
M  V30 6582 C 642.29 -1.90176 4.00435 0
M  V30 6583 H 639.51 -0.141443 0.655923 0
M  V30 6584 H 642.054 0.215578 2.03361 0
M  V30 6585 H 640.209 -1.85861 3.39904 0
M  V30 6586 H 640.623 -0.588229 5.21191 0
M  V30 6587 H 642.097 -2.28801 5.02349 0
M  V30 6588 H 642.574 -2.78002 3.40017 0
M  V30 6589 H 643.18 -1.24623 4.06632 0
M  V30 6590 N 641.495 -1.56914 -0.146875 0
M  V30 6591 C 642.425 -2.01308 -1.1831 0
M  V30 6592 C 643.406 -0.892664 -1.44795 0
M  V30 6593 O 644.591 -1.16048 -1.55713 0
M  V30 6594 C 641.721 -2.3938 -2.51624 0
M  V30 6595 C 640.675 -3.54608 -2.3966 0
M  V30 6596 C 640.001 -3.78493 -3.77686 0
M  V30 6597 C 641.301 -4.87269 -1.88058 0
M  V30 6598 H 642.995 -2.88123 -0.813964 0
M  V30 6599 H 640.541 -1.38615 -0.3901 0
M  V30 6600 H 642.494 -2.69037 -3.24341 0
M  V30 6601 H 641.218 -1.49502 -2.90373 0
M  V30 6602 H 639.877 -3.25116 -1.69396 0
M  V30 6603 H 639.525 -2.85866 -4.13871 0
M  V30 6604 H 639.225 -4.56039 -3.70543 0
M  V30 6605 H 640.749 -4.10576 -4.51951 0
M  V30 6606 H 642.163 -5.15644 -2.50568 0
M  V30 6607 H 640.56 -5.68622 -1.91805 0
M  V30 6608 H 641.63 -4.77634 -0.836277 0
M  V30 6609 N 642.974 0.416227 -1.52004 0
M  V30 6610 C 643.921 1.50666 -1.74838 0
M  V30 6611 C 644.891 1.55245 -0.590599 0
M  V30 6612 O 646.076 1.71928 -0.827374 0
M  V30 6613 C 643.216 2.88185 -1.89851 0
M  V30 6614 C 642.329 2.92971 -3.17478 0
M  V30 6615 C 641.464 4.21745 -3.22962 0
M  V30 6616 C 640.503 4.20478 -4.4482 0
M  V30 6617 N 639.64 5.40811 -4.47736 0
M  V30 6618 H 644.48 1.30498 -2.67907 0
M  V30 6619 H 642.017 0.633568 -1.32757 0
M  V30 6620 H 643.975 3.68007 -1.96537 0
M  V30 6621 H 642.605 3.06865 -1.00169 0
M  V30 6622 H 641.657 2.05684 -3.19997 0
M  V30 6623 H 642.969 2.87899 -4.07328 0
M  V30 6624 H 642.123 5.09954 -3.28682 0
M  V30 6625 H 640.862 4.29503 -2.31038 0
M  V30 6626 H 639.867 3.30659 -4.39254 0
M  V30 6627 H 641.092 4.14366 -5.38031 0
M  V30 6628 H 639.038 5.4925 -3.58692 0
M  V30 6629 H 638.955 5.37705 -5.31422 0
M  V30 6630 H 640.223 6.30993 -4.57676 0
M  V30 6631 N 644.452 1.42507 0.673017 0
M  V30 6632 C 645.415 1.4582 1.76831 0
M  V30 6633 C 646.415 0.345542 1.57043 0
M  V30 6634 O 647.605 0.606447 1.63303 0
M  V30 6635 C 644.737 1.29158 3.15485 0
M  V30 6636 H 645.93 2.43345 1.7528 0
M  V30 6637 H 643.483 1.28981 0.882817 0
M  V30 6638 H 644.218 0.325626 3.22661 0
M  V30 6639 H 644.003 2.09797 3.31252 0
M  V30 6640 H 645.493 1.34363 3.95394 0
M  V30 6641 N 645.93 -0.909495 1.28709 0
M  V30 6642 C 646.893 -1.99399 1.13016 0
M  V30 6643 C 647.893 -1.60654 0.068536 0
M  V30 6644 O 649.083 -1.71334 0.314671 0
M  V30 6645 C 646.215 -3.33078 0.726085 0
M  V30 6646 H 647.408 -2.14751 2.09338 0
M  V30 6647 H 644.961 -1.09272 1.11756 0
M  V30 6648 H 645.696 -3.23428 -0.23771 0
M  V30 6649 H 645.481 -3.62562 1.49302 0
M  V30 6650 H 646.971 -4.12681 0.639058 0
M  V30 6651 N 647.408 -1.11026 -1.11852 0
M  V30 6652 C 648.371 -0.768006 -2.1595 0
M  V30 6653 C 649.371 0.210538 -1.59416 0
M  V30 6654 O 650.561 -0.0133978 -1.74195 0
M  V30 6655 C 647.693 -0.138678 -3.40618 0
M  V30 6656 H 648.886 -1.69012 -2.4774 0
M  V30 6657 H 646.439 -0.911578 -1.26964 0
M  V30 6658 H 647.174 0.793872 -3.14433 0
M  V30 6659 H 646.959 -0.843012 -3.8293 0
M  V30 6660 H 648.449 0.0848039 -4.17514 0
M  V30 6661 N 648.886 1.2938 -0.899927 0
M  V30 6662 C 649.816 2.30144 -0.39446 0
M  V30 6663 C 650.797 1.61611 0.530639 0
M  V30 6664 O 651.982 1.89119 0.441319 0
M  V30 6665 C 649.112 3.45229 0.37868 0
M  V30 6666 C 648.066 4.25564 -0.456012 0
M  V30 6667 C 647.392 5.32848 0.444637 0
M  V30 6668 C 648.692 4.93651 -1.70605 0
M  V30 6669 H 650.386 2.72673 -1.23653 0
M  V30 6670 H 647.932 1.31086 -0.596034 0
M  V30 6671 H 649.885 4.14797 0.743037 0
M  V30 6672 H 648.609 3.01545 1.25453 0
M  V30 6673 H 647.268 3.57704 -0.802704 0
M  V30 6674 H 646.916 4.85408 1.31863 0
M  V30 6675 H 646.616 5.87497 -0.110154 0
M  V30 6676 H 648.14 6.05268 0.805182 0
M  V30 6677 H 649.554 5.55655 -1.41141 0
M  V30 6678 H 647.951 5.58233 -2.20217 0
M  V30 6679 H 649.021 4.18926 -2.4419 0
M  V30 6680 N 650.364 0.662433 1.43002 0
M  V30 6681 C 651.327 -0.0142016 2.29196 0
M  V30 6682 C 652.327 -0.741394 1.42688 0
M  V30 6683 O 653.517 -0.581257 1.64216 0
M  V30 6684 C 650.649 -1.03084 3.24941 0
M  V30 6685 H 651.842 0.7443 2.90517 0
M  V30 6686 H 649.395 0.424133 1.50435 0
M  V30 6687 H 650.13 -1.81826 2.68533 0
M  V30 6688 H 649.915 -0.512946 3.8873 0
M  V30 6689 H 651.405 -1.50308 3.89612 0
M  V30 6690 N 651.842 -1.52309 0.404946 0
M  V30 6691 C 652.772 -2.29805 -0.41376 0
M  V30 6692 C 653.753 -1.3384 -1.0498 0
M  V30 6693 O 654.938 -1.62745 -1.05961 0
M  V30 6694 C 652.068 -3.11639 -1.53292 0
M  V30 6695 C 651.022 -4.15616 -1.02211 0
M  V30 6696 C 650.348 -4.8577 -2.23455 0
M  V30 6697 C 651.648 -5.2224 -0.0790725 0
M  V30 6698 H 653.342 -2.98493 0.232878 0
M  V30 6699 H 650.888 -1.43552 0.113441 0
M  V30 6700 H 652.841 -3.64618 -2.11262 0
M  V30 6701 H 651.565 -2.40712 -2.20738 0
M  V30 6702 H 650.224 -3.63641 -0.46484 0
M  V30 6703 H 649.872 -4.11376 -2.89445 0
M  V30 6704 H 649.572 -5.56058 -1.89929 0
M  V30 6705 H 651.096 -5.4156 -2.82038 0
M  V30 6706 H 652.51 -5.70485 -0.567438 0
M  V30 6707 H 650.907 -5.99867 0.167167 0
M  V30 6708 H 651.977 -4.77078 0.867447 0
M  V30 6709 N 653.32 -0.135238 -1.57019 0
M  V30 6710 C 654.568 0.51777 -1.95355 0
M  V30 6711 C 654.889 1.6617 -1.02042 0
M  V30 6712 O 654.159 1.95738 -0.0797343 0
M  V30 6713 H 652.739 0.194264 -0.721298 0
M  V30 6714 H 655.401 -0.207983 -1.93787 0
M  V30 6715 H 654.497 0.901675 -2.98791 0
M  V30 6716 N 654.798 1.5699 0.138552 0
M  V30 6717 C 656.028 1.87704 0.863184 0
M  V30 6718 C 656.436 0.722411 1.74865 0
M  V30 6719 O 655.779 -0.316636 1.80951 0
M  V30 6720 C 655.841 3.13219 1.76449 0
M  V30 6721 C 655.505 4.44648 1.05532 0
M  V30 6722 C 656.502 5.18318 0.405252 0
M  V30 6723 C 654.187 4.91367 1.04231 0
M  V30 6724 C 656.181 6.36916 -0.24835 0
M  V30 6725 C 653.868 6.09887 0.384904 0
M  V30 6726 C 654.866 6.82508 -0.259292 0
M  V30 6727 O 654.554 7.98775 -0.906258 0
M  V30 6728 H 654.286 0.626255 0.254521 0
M  V30 6729 H 656.84 2.04966 0.133472 0
M  V30 6730 H 655.07 2.91988 2.53535 0
M  V30 6731 H 656.759 3.30111 2.36181 0
M  V30 6732 H 657.525 4.83289 0.407053 0
M  V30 6733 H 653.404 4.34759 1.53315 0
M  V30 6734 H 656.948 6.93538 -0.751755 0
M  V30 6735 H 652.845 6.44376 0.380799 0
M  V30 6736 H 653.613 8.14494 -0.80877 0
M  V30 6737 N 656.276 -0.40816 1.52223 0
M  V30 6738 C 657.206 -1.5042 1.78595 0
M  V30 6739 C 658.187 -1.57723 0.636974 0
M  V30 6740 O 659.372 -1.72982 0.882664 0
M  V30 6741 C 656.502 -2.88232 1.93751 0
M  V30 6742 C 655.456 -2.95779 3.09352 0
M  V30 6743 C 654.782 -4.35855 3.09732 0
M  V30 6744 C 656.082 -2.67175 4.48793 0
M  V30 6745 H 657.776 -1.28601 2.70374 0
M  V30 6746 H 655.322 -0.617221 1.30101 0
M  V30 6747 H 657.275 -3.64895 2.10783 0
M  V30 6748 H 655.999 -3.11347 0.986443 0
M  V30 6749 H 654.658 -2.21561 2.92072 0
M  V30 6750 H 654.306 -4.55981 2.12346 0
M  V30 6751 H 654.006 -4.41829 3.87377 0
M  V30 6752 H 655.53 -5.14451 3.28895 0
M  V30 6753 H 656.944 -3.3356 4.66273 0
M  V30 6754 H 655.341 -2.84523 5.28362 0
M  V30 6755 H 656.411 -1.62609 4.56822 0
M  V30 6756 N 657.755 -1.42862 -0.66545 0
M  V30 6757 C 658.98 -1.47456 -1.45848 0
M  V30 6758 C 659.405 -0.0900312 -1.87884 0
M  V30 6759 O 658.763 0.913587 -1.56599 0
M  V30 6760 C 658.811 -2.41514 -2.67774 0
M  V30 6761 O 657.915 -1.89296 -3.66389 0
M  V30 6762 H 657.256 -0.499236 -0.437789 0
M  V30 6763 H 659.786 -1.8765 -0.815394 0
M  V30 6764 H 659.796 -2.58409 -3.15735 0
M  V30 6765 H 658.471 -3.42099 -2.36519 0
M  V30 6766 H 657.048 -1.82003 -3.25468 0
M  V30 6767 N 659.233 0.902656 -1.29189 0
M  V30 6768 C 660.143 2.03946 -1.15944 0
M  V30 6769 C 661.159 1.738 -0.0833803 0
M  V30 6770 O 662.335 1.9923 -0.29487 0
M  V30 6771 C 659.4 3.36519 -0.834006 0
M  V30 6772 C 658.461 3.80203 -1.9936 0
M  V30 6773 C 657.694 5.06449 -1.68359 0
M  V30 6774 O 657.917 5.67202 -0.603141 0
M  V30 6775 O 656.851 5.46114 -2.53067 0
M  V30 6776 H 660.677 2.18043 -2.11403 0
M  V30 6777 H 658.262 1.02584 -1.08613 0
M  V30 6778 H 660.144 4.16089 -0.666949 0
M  V30 6779 H 658.819 3.23573 0.0908245 0
M  V30 6780 H 657.726 3.01413 -2.21588 0
M  V30 6781 H 659.059 3.97729 -2.89952 0
M  V30 6782 N 660.711 1.11618 1.11262 0
M  V30 6783 C 661.674 0.779447 2.15539 0
M  V30 6784 C 662.674 -0.202081 1.59525 0
M  V30 6785 O 663.864 0.0226356 1.74185 0
M  V30 6786 C 660.996 0.15674 3.40539 0
M  V30 6787 H 662.189 1.70324 2.4684 0
M  V30 6788 H 659.742 0.918298 1.26479 0
M  V30 6789 H 660.477 -0.777186 3.1485 0
M  V30 6790 H 660.262 0.863308 3.82478 0
M  V30 6791 H 661.752 -0.062661 4.17553 0
M  V30 6792 N 662.189 -1.289 0.906776 0
M  V30 6793 C 663.099 -2.31256 0.394707 0
M  V30 6794 C 664.115 -1.66231 -0.514121 0
M  V30 6795 O 665.291 -1.97347 -0.401994 0
M  V30 6796 C 662.356 -3.44792 -0.363191 0
M  V30 6797 C 661.417 -4.25391 0.578012 0
M  V30 6798 C 660.65 -5.33506 -0.143811 0
M  V30 6799 O 660.873 -5.53786 -1.36665 0
M  V30 6800 O 659.807 -5.99673 0.5173 0
M  V30 6801 H 663.633 -2.77051 1.24405 0
M  V30 6802 H 661.218 -1.33466 0.671346 0
M  V30 6803 H 663.1 -4.139 -0.791503 0
M  V30 6804 H 661.775 -3.01093 -1.18848 0
M  V30 6805 H 660.682 -3.58899 1.05558 0
M  V30 6806 H 662.015 -4.72752 1.36992 0
M  V30 6807 N 663.667 -0.670007 -1.42649 0
M  V30 6808 C 664.914 -0.190286 -2.01604 0
M  V30 6809 C 665.242 1.20155 -1.52948 0
M  V30 6810 O 664.497 1.81964 -0.72026 0
M  V30 6811 C 664.796 -0.168298 -3.57004 0
M  V30 6812 C 664.462 -1.50415 -4.25072 0
M  V30 6813 C 663.124 -1.86992 -4.43382 0
M  V30 6814 C 665.476 -2.38414 -4.63474 0
M  V30 6815 C 662.804 -3.11203 -4.97363 0
M  V30 6816 C 665.156 -3.61933 -5.18833 0
M  V30 6817 C 663.82 -3.98685 -5.35356 0
M  V30 6818 H 663.09 -0.0696305 -0.737721 0
M  V30 6819 H 665.737 -0.864044 -1.70899 0
M  V30 6820 H 664.042 0.588958 -3.87348 0
M  V30 6821 H 665.739 0.22001 -4.00396 0
M  V30 6822 H 662.329 -1.20959 -4.11177 0
M  V30 6823 H 666.513 -2.11442 -4.49006 0
M  V30 6824 H 661.769 -3.39705 -5.08341 0
M  V30 6825 H 665.943 -4.30326 -5.47533 0
M  V30 6826 H 663.57 -4.95009 -5.76949 0
M  V30 6827 N 665.145 1.52092 -0.413018 0
M  V30 6828 C 666.422 1.94356 0.22024 0
M  V30 6829 C 666.802 1.35017 1.62277 0
M  V30 6830 O 666.15 0.527511 2.22328 0
M  V30 6831 C 666.36 3.48289 0.222638 0
M  V30 6832 C 667.708 4.22313 0.440098 0
M  V30 6833 O 668.732 3.54919 0.301826 0
M  V30 6834 O 667.591 5.41829 0.712984 0
M  V30 6835 H 664.685 0.814536 0.14304 0
M  V30 6836 H 667.231 1.63083 -0.469242 0
M  V30 6837 H 666.003 3.83872 -0.758836 0
M  V30 6838 H 665.626 3.85934 0.956057 0
M  V30 6839 N 666.623 0.143563 1.56945 0
M  V30 6840 C 667.848 -0.518701 2.00809 0
M  V30 6841 C 668.273 -1.5785 1.02298 0
M  V30 6842 O 667.631 -1.813 -0.0017839 0
M  V30 6843 C 667.679 -1.09929 3.43436 0
M  V30 6844 O 666.783 -2.21425 3.47915 0
M  V30 6845 H 666.124 -0.127215 0.6517 0
M  V30 6846 H 668.654 0.239283 2.03196 0
M  V30 6847 H 668.664 -1.4288 3.82164 0
M  V30 6848 H 667.339 -0.323162 4.14643 0
M  V30 6849 H 665.916 -1.89728 3.21026 0
M  V30 6850 N 668.101 -1.57061 -0.130224 0
M  V30 6851 C 669.347 -1.85412 -0.836295 0
M  V30 6852 C 669.702 -0.729831 -1.7802 0
M  V30 6853 O 668.995 0.271021 -1.89673 0
M  V30 6854 C 669.189 -3.17878 -1.63365 0
M  V30 6855 C 669.018 -4.43086 -0.768453 0
M  V30 6856 C 667.788 -5.03488 -0.427598 0
M  V30 6857 C 669.986 -5.14219 -0.0911495 0
M  V30 6858 N 667.968 -6.12253 0.449439 0
M  V30 6859 C 669.339 -6.16632 0.645341 0
M  V30 6860 C 671.394 -4.97898 -0.0135625 0
M  V30 6861 C 670.097 -7.0449 1.45212 0
M  V30 6862 C 672.123 -5.86234 0.780001 0
M  V30 6863 C 671.485 -6.88141 1.50472 0
M  V30 6864 H 667.584 -0.728875 -0.283311 0
M  V30 6865 H 670.168 -1.9444 -0.100662 0
M  V30 6866 H 668.339 -3.09967 -2.3404 0
M  V30 6867 H 670.071 -3.34076 -2.28419 0
M  V30 6868 H 666.826 -4.67344 -0.767264 0
M  V30 6869 H 667.25 -6.71263 0.879476 0
M  V30 6870 H 671.892 -4.19082 -0.559511 0
M  V30 6871 H 669.61 -7.82722 2.00926 0
M  V30 6872 H 673.196 -5.75671 0.842246 0
M  V30 6873 H 672.076 -7.55311 2.1089 0
M  V30 6874 N 669.579 0.400081 -1.52437 0
M  V30 6875 C 670.825 1.14788 -1.67187 0
M  V30 6876 C 671.158 1.89928 -0.405074 0
M  V30 6877 O 670.433 1.85118 0.596804 0
M  V30 6878 C 670.716 2.13507 -2.89977 0
M  V30 6879 C 670.569 1.42204 -4.2673 0
M  V30 6880 C 671.888 3.14069 -3.083 0
M  V30 6881 H 669.007 0.415939 -0.608411 0
M  V30 6882 H 671.649 0.432542 -1.85011 0
M  V30 6883 H 669.799 2.7451 -2.74912 0
M  V30 6884 H 671.471 0.842503 -4.53541 0
M  V30 6885 H 669.714 0.723939 -4.27717 0
M  V30 6886 H 670.385 2.14281 -5.08712 0
M  V30 6887 H 672.861 2.63148 -3.22323 0
M  V30 6888 H 671.737 3.80398 -3.95713 0
M  V30 6889 H 671.998 3.82309 -2.22018 0
M  V30 6890 N 671.057 1.43213 0.657864 0
M  V30 6891 C 672.473 1.26511 0.972992 0
M  V30 6892 C 672.673 0.181477 2.00681 0
M  V30 6893 O 671.729 -0.441649 2.48608 0
M  V30 6894 C 673.042 2.62784 1.46168 0
M  V30 6895 C 674.59 2.70278 1.57857 0
M  V30 6896 C 675.065 4.06958 2.10117 0
M  V30 6897 N 676.556 4.08999 2.17426 0
M  V30 6898 C 677.291 5.11585 2.58975 0
M  V30 6899 N 676.787 6.24548 2.99853 0
M  V30 6900 N 678.58 4.9894 2.58873 0
M  V30 6901 H 670.731 2.12384 -0.0263129 0
M  V30 6902 H 672.994 0.946638 0.0507992 0
M  V30 6903 H 672.7 3.43022 0.776474 0
M  V30 6904 H 672.574 2.87863 2.43751 0
M  V30 6905 H 674.961 1.90376 2.25479 0
M  V30 6906 H 675.042 2.4897 0.587179 0
M  V30 6907 H 674.686 4.87325 1.43098 0
M  V30 6908 H 674.616 4.25628 3.10078 0
M  V30 6909 H 677.107 3.27457 1.88627 0
M  V30 6910 H 677.42 6.98661 3.30292 0
M  V30 6911 H 675.765 6.28027 2.97669 0
M  V30 6912 H 678.956 4.09757 2.26311 0
M  V30 6913 H 679.129 5.79019 2.90932 0
M  V30 6914 N 672.536 -0.895792 1.29666 0
M  V30 6915 C 673.947 -1.46195 1.1612 0
M  V30 6916 C 674.298 -1.94699 -0.242195 0
M  V30 6917 O 673.423 -1.8406 -1.13802 0
M  V30 6918 C 674.018 -2.65718 2.10189 0
M  V30 6919 C 672.577 -3.18458 2.00653 0
M  V30 6920 C 671.724 -1.91149 2.00891 0
M  V30 6921 H 674.675 -0.706756 1.42094 0
M  V30 6922 H 674.696 -3.4158 1.6764 0
M  V30 6923 H 674.208 -2.30386 3.12321 0
M  V30 6924 H 672.309 -3.58474 1.01623 0
M  V30 6925 H 672.422 -3.82491 2.88509 0
M  V30 6926 H 670.786 -2.09021 1.45542 0
M  V30 6927 H 671.569 -1.58089 3.04734 0
M  V30 6928 N 674.014 -1.12206 -1.10668 0
M  V30 6929 C 674.924 -0.800686 -2.20513 0
M  V30 6930 C 675.94 0.209512 -1.72734 0
M  V30 6931 O 677.116 0.043705 -2.01353 0
M  V30 6932 C 674.181 -0.257353 -3.45744 0
M  V30 6933 C 673.242 -1.32718 -4.0827 0
M  V30 6934 C 672.475 -0.809674 -5.27522 0
M  V30 6935 O 672.698 0.35742 -5.69279 0
M  V30 6936 O 671.632 -1.57816 -5.80842 0
M  V30 6937 H 675.458 -1.71807 -2.50432 0
M  V30 6938 H 673.043 -0.898546 -1.19359 0
M  V30 6939 H 674.925 0.0408849 -4.2138 0
M  V30 6940 H 673.6 0.632627 -3.17458 0
M  V30 6941 H 672.507 -1.67855 -3.34329 0
M  V30 6942 H 673.84 -2.19083 -4.40753 0
M  V30 6943 N 675.492 1.28418 -0.913599 0
M  V30 6944 C 676.424 2.26368 -0.359169 0
M  V30 6945 C 677.437 1.54858 0.502285 0
M  V30 6946 O 678.626 1.75659 0.31719 0
M  V30 6947 C 675.726 3.35112 0.50526 0
M  V30 6948 C 674.899 4.36126 -0.333648 0
M  V30 6949 C 673.958 5.24134 0.465845 0
M  V30 6950 O 672.984 5.6907 -0.121538 0
M  V30 6951 N 674.186 5.52892 1.76891 0
M  V30 6952 H 676.951 2.74579 -1.2011 0
M  V30 6953 H 674.512 1.41898 -0.779532 0
M  V30 6954 H 676.504 3.90926 1.04684 0
M  V30 6955 H 675.074 2.86611 1.2479 0
M  V30 6956 H 674.294 3.79776 -1.0566 0
M  V30 6957 H 675.582 5.00638 -0.907669 0
M  V30 6958 H 674.98 5.18217 2.26865 0
M  V30 6959 H 673.537 6.11464 2.25732 0
M  V30 6960 N 676.97 0.677563 1.42291 0
M  V30 6961 C 677.903 -0.0492638 2.28147 0
M  V30 6962 C 678.881 -0.805936 1.41221 0
M  V30 6963 O 680.065 -0.80049 1.70659 0
M  V30 6964 C 677.192 -1.07697 3.21122 0
M  V30 6965 C 676.238 -0.41556 4.24471 0
M  V30 6966 S 677.071 0.828876 5.29046 0
M  V30 6967 C 678.227 -0.197687 6.25588 0
M  V30 6968 H 678.46 0.678965 2.89443 0
M  V30 6969 H 675.993 0.467201 1.47162 0
M  V30 6970 H 677.951 -1.66482 3.75225 0
M  V30 6971 H 676.612 -1.77766 2.58956 0
M  V30 6972 H 675.805 -1.19112 4.89723 0
M  V30 6973 H 675.407 0.0987632 3.7387 0
M  V30 6974 H 677.699 -1.05656 6.69211 0
M  V30 6975 H 678.642 0.420437 7.06851 0
M  V30 6976 H 679.05 -0.544401 5.61869 0
M  V30 6977 N 678.448 -1.51871 0.421078 0
M  V30 6978 C 679.694 -2.02237 -0.151014 0
M  V30 6979 C 680.027 -1.30554 -1.43768 0
M  V30 6980 O 679.302 -0.41546 -1.90011 0
M  V30 6981 C 679.585 -3.5802 -0.386482 0
M  V30 6982 C 679.438 -4.40339 0.9177 0
M  V30 6983 C 680.757 -4.24444 -1.16342 0
M  V30 6984 H 677.876 -0.735062 -0.0534102 0
M  V30 6985 H 680.518 -1.81656 0.556888 0
M  V30 6986 H 678.668 -3.75688 -0.989494 0
M  V30 6987 H 680.34 -4.34357 1.55344 0
M  V30 6988 H 678.583 -4.06073 1.526 0
M  V30 6989 H 679.254 -5.47451 0.707187 0
M  V30 6990 H 681.73 -4.10948 -0.652788 0
M  V30 6991 H 680.606 -5.33358 -1.29693 0
M  V30 6992 H 680.867 -3.84204 -2.18724 0
M  V30 6993 N 679.926 -0.151884 -1.56866 0
M  V30 6994 C 681.174 0.497021 -1.95893 0
M  V30 6995 C 681.495 1.65078 -1.03799 0
M  V30 6996 O 680.765 1.95642 -0.10049 0
M  V30 6997 H 679.345 0.186603 -0.723318 0
M  V30 6998 H 682.007 -0.228525 -1.93556 0
M  V30 6999 H 681.103 0.869933 -2.99731 0
M  V30 7000 N 681.404 1.57128 0.121893 0
M  V30 7001 C 682.629 1.89254 0.848385 0
M  V30 7002 C 683.054 0.743527 1.72781 0
M  V30 7003 O 682.412 -0.306056 1.78698 0
M  V30 7004 C 682.46 3.20113 1.66012 0
M  V30 7005 O 681.564 3.05815 2.76679 0
M  V30 7006 H 680.905 0.621103 0.234793 0
M  V30 7007 H 683.435 2.0433 0.10516 0
M  V30 7008 H 683.445 3.52761 2.04996 0
M  V30 7009 H 682.12 4.03336 1.01452 0
M  V30 7010 H 680.697 2.84627 2.40918 0
M  V30 7011 N 682.882 -0.391992 1.52647 0
M  V30 7012 C 683.815 -1.50019 1.71958 0
M  V30 7013 C 684.793 -1.5238 0.567365 0
M  V30 7014 O 685.977 -1.70831 0.796806 0
M  V30 7015 C 683.104 -2.88496 1.77447 0
M  V30 7016 C 682.15 -3.03974 2.99169 0
M  V30 7017 S 682.983 -2.75487 4.59203 0
M  V30 7018 C 684.139 -4.16163 4.67503 0
M  V30 7019 H 684.372 -1.33413 2.65685 0
M  V30 7020 H 681.905 -0.584674 1.42902 0
M  V30 7021 H 683.863 -3.68296 1.81296 0
M  V30 7022 H 682.524 -3.02431 0.848188 0
M  V30 7023 H 681.717 -4.05328 2.99542 0
M  V30 7024 H 681.319 -2.32062 2.93297 0
M  V30 7025 H 683.611 -5.10048 4.45934 0
M  V30 7026 H 684.554 -4.20806 5.69498 0
M  V30 7027 H 684.962 -4.01933 3.96371 0
M  V30 7028 N 684.36 -1.4356 -0.65026 0
M  V30 7029 C 685.307 -1.48948 -1.76304 0
M  V30 7030 C 686.277 -0.338919 -1.62605 0
M  V30 7031 O 687.462 -0.54649 -1.82806 0
M  V30 7032 C 684.602 -1.42131 -3.14472 0
M  V30 7033 C 683.715 -2.67415 -3.39284 0
M  V30 7034 C 682.85 -2.52565 -4.67316 0
M  V30 7035 C 681.889 -3.73103 -4.85243 0
M  V30 7036 N 681.026 -3.57046 -6.04535 0
M  V30 7037 H 685.866 -2.44032 -1.71034 0
M  V30 7038 H 683.403 -1.21131 -0.834601 0
M  V30 7039 H 685.361 -1.36172 -3.94351 0
M  V30 7040 H 683.991 -0.506273 -3.18805 0
M  V30 7041 H 683.043 -2.8364 -2.53481 0
M  V30 7042 H 684.355 -3.56943 -3.48415 0
M  V30 7043 H 683.509 -2.44331 -5.55326 0
M  V30 7044 H 682.248 -1.60566 -4.60511 0
M  V30 7045 H 681.253 -3.81743 -3.95667 0
M  V30 7046 H 682.478 -4.66115 -4.93876 0
M  V30 7047 H 680.424 -2.67783 -5.98856 0
M  V30 7048 H 680.341 -4.40178 -6.14638 0
M  V30 7049 H 681.609 -3.52669 -6.95158 0
M  V30 7050 N 685.838 0.888903 -1.30139 0
M  V30 7051 C 686.801 1.97576 -1.16174 0
M  V30 7052 C 687.801 1.60525 -0.094086 0
M  V30 7053 O 688.991 1.70812 -0.341889 0
M  V30 7054 C 686.123 3.3188 -0.778983 0
M  V30 7055 H 687.316 2.11393 -2.12728 0
M  V30 7056 H 684.869 1.0748 -1.1348 0
M  V30 7057 H 685.604 3.23765 0.186225 0
M  V30 7058 H 685.389 3.60141 -1.55051 0
M  V30 7059 H 686.879 4.11612 -0.704631 0
M  V30 7060 N 687.317 1.12792 1.10072 0
M  V30 7061 C 688.565 0.883796 1.81751 0
M  V30 7062 C 688.886 -0.591891 1.858 0
M  V30 7063 O 688.156 -1.43017 1.33876 0
M  V30 7064 H 686.736 0.323978 0.673088 0
M  V30 7065 H 689.398 1.42314 1.33164 0
M  V30 7066 H 688.494 1.26863 2.85153 0
M  V30 7067 N 688.795 -1.27931 0.920396 0
M  V30 7068 C 690.211 -1.47085 0.619537 0
M  V30 7069 C 690.411 -1.83463 -0.833291 0
M  V30 7070 O 689.467 -1.94363 -1.61181 0
M  V30 7071 C 690.78 -2.56878 1.56314 0
M  V30 7072 C 692.328 -2.70743 1.57058 0
M  V30 7073 C 692.803 -3.83687 2.50097 0
M  V30 7074 N 694.294 -3.9105 2.48262 0
M  V30 7075 C 695.029 -4.77842 3.16945 0
M  V30 7076 N 694.525 -5.69176 3.94982 0
M  V30 7077 N 696.318 -4.71509 3.06 0
M  V30 7078 H 688.469 -1.02601 1.85975 0
M  V30 7079 H 690.732 -0.511682 0.798051 0
M  V30 7080 H 690.438 -2.36923 2.59923 0
M  V30 7081 H 690.312 -3.54117 1.29928 0
M  V30 7082 H 692.699 -2.90083 0.541832 0
M  V30 7083 H 692.78 -1.74015 1.8749 0
M  V30 7084 H 692.424 -3.65101 3.53077 0
M  V30 7085 H 692.354 -4.79827 2.16964 0
M  V30 7086 H 694.845 -3.25738 1.91581 0
M  V30 7087 H 695.158 -6.32245 4.44394 0
M  V30 7088 H 693.503 -5.68995 3.99086 0
M  V30 7089 H 696.694 -3.99151 2.44533 0
M  V30 7090 H 696.867 -5.38933 3.59799 0
M  V30 7091 O 690.312 -0.824023 -1.38896 0
M  V30 7092 H 691.003 -0.40654 -1.89386 0
M  V30 END ATOM
M  V30 BEGIN BOND
M  V30 END BOND
M  V30 END CTAB
M  END
$$$$
