drugbank_target|Q9H422 Homeodomain-interacting protein kinase 3 (DB12010)
 OpenBabel12092121153D

  0  0  0     0  0            999 V3000
M  V30 BEGIN CTAB
M  V30 COUNTS 18626 18849 0 0 0
M  V30 BEGIN ATOM
M  V30 1 H -0.908 1.98254 -0.117106 0
M  V30 2 N 0 1.576 0 0
M  V30 3 C 0.933 2.03868 1.02534 0
M  V30 4 C 1.911 0.928543 1.3348 0
M  V30 5 O 3.095 1.19667 1.45644 0
M  V30 6 C 0.222 2.43627 2.35294 0
M  V30 7 C -0.732 3.65373 2.2001 0
M  V30 8 S 0.101 5.13292 1.52614 0
M  V30 9 C 1.257 5.56322 2.86805 0
M  V30 10 H 1.49 2.90518 0.631377 0
M  V30 11 H -0.977 1.52953 0.210867 0
M  V30 12 H 0.981 2.67203 3.11629 0
M  V30 13 H -0.358 1.57376 2.7183 0
M  V30 14 H -1.165 3.90944 3.18086 0
M  V30 15 H -1.563 3.418 1.51819 0
M  V30 16 H 0.729 5.58782 3.83104 0
M  V30 17 H 1.672 6.56266 2.65933 0
M  V30 18 H 2.08 4.83886 2.90714 0
M  V30 19 N 1.4781 -0.272755 1.55222 0
M  V30 20 C 2.4411 -1.32041 1.87344 0
M  V30 21 C 3.4411 -1.42342 0.74803 0
M  V30 22 O 4.6311 -1.41488 1.0162 0
M  V30 23 C 1.7631 -2.70173 2.07893 0
M  V30 24 H 2.9561 -1.04789 2.80997 0
M  V30 25 H 0.5091 -0.51083 1.47717 0
M  V30 26 H 1.2441 -3.02605 1.16622 0
M  V30 27 H 1.0291 -2.64082 2.89833 0
M  V30 28 H 2.5191 -3.45869 2.34017 0
M  V30 29 N 2.9562 -1.48159 -0.537278 0
M  V30 30 C 4.1812 -1.59707 -1.32319 0
M  V30 31 C 4.6062 -0.254859 -1.86365 0
M  V30 32 O 3.9642 0.772378 -1.64024 0
M  V30 33 C 4.0122 -2.6412 -2.45505 0
M  V30 34 O 3.1162 -2.20774 -3.48328 0
M  V30 35 H 2.4572 -0.535791 -0.392204 0
M  V30 36 H 4.9872 -1.94092 -0.647268 0
M  V30 37 H 4.9972 -2.85166 -2.91795 0
M  V30 38 H 3.6722 -3.61567 -2.05528 0
M  V30 39 H 2.2492 -2.09911 -3.08207 0
M  V30 40 N 4.4343 0.785586 -1.36625 0
M  V30 41 C 5.3663 1.90711 -1.2713 0
M  V30 42 C 6.3793 1.61688 -0.189986 0
M  V30 43 O 7.5683 1.72864 -0.445014 0
M  V30 44 C 4.6683 3.25611 -0.939713 0
M  V30 45 C 3.8413 3.82385 -2.12369 0
M  V30 46 C 2.9003 4.95732 -1.76456 0
M  V30 47 O 1.9263 5.12047 -2.48589 0
M  V30 48 N 3.1283 5.76258 -0.700492 0
M  V30 49 H 5.8933 1.99376 -2.23762 0
M  V30 50 H 3.4543 0.964041 -1.30069 0
M  V30 51 H 5.4463 3.98937 -0.680554 0
M  V30 52 H 4.0163 3.12538 -0.0624074 0
M  V30 53 H 3.2363 3.01001 -2.54543 0
M  V30 54 H 4.5243 4.17047 -2.9146 0
M  V30 55 H 3.9223 5.65609 -0.101624 0
M  V30 56 H 2.4793 6.4987 -0.501165 0
M  V30 57 N 5.9124 1.20967 1.01018 0
M  V30 58 C 7.1584 1.02526 1.74975 0
M  V30 59 C 7.4914 -0.4408 1.89131 0
M  V30 60 O 6.7664 -1.32718 1.42184 0
M  V30 61 C 7.0494 1.71699 3.1653 0
M  V30 62 C 6.9024 3.25791 3.10129 0
M  V30 63 C 8.2214 1.45531 4.15342 0
M  V30 64 H 5.3404 0.373863 0.635134 0
M  V30 65 H 7.9824 1.49071 1.17805 0
M  V30 66 H 6.1324 1.32128 3.65341 0
M  V30 67 H 7.8044 3.74697 2.69072 0
M  V30 68 H 6.0474 3.56363 2.47362 0
M  V30 69 H 6.7184 3.69353 4.10222 0
M  V30 70 H 9.1944 1.79872 3.75213 0
M  V30 71 H 8.0704 1.96453 5.1254 0
M  V30 72 H 8.3314 0.384237 4.40427 0
M  V30 73 N 7.3905 -1.2043 1.01659 0
M  V30 74 C 8.3205 -2.25466 0.607226 0
M  V30 75 C 9.3015 -1.65853 -0.377716 0
M  V30 76 O 10.4865 -1.92409 -0.263149 0
M  V30 77 C 7.6165 -3.47256 -0.0552949 0
M  V30 78 C 6.5705 -4.19462 0.850632 0
M  V30 79 C 5.8965 -5.34673 0.0538859 0
M  V30 80 C 7.1965 -4.75603 2.15868 0
M  V30 81 H 8.8905 -2.59962 1.48526 0
M  V30 82 H 6.4365 -1.2496 0.715605 0
M  V30 83 H 8.3895 -4.19917 -0.353233 0
M  V30 84 H 7.1135 -3.11924 -0.968045 0
M  V30 85 H 5.7725 -3.48667 1.13257 0
M  V30 86 H 5.4205 -4.95585 -0.860514 0
M  V30 87 H 5.1205 -5.83913 0.657192 0
M  V30 88 H 6.6445 -6.10138 -0.237598 0
M  V30 89 H 8.0585 -5.40083 1.92311 0
M  V30 90 H 6.4555 -5.3528 2.71284 0
M  V30 91 H 7.5255 -3.94346 2.82169 0
M  V30 92 N 8.8686 -0.792821 -1.36206 0
M  V30 93 C 10.1146 -0.36733 -1.99446 0
M  V30 94 C 10.4476 1.05917 -1.62774 0
M  V30 95 O 9.7226 1.7324 -0.88421 0
M  V30 96 C 10.0056 -0.535044 -3.56103 0
M  V30 97 C 9.8586 -2.00548 -4.02617 0
M  V30 98 C 11.1776 0.0478191 -4.40074 0
M  V30 99 H 8.2966 -0.134941 -0.724541 0
M  V30 100 H 10.9386 -0.999794 -1.61568 0
M  V30 101 H 9.0886 0.00336329 -3.885 0
M  V30 102 H 10.7606 -2.60521 -3.80692 0
M  V30 103 H 9.0036 -2.50686 -3.54032 0
M  V30 104 H 9.6746 -2.07377 -5.11565 0
M  V30 105 H 12.1506 -0.411822 -4.14057 0
M  V30 106 H 11.0266 -0.0995336 -5.4881 0
M  V30 107 H 11.2876 1.14025 -4.27142 0
M  V30 108 N 10.3467 1.47872 -0.545128 0
M  V30 109 C 11.5767 2.06589 -0.0210534 0
M  V30 110 C 11.9847 1.39997 1.27269 0
M  V30 111 O 11.3277 0.486421 1.77143 0
M  V30 112 C 11.3897 3.58574 0.257933 0
M  V30 113 C 11.0537 4.47132 -0.944573 0
M  V30 114 C 12.0507 4.85986 -1.84699 0
M  V30 115 C 9.7357 4.88821 -1.15584 0
M  V30 116 C 11.7297 5.65314 -2.94446 0
M  V30 117 C 9.4167 5.67916 -2.25642 0
M  V30 118 C 10.4147 6.06073 -3.14905 0
M  V30 119 O 10.1027 6.83578 -4.23057 0
M  V30 120 H 9.8347 0.674971 -0.0372899 0
M  V30 121 H 12.3887 1.91037 -0.754599 0
M  V30 122 H 10.6187 3.72295 1.04564 0
M  V30 123 H 12.3077 3.99356 0.72592 0
M  V30 124 H 13.0737 4.54388 -1.69577 0
M  V30 125 H 8.9527 4.58595 -0.470279 0
M  V30 126 H 12.4967 5.95016 -3.64145 0
M  V30 127 H 8.3937 5.98927 -2.40742 0
M  V30 128 H 9.1617 7.01954 -4.20954 0
M  V30 129 N 11.8248 0.280983 1.55075 0
M  V30 130 C 13.2358 -0.215629 1.85451 0
M  V30 131 C 13.5868 -1.54991 1.203 0
M  V30 132 O 12.7118 -2.10699 0.493435 0
M  V30 133 C 13.3068 -0.398026 3.36454 0
M  V30 134 C 11.8658 -0.838866 3.66933 0
M  V30 135 C 11.0128 0.064458 2.77225 0
M  V30 136 H 13.9638 0.502601 1.50531 0
M  V30 137 H 13.9848 -1.23569 3.59876 0
M  V30 138 H 13.4968 0.573241 3.83843 0
M  V30 139 H 11.5978 -1.8214 3.25048 0
M  V30 140 H 11.7108 -0.672123 4.74362 0
M  V30 141 H 10.0748 -0.452863 2.50642 0
M  V30 142 H 10.8578 1.03172 3.2743 0
M  V30 143 N 13.3029 -1.57598 0.00835791 0
M  V30 144 C 14.7139 -1.7892 -0.53333 0
M  V30 145 C 15.0649 -0.916609 -1.73473 0
M  V30 146 O 14.1899 -0.121336 -2.1606 0
M  V30 147 C 14.7849 -3.24488 -0.974313 0
M  V30 148 C 13.3439 -3.46878 -1.46125 0
M  V30 149 C 12.4909 -2.74157 -0.416302 0
M  V30 150 H 15.4419 -1.56958 0.234495 0
M  V30 151 H 15.4629 -3.3306 -1.83988 0
M  V30 152 H 14.9749 -3.87972 -0.099718 0
M  V30 153 H 13.0759 -2.8862 -2.35646 0
M  V30 154 H 13.1889 -4.55572 -1.48295 0
M  V30 155 H 11.5529 -2.39022 -0.87981 0
M  V30 156 H 12.3359 -3.40345 0.44947 0
M  V30 157 N 14.781 0.264519 -1.55364 0
M  V30 158 C 16.011 1.01153 -1.80143 0
M  V30 159 C 16.419 1.80115 -0.579253 0
M  V30 160 O 15.762 1.77813 0.46132 0
M  V30 161 C 15.824 2.01098 -2.97993 0
M  V30 162 C 15.488 1.40995 -4.34706 0
M  V30 163 C 16.485 0.821316 -5.13372 0
M  V30 164 C 14.17 1.43461 -4.81378 0
M  V30 165 C 16.164 0.265339 -6.36847 0
M  V30 166 C 13.851 0.874771 -6.04807 0
M  V30 167 C 14.849 0.291146 -6.82379 0
M  V30 168 O 14.537 -0.260093 -8.03479 0
M  V30 169 H 14.269 0.304125 -0.603725 0
M  V30 170 H 16.823 0.298089 -2.03225 0
M  V30 171 H 15.053 2.76224 -2.70623 0
M  V30 172 H 16.742 2.61997 -3.1002 0
M  V30 173 H 17.508 0.794903 -4.78442 0
M  V30 174 H 13.387 1.87826 -4.21002 0
M  V30 175 H 16.931 -0.190837 -6.97339 0
M  V30 176 H 12.828 0.898452 -6.39217 0
M  V30 177 H 13.596 -0.150265 -8.18362 0
M  V30 178 N 16.2591 1.48442 0.529413 0
M  V30 179 C 17.5051 1.5672 1.28711 0
M  V30 180 C 17.8381 0.2406 1.92704 0
M  V30 181 O 17.1131 -0.753454 1.79313 0
M  V30 182 C 17.3961 2.70587 2.37603 0
M  V30 183 C 17.2491 4.12953 1.78297 0
M  V30 184 C 18.5681 2.80212 3.39366 0
M  V30 185 H 15.6871 0.570474 0.466613 0
M  V30 186 H 18.3291 1.80617 0.589706 0
M  V30 187 H 16.4791 2.50342 2.97088 0
M  V30 188 H 18.1511 4.44639 1.22858 0
M  V30 189 H 16.3941 4.19927 1.0883 0
M  V30 190 H 17.0651 4.88448 2.57144 0
M  V30 191 H 19.5411 2.98553 2.89836 0
M  V30 192 H 18.4171 3.61611 4.12951 0
M  V30 193 H 18.6781 1.88393 3.99951 0
M  V30 194 N 17.7372 -0.778329 1.37039 0
M  V30 195 C 18.9672 -1.56507 1.34868 0
M  V30 196 C 19.3752 -1.89072 -0.0694802 0
M  V30 197 O 18.7182 -1.51434 -1.03987 0
M  V30 198 C 18.7802 -2.90641 2.11585 0
M  V30 199 C 18.4442 -2.80746 3.60598 0
M  V30 200 C 19.4412 -2.52226 4.54618 0
M  V30 201 C 17.1262 -2.98974 4.03633 0
M  V30 202 C 19.1202 -2.42054 5.89651 0
M  V30 203 C 16.8072 -2.88423 5.38754 0
M  V30 204 C 17.8052 -2.60002 6.31576 0
M  V30 205 O 17.4932 -2.49465 7.64214 0
M  V30 206 H 17.2252 -0.491723 0.463879 0
M  V30 207 H 19.7792 -0.973053 1.80889 0
M  V30 208 H 18.0092 -3.51936 1.60243 0
M  V30 209 H 19.6982 -3.51992 2.0213 0
M  V30 210 H 20.4642 -2.37835 4.22681 0
M  V30 211 H 16.3432 -3.20099 3.31749 0
M  V30 212 H 19.8872 -2.19791 6.62071 0
M  V30 213 H 15.7842 -3.0238 5.70295 0
M  V30 214 H 16.5522 -2.64864 7.74461 0
M  V30 215 N 19.2153 -1.21501 -1.00376 0
M  V30 216 C 20.1473 -0.933174 -2.09343 0
M  V30 217 C 21.1603 0.0840896 -1.62583 0
M  V30 218 O 22.3493 -0.148563 -1.77881 0
M  V30 219 C 19.4493 -0.379869 -3.36764 0
M  V30 220 C 18.6223 -1.45176 -4.12605 0
M  V30 221 C 17.6813 -0.907476 -5.18316 0
M  V30 222 O 16.7073 -1.5912 -5.46507 0
M  V30 223 N 17.9093 0.276649 -5.7984 0
M  V30 224 H 20.6743 -1.87124 -2.34104 0
M  V30 225 H 18.2353 -1.12043 -1.16867 0
M  V30 226 H 20.2273 -0.00131488 -4.047 0
M  V30 227 H 18.7973 0.463048 -3.09151 0
M  V30 228 H 18.0173 -2.00411 -3.39454 0
M  V30 229 H 19.3053 -2.17328 -4.6005 0
M  V30 230 H 18.7033 0.849147 -5.59291 0
M  V30 231 H 17.2603 0.596702 -6.49063 0
M  V30 232 N 20.6934 1.19889 -1.02296 0
M  V30 233 C 21.9214 1.9339 -0.735399 0
M  V30 234 C 22.3364 1.75148 0.704887 0
M  V30 235 O 21.6934 1.06954 1.47875 0
M  V30 236 C 21.7444 3.45313 -1.06962 0
M  V30 237 O 21.4654 3.62964 -2.45334 0
M  V30 238 C 22.9664 4.35948 -0.804021 0
M  V30 239 H 20.1864 0.61448 -0.269546 0
M  V30 240 H 22.7304 1.522 -1.36585 0
M  V30 241 H 20.8854 3.84359 -0.484455 0
M  V30 242 H 21.2994 4.56886 -2.57595 0
M  V30 243 H 22.7734 5.41174 -1.0879 0
M  V30 244 H 23.2504 4.3842 0.261691 0
M  V30 245 H 23.8564 4.02574 -1.37164 0
M  V30 246 N 22.1715 0.800033 1.35784 0
M  V30 247 C 23.1035 0.163596 2.28615 0
M  V30 248 C 24.1165 -0.633317 1.49976 0
M  V30 249 O 25.3055 -0.466754 1.72289 0
M  V30 250 C 22.4055 -0.790958 3.29541 0
M  V30 251 C 21.5785 -0.0418255 4.3738 0
M  V30 252 C 20.6375 -0.91389 5.18203 0
M  V30 253 O 19.6635 -0.367234 5.68014 0
M  V30 254 N 20.8655 -2.23682 5.35674 0
M  V30 255 H 23.6305 0.96105 2.83873 0
M  V30 256 H 21.1915 0.654894 1.48063 0
M  V30 257 H 23.1835 -1.37844 3.80501 0
M  V30 258 H 21.7535 -1.48925 2.74846 0
M  V30 259 H 20.9735 0.726813 3.87442 0
M  V30 260 H 22.2615 0.474719 5.06581 0
M  V30 261 H 21.6595 -2.70497 4.96838 0
M  V30 262 H 20.2165 -2.77369 5.89839 0
M  V30 263 N 23.6496 -1.47581 0.552962 0
M  V30 264 C 24.8746 -2.07378 0.0300593 0
M  V30 265 C 25.2996 -1.40355 -1.25229 0
M  V30 266 O 24.6576 -0.477099 -1.7491 0
M  V30 267 C 24.7056 -3.60274 -0.153231 0
M  V30 268 O 23.8096 -3.94041 -1.21678 0
M  V30 269 H 23.1506 -0.662158 0.0494182 0
M  V30 270 H 25.6806 -1.89662 0.767434 0
M  V30 271 H 25.6906 -4.0633 -0.368761 0
M  V30 272 H 24.3656 -4.08455 0.783397 0
M  V30 273 H 22.9426 -3.59735 -0.982079 0
M  V30 274 N 25.1277 -0.289203 -1.54924 0
M  V30 275 C 26.3527 0.329299 -2.04769 0
M  V30 276 C 26.7777 1.4763 -1.16564 0
M  V30 277 O 26.1357 1.80527 -0.167186 0
M  V30 278 C 26.1837 0.774438 -3.52186 0
M  V30 279 O 25.2877 1.88038 -3.67036 0
M  V30 280 H 24.6287 0.0659259 -0.660719 0
M  V30 281 H 27.1587 -0.42761 -2.00082 0
M  V30 282 H 27.1687 1.06642 -3.93816 0
M  V30 283 H 25.8437 -0.0646707 -4.1585 0
M  V30 284 H 24.4207 1.58985 -3.3731 0
M  V30 285 N 26.6058 1.57591 -0.0167156 0
M  V30 286 C 27.5688 2.08393 0.954204 0
M  V30 287 C 28.5688 0.996531 1.26198 0
M  V30 288 O 29.7588 1.25858 1.20438 0
M  V30 289 C 26.8908 2.5394 2.27436 0
M  V30 290 H 28.0838 2.95455 0.514451 0
M  V30 291 H 25.6368 1.54582 0.231089 0
M  V30 292 H 26.3718 1.70171 2.76066 0
M  V30 293 H 26.1568 3.33371 2.06412 0
M  V30 294 H 27.6468 2.93512 2.97053 0
M  V30 295 N 28.0839 -0.256276 1.55502 0
M  V30 296 C 29.3309 -0.985619 1.76895 0
M  V30 297 C 29.6589 -1.85671 0.579355 0
M  V30 298 O 28.9139 -1.90744 -0.437651 0
M  V30 299 C 29.2129 -1.88432 3.03691 0
M  V30 300 C 28.8789 -1.16936 4.35473 0
M  V30 301 C 27.5409 -0.97173 4.71286 0
M  V30 302 C 29.8929 -0.661889 5.1698 0
M  V30 303 C 27.2209 -0.254179 5.86149 0
M  V30 304 C 29.5729 0.042149 6.32586 0
M  V30 305 C 28.2369 0.25134 6.67027 0
M  V30 306 H 27.5069 -0.360663 0.647304 0
M  V30 307 H 30.1539 -0.256483 1.89775 0
M  V30 308 H 28.4589 -2.68021 2.85783 0
M  V30 309 H 30.1559 -2.45015 3.1744 0
M  V30 310 H 26.7459 -1.33332 4.07333 0
M  V30 311 H 30.9299 -0.802145 4.89775 0
M  V30 312 H 26.1859 -0.0815408 6.11346 0
M  V30 313 H 30.3599 0.443049 6.94989 0
M  V30 314 H 27.9869 0.809314 7.5588 0
M  V30 315 N 29.562 -1.4872 -0.521534 0
M  V30 316 C 30.802 -1.58771 -1.28729 0
M  V30 317 C 31.166 -0.259394 -1.9024 0
M  V30 318 O 32.367 -0.234942 -2.67771 0
M  V30 319 C 30.638 -2.70039 -2.34124 0
M  V30 320 S 32.197 -2.9991 -3.20312 0
M  V30 321 H 29.015 -0.560251 -0.437767 0
M  V30 322 H 31.617 -1.86283 -0.593188 0
M  V30 323 H 30.321 -3.65101 -1.87429 0
M  V30 324 H 29.852 -2.44455 -3.08229 0
M  V30 325 H 31.867 -2.39855 -4.34378 0
M  V30 326 N 31.0401 0.771051 -1.3745 0
M  V30 327 C 32.2651 1.56529 -1.36065 0
M  V30 328 C 32.6901 1.88029 0.0515859 0
M  V30 329 O 32.0481 1.49282 1.02882 0
M  V30 330 C 32.0961 2.85187 -2.20683 0
M  V30 331 O 31.2001 3.79593 -1.61193 0
M  V30 332 H 30.5411 0.47411 -0.464883 0
M  V30 333 H 33.0711 0.954269 -1.80983 0
M  V30 334 H 33.0811 3.34283 -2.33921 0
M  V30 335 H 31.7561 2.61588 -3.23334 0
M  V30 336 H 30.3331 3.38239 -1.56999 0
M  V30 337 N 32.5182 1.22032 0.997298 0
M  V30 338 C 33.7642 1.04376 1.73878 0
M  V30 339 C 34.0972 -0.420716 1.89588 0
M  V30 340 O 33.3722 -1.31202 1.43583 0
M  V30 341 C 33.6552 1.75047 3.14691 0
M  V30 342 C 33.5082 3.29062 3.06656 0
M  V30 343 C 34.8272 1.49928 4.13775 0
M  V30 344 H 31.9462 0.380578 0.631133 0
M  V30 345 H 34.5882 1.50312 1.16217 0
M  V30 346 H 32.7382 1.35996 3.63919 0
M  V30 347 H 34.4102 3.7753 2.65083 0
M  V30 348 H 32.6532 3.58967 2.43568 0
M  V30 349 H 33.3242 3.73683 4.06282 0
M  V30 350 H 35.8002 1.83842 3.73285 0
M  V30 351 H 34.6762 2.01878 5.10428 0
M  V30 352 H 34.9372 0.430929 4.39995 0
M  V30 353 N 33.9963 -1.19345 1.0293 0
M  V30 354 C 34.9433 -2.2258 0.610464 0
M  V30 355 C 35.9133 -1.6179 -0.375946 0
M  V30 356 O 37.0983 -1.88844 -0.272511 0
M  V30 357 C 34.2383 -3.45085 -0.0321473 0
M  V30 358 C 33.3513 -4.20258 1.00035 0
M  V30 359 C 32.4863 -5.3019 0.32746 0
M  V30 360 C 31.5253 -5.97121 1.34584 0
M  V30 361 N 30.6623 -6.98615 0.698726 0
M  V30 362 H 35.5023 -2.57764 1.49538 0
M  V30 363 H 33.0393 -1.26644 0.748311 0
M  V30 364 H 34.9973 -4.15061 -0.421966 0
M  V30 365 H 33.6273 -3.10555 -0.88064 0
M  V30 366 H 32.6793 -3.49223 1.50823 0
M  V30 367 H 33.9913 -4.66175 1.77433 0
M  V30 368 H 33.1453 -6.06587 -0.11718 0
M  V30 369 H 31.8843 -4.85345 -0.478713 0
M  V30 370 H 30.8893 -5.19474 1.80074 0
M  V30 371 H 32.1143 -6.4405 2.15352 0
M  V30 372 H 30.0603 -6.55942 -0.0873471 0
M  V30 373 H 29.9773 -7.42724 1.41058 0
M  V30 374 H 31.2453 -7.79004 0.278102 0
M  V30 375 N 35.4744 -0.807222 -1.35358 0
M  V30 376 C 36.4214 -0.216037 -2.29787 0
M  V30 377 C 37.3914 0.650278 -1.52842 0
M  V30 378 O 38.5764 0.595227 -1.81278 0
M  V30 379 C 35.7164 0.628893 -3.39321 0
M  V30 380 C 34.8294 -0.257927 -4.31229 0
M  V30 381 C 33.9644 0.595069 -5.27856 0
M  V30 382 C 33.0034 -0.292111 -6.11403 0
M  V30 383 N 32.1404 0.520895 -7.00165 0
M  V30 384 H 36.9804 -1.02671 -2.79755 0
M  V30 385 H 34.5174 -0.517839 -1.37684 0
M  V30 386 H 36.4754 1.13393 -4.01494 0
M  V30 387 H 35.1054 1.40482 -2.90628 0
M  V30 388 H 34.1574 -0.881076 -3.70056 0
M  V30 389 H 35.4694 -0.940759 -4.89848 0
M  V30 390 H 34.6234 1.16522 -5.95405 0
M  V30 391 H 33.3624 1.31146 -4.69736 0
M  V30 392 H 32.3674 -0.874525 -5.428 0
M  V30 393 H 33.5924 -1.00638 -6.71602 0
M  V30 394 H 31.5384 1.22125 -6.44532 0
M  V30 395 H 31.4554 -0.103877 -7.55929 0
M  V30 396 H 32.7234 1.0743 -7.72062 0
M  V30 397 N 36.9525 1.47285 -0.560781 0
M  V30 398 C 37.8825 2.32857 0.173105 0
M  V30 399 C 38.8635 1.44009 0.905281 0
M  V30 400 O 40.0485 1.7286 0.885046 0
M  V30 401 C 37.1785 3.25861 1.20133 0
M  V30 402 C 36.1325 4.23978 0.585388 0
M  V30 403 C 35.4585 5.06332 1.7185 0
M  V30 404 C 36.7585 5.20242 -0.463178 0
M  V30 405 H 38.4525 2.94466 -0.541307 0
M  V30 406 H 35.9985 1.41601 -0.261764 0
M  V30 407 H 37.9515 3.84569 1.72293 0
M  V30 408 H 36.6755 2.62315 1.94573 0
M  V30 409 H 35.3345 3.66501 0.085054 0
M  V30 410 H 34.9825 4.39186 2.45203 0
M  V30 411 H 34.6825 5.72762 1.31213 0
M  V30 412 H 36.2065 5.67899 2.24329 0
M  V30 413 H 37.6205 5.73293 -0.027502 0
M  V30 414 H 36.0175 5.94896 -0.788627 0
M  V30 415 H 37.0875 4.65504 -1.35773 0
M  V30 416 N 38.4306 0.297415 1.54768 0
M  V30 417 C 39.3776 -0.580276 2.23386 0
M  V30 418 C 40.3476 -1.13238 1.21517 0
M  V30 419 O 41.5326 -1.17757 1.50126 0
M  V30 420 C 38.6726 -1.74801 2.97555 0
M  V30 421 C 37.7856 -1.22764 4.1419 0
M  V30 422 C 36.9206 -2.35895 4.75949 0
M  V30 423 C 35.9596 -1.80974 5.84735 0
M  V30 424 N 35.0966 -2.87664 6.40464 0
M  V30 425 H 39.9366 0.0114833 2.97998 0
M  V30 426 H 37.4736 0.0174361 1.4709 0
M  V30 427 H 39.4316 -2.43475 3.38786 0
M  V30 428 H 38.0616 -2.31145 2.25326 0
M  V30 429 H 37.1136 -0.433271 3.77924 0
M  V30 430 H 38.4256 -0.785551 4.92575 0
M  V30 431 H 37.5796 -3.12523 5.20014 0
M  V30 432 H 36.3186 -2.83429 3.96887 0
M  V30 433 H 35.3236 -1.02834 5.40097 0
M  V30 434 H 36.5486 -1.34348 6.65678 0
M  V30 435 H 34.4946 -3.34538 5.64287 0
M  V30 436 H 34.4116 -2.4794 7.14186 0
M  V30 437 H 35.6796 -3.642 6.89187 0
M  V30 438 N 39.9087 -1.5758 0.0250728 0
M  V30 439 C 41.1547 -1.91917 -0.655413 0
M  V30 440 C 41.4877 -0.901433 -1.72011 0
M  V30 441 O 40.7627 0.0764069 -1.9435 0
M  V30 442 C 41.0457 -3.36751 -1.27558 0
M  V30 443 C 40.8987 -4.49258 -0.220719 0
M  V30 444 C 42.2177 -3.81469 -2.19475 0
M  V30 445 H 39.3367 -0.697925 -0.23679 0
M  V30 446 H 41.9787 -1.89825 0.0815036 0
M  V30 447 H 40.1287 -3.38664 -1.90365 0
M  V30 448 H 41.8007 -4.59478 0.409601 0
M  V30 449 H 40.0437 -4.31415 0.454264 0
M  V30 450 H 40.7147 -5.47618 -0.694175 0
M  V30 451 H 43.1907 -3.81266 -1.66659 0
M  V30 452 H 42.0667 -4.83512 -2.59822 0
M  V30 453 H 42.3277 -3.16744 -3.08424 0
M  V30 454 N 41.3868 0.248026 -1.55636 0
M  V30 455 C 42.2968 1.32859 -1.93354 0
M  V30 456 C 43.3128 1.52719 -0.833838 0
M  V30 457 O 44.4888 1.66363 -1.13513 0
M  V30 458 C 41.5538 2.66337 -2.21958 0
M  V30 459 C 40.6148 2.55008 -3.45354 0
M  V30 460 C 39.8478 3.82121 -3.72584 0
M  V30 461 O 40.0708 4.83951 -3.01907 0
M  V30 462 O 39.0048 3.80822 -4.6611 0
M  V30 463 H 42.8308 1.03862 -2.85388 0
M  V30 464 H 40.4158 0.448686 -1.42503 0
M  V30 465 H 42.2978 3.45216 -2.4167 0
M  V30 466 H 40.9728 2.95068 -1.33103 0
M  V30 467 H 39.8798 1.7442 -3.30951 0
M  V30 468 H 41.2128 2.31222 -4.34508 0
M  V30 469 N 42.8649 1.48995 0.513639 0
M  V30 470 C 44.2759 1.5119 1.09537 0
M  V30 471 C 44.6269 0.290906 1.94031 0
M  V30 472 O 43.7519 -0.60049 2.07902 0
M  V30 473 C 44.3469 2.73964 1.99322 0
M  V30 474 C 42.9059 2.78978 2.52682 0
M  V30 475 C 42.0529 2.44934 1.30009 0
M  V30 476 H 45.0039 1.55875 0.298125 0
M  V30 477 H 45.0249 2.53409 2.83838 0
M  V30 478 H 44.5369 3.62813 1.37799 0
M  V30 479 H 42.6379 1.94378 3.1788 0
M  V30 480 H 42.7509 3.8083 2.90698 0
M  V30 481 H 41.1149 1.9644 1.62122 0
M  V30 482 H 41.8979 3.36043 0.702131 0
M  V30 483 N 44.343 -0.763751 1.37857 0
M  V30 484 C 45.568 -1.55805 1.36893 0
M  V30 485 C 45.993 -1.88054 -0.0416135 0
M  V30 486 O 45.351 -1.49825 -1.02089 0
M  V30 487 C 45.399 -2.84012 2.22192 0
M  V30 488 O 44.503 -3.78732 1.63204 0
M  V30 489 H 43.844 -0.471638 0.46739 0
M  V30 490 H 46.374 -0.944657 1.81487 0
M  V30 491 H 46.384 -3.33037 2.35691 0
M  V30 492 H 45.059 -2.59869 3.24716 0
M  V30 493 H 43.636 -3.37402 1.58791 0
M  V30 494 N 45.8211 -1.22559 -0.990812 0
M  V30 495 C 47.0461 -1.07862 -1.77145 0
M  V30 496 C 47.4711 0.366447 -1.84496 0
M  V30 497 O 46.8291 1.26478 -1.29896 0
M  V30 498 C 46.8771 -1.69686 -3.18181 0
M  V30 499 O 45.9811 -0.951946 -4.01263 0
M  V30 500 H 45.3221 -0.378712 -0.545411 0
M  V30 501 H 47.8521 -1.62399 -1.2445 0
M  V30 502 H 47.8621 -1.74496 -3.68802 0
M  V30 503 H 46.5371 -2.74841 -3.12146 0
M  V30 504 H 45.1141 -0.980011 -3.59792 0
M  V30 505 N 47.2992 1.18797 -1.03562 0
M  V30 506 C 48.5392 1.90346 -0.744832 0
M  V30 507 C 48.9032 1.78231 0.713972 0
M  V30 508 O 50.1042 2.44441 1.11813 0
M  V30 509 C 48.3752 3.36942 -1.19184 0
M  V30 510 S 49.9342 4.26638 -1.02593 0
M  V30 511 H 46.7522 0.657343 -0.270963 0
M  V30 512 H 49.3542 1.43579 -1.32685 0
M  V30 513 H 48.0582 3.43287 -2.24905 0
M  V30 514 H 47.5892 3.88745 -0.603397 0
M  V30 515 H 49.6042 4.96164 0.0596033 0
M  V30 516 N 48.7773 0.814389 1.34928 0
M  V30 517 C 50.0233 0.399013 1.98836 0
M  V30 518 C 50.3563 -1.03314 1.64438 0
M  V30 519 O 49.6313 -1.71811 0.911659 0
M  V30 520 C 49.9143 0.591629 3.55207 0
M  V30 521 C 49.7673 2.06928 3.99376 0
M  V30 522 C 51.0863 0.022199 4.40094 0
M  V30 523 H 48.2053 0.146451 0.722303 0
M  V30 524 H 50.8473 1.02537 1.59957 0
M  V30 525 H 48.9973 0.0584441 3.88456 0
M  V30 526 H 50.6693 2.66544 3.76499 0
M  V30 527 H 48.9123 2.56287 3.49999 0
M  V30 528 H 49.5833 2.1549 5.08201 0
M  V30 529 H 52.0593 0.477643 4.13349 0
M  V30 530 H 50.9353 0.186832 5.48582 0
M  V30 531 H 51.1963 -1.07215 4.28902 0
M  V30 532 N 50.2554 -1.46986 0.568584 0
M  V30 533 C 51.5024 -2.02441 0.0487986 0
M  V30 534 C 51.8304 -1.44169 -1.30559 0
M  V30 535 O 51.0854 -0.591213 -1.86556 0
M  V30 536 C 51.3844 -3.57306 -0.081836 0
M  V30 537 C 51.0504 -4.34552 1.20313 0
M  V30 538 C 49.7124 -4.55376 1.5552 0
M  V30 539 C 52.0644 -4.79016 2.05411 0
M  V30 540 C 49.3924 -5.17913 2.7565 0
M  V30 541 C 51.7444 -5.42879 3.24754 0
M  V30 542 C 50.4084 -5.61933 3.60261 0
M  V30 543 H 49.6784 -0.740785 0.0178567 0
M  V30 544 H 52.3254 -1.76525 0.742384 0
M  V30 545 H 50.6304 -3.8228 -0.858463 0
M  V30 546 H 52.3274 -3.97876 -0.499546 0
M  V30 547 H 48.9174 -4.18631 0.919014 0
M  V30 548 H 53.1014 -4.62696 1.79516 0
M  V30 549 H 48.3574 -5.30858 3.03315 0
M  V30 550 H 52.5314 -5.76293 3.90973 0
M  V30 551 H 50.1584 -6.10161 4.53439 0
M  V30 552 N 51.7335 -0.305618 -1.54608 0
M  V30 553 C 52.6655 0.602161 -2.21149 0
M  V30 554 C 53.6785 1.09394 -1.20569 0
M  V30 555 O 54.8675 1.0106 -1.47136 0
M  V30 556 C 51.9675 1.83692 -2.84799 0
M  V30 557 C 51.1405 1.48686 -4.11353 0
M  V30 558 C 50.1995 2.57725 -4.58764 0
M  V30 559 O 49.2255 2.22623 -5.23858 0
M  V30 560 N 50.4275 3.88346 -4.31471 0
M  V30 561 H 53.1925 0.0324966 -2.99682 0
M  V30 562 H 50.7535 -0.128021 -1.61393 0
M  V30 563 H 52.7455 2.55994 -3.13448 0
M  V30 564 H 51.3155 2.31486 -2.10078 0
M  V30 565 H 50.5355 0.596269 -3.89664 0
M  V30 566 H 51.8235 1.22842 -4.93748 0
M  V30 567 H 51.2215 4.19671 -3.79331 0
M  V30 568 H 49.7785 4.56932 -4.64818 0
M  V30 569 N 53.2116 1.57565 -0.0334293 0
M  V30 570 C 54.1216 2.13943 0.962572 0
M  V30 571 C 55.1376 1.09276 1.35406 0
M  V30 572 O 56.3136 1.41355 1.4346 0
M  V30 573 C 53.3786 2.65887 2.22497 0
M  V30 574 C 52.4396 3.85286 1.8935 0
M  V30 575 C 51.6726 4.34743 3.09571 0
M  V30 576 O 51.8956 3.83352 4.22371 0
M  V30 577 O 50.8296 5.26538 2.91618 0
M  V30 578 H 54.6556 2.99333 0.513169 0
M  V30 579 H 52.2406 1.4822 0.18743 0
M  V30 580 H 54.1226 2.99346 2.96598 0
M  V30 581 H 52.7976 1.83578 2.6661 0
M  V30 582 H 51.7046 3.56746 1.1262 0
M  V30 583 H 53.0376 4.68771 1.5005 0
M  V30 584 N 54.6897 -0.239769 1.55765 0
M  V30 585 C 56.1057 -0.588624 1.48349 0
M  V30 586 C 56.3057 -1.88005 0.72502 0
M  V30 587 O 55.3617 -2.51186 0.257269 0
M  V30 588 C 56.6747 -0.68474 2.928 0
M  V30 589 C 58.2227 -0.77659 3.03213 0
M  V30 590 C 58.6977 -0.904207 4.48986 0
M  V30 591 N 60.1887 -0.968896 4.52953 0
M  V30 592 C 60.9237 -1.08703 5.63002 0
M  V30 593 N 60.4197 -1.17026 6.82845 0
M  V30 594 N 62.2127 -1.12074 5.50814 0
M  V30 595 H 54.3637 0.607911 2.03515 0
M  V30 596 H 56.6267 0.21083 0.924259 0
M  V30 597 H 56.3327 0.194284 3.51163 0
M  V30 598 H 56.2067 -1.55435 3.43686 0
M  V30 599 H 58.5937 -1.64606 2.44926 0
M  V30 600 H 58.6747 0.118315 2.55526 0
M  V30 601 H 58.3187 -0.0392633 5.07885 0
M  V30 602 H 58.2487 -1.81426 4.9436 0
M  V30 603 H 60.7397 -0.915633 3.6664 0
M  V30 604 H 61.0527 -1.25966 7.62465 0
M  V30 605 H 59.3977 -1.13971 6.85591 0
M  V30 606 H 62.5887 -1.05226 4.5612 0
M  V30 607 H 62.7617 -1.20936 6.36615 0
M  V30 608 N 56.1678 -1.49265 -0.50573 0
M  V30 609 C 57.1158 -1.66065 -1.62866 0
M  V30 610 C 58.1098 -0.526636 -1.61006 0
M  V30 611 O 59.3158 -0.706126 -1.65571 0
M  V30 612 H 55.6908 -0.52356 -0.539805 0
M  V30 613 H 57.6618 -2.60329 -1.45848 0
M  V30 614 C 56.4108 -1.74008 -3.01026 0
M  V30 615 H 55.7338 -2.6064 -3.03161 0
M  V30 616 H 57.1738 -1.89798 -3.79147 0
M  V30 617 C 55.6328 -0.483868 -3.33407 0
M  V30 618 O 56.1628 0.392548 -3.99777 0
M  V30 619 N 54.3688 -0.348236 -2.88506 0
M  V30 620 H 53.9158 -1.06242 -2.34671 0
M  V30 621 H 53.8738 0.491204 -3.10539 0
M  V30 622 N 57.6459 0.756429 -1.3826 0
M  V30 623 C 58.8759 1.54341 -1.3734 0
M  V30 624 C 59.2839 1.89159 0.0393917 0
M  V30 625 O 58.6269 1.5307 1.01565 0
M  V30 626 C 58.6889 2.87238 -2.16182 0
M  V30 627 C 58.3529 2.74973 -3.65019 0
M  V30 628 C 59.3499 2.44962 -4.58574 0
M  V30 629 C 57.0349 2.92515 -4.08338 0
M  V30 630 C 59.0289 2.32642 -5.93428 0
M  V30 631 C 56.7159 2.79815 -5.43274 0
M  V30 632 C 57.7139 2.49921 -6.35632 0
M  V30 633 O 57.4019 2.37275 -7.68086 0
M  V30 634 H 57.1339 0.484281 -0.471643 0
M  V30 635 H 59.6879 0.944152 -1.82414 0
M  V30 636 H 57.9179 3.49342 -1.65822 0
M  V30 637 H 59.6069 3.48731 -2.07705 0
M  V30 638 H 60.3729 2.31081 -4.26412 0
M  V30 639 H 56.2519 3.14781 -3.368 0
M  V30 640 H 59.7959 2.0923 -6.65484 0
M  V30 641 H 55.6929 2.93269 -5.75034 0
M  V30 642 H 56.4609 2.52509 -7.78577 0
M  V30 643 N 59.124 1.23083 0.984299 0
M  V30 644 C 60.535 1.05609 1.5396 0
M  V30 645 C 60.886 -0.377793 1.92528 0
M  V30 646 O 60.011 -1.26398 1.75649 0
M  V30 647 C 60.606 1.91087 2.7977 0
M  V30 648 C 59.165 1.77885 3.31713 0
M  V30 649 C 58.312 1.87028 2.04733 0
M  V30 650 H 61.263 1.36802 0.804419 0
M  V30 651 H 61.284 1.43336 3.5247 0
M  V30 652 H 60.796 2.9544 2.51668 0
M  V30 653 H 58.897 0.762995 3.64704 0
M  V30 654 H 59.01 2.61047 4.01735 0
M  V30 655 H 57.374 1.30565 2.18689 0
M  V30 656 H 58.157 2.92929 1.79017 0
M  V30 657 N 60.6021 -1.18246 1.0419 0
M  V30 658 C 62.0181 -1.40269 0.761366 0
M  V30 659 C 62.2181 -1.90777 -0.648578 0
M  V30 660 O 61.2741 -2.0929 -1.41258 0
M  V30 661 C 62.5871 -2.40237 1.8085 0
M  V30 662 C 64.1351 -2.53961 1.82955 0
M  V30 663 C 64.6101 -3.57194 2.86664 0
M  V30 664 N 66.1011 -3.64702 2.85563 0
M  V30 665 C 66.8361 -4.44309 3.6246 0
M  V30 666 N 66.3321 -5.27514 4.49111 0
M  V30 667 N 68.1251 -4.39084 3.50944 0
M  V30 668 H 60.2761 -0.837882 1.95175 0
M  V30 669 H 62.5391 -0.430608 0.84456 0
M  V30 670 H 62.2451 -2.10176 2.81991 0
M  V30 671 H 62.1191 -3.39601 1.64168 0
M  V30 672 H 64.5061 -2.83338 0.824855 0
M  V30 673 H 64.5871 -1.54706 2.03715 0
M  V30 674 H 64.2311 -3.28558 3.87314 0
M  V30 675 H 64.1611 -4.5613 2.6316 0
M  V30 676 H 66.6521 -3.05289 2.22727 0
M  V30 677 H 66.9651 -5.85411 5.04493 0
M  V30 678 H 65.3101 -5.2693 4.53178 0
M  V30 679 H 68.5011 -3.7313 2.82651 0
M  V30 680 H 68.6741 -5.00883 4.11121 0
M  V30 681 N 62.0802 -0.821533 -1.34494 0
M  V30 682 C 63.3082 -0.421884 -2.02553 0
M  V30 683 C 63.7232 0.971745 -1.61872 0
M  V30 684 O 63.0802 1.62864 -0.823496 0
M  V30 685 C 63.1312 -0.51285 -3.57844 0
M  V30 686 O 62.8522 -1.85155 -3.97051 0
M  V30 687 C 64.3532 -0.107921 -4.43169 0
M  V30 688 H 61.5732 -0.169482 -0.649243 0
M  V30 689 H 64.1172 -1.1093 -1.71798 0
M  V30 690 H 62.2722 0.126474 -3.87193 0
M  V30 691 H 62.6862 -1.82482 -4.91732 0
M  V30 692 H 64.1602 -0.222657 -5.51551 0
M  V30 693 H 64.6372 0.948401 -4.28838 0
M  V30 694 H 65.2432 -0.720989 -4.19144 0
M  V30 695 N 63.5583 1.46682 -0.576371 0
M  V30 696 C 64.7883 2.06498 -0.0648694 0
M  V30 697 C 65.1963 1.42665 1.24271 0
M  V30 698 O 64.5393 0.523886 1.76071 0
M  V30 699 C 64.6013 3.5904 0.181816 0
M  V30 700 C 64.2653 4.45028 -1.0392 0
M  V30 701 C 65.2623 4.81959 -1.94966 0
M  V30 702 C 62.9473 4.86259 -1.25927 0
M  V30 703 C 64.9413 5.58942 -3.06371 0
M  V30 704 C 62.6283 5.63002 -2.37638 0
M  V30 705 C 63.6263 5.99257 -3.2769 0
M  V30 706 O 63.3143 6.7445 -4.37461 0
M  V30 707 H 63.0463 0.674028 -0.0515987 0
M  V30 708 H 65.6003 1.89393 -0.794951 0
M  V30 709 H 63.8303 3.74429 0.966436 0
M  V30 710 H 65.5193 4.00806 0.641047 0
M  V30 711 H 66.2853 4.50689 -1.79177 0
M  V30 712 H 62.1643 4.57494 -0.567448 0
M  V30 713 H 65.7083 5.87158 -3.76684 0
M  V30 714 H 61.6053 5.93686 -2.53392 0
M  V30 715 H 62.3733 6.92867 -4.35749 0
M  V30 716 N 65.0364 0.313813 1.54444 0
M  V30 717 C 66.2824 -0.292108 2.00685 0
M  V30 718 C 66.6154 -1.52548 1.20177 0
M  V30 719 O 65.8904 -1.92452 0.281531 0
M  V30 720 C 66.1734 -0.635968 3.5444 0
M  V30 721 C 66.0264 0.607437 4.4568 0
M  V30 722 C 67.3454 -1.45747 4.15266 0
M  V30 723 H 64.4644 -0.104697 0.729526 0
M  V30 724 H 67.1064 0.428457 1.85106 0
M  V30 725 H 65.2564 -1.24986 3.67846 0
M  V30 726 H 66.9284 1.24581 4.44159 0
M  V30 727 H 65.1714 1.23822 4.15753 0
M  V30 728 H 65.8424 0.322515 5.51057 0
M  V30 729 H 68.3184 -0.938645 4.05375 0
M  V30 730 H 67.1944 -1.66683 5.2298 0
M  V30 731 H 67.4554 -2.45063 3.67963 0
M  V30 732 N 66.5145 -1.57545 0.0417849 0
M  V30 733 C 67.4625 -2.12148 -0.953723 0
M  V30 734 C 68.4565 -1.05104 -1.32852 0
M  V30 735 O 69.6625 -1.23524 -1.30927 0
M  V30 736 H 66.0375 -0.677957 -0.325389 0
M  V30 737 H 68.0085 -2.94707 -0.467991 0
M  V30 738 C 66.7575 -2.6739 -2.22257 0
M  V30 739 H 66.0805 -3.49413 -1.94295 0
M  V30 740 H 67.5205 -3.09227 -2.90094 0
M  V30 741 C 65.9795 -1.60723 -2.96091 0
M  V30 742 O 66.5095 -1.01449 -3.88679 0
M  V30 743 N 64.7155 -1.32466 -2.58652 0
M  V30 744 H 64.2625 -1.80856 -1.83437 0
M  V30 745 H 64.2205 -0.61325 -3.08361 0
M  V30 746 N 67.9926 0.231505 -1.5589 0
M  V30 747 C 69.2406 0.955461 -1.78088 0
M  V30 748 C 69.5616 1.85262 -0.608533 0
M  V30 749 O 68.8316 1.92277 0.375035 0
M  V30 750 H 67.4116 0.355787 -0.656829 0
M  V30 751 H 70.0736 0.245751 -1.93344 0
M  V30 752 H 69.1696 1.56814 -2.69844 0
M  V30 753 N 69.4707 1.49531 0.497807 0
M  V30 754 C 70.8867 1.36365 0.829266 0
M  V30 755 C 71.0867 0.399184 1.97506 0
M  V30 756 O 70.1427 -0.167977 2.51941 0
M  V30 757 C 71.4557 2.77153 1.16647 0
M  V30 758 C 73.0037 2.85877 1.27449 0
M  V30 759 C 73.4787 4.2744 1.64497 0
M  V30 760 N 74.9697 4.30265 1.7154 0
M  V30 761 C 75.7047 5.3677 2.01656 0
M  V30 762 N 75.2007 6.53516 2.29976 0
M  V30 763 N 76.9937 5.24189 2.02934 0
M  V30 764 H 69.1447 2.10831 -0.257703 0
M  V30 765 H 71.4077 0.946534 -0.0527091 0
M  V30 766 H 71.1137 3.49442 0.397872 0
M  V30 767 H 70.9877 3.12722 2.10915 0
M  V30 768 H 73.3747 2.13824 2.0338 0
M  V30 769 H 73.4557 2.53887 0.312244 0
M  V30 770 H 73.0997 5.00021 0.891151 0
M  V30 771 H 73.0297 4.56896 2.61827 0
M  V30 772 H 75.5207 3.4607 1.51802 0
M  V30 773 H 75.8337 7.30506 2.52153 0
M  V30 774 H 74.1787 6.56737 2.27425 0
M  V30 775 H 77.3697 4.31988 1.80289 0
M  V30 776 H 77.5427 6.07286 2.26071 0
M  V30 777 N 70.9488 -0.749086 1.3866 0
M  V30 778 C 71.8968 -1.88428 1.36373 0
M  V30 779 C 72.8908 -1.67561 0.248929 0
M  V30 780 O 74.0968 -1.75074 0.41821 0
M  V30 781 H 70.4718 -0.620023 0.42553 0
M  V30 782 H 72.4428 -1.87473 2.32156 0
M  V30 783 C 71.1918 -3.25961 1.21014 0
M  V30 784 H 70.5148 -3.42607 2.06059 0
M  V30 785 H 71.9548 -4.05625 1.23469 0
M  V30 786 C 70.4138 -3.36799 -0.0825941 0
M  V30 787 O 70.9438 -3.87517 -1.05797 0
M  V30 788 N 69.1498 -2.90258 -0.140939 0
M  V30 789 H 68.6968 -2.49174 0.653477 0
M  V30 790 H 68.6548 -2.97889 -1.00545 0
M  V30 791 N 72.4269 -1.23603 -0.977757 0
M  V30 792 C 73.6739 -1.06971 -1.71941 0
M  V30 793 C 74.0019 0.393009 -1.90488 0
M  V30 794 O 73.2569 1.30719 -1.4564 0
M  V30 795 C 73.5559 -1.7433 -3.11999 0
M  V30 796 C 73.2219 -3.24252 -3.13323 0
M  V30 797 C 71.8839 -3.65156 -3.13392 0
M  V30 798 C 74.2359 -4.20141 -3.08433 0
M  V30 799 C 71.5639 -5.00403 -3.0629 0
M  V30 800 C 73.9159 -5.55384 -3.02873 0
M  V30 801 C 72.5799 -5.95647 -3.01265 0
M  V30 802 H 71.8499 -0.391433 -0.629175 0
M  V30 803 H 74.4969 -1.53572 -1.14403 0
M  V30 804 H 72.8019 -1.20096 -3.7294 0
M  V30 805 H 74.4989 -1.58936 -3.68158 0
M  V30 806 H 71.0889 -2.91692 -3.14029 0
M  V30 807 H 75.2729 -3.89547 -3.07517 0
M  V30 808 H 70.5289 -5.3081 -3.03399 0
M  V30 809 H 74.7029 -6.29398 -2.98046 0
M  V30 810 H 72.3299 -7.0041 -2.95516 0
M  V30 811 N 73.905 1.17692 -1.04816 0
M  V30 812 C 75.153 1.87488 -0.754497 0
M  V30 813 C 75.474 1.81205 0.720407 0
M  V30 814 O 74.744 1.23544 1.52032 0
M  V30 815 H 73.324 0.694101 -0.276102 0
M  V30 816 H 75.986 1.42793 -1.32651 0
M  V30 817 H 75.082 2.93328 -1.06606 0
M  V30 818 N 75.3831 0.828654 1.34056 0
M  V30 819 C 76.3311 0.242973 2.31327 0
M  V30 820 C 77.3251 -0.61944 1.57668 0
M  V30 821 O 78.5311 -0.51014 1.7262 0
M  V30 822 H 74.9061 0.059834 0.749616 0
M  V30 823 H 76.8771 1.07809 2.78244 0
M  V30 824 C 75.6261 -0.575733 3.429 0
M  V30 825 H 74.9491 0.0785582 3.99723 0
M  V30 826 H 76.3891 -0.951547 4.13185 0
M  V30 827 C 74.8481 -1.75044 2.87856 0
M  V30 828 O 75.3781 -2.84882 2.83205 0
M  V30 829 N 73.5841 -1.56903 2.44602 0
M  V30 830 H 73.1311 -0.675547 2.48584 0
M  V30 831 H 73.0891 -2.35652 2.08124 0
M  V30 832 N 76.8612 -1.46375 0.584142 0
M  V30 833 C 78.0862 -2.07268 0.0740405 0
M  V30 834 C 78.5112 -1.42979 -1.22223 0
M  V30 835 O 77.8692 -0.514092 -1.73859 0
M  V30 836 C 77.9172 -3.60518 -0.0767769 0
M  V30 837 O 77.0212 -3.96533 -1.13292 0
M  V30 838 H 76.3622 -0.660961 0.0634524 0
M  V30 839 H 78.8922 -1.87991 0.807492 0
M  V30 840 H 78.9022 -4.07021 -0.282489 0
M  V30 841 H 77.5772 -4.06702 0.86986 0
M  V30 842 H 76.1542 -3.61738 -0.905553 0
M  V30 843 N 78.3393 -0.321999 -1.54275 0
M  V30 844 C 79.2893 0.560185 -2.21011 0
M  V30 845 C 80.2733 1.08283 -1.19011 0
M  V30 846 O 81.4653 1.02011 -1.44647 0
M  V30 847 C 78.5943 1.72137 -2.97025 0
M  V30 848 C 77.6803 1.21369 -4.06363 0
M  V30 849 N 78.0713 0.425566 -5.04007 0
M  V30 850 C 76.3693 1.49255 -4.20284 0
M  V30 851 C 77.0703 0.152601 -5.815 0
M  V30 852 N 76.0463 0.738294 -5.38563 0
M  V30 853 H 79.8483 -0.049265 -2.93859 0
M  V30 854 H 77.3623 -0.127779 -1.61897 0
M  V30 855 H 79.3593 2.36512 -3.43319 0
M  V30 856 H 78.0193 2.33431 -2.25699 0
M  V30 857 H 79.0303 0.068551 -5.17855 0
M  V30 858 H 75.7073 2.11145 -3.60172 0
M  V30 859 H 77.0973 -0.481764 -6.70171 0
M  V30 860 N 79.8174 1.5752 -0.0501392 0
M  V30 861 C 81.2284 1.80271 0.485705 0
M  V30 862 C 81.5794 0.96228 1.70981 0
M  V30 863 O 80.7044 0.178578 2.15662 0
M  V30 864 C 81.2994 3.26957 0.887938 0
M  V30 865 C 79.8584 3.5063 1.36877 0
M  V30 866 C 79.0054 2.75165 0.343468 0
M  V30 867 H 81.9564 1.56281 -0.276028 0
M  V30 868 H 81.9774 3.37821 1.75093 0
M  V30 869 H 81.4894 3.881 -0.0031809 0
M  V30 870 H 79.5904 2.94766 2.27911 0
M  V30 871 H 79.7034 4.59343 1.36164 0
M  V30 872 H 78.0674 2.4127 0.816128 0
M  V30 873 H 78.8504 3.39034 -0.539548 0
M  V30 874 N 81.2955 -0.223234 1.56011 0
M  V30 875 C 82.7065 -0.790368 1.69145 0
M  V30 876 C 83.0575 -1.85055 0.651845 0
M  V30 877 O 82.1825 -2.15498 -0.197359 0
M  V30 878 C 82.7775 -1.4404 3.06656 0
M  V30 879 C 81.3365 -1.95494 3.2165 0
M  V30 880 C 80.4835 -0.814506 2.65068 0
M  V30 881 H 83.4345 0.00139011 1.587 0
M  V30 882 H 83.4555 -2.30916 3.0242 0
M  V30 883 H 82.9675 -0.668543 3.82298 0
M  V30 884 H 81.0685 -2.75487 2.50874 0
M  V30 885 H 81.1815 -2.13607 4.28846 0
M  V30 886 H 79.5455 -1.22137 2.23505 0
M  V30 887 H 80.3285 -0.0553515 3.43255 0
M  V30 888 N 82.7736 -1.49793 -0.48987 0
M  V30 889 C 84.0016 -1.63568 -1.26701 0
M  V30 890 C 84.4166 -0.311465 -1.86213 0
M  V30 891 O 83.7736 0.704416 -1.68357 0
M  V30 892 C 83.8246 -2.71284 -2.38929 0
M  V30 893 O 83.5456 -3.9857 -1.81861 0
M  V30 894 C 85.0466 -2.95864 -3.3012 0
M  V30 895 H 82.2666 -0.550342 -0.383881 0
M  V30 896 H 84.8106 -1.95898 -0.586864 0
M  V30 897 H 82.9656 -2.417 -3.02753 0
M  V30 898 H 83.3796 -4.57993 -2.55622 0
M  V30 899 H 84.8536 -3.74941 -4.05121 0
M  V30 900 H 85.3306 -2.06206 -3.87783 0
M  V30 901 H 85.9366 -3.26907 -2.72051 0
M  V30 902 N 84.2517 0.741722 -1.39055 0
M  V30 903 C 85.1987 1.85566 -1.37237 0
M  V30 904 C 86.1687 1.64457 -0.233072 0
M  V30 905 O 87.3537 1.85957 -0.427147 0
M  V30 906 C 84.4937 3.23004 -1.215 0
M  V30 907 C 83.6067 3.55864 -2.44918 0
M  V30 908 C 82.7417 4.82669 -2.21821 0
M  V30 909 C 81.7807 5.08351 -3.40948 0
M  V30 910 N 80.9177 6.26356 -3.17211 0
M  V30 911 H 85.7577 1.86455 -2.32462 0
M  V30 912 H 83.2947 0.911176 -1.15482 0
M  V30 913 H 85.2527 4.02331 -1.10389 0
M  V30 914 H 83.8827 3.21411 -0.29908 0
M  V30 915 H 82.9347 2.7129 -2.66657 0
M  V30 916 H 84.2467 3.70765 -3.33668 0
M  V30 917 H 83.4007 5.69962 -2.07914 0
M  V30 918 H 82.1397 4.69929 -1.30454 0
M  V30 919 H 81.1447 4.19522 -3.55361 0
M  V30 920 H 82.3697 5.22981 -4.33207 0
M  V30 921 H 80.3157 6.14917 -2.28502 0
M  V30 922 H 80.2327 6.41813 -3.99515 0
M  V30 923 H 81.5007 7.16506 -3.06984 0
M  V30 924 N 85.7298 1.2412 0.971189 0
M  V30 925 C 86.9778 1.07668 1.71032 0
M  V30 926 C 87.2988 -0.385797 1.91146 0
M  V30 927 O 86.5688 -1.27569 1.4867 0
M  V30 928 H 85.1488 0.395429 0.633755 0
M  V30 929 H 87.8108 1.55984 1.16855 0
M  V30 930 H 86.9068 1.57195 2.69622 0
M  V30 931 N 87.2079 -1.17134 1.05439 0
M  V30 932 C 88.4329 -1.91913 0.786396 0
M  V30 933 C 88.8579 -1.7643 -0.652234 0
M  V30 934 O 88.2159 -1.08372 -1.45345 0
M  V30 935 C 88.2639 -3.40921 1.17497 0
M  V30 936 O 87.3679 -4.11244 0.308589 0
M  V30 937 H 86.7089 -0.598215 0.288158 0
M  V30 938 H 89.2389 -1.48457 1.4079 0
M  V30 939 H 89.2489 -3.91668 1.14281 0
M  V30 940 H 87.9239 -3.5151 2.22292 0
M  V30 941 H 86.5009 -3.70731 0.40157 0
M  V30 942 N 88.686 -0.835752 -1.33615 0
M  V30 943 C 89.649 -0.272 -2.2758 0
M  V30 944 C 90.649 0.557487 -1.50827 0
M  V30 945 O 91.839 0.37173 -1.70188 0
M  V30 946 C 88.971 0.617173 -3.35267 0
M  V30 947 H 90.164 -1.10111 -2.78954 0
M  V30 948 H 87.717 -0.608594 -1.43965 0
M  V30 949 H 88.452 1.46884 -2.89129 0
M  V30 950 H 88.237 0.0237066 -3.92093 0
M  V30 951 H 89.727 1.005 -4.05326 0
M  V30 952 N 90.1641 1.46063 -0.591896 0
M  V30 953 C 91.4111 2.02338 -0.0809991 0
M  V30 954 C 91.7391 1.46228 1.28249 0
M  V30 955 O 90.9941 0.620818 1.85592 0
M  V30 956 C 91.2931 3.57391 0.0249813 0
M  V30 957 C 90.9591 4.32583 -1.27211 0
M  V30 958 C 89.6211 4.52844 -1.62745 0
M  V30 959 C 91.9731 4.75687 -2.13005 0
M  V30 960 C 89.3011 5.13462 -2.83855 0
M  V30 961 C 91.6531 5.37644 -3.3335 0
M  V30 962 C 90.3171 5.5613 -3.69155 0
M  V30 963 H 89.5871 0.740407 -0.0296397 0
M  V30 964 H 92.2341 1.75321 -0.770374 0
M  V30 965 H 90.5391 3.83597 0.797537 0
M  V30 966 H 92.2361 3.98621 0.436184 0
M  V30 967 H 88.8261 4.17116 -0.985499 0
M  V30 968 H 93.0101 4.59782 -1.86855 0
M  V30 969 H 88.2661 5.25965 -3.11722 0
M  V30 970 H 92.4401 5.7 -4.00092 0
M  V30 971 H 90.0671 6.0287 -4.63089 0
M  V30 972 N 91.6422 0.330177 1.54103 0
M  V30 973 C 92.5742 -0.566902 2.22079 0
M  V30 974 C 93.5872 -1.07462 1.22294 0
M  V30 975 O 94.7762 -0.987065 1.48726 0
M  V30 976 C 91.8762 -1.79138 2.87685 0
M  V30 977 C 91.0492 -1.42123 4.13666 0
M  V30 978 C 90.1082 -2.50394 4.62806 0
M  V30 979 O 89.1342 -2.14261 5.27334 0
M  V30 980 N 90.3362 -3.81433 4.37595 0
M  V30 981 H 93.1012 0.0151844 2.99696 0
M  V30 982 H 90.6622 0.153681 1.61169 0
M  V30 983 H 92.6542 -2.50975 3.1748 0
M  V30 984 H 91.2242 -2.28115 2.13734 0
M  V30 985 H 90.4442 -0.534201 3.90564 0
M  V30 986 H 91.7322 -1.14971 4.9564 0
M  V30 987 H 91.1302 -4.13584 3.8596 0
M  V30 988 H 89.6872 -4.4948 4.72029 0
M  V30 989 N 93.1203 -1.57491 0.0584922 0
M  V30 990 C 94.3483 -1.97296 -0.623037 0
M  V30 991 C 94.7633 -0.936338 -1.63946 0
M  V30 992 O 94.1203 0.0785981 -1.82331 0
M  V30 993 C 94.1713 -3.37183 -1.30345 0
M  V30 994 O 93.8923 -4.36872 -0.32773 0
M  V30 995 C 95.3933 -3.91788 -2.07406 0
M  V30 996 H 92.6133 -0.649153 -0.169826 0
M  V30 997 H 95.1573 -2.04106 0.12696 0
M  V30 998 H 93.3123 -3.31502 -2.00463 0
M  V30 999 H 93.7263 -5.18141 -0.814269 0
M  V30 1000 H 95.2003 -4.91926 -2.50425 0
M  V30 1001 H 95.6773 -3.27609 -2.92521 0
M  V30 1002 H 96.2833 -4.00829 -1.42184 0
M  V30 1003 N 94.5984 0.214957 -1.56127 0
M  V30 1004 C 95.5454 1.26642 -1.92952 0
M  V30 1005 C 96.5154 1.46244 -0.78753 0
M  V30 1006 O 97.7004 1.59704 -1.04399 0
M  V30 1007 C 94.8404 2.6104 -2.25726 0
M  V30 1008 C 93.9534 2.49183 -3.52891 0
M  V30 1009 C 93.0884 3.76149 -3.7508 0
M  V30 1010 C 92.1274 3.59041 -4.95738 0
M  V30 1011 N 91.2644 4.77972 -5.14283 0
M  V30 1012 H 96.1044 0.945384 -2.82607 0
M  V30 1013 H 93.6414 0.455489 -1.3987 0
M  V30 1014 H 95.5994 3.39313 -2.42739 0
M  V30 1015 H 94.2294 2.91227 -1.39236 0
M  V30 1016 H 93.2814 1.6231 -3.44034 0
M  V30 1017 H 94.5934 2.32466 -4.41318 0
M  V30 1018 H 93.7474 4.62865 -3.92226 0
M  V30 1019 H 92.4864 3.95799 -2.84947 0
M  V30 1020 H 91.4914 2.7071 -4.78535 0
M  V30 1021 H 92.7164 3.40856 -5.87362 0
M  V30 1022 H 90.6624 4.97923 -4.27093 0
M  V30 1023 H 90.5794 4.64006 -5.96853 0
M  V30 1024 H 91.8474 5.66096 -5.35869 0
M  V30 1025 N 96.0765 1.50051 0.48192 0
M  V30 1026 C 97.3255 1.59741 1.23149 0
M  V30 1027 C 97.6385 0.298163 1.93314 0
M  V30 1028 O 98.8445 0.273835 2.70116 0
M  V30 1029 C 97.3005 2.81926 2.23708 0
M  V30 1030 C 96.9085 4.18685 1.59396 0
M  V30 1031 C 98.6525 3.00956 2.99375 0
M  V30 1032 C 96.5595 5.3207 2.58178 0
M  V30 1033 H 95.4895 0.594838 0.46334 0
M  V30 1034 H 98.1405 1.76467 0.503169 0
M  V30 1035 H 96.5225 2.58736 2.99786 0
M  V30 1036 H 97.6965 4.52088 0.891811 0
M  V30 1037 H 96.0115 4.05171 0.960503 0
M  V30 1038 H 98.6085 3.82836 3.73283 0
M  V30 1039 H 98.9515 2.12258 3.58123 0
M  V30 1040 H 99.4845 3.24277 2.30411 0
M  V30 1041 H 96.2235 6.22888 2.04184 0
M  V30 1042 H 95.7435 5.03098 3.26577 0
M  V30 1043 H 97.4225 5.62196 3.20225 0
M  V30 1044 N 97.5546 -0.734337 1.39446 0
M  V30 1045 C 98.9656 -1.31264 1.32766 0
M  V30 1046 C 99.3166 -1.96198 -0.00767497 0
M  V30 1047 O 98.4416 -1.96346 -0.909796 0
M  V30 1048 C 99.0366 -2.38682 2.4045 0
M  V30 1049 C 97.5956 -2.92184 2.37288 0
M  V30 1050 C 96.7426 -1.6576 2.22304 0
M  V30 1051 H 99.6936 -0.531799 1.49525 0
M  V30 1052 H 99.7146 -3.19087 2.07276 0
M  V30 1053 H 99.2266 -1.91392 3.37625 0
M  V30 1054 H 97.3276 -3.43752 1.43754 0
M  V30 1055 H 97.4406 -3.45253 3.3217 0
M  V30 1056 H 95.8046 -1.9012 1.69489 0
M  V30 1057 H 96.5876 -1.20521 3.21449 0
M  V30 1058 N 99.0327 -1.24633 -0.964593 0
M  V30 1059 C 100.28 -1.08788 -1.70796 0
M  V30 1060 C 100.608 0.372783 -1.90894 0
M  V30 1061 O 99.8627 1.29167 -1.47018 0
M  V30 1062 C 100.162 -1.7763 -3.10133 0
M  V30 1063 C 99.8277 -3.27557 -3.09866 0
M  V30 1064 C 98.4897 -3.6846 -3.09501 0
M  V30 1065 C 100.842 -4.23389 -3.03959 0
M  V30 1066 C 98.1697 -5.03624 -3.00965 0
M  V30 1067 C 100.522 -5.58565 -2.96965 0
M  V30 1068 C 99.1857 -5.98809 -2.9493 0
M  V30 1069 H 98.4557 -0.398084 -0.624988 0
M  V30 1070 H 101.103 -1.54777 -1.12767 0
M  V30 1071 H 99.4077 -1.24044 -3.71645 0
M  V30 1072 H 101.105 -1.62832 -3.66451 0
M  V30 1073 H 97.6947 -2.95006 -3.10917 0
M  V30 1074 H 101.879 -3.92787 -3.03368 0
M  V30 1075 H 97.1347 -5.33998 -2.97752 0
M  V30 1076 H 101.309 -6.32523 -2.91354 0
M  V30 1077 H 98.9357 -7.03505 -2.88071 0
M  V30 1078 N 100.511 1.16574 -1.06058 0
M  V30 1079 C 101.459 2.22941 -0.663343 0
M  V30 1080 C 102.453 1.66358 0.319593 0
M  V30 1081 O 103.659 1.7905 0.184713 0
M  V30 1082 H 100.034 0.725907 -0.196376 0
M  V30 1083 H 102.005 2.53736 -1.57037 0
M  V30 1084 C 100.754 3.47642 -0.0632808 0
M  V30 1085 H 100.077 3.91493 -0.810733 0
M  V30 1086 H 101.517 4.2363 0.177177 0
M  V30 1087 C 99.9758 3.1509 1.19248 0
M  V30 1088 O 100.506 3.30673 2.28075 0
M  V30 1089 N 98.7118 2.6924 1.09353 0
M  V30 1090 H 98.2588 2.5676 0.207912 0
M  V30 1091 H 98.2168 2.47833 1.93458 0
M  V30 1092 N 101.989 0.842826 1.3317 0
M  V30 1093 C 103.405 0.531128 1.50503 0
M  V30 1094 C 103.605 -0.940734 1.78192 0
M  V30 1095 O 102.661 -1.72436 1.84451 0
M  V30 1096 C 103.974 1.40789 2.65705 0
M  V30 1097 C 105.522 1.40708 2.79589 0
M  V30 1098 C 105.997 2.26878 3.97857 0
M  V30 1099 N 107.488 2.24609 4.05099 0
M  V30 1100 C 108.223 2.88019 4.95815 0
M  V30 1101 N 107.719 3.60496 5.9162 0
M  V30 1102 N 109.512 2.77469 4.88843 0
M  V30 1103 H 101.663 1.79557 1.1346 0
M  V30 1104 H 103.926 0.766267 0.558156 0
M  V30 1105 H 103.632 2.454 2.51936 0
M  V30 1106 H 103.506 1.08677 3.61205 0
M  V30 1107 H 105.893 0.368668 2.92788 0
M  V30 1108 H 105.974 1.76829 1.84838 0
M  V30 1109 H 105.618 3.3078 3.85418 0
M  V30 1110 H 105.548 1.88096 4.91861 0
M  V30 1111 H 108.039 1.71906 3.36536 0
M  V30 1112 H 108.352 4.06076 6.57512 0
M  V30 1113 H 106.697 3.64604 5.91683 0
M  V30 1114 H 109.888 2.20406 4.12963 0
M  V30 1115 H 110.061 3.2717 5.59342 0
M  V30 1116 N 103.467 -1.45747 0.599634 0
M  V30 1117 C 104.878 -1.85853 0.177681 0
M  V30 1118 C 105.229 -1.50102 -1.26348 0
M  V30 1119 O 104.354 -0.923905 -1.95686 0
M  V30 1120 C 104.949 -3.37326 0.315688 0
M  V30 1121 C 103.508 -3.76365 -0.0515144 0
M  V30 1122 C 102.655 -2.69722 0.643822 0
M  V30 1123 H 105.606 -1.36661 0.806814 0
M  V30 1124 H 105.627 -3.77778 -0.454321 0
M  V30 1125 H 105.139 -3.63315 1.36468 0
M  V30 1126 H 103.24 -3.55993 -1.09999 0
M  V30 1127 H 103.353 -4.77916 0.336594 0
M  V30 1128 H 101.717 -2.54567 0.0822881 0
M  V30 1129 H 102.5 -2.98549 1.6948 0
M  V30 1130 N 104.945 -0.338344 -1.53925 0
M  V30 1131 C 106.361 0.0137736 -1.59594 0
M  V30 1132 C 106.561 1.49186 -1.35447 0
M  V30 1133 O 105.617 2.24987 -1.14616 0
M  V30 1134 C 106.93 -0.41773 -2.97784 0
M  V30 1135 C 108.478 -0.369633 -3.1081 0
M  V30 1136 C 108.953 -0.776524 -4.51369 0
M  V30 1137 N 110.444 -0.730506 -4.57403 0
M  V30 1138 C 111.179 -1.01736 -5.64303 0
M  V30 1139 N 110.675 -1.3721 -6.79077 0
M  V30 1140 N 112.468 -0.941942 -5.54151 0
M  V30 1141 H 104.619 -1.3012 -1.67876 0
M  V30 1142 H 106.882 -0.530082 -0.78595 0
M  V30 1143 H 106.588 -1.44811 -3.20504 0
M  V30 1144 H 106.462 0.209729 -3.76616 0
M  V30 1145 H 108.849 0.651568 -2.87817 0
M  V30 1146 H 108.93 -1.03223 -2.34049 0
M  V30 1147 H 108.574 -1.79571 -4.75096 0
M  V30 1148 H 108.504 -0.0914649 -5.26521 0
M  V30 1149 H 110.995 -0.468783 -3.74981 0
M  V30 1150 H 111.308 -1.57597 -7.5656 0
M  V30 1151 H 109.653 -1.4105 -6.80536 0
M  V30 1152 H 112.844 -0.664184 -4.63364 0
M  V30 1153 H 113.017 -1.16884 -6.37371 0
M  V30 1154 N 106.423 1.57458 -0.0668435 0
M  V30 1155 C 107.671 1.92919 0.602214 0
M  V30 1156 C 107.992 0.947215 1.70449 0
M  V30 1157 O 107.262 -0.00544117 1.95899 0
M  V30 1158 H 105.842 0.71217 0.22544 0
M  V30 1159 H 108.504 1.94508 -0.123535 0
M  V30 1160 H 107.6 2.94589 1.03073 0
M  V30 1161 N 107.901 -0.206675 1.56239 0
M  V30 1162 C 108.851 -1.26 1.90021 0
M  V30 1163 C 109.835 -1.41566 0.764721 0
M  V30 1164 O 111.027 -1.44131 1.02739 0
M  V30 1165 C 108.156 -2.6073 2.23326 0
M  V30 1166 C 107.242 -2.49005 3.43304 0
M  V30 1167 N 107.633 -2.06946 4.61527 0
M  V30 1168 C 105.931 -2.79927 3.47213 0
M  V30 1169 C 106.632 -2.06832 5.43687 0
M  V30 1170 N 105.608 -2.47892 4.83788 0
M  V30 1171 H 109.41 -0.925955 2.78932 0
M  V30 1172 H 106.924 -0.415172 1.57003 0
M  V30 1173 H 108.921 -3.36798 2.45708 0
M  V30 1174 H 107.581 -2.94968 1.35735 0
M  V30 1175 H 108.592 -1.77839 4.86409 0
M  V30 1176 H 105.269 -3.18438 2.70006 0
M  V30 1177 H 106.659 -1.76312 6.48354 0
M  V30 1178 N 109.379 -1.50304 -0.473955 0
M  V30 1179 C 110.327 -1.69482 -1.59307 0
M  V30 1180 C 111.321 -0.560669 -1.59853 0
M  V30 1181 O 112.527 -0.741087 -1.64036 0
M  V30 1182 H 108.902 -0.534892 -0.528578 0
M  V30 1183 H 110.873 -2.63364 -1.40293 0
M  V30 1184 C 109.622 -1.80354 -2.97267 0
M  V30 1185 H 108.945 -2.67012 -2.97564 0
M  V30 1186 H 110.385 -1.97798 -3.75036 0
M  V30 1187 C 108.844 -0.55448 -3.32306 0
M  V30 1188 O 109.374 0.307661 -4.0052 0
M  V30 1189 N 107.58 -0.409354 -2.87702 0
M  V30 1190 H 107.127 -1.11196 -2.32364 0
M  V30 1191 H 107.085 0.425223 -3.11511 0
M  V30 1192 N 110.857 0.726932 -1.39834 0
M  V30 1193 C 112.104 1.48664 -1.37496 0
M  V30 1194 C 112.432 1.94482 0.0264678 0
M  V30 1195 O 111.687 1.67692 1.00886 0
M  V30 1196 C 111.986 2.73495 -2.30077 0
M  V30 1197 C 111.652 2.46502 -3.77555 0
M  V30 1198 C 110.314 2.3885 -4.17737 0
M  V30 1199 C 112.666 2.23604 -4.70798 0
M  V30 1200 C 109.994 2.06352 -5.49214 0
M  V30 1201 C 112.346 1.92622 -6.02561 0
M  V30 1202 C 111.01 1.83444 -6.41798 0
M  V30 1203 H 110.28 0.544001 -0.503135 0
M  V30 1204 H 112.927 0.833657 -1.72402 0
M  V30 1205 H 111.232 3.43575 -1.88317 0
M  V30 1206 H 112.929 3.31549 -2.25558 0
M  V30 1207 H 109.519 2.5334 -3.45712 0
M  V30 1208 H 113.703 2.28479 -4.40581 0
M  V30 1209 H 108.959 1.97776 -5.78528 0
M  V30 1210 H 113.133 1.73914 -6.74334 0
M  V30 1211 H 110.76 1.58029 -7.43593 0
M  V30 1212 N 112.336 1.25143 0.95797 0
M  V30 1213 C 113.561 1.12521 1.74223 0
M  V30 1214 C 113.986 -0.317402 1.85403 0
M  V30 1215 O 113.344 -1.2299 1.33204 0
M  V30 1216 C 113.392 1.78062 3.1357 0
M  V30 1217 O 112.496 1.058 3.98598 0
M  V30 1218 H 111.837 0.39304 0.535178 0
M  V30 1219 H 114.367 1.65641 1.201 0
M  V30 1220 H 114.377 1.84213 3.64046 0
M  V30 1221 H 113.052 2.83021 3.04749 0
M  V30 1222 H 111.629 1.07506 3.57067 0
M  V30 1223 N 113.814 -1.1601 1.06675 0
M  V30 1224 C 114.744 -2.22688 0.702307 0
M  V30 1225 C 115.725 -1.67306 -0.307032 0
M  V30 1226 O 116.91 -1.93352 -0.181305 0
M  V30 1227 C 114.04 -3.47178 0.092038 0
M  V30 1228 C 112.994 -4.15477 1.02777 0
M  V30 1229 C 112.32 -5.33963 0.28061 0
M  V30 1230 C 113.62 -4.66019 2.35846 0
M  V30 1231 H 115.314 -2.53429 1.59419 0
M  V30 1232 H 112.86 -1.21813 0.767961 0
M  V30 1233 H 114.813 -4.21037 -0.174814 0
M  V30 1234 H 113.537 -3.15749 -0.834877 0
M  V30 1235 H 112.196 -3.43549 1.27944 0
M  V30 1236 H 111.844 -4.98788 -0.649545 0
M  V30 1237 H 111.544 -5.806 0.904258 0
M  V30 1238 H 113.068 -6.10596 0.021396 0
M  V30 1239 H 114.482 -5.3144 2.15045 0
M  V30 1240 H 112.879 -5.23293 2.93743 0
M  V30 1241 H 113.949 -3.82023 2.98641 0
M  V30 1242 N 115.292 -0.849877 -1.32721 0
M  V30 1243 C 116.224 -0.248332 -2.27851 0
M  V30 1244 C 117.237 0.577218 -1.52224 0
M  V30 1245 O 118.426 0.402489 -1.73903 0
M  V30 1246 C 115.526 0.668107 -3.32249 0
M  V30 1247 C 114.699 -0.120534 -4.37234 0
M  V30 1248 C 113.758 0.720932 -5.21238 0
M  V30 1249 O 112.784 0.156166 -5.68986 0
M  V30 1250 N 113.986 2.03647 -5.43607 0
M  V30 1251 H 116.751 -1.06575 -2.80111 0
M  V30 1252 H 114.312 -0.709395 -1.45531 0
M  V30 1253 H 116.304 1.23627 -3.85355 0
M  V30 1254 H 114.874 1.38621 -2.80184 0
M  V30 1255 H 114.094 -0.870108 -3.84477 0
M  V30 1256 H 115.382 -0.662406 -5.0447 0
M  V30 1257 H 114.78 2.51871 -5.06535 0
M  V30 1258 H 113.337 2.55287 -5.99727 0
M  V30 1259 N 116.77 1.45427 -0.607355 0
M  V30 1260 C 117.998 2.06614 -0.108814 0
M  V30 1261 C 118.413 1.45204 1.2067 0
M  V30 1262 O 117.77 0.566132 1.73497 0
M  V30 1263 C 117.821 3.61481 0.0375347 0
M  V30 1264 O 117.542 4.20598 -1.22593 0
M  V30 1265 C 119.043 4.39652 0.567561 0
M  V30 1266 H 116.263 0.66747 -0.0687351 0
M  V30 1267 H 118.807 1.86675 -0.835022 0
M  V30 1268 H 116.962 3.80762 0.714068 0
M  V30 1269 H 117.376 5.1377 -1.05547 0
M  V30 1270 H 118.85 5.48518 0.61905 0
M  V30 1271 H 119.327 4.09417 1.58978 0
M  V30 1272 H 119.933 4.25234 -0.0749202 0
M  V30 1273 N 118.248 0.346503 1.53744 0
M  V30 1274 C 119.473 -0.253074 2.0585 0
M  V30 1275 C 119.898 -1.43202 1.21962 0
M  V30 1276 O 119.256 -1.79783 0.234073 0
M  V30 1277 C 119.304 -0.643193 3.54817 0
M  V30 1278 O 118.408 -1.74286 3.73762 0
M  V30 1279 H 117.749 -0.0413583 0.662711 0
M  V30 1280 H 120.279 0.501574 1.98357 0
M  V30 1281 H 120.289 -0.919526 3.97503 0
M  V30 1282 H 118.964 0.218966 4.15323 0
M  V30 1283 H 117.541 -1.46356 3.42979 0
M  V30 1284 N 119.726 -1.57421 0.075193 0
M  V30 1285 C 120.689 -2.11791 -0.876203 0
M  V30 1286 C 121.689 -1.04268 -1.22412 0
M  V30 1287 O 122.879 -1.30242 -1.15684 0
M  V30 1288 C 120.011 -2.62207 -2.17854 0
M  V30 1289 H 121.204 -2.9716 -0.40444 0
M  V30 1290 H 118.757 -1.55333 -0.173557 0
M  V30 1291 H 119.492 -1.803 -2.6956 0
M  V30 1292 H 119.277 -3.40802 -1.93897 0
M  V30 1293 H 120.767 -3.04335 -2.85955 0
M  V30 1294 N 121.204 0.198386 -1.56346 0
M  V30 1295 C 122.45 0.920648 -1.80698 0
M  V30 1296 C 122.783 1.83045 -0.648697 0
M  V30 1297 O 122.058 1.91308 0.350925 0
M  V30 1298 C 122.341 1.73971 -3.15287 0
M  V30 1299 C 122.194 0.85485 -4.41602 0
M  V30 1300 C 123.513 2.71296 -3.46535 0
M  V30 1301 H 120.632 0.333261 -0.657348 0
M  V30 1302 H 123.274 0.188198 -1.89066 0
M  V30 1303 H 121.424 2.36416 -3.08285 0
M  V30 1304 H 123.096 0.245362 -4.60647 0
M  V30 1305 H 121.339 0.161398 -4.335 0
M  V30 1306 H 122.01 1.46286 -5.32264 0
M  V30 1307 H 124.486 2.18983 -3.53816 0
M  V30 1308 H 123.362 3.2569 -4.41834 0
M  V30 1309 H 123.623 3.5018 -2.69864 0
M  V30 1310 N 122.682 1.50554 0.465978 0
M  V30 1311 C 123.928 1.62038 1.21949 0
M  V30 1312 C 124.261 0.322116 1.9151 0
M  V30 1313 O 123.536 -0.676723 1.82348 0
M  V30 1314 C 123.819 2.80421 2.25912 0
M  V30 1315 C 123.672 4.20144 1.60622 0
M  V30 1316 C 124.991 2.94354 3.27176 0
M  V30 1317 H 122.11 0.589752 0.441998 0
M  V30 1318 H 124.752 1.82956 0.51257 0
M  V30 1319 H 122.902 2.62717 2.86203 0
M  V30 1320 H 124.574 4.49449 1.03889 0
M  V30 1321 H 122.817 4.24165 0.909211 0
M  V30 1322 H 123.488 4.98914 2.36196 0
M  V30 1323 H 125.964 3.10578 2.76913 0
M  V30 1324 H 124.84 3.788 3.97242 0
M  V30 1325 H 125.101 2.05186 3.916 0
M  V30 1326 N 124.16 -0.719506 1.40217 0
M  V30 1327 C 125.09 -1.8465 1.42922 0
M  V30 1328 C 126.071 -1.67599 0.29062 0
M  V30 1329 O 127.256 -1.87688 0.498677 0
M  V30 1330 C 124.386 -3.22565 1.28722 0
M  V30 1331 C 123.34 -3.54281 2.40144 0
M  V30 1332 C 122.666 -4.91298 2.11023 0
M  V30 1333 C 123.966 -3.55676 3.82481 0
M  V30 1334 H 125.66 -1.82644 2.37237 0
M  V30 1335 H 123.206 -0.877305 1.1419 0
M  V30 1336 H 125.159 -4.01095 1.29232 0
M  V30 1337 H 123.883 -3.25137 0.308811 0
M  V30 1338 H 122.542 -2.78088 2.38877 0
M  V30 1339 H 122.19 -4.90468 1.11582 0
M  V30 1340 H 121.89 -5.13485 2.8567 0
M  V30 1341 H 123.414 -5.72166 2.13209 0
M  V30 1342 H 124.828 -4.24254 3.85592 0
M  V30 1343 H 123.225 -3.89388 4.56614 0
M  V30 1344 H 124.295 -2.55144 4.12346 0
M  V30 1345 N 125.638 -1.25649 -0.95132 0
M  V30 1346 C 126.585 -1.06323 -2.04851 0
M  V30 1347 C 127.555 0.0286491 -1.66075 0
M  V30 1348 O 128.74 -0.12917 -1.90362 0
M  V30 1349 C 125.88 -0.691529 -3.381 0
M  V30 1350 C 124.993 -1.85861 -3.89974 0
M  V30 1351 C 124.128 -1.43096 -5.11563 0
M  V30 1352 C 123.167 -2.56696 -5.55674 0
M  V30 1353 N 122.304 -2.14684 -6.68472 0
M  V30 1354 H 127.144 -2.00222 -2.20715 0
M  V30 1355 H 124.681 -0.997027 -1.08156 0
M  V30 1356 H 126.639 -0.456963 -4.1469 0
M  V30 1357 H 125.269 0.210474 -3.22113 0
M  V30 1358 H 124.321 -2.20639 -3.09875 0
M  V30 1359 H 125.633 -2.71161 -4.18657 0
M  V30 1360 H 124.787 -1.15624 -5.9558 0
M  V30 1361 H 123.526 -0.548722 -4.84603 0
M  V30 1362 H 122.531 -2.84909 -4.7022 0
M  V30 1363 H 123.756 -3.45503 -5.8464 0
M  V30 1364 H 121.702 -1.28881 -6.43215 0
M  V30 1365 H 121.619 -2.9353 -6.96689 0
M  V30 1366 H 122.887 -1.90397 -7.5589 0
M  V30 1367 N 127.117 1.15442 -1.07289 0
M  V30 1368 C 128.065 2.22225 -0.686952 0
M  V30 1369 C 129.059 1.66688 0.30193 0
M  V30 1370 O 130.265 1.79236 0.165712 0
M  V30 1371 H 126.64 0.723783 -0.204064 0
M  V30 1372 H 128.611 2.52056 -1.5972 0
M  V30 1373 C 127.36 3.47556 -0.100149 0
M  V30 1374 H 126.683 3.90612 -0.852211 0
M  V30 1375 H 128.123 4.23794 0.132235 0
M  V30 1376 C 126.582 3.16337 1.159 0
M  V30 1377 O 127.112 3.33074 2.24555 0
M  V30 1378 N 125.318 2.70385 1.06491 0
M  V30 1379 H 124.865 2.56966 0.180668 0
M  V30 1380 H 124.823 2.49871 1.90819 0
M  V30 1381 N 128.595 0.856903 1.32268 0
M  V30 1382 C 129.823 0.475439 2.01363 0
M  V30 1383 C 130.238 -0.928486 1.64392 0
M  V30 1384 O 129.595 -1.60624 0.866387 0
M  V30 1385 C 129.646 0.607545 3.56358 0
M  V30 1386 O 129.367 1.95617 3.92002 0
M  V30 1387 C 130.868 0.225382 4.42727 0
M  V30 1388 H 128.088 0.186636 0.644521 0
M  V30 1389 H 130.632 1.15446 1.68797 0
M  V30 1390 H 128.787 -0.0237719 3.87393 0
M  V30 1391 H 129.201 1.95455 4.86721 0
M  V30 1392 H 130.675 0.368813 5.50767 0
M  V30 1393 H 131.152 -0.834369 4.31202 0
M  V30 1394 H 131.758 0.831864 4.17085 0
M  V30 1395 N 130.073 -1.45103 0.615059 0
M  V30 1396 C 131.036 -2.29025 -0.0895485 0
M  V30 1397 C 132.036 -1.40174 -0.787906 0
M  V30 1398 O 133.226 -1.62217 -0.634933 0
M  V30 1399 C 130.358 -3.21376 -1.13711 0
M  V30 1400 H 131.551 -2.92807 0.648382 0
M  V30 1401 H 129.104 -1.51749 0.374444 0
M  V30 1402 H 129.839 -2.6241 -1.90556 0
M  V30 1403 H 129.624 -3.86834 -0.640475 0
M  V30 1404 H 131.114 -3.84459 -1.63036 0
M  V30 1405 N 131.551 -0.354651 -1.53558 0
M  V30 1406 C 132.799 0.237972 -2.00694 0
M  V30 1407 C 133.12 1.50173 -1.24391 0
M  V30 1408 O 132.39 1.92673 -0.354135 0
M  V30 1409 H 130.97 0.0909256 -0.741446 0
M  V30 1410 H 133.632 -0.478368 -1.88938 0
M  V30 1411 H 132.728 0.47264 -3.085 0
M  V30 1412 N 133.029 1.57378 -0.0835403 0
M  V30 1413 C 133.992 2.12252 0.864959 0
M  V30 1414 C 134.992 1.04916 1.21858 0
M  V30 1415 O 136.182 1.30853 1.14991 0
M  V30 1416 C 133.314 2.63358 2.16461 0
M  V30 1417 H 134.507 2.97371 0.388676 0
M  V30 1418 H 132.06 1.55423 0.165317 0
M  V30 1419 H 132.795 1.81727 2.686 0
M  V30 1420 H 132.58 3.41826 1.92087 0
M  V30 1421 H 134.07 3.05847 2.84337 0
M  V30 1422 N 134.507 -0.190092 1.56449 0
M  V30 1423 C 135.735 -0.925772 1.85033 0
M  V30 1424 C 136.15 -1.76638 0.666658 0
M  V30 1425 O 135.507 -1.78822 -0.364565 0
M  V30 1426 C 135.558 -1.81786 3.12468 0
M  V30 1427 O 135.279 -1.01118 4.26271 0
M  V30 1428 C 136.78 -2.6648 3.54265 0
M  V30 1429 H 134 -0.269872 0.614337 0
M  V30 1430 H 136.544 -0.195837 2.0356 0
M  V30 1431 H 134.699 -2.50136 2.95822 0
M  V30 1432 H 135.113 -1.61956 4.98869 0
M  V30 1433 H 136.587 -3.24722 4.46385 0
M  V30 1434 H 137.064 -3.40434 2.77491 0
M  V30 1435 H 137.67 -2.03493 3.73458 0
M  V30 1436 N 135.985 -1.50799 -0.457987 0
M  V30 1437 C 136.932 -1.70617 -1.5543 0
M  V30 1438 C 137.902 -0.547562 -1.56815 0
M  V30 1439 O 139.087 -0.779647 -1.74144 0
M  V30 1440 C 136.227 -1.81831 -2.93311 0
M  V30 1441 C 135.34 -3.09278 -3.01615 0
M  V30 1442 C 134.475 -3.11209 -4.30491 0
M  V30 1443 C 133.514 -4.33055 -4.32585 0
M  V30 1444 N 132.651 -4.32652 -5.52952 0
M  V30 1445 H 137.491 -2.64207 -1.37836 0
M  V30 1446 H 135.028 -1.30959 -0.669937 0
M  V30 1447 H 136.986 -1.86314 -3.73287 0
M  V30 1448 H 135.616 -0.916685 -3.0951 0
M  V30 1449 H 134.668 -3.14203 -2.1443 0
M  V30 1450 H 135.98 -3.99233 -2.99022 0
M  V30 1451 H 135.134 -3.14494 -5.18824 0
M  V30 1452 H 133.873 -2.19106 -4.35711 0
M  V30 1453 H 132.878 -4.29969 -3.42647 0
M  V30 1454 H 134.103 -5.264 -4.29046 0
M  V30 1455 H 132.049 -3.43409 -5.58933 0
M  V30 1456 H 131.966 -5.16392 -5.52155 0
M  V30 1457 H 133.234 -4.40101 -6.43375 0
M  V30 1458 N 137.463 0.71206 -1.40597 0
M  V30 1459 C 138.709 1.47416 -1.39271 0
M  V30 1460 C 139.042 1.942 0.00388791 0
M  V30 1461 O 138.317 1.68403 0.973179 0
M  V30 1462 C 138.6 2.69774 -2.38525 0
M  V30 1463 C 138.453 2.28861 -3.87224 0
M  V30 1464 C 139.772 3.71939 -2.35264 0
M  V30 1465 H 136.891 0.534713 -0.5072 0
M  V30 1466 H 139.533 0.812375 -1.71757 0
M  V30 1467 H 137.683 3.26238 -2.10953 0
M  V30 1468 H 139.355 1.77852 -4.25636 0
M  V30 1469 H 137.598 1.60824 -4.02887 0
M  V30 1470 H 138.269 3.16584 -4.52193 0
M  V30 1471 H 140.745 3.25113 -2.59694 0
M  V30 1472 H 139.621 4.55186 -3.06753 0
M  V30 1473 H 139.882 4.20484 -1.36549 0
M  V30 1474 N 138.941 1.26152 0.944643 0
M  V30 1475 C 140.19 1.10883 1.68487 0
M  V30 1476 C 140.503 -0.348153 1.92477 0
M  V30 1477 O 141.709 -0.621459 2.64292 0
M  V30 1478 C 140.165 1.93624 3.03377 0
M  V30 1479 C 139.773 3.43875 2.87148 0
M  V30 1480 C 141.517 1.86954 3.81115 0
M  V30 1481 C 139.424 4.18875 4.1749 0
M  V30 1482 H 138.354 0.41135 0.631907 0
M  V30 1483 H 141.005 1.50433 1.05082 0
M  V30 1484 H 139.387 1.46904 3.67743 0
M  V30 1485 H 140.561 3.98338 2.31653 0
M  V30 1486 H 138.876 3.51744 2.22856 0
M  V30 1487 H 141.473 2.40275 4.77673 0
M  V30 1488 H 141.816 0.839518 4.07747 0
M  V30 1489 H 142.349 2.31477 3.23517 0
M  V30 1490 H 139.088 5.22332 3.96043 0
M  V30 1491 H 138.608 3.69193 4.72712 0
M  V30 1492 H 140.287 4.27134 4.85968 0
M  V30 1493 N 140.419 -1.14872 1.07899 0
M  V30 1494 C 141.382 -2.17986 0.708161 0
M  V30 1495 C 142.382 -1.58775 -0.25442 0
M  V30 1496 O 143.572 -1.74166 -0.034645 0
M  V30 1497 C 140.704 -3.40871 0.0446929 0
M  V30 1498 H 141.897 -2.52306 1.62116 0
M  V30 1499 H 139.45 -1.2943 0.876218 0
M  V30 1500 H 140.185 -3.12124 -0.880281 0
M  V30 1501 H 139.97 -3.8511 0.737091 0
M  V30 1502 H 141.46 -4.17121 -0.19991 0
M  V30 1503 N 141.898 -0.863906 -1.31812 0
M  V30 1504 C 142.861 -0.320212 -2.26952 0
M  V30 1505 C 143.861 0.525369 -1.51975 0
M  V30 1506 O 145.051 0.335547 -1.70938 0
M  V30 1507 C 142.183 0.545919 -3.365 0
M  V30 1508 H 143.376 -1.16004 -2.76556 0
M  V30 1509 H 140.929 -0.638995 -1.42641 0
M  V30 1510 H 141.664 1.40718 -2.92179 0
M  V30 1511 H 141.449 -0.0594674 -3.92055 0
M  V30 1512 H 142.939 0.918796 -4.07367 0
M  V30 1513 N 143.376 1.44774 -0.622745 0
M  V30 1514 C 144.308 2.28856 0.125485 0
M  V30 1515 C 145.321 1.40811 0.817069 0
M  V30 1516 O 146.51 1.65044 0.679918 0
M  V30 1517 C 143.61 3.16963 1.19949 0
M  V30 1518 C 142.783 4.33374 0.592064 0
M  V30 1519 C 141.842 5.02577 1.55893 0
M  V30 1520 O 140.868 5.58873 1.07933 0
M  V30 1521 N 142.07 5.03256 2.89334 0
M  V30 1522 H 144.835 2.93713 -0.596068 0
M  V30 1523 H 142.396 1.55129 -0.463303 0
M  V30 1524 H 144.388 3.60123 1.84644 0
M  V30 1525 H 142.958 2.53913 1.82337 0
M  V30 1526 H 142.178 3.93509 -0.233322 0
M  V30 1527 H 143.466 5.08527 0.166738 0
M  V30 1528 H 142.864 4.58836 3.30887 0
M  V30 1529 H 141.421 5.50232 3.49412 0
M  V30 1530 N 144.854 0.36279 1.53368 0
M  V30 1531 C 145.817 -0.472679 2.24273 0
M  V30 1532 C 146.817 -1.012 1.24961 0
M  V30 1533 O 148.007 -0.898194 1.49259 0
M  V30 1534 C 145.139 -1.66039 2.97731 0
M  V30 1535 H 146.332 0.14773 2.99536 0
M  V30 1536 H 143.885 0.114434 1.55881 0
M  V30 1537 H 144.62 -2.31896 2.26704 0
M  V30 1538 H 144.405 -1.28066 3.70596 0
M  V30 1539 H 145.895 -2.25252 3.51641 0
M  V30 1540 N 146.332 -1.57332 0.0918853 0
M  V30 1541 C 147.264 -2.10869 -0.898168 0
M  V30 1542 C 148.277 -1.04521 -1.24817 0
M  V30 1543 O 149.466 -1.31977 -1.20184 0
M  V30 1544 C 146.566 -2.57083 -2.2082 0
M  V30 1545 C 145.739 -3.87229 -2.03402 0
M  V30 1546 C 144.798 -4.19324 -3.17889 0
M  V30 1547 O 143.824 -4.88598 -2.91994 0
M  V30 1548 N 145.026 -3.74471 -4.43567 0
M  V30 1549 H 147.791 -2.96439 -0.440943 0
M  V30 1550 H 145.352 -1.61631 -0.0933064 0
M  V30 1551 H 147.344 -2.75602 -2.96354 0
M  V30 1552 H 145.914 -1.76541 -2.57977 0
M  V30 1553 H 145.134 -3.7789 -1.12218 0
M  V30 1554 H 146.422 -4.72379 -1.89038 0
M  V30 1555 H 145.82 -3.18546 -4.67488 0
M  V30 1556 H 144.377 -3.98151 -5.16061 0
M  V30 1557 N 147.81 0.181792 -1.56548 0
M  V30 1558 C 148.742 1.24956 -1.92142 0
M  V30 1559 C 149.755 1.41022 -0.813422 0
M  V30 1560 O 150.944 1.41212 -1.09186 0
M  V30 1561 C 148.044 2.61981 -2.14987 0
M  V30 1562 C 147.217 2.6735 -3.46183 0
M  V30 1563 C 146.276 3.85664 -3.5798 0
M  V30 1564 O 145.302 3.72148 -4.30691 0
M  V30 1565 N 146.504 5.01683 -2.92053 0
M  V30 1566 H 149.269 0.947329 -2.84334 0
M  V30 1567 H 146.83 0.371629 -1.57577 0
M  V30 1568 H 148.822 3.3958 -2.20154 0
M  V30 1569 H 147.392 2.84637 -1.2923 0
M  V30 1570 H 146.612 1.75925 -3.52766 0
M  V30 1571 H 147.9 2.67939 -4.32534 0
M  V30 1572 H 147.298 5.15564 -2.32832 0
M  V30 1573 H 145.855 5.77181 -3.0283 0
M  V30 1574 N 149.288 1.51039 0.449983 0
M  V30 1575 C 150.251 1.70863 1.5277 0
M  V30 1576 C 151.251 0.578846 1.5002 0
M  V30 1577 O 152.441 0.846213 1.52266 0
M  V30 1578 C 149.573 1.75341 2.9235 0
M  V30 1579 H 150.766 2.67034 1.36502 0
M  V30 1580 H 148.319 1.40838 0.677812 0
M  V30 1581 H 149.054 0.809383 3.14037 0
M  V30 1582 H 148.839 2.57436 2.95752 0
M  V30 1583 H 150.329 1.92559 3.70555 0
M  V30 1584 N 150.766 -0.704594 1.40972 0
M  V30 1585 C 151.716 -1.81051 1.38581 0
M  V30 1586 C 152.7 -1.58759 0.261585 0
M  V30 1587 O 153.892 -1.69745 0.501556 0
M  V30 1588 C 151.021 -3.19279 1.26157 0
M  V30 1589 C 150.107 -3.47296 2.43405 0
M  V30 1590 N 150.498 -3.46064 3.68881 0
M  V30 1591 C 148.796 -3.77804 2.37023 0
M  V30 1592 C 149.497 -3.72733 4.46592 0
M  V30 1593 N 148.473 -3.9203 3.76581 0
M  V30 1594 H 152.275 -1.78448 2.33525 0
M  V30 1595 H 149.789 -0.904198 1.349 0
M  V30 1596 H 151.786 -3.98488 1.22526 0
M  V30 1597 H 150.446 -3.231 0.321902 0
M  V30 1598 H 151.457 -3.26656 4.01891 0
M  V30 1599 H 148.134 -3.8905 1.51481 0
M  V30 1600 H 149.524 -3.77993 5.55492 0
M  V30 1601 N 152.244 -1.26651 -0.937939 0
M  V30 1602 C 153.49 -1.12553 -1.687 0
M  V30 1603 C 153.823 0.329782 -1.91379 0
M  V30 1604 O 153.098 1.24202 -1.4968 0
M  V30 1605 C 153.381 -1.89862 -3.05981 0
M  V30 1606 C 153.234 -3.43318 -2.90607 0
M  V30 1607 C 154.553 -1.69499 -4.0615 0
M  V30 1608 H 151.672 -0.410257 -0.612257 0
M  V30 1609 H 154.314 -1.55685 -1.08913 0
M  V30 1610 H 152.464 -1.53204 -3.57017 0
M  V30 1611 H 154.136 -3.89747 -2.46769 0
M  V30 1612 H 152.379 -3.70179 -2.26164 0
M  V30 1613 H 153.05 -3.92642 -3.8799 0
M  V30 1614 H 155.526 -2.01442 -3.64088 0
M  V30 1615 H 154.402 -2.26002 -5.00214 0
M  V30 1616 H 154.663 -0.640365 -4.37438 0
M  V30 1617 N 153.722 1.14298 -1.08507 0
M  V30 1618 C 154.654 2.1907 -0.673859 0
M  V30 1619 C 155.667 1.60381 0.279577 0
M  V30 1620 O 156.856 1.78374 0.0670754 0
M  V30 1621 C 153.956 3.38888 0.0290979 0
M  V30 1622 C 153.129 4.27103 -0.943494 0
M  V30 1623 C 152.188 5.25477 -0.275676 0
M  V30 1624 O 151.214 5.61709 -0.920401 0
M  V30 1625 N 152.416 5.7227 0.974013 0
M  V30 1626 H 155.181 2.54965 -1.57521 0
M  V30 1627 H 152.742 1.29528 -0.971287 0
M  V30 1628 H 154.734 4.01761 0.48683 0
M  V30 1629 H 153.304 3.01309 0.832555 0
M  V30 1630 H 152.524 3.61149 -1.58004 0
M  V30 1631 H 153.812 4.82905 -1.60251 0
M  V30 1632 H 153.21 5.44965 1.51755 0
M  V30 1633 H 151.767 6.37127 1.37522 0
M  V30 1634 N 155.201 0.870884 1.31352 0
M  V30 1635 C 156.164 0.332243 2.26779 0
M  V30 1636 C 157.164 -0.517302 1.52252 0
M  V30 1637 O 158.354 -0.326477 1.71113 0
M  V30 1638 C 155.486 -0.528066 3.36785 0
M  V30 1639 H 156.679 1.17469 2.75937 0
M  V30 1640 H 154.232 0.64655 1.423 0
M  V30 1641 H 154.967 -1.39167 2.92922 0
M  V30 1642 H 154.752 0.0802582 3.92018 0
M  V30 1643 H 156.242 -0.897179 4.07849 0
M  V30 1644 N 156.679 -1.44442 0.630414 0
M  V30 1645 C 158.09 -1.85434 0.217063 0
M  V30 1646 C 158.441 -1.52748 -1.23136 0
M  V30 1647 O 157.566 -0.965205 -1.93682 0
M  V30 1648 C 158.161 -3.36581 0.387168 0
M  V30 1649 C 156.72 -3.76389 0.0283297 0
M  V30 1650 C 155.867 -2.68296 0.700889 0
M  V30 1651 H 158.818 -1.34919 0.83562 0
M  V30 1652 H 158.839 -3.78657 -0.374086 0
M  V30 1653 H 158.351 -3.60339 1.44144 0
M  V30 1654 H 156.452 -3.58246 -1.02423 0
M  V30 1655 H 156.565 -4.77095 0.437892 0
M  V30 1656 H 154.929 -2.54335 0.136267 0
M  V30 1657 H 155.712 -2.94887 1.75774 0
M  V30 1658 N 158.157 -0.370918 -1.53173 0
M  V30 1659 C 159.089 0.507823 -2.23503 0
M  V30 1660 C 160.102 1.04182 -1.251 0
M  V30 1661 O 161.291 0.947286 -1.5129 0
M  V30 1662 C 158.391 1.71447 -2.92334 0
M  V30 1663 C 157.564 1.31105 -4.17289 0
M  V30 1664 C 156.623 2.38035 -4.69282 0
M  V30 1665 O 155.649 2.00204 -5.32829 0
M  V30 1666 N 156.851 3.69697 -4.47554 0
M  V30 1667 H 159.616 -0.0946382 -2.99551 0
M  V30 1668 H 157.177 -0.196358 -1.60705 0
M  V30 1669 H 159.169 2.42469 -3.24023 0
M  V30 1670 H 157.739 2.22368 -2.19707 0
M  V30 1671 H 156.959 0.430462 -3.91843 0
M  V30 1672 H 158.247 1.0179 -4.98514 0
M  V30 1673 H 157.645 4.03205 -3.9679 0
M  V30 1674 H 156.202 4.36807 -4.8378 0
M  V30 1675 N 159.635 1.57281 -0.100228 0
M  V30 1676 C 160.884 1.93713 0.561984 0
M  V30 1677 C 161.197 0.984492 1.69018 0
M  V30 1678 O 162.403 1.24273 2.41389 0
M  V30 1679 C 160.859 3.4421 1.05106 0
M  V30 1680 C 160.467 4.47975 -0.0476628 0
M  V30 1681 C 162.211 3.89595 1.68571 0
M  V30 1682 C 160.118 5.89631 0.457055 0
M  V30 1683 H 159.048 0.723082 0.2137 0
M  V30 1684 H 161.699 1.82644 -0.177057 0
M  V30 1685 H 160.081 3.50449 1.84395 0
M  V30 1686 H 161.255 4.53385 -0.823333 0
M  V30 1687 H 159.57 4.1223 -0.587816 0
M  V30 1688 H 162.167 4.92832 2.07414 0
M  V30 1689 H 162.51 3.28526 2.55688 0
M  V30 1690 H 163.043 3.86078 0.958562 0
M  V30 1691 H 159.782 6.54411 -0.377616 0
M  V30 1692 H 159.302 5.87681 1.19962 0
M  V30 1693 H 160.981 6.40363 0.92437 0
M  V30 1694 N 161.113 -0.173488 1.56642 0
M  V30 1695 C 162.361 -0.888706 1.81512 0
M  V30 1696 C 162.682 -1.82875 0.676872 0
M  V30 1697 O 161.952 -1.93536 -0.303414 0
M  V30 1698 H 160.532 -0.331164 0.669582 0
M  V30 1699 H 163.194 -0.173823 1.94123 0
M  V30 1700 H 162.29 -1.46691 2.75478 0
M  V30 1701 N 162.591 -1.51276 -0.441967 0
M  V30 1702 C 163.554 -1.7167 -1.51862 0
M  V30 1703 C 164.554 -0.586793 -1.49711 0
M  V30 1704 O 165.744 -0.854276 -1.51815 0
M  V30 1705 C 162.876 -1.76889 -2.91416 0
M  V30 1706 H 164.069 -2.67754 -1.35084 0
M  V30 1707 H 161.622 -1.41196 -0.670333 0
M  V30 1708 H 162.357 -0.826026 -3.13604 0
M  V30 1709 H 162.142 -2.59001 -2.94382 0
M  V30 1710 H 163.632 -1.94522 -3.69528 0
M  V30 1711 N 164.069 0.697108 -1.41344 0
M  V30 1712 C 165.315 1.45796 -1.41828 0
M  V30 1713 C 165.67 1.92382 -0.0261743 0
M  V30 1714 O 164.963 1.66522 0.947688 0
M  V30 1715 C 165.157 2.68553 -2.35826 0
M  V30 1716 C 164.986 2.33975 -3.84039 0
M  V30 1717 C 163.756 2.24414 -4.52732 0
M  V30 1718 C 165.954 1.97048 -4.75054 0
M  V30 1719 N 163.936 1.82705 -5.86082 0
M  V30 1720 C 165.307 1.66086 -5.9734 0
M  V30 1721 C 167.362 1.83845 -4.62715 0
M  V30 1722 C 166.065 1.23246 -7.08663 0
M  V30 1723 C 168.091 1.4241 -5.73998 0
M  V30 1724 C 167.453 1.12357 -6.95381 0
M  V30 1725 H 163.552 0.530859 -0.574206 0
M  V30 1726 H 166.136 0.806674 -1.77203 0
M  V30 1727 H 164.307 3.31404 -2.02549 0
M  V30 1728 H 166.039 3.35015 -2.2704 0
M  V30 1729 H 162.794 2.4276 -4.0665 0
M  V30 1730 H 163.218 1.64337 -6.56751 0
M  V30 1731 H 167.86 2.05734 -3.69369 0
M  V30 1732 H 165.578 1.00102 -8.01876 0
M  V30 1733 H 169.164 1.32746 -5.66454 0
M  V30 1734 H 168.044 0.807795 -7.80028 0
M  V30 1735 N 165.547 1.27147 0.931209 0
M  V30 1736 C 166.963 1.04475 1.20653 0
M  V30 1737 C 167.163 -0.223885 2.00252 0
M  V30 1738 O 166.219 -0.930332 2.34736 0
M  V30 1739 C 167.532 2.28209 1.95809 0
M  V30 1740 C 169.08 2.33211 2.08762 0
M  V30 1741 C 169.555 3.56665 2.87323 0
M  V30 1742 N 171.046 3.57201 2.94892 0
M  V30 1743 C 171.781 4.49395 3.56134 0
M  V30 1744 N 171.277 5.51889 4.18796 0
M  V30 1745 N 173.07 4.37026 3.53504 0
M  V30 1746 H 165.221 2.08612 0.399333 0
M  V30 1747 H 167.484 0.917312 0.239253 0
M  V30 1748 H 167.19 3.20538 1.44736 0
M  V30 1749 H 167.064 2.33247 2.96438 0
M  V30 1750 H 169.451 1.41391 2.59023 0
M  V30 1751 H 169.532 2.32178 1.07364 0
M  V30 1752 H 169.176 4.4882 2.37746 0
M  V30 1753 H 169.106 3.54948 3.88998 0
M  V30 1754 H 171.597 2.83074 2.50354 0
M  V30 1755 H 171.91 6.18409 4.63454 0
M  V30 1756 H 170.255 5.55735 4.17353 0
M  V30 1757 H 173.446 3.56166 3.03749 0
M  V30 1758 H 173.619 5.09067 4.00942 0
M  V30 1759 N 167.025 -1.13721 1.09112 0
M  V30 1760 C 167.973 -2.21103 0.722219 0
M  V30 1761 C 168.967 -1.67147 -0.275374 0
M  V30 1762 O 170.173 -1.79477 -0.137176 0
M  V30 1763 H 166.548 -0.720445 0.215553 0
M  V30 1764 H 168.519 -2.49483 1.63709 0
M  V30 1765 C 167.268 -3.47352 0.15543 0
M  V30 1766 H 166.591 -3.89206 0.914246 0
M  V30 1767 H 168.031 -4.2395 -0.0647967 0
M  V30 1768 C 166.49 -3.1814 -1.10852 0
M  V30 1769 O 167.02 -3.36604 -2.19227 0
M  V30 1770 N 165.226 -2.72045 -1.02176 0
M  V30 1771 H 164.773 -2.57221 -0.139764 0
M  V30 1772 H 164.731 -2.52875 -1.8682 0
M  V30 1773 N 168.503 -0.877838 -1.30888 0
M  V30 1774 C 169.919 -0.570844 -1.49042 0
M  V30 1775 C 170.119 0.893159 -1.80624 0
M  V30 1776 O 169.175 1.67485 -1.88958 0
M  V30 1777 C 170.488 -1.47784 -2.61878 0
M  V30 1778 C 172.036 -1.48071 -2.75761 0
M  V30 1779 C 172.511 -2.37347 -3.91702 0
M  V30 1780 N 174.002 -2.35271 -3.99001 0
M  V30 1781 C 174.737 -3.01063 -4.88004 0
M  V30 1782 N 174.233 -3.76055 -5.81854 0
M  V30 1783 N 176.026 -2.90332 -4.81315 0
M  V30 1784 H 168.177 -1.82502 -1.0866 0
M  V30 1785 H 170.44 -0.780797 -0.537644 0
M  V30 1786 H 170.146 -2.51993 -2.45341 0
M  V30 1787 H 170.02 -1.18215 -3.58197 0
M  V30 1788 H 172.407 -0.446166 -2.91708 0
M  V30 1789 H 172.488 -1.81668 -1.80085 0
M  V30 1790 H 172.132 -3.40883 -3.76512 0
M  V30 1791 H 172.062 -2.01071 -4.86701 0
M  V30 1792 H 174.553 -1.80768 -3.3186 0
M  V30 1793 H 174.866 -4.23366 -6.46514 0
M  V30 1794 H 173.211 -3.80163 -5.81808 0
M  V30 1795 H 176.402 -2.31278 -4.06974 0
M  V30 1796 H 176.575 -3.41885 -5.50471 0
M  V30 1797 N 169.982 1.44106 -0.638065 0
M  V30 1798 C 170.912 2.33448 0.0494287 0
M  V30 1799 C 171.893 1.48606 0.827672 0
M  V30 1800 O 173.078 1.77308 0.792173 0
M  V30 1801 C 170.208 3.31771 1.02691 0
M  V30 1802 C 169.162 4.26485 0.359823 0
M  V30 1803 C 168.488 5.14729 1.44769 0
M  V30 1804 C 169.788 5.17056 -0.738296 0
M  V30 1805 H 171.482 2.91183 -0.696636 0
M  V30 1806 H 169.028 1.40014 -0.336456 0
M  V30 1807 H 170.981 3.93161 1.51666 0
M  V30 1808 H 169.705 2.7226 1.80395 0
M  V30 1809 H 168.364 3.66437 -0.10934 0
M  V30 1810 H 168.012 4.51566 2.21578 0
M  V30 1811 H 167.712 5.78913 1.00668 0
M  V30 1812 H 169.236 5.78991 1.93911 0
M  V30 1813 H 170.65 5.72342 -0.331354 0
M  V30 1814 H 169.047 5.89879 -1.10286 0
M  V30 1815 H 170.117 4.57652 -1.60258 0
M  V30 1816 N 171.46 0.379036 1.52974 0
M  V30 1817 C 172.41 -0.477772 2.22938 0
M  V30 1818 C 173.394 -1.03792 1.22948 0
M  V30 1819 O 174.586 -0.965725 1.48333 0
M  V30 1820 C 171.715 -1.60994 3.03209 0
M  V30 1821 C 170.801 -1.06203 4.10587 0
M  V30 1822 N 171.192 -0.238214 5.05239 0
M  V30 1823 C 169.49 -1.33554 4.25534 0
M  V30 1824 C 170.191 0.0633235 5.81666 0
M  V30 1825 N 169.167 -0.537901 5.40932 0
M  V30 1826 H 172.969 0.158295 2.93473 0
M  V30 1827 H 170.483 0.187778 1.61311 0
M  V30 1828 H 172.48 -2.23607 3.5186 0
M  V30 1829 H 171.14 -2.24893 2.34207 0
M  V30 1830 H 172.151 0.123695 5.17752 0
M  V30 1831 H 168.828 -1.97632 3.6776 0
M  V30 1832 H 170.218 0.730161 6.67921 0
M  V30 1833 N 172.938 -1.57226 0.108567 0
M  V30 1834 C 174.185 -1.94833 -0.551943 0
M  V30 1835 C 174.513 -0.991204 -1.67348 0
M  V30 1836 O 173.768 -0.0131878 -1.95696 0
M  V30 1837 C 174.067 -3.38911 -1.13463 0
M  V30 1838 C 173.733 -4.50696 -0.135509 0
M  V30 1839 C 172.395 -4.80998 0.139252 0
M  V30 1840 C 174.747 -5.18333 0.545957 0
M  V30 1841 C 172.075 -5.76259 1.10194 0
M  V30 1842 C 174.427 -6.14627 1.49721 0
M  V30 1843 C 173.091 -6.43327 1.78006 0
M  V30 1844 H 172.361 -0.712944 -0.20197 0
M  V30 1845 H 175.008 -1.90582 0.18726 0
M  V30 1846 H 173.313 -3.39805 -1.95037 0
M  V30 1847 H 175.01 -3.65317 -1.65362 0
M  V30 1848 H 171.6 -4.27087 -0.359846 0
M  V30 1849 H 175.784 -4.95087 0.346842 0
M  V30 1850 H 171.04 -5.96804 1.32795 0
M  V30 1851 H 175.214 -6.66126 2.03099 0
M  V30 1852 H 172.841 -7.1695 2.52759 0
M  V30 1853 N 174.416 0.165178 -1.56732 0
M  V30 1854 C 175.346 1.20651 -1.99914 0
M  V30 1855 C 176.327 1.45827 -0.875705 0
M  V30 1856 O 177.512 1.57057 -1.14223 0
M  V30 1857 C 174.642 2.54401 -2.36427 0
M  V30 1858 C 173.596 2.43782 -3.51787 0
M  V30 1859 C 172.922 3.82078 -3.7406 0
M  V30 1860 C 174.222 1.93732 -4.85041 0
M  V30 1861 H 175.916 0.847534 -2.87154 0
M  V30 1862 H 173.462 0.40625 -1.38151 0
M  V30 1863 H 175.415 3.27458 -2.65234 0
M  V30 1864 H 174.139 2.92098 -1.46103 0
M  V30 1865 H 172.798 1.73178 -3.23117 0
M  V30 1866 H 172.446 4.17179 -2.81017 0
M  V30 1867 H 172.146 3.7584 -4.51684 0
M  V30 1868 H 173.67 4.56712 -4.05274 0
M  V30 1869 H 175.084 2.56569 -5.12684 0
M  V30 1870 H 173.481 1.98428 -5.66345 0
M  V30 1871 H 174.551 0.891962 -4.76626 0
M  V30 1872 N 175.894 1.51508 0.433938 0
M  V30 1873 C 176.804 1.75917 1.5521 0
M  V30 1874 C 177.82 0.643545 1.61662 0
M  V30 1875 O 178.996 0.926183 1.7884 0
M  V30 1876 C 176.061 1.88213 2.91164 0
M  V30 1877 C 175.122 3.12074 2.94802 0
M  V30 1878 C 174.355 3.23774 4.24271 0
M  V30 1879 O 174.578 2.4133 5.16833 0
M  V30 1880 O 173.512 4.16774 4.34262 0
M  V30 1881 H 177.338 2.70777 1.37527 0
M  V30 1882 H 174.923 1.36051 0.617293 0
M  V30 1883 H 176.805 1.98267 3.71845 0
M  V30 1884 H 175.48 0.965413 3.08968 0
M  V30 1885 H 174.387 3.07497 2.13065 0
M  V30 1886 H 175.72 4.03446 2.81943 0
M  V30 1887 N 177.372 -0.689602 1.41712 0
M  V30 1888 C 178.62 -1.4468 1.4111 0
M  V30 1889 C 178.941 -1.94986 0.0232196 0
M  V30 1890 O 178.211 -1.72097 -0.935913 0
M  V30 1891 H 176.791 -0.536847 0.519427 0
M  V30 1892 H 179.453 -0.815825 1.77004 0
M  V30 1893 H 178.549 -2.30706 2.10193 0
M  V30 1894 N 178.85 -1.27639 -0.924453 0
M  V30 1895 C 180.261 -1.12834 -1.48746 0
M  V30 1896 C 180.612 0.285505 -1.94112 0
M  V30 1897 O 179.737 1.17874 -1.81479 0
M  V30 1898 C 180.332 -2.04217 -2.70334 0
M  V30 1899 C 178.891 -1.93509 -3.22848 0
M  V30 1900 C 178.038 -1.96583 -1.95577 0
M  V30 1901 H 180.989 -1.40484 -0.738233 0
M  V30 1902 H 181.01 -1.59989 -3.4523 0
M  V30 1903 H 180.522 -3.07111 -2.37285 0
M  V30 1904 H 178.623 -0.936131 -3.60649 0
M  V30 1905 H 178.736 -2.79917 -3.88823 0
M  V30 1906 H 177.1 -1.4085 -2.12211 0
M  V30 1907 H 177.883 -3.01137 -1.64837 0
M  V30 1908 N 180.328 1.1314 -1.09713 0
M  V30 1909 C 181.26 2.18343 -0.697056 0
M  V30 1910 C 182.273 1.60669 0.262551 0
M  V30 1911 O 183.462 1.78435 0.0481527 0
M  V30 1912 C 180.562 3.38899 -0.00684728 0
M  V30 1913 C 179.735 4.26078 -0.988741 0
M  V30 1914 C 178.794 5.25155 -0.331394 0
M  V30 1915 O 177.82 5.60701 -0.979926 0
M  V30 1916 N 179.022 5.73271 0.913261 0
M  V30 1917 H 181.787 2.5328 -1.60216 0
M  V30 1918 H 179.348 1.28491 -0.984971 0
M  V30 1919 H 181.34 4.02255 0.444191 0
M  V30 1920 H 179.91 3.02175 0.800551 0
M  V30 1921 H 179.13 3.59453 -1.61826 0
M  V30 1922 H 180.418 4.81178 -1.65364 0
M  V30 1923 H 179.816 5.46544 1.45966 0
M  V30 1924 H 178.373 6.3855 1.30757 0
M  V30 1925 N 181.806 0.884767 1.30421 0
M  V30 1926 C 183.222 0.57874 1.48737 0
M  V30 1927 C 183.422 -0.883567 1.81095 0
M  V30 1928 O 182.478 -1.6648 1.89844 0
M  V30 1929 C 183.791 1.49171 2.61091 0
M  V30 1930 C 185.339 1.49532 2.74971 0
M  V30 1931 C 185.814 2.39421 3.90438 0
M  V30 1932 N 187.305 2.37383 3.97748 0
M  V30 1933 C 188.04 3.03647 4.86401 0
M  V30 1934 N 187.536 3.79136 5.79852 0
M  V30 1935 N 189.329 2.9288 4.79768 0
M  V30 1936 H 181.48 1.83075 1.0769 0
M  V30 1937 H 183.743 0.783637 0.533495 0
M  V30 1938 H 183.449 2.53291 2.44001 0
M  V30 1939 H 183.323 1.20113 3.57565 0
M  V30 1940 H 185.71 0.46163 2.91467 0
M  V30 1941 H 185.791 1.8262 1.79119 0
M  V30 1942 H 185.435 3.42874 3.74699 0
M  V30 1943 H 185.365 2.03649 4.85628 0
M  V30 1944 H 187.856 1.82525 3.30897 0
M  V30 1945 H 188.169 4.26789 6.4426 0
M  V30 1946 H 186.514 3.83243 5.79784 0
M  V30 1947 H 189.705 2.33433 4.05742 0
M  V30 1948 H 189.878 3.448 5.4865 0
M  V30 1949 N 183.284 -1.43765 0.645699 0
M  V30 1950 C 184.524 -2.03776 0.159542 0
M  V30 1951 C 184.888 -1.49792 -1.2011 0
M  V30 1952 O 186.089 -2.01398 -1.78023 0
M  V30 1953 C 184.36 -3.57036 0.161251 0
M  V30 1954 S 185.919 -4.3804 -0.258159 0
M  V30 1955 H 182.737 -0.707717 0.0682454 0
M  V30 1956 H 185.339 -1.75941 0.852352 0
M  V30 1957 H 184.043 -3.9383 1.15439 0
M  V30 1958 H 183.574 -3.89503 -0.552339 0
M  V30 1959 H 185.589 -4.7302 -1.49889 0
M  V30 1960 N 184.763 -0.387143 -1.52771 0
M  V30 1961 C 186.011 0.195349 -2.01154 0
M  V30 1962 C 186.332 1.475 -1.27549 0
M  V30 1963 O 185.602 1.91878 -0.394924 0
M  V30 1964 H 184.182 0.075178 -0.743207 0
M  V30 1965 H 186.844 -0.518337 -1.87881 0
M  V30 1966 H 185.94 0.407096 -3.09434 0
M  V30 1967 N 186.241 1.57166 -0.116904 0
M  V30 1968 C 187.171 2.18222 0.830759 0
M  V30 1969 C 188.152 1.12167 1.27877 0
M  V30 1970 O 189.337 1.40394 1.34176 0
M  V30 1971 C 186.467 2.77996 2.08172 0
M  V30 1972 C 185.421 3.89614 1.77157 0
M  V30 1973 C 184.747 4.36187 3.09265 0
M  V30 1974 C 186.047 5.1181 1.04151 0
M  V30 1975 H 187.741 2.97664 0.321992 0
M  V30 1976 H 185.287 1.4318 0.153434 0
M  V30 1977 H 187.24 3.19366 2.74924 0
M  V30 1978 H 185.964 1.9584 2.6137 0
M  V30 1979 H 184.623 3.48816 1.12796 0
M  V30 1980 H 184.271 3.50893 3.60393 0
M  V30 1981 H 183.971 5.11455 2.89288 0
M  V30 1982 H 185.495 4.80207 3.77139 0
M  V30 1983 H 186.909 5.50214 1.61052 0
M  V30 1984 H 185.306 5.92648 0.942762 0
M  V30 1985 H 186.376 4.84892 0.0279022 0
M  V30 1986 N 187.719 -0.156864 1.56817 0
M  V30 1987 C 188.666 -1.19394 1.97519 0
M  V30 1988 C 189.636 -1.4322 0.841265 0
M  V30 1989 O 190.821 -1.55719 1.10255 0
M  V30 1990 C 187.961 -2.52483 2.35258 0
M  V30 1991 C 187.074 -2.35914 3.61896 0
M  V30 1992 C 186.209 -3.61969 3.88782 0
M  V30 1993 C 185.248 -3.40395 5.08722 0
M  V30 1994 N 184.385 -4.58556 5.31668 0
M  V30 1995 H 189.225 -0.839845 2.85921 0
M  V30 1996 H 186.762 -0.403264 1.41464 0
M  V30 1997 H 188.72 -3.30071 2.55165 0
M  V30 1998 H 187.35 -2.85859 1.49949 0
M  V30 1999 H 186.402 -1.49429 3.49821 0
M  V30 2000 H 187.714 -2.15926 4.49641 0
M  V30 2001 H 186.868 -4.47989 4.09135 0
M  V30 2002 H 185.607 -3.84951 2.9944 0
M  V30 2003 H 184.612 -2.52763 4.88253 0
M  V30 2004 H 185.837 -3.18822 5.99608 0
M  V30 2005 H 183.783 -4.81729 4.45279 0
M  V30 2006 H 183.7 -4.41535 6.13664 0
M  V30 2007 H 184.968 -5.45817 5.5651 0
M  V30 2008 N 189.197 -1.51736 -0.425897 0
M  V30 2009 C 190.613 -1.40166 -0.76326 0
M  V30 2010 C 190.813 -0.492962 -1.95377 0
M  V30 2011 O 189.869 0.0475815 -2.52455 0
M  V30 2012 C 191.182 -2.82403 -1.03291 0
M  V30 2013 C 192.73 -2.91632 -1.13665 0
M  V30 2014 C 193.205 -4.34801 -1.43916 0
M  V30 2015 N 194.696 -4.3796 -1.50816 0
M  V30 2016 C 195.431 -5.4578 -1.75817 0
M  V30 2017 N 194.927 -6.63744 -1.98534 0
M  V30 2018 N 196.72 -5.33274 -1.77694 0
M  V30 2019 H 188.871 -2.09361 0.358 0
M  V30 2020 H 191.134 -0.942941 0.0978094 0
M  V30 2021 H 190.84 -3.50943 -0.230696 0
M  V30 2022 H 190.714 -3.22428 -1.95754 0
M  V30 2023 H 193.101 -2.23284 -1.92947 0
M  V30 2024 H 193.182 -2.55088 -0.190756 0
M  V30 2025 H 192.826 -5.03703 -0.65157 0
M  V30 2026 H 192.756 -4.68868 -2.39729 0
M  V30 2027 H 195.247 -3.52919 -1.35118 0
M  V30 2028 H 195.56 -7.41704 -2.17013 0
M  V30 2029 H 193.905 -6.66839 -1.95832 0
M  V30 2030 H 197.096 -4.40098 -1.59473 0
M  V30 2031 H 197.269 -6.1738 -1.9684 0
M  V30 2032 N 190.675 0.682077 -1.42076 0
M  V30 2033 C 191.622 1.79578 -1.44984 0
M  V30 2034 C 192.592 1.6332 -0.302614 0
M  V30 2035 O 193.777 1.83978 -0.505633 0
M  V30 2036 C 190.917 3.1756 -1.35091 0
M  V30 2037 C 190.03 3.45156 -2.59791 0
M  V30 2038 C 189.165 4.72826 -2.42093 0
M  V30 2039 C 188.204 4.93433 -3.62202 0
M  V30 2040 N 187.341 6.12338 -3.43491 0
M  V30 2041 H 192.181 1.76427 -2.40161 0
M  V30 2042 H 189.718 0.861376 -1.19242 0
M  V30 2043 H 191.676 3.97287 -1.27354 0
M  V30 2044 H 190.306 3.19854 -0.435133 0
M  V30 2045 H 189.358 2.59736 -2.77923 0
M  V30 2046 H 190.67 3.5628 -3.49094 0
M  V30 2047 H 189.824 5.60631 -2.319 0
M  V30 2048 H 188.563 4.63973 -1.50268 0
M  V30 2049 H 187.568 4.04073 -3.72834 0
M  V30 2050 H 188.793 5.04136 -4.54998 0
M  V30 2051 H 186.739 6.04672 -2.54377 0
M  V30 2052 H 186.656 6.2429 -4.26377 0
M  V30 2053 H 187.924 7.02841 -3.37097 0
M  V30 2054 N 192.153 1.28127 0.917671 0
M  V30 2055 C 193.378 1.18007 1.70555 0
M  V30 2056 C 193.803 -0.258257 1.86319 0
M  V30 2057 O 193.161 -1.1869 1.37049 0
M  V30 2058 C 193.209 1.87948 3.07746 0
M  V30 2059 O 192.313 1.18427 3.9503 0
M  V30 2060 H 191.654 0.409867 0.522403 0
M  V30 2061 H 194.184 1.69379 1.1477 0
M  V30 2062 H 194.194 1.95701 3.58001 0
M  V30 2063 H 192.869 2.92573 2.95591 0
M  V30 2064 H 191.446 1.18811 3.53466 0
M  V30 2065 N 193.631 -1.12557 1.10312 0
M  V30 2066 C 194.541 -2.21841 0.763142 0
M  V30 2067 C 195.557 -1.72354 -0.238801 0
M  V30 2068 O 196.733 -2.01249 -0.0778746 0
M  V30 2069 C 193.798 -3.46131 0.198632 0
M  V30 2070 C 192.859 -4.10464 1.25769 0
M  V30 2071 C 192.092 -5.28821 0.72002 0
M  V30 2072 O 192.315 -5.6859 -0.453993 0
M  V30 2073 O 191.249 -5.83437 1.47935 0
M  V30 2074 H 195.075 -2.53312 1.67532 0
M  V30 2075 H 192.66 -1.20867 0.878157 0
M  V30 2076 H 194.542 -4.2125 -0.112401 0
M  V30 2077 H 193.217 -3.16338 -0.686419 0
M  V30 2078 H 192.124 -3.3713 1.62156 0
M  V30 2079 H 193.457 -4.44408 2.11571 0
M  V30 2080 N 195.109 -0.891671 -1.2995 0
M  V30 2081 C 196.019 -0.367691 -2.31701 0
M  V30 2082 C 197.035 0.533486 -1.6562 0
M  V30 2083 O 198.211 0.424997 -1.96865 0
M  V30 2084 C 195.276 0.403406 -3.44345 0
M  V30 2085 C 194.337 -0.528328 -4.26037 0
M  V30 2086 C 193.57 0.206063 -5.33302 0
M  V30 2087 O 193.793 1.43119 -5.52153 0
M  V30 2088 O 192.727 -0.447281 -6.00236 0
M  V30 2089 H 196.553 -1.21163 -2.78484 0
M  V30 2090 H 194.138 -0.655725 -1.34241 0
M  V30 2091 H 196.02 0.839753 -4.12948 0
M  V30 2092 H 194.695 1.22354 -2.99685 0
M  V30 2093 H 193.602 -1.01362 -3.60106 0
M  V30 2094 H 194.935 -1.31465 -4.74318 0
M  V30 2095 N 196.587 1.43421 -0.653314 0
M  V30 2096 C 197.517 2.33487 0.0246656 0
M  V30 2097 C 198.498 1.49475 0.811863 0
M  V30 2098 O 199.683 1.78139 0.773322 0
M  V30 2099 C 196.813 3.32841 0.99166 0
M  V30 2100 C 195.767 4.26842 0.314568 0
M  V30 2101 C 195.093 5.16236 1.39302 0
M  V30 2102 C 196.393 5.16243 -0.793095 0
M  V30 2103 H 198.087 2.90427 -0.727481 0
M  V30 2104 H 195.633 1.39649 -0.351287 0
M  V30 2105 H 197.586 3.94747 1.47487 0
M  V30 2106 H 196.31 2.74158 1.77497 0
M  V30 2107 H 194.969 3.663 -0.148199 0
M  V30 2108 H 194.617 4.53891 2.16776 0
M  V30 2109 H 194.317 5.79948 0.945223 0
M  V30 2110 H 195.841 5.81015 1.87759 0
M  V30 2111 H 197.255 5.71958 -0.392039 0
M  V30 2112 H 195.652 5.88676 -1.16536 0
M  V30 2113 H 196.722 4.55927 -1.65103 0
M  V30 2114 N 198.065 0.39524 1.52563 0
M  V30 2115 C 199.342 -0.242908 1.94086 0
M  V30 2116 C 199.722 -1.63841 1.33114 0
M  V30 2117 O 199.07 -2.22928 0.501529 0
M  V30 2118 C 199.28 -0.26327 3.48006 0
M  V30 2119 C 200.628 -0.489354 4.21771 0
M  V30 2120 O 201.652 -0.343226 3.54543 0
M  V30 2121 O 200.511 -0.776169 5.4096 0
M  V30 2122 H 197.605 -0.152536 0.812811 0
M  V30 2123 H 200.151 0.450178 1.6362 0
M  V30 2124 H 198.923 0.713985 3.84731 0
M  V30 2125 H 198.546 -1.00103 3.84792 0
M  V30 2126 N 199.544 -1.57102 0.125237 0
M  V30 2127 C 200.492 -2.16905 -0.839927 0
M  V30 2128 C 201.486 -1.11998 -1.27094 0
M  V30 2129 O 202.692 -1.3029 -1.24195 0
M  V30 2130 H 199.067 -0.694252 -0.288995 0
M  V30 2131 H 201.038 -2.96774 -0.311115 0
M  V30 2132 C 199.787 -2.78795 -2.07771 0
M  V30 2133 H 199.11 -3.59221 -1.755 0
M  V30 2134 H 200.55 -3.2417 -2.73295 0
M  V30 2135 C 199.009 -1.76193 -2.87155 0
M  V30 2136 O 199.539 -1.21909 -3.82755 0
M  V30 2137 N 197.745 -1.45991 -2.51267 0
M  V30 2138 H 197.292 -1.90325 -1.73592 0
M  V30 2139 H 197.25 -0.775844 -3.04677 0
M  V30 2140 N 201.022 0.148545 -1.56898 0
M  V30 2141 C 201.972 1.1886 -1.94567 0
M  V30 2142 C 202.956 1.3863 -0.816735 0
M  V30 2143 O 204.148 1.40218 -1.08018 0
M  V30 2144 C 201.277 2.52262 -2.32849 0
M  V30 2145 C 200.363 2.36092 -3.52309 0
M  V30 2146 N 200.754 1.89674 -4.6889 0
M  V30 2147 C 199.052 2.66848 -3.57363 0
M  V30 2148 C 199.753 1.86511 -5.50989 0
M  V30 2149 N 198.729 2.29766 -4.92655 0
M  V30 2150 H 202.531 0.821793 -2.82177 0
M  V30 2151 H 200.045 0.356615 -1.58436 0
M  V30 2152 H 202.042 3.27447 -2.58039 0
M  V30 2153 H 200.702 2.89727 -1.46589 0
M  V30 2154 H 201.713 1.59663 -4.92674 0
M  V30 2155 H 198.39 3.08198 -2.81639 0
M  V30 2156 H 199.78 1.52128 -6.54452 0
M  V30 2157 N 202.5 1.5196 0.417844 0
M  V30 2158 C 203.725 1.69717 1.1921 0
M  V30 2159 C 204.15 0.402148 1.83751 0
M  V30 2160 O 203.508 -0.639593 1.69643 0
M  V30 2161 C 203.556 2.82794 2.2374 0
M  V30 2162 O 202.66 2.47756 3.29683 0
M  V30 2163 H 202.001 0.565263 0.348387 0
M  V30 2164 H 204.531 1.98621 0.490985 0
M  V30 2165 H 204.541 3.07452 2.68212 0
M  V30 2166 H 203.216 3.76756 1.76146 0
M  V30 2167 H 201.793 2.33739 2.90552 0
M  V30 2168 N 203.978 -0.674533 1.42435 0
M  V30 2169 C 205.203 -1.46784 1.46524 0
M  V30 2170 C 205.628 -1.87938 0.078066 0
M  V30 2171 O 204.986 -1.56014 -0.92354 0
M  V30 2172 C 205.034 -2.69307 2.39805 0
M  V30 2173 O 204.138 -3.67587 1.86959 0
M  V30 2174 H 203.479 -0.440959 0.496439 0
M  V30 2175 H 206.009 -0.827326 1.87127 0
M  V30 2176 H 206.019 -3.17374 2.56393 0
M  V30 2177 H 204.694 -2.38692 3.40586 0
M  V30 2178 H 203.271 -3.2662 1.79927 0
M  V30 2179 N 205.456 -1.28612 -0.910864 0
M  V30 2180 C 206.419 -1.12803 -1.9952 0
M  V30 2181 C 207.419 -0.0668264 -1.60661 0
M  V30 2182 O 208.609 -0.312847 -1.71368 0
M  V30 2183 C 205.741 -0.72254 -3.33155 0
M  V30 2184 H 206.934 -2.09109 -2.14973 0
M  V30 2185 H 204.487 -1.11639 -1.09391 0
M  V30 2186 H 205.222 0.241152 -3.23402 0
M  V30 2187 H 205.007 -1.48916 -3.62721 0
M  V30 2188 H 206.497 -0.634666 -4.12749 0
M  V30 2189 N 206.934 1.1197 -1.10907 0
M  V30 2190 C 207.867 2.16998 -0.706192 0
M  V30 2191 C 208.845 1.59903 0.294897 0
M  V30 2192 O 210.029 1.87513 0.192636 0
M  V30 2193 C 207.156 3.38673 -0.0427664 0
M  V30 2194 C 206.202 4.14414 -1.00811 0
M  V30 2195 S 207.035 4.72079 -2.52789 0
M  V30 2196 C 208.191 5.97083 -1.87731 0
M  V30 2197 H 208.424 2.50837 -1.59587 0
M  V30 2198 H 205.957 1.23508 -0.926555 0
M  V30 2199 H 207.915 4.09142 0.333668 0
M  V30 2200 H 206.576 3.03105 0.823788 0
M  V30 2201 H 205.769 5.016 -0.491259 0
M  V30 2202 H 205.371 3.49678 -1.3267 0
M  V30 2203 H 207.663 6.66599 -1.21044 0
M  V30 2204 H 208.606 6.53403 -2.72892 0
M  V30 2205 H 209.014 5.4837 -1.33979 0
M  V30 2206 N 208.412 0.89855 1.29475 0
M  V30 2207 C 209.344 0.332726 2.26772 0
M  V30 2208 C 210.357 -0.520323 1.54261 0
M  V30 2209 O 211.546 -0.337668 1.75277 0
M  V30 2210 C 208.646 -0.544334 3.345 0
M  V30 2211 C 207.819 0.282728 4.36485 0
M  V30 2212 C 206.878 -0.526982 5.23555 0
M  V30 2213 O 205.904 0.0551165 5.69173 0
M  V30 2214 N 207.106 -1.83331 5.5079 0
M  V30 2215 H 209.871 1.16897 2.75962 0
M  V30 2216 H 207.432 0.762919 1.42798 0
M  V30 2217 H 209.424 -1.09239 3.89678 0
M  V30 2218 H 207.994 -1.28127 2.85136 0
M  V30 2219 H 207.214 1.01221 3.80983 0
M  V30 2220 H 208.502 0.84918 5.01664 0
M  V30 2221 H 207.9 -2.32898 5.15534 0
M  V30 2222 H 206.457 -2.32852 6.08788 0
M  V30 2223 N 209.89 -1.43072 0.660911 0
M  V30 2224 C 211.139 -2.00942 0.174735 0
M  V30 2225 C 211.452 -1.52797 -1.22117 0
M  V30 2226 O 212.658 -2.02991 -1.80297 0
M  V30 2227 C 211.114 -3.58948 0.261559 0
M  V30 2228 C 210.722 -4.16085 1.66064 0
M  V30 2229 C 212.466 -4.24173 -0.166617 0
M  V30 2230 C 210.373 -5.6641 1.70098 0
M  V30 2231 H 209.303 -0.751483 0.0615631 0
M  V30 2232 H 211.954 -1.63955 0.824069 0
M  V30 2233 H 210.336 -3.93372 -0.455421 0
M  V30 2234 H 211.51 -3.93147 2.40359 0
M  V30 2235 H 209.825 -3.6326 2.03546 0
M  V30 2236 H 212.422 -5.34471 -0.156433 0
M  V30 2237 H 212.765 -3.98647 -1.19943 0
M  V30 2238 H 213.298 -3.94659 0.498875 0
M  V30 2239 H 210.037 -5.96715 2.71315 0
M  V30 2240 H 209.557 -5.91382 1.00139 0
M  V30 2241 H 211.236 -6.30585 1.44816 0
M  V30 2242 N 211.368 -0.403325 -1.52352 0
M  V30 2243 C 212.614 0.174605 -2.02047 0
M  V30 2244 C 212.947 1.45282 -1.28867 0
M  V30 2245 O 212.222 1.90483 -0.393257 0
M  V30 2246 C 212.505 0.428238 -3.57545 0
M  V30 2247 C 212.358 -0.866248 -4.4138 0
M  V30 2248 C 213.677 1.21287 -4.23057 0
M  V30 2249 H 210.796 0.0619851 -0.734389 0
M  V30 2250 H 213.438 -0.53565 -1.82293 0
M  V30 2251 H 211.588 1.03327 -3.74507 0
M  V30 2252 H 213.26 -1.50265 -4.3614 0
M  V30 2253 H 211.503 -1.47851 -4.07827 0
M  V30 2254 H 212.174 -0.643249 -5.48239 0
M  V30 2255 H 214.65 0.700703 -4.10158 0
M  V30 2256 H 213.526 1.35909 -5.31808 0
M  V30 2257 H 213.787 2.23193 -3.81625 0
M  V30 2258 N 212.846 1.57033 -0.133567 0
M  V30 2259 C 214.123 1.87256 0.56522 0
M  V30 2260 C 214.503 1.03726 1.83859 0
M  V30 2261 O 213.851 0.120247 2.28183 0
M  V30 2262 C 214.061 3.3865 0.843636 0
M  V30 2263 C 215.409 4.07574 1.19032 0
M  V30 2264 O 216.433 3.43752 0.933429 0
M  V30 2265 O 215.292 5.20259 1.67312 0
M  V30 2266 H 212.386 0.775678 0.286796 0
M  V30 2267 H 214.932 1.68855 -0.169168 0
M  V30 2268 H 213.704 3.91257 -0.0581149 0
M  V30 2269 H 213.327 3.62532 1.63268 0
M  V30 2270 N 214.325 -0.140222 1.56975 0
M  V30 2271 C 215.235 -1.19223 2.02047 0
M  V30 2272 C 216.251 -1.46612 0.937062 0
M  V30 2273 O 217.427 -1.58148 1.24704 0
M  V30 2274 C 214.492 -2.50414 2.39778 0
M  V30 2275 C 213.553 -2.30612 3.621 0
M  V30 2276 C 212.786 -3.55547 3.98023 0
M  V30 2277 O 213.009 -4.62004 3.34528 0
M  V30 2278 O 211.943 -3.47808 4.91237 0
M  V30 2279 H 215.769 -0.839559 2.91865 0
M  V30 2280 H 213.354 -0.349453 1.45256 0
M  V30 2281 H 215.236 -3.27747 2.64877 0
M  V30 2282 H 213.911 -2.85198 1.53114 0
M  V30 2283 H 212.818 -1.51207 3.4218 0
M  V30 2284 H 214.151 -2.00741 4.49404 0
M  V30 2285 N 215.803 -1.52179 -0.40978 0
M  V30 2286 C 216.733 -1.78435 -1.5061 0
M  V30 2287 C 217.714 -0.635295 -1.57791 0
M  V30 2288 O 218.899 -0.880823 -1.73076 0
M  V30 2289 C 216.029 -1.93444 -2.88439 0
M  V30 2290 C 214.983 -3.09038 -2.96108 0
M  V30 2291 C 214.309 -3.09268 -4.36185 0
M  V30 2292 C 215.609 -4.48508 -2.67652 0
M  V30 2293 H 217.303 -2.70237 -1.28889 0
M  V30 2294 H 214.849 -1.30036 -0.618605 0
M  V30 2295 H 216.802 -2.10394 -3.65119 0
M  V30 2296 H 215.526 -0.983129 -3.11452 0
M  V30 2297 H 214.185 -2.91837 -2.21872 0
M  V30 2298 H 213.833 -2.11861 -4.56206 0
M  V30 2299 H 213.533 -3.86907 -4.42241 0
M  V30 2300 H 215.057 -3.28348 -5.14801 0
M  V30 2301 H 216.471 -4.65918 -3.34056 0
M  V30 2302 H 214.868 -5.28059 -2.85085 0
M  V30 2303 H 215.938 -4.56649 -1.63095 0
M  V30 2304 N 217.281 0.66697 -1.42791 0
M  V30 2305 C 218.506 1.46004 -1.47301 0
M  V30 2306 C 218.931 1.87894 -0.0880317 0
M  V30 2307 O 218.289 1.56502 0.915253 0
M  V30 2308 C 218.337 2.68031 -2.41229 0
M  V30 2309 O 217.441 3.6659 -1.88906 0
M  V30 2310 H 216.782 0.43832 -0.49877 0
M  V30 2311 H 219.312 0.817391 -1.87563 0
M  V30 2312 H 219.322 3.1601 -2.58073 0
M  V30 2313 H 217.997 2.36883 -3.41847 0
M  V30 2314 H 216.574 3.25661 -1.81656 0
M  V30 2315 N 218.759 1.29093 0.90403 0
M  V30 2316 C 220.008 1.16187 1.64874 0
M  V30 2317 C 220.321 -0.286742 1.93487 0
M  V30 2318 O 221.527 -0.537062 2.66135 0
M  V30 2319 C 219.983 2.03177 2.97064 0
M  V30 2320 C 219.591 3.52836 2.76062 0
M  V30 2321 C 221.335 1.98984 3.74974 0
M  V30 2322 C 219.242 4.31945 4.03952 0
M  V30 2323 H 218.172 0.431246 0.618501 0
M  V30 2324 H 220.823 1.53699 1.00243 0
M  V30 2325 H 219.205 1.5853 3.62883 0
M  V30 2326 H 220.379 4.05507 2.18863 0
M  V30 2327 H 218.694 3.58656 2.11553 0
M  V30 2328 H 221.291 2.55351 4.69787 0
M  V30 2329 H 221.634 0.968815 4.0487 0
M  V30 2330 H 222.167 2.41652 3.15989 0
M  V30 2331 H 218.906 5.34667 3.79225 0
M  V30 2332 H 218.426 3.84045 4.60727 0
M  V30 2333 H 220.105 4.42379 4.72133 0
M  V30 2334 N 220.237 -1.11381 1.11499 0
M  V30 2335 C 221.167 -2.19509 0.796125 0
M  V30 2336 C 222.148 -1.68458 -0.235796 0
M  V30 2337 O 223.333 -1.93947 -0.0991344 0
M  V30 2338 C 220.463 -3.46475 0.239205 0
M  V30 2339 C 219.417 -4.10744 1.20307 0
M  V30 2340 C 218.743 -5.32293 0.50683 0
M  V30 2341 C 220.043 -4.55597 2.55399 0
M  V30 2342 H 221.737 -2.46439 1.70024 0
M  V30 2343 H 219.283 -1.18446 0.818935 0
M  V30 2344 H 221.236 -4.214 0.00392006 0
M  V30 2345 H 219.96 -3.19006 -0.700206 0
M  V30 2346 H 218.619 -3.37813 1.42399 0
M  V30 2347 H 218.267 -5.01095 -0.437408 0
M  V30 2348 H 217.967 -5.76243 1.1497 0
M  V30 2349 H 219.491 -6.09956 0.280351 0
M  V30 2350 H 220.905 -5.21841 2.37391 0
M  V30 2351 H 219.302 -5.10363 3.15673 0
M  V30 2352 H 220.372 -3.69013 3.14575 0
M  V30 2353 N 221.715 -0.905404 -1.28997 0
M  V30 2354 C 223.126 -0.581953 -1.77398 0
M  V30 2355 C 223.477 0.902552 -1.74208 0
M  V30 2356 O 222.602 1.70584 -1.33154 0
M  V30 2357 C 223.197 -1.04961 -3.22131 0
M  V30 2358 C 221.756 -0.777229 -3.68288 0
M  V30 2359 C 220.903 -1.22109 -2.48967 0
M  V30 2360 H 223.854 -1.08754 -1.15578 0
M  V30 2361 H 223.875 -0.387387 -3.78523 0
M  V30 2362 H 223.387 -2.13008 -3.24421 0
M  V30 2363 H 221.488 0.290383 -3.71467 0
M  V30 2364 H 221.601 -1.37911 -4.58822 0
M  V30 2365 H 219.965 -0.639971 -2.46529 0
M  V30 2366 H 220.748 -2.30972 -2.53982 0
M  V30 2367 N 223.193 1.4272 -0.668489 0
M  V30 2368 C 224.156 2.292 0.00448567 0
M  V30 2369 C 225.156 1.43001 0.735339 0
M  V30 2370 O 226.346 1.64461 0.57429 0
M  V30 2371 C 223.478 3.25375 1.01705 0
M  V30 2372 H 224.671 2.90199 -0.756608 0
M  V30 2373 H 222.224 1.50254 -0.430506 0
M  V30 2374 H 222.959 2.69301 1.80686 0
M  V30 2375 H 222.744 3.88944 0.496463 0
M  V30 2376 H 224.234 3.90245 1.48655 0
M  V30 2377 N 224.671 0.411399 1.52136 0
M  V30 2378 C 225.604 -0.457614 2.23565 0
M  V30 2379 C 226.582 -1.04613 1.24478 0
M  V30 2380 O 227.766 -1.09356 1.53536 0
M  V30 2381 C 224.893 -1.6354 2.96602 0
M  V30 2382 C 223.939 -1.17005 4.10137 0
M  V30 2383 S 224.772 -0.13333 5.35334 0
M  V30 2384 C 225.928 -1.31638 6.119 0
M  V30 2385 H 226.161 0.148883 2.96927 0
M  V30 2386 H 223.694 0.195713 1.53155 0
M  V30 2387 H 225.652 -2.31074 3.39286 0
M  V30 2388 H 224.313 -2.21324 2.22878 0
M  V30 2389 H 223.506 -2.05005 4.60422 0
M  V30 2390 H 223.108 -0.573319 3.6958 0
M  V30 2391 H 225.4 -2.23957 6.39413 0
M  V30 2392 H 226.343 -0.854014 7.02931 0
M  V30 2393 H 226.751 -1.54321 5.42997 0
M  V30 2394 N 226.149 -1.5696 0.141893 0
M  V30 2395 C 227.079 -2.19516 -0.795936 0
M  V30 2396 C 228.06 -1.14187 -1.26077 0
M  V30 2397 O 229.245 -1.42511 -1.31925 0
M  V30 2398 C 226.375 -2.81272 -2.03723 0
M  V30 2399 C 225.329 -3.92384 -1.70936 0
M  V30 2400 C 224.655 -4.41052 -3.02287 0
M  V30 2401 C 225.955 -5.13403 -0.959954 0
M  V30 2402 H 227.649 -2.98138 -0.274596 0
M  V30 2403 H 225.195 -1.43406 -0.130636 0
M  V30 2404 H 227.148 -3.237 -2.69808 0
M  V30 2405 H 225.872 -1.99973 -2.58221 0
M  V30 2406 H 224.531 -3.50566 -1.07232 0
M  V30 2407 H 224.179 -3.56582 -3.54765 0
M  V30 2408 H 223.879 -5.15993 -2.81114 0
M  V30 2409 H 225.403 -4.86146 -3.69451 0
M  V30 2410 H 226.817 -5.52706 -1.52279 0
M  V30 2411 H 225.214 -5.94073 -0.848357 0
M  V30 2412 H 226.284 -4.84875 0.0492434 0
M  V30 2413 N 227.627 0.131896 -1.57047 0
M  V30 2414 C 228.559 1.1878 -1.9602 0
M  V30 2415 C 229.572 1.38363 -0.857875 0
M  V30 2416 O 230.761 1.37666 -1.13623 0
M  V30 2417 C 227.861 2.55008 -2.23213 0
M  V30 2418 C 227.034 2.56201 -3.54513 0
M  V30 2419 C 226.093 3.7408 -3.70069 0
M  V30 2420 O 225.119 3.58258 -4.42312 0
M  V30 2421 N 226.321 4.92137 -3.07866 0
M  V30 2422 H 229.086 0.85639 -2.87204 0
M  V30 2423 H 226.647 0.321309 -1.5868 0
M  V30 2424 H 228.639 3.32404 -2.30846 0
M  V30 2425 H 227.209 2.80382 -1.3822 0
M  V30 2426 H 226.429 1.64613 -3.58185 0
M  V30 2427 H 227.717 2.54043 -4.4084 0
M  V30 2428 H 227.115 5.07895 -2.49116 0
M  V30 2429 H 225.672 5.67254 -3.21039 0
M  V30 2430 N 229.106 1.52395 0.401703 0
M  V30 2431 C 230.334 1.70676 1.16949 0
M  V30 2432 C 230.749 0.419503 1.8408 0
M  V30 2433 O 230.106 -0.605061 1.72178 0
M  V30 2434 C 230.157 2.84753 2.22706 0
M  V30 2435 O 229.878 4.08495 1.58314 0
M  V30 2436 C 231.379 3.14608 3.12309 0
M  V30 2437 H 228.599 0.571787 0.351142 0
M  V30 2438 H 231.143 1.98987 0.471652 0
M  V30 2439 H 229.298 2.58941 2.88147 0
M  V30 2440 H 229.712 4.72117 2.28485 0
M  V30 2441 H 231.186 3.97923 3.82572 0
M  V30 2442 H 231.663 2.28464 3.75101 0
M  V30 2443 H 232.269 3.42212 2.52529 0
M  V30 2444 N 230.584 -0.659388 1.43143 0
M  V30 2445 C 231.532 -1.79374 1.4808 0
M  V30 2446 C 232.526 -1.65639 0.354988 0
M  V30 2447 O 233.732 -1.7206 0.528704 0
M  V30 2448 H 230.107 -0.591705 0.4641 0
M  V30 2449 H 232.078 -1.72329 2.43609 0
M  V30 2450 C 230.827 -3.17606 1.41499 0
M  V30 2451 H 230.15 -3.28809 2.27431 0
M  V30 2452 H 231.59 -3.96951 1.49015 0
M  V30 2453 C 230.049 -3.36642 0.131765 0
M  V30 2454 O 230.579 -3.93461 -0.809386 0
M  V30 2455 N 228.785 -2.90567 0.0439396 0
M  V30 2456 H 228.332 -2.44513 0.810619 0
M  V30 2457 H 228.29 -3.03681 -0.813969 0
M  V30 2458 N 232.062 -1.29571 -0.897171 0
M  V30 2459 C 232.995 -1.0924 -2.00354 0
M  V30 2460 C 233.973 -0.00354011 -1.626 0
M  V30 2461 O 235.157 -0.15473 -1.87864 0
M  V30 2462 C 232.284 -0.66352 -3.32137 0
M  V30 2463 C 231.33 -1.75146 -3.88878 0
M  V30 2464 S 232.163 -3.35124 -4.17674 0
M  V30 2465 C 233.319 -2.9411 -5.52494 0
M  V30 2466 H 233.552 -2.02907 -2.17292 0
M  V30 2467 H 231.085 -1.13746 -1.04408 0
M  V30 2468 H 233.043 -0.422791 -4.08317 0
M  V30 2469 H 231.704 0.253588 -3.13075 0
M  V30 2470 H 230.897 -1.40337 -4.84068 0
M  V30 2471 H 230.499 -1.94584 -3.19395 0
M  V30 2472 H 232.791 -2.41312 -6.33068 0
M  V30 2473 H 233.734 -3.88161 -5.9223 0
M  V30 2474 H 234.142 -2.32332 -5.14473 0
M  V30 2475 N 233.54 1.10788 -1.12088 0
M  V30 2476 C 234.788 1.8231 -0.872205 0
M  V30 2477 C 235.109 1.85419 0.603709 0
M  V30 2478 O 234.379 1.32963 1.43867 0
M  V30 2479 H 232.959 0.675137 -0.319686 0
M  V30 2480 H 235.621 1.34068 -1.41463 0
M  V30 2481 H 234.717 2.85955 -1.25045 0
M  V30 2482 N 235.018 0.912232 1.28515 0
M  V30 2483 C 235.966 0.389597 2.29314 0
M  V30 2484 C 236.96 -0.517915 1.61289 0
M  V30 2485 O 238.166 -0.399328 1.75515 0
M  V30 2486 H 234.541 0.107386 0.744293 0
M  V30 2487 H 236.512 1.25286 2.70825 0
M  V30 2488 C 235.261 -0.356496 3.45868 0
M  V30 2489 H 234.584 0.332608 3.98414 0
M  V30 2490 H 236.024 -0.686851 4.184 0
M  V30 2491 C 234.483 -1.56383 2.98406 0
M  V30 2492 O 235.013 -2.66294 3.00749 0
M  V30 2493 N 233.219 -1.41029 2.54085 0
M  V30 2494 H 232.766 -0.516089 2.52377 0
M  V30 2495 H 232.724 -2.21939 2.22689 0
M  V30 2496 N 236.496 -1.42363 0.676048 0
M  V30 2497 C 237.907 -1.84649 0.275948 0
M  V30 2498 C 238.258 -1.56588 -1.18214 0
M  V30 2499 O 237.383 -1.02634 -1.90513 0
M  V30 2500 C 237.978 -3.35178 0.494053 0
M  V30 2501 C 236.537 -3.76109 0.148061 0
M  V30 2502 C 235.684 -2.65931 0.785891 0
M  V30 2503 H 238.635 -1.32192 0.878121 0
M  V30 2504 H 238.656 -3.79655 -0.25343 0
M  V30 2505 H 238.168 -3.55571 1.55535 0
M  V30 2506 H 236.269 -3.61323 -0.909742 0
M  V30 2507 H 236.382 -4.7546 0.589454 0
M  V30 2508 H 234.746 -2.53773 0.217113 0
M  V30 2509 H 235.529 -2.89146 1.85067 0
M  V30 2510 N 237.974 -0.419461 -1.51915 0
M  V30 2511 C 239.22 0.153166 -2.02221 0
M  V30 2512 C 239.553 1.43907 -1.30401 0
M  V30 2513 O 238.828 1.90055 -0.413438 0
M  V30 2514 C 239.111 0.390291 -3.57979 0
M  V30 2515 C 238.964 -0.913014 -4.40436 0
M  V30 2516 C 240.283 1.16794 -4.2432 0
M  V30 2517 H 237.402 0.0541924 -0.735005 0
M  V30 2518 H 240.044 -0.554955 -1.81715 0
M  V30 2519 H 238.194 0.993491 -3.75582 0
M  V30 2520 H 239.866 -1.54882 -4.34522 0
M  V30 2521 H 238.109 -1.52168 -4.06236 0
M  V30 2522 H 238.78 -0.701361 -5.47526 0
M  V30 2523 H 241.256 0.657161 -4.10878 0
M  V30 2524 H 240.132 1.3026 -5.3322 0
M  V30 2525 H 240.393 2.19132 -3.83971 0
M  V30 2526 N 239.452 1.56882 -0.150215 0
M  V30 2527 C 240.68 2.00593 0.506948 0
M  V30 2528 C 241.095 1.03033 1.58208 0
M  V30 2529 O 240.452 0.0278396 1.82479 0
M  V30 2530 C 240.503 3.44209 1.10465 0
M  V30 2531 O 240.224 4.3804 0.0724636 0
M  V30 2532 C 241.725 4.03214 1.84211 0
M  V30 2533 H 238.945 0.65795 0.13169 0
M  V30 2534 H 241.489 2.03018 -0.245743 0
M  V30 2535 H 239.644 3.42625 1.80795 0
M  V30 2536 H 240.058 5.22007 0.510793 0
M  V30 2537 H 241.532 5.0569 2.21318 0
M  V30 2538 H 242.009 3.44107 2.72923 0
M  V30 2539 H 242.615 4.08437 1.18572 0
M  V30 2540 N 240.93 -0.123565 1.57115 0
M  V30 2541 C 242.176 -0.833386 1.84885 0
M  V30 2542 C 242.509 -1.79742 0.735292 0
M  V30 2543 O 241.784 -1.92764 -0.25925 0
M  V30 2544 C 242.067 -1.5873 3.23228 0
M  V30 2545 C 241.92 -0.643183 4.45178 0
M  V30 2546 C 243.239 -2.54453 3.59085 0
M  V30 2547 H 240.358 -0.301518 0.6725 0
M  V30 2548 H 243 -0.097778 1.89748 0
M  V30 2549 H 241.15 -2.21438 3.19214 0
M  V30 2550 H 242.822 -0.0253015 4.61293 0
M  V30 2551 H 241.065 0.0456139 4.33776 0
M  V30 2552 H 241.736 -1.20724 5.38637 0
M  V30 2553 H 244.212 -2.01853 3.63861 0
M  V30 2554 H 243.088 -3.04238 4.5687 0
M  V30 2555 H 243.349 -3.36906 2.86264 0
M  V30 2556 N 242.408 -1.52605 -0.393616 0
M  V30 2557 C 243.654 -1.67672 -1.14079 0
M  V30 2558 C 243.987 -0.413121 -1.89755 0
M  V30 2559 O 243.262 0.588952 -1.85369 0
M  V30 2560 C 243.545 -2.9088 -2.12276 0
M  V30 2561 C 243.398 -4.27329 -1.40394 0
M  V30 2562 C 244.717 -3.09628 -3.12759 0
M  V30 2563 H 241.836 -0.610168 -0.413356 0
M  V30 2564 H 244.478 -1.85193 -0.424696 0
M  V30 2565 H 242.628 -2.76073 -2.73342 0
M  V30 2566 H 244.3 -4.53894 -0.82327 0
M  V30 2567 H 242.543 -4.2802 -0.705801 0
M  V30 2568 H 243.214 -5.09615 -2.12123 0
M  V30 2569 H 245.69 -3.23436 -2.61779 0
M  V30 2570 H 244.566 -3.97322 -3.78717 0
M  V30 2571 H 244.827 -2.23637 -3.81365 0
M  V30 2572 N 243.887 0.651787 -1.4349 0
M  V30 2573 C 245.115 1.43937 -1.48626 0
M  V30 2574 C 245.53 1.8851 -0.104587 0
M  V30 2575 O 244.887 1.5958 0.885464 0
M  V30 2576 C 244.938 2.6734 -2.43334 0
M  V30 2577 O 244.659 2.24631 -3.76128 0
M  V30 2578 C 246.16 3.60683 -2.57726 0
M  V30 2579 H 243.38 0.44213 -0.504739 0
M  V30 2580 H 245.924 0.798944 -1.88248 0
M  V30 2581 H 244.079 3.2752 -2.06904 0
M  V30 2582 H 244.493 3.04485 -4.2707 0
M  V30 2583 H 245.967 4.43933 -3.28067 0
M  V30 2584 H 246.444 4.08126 -1.62265 0
M  V30 2585 H 247.05 3.06384 -2.94973 0
M  V30 2586 N 245.365 1.30045 0.890287 0
M  V30 2587 C 246.328 1.15963 1.977 0
M  V30 2588 C 247.328 0.0923777 1.60534 0
M  V30 2589 O 248.518 0.340071 1.70848 0
M  V30 2590 C 245.65 0.775451 3.31963 0
M  V30 2591 H 246.843 2.12502 2.11619 0
M  V30 2592 H 244.396 1.13366 1.07601 0
M  V30 2593 H 245.131 -0.189671 3.23745 0
M  V30 2594 H 244.916 1.54668 3.60306 0
M  V30 2595 H 246.406 0.700251 4.11687 0
M  V30 2596 N 246.843 -1.10192 1.12674 0
M  V30 2597 C 248.071 -1.85983 0.906527 0
M  V30 2598 C 248.486 -1.80783 -0.544333 0
M  V30 2599 O 247.843 -1.19834 -1.37645 0
M  V30 2600 C 247.894 -3.34281 1.37618 0
M  V30 2601 O 247.615 -3.39401 2.77017 0
M  V30 2602 C 249.116 -4.26938 1.19325 0
M  V30 2603 H 246.336 -0.587716 0.323775 0
M  V30 2604 H 248.88 -1.39284 1.49734 0
M  V30 2605 H 247.035 -3.78436 0.828539 0
M  V30 2606 H 247.449 -4.31838 2.97684 0
M  V30 2607 H 248.923 -5.29181 1.57071 0
M  V30 2608 H 249.4 -4.38995 0.134097 0
M  V30 2609 H 250.006 -3.8859 1.72852 0
M  V30 2610 N 248.321 -0.919034 -1.28029 0
M  V30 2611 C 249.549 -0.570971 -1.98866 0
M  V30 2612 C 249.964 0.848996 -1.68634 0
M  V30 2613 O 249.321 1.56307 -0.942036 0
M  V30 2614 C 249.372 -0.776876 -3.53054 0
M  V30 2615 O 249.093 -2.14097 -3.82222 0
M  V30 2616 C 250.594 -0.436356 -4.41147 0
M  V30 2617 H 247.814 -0.217175 -0.634883 0
M  V30 2618 H 250.358 -1.23368 -1.63097 0
M  V30 2619 H 248.513 -0.161085 -3.87065 0
M  V30 2620 H 248.927 -2.18455 -4.76841 0
M  V30 2621 H 250.401 -0.63117 -5.4838 0
M  V30 2622 H 250.878 0.627686 -4.34692 0
M  V30 2623 H 251.484 -1.02991 -4.12641 0
M  V30 2624 N 249.799 1.42003 -0.683588 0
M  V30 2625 C 251.047 2.01015 -0.209101 0
M  V30 2626 C 251.368 1.54365 1.19149 0
M  V30 2627 O 250.638 0.769083 1.80172 0
M  V30 2628 H 249.218 0.743294 -0.074315 0
M  V30 2629 H 251.88 1.73798 -0.882066 0
M  V30 2630 H 250.976 3.11343 -0.2172 0
M  V30 2631 N 251.277 0.427512 1.51691 0
M  V30 2632 C 252.502 -0.143601 2.06902 0
M  V30 2633 C 252.927 -1.36536 1.29382 0
M  V30 2634 O 252.285 -1.78289 0.329043 0
M  V30 2635 C 252.333 -0.454207 3.57728 0
M  V30 2636 O 251.437 -1.54228 3.82475 0
M  V30 2637 H 250.778 -0.00617128 0.663971 0
M  V30 2638 H 253.308 0.606014 1.95419 0
M  V30 2639 H 253.318 -0.707525 4.01818 0
M  V30 2640 H 251.993 0.438812 4.13579 0
M  V30 2641 H 250.57 -1.2797 3.50254 0
M  V30 2642 N 252.755 -1.56801 0.158532 0
M  V30 2643 C 253.702 -2.17337 -0.776729 0
M  V30 2644 C 254.672 -1.1096 -1.23601 0
M  V30 2645 O 255.857 -1.39054 -1.30647 0
M  V30 2646 C 252.997 -2.80822 -2.00582 0
M  V30 2647 C 252.11 -4.01624 -1.59129 0
M  V30 2648 C 251.245 -4.53072 -2.77306 0
M  V30 2649 C 250.284 -5.66314 -2.32282 0
M  V30 2650 N 249.421 -6.12329 -3.43508 0
M  V30 2651 H 254.261 -2.96918 -0.253701 0
M  V30 2652 H 251.798 -1.46661 -0.113504 0
M  V30 2653 H 253.756 -3.15779 -2.72652 0
M  V30 2654 H 252.386 -2.03866 -2.50277 0
M  V30 2655 H 251.438 -3.72571 -0.767806 0
M  V30 2656 H 252.75 -4.83633 -1.2207 0
M  V30 2657 H 251.904 -4.90145 -3.57551 0
M  V30 2658 H 250.643 -3.70095 -3.17617 0
M  V30 2659 H 249.648 -5.28806 -1.5048 0
M  V30 2660 H 250.873 -6.51085 -1.93043 0
M  V30 2661 H 248.819 -5.32284 -3.83418 0
M  V30 2662 H 248.736 -6.89293 -3.105 0
M  V30 2663 H 250.004 -6.5405 -4.24075 0
M  V30 2664 N 254.233 0.115231 -1.57178 0
M  V30 2665 C 255.165 1.16694 -1.97269 0
M  V30 2666 C 256.178 1.37445 -0.872502 0
M  V30 2667 O 257.367 1.36454 -1.15077 0
M  V30 2668 C 254.467 2.52627 -2.25905 0
M  V30 2669 C 253.64 2.52427 -3.57211 0
M  V30 2670 C 252.699 3.70134 -3.74016 0
M  V30 2671 O 251.725 3.53546 -4.46087 0
M  V30 2672 N 252.927 4.88844 -3.13068 0
M  V30 2673 H 255.692 0.82588 -2.88096 0
M  V30 2674 H 253.253 0.304461 -1.59011 0
M  V30 2675 H 255.245 3.29937 -2.34359 0
M  V30 2676 H 253.815 2.789 -1.41186 0
M  V30 2677 H 253.035 1.60805 -3.5991 0
M  V30 2678 H 254.323 2.49353 -4.43509 0
M  V30 2679 H 253.721 5.05225 -2.54489 0
M  V30 2680 H 252.278 5.63817 -3.27037 0
M  V30 2681 N 255.711 1.52812 0.385517 0
M  V30 2682 C 256.659 1.78482 1.49155 0
M  V30 2683 C 257.653 0.652914 1.56312 0
M  V30 2684 O 258.859 0.835464 1.59436 0
M  V30 2685 H 255.234 0.5648 0.496493 0
M  V30 2686 H 257.205 2.71095 1.24699 0
M  V30 2687 C 255.954 1.97378 2.86247 0
M  V30 2688 H 255.277 2.83907 2.81491 0
M  V30 2689 H 256.717 2.19327 3.62866 0
M  V30 2690 C 255.176 0.74728 3.28508 0
M  V30 2691 O 255.706 -0.0736232 4.01633 0
M  V30 2692 N 253.912 0.576396 2.84826 0
M  V30 2693 H 253.459 1.24555 2.25486 0
M  V30 2694 H 253.417 -0.24288 3.1346 0
M  V30 2695 N 257.189 -0.644168 1.43834 0
M  V30 2696 C 258.429 -1.41565 1.47441 0
M  V30 2697 C 258.793 -1.91743 0.0992723 0
M  V30 2698 O 259.994 -2.68798 0.0100192 0
M  V30 2699 C 258.265 -2.55902 2.49498 0
M  V30 2700 S 259.824 -3.44287 2.72051 0
M  V30 2701 H 256.642 -0.483118 0.521649 0
M  V30 2702 H 259.244 -0.747008 1.80666 0
M  V30 2703 H 257.948 -2.17327 3.48134 0
M  V30 2704 H 257.479 -3.27607 2.17801 0
M  V30 2705 H 259.494 -4.52927 2.0266 0
M  V30 2706 N 258.668 -1.30515 -0.883378 0
M  V30 2707 C 259.896 -1.22359 -1.66841 0
M  V30 2708 C 260.311 0.213296 -1.87591 0
M  V30 2709 O 259.668 1.14075 -1.42454 0
M  V30 2710 C 259.719 -1.95011 -3.04389 0
M  V30 2711 O 259.44 -3.3309 -2.84575 0
M  V30 2712 C 260.941 -1.93532 -3.98824 0
M  V30 2713 H 258.161 -0.423371 -0.520575 0
M  V30 2714 H 260.705 -1.72167 -1.10357 0
M  V30 2715 H 258.86 -1.48997 -3.57601 0
M  V30 2716 H 259.274 -3.69907 -3.71846 0
M  V30 2717 H 260.748 -2.48902 -4.92699 0
M  V30 2718 H 261.225 -0.914627 -4.29571 0
M  V30 2719 H 261.831 -2.39364 -3.51547 0
M  V30 2720 N 260.146 1.09593 -1.13257 0
M  V30 2721 C 261.374 1.855 -0.916378 0
M  V30 2722 C 261.789 1.81069 0.534738 0
M  V30 2723 O 261.146 1.20562 1.37007 0
M  V30 2724 C 261.197 3.33546 -1.39388 0
M  V30 2725 O 260.918 3.37927 -2.78813 0
M  V30 2726 C 262.419 4.26299 -1.21588 0
M  V30 2727 H 259.639 0.585991 -0.326887 0
M  V30 2728 H 262.183 1.38488 -1.5047 0
M  V30 2729 H 260.338 3.77992 -0.848597 0
M  V30 2730 H 260.752 4.30254 -2.9997 0
M  V30 2731 H 262.226 5.28341 -1.59876 0
M  V30 2732 H 262.703 4.38918 -0.157376 0
M  V30 2733 H 263.309 3.87668 -1.7491 0
M  V30 2734 N 261.624 0.925811 1.2754 0
M  V30 2735 C 262.872 0.564138 1.94067 0
M  V30 2736 C 263.193 -0.897188 1.73134 0
M  V30 2737 O 262.463 -1.63573 1.07799 0
M  V30 2738 H 261.043 0.205645 0.718136 0
M  V30 2739 H 263.705 1.1778 1.55287 0
M  V30 2740 H 262.801 0.76881 3.02483 0
M  V30 2741 N 263.102 -1.41638 0.69111 0
M  V30 2742 C 264.012 -2.34588 0.0233487 0
M  V30 2743 C 265.028 -1.55987 -0.770984 0
M  V30 2744 O 266.204 -1.88486 -0.709569 0
M  V30 2745 C 263.269 -3.34684 -0.904851 0
M  V30 2746 C 262.33 -4.29176 -0.103225 0
M  V30 2747 C 261.563 -5.2449 -0.987216 0
M  V30 2748 O 261.786 -5.2514 -2.22674 0
M  V30 2749 O 260.72 -6.00295 -0.439281 0
M  V30 2750 H 264.546 -2.93261 0.789416 0
M  V30 2751 H 262.131 -1.42417 0.45142 0
M  V30 2752 H 264.013 -3.96133 -1.43724 0
M  V30 2753 H 262.688 -2.78461 -1.65049 0
M  V30 2754 H 261.595 -3.71089 0.473655 0
M  V30 2755 H 262.928 -4.88484 0.60365 0
M  V30 2756 N 264.58 -0.43555 -1.51462 0
M  V30 2757 C 265.828 0.131254 -2.01673 0
M  V30 2758 C 266.149 1.43368 -1.32177 0
M  V30 2759 O 265.419 1.90524 -0.455769 0
M  V30 2760 H 263.999 0.0514954 -0.745223 0
M  V30 2761 H 266.661 -0.577847 -1.86137 0
M  V30 2762 H 265.757 0.308446 -3.10572 0
M  V30 2763 N 266.058 1.56714 -0.166846 0
M  V30 2764 C 267.335 1.88412 0.525373 0
M  V30 2765 C 267.715 1.07602 1.81618 0
M  V30 2766 O 267.063 0.168621 2.27877 0
M  V30 2767 C 267.273 3.40363 0.771613 0
M  V30 2768 C 268.621 4.10007 1.1036 0
M  V30 2769 O 269.645 3.45655 0.860304 0
M  V30 2770 O 268.504 5.2369 1.56239 0
M  V30 2771 H 265.598 0.781587 0.270278 0
M  V30 2772 H 268.144 1.68458 -0.204946 0
M  V30 2773 H 266.916 3.91046 -0.141093 0
M  V30 2774 H 266.539 3.65914 1.55541 0
M  V30 2775 N 267.536 -0.106894 1.57237 0
M  V30 2776 C 268.766 -0.825191 1.89405 0
M  V30 2777 C 269.174 -1.73374 0.757496 0
M  V30 2778 O 268.517 -1.81552 -0.280115 0
M  V30 2779 C 268.579 -1.70102 3.1671 0
M  V30 2780 C 268.243 -0.965523 4.46684 0
M  V30 2781 C 269.24 -0.300741 5.19029 0
M  V30 2782 C 266.925 -0.943105 4.93367 0
M  V30 2783 C 268.919 0.376622 6.36286 0
M  V30 2784 C 266.606 -0.261949 6.10538 0
M  V30 2785 C 267.604 0.396748 6.81847 0
M  V30 2786 O 267.292 1.06701 7.96787 0
M  V30 2787 H 267.024 -0.241852 0.631255 0
M  V30 2788 H 269.578 -0.0921491 2.05193 0
M  V30 2789 H 267.808 -2.47601 2.97036 0
M  V30 2790 H 269.497 -2.29483 3.34802 0
M  V30 2791 H 270.263 -0.309599 4.84011 0
M  V30 2792 H 266.142 -1.44524 4.3776 0
M  V30 2793 H 269.686 0.891334 6.91882 0
M  V30 2794 H 265.583 -0.250896 6.45012 0
M  V30 2795 H 266.351 0.972707 8.127 0
M  V30 2796 N 269.014 -1.53014 -0.377408 0
M  V30 2797 C 269.946 -1.74884 -1.48149 0
M  V30 2798 C 270.959 -0.629433 -1.5014 0
M  V30 2799 O 272.148 -0.905416 -1.53833 0
M  V30 2800 C 269.248 -1.80299 -2.86959 0
M  V30 2801 C 268.421 -3.09776 -3.08801 0
M  V30 2802 C 267.48 -3.06586 -4.27658 0
M  V30 2803 O 266.506 -3.80419 -4.23403 0
M  V30 2804 N 267.708 -2.26578 -5.34455 0
M  V30 2805 H 270.473 -2.70147 -1.29771 0
M  V30 2806 H 268.034 -1.51646 -0.56703 0
M  V30 2807 H 270.026 -1.75657 -3.64591 0
M  V30 2808 H 268.596 -0.92372 -2.98641 0
M  V30 2809 H 267.816 -3.27815 -2.18931 0
M  V30 2810 H 269.104 -3.95366 -3.20255 0
M  V30 2811 H 268.502 -1.66081 -5.40771 0
M  V30 2812 H 267.059 -2.27766 -6.10709 0
M  V30 2813 N 270.492 0.636531 -1.44174 0
M  V30 2814 C 271.422 1.76003 -1.53444 0
M  V30 2815 C 272.403 1.65619 -0.387841 0
M  V30 2816 O 273.588 1.84461 -0.607257 0
M  V30 2817 C 270.718 3.14511 -1.4731 0
M  V30 2818 C 269.672 3.39677 -2.60391 0
M  V30 2819 C 268.998 4.78159 -2.39308 0
M  V30 2820 C 270.298 3.32772 -4.02567 0
M  V30 2821 H 271.992 1.68501 -2.47483 0
M  V30 2822 H 269.538 0.809237 -1.19111 0
M  V30 2823 H 271.491 3.92878 -1.52397 0
M  V30 2824 H 270.215 3.22783 -0.49785 0
M  V30 2825 H 268.874 2.63688 -2.54684 0
M  V30 2826 H 268.522 4.83128 -1.39988 0
M  V30 2827 H 268.222 4.95956 -3.15122 0
M  V30 2828 H 269.746 5.58762 -2.46205 0
M  V30 2829 H 271.16 4.01051 -4.09672 0
M  V30 2830 H 269.557 3.62104 -4.7854 0
M  V30 2831 H 270.627 2.30669 -4.2652 0
M  V30 2832 N 271.97 1.30982 0.876444 0
M  V30 2833 C 273.216 1.20474 1.63138 0
M  V30 2834 C 273.549 -0.238096 1.92735 0
M  V30 2835 O 272.824 -1.1692 1.55435 0
M  V30 2836 C 273.107 2.04244 2.96574 0
M  V30 2837 C 272.96 3.56793 2.73896 0
M  V30 2838 C 274.279 1.88684 3.97601 0
M  V30 2839 H 271.398 0.439001 0.591985 0
M  V30 2840 H 274.04 1.60704 1.01361 0
M  V30 2841 H 272.19 1.70063 3.493 0
M  V30 2842 H 273.862 4.01077 2.27892 0
M  V30 2843 H 272.105 3.80548 2.08245 0
M  V30 2844 H 272.776 4.10706 3.68815 0
M  V30 2845 H 275.252 2.18584 3.54062 0
M  V30 2846 H 274.128 2.4961 4.88862 0
M  V30 2847 H 274.389 0.848343 4.33884 0
M  V30 2848 N 273.449 -1.08991 1.13837 0
M  V30 2849 C 274.381 -2.15606 0.777612 0
M  V30 2850 C 275.394 -1.61533 -0.202739 0
M  V30 2851 O 276.583 -1.78491 0.0181055 0
M  V30 2852 C 273.683 -3.3864 0.132623 0
M  V30 2853 C 272.856 -4.22115 1.1462 0
M  V30 2854 C 271.915 -5.23564 0.526074 0
M  V30 2855 O 270.941 -5.56678 1.18735 0
M  V30 2856 N 272.143 -5.76266 -0.699866 0
M  V30 2857 H 274.908 -2.47159 1.69506 0
M  V30 2858 H 272.469 -1.24747 1.03198 0
M  V30 2859 H 274.461 -4.03626 -0.29459 0
M  V30 2860 H 273.031 -3.04938 -0.687849 0
M  V30 2861 H 272.251 -3.53199 1.75055 0
M  V30 2862 H 273.539 -4.74709 1.83109 0
M  V30 2863 H 272.937 -5.51585 -1.25581 0
M  V30 2864 H 271.494 -6.42963 -1.06968 0
M  V30 2865 N 274.927 -0.932562 -1.27047 0
M  V30 2866 C 275.877 -0.406392 -2.24349 0
M  V30 2867 C 276.861 0.492066 -1.53191 0
M  V30 2868 O 278.053 0.328717 -1.73921 0
M  V30 2869 C 275.182 0.335214 -3.41659 0
M  V30 2870 C 274.268 -0.58004 -4.20115 0
M  V30 2871 N 274.659 -1.70203 -4.76303 0
M  V30 2872 C 272.957 -0.383974 -4.44344 0
M  V30 2873 C 273.658 -2.27167 -5.35509 0
M  V30 2874 N 272.634 -1.56068 -5.20715 0
M  V30 2875 H 276.436 -1.26299 -2.65378 0
M  V30 2876 H 273.95 -0.787408 -1.42034 0
M  V30 2877 H 275.947 0.729142 -4.10474 0
M  V30 2878 H 274.607 1.18868 -3.0216 0
M  V30 2879 H 275.618 -2.08433 -4.74106 0
M  V30 2880 H 272.295 0.428436 -4.15296 0
M  V30 2881 H 273.685 -3.21654 -5.89905 0
M  V30 2882 N 276.405 1.4127 -0.698611 0
M  V30 2883 C 277.315 2.34573 -0.0357891 0
M  V30 2884 C 278.331 1.56393 0.762701 0
M  V30 2885 O 279.507 1.8886 0.699564 0
M  V30 2886 C 276.572 3.35159 0.887089 0
M  V30 2887 C 275.633 4.29225 0.0804634 0
M  V30 2888 C 274.866 5.25006 0.959387 0
M  V30 2889 O 275.089 5.26314 2.19886 0
M  V30 2890 O 274.023 6.00519 0.407439 0
M  V30 2891 H 277.849 2.92838 -0.804957 0
M  V30 2892 H 275.434 1.42175 -0.458966 0
M  V30 2893 H 277.316 3.9689 1.41621 0
M  V30 2894 H 275.991 2.79333 1.6357 0
M  V30 2895 H 274.898 3.70833 -0.493328 0
M  V30 2896 H 276.231 4.88157 -0.629547 0
M  V30 2897 N 277.883 0.443576 1.51229 0
M  V30 2898 C 279.129 -0.120975 2.02439 0
M  V30 2899 C 279.462 -1.41815 1.32674 0
M  V30 2900 O 278.737 -1.89373 0.443622 0
M  V30 2901 C 279.02 -0.333291 3.58554 0
M  V30 2902 C 278.873 0.982968 4.38928 0
M  V30 2903 C 280.192 -1.10028 4.26124 0
M  V30 2904 H 277.311 -0.0424923 0.735774 0
M  V30 2905 H 279.953 0.583794 1.80809 0
M  V30 2906 H 278.103 -0.933614 3.77115 0
M  V30 2907 H 279.775 1.61775 4.32003 0
M  V30 2908 H 278.018 1.58611 4.03763 0
M  V30 2909 H 278.689 0.788379 5.46341 0
M  V30 2910 H 281.165 -0.591711 4.11871 0
M  V30 2911 H 280.041 -1.21761 5.35225 0
M  V30 2912 H 280.302 -2.12996 3.87408 0
M  V30 2913 N 279.361 -1.56624 0.175154 0
M  V30 2914 C 280.291 -2.21155 -0.749195 0
M  V30 2915 C 281.272 -1.16836 -1.23626 0
M  V30 2916 O 282.457 -1.45277 -1.28873 0
M  V30 2917 C 279.587 -2.8553 -1.97711 0
M  V30 2918 C 278.541 -3.95921 -1.62575 0
M  V30 2919 C 277.867 -4.47365 -2.92864 0
M  V30 2920 C 279.167 -5.15323 -0.850838 0
M  V30 2921 H 280.861 -2.98653 -0.211295 0
M  V30 2922 H 278.407 -1.43651 -0.100188 0
M  V30 2923 H 280.36 -3.2935 -2.62881 0
M  V30 2924 H 279.084 -2.05406 -2.53921 0
M  V30 2925 H 277.743 -3.52762 -0.997719 0
M  V30 2926 H 277.391 -3.64027 -3.47122 0
M  V30 2927 H 277.091 -5.21839 -2.70106 0
M  V30 2928 H 278.615 -4.93873 -3.59056 0
M  V30 2929 H 280.029 -5.55812 -1.40521 0
M  V30 2930 H 278.426 -5.95739 -0.722154 0
M  V30 2931 H 279.496 -4.84661 0.152082 0
M  V30 2932 N 280.839 0.0985539 -1.57292 0
M  V30 2933 C 282.079 0.808332 -1.87737 0
M  V30 2934 C 282.443 1.7607 -0.76572 0
M  V30 2935 O 283.644 2.51358 -0.952499 0
M  V30 2936 C 281.915 1.52093 -3.23423 0
M  V30 2937 S 283.474 2.26947 -3.75554 0
M  V30 2938 H 280.292 0.269377 -0.657995 0
M  V30 2939 H 282.894 0.0656269 -1.9539 0
M  V30 2940 H 281.598 0.81363 -4.02254 0
M  V30 2941 H 281.129 2.30361 -3.189 0
M  V30 2942 H 283.144 3.53027 -3.48692 0
M  V30 2943 N 282.317 1.53212 0.369288 0
M  V30 2944 C 283.542 1.73423 1.1375 0
M  V30 2945 C 283.967 0.460404 1.82378 0
M  V30 2946 O 283.325 -0.585298 1.71592 0
M  V30 2947 C 283.373 2.89769 2.1463 0
M  V30 2948 O 282.477 2.58119 3.21634 0
M  V30 2949 H 281.818 0.576061 0.330227 0
M  V30 2950 H 284.348 2.00083 0.427547 0
M  V30 2951 H 284.358 3.15829 2.58294 0
M  V30 2952 H 283.033 3.8217 1.64071 0
M  V30 2953 H 281.61 2.42864 2.82969 0
M  V30 2954 N 283.795 -0.628877 1.44509 0
M  V30 2955 C 284.728 -1.75367 1.46019 0
M  V30 2956 C 285.706 -1.59444 0.318787 0
M  V30 2957 O 286.89 -1.81297 0.516099 0
M  V30 2958 C 284.017 -3.12965 1.29501 0
M  V30 2959 C 283.063 -3.47532 2.47233 0
M  V30 2960 S 283.896 -3.44758 4.09758 0
M  V30 2961 C 285.052 -4.84973 3.95667 0
M  V30 2962 H 285.285 -1.7382 2.41193 0
M  V30 2963 H 282.818 -0.803686 1.31834 0
M  V30 2964 H 284.776 -3.92367 1.20658 0
M  V30 2965 H 283.437 -3.12049 0.358341 0
M  V30 2966 H 282.63 -4.47664 2.31544 0
M  V30 2967 H 282.232 -2.75598 2.52828 0
M  V30 2968 H 284.524 -5.74255 3.59496 0
M  V30 2969 H 285.467 -5.05716 4.95638 0
M  V30 2970 H 285.875 -4.59653 3.27688 0
M  V30 2971 N 285.273 -1.31445 -0.869486 0
M  V30 2972 C 286.22 -1.19135 -1.97675 0
M  V30 2973 C 287.19 -0.0770266 -1.65921 0
M  V30 2974 O 288.375 -0.249972 -1.89155 0
M  V30 2975 C 285.515 -0.905149 -3.33018 0
M  V30 2976 C 284.628 -2.10285 -3.77365 0
M  V30 2977 C 283.763 -1.75339 -5.01427 0
M  V30 2978 C 282.802 -2.91515 -5.38224 0
M  V30 2979 N 281.939 -2.56762 -6.53466 0
M  V30 2980 H 286.779 -2.13853 -2.07535 0
M  V30 2981 H 284.316 -1.06379 -1.01597 0
M  V30 2982 H 286.274 -0.719765 -4.10944 0
M  V30 2983 H 284.904 0.00519624 -3.228 0
M  V30 2984 H 283.956 -2.39899 -2.95216 0
M  V30 2985 H 285.268 -2.97237 -4.00564 0
M  V30 2986 H 284.422 -1.53266 -5.87022 0
M  V30 2987 H 283.161 -0.855801 -4.80133 0
M  V30 2988 H 282.166 -3.14237 -4.51149 0
M  V30 2989 H 283.391 -3.81985 -5.61484 0
M  V30 2990 H 281.337 -1.69526 -6.33717 0
M  V30 2991 H 281.254 -3.37243 -6.76612 0
M  V30 2992 H 282.522 -2.38083 -7.42251 0
M  V30 2993 N 286.751 1.08385 -1.14413 0
M  V30 2994 C 287.699 2.17406 -0.826888 0
M  V30 2995 C 288.693 1.6827 0.195312 0
M  V30 2996 O 289.899 1.79927 0.0513892 0
M  V30 2997 H 286.274 0.70934 -0.249681 0
M  V30 2998 H 288.245 2.41388 -1.75426 0
M  V30 2999 C 286.994 3.46215 -0.320979 0
M  V30 3000 H 286.317 3.84401 -1.0989 0
M  V30 3001 H 287.757 4.23777 -0.137549 0
M  V30 3002 C 286.216 3.23067 0.955472 0
M  V30 3003 O 286.746 3.4668 2.02918 0
M  V30 3004 N 284.952 2.7661 0.890798 0
M  V30 3005 H 284.499 2.57594 0.0168815 0
M  V30 3006 H 284.457 2.61501 1.74542 0
M  V30 3007 N 288.23 0.939286 1.26551 0
M  V30 3008 C 289.458 0.602536 1.97932 0
M  V30 3009 C 289.873 -0.82206 1.69964 0
M  V30 3010 O 289.23 -1.54789 0.966784 0
M  V30 3011 C 289.281 0.832946 3.51773 0
M  V30 3012 O 289.002 2.20151 3.78768 0
M  V30 3013 C 290.503 0.506483 4.40397 0
M  V30 3014 H 287.723 0.227248 0.631347 0
M  V30 3015 H 290.267 1.25948 1.61113 0
M  V30 3016 H 288.422 0.222644 3.8676 0
M  V30 3017 H 288.836 2.26013 4.73306 0
M  V30 3018 H 290.31 0.718333 5.47306 0
M  V30 3019 H 290.787 -0.558451 4.35635 0
M  V30 3020 H 291.393 1.09543 4.10951 0
M  V30 3021 N 289.708 -1.40897 0.706093 0
M  V30 3022 C 290.938 -2.05075 0.250523 0
M  V30 3023 C 291.346 -1.53275 -1.10921 0
M  V30 3024 O 290.689 -0.680281 -1.7064 0
M  V30 3025 C 290.751 -3.59219 0.142178 0
M  V30 3026 C 290.415 -4.33864 1.43566 0
M  V30 3027 C 291.412 -4.62448 2.37566 0
M  V30 3028 C 289.097 -4.72946 1.69195 0
M  V30 3029 C 291.091 -5.29088 3.5545 0
M  V30 3030 C 288.778 -5.3932 2.87362 0
M  V30 3031 C 289.776 -5.6732 3.80312 0
M  V30 3032 O 289.464 -6.32325 4.96408 0
M  V30 3033 H 289.196 -0.666645 0.112074 0
M  V30 3034 H 291.75 -1.81467 0.962239 0
M  V30 3035 H 289.98 -3.81609 -0.6254 0
M  V30 3036 H 291.669 -4.0495 -0.277584 0
M  V30 3037 H 292.435 -4.32727 2.19027 0
M  V30 3038 H 288.314 -4.50527 0.977042 0
M  V30 3039 H 291.858 -5.50859 4.28018 0
M  V30 3040 H 287.755 -5.68461 3.05814 0
M  V30 3041 H 288.523 -6.50821 4.9636 0
M  V30 3042 N 291.186 -0.45159 -1.50991 0
M  V30 3043 C 292.096 0.358431 -2.31846 0
M  V30 3044 C 293.112 1.01438 -1.41373 0
M  V30 3045 O 294.288 1.00663 -1.74439 0
M  V30 3046 C 291.353 1.43704 -3.15515 0
M  V30 3047 C 290.414 0.799742 -4.21785 0
M  V30 3048 C 289.647 1.82696 -5.01456 0
M  V30 3049 O 289.87 3.05105 -4.81941 0
M  V30 3050 O 288.804 1.40958 -5.85162 0
M  V30 3051 H 292.63 -0.302032 -3.02194 0
M  V30 3052 H 290.215 -0.213825 -1.47862 0
M  V30 3053 H 292.097 2.06227 -3.67489 0
M  V30 3054 H 290.772 2.08133 -2.47916 0
M  V30 3055 H 289.679 0.136084 -3.73852 0
M  V30 3056 H 291.012 0.198718 -4.91799 0
M  V30 3057 N 292.664 1.56529 -0.183458 0
M  V30 3058 C 293.91 1.97537 0.459036 0
M  V30 3059 C 294.243 1.06989 1.62071 0
M  V30 3060 O 293.518 0.11948 1.94133 0
M  V30 3061 C 293.801 3.47874 0.930368 0
M  V30 3062 C 293.654 4.492 -0.232317 0
M  V30 3063 C 294.973 4.01612 1.79989 0
M  V30 3064 H 292.092 0.718204 0.165383 0
M  V30 3065 H 294.734 1.88042 -0.272038 0
M  V30 3066 H 292.884 3.56095 1.55333 0
M  V30 3067 H 294.556 4.53027 -0.86972 0
M  V30 3068 H 292.799 4.24657 -0.885928 0
M  V30 3069 H 293.47 5.51823 0.139796 0
M  V30 3070 H 295.946 3.96097 1.27461 0
M  V30 3071 H 294.822 5.07195 2.09867 0
M  V30 3072 H 295.083 3.46163 2.74998 0
M  V30 3073 N 294.142 -0.090211 1.57342 0
M  V30 3074 C 295.072 -1.10976 2.05443 0
M  V30 3075 C 296.053 -1.41482 0.944284 0
M  V30 3076 O 297.238 -1.51428 1.21586 0
M  V30 3077 C 294.368 -2.42831 2.48295 0
M  V30 3078 C 293.322 -2.26721 3.63018 0
M  V30 3079 C 292.648 -3.63796 3.91863 0
M  V30 3080 C 293.948 -1.7037 4.93732 0
M  V30 3081 H 295.642 -0.709564 2.9087 0
M  V30 3082 H 293.188 -0.339874 1.39932 0
M  V30 3083 H 295.141 -3.14431 2.80555 0
M  V30 3084 H 293.865 -2.84795 1.59873 0
M  V30 3085 H 292.524 -1.57565 3.31012 0
M  V30 3086 H 292.172 -4.03297 3.00601 0
M  V30 3087 H 291.872 -3.53861 4.69101 0
M  V30 3088 H 293.396 -4.36855 4.26603 0
M  V30 3089 H 294.81 -2.31816 5.24342 0
M  V30 3090 H 293.207 -1.71181 5.75167 0
M  V30 3091 H 294.277 -0.663542 4.80339 0
M  V30 3092 N 295.62 -1.53406 -0.361157 0
M  V30 3093 C 296.897 -1.60411 -1.11927 0
M  V30 3094 C 297.277 -0.414385 -2.06993 0
M  V30 3095 O 296.625 0.594976 -2.20618 0
M  V30 3096 C 296.835 -2.95652 -1.85448 0
M  V30 3097 C 298.183 -3.50386 -2.39823 0
M  V30 3098 O 299.207 -2.97711 -1.95568 0
M  V30 3099 O 298.066 -4.42482 -3.20737 0
M  V30 3100 H 295.16 -0.64811 -0.513695 0
M  V30 3101 H 297.706 -1.65749 -0.364065 0
M  V30 3102 H 296.478 -3.73682 -1.16091 0
M  V30 3103 H 296.101 -2.93825 -2.67866 0
M  V30 3104 N 297.098 0.621204 -1.44841 0
M  V30 3105 C 298.345 1.38055 -1.48145 0
M  V30 3106 C 298.673 1.94143 -0.117867 0
M  V30 3107 O 297.928 1.74713 0.881694 0
M  V30 3108 C 298.227 2.55675 -2.4973 0
M  V30 3109 C 297.893 2.17817 -3.94799 0
M  V30 3110 C 296.555 2.07205 -4.34303 0
M  V30 3111 C 298.907 1.88065 -4.86087 0
M  V30 3112 C 296.235 1.65045 -5.63007 0
M  V30 3113 C 298.587 1.47394 -6.15189 0
M  V30 3114 C 297.251 1.35331 -6.53637 0
M  V30 3115 H 296.521 0.505181 -0.542101 0
M  V30 3116 H 299.168 0.703477 -1.78111 0
M  V30 3117 H 297.473 3.2866 -2.13284 0
M  V30 3118 H 299.17 3.13904 -2.4953 0
M  V30 3119 H 295.76 2.26998 -3.63552 0
M  V30 3120 H 299.944 1.95168 -4.56315 0
M  V30 3121 H 295.2 1.54317 -5.91605 0
M  V30 3122 H 299.374 1.23415 -6.85377 0
M  V30 3123 H 297.001 1.02435 -7.53267 0
M  V30 3124 N 298.576 1.31904 0.862503 0
M  V30 3125 C 299.506 1.22782 1.98612 0
M  V30 3126 C 300.487 0.113362 1.69722 0
M  V30 3127 O 301.672 0.299218 1.91881 0
M  V30 3128 C 298.802 0.942058 3.34279 0
M  V30 3129 C 297.756 2.0169 3.77499 0
M  V30 3130 C 297.082 1.58369 5.10709 0
M  V30 3131 C 298.382 3.43096 3.93805 0
M  V30 3132 H 300.076 2.16788 2.06502 0
M  V30 3133 H 297.622 1.04366 0.992154 0
M  V30 3134 H 299.575 0.864818 4.1243 0
M  V30 3135 H 298.299 -0.0336603 3.26583 0
M  V30 3136 H 296.958 2.08416 3.01593 0
M  V30 3137 H 296.606 0.595628 4.99461 0
M  V30 3138 H 296.306 2.30279 5.40597 0
M  V30 3139 H 297.83 1.52067 5.91361 0
M  V30 3140 H 299.244 3.39003 4.62331 0
M  V30 3141 H 297.641 4.13288 4.35101 0
M  V30 3142 H 298.711 3.83334 2.96957 0
M  V30 3143 N 300.054 -1.07777 1.14986 0
M  V30 3144 C 301.302 -1.79934 0.920235 0
M  V30 3145 C 301.623 -1.86955 -0.554336 0
M  V30 3146 O 300.893 -1.36731 -1.40291 0
M  V30 3147 H 299.473 -0.666424 0.337473 0
M  V30 3148 H 302.135 -1.3027 1.44968 0
M  V30 3149 H 301.231 -2.82539 1.32583 0
M  V30 3150 N 301.532 -0.945985 -1.26051 0
M  V30 3151 C 302.948 -0.649045 -1.45807 0
M  V30 3152 C 303.148 0.796158 -1.85104 0
M  V30 3153 O 302.204 1.57233 -1.97571 0
M  V30 3154 C 303.517 -1.61458 -2.53677 0
M  V30 3155 C 305.065 -1.62481 -2.67524 0
M  V30 3156 C 305.54 -2.57776 -3.7857 0
M  V30 3157 N 307.031 -2.5609 -3.85969 0
M  V30 3158 C 307.766 -3.26508 -4.7136 0
M  V30 3159 N 307.262 -4.0637 -5.61102 0
M  V30 3160 N 309.055 -3.15437 -4.65248 0
M  V30 3161 H 301.206 -1.88005 -0.988328 0
M  V30 3162 H 303.469 -0.808198 -0.4955 0
M  V30 3163 H 303.175 -2.64644 -2.31638 0
M  V30 3164 H 303.049 -1.37036 -3.51427 0
M  V30 3165 H 305.436 -0.600167 -2.88933 0
M  V30 3166 H 305.517 -1.90958 -1.70202 0
M  V30 3167 H 305.161 -3.60361 -3.57913 0
M  V30 3168 H 305.091 -2.26587 -4.75359 0
M  V30 3169 H 307.582 -1.98105 -3.21812 0
M  V30 3170 H 307.895 -4.57042 -6.23164 0
M  V30 3171 H 306.24 -4.10469 -5.60839 0
M  V30 3172 H 309.431 -2.52525 -3.94143 0
M  V30 3173 H 309.604 -3.70584 -5.31575 0
M  V30 3174 N 303.011 1.40521 -0.713556 0
M  V30 3175 C 304.259 2.00527 -0.251692 0
M  V30 3176 C 304.58 1.56857 1.15848 0
M  V30 3177 O 303.85 0.807127 1.785 0
M  V30 3178 H 302.43 0.741551 -0.0900646 0
M  V30 3179 H 305.092 1.71887 -0.918733 0
M  V30 3180 H 304.188 3.10813 -0.283192 0
M  V30 3181 N 304.489 0.459591 1.5075 0
M  V30 3182 C 305.717 -0.0973749 2.06671 0
M  V30 3183 C 306.132 -1.34524 1.32472 0
M  V30 3184 O 305.489 -1.7827 0.390634 0
M  V30 3185 C 305.54 -0.39714 3.59312 0
M  V30 3186 O 305.261 0.801214 4.30711 0
M  V30 3187 C 306.762 -1.00234 4.31819 0
M  V30 3188 H 303.982 0.00195854 0.670997 0
M  V30 3189 H 306.526 0.645072 1.94059 0
M  V30 3190 H 304.681 -1.08951 3.71764 0
M  V30 3191 H 305.095 0.538857 5.21725 0
M  V30 3192 H 306.569 -1.16193 5.39632 0
M  V30 3193 H 307.046 -1.98939 3.91561 0
M  V30 3194 H 307.652 -0.348699 4.23868 0
M  V30 3195 N 305.967 -1.56429 0.191757 0
M  V30 3196 C 307.214 -1.97485 -0.447891 0
M  V30 3197 C 307.542 -1.07852 -1.61859 0
M  V30 3198 O 306.797 -0.116903 -1.95351 0
M  V30 3199 C 307.096 -3.44449 -0.953384 0
M  V30 3200 C 306.762 -4.50781 0.103586 0
M  V30 3201 C 305.424 -4.79584 0.394023 0
M  V30 3202 C 307.776 -5.1471 0.819946 0
M  V30 3203 C 305.104 -5.69607 1.40585 0
M  V30 3204 C 307.456 -6.05827 1.8209 0
M  V30 3205 C 306.12 -6.32987 2.11857 0
M  V30 3206 H 305.39 -0.722648 -0.163895 0
M  V30 3207 H 308.037 -1.89322 0.28802 0
M  V30 3208 H 306.342 -3.49666 -1.76751 0
M  V30 3209 H 308.039 -3.73569 -1.45765 0
M  V30 3210 H 304.629 -4.28394 -0.132951 0
M  V30 3211 H 308.813 -4.92552 0.608789 0
M  V30 3212 H 304.069 -5.88926 1.64243 0
M  V30 3213 H 308.243 -6.54424 2.38123 0
M  V30 3214 H 305.87 -7.02544 2.90407 0
M  V30 3215 N 307.445 0.0818655 -1.57387 0
M  V30 3216 C 308.693 0.781368 -1.86384 0
M  V30 3217 C 309.014 1.78618 -0.782342 0
M  V30 3218 O 308.284 1.94976 0.190061 0
M  V30 3219 H 306.864 0.291562 -0.687751 0
M  V30 3220 H 309.526 0.060348 -1.94807 0
M  V30 3221 H 308.622 1.3038 -2.83562 0
M  V30 3222 N 308.923 1.53595 0.353017 0
M  V30 3223 C 309.855 1.77219 1.45348 0
M  V30 3224 C 310.868 0.65324 1.49119 0
M  V30 3225 O 312.057 0.929775 1.52373 0
M  V30 3226 C 309.157 1.84841 2.84055 0
M  V30 3227 C 308.33 3.14649 3.03833 0
M  V30 3228 C 307.389 3.13351 4.22727 0
M  V30 3229 O 306.415 3.87107 4.17297 0
M  V30 3230 N 307.617 2.35052 5.30783 0
M  V30 3231 H 310.382 2.72178 1.25457 0
M  V30 3232 H 307.943 1.52528 0.542833 0
M  V30 3233 H 309.935 1.81435 3.61751 0
M  V30 3234 H 308.505 0.971114 2.97133 0
M  V30 3235 H 307.725 3.31256 2.13689 0
M  V30 3236 H 309.013 4.00411 3.13925 0
M  V30 3237 H 308.411 1.74663 5.38061 0
M  V30 3238 H 306.968 2.37453 6.07009 0
M  V30 3239 N 310.401 -0.613514 1.45168 0
M  V30 3240 C 311.647 -1.37471 1.49096 0
M  V30 3241 C 311.98 -1.93765 0.129901 0
M  V30 3242 O 311.255 -1.74707 -0.854858 0
M  V30 3243 C 311.538 -2.52701 2.56542 0
M  V30 3244 C 311.391 -2.01643 4.0207 0
M  V30 3245 C 312.71 -3.54849 2.60327 0
M  V30 3246 H 309.829 -0.498502 0.54283 0
M  V30 3247 H 312.471 -0.692125 1.76945 0
M  V30 3248 H 310.621 -3.10931 2.32926 0
M  V30 3249 H 312.293 -1.48108 4.36877 0
M  V30 3250 H 310.536 -1.32688 4.13009 0
M  V30 3251 H 311.207 -2.84681 4.72928 0
M  V30 3252 H 313.683 -3.0645 2.81474 0
M  V30 3253 H 312.559 -4.32973 3.37381 0
M  V30 3254 H 312.82 -4.10079 1.6519 0
M  V30 3255 N 311.879 -1.3236 -0.855495 0
M  V30 3256 C 313.125 -1.23054 -1.612 0
M  V30 3257 C 313.458 0.207404 -1.93089 0
M  V30 3258 O 312.733 1.14432 -1.57275 0
M  V30 3259 C 313.016 -2.08937 -2.93287 0
M  V30 3260 C 312.869 -3.61105 -2.68185 0
M  V30 3261 C 314.188 -1.94986 -3.94549 0
M  V30 3262 H 311.307 -0.448364 -0.584926 0
M  V30 3263 H 313.949 -1.62297 -0.987917 0
M  V30 3264 H 312.099 -1.75599 -3.46551 0
M  V30 3265 H 313.771 -4.04652 -2.21483 0
M  V30 3266 H 312.014 -3.83813 -2.02164 0
M  V30 3267 H 312.685 -4.16522 -3.62234 0
M  V30 3268 H 315.161 -2.24189 -3.5054 0
M  V30 3269 H 314.037 -2.57356 -4.84829 0
M  V30 3270 H 314.298 -0.917263 -4.3248 0
M  V30 3271 N 313.357 1.07166 -1.15556 0
M  V30 3272 C 314.304 2.14417 -0.854055 0
M  V30 3273 C 315.274 1.64965 0.193806 0
M  V30 3274 O 316.459 1.90703 0.0609443 0
M  V30 3275 C 313.599 3.43304 -0.351574 0
M  V30 3276 C 312.712 4.06537 -1.46123 0
M  V30 3277 C 311.847 5.23266 -0.914677 0
M  V30 3278 C 310.886 5.78464 -2.00114 0
M  V30 3279 N 310.023 6.86521 -1.47083 0
M  V30 3280 H 314.863 2.39548 -1.77259 0
M  V30 3281 H 312.4 1.17543 -0.884425 0
M  V30 3282 H 314.358 4.17179 -0.0419409 0
M  V30 3283 H 312.988 3.18419 0.530037 0
M  V30 3284 H 312.04 3.30297 -1.88701 0
M  V30 3285 H 313.352 4.43567 -2.28144 0
M  V30 3286 H 312.506 6.04131 -0.557698 0
M  V30 3287 H 311.245 4.87658 -0.0636583 0
M  V30 3288 H 310.25 4.96243 -2.36692 0
M  V30 3289 H 311.475 6.16126 -2.85597 0
M  V30 3290 H 309.421 6.52849 -0.642198 0
M  V30 3291 H 309.338 7.22446 -2.22729 0
M  V30 3292 H 310.606 7.71087 -1.14215 0
M  V30 3293 N 314.835 0.952656 1.25548 0
M  V30 3294 C 316.075 0.614013 1.9496 0
M  V30 3295 C 316.439 -0.833215 1.72978 0
M  V30 3296 O 317.64 -1.28135 2.36294 0
M  V30 3297 C 315.911 0.960562 3.4425 0
M  V30 3298 S 317.47 0.734195 4.32614 0
M  V30 3299 H 314.288 0.225754 0.674208 0
M  V30 3300 H 316.89 1.22641 1.52248 0
M  V30 3301 H 315.594 2.01103 3.57751 0
M  V30 3302 H 315.125 0.338336 3.91942 0
M  V30 3303 H 317.14 -0.395995 4.94617 0
M  V30 3304 N 316.313 -1.40141 0.720998 0
M  V30 3305 C 317.559 -2.01572 0.272075 0
M  V30 3306 C 317.914 -1.5616 -1.12391 0
M  V30 3307 O 317.207 -0.774198 -1.75262 0
M  V30 3308 C 317.401 -3.56165 0.296892 0
M  V30 3309 C 317.23 -4.16584 1.69375 0
M  V30 3310 C 316 -4.49783 2.30269 0
M  V30 3311 C 318.198 -4.41076 2.64493 0
M  V30 3312 N 316.18 -4.95626 3.62254 0
M  V30 3313 C 317.551 -4.88971 3.81192 0
M  V30 3314 C 319.606 -4.23122 2.62435 0
M  V30 3315 C 318.309 -5.20796 4.96149 0
M  V30 3316 C 320.335 -4.56052 3.76524 0
M  V30 3317 C 319.697 -5.04141 4.91956 0
M  V30 3318 H 315.796 -0.768343 0.145511 0
M  V30 3319 H 318.38 -1.70287 0.943959 0
M  V30 3320 H 316.551 -3.86868 -0.344578 0
M  V30 3321 H 318.283 -4.04346 -0.169254 0
M  V30 3322 H 315.038 -4.37101 1.82318 0
M  V30 3323 H 315.462 -5.22923 4.29977 0
M  V30 3324 H 320.104 -3.85158 1.74393 0
M  V30 3325 H 317.822 -5.57672 5.84831 0
M  V30 3326 H 321.408 -4.43796 3.76213 0
M  V30 3327 H 320.288 -5.29142 5.78774 0
M  V30 3328 N 317.792 -0.46758 -1.50504 0
M  V30 3329 C 318.739 0.328413 -2.28452 0
M  V30 3330 C 319.709 0.990313 -1.33349 0
M  V30 3331 O 320.894 1.00343 -1.62284 0
M  V30 3332 C 318.034 1.40648 -3.15138 0
M  V30 3333 C 317.147 0.759709 -4.25267 0
M  V30 3334 C 316.282 1.81537 -4.99217 0
M  V30 3335 C 315.321 1.14866 -6.01226 0
M  V30 3336 N 314.458 2.14702 -6.68467 0
M  V30 3337 H 319.298 -0.342603 -2.96024 0
M  V30 3338 H 316.835 -0.180801 -1.45985 0
M  V30 3339 H 318.793 2.04315 -3.63746 0
M  V30 3340 H 317.423 2.04671 -2.49619 0
M  V30 3341 H 316.475 0.0105671 -3.80399 0
M  V30 3342 H 317.787 0.233243 -4.98254 0
M  V30 3343 H 316.941 2.52793 -5.51526 0
M  V30 3344 H 315.68 2.37564 -4.25928 0
M  V30 3345 H 314.685 0.42171 -5.4818 0
M  V30 3346 H 315.91 0.595334 -6.76485 0
M  V30 3347 H 313.856 2.69752 -5.97972 0
M  V30 3348 H 313.773 1.6703 -7.37317 0
M  V30 3349 H 315.041 2.85348 -7.25394 0
M  V30 3350 N 319.27 1.56325 -0.20005 0
M  V30 3351 C 320.686 1.58839 0.155716 0
M  V30 3352 C 320.886 1.21636 1.60645 0
M  V30 3353 O 319.942 0.941437 2.34293 0
M  V30 3354 C 321.255 3.0032 -0.151124 0
M  V30 3355 C 322.803 3.12866 -0.0916284 0
M  V30 3356 C 323.278 4.56488 -0.371845 0
M  V30 3357 N 324.769 4.62089 -0.320641 0
M  V30 3358 C 325.504 5.71116 -0.511243 0
M  V30 3359 N 325 6.88592 -0.762461 0
M  V30 3360 N 326.793 5.60335 -0.445157 0
M  V30 3361 H 318.944 1.78788 -1.14668 0
M  V30 3362 H 321.207 0.829996 -0.458051 0
M  V30 3363 H 320.913 3.32117 -1.15721 0
M  V30 3364 H 320.787 3.73257 0.543986 0
M  V30 3365 H 323.174 2.80878 0.905065 0
M  V30 3366 H 323.255 2.42304 -0.81989 0
M  V30 3367 H 322.899 4.89189 -1.36588 0
M  V30 3368 H 322.829 5.25246 0.377362 0
M  V30 3369 H 325.32 3.77665 -0.13329 0
M  V30 3370 H 325.633 7.67581 -0.896576 0
M  V30 3371 H 323.978 6.90387 -0.799412 0
M  V30 3372 H 327.169 4.67436 -0.249278 0
M  V30 3373 H 327.342 6.45243 -0.597116 0
M  V30 3374 N 320.748 -0.0735177 1.57428 0
M  V30 3375 C 321.996 -0.771472 1.86796 0
M  V30 3376 C 322.317 -1.78201 0.791804 0
M  V30 3377 O 321.587 -1.95074 -0.179718 0
M  V30 3378 H 320.167 -0.28791 0.689287 0
M  V30 3379 H 322.829 -0.0500161 1.94836 0
M  V30 3380 H 321.925 -1.28874 2.8425 0
M  V30 3381 N 322.226 -1.5378 -0.344866 0
M  V30 3382 C 323.454 -1.74899 -1.10534 0
M  V30 3383 C 323.869 -0.487534 -1.82397 0
M  V30 3384 O 323.226 0.540741 -1.74305 0
M  V30 3385 C 323.277 -2.92822 -2.11984 0
M  V30 3386 O 322.998 -4.14089 -1.43044 0
M  V30 3387 C 324.499 -3.25982 -3.00417 0
M  V30 3388 H 321.719 -0.584426 -0.329678 0
M  V30 3389 H 324.263 -2.006 -0.397474 0
M  V30 3390 H 322.418 -2.69457 -2.78338 0
M  V30 3391 H 322.832 -4.80272 -2.10805 0
M  V30 3392 H 324.306 -4.11848 -3.67539 0
M  V30 3393 H 324.783 -2.42228 -3.66363 0
M  V30 3394 H 325.389 -3.51349 -2.39654 0
M  V30 3395 N 323.704 0.605807 -1.45491 0
M  V30 3396 C 324.652 1.73754 -1.54636 0
M  V30 3397 C 325.646 1.64207 -0.416219 0
M  V30 3398 O 326.852 1.69979 -0.592199 0
M  V30 3399 H 323.227 0.574073 -0.485741 0
M  V30 3400 H 325.198 1.63169 -2.49837 0
M  V30 3401 C 323.947 3.12135 -1.53189 0
M  V30 3402 H 323.27 3.20141 -2.39478 0
M  V30 3403 H 324.71 3.91147 -1.63645 0
M  V30 3404 C 323.169 3.35921 -0.256616 0
M  V30 3405 O 323.699 3.96194 0.662798 0
M  V30 3406 N 321.905 2.90204 -0.151751 0
M  V30 3407 H 321.452 2.41336 -0.90081 0
M  V30 3408 H 321.41 3.06492 0.700699 0
M  V30 3409 N 325.182 1.32811 0.848464 0
M  V30 3410 C 326.092 1.24278 1.98978 0
M  V30 3411 C 327.108 0.155176 1.73307 0
M  V30 3412 O 328.284 0.376999 1.9784 0
M  V30 3413 C 325.349 0.972444 3.32783 0
M  V30 3414 C 324.41 2.14911 3.71634 0
M  V30 3415 C 323.643 1.89157 4.99054 0
M  V30 3416 O 323.866 0.837165 5.64223 0
M  V30 3417 O 322.8 2.75433 5.35183 0
M  V30 3418 H 326.626 2.20238 2.09115 0
M  V30 3419 H 324.211 1.12762 0.980052 0
M  V30 3420 H 326.093 0.838432 4.12975 0
M  V30 3421 H 324.768 0.043051 3.23671 0
M  V30 3422 H 323.675 2.33862 2.91992 0
M  V30 3423 H 325.008 3.06151 3.85399 0
M  V30 3424 N 326.66 -1.06551 1.16123 0
M  V30 3425 C 327.909 -1.78687 0.935622 0
M  V30 3426 C 328.222 -1.88056 -0.538001 0
M  V30 3427 O 329.428 -2.56794 -0.88143 0
M  V30 3428 C 327.884 -3.21143 1.62466 0
M  V30 3429 C 327.492 -3.19949 3.13587 0
M  V30 3430 C 329.236 -3.9783 1.48092 0
M  V30 3431 C 327.143 -4.57108 3.75241 0
M  V30 3432 H 326.073 -0.669712 0.346412 0
M  V30 3433 H 328.724 -1.19534 1.39226 0
M  V30 3434 H 327.106 -3.80539 1.09572 0
M  V30 3435 H 328.28 -2.70151 3.73303 0
M  V30 3436 H 326.595 -2.5676 3.27816 0
M  V30 3437 H 329.192 -4.99217 1.91538 0
M  V30 3438 H 329.535 -4.14078 0.429507 0
M  V30 3439 H 330.068 -3.4495 1.98127 0
M  V30 3440 H 326.807 -4.46065 4.80319 0
M  V30 3441 H 326.327 -5.07111 3.20309 0
M  V30 3442 H 328.006 -5.26069 3.76644 0
M  V30 3443 N 328.138 -0.959301 -1.25041 0
M  V30 3444 C 329.384 -0.617525 -1.9317 0
M  V30 3445 C 329.717 0.843981 -1.74902 0
M  V30 3446 O 328.992 1.60615 -1.09696 0
M  V30 3447 C 329.275 -0.982736 -3.46431 0
M  V30 3448 C 329.128 -2.50032 -3.73904 0
M  V30 3449 C 330.447 -0.511176 -4.37121 0
M  V30 3450 H 327.566 -0.22582 -0.701552 0
M  V30 3451 H 330.208 -1.19679 -1.4757 0
M  V30 3452 H 328.358 -0.489806 -3.854 0
M  V30 3453 H 330.03 -3.06737 -3.44544 0
M  V30 3454 H 328.273 -2.93598 -3.19348 0
M  V30 3455 H 328.944 -2.70635 -4.81103 0
M  V30 3456 H 331.42 -0.934075 -4.0548 0
M  V30 3457 H 330.296 -0.795361 -5.43107 0
M  V30 3458 H 330.557 0.588834 -4.38161 0
M  V30 3459 N 329.616 1.39756 -0.72842 0
M  V30 3460 C 330.579 2.29012 -0.0927297 0
M  V30 3461 C 331.579 1.45992 0.674025 0
M  V30 3462 O 332.769 1.66749 0.50402 0
M  V30 3463 C 329.901 3.29396 0.878137 0
M  V30 3464 H 331.094 2.86729 -0.879011 0
M  V30 3465 H 328.647 1.48293 -0.493847 0
M  V30 3466 H 329.382 2.76722 1.69101 0
M  V30 3467 H 329.167 3.907 0.331051 0
M  V30 3468 H 330.657 3.96199 1.3197 0
M  V30 3469 N 331.094 0.475555 1.50254 0
M  V30 3470 C 332.343 -0.0795996 2.01543 0
M  V30 3471 C 332.656 -1.4038 1.36209 0
M  V30 3472 O 333.862 -2.04415 1.7868 0
M  V30 3473 C 332.318 -0.192363 3.59386 0
M  V30 3474 C 331.926 1.12367 4.33679 0
M  V30 3475 C 333.67 -0.699238 4.18701 0
M  V30 3476 C 331.577 0.974453 5.83317 0
M  V30 3477 H 330.507 -0.0335228 0.753254 0
M  V30 3478 H 333.158 0.611128 1.73025 0
M  V30 3479 H 331.54 -0.946974 3.84511 0
M  V30 3480 H 332.714 1.88958 4.20276 0
M  V30 3481 H 331.029 1.562 3.85993 0
M  V30 3482 H 333.626 -0.827978 5.28251 0
M  V30 3483 H 333.969 -1.69171 3.80377 0
M  V30 3484 H 334.502 -0.00188807 3.978 0
M  V30 3485 H 331.241 1.94042 6.26121 0
M  V30 3486 H 330.761 0.248998 5.99283 0
M  V30 3487 H 332.44 0.642867 6.43798 0
M  V30 3488 N 332.573 -1.56217 0.208337 0
M  V30 3489 C 333.52 -2.19699 -0.707192 0
M  V30 3490 C 334.49 -1.14836 -1.20008 0
M  V30 3491 O 335.675 -1.4314 -1.26157 0
M  V30 3492 C 332.815 -2.87061 -1.91546 0
M  V30 3493 C 331.928 -4.06483 -1.46271 0
M  V30 3494 C 331.063 -4.61665 -2.62752 0
M  V30 3495 C 330.102 -5.73417 -2.14147 0
M  V30 3496 N 329.239 -6.22948 -3.23853 0
M  V30 3497 H 334.079 -2.97575 -0.159111 0
M  V30 3498 H 331.616 -1.46948 -0.0667874 0
M  V30 3499 H 333.574 -3.24294 -2.62468 0
M  V30 3500 H 332.204 -2.11725 -2.43664 0
M  V30 3501 H 331.256 -3.74825 -0.648886 0
M  V30 3502 H 332.568 -4.87271 -1.06622 0
M  V30 3503 H 331.722 -5.01272 -3.41776 0
M  V30 3504 H 330.461 -3.80013 -3.05682 0
M  V30 3505 H 329.466 -5.33326 -1.33581 0
M  V30 3506 H 330.691 -6.56897 -1.72232 0
M  V30 3507 H 328.637 -5.44213 -3.6629 0
M  V30 3508 H 328.554 -6.98823 -2.88414 0
M  V30 3509 H 329.822 -6.6721 -4.03052 0
M  V30 3510 N 334.051 0.0651679 -1.57465 0
M  V30 3511 C 335.3 0.761916 -1.86756 0
M  V30 3512 C 335.613 1.78406 -0.801925 0
M  V30 3513 O 336.819 2.53084 -0.982885 0
M  V30 3514 C 335.275 1.40603 -3.31299 0
M  V30 3515 C 334.883 0.422115 -4.46007 0
M  V30 3516 C 336.627 2.08476 -3.69781 0
M  V30 3517 C 334.534 1.07252 -5.81593 0
M  V30 3518 H 333.464 0.288308 -0.696702 0
M  V30 3519 H 336.115 0.015344 -1.83494 0
M  V30 3520 H 334.497 2.20109 -3.29193 0
M  V30 3521 H 335.671 -0.343613 -4.59517 0
M  V30 3522 H 333.986 -0.152527 -4.16121 0
M  V30 3523 H 336.583 2.57925 -4.68379 0
M  V30 3524 H 336.926 2.88712 -2.99919 0
M  V30 3525 H 337.459 1.35792 -3.73905 0
M  V30 3526 H 334.198 0.310342 -6.54765 0
M  V30 3527 H 333.718 1.80895 -5.71872 0
M  V30 3528 H 335.397 1.59043 -6.27148 0
M  V30 3529 N 335.529 1.53961 0.336706 0
M  V30 3530 C 336.459 1.85417 1.41925 0
M  V30 3531 C 337.44 0.709856 1.5458 0
M  V30 3532 O 338.625 0.962396 1.68676 0
M  V30 3533 C 335.755 2.06985 2.78881 0
M  V30 3534 C 334.709 3.22813 2.81026 0
M  V30 3535 C 334.035 3.29727 4.20932 0
M  V30 3536 C 335.335 4.60767 2.45949 0
M  V30 3537 H 337.029 2.76079 1.15848 0
M  V30 3538 H 334.575 1.32839 0.555859 0
M  V30 3539 H 336.528 2.27575 3.54665 0
M  V30 3540 H 335.252 1.13061 3.06406 0
M  V30 3541 H 333.911 3.0209 2.07695 0
M  V30 3542 H 333.559 2.33385 4.45579 0
M  V30 3543 H 333.259 4.07566 4.23277 0
M  V30 3544 H 334.783 3.52536 4.98549 0
M  V30 3545 H 336.197 4.81325 3.11446 0
M  V30 3546 H 334.594 5.4106 2.59566 0
M  V30 3547 H 335.664 4.6391 1.41122 0
M  V30 3548 N 337.007 -0.598083 1.45811 0
M  V30 3549 C 337.954 -1.7082 1.55207 0
M  V30 3550 C 338.924 -1.61278 0.39732 0
M  V30 3551 O 340.109 -1.80717 0.612038 0
M  V30 3552 C 337.249 -3.09144 1.53376 0
M  V30 3553 C 336.362 -3.29423 2.79472 0
M  V30 3554 C 335.497 -4.57907 2.69248 0
M  V30 3555 C 334.536 -4.71476 3.90354 0
M  V30 3556 N 333.673 -5.9127 3.78608 0
M  V30 3557 H 338.513 -1.62125 2.50039 0
M  V30 3558 H 336.05 -0.790389 1.24062 0
M  V30 3559 H 338.008 -3.89186 1.50301 0
M  V30 3560 H 336.638 -3.16773 0.620876 0
M  V30 3561 H 335.69 -2.43091 2.92594 0
M  V30 3562 H 337.002 -3.3532 3.69272 0
M  V30 3563 H 336.156 -5.46157 2.64192 0
M  V30 3564 H 334.895 -4.54423 1.77063 0
M  V30 3565 H 333.9 -3.81648 3.95759 0
M  V30 3566 H 335.125 -4.76751 4.83617 0
M  V30 3567 H 333.071 -5.88813 2.89199 0
M  V30 3568 H 332.988 -5.98369 4.6205 0
M  V30 3569 H 334.256 -6.81992 3.77501 0
M  V30 3570 N 338.485 -1.33259 -0.841409 0
M  V30 3571 C 339.433 -1.23279 -1.97244 0
M  V30 3572 C 340.427 -0.134706 -1.68864 0
M  V30 3573 O 341.633 -0.298501 -1.77508 0
M  V30 3574 H 338.008 -0.382497 -0.647457 0
M  V30 3575 H 339.979 -2.18906 -2.02787 0
M  V30 3576 C 338.728 -0.986268 -3.33419 0
M  V30 3577 H 338.051 -1.82347 -3.55794 0
M  V30 3578 H 339.491 -0.956728 -4.13065 0
M  V30 3579 C 337.95 0.310842 -3.35463 0
M  V30 3580 O 338.48 1.31838 -3.79449 0
M  V30 3581 N 336.686 0.337485 -2.88634 0
M  V30 3582 H 336.233 -0.482967 -2.53032 0
M  V30 3583 H 336.191 1.20518 -2.90384 0
M  V30 3584 N 339.963 1.05934 -1.16686 0
M  V30 3585 C 340.913 2.11764 -0.844978 0
M  V30 3586 C 341.897 1.59922 0.177178 0
M  V30 3587 O 343.089 1.76983 -0.0241768 0
M  V30 3588 C 340.218 3.41493 -0.351812 0
M  V30 3589 C 339.304 4.00152 -1.40496 0
M  V30 3590 N 339.695 4.32874 -2.61636 0
M  V30 3591 C 337.993 4.278 -1.26106 0
M  V30 3592 C 338.694 4.79552 -3.29249 0
M  V30 3593 N 337.67 4.79211 -2.56628 0
M  V30 3594 H 341.472 2.34916 -1.76612 0
M  V30 3595 H 338.986 1.23511 -1.05446 0
M  V30 3596 H 340.983 4.16773 -0.102796 0
M  V30 3597 H 339.643 3.19778 0.56322 0
M  V30 3598 H 340.654 4.23109 -2.98663 0
M  V30 3599 H 337.331 4.15511 -0.407081 0
M  V30 3600 H 338.721 5.14045 -4.32675 0
M  V30 3601 N 341.441 0.965919 1.2453 0
M  V30 3602 C 342.852 0.665929 1.7442 0
M  V30 3603 C 343.203 -0.818407 1.78316 0
M  V30 3604 O 342.328 -1.64037 1.41141 0
M  V30 3605 C 342.923 1.20211 3.16757 0
M  V30 3606 C 341.482 0.952059 3.6416 0
M  V30 3607 C 340.629 1.33848 2.42858 0
M  V30 3608 H 343.58 1.14144 1.10258 0
M  V30 3609 H 343.601 0.567544 3.76244 0
M  V30 3610 H 343.113 2.28244 3.13889 0
M  V30 3611 H 341.214 -0.112821 3.72429 0
M  V30 3612 H 341.327 1.59645 4.51719 0
M  V30 3613 H 339.691 0.756864 2.43195 0
M  V30 3614 H 340.474 2.42827 2.42673 0
M  V30 3615 N 342.919 -1.39368 0.735821 0
M  V30 3616 C 344.144 -2.05319 0.293052 0
M  V30 3617 C 344.569 -1.55115 -1.064 0
M  V30 3618 O 343.927 -0.695261 -1.67439 0
M  V30 3619 C 343.975 -3.59305 0.305323 0
M  V30 3620 O 343.079 -4.06299 -0.706761 0
M  V30 3621 H 342.42 -0.650529 0.13307 0
M  V30 3622 H 344.95 -1.78386 1.00197 0
M  V30 3623 H 344.96 -4.07724 0.149997 0
M  V30 3624 H 343.635 -3.95207 1.29553 0
M  V30 3625 H 342.212 -3.69292 -0.517504 0
M  V30 3626 N 344.397 -0.483516 -1.5 0
M  V30 3627 C 345.627 0.0643896 -2.065 0
M  V30 3628 C 346.035 1.32949 -1.34615 0
M  V30 3629 O 345.378 1.79003 -0.412756 0
M  V30 3630 C 345.44 0.405983 -3.572 0
M  V30 3631 C 345.104 -0.758875 -4.50655 0
M  V30 3632 C 346.101 -1.64445 -4.93208 0
M  V30 3633 C 343.786 -0.952725 -4.93182 0
M  V30 3634 C 345.78 -2.70818 -5.77006 0
M  V30 3635 C 343.467 -2.01966 -5.76761 0
M  V30 3636 C 344.465 -2.89574 -6.18576 0
M  V30 3637 O 344.153 -3.94429 -7.00486 0
M  V30 3638 H 343.885 -0.00934786 -0.675935 0
M  V30 3639 H 346.439 -0.674959 -1.93993 0
M  V30 3640 H 344.669 1.19869 -3.67652 0
M  V30 3641 H 346.358 0.890433 -3.96013 0
M  V30 3642 H 347.124 -1.50643 -4.61012 0
M  V30 3643 H 343.003 -0.280247 -4.60147 0
M  V30 3644 H 346.547 -3.3923 -6.09565 0
M  V30 3645 H 342.444 -2.1577 -6.0837 0
M  V30 3646 H 343.212 -3.91568 -7.1876 0
M  V30 3647 N 345.875 1.56104 -0.216619 0
M  V30 3648 C 346.838 2.18819 0.681962 0
M  V30 3649 C 347.838 1.14866 1.12528 0
M  V30 3650 O 349.028 1.40128 1.03488 0
M  V30 3651 C 346.16 2.80756 1.93362 0
M  V30 3652 H 347.353 2.99595 0.135254 0
M  V30 3653 H 344.906 1.56265 0.0330003 0
M  V30 3654 H 345.641 2.03837 2.52232 0
M  V30 3655 H 345.426 3.56876 1.62426 0
M  V30 3656 H 346.916 3.28844 2.57393 0
M  V30 3657 N 347.353 -0.0568162 1.57498 0
M  V30 3658 C 348.769 -0.411933 1.54192 0
M  V30 3659 C 348.969 -1.78287 0.938942 0
M  V30 3660 O 348.025 -2.46483 0.547919 0
M  V30 3661 C 349.338 -0.339244 2.9878 0
M  V30 3662 C 350.886 -0.418348 3.10192 0
M  V30 3663 C 351.361 -0.375407 4.56459 0
M  V30 3664 N 352.852 -0.435038 4.61153 0
M  V30 3665 C 353.587 -0.424265 5.71828 0
M  V30 3666 N 353.083 -0.367418 6.91825 0
M  V30 3667 N 354.876 -0.471938 5.60115 0
M  V30 3668 H 347.027 0.840684 1.95055 0
M  V30 3669 H 349.29 0.316987 0.893433 0
M  V30 3670 H 348.996 0.601742 3.46514 0
M  V30 3671 H 348.87 -1.14371 3.59443 0
M  V30 3672 H 351.257 -1.34976 2.62422 0
M  V30 3673 H 351.338 0.414962 2.52412 0
M  V30 3674 H 350.982 0.552219 5.04889 0
M  V30 3675 H 350.912 -1.22645 5.12119 0
M  V30 3676 H 353.403 -0.482612 3.74806 0
M  V30 3677 H 353.716 -0.363535 7.71944 0
M  V30 3678 H 352.061 -0.333879 6.94198 0
M  V30 3679 H 355.252 -0.514145 4.65268 0
M  V30 3680 H 355.425 -0.460073 6.46365 0
M  V30 3681 N 348.832 -1.54138 -0.328536 0
M  V30 3682 C 349.764 -1.79509 -1.4251 0
M  V30 3683 C 350.777 -0.67688 -1.48061 0
M  V30 3684 O 351.966 -0.953898 -1.50874 0
M  V30 3685 C 349.066 -1.89337 -2.81078 0
M  V30 3686 C 348.239 -3.19443 -2.98789 0
M  V30 3687 C 347.298 -3.20036 -4.17688 0
M  V30 3688 O 346.324 -3.93697 -4.11086 0
M  V30 3689 N 347.526 -2.43467 -5.26976 0
M  V30 3690 H 350.291 -2.74139 -1.21111 0
M  V30 3691 H 347.852 -1.53373 -0.518499 0
M  V30 3692 H 349.844 -1.87167 -3.58818 0
M  V30 3693 H 348.414 -1.01826 -2.95551 0
M  V30 3694 H 347.634 -3.34614 -2.08391 0
M  V30 3695 H 348.922 -4.05354 -3.07515 0
M  V30 3696 H 348.32 -1.83201 -5.35214 0
M  V30 3697 H 346.877 -2.4708 -6.03154 0
M  V30 3698 N 350.31 0.590341 -1.46126 0
M  V30 3699 C 351.558 1.34616 -1.50742 0
M  V30 3700 C 351.879 1.94363 -0.157486 0
M  V30 3701 O 351.149 1.78136 0.815136 0
M  V30 3702 H 349.729 0.499789 -0.555175 0
M  V30 3703 H 352.391 0.691953 -1.82203 0
M  V30 3704 H 351.487 2.15678 -2.25587 0
M  V30 3705 N 351.788 1.33704 0.83433 0
M  V30 3706 C 352.72 1.20172 1.9517 0
M  V30 3707 C 353.733 0.131572 1.62267 0
M  V30 3708 O 354.922 0.382406 1.74356 0
M  V30 3709 C 352.022 0.821716 3.28787 0
M  V30 3710 C 351.195 1.98446 3.89792 0
M  V30 3711 C 350.254 1.58469 5.01771 0
M  V30 3712 O 349.28 2.29968 5.20676 0
M  V30 3713 N 350.482 0.492291 5.78409 0
M  V30 3714 H 353.247 2.16429 2.07313 0
M  V30 3715 H 350.808 1.26509 1.0103 0
M  V30 3716 H 352.8 0.536291 4.01131 0
M  V30 3717 H 351.37 -0.0503058 3.1256 0
M  V30 3718 H 350.59 2.43526 3.09982 0
M  V30 3719 H 351.878 2.76236 4.27283 0
M  V30 3720 H 351.276 -0.102349 5.65607 0
M  V30 3721 H 349.833 0.266555 6.51255 0
M  V30 3722 N 353.266 -1.05314 1.17247 0
M  V30 3723 C 354.515 -1.77685 0.954521 0
M  V30 3724 C 354.828 -1.88616 -0.518025 0
M  V30 3725 O 356.034 -2.57714 -0.854144 0
M  V30 3726 C 354.49 -3.19402 1.65863 0
M  V30 3727 C 354.098 -3.16605 3.16963 0
M  V30 3728 C 355.842 -3.96237 1.52303 0
M  V30 3729 C 353.749 -4.53103 3.80068 0
M  V30 3730 H 352.679 -0.666 0.353496 0
M  V30 3731 H 355.33 -1.1805 1.40486 0
M  V30 3732 H 353.712 -3.79355 1.13602 0
M  V30 3733 H 354.886 -2.66176 3.76148 0
M  V30 3734 H 353.201 -2.53268 3.30521 0
M  V30 3735 H 355.798 -4.97157 1.96822 0
M  V30 3736 H 356.141 -4.136 0.473401 0
M  V30 3737 H 356.674 -3.42829 2.01775 0
M  V30 3738 H 353.413 -4.40946 4.85023 0
M  V30 3739 H 352.933 -5.03686 3.2567 0
M  V30 3740 H 354.612 -5.22045 3.82202 0
M  V30 3741 N 354.744 -0.972509 -1.24016 0
M  V30 3742 C 355.654 -0.5143 -2.28893 0
M  V30 3743 C 356.67 0.427078 -1.68677 0
M  V30 3744 O 357.846 0.298939 -1.99169 0
M  V30 3745 C 354.911 0.183598 -3.46214 0
M  V30 3746 C 353.972 -0.798202 -4.21814 0
M  V30 3747 C 353.205 -0.133514 -5.33533 0
M  V30 3748 O 353.428 1.07714 -5.60137 0
M  V30 3749 O 352.362 -0.828103 -5.96176 0
M  V30 3750 H 356.188 -1.38629 -2.70214 0
M  V30 3751 H 353.773 -0.739769 -1.29799 0
M  V30 3752 H 355.655 0.575433 -4.17453 0
M  V30 3753 H 354.33 1.03048 -3.0686 0
M  V30 3754 H 353.237 -1.24059 -3.52931 0
M  V30 3755 H 354.57 -1.61364 -4.64997 0
M  V30 3756 N 356.222 1.38976 -0.743202 0
M  V30 3757 C 357.468 2.0064 -0.295189 0
M  V30 3758 C 357.801 1.5885 1.11716 0
M  V30 3759 O 357.076 0.821181 1.76315 0
M  V30 3760 C 357.359 3.578 -0.406318 0
M  V30 3761 C 357.212 4.09586 -1.85903 0
M  V30 3762 C 358.531 4.39616 0.206439 0
M  V30 3763 H 355.65 0.728935 -0.108733 0
M  V30 3764 H 358.292 1.65067 -0.940897 0
M  V30 3765 H 356.442 3.88235 0.143419 0
M  V30 3766 H 358.114 3.89837 -2.46627 0
M  V30 3767 H 356.357 3.6284 -2.3776 0
M  V30 3768 H 357.028 5.18708 -1.888 0
M  V30 3769 H 359.504 4.15273 -0.262283 0
M  V30 3770 H 358.38 5.48812 0.0983819 0
M  V30 3771 H 358.641 4.22754 1.2935 0
M  V30 3772 N 357.7 0.491464 1.49741 0
M  V30 3773 C 358.925 -0.0557177 2.07325 0
M  V30 3774 C 359.35 -1.30925 1.35056 0
M  V30 3775 O 358.708 -1.76733 0.404365 0
M  V30 3776 C 358.756 -0.302074 3.59333 0
M  V30 3777 O 357.86 -1.37868 3.88672 0
M  V30 3778 H 357.201 0.0219956 0.663636 0
M  V30 3779 H 359.731 0.688352 1.92673 0
M  V30 3780 H 359.741 -0.536464 4.04458 0
M  V30 3781 H 358.416 0.61383 4.11345 0
M  V30 3782 H 356.993 -1.12999 3.55367 0
M  V30 3783 N 359.178 -1.55987 0.224894 0
M  V30 3784 C 360.427 -1.97566 -0.406273 0
M  V30 3785 C 360.74 -1.11569 -1.6066 0
M  V30 3786 O 361.946 -1.43062 -2.3075 0
M  V30 3787 C 360.402 -3.51474 -0.774207 0
M  V30 3788 C 360.01 -4.46179 0.403496 0
M  V30 3789 C 361.754 -4.01758 -1.37079 0
M  V30 3790 C 359.661 -5.91399 0.0129412 0
M  V30 3791 H 358.591 -0.737777 -0.155565 0
M  V30 3792 H 361.242 -1.80659 0.321635 0
M  V30 3793 H 359.624 -3.63994 -1.55963 0
M  V30 3794 H 360.798 -4.45409 1.18101 0
M  V30 3795 H 359.113 -4.06255 0.913536 0
M  V30 3796 H 361.71 -5.07756 -1.67596 0
M  V30 3797 H 362.053 -3.47805 -2.28773 0
M  V30 3798 H 362.586 -3.92475 -0.648733 0
M  V30 3799 H 359.325 -6.49341 0.896451 0
M  V30 3800 H 358.845 -5.95356 -0.728821 0
M  V30 3801 H 360.524 -6.45683 -0.412582 0
M  V30 3802 N 360.656 0.0484629 -1.57525 0
M  V30 3803 C 361.586 1.0549 -2.08313 0
M  V30 3804 C 362.567 1.38929 -0.981463 0
M  V30 3805 O 363.752 1.48151 -1.25558 0
M  V30 3806 C 360.882 2.36162 -2.54646 0
M  V30 3807 C 359.836 2.17016 -3.68901 0
M  V30 3808 C 359.162 3.53278 -4.01371 0
M  V30 3809 C 360.462 1.57219 -4.98076 0
M  V30 3810 H 362.156 0.632195 -2.92649 0
M  V30 3811 H 359.702 0.302654 -1.40784 0
M  V30 3812 H 361.655 3.06882 -2.88793 0
M  V30 3813 H 360.379 2.80456 -1.67368 0
M  V30 3814 H 359.038 1.48733 -3.35073 0
M  V30 3815 H 358.686 3.95185 -3.11188 0
M  V30 3816 H 358.386 3.41299 -4.78318 0
M  V30 3817 H 359.91 4.25391 -4.38035 0
M  V30 3818 H 361.324 2.17832 -5.30304 0
M  V30 3819 H 359.721 1.55871 -5.79503 0
M  V30 3820 H 360.791 0.535956 -4.81929 0
M  V30 3821 N 362.134 1.5431 0.320358 0
M  V30 3822 C 363.097 1.83195 1.3774 0
M  V30 3823 C 364.097 0.703906 1.44575 0
M  V30 3824 O 365.287 0.972214 1.44546 0
M  V30 3825 C 362.419 1.99487 2.76438 0
M  V30 3826 H 363.612 2.77642 1.1338 0
M  V30 3827 H 361.165 1.46076 0.556012 0
M  V30 3828 H 361.9 1.07262 3.06048 0
M  V30 3829 H 361.685 2.81575 2.7287 0
M  V30 3830 H 363.175 2.23271 3.52902 0
M  V30 3831 N 363.613 -0.582584 1.46437 0
M  V30 3832 C 365.029 -0.905962 1.31394 0
M  V30 3833 C 365.229 -1.99468 0.285476 0
M  V30 3834 O 364.285 -2.50566 -0.311914 0
M  V30 3835 C 365.598 -1.3232 2.70022 0
M  V30 3836 C 367.146 -1.43604 2.78113 0
M  V30 3837 C 367.621 -1.88694 4.17323 0
M  V30 3838 N 369.112 -1.95887 4.19741 0
M  V30 3839 C 369.847 -2.32051 5.24347 0
M  V30 3840 N 369.343 -2.67006 6.39281 0
M  V30 3841 N 371.136 -2.32606 5.11713 0
M  V30 3842 H 363.287 0.1366 2.1196 0
M  V30 3843 H 365.55 -0.00155736 0.947999 0
M  V30 3844 H 365.256 -0.597242 3.46592 0
M  V30 3845 H 365.13 -2.28469 3.00136 0
M  V30 3846 H 367.517 -2.15286 2.01832 0
M  V30 3847 H 367.598 -0.457059 2.51684 0
M  V30 3848 H 367.242 -1.1759 4.941 0
M  V30 3849 H 367.172 -2.8755 4.4116 0
M  V30 3850 H 369.663 -1.71362 3.36814 0
M  V30 3851 H 369.976 -2.93554 7.14875 0
M  V30 3852 H 368.321 -2.64644 6.42642 0
M  V30 3853 H 371.512 -2.04721 4.2096 0
M  V30 3854 H 371.685 -2.60462 5.93349 0
M  V30 3855 N 365.091 -1.34144 -0.827227 0
M  V30 3856 C 366.021 -1.28005 -1.95287 0
M  V30 3857 C 367.002 -0.158321 -1.69362 0
M  V30 3858 O 368.187 -0.349987 -1.9102 0
M  V30 3859 C 365.317 -1.03036 -3.31664 0
M  V30 3860 C 364.271 -2.11628 -3.72019 0
M  V30 3861 C 363.597 -1.71854 -5.0633 0
M  V30 3862 C 364.897 -3.53417 -3.8457 0
M  V30 3863 H 366.591 -2.22187 -2.00682 0
M  V30 3864 H 364.137 -1.0696 -0.964135 0
M  V30 3865 H 366.09 -0.973863 -4.09993 0
M  V30 3866 H 364.814 -0.0529391 -3.26557 0
M  V30 3867 H 363.473 -2.16339 -2.95961 0
M  V30 3868 H 363.121 -0.727841 -4.97706 0
M  V30 3869 H 362.821 -2.44531 -5.34302 0
M  V30 3870 H 364.345 -1.67692 -5.87122 0
M  V30 3871 H 365.759 -3.51142 -4.5318 0
M  V30 3872 H 364.156 -4.24679 -4.2399 0
M  V30 3873 H 365.226 -3.91072 -2.86689 0
M  V30 3874 N 366.569 1.04691 -1.17803 0
M  V30 3875 C 367.794 1.81984 -0.994813 0
M  V30 3876 C 368.219 1.82586 0.452112 0
M  V30 3877 O 367.577 1.23854 1.324 0
M  V30 3878 C 367.625 3.2575 -1.54659 0
M  V30 3879 O 366.729 4.05267 -0.763728 0
M  V30 3880 H 366.07 0.562483 -0.352857 0
M  V30 3881 H 368.6 1.3189 -1.56417 0
M  V30 3882 H 368.61 3.76541 -1.57102 0
M  V30 3883 H 367.285 3.24627 -2.59981 0
M  V30 3884 H 365.862 3.63972 -0.811108 0
M  V30 3885 N 368.047 0.979072 1.23499 0
M  V30 3886 C 369.275 0.665202 1.95915 0
M  V30 3887 C 369.69 -0.767571 1.72493 0
M  V30 3888 O 369.047 -1.51635 1.01554 0
M  V30 3889 C 369.098 0.944438 3.48945 0
M  V30 3890 O 368.819 2.3209 3.71572 0
M  V30 3891 C 370.32 0.646336 4.38563 0
M  V30 3892 H 367.54 0.247218 0.623798 0
M  V30 3893 H 370.084 1.31009 1.57025 0
M  V30 3894 H 368.239 0.345575 3.85856 0
M  V30 3895 H 368.653 2.40957 4.65876 0
M  V30 3896 H 370.127 0.892091 5.44744 0
M  V30 3897 H 370.604 -0.419575 4.37191 0
M  V30 3898 H 371.21 1.22562 4.07258 0
M  V30 3899 N 369.525 -1.3858 0.750561 0
M  V30 3900 C 370.435 -2.34278 0.122825 0
M  V30 3901 C 371.451 -1.59116 -0.704131 0
M  V30 3902 O 372.627 -1.91326 -0.628987 0
M  V30 3903 C 369.692 -3.38221 -0.762086 0
M  V30 3904 C 368.753 -4.29227 0.078896 0
M  V30 3905 C 367.986 -5.28205 -0.763874 0
M  V30 3906 O 368.209 -5.34112 -2.00201 0
M  V30 3907 O 367.143 -6.01618 -0.18428 0
M  V30 3908 H 370.969 -2.89649 0.913088 0
M  V30 3909 H 368.554 -1.40374 0.511417 0
M  V30 3910 H 370.436 -4.01872 -1.26793 0
M  V30 3911 H 369.111 -2.85211 -1.5309 0
M  V30 3912 H 368.018 -3.68747 0.630621 0
M  V30 3913 H 369.351 -4.85484 0.810289 0
M  V30 3914 N 371.003 -0.499398 -1.49478 0
M  V30 3915 C 371.951 0.293604 -2.3074 0
M  V30 3916 C 372.945 0.96427 -1.39277 0
M  V30 3917 O 374.151 0.892141 -1.56336 0
M  V30 3918 H 370.526 0.113541 -0.743379 0
M  V30 3919 H 372.497 -0.411772 -2.95545 0
M  V30 3920 C 371.246 1.3462 -3.20582 0
M  V30 3921 H 370.569 0.83954 -3.90886 0
M  V30 3922 H 372.009 1.87308 -3.80384 0
M  V30 3923 C 370.468 2.36351 -2.40083 0
M  V30 3924 O 370.998 3.422 -2.10385 0
M  V30 3925 N 369.204 2.0878 -2.02137 0
M  V30 3926 H 368.751 1.22723 -2.26488 0
M  V30 3927 H 368.709 2.77075 -1.48583 0
M  V30 3928 N 372.481 1.55866 -0.233164 0
M  V30 3929 C 373.444 2.1953 0.658715 0
M  V30 3930 C 374.444 1.16053 1.11303 0
M  V30 3931 O 375.634 1.41218 1.01996 0
M  V30 3932 C 372.766 2.82791 1.90373 0
M  V30 3933 H 373.959 2.99721 0.10347 0
M  V30 3934 H 371.512 1.56291 0.0164245 0
M  V30 3935 H 372.247 2.06501 2.50056 0
M  V30 3936 H 372.032 3.58578 1.58632 0
M  V30 3937 H 373.522 3.31556 2.53891 0
M  V30 3938 N 373.959 -0.0401083 1.57549 0
M  V30 3939 C 375.236 -0.767917 1.79896 0
M  V30 3940 C 375.616 -1.9416 0.82856 0
M  V30 3941 O 374.964 -2.2812 -0.131671 0
M  V30 3942 C 375.174 -1.2113 3.27305 0
M  V30 3943 C 376.522 -1.63175 3.91994 0
M  V30 3944 O 377.546 -1.30616 3.31388 0
M  V30 3945 O 376.405 -2.23565 4.98679 0
M  V30 3946 H 373.499 -0.370441 0.739393 0
M  V30 3947 H 376.045 -0.017737 1.69691 0
M  V30 3948 H 374.817 -0.372937 3.89519 0
M  V30 3949 H 374.44 -2.02183 3.42356 0
M  V30 3950 N 375.437 -1.54477 -0.31217 0
M  V30 3951 C 376.347 -1.87695 -1.4074 0
M  V30 3952 C 377.363 -0.769975 -1.56036 0
M  V30 3953 O 378.539 -1.06537 -1.70915 0
M  V30 3954 C 375.604 -2.10755 -2.75287 0
M  V30 3955 C 374.665 -3.34514 -2.69071 0
M  V30 3956 C 373.898 -3.56465 -3.97201 0
M  V30 3957 O 374.121 -2.81637 -4.96021 0
M  V30 3958 O 373.055 -4.49964 -3.9977 0
M  V30 3959 H 376.881 -2.80849 -1.15574 0
M  V30 3960 H 374.466 -1.40526 -0.507228 0
M  V30 3961 H 376.348 -2.27188 -3.54913 0
M  V30 3962 H 375.023 -1.20788 -3.0032 0
M  V30 3963 H 373.93 -3.23456 -1.87955 0
M  V30 3964 H 375.263 -4.24575 -2.48992 0
M  V30 3965 N 376.915 0.57481 -1.46744 0
M  V30 3966 C 378.145 1.35659 -1.55821 0
M  V30 3967 C 378.553 1.88129 -0.201036 0
M  V30 3968 O 377.896 1.64723 0.813134 0
M  V30 3969 C 377.958 2.57473 -2.50894 0
M  V30 3970 C 377.622 2.26415 -3.9697 0
M  V30 3971 C 378.619 1.84771 -4.85958 0
M  V30 3972 C 376.304 2.38316 -4.42166 0
M  V30 3973 C 378.298 1.55434 -6.18158 0
M  V30 3974 C 375.985 2.08591 -5.74398 0
M  V30 3975 C 376.983 1.67216 -6.62214 0
M  V30 3976 O 376.671 1.37859 -7.91991 0
M  V30 3977 H 376.403 0.420496 -0.529301 0
M  V30 3978 H 378.957 0.704967 -1.92923 0
M  V30 3979 H 377.187 3.25468 -2.08824 0
M  V30 3980 H 378.876 3.19546 -2.50291 0
M  V30 3981 H 379.642 1.75085 -4.52295 0
M  V30 3982 H 375.521 2.69483 -3.74032 0
M  V30 3983 H 379.065 1.23065 -6.86659 0
M  V30 3984 H 374.962 2.17905 -6.07608 0
M  V30 3985 H 375.73 1.51638 -8.04331 0
M  V30 3986 N 378.394 1.34581 0.820102 0
M  V30 3987 C 379.342 1.26401 1.95258 0
M  V30 3988 C 380.336 0.161553 1.68628 0
M  V30 3989 O 381.542 0.326703 1.7701 0
M  V30 3990 H 377.917 0.392749 0.64129 0
M  V30 3991 H 379.888 2.22105 1.99279 0
M  V30 3992 C 378.637 1.03919 3.31807 0
M  V30 3993 H 377.96 1.87984 3.52848 0
M  V30 3994 H 379.4 1.02232 4.11491 0
M  V30 3995 C 377.859 -0.257433 3.35915 0
M  V30 3996 O 378.389 -1.25784 3.81499 0
M  V30 3997 N 376.595 -0.291524 2.89134 0
M  V30 3998 H 376.142 0.523161 2.52232 0
M  V30 3999 H 376.1 -1.15883 2.92264 0
M  V30 4000 N 379.872 -1.04064 1.18357 0
M  V30 4001 C 381.119 -1.77265 0.978947 0
M  V30 4002 C 381.447 -1.88189 -0.491428 0
M  V30 4003 O 380.702 -1.38653 -1.38108 0
M  V30 4004 C 381.001 -3.20634 1.57888 0
M  V30 4005 C 380.667 -3.29743 3.07539 0
M  V30 4006 C 379.329 -3.31937 3.48384 0
M  V30 4007 C 381.681 -3.29841 4.03552 0
M  V30 4008 C 379.009 -3.3187 4.83818 0
M  V30 4009 C 381.361 -3.31313 5.38901 0
M  V30 4010 C 380.025 -3.31799 5.79194 0
M  V30 4011 H 379.295 -0.648659 0.358222 0
M  V30 4012 H 381.942 -1.22225 1.47422 0
M  V30 4013 H 380.247 -3.78675 1.00561 0
M  V30 4014 H 381.944 -3.75917 1.39598 0
M  V30 4015 H 378.534 -3.28757 2.74986 0
M  V30 4016 H 382.718 -3.27337 3.73047 0
M  V30 4017 H 377.974 -3.30562 5.14333 0
M  V30 4018 H 382.148 -3.30338 6.13066 0
M  V30 4019 H 379.775 -3.315 6.84114 0
M  V30 4020 N 381.35 -0.985608 -1.22978 0
M  V30 4021 C 382.596 -0.65836 -1.91816 0
M  V30 4022 C 382.929 0.806692 -1.76653 0
M  V30 4023 O 382.204 1.58252 -1.13078 0
M  V30 4024 C 382.487 -1.056 -3.44268 0
M  V30 4025 C 382.34 -2.57906 -3.68516 0
M  V30 4026 C 383.659 -0.603781 -4.35939 0
M  V30 4027 H 380.778 -0.24065 -0.696604 0
M  V30 4028 H 383.42 -1.22783 -1.44998 0
M  V30 4029 H 381.57 -0.571445 -3.84274 0
M  V30 4030 H 383.242 -3.13976 -3.3796 0
M  V30 4031 H 381.485 -3.00305 -3.13048 0
M  V30 4032 H 382.156 -2.80779 -4.75255 0
M  V30 4033 H 384.632 -1.01987 -4.03408 0
M  V30 4034 H 383.508 -0.910383 -5.41298 0
M  V30 4035 H 383.769 0.495761 -4.39312 0
M  V30 4036 N 382.828 1.3818 -0.7579 0
M  V30 4037 C 384.244 1.5353 -0.435972 0
M  V30 4038 C 384.444 1.71961 1.05032 0
M  V30 4039 O 383.5 1.73307 1.83633 0
M  V30 4040 C 384.813 2.73989 -1.23898 0
M  V30 4041 C 386.361 2.87841 -1.22949 0
M  V30 4042 C 386.836 4.11266 -2.01554 0
M  V30 4043 N 388.327 4.18352 -1.98837 0
M  V30 4044 C 389.062 5.12856 -2.5645 0
M  V30 4045 N 388.558 6.13005 -3.22794 0
M  V30 4046 N 390.351 5.05238 -2.46356 0
M  V30 4047 H 382.502 1.24467 -1.7211 0
M  V30 4048 H 384.765 0.604982 -0.729864 0
M  V30 4049 H 384.471 2.66789 -2.29165 0
M  V30 4050 H 384.345 3.67294 -0.858764 0
M  V30 4051 H 386.732 2.9452 -0.184854 0
M  V30 4052 H 386.813 1.95534 -1.64924 0
M  V30 4053 H 386.457 4.05349 -3.06031 0
M  V30 4054 H 386.387 5.02661 -1.5697 0
M  V30 4055 H 388.878 3.46628 -1.50524 0
M  V30 4056 H 389.191 6.81619 -3.64165 0
M  V30 4057 H 387.536 6.13325 -3.2689 0
M  V30 4058 H 390.727 4.25938 -1.9415 0
M  V30 4059 H 390.9 5.78707 -2.91552 0
M  V30 4060 N 384.306 0.507319 1.49211 0
M  V30 4061 C 385.269 -0.256763 2.27757 0
M  V30 4062 C 386.269 -0.888287 1.34038 0
M  V30 4063 O 387.459 -0.751841 1.5714 0
M  V30 4064 C 384.591 -1.36905 3.12202 0
M  V30 4065 H 385.784 0.432557 2.96764 0
M  V30 4066 H 383.337 0.262488 1.5408 0
M  V30 4067 H 384.072 -2.09233 2.47775 0
M  V30 4068 H 383.857 -0.921599 3.81115 0
M  V30 4069 H 385.347 -1.9071 3.7151 0
M  V30 4070 N 385.784 -1.5574 0.241426 0
M  V30 4071 C 387.014 -2.02913 -0.38857 0
M  V30 4072 C 387.422 -1.12014 -1.52478 0
M  V30 4073 O 386.765 -0.125903 -1.83268 0
M  V30 4074 C 386.827 -3.4636 -0.963075 0
M  V30 4075 C 386.491 -4.56982 0.0401916 0
M  V30 4076 C 387.488 -5.12941 0.847766 0
M  V30 4077 C 385.173 -5.0203 0.164699 0
M  V30 4078 C 387.167 -6.12437 1.76636 0
M  V30 4079 C 384.854 -6.01358 1.0868 0
M  V30 4080 C 385.852 -6.5644 1.88616 0
M  V30 4081 O 385.54 -7.53831 2.79273 0
M  V30 4082 H 385.272 -0.668983 -0.0971452 0
M  V30 4083 H 387.826 -2.02198 0.361248 0
M  V30 4084 H 386.056 -3.44206 -1.76235 0
M  V30 4085 H 387.745 -3.77065 -1.50257 0
M  V30 4086 H 388.511 -4.78974 0.762133 0
M  V30 4087 H 384.39 -4.58824 -0.447411 0
M  V30 4088 H 387.934 -6.55355 2.39071 0
M  V30 4089 H 383.831 -6.34746 1.17338 0
M  V30 4090 H 384.599 -7.71428 2.73572 0
M  V30 4091 N 387.262 0.0317525 -1.57568 0
M  V30 4092 C 388.172 1.05021 -2.0978 0
M  V30 4093 C 389.188 1.39809 -1.03583 0
M  V30 4094 O 390.364 1.49182 -1.35302 0
M  V30 4095 C 387.429 2.33301 -2.56459 0
M  V30 4096 C 386.49 2.0512 -3.77127 0
M  V30 4097 C 385.723 3.27283 -4.2157 0
M  V30 4098 O 385.946 4.37861 -3.65559 0
M  V30 4099 O 384.88 3.13141 -5.14029 0
M  V30 4100 H 388.706 0.636505 -2.96955 0
M  V30 4101 H 386.291 0.248559 -1.47318 0
M  V30 4102 H 388.173 3.08722 -2.86825 0
M  V30 4103 H 386.848 2.73973 -1.72397 0
M  V30 4104 H 385.755 1.27276 -3.51784 0
M  V30 4105 H 387.088 1.69305 -4.62165 0
M  V30 4106 N 388.74 1.54641 0.303973 0
M  V30 4107 C 389.98 1.75516 1.04755 0
M  V30 4108 C 390.344 0.528211 1.84591 0
M  V30 4109 O 391.545 0.614645 2.61678 0
M  V30 4110 C 389.816 3.00685 1.93193 0
M  V30 4111 S 391.375 3.42549 2.74237 0
M  V30 4112 H 388.193 0.616987 0.353339 0
M  V30 4113 H 390.795 1.92842 0.321292 0
M  V30 4114 H 389.499 3.8811 1.33411 0
M  V30 4115 H 389.03 2.85937 2.70191 0
M  V30 4116 H 391.045 2.99386 3.95705 0
M  V30 4117 N 390.218 -0.567019 1.47046 0
M  V30 4118 C 391.465 -1.32462 1.53167 0
M  V30 4119 C 391.793 -1.93571 0.189841 0
M  V30 4120 O 391.048 -1.77865 -0.816243 0
M  V30 4121 C 391.347 -2.4623 2.59047 0
M  V30 4122 C 391.013 -2.03014 4.02612 0
M  V30 4123 C 389.675 -1.90944 4.41694 0
M  V30 4124 C 392.027 -1.69895 4.92732 0
M  V30 4125 C 389.355 -1.44035 5.68745 0
M  V30 4126 C 391.707 -1.2446 6.20236 0
M  V30 4127 C 390.371 -1.10979 6.5821 0
M  V30 4128 H 389.641 -0.484713 0.560477 0
M  V30 4129 H 392.288 -0.636888 1.80599 0
M  V30 4130 H 390.593 -3.20517 2.25335 0
M  V30 4131 H 392.29 -3.04427 2.61008 0
M  V30 4132 H 388.88 -2.13348 3.71726 0
M  V30 4133 H 393.064 -1.78098 4.63244 0
M  V30 4134 H 388.32 -1.32254 5.96925 0
M  V30 4135 H 392.494 -0.978924 6.89485 0
M  V30 4136 H 390.121 -0.744078 7.5655 0
M  V30 4137 N 391.696 -1.35014 -0.812953 0
M  V30 4138 C 392.628 -1.23262 -1.93233 0
M  V30 4139 C 393.641 -0.157371 -1.62038 0
M  V30 4140 O 394.83 -0.410096 -1.73725 0
M  V30 4141 C 391.93 -0.87392 -3.27438 0
M  V30 4142 C 391.103 -2.04622 -3.86586 0
M  V30 4143 C 390.162 -1.66432 -4.99186 0
M  V30 4144 O 389.188 -2.38222 -5.16951 0
M  V30 4145 N 390.39 -0.584248 -5.77552 0
M  V30 4146 H 393.155 -2.19699 -2.03844 0
M  V30 4147 H 390.716 -1.281 -0.99005 0
M  V30 4148 H 392.708 -0.600039 -4.00227 0
M  V30 4149 H 391.278 0.00057392 -3.126 0
M  V30 4150 H 390.498 -2.48427 -3.06068 0
M  V30 4151 H 391.786 -2.82999 -4.22835 0
M  V30 4152 H 391.184 0.0123526 -5.65699 0
M  V30 4153 H 389.741 -0.37013 -6.50748 0
M  V30 4154 N 393.175 1.03435 -1.18907 0
M  V30 4155 C 394.125 2.09924 -0.889706 0
M  V30 4156 C 395.109 1.60261 0.143216 0
M  V30 4157 O 396.301 1.76892 -0.0617122 0
M  V30 4158 C 393.43 3.40669 -0.424168 0
M  V30 4159 C 392.516 3.97082 -1.48952 0
M  V30 4160 N 392.907 4.27227 -2.70759 0
M  V30 4161 C 391.205 4.25029 -1.35152 0
M  V30 4162 C 391.906 4.7246 -3.39347 0
M  V30 4163 N 390.882 4.7366 -2.66735 0
M  V30 4164 H 394.684 2.31116 -1.81555 0
M  V30 4165 H 392.198 1.21246 -1.08042 0
M  V30 4166 H 394.195 4.16461 -0.191176 0
M  V30 4167 H 392.855 3.20901 0.495263 0
M  V30 4168 H 393.866 4.16678 -3.0757 0
M  V30 4169 H 390.543 4.14554 -0.495126 0
M  V30 4170 H 391.933 5.04751 -4.43481 0
M  V30 4171 N 394.653 0.992116 1.22453 0
M  V30 4172 C 396.069 0.702713 1.43297 0
M  V30 4173 C 396.269 -0.726909 1.87932 0
M  V30 4174 O 395.325 -1.49792 2.0327 0
M  V30 4175 C 396.638 1.70762 2.47509 0
M  V30 4176 C 398.186 1.72298 2.61309 0
M  V30 4177 C 398.661 2.71649 3.68742 0
M  V30 4178 N 400.152 2.70239 3.76199 0
M  V30 4179 C 400.887 3.43778 4.58917 0
M  V30 4180 N 400.383 4.26914 5.45633 0
M  V30 4181 N 402.176 3.32487 4.5322 0
M  V30 4182 H 394.327 1.91543 0.917871 0
M  V30 4183 H 396.59 0.826031 0.465162 0
M  V30 4184 H 396.296 2.73059 2.21657 0
M  V30 4185 H 396.17 1.49985 3.46099 0
M  V30 4186 H 398.557 0.706989 2.86506 0
M  V30 4187 H 398.638 1.97143 1.62997 0
M  V30 4188 H 398.282 3.73397 3.44292 0
M  V30 4189 H 398.212 2.44074 4.66622 0
M  V30 4190 H 400.703 2.09912 3.14237 0
M  V30 4191 H 401.016 4.79855 6.05771 0
M  V30 4192 H 399.361 4.31002 5.45218 0
M  V30 4193 H 402.552 2.6698 3.84499 0
M  V30 4194 H 402.725 3.90058 5.17454 0
M  V30 4195 N 396.131 -1.37776 0.765217 0
M  V30 4196 C 397.079 -2.32209 0.134798 0
M  V30 4197 C 398.073 -1.54607 -0.692315 0
M  V30 4198 O 399.279 -1.70052 -0.590109 0
M  V30 4199 H 395.654 -0.751591 0.0248005 0
M  V30 4200 H 397.625 -2.8297 0.947119 0
M  V30 4201 C 396.374 -3.39841 -0.735063 0
M  V30 4202 H 395.697 -3.99654 -0.107991 0
M  V30 4203 H 397.137 -4.08296 -1.14326 0
M  V30 4204 C 395.596 -2.79378 -1.88281 0
M  V30 4205 O 396.126 -2.69608 -2.97783 0
M  V30 4206 N 394.332 -2.37016 -1.68142 0
M  V30 4207 H 393.879 -2.45162 -0.790772 0
M  V30 4208 H 393.837 -1.96905 -2.45104 0
M  V30 4209 N 397.609 -0.515225 -1.4894 0
M  V30 4210 C 398.559 0.275113 -2.26334 0
M  V30 4211 C 399.543 0.923007 -1.31793 0
M  V30 4212 O 400.735 0.828254 -1.56426 0
M  V30 4213 C 397.864 1.33041 -3.16473 0
M  V30 4214 C 396.95 0.688051 -4.18481 0
M  V30 4215 N 397.341 -0.217638 -5.05332 0
M  V30 4216 C 395.639 0.94699 -4.3583 0
M  V30 4217 C 396.34 -0.58676 -5.78733 0
M  V30 4218 N 395.316 0.0486966 -5.43578 0
M  V30 4219 H 399.118 -0.421876 -2.90856 0
M  V30 4220 H 396.632 -0.332249 -1.58965 0
M  V30 4221 H 398.629 1.9102 -3.70563 0
M  V30 4222 H 397.289 2.02894 -2.53504 0
M  V30 4223 H 398.3 -0.589343 -5.14536 0
M  V30 4224 H 394.977 1.63719 -3.8406 0
M  V30 4225 H 396.367 -1.32855 -6.58634 0
M  V30 4226 N 399.087 1.5561 -0.249682 0
M  V30 4227 C 400.315 2.03411 0.378352 0
M  V30 4228 C 400.73 1.12886 1.51335 0
M  V30 4229 O 400.087 0.143833 1.81932 0
M  V30 4230 C 400.138 3.50537 0.88351 0
M  V30 4231 O 399.859 4.37614 -0.20626 0
M  V30 4232 C 401.36 4.14113 1.58195 0
M  V30 4233 H 398.58 0.664994 0.08958 0
M  V30 4234 H 401.124 2.01044 -0.374357 0
M  V30 4235 H 399.279 3.5343 1.58639 0
M  V30 4236 H 399.693 5.24199 0.177782 0
M  V30 4237 H 401.167 5.18741 1.8871 0
M  V30 4238 H 401.644 3.60767 2.50487 0
M  V30 4239 H 402.25 4.15151 0.923573 0
M  V30 4240 N 400.565 -0.0233959 1.57583 0
M  V30 4241 C 401.805 -0.71784 1.9138 0
M  V30 4242 C 402.169 -1.72216 0.848853 0
M  V30 4243 O 403.37 -2.46527 1.07134 0
M  V30 4244 C 401.641 -1.36489 3.30311 0
M  V30 4245 S 403.2 -2.0877 3.85954 0
M  V30 4246 H 400.018 -0.237676 0.670098 0
M  V30 4247 H 402.62 0.0276709 1.9548 0
M  V30 4248 H 401.324 -0.620782 4.05678 0
M  V30 4249 H 400.855 -2.14883 3.29528 0
M  V30 4250 H 402.87 -3.35988 3.65139 0
M  V30 4251 N 402.043 -1.548 -0.295768 0
M  V30 4252 C 402.973 -1.89115 -1.36959 0
M  V30 4253 C 403.954 -0.75059 -1.52644 0
M  V30 4254 O 405.139 -1.00678 -1.66065 0
M  V30 4255 C 402.269 -2.14307 -2.73295 0
M  V30 4256 C 401.223 -3.30151 -2.72368 0
M  V30 4257 C 400.549 -3.40772 -4.12042 0
M  V30 4258 C 401.849 -4.67126 -2.33646 0
M  V30 4259 H 403.543 -2.79053 -1.08488 0
M  V30 4260 H 401.089 -1.34266 -0.520443 0
M  V30 4261 H 403.042 -2.36898 -3.48507 0
M  V30 4262 H 401.766 -1.21145 -3.03301 0
M  V30 4263 H 400.425 -3.0749 -1.99613 0
M  V30 4264 H 400.073 -2.45117 -4.39234 0
M  V30 4265 H 399.773 -4.18645 -4.12322 0
M  V30 4266 H 401.297 -3.6563 -4.89027 0
M  V30 4267 H 402.711 -4.89414 -2.98575 0
M  V30 4268 H 401.108 -5.47751 -2.45129 0
M  V30 4269 H 402.178 -4.67489 -1.28772 0
M  V30 4270 N 403.521 0.559213 -1.47345 0
M  V30 4271 C 404.767 1.31843 -1.54095 0
M  V30 4272 C 405.1 1.93149 -0.201726 0
M  V30 4273 O 404.375 1.77759 0.789428 0
M  V30 4274 C 404.658 2.43006 -2.65744 0
M  V30 4275 C 404.511 1.86581 -4.09277 0
M  V30 4276 C 405.83 3.44943 -2.73318 0
M  V30 4277 H 402.949 0.478012 -0.560957 0
M  V30 4278 H 405.591 0.625977 -1.79392 0
M  V30 4279 H 403.741 3.02072 -2.44305 0
M  V30 4280 H 405.413 1.31792 -4.42073 0
M  V30 4281 H 403.656 1.17268 -4.17649 0
M  V30 4282 H 404.327 2.66933 -4.83168 0
M  V30 4283 H 406.803 2.95793 -2.92653 0
M  V30 4284 H 405.679 4.20153 -3.53218 0
M  V30 4285 H 405.94 4.03665 -1.80296 0
M  V30 4286 N 404.999 1.35443 0.805782 0
M  V30 4287 C 406.246 1.28761 1.56291 0
M  V30 4288 C 406.574 -0.137747 1.94012 0
M  V30 4289 O 405.829 -1.1032 1.61642 0
M  V30 4290 C 406.128 2.14045 2.86216 0
M  V30 4291 C 405.794 3.62826 2.67709 0
M  V30 4292 C 404.456 4.0338 2.6237 0
M  V30 4293 C 406.808 4.57227 2.50186 0
M  V30 4294 C 404.136 5.36501 2.37451 0
M  V30 4295 C 406.488 5.90547 2.26797 0
M  V30 4296 C 405.152 6.30245 2.1988 0
M  V30 4297 H 404.422 0.471171 0.571908 0
M  V30 4298 H 407.069 1.67347 0.930974 0
M  V30 4299 H 405.374 1.68342 3.53791 0
M  V30 4300 H 407.071 2.0621 3.43917 0
M  V30 4301 H 403.661 3.30644 2.72713 0
M  V30 4302 H 407.845 4.2678 2.53323 0
M  V30 4303 H 403.101 5.66259 2.30567 0
M  V30 4304 H 407.275 6.63274 2.12228 0
M  V30 4305 H 404.902 7.33328 2.00333 0
M  V30 4306 N 406.477 -1.02803 1.19454 0
M  V30 4307 C 407.387 -2.14575 0.948408 0
M  V30 4308 C 408.403 -1.73757 -0.091871 0
M  V30 4309 O 409.579 -2.01185 0.0929654 0
M  V30 4310 C 406.644 -3.43202 0.491265 0
M  V30 4311 C 405.705 -3.98328 1.60103 0
M  V30 4312 C 404.938 -5.20816 1.16561 0
M  V30 4313 O 405.161 -5.70392 0.0295238 0
M  V30 4314 O 404.095 -5.68801 1.96849 0
M  V30 4315 H 407.921 -2.38202 1.88397 0
M  V30 4316 H 405.506 -1.12989 0.977433 0
M  V30 4317 H 407.388 -4.20687 0.245015 0
M  V30 4318 H 406.063 -3.21018 -0.415851 0
M  V30 4319 H 404.97 -3.22174 1.90144 0
M  V30 4320 H 406.303 -4.24879 2.48473 0
M  V30 4321 N 407.956 -0.998596 -1.21925 0
M  V30 4322 C 408.889 -0.498517 -2.22688 0
M  V30 4323 C 409.867 0.444301 -1.56412 0
M  V30 4324 O 411.051 0.368518 -1.84863 0
M  V30 4325 C 408.178 0.276639 -3.37568 0
M  V30 4326 C 407.224 -0.61302 -4.22071 0
M  V30 4327 S 408.057 -2.07168 -4.93803 0
M  V30 4328 C 409.213 -1.30617 -6.12119 0
M  V30 4329 H 409.446 -1.35234 -2.64762 0
M  V30 4330 H 406.979 -0.806018 -1.31692 0
M  V30 4331 H 408.937 0.717817 -4.04175 0
M  V30 4332 H 407.598 1.10581 -2.93991 0
M  V30 4333 H 406.791 -0.0162909 -5.03997 0
M  V30 4334 H 406.393 -0.991202 -3.60626 0
M  V30 4335 H 408.685 -0.57675 -6.75041 0
M  V30 4336 H 409.628 -2.10091 -6.76215 0
M  V30 4337 H 410.036 -0.816957 -5.58557 0
M  V30 4338 N 409.434 1.37368 -0.772513 0
M  V30 4339 C 410.364 2.32856 -0.173304 0
M  V30 4340 C 411.345 1.55818 0.682262 0
M  V30 4341 O 412.53 1.84052 0.619566 0
M  V30 4342 C 409.66 3.40048 0.706007 0
M  V30 4343 C 408.614 4.27973 -0.0483144 0
M  V30 4344 C 407.94 5.26184 0.950491 0
M  V30 4345 C 409.24 5.07665 -1.22776 0
M  V30 4346 H 410.934 2.83217 -0.971002 0
M  V30 4347 H 408.48 1.3617 -0.468377 0
M  V30 4348 H 410.433 4.05827 1.13501 0
M  V30 4349 H 409.157 2.88214 1.53623 0
M  V30 4350 H 407.816 3.63726 -0.458107 0
M  V30 4351 H 407.464 4.7063 1.77529 0
M  V30 4352 H 407.164 5.85872 0.450314 0
M  V30 4353 H 408.688 5.94838 1.37842 0
M  V30 4354 H 410.102 5.66578 -0.875366 0
M  V30 4355 H 408.499 5.76681 -1.66007 0
M  V30 4356 H 409.569 4.40294 -2.03149 0
M  V30 4357 N 410.912 0.523116 1.48665 0
M  V30 4358 C 411.822 -0.247406 2.33292 0
M  V30 4359 C 412.838 -0.945769 1.46052 0
M  V30 4360 O 414.014 -0.922253 1.79043 0
M  V30 4361 C 411.079 -1.28487 3.22012 0
M  V30 4362 C 410.14 -0.597592 4.2512 0
M  V30 4363 C 409.373 -1.58563 5.09601 0
M  V30 4364 O 409.596 -2.81763 4.95949 0
M  V30 4365 O 408.53 -1.12879 5.91221 0
M  V30 4366 H 412.356 0.445869 3.00409 0
M  V30 4367 H 409.941 0.284128 1.46673 0
M  V30 4368 H 411.823 -1.88459 3.7691 0
M  V30 4369 H 410.498 -1.96068 2.57564 0
M  V30 4370 H 409.405 0.0424407 3.74076 0
M  V30 4371 H 410.738 0.0361517 4.92187 0
M  V30 4372 N 412.39 -1.55475 0.257931 0
M  V30 4373 C 413.322 -2.19192 -0.669881 0
M  V30 4374 C 414.335 -1.17148 -1.1305 0
M  V30 4375 O 415.524 -1.43959 -1.05537 0
M  V30 4376 C 412.624 -2.79016 -1.92363 0
M  V30 4377 C 411.797 -4.06586 -1.61265 0
M  V30 4378 C 410.856 -4.50622 -2.7171 0
M  V30 4379 O 409.882 -5.16765 -2.38627 0
M  V30 4380 N 411.084 -4.19325 -4.01431 0
M  V30 4381 H 413.849 -2.99441 -0.124635 0
M  V30 4382 H 411.41 -1.6171 0.0783311 0
M  V30 4383 H 413.402 -3.05427 -2.65511 0
M  V30 4384 H 411.972 -2.0286 -2.37837 0
M  V30 4385 H 411.192 -3.87646 -0.715811 0
M  V30 4386 H 412.48 -4.89737 -1.37967 0
M  V30 4387 H 411.878 -3.66247 -4.31138 0
M  V30 4388 H 410.435 -4.50547 -4.7101 0
M  V30 4389 N 413.868 0.0150385 -1.57593 0
M  V30 4390 C 414.816 1.02958 -2.08572 0
M  V30 4391 C 415.81 1.36554 -1.00246 0
M  V30 4392 O 417.016 1.35295 -1.18724 0
M  V30 4393 H 413.391 0.349619 -0.665786 0
M  V30 4394 H 415.362 0.573932 -2.92829 0
M  V30 4395 C 414.111 2.31752 -2.59203 0
M  V30 4396 H 413.434 2.06765 -3.42182 0
M  V30 4397 H 414.874 3.01053 -2.98568 0
M  V30 4398 C 413.333 3.01692 -1.49945 0
M  V30 4399 O 413.863 3.92083 -0.873704 0
M  V30 4400 N 412.069 2.6326 -1.23056 0
M  V30 4401 H 411.616 1.89838 -1.74125 0
M  V30 4402 H 411.574 3.10372 -0.501685 0
M  V30 4403 N 415.346 1.54954 0.287554 0
M  V30 4404 C 416.276 1.89839 1.35954 0
M  V30 4405 C 417.257 0.758675 1.52244 0
M  V30 4406 O 418.442 1.01557 1.65529 0
M  V30 4407 C 415.572 2.15753 2.72154 0
M  V30 4408 C 414.526 3.3159 2.70614 0
M  V30 4409 C 413.852 3.42952 4.10229 0
M  V30 4410 C 415.152 4.68359 2.31165 0
M  V30 4411 H 416.846 2.79625 1.07007 0
M  V30 4412 H 414.392 1.3454 0.513316 0
M  V30 4413 H 416.345 2.38743 3.47246 0
M  V30 4414 H 415.069 1.22752 3.02654 0
M  V30 4415 H 413.728 3.08545 1.97979 0
M  V30 4416 H 413.376 2.47443 4.37928 0
M  V30 4417 H 413.076 4.20826 4.10097 0
M  V30 4418 H 414.6 3.68218 4.87081 0
M  V30 4419 H 416.014 4.9099 2.95976 0
M  V30 4420 H 414.411 5.49044 2.42221 0
M  V30 4421 H 415.481 4.68165 1.26291 0
M  V30 4422 N 416.824 -0.551391 1.4764 0
M  V30 4423 C 418.054 -1.33163 1.57959 0
M  V30 4424 C 418.462 -1.87785 0.23094 0
M  V30 4425 O 417.805 -1.65996 -0.786825 0
M  V30 4426 C 417.867 -2.53449 2.54958 0
M  V30 4427 C 417.531 -2.20071 4.00522 0
M  V30 4428 C 418.528 -1.77017 4.88836 0
M  V30 4429 C 416.213 -2.31252 4.45901 0
M  V30 4430 C 418.207 -1.4558 6.20552 0
M  V30 4431 C 415.894 -1.99427 5.77644 0
M  V30 4432 C 416.892 -1.56659 6.64791 0
M  V30 4433 O 416.58 -1.25242 7.94084 0
M  V30 4434 H 416.312 -0.412022 0.535923 0
M  V30 4435 H 418.866 -0.674186 1.9402 0
M  V30 4436 H 417.096 -3.22104 2.13976 0
M  V30 4437 H 418.785 -3.15523 2.55343 0
M  V30 4438 H 419.551 -1.67867 4.55023 0
M  V30 4439 H 415.43 -2.63498 3.78272 0
M  V30 4440 H 418.974 -1.12125 6.8853 0
M  V30 4441 H 414.871 -2.08211 6.10998 0
M  V30 4442 H 415.639 -1.38822 8.06642 0
M  V30 4443 N 418.302 -1.35869 -0.798587 0
M  V30 4444 C 419.579 -1.20145 -1.54352 0
M  V30 4445 C 419.959 0.216161 -2.0999 0
M  V30 4446 O 419.307 1.22068 -1.93162 0
M  V30 4447 C 419.517 -2.27602 -2.64572 0
M  V30 4448 C 420.865 -2.63811 -3.32699 0
M  V30 4449 O 421.889 -2.26576 -2.74849 0
M  V30 4450 O 420.748 -3.27866 -4.37226 0
M  V30 4451 H 417.842 -0.467248 -0.682355 0
M  V30 4452 H 420.388 -1.47574 -0.837859 0
M  V30 4453 H 419.16 -3.2265 -2.21388 0
M  V30 4454 H 418.783 -2.01488 -3.42766 0
M  V30 4455 N 419.78 1.02168 -1.19998 0
M  V30 4456 C 421.027 1.75685 -1.00702 0
M  V30 4457 C 421.355 1.88947 0.461426 0
M  V30 4458 O 420.61 1.40832 1.35885 0
M  V30 4459 C 420.909 3.18081 -1.62969 0
M  V30 4460 C 420.575 3.24809 -3.12746 0
M  V30 4461 C 419.237 3.26352 -3.53621 0
M  V30 4462 C 421.589 3.23379 -4.08749 0
M  V30 4463 C 418.917 3.2413 -4.89036 0
M  V30 4464 C 421.269 3.22698 -5.44104 0
M  V30 4465 C 419.933 3.22542 -5.84399 0
M  V30 4466 H 419.203 0.642877 -0.368496 0
M  V30 4467 H 421.85 1.19865 -1.49348 0
M  V30 4468 H 420.155 3.77027 -1.06573 0
M  V30 4469 H 421.852 3.73648 -1.45561 0
M  V30 4470 H 418.442 3.2434 -2.80181 0
M  V30 4471 H 422.626 3.21361 -3.78207 0
M  V30 4472 H 417.882 3.22338 -5.19527 0
M  V30 4473 H 422.056 3.20543 -6.18244 0
M  V30 4474 H 419.683 3.20575 -6.89301 0
M  V30 4475 N 421.258 1.00505 1.21394 0
M  V30 4476 C 422.188 0.585684 2.26035 0
M  V30 4477 C 423.169 -0.393525 1.65485 0
M  V30 4478 O 424.354 -0.281497 1.92149 0
M  V30 4479 C 421.484 -0.0884283 3.47187 0
M  V30 4480 C 420.438 0.810567 4.20254 0
M  V30 4481 C 419.764 0.00286382 5.347 0
M  V30 4482 C 421.064 2.1132 4.77641 0
M  V30 4483 H 422.758 1.46039 2.61368 0
M  V30 4484 H 420.304 0.703648 1.25638 0
M  V30 4485 H 422.257 -0.393286 4.19561 0
M  V30 4486 H 420.981 -0.997766 3.10986 0
M  V30 4487 H 419.64 1.09925 3.49731 0
M  V30 4488 H 419.288 -0.907765 4.94741 0
M  V30 4489 H 418.988 0.601444 5.84514 0
M  V30 4490 H 420.512 -0.295808 6.09883 0
M  V30 4491 H 421.926 1.87148 5.41893 0
M  V30 4492 H 420.323 2.66164 5.37845 0
M  V30 4493 H 421.393 2.78393 3.9702 0
M  V30 4494 N 422.737 -1.36956 0.779787 0
M  V30 4495 C 423.684 -2.30175 0.169697 0
M  V30 4496 C 424.654 -1.51501 -0.68094 0
M  V30 4497 O 425.839 -1.80042 -0.631629 0
M  V30 4498 C 422.979 -3.37985 -0.697131 0
M  V30 4499 C 422.092 -4.31661 0.170992 0
M  V30 4500 C 421.227 -5.2655 -0.701298 0
M  V30 4501 C 420.266 -6.11867 0.168869 0
M  V30 4502 N 419.403 -6.98973 -0.661855 0
M  V30 4503 H 424.243 -2.81767 0.970135 0
M  V30 4504 H 421.78 -1.38699 0.489994 0
M  V30 4505 H 423.738 -3.99128 -1.2146 0
M  V30 4506 H 422.368 -2.87739 -1.46309 0
M  V30 4507 H 421.42 -3.71756 0.80634 0
M  V30 4508 H 422.732 -4.91644 0.841875 0
M  V30 4509 H 421.886 -5.92937 -1.28494 0
M  V30 4510 H 420.625 -4.66998 -1.40584 0
M  V30 4511 H 419.63 -5.44452 0.764986 0
M  V30 4512 H 420.855 -6.73493 0.870863 0
M  V30 4513 H 418.801 -6.41941 -1.35086 0
M  V30 4514 H 418.718 -7.55984 -0.0484447 0
M  V30 4515 H 419.986 -7.6974 -1.22963 0
M  V30 4516 N 424.215 -0.530993 -1.48385 0
M  V30 4517 C 425.147 0.268353 -2.27624 0
M  V30 4518 C 426.16 0.903525 -1.35426 0
M  V30 4519 O 427.349 0.781796 -1.60469 0
M  V30 4520 C 424.449 1.39535 -3.08842 0
M  V30 4521 C 423.622 0.861913 -4.28824 0
M  V30 4522 C 422.681 1.87016 -4.91845 0
M  V30 4523 O 421.707 1.4267 -5.5103 0
M  V30 4524 N 422.909 3.20238 -4.84178 0
M  V30 4525 H 425.674 -0.41123 -2.96865 0
M  V30 4526 H 423.235 -0.365387 -1.57723 0
M  V30 4527 H 425.227 2.06803 -3.47871 0
M  V30 4528 H 423.797 1.97859 -2.42014 0
M  V30 4529 H 423.017 0.0132126 -3.94198 0
M  V30 4530 H 424.305 0.484415 -5.06489 0
M  V30 4531 H 423.703 3.58932 -4.37246 0
M  V30 4532 H 422.26 3.83136 -5.27305 0
M  V30 4533 N 425.693 1.55336 -0.266172 0
M  V30 4534 C 426.641 2.23587 0.641228 0
M  V30 4535 C 427.635 1.22986 1.16494 0
M  V30 4536 O 428.841 1.40943 1.1196 0
M  V30 4537 H 425.216 0.717452 0.225315 0
M  V30 4538 H 427.187 2.9837 0.0426561 0
M  V30 4539 C 425.936 2.96369 1.81826 0
M  V30 4540 H 425.259 3.73563 1.42445 0
M  V30 4541 H 426.699 3.47459 2.42998 0
M  V30 4542 C 425.158 2.0133 2.70125 0
M  V30 4543 O 425.688 1.55875 3.70224 0
M  V30 4544 N 423.894 1.6802 2.37102 0
M  V30 4545 H 423.441 2.05181 1.55751 0
M  V30 4546 H 423.399 1.047 2.96454 0
M  V30 4547 N 427.171 -0.0066808 1.57599 0
M  V30 4548 C 428.118 -1.00024 2.08 0
M  V30 4549 C 429.088 -1.34549 0.973943 0
M  V30 4550 O 430.273 -1.44502 1.24595 0
M  V30 4551 C 427.413 -2.2891 2.58252 0
M  V30 4552 C 426.526 -2.00346 3.82734 0
M  V30 4553 C 425.661 -3.23265 4.21513 0
M  V30 4554 C 424.7 -2.90357 5.3885 0
M  V30 4555 N 423.837 -4.05793 5.72954 0
M  V30 4556 H 428.677 -0.563499 2.92624 0
M  V30 4557 H 426.214 -0.266592 1.44664 0
M  V30 4558 H 428.172 -3.04247 2.85464 0
M  V30 4559 H 426.802 -2.70265 1.76512 0
M  V30 4560 H 425.854 -1.15406 3.62471 0
M  V30 4561 H 427.166 -1.72086 4.68175 0
M  V30 4562 H 426.32 -4.06953 4.49971 0
M  V30 4563 H 425.059 -3.54657 3.34768 0
M  V30 4564 H 424.064 -2.05075 5.10122 0
M  V30 4565 H 425.289 -2.60219 6.27266 0
M  V30 4566 H 423.235 -4.37094 4.89167 0
M  V30 4567 H 423.152 -3.81034 6.52954 0
M  V30 4568 H 424.42 -4.90289 6.06001 0
M  V30 4569 N 428.649 -1.55105 -0.279332 0
M  V30 4570 C 429.896 -1.75412 -1.01177 0
M  V30 4571 C 430.224 -0.551728 -1.86511 0
M  V30 4572 O 429.479 0.465919 -1.90073 0
M  V30 4573 C 429.778 -3.0086 -1.92919 0
M  V30 4574 C 429.444 -4.33689 -1.23387 0
M  V30 4575 C 428.106 -4.69792 -1.04159 0
M  V30 4576 C 430.458 -5.15941 -0.738562 0
M  V30 4577 C 427.786 -5.85707 -0.341166 0
M  V30 4578 C 430.138 -6.32579 -0.0517636 0
M  V30 4579 C 428.802 -6.67326 0.152292 0
M  V30 4580 H 428.072 -0.641879 -0.370233 0
M  V30 4581 H 430.719 -1.89373 -0.284627 0
M  V30 4582 H 429.024 -2.81773 -2.72234 0
M  V30 4583 H 430.721 -3.13768 -2.49701 0
M  V30 4584 H 427.311 -4.05309 -1.39364 0
M  V30 4585 H 431.495 -4.8853 -0.874764 0
M  V30 4586 H 426.751 -6.11157 -0.172287 0
M  V30 4587 H 430.925 -6.9557 0.339828 0
M  V30 4588 H 428.552 -7.56998 0.697014 0
M  V30 4589 N 430.127 0.543554 -1.4793 0
M  V30 4590 C 431.352 1.32995 -1.59145 0
M  V30 4591 C 431.777 1.86472 -0.246956 0
M  V30 4592 O 431.135 1.63696 0.779324 0
M  V30 4593 C 431.183 2.46623 -2.63077 0
M  V30 4594 O 430.287 3.49261 -2.19295 0
M  V30 4595 H 429.628 0.394472 -0.534124 0
M  V30 4596 H 432.158 0.655489 -1.93816 0
M  V30 4597 H 432.168 2.93001 -2.83926 0
M  V30 4598 H 430.843 2.07059 -3.60693 0
M  V30 4599 H 429.42 3.09094 -2.08603 0
M  V30 4600 N 431.605 1.3629 0.791371 0
M  V30 4601 C 433.016 1.27225 1.36641 0
M  V30 4602 C 433.367 -0.0887968 1.95999 0
M  V30 4603 O 432.492 -0.990207 1.92416 0
M  V30 4604 C 433.087 2.30375 2.48421 0
M  V30 4605 C 431.646 2.25004 3.01746 0
M  V30 4606 C 430.793 2.15259 1.7481 0
M  V30 4607 H 433.744 1.47198 0.593173 0
M  V30 4608 H 433.765 1.93905 3.27385 0
M  V30 4609 H 433.277 3.29422 2.05189 0
M  V30 4610 H 431.378 1.29417 3.49403 0
M  V30 4611 H 431.491 3.1761 3.58693 0
M  V30 4612 H 429.855 1.61482 1.96966 0
M  V30 4613 H 430.638 3.16191 1.33709 0
M  V30 4614 N 433.083 -1.0153 1.20538 0
M  V30 4615 C 434.013 -2.11972 0.979295 0
M  V30 4616 C 434.994 -1.6985 -0.0921787 0
M  V30 4617 O 436.179 -1.94089 0.0655932 0
M  V30 4618 C 433.309 -3.43201 0.531984 0
M  V30 4619 C 432.263 -3.9907 1.54685 0
M  V30 4620 C 431.589 -5.26082 0.956127 0
M  V30 4621 C 432.889 -4.32313 2.93092 0
M  V30 4622 H 434.583 -2.31143 1.90298 0
M  V30 4623 H 432.129 -1.11079 0.916372 0
M  V30 4624 H 434.082 -4.1985 0.361044 0
M  V30 4625 H 432.806 -3.23792 -0.427327 0
M  V30 4626 H 431.465 -3.2453 1.70517 0
M  V30 4627 H 431.113 -5.02999 -0.0111538 0
M  V30 4628 H 430.813 -5.64426 1.63393 0
M  V30 4629 H 432.337 -6.05386 0.796284 0
M  V30 4630 H 433.751 -4.99845 2.80763 0
M  V30 4631 H 432.148 -4.81774 3.57791 0
M  V30 4632 H 433.218 -3.41025 3.44717 0
M  V30 4633 N 434.561 -1.01147 -1.20859 0
M  V30 4634 C 435.972 -0.730205 -1.71828 0
M  V30 4635 C 436.323 0.751662 -1.8123 0
M  V30 4636 O 435.448 1.58686 -1.47132 0
M  V30 4637 C 436.043 -1.31885 -3.12077 0
M  V30 4638 C 434.602 -1.08656 -3.60376 0
M  V30 4639 C 433.749 -1.42769 -2.37723 0
M  V30 4640 H 436.7 -1.18158 -1.05945 0
M  V30 4641 H 436.721 -0.706793 -3.73878 0
M  V30 4642 H 436.233 -2.39737 -3.05201 0
M  V30 4643 H 434.334 -0.0254814 -3.72591 0
M  V30 4644 H 434.447 -1.76301 -4.45483 0
M  V30 4645 H 432.811 -0.846603 -2.40218 0
M  V30 4646 H 433.594 -2.51666 -2.33493 0
M  V30 4647 N 436.039 1.36541 -0.78704 0
M  V30 4648 C 436.969 2.32659 -0.197992 0
M  V30 4649 C 437.95 1.56533 0.665697 0
M  V30 4650 O 439.135 1.84698 0.60001 0
M  V30 4651 C 436.265 3.40778 0.669901 0
M  V30 4652 C 435.219 4.27897 -0.0937039 0
M  V30 4653 C 434.545 5.27163 0.894629 0
M  V30 4654 C 435.845 5.06334 -1.28154 0
M  V30 4655 H 437.539 2.82171 -1.00099 0
M  V30 4656 H 435.085 1.35665 -0.482793 0
M  V30 4657 H 437.038 4.07008 1.09191 0
M  V30 4658 H 435.762 2.89827 1.50558 0
M  V30 4659 H 434.421 3.6322 -0.49666 0
M  V30 4660 H 434.069 4.72486 1.72527 0
M  V30 4661 H 433.769 5.86317 0.388149 0
M  V30 4662 H 435.293 5.96266 1.31525 0
M  V30 4663 H 436.707 5.65617 -0.93541 0
M  V30 4664 H 435.104 5.74888 -1.72115 0
M  V30 4665 H 436.174 4.38114 -2.07807 0
M  V30 4666 N 437.518 0.538854 1.48102 0
M  V30 4667 C 438.465 -0.219042 2.29758 0
M  V30 4668 C 439.435 -0.925562 1.37922 0
M  V30 4669 O 440.62 -0.924855 1.66886 0
M  V30 4670 C 437.76 -1.25452 3.2149 0
M  V30 4671 C 436.873 -0.555943 4.28408 0
M  V30 4672 C 436.008 -1.57512 5.0731 0
M  V30 4673 C 435.047 -0.860498 6.06021 0
M  V30 4674 N 434.184 -1.82564 6.77949 0
M  V30 4675 H 439.024 0.483449 2.94052 0
M  V30 4676 H 436.561 0.250247 1.44956 0
M  V30 4677 H 438.519 -1.86727 3.7308 0
M  V30 4678 H 437.149 -1.92528 2.591 0
M  V30 4679 H 436.201 0.170938 3.80016 0
M  V30 4680 H 437.513 0.00474616 4.988 0
M  V30 4681 H 436.667 -2.26191 5.62959 0
M  V30 4682 H 435.406 -2.16972 4.36778 0
M  V30 4683 H 434.411 -0.159686 5.49568 0
M  V30 4684 H 435.636 -0.271897 6.78555 0
M  V30 4685 H 433.582 -2.40915 6.10161 0
M  V30 4686 H 433.499 -1.31662 7.44447 0
M  V30 4687 H 434.767 -2.50414 7.38182 0
M  V30 4688 N 438.996 -1.55193 0.274407 0
M  V30 4689 C 440.242 -1.99877 -0.343086 0
M  V30 4690 C 440.575 -1.16256 -1.55558 0
M  V30 4691 O 439.85 -0.232462 -1.93106 0
M  V30 4692 C 440.133 -3.52706 -0.725965 0
M  V30 4693 C 439.986 -4.47081 0.493818 0
M  V30 4694 C 441.305 -4.11422 -1.56268 0
M  V30 4695 H 438.424 -0.726625 -0.123229 0
M  V30 4696 H 441.066 -1.86136 0.38121 0
M  V30 4697 H 439.216 -3.64546 -1.34307 0
M  V30 4698 H 440.888 -4.47186 1.13237 0
M  V30 4699 H 439.131 -4.1877 1.13201 0
M  V30 4700 H 439.802 -5.51699 0.18217 0
M  V30 4701 H 442.278 -4.02855 -1.04151 0
M  V30 4702 H 441.154 -5.18568 -1.79939 0
M  V30 4703 H 441.415 -3.61607 -2.54348 0
M  V30 4704 N 440.474 -0.00167713 -1.576 0
M  V30 4705 C 441.723 0.682021 -1.89819 0
M  V30 4706 C 442.036 1.74844 -0.876871 0
M  V30 4707 O 443.242 2.48688 -1.08934 0
M  V30 4708 C 441.698 1.26425 -3.36964 0
M  V30 4709 C 441.306 0.232568 -4.47396 0
M  V30 4710 C 443.05 1.92604 -3.78291 0
M  V30 4711 C 440.957 0.824882 -5.85619 0
M  V30 4712 H 439.887 0.258499 -0.708304 0
M  V30 4713 H 442.538 -0.0624957 -1.83394 0
M  V30 4714 H 440.92 2.05949 -3.38232 0
M  V30 4715 H 442.094 -0.5382 -4.57646 0
M  V30 4716 H 440.409 -0.32888 -4.15099 0
M  V30 4717 H 443.006 2.37827 -4.78897 0
M  V30 4718 H 443.349 2.75732 -3.11894 0
M  V30 4719 H 443.882 1.19812 -3.79328 0
M  V30 4720 H 440.621 0.0323542 -6.55492 0
M  V30 4721 H 440.141 1.56477 -5.79029 0
M  V30 4722 H 441.82 1.32301 -6.33329 0
M  V30 4723 N 441.952 1.55251 0.271103 0
M  V30 4724 C 443.368 1.47133 0.618393 0
M  V30 4725 C 443.568 0.686994 1.89427 0
M  V30 4726 O 442.624 0.206609 2.51653 0
M  V30 4727 C 443.937 2.91361 0.743593 0
M  V30 4728 C 445.485 3.01587 0.837522 0
M  V30 4729 C 445.96 4.47073 0.994483 0
M  V30 4730 N 447.451 4.50909 1.05996 0
M  V30 4731 C 448.186 5.60698 1.20024 0
M  V30 4732 N 447.682 6.80348 1.30759 0
M  V30 4733 N 449.475 5.48444 1.23149 0
M  V30 4734 H 441.626 2.04698 -0.566784 0
M  V30 4735 H 443.889 0.928319 -0.192165 0
M  V30 4736 H 443.595 3.51483 -0.123493 0
M  V30 4737 H 443.469 3.40484 1.62328 0
M  V30 4738 H 445.856 2.4156 1.69507 0
M  V30 4739 H 445.937 2.55713 -0.0668086 0
M  V30 4740 H 445.581 5.07703 0.141582 0
M  V30 4741 H 445.511 4.90605 1.91349 0
M  V30 4742 H 448.002 3.6472 0.989316 0
M  V30 4743 H 448.315 7.59772 1.41303 0
M  V30 4744 H 446.66 6.83156 1.27761 0
M  V30 4745 H 449.851 4.53907 1.14394 0
M  V30 4746 H 450.024 6.34049 1.33738 0
M  V30 4747 N 443.43 -0.535701 1.48216 0
M  V30 4748 C 444.841 -1.11769 1.49548 0
M  V30 4749 C 445.192 -1.94442 0.26207 0
M  V30 4750 O 444.317 -2.06987 -0.631287 0
M  V30 4751 C 444.912 -2.03367 2.70975 0
M  V30 4752 C 443.471 -2.56795 2.75196 0
M  V30 4753 C 442.618 -1.33631 2.42977 0
M  V30 4754 H 445.569 -0.321232 1.55415 0
M  V30 4755 H 445.59 -2.87569 2.49167 0
M  V30 4756 H 445.102 -1.43169 3.60727 0
M  V30 4757 H 443.203 -3.20731 1.89638 0
M  V30 4758 H 443.316 -2.9632 3.76472 0
M  V30 4759 H 441.68 -1.6502 1.94012 0
M  V30 4760 H 442.463 -0.75194 3.34964 0
M  V30 4761 N 444.908 -1.36708 -0.784132 0
M  V30 4762 C 446.157 -1.30559 -1.53744 0
M  V30 4763 C 446.47 0.111374 -1.95283 0
M  V30 4764 O 447.676 0.29527 -2.6989 0
M  V30 4765 C 446.132 -2.29098 -2.77565 0
M  V30 4766 C 445.74 -3.76258 -2.43174 0
M  V30 4767 C 447.484 -2.31936 -3.55536 0
M  V30 4768 C 445.391 -4.6656 -3.63422 0
M  V30 4769 H 444.321 -0.48518 -0.577162 0
M  V30 4770 H 446.972 -1.62101 -0.859981 0
M  V30 4771 H 445.354 -1.90557 -3.47137 0
M  V30 4772 H 446.528 -4.23565 -1.81465 0
M  V30 4773 H 444.843 -3.76246 -1.78403 0
M  V30 4774 H 447.44 -2.9661 -4.44889 0
M  V30 4775 H 447.783 -1.3294 -3.94503 0
M  V30 4776 H 448.316 -2.6912 -2.92949 0
M  V30 4777 H 445.055 -5.66638 -3.29547 0
M  V30 4778 H 444.575 -4.23966 -4.24279 0
M  V30 4779 H 446.254 -4.8309 -4.30387 0
M  V30 4780 N 446.386 1.0089 -1.21074 0
M  V30 4781 C 447.316 2.1145 -0.990523 0
M  V30 4782 C 448.297 1.69897 0.0831699 0
M  V30 4783 O 449.482 1.94052 -0.0758853 0
M  V30 4784 C 446.612 3.42914 -0.550177 0
M  V30 4785 C 445.566 3.98244 -1.56799 0
M  V30 4786 C 444.892 5.25568 -0.984013 0
M  V30 4787 C 446.192 4.30752 -2.95381 0
M  V30 4788 H 447.886 2.3013 -1.91521 0
M  V30 4789 H 445.432 1.10592 -0.92225 0
M  V30 4790 H 447.385 4.19653 -0.383305 0
M  V30 4791 H 446.109 3.24014 0.41015 0
M  V30 4792 H 444.768 3.23621 -1.72236 0
M  V30 4793 H 444.416 5.02998 -0.0155216 0
M  V30 4794 H 444.116 5.63551 -1.66384 0
M  V30 4795 H 445.64 6.04955 -0.828378 0
M  V30 4796 H 447.054 4.98349 -2.8341 0
M  V30 4797 H 445.451 4.79869 -3.60341 0
M  V30 4798 H 446.521 3.39192 -3.46521 0
M  V30 4799 N 447.864 1.01787 1.20321 0
M  V30 4800 C 448.796 0.547357 2.22568 0
M  V30 4801 C 449.809 -0.370922 1.58518 0
M  V30 4802 O 450.998 -0.169067 1.77698 0
M  V30 4803 C 448.098 -0.223031 3.38165 0
M  V30 4804 C 447.271 0.697472 4.31803 0
M  V30 4805 C 446.33 -0.025562 5.26194 0
M  V30 4806 O 445.356 0.597367 5.66057 0
M  V30 4807 N 446.558 -1.29999 5.65757 0
M  V30 4808 H 449.323 1.42668 2.63564 0
M  V30 4809 H 446.884 0.895552 1.34876 0
M  V30 4810 H 448.876 -0.716002 3.98316 0
M  V30 4811 H 447.446 -1.00366 2.9605 0
M  V30 4812 H 446.666 1.37073 3.69601 0
M  V30 4813 H 447.954 1.32347 4.91286 0
M  V30 4814 H 447.352 -1.827 5.35385 0
M  V30 4815 H 445.909 -1.73766 6.28211 0
M  V30 4816 N 449.342 -1.36122 0.79427 0
M  V30 4817 C 450.274 -2.28683 0.153903 0
M  V30 4818 C 451.287 -1.49707 -0.639669 0
M  V30 4819 O 452.476 -1.7209 -0.474054 0
M  V30 4820 C 449.576 -3.29202 -0.804921 0
M  V30 4821 C 448.749 -4.37358 -0.060366 0
M  V30 4822 C 447.808 -5.17811 -0.935849 0
M  V30 4823 O 446.834 -5.67853 -0.391309 0
M  V30 4824 N 448.036 -5.34721 -2.25951 0
M  V30 4825 H 450.801 -2.84278 0.949008 0
M  V30 4826 H 448.362 -1.4834 0.648611 0
M  V30 4827 H 450.354 -3.79914 -1.39455 0
M  V30 4828 H 448.924 -2.74212 -1.50088 0
M  V30 4829 H 448.144 -3.87746 0.710382 0
M  V30 4830 H 449.432 -5.06777 0.45324 0
M  V30 4831 H 448.83 -4.95687 -2.72601 0
M  V30 4832 H 447.387 -5.88657 -2.79867 0
M  V30 4833 N 450.82 -0.546701 -1.47814 0
M  V30 4834 C 452.066 -0.0187684 -2.02791 0
M  V30 4835 C 452.399 1.32338 -1.42128 0
M  V30 4836 O 451.674 1.85867 -0.573023 0
M  V30 4837 C 451.957 0.0854985 -3.59998 0
M  V30 4838 C 451.81 -1.283 -4.31114 0
M  V30 4839 C 453.129 0.80412 -4.32691 0
M  V30 4840 H 450.248 -0.0082946 -0.736953 0
M  V30 4841 H 452.89 -0.706962 -1.76358 0
M  V30 4842 H 451.04 0.671609 -3.82651 0
M  V30 4843 H 452.712 -1.91151 -4.19832 0
M  V30 4844 H 450.955 -1.86049 -3.91878 0
M  V30 4845 H 451.626 -1.16287 -5.39612 0
M  V30 4846 H 454.102 0.306576 -4.14969 0
M  V30 4847 H 452.978 0.846011 -5.42341 0
M  V30 4848 H 453.239 1.85802 -4.01161 0
M  V30 4849 N 452.299 1.55045 -0.282633 0
M  V30 4850 C 453.262 2.21515 0.588539 0
M  V30 4851 C 454.262 1.19535 1.07554 0
M  V30 4852 O 455.452 1.44391 0.974514 0
M  V30 4853 C 452.584 2.88704 1.8128 0
M  V30 4854 H 453.777 2.99899 0.00806397 0
M  V30 4855 H 451.33 1.56265 -0.0333067 0
M  V30 4856 H 452.065 2.14352 2.43359 0
M  V30 4857 H 451.85 3.63443 1.47144 0
M  V30 4858 H 453.34 3.39465 2.43214 0
M  V30 4859 N 453.777 0.010035 1.57597 0
M  V30 4860 C 455.005 -0.683413 1.95287 0
M  V30 4861 C 455.42 -1.66747 0.885481 0
M  V30 4862 O 454.777 -1.82003 -0.134629 0
M  V30 4863 C 454.828 -1.40652 3.33015 0
M  V30 4864 O 454.549 -0.461916 4.35658 0
M  V30 4865 C 456.05 -2.19356 3.85225 0
M  V30 4866 H 453.27 -0.189708 0.643624 0
M  V30 4867 H 455.814 0.0641359 2.04399 0
M  V30 4868 H 453.969 -2.10562 3.2518 0
M  V30 4869 H 454.383 -0.973215 5.15392 0
M  V30 4870 H 455.857 -2.65433 4.83993 0
M  V30 4871 H 456.334 -3.02457 3.18459 0
M  V30 4872 H 456.94 -1.54442 3.96267 0
M  V30 4873 N 455.255 -1.55392 -0.262866 0
M  V30 4874 C 456.218 -1.88181 -1.30846 0
M  V30 4875 C 457.218 -0.757079 -1.41862 0
M  V30 4876 O 458.408 -1.02519 -1.40838 0
M  V30 4877 C 455.54 -2.09609 -2.68844 0
M  V30 4878 H 456.733 -2.81659 -1.02997 0
M  V30 4879 H 454.286 -1.48039 -0.501414 0
M  V30 4880 H 455.021 -1.18547 -3.01856 0
M  V30 4881 H 454.806 -2.91508 -2.62231 0
M  V30 4882 H 456.296 -2.36215 -3.44372 0
M  V30 4883 N 456.733 0.527833 -1.48498 0
M  V30 4884 C 457.663 1.64136 -1.66077 0
M  V30 4885 C 458.644 1.62286 -0.509625 0
M  V30 4886 O 459.829 1.79449 -0.742413 0
M  V30 4887 C 456.959 3.02717 -1.70234 0
M  V30 4888 C 455.913 3.19426 -2.8487 0
M  V30 4889 C 455.239 4.5909 -2.74118 0
M  V30 4890 C 456.539 3.01993 -4.26142 0
M  V30 4891 H 458.233 1.4968 -2.593 0
M  V30 4892 H 455.779 0.718654 -1.24785 0
M  V30 4893 H 457.732 3.80491 -1.8112 0
M  V30 4894 H 456.456 3.18201 -0.735911 0
M  V30 4895 H 455.115 2.4407 -2.73542 0
M  V30 4896 H 454.763 4.71413 -1.7544 0
M  V30 4897 H 454.463 4.71214 -3.51042 0
M  V30 4898 H 455.987 5.3896 -2.86974 0
M  V30 4899 H 457.401 3.69558 -4.38292 0
M  V30 4900 H 455.798 3.2561 -5.04082 0
M  V30 4901 H 456.868 1.98396 -4.42456 0
M  V30 4902 N 458.211 1.37122 0.776871 0
M  V30 4903 C 459.158 1.3247 1.88998 0
M  V30 4904 C 460.128 0.191143 1.64997 0
M  V30 4905 O 461.313 0.379683 1.86984 0
M  V30 4906 C 458.453 1.13241 3.25992 0
M  V30 4907 C 457.566 2.35782 3.61982 0
M  V30 4908 C 456.701 2.09465 4.88158 0
M  V30 4909 C 455.74 3.279 5.16864 0
M  V30 4910 N 454.877 3.01167 6.34226 0
M  V30 4911 H 459.717 2.27642 1.9231 0
M  V30 4912 H 457.254 1.13125 0.94027 0
M  V30 4913 H 459.212 1.00115 4.0501 0
M  V30 4914 H 457.842 0.217186 3.22069 0
M  V30 4915 H 456.894 2.59666 2.77989 0
M  V30 4916 H 458.206 3.24125 3.79137 0
M  V30 4917 H 457.36 1.93341 5.75069 0
M  V30 4918 H 456.099 1.18452 4.73097 0
M  V30 4919 H 455.104 3.44569 4.2843 0
M  V30 4920 H 456.329 4.19757 5.33836 0
M  V30 4921 H 454.275 2.12779 6.20533 0
M  V30 4922 H 454.192 3.83052 6.51772 0
M  V30 4923 H 455.46 2.88649 7.24087 0
M  V30 4924 N 459.689 -1.00246 1.21608 0
M  V30 4925 C 460.636 -2.09073 0.977613 0
M  V30 4926 C 461.606 -1.65815 -0.097297 0
M  V30 4927 O 462.791 -1.90734 0.0503445 0
M  V30 4928 C 459.931 -3.40671 0.551133 0
M  V30 4929 C 459.044 -3.97326 1.69576 0
M  V30 4930 C 458.179 -5.17043 1.2182 0
M  V30 4931 C 457.218 -5.65813 2.335 0
M  V30 4932 N 456.355 -6.76778 1.86859 0
M  V30 4933 H 461.195 -2.28806 1.90924 0
M  V30 4934 H 458.732 -1.12186 0.951452 0
M  V30 4935 H 460.69 -4.16225 0.285097 0
M  V30 4936 H 459.32 -3.20967 -0.343489 0
M  V30 4937 H 458.372 -3.18734 2.07637 0
M  V30 4938 H 459.684 -4.29511 2.53617 0
M  V30 4939 H 458.838 -5.99852 0.908975 0
M  V30 4940 H 457.577 -4.86458 0.347869 0
M  V30 4941 H 456.582 -4.81599 2.65222 0
M  V30 4942 H 457.807 -5.98427 3.21033 0
M  V30 4943 H 455.753 -6.47994 1.02174 0
M  V30 4944 H 455.67 -7.08231 2.64471 0
M  V30 4945 H 456.938 -7.63116 1.58978 0
M  V30 4946 N 461.167 -1.02423 -1.1978 0
M  V30 4947 C 462.097 -0.62157 -2.25075 0
M  V30 4948 C 463.078 0.367148 -1.6609 0
M  V30 4949 O 464.263 0.250892 -1.92573 0
M  V30 4950 C 461.393 0.0331826 -3.47284 0
M  V30 4951 C 460.347 -0.877323 -4.18912 0
M  V30 4952 C 459.673 -0.0879296 -5.34628 0
M  V30 4953 C 460.973 -2.18892 -4.74219 0
M  V30 4954 H 462.667 -1.50179 -2.59011 0
M  V30 4955 H 460.213 -0.723547 -1.24502 0
M  V30 4956 H 462.166 0.326488 -4.20133 0
M  V30 4957 H 460.89 0.948164 -3.12534 0
M  V30 4958 H 459.549 -1.15475 -3.47938 0
M  V30 4959 H 459.197 0.828941 -4.96123 0
M  V30 4960 H 458.897 -0.694359 -5.83483 0
M  V30 4961 H 460.421 0.198743 -6.10276 0
M  V30 4962 H 461.835 -1.95746 -5.38847 0
M  V30 4963 H 460.232 -2.74686 -5.33542 0
M  V30 4964 H 461.302 -2.84674 -3.92541 0
M  V30 4965 N 462.645 1.35699 -0.801477 0
M  V30 4966 C 463.592 2.29876 -0.206294 0
M  V30 4967 C 464.562 1.52565 0.656752 0
M  V30 4968 O 465.747 1.81024 0.602906 0
M  V30 4969 C 462.887 3.39052 0.643272 0
M  V30 4970 C 462 4.31335 -0.239644 0
M  V30 4971 C 461.135 5.27599 0.61744 0
M  V30 4972 C 460.174 6.11521 -0.26619 0
M  V30 4973 N 459.311 6.99938 0.550571 0
M  V30 4974 H 464.151 2.80187 -1.01484 0
M  V30 4975 H 461.688 1.37902 -0.511997 0
M  V30 4976 H 463.646 4.0101 1.15094 0
M  V30 4977 H 462.276 2.9003 1.41713 0
M  V30 4978 H 461.328 3.70426 -0.865381 0
M  V30 4979 H 462.64 4.90243 -0.919985 0
M  V30 4980 H 461.794 5.94906 1.19045 0
M  V30 4981 H 460.533 4.69176 1.33137 0
M  V30 4982 H 459.538 5.43166 -0.851507 0
M  V30 4983 H 460.763 6.72022 -0.9779 0
M  V30 4984 H 458.709 6.44008 1.24856 0
M  V30 4985 H 458.626 7.55966 -0.071832 0
M  V30 4986 H 459.894 7.71599 1.10702 0
M  V30 4987 N 464.123 0.554532 1.47522 0
M  V30 4988 C 465.348 0.0322661 2.07375 0
M  V30 4989 C 465.773 -1.25079 1.40488 0
M  V30 4990 O 465.131 -1.74859 0.47896 0
M  V30 4991 C 465.179 -0.149397 3.6029 0
M  V30 4992 O 464.283 -1.21259 3.9417 0
M  V30 4993 H 463.624 0.0501228 0.662106 0
M  V30 4994 H 466.154 0.769452 1.8958 0
M  V30 4995 H 466.164 -0.364437 4.06369 0
M  V30 4996 H 464.839 0.787743 4.08372 0
M  V30 4997 H 463.416 -0.97825 3.5984 0
M  V30 4998 N 465.601 -1.54893 0.290851 0
M  V30 4999 C 466.531 -2.26103 -0.583084 0
M  V30 5000 C 467.512 -1.25684 -1.14619 0
M  V30 5001 O 468.697 -1.54436 -1.17741 0
M  V30 5002 C 465.827 -2.99409 -1.75987 0
M  V30 5003 C 464.781 -4.0689 -1.32758 0
M  V30 5004 C 464.107 -4.67856 -2.58872 0
M  V30 5005 C 465.407 -5.20215 -0.46624 0
M  V30 5006 H 467.101 -2.99398 0.0108214 0
M  V30 5007 H 464.647 -1.43998 0.00664468 0
M  V30 5008 H 466.6 -3.47943 -2.37727 0
M  V30 5009 H 465.324 -2.23675 -2.37985 0
M  V30 5010 H 463.983 -3.59191 -0.733299 0
M  V30 5011 H 463.631 -3.88772 -3.19163 0
M  V30 5012 H 463.331 -5.40438 -2.30653 0
M  V30 5013 H 464.855 -5.19147 -3.21433 0
M  V30 5014 H 466.269 -5.64704 -0.989047 0
M  V30 5015 H 464.666 -5.99455 -0.27826 0
M  V30 5016 H 465.736 -4.82198 0.511173 0
M  V30 5017 N 467.08 -0.0183926 -1.57589 0
M  V30 5018 C 468.328 0.661253 -1.90976 0
M  V30 5019 C 468.649 1.73281 -0.894353 0
M  V30 5020 O 467.919 1.9579 0.0656788 0
M  V30 5021 H 466.499 0.247233 -0.704901 0
M  V30 5022 H 469.161 -0.0636639 -1.94796 0
M  V30 5023 H 468.257 1.12083 -2.9128 0
M  V30 5024 N 468.558 1.5553 0.254621 0
M  V30 5025 C 469.488 1.9268 1.31897 0
M  V30 5026 C 470.469 0.790797 1.506 0
M  V30 5027 O 471.654 1.05045 1.63337 0
M  V30 5028 C 468.784 2.21477 2.67517 0
M  V30 5029 C 467.738 3.37256 2.63519 0
M  V30 5030 C 467.064 3.51576 4.02862 0
M  V30 5031 C 468.364 4.73157 2.21179 0
M  V30 5032 H 470.058 2.81832 1.01051 0
M  V30 5033 H 467.604 1.35599 0.484662 0
M  V30 5034 H 469.557 2.46055 3.42104 0
M  V30 5035 H 468.281 1.29144 2.99982 0
M  V30 5036 H 466.94 3.12675 1.9139 0
M  V30 5037 H 466.588 2.56676 4.32581 0
M  V30 5038 H 466.288 4.2943 4.01078 0
M  V30 5039 H 467.812 3.78467 4.79161 0
M  V30 5040 H 469.226 4.97158 2.85494 0
M  V30 5041 H 467.623 5.54058 2.30521 0
M  V30 5042 H 468.693 4.70739 1.16332 0
M  V30 5043 N 470.036 -0.519951 1.48776 0
M  V30 5044 C 471.285 -1.27175 1.56555 0
M  V30 5045 C 471.598 -1.9401 0.248869 0
M  V30 5046 O 472.804 -2.70725 0.205004 0
M  V30 5047 C 471.26 -2.30811 2.76142 0
M  V30 5048 C 470.868 -1.7 4.14493 0
M  V30 5049 C 472.612 -3.06937 2.9324 0
M  V30 5050 C 470.519 -2.71635 5.25327 0
M  V30 5051 H 469.449 -0.478329 0.582853 0
M  V30 5052 H 472.1 -0.547916 1.75129 0
M  V30 5053 H 470.482 -3.06274 2.51023 0
M  V30 5054 H 471.656 -1.00658 4.49672 0
M  V30 5055 H 469.971 -1.06331 4.02595 0
M  V30 5056 H 472.568 -3.82905 3.73213 0
M  V30 5057 H 472.911 -3.63409 2.03075 0
M  V30 5058 H 473.444 -2.38589 3.18308 0
M  V30 5059 H 470.183 -2.1997 6.1749 0
M  V30 5060 H 469.703 -3.39275 4.94624 0
M  V30 5061 H 471.382 -3.34429 5.53865 0
M  V30 5062 N 471.514 -1.37532 -0.769588 0
M  V30 5063 C 472.464 -1.29984 -1.87318 0
M  V30 5064 C 473.448 -0.187242 -1.59807 0
M  V30 5065 O 474.64 -0.421827 -1.719 0
M  V30 5066 C 471.769 -1.11126 -3.24817 0
M  V30 5067 C 470.855 -2.26939 -3.58273 0
M  V30 5068 N 471.246 -3.52336 -3.62895 0
M  V30 5069 C 469.544 -2.19141 -3.8845 0
M  V30 5070 C 470.245 -4.28719 -3.9316 0
M  V30 5071 N 469.221 -3.57884 -4.0917 0
M  V30 5072 H 473.023 -2.24946 -1.89147 0
M  V30 5073 H 470.537 -1.30535 -0.966143 0
M  V30 5074 H 472.534 -1.03803 -4.0377 0
M  V30 5075 H 471.194 -0.17083 -3.2425 0
M  V30 5076 H 472.205 -3.86216 -3.45048 0
M  V30 5077 H 468.882 -1.33167 -3.95693 0
M  V30 5078 H 470.272 -5.37254 -4.03494 0
M  V30 5079 N 472.992 0.995999 -1.22138 0
M  V30 5080 C 473.955 2.06711 -0.990109 0
M  V30 5081 C 474.955 1.60744 0.0422978 0
M  V30 5082 O 476.145 1.73095 -0.195895 0
M  V30 5083 C 473.277 3.37288 -0.49491 0
M  V30 5084 H 474.47 2.28661 -1.94047 0
M  V30 5085 H 472.023 1.16711 -1.03963 0
M  V30 5086 H 472.758 3.21022 0.459948 0
M  V30 5087 H 472.543 3.71986 -1.23971 0
M  V30 5088 H 474.033 4.16103 -0.353253 0
M  V30 5089 N 474.47 1.03057 1.19235 0
M  V30 5090 C 475.747 0.642608 1.84743 0
M  V30 5091 C 476.127 -0.878577 1.91948 0
M  V30 5092 O 475.475 -1.77597 1.43776 0
M  V30 5093 C 475.685 1.30665 3.23616 0
M  V30 5094 C 477.033 1.43098 3.9976 0
M  V30 5095 O 478.057 1.26396 3.3302 0
M  V30 5096 O 476.916 1.70223 5.19313 0
M  V30 5097 H 474.01 0.223573 0.796206 0
M  V30 5098 H 476.556 1.12883 1.26711 0
M  V30 5099 H 475.328 2.34544 3.13217 0
M  V30 5100 H 474.951 0.808405 3.89295 0
M  V30 5101 N 475.948 -1.35272 0.808662 0
M  V30 5102 C 476.878 -2.32315 0.234981 0
M  V30 5103 C 477.859 -1.57572 -0.64071 0
M  V30 5104 O 479.044 -1.8563 -0.570551 0
M  V30 5105 C 476.174 -3.41801 -0.615601 0
M  V30 5106 C 475.128 -4.27694 0.161767 0
M  V30 5107 C 474.454 -5.28519 -0.810649 0
M  V30 5108 C 475.754 -5.04231 1.36193 0
M  V30 5109 H 477.448 -2.80543 1.04575 0
M  V30 5110 H 474.994 -1.3488 0.504315 0
M  V30 5111 H 476.947 -4.08693 -1.02702 0
M  V30 5112 H 475.671 -2.92186 -1.45928 0
M  V30 5113 H 474.33 -3.62384 0.554382 0
M  V30 5114 H 473.978 -4.75171 -1.64988 0
M  V30 5115 H 473.678 -5.8686 -0.294822 0
M  V30 5116 H 475.202 -5.98283 -1.22023 0
M  V30 5117 H 476.616 -5.64058 1.02528 0
M  V30 5118 H 475.013 -5.72077 1.81239 0
M  V30 5119 H 476.083 -4.34753 2.14751 0
M  V30 5120 N 477.426 -0.562348 -1.47226 0
M  V30 5121 C 478.373 0.182461 -2.30078 0
M  V30 5122 C 479.343 0.903503 -1.39377 0
M  V30 5123 O 480.528 0.898188 -1.68337 0
M  V30 5124 C 477.668 1.20322 -3.23445 0
M  V30 5125 C 476.781 0.487717 -4.29238 0
M  V30 5126 C 475.916 1.49422 -5.09752 0
M  V30 5127 C 474.955 0.763976 -6.07314 0
M  V30 5128 N 474.092 1.71755 -6.80768 0
M  V30 5129 H 478.932 -0.530169 -2.93246 0
M  V30 5130 H 476.469 -0.273276 -1.44539 0
M  V30 5131 H 478.427 1.80768 -3.76004 0
M  V30 5132 H 477.057 1.88382 -2.6213 0
M  V30 5133 H 476.109 -0.231374 -3.79696 0
M  V30 5134 H 477.421 -0.0841003 -4.98729 0
M  V30 5135 H 476.575 2.17206 -5.66486 0
M  V30 5136 H 475.314 2.09995 -4.40174 0
M  V30 5137 H 474.319 0.0722344 -5.49753 0
M  V30 5138 H 475.544 0.16391 -6.78902 0
M  V30 5139 H 473.49 2.31177 -6.13916 0
M  V30 5140 H 473.407 1.19802 -7.46447 0
M  V30 5141 H 474.675 2.38638 -7.42073 0
M  V30 5142 N 478.904 1.54736 -0.299062 0
M  V30 5143 C 480.315 1.8569 0.193971 0
M  V30 5144 C 480.666 1.22101 1.53577 0
M  V30 5145 O 479.791 0.51799 2.10109 0
M  V30 5146 C 480.386 3.36895 0.358733 0
M  V30 5147 C 478.945 3.67887 0.795986 0
M  V30 5148 C 478.092 2.77131 -0.096807 0
M  V30 5149 H 481.043 1.49934 -0.520134 0
M  V30 5150 H 481.064 3.61294 1.19361 0
M  V30 5151 H 480.576 3.83148 -0.617998 0
M  V30 5152 H 478.677 3.27151 1.78334 0
M  V30 5153 H 478.79 4.75114 0.616718 0
M  V30 5154 H 477.154 2.51153 0.423581 0
M  V30 5155 H 477.937 3.26204 -1.06986 0
M  V30 5156 N 480.382 0.0267497 1.57577 0
M  V30 5157 C 481.292 -0.971633 2.13533 0
M  V30 5158 C 482.308 -1.35868 1.08701 0
M  V30 5159 O 483.484 -1.44058 1.40746 0
M  V30 5160 C 480.549 -2.23622 2.64941 0
M  V30 5161 C 479.61 -1.90982 3.8448 0
M  V30 5162 C 478.843 -3.11411 4.33427 0
M  V30 5163 O 479.066 -4.23992 3.81558 0
M  V30 5164 O 478 -2.93848 5.25297 0
M  V30 5165 H 481.826 -0.525853 2.99113 0
M  V30 5166 H 479.411 -0.193712 1.48139 0
M  V30 5167 H 481.293 -2.97864 2.98086 0
M  V30 5168 H 479.968 -2.67386 1.82446 0
M  V30 5169 H 478.875 -1.14132 3.56265 0
M  V30 5170 H 480.208 -1.52036 4.6813 0
M  V30 5171 N 481.861 -1.55662 -0.24637 0
M  V30 5172 C 482.809 -1.91186 -1.3248 0
M  V30 5173 C 483.803 -0.790996 -1.49799 0
M  V30 5174 O 485.009 -0.975617 -1.51267 0
M  V30 5175 H 481.384 -0.607207 -0.443626 0
M  V30 5176 H 483.355 -2.81221 -0.997853 0
M  V30 5177 C 482.104 -2.22349 -2.67313 0
M  V30 5178 H 481.427 -3.08097 -2.54786 0
M  V30 5179 H 482.867 -2.51107 -3.41645 0
M  V30 5180 C 481.326 -1.04001 -3.20446 0
M  V30 5181 O 481.856 -0.28828 -4.00664 0
M  V30 5182 N 480.062 -0.830494 -2.7848 0
M  V30 5183 H 479.609 -1.4435 -2.13356 0
M  V30 5184 H 479.567 -0.0403258 -3.14374 0
M  V30 5185 N 483.339 0.512053 -1.4905 0
M  V30 5186 C 484.588 1.26343 -1.57227 0
M  V30 5187 C 484.901 1.93876 -0.259155 0
M  V30 5188 O 486.107 2.70612 -0.219358 0
M  V30 5189 C 484.563 2.29343 -2.77362 0
M  V30 5190 C 484.171 1.67799 -4.15388 0
M  V30 5191 C 485.915 3.05378 -2.94864 0
M  V30 5192 C 483.822 2.68845 -5.2676 0
M  V30 5193 H 482.752 0.475231 -0.585382 0
M  V30 5194 H 485.403 0.53862 -1.75417 0
M  V30 5195 H 483.785 3.04938 -2.52643 0
M  V30 5196 H 484.959 0.982715 -4.50199 0
M  V30 5197 H 483.274 1.04194 -4.03153 0
M  V30 5198 H 485.871 3.80921 -3.75238 0
M  V30 5199 H 486.214 3.62327 -2.05 0
M  V30 5200 H 486.747 2.36898 -3.19569 0
M  V30 5201 H 483.486 2.16692 -6.18647 0
M  V30 5202 H 483.006 3.36647 -4.96416 0
M  V30 5203 H 484.685 3.31487 -5.5563 0
M  V30 5204 N 484.817 1.37938 0.762283 0
M  V30 5205 C 485.75 1.2884 1.88349 0
M  V30 5206 C 486.728 0.167084 1.61739 0
M  V30 5207 O 487.912 0.34292 1.85355 0
M  V30 5208 C 485.039 0.994257 3.23778 0
M  V30 5209 C 484.085 2.13376 3.69287 0
M  V30 5210 S 484.918 3.75439 3.81845 0
M  V30 5211 C 486.074 3.48195 5.20107 0
M  V30 5212 H 486.307 2.23736 1.95779 0
M  V30 5213 H 483.84 1.23672 0.924368 0
M  V30 5214 H 485.798 0.83138 4.01993 0
M  V30 5215 H 484.459 0.0626251 3.14038 0
M  V30 5216 H 483.652 1.88319 4.67495 0
M  V30 5217 H 483.254 2.25726 2.98201 0
M  V30 5218 H 485.546 3.0377 6.05583 0
M  V30 5219 H 486.489 4.45765 5.50181 0
M  V30 5220 H 486.897 2.82905 4.88493 0
M  V30 5221 N 486.295 -0.989507 1.22664 0
M  V30 5222 C 487.225 -2.09847 1.02404 0
M  V30 5223 C 488.206 -1.70007 -0.0561303 0
M  V30 5224 O 489.391 -1.93906 0.106748 0
M  V30 5225 C 486.521 -3.41996 0.604663 0
M  V30 5226 C 485.475 -3.95699 1.63115 0
M  V30 5227 C 484.801 -5.23936 1.0675 0
M  V30 5228 C 486.101 -4.25999 3.02196 0
M  V30 5229 H 487.795 -2.27054 1.95158 0
M  V30 5230 H 485.341 -1.09111 0.939727 0
M  V30 5231 H 487.294 -4.1899 0.45002 0
M  V30 5232 H 486.018 -3.24626 -0.35855 0
M  V30 5233 H 484.677 -3.2084 1.77362 0
M  V30 5234 H 484.325 -5.02909 0.0955422 0
M  V30 5235 H 484.025 -5.60833 1.75328 0
M  V30 5236 H 485.549 -6.0356 0.924516 0
M  V30 5237 H 486.963 -4.93777 2.91303 0
M  V30 5238 H 485.36 -4.74076 3.67929 0
M  V30 5239 H 486.43 -3.33636 3.51873 0
M  V30 5240 N 487.773 -1.03688 -1.18687 0
M  V30 5241 C 489.019 -0.739123 -1.88851 0
M  V30 5242 C 489.352 0.731042 -1.79915 0
M  V30 5243 O 488.627 1.53313 -1.19688 0
M  V30 5244 C 488.91 -1.20106 -3.3948 0
M  V30 5245 C 488.763 -2.73304 -3.57246 0
M  V30 5246 C 490.082 -0.788134 -4.32986 0
M  V30 5247 H 487.201 -0.269978 -0.68577 0
M  V30 5248 H 489.843 -1.28822 -1.3966 0
M  V30 5249 H 487.993 -0.733915 -3.81505 0
M  V30 5250 H 489.665 -3.28027 -3.24339 0
M  V30 5251 H 487.908 -3.13313 -3.00029 0
M  V30 5252 H 488.579 -3.00684 -4.62918 0
M  V30 5253 H 491.055 -1.19005 -3.98719 0
M  V30 5254 H 489.931 -1.13915 -5.36949 0
M  V30 5255 H 490.192 0.308988 -4.41019 0
M  V30 5256 N 489.251 1.34841 -0.815825 0
M  V30 5257 C 490.528 1.92908 -0.323416 0
M  V30 5258 C 490.908 1.74479 1.18828 0
M  V30 5259 O 490.256 1.11928 1.99209 0
M  V30 5260 C 490.466 3.40957 -0.744952 0
M  V30 5261 C 491.814 4.18107 -0.739716 0
M  V30 5262 O 492.838 3.49511 -0.68708 0
M  V30 5263 O 491.697 5.40517 -0.806456 0
M  V30 5264 H 488.791 0.822436 -0.0867646 0
M  V30 5265 H 491.337 1.4386 -0.90014 0
M  V30 5266 H 490.109 3.4814 -1.78646 0
M  V30 5267 H 489.732 3.97341 -0.143535 0
M  V30 5268 N 490.729 0.570148 1.46925 0
M  V30 5269 C 492.14 0.1402 1.86173 0
M  V30 5270 C 492.491 -1.29347 1.47526 0
M  V30 5271 O 491.616 -1.97508 0.884292 0
M  V30 5272 C 492.211 0.247661 3.37894 0
M  V30 5273 C 490.77 -0.127332 3.76185 0
M  V30 5274 C 489.917 0.589349 2.70965 0
M  V30 5275 H 492.868 0.779117 1.38259 0
M  V30 5276 H 492.889 -0.530341 3.76786 0
M  V30 5277 H 492.401 1.29121 3.65991 0
M  V30 5278 H 490.502 -1.17149 3.53704 0
M  V30 5279 H 490.615 0.240238 4.78497 0
M  V30 5280 H 488.979 0.0309824 2.54681 0
M  V30 5281 H 489.762 1.6343 3.01903 0
M  V30 5282 N 492.207 -1.54576 0.307264 0
M  V30 5283 C 493.453 -2.0056 -0.300612 0
M  V30 5284 C 493.786 -1.1953 -1.53057 0
M  V30 5285 O 493.061 -0.27337 -1.92569 0
M  V30 5286 C 493.344 -3.54167 -0.650987 0
M  V30 5287 C 493.197 -4.45933 0.588539 0
M  V30 5288 C 494.516 -4.14645 -1.47506 0
M  V30 5289 H 491.635 -0.729075 -0.107788 0
M  V30 5290 H 494.277 -1.85286 0.420606 0
M  V30 5291 H 492.427 -3.67313 -1.26544 0
M  V30 5292 H 494.099 -4.44683 1.22697 0
M  V30 5293 H 492.342 -4.16274 1.22058 0
M  V30 5294 H 493.013 -5.51189 0.299153 0
M  V30 5295 H 495.489 -4.04973 -0.955821 0
M  V30 5296 H 494.365 -5.22269 -1.68899 0
M  V30 5297 H 494.626 -3.66921 -2.4662 0
M  V30 5298 N 493.685 -0.035106 -1.57561 0
M  V30 5299 C 495.101 0.321334 -1.56332 0
M  V30 5300 C 495.301 1.72509 -1.04129 0
M  V30 5301 O 494.357 2.4287 -0.690694 0
M  V30 5302 C 495.67 0.164469 -3.0025 0
M  V30 5303 C 497.218 0.236786 -3.12103 0
M  V30 5304 C 497.693 0.10864 -4.57871 0
M  V30 5305 N 499.184 0.165433 -4.62904 0
M  V30 5306 C 499.919 0.0901506 -5.73329 0
M  V30 5307 N 499.415 -0.0365606 -6.9279 0
M  V30 5308 N 501.208 0.144572 -5.61914 0
M  V30 5309 H 493.359 -0.952976 -1.89821 0
M  V30 5310 H 495.622 -0.368537 -0.873432 0
M  V30 5311 H 495.328 -0.802746 -3.42416 0
M  V30 5312 H 495.202 0.932194 -3.655 0
M  V30 5313 H 497.589 1.19446 -2.69845 0
M  V30 5314 H 497.67 -0.561419 -2.49563 0
M  V30 5315 H 497.314 -0.845644 -5.00811 0
M  V30 5316 H 497.244 0.925786 -5.18398 0
M  V30 5317 H 499.735 0.263269 -3.76982 0
M  V30 5318 H 500.048 -0.0871487 -7.72751 0
M  V30 5319 H 498.393 -0.0714256 -6.94963 0
M  V30 5320 H 501.584 0.242006 -4.67474 0
M  V30 5321 H 501.757 0.0824413 -6.47948 0
M  V30 5322 N 495.163 1.55791 0.238111 0
M  V30 5323 C 496.095 1.87513 1.31802 0
M  V30 5324 C 497.108 0.762053 1.43863 0
M  V30 5325 O 498.297 1.04024 1.45056 0
M  V30 5326 C 495.397 2.05402 2.69561 0
M  V30 5327 C 494.57 3.3632 2.79656 0
M  V30 5328 C 493.629 3.43844 3.98319 0
M  V30 5329 O 492.655 4.16994 3.87433 0
M  V30 5330 N 493.857 2.73777 5.11885 0
M  V30 5331 H 496.622 2.80734 1.04922 0
M  V30 5332 H 494.183 1.56135 0.428196 0
M  V30 5333 H 496.175 2.07769 3.47296 0
M  V30 5334 H 494.745 1.18884 2.89111 0
M  V30 5335 H 493.965 3.46195 1.88528 0
M  V30 5336 H 495.253 4.22594 2.83358 0
M  V30 5337 H 494.651 2.14094 5.23622 0
M  V30 5338 H 493.208 2.81825 5.87723 0
M  V30 5339 N 496.642 -0.504142 1.49319 0
M  V30 5340 C 498.053 -1.08572 1.51885 0
M  V30 5341 C 498.404 -1.93842 0.303255 0
M  V30 5342 O 497.529 -2.0828 -0.58724 0
M  V30 5343 C 498.124 -1.97574 2.75227 0
M  V30 5344 C 496.683 -2.509 2.80581 0
M  V30 5345 C 495.83 -1.28447 2.45757 0
M  V30 5346 H 498.781 -0.288194 1.56061 0
M  V30 5347 H 498.802 -2.82219 2.55211 0
M  V30 5348 H 498.314 -1.35486 3.63683 0
M  V30 5349 H 496.415 -3.16636 1.96398 0
M  V30 5350 H 496.528 -2.88268 3.82673 0
M  V30 5351 H 494.892 -1.60868 1.97468 0
M  V30 5352 H 495.675 -0.68072 3.36483 0
M  V30 5353 N 498.12 -1.38341 -0.754957 0
M  V30 5354 C 499.35 -1.37504 -1.54195 0
M  V30 5355 C 499.758 0.0373787 -1.89163 0
M  V30 5356 O 499.101 1.01402 -1.53178 0
M  V30 5357 C 499.163 -2.16488 -2.87008 0
M  V30 5358 C 498.827 -3.65311 -2.74585 0
M  V30 5359 C 499.824 -4.58834 -2.44474 0
M  V30 5360 C 497.509 -4.08649 -2.9208 0
M  V30 5361 C 499.503 -5.93675 -2.32011 0
M  V30 5362 C 497.19 -5.43571 -2.79237 0
M  V30 5363 C 498.188 -6.35898 -2.49245 0
M  V30 5364 O 497.876 -7.68338 -2.36458 0
M  V30 5365 H 497.608 -0.472159 -0.483779 0
M  V30 5366 H 500.162 -1.82515 -0.94221 0
M  V30 5367 H 498.392 -1.66194 -3.49166 0
M  V30 5368 H 500.081 -2.08076 -3.4851 0
M  V30 5369 H 500.847 -4.26657 -2.30627 0
M  V30 5370 H 496.726 -3.37134 -3.14422 0
M  V30 5371 H 500.27 -6.65706 -2.08522 0
M  V30 5372 H 496.167 -5.75345 -2.92657 0
M  V30 5373 H 496.935 -7.78845 -2.5168 0
M  V30 5374 N 499.598 0.982988 -1.23187 0
M  V30 5375 C 501.014 1.2487 -0.993967 0
M  V30 5376 C 501.214 1.99155 0.306498 0
M  V30 5377 O 500.27 2.30688 1.0266 0
M  V30 5378 C 501.583 2.05078 -2.19917 0
M  V30 5379 C 503.131 2.18227 -2.2438 0
M  V30 5380 C 503.606 3.01825 -3.44479 0
M  V30 5381 N 505.097 3.09411 -3.44702 0
M  V30 5382 C 505.832 3.74412 -4.34285 0
M  V30 5383 N 505.328 4.41259 -5.341 0
M  V30 5384 N 507.121 3.71273 -4.22035 0
M  V30 5385 H 499.272 0.485253 -2.06783 0
M  V30 5386 H 501.535 0.276979 -0.906635 0
M  V30 5387 H 501.241 1.57867 -3.14279 0
M  V30 5388 H 501.115 3.05829 -2.2079 0
M  V30 5389 H 503.502 2.64648 -1.30559 0
M  V30 5390 H 503.583 1.16873 -2.2754 0
M  V30 5391 H 503.227 2.56102 -4.38605 0
M  V30 5392 H 503.157 4.03342 -3.38559 0
M  V30 5393 H 505.648 2.61845 -2.7248 0
M  V30 5394 H 505.961 4.88629 -5.98717 0
M  V30 5395 H 504.306 4.39975 -5.38002 0
M  V30 5396 H 507.497 3.18217 -3.43301 0
M  V30 5397 H 507.67 4.21649 -4.92053 0
M  V30 5398 N 501.076 1.04316 1.18135 0
M  V30 5399 C 502.322 0.749128 1.88457 0
M  V30 5400 C 502.655 -0.72149 1.803 0
M  V30 5401 O 501.93 -1.52676 1.205 0
M  V30 5402 C 502.213 1.21905 3.38838 0
M  V30 5403 C 502.066 2.75195 3.55792 0
M  V30 5404 C 503.385 0.811085 4.32561 0
M  V30 5405 H 500.504 0.273611 0.684329 0
M  V30 5406 H 503.146 1.29561 1.38975 0
M  V30 5407 H 501.296 0.754137 3.8111 0
M  V30 5408 H 502.968 3.29743 3.22595 0
M  V30 5409 H 501.211 3.14899 2.98364 0
M  V30 5410 H 501.882 3.03135 4.61317 0
M  V30 5411 H 504.358 1.21118 3.98082 0
M  V30 5412 H 503.234 1.16761 5.36338 0
M  V30 5413 H 503.495 -0.285596 4.41177 0
M  V30 5414 N 502.554 -1.34406 0.822964 0
M  V30 5415 C 503.501 -2.29519 0.24284 0
M  V30 5416 C 504.471 -1.5359 -0.632397 0
M  V30 5417 O 505.656 -1.8196 -0.57403 0
M  V30 5418 C 502.796 -3.40032 -0.58925 0
M  V30 5419 C 501.909 -4.30899 0.308236 0
M  V30 5420 C 501.044 -5.28515 -0.533425 0
M  V30 5421 C 500.083 -6.1102 0.363444 0
M  V30 5422 N 499.22 -7.00725 -0.439147 0
M  V30 5423 H 504.06 -2.78537 1.05929 0
M  V30 5424 H 501.597 -1.3707 0.533872 0
M  V30 5425 H 503.555 -4.0279 -1.087 0
M  V30 5426 H 502.185 -2.92248 -1.37081 0
M  V30 5427 H 501.237 -3.69002 0.924203 0
M  V30 5428 H 502.549 -4.88717 0.997862 0
M  V30 5429 H 501.703 -5.96725 -1.09565 0
M  V30 5430 H 500.442 -4.71235 -1.25656 0
M  V30 5431 H 499.447 -5.41743 0.937812 0
M  V30 5432 H 500.672 -6.70381 1.08469 0
M  V30 5433 H 498.618 -6.45913 -1.14595 0
M  V30 5434 H 498.535 -7.55756 0.19209 0
M  V30 5435 H 499.803 -7.73263 -0.984124 0
M  V30 5436 N 504.032 -0.577932 -1.46621 0
M  V30 5437 C 505.278 -0.0617793 -2.02706 0
M  V30 5438 C 505.611 1.29294 -1.44903 0
M  V30 5439 O 504.886 1.8461 -0.61232 0
M  V30 5440 C 505.169 0.00911824 -3.60099 0
M  V30 5441 C 505.022 -1.37416 -4.28295 0
M  V30 5442 C 506.341 0.712159 -4.343 0
M  V30 5443 H 503.46 -0.0239246 -0.736612 0
M  V30 5444 H 506.102 -0.744211 -1.74818 0
M  V30 5445 H 504.252 0.590292 -3.83989 0
M  V30 5446 H 505.924 -2.00013 -4.15683 0
M  V30 5447 H 504.167 -1.94319 -3.87843 0
M  V30 5448 H 504.838 -1.27707 -5.37024 0
M  V30 5449 H 507.314 0.218486 -4.15526 0
M  V30 5450 H 506.19 0.730782 -5.44014 0
M  V30 5451 H 506.451 1.77251 -4.05012 0
M  V30 5452 N 505.51 1.54411 -0.315457 0
M  V30 5453 C 506.759 1.99599 0.290395 0
M  V30 5454 C 507.072 1.20746 1.53882 0
M  V30 5455 O 508.278 1.56272 2.22017 0
M  V30 5456 C 506.734 3.5539 0.56797 0
M  V30 5457 C 506.342 4.43068 -0.662945 0
M  V30 5458 C 508.086 4.09067 1.13422 0
M  V30 5459 C 505.993 5.90317 -0.357722 0
M  V30 5460 H 504.923 0.745592 0.112286 0
M  V30 5461 H 507.574 1.78477 -0.426418 0
M  V30 5462 H 505.956 3.72468 1.34476 0
M  V30 5463 H 507.13 4.37765 -1.43869 0
M  V30 5464 H 505.445 4.00238 -1.14884 0
M  V30 5465 H 508.042 5.16663 1.37707 0
M  V30 5466 H 508.385 3.60552 2.08106 0
M  V30 5467 H 508.918 3.95589 0.418805 0
M  V30 5468 H 505.657 6.4301 -1.27351 0
M  V30 5469 H 505.177 5.98592 0.380472 0
M  V30 5470 H 506.856 6.4699 0.0354284 0
M  V30 5471 N 506.988 0.0434614 1.5754 0
M  V30 5472 C 508.265 -0.671479 1.83713 0
M  V30 5473 C 508.645 -1.89495 0.930315 0
M  V30 5474 O 507.993 -2.28498 -0.0105639 0
M  V30 5475 C 508.203 -1.0361 3.33266 0
M  V30 5476 C 509.551 -1.42167 4.00092 0
M  V30 5477 O 510.575 -1.12866 3.37846 0
M  V30 5478 O 509.434 -1.96817 5.09829 0
M  V30 5479 H 506.528 -0.330726 0.75799 0
M  V30 5480 H 509.074 0.0722373 1.69546 0
M  V30 5481 H 507.846 -0.165938 3.90948 0
M  V30 5482 H 507.469 -1.83751 3.52592 0
M  V30 5483 N 508.466 -1.55915 -0.229846 0
M  V30 5484 C 509.713 -1.78542 -0.955452 0
M  V30 5485 C 510.041 -0.610785 -1.84661 0
M  V30 5486 O 509.296 0.405213 -1.91459 0
M  V30 5487 C 509.595 -3.06845 -1.8325 0
M  V30 5488 C 509.261 -4.37395 -1.09528 0
M  V30 5489 C 507.923 -4.72868 -0.891598 0
M  V30 5490 C 510.275 -5.18029 -0.574046 0
M  V30 5491 C 507.603 -5.86496 -0.154655 0
M  V30 5492 C 509.955 -6.32423 0.149513 0
M  V30 5493 C 508.619 -6.66504 0.364519 0
M  V30 5494 H 507.889 -0.653333 -0.349625 0
M  V30 5495 H 510.536 -1.90183 -0.224235 0
M  V30 5496 H 508.841 -2.90291 -2.63132 0
M  V30 5497 H 510.538 -3.21553 -2.39592 0
M  V30 5498 H 507.128 -4.09538 -1.26399 0
M  V30 5499 H 511.312 -4.91066 -0.718899 0
M  V30 5500 H 506.568 -6.11396 0.0222356 0
M  V30 5501 H 510.742 -6.94137 0.560947 0
M  V30 5502 H 508.369 -7.54397 0.937495 0
M  V30 5503 N 509.944 0.496216 -1.49584 0
M  V30 5504 C 511.192 1.24756 -1.58998 0
M  V30 5505 C 511.513 1.92968 -0.280775 0
M  V30 5506 O 510.783 1.82959 0.700198 0
M  V30 5507 H 509.363 0.463471 -0.585836 0
M  V30 5508 H 512.025 0.574678 -1.86235 0
M  V30 5509 H 511.121 2.00895 -2.38847 0
M  V30 5510 N 511.423 1.38739 0.74761 0
M  V30 5511 C 512.648 1.38702 1.54197 0
M  V30 5512 C 513.073 -0.019664 1.8809 0
M  V30 5513 O 512.431 -1.00333 1.51006 0
M  V30 5514 C 512.479 2.25492 2.814 0
M  V30 5515 O 511.583 1.67613 3.76802 0
M  V30 5516 H 510.924 0.472863 0.466151 0
M  V30 5517 H 513.454 1.82577 0.923413 0
M  V30 5518 H 513.464 2.39561 3.30264 0
M  V30 5519 H 512.139 3.27727 2.56062 0
M  V30 5520 H 510.716 1.62718 3.35526 0
M  V30 5521 N 512.901 -0.976442 1.23707 0
M  V30 5522 C 513.864 -2.0511 1.02287 0
M  V30 5523 C 514.864 -1.60791 -0.0167195 0
M  V30 5524 O 516.054 -1.72761 0.223408 0
M  V30 5525 C 513.186 -3.36458 0.548507 0
M  V30 5526 H 514.379 -2.25545 1.9766 0
M  V30 5527 H 511.932 -1.15042 1.05806 0
M  V30 5528 H 512.667 -3.21713 -0.408818 0
M  V30 5529 H 512.452 -3.69967 1.29874 0
M  V30 5530 H 513.942 -4.15489 0.419406 0
M  V30 5531 N 514.379 -1.04941 -1.1758 0
M  V30 5532 C 515.604 -0.778253 -1.92245 0
M  V30 5533 C 516.029 0.659707 -1.76152 0
M  V30 5534 O 515.387 1.45803 -1.07755 0
M  V30 5535 C 515.435 -1.16051 -3.41416 0
M  V30 5536 O 514.539 -0.291153 -4.11371 0
M  V30 5537 H 513.88 -0.285619 -0.599431 0
M  V30 5538 H 516.41 -1.40159 -1.49052 0
M  V30 5539 H 516.42 -1.12619 -3.92149 0
M  V30 5540 H 515.095 -2.208 -3.52449 0
M  V30 5541 H 513.672 -0.385851 -3.70898 0
M  V30 5542 N 515.857 1.33968 -0.830081 0
M  V30 5543 C 516.807 2.26845 -0.229242 0
M  V30 5544 C 517.791 1.48862 0.610659 0
M  V30 5545 O 518.983 1.70808 0.464067 0
M  V30 5546 C 516.112 3.3798 0.602057 0
M  V30 5547 C 515.198 4.23369 -0.248866 0
M  V30 5548 N 515.589 4.88182 -1.32334 0
M  V30 5549 C 513.887 4.45987 -0.0344077 0
M  V30 5550 C 514.588 5.51671 -1.84482 0
M  V30 5551 N 513.564 5.31348 -1.14762 0
M  V30 5552 H 517.366 2.74464 -1.05104 0
M  V30 5553 H 514.88 1.4777 -0.673623 0
M  V30 5554 H 516.877 4.03494 1.04873 0
M  V30 5555 H 515.537 2.9191 1.42193 0
M  V30 5556 H 516.548 4.88988 -1.70619 0
M  V30 5557 H 513.225 4.10658 0.752727 0
M  V30 5558 H 514.615 6.13308 -2.74413 0
M  V30 5559 N 517.335 0.585699 1.46312 0
M  V30 5560 C 518.581 0.0725284 2.0267 0
M  V30 5561 C 518.914 -1.28523 1.45586 0
M  V30 5562 O 518.189 -1.84283 0.622101 0
M  V30 5563 C 518.472 0.0099788 3.60099 0
M  V30 5564 C 518.325 1.39685 4.27561 0
M  V30 5565 C 519.644 -0.689117 4.34671 0
M  V30 5566 H 516.763 0.0278307 0.736474 0
M  V30 5567 H 519.405 0.753472 1.74421 0
M  V30 5568 H 517.555 -0.56992 3.84297 0
M  V30 5569 H 519.227 2.02215 4.14617 0
M  V30 5570 H 517.47 1.96374 3.86807 0
M  V30 5571 H 518.141 1.30553 5.36339 0
M  V30 5572 H 520.617 -0.196446 4.15636 0
M  V30 5573 H 519.493 -0.701921 5.44393 0
M  V30 5574 H 519.754 -1.75101 4.05946 0
M  V30 5575 N 518.813 -1.54241 0.323641 0
M  V30 5576 C 520.038 -2.05452 -0.283605 0
M  V30 5577 C 520.463 -1.19823 -1.44997 0
M  V30 5578 O 519.821 -0.207358 -1.8011 0
M  V30 5579 C 519.869 -3.53823 -0.695795 0
M  V30 5580 O 518.973 -3.71134 -1.79815 0
M  V30 5581 H 518.314 -0.662024 -0.0511917 0
M  V30 5582 H 520.844 -1.99079 0.472073 0
M  V30 5583 H 520.854 -3.96094 -0.978434 0
M  V30 5584 H 519.529 -4.15602 0.157287 0
M  V30 5585 H 518.106 -3.40768 -1.51431 0
M  V30 5586 N 520.291 -0.0518155 -1.57515 0
M  V30 5587 C 521.238 0.922352 -2.11569 0
M  V30 5588 C 522.208 1.30842 -1.02321 0
M  V30 5589 O 523.393 1.39778 -1.29872 0
M  V30 5590 C 520.533 2.19167 -2.6657 0
M  V30 5591 C 519.646 1.86003 -3.89906 0
M  V30 5592 C 518.781 3.07398 -4.33221 0
M  V30 5593 C 517.82 2.70158 -5.49255 0
M  V30 5594 N 516.957 3.84248 -5.8762 0
M  V30 5595 H 521.797 0.454506 -2.94514 0
M  V30 5596 H 519.334 0.212718 -1.45554 0
M  V30 5597 H 521.292 2.93443 -2.96559 0
M  V30 5598 H 519.922 2.63528 -1.86421 0
M  V30 5599 H 518.974 1.01874 -3.66505 0
M  V30 5600 H 520.286 1.54592 -4.74239 0
M  V30 5601 H 519.44 3.89972 -4.64765 0
M  V30 5602 H 518.179 3.41988 -3.477 0
M  V30 5603 H 517.184 1.86001 -5.17382 0
M  V30 5604 H 518.409 2.36759 -6.36492 0
M  V30 5605 H 516.355 4.18638 -5.05053 0
M  V30 5606 H 516.272 3.56538 -6.66646 0
M  V30 5607 H 517.54 4.6746 -6.2378 0
M  V30 5608 N 521.769 1.56035 0.221574 0
M  V30 5609 C 522.997 1.8313 0.962864 0
M  V30 5610 C 523.412 0.630934 1.77946 0
M  V30 5611 O 522.769 -0.400519 1.78051 0
M  V30 5612 C 522.82 3.08742 1.88045 0
M  V30 5613 O 522.541 4.24147 1.09686 0
M  V30 5614 C 524.042 3.48824 2.73563 0
M  V30 5615 H 521.262 0.608775 0.282194 0
M  V30 5616 H 523.806 2.03124 0.23681 0
M  V30 5617 H 521.961 2.90723 2.56045 0
M  V30 5618 H 522.375 4.95505 1.71974 0
M  V30 5619 H 523.849 4.39752 3.3365 0
M  V30 5620 H 524.326 2.70575 3.45956 0
M  V30 5621 H 524.932 3.69282 2.10976 0
M  V30 5622 N 523.247 -0.488276 1.49845 0
M  V30 5623 C 524.493 -1.24341 1.6021 0
M  V30 5624 C 524.826 -1.91967 0.293651 0
M  V30 5625 O 524.101 -1.81323 -0.703718 0
M  V30 5626 C 524.384 -2.3005 2.77036 0
M  V30 5627 C 524.237 -1.66842 4.17713 0
M  V30 5628 C 525.556 -3.31509 2.89464 0
M  V30 5629 H 522.675 -0.450704 0.583125 0
M  V30 5630 H 525.317 -0.539673 1.82174 0
M  V30 5631 H 523.467 -2.90071 2.58439 0
M  V30 5632 H 525.139 -1.1055 4.47858 0
M  V30 5633 H 523.382 -0.972079 4.22768 0
M  V30 5634 H 524.053 -2.43576 4.95353 0
M  V30 5635 H 526.529 -2.81493 3.06433 0
M  V30 5636 H 525.405 -4.02822 3.72861 0
M  V30 5637 H 525.666 -3.94603 1.99351 0
M  V30 5638 N 524.725 -1.39134 -0.740242 0
M  V30 5639 C 525.965 -1.37499 -1.51239 0
M  V30 5640 C 526.329 0.0310084 -1.91975 0
M  V30 5641 O 527.53 0.172319 -2.68247 0
M  V30 5642 C 525.801 -2.31566 -2.72235 0
M  V30 5643 S 527.36 -2.48073 -3.61947 0
M  V30 5644 H 524.178 -0.48768 -0.517387 0
M  V30 5645 H 526.78 -1.75183 -0.867826 0
M  V30 5646 H 525.484 -3.32592 -2.40439 0
M  V30 5647 H 525.015 -1.9508 -3.41625 0
M  V30 5648 H 527.03 -1.71473 -4.6563 0
M  V30 5649 N 526.204 0.969867 -1.24223 0
M  V30 5650 C 527.429 1.75289 -1.10853 0
M  V30 5651 C 527.854 1.85091 0.335079 0
M  V30 5652 O 527.212 1.32024 1.24255 0
M  V30 5653 C 527.26 3.15255 -1.75062 0
M  V30 5654 O 526.364 3.99589 -1.01992 0
M  V30 5655 H 525.705 0.538904 -0.387915 0
M  V30 5656 H 528.235 1.21675 -1.64488 0
M  V30 5657 H 528.245 3.65787 -1.80731 0
M  V30 5658 H 526.92 3.07436 -2.801 0
M  V30 5659 H 525.497 3.58077 -1.04094 0
M  V30 5660 N 527.682 1.05563 1.17022 0
M  V30 5661 C 528.91 0.78845 1.91288 0
M  V30 5662 C 529.325 -0.656318 1.77025 0
M  V30 5663 O 528.682 -1.44869 1.10992 0
M  V30 5664 C 528.733 1.16444 3.42232 0
M  V30 5665 O 528.454 2.5525 3.5606 0
M  V30 5666 C 529.955 0.923937 4.33565 0
M  V30 5667 H 527.175 0.286389 0.606813 0
M  V30 5668 H 529.719 1.4073 1.48375 0
M  V30 5669 H 527.874 0.590266 3.82877 0
M  V30 5670 H 528.288 2.70097 4.49609 0
M  V30 5671 H 529.762 1.23672 5.37968 0
M  V30 5672 H 530.239 -0.140688 4.38975 0
M  V30 5673 H 530.845 1.48214 3.98639 0
M  V30 5674 N 529.16 -1.33526 0.837174 0
M  V30 5675 C 530.39 -2.01754 0.444848 0
M  V30 5676 C 530.798 -1.63149 -0.958072 0
M  V30 5677 O 530.141 -0.839827 -1.63379 0
M  V30 5678 C 530.203 -3.56228 0.483917 0
M  V30 5679 C 529.867 -4.18205 1.84265 0
M  V30 5680 C 530.864 -4.37699 2.80563 0
M  V30 5681 C 528.549 -4.54667 2.13503 0
M  V30 5682 C 530.543 -4.928 4.04261 0
M  V30 5683 C 528.23 -5.09475 3.37458 0
M  V30 5684 C 529.228 -5.28488 4.32654 0
M  V30 5685 O 528.916 -5.82132 5.54417 0
M  V30 5686 H 528.648 -0.652928 0.175104 0
M  V30 5687 H 531.202 -1.71469 1.13082 0
M  V30 5688 H 529.432 -3.85833 -0.258826 0
M  V30 5689 H 531.121 -4.05752 0.109653 0
M  V30 5690 H 531.887 -4.0988 2.59274 0
M  V30 5691 H 527.766 -4.39164 1.40201 0
M  V30 5692 H 531.31 -5.07555 4.78574 0
M  V30 5693 H 527.207 -5.36725 3.58604 0
M  V30 5694 H 527.975 -6.00548 5.56133 0
M  V30 5695 N 530.638 -0.59345 -1.46 0
M  V30 5696 C 531.568 0.121192 -2.33185 0
M  V30 5697 C 532.549 0.872977 -1.4599 0
M  V30 5698 O 533.734 0.846321 -1.74789 0
M  V30 5699 C 530.864 1.12844 -3.28456 0
M  V30 5700 C 529.818 0.4908 -4.25177 0
M  V30 5701 C 529.144 1.60529 -5.10034 0
M  V30 5702 C 530.444 -0.578949 -5.19081 0
M  V30 5703 H 532.138 -0.606767 -2.93187 0
M  V30 5704 H 529.684 -0.293242 -1.40983 0
M  V30 5705 H 531.637 1.63684 -3.88311 0
M  V30 5706 H 530.361 1.88681 -2.66584 0
M  V30 5707 H 529.02 0.00339328 -3.666 0
M  V30 5708 H 528.668 2.35359 -4.44539 0
M  V30 5709 H 528.368 1.18422 -5.75543 0
M  V30 5710 H 529.892 2.11623 -5.72755 0
M  V30 5711 H 531.306 -0.155199 -5.7309 0
M  V30 5712 H 529.703 -0.920947 -5.92991 0
M  V30 5713 H 530.773 -1.46109 -4.62364 0
M  V30 5714 N 532.116 1.54067 -0.331816 0
M  V30 5715 C 533.048 2.22139 0.564538 0
M  V30 5716 C 534.061 1.22408 1.07332 0
M  V30 5717 O 535.25 1.4883 0.985481 0
M  V30 5718 C 532.35 2.87876 1.78831 0
M  V30 5719 C 531.523 4.13817 1.41682 0
M  V30 5720 C 530.582 4.63072 2.49901 0
M  V30 5721 O 529.608 5.27562 2.13699 0
M  V30 5722 N 530.81 4.38001 3.80967 0
M  V30 5723 H 533.575 2.99694 -0.0183736 0
M  V30 5724 H 531.136 1.61153 -0.155396 0
M  V30 5725 H 533.128 3.17747 2.50637 0
M  V30 5726 H 531.698 2.13977 2.27887 0
M  V30 5727 H 530.918 3.9062 0.530044 0
M  V30 5728 H 532.206 4.95762 1.14443 0
M  V30 5729 H 531.604 3.864 4.13173 0
M  V30 5730 H 530.161 4.72507 4.48977 0
M  V30 5731 N 533.594 0.0601682 1.57485 0
M  V30 5732 C 534.819 -0.624416 1.97777 0
M  V30 5733 C 535.244 -1.63051 0.937867 0
M  V30 5734 O 534.602 -1.81036 -0.0978845 0
M  V30 5735 C 534.65 -1.27979 3.37126 0
M  V30 5736 O 533.754 -2.39556 3.35688 0
M  V30 5737 H 533.095 -0.161581 0.64404 0
M  V30 5738 H 535.625 0.131237 2.04179 0
M  V30 5739 H 535.635 -1.62937 3.74053 0
M  V30 5740 H 534.31 -0.542501 4.12347 0
M  V30 5741 H 532.887 -2.06478 3.10517 0
M  V30 5742 N 535.072 -1.5615 -0.213296 0
M  V30 5743 C 536.488 -1.49327 -0.56336 0
M  V30 5744 C 536.688 -0.756826 -1.86747 0
M  V30 5745 O 535.744 -0.299866 -2.50713 0
M  V30 5746 C 537.057 -2.9392 -0.634944 0
M  V30 5747 C 538.605 -3.04487 -0.725013 0
M  V30 5748 C 539.08 -4.50456 -0.82787 0
M  V30 5749 N 540.571 -4.54533 -0.891876 0
M  V30 5750 C 541.306 -5.64766 -0.991315 0
M  V30 5751 N 540.802 -6.84733 -1.05419 0
M  V30 5752 N 542.595 -5.52637 -1.02709 0
M  V30 5753 H 534.746 -2.02453 0.642366 0
M  V30 5754 H 537.009 -0.920548 0.226487 0
M  V30 5755 H 536.715 -3.50783 0.253859 0
M  V30 5756 H 536.589 -3.46274 -1.49579 0
M  V30 5757 H 538.976 -2.47685 -1.60425 0
M  V30 5758 H 539.057 -2.55289 0.161669 0
M  V30 5759 H 538.701 -5.07878 0.0469464 0
M  V30 5760 H 538.631 -4.97369 -1.73009 0
M  V30 5761 H 541.122 -3.68141 -0.85327 0
M  V30 5762 H 541.435 -7.64493 -1.13007 0
M  V30 5763 H 539.78 -6.87427 -1.02318 0
M  V30 5764 H 542.971 -4.5784 -0.974687 0
M  V30 5765 H 543.144 -6.38576 -1.10113 0
M  V30 5766 N 536.55 0.480323 -1.50102 0
M  V30 5767 C 537.78 1.25475 -1.64133 0
M  V30 5768 C 538.188 1.8647 -0.320272 0
M  V30 5769 O 537.531 1.69561 0.70673 0
M  V30 5770 C 537.593 2.40996 -2.6676 0
M  V30 5771 C 537.257 2.00711 -4.10565 0
M  V30 5772 C 538.254 1.53492 -4.96725 0
M  V30 5773 C 535.939 2.09714 -4.56427 0
M  V30 5774 C 537.933 1.15806 -6.26792 0
M  V30 5775 C 535.62 1.7164 -5.86501 0
M  V30 5776 C 536.618 1.24763 -6.71508 0
M  V30 5777 O 536.306 0.872122 -7.99155 0
M  V30 5778 H 536.038 0.385983 -0.554971 0
M  V30 5779 H 538.592 0.580848 -1.97016 0
M  V30 5780 H 536.822 3.11528 -2.291 0
M  V30 5781 H 538.511 3.02981 -2.70106 0
M  V30 5782 H 539.277 1.45966 -4.62514 0
M  V30 5783 H 535.156 2.4515 -3.90413 0
M  V30 5784 H 538.7 0.791465 -6.93096 0
M  V30 5785 H 534.597 1.78822 -6.20236 0
M  V30 5786 H 535.365 1.00178 -8.12346 0
M  V30 5787 N 538.028 1.39524 0.732853 0
M  V30 5788 C 539.258 1.3994 1.51988 0
M  V30 5789 C 539.666 -0.00727973 1.89199 0
M  V30 5790 O 539.009 -0.989521 1.54771 0
M  V30 5791 C 539.071 2.21026 2.83527 0
M  V30 5792 C 538.735 3.69633 2.68738 0
M  V30 5793 C 539.732 4.62665 2.37143 0
M  V30 5794 C 537.417 4.13244 2.85542 0
M  V30 5795 C 539.411 5.97291 2.22536 0
M  V30 5796 C 537.098 5.47945 2.70554 0
M  V30 5797 C 538.096 6.39783 2.39097 0
M  V30 5798 O 537.784 7.72002 2.24204 0
M  V30 5799 H 537.516 0.479795 0.476206 0
M  V30 5800 H 540.07 1.8399 0.913054 0
M  V30 5801 H 538.3 1.71728 3.46477 0
M  V30 5802 H 539.989 2.13594 3.45156 0
M  V30 5803 H 540.755 4.30272 2.2381 0
M  V30 5804 H 536.634 3.42094 3.09019 0
M  V30 5805 H 540.178 6.68939 1.97905 0
M  V30 5806 H 536.075 5.79928 2.83466 0
M  V30 5807 H 536.843 7.8275 2.39258 0
M  V30 5808 N 539.506 -0.963266 1.24736 0
M  V30 5809 C 540.922 -1.23273 1.01371 0
M  V30 5810 C 541.122 -1.99618 -0.274776 0
M  V30 5811 O 540.178 -2.32293 -0.989769 0
M  V30 5812 C 541.491 -2.01554 2.23152 0
M  V30 5813 C 543.039 -2.14629 2.27823 0
M  V30 5814 C 543.514 -2.96307 3.49237 0
M  V30 5815 N 545.005 -3.03887 3.49581 0
M  V30 5816 C 545.74 -3.67456 4.40186 0
M  V30 5817 N 545.236 -4.32706 5.41052 0
M  V30 5818 N 547.029 -3.64511 4.27888 0
M  V30 5819 H 539.18 -0.452294 2.07528 0
M  V30 5820 H 541.443 -0.262521 0.910926 0
M  V30 5821 H 541.149 -1.52847 3.1675 0
M  V30 5822 H 541.023 -3.02278 2.25628 0
M  V30 5823 H 543.41 -2.62537 1.34753 0
M  V30 5824 H 543.491 -1.13238 2.2937 0
M  V30 5825 H 543.135 -2.49091 4.42624 0
M  V30 5826 H 543.065 -3.97905 3.44933 0
M  V30 5827 H 545.556 -2.57477 2.76611 0
M  V30 5828 H 545.869 -4.79042 6.06415 0
M  V30 5829 H 544.214 -4.31361 5.44934 0
M  V30 5830 H 547.405 -3.12715 3.4832 0
M  V30 5831 H 547.578 -4.13768 4.98698 0
M  V30 5832 N 540.985 -1.06182 -1.16461 0
M  V30 5833 C 541.948 -0.675723 -2.19013 0
M  V30 5834 C 542.948 0.277963 -1.58379 0
M  V30 5835 O 544.138 0.0604962 -1.74095 0
M  V30 5836 C 541.27 0.00591459 -3.40899 0
M  V30 5837 H 542.463 -1.58353 -2.54685 0
M  V30 5838 H 540.016 -0.856908 -1.30716 0
M  V30 5839 H 540.751 0.92652 -3.10783 0
M  V30 5840 H 540.536 -0.67984 -3.86161 0
M  V30 5841 H 542.026 0.26181 -4.16778 0
M  V30 5842 N 542.463 1.3308 -0.844243 0
M  V30 5843 C 543.874 1.7992 -0.498566 0
M  V30 5844 C 544.225 1.69808 0.982834 0
M  V30 5845 O 543.35 1.25051 1.7661 0
M  V30 5846 C 543.945 3.26677 -0.898204 0
M  V30 5847 C 542.504 3.71513 -0.604583 0
M  V30 5848 C 541.651 2.54393 -1.10362 0
M  V30 5849 H 544.602 1.20526 -1.03244 0
M  V30 5850 H 544.623 3.79918 -0.21039 0
M  V30 5851 H 544.135 3.34004 -1.97643 0
M  V30 5852 H 542.236 3.69708 0.46335 0
M  V30 5853 H 542.349 4.64755 -1.16358 0
M  V30 5854 H 540.713 2.49246 -0.524273 0
M  V30 5855 H 541.496 2.6448 -2.18873 0
M  V30 5856 N 543.941 0.601185 1.45683 0
M  V30 5857 C 544.851 -0.123395 2.34275 0
M  V30 5858 C 545.867 -0.86702 1.5086 0
M  V30 5859 O 547.043 -0.826049 1.8368 0
M  V30 5860 C 544.108 -1.11237 3.2837 0
M  V30 5861 C 543.169 -0.371405 4.2769 0
M  V30 5862 C 542.402 -1.31327 5.1729 0
M  V30 5863 O 542.625 -2.55078 5.10188 0
M  V30 5864 O 541.559 -0.813811 5.96373 0
M  V30 5865 H 545.385 0.604483 2.97623 0
M  V30 5866 H 542.97 0.361477 1.44961 0
M  V30 5867 H 544.852 -1.68214 3.8637 0
M  V30 5868 H 543.527 -1.82139 2.67595 0
M  V30 5869 H 542.434 0.24067 3.73325 0
M  V30 5870 H 543.767 0.296998 4.91303 0
M  V30 5871 N 545.419 -1.53889 0.339982 0
M  V30 5872 C 546.668 -2.00035 -0.258604 0
M  V30 5873 C 546.981 -1.23179 -1.51942 0
M  V30 5874 O 548.187 -1.59784 -2.19503 0
M  V30 5875 C 546.643 -3.56249 -0.511359 0
M  V30 5876 C 546.251 -4.41957 0.733349 0
M  V30 5877 C 547.995 -4.1082 -1.069 0
M  V30 5878 C 545.902 -5.89673 0.451591 0
M  V30 5879 H 544.832 -0.747284 -0.10041 0
M  V30 5880 H 547.483 -1.77776 0.454758 0
M  V30 5881 H 545.865 -3.7456 -1.28533 0
M  V30 5882 H 547.039 -4.35421 1.50815 0
M  V30 5883 H 545.354 -3.9836 1.21237 0
M  V30 5884 H 547.951 -5.18789 -1.2947 0
M  V30 5885 H 548.294 -3.63817 -2.02343 0
M  V30 5886 H 548.827 -3.96205 -0.355817 0
M  V30 5887 H 545.566 -6.40903 1.37565 0
M  V30 5888 H 545.086 -5.99122 -0.285193 0
M  V30 5889 H 546.765 -6.46965 0.0675067 0
M  V30 5890 N 546.897 -0.0685191 -1.57451 0
M  V30 5891 C 548.146 0.600898 -1.92541 0
M  V30 5892 C 548.459 1.70967 -0.950239 0
M  V30 5893 O 549.665 2.43844 -1.19384 0
M  V30 5894 C 548.121 1.12019 -3.42023 0
M  V30 5895 C 547.729 0.0426028 -4.4798 0
M  V30 5896 C 549.473 1.76386 -3.86119 0
M  V30 5897 C 547.38 0.575759 -5.88591 0
M  V30 5898 H 546.31 0.228225 -0.71863 0
M  V30 5899 H 548.961 -0.140223 -1.82963 0
M  V30 5900 H 547.343 1.91418 -3.46663 0
M  V30 5901 H 548.517 -0.73182 -4.54952 0
M  V30 5902 H 546.832 -0.504642 -4.13331 0
M  V30 5903 H 549.429 2.17302 -4.88553 0
M  V30 5904 H 549.772 2.62255 -3.23308 0
M  V30 5905 H 550.305 1.03615 -3.84069 0
M  V30 5906 H 547.044 -0.245691 -6.55039 0
M  V30 5907 H 546.564 1.31778 -5.85145 0
M  V30 5908 H 548.243 1.0532 -6.3837 0
M  V30 5909 N 548.375 1.56261 0.205012 0
M  V30 5910 C 549.305 1.96779 1.257 0
M  V30 5911 C 550.286 0.838309 1.48008 0
M  V30 5912 O 551.471 1.10189 1.59913 0
M  V30 5913 C 548.601 2.29876 2.60335 0
M  V30 5914 C 547.555 3.45469 2.52656 0
M  V30 5915 C 546.881 3.64215 3.91473 0
M  V30 5916 C 548.181 4.79954 2.06014 0
M  V30 5917 H 549.875 2.84904 0.920338 0
M  V30 5918 H 547.421 1.37072 0.441277 0
M  V30 5919 H 549.374 2.56814 3.34102 0
M  V30 5920 H 548.098 1.38622 2.95722 0
M  V30 5921 H 546.757 3.18605 1.81345 0
M  V30 5922 H 546.405 2.70309 4.24196 0
M  V30 5923 H 546.105 4.41973 3.87213 0
M  V30 5924 H 547.629 3.93519 4.66878 0
M  V30 5925 H 549.043 5.05989 2.69533 0
M  V30 5926 H 547.44 5.61111 2.12777 0
M  V30 5927 H 548.51 4.74201 1.01297 0
M  V30 5928 N 549.853 -0.472356 1.50355 0
M  V30 5929 C 551.101 -1.22211 1.60962 0
M  V30 5930 C 551.422 -1.92497 0.311439 0
M  V30 5931 O 550.692 -1.8405 -0.671002 0
M  V30 5932 H 549.272 -0.454092 0.593135 0
M  V30 5933 H 551.934 -0.544977 1.87126 0
M  V30 5934 H 551.03 -1.9707 2.42012 0
M  V30 5935 N 551.331 -1.39911 -0.725443 0
M  V30 5936 C 552.261 -1.42138 -1.85254 0
M  V30 5937 C 553.242 -0.283513 -1.67721 0
M  V30 5938 O 554.427 -0.490717 -1.87898 0
M  V30 5939 C 551.557 -1.27354 -3.23107 0
M  V30 5940 C 550.511 -2.3864 -3.55296 0
M  V30 5941 C 549.837 -2.08939 -4.92188 0
M  V30 5942 C 551.137 -3.8097 -3.57295 0
M  V30 5943 H 552.831 -2.36461 -1.83648 0
M  V30 5944 H 550.377 -1.13817 -0.882138 0
M  V30 5945 H 552.33 -1.2753 -4.01639 0
M  V30 5946 H 551.054 -0.295025 -3.25265 0
M  V30 5947 H 549.713 -2.37696 -2.79099 0
M  V30 5948 H 549.361 -1.09502 -4.90936 0
M  V30 5949 H 549.061 -2.83491 -5.14691 0
M  V30 5950 H 550.585 -2.10781 -5.73065 0
M  V30 5951 H 551.999 -3.8379 -4.25885 0
M  V30 5952 H 550.396 -4.5496 -3.9132 0
M  V30 5953 H 551.466 -4.11261 -2.5689 0
M  V30 5954 N 552.809 0.956637 -1.25245 0
M  V30 5955 C 554.22 1.51569 -1.09012 0
M  V30 5956 C 554.571 1.93322 0.334813 0
M  V30 5957 O 553.696 1.78421 1.22454 0
M  V30 5958 C 554.291 2.75444 -1.97271 0
M  V30 5959 C 552.85 3.27669 -1.8523 0
M  V30 5960 C 551.997 2.00517 -1.91542 0
M  V30 5961 H 554.948 0.773746 -1.3856 0
M  V30 5962 H 554.969 3.4919 -1.51151 0
M  V30 5963 H 554.481 2.45024 -3.00973 0
M  V30 5964 H 552.582 3.62914 -0.844045 0
M  V30 5965 H 552.695 3.9582 -2.69932 0
M  V30 5966 H 551.059 2.15727 -1.35404 0
M  V30 5967 H 551.842 1.72448 -2.96844 0
M  V30 5968 N 554.287 1.06798 1.15896 0
M  V30 5969 C 555.534 0.787767 1.86549 0
M  V30 5970 C 555.862 -0.685959 1.82002 0
M  V30 5971 O 555.117 -1.5188 1.23414 0
M  V30 5972 C 555.416 1.23414 3.35416 0
M  V30 5973 C 555.082 2.71285 3.6016 0
M  V30 5974 C 553.744 3.11676 3.66622 0
M  V30 5975 C 556.096 3.6676 3.7032 0
M  V30 5976 C 553.424 4.4637 3.8075 0
M  V30 5977 C 555.776 5.01209 3.8597 0
M  V30 5978 C 554.44 5.41229 3.90676 0
M  V30 5979 H 553.71 0.288264 0.682631 0
M  V30 5980 H 556.357 1.338 1.37003 0
M  V30 5981 H 554.662 0.60319 3.87129 0
M  V30 5982 H 556.359 0.994298 3.88477 0
M  V30 5983 H 552.949 2.39015 3.55767 0
M  V30 5984 H 557.133 3.36685 3.64633 0
M  V30 5985 H 552.389 4.76855 3.82648 0
M  V30 5986 H 556.563 5.75067 3.92773 0
M  V30 5987 H 554.19 6.45602 4.01375 0
M  V30 5988 N 555.766 -1.3263 0.851289 0
M  V30 5989 C 557.006 -1.99174 0.459266 0
M  V30 5990 C 557.37 -1.65913 -0.966273 0
M  V30 5991 O 558.571 -2.2552 -1.46267 0
M  V30 5992 C 556.842 -3.50721 0.687698 0
M  V30 5993 S 558.401 -4.37039 0.392746 0
M  V30 5994 H 555.219 -0.689832 0.172199 0
M  V30 5995 H 557.821 -1.61395 1.10327 0
M  V30 5996 H 556.525 -3.72417 1.72435 0
M  V30 5997 H 556.056 -3.93389 0.0299949 0
M  V30 5998 H 558.071 -4.8999 -0.782578 0
M  V30 5999 N 557.244 -0.608902 -1.45362 0
M  V30 6000 C 558.154 0.110969 -2.34337 0
M  V30 6001 C 559.17 0.859007 -1.51318 0
M  V30 6002 O 560.346 0.816296 -1.84116 0
M  V30 6003 C 557.411 1.09494 -3.28956 0
M  V30 6004 C 556.472 0.348718 -4.27881 0
M  V30 6005 C 555.705 1.28582 -5.17979 0
M  V30 6006 O 555.928 2.52369 -5.11533 0
M  V30 6007 O 554.862 0.782172 -5.96796 0
M  V30 6008 H 558.688 -0.620258 -2.97299 0
M  V30 6009 H 556.273 -0.36916 -1.44767 0
M  V30 6010 H 558.155 1.66163 -3.87257 0
M  V30 6011 H 556.83 1.80717 -2.68557 0
M  V30 6012 H 555.737 -0.260465 -3.73192 0
M  V30 6013 H 557.07 -0.323049 -4.91139 0
M  V30 6014 N 558.722 1.53707 -0.348139 0
M  V30 6015 C 559.685 2.23812 0.494058 0
M  V30 6016 C 560.685 1.23989 1.02388 0
M  V30 6017 O 561.875 1.48395 0.912396 0
M  V30 6018 C 559.007 2.96133 1.68872 0
M  V30 6019 H 560.2 2.99663 -0.119141 0
M  V30 6020 H 557.753 1.55983 -0.0995539 0
M  V30 6021 H 558.488 2.24481 2.34049 0
M  V30 6022 H 558.273 3.69357 1.31596 0
M  V30 6023 H 559.763 3.49475 2.28597 0
M  V30 6024 N 560.2 0.0768682 1.57412 0
M  V30 6025 C 561.449 -0.590679 1.92857 0
M  V30 6026 C 561.762 -1.70461 0.959293 0
M  V30 6027 O 562.968 -2.43207 1.20675 0
M  V30 6028 C 561.424 -1.10204 3.42612 0
M  V30 6029 C 561.032 -0.0188447 4.47996 0
M  V30 6030 C 562.776 -1.74336 3.87049 0
M  V30 6031 C 560.683 -0.544536 5.88888 0
M  V30 6032 H 559.613 -0.224411 0.71983 0
M  V30 6033 H 562.264 0.149924 1.82887 0
M  V30 6034 H 560.646 -1.89577 3.47673 0
M  V30 6035 H 561.82 0.755936 4.54557 0
M  V30 6036 H 560.135 0.526555 4.13057 0
M  V30 6037 H 562.732 -2.14708 4.89699 0
M  V30 6038 H 563.075 -2.60537 3.24694 0
M  V30 6039 H 563.608 -1.01577 3.84613 0
M  V30 6040 H 560.347 0.280426 6.549 0
M  V30 6041 H 559.867 -1.28673 5.85836 0
M  V30 6042 H 561.546 -1.01933 6.3892 0
M  V30 6043 N 561.678 -1.56367 -0.196722 0
M  V30 6044 C 562.955 -1.71359 -0.943159 0
M  V30 6045 C 563.335 -0.631192 -2.01443 0
M  V30 6046 O 562.683 0.358071 -2.25677 0
M  V30 6047 C 562.893 -3.13623 -1.53106 0
M  V30 6048 C 564.241 -3.73806 -2.01381 0
M  V30 6049 O 565.265 -3.16742 -1.62951 0
M  V30 6050 O 564.124 -4.73951 -2.7209 0
M  V30 6051 H 561.218 -0.698851 -0.442195 0
M  V30 6052 H 563.764 -1.68672 -0.186547 0
M  V30 6053 H 562.536 -3.83873 -0.758785 0
M  V30 6054 H 562.159 -3.20532 -2.35255 0
M  V30 6055 N 563.156 0.464375 -1.50603 0
M  V30 6056 C 564.089 1.58052 -1.64605 0
M  V30 6057 C 565.067 1.54914 -0.494016 0
M  V30 6058 O 566.251 1.74438 -0.714393 0
M  V30 6059 C 563.378 2.96634 -1.63481 0
M  V30 6060 C 562.424 3.17901 -2.84325 0
M  V30 6061 S 563.257 2.97083 -4.45536 0
M  V30 6062 C 564.413 4.37994 -4.47115 0
M  V30 6063 H 564.646 1.45937 -2.59017 0
M  V30 6064 H 562.179 0.652189 -1.39949 0
M  V30 6065 H 564.137 3.76527 -1.63517 0
M  V30 6066 H 562.798 3.06134 -0.702928 0
M  V30 6067 H 561.991 4.19158 -2.79862 0
M  V30 6068 H 561.593 2.45792 -2.81891 0
M  V30 6069 H 563.885 5.30743 -4.21091 0
M  V30 6070 H 564.828 4.47499 -5.48772 0
M  V30 6071 H 565.236 4.20386 -3.76743 0
M  V30 6072 N 564.634 1.40294 0.718013 0
M  V30 6073 C 565.88 1.39648 1.47885 0
M  V30 6074 C 566.235 -0.0023879 1.924 0
M  V30 6075 O 565.528 -0.972304 1.65096 0
M  V30 6076 C 565.722 2.31814 2.72024 0
M  V30 6077 C 565.551 3.80523 2.3965 0
M  V30 6078 C 564.321 4.49351 2.3111 0
M  V30 6079 C 566.519 4.72077 2.04079 0
M  V30 6080 N 564.501 5.83305 1.91385 0
M  V30 6081 C 565.872 5.94809 1.74935 0
M  V30 6082 C 567.927 4.59935 1.90694 0
M  V30 6083 C 566.63 7.06755 1.33753 0
M  V30 6084 C 568.656 5.7182 1.50915 0
M  V30 6085 C 568.018 6.93637 1.22668 0
M  V30 6086 H 564.117 0.566263 0.539324 0
M  V30 6087 H 566.701 1.75986 0.832891 0
M  V30 6088 H 564.872 1.97607 3.34374 0
M  V30 6089 H 566.604 2.22042 3.38348 0
M  V30 6090 H 563.359 4.03002 2.4877 0
M  V30 6091 H 563.783 6.54239 1.74068 0
M  V30 6092 H 568.425 3.66274 2.11194 0
M  V30 6093 H 566.143 8.00302 1.11995 0
M  V30 6094 H 569.729 5.64421 1.4114 0
M  V30 6095 H 568.609 7.78743 0.923502 0
M  V30 6096 N 566.112 -0.949982 1.2575 0
M  V30 6097 C 567.337 -1.73503 1.13628 0
M  V30 6098 C 567.762 -1.85601 -0.30559 0
M  V30 6099 O 567.12 -1.33984 -1.22139 0
M  V30 6100 C 567.168 -3.1243 1.80055 0
M  V30 6101 O 566.272 -3.97916 1.08336 0
M  V30 6102 H 565.613 -0.532665 0.396439 0
M  V30 6103 H 568.143 -1.19043 1.66403 0
M  V30 6104 H 568.153 -3.62866 1.86527 0
M  V30 6105 H 566.828 -3.02941 2.84956 0
M  V30 6106 H 565.405 -3.56375 1.09777 0
M  V30 6107 N 567.59 -1.07411 -1.15328 0
M  V30 6108 C 568.52 -0.716472 -2.22236 0
M  V30 6109 C 569.501 0.296373 -1.67498 0
M  V30 6110 O 570.686 0.168989 -1.93463 0
M  V30 6111 C 567.816 -0.114142 -3.47112 0
M  V30 6112 C 566.77 -1.05421 -4.14814 0
M  V30 6113 C 566.096 -0.314604 -5.33774 0
M  V30 6114 C 567.396 -2.38808 -4.64508 0
M  V30 6115 H 569.09 -1.61029 -2.52408 0
M  V30 6116 H 566.636 -0.775702 -1.21321 0
M  V30 6117 H 568.589 0.148001 -4.2114 0
M  V30 6118 H 567.313 0.814755 -3.16274 0
M  V30 6119 H 565.972 -1.30128 -3.42728 0
M  V30 6120 H 565.62 0.617772 -4.99192 0
M  V30 6121 H 565.32 -0.941209 -5.80013 0
M  V30 6122 H 566.844 -0.0602747 -6.1057 0
M  V30 6123 H 568.258 -2.18424 -5.3006 0
M  V30 6124 H 566.655 -2.97069 -5.21412 0
M  V30 6125 H 567.725 -3.01067 -3.80114 0
M  V30 6126 N 569.068 1.32177 -0.85831 0
M  V30 6127 C 570.316 1.96735 -0.462568 0
M  V30 6128 C 570.637 1.6824 0.985911 0
M  V30 6129 O 569.907 0.991564 1.68952 0
M  V30 6130 H 568.487 0.727849 -0.168064 0
M  V30 6131 H 571.149 1.61195 -1.09554 0
M  V30 6132 H 570.245 3.06068 -0.610647 0
M  V30 6133 N 570.547 0.616602 1.45037 0
M  V30 6134 C 571.787 0.118453 2.04056 0
M  V30 6135 C 572.151 -1.23104 1.47341 0
M  V30 6136 O 573.352 -1.82044 1.97771 0
M  V30 6137 C 571.623 0.0892842 3.57288 0
M  V30 6138 S 573.182 -0.346361 4.37431 0
M  V30 6139 H 570 0.0539728 0.708948 0
M  V30 6140 H 572.602 0.816731 1.77623 0
M  V30 6141 H 571.306 1.07481 3.96076 0
M  V30 6142 H 570.837 -0.630703 3.88311 0
M  V30 6143 H 572.852 -1.59389 4.69904 0
M  V30 6144 N 572.025 -1.5352 0.356285 0
M  V30 6145 C 573.271 -2.01414 -0.236653 0
M  V30 6146 C 573.604 -1.24339 -1.49176 0
M  V30 6147 O 572.879 -0.334496 -1.91602 0
M  V30 6148 C 573.162 -3.56059 -0.537982 0
M  V30 6149 C 573.015 -4.43835 0.730112 0
M  V30 6150 C 574.334 -4.19127 -1.34239 0
M  V30 6151 H 571.453 -0.732135 -0.0845386 0
M  V30 6152 H 574.095 -1.83854 0.479341 0
M  V30 6153 H 572.245 -3.71153 -1.14795 0
M  V30 6154 H 573.917 -4.40555 1.36782 0
M  V30 6155 H 572.16 -4.1218 1.3524 0
M  V30 6156 H 572.831 -5.49958 0.474358 0
M  V30 6157 H 575.307 -4.07809 -0.826498 0
M  V30 6158 H 574.183 -5.27378 -1.52198 0
M  V30 6159 H 574.444 -3.74581 -2.34822 0
M  V30 6160 N 573.503 -0.0852151 -1.57369 0
M  V30 6161 C 574.752 0.580443 -1.93168 0
M  V30 6162 C 575.065 1.6995 -0.968319 0
M  V30 6163 O 576.271 2.42564 -1.21963 0
M  V30 6164 C 574.727 1.08386 -3.43192 0
M  V30 6165 C 574.335 -0.00491388 -4.48 0
M  V30 6166 C 576.079 1.72281 -3.87968 0
M  V30 6167 C 573.986 0.513299 -5.89168 0
M  V30 6168 H 572.916 0.22059 -0.72101 0
M  V30 6169 H 575.567 -0.159621 -1.82804 0
M  V30 6170 H 573.949 1.8773 -3.48674 0
M  V30 6171 H 575.123 -0.780032 -4.5415 0
M  V30 6172 H 573.438 -0.548453 -4.12772 0
M  V30 6173 H 576.035 2.12108 -4.9083 0
M  V30 6174 H 576.378 2.58811 -3.26071 0
M  V30 6175 H 576.911 0.995359 -3.85146 0
M  V30 6176 H 573.65 -0.315153 -6.54742 0
M  V30 6177 H 573.17 1.25564 -5.8651 0
M  V30 6178 H 574.849 0.985433 -6.39451 0
M  V30 6179 N 574.981 1.5647 0.188427 0
M  V30 6180 C 575.944 1.9421 1.21718 0
M  V30 6181 C 576.944 0.823901 1.38089 0
M  V30 6182 O 578.134 1.09122 1.35787 0
M  V30 6183 C 575.266 2.22197 2.58537 0
M  V30 6184 H 576.459 2.86252 0.894418 0
M  V30 6185 H 574.012 1.50263 0.430211 0
M  V30 6186 H 574.747 1.32814 2.95856 0
M  V30 6187 H 574.532 3.03688 2.48025 0
M  V30 6188 H 576.022 2.52376 3.3271 0
M  V30 6189 N 576.459 -0.456382 1.50847 0
M  V30 6190 C 577.369 -1.57805 1.73594 0
M  V30 6191 C 578.385 -1.62599 0.619476 0
M  V30 6192 O 579.561 -1.80195 0.899532 0
M  V30 6193 C 576.626 -2.93926 1.8387 0
M  V30 6194 C 575.687 -2.99402 3.07663 0
M  V30 6195 C 574.92 -4.29031 3.1744 0
M  V30 6196 O 575.143 -5.20358 2.33631 0
M  V30 6197 O 574.077 -4.40401 4.10281 0
M  V30 6198 H 577.903 -1.41531 2.68705 0
M  V30 6199 H 575.488 -0.637422 1.3512 0
M  V30 6200 H 577.37 -3.74747 1.92725 0
M  V30 6201 H 576.045 -3.10368 0.91944 0
M  V30 6202 H 574.952 -2.17606 3.043 0
M  V30 6203 H 576.285 -2.87901 3.99216 0
M  V30 6204 N 577.937 -1.40673 -0.710563 0
M  V30 6205 C 578.867 -1.44095 -1.83736 0
M  V30 6206 C 579.848 -0.301286 -1.67411 0
M  V30 6207 O 581.033 -0.510618 -1.87367 0
M  V30 6208 C 578.163 -1.30773 -3.21738 0
M  V30 6209 C 577.117 -2.42395 -3.52745 0
M  V30 6210 C 576.443 -2.14147 -4.89944 0
M  V30 6211 C 577.743 -3.84738 -3.53234 0
M  V30 6212 H 579.437 -2.38396 -1.81129 0
M  V30 6213 H 576.983 -1.14746 -0.870017 0
M  V30 6214 H 578.936 -1.31783 -4.00264 0
M  V30 6215 H 577.66 -0.329507 -3.24934 0
M  V30 6216 H 576.319 -2.40643 -2.76562 0
M  V30 6217 H 575.967 -1.14703 -4.89747 0
M  V30 6218 H 575.667 -2.88934 -5.11655 0
M  V30 6219 H 577.191 -2.16848 -5.70797 0
M  V30 6220 H 578.605 -3.88286 -4.2179 0
M  V30 6221 H 577.002 -4.59085 -3.86473 0
M  V30 6222 H 578.072 -4.13962 -2.52514 0
M  V30 6223 N 579.415 0.9433 -1.26252 0
M  V30 6224 C 580.662 1.68925 -1.11672 0
M  V30 6225 C 580.99 1.91499 0.340329 0
M  V30 6226 O 580.245 1.49189 1.26653 0
M  V30 6227 C 580.544 3.07073 -1.82868 0
M  V30 6228 C 580.21 3.04262 -3.32769 0
M  V30 6229 C 578.872 3.03203 -3.7366 0
M  V30 6230 C 581.224 2.96729 -4.28487 0
M  V30 6231 C 578.552 2.92373 -5.0866 0
M  V30 6232 C 580.904 2.87442 -5.63525 0
M  V30 6233 C 579.568 2.84724 -6.03729 0
M  V30 6234 H 578.838 0.618141 -0.408635 0
M  V30 6235 H 581.485 1.10124 -1.56668 0
M  V30 6236 H 579.79 3.69486 -1.30335 0
M  V30 6237 H 581.487 3.63635 -1.69029 0
M  V30 6238 H 578.077 3.05865 -3.00241 0
M  V30 6239 H 582.261 2.96658 -3.97879 0
M  V30 6240 H 577.517 2.88645 -5.38975 0
M  V30 6241 H 581.691 2.80576 -6.37377 0
M  V30 6242 H 579.318 2.76089 -7.08293 0
M  V30 6243 N 580.893 1.08022 1.14757 0
M  V30 6244 C 581.823 0.728248 2.21853 0
M  V30 6245 C 582.804 -0.287486 1.67653 0
M  V30 6246 O 583.989 -0.158727 1.9355 0
M  V30 6247 C 581.119 0.132549 3.47047 0
M  V30 6248 C 580.073 1.07619 4.14249 0
M  V30 6249 C 579.399 0.342907 5.33599 0
M  V30 6250 C 580.699 2.41268 4.63235 0
M  V30 6251 H 582.393 1.62365 2.51551 0
M  V30 6252 H 579.939 0.782125 1.20908 0
M  V30 6253 H 581.892 -0.125665 4.21213 0
M  V30 6254 H 580.616 -0.797971 3.16702 0
M  V30 6255 H 579.275 1.31944 3.42033 0
M  V30 6256 H 578.923 -0.59129 4.99513 0
M  V30 6257 H 578.623 0.971955 5.79506 0
M  V30 6258 H 580.147 0.0926538 6.1053 0
M  V30 6259 H 581.561 2.21232 5.28894 0
M  V30 6260 H 579.958 2.9983 5.19829 0
M  V30 6261 H 581.028 3.03079 3.78512 0
M  V30 6262 N 582.371 -1.3172 0.865308 0
M  V30 6263 C 583.619 -1.96487 0.472995 0
M  V30 6264 C 583.94 -1.68761 -0.976975 0
M  V30 6265 O 583.21 -1.00051 -1.68424 0
M  V30 6266 H 581.79 -0.726947 0.171922 0
M  V30 6267 H 584.452 -1.60612 1.10407 0
M  V30 6268 H 583.548 -3.0574 0.62687 0
M  V30 6269 N 583.85 -0.624285 -1.44708 0
M  V30 6270 C 585.096 -0.13473 -2.02953 0
M  V30 6271 C 585.451 1.22724 -1.48178 0
M  V30 6272 O 584.744 1.80109 -0.653542 0
M  V30 6273 C 584.938 -0.0546353 -3.57358 0
M  V30 6274 C 584.767 -1.40729 -4.27113 0
M  V30 6275 C 583.537 -1.99231 -4.64365 0
M  V30 6276 C 585.735 -2.33968 -4.58 0
M  V30 6277 N 583.716 -3.27803 -5.19055 0
M  V30 6278 C 585.088 -3.47149 -5.137 0
M  V30 6279 C 587.143 -2.33132 -4.39948 0
M  V30 6280 C 585.846 -4.59682 -5.53249 0
M  V30 6281 C 587.872 -3.44724 -4.8054 0
M  V30 6282 C 587.234 -4.56629 -5.36348 0
M  V30 6283 H 583.332 -0.0930617 -0.776443 0
M  V30 6284 H 585.917 -0.826286 -1.76297 0
M  V30 6285 H 584.088 0.606183 -3.8364 0
M  V30 6286 H 585.82 0.443116 -4.02267 0
M  V30 6287 H 582.575 -1.52251 -4.4846 0
M  V30 6288 H 582.999 -3.93519 -5.50883 0
M  V30 6289 H 587.641 -1.47868 -3.961 0
M  V30 6290 H 585.359 -5.4566 -5.96054 0
M  V30 6291 H 588.945 -3.45245 -4.68291 0
M  V30 6292 H 587.825 -5.41551 -5.67179 0
M  V30 6293 N 585.328 1.53329 -0.364422 0
M  V30 6294 C 586.739 1.86345 0.115039 0
M  V30 6295 C 587.09 1.28505 1.4826 0
M  V30 6296 O 586.215 0.606639 2.07723 0
M  V30 6297 C 586.81 3.38114 0.215522 0
M  V30 6298 C 585.369 3.70932 0.639237 0
M  V30 6299 C 584.516 2.76471 -0.214261 0
M  V30 6300 H 587.467 1.47593 -0.583258 0
M  V30 6301 H 587.488 3.66031 1.0393 0
M  V30 6302 H 587 3.80182 -0.779948 0
M  V30 6303 H 585.101 3.3442 1.64298 0
M  V30 6304 H 585.214 4.77302 0.41465 0
M  V30 6305 H 583.578 2.52724 0.316678 0
M  V30 6306 H 584.361 3.21373 -1.20725 0
M  V30 6307 N 586.806 0.0935595 1.57322 0
M  V30 6308 C 587.736 -0.863062 2.16964 0
M  V30 6309 C 588.717 -1.29528 1.10256 0
M  V30 6310 O 589.902 -1.36245 1.38387 0
M  V30 6311 C 587.032 -2.12276 2.74875 0
M  V30 6312 C 585.986 -1.82921 3.86942 0
M  V30 6313 C 585.312 -3.15707 4.31548 0
M  V30 6314 C 586.612 -1.11737 5.10208 0
M  V30 6315 H 588.306 -0.366145 2.97153 0
M  V30 6316 H 585.852 -0.174673 1.42937 0
M  V30 6317 H 587.805 -2.79634 3.1525 0
M  V30 6318 H 586.529 -2.64248 1.91938 0
M  V30 6319 H 585.188 -1.17961 3.47103 0
M  V30 6320 H 584.836 -3.65563 3.45504 0
M  V30 6321 H 584.536 -2.96849 5.07104 0
M  V30 6322 H 586.06 -3.84226 4.74555 0
M  V30 6323 H 587.474 -1.69203 5.47762 0
M  V30 6324 H 585.871 -1.03064 5.91183 0
M  V30 6325 H 586.941 -0.0998818 4.84797 0
M  V30 6326 N 588.284 -1.56567 -0.180126 0
M  V30 6327 C 589.514 -1.85349 -0.912647 0
M  V30 6328 C 589.922 -0.675795 -1.76719 0
M  V30 6329 O 589.265 0.3645 -1.80047 0
M  V30 6330 C 589.327 -3.08431 -1.84691 0
M  V30 6331 C 588.991 -4.41694 -1.17284 0
M  V30 6332 C 589.988 -5.17062 -0.542532 0
M  V30 6333 C 587.673 -4.8843 -1.17223 0
M  V30 6334 C 589.667 -6.37351 0.0793953 0
M  V30 6335 C 587.354 -6.08652 -0.54647 0
M  V30 6336 C 588.352 -6.82955 0.0782458 0
M  V30 6337 O 588.04 -8.00897 0.694158 0
M  V30 6338 H 587.772 -0.619286 -0.271036 0
M  V30 6339 H 590.326 -2.0454 -0.187768 0
M  V30 6340 H 588.556 -2.85163 -2.61188 0
M  V30 6341 H 590.245 -3.23733 -2.44851 0
M  V30 6342 H 591.011 -4.8204 -0.535045 0
M  V30 6343 H 586.89 -4.30542 -1.64788 0
M  V30 6344 H 590.434 -6.95287 0.567612 0
M  V30 6345 H 586.331 -6.4314 -0.55151 0
M  V30 6346 H 587.099 -8.16352 0.592537 0
M  V30 6347 N 589.762 0.448376 -1.51087 0
M  V30 6348 C 591.173 1.0286 -1.5581 0
M  V30 6349 C 591.524 1.92583 -0.374989 0
M  V30 6350 O 590.649 2.10316 0.509533 0
M  V30 6351 C 591.244 1.87223 -2.8237 0
M  V30 6352 C 589.803 2.40314 -2.897 0
M  V30 6353 C 588.95 1.19238 -2.50355 0
M  V30 6354 H 591.901 0.230075 -1.57023 0
M  V30 6355 H 591.922 2.72553 -2.6551 0
M  V30 6356 H 591.434 1.21894 -3.68461 0
M  V30 6357 H 589.535 3.09129 -2.08014 0
M  V30 6358 H 589.648 2.73866 -3.93108 0
M  V30 6359 H 588.012 1.53428 -2.03303 0
M  V30 6360 H 588.795 0.555367 -3.38778 0
M  V30 6361 N 591.24 1.41047 0.703093 0
M  V30 6362 C 592.488 1.39723 1.4602 0
M  V30 6363 C 592.809 0.00461257 1.94999 0
M  V30 6364 O 592.079 -0.952292 1.71196 0
M  V30 6365 H 590.659 0.514281 0.541779 0
M  V30 6366 H 593.321 1.76217 0.832678 0
M  V30 6367 H 592.417 2.07982 2.32701 0
M  V30 6368 N 592.718 -0.936591 1.26751 0
M  V30 6369 C 593.681 -2.01752 1.08761 0
M  V30 6370 C 594.681 -1.60763 0.0344435 0
M  V30 6371 O 595.871 -1.71963 0.278258 0
M  V30 6372 C 593.003 -3.34543 0.655271 0
M  V30 6373 H 594.196 -2.19143 2.04735 0
M  V30 6374 H 591.749 -1.11618 1.09413 0
M  V30 6375 H 592.484 -3.22851 -0.30626 0
M  V30 6376 H 592.269 -3.65647 1.41578 0
M  V30 6377 H 593.759 -4.13944 0.551378 0
M  V30 6378 N 594.196 -1.08629 -1.14182 0
M  V30 6379 C 595.126 -0.740003 -2.21464 0
M  V30 6380 C 596.107 0.278591 -1.67803 0
M  V30 6381 O 597.292 0.148461 -1.93632 0
M  V30 6382 C 594.422 -0.150952 -3.46972 0
M  V30 6383 C 593.376 -1.09815 -4.13672 0
M  V30 6384 C 592.702 -0.3712 -5.3341 0
M  V30 6385 C 594.002 -2.43722 -4.61949 0
M  V30 6386 H 595.696 -1.63697 -2.50686 0
M  V30 6387 H 593.242 -0.788526 -1.20492 0
M  V30 6388 H 595.195 0.103325 -4.21273 0
M  V30 6389 H 593.919 0.781164 -3.1712 0
M  V30 6390 H 592.578 -1.33756 -3.41328 0
M  V30 6391 H 592.226 0.564792 -4.99819 0
M  V30 6392 H 591.926 -1.00267 -5.78982 0
M  V30 6393 H 593.45 -0.12503 -6.10472 0
M  V30 6394 H 594.864 -2.24034 -5.27714 0
M  V30 6395 H 593.261 -3.02582 -5.18232 0
M  V30 6396 H 594.331 -3.05082 -3.76899 0
M  V30 6397 N 595.674 1.31259 -0.872281 0
M  V30 6398 C 596.584 2.32221 -0.333255 0
M  V30 6399 C 597.6 1.6481 0.558013 0
M  V30 6400 O 598.776 1.96212 0.454175 0
M  V30 6401 C 595.841 3.43708 0.454479 0
M  V30 6402 C 594.902 4.26774 -0.465024 0
M  V30 6403 C 594.135 5.32937 0.28521 0
M  V30 6404 O 594.358 5.49968 1.513 0
M  V30 6405 O 593.292 6.00834 -0.358126 0
M  V30 6406 H 597.118 2.80252 -1.17016 0
M  V30 6407 H 594.703 1.352 -0.635724 0
M  V30 6408 H 596.585 4.11656 0.900963 0
M  V30 6409 H 595.26 2.97836 1.26789 0
M  V30 6410 H 594.167 3.61571 -0.960055 0
M  V30 6411 H 595.5 4.76217 -1.2441 0
M  V30 6412 N 597.152 0.631951 1.44375 0
M  V30 6413 C 598.382 0.143658 2.061 0
M  V30 6414 C 598.79 -1.18733 1.47306 0
M  V30 6415 O 598.133 -1.73943 0.590724 0
M  V30 6416 C 598.195 -0.0446102 3.59472 0
M  V30 6417 C 597.859 1.20835 4.40736 0
M  V30 6418 C 598.856 2.13224 4.74164 0
M  V30 6419 C 596.541 1.44399 4.81097 0
M  V30 6420 C 598.535 3.27487 5.46838 0
M  V30 6421 C 596.222 2.58959 5.53519 0
M  V30 6422 C 597.22 3.50329 5.86309 0
M  V30 6423 O 596.908 4.62891 6.57257 0
M  V30 6424 H 596.64 0.0772939 0.671567 0
M  V30 6425 H 599.194 0.866677 1.8622 0
M  V30 6426 H 597.424 -0.822783 3.77845 0
M  V30 6427 H 599.113 -0.487561 4.02961 0
M  V30 6428 H 599.879 1.96253 4.4352 0
M  V30 6429 H 595.758 0.741696 4.54994 0
M  V30 6430 H 599.302 3.98826 5.72349 0
M  V30 6431 H 595.199 2.75873 5.83579 0
M  V30 6432 H 595.967 4.61883 6.75726 0
M  V30 6433 N 598.631 -1.53133 0.372548 0
M  V30 6434 C 599.908 -1.93704 -0.271693 0
M  V30 6435 C 600.288 -1.30667 -1.65799 0
M  V30 6436 O 599.636 -0.46838 -2.23648 0
M  V30 6437 C 599.846 -3.47576 -0.314903 0
M  V30 6438 C 601.194 -4.20998 -0.551912 0
M  V30 6439 O 602.218 -3.53994 -0.39582 0
M  V30 6440 O 601.077 -5.39748 -0.85639 0
M  V30 6441 H 598.171 -0.810457 -0.164586 0
M  V30 6442 H 600.717 -1.6427 0.425838 0
M  V30 6443 H 599.489 -3.85749 0.656792 0
M  V30 6444 H 599.112 -3.83264 -1.05804 0
M  V30 6445 N 600.109 -0.101901 -1.5727 0
M  V30 6446 C 601.041 0.884723 -2.11436 0
M  V30 6447 C 602.054 1.24149 -1.05314 0
M  V30 6448 O 603.243 1.19341 -1.3274 0
M  V30 6449 C 600.343 2.19179 -2.58484 0
M  V30 6450 C 599.516 2.00933 -3.88516 0
M  V30 6451 C 598.575 3.15213 -4.2134 0
M  V30 6452 O 597.601 2.88877 -4.90448 0
M  V30 6453 N 598.803 4.41174 -3.77288 0
M  V30 6454 H 601.568 0.422058 -2.96713 0
M  V30 6455 H 599.129 0.0830128 -1.61687 0
M  V30 6456 H 601.121 2.94593 -2.77484 0
M  V30 6457 H 599.691 2.56847 -1.7818 0
M  V30 6458 H 598.911 1.09809 -3.78597 0
M  V30 6459 H 600.199 1.86026 -4.73573 0
M  V30 6460 H 599.597 4.6545 -3.21516 0
M  V30 6461 H 598.154 5.13515 -4.01429 0
M  V30 6462 N 601.587 1.56661 0.17182 0
M  V30 6463 C 602.836 1.81158 0.886831 0
M  V30 6464 C 603.149 0.679072 1.83434 0
M  V30 6465 O 604.355 0.808964 2.59168 0
M  V30 6466 C 602.811 3.20999 1.6275 0
M  V30 6467 C 602.419 4.42117 0.723652 0
M  V30 6468 C 604.163 3.5479 2.33076 0
M  V30 6469 C 602.07 5.7298 1.46452 0
M  V30 6470 H 601 0.675543 0.334899 0
M  V30 6471 H 603.651 1.82967 0.139765 0
M  V30 6472 H 602.033 3.13506 2.4193 0
M  V30 6473 H 603.207 4.60789 -0.0311485 0
M  V30 6474 H 601.522 4.16197 0.130063 0
M  V30 6475 H 604.119 4.49806 2.89099 0
M  V30 6476 H 604.462 2.79646 3.08389 0
M  V30 6477 H 604.995 3.63834 1.6084 0
M  V30 6478 H 601.734 6.51152 0.753729 0
M  V30 6479 H 601.254 5.58285 2.19266 0
M  V30 6480 H 602.933 6.14916 2.01214 0
M  V30 6481 N 603.065 -0.440357 1.51323 0
M  V30 6482 C 604.481 -0.7766 1.39431 0
M  V30 6483 C 604.681 -1.95838 0.474296 0
M  V30 6484 O 603.737 -2.52398 -0.0716692 0
M  V30 6485 C 605.05 -1.05981 2.81405 0
M  V30 6486 C 606.598 -1.16442 2.90534 0
M  V30 6487 C 607.073 -1.48058 4.33408 0
M  V30 6488 N 608.564 -1.54988 4.36501 0
M  V30 6489 C 609.299 -1.81017 5.44078 0
M  V30 6490 N 608.795 -2.04858 6.61819 0
M  V30 6491 N 610.588 -1.82774 5.31554 0
M  V30 6492 H 602.739 0.338006 2.09693 0
M  V30 6493 H 605.002 0.0888072 0.943831 0
M  V30 6494 H 604.708 -0.264173 3.50706 0
M  V30 6495 H 604.582 -1.98822 3.20546 0
M  V30 6496 H 606.969 -1.95068 2.21432 0
M  V30 6497 H 607.05 -0.215088 2.54894 0
M  V30 6498 H 606.694 -0.699605 5.03059 0
M  V30 6499 H 606.624 -2.44192 4.66559 0
M  V30 6500 H 609.115 -1.38479 3.51613 0
M  V30 6501 H 609.428 -2.2408 7.396 0
M  V30 6502 H 607.773 -2.02187 6.6494 0
M  V30 6503 H 610.964 -1.63665 4.38556 0
M  V30 6504 H 611.137 -2.02722 6.15474 0
M  V30 6505 N 604.543 -1.41418 -0.695603 0
M  V30 6506 C 605.773 -1.43921 -1.48224 0
M  V30 6507 C 606.181 -0.0428855 -1.89151 0
M  V30 6508 O 605.524 0.948138 -1.5734 0
M  V30 6509 C 605.586 -2.28466 -2.77567 0
M  V30 6510 C 605.25 -3.76629 -2.58844 0
M  V30 6511 C 606.247 -4.6879 -2.24793 0
M  V30 6512 C 603.932 -4.2067 -2.74485 0
M  V30 6513 C 605.926 -6.02981 -2.06622 0
M  V30 6514 C 603.613 -5.54926 -2.55931 0
M  V30 6515 C 604.611 -6.45897 -2.2205 0
M  V30 6516 O 604.299 -7.77675 -2.03657 0
M  V30 6517 H 604.031 -0.492252 -0.463318 0
M  V30 6518 H 606.585 -1.86347 -0.863952 0
M  V30 6519 H 604.815 -1.80853 -3.41802 0
M  V30 6520 H 606.504 -2.2267 -3.39371 0
M  V30 6521 H 607.27 -4.36055 -2.12323 0
M  V30 6522 H 603.149 -3.50167 -2.9984 0
M  V30 6523 H 606.693 -6.73951 -1.80099 0
M  V30 6524 H 602.59 -5.8724 -2.67991 0
M  V30 6525 H 603.358 -7.88819 -2.1842 0
M  V30 6526 N 606.021 0.929856 -1.27246 0
M  V30 6527 C 607.27 1.67182 -1.12842 0
M  V30 6528 C 607.583 1.9287 0.325666 0
M  V30 6529 O 608.789 2.64999 0.590572 0
M  V30 6530 C 607.245 3.01097 -1.97151 0
M  V30 6531 C 606.853 2.83115 -3.47203 0
M  V30 6532 C 608.597 3.78907 -1.91389 0
M  V30 6533 C 606.504 4.12573 -4.23719 0
M  V30 6534 H 605.434 0.627064 -0.418697 0
M  V30 6535 H 608.085 1.0332 -1.51649 0
M  V30 6536 H 606.467 3.66004 -1.51186 0
M  V30 6537 H 607.641 2.26989 -4.01015 0
M  V30 6538 H 605.956 2.18736 -3.54321 0
M  V30 6539 H 608.553 4.74837 -2.45834 0
M  V30 6540 H 608.896 4.0674 -0.887047 0
M  V30 6541 H 609.429 3.20794 -2.35237 0
M  V30 6542 H 606.168 3.8992 -5.26918 0
M  V30 6543 H 605.688 4.68371 -3.74685 0
M  V30 6544 H 607.367 4.8095 -4.32777 0
M  V30 6545 N 607.499 1.09233 1.13605 0
M  V30 6546 C 608.724 0.849067 1.89224 0
M  V30 6547 C 609.149 -0.593875 1.78479 0
M  V30 6548 O 608.507 -1.41703 1.13092 0
M  V30 6549 C 608.555 1.28642 3.36873 0
M  V30 6550 O 607.659 0.44363 4.10007 0
M  V30 6551 H 607 0.30767 0.588417 0
M  V30 6552 H 609.53 1.45595 1.43748 0
M  V30 6553 H 609.54 1.27096 3.87699 0
M  V30 6554 H 608.215 2.33729 3.44011 0
M  V30 6555 H 606.792 0.523241 3.69211 0
M  V30 6556 N 608.977 -1.30795 0.87923 0
M  V30 6557 C 609.909 -2.27241 0.299025 0
M  V30 6558 C 610.922 -1.53472 -0.543166 0
M  V30 6559 O 612.111 -1.74756 -0.363651 0
M  V30 6560 C 609.211 -3.33655 -0.593931 0
M  V30 6561 C 608.384 -4.36857 0.2179 0
M  V30 6562 C 607.443 -5.22715 -0.604646 0
M  V30 6563 O 606.469 -5.69192 -0.0293838 0
M  V30 6564 N 607.671 -5.48008 -1.91488 0
M  V30 6565 H 610.436 -2.77667 1.12788 0
M  V30 6566 H 607.997 -1.43914 0.741637 0
M  V30 6567 H 609.989 -3.88013 -1.15012 0
M  V30 6568 H 608.559 -2.83202 -1.32346 0
M  V30 6569 H 607.779 -3.82444 0.955536 0
M  V30 6570 H 609.067 -5.02869 0.774614 0
M  V30 6571 H 608.465 -5.1202 -2.40525 0
M  V30 6572 H 607.022 -6.05264 -2.41864 0
M  V30 6573 N 610.455 -0.639598 -1.44038 0
M  V30 6574 C 611.683 -0.154811 -2.0632 0
M  V30 6575 C 612.098 1.17406 -1.47856 0
M  V30 6576 O 611.455 1.72193 -0.604638 0
M  V30 6577 C 611.506 -0.0429958 -3.61474 0
M  V30 6578 O 611.227 -1.31932 -4.17763 0
M  V30 6579 C 612.728 0.469486 -4.40807 0
M  V30 6580 H 609.948 -0.0835862 -0.665773 0
M  V30 6581 H 612.492 -0.876397 -1.84769 0
M  V30 6582 H 610.647 0.629075 -3.82258 0
M  V30 6583 H 611.061 -1.16965 -5.11292 0
M  V30 6584 H 612.535 0.496712 -5.49761 0
M  V30 6585 H 613.012 1.49819 -4.12857 0
M  V30 6586 H 613.618 -0.169624 -4.24962 0
M  V30 6587 N 611.933 1.52934 -0.380664 0
M  V30 6588 C 612.865 2.23822 0.493581 0
M  V30 6589 C 613.878 1.25761 1.03383 0
M  V30 6590 O 615.067 1.5189 0.937633 0
M  V30 6591 C 612.167 2.9342 1.69582 0
M  V30 6592 C 611.34 4.18115 1.28445 0
M  V30 6593 C 610.399 4.70788 2.35042 0
M  V30 6594 O 609.425 5.34093 1.96807 0
M  V30 6595 N 610.627 4.49899 3.66839 0
M  V30 6596 H 613.392 2.99484 -0.11371 0
M  V30 6597 H 610.953 1.60577 -0.206587 0
M  V30 6598 H 612.945 3.2556 2.40401 0
M  V30 6599 H 611.515 2.21119 2.20965 0
M  V30 6600 H 610.735 3.92109 0.405503 0
M  V30 6601 H 612.023 4.99152 0.986132 0
M  V30 6602 H 611.421 3.99349 4.0067 0
M  V30 6603 H 609.978 4.86551 4.33718 0
M  V30 6604 N 613.412 0.11024 1.57214 0
M  V30 6605 C 614.66 -0.548783 1.94506 0
M  V30 6606 C 614.981 -1.67772 0.99386 0
M  V30 6607 O 614.251 -1.9584 0.0485841 0
M  V30 6608 H 612.831 -0.205715 0.718116 0
M  V30 6609 H 615.493 0.177127 1.94093 0
M  V30 6610 H 614.589 -0.949096 2.97319 0
M  V30 6611 N 614.89 -1.56749 -0.16351 0
M  V30 6612 C 615.82 -2.00042 -1.20438 0
M  V30 6613 C 616.801 -0.877256 -1.45733 0
M  V30 6614 O 617.986 -1.1439 -1.56935 0
M  V30 6615 C 615.116 -2.36697 -2.54149 0
M  V30 6616 C 614.07 -3.52046 -2.43408 0
M  V30 6617 C 613.396 -3.74466 -3.81679 0
M  V30 6618 C 614.696 -4.85247 -1.93216 0
M  V30 6619 H 616.39 -2.87244 -0.844477 0
M  V30 6620 H 613.936 -1.38194 -0.40478 0
M  V30 6621 H 615.889 -2.65582 -3.27176 0
M  V30 6622 H 614.613 -1.46414 -2.91943 0
M  V30 6623 H 613.272 -3.23301 -1.72834 0
M  V30 6624 H 612.92 -2.81461 -4.1688 0
M  V30 6625 H 612.62 -4.52084 -3.75359 0
M  V30 6626 H 614.144 -4.0576 -4.5628 0
M  V30 6627 H 615.558 -5.12957 -2.56023 0
M  V30 6628 H 613.955 -5.66556 -1.97825 0
M  V30 6629 H 615.025 -4.7672 -0.88689 0
M  V30 6630 N 616.368 0.432326 -1.51554 0
M  V30 6631 C 617.779 1.01202 -1.56892 0
M  V30 6632 C 618.13 1.92175 -0.395394 0
M  V30 6633 O 617.255 2.10844 0.487198 0
M  V30 6634 C 617.85 1.84217 -2.8434 0
M  V30 6635 C 616.409 2.37228 -2.92233 0
M  V30 6636 C 615.556 1.16576 -2.51606 0
M  V30 6637 H 618.507 0.213407 -1.57259 0
M  V30 6638 H 618.528 2.69721 -2.68385 0
M  V30 6639 H 618.04 1.17979 -3.69733 0
M  V30 6640 H 616.141 3.06905 -2.11282 0
M  V30 6641 H 616.254 2.69682 -3.95991 0
M  V30 6642 H 614.618 1.51263 -2.04919 0
M  V30 6643 H 615.401 0.519404 -3.39348 0
M  V30 6644 N 617.846 1.41785 0.688094 0
M  V30 6645 C 619.094 1.41264 1.4453 0
M  V30 6646 C 619.415 0.0252946 1.94984 0
M  V30 6647 O 618.685 -0.934081 1.72197 0
M  V30 6648 H 617.265 0.519998 0.536294 0
M  V30 6649 H 619.927 1.7709 0.813941 0
M  V30 6650 H 619.023 2.10439 2.30482 0
M  V30 6651 N 619.324 -0.923095 1.27737 0
M  V30 6652 C 620.234 -2.05765 1.12685 0
M  V30 6653 C 621.25 -1.73911 0.0557197 0
M  V30 6654 O 622.426 -1.99674 0.263137 0
M  V30 6655 C 619.491 -3.37804 0.780363 0
M  V30 6656 C 618.552 -3.83326 1.93286 0
M  V30 6657 C 617.785 -5.09064 1.60281 0
M  V30 6658 O 618.008 -5.6809 0.512828 0
M  V30 6659 O 616.942 -5.50071 2.44347 0
M  V30 6660 H 620.768 -2.21378 2.07907 0
M  V30 6661 H 618.353 -1.04299 1.06968 0
M  V30 6662 H 620.235 -4.17097 0.600668 0
M  V30 6663 H 618.91 -3.23387 -0.142291 0
M  V30 6664 H 617.817 -3.049 2.16764 0
M  V30 6665 H 619.15 -4.02292 2.83588 0
M  V30 6666 N 620.802 -1.09834 -1.13024 0
M  V30 6667 C 621.734 -0.699379 -2.18269 0
M  V30 6668 C 622.747 0.260841 -1.60697 0
M  V30 6669 O 623.936 0.0462538 -1.7844 0
M  V30 6670 C 621.036 -0.0104537 -3.38898 0
M  V30 6671 C 620.209 -0.993275 -4.25973 0
M  V30 6672 C 619.268 -0.336982 -5.2512 0
M  V30 6673 O 618.294 -0.985892 -5.60597 0
M  V30 6674 N 619.496 0.90716 -5.73368 0
M  V30 6675 H 622.261 -1.60486 -2.5311 0
M  V30 6676 H 619.822 -0.986337 -1.28386 0
M  V30 6677 H 621.814 0.43991 -4.02302 0
M  V30 6678 H 620.384 0.797335 -3.0226 0
M  V30 6679 H 619.604 -1.62208 -3.5928 0
M  V30 6680 H 620.892 -1.65876 -4.81002 0
M  V30 6681 H 620.29 1.45384 -5.46699 0
M  V30 6682 H 618.847 1.30077 -6.38689 0
M  V30 6683 N 622.28 1.30327 -0.886154 0
M  V30 6684 C 623.21 2.30549 -0.370028 0
M  V30 6685 C 624.191 1.61039 0.547751 0
M  V30 6686 O 625.376 1.8864 0.461353 0
M  V30 6687 C 622.506 3.44808 0.415275 0
M  V30 6688 C 621.46 4.26024 -0.41085 0
M  V30 6689 C 620.786 5.32347 0.501128 0
M  V30 6690 C 622.086 4.95433 -1.65359 0
M  V30 6691 H 623.78 2.73969 -1.20754 0
M  V30 6692 H 621.326 1.3171 -0.582097 0
M  V30 6693 H 623.279 4.13986 0.78699 0
M  V30 6694 H 622.003 3.00197 1.28644 0
M  V30 6695 H 620.662 3.58535 -0.764719 0
M  V30 6696 H 620.31 4.83982 1.37004 0
M  V30 6697 H 620.01 5.87581 -0.0478356 0
M  V30 6698 H 621.534 6.0438 0.869333 0
M  V30 6699 H 622.948 5.5712 -1.35239 0
M  V30 6700 H 621.345 5.60537 -2.14284 0
M  V30 6701 H 622.415 4.21493 -2.39733 0
M  V30 6702 N 623.758 0.647228 1.43697 0
M  V30 6703 C 624.688 -0.0345631 2.33474 0
M  V30 6704 C 625.669 -0.818193 1.4913 0
M  V30 6705 O 626.854 -0.780867 1.77809 0
M  V30 6706 C 623.984 -1.00576 3.32418 0
M  V30 6707 C 622.938 -0.33266 4.26705 0
M  V30 6708 C 622.264 -1.41489 5.1564 0
M  V30 6709 C 623.564 0.771204 5.16575 0
M  V30 6710 H 625.258 0.715163 2.90733 0
M  V30 6711 H 622.804 0.345364 1.39797 0
M  V30 6712 H 624.757 -1.49159 3.94119 0
M  V30 6713 H 623.481 -1.78657 2.73403 0
M  V30 6714 H 622.14 0.13267 3.6636 0
M  V30 6715 H 621.788 -2.18698 4.52968 0
M  V30 6716 H 621.488 -0.969799 5.79542 0
M  V30 6717 H 623.012 -1.9022 5.80214 0
M  V30 6718 H 624.426 0.36779 5.72119 0
M  V30 6719 H 622.823 1.1404 5.89165 0
M  V30 6720 H 623.893 1.63169 4.56622 0
M  V30 6721 N 625.236 -1.5273 0.388769 0
M  V30 6722 C 626.184 -2.27975 -0.461527 0
M  V30 6723 C 627.178 -1.31854 -1.06352 0
M  V30 6724 O 628.384 -1.49394 -1.00406 0
M  V30 6725 H 624.759 -0.733088 -0.16759 0
M  V30 6726 H 626.73 -2.97765 0.194579 0
M  V30 6727 C 625.479 -3.09881 -1.577 0
M  V30 6728 H 624.802 -3.83701 -1.12309 0
M  V30 6729 H 626.242 -3.6567 -2.14619 0
M  V30 6730 C 624.701 -2.22159 -2.53272 0
M  V30 6731 O 625.231 -1.84802 -3.56667 0
M  V30 6732 N 623.437 -1.8633 -2.23001 0
M  V30 6733 H 622.984 -2.16909 -1.38954 0
M  V30 6734 H 622.942 -1.27927 -2.87197 0
M  V30 6735 N 626.714 -0.118576 -1.57153 0
M  V30 6736 C 627.96 0.540326 -1.95469 0
M  V30 6737 C 628.293 1.66356 -1.00196 0
M  V30 6738 O 627.568 1.94461 -0.039104 0
M  V30 6739 C 627.851 1.07342 -3.43729 0
M  V30 6740 C 627.704 -0.0463732 -4.49776 0
M  V30 6741 C 629.023 1.96442 -3.93826 0
M  V30 6742 H 626.142 0.19494 -0.710751 0
M  V30 6743 H 628.784 -0.19405 -1.89006 0
M  V30 6744 H 626.934 1.69925 -3.49368 0
M  V30 6745 H 628.606 -0.681648 -4.56236 0
M  V30 6746 H 626.849 -0.709574 -4.27957 0
M  V30 6747 H 627.52 0.367856 -5.50773 0
M  V30 6748 H 629.996 1.43731 -3.90488 0
M  V30 6749 H 628.872 2.3066 -4.98084 0
M  V30 6750 H 629.133 2.89077 -3.34495 0
M  V30 6751 N 628.193 1.56834 0.155195 0
M  V30 6752 C 629.441 1.82536 0.867462 0
M  V30 6753 C 629.762 0.698168 1.82073 0
M  V30 6754 O 629.032 -0.280807 1.93877 0
M  V30 6755 H 627.612 0.673401 0.323327 0
M  V30 6756 H 630.274 1.94313 0.151156 0
M  V30 6757 H 629.37 2.77171 1.43466 0
M  V30 6758 N 629.671 -0.424282 1.51781 0
M  V30 6759 C 630.899 -1.1947 1.68921 0
M  V30 6760 C 631.314 -1.84683 0.39213 0
M  V30 6761 O 630.671 -1.71261 -0.630554 0
M  V30 6762 C 630.722 -2.26909 2.81416 0
M  V30 6763 O 630.443 -1.64361 4.061 0
M  V30 6764 C 631.944 -3.16945 3.09937 0
M  V30 6765 H 629.164 -0.359591 0.566511 0
M  V30 6766 H 631.708 -0.501139 1.98265 0
M  V30 6767 H 629.863 -2.91959 2.54635 0
M  V30 6768 H 630.277 -2.35468 4.68674 0
M  V30 6769 H 631.751 -3.88437 3.922 0
M  V30 6770 H 632.228 -3.78451 2.22871 0
M  V30 6771 H 632.834 -2.57581 3.38426 0
M  V30 6772 N 631.149 -1.42148 -0.680565 0
M  V30 6773 C 632.096 -1.45175 -1.79424 0
M  V30 6774 C 633.066 -0.304352 -1.63288 0
M  V30 6775 O 634.251 -0.507591 -1.83924 0
M  V30 6776 C 631.391 -1.35429 -3.17416 0
M  V30 6777 C 630.504 -2.60158 -3.4488 0
M  V30 6778 C 629.639 -2.42596 -4.72568 0
M  V30 6779 C 628.678 -3.62727 -4.93047 0
M  V30 6780 N 627.815 -3.44143 -6.11973 0
M  V30 6781 H 632.655 -2.40349 -1.76172 0
M  V30 6782 H 630.192 -1.19334 -0.860107 0
M  V30 6783 H 632.15 -1.27777 -3.97151 0
M  V30 6784 H 630.78 -0.438536 -3.19807 0
M  V30 6785 H 629.832 -2.78199 -2.5944 0
M  V30 6786 H 631.144 -3.49473 -3.55908 0
M  V30 6787 H 630.298 -2.32497 -5.60384 0
M  V30 6788 H 629.037 -1.50761 -4.63813 0
M  V30 6789 H 628.042 -3.73264 -4.03676 0
M  V30 6790 H 629.267 -4.55534 -5.03652 0
M  V30 6791 H 627.213 -2.5502 -6.04401 0
M  V30 6792 H 627.13 -4.27041 -6.23836 0
M  V30 6793 H 628.398 -3.37845 -7.02482 0
M  V30 6794 N 632.627 0.916307 -1.28225 0
M  V30 6795 C 633.852 1.7043 -1.18188 0
M  V30 6796 C 634.277 1.86346 0.256274 0
M  V30 6797 O 633.635 1.37175 1.18544 0
M  V30 6798 C 633.683 3.07546 -1.88275 0
M  V30 6799 O 632.787 3.94904 -1.18848 0
M  V30 6800 H 632.128 0.521967 -0.410423 0
M  V30 6801 H 634.658 1.14589 -1.69501 0
M  V30 6802 H 634.668 3.57793 -1.96082 0
M  V30 6803 H 633.343 2.95279 -2.92887 0
M  V30 6804 H 631.92 3.53339 -1.19187 0
M  V30 6805 N 634.105 1.10431 1.1244 0
M  V30 6806 C 635.333 0.868872 1.87772 0
M  V30 6807 C 635.748 -0.580645 1.7965 0
M  V30 6808 O 635.105 -1.40031 1.17036 0
M  V30 6809 C 635.156 1.30855 3.36986 0
M  V30 6810 O 634.877 2.70123 3.44914 0
M  V30 6811 C 636.378 1.107 4.29256 0
M  V30 6812 H 633.598 0.311868 0.59412 0
M  V30 6813 H 636.142 1.46897 1.42273 0
M  V30 6814 H 634.297 0.752126 3.80029 0
M  V30 6815 H 634.711 2.88923 4.37748 0
M  V30 6816 H 636.185 1.46378 5.32238 0
M  V30 6817 H 636.662 0.0456228 4.39176 0
M  V30 6818 H 637.268 1.64988 3.91994 0
M  V30 6819 N 635.583 -1.29855 0.893053 0
M  V30 6820 C 636.999 -1.48366 0.588199 0
M  V30 6821 C 637.199 -1.81654 -0.872018 0
M  V30 6822 O 636.255 -1.909 -1.65268 0
M  V30 6823 C 637.568 -2.60136 1.5083 0
M  V30 6824 C 639.116 -2.74014 1.51279 0
M  V30 6825 C 639.591 -3.88905 2.41902 0
M  V30 6826 N 641.082 -3.96228 2.39911 0
M  V30 6827 C 641.817 -4.84458 3.06738 0
M  V30 6828 N 641.313 -5.77426 3.8282 0
M  V30 6829 N 643.106 -4.77894 2.95929 0
M  V30 6830 H 635.257 -1.06522 1.83757 0
M  V30 6831 H 637.52 -0.528495 0.787018 0
M  V30 6832 H 637.226 -2.42383 2.54839 0
M  V30 6833 H 637.1 -3.56793 1.22388 0
M  V30 6834 H 639.487 -2.91167 0.480179 0
M  V30 6835 H 639.568 -1.77952 1.83757 0
M  V30 6836 H 639.212 -3.72508 3.45253 0
M  V30 6837 H 639.142 -4.84322 2.06737 0
M  V30 6838 H 641.633 -3.29728 1.84629 0
M  V30 6839 H 641.946 -6.41529 4.30883 0
M  V30 6840 H 640.291 -5.77332 3.86927 0
M  V30 6841 H 643.482 -4.04248 2.36012 0
M  V30 6842 H 643.655 -5.46444 3.48286 0
M  V30 6843 N 637.061 -0.65484 -1.43351 0
M  V30 6844 C 638.308 -0.168892 -2.01794 0
M  V30 6845 C 638.636 1.2177 -1.51665 0
M  V30 6846 O 637.891 1.82717 -0.70092 0
M  V30 6847 C 638.19 -0.130424 -3.57162 0
M  V30 6848 C 637.856 -1.45898 -4.26643 0
M  V30 6849 C 636.518 -1.82279 -4.4534 0
M  V30 6850 C 638.87 -2.33485 -4.65976 0
M  V30 6851 C 636.198 -3.0591 -5.00635 0
M  V30 6852 C 638.55 -3.5641 -5.22642 0
M  V30 6853 C 637.214 -3.92985 -5.39555 0
M  V30 6854 H 636.484 -0.061802 -0.738418 0
M  V30 6855 H 639.131 -0.845869 -1.71806 0
M  V30 6856 H 637.436 0.630008 -3.86702 0
M  V30 6857 H 639.133 0.262465 -4.0014 0
M  V30 6858 H 635.723 -1.16591 -4.12437 0
M  V30 6859 H 639.907 -2.06668 -4.51223 0
M  V30 6860 H 635.163 -3.34295 -5.11915 0
M  V30 6861 H 639.337 -4.24495 -5.52066 0
M  V30 6862 H 636.964 -4.88862 -5.82167 0
M  V30 6863 N 638.539 1.52521 -0.396863 0
M  V30 6864 C 639.786 2.01672 0.182898 0
M  V30 6865 C 640.114 1.28302 1.46181 0
M  V30 6866 O 639.369 0.374118 1.92091 0
M  V30 6867 C 639.668 3.5403 0.489677 0
M  V30 6868 C 639.334 4.45456 -0.698581 0
M  V30 6869 C 637.996 4.70166 -1.02454 0
M  V30 6870 C 640.348 4.99354 -1.49316 0
M  V30 6871 C 637.676 5.46024 -2.1465 0
M  V30 6872 C 640.028 5.76439 -2.60579 0
M  V30 6873 C 638.692 5.99426 -2.93675 0
M  V30 6874 H 637.962 0.737971 0.066927 0
M  V30 6875 H 640.609 1.83853 -0.535764 0
M  V30 6876 H 638.914 3.69963 1.28976 0
M  V30 6877 H 640.611 3.8956 0.951018 0
M  V30 6878 H 637.201 4.26392 -0.434525 0
M  V30 6879 H 641.385 4.80182 -1.25457 0
M  V30 6880 H 636.641 5.62046 -2.40654 0
M  V30 6881 H 640.815 6.17202 -3.22544 0
M  V30 6882 H 638.442 6.57988 -3.80731 0
M  V30 6883 N 640.017 0.126909 1.57088 0
M  V30 6884 C 641.257 -0.53216 1.97351 0
M  V30 6885 C 641.621 -1.63342 1.00913 0
M  V30 6886 O 642.822 -2.35194 1.30144 0
M  V30 6887 C 641.093 -1.04385 3.41817 0
M  V30 6888 S 642.652 -1.71033 4.04095 0
M  V30 6889 H 639.47 -0.172724 0.689701 0
M  V30 6890 H 642.072 0.213865 1.94327 0
M  V30 6891 H 640.776 -0.231289 4.09748 0
M  V30 6892 H 640.307 -1.82496 3.48509 0
M  V30 6893 H 642.322 -2.99656 3.95501 0
M  V30 6894 N 641.495 -1.56914 -0.146875 0
M  V30 6895 C 642.442 -1.98275 -1.18134 0
M  V30 6896 C 643.412 -0.850367 -1.42681 0
M  V30 6897 O 644.597 -1.11244 -1.55014 0
M  V30 6898 C 641.737 -2.36861 -2.5098 0
M  V30 6899 C 640.85 -3.63391 -2.33605 0
M  V30 6900 C 639.985 -3.91079 -3.59486 0
M  V30 6901 C 639.024 -5.10879 -3.37149 0
M  V30 6902 N 638.161 -5.34577 -4.55161 0
M  V30 6903 H 643.001 -2.8645 -0.821622 0
M  V30 6904 H 640.538 -1.41718 -0.394248 0
M  V30 6905 H 642.496 -2.57262 -3.28439 0
M  V30 6906 H 641.126 -1.51766 -2.84898 0
M  V30 6907 H 640.178 -3.50766 -1.47199 0
M  V30 6908 H 641.49 -4.51007 -2.13059 0
M  V30 6909 H 640.644 -4.11979 -4.45374 0
M  V30 6910 H 639.383 -3.01885 -3.83036 0
M  V30 6911 H 638.388 -4.89853 -2.49649 0
M  V30 6912 H 639.613 -6.01626 -3.14997 0
M  V30 6913 H 637.559 -4.48337 -4.78884 0
M  V30 6914 H 637.476 -6.16463 -4.37618 0
M  V30 6915 H 638.744 -5.59975 -5.42263 0
M  V30 6916 N 642.974 0.416227 -1.52004 0
M  V30 6917 C 643.884 1.53147 -1.77717 0
M  V30 6918 C 644.9 1.609 -0.662368 0
M  V30 6919 O 646.076 1.77747 -0.946991 0
M  V30 6920 C 643.141 2.88948 -1.91598 0
M  V30 6921 C 642.202 2.9114 -3.15493 0
M  V30 6922 C 641.435 4.20464 -3.28703 0
M  V30 6923 O 641.658 5.13981 -2.47345 0
M  V30 6924 O 640.592 4.29368 -4.21813 0
M  V30 6925 H 644.418 1.34357 -2.72363 0
M  V30 6926 H 642.003 0.601373 -1.36762 0
M  V30 6927 H 643.885 3.69505 -2.02593 0
M  V30 6928 H 642.56 3.07821 -1.00141 0
M  V30 6929 H 641.467 2.09461 -3.09962 0
M  V30 6930 H 642.8 2.77216 -4.06709 0
M  V30 6931 N 644.452 1.42507 0.673017 0
M  V30 6932 C 645.68 1.46473 1.46128 0
M  V30 6933 C 646.095 0.0765912 1.88645 0
M  V30 6934 O 645.452 -0.909057 1.58248 0
M  V30 6935 C 645.503 2.39339 2.70923 0
M  V30 6936 O 645.224 3.72752 2.3019 0
M  V30 6937 C 646.725 2.52343 3.64469 0
M  V30 6938 H 643.945 0.49812 0.449575 0
M  V30 6939 H 646.489 1.87041 0.826802 0
M  V30 6940 H 644.644 2.02019 3.30556 0
M  V30 6941 H 645.058 4.22503 3.10791 0
M  V30 6942 H 646.532 3.2144 4.48754 0
M  V30 6943 H 647.009 1.56189 4.1049 0
M  V30 6944 H 647.615 2.90392 3.10729 0
M  V30 6945 N 645.93 -0.909495 1.28709 0
M  V30 6946 C 647.207 -1.63865 1.06806 0
M  V30 6947 C 647.587 -2.07445 -0.391143 0
M  V30 6948 O 646.935 -1.82269 -1.37805 0
M  V30 6949 C 647.145 -2.82692 2.04661 0
M  V30 6950 C 648.493 -3.5361 2.35042 0
M  V30 6951 O 649.517 -2.92847 2.02779 0
M  V30 6952 O 648.376 -4.63131 2.90124 0
M  V30 6953 H 645.47 -0.719065 0.408502 0
M  V30 6954 H 648.016 -0.958424 1.40044 0
M  V30 6955 H 646.788 -2.47614 3.0299 0
M  V30 6956 H 646.411 -3.58426 1.72095 0
M  V30 6957 N 647.408 -1.11026 -1.11852 0
M  V30 6958 C 648.341 -0.708501 -2.16923 0
M  V30 6959 C 649.319 0.293196 -1.59935 0
M  V30 6960 O 650.503 0.190641 -1.87533 0
M  V30 6961 C 647.63 -0.0463705 -3.38668 0
M  V30 6962 C 646.676 -1.01252 -4.14307 0
M  V30 6963 S 647.509 -2.53291 -4.71809 0
M  V30 6964 C 648.665 -1.88366 -5.96883 0
M  V30 6965 H 648.898 -1.59854 -2.50667 0
M  V30 6966 H 646.431 -0.927869 -1.2341 0
M  V30 6967 H 648.389 0.329314 -4.09177 0
M  V30 6968 H 647.05 0.820562 -3.03192 0
M  V30 6969 H 646.243 -0.496596 -5.01548 0
M  V30 6970 H 645.845 -1.33042 -3.49537 0
M  V30 6971 H 648.137 -1.21753 -6.6647 0
M  V30 6972 H 649.08 -2.73588 -6.53112 0
M  V30 6973 H 649.488 -1.34562 -5.48227 0
M  V30 6974 N 648.886 1.2938 -0.899927 0
M  V30 6975 C 650.111 2.00228 -0.540692 0
M  V30 6976 C 650.536 1.66909 0.867359 0
M  V30 6977 O 649.894 0.893824 1.57735 0
M  V30 6978 C 649.942 3.52921 -0.740232 0
M  V30 6979 O 649.046 4.11879 0.207154 0
M  V30 6980 H 648.387 0.629505 -0.211233 0
M  V30 6981 H 650.917 1.6487 -1.21158 0
M  V30 6982 H 650.927 4.0287 -0.644973 0
M  V30 6983 H 649.602 3.76508 -1.76677 0
M  V30 6984 H 648.179 3.72845 0.0643315 0
M  V30 6985 N 650.364 0.662433 1.43002 0
M  V30 6986 C 651.314 -0.0460442 2.27954 0
M  V30 6987 C 652.298 -0.785753 1.40409 0
M  V30 6988 O 653.49 -0.666701 1.63964 0
M  V30 6989 C 650.619 -1.00532 3.2825 0
M  V30 6990 C 649.705 -0.263604 4.2328 0
M  V30 6991 N 650.096 0.724855 5.00579 0
M  V30 6992 C 648.394 -0.503778 4.43146 0
M  V30 6993 C 649.095 1.16594 5.69895 0
M  V30 6994 N 648.071 0.498345 5.41311 0
M  V30 6995 H 651.873 0.712314 2.85137 0
M  V30 6996 H 649.387 0.490469 1.54817 0
M  V30 6997 H 651.384 -1.52775 3.87899 0
M  V30 6998 H 650.044 -1.76364 2.72628 0
M  V30 6999 H 651.055 1.10393 5.05998 0
M  V30 7000 H 647.732 -1.24255 3.98581 0
M  V30 7001 H 649.122 1.98434 6.4193 0
M  V30 7002 N 651.842 -1.52309 0.404946 0
M  V30 7003 C 653.067 -2.06666 -0.1743 0
M  V30 7004 C 653.492 -1.27341 -1.38441 0
M  V30 7005 O 652.85 -0.302539 -1.78758 0
M  V30 7006 C 652.898 -3.57014 -0.507262 0
M  V30 7007 O 652.002 -3.80144 -1.59889 0
M  V30 7008 H 651.343 -0.663807 -0.0160273 0
M  V30 7009 H 653.873 -1.96297 0.576937 0
M  V30 7010 H 653.883 -4.00724 -0.767098 0
M  V30 7011 H 652.558 -4.14184 0.377368 0
M  V30 7012 H 651.135 -3.48316 -1.33155 0
M  V30 7013 N 653.32 -0.135238 -1.57019 0
M  V30 7014 C 654.568 0.51777 -1.95355 0
M  V30 7015 C 654.889 1.6617 -1.02042 0
M  V30 7016 O 654.159 1.95738 -0.0797343 0
M  V30 7017 H 652.739 0.194264 -0.721298 0
M  V30 7018 H 655.401 -0.207983 -1.93787 0
M  V30 7019 H 654.497 0.901675 -2.98791 0
M  V30 7020 N 654.798 1.5699 0.138552 0
M  V30 7021 C 656.044 1.84966 0.846116 0
M  V30 7022 C 656.399 0.72038 1.78405 0
M  V30 7023 O 655.692 -0.281076 1.89527 0
M  V30 7024 C 655.886 3.17007 1.65049 0
M  V30 7025 C 655.715 4.42672 0.79194 0
M  V30 7026 C 654.485 5.03254 0.454293 0
M  V30 7027 C 656.683 5.14164 0.118419 0
M  V30 7028 N 654.665 6.12482 -0.416964 0
M  V30 7029 C 656.036 6.16966 -0.61263 0
M  V30 7030 C 658.091 4.97884 0.0399671 0
M  V30 7031 C 656.794 7.0525 -1.41473 0
M  V30 7032 C 658.82 5.86639 -0.748901 0
M  V30 7033 C 658.182 6.88929 -1.4682 0
M  V30 7034 H 654.281 0.727362 0.287172 0
M  V30 7035 H 656.865 1.94383 0.110972 0
M  V30 7036 H 655.036 3.08722 2.35681 0
M  V30 7037 H 656.768 3.3286 2.30187 0
M  V30 7038 H 653.523 4.6693 0.792038 0
M  V30 7039 H 653.947 6.7172 -0.843865 0
M  V30 7040 H 658.589 4.18779 0.581728 0
M  V30 7041 H 656.307 7.83777 -1.96772 0
M  V30 7042 H 659.893 5.7611 -0.811705 0
M  V30 7043 H 658.773 7.56419 -2.06882 0
M  V30 7044 N 656.276 -0.40816 1.52223 0
M  V30 7045 C 657.692 -0.74685 1.41047 0
M  V30 7046 C 657.892 -1.94788 0.51573 0
M  V30 7047 O 656.948 -2.52494 -0.0181156 0
M  V30 7048 C 658.261 -0.999878 2.83589 0
M  V30 7049 C 659.809 -1.10253 2.92939 0
M  V30 7050 C 660.284 -1.38832 4.36451 0
M  V30 7051 N 661.775 -1.45694 4.3969 0
M  V30 7052 C 662.51 -1.69435 5.47795 0
M  V30 7053 N 662.006 -1.90774 6.66016 0
M  V30 7054 N 663.799 -1.71458 5.35312 0
M  V30 7055 H 655.95 0.382409 2.08929 0
M  V30 7056 H 658.213 0.108807 0.941735 0
M  V30 7057 H 657.919 -0.189723 3.51188 0
M  V30 7058 H 657.793 -1.91978 3.24691 0
M  V30 7059 H 660.18 -1.90328 2.2552 0
M  V30 7060 H 660.261 -0.160973 2.55293 0
M  V30 7061 H 659.905 -0.592741 5.04429 0
M  V30 7062 H 659.835 -2.34241 4.71634 0
M  V30 7063 H 662.326 -1.3099 3.54472 0
M  V30 7064 H 662.639 -2.08342 7.44186 0
M  V30 7065 H 660.984 -1.88037 6.69079 0
M  V30 7066 H 664.175 -1.54326 4.41929 0
M  V30 7067 H 664.348 -1.89621 6.19635 0
M  V30 7068 N 657.755 -1.42862 -0.66545 0
M  V30 7069 C 658.685 -1.49867 -1.79059 0
M  V30 7070 C 659.666 -0.354394 -1.66367 0
M  V30 7071 O 660.851 -0.569969 -1.85647 0
M  V30 7072 C 657.981 -1.40943 -3.17415 0
M  V30 7073 C 656.935 -2.53495 -3.44854 0
M  V30 7074 C 656.261 -2.29626 -4.82883 0
M  V30 7075 C 657.561 -3.95781 -3.40815 0
M  V30 7076 H 659.255 -2.44037 -1.73453 0
M  V30 7077 H 656.801 -1.17456 -0.833071 0
M  V30 7078 H 658.754 -1.4445 -3.95869 0
M  V30 7079 H 657.478 -0.432716 -3.23721 0
M  V30 7080 H 656.137 -2.4932 -2.68766 0
M  V30 7081 H 655.785 -1.30226 -4.8585 0
M  V30 7082 H 655.485 -3.05065 -5.02204 0
M  V30 7083 H 657.009 -2.34897 -5.63609 0
M  V30 7084 H 658.423 -4.01508 -4.09224 0
M  V30 7085 H 656.82 -4.71148 -3.71672 0
M  V30 7086 H 657.89 -4.21786 -2.39216 0
M  V30 7087 N 659.233 0.902656 -1.29189 0
M  V30 7088 C 660.18 2.00643 -1.14066 0
M  V30 7089 C 661.15 1.66064 -0.0347756 0
M  V30 7090 O 662.335 1.8973 -0.201752 0
M  V30 7091 C 659.475 3.35214 -0.820104 0
M  V30 7092 C 658.588 3.82594 -2.00614 0
M  V30 7093 C 657.723 5.05727 -1.62522 0
M  V30 7094 C 656.762 5.45469 -2.77724 0
M  V30 7095 N 655.899 6.59789 -2.40048 0
M  V30 7096 H 660.739 2.1291 -2.08502 0
M  V30 7097 H 658.276 1.04271 -1.03759 0
M  V30 7098 H 660.234 4.12643 -0.614949 0
M  V30 7099 H 658.864 3.22682 0.0873452 0
M  V30 7100 H 657.916 3.01226 -2.32308 0
M  V30 7101 H 659.228 4.07999 -2.86946 0
M  V30 7102 H 658.382 5.90732 -1.38277 0
M  V30 7103 H 657.121 4.82155 -0.733333 0
M  V30 7104 H 656.126 4.59 -3.02653 0
M  V30 7105 H 657.351 5.71024 -3.67572 0
M  V30 7106 H 655.297 6.37826 -1.53343 0
M  V30 7107 H 655.214 6.84975 -3.19914 0
M  V30 7108 H 656.482 7.4807 -2.19116 0
M  V30 7109 N 660.711 1.11618 1.11262 0
M  V30 7110 C 661.939 0.888739 1.8684 0
M  V30 7111 C 662.354 -0.561558 1.80255 0
M  V30 7112 O 661.711 -1.38782 1.18515 0
M  V30 7113 C 661.762 1.34422 3.35579 0
M  V30 7114 O 661.483 2.73766 3.42029 0
M  V30 7115 C 662.984 1.15246 4.28058 0
M  V30 7116 H 660.204 0.318152 0.590779 0
M  V30 7117 H 662.748 1.48398 1.40707 0
M  V30 7118 H 660.903 0.79239 3.7921 0
M  V30 7119 H 661.317 2.9355 4.34659 0
M  V30 7120 H 662.791 1.52015 5.30656 0
M  V30 7121 H 663.268 0.0922007 4.39103 0
M  V30 7122 H 663.874 1.69136 3.90222 0
M  V30 7123 N 662.189 -1.289 0.906776 0
M  V30 7124 C 663.119 -2.29932 0.406659 0
M  V30 7125 C 664.1 -1.6189 -0.522061 0
M  V30 7126 O 665.285 -1.8935 -0.431283 0
M  V30 7127 C 662.415 -3.45425 -0.360366 0
M  V30 7128 C 661.369 -4.25316 0.478574 0
M  V30 7129 C 660.695 -5.33076 -0.416373 0
M  V30 7130 C 661.995 -4.92739 1.7322 0
M  V30 7131 H 663.689 -2.72013 1.25097 0
M  V30 7132 H 661.235 -1.30768 0.602977 0
M  V30 7133 H 663.188 -4.15186 -0.721029 0
M  V30 7134 H 661.912 -3.02206 -1.23852 0
M  V30 7135 H 660.571 -3.57273 0.821662 0
M  V30 7136 H 660.219 -4.86101 -1.29287 0
M  V30 7137 H 659.919 -5.8743 0.141309 0
M  V30 7138 H 661.443 -6.05686 -0.773072 0
M  V30 7139 H 662.857 -5.54898 1.44086 0
M  V30 7140 H 661.254 -5.57057 2.23175 0
M  V30 7141 H 662.324 -4.17625 2.46408 0
M  V30 7142 N 663.667 -0.670007 -1.42649 0
M  V30 7143 C 664.577 0.0114788 -2.34597 0
M  V30 7144 C 665.593 0.794055 -1.54825 0
M  V30 7145 O 666.769 0.737472 -1.87412 0
M  V30 7146 C 663.834 0.954436 -3.33304 0
M  V30 7147 C 662.895 0.166925 -4.28975 0
M  V30 7148 C 662.128 1.06497 -5.22967 0
M  V30 7149 O 662.351 2.30446 -5.21777 0
M  V30 7150 O 661.285 0.528347 -5.99577 0
M  V30 7151 H 665.111 -0.745794 -2.944 0
M  V30 7152 H 662.696 -0.430228 -1.43071 0
M  V30 7153 H 664.578 1.49589 -3.93956 0
M  V30 7154 H 663.253 1.69164 -2.7598 0
M  V30 7155 H 662.16 -0.418515 -3.71752 0
M  V30 7156 H 663.493 -0.531067 -4.89327 0
M  V30 7157 N 665.145 1.52092 -0.413018 0
M  V30 7158 C 666.055 2.30858 0.417318 0
M  V30 7159 C 667.071 1.38746 1.05003 0
M  V30 7160 O 668.247 1.71821 1.05069 0
M  V30 7161 C 665.312 3.11756 1.51687 0
M  V30 7162 C 664.373 4.19613 0.906825 0
M  V30 7163 C 663.606 4.96644 1.95399 0
M  V30 7164 O 663.829 4.7402 3.17271 0
M  V30 7165 O 662.763 5.81385 1.55805 0
M  V30 7166 H 666.589 3.02865 -0.225028 0
M  V30 7167 H 664.174 1.48358 -0.176126 0
M  V30 7168 H 666.056 3.62122 2.15512 0
M  V30 7169 H 664.731 2.42539 2.14375 0
M  V30 7170 H 663.638 3.73385 0.231183 0
M  V30 7171 H 664.971 4.91134 0.323814 0
M  V30 7172 N 666.623 0.143563 1.56945 0
M  V30 7173 C 667.573 -0.809115 2.1316 0
M  V30 7174 C 668.557 -1.21176 1.05855 0
M  V30 7175 O 669.749 -1.17875 1.3204 0
M  V30 7176 C 666.878 -2.04957 2.75405 0
M  V30 7177 C 665.964 -1.67018 3.89828 0
M  V30 7178 N 666.355 -0.998822 4.9584 0
M  V30 7179 C 664.653 -1.96313 4.00471 0
M  V30 7180 C 665.354 -0.816217 5.75945 0
M  V30 7181 N 664.33 -1.349 5.26596 0
M  V30 7182 H 668.132 -0.286919 2.92496 0
M  V30 7183 H 665.646 -0.0580948 1.62296 0
M  V30 7184 H 667.643 -2.74201 3.14037 0
M  V30 7185 H 666.303 -2.57697 1.97541 0
M  V30 7186 H 667.314 -0.659975 5.13678 0
M  V30 7187 H 663.991 -2.50927 3.33679 0
M  V30 7188 H 665.381 -0.287353 6.71285 0
M  V30 7189 N 668.101 -1.57061 -0.130224 0
M  V30 7190 C 669.011 -2.02802 -1.17934 0
M  V30 7191 C 670.027 -0.946378 -1.46013 0
M  V30 7192 O 671.203 -1.25708 -1.57351 0
M  V30 7193 C 668.268 -2.41368 -2.48882 0
M  V30 7194 C 667.329 -3.63561 -2.28301 0
M  V30 7195 C 666.562 -4.00279 -3.53005 0
M  V30 7196 O 666.785 -3.37463 -4.59864 0
M  V30 7197 O 665.719 -4.93441 -3.44673 0
M  V30 7198 H 669.545 -2.92394 -0.820958 0
M  V30 7199 H 667.13 -1.45475 -0.340197 0
M  V30 7200 H 669.012 -2.66958 -3.26054 0
M  V30 7201 H 667.687 -1.54926 -2.84217 0
M  V30 7202 H 666.594 -3.43136 -1.49025 0
M  V30 7203 H 667.927 -4.50673 -1.97875 0
M  V30 7204 N 669.579 0.400081 -1.52437 0
M  V30 7205 C 670.542 1.4707 -1.75793 0
M  V30 7206 C 671.542 1.48036 -0.627856 0
M  V30 7207 O 672.732 1.49401 -0.895817 0
M  V30 7208 C 669.864 2.86427 -1.84858 0
M  V30 7209 H 671.057 1.27649 -2.71377 0
M  V30 7210 H 668.61 0.631141 -1.42991 0
M  V30 7211 H 669.345 3.11207 -0.912194 0
M  V30 7212 H 669.13 2.87128 -2.6702 0
M  V30 7213 H 670.62 3.64023 -2.04638 0
M  V30 7214 N 671.057 1.43213 0.657864 0
M  V30 7215 C 671.967 1.50448 1.80007 0
M  V30 7216 C 672.983 0.39191 1.69529 0
M  V30 7217 O 674.159 0.645349 1.90781 0
M  V30 7218 C 671.224 1.42062 3.16258 0
M  V30 7219 C 670.285 2.63951 3.38568 0
M  V30 7220 C 669.518 2.55956 4.68318 0
M  V30 7221 O 669.741 1.60473 5.47361 0
M  V30 7222 O 668.675 3.46378 4.92245 0
M  V30 7223 H 672.501 2.4689 1.76858 0
M  V30 7224 H 670.086 1.25163 0.81576 0
M  V30 7225 H 671.968 1.3981 3.97531 0
M  V30 7226 H 670.643 0.487524 3.20008 0
M  V30 7227 H 669.55 2.71776 2.57077 0
M  V30 7228 H 670.883 3.56217 3.39662 0
M  V30 7229 N 672.536 -0.895792 1.29666 0
M  V30 7230 C 673.764 -1.68001 1.20761 0
M  V30 7231 C 674.179 -1.87379 -0.231187 0
M  V30 7232 O 673.536 -1.41359 -1.15429 0
M  V30 7233 C 673.587 -3.06236 1.92098 0
M  V30 7234 O 673.308 -2.8774 3.30359 0
M  V30 7235 C 674.809 -4.00652 1.89717 0
M  V30 7236 H 672.029 -0.524591 0.418384 0
M  V30 7237 H 674.573 -1.11995 1.71106 0
M  V30 7238 H 672.728 -3.59007 1.45578 0
M  V30 7239 H 673.142 -3.75359 3.66342 0
M  V30 7240 H 674.616 -4.95051 2.44189 0
M  V30 7241 H 675.093 -4.30424 0.873595 0
M  V30 7242 H 675.699 -3.53815 2.35998 0
M  V30 7243 N 674.014 -1.12206 -1.10668 0
M  V30 7244 C 675.262 -0.874144 -1.82217 0
M  V30 7245 C 675.583 0.601736 -1.85484 0
M  V30 7246 O 674.853 1.43725 -1.33116 0
M  V30 7247 H 673.433 -0.320404 -0.674797 0
M  V30 7248 H 676.095 -1.41606 -1.33917 0
M  V30 7249 H 675.191 -1.25349 -2.85822 0
M  V30 7250 N 675.492 1.28418 -0.913599 0
M  V30 7251 C 676.425 2.25557 -0.346328 0
M  V30 7252 C 677.403 1.53038 0.549366 0
M  V30 7253 O 678.587 1.81937 0.493055 0
M  V30 7254 C 675.714 3.34915 0.504961 0
M  V30 7255 C 674.76 4.25257 -0.325334 0
M  V30 7256 S 675.593 5.06718 -1.73198 0
M  V30 7257 C 676.749 6.19569 -0.887988 0
M  V30 7258 H 676.982 2.73325 -1.16965 0
M  V30 7259 H 674.515 1.36855 -0.714841 0
M  V30 7260 H 676.473 3.98376 0.990301 0
M  V30 7261 H 675.134 2.85814 1.30267 0
M  V30 7262 H 674.327 5.02947 0.325589 0
M  V30 7263 H 673.929 3.66519 -0.744321 0
M  V30 7264 H 676.221 6.77398 -0.117568 0
M  V30 7265 H 677.164 6.88908 -1.63742 0
M  V30 7266 H 677.572 5.62812 -0.436228 0
M  V30 7267 N 676.97 0.677563 1.42291 0
M  V30 7268 C 677.917 0.000947061 2.308 0
M  V30 7269 C 678.887 -0.789889 1.46116 0
M  V30 7270 O 680.072 -0.761578 1.74942 0
M  V30 7271 C 677.212 -0.942387 3.31984 0
M  V30 7272 C 676.325 -0.14508 4.31756 0
M  V30 7273 C 675.46 -1.08442 5.20013 0
M  V30 7274 C 674.499 -0.278958 6.11464 0
M  V30 7275 N 673.636 -1.17115 6.92263 0
M  V30 7276 H 678.476 0.761521 2.88106 0
M  V30 7277 H 676.013 0.38727 1.41911 0
M  V30 7278 H 677.971 -1.50317 3.89179 0
M  V30 7279 H 676.601 -1.66956 2.76271 0
M  V30 7280 H 675.653 0.532368 3.76656 0
M  V30 7281 H 676.965 0.48015 4.96484 0
M  V30 7282 H 676.119 -1.71504 5.81955 0
M  V30 7283 H 674.858 -1.74353 4.55469 0
M  V30 7284 H 673.863 0.364856 5.48588 0
M  V30 7285 H 675.088 0.376099 6.78058 0
M  V30 7286 H 673.034 -1.81661 6.30345 0
M  V30 7287 H 672.951 -0.601063 7.53607 0
M  V30 7288 H 674.219 -1.78915 7.58689 0
M  V30 7289 N 678.448 -1.51871 0.421078 0
M  V30 7290 C 679.673 -2.0684 -0.152371 0
M  V30 7291 C 680.098 -1.28802 -1.37083 0
M  V30 7292 O 679.456 -0.321482 -1.78427 0
M  V30 7293 C 679.504 -3.57532 -0.469368 0
M  V30 7294 O 678.608 -3.81818 -1.55848 0
M  V30 7295 H 677.949 -0.663939 -0.00898586 0
M  V30 7296 H 680.479 -1.95674 0.597724 0
M  V30 7297 H 680.489 -4.01515 -0.724553 0
M  V30 7298 H 679.164 -4.13761 0.421276 0
M  V30 7299 H 677.741 -3.49709 -1.29453 0
M  V30 7300 N 679.926 -0.151884 -1.56866 0
M  V30 7301 C 680.873 0.785936 -2.17006 0
M  V30 7302 C 681.843 1.2407 -1.10435 0
M  V30 7303 O 683.028 1.31235 -1.38499 0
M  V30 7304 C 680.168 2.01771 -2.79969 0
M  V30 7305 C 679.281 1.6083 -4.00946 0
M  V30 7306 C 678.416 2.79224 -4.51893 0
M  V30 7307 C 677.455 2.3468 -5.65324 0
M  V30 7308 N 676.592 3.461 -6.10867 0
M  V30 7309 H 681.432 0.266286 -2.96808 0
M  V30 7310 H 678.969 0.11972 -1.46612 0
M  V30 7311 H 680.927 2.73989 -3.14621 0
M  V30 7312 H 679.557 2.51139 -2.02803 0
M  V30 7313 H 678.609 0.783592 -3.72242 0
M  V30 7314 H 679.921 1.24119 -4.83111 0
M  V30 7315 H 679.075 3.59625 -4.88625 0
M  V30 7316 H 677.814 3.19183 -3.68746 0
M  V30 7317 H 676.819 1.52721 -5.28163 0
M  V30 7318 H 678.044 1.95801 -6.5026 0
M  V30 7319 H 675.99 3.85671 -5.30654 0
M  V30 7320 H 675.907 3.1342 -6.87971 0
M  V30 7321 H 677.175 4.26844 -6.52246 0
M  V30 7322 N 681.404 1.57128 0.121893 0
M  V30 7323 C 682.314 2.03425 1.16857 0
M  V30 7324 C 683.33 0.954108 1.45509 0
M  V30 7325 O 684.506 1.26541 1.56682 0
M  V30 7326 C 681.571 2.42685 2.47599 0
M  V30 7327 C 680.632 3.64767 2.2637 0
M  V30 7328 C 679.865 4.02145 3.50878 0
M  V30 7329 O 680.088 3.39897 4.58068 0
M  V30 7330 O 679.022 4.95262 3.42051 0
M  V30 7331 H 682.848 2.92825 0.80544 0
M  V30 7332 H 680.433 1.45654 0.332477 0
M  V30 7333 H 682.315 2.68684 3.24634 0
M  V30 7334 H 680.99 1.56432 2.83392 0
M  V30 7335 H 679.897 3.43922 1.47203 0
M  V30 7336 H 681.23 4.51716 1.95482 0
M  V30 7337 N 682.882 -0.391992 1.52647 0
M  V30 7338 C 683.845 -1.46135 1.7657 0
M  V30 7339 C 684.845 -1.47701 0.635698 0
M  V30 7340 O 686.035 -1.48924 0.903728 0
M  V30 7341 C 683.167 -2.85443 1.86374 0
M  V30 7342 H 684.36 -1.26208 2.72051 0
M  V30 7343 H 681.913 -0.623549 1.43323 0
M  V30 7344 H 682.648 -3.10718 0.928685 0
M  V30 7345 H 682.433 -2.85708 2.68539 0
M  V30 7346 H 683.923 -3.62933 2.06566 0
M  V30 7347 N 684.36 -1.4356 -0.65026 0
M  V30 7348 C 685.776 -1.27025 -0.966269 0
M  V30 7349 C 685.976 -0.192117 -2.00582 0
M  V30 7350 O 685.032 0.428459 -2.48838 0
M  V30 7351 C 686.345 -2.63556 -1.44772 0
M  V30 7352 C 687.893 -2.71111 -1.56421 0
M  V30 7353 C 688.368 -4.08067 -2.07956 0
M  V30 7354 N 689.859 -4.10146 -2.15254 0
M  V30 7355 C 690.594 -5.12952 -2.56258 0
M  V30 7356 N 690.09 -6.26129 -2.96537 0
M  V30 7357 N 691.883 -5.00306 -2.56224 0
M  V30 7358 H 684.034 -2.12367 0.0375758 0
M  V30 7359 H 686.297 -0.946894 -0.0457782 0
M  V30 7360 H 686.003 -3.43429 -0.758271 0
M  V30 7361 H 685.877 -2.89152 -2.42221 0
M  V30 7362 H 688.264 -1.91569 -2.24467 0
M  V30 7363 H 688.345 -2.49277 -0.573967 0
M  V30 7364 H 687.989 -4.88077 -1.40511 0
M  V30 7365 H 687.919 -4.27266 -3.07817 0
M  V30 7366 H 690.41 -3.28453 -1.86887 0
M  V30 7367 H 690.723 -7.00403 -3.26582 0
M  V30 7368 H 689.068 -6.29597 -2.94334 0
M  V30 7369 H 692.259 -4.10952 -2.24135 0
M  V30 7370 H 692.432 -5.80553 -2.87857 0
M  V30 7371 N 685.838 0.888903 -1.30139 0
M  V30 7372 C 686.785 1.99422 -1.16188 0
M  V30 7373 C 687.755 1.66017 -0.0523869 0
M  V30 7374 O 688.94 1.89506 -0.221864 0
M  V30 7375 C 686.08 3.34325 -0.855612 0
M  V30 7376 C 685.193 3.80445 -2.0466 0
M  V30 7377 C 684.328 5.03975 -1.67876 0
M  V30 7378 C 683.367 5.42492 -2.83493 0
M  V30 7379 N 682.504 6.57206 -2.47032 0
M  V30 7380 H 687.344 2.10687 -2.10749 0
M  V30 7381 H 684.881 1.03165 -1.04859 0
M  V30 7382 H 686.839 4.11968 -0.658681 0
M  V30 7383 H 685.469 3.22756 0.0531155 0
M  V30 7384 H 684.521 2.98745 -2.3549 0
M  V30 7385 H 685.833 4.04933 -2.91257 0
M  V30 7386 H 684.987 5.89232 -1.44535 0
M  V30 7387 H 683.726 4.8135 -0.784431 0
M  V30 7388 H 682.731 4.55764 -3.07505 0
M  V30 7389 H 683.956 5.67093 -3.73607 0
M  V30 7390 H 681.902 6.36164 -1.601 0
M  V30 7391 H 681.819 6.81543 -3.27161 0
M  V30 7392 H 683.087 7.45704 -2.27038 0
M  V30 7393 N 687.317 1.12792 1.10072 0
M  V30 7394 C 688.547 0.907189 1.85617 0
M  V30 7395 C 688.955 -0.547181 1.81115 0
M  V30 7396 O 688.298 -1.39024 1.20075 0
M  V30 7397 C 688.36 1.30872 3.34832 0
M  V30 7398 C 688.024 2.77516 3.6309 0
M  V30 7399 C 689.021 3.75696 3.59373 0
M  V30 7400 C 686.706 3.14513 3.91646 0
M  V30 7401 C 688.7 5.08888 3.83812 0
M  V30 7402 C 686.387 4.47886 4.15742 0
M  V30 7403 C 687.385 5.44882 4.11816 0
M  V30 7404 O 687.073 6.7585 4.35295 0
M  V30 7405 H 686.805 0.323855 0.593375 0
M  V30 7406 H 689.359 1.50262 1.40038 0
M  V30 7407 H 687.589 0.656518 3.81086 0
M  V30 7408 H 689.278 1.06153 3.91773 0
M  V30 7409 H 690.044 3.48458 3.37345 0
M  V30 7410 H 685.923 2.39622 3.93831 0
M  V30 7411 H 689.467 5.84586 3.80663 0
M  V30 7412 H 685.364 4.74851 4.37249 0
M  V30 7413 H 686.132 6.81853 4.52791 0
M  V30 7414 N 688.795 -1.27931 0.920396 0
M  V30 7415 C 690.044 -1.93975 0.552867 0
M  V30 7416 C 690.357 -1.73193 -0.909035 0
M  V30 7417 O 691.563 -2.33515 -1.38502 0
M  V30 7418 C 690.019 -3.47463 0.937947 0
M  V30 7419 C 689.627 -3.77013 2.42003 0
M  V30 7420 C 691.371 -4.19628 0.64132 0
M  V30 7421 C 689.278 -5.23841 2.74489 0
M  V30 7422 H 688.208 -0.726146 0.203046 0
M  V30 7423 H 690.859 -1.45339 1.12022 0
M  V30 7424 H 689.241 -3.94867 0.299317 0
M  V30 7425 H 690.415 -3.40393 3.10595 0
M  V30 7426 H 688.73 -3.18035 2.6878 0
M  V30 7427 H 691.327 -5.27729 0.860622 0
M  V30 7428 H 691.67 -4.14164 -0.421168 0
M  V30 7429 H 692.203 -3.78022 1.23872 0
M  V30 7430 H 688.942 -5.34388 3.79618 0
M  V30 7431 H 688.462 -5.61634 2.1054 0
M  V30 7432 H 690.141 -5.91647 2.61845 0
M  V30 7433 N 690.273 -0.685099 -1.4193 0
M  V30 7434 C 691.52 -0.211658 -2.01391 0
M  V30 7435 C 691.848 1.18526 -1.54214 0
M  V30 7436 O 691.103 1.81189 -0.739519 0
M  V30 7437 C 691.402 -0.206154 -3.56805 0
M  V30 7438 C 691.068 -1.54915 -4.23453 0
M  V30 7439 C 689.73 -1.91684 -4.41373 0
M  V30 7440 C 692.082 -2.43317 -4.60919 0
M  V30 7441 C 689.41 -3.16461 -4.94034 0
M  V30 7442 C 691.762 -3.67415 -5.14965 0
M  V30 7443 C 690.426 -4.04341 -5.31098 0
M  V30 7444 H 689.696 -0.0774511 -0.736941 0
M  V30 7445 H 692.343 -0.882121 -1.69973 0
M  V30 7446 H 690.648 0.547841 -3.87951 0
M  V30 7447 H 692.345 0.17753 -4.00607 0
M  V30 7448 H 688.935 -1.25314 -4.09871 0
M  V30 7449 H 693.119 -2.16192 -4.46738 0
M  V30 7450 H 688.375 -3.45078 -5.04709 0
M  V30 7451 H 692.549 -4.3611 -5.42938 0
M  V30 7452 H 690.176 -5.01101 -5.71666 0
M  V30 7453 N 691.751 1.51645 -0.429126 0
M  V30 7454 C 692.699 2.29119 0.400921 0
M  V30 7455 C 693.693 1.34628 1.02819 0
M  V30 7456 O 694.899 1.52004 0.964098 0
M  V30 7457 H 691.274 0.737273 0.148095 0
M  V30 7458 H 693.245 2.97144 -0.273457 0
M  V30 7459 C 691.994 3.13953 1.49429 0
M  V30 7460 H 691.317 3.86544 1.02097 0
M  V30 7461 H 692.757 3.71232 2.04849 0
M  V30 7462 C 691.216 2.28796 2.47293 0
M  V30 7463 O 691.746 1.94193 3.51642 0
M  V30 7464 N 689.952 1.92177 2.17982 0
M  V30 7465 H 689.499 2.20517 1.33154 0
M  V30 7466 H 689.457 1.35497 2.83704 0
M  V30 7467 N 693.229 0.160201 1.56784 0
M  V30 7468 C 694.454 -0.497373 2.01348 0
M  V30 7469 C 694.879 -1.56757 1.03966 0
M  V30 7470 O 694.237 -1.81292 0.0174455 0
M  V30 7471 C 694.285 -1.0628 3.44582 0
M  V30 7472 O 693.389 -2.17723 3.50244 0
M  V30 7473 H 692.73 -0.120295 0.653012 0
M  V30 7474 H 695.26 0.260821 2.02931 0
M  V30 7475 H 695.27 -1.38819 3.83658 0
M  V30 7476 H 693.945 -0.279166 4.14962 0
M  V30 7477 H 692.522 -1.86313 3.2302 0
M  V30 7478 N 694.707 -1.5719 -0.113559 0
M  V30 7479 C 695.637 -2.03772 -1.14013 0
M  V30 7480 C 696.618 -0.923176 -1.42869 0
M  V30 7481 O 697.803 -1.19325 -1.53216 0
M  V30 7482 C 694.933 -2.44663 -2.4649 0
M  V30 7483 C 693.887 -3.59612 -2.32085 0
M  V30 7484 C 693.213 -3.8642 -3.69573 0
M  V30 7485 C 694.513 -4.91149 -1.7768 0
M  V30 7486 H 696.207 -2.89785 -0.752665 0
M  V30 7487 H 693.753 -1.39412 -0.360609 0
M  V30 7488 H 695.706 -2.75857 -3.18561 0
M  V30 7489 H 694.43 -1.55628 -2.87137 0
M  V30 7490 H 693.089 -3.28636 -1.62461 0
M  V30 7491 H 692.737 -2.94581 -4.07715 0
M  V30 7492 H 692.437 -4.63797 -3.60786 0
M  V30 7493 H 693.961 -4.2007 -4.4314 0
M  V30 7494 H 695.375 -5.20843 -2.39574 0
M  V30 7495 H 693.772 -5.72562 -1.79701 0
M  V30 7496 H 694.842 -4.79301 -0.734776 0
M  V30 7497 N 696.185 0.383891 -1.52853 0
M  V30 7498 C 697.462 1.14296 -1.58732 0
M  V30 7499 C 697.842 2.07585 -0.383611 0
M  V30 7500 O 697.19 2.1971 0.627661 0
M  V30 7501 C 697.4 1.89816 -2.92867 0
M  V30 7502 C 698.748 2.44998 -3.46787 0
M  V30 7503 O 699.772 1.99966 -2.94774 0
M  V30 7504 O 698.631 3.2727 -4.37672 0
M  V30 7505 H 695.725 0.52326 -0.640413 0
M  V30 7506 H 698.271 0.388631 -1.6519 0
M  V30 7507 H 697.043 1.21626 -3.71918 0
M  V30 7508 H 696.666 2.72199 -2.89816 0
M  V30 7509 N 697.663 1.43903 0.642637 0
M  V30 7510 C 698.94 1.36556 1.40043 0
M  V30 7511 C 699.32 0.0185588 2.11092 0
M  V30 7512 O 698.668 -0.998438 2.05532 0
M  V30 7513 C 698.878 2.55596 2.37638 0
M  V30 7514 C 700.226 2.99153 3.01318 0
M  V30 7515 O 701.25 2.55719 2.47965 0
M  V30 7516 O 700.109 3.74427 3.98078 0
M  V30 7517 H 697.203 0.540189 0.626198 0
M  V30 7518 H 699.749 1.55971 0.668657 0
M  V30 7519 H 698.521 3.45256 1.84158 0
M  V30 7520 H 698.144 2.38334 3.18249 0
M  V30 7521 N 699.141 -0.881989 1.30609 0
M  V30 7522 C 700.387 -1.63647 1.19781 0
M  V30 7523 C 700.72 -1.92632 -0.246265 0
M  V30 7524 O 699.995 -1.54938 -1.17577 0
M  V30 7525 C 700.278 -2.97437 2.02985 0
M  V30 7526 C 700.131 -2.75406 3.55628 0
M  V30 7527 C 701.45 -3.98397 1.86997 0
M  V30 7528 H 698.569 -0.593841 0.436488 0
M  V30 7529 H 701.211 -1.02041 1.60273 0
M  V30 7530 H 699.361 -3.50018 1.68581 0
M  V30 7531 H 701.033 -2.2959 4.00107 0
M  V30 7532 H 699.276 -2.09856 3.79662 0
M  V30 7533 H 699.947 -3.70552 4.09139 0
M  V30 7534 H 702.423 -3.54986 2.17081 0
M  V30 7535 H 701.299 -4.89916 2.47536 0
M  V30 7536 H 701.56 -4.3424 0.829943 0
M  V30 7537 N 700.619 -1.13374 -1.09472 0
M  V30 7538 C 701.582 -0.813639 -2.14272 0
M  V30 7539 C 702.582 0.176677 -1.59826 0
M  V30 7540 O 703.772 -0.0503441 -1.74127 0
M  V30 7541 C 700.904 -0.210897 -3.40247 0
M  V30 7542 H 702.097 -1.74229 -2.44099 0
M  V30 7543 H 699.65 -0.938304 -1.25002 0
M  V30 7544 H 700.385 0.726998 -3.16046 0
M  V30 7545 H 700.17 -0.924048 -3.81056 0
M  V30 7546 H 701.66 -0.00377603 -4.176 0
M  V30 7547 N 702.098 1.27442 -0.927168 0
M  V30 7548 C 703.048 2.24519 -0.396878 0
M  V30 7549 C 704.032 1.52981 0.498555 0
M  V30 7550 O 705.224 1.7378 0.336087 0
M  V30 7551 C 702.353 3.41514 0.349694 0
M  V30 7552 C 701.439 4.20357 -0.562226 0
M  V30 7553 N 701.83 4.7702 -1.68182 0
M  V30 7554 C 700.128 4.44503 -0.365135 0
M  V30 7555 C 700.829 5.36467 -2.24895 0
M  V30 7556 N 699.805 5.21371 -1.5386 0
M  V30 7557 H 703.607 2.65911 -1.25173 0
M  V30 7558 H 701.121 1.42366 -0.78138 0
M  V30 7559 H 703.118 4.10161 0.746536 0
M  V30 7560 H 701.778 3.01653 1.20148 0
M  V30 7561 H 702.789 4.74985 -2.06421 0
M  V30 7562 H 699.466 4.15111 0.446037 0
M  V30 7563 H 700.856 5.91264 -3.1915 0
M  V30 7564 N 703.576 0.692616 1.41565 0
M  V30 7565 C 704.822 0.222664 2.01574 0
M  V30 7566 C 705.155 -1.1737 1.54719 0
M  V30 7567 O 704.43 -1.79161 0.757084 0
M  V30 7568 C 704.713 0.277064 3.59033 0
M  V30 7569 C 704.566 1.71016 4.16021 0
M  V30 7570 C 705.885 -0.36479 4.38586 0
M  V30 7571 H 703.004 0.0823839 0.732381 0
M  V30 7572 H 705.646 0.880778 1.68352 0
M  V30 7573 H 703.796 -0.283288 3.87466 0
M  V30 7574 H 705.468 2.32413 3.98475 0
M  V30 7575 H 703.711 2.24525 3.71175 0
M  V30 7576 H 704.382 1.69978 5.25178 0
M  V30 7577 H 706.858 0.112404 4.15948 0
M  V30 7578 H 705.734 -0.296169 5.481 0
M  V30 7579 H 705.995 -1.44506 4.17816 0
M  V30 7580 N 705.054 -1.51416 0.437162 0
M  V30 7581 C 706.002 -2.29328 -0.388765 0
M  V30 7582 C 706.996 -1.35171 -1.02104 0
M  V30 7583 O 708.202 -1.52513 -0.956024 0
M  V30 7584 H 704.577 -0.738048 -0.144183 0
M  V30 7585 H 706.548 -2.96995 0.289212 0
M  V30 7586 C 705.297 -3.14741 -1.47761 0
M  V30 7587 H 704.62 -3.8708 -1.00045 0
M  V30 7588 H 706.06 -3.72313 -2.02877 0
M  V30 7589 C 704.519 -2.30105 -2.46076 0
M  V30 7590 O 705.049 -1.96055 -3.50607 0
M  V30 7591 N 703.255 -1.93331 -2.1696 0
M  V30 7592 H 702.802 -2.2122 -1.31983 0
M  V30 7593 H 702.76 -1.36999 -2.82982 0
M  V30 7594 N 706.532 -0.168513 -1.56696 0
M  V30 7595 C 707.76 0.483503 -2.01171 0
M  V30 7596 C 708.175 1.56994 -1.04872 0
M  V30 7597 O 707.532 1.82434 -0.0491337 0
M  V30 7598 C 707.583 1.0644 -3.45475 0
M  V30 7599 O 707.304 0.0213375 -4.38095 0
M  V30 7600 C 708.805 1.79493 -4.05336 0
M  V30 7601 H 706.025 0.124002 -0.659443 0
M  V30 7602 H 708.569 -0.269419 -2.02717 0
M  V30 7603 H 706.724 1.76784 -3.44712 0
M  V30 7604 H 707.138 0.449837 -5.22567 0
M  V30 7605 H 708.612 2.15401 -5.08238 0
M  V30 7606 H 709.089 2.68889 -3.47269 0
M  V30 7607 H 709.695 1.13798 -4.09793 0
M  V30 7608 N 708.01 1.57248 0.105221 0
M  V30 7609 C 709.256 1.85845 0.811753 0
M  V30 7610 C 709.589 0.756219 1.78871 0
M  V30 7611 O 708.864 -0.236736 1.93054 0
M  V30 7612 C 709.147 3.25059 1.54947 0
M  V30 7613 C 709 4.45898 0.591185 0
M  V30 7614 C 710.319 3.6203 2.50245 0
M  V30 7615 H 707.438 0.675973 0.293649 0
M  V30 7616 H 710.08 1.89849 0.0756269 0
M  V30 7617 H 708.23 3.21776 2.17698 0
M  V30 7618 H 709.902 4.61291 -0.0285352 0
M  V30 7619 H 708.145 4.33693 -0.0962343 0
M  V30 7620 H 708.816 5.40009 1.1443 0
M  V30 7621 H 711.292 3.66192 1.97593 0
M  V30 7622 H 710.168 4.60389 2.98886 0
M  V30 7623 H 710.429 2.90176 3.33542 0
M  V30 7624 N 709.488 -0.375779 1.53054 0
M  V30 7625 C 710.421 -1.48187 1.7354 0
M  V30 7626 C 711.399 -1.5177 0.583495 0
M  V30 7627 O 712.583 -1.69976 0.81488 0
M  V30 7628 C 709.71 -2.86598 1.80497 0
M  V30 7629 C 708.756 -3.00784 3.02376 0
M  V30 7630 S 709.589 -2.70601 4.62099 0
M  V30 7631 C 710.745 -4.11181 4.71891 0
M  V30 7632 H 710.978 -1.30587 2.67085 0
M  V30 7633 H 708.511 -0.569485 1.43514 0
M  V30 7634 H 710.469 -3.66353 1.85192 0
M  V30 7635 H 709.13 -3.01514 0.880217 0
M  V30 7636 H 708.323 -4.02128 3.03824 0
M  V30 7637 H 707.925 -2.28939 2.95742 0
M  V30 7638 H 710.217 -5.0529 4.51319 0
M  V30 7639 H 711.16 -4.14742 5.73929 0
M  V30 7640 H 711.568 -3.97706 4.00612 0
M  V30 7641 N 710.966 -1.44241 -0.634997 0
M  V30 7642 C 712.243 -1.37296 -1.39317 0
M  V30 7643 C 712.623 -0.0297532 -2.11079 0
M  V30 7644 O 711.971 0.987524 -2.06059 0
M  V30 7645 C 712.181 -2.56853 -2.36279 0
M  V30 7646 C 713.529 -3.00747 -2.99728 0
M  V30 7647 O 714.553 -2.5703 -2.46605 0
M  V30 7648 O 713.412 -3.76533 -3.96087 0
M  V30 7649 H 710.506 -0.543503 -0.623325 0
M  V30 7650 H 713.052 -1.56324 -0.660376 0
M  V30 7651 H 711.824 -3.46228 -1.82324 0
M  V30 7652 H 711.447 -2.40019 -3.16981 0
M  V30 7653 N 712.444 0.87505 -1.31075 0
M  V30 7654 C 713.374 1.99775 -1.20881 0
M  V30 7655 C 714.355 1.69822 -0.0971612 0
M  V30 7656 O 715.54 1.92158 -0.280895 0
M  V30 7657 C 712.67 3.35163 -0.910118 0
M  V30 7658 C 711.624 3.79406 -1.98078 0
M  V30 7659 C 710.95 5.12197 -1.53488 0
M  V30 7660 C 712.25 3.97061 -3.39323 0
M  V30 7661 H 713.944 2.08562 -2.14808 0
M  V30 7662 H 711.49 1.00207 -1.03415 0
M  V30 7663 H 713.443 4.13237 -0.825423 0
M  V30 7664 H 712.167 3.26536 0.064822 0
M  V30 7665 H 710.826 3.03568 -2.05528 0
M  V30 7666 H 710.474 5.00007 -0.547941 0
M  V30 7667 H 710.174 5.4277 -2.2511 0
M  V30 7668 H 711.698 5.92785 -1.46417 0
M  V30 7669 H 713.112 4.65545 -3.34576 0
M  V30 7670 H 711.509 4.39025 -4.09118 0
M  V30 7671 H 712.579 3.00601 -3.80483 0
M  V30 7672 N 713.922 1.13953 1.08869 0
M  V30 7673 C 714.832 0.835666 2.19212 0
M  V30 7674 C 715.848 -0.182005 1.73045 0
M  V30 7675 O 717.024 -0.0116661 2.01397 0
M  V30 7676 C 714.089 0.312325 3.4529 0
M  V30 7677 C 713.15 1.39196 4.06107 0
M  V30 7678 C 712.383 0.893496 5.26168 0
M  V30 7679 O 712.606 -0.266807 5.69776 0
M  V30 7680 O 711.54 1.67037 5.78258 0
M  V30 7681 H 715.366 1.75769 2.47667 0
M  V30 7682 H 712.951 0.917421 1.17914 0
M  V30 7683 H 714.833 0.0261582 4.21392 0
M  V30 7684 H 713.508 -0.582042 3.18424 0
M  V30 7685 H 712.415 1.73152 3.31616 0
M  V30 7686 H 713.748 2.26068 4.37212 0
M  V30 7687 N 715.4 -1.26948 0.933913 0
M  V30 7688 C 716.648 -1.93704 0.576484 0
M  V30 7689 C 716.969 -1.73702 -0.886145 0
M  V30 7690 O 716.239 -1.08838 -1.62884 0
M  V30 7691 H 714.819 -0.716812 0.210214 0
M  V30 7692 H 717.481 -1.54534 1.18766 0
M  V30 7693 H 716.577 -3.01987 0.788055 0
M  V30 7694 N 716.879 -0.700114 -1.41195 0
M  V30 7695 C 718.104 -0.240704 -2.05998 0
M  V30 7696 C 718.529 1.10313 -1.52357 0
M  V30 7697 O 717.887 1.69154 -0.652424 0
M  V30 7698 C 717.935 -0.213783 -3.59966 0
M  V30 7699 O 717.039 0.809933 -4.04368 0
M  V30 7700 H 716.38 -0.116471 -0.653705 0
M  V30 7701 H 718.91 -0.956251 -1.80878 0
M  V30 7702 H 718.92 -0.0461852 -4.07974 0
M  V30 7703 H 717.595 -1.19454 -3.98376 0
M  V30 7704 H 716.172 0.611319 -3.67855 0
M  V30 7705 N 718.357 1.51182 -0.445186 0
M  V30 7706 C 719.634 1.9478 0.178965 0
M  V30 7707 C 720.014 1.38428 1.59376 0
M  V30 7708 O 719.362 0.574552 2.21159 0
M  V30 7709 C 719.572 3.48683 0.148711 0
M  V30 7710 C 720.92 4.23152 0.35042 0
M  V30 7711 O 721.944 3.55479 0.226474 0
M  V30 7712 O 720.803 5.4322 0.597893 0
M  V30 7713 H 717.897 0.817387 0.12573 0
M  V30 7714 H 720.443 1.62051 -0.503729 0
M  V30 7715 H 719.215 3.82176 -0.84009 0
M  V30 7716 H 718.838 3.87875 0.873979 0
M  V30 7717 N 719.835 0.176821 1.56605 0
M  V30 7718 C 720.765 -0.746841 2.21234 0
M  V30 7719 C 721.746 -1.23502 1.16967 0
M  V30 7720 O 722.931 -1.28718 1.45414 0
M  V30 7721 C 720.061 -1.97407 2.8574 0
M  V30 7722 C 719.015 -1.62153 3.96094 0
M  V30 7723 C 718.341 -2.92387 4.47676 0
M  V30 7724 C 719.641 -0.845353 5.15413 0
M  V30 7725 H 721.335 -0.208116 2.98676 0
M  V30 7726 H 718.881 -0.0986594 1.43662 0
M  V30 7727 H 720.834 -2.62531 3.2963 0
M  V30 7728 H 719.558 -2.53703 2.05676 0
M  V30 7729 H 718.217 -0.993964 3.52868 0
M  V30 7730 H 717.865 -3.46734 3.64396 0
M  V30 7731 H 717.565 -2.69551 5.22127 0
M  V30 7732 H 719.089 -3.5853 4.94255 0
M  V30 7733 H 720.503 -1.39929 5.55961 0
M  V30 7734 H 718.9 -0.715814 5.95815 0
M  V30 7735 H 719.97 0.157239 4.84645 0
M  V30 7736 N 721.313 -1.57302 -0.09688 0
M  V30 7737 C 722.243 -2.0497 -1.11846 0
M  V30 7738 C 723.224 -0.938278 -1.41882 0
M  V30 7739 O 724.409 -1.20943 -1.51942 0
M  V30 7740 C 721.539 -2.47264 -2.43881 0
M  V30 7741 C 720.493 -3.62053 -2.28257 0
M  V30 7742 C 719.819 -3.90318 -3.65453 0
M  V30 7743 C 721.119 -4.93005 -1.72461 0
M  V30 7744 H 722.813 -2.90567 -0.721888 0
M  V30 7745 H 720.359 -1.39786 -0.345803 0
M  V30 7746 H 722.312 -2.7922 -3.15617 0
M  V30 7747 H 721.036 -1.58664 -2.8547 0
M  V30 7748 H 719.695 -3.30341 -1.58967 0
M  V30 7749 H 719.343 -2.98889 -4.04567 0
M  V30 7750 H 719.043 -4.67597 -3.55846 0
M  V30 7751 H 720.567 -4.24747 -4.3866 0
M  V30 7752 H 721.981 -5.23354 -2.34036 0
M  V30 7753 H 720.378 -5.74436 -1.73618 0
M  V30 7754 H 721.448 -4.80053 -0.683898 0
M  V30 7755 N 722.791 0.367657 -1.53252 0
M  V30 7756 C 723.754 1.43308 -1.78873 0
M  V30 7757 C 724.754 1.46671 -0.659115 0
M  V30 7758 O 725.944 1.47468 -0.927306 0
M  V30 7759 C 723.076 2.82442 -1.90892 0
M  V30 7760 H 724.269 1.21864 -2.74024 0
M  V30 7761 H 721.822 0.600668 -1.44297 0
M  V30 7762 H 722.557 3.09202 -0.978 0
M  V30 7763 H 722.342 2.81399 -2.73051 0
M  V30 7764 H 723.832 3.59601 -2.12314 0
M  V30 7765 N 724.269 1.44576 0.627338 0
M  V30 7766 C 725.179 1.54232 1.76776 0
M  V30 7767 C 726.195 0.427782 1.6866 0
M  V30 7768 O 727.371 0.685671 1.89369 0
M  V30 7769 C 724.436 1.48738 3.13174 0
M  V30 7770 C 723.497 2.71074 3.32893 0
M  V30 7771 C 722.73 2.65832 4.62784 0
M  V30 7772 O 722.953 1.72048 5.43834 0
M  V30 7773 O 721.887 3.56742 4.84787 0
M  V30 7774 H 725.713 2.50586 1.71582 0
M  V30 7775 H 723.298 1.26865 0.789028 0
M  V30 7776 H 725.18 1.48211 3.94476 0
M  V30 7777 H 723.855 0.555292 3.18902 0
M  V30 7778 H 722.762 2.77168 2.51254 0
M  V30 7779 H 724.095 3.63342 3.32029 0
M  V30 7780 N 725.747 -0.868086 1.31537 0
M  V30 7781 C 726.694 -1.97548 1.19346 0
M  V30 7782 C 727.664 -1.65913 0.0787922 0
M  V30 7783 O 728.849 -1.89129 0.251985 0
M  V30 7784 C 725.989 -3.32922 0.908692 0
M  V30 7785 C 725.102 -3.77141 2.10687 0
M  V30 7786 C 724.237 -5.01241 1.75873 0
M  V30 7787 C 723.276 -5.37914 2.92088 0
M  V30 7788 N 722.413 -6.53192 2.57457 0
M  V30 7789 H 727.253 -2.07307 2.14074 0
M  V30 7790 H 724.79 -1.01483 1.06487 0
M  V30 7791 H 726.748 -4.10867 0.724138 0
M  V30 7792 H 725.378 -3.228 -0.0017611 0
M  V30 7793 H 724.43 -2.94961 2.40213 0
M  V30 7794 H 725.742 -4.00248 2.97663 0
M  V30 7795 H 724.896 -5.86858 1.53891 0
M  V30 7796 H 723.635 -4.80041 0.86091 0
M  V30 7797 H 722.64 -4.50814 3.14717 0
M  V30 7798 H 723.865 -5.61077 3.82582 0
M  V30 7799 H 721.811 -6.33536 1.702 0
M  V30 7800 H 721.728 -6.76252 3.37963 0
M  V30 7801 H 722.996 -7.41997 2.38873 0
M  V30 7802 N 727.225 -1.14528 -1.08264 0
M  V30 7803 C 728.188 -0.83632 -2.13397 0
M  V30 7804 C 729.188 0.159715 -1.60005 0
M  V30 7805 O 730.378 -0.0688098 -1.74064 0
M  V30 7806 C 727.51 -0.246973 -3.40004 0
M  V30 7807 H 728.703 -1.76808 -2.42237 0
M  V30 7808 H 726.256 -0.951509 -1.24 0
M  V30 7809 H 726.991 0.693436 -3.168 0
M  V30 7810 H 726.776 -0.964412 -3.80055 0
M  V30 7811 H 728.266 -0.0480679 -4.17572 0
M  V30 7812 N 728.703 1.26451 -0.940633 0
M  V30 7813 C 729.98 1.88947 -0.505811 0
M  V30 7814 C 730.36 1.85011 1.01657 0
M  V30 7815 O 729.708 1.30406 1.87634 0
M  V30 7816 C 729.918 3.32304 -1.06654 0
M  V30 7817 C 731.266 4.09153 -1.13486 0
M  V30 7818 O 732.29 3.41371 -1.01708 0
M  V30 7819 O 731.149 5.30369 -1.31797 0
M  V30 7820 H 728.243 0.810422 -0.164759 0
M  V30 7821 H 730.789 1.34625 -1.03316 0
M  V30 7822 H 729.561 3.29527 -2.11015 0
M  V30 7823 H 729.184 3.94164 -0.521603 0
M  V30 7824 N 730.181 0.707592 1.40822 0
M  V30 7825 C 731.597 0.38034 1.55002 0
M  V30 7826 C 731.797 -1.11163 1.68062 0
M  V30 7827 O 730.853 -1.89761 1.66574 0
M  V30 7828 C 732.166 1.1394 2.78277 0
M  V30 7829 C 733.714 1.12492 2.92087 0
M  V30 7830 C 734.189 1.86597 4.18265 0
M  V30 7831 N 735.68 1.83626 4.25248 0
M  V30 7832 C 736.415 2.37794 5.21768 0
M  V30 7833 N 735.911 3.00485 6.24244 0
M  V30 7834 N 737.704 2.27982 5.13791 0
M  V30 7835 H 729.855 1.67511 1.3059 0
M  V30 7836 H 732.118 0.707579 0.630901 0
M  V30 7837 H 731.824 2.19398 2.74877 0
M  V30 7838 H 731.698 0.725793 3.70151 0
M  V30 7839 H 734.085 0.0785564 2.94995 0
M  V30 7840 H 734.166 1.57768 2.01353 0
M  V30 7841 H 733.81 2.91219 4.16118 0
M  V30 7842 H 733.74 1.38746 5.07993 0
M  V30 7843 H 736.231 1.3793 3.51829 0
M  V30 7844 H 736.544 3.39355 6.94304 0
M  V30 7845 H 734.889 3.04567 6.24711 0
M  V30 7846 H 738.08 1.78669 4.3266 0
M  V30 7847 H 738.253 2.70499 5.88841 0
M  V30 7848 N 731.66 -1.50943 0.453197 0
M  V30 7849 C 733.076 -1.59245 0.106342 0
M  V30 7850 C 733.276 -1.46287 -1.38572 0
M  V30 7851 O 732.332 -1.31219 -2.15726 0
M  V30 7852 C 733.645 -2.93797 0.640595 0
M  V30 7853 C 735.193 -3.07148 0.602435 0
M  V30 7854 C 735.668 -4.44247 1.11393 0
M  V30 7855 N 737.159 -4.50611 1.07258 0
M  V30 7856 C 737.894 -5.55049 1.43905 0
M  V30 7857 N 737.39 -6.66828 1.87914 0
M  V30 7858 N 739.183 -5.45494 1.35621 0
M  V30 7859 H 731.334 -1.5761 1.42382 0
M  V30 7860 H 733.597 -0.74384 0.587713 0
M  V30 7861 H 733.303 -3.087 1.68515 0
M  V30 7862 H 733.177 -3.77127 0.0742272 0
M  V30 7863 H 735.564 -2.91903 -0.433171 0
M  V30 7864 H 735.645 -2.25619 1.20539 0
M  V30 7865 H 735.289 -4.60239 2.14808 0
M  V30 7866 H 735.219 -5.2434 0.487353 0
M  V30 7867 H 737.71 -3.70391 0.749585 0
M  V30 7868 H 738.023 -7.42558 2.14072 0
M  V30 7869 H 736.368 -6.67995 1.91853 0
M  V30 7870 H 739.559 -4.57053 1.01093 0
M  V30 7871 H 739.732 -6.2677 1.64508 0
M  V30 7872 N 733.138 -0.185124 -1.56509 0
M  V30 7873 C 734.048 0.751908 -2.22224 0
M  V30 7874 C 735.064 1.24244 -1.21817 0
M  V30 7875 O 736.24 1.29169 -1.54523 0
M  V30 7876 C 733.305 1.95837 -2.86092 0
M  V30 7877 C 732.366 1.51337 -4.01741 0
M  V30 7878 C 731.599 2.66233 -4.62554 0
M  V30 7879 O 731.822 3.8346 -4.22273 0
M  V30 7880 O 730.756 2.39517 -5.52191 0
M  V30 7881 H 734.582 0.222304 -3.02885 0
M  V30 7882 H 732.167 0.0437141 -1.49336 0
M  V30 7883 H 734.049 2.66368 -3.26536 0
M  V30 7884 H 732.724 2.47677 -2.08417 0
M  V30 7885 H 731.631 0.777155 -3.65939 0
M  V30 7886 H 732.964 1.04175 -4.81049 0
M  V30 7887 N 734.616 1.57351 0.0885366 0
M  V30 7888 C 735.863 1.86419 0.790824 0
M  V30 7889 C 736.191 0.774561 1.78412 0
M  V30 7890 O 735.446 -0.23119 1.9433 0
M  V30 7891 C 735.745 3.22098 1.5488 0
M  V30 7892 C 735.411 4.4548 0.697025 0
M  V30 7893 C 734.073 4.78975 0.462237 0
M  V30 7894 C 736.425 5.21094 0.105315 0
M  V30 7895 C 733.753 5.85507 -0.374016 0
M  V30 7896 C 736.105 6.28509 -0.718298 0
M  V30 7897 C 734.769 6.60515 -0.963116 0
M  V30 7898 H 734.039 0.682157 0.289383 0
M  V30 7899 H 736.686 1.91429 0.0520961 0
M  V30 7900 H 734.991 3.12803 2.35927 0
M  V30 7901 H 736.688 3.41819 2.09669 0
M  V30 7902 H 733.278 4.19255 0.890137 0
M  V30 7903 H 737.462 4.95544 0.273856 0
M  V30 7904 H 732.718 6.08713 -0.572606 0
M  V30 7905 H 736.892 6.86268 -1.18362 0
M  V30 7906 H 734.519 7.42893 -1.6129 0
M  V30 7907 N 736.094 -0.359525 1.53444 0
M  V30 7908 C 737.34 -1.10315 1.70172 0
M  V30 7909 C 737.673 -1.88788 0.455287 0
M  V30 7910 O 736.948 -1.86635 -0.547514 0
M  V30 7911 C 737.231 -2.05744 2.95536 0
M  V30 7912 C 737.084 -1.3084 4.3035 0
M  V30 7913 C 738.403 -3.05784 3.16518 0
M  V30 7914 H 735.522 -0.399662 0.619225 0
M  V30 7915 H 738.164 -0.383338 1.86093 0
M  V30 7916 H 736.314 -2.67125 2.82093 0
M  V30 7917 H 737.986 -0.721959 4.55615 0
M  V30 7918 H 736.229 -0.610283 4.29486 0
M  V30 7919 H 736.9 -2.00718 5.14214 0
M  V30 7920 H 739.376 -2.5451 3.29187 0
M  V30 7921 H 738.252 -3.69772 4.05659 0
M  V30 7922 H 738.513 -3.76289 2.32076 0
M  V30 7923 N 737.572 -1.44907 -0.619662 0
M  V30 7924 C 738.797 -1.52021 -1.41083 0
M  V30 7925 C 739.222 -0.14976 -1.87503 0
M  V30 7926 O 738.58 0.863303 -1.59426 0
M  V30 7927 C 738.628 -2.49911 -2.59955 0
M  V30 7928 O 737.732 -2.00857 -3.60181 0
M  V30 7929 H 737.073 -0.512912 -0.421684 0
M  V30 7930 H 739.603 -1.90149 -0.755282 0
M  V30 7931 H 739.613 -2.68323 -3.07354 0
M  V30 7932 H 738.288 -3.4945 -2.25516 0
M  V30 7933 H 736.865 -1.92265 -3.19513 0
M  V30 7934 N 739.05 0.861098 -1.31996 0
M  V30 7935 C 739.98 1.98482 -1.22993 0
M  V30 7936 C 740.961 1.6971 -0.115168 0
M  V30 7937 O 742.146 1.91849 -0.30126 0
M  V30 7938 C 739.276 3.34179 -0.945615 0
M  V30 7939 C 738.23 3.77284 -2.02091 0
M  V30 7940 C 737.556 5.1054 -1.58912 0
M  V30 7941 C 738.856 3.93439 -3.43515 0
M  V30 7942 H 740.55 2.06271 -2.17008 0
M  V30 7943 H 738.096 0.991043 -1.04472 0
M  V30 7944 H 740.049 4.12338 -0.869206 0
M  V30 7945 H 738.773 3.26586 0.0301849 0
M  V30 7946 H 737.432 3.01371 -2.08737 0
M  V30 7947 H 737.08 4.99397 -0.600942 0
M  V30 7948 H 736.78 5.40352 -2.30854 0
M  V30 7949 H 738.304 5.91199 -1.52696 0
M  V30 7950 H 739.718 4.6197 -3.39495 0
M  V30 7951 H 738.115 4.34661 -4.13751 0
M  V30 7952 H 739.185 2.96548 -3.8365 0
M  V30 7953 N 740.528 1.15101 1.07655 0
M  V30 7954 C 741.458 0.867864 2.16773 0
M  V30 7955 C 742.439 -0.180283 1.69142 0
M  V30 7956 O 743.624 -0.0353152 1.94168 0
M  V30 7957 C 740.754 0.35299 3.45501 0
M  V30 7958 C 739.708 1.33746 4.06566 0
M  V30 7959 C 739.034 0.681562 5.30338 0
M  V30 7960 C 740.334 2.7024 4.46954 0
M  V30 7961 H 742.028 1.78034 2.40716 0
M  V30 7962 H 739.574 0.857435 1.15689 0
M  V30 7963 H 741.527 0.142465 4.21159 0
M  V30 7964 H 740.251 -0.594945 3.21135 0
M  V30 7965 H 738.91 1.53429 3.32949 0
M  V30 7966 H 738.558 -0.272422 5.02262 0
M  V30 7967 H 738.258 1.33853 5.72151 0
M  V30 7968 H 739.782 0.48074 6.08705 0
M  V30 7969 H 741.196 2.5442 5.13754 0
M  V30 7970 H 739.593 3.32282 4.99709 0
M  V30 7971 H 740.663 3.26537 3.58471 0
M  V30 7972 N 742.006 -1.2595 0.947325 0
M  V30 7973 C 742.953 -2.26159 0.460497 0
M  V30 7974 C 743.923 -1.58919 -0.483125 0
M  V30 7975 O 745.108 -1.86603 -0.397983 0
M  V30 7976 C 742.248 -3.441 -0.26247 0
M  V30 7977 C 741.361 -4.25999 0.717539 0
M  V30 7978 C 740.496 -5.31193 -0.0272486 0
M  V30 7979 C 739.535 -6.04774 0.944177 0
M  V30 7980 N 738.672 -7.01721 0.230741 0
M  V30 7981 H 743.512 -2.67173 1.31995 0
M  V30 7982 H 741.049 -1.31358 0.662088 0
M  V30 7983 H 743.007 -4.11317 -0.698137 0
M  V30 7984 H 741.637 -3.03983 -1.08602 0
M  V30 7985 H 740.689 -3.58513 1.27171 0
M  V30 7986 H 742.001 -4.76981 1.45913 0
M  V30 7987 H 741.155 -6.04451 -0.521903 0
M  V30 7988 H 739.894 -4.81066 -0.801682 0
M  V30 7989 H 738.899 -5.30338 1.4499 0
M  V30 7990 H 740.124 -6.56991 1.71872 0
M  V30 7991 H 738.07 -6.53895 -0.525088 0
M  V30 7992 H 737.987 -7.50484 0.911556 0
M  V30 7993 H 739.255 -7.79122 -0.242616 0
M  V30 7994 N 743.484 -0.715051 -1.40445 0
M  V30 7995 C 744.431 -0.0621393 -2.30716 0
M  V30 7996 C 745.401 0.750871 -1.48159 0
M  V30 7997 O 746.586 0.714928 -1.76899 0
M  V30 7998 C 743.726 0.854036 -3.34365 0
M  V30 7999 C 742.839 0.0305565 -4.31989 0
M  V30 8000 C 741.974 0.946162 -5.22706 0
M  V30 8001 C 741.013 0.116741 -6.11989 0
M  V30 8002 N 740.15 0.987194 -6.95125 0
M  V30 8003 H 744.99 -0.83764 -2.85985 0
M  V30 8004 H 742.527 -0.424759 -1.40834 0
M  V30 8005 H 744.485 1.39946 -3.93028 0
M  V30 8006 H 743.115 1.59572 -2.806 0
M  V30 8007 H 742.167 -0.632044 -3.75112 0
M  V30 8008 H 743.479 -0.611615 -4.95036 0
M  V30 8009 H 742.633 1.56014 -5.86297 0
M  V30 8010 H 741.372 1.62216 -4.59932 0
M  V30 8011 H 740.377 -0.510176 -5.47428 0
M  V30 8012 H 741.602 -0.555742 -6.76822 0
M  V30 8013 H 739.548 1.64885 -6.3494 0
M  V30 8014 H 739.465 0.401046 -7.54936 0
M  V30 8015 H 740.733 1.58737 -7.63166 0
M  V30 8016 N 744.962 1.50701 -0.461195 0
M  V30 8017 C 745.895 2.24948 0.383863 0
M  V30 8018 C 746.873 1.27851 1.00464 0
M  V30 8019 O 748.057 1.57049 1.04249 0
M  V30 8020 C 745.184 3.01818 1.537 0
M  V30 8021 C 744.23 4.13762 1.03457 0
M  V30 8022 S 745.063 5.35483 -0.0427485 0
M  V30 8023 C 746.219 6.15898 1.11449 0
M  V30 8024 H 746.452 2.96277 -0.246425 0
M  V30 8025 H 743.985 1.52428 -0.245961 0
M  V30 8026 H 745.943 3.467 2.19794 0
M  V30 8027 H 744.604 2.30034 2.13877 0
M  V30 8028 H 743.797 4.66914 1.89757 0
M  V30 8029 H 743.399 3.71265 0.4515 0
M  V30 8030 H 745.691 6.46431 2.02813 0
M  V30 8031 H 746.634 7.05359 0.622444 0
M  V30 8032 H 747.042 5.47777 1.36385 0
M  V30 8033 N 746.441 0.193421 1.56409 0
M  V30 8034 C 747.371 -0.723334 2.22014 0
M  V30 8035 C 748.352 -1.22254 1.1827 0
M  V30 8036 O 749.537 -1.27168 1.46771 0
M  V30 8037 C 746.667 -1.94366 2.87818 0
M  V30 8038 C 745.621 -1.57943 3.97791 0
M  V30 8039 C 744.947 -2.87623 4.50752 0
M  V30 8040 C 746.247 -0.790639 5.16281 0
M  V30 8041 H 747.941 -0.176426 2.9888 0
M  V30 8042 H 745.487 -0.0834166 1.43758 0
M  V30 8043 H 747.44 -2.5902 3.32396 0
M  V30 8044 H 746.164 -2.51507 2.08355 0
M  V30 8045 H 744.823 -0.956482 3.53903 0
M  V30 8046 H 744.471 -3.4285 3.68053 0
M  V30 8047 H 744.171 -2.63998 5.24956 0
M  V30 8048 H 745.695 -3.53268 4.9803 0
M  V30 8049 H 747.109 -1.34024 5.57414 0
M  V30 8050 H 745.506 -0.65258 5.96541 0
M  V30 8051 H 746.576 0.208633 4.84451 0
M  V30 8052 N 747.919 -1.57396 -0.0801906 0
M  V30 8053 C 748.849 -2.06145 -1.09665 0
M  V30 8054 C 749.83 -0.953273 -1.40878 0
M  V30 8055 O 751.015 -1.22548 -1.50651 0
M  V30 8056 C 748.145 -2.49836 -2.41245 0
M  V30 8057 C 747.099 -3.64454 -2.24405 0
M  V30 8058 C 746.425 -3.94172 -3.61293 0
M  V30 8059 C 747.725 -4.94807 -1.67223 0
M  V30 8060 H 749.419 -2.91316 -0.691028 0
M  V30 8061 H 746.965 -1.40145 -0.330957 0
M  V30 8062 H 748.918 -2.82552 -3.12638 0
M  V30 8063 H 747.642 -1.61683 -2.83771 0
M  V30 8064 H 746.301 -3.32008 -1.55454 0
M  V30 8065 H 745.949 -3.03163 -4.01374 0
M  V30 8066 H 745.649 -4.71345 -3.50867 0
M  V30 8067 H 747.173 -4.29376 -4.3413 0
M  V30 8068 H 748.587 -5.25807 -2.28472 0
M  V30 8069 H 746.984 -5.76245 -1.67515 0
M  V30 8070 H 748.054 -4.80751 -0.632944 0
M  V30 8071 N 749.397 0.351382 -1.53633 0
M  V30 8072 C 750.646 1.08988 -1.69719 0
M  V30 8073 C 750.959 1.90043 -0.462948 0
M  V30 8074 O 752.165 2.66769 -0.504613 0
M  V30 8075 C 750.621 1.98691 -3.00083 0
M  V30 8076 C 750.229 1.22881 -4.30818 0
M  V30 8077 C 751.973 2.72446 -3.25536 0
M  V30 8078 C 749.88 2.11568 -5.52262 0
M  V30 8079 H 748.81 0.410588 -0.632403 0
M  V30 8080 H 751.461 0.349886 -1.80133 0
M  V30 8081 H 749.843 2.76478 -2.83506 0
M  V30 8082 H 751.017 0.500582 -4.58073 0
M  V30 8083 H 749.332 0.60928 -4.11918 0
M  V30 8084 H 751.929 3.39055 -4.13456 0
M  V30 8085 H 752.272 3.38588 -2.42206 0
M  V30 8086 H 752.805 2.01735 -3.42852 0
M  V30 8087 H 749.544 1.4998 -6.38111 0
M  V30 8088 H 749.064 2.82201 -5.29266 0
M  V30 8089 H 750.743 2.70802 -5.87601 0
M  V30 8090 N 750.875 1.45233 0.611969 0
M  V30 8091 C 752.152 1.39495 1.37115 0
M  V30 8092 C 752.532 0.0633303 2.11005 0
M  V30 8093 O 751.88 -0.954617 2.07604 0
M  V30 8094 C 752.09 2.60579 2.32163 0
M  V30 8095 C 753.438 3.05477 2.94905 0
M  V30 8096 O 754.462 2.60921 2.42485 0
M  V30 8097 O 753.321 3.82787 3.90047 0
M  V30 8098 H 750.415 0.55335 0.614599 0
M  V30 8099 H 752.961 1.57355 0.635423 0
M  V30 8100 H 751.733 3.49085 1.76793 0
M  V30 8101 H 751.356 2.45031 3.13122 0
M  V30 8102 N 752.353 -0.854086 1.3245 0
M  V30 8103 C 753.316 -1.94427 1.21371 0
M  V30 8104 C 754.316 -1.60219 0.136613 0
M  V30 8105 O 755.506 -1.69846 0.387057 0
M  V30 8106 C 752.638 -3.29698 0.866701 0
M  V30 8107 H 753.831 -2.05679 2.18257 0
M  V30 8108 H 751.384 -1.04434 1.1629 0
M  V30 8109 H 752.119 -3.24145 -0.100319 0
M  V30 8110 H 751.904 -3.55903 1.64545 0
M  V30 8111 H 753.394 -4.09599 0.813515 0
M  V30 8112 N 753.831 -1.1567 -1.07043 0
M  V30 8113 C 755.108 -0.843948 -1.76456 0
M  V30 8114 C 755.488 0.659806 -2.00524 0
M  V30 8115 O 754.836 1.60518 -1.62623 0
M  V30 8116 C 755.046 -1.65822 -3.0709 0
M  V30 8117 C 756.394 -1.8664 -3.8138 0
M  V30 8118 O 757.418 -1.62624 -3.1691 0
M  V30 8119 O 756.277 -2.26884 -4.97178 0
M  V30 8120 H 753.371 -0.310677 -0.766426 0
M  V30 8121 H 755.917 -1.26266 -1.1338 0
M  V30 8122 H 754.689 -2.67902 -2.85209 0
M  V30 8123 H 754.312 -1.23605 -3.77899 0
M  V30 8124 N 755.309 1.25446 -0.953992 0
M  V30 8125 C 756.239 2.28264 -0.491717 0
M  V30 8126 C 757.22 1.63717 0.461617 0
M  V30 8127 O 758.405 1.90821 0.36071 0
M  V30 8128 C 755.535 3.46525 0.231915 0
M  V30 8129 C 754.489 4.23247 -0.636098 0
M  V30 8130 C 753.815 5.34254 0.218238 0
M  V30 8131 C 755.115 4.85971 -1.91389 0
M  V30 8132 H 756.809 2.67183 -1.35106 0
M  V30 8133 H 754.355 1.2844 -0.651095 0
M  V30 8134 H 756.308 4.17576 0.566439 0
M  V30 8135 H 755.032 3.06594 1.12551 0
M  V30 8136 H 753.691 3.53978 -0.953696 0
M  V30 8137 H 753.339 4.90564 1.11156 0
M  V30 8138 H 753.039 5.86501 -0.359232 0
M  V30 8139 H 754.563 6.08138 0.547743 0
M  V30 8140 H 755.977 5.49168 -1.64581 0
M  V30 8141 H 754.374 5.48391 -2.43696 0
M  V30 8142 H 755.444 4.08192 -2.61738 0
M  V30 8143 N 756.787 0.722489 1.40064 0
M  V30 8144 C 758.203 0.396758 1.5459 0
M  V30 8145 C 758.403 -1.09375 1.69232 0
M  V30 8146 O 757.459 -1.87984 1.68578 0
M  V30 8147 C 758.772 1.16885 2.77053 0
M  V30 8148 C 760.32 1.15583 2.90877 0
M  V30 8149 C 760.795 1.91023 4.16262 0
M  V30 8150 N 762.286 1.88126 4.23276 0
M  V30 8151 C 763.021 2.43315 5.19216 0
M  V30 8152 N 762.517 3.07089 6.21022 0
M  V30 8153 N 764.31 2.33418 5.11344 0
M  V30 8154 H 756.461 1.68887 1.28806 0
M  V30 8155 H 758.724 0.714231 0.62336 0
M  V30 8156 H 758.43 2.22301 2.72534 0
M  V30 8157 H 758.304 0.765011 3.69361 0
M  V30 8158 H 760.691 0.10984 2.94896 0
M  V30 8159 H 760.772 1.59895 1.99668 0
M  V30 8160 H 760.416 2.95616 4.13006 0
M  V30 8161 H 760.346 1.44126 5.06493 0
M  V30 8162 H 762.837 1.41654 3.50346 0
M  V30 8163 H 763.15 3.467 6.90666 0
M  V30 8164 H 761.495 3.11175 6.21446 0
M  V30 8165 H 764.686 1.83248 4.30741 0
M  V30 8166 H 764.859 2.7673 5.85939 0
M  V30 8167 N 758.265 -1.50454 0.469181 0
M  V30 8168 C 759.514 -2.01507 -0.0881425 0
M  V30 8169 C 759.827 -1.35613 -1.40956 0
M  V30 8170 O 761.033 -1.77812 -2.05171 0
M  V30 8171 C 759.489 -3.59301 -0.207596 0
M  V30 8172 C 759.097 -4.34152 1.10527 0
M  V30 8173 C 760.841 -4.18401 -0.716981 0
M  V30 8174 C 758.748 -5.83725 0.949717 0
M  V30 8175 H 757.678 -0.753106 -0.0367156 0
M  V30 8176 H 760.329 -1.73282 0.603788 0
M  V30 8177 H 758.711 -3.84106 -0.963265 0
M  V30 8178 H 759.885 -4.21073 1.87175 0
M  V30 8179 H 758.2 -3.86652 1.54562 0
M  V30 8180 H 760.797 -5.27895 -0.850363 0
M  V30 8181 H 761.14 -3.79657 -1.70782 0
M  V30 8182 H 761.673 -3.97796 -0.0187511 0
M  V30 8183 H 758.412 -6.26938 1.91387 0
M  V30 8184 H 757.932 -5.99383 0.223591 0
M  V30 8185 H 759.611 -6.44065 0.61557 0
M  V30 8186 N 759.743 -0.201713 -1.56304 0
M  V30 8187 C 760.971 0.440723 -2.02152 0
M  V30 8188 C 761.386 1.54735 -1.08179 0
M  V30 8189 O 760.743 1.82289 -0.0878196 0
M  V30 8190 C 760.794 0.990884 -3.47655 0
M  V30 8191 O 760.515 -0.0715937 -4.38041 0
M  V30 8192 C 762.016 1.70854 -4.09052 0
M  V30 8193 H 759.236 0.109987 -0.661924 0
M  V30 8194 H 761.78 -0.312358 -2.021 0
M  V30 8195 H 759.935 1.69432 -3.48384 0
M  V30 8196 H 760.349 0.338892 -5.23404 0
M  V30 8197 H 761.823 2.04572 -5.12693 0
M  V30 8198 H 762.3 2.61462 -3.52894 0
M  V30 8199 H 762.906 1.0508 -4.12114 0
M  V30 8200 N 761.222 1.57436 0.0718424 0
M  V30 8201 C 762.633 1.75975 0.623678 0
M  V30 8202 C 762.984 0.827155 1.77912 0
M  V30 8203 O 762.109 0.0112425 2.16397 0
M  V30 8204 C 762.704 3.1911 1.13816 0
M  V30 8205 C 761.263 3.38994 1.63586 0
M  V30 8206 C 760.41 2.71684 0.555261 0
M  V30 8207 H 763.361 1.57948 -0.154328 0
M  V30 8208 H 763.382 3.23267 2.00696 0
M  V30 8209 H 762.894 3.86962 0.296998 0
M  V30 8210 H 760.995 2.76256 2.50027 0
M  V30 8211 H 761.108 4.47436 1.71283 0
M  V30 8212 H 759.472 2.34236 1.00029 0
M  V30 8213 H 760.255 3.42191 -0.275712 0
M  V30 8214 N 762.7 -0.34323 1.53817 0
M  V30 8215 C 763.663 -1.40444 1.8113 0
M  V30 8216 C 764.663 -1.45604 0.682366 0
M  V30 8217 O 765.853 -1.45974 0.950649 0
M  V30 8218 C 762.985 -2.79369 1.95361 0
M  V30 8219 H 764.178 -1.17489 2.75928 0
M  V30 8220 H 761.731 -0.577636 1.45234 0
M  V30 8221 H 762.466 -3.07607 1.02707 0
M  V30 8222 H 762.251 -2.7702 2.77493 0
M  V30 8223 H 763.741 -3.56178 2.18008 0
M  V30 8224 N 764.178 -1.45556 -0.604258 0
M  V30 8225 C 765.088 -1.57025 -1.74299 0
M  V30 8226 C 766.104 -0.45456 -1.67958 0
M  V30 8227 O 767.28 -0.715711 -1.88254 0
M  V30 8228 C 764.345 -1.53702 -3.10768 0
M  V30 8229 C 763.406 -2.76335 -3.28538 0
M  V30 8230 C 762.639 -2.73161 -4.58496 0
M  V30 8231 O 762.862 -1.80678 -5.41028 0
M  V30 8232 O 761.796 -3.64409 -4.79051 0
M  V30 8233 H 765.622 -2.53284 -1.67573 0
M  V30 8234 H 763.207 -1.28104 -0.768745 0
M  V30 8235 H 765.089 -1.54468 -3.92068 0
M  V30 8236 H 763.764 -0.605957 -3.17978 0
M  V30 8237 H 762.671 -2.8113 -2.46813 0
M  V30 8238 H 764.004 -3.68578 -3.26207 0
M  V30 8239 N 765.656 0.84705 -1.32902 0
M  V30 8240 C 766.884 1.63403 -1.26913 0
M  V30 8241 C 767.299 1.88108 0.161483 0
M  V30 8242 O 766.656 1.45546 1.10103 0
M  V30 8243 C 766.707 2.98896 -2.03331 0
M  V30 8244 O 766.428 2.75281 -3.40811 0
M  V30 8245 C 767.929 3.93335 -2.04457 0
M  V30 8246 H 765.149 0.508701 -0.437566 0
M  V30 8247 H 767.693 1.05567 -1.75145 0
M  V30 8248 H 765.848 3.53356 -1.58802 0
M  V30 8249 H 766.262 3.61504 -3.8002 0
M  V30 8250 H 767.736 4.85647 -2.62394 0
M  V30 8251 H 768.213 4.26885 -1.03274 0
M  V30 8252 H 768.819 3.44812 -2.48967 0
M  V30 8253 N 767.134 1.16236 1.06428 0
M  V30 8254 C 768.064 0.890807 2.1584 0
M  V30 8255 C 769.045 -0.162333 1.69324 0
M  V30 8256 O 770.23 -0.0147191 1.94194 0
M  V30 8257 C 767.36 0.389615 3.45108 0
M  V30 8258 C 766.314 1.38051 4.05125 0
M  V30 8259 C 765.64 0.737773 5.29586 0
M  V30 8260 C 766.94 2.74965 4.44062 0
M  V30 8261 H 768.634 1.80577 2.38814 0
M  V30 8262 H 766.18 0.869657 1.14774 0
M  V30 8263 H 768.133 0.187127 4.20984 0
M  V30 8264 H 766.857 -0.560851 3.21748 0
M  V30 8265 H 765.516 1.56952 3.31303 0
M  V30 8266 H 765.164 -0.219135 5.02522 0
M  V30 8267 H 764.864 1.39914 5.70699 0
M  V30 8268 H 766.388 0.545275 6.0816 0
M  V30 8269 H 767.802 2.59855 5.11027 0
M  V30 8270 H 766.199 3.37563 4.96156 0
M  V30 8271 H 767.269 3.30321 3.54987 0
M  V30 8272 N 768.612 -1.24939 0.960631 0
M  V30 8273 C 769.56 -2.27659 0.47686 0
M  V30 8274 C 770.554 -1.63148 -0.455961 0
M  V30 8275 O 771.76 -1.76911 -0.332029 0
M  V30 8276 H 768.135 -0.739651 0.135723 0
M  V30 8277 H 770.106 -2.65844 1.35534 0
M  V30 8278 C 768.855 -3.46976 -0.224191 0
M  V30 8279 H 768.178 -3.96854 0.484471 0
M  V30 8280 H 769.618 -4.20717 -0.526615 0
M  V30 8281 C 768.077 -3.04159 -1.44876 0
M  V30 8282 O 768.607 -3.10697 -2.54618 0
M  V30 8283 N 766.813 -2.59284 -1.31226 0
M  V30 8284 H 766.36 -2.54164 -0.419361 0
M  V30 8285 H 766.318 -2.31 -2.13275 0
M  V30 8286 N 770.09 -0.729906 -1.39679 0
M  V30 8287 C 771.04 -0.0627678 -2.27914 0
M  V30 8288 C 772.024 0.717867 -1.43998 0
M  V30 8289 O 773.216 0.587713 -1.66958 0
M  V30 8290 C 770.345 0.847564 -3.32673 0
M  V30 8291 C 769.431 0.0613515 -4.24056 0
M  V30 8292 N 769.822 -0.962863 -4.96551 0
M  V30 8293 C 768.12 0.291773 -4.45045 0
M  V30 8294 C 768.821 -1.43652 -5.63683 0
M  V30 8295 N 767.797 -0.756044 -5.38317 0
M  V30 8296 H 771.599 -0.847545 -2.81414 0
M  V30 8297 H 769.113 -0.563776 -1.523 0
M  V30 8298 H 771.11 1.34094 -3.94746 0
M  V30 8299 H 769.77 1.63156 -2.80732 0
M  V30 8300 H 770.781 -1.34409 -5.00154 0
M  V30 8301 H 767.458 1.05097 -4.04056 0
M  V30 8302 H 768.848 -2.28835 -6.31731 0
M  V30 8303 N 771.568 1.50203 -0.477153 0
M  V30 8304 C 772.979 1.86685 -0.0235041 0
M  V30 8305 C 773.33 1.39148 1.38319 0
M  V30 8306 O 772.455 0.759051 2.02651 0
M  V30 8307 C 773.05 3.38781 -0.0358767 0
M  V30 8308 C 771.609 3.74652 0.362327 0
M  V30 8309 C 770.756 2.7412 -0.41875 0
M  V30 8310 H 773.707 1.4286 -0.691133 0
M  V30 8311 H 773.728 3.72732 0.764924 0
M  V30 8312 H 773.24 3.73349 -1.05981 0
M  V30 8313 H 771.341 3.45686 1.39039 0
M  V30 8314 H 771.454 4.79063 0.059457 0
M  V30 8315 H 769.818 2.54376 0.128341 0
M  V30 8316 H 770.601 3.11532 -1.44231 0
M  V30 8317 N 773.046 0.209999 1.56195 0
M  V30 8318 C 774.293 -0.424813 1.97994 0
M  V30 8319 C 774.621 -1.60589 1.09733 0
M  V30 8320 O 773.876 -1.95201 0.139693 0
M  V30 8321 C 774.175 -0.91312 3.45539 0
M  V30 8322 C 773.841 0.156187 4.50629 0
M  V30 8323 C 772.503 0.449966 4.79092 0
M  V30 8324 C 774.855 0.879959 5.13718 0
M  V30 8325 C 772.183 1.47223 5.67928 0
M  V30 8326 C 774.535 1.89148 6.0366 0
M  V30 8327 C 773.199 2.1923 6.30472 0
M  V30 8328 H 772.469 -0.15545 0.724511 0
M  V30 8329 H 775.116 0.310095 1.88973 0
M  V30 8330 H 773.421 -1.72658 3.51705 0
M  V30 8331 H 775.118 -1.41395 3.75245 0
M  V30 8332 H 771.708 -0.0829466 4.2852 0
M  V30 8333 H 775.892 0.66623 4.91808 0
M  V30 8334 H 771.148 1.71105 5.86969 0
M  V30 8335 H 775.322 2.45745 6.516 0
M  V30 8336 H 772.949 2.98587 6.99107 0
M  V30 8337 N 774.524 -1.57472 -0.0634922 0
M  V30 8338 C 775.77 -1.87932 -0.762194 0
M  V30 8339 C 776.103 -0.803377 -1.76804 0
M  V30 8340 O 775.378 0.185468 -1.93614 0
M  V30 8341 C 775.661 -3.29053 -1.46275 0
M  V30 8342 C 775.514 -4.47309 -0.472755 0
M  V30 8343 C 776.833 -3.68537 -2.40558 0
M  V30 8344 H 773.952 -0.683521 -0.275624 0
M  V30 8345 H 776.594 -1.89983 -0.0252651 0
M  V30 8346 H 774.744 -3.27435 -2.0909 0
M  V30 8347 H 776.416 -4.61053 0.150828 0
M  V30 8348 H 774.659 -4.33286 0.211187 0
M  V30 8349 H 775.33 -5.42853 -1.00072 0
M  V30 8350 H 777.806 -3.71302 -1.87814 0
M  V30 8351 H 776.682 -4.68152 -2.86574 0
M  V30 8352 H 776.943 -2.98917 -3.25731 0
M  V30 8353 N 776.003 0.335068 -1.53997 0
M  V30 8354 C 776.951 1.43206 -1.83289 0
M  V30 8355 C 777.945 1.54081 -0.703953 0
M  V30 8356 O 779.151 1.56603 -0.887432 0
M  V30 8357 H 775.526 0.477655 -0.580818 0
M  V30 8358 H 777.497 1.15719 -2.75049 0
M  V30 8359 C 776.246 2.79602 -2.06683 0
M  V30 8360 H 775.569 2.72004 -2.93008 0
M  V30 8361 H 777.009 3.55459 -2.31139 0
M  V30 8362 C 775.468 3.25873 -0.854883 0
M  V30 8363 O 775.998 4.01657 -0.0584648 0
M  V30 8364 N 774.204 2.82777 -0.669729 0
M  V30 8365 H 773.751 2.21269 -1.31901 0
M  V30 8366 H 773.709 3.1409 0.13969 0
M  V30 8367 N 777.481 1.45874 0.596531 0
M  V30 8368 C 778.414 1.49889 1.72071 0
M  V30 8369 C 779.392 0.354224 1.58695 0
M  V30 8370 O 780.576 0.556355 1.80103 0
M  V30 8371 C 777.703 1.3644 3.10003 0
M  V30 8372 C 776.749 2.54913 3.41938 0
M  V30 8373 S 777.582 4.17336 3.35545 0
M  V30 8374 C 778.738 4.06372 4.76039 0
M  V30 8375 H 778.971 2.45005 1.68404 0
M  V30 8376 H 776.504 1.33592 0.77412 0
M  V30 8377 H 778.462 1.29368 3.89582 0
M  V30 8378 H 777.123 0.427762 3.11174 0
M  V30 8379 H 776.316 2.41458 4.42396 0
M  V30 8380 H 775.918 2.58904 2.69898 0
M  V30 8381 H 778.21 3.72199 5.66105 0
M  V30 8382 H 779.153 5.0678 4.9455 0
M  V30 8383 H 779.561 3.37846 4.52239 0
M  V30 8384 N 778.959 -0.83999 1.33349 0
M  V30 8385 C 779.906 -1.94972 1.23509 0
M  V30 8386 C 780.876 -1.65709 0.113967 0
M  V30 8387 O 782.061 -1.88552 0.292045 0
M  V30 8388 C 779.201 -3.30919 0.979105 0
M  V30 8389 C 778.314 -3.72587 2.18639 0
M  V30 8390 C 777.449 -4.97397 1.86465 0
M  V30 8391 C 776.488 -5.31597 3.03432 0
M  V30 8392 N 775.625 -6.47584 2.71254 0
M  V30 8393 H 780.465 -2.0272 2.18423 0
M  V30 8394 H 778.002 -0.992017 1.08616 0
M  V30 8395 H 779.96 -4.09239 0.811126 0
M  V30 8396 H 778.59 -3.22731 0.0667099 0
M  V30 8397 H 777.642 -2.89799 2.46416 0
M  V30 8398 H 778.954 -3.93844 3.06086 0
M  V30 8399 H 778.108 -5.83462 1.66305 0
M  V30 8400 H 776.847 -4.78107 0.96254 0
M  V30 8401 H 775.852 -4.44037 3.24208 0
M  V30 8402 H 777.077 -5.52836 3.94397 0
M  V30 8403 H 775.023 -6.29783 1.836 0
M  V30 8404 H 774.94 -6.68931 3.52231 0
M  V30 8405 H 776.208 -7.36764 2.54558 0
M  V30 8406 N 780.437 -1.16799 -1.0581 0
M  V30 8407 C 781.387 -0.847231 -2.11674 0
M  V30 8408 C 782.371 0.175476 -1.5994 0
M  V30 8409 O 783.563 -0.0260602 -1.76981 0
M  V30 8410 C 780.692 -0.355446 -3.41455 0
M  V30 8411 C 779.778 -1.40922 -4.00002 0
M  V30 8412 N 780.169 -2.62096 -4.32596 0
M  V30 8413 C 778.467 -1.26562 -4.27666 0
M  V30 8414 C 779.168 -3.29759 -4.79201 0
M  V30 8415 N 778.144 -2.57138 -4.78938 0
M  V30 8416 H 781.946 -1.76862 -2.34727 0
M  V30 8417 H 779.46 -1.05577 -1.23399 0
M  V30 8418 H 781.457 -0.107231 -4.16762 0
M  V30 8419 H 780.117 0.559817 -3.19838 0
M  V30 8420 H 781.128 -2.99113 -4.22791 0
M  V30 8421 H 777.805 -0.411503 -4.15467 0
M  V30 8422 H 779.195 -4.33222 -5.13584 0
M  V30 8423 N 781.915 1.24427 -0.967243 0
M  V30 8424 C 782.845 2.2773 -0.515899 0
M  V30 8425 C 783.826 1.64197 0.444227 0
M  V30 8426 O 785.011 1.91193 0.340451 0
M  V30 8427 C 782.141 3.46751 0.195149 0
M  V30 8428 C 781.095 4.22548 -0.680953 0
M  V30 8429 C 780.421 5.34456 0.161561 0
M  V30 8430 C 781.721 4.83914 -1.96532 0
M  V30 8431 H 783.415 2.65735 -1.37933 0
M  V30 8432 H 780.961 1.27742 -0.664681 0
M  V30 8433 H 782.914 4.18153 0.522117 0
M  V30 8434 H 781.638 3.07771 1.09292 0
M  V30 8435 H 780.297 3.52946 -0.991186 0
M  V30 8436 H 779.945 4.91716 1.05947 0
M  V30 8437 H 779.645 5.86087 -0.421418 0
M  V30 8438 H 781.169 6.08685 0.483211 0
M  V30 8439 H 782.583 5.47392 -1.70396 0
M  V30 8440 H 780.98 5.45775 -2.49499 0
M  V30 8441 H 782.05 4.05393 -2.66053 0
M  V30 8442 N 783.393 0.737304 1.3929 0
M  V30 8443 C 784.323 0.113988 2.33222 0
M  V30 8444 C 785.304 -0.721695 1.54031 0
M  V30 8445 O 786.489 -0.666206 1.82415 0
M  V30 8446 C 783.619 -0.792319 3.38141 0
M  V30 8447 C 782.573 -0.0606178 4.27957 0
M  V30 8448 C 781.899 -1.08409 5.23595 0
M  V30 8449 C 783.199 1.09817 5.10625 0
M  V30 8450 H 784.893 0.898611 2.85596 0
M  V30 8451 H 782.439 0.433571 1.37318 0
M  V30 8452 H 784.392 -1.23793 4.02807 0
M  V30 8453 H 783.116 -1.60908 2.84211 0
M  V30 8454 H 781.775 0.365393 3.64775 0
M  V30 8455 H 781.423 -1.89449 4.6596 0
M  V30 8456 H 781.123 -0.599269 5.84536 0
M  V30 8457 H 782.647 -1.52936 5.91137 0
M  V30 8458 H 784.061 0.730892 5.68622 0
M  V30 8459 H 782.458 1.51278 5.80719 0
M  V30 8460 H 783.528 1.91878 4.45321 0
M  V30 8461 N 784.871 -1.49948 0.485112 0
M  V30 8462 C 786.148 -1.95186 -0.12726 0
M  V30 8463 C 786.528 -1.42605 -1.5565 0
M  V30 8464 O 785.876 -0.632986 -2.19558 0
M  V30 8465 C 786.086 -3.48955 -0.0562117 0
M  V30 8466 C 787.434 -4.23932 -0.238106 0
M  V30 8467 O 788.458 -3.55955 -0.132145 0
M  V30 8468 O 787.317 -5.44614 -0.453658 0
M  V30 8469 H 784.411 -0.820433 -0.104014 0
M  V30 8470 H 786.957 -1.60659 0.546517 0
M  V30 8471 H 785.729 -3.79814 0.941122 0
M  V30 8472 H 785.352 -3.90056 -0.770834 0
M  V30 8473 N 786.349 -0.21828 -1.56081 0
M  V30 8474 C 787.596 0.414307 -1.98216 0
M  V30 8475 C 787.924 1.60005 -1.10584 0
M  V30 8476 O 787.179 1.95124 -0.150043 0
M  V30 8477 C 787.478 0.894782 -3.46018 0
M  V30 8478 C 787.144 -0.180083 -4.5054 0
M  V30 8479 C 785.806 -0.475367 -4.78846 0
M  V30 8480 C 788.158 -0.907191 -5.13244 0
M  V30 8481 C 785.486 -1.50233 -5.67139 0
M  V30 8482 C 787.838 -1.92347 -6.02649 0
M  V30 8483 C 786.502 -2.22571 -6.293 0
M  V30 8484 H 785.772 0.151606 -0.725325 0
M  V30 8485 H 788.419 -0.320113 -1.88806 0
M  V30 8486 H 786.724 1.7079 -3.52616 0
M  V30 8487 H 788.421 1.39403 -3.75989 0
M  V30 8488 H 785.011 0.06022 -4.28558 0
M  V30 8489 H 789.195 -0.692303 -4.91448 0
M  V30 8490 H 784.451 -1.74215 -5.86054 0
M  V30 8491 H 788.625 -2.49197 -6.50288 0
M  V30 8492 H 786.252 -3.0229 -6.97513 0
M  V30 8493 N 787.827 1.57504 0.0551401 0
M  V30 8494 C 789.238 1.76626 0.604979 0
M  V30 8495 C 789.589 0.845978 1.77024 0
M  V30 8496 O 788.714 0.0341936 2.16373 0
M  V30 8497 C 789.309 3.203 1.10425 0
M  V30 8498 C 787.868 3.4071 1.59981 0
M  V30 8499 C 787.015 2.72258 0.526414 0
M  V30 8500 H 789.966 1.57775 -0.171072 0
M  V30 8501 H 789.987 3.25377 1.97256 0
M  V30 8502 H 789.499 3.87255 0.255939 0
M  V30 8503 H 787.6 2.78892 2.47083 0
M  V30 8504 H 787.713 4.49227 1.66528 0
M  V30 8505 H 786.077 2.35283 0.97539 0
M  V30 8506 H 786.86 3.41879 -0.311991 0
M  V30 8507 N 789.305 -0.326896 1.54172 0
M  V30 8508 C 790.255 -1.40319 1.79707 0
M  V30 8509 C 791.239 -1.47056 0.652938 0
M  V30 8510 O 792.431 -1.51645 0.91284 0
M  V30 8511 C 789.56 -2.77222 2.02491 0
M  V30 8512 C 788.646 -2.74811 3.23016 0
M  V30 8513 N 789.037 -2.42022 4.44138 0
M  V30 8514 C 787.335 -3.05943 3.24522 0
M  V30 8515 C 788.036 -2.48263 5.26061 0
M  V30 8516 N 787.012 -2.84567 4.63166 0
M  V30 8517 H 790.814 -1.13892 2.70935 0
M  V30 8518 H 788.328 -0.53536 1.53322 0
M  V30 8519 H 790.325 -3.54793 2.18923 0
M  V30 8520 H 788.985 -3.04582 1.12515 0
M  V30 8521 H 789.996 -2.14926 4.71197 0
M  V30 8522 H 786.673 -3.38367 2.44569 0
M  V30 8523 H 788.063 -2.2593 6.32776 0
M  V30 8524 N 790.784 -1.46188 -0.588786 0
M  V30 8525 C 792.009 -1.5498 -1.37826 0
M  V30 8526 C 792.434 -0.189498 -1.87143 0
M  V30 8527 O 791.792 0.829293 -1.61222 0
M  V30 8528 C 791.84 -2.55369 -2.54596 0
M  V30 8529 O 790.944 -2.08452 -3.55839 0
M  V30 8530 H 790.285 -0.521741 -0.41071 0
M  V30 8531 H 792.815 -1.91708 -0.714779 0
M  V30 8532 H 792.825 -2.74782 -3.01594 0
M  V30 8533 H 791.5 -3.54155 -2.18052 0
M  V30 8534 H 790.077 -1.98999 -3.15363 0
M  V30 8535 N 792.262 0.832906 -1.33792 0
M  V30 8536 C 793.21 1.96455 -1.24532 0
M  V30 8537 C 794.204 1.68774 -0.145455 0
M  V30 8538 O 795.41 1.77314 -0.309797 0
M  V30 8539 H 791.785 0.645008 -0.386611 0
M  V30 8540 H 793.756 2.01389 -2.20193 0
M  V30 8541 C 792.505 3.32784 -1.00748 0
M  V30 8542 H 791.828 3.54626 -1.84609 0
M  V30 8543 H 793.268 4.12447 -0.98301 0
M  V30 8544 C 791.727 3.35654 0.289475 0
M  V30 8545 O 792.257 3.80281 1.29419 0
M  V30 8546 N 790.463 2.88843 0.3191 0
M  V30 8547 H 790.01 2.52719 -0.499069 0
M  V30 8548 H 789.968 2.91145 1.18667 0
M  V30 8549 N 793.74 1.17359 1.05189 0
M  V30 8550 C 794.69 0.858445 2.11222 0
M  V30 8551 C 795.674 -0.166991 1.60031 0
M  V30 8552 O 796.866 0.0354456 1.76965 0
M  V30 8553 C 793.995 0.373549 3.41262 0
M  V30 8554 C 793.081 1.43041 3.99249 0
M  V30 8555 N 793.472 2.64387 4.312 0
M  V30 8556 C 791.77 1.28828 4.26989 0
M  V30 8557 C 792.471 3.32296 4.77446 0
M  V30 8558 N 791.447 2.59674 4.77567 0
M  V30 8559 H 795.249 1.78104 2.33786 0
M  V30 8560 H 792.763 1.0623 1.22837 0
M  V30 8561 H 794.76 0.129331 4.16699 0
M  V30 8562 H 793.42 -0.542847 3.2013 0
M  V30 8563 H 794.431 3.01351 4.21198 0
M  V30 8564 H 791.108 0.43353 4.15243 0
M  V30 8565 H 792.498 4.35939 5.11279 0
M  V30 8566 N 795.218 -1.23913 0.973828 0
M  V30 8567 C 796.464 -1.92436 0.640026 0
M  V30 8568 C 796.797 -1.75875 -0.823512 0
M  V30 8569 O 796.072 -1.11563 -1.59323 0
M  V30 8570 C 796.355 -3.4526 1.0231 0
M  V30 8571 C 796.208 -3.70961 2.54378 0
M  V30 8572 C 797.527 -4.36495 0.562155 0
M  V30 8573 H 794.646 -0.698868 0.233992 0
M  V30 8574 H 797.288 -1.46163 1.21393 0
M  V30 8575 H 795.438 -3.84802 0.534751 0
M  V30 8576 H 797.11 -3.40941 3.10737 0
M  V30 8577 H 795.353 -3.15899 2.97305 0
M  V30 8578 H 796.024 -4.77912 2.76232 0
M  V30 8579 H 798.5 -4.04363 0.981333 0
M  V30 8580 H 797.376 -5.42142 0.858689 0
M  V30 8581 H 797.637 -4.38818 -0.537659 0
M  V30 8582 N 796.696 -0.74468 -1.38897 0
M  V30 8583 C 797.643 -0.111064 -2.30533 0
M  V30 8584 C 798.613 0.719276 -1.49719 0
M  V30 8585 O 799.798 0.677244 -1.78376 0
M  V30 8586 C 796.938 0.78292 -3.36102 0
M  V30 8587 C 796.051 -0.0610817 -4.31957 0
M  V30 8588 C 795.186 0.835075 -5.24595 0
M  V30 8589 C 794.225 -0.0130974 -6.12099 0
M  V30 8590 N 793.362 0.839525 -6.97063 0
M  V30 8591 H 798.202 -0.898113 -2.84144 0
M  V30 8592 H 795.739 -0.454537 -1.39901 0
M  V30 8593 H 797.697 1.31578 -3.95908 0
M  V30 8594 H 796.327 1.53585 -2.83922 0
M  V30 8595 H 795.379 -0.711469 -3.73687 0
M  V30 8596 H 796.691 -0.716482 -4.93627 0
M  V30 8597 H 795.845 1.43542 -5.89475 0
M  V30 8598 H 794.584 1.52423 -4.63269 0
M  V30 8599 H 793.589 -0.626179 -5.46223 0
M  V30 8600 H 794.814 -0.699181 -6.75491 0
M  V30 8601 H 792.76 1.5138 -6.38295 0
M  V30 8602 H 792.677 0.240823 -7.55616 0
M  V30 8603 H 793.945 1.42513 -7.66362 0
M  V30 8604 N 798.174 1.49689 -0.493057 0
M  V30 8605 C 799.399 2.07331 0.0535114 0
M  V30 8606 C 799.824 1.35196 1.30781 0
M  V30 8607 O 799.182 0.406246 1.7669 0
M  V30 8608 C 799.23 3.59364 0.29825 0
M  V30 8609 O 798.334 3.88819 1.37454 0
M  V30 8610 H 797.675 0.663612 -0.0227018 0
M  V30 8611 H 800.205 1.926 -0.690402 0
M  V30 8612 H 800.215 4.04515 0.532159 0
M  V30 8613 H 798.89 4.1128 -0.618207 0
M  V30 8614 H 797.467 3.55487 1.12621 0
M  V30 8615 N 799.652 0.226554 1.55963 0
M  V30 8616 C 800.892 -0.405574 2.00336 0
M  V30 8617 C 801.256 -1.56593 1.11097 0
M  V30 8618 O 802.457 -2.26441 1.44838 0
M  V30 8619 C 800.728 -0.82435 3.47763 0
M  V30 8620 S 802.287 -1.44988 4.14154 0
M  V30 8621 H 799.105 -0.128512 0.699289 0
M  V30 8622 H 801.707 0.337017 1.92573 0
M  V30 8623 H 800.411 0.0297636 4.10389 0
M  V30 8624 H 799.942 -1.59963 3.5941 0
M  V30 8625 H 801.957 -2.73897 4.13757 0
M  V30 8626 N 801.13 -1.57531 -0.0467866 0
M  V30 8627 C 802.377 -1.88451 -0.74112 0
M  V30 8628 C 802.705 -0.821592 -1.76296 0
M  V30 8629 O 801.96 0.179585 -1.94874 0
M  V30 8630 C 802.259 -3.26091 -1.46285 0
M  V30 8631 C 801.925 -4.47171 -0.578669 0
M  V30 8632 C 800.587 -4.80032 -0.335083 0
M  V30 8633 C 802.939 -5.2119 0.0328809 0
M  V30 8634 C 800.267 -5.84309 0.529121 0
M  V30 8635 C 802.619 -6.26383 0.884684 0
M  V30 8636 C 801.283 -6.57729 1.1379 0
M  V30 8637 H 800.553 -0.68959 -0.271195 0
M  V30 8638 H 803.2 -1.915 -0.00132378 0
M  V30 8639 H 801.505 -3.18948 -2.27551 0
M  V30 8640 H 803.202 -3.47258 -2.00532 0
M  V30 8641 H 799.792 -4.21467 -0.778666 0
M  V30 8642 H 803.976 -4.96096 -0.142375 0
M  V30 8643 H 799.232 -6.06981 0.733794 0
M  V30 8644 H 803.406 -6.82888 1.36516 0
M  V30 8645 H 801.033 -7.38355 1.80929 0
M  V30 8646 N 802.608 0.318715 -1.54344 0
M  V30 8647 C 803.558 1.39364 -1.80448 0
M  V30 8648 C 804.542 1.46708 -0.660728 0
M  V30 8649 O 805.734 1.51159 -0.920869 0
M  V30 8650 C 802.863 2.76144 -2.03959 0
M  V30 8651 C 801.949 2.73094 -3.24469 0
M  V30 8652 N 802.34 2.39663 -4.45416 0
M  V30 8653 C 800.638 3.04218 -3.2614 0
M  V30 8654 C 801.339 2.45469 -5.27371 0
M  V30 8655 N 800.315 2.82107 -4.64668 0
M  V30 8656 H 804.117 1.12453 -2.71535 0
M  V30 8657 H 801.631 0.527221 -1.53604 0
M  V30 8658 H 803.628 3.53627 -2.20802 0
M  V30 8659 H 802.288 3.03982 -1.14129 0
M  V30 8660 H 803.299 2.12424 -4.72331 0
M  V30 8661 H 799.976 3.37066 -2.4636 0
M  V30 8662 H 801.366 2.22571 -6.33965 0
M  V30 8663 N 804.086 1.46499 0.581025 0
M  V30 8664 C 805.335 1.51162 1.3354 0
M  V30 8665 C 805.648 0.168433 1.94873 0
M  V30 8666 O 806.854 0.092883 2.71341 0
M  V30 8667 C 805.31 2.66362 2.42032 0
M  V30 8668 C 804.918 4.07109 1.86994 0
M  V30 8669 C 806.662 2.80297 3.188 0
M  V30 8670 C 804.569 5.13645 2.93125 0
M  V30 8671 H 803.499 0.562576 0.502021 0
M  V30 8672 H 806.15 1.72713 0.619863 0
M  V30 8673 H 804.532 2.38143 3.16392 0
M  V30 8674 H 805.706 4.45125 1.19166 0
M  V30 8675 H 804.021 3.97854 1.22887 0
M  V30 8676 H 806.618 3.5706 3.9801 0
M  V30 8677 H 806.961 1.87875 3.71495 0
M  V30 8678 H 807.494 3.0817 2.51547 0
M  V30 8679 H 804.233 6.07866 2.45315 0
M  V30 8680 H 803.753 4.80172 3.59437 0
M  V30 8681 H 805.432 5.39562 3.57046 0
M  V30 8682 N 805.565 -0.825799 1.34232 0
M  V30 8683 C 806.498 -1.94155 1.19914 0
M  V30 8684 C 807.476 -1.62343 0.0914533 0
M  V30 8685 O 808.66 -1.86752 0.256082 0
M  V30 8686 C 805.787 -3.28064 0.842138 0
M  V30 8687 C 804.833 -3.78839 1.95917 0
M  V30 8688 S 805.666 -3.98943 3.57218 0
M  V30 8689 C 806.822 -5.35783 3.23554 0
M  V30 8690 H 807.055 -2.06003 2.14359 0
M  V30 8691 H 804.588 -0.981053 1.19225 0
M  V30 8692 H 806.546 -4.05434 0.642952 0
M  V30 8693 H 805.207 -3.13988 -0.0839363 0
M  V30 8694 H 804.4 -4.75771 1.66306 0
M  V30 8695 H 804.002 -3.08406 2.11569 0
M  V30 8696 H 806.294 -6.19094 2.7519 0
M  V30 8697 H 807.237 -5.70376 4.19615 0
M  V30 8698 H 807.645 -5.01158 2.5981 0
M  V30 8699 N 807.043 -1.17915 -1.04565 0
M  V30 8700 C 808.32 -0.881187 -1.74627 0
M  V30 8701 C 808.7 0.617123 -2.01878 0
M  V30 8702 O 808.048 1.57032 -1.65991 0
M  V30 8703 C 808.258 -1.72299 -3.03503 0
M  V30 8704 C 809.606 -1.94688 -3.77335 0
M  V30 8705 O 810.63 -1.6931 -3.13389 0
M  V30 8706 O 809.489 -2.37379 -4.92253 0
M  V30 8707 H 806.583 -0.326864 -0.759664 0
M  V30 8708 H 809.129 -1.28642 -1.10676 0
M  V30 8709 H 807.901 -2.73891 -2.79462 0
M  V30 8710 H 807.524 -1.31593 -3.75192 0
M  V30 8711 N 808.521 1.23394 -0.980386 0
M  V30 8712 C 809.77 1.91116 -0.644785 0
M  V30 8713 C 810.083 1.77333 0.825367 0
M  V30 8714 O 811.289 2.39858 1.27203 0
M  V30 8715 C 809.745 3.42592 -1.10266 0
M  V30 8716 C 809.353 3.65037 -2.59715 0
M  V30 8717 C 811.097 4.1609 -0.8408 0
M  V30 8718 C 809.004 5.10148 -2.9917 0
M  V30 8719 H 807.934 0.715632 -0.23746 0
M  V30 8720 H 810.585 1.39829 -1.18828 0
M  V30 8721 H 808.967 3.92989 -0.487372 0
M  V30 8722 H 810.141 3.25186 -3.26482 0
M  V30 8723 H 808.456 3.04849 -2.83647 0
M  V30 8724 H 811.053 5.23021 -1.11143 0
M  V30 8725 H 811.396 4.15702 0.223085 0
M  V30 8726 H 811.929 3.71681 -1.41767 0
M  V30 8727 H 808.668 5.15668 -4.04682 0
M  V30 8728 H 808.188 5.50949 -2.37097 0
M  V30 8729 H 809.867 5.7848 -2.89775 0
M  V30 8730 N 809.999 0.752036 1.385 0
M  V30 8731 C 811.239 0.312408 2.01998 0
M  V30 8732 C 811.603 -1.085 1.58404 0
M  V30 8733 O 812.804 -1.62365 2.14222 0
M  V30 8734 C 811.075 0.429423 3.54811 0
M  V30 8735 S 812.634 0.0721487 4.38741 0
M  V30 8736 H 809.452 0.1213 0.700576 0
M  V30 8737 H 812.054 0.982312 1.69029 0
M  V30 8738 H 810.758 1.44743 3.84028 0
M  V30 8739 H 810.289 -0.257716 3.92555 0
M  V30 8740 H 812.304 -1.13875 4.82957 0
M  V30 8741 N 811.477 -1.49425 0.500989 0
M  V30 8742 C 812.424 -2.29126 -0.277443 0
M  V30 8743 C 813.394 -1.35522 -0.960363 0
M  V30 8744 O 814.579 -1.64479 -0.967027 0
M  V30 8745 C 811.719 -3.18193 -1.33593 0
M  V30 8746 C 810.832 -4.26854 -0.664791 0
M  V30 8747 C 809.967 -5.03137 -1.70372 0
M  V30 8748 C 809.006 -6.03635 -1.01445 0
M  V30 8749 N 808.143 -6.73083 -1.99758 0
M  V30 8750 H 812.983 -2.95187 0.408458 0
M  V30 8751 H 810.52 -1.45546 0.213275 0
M  V30 8752 H 812.478 -3.68207 -1.96161 0
M  V30 8753 H 811.108 -2.54116 -1.9906 0
M  V30 8754 H 810.16 -3.80328 0.0741708 0
M  V30 8755 H 811.472 -4.9865 -0.122197 0
M  V30 8756 H 810.626 -5.5702 -2.40445 0
M  V30 8757 H 809.365 -4.31114 -2.28017 0
M  V30 8758 H 808.37 -5.48984 -0.299496 0
M  V30 8759 H 809.595 -6.77644 -0.444497 0
M  V30 8760 H 807.541 -6.03832 -2.56365 0
M  V30 8761 H 807.458 -7.40855 -1.50565 0
M  V30 8762 H 808.726 -7.3157 -2.69119 0
M  V30 8763 N 812.955 -0.234822 -1.55841 0
M  V30 8764 C 814.18 0.400741 -2.03492 0
M  V30 8765 C 814.605 1.51618 -1.11327 0
M  V30 8766 O 813.963 1.81002 -0.103922 0
M  V30 8767 C 814.011 0.897184 -3.49261 0
M  V30 8768 O 813.115 2.00764 -3.60233 0
M  V30 8769 H 812.456 0.0890023 -0.658008 0
M  V30 8770 H 814.986 -0.357345 -2.01455 0
M  V30 8771 H 814.996 1.20356 -3.89844 0
M  V30 8772 H 813.671 0.0808639 -4.15821 0
M  V30 8773 H 812.248 1.70689 -3.31541 0
M  V30 8774 N 814.433 1.57553 0.0384317 0
M  V30 8775 C 815.383 2.02404 1.0496 0
M  V30 8776 C 816.367 0.911705 1.32577 0
M  V30 8777 O 817.559 1.17561 1.32319 0
M  V30 8778 C 814.688 2.49924 2.35357 0
M  V30 8779 C 813.774 3.6796 2.1087 0
M  V30 8780 N 814.165 4.81009 1.56411 0
M  V30 8781 C 812.463 3.75153 2.41197 0
M  V30 8782 C 813.164 5.62686 1.47512 0
M  V30 8783 N 812.14 5.0752 1.94742 0
M  V30 8784 H 815.942 2.87234 0.622399 0
M  V30 8785 H 813.456 1.60543 0.244916 0
M  V30 8786 H 815.453 2.80312 3.08595 0
M  V30 8787 H 814.113 1.66496 2.78763 0
M  V30 8788 H 815.124 5.02636 1.2481 0
M  V30 8789 H 811.801 3.02507 2.87742 0
M  V30 8790 H 813.191 6.6349 1.05976 0
M  V30 8791 N 815.911 -0.310526 1.54511 0
M  V30 8792 C 816.841 -1.38757 1.878 0
M  V30 8793 C 817.822 -1.53353 0.735991 0
M  V30 8794 O 819.007 -1.67018 0.990887 0
M  V30 8795 C 816.137 -2.75327 2.11689 0
M  V30 8796 C 815.091 -2.75506 3.27537 0
M  V30 8797 C 814.417 -4.15275 3.36824 0
M  V30 8798 C 815.717 -2.38093 4.64875 0
M  V30 8799 H 817.411 -1.11146 2.78005 0
M  V30 8800 H 814.957 -0.533232 1.33763 0
M  V30 8801 H 816.91 -3.50752 2.33562 0
M  V30 8802 H 815.634 -3.04443 1.18245 0
M  V30 8803 H 814.293 -2.02538 3.05572 0
M  V30 8804 H 813.941 -4.41553 2.40915 0
M  V30 8805 H 813.641 -4.16299 4.14692 0
M  V30 8806 H 815.165 -4.92493 3.60947 0
M  V30 8807 H 816.579 -3.03232 4.86542 0
M  V30 8808 H 814.976 -2.50345 5.45387 0
M  V30 8809 H 816.046 -1.33227 4.66239 0
M  V30 8810 N 817.389 -1.46805 -0.573248 0
M  V30 8811 C 818.337 -1.58468 -1.70267 0
M  V30 8812 C 819.331 -0.452694 -1.63239 0
M  V30 8813 O 820.537 -0.629915 -1.68618 0
M  V30 8814 H 816.912 -0.498408 -0.56311 0
M  V30 8815 H 818.883 -2.5341 -1.57563 0
M  V30 8816 C 817.632 -1.60104 -3.08645 0
M  V30 8817 H 816.955 -2.4655 -3.14727 0
M  V30 8818 H 818.395 -1.72318 -3.87405 0
M  V30 8819 C 816.854 -0.33138 -3.35266 0
M  V30 8820 O 817.384 0.57438 -3.97572 0
M  V30 8821 N 815.59 -0.216358 -2.89793 0
M  V30 8822 H 815.137 -0.954345 -2.3927 0
M  V30 8823 H 815.095 0.632253 -3.07977 0
M  V30 8824 N 818.867 0.818669 -1.34668 0
M  V30 8825 C 820.092 1.61193 -1.30505 0
M  V30 8826 C 820.517 1.87734 0.117341 0
M  V30 8827 O 819.875 1.45591 1.08042 0
M  V30 8828 C 819.923 2.92733 -2.1057 0
M  V30 8829 O 819.027 3.85 -1.47813 0
M  V30 8830 H 818.368 0.490085 -0.44801 0
M  V30 8831 H 820.898 1.01701 -1.77534 0
M  V30 8832 H 820.908 3.42262 -2.22082 0
M  V30 8833 H 819.583 2.7274 -3.13984 0
M  V30 8834 H 818.16 3.43525 -1.45069 0
M  V30 8835 N 820.346 1.18468 1.03938 0
M  V30 8836 C 821.586 0.991823 1.78724 0
M  V30 8837 C 821.95 -0.470115 1.86156 0
M  V30 8838 O 823.151 -0.782451 2.5716 0
M  V30 8839 C 821.422 1.63018 3.18056 0
M  V30 8840 S 822.981 1.58527 4.09163 0
M  V30 8841 H 819.799 0.356137 0.615376 0
M  V30 8842 H 822.401 1.50634 1.24618 0
M  V30 8843 H 821.105 2.68642 3.10258 0
M  V30 8844 H 820.636 1.11601 3.77238 0
M  V30 8845 H 822.651 0.602059 4.92534 0
M  V30 8846 N 821.824 -1.22873 0.986916 0
M  V30 8847 C 823.101 -1.86939 0.575589 0
M  V30 8848 C 823.481 -1.88656 -0.947205 0
M  V30 8849 O 822.829 -1.3728 -1.82665 0
M  V30 8850 C 823.039 -3.28117 1.18914 0
M  V30 8851 C 824.387 -4.04659 1.28593 0
M  V30 8852 O 825.411 -3.3736 1.14308 0
M  V30 8853 O 824.27 -5.25112 1.51391 0
M  V30 8854 H 821.364 -0.803748 0.194724 0
M  V30 8855 H 823.91 -1.30698 1.08241 0
M  V30 8856 H 822.682 -3.21468 2.231 0
M  V30 8857 H 822.305 -3.91956 0.667535 0
M  V30 8858 N 823.302 -0.75937 -1.38099 0
M  V30 8859 C 824.53 -0.329111 -2.04266 0
M  V30 8860 C 824.945 1.04453 -1.57274 0
M  V30 8861 O 824.302 1.66449 -0.748397 0
M  V30 8862 C 824.353 -0.349192 -3.5981 0
M  V30 8863 O 824.074 -1.66863 -4.05078 0
M  V30 8864 C 825.575 0.0942106 -4.432 0
M  V30 8865 H 822.795 -0.13971 -0.656294 0
M  V30 8866 H 825.339 -1.02984 -1.76677 0
M  V30 8867 H 823.494 0.302846 -3.86214 0
M  V30 8868 H 823.908 -1.59877 -4.9954 0
M  V30 8869 H 825.382 0.0290004 -5.51992 0
M  V30 8870 H 825.859 1.1429 -4.24069 0
M  V30 8871 H 826.465 -0.529171 -4.21995 0
M  V30 8872 N 824.78 1.49157 -0.508906 0
M  V30 8873 C 825.728 2.30922 0.278906 0
M  V30 8874 C 826.722 1.39889 0.955382 0
M  V30 8875 O 827.928 1.56901 0.882169 0
M  V30 8876 H 824.303 0.744087 0.108805 0
M  V30 8877 H 826.274 2.95277 -0.430583 0
M  V30 8878 C 825.023 3.21432 1.32576 0
M  V30 8879 H 824.346 3.91413 0.814634 0
M  V30 8880 H 825.786 3.81568 1.84882 0
M  V30 8881 C 824.245 2.41583 2.34817 0
M  V30 8882 O 824.775 2.1256 3.40854 0
M  V30 8883 N 822.981 2.03462 2.07489 0
M  V30 8884 H 822.528 2.27265 1.21278 0
M  V30 8885 H 822.486 1.50345 2.76123 0
M  V30 8886 N 826.258 0.243083 1.55714 0
M  V30 8887 C 827.206 -0.674349 2.2261 0
M  V30 8888 C 828.2 -1.18307 1.21243 0
M  V30 8889 O 829.406 -1.1404 1.39265 0
M  V30 8890 H 825.781 -0.235941 0.714028 0
M  V30 8891 H 827.752 -0.0869446 2.98273 0
M  V30 8892 C 826.501 -1.86206 2.93637 0
M  V30 8893 H 825.824 -1.47975 3.71407 0
M  V30 8894 H 827.264 -2.4813 3.43813 0
M  V30 8895 C 825.723 -2.73084 1.97298 0
M  V30 8896 O 826.253 -3.72497 1.50361 0
M  V30 8897 N 824.459 -2.39571 1.64482 0
M  V30 8898 H 824.006 -1.5878 2.02846 0
M  V30 8899 H 823.964 -2.97976 1.00288 0
M  V30 8900 N 827.736 -1.57571 -0.0300757 0
M  V30 8901 C 828.686 -2.02958 -1.03885 0
M  V30 8902 C 829.67 -0.918723 -1.32092 0
M  V30 8903 O 830.862 -1.18262 -1.31694 0
M  V30 8904 C 827.991 -2.51169 -2.34028 0
M  V30 8905 C 827.077 -3.69073 -2.08915 0
M  V30 8906 N 827.468 -4.81831 -1.53858 0
M  V30 8907 C 825.766 -3.76427 -2.39204 0
M  V30 8908 C 826.467 -5.6346 -1.44526 0
M  V30 8909 N 825.443 -5.08545 -1.92048 0
M  V30 8910 H 829.245 -2.8756 -0.607157 0
M  V30 8911 H 826.759 -1.6067 -0.236399 0
M  V30 8912 H 828.756 -2.81944 -3.07104 0
M  V30 8913 H 827.416 -1.67972 -2.77876 0
M  V30 8914 H 828.427 -5.03291 -1.22142 0
M  V30 8915 H 825.104 -3.04029 -2.86134 0
M  V30 8916 H 826.494 -6.64042 -1.02456 0
M  V30 8917 N 829.214 0.302327 -1.54673 0
M  V30 8918 C 830.162 1.39286 -1.86285 0
M  V30 8919 C 831.156 1.52553 -0.736478 0
M  V30 8920 O 832.362 1.54686 -0.92045 0
M  V30 8921 H 828.737 0.465228 -0.590819 0
M  V30 8922 H 830.708 1.09859 -2.77441 0
M  V30 8923 C 829.457 2.75155 -2.12567 0
M  V30 8924 H 828.78 2.65728 -2.98712 0
M  V30 8925 H 830.22 3.50476 -2.38627 0
M  V30 8926 C 828.679 3.23987 -0.923813 0
M  V30 8927 O 829.209 4.01443 -0.143649 0
M  V30 8928 N 827.415 2.81293 -0.72956 0
M  V30 8929 H 826.962 2.18421 -1.36565 0
M  V30 8930 H 826.92 3.14315 0.0730351 0
M  V30 8931 N 830.692 1.47107 0.565454 0
M  V30 8932 C 831.639 1.58974 1.6732 0
M  V30 8933 C 832.609 0.433146 1.60353 0
M  V30 8934 O 833.794 0.652141 1.79309 0
M  V30 8935 C 830.934 1.60224 3.05651 0
M  V30 8936 C 830.047 2.86741 3.23116 0
M  V30 8937 C 829.182 2.79381 4.51796 0
M  V30 8938 C 828.221 4.0076 4.62664 0
M  V30 8939 N 827.358 3.91685 5.8269 0
M  V30 8940 H 832.198 2.53588 1.56515 0
M  V30 8941 H 829.735 1.25791 0.762558 0
M  V30 8942 H 831.693 1.58933 3.85741 0
M  V30 8943 H 830.323 0.691285 3.15311 0
M  V30 8944 H 829.375 2.97936 2.36513 0
M  V30 8945 H 830.687 3.7665 3.27011 0
M  V30 8946 H 829.841 2.76293 5.40136 0
M  V30 8947 H 828.58 1.87142 4.50366 0
M  V30 8948 H 827.585 4.04162 3.72738 0
M  V30 8949 H 828.81 4.94117 4.6586 0
M  V30 8950 H 826.756 3.02243 5.82224 0
M  V30 8951 H 826.673 4.75264 5.87929 0
M  V30 8952 H 827.941 3.92599 6.73414 0
M  V30 8953 N 832.17 -0.811516 1.35101 0
M  V30 8954 C 833.398 -1.59981 1.31201 0
M  V30 8955 C 833.813 -1.8847 -0.111552 0
M  V30 8956 O 833.17 -1.48414 -1.06205 0
M  V30 8957 C 833.221 -2.934 2.11184 0
M  V30 8958 O 832.942 -2.66148 3.4799 0
M  V30 8959 C 834.443 -3.87776 2.14813 0
M  V30 8960 H 831.663 -0.496921 0.450899 0
M  V30 8961 H 834.207 -1.00886 1.77883 0
M  V30 8962 H 832.362 -3.49022 1.68115 0
M  V30 8963 H 832.776 -3.51301 3.89471 0
M  V30 8964 H 834.25 -4.7852 2.75178 0
M  V30 8965 H 834.727 -4.23997 1.14556 0
M  V30 8966 H 835.333 -3.3809 2.58022 0
M  V30 8967 N 833.648 -1.19017 -1.03309 0
M  V30 8968 C 834.873 -1.01598 -1.80811 0
M  V30 8969 C 835.298 0.430773 -1.83101 0
M  V30 8970 O 834.656 1.30946 -1.25391 0
M  V30 8971 C 834.704 -1.5845 -3.23923 0
M  V30 8972 O 833.808 -0.810972 -4.04348 0
M  V30 8973 H 833.149 -0.359398 -0.558327 0
M  V30 8974 H 835.679 -1.57945 -1.30055 0
M  V30 8975 H 835.689 -1.61486 -3.74682 0
M  V30 8976 H 834.364 -2.63752 -3.21571 0
M  V30 8977 H 832.941 -0.85353 -3.63 0
M  V30 8978 N 835.127 1.22348 -0.993418 0
M  V30 8979 C 836.057 2.26584 -0.564088 0
M  V30 8980 C 837.038 1.65102 0.409298 0
M  V30 8981 O 838.223 1.91872 0.299819 0
M  V30 8982 C 835.353 3.47087 0.121554 0
M  V30 8983 C 834.307 4.21009 -0.770429 0
M  V30 8984 C 833.633 5.34678 0.0481586 0
M  V30 8985 C 834.933 4.79636 -2.06752 0
M  V30 8986 H 836.627 2.62749 -1.43538 0
M  V30 8987 H 834.173 1.26303 -0.691628 0
M  V30 8988 H 836.126 4.19166 0.433303 0
M  V30 8989 H 834.85 3.1002 1.0274 0
M  V30 8990 H 833.509 3.50764 -1.06583 0
M  V30 8991 H 833.157 4.93852 0.954933 0
M  V30 8992 H 832.857 5.85061 -0.545641 0
M  V30 8993 H 834.381 6.09573 0.353991 0
M  V30 8994 H 835.795 5.43654 -1.81969 0
M  V30 8995 H 834.192 5.4036 -2.61019 0
M  V30 8996 H 835.262 3.99659 -2.74592 0
M  V30 8997 N 836.605 0.766683 1.37694 0
M  V30 8998 C 837.535 0.163432 2.32927 0
M  V30 8999 C 838.516 -0.688861 1.55527 0
M  V30 9000 O 839.701 -0.627363 1.83787 0
M  V30 9001 C 836.831 -0.720416 3.39746 0
M  V30 9002 C 835.785 0.0301718 4.27989 0
M  V30 9003 C 835.111 -0.972788 5.25776 0
M  V30 9004 C 836.411 1.20623 5.0818 0
M  V30 9005 H 838.105 0.958988 2.83626 0
M  V30 9006 H 835.651 0.462601 1.36367 0
M  V30 9007 H 837.604 -1.15221 4.05342 0
M  V30 9008 H 836.328 -1.54844 2.8756 0
M  V30 9009 H 834.987 0.442685 3.63917 0
M  V30 9010 H 834.635 -1.79522 4.69873 0
M  V30 9011 H 834.335 -0.475145 5.85676 0
M  V30 9012 H 835.859 -1.40362 5.94248 0
M  V30 9013 H 837.273 0.851341 5.66944 0
M  V30 9014 H 835.67 1.63561 5.7738 0
M  V30 9015 H 836.74 2.01281 4.41151 0
M  V30 9016 N 838.083 -1.48885 0.516809 0
M  V30 9017 C 839.499 -1.58651 0.173788 0
M  V30 9018 C 839.699 -1.52033 -1.32243 0
M  V30 9019 O 838.755 -1.40251 -2.09967 0
M  V30 9020 C 840.068 -2.90816 0.764628 0
M  V30 9021 C 841.616 -3.04316 0.732164 0
M  V30 9022 C 842.091 -4.39123 1.30135 0
M  V30 9023 N 843.582 -4.45656 1.26273 0
M  V30 9024 C 844.317 -5.48446 1.67317 0
M  V30 9025 N 843.813 -6.58258 2.16028 0
M  V30 9026 N 845.606 -5.39251 1.58635 0
M  V30 9027 H 837.757 -1.5143 1.48939 0
M  V30 9028 H 840.02 -0.718243 0.618733 0
M  V30 9029 H 839.726 -3.01275 1.81456 0
M  V30 9030 H 839.6 -3.76473 0.234113 0
M  V30 9031 H 841.987 -2.93478 -0.308975 0
M  V30 9032 H 842.068 -2.20303 1.3 0
M  V30 9033 H 841.712 -4.50714 2.34135 0
M  V30 9034 H 841.642 -5.21801 0.709305 0
M  V30 9035 H 844.133 -3.66879 0.906006 0
M  V30 9036 H 844.446 -7.32811 2.45374 0
M  V30 9037 H 842.791 -6.59257 2.20013 0
M  V30 9038 H 845.982 -4.52354 1.20387 0
M  V30 9039 H 846.155 -6.19229 1.90944 0
M  V30 9040 N 839.561 -0.251338 -1.55583 0
M  V30 9041 C 840.972 0.25098 -1.85005 0
M  V30 9042 C 841.323 1.57259 -1.17321 0
M  V30 9043 O 840.448 2.11603 -0.453136 0
M  V30 9044 C 841.043 0.462161 -3.35633 0
M  V30 9045 C 839.602 0.908737 -3.65266 0
M  V30 9046 C 838.749 -0.0115418 -2.77298 0
M  V30 9047 H 841.7 -0.473782 -1.51463 0
M  V30 9048 H 841.721 1.30415 -3.57452 0
M  V30 9049 H 841.233 -0.499886 -3.84867 0
M  V30 9050 H 839.334 1.8831 -3.21512 0
M  V30 9051 H 839.447 0.762526 -4.72993 0
M  V30 9052 H 837.811 0.500612 -2.49732 0
M  V30 9053 H 838.594 -0.969042 -3.29339 0
M  V30 9054 N 841.039 1.57585 0.0217189 0
M  V30 9055 C 842.285 1.89887 0.712099 0
M  V30 9056 C 842.618 0.849971 1.74611 0
M  V30 9057 O 841.893 -0.13407 1.94037 0
M  V30 9058 C 842.176 3.32815 1.37499 0
M  V30 9059 C 842.029 4.48405 0.353993 0
M  V30 9060 C 843.348 3.74786 2.30703 0
M  V30 9061 H 840.467 0.690588 0.257405 0
M  V30 9062 H 843.109 1.89983 -0.0251145 0
M  V30 9063 H 841.259 3.32863 2.00335 0
M  V30 9064 H 842.931 4.60491 -0.273015 0
M  V30 9065 H 841.174 4.32573 -0.32599 0
M  V30 9066 H 841.845 5.45316 0.85644 0
M  V30 9067 H 844.321 3.76151 1.77904 0
M  V30 9068 H 843.197 4.75585 2.74061 0
M  V30 9069 H 843.458 3.07449 3.17691 0
M  V30 9070 N 842.517 -0.29412 1.54831 0
M  V30 9071 C 843.48 -1.3461 1.85507 0
M  V30 9072 C 844.48 -1.43359 0.728343 0
M  V30 9073 O 845.67 -1.42875 0.996609 0
M  V30 9074 C 842.802 -2.73012 2.0415 0
M  V30 9075 H 843.995 -1.08651 2.79526 0
M  V30 9076 H 841.548 -0.531138 1.46999 0
M  V30 9077 H 842.283 -3.04183 1.12441 0
M  V30 9078 H 842.068 -2.68051 2.86166 0
M  V30 9079 H 843.558 -3.49061 2.29229 0
M  V30 9080 N 843.995 -1.47404 -0.557645 0
M  V30 9081 C 845.22 -1.57868 -1.34508 0
M  V30 9082 C 845.645 -0.229151 -1.86699 0
M  V30 9083 O 845.003 0.794908 -1.62944 0
M  V30 9084 C 845.051 -2.60712 -2.49122 0
M  V30 9085 O 844.155 -2.15952 -3.51338 0
M  V30 9086 H 843.496 -0.530335 -0.399551 0
M  V30 9087 H 846.026 -1.93181 -0.673954 0
M  V30 9088 H 846.036 -2.81118 -2.95697 0
M  V30 9089 H 844.711 -3.58701 -2.10491 0
M  V30 9090 H 843.288 -2.05644 -3.11071 0
M  V30 9091 N 845.473 0.80434 -1.35529 0
M  V30 9092 C 846.698 1.598 -1.32207 0
M  V30 9093 C 847.123 1.87848 0.0974226 0
M  V30 9094 O 846.481 1.46728 1.06492 0
M  V30 9095 C 846.529 2.90483 -2.13663 0
M  V30 9096 O 845.633 3.83411 -1.51888 0
M  V30 9097 H 844.974 0.485305 -0.453183 0
M  V30 9098 H 847.504 0.998119 -1.78602 0
M  V30 9099 H 847.514 3.39888 -2.257 0
M  V30 9100 H 846.189 2.69395 -3.16859 0
M  V30 9101 H 844.766 3.41967 -1.48704 0
M  V30 9102 N 846.951 1.19563 1.02676 0
M  V30 9103 C 848.176 1.02556 1.80269 0
M  V30 9104 C 848.601 -0.421056 1.83327 0
M  V30 9105 O 847.959 -1.30279 1.26084 0
M  V30 9106 C 848.007 1.60165 3.23078 0
M  V30 9107 O 847.111 0.832404 4.03912 0
M  V30 9108 H 846.452 0.362354 0.556413 0
M  V30 9109 H 848.982 1.58633 1.29216 0
M  V30 9110 H 848.992 1.6347 3.7382 0
M  V30 9111 H 847.667 2.65454 3.20167 0
M  V30 9112 H 846.244 0.872768 3.62543 0
M  V30 9113 N 848.429 -1.21819 0.999893 0
M  V30 9114 C 849.657 -1.94758 0.698359 0
M  V30 9115 C 850.072 -1.73771 -0.738183 0
M  V30 9116 O 849.429 -1.04113 -1.49889 0
M  V30 9117 C 849.48 -3.47292 1.00353 0
M  V30 9118 O 849.201 -3.67579 2.38363 0
M  V30 9119 C 850.702 -4.37403 0.72068 0
M  V30 9120 H 847.922 -0.619512 0.257771 0
M  V30 9121 H 850.466 -1.54778 1.33656 0
M  V30 9122 H 848.621 -3.85213 0.411018 0
M  V30 9123 H 849.035 -4.61719 2.48829 0
M  V30 9124 H 850.509 -5.43151 0.984422 0
M  V30 9125 H 850.986 -4.3784 -0.345309 0
M  V30 9126 H 851.592 -4.05119 1.29456 0
M  V30 9127 N 849.908 -0.773975 -1.37286 0
M  V30 9128 C 850.871 -0.167974 -2.28584 0
M  V30 9129 C 851.871 0.625662 -1.48129 0
M  V30 9130 O 853.061 0.448924 -1.68316 0
M  V30 9131 C 850.193 0.769364 -3.32105 0
M  V30 9132 H 851.386 -0.972806 -2.83684 0
M  V30 9133 H 848.939 -0.542335 -1.46589 0
M  V30 9134 H 849.674 1.59912 -2.82132 0
M  V30 9135 H 849.459 0.202419 -3.91577 0
M  V30 9136 H 850.949 1.18872 -4.00324 0
M  V30 9137 N 851.386 1.48609 -0.524698 0
M  V30 9138 C 852.614 2.06899 0.00742946 0
M  V30 9139 C 853.029 1.38196 1.28637 0
M  V30 9140 O 852.386 0.467771 1.76403 0
M  V30 9141 C 852.437 3.60699 0.240548 0
M  V30 9142 O 852.158 4.26821 -0.987715 0
M  V30 9143 C 853.659 4.35769 0.813652 0
M  V30 9144 H 850.879 0.670278 -0.0311294 0
M  V30 9145 H 853.423 1.91071 -0.728832 0
M  V30 9146 H 851.578 3.76149 0.926845 0
M  V30 9147 H 851.992 5.18889 -0.765175 0
M  V30 9148 H 853.466 5.44174 0.926219 0
M  V30 9149 H 853.943 3.9984 1.81728 0
M  V30 9150 H 854.549 4.24983 0.164086 0
M  V30 9151 N 852.864 0.259585 1.55447 0
M  V30 9152 C 853.794 -0.62852 2.24882 0
M  V30 9153 C 854.775 -1.17128 1.23349 0
M  V30 9154 O 855.96 -1.20829 1.52033 0
M  V30 9155 C 853.09 -1.81983 2.95803 0
M  V30 9156 C 852.044 -1.40929 4.04132 0
M  V30 9157 C 851.37 -2.68246 4.62545 0
M  V30 9158 C 852.67 -0.570956 5.1917 0
M  V30 9159 H 854.364 -0.0495021 2.99359 0
M  V30 9160 H 851.91 -0.0223688 1.43983 0
M  V30 9161 H 853.863 -2.44689 3.43082 0
M  V30 9162 H 852.587 -2.42444 2.18835 0
M  V30 9163 H 851.246 -0.805519 3.57641 0
M  V30 9164 H 850.894 -3.26931 3.82263 0
M  V30 9165 H 850.594 -2.41495 5.35681 0
M  V30 9166 H 852.118 -3.31827 5.12565 0
M  V30 9167 H 853.532 -1.10262 5.62597 0
M  V30 9168 H 851.929 -0.398979 5.98772 0
M  V30 9169 H 852.999 0.413918 4.8313 0
M  V30 9170 N 854.342 -1.57594 -0.0133615 0
M  V30 9171 C 855.57 -1.94251 -0.712328 0
M  V30 9172 C 855.985 -0.86063 -1.68043 0
M  V30 9173 O 855.342 0.161632 -1.81783 0
M  V30 9174 C 855.393 -3.30891 -1.45581 0
M  V30 9175 O 855.114 -4.34924 -0.526539 0
M  V30 9176 C 856.615 -3.81926 -2.2505 0
M  V30 9177 H 853.835 -0.640737 -0.199241 0
M  V30 9178 H 856.379 -2.04472 0.0337855 0
M  V30 9179 H 854.534 -3.22019 -2.15366 0
M  V30 9180 H 854.948 -5.1389 -1.04962 0
M  V30 9181 H 856.422 -4.79999 -2.72589 0
M  V30 9182 H 856.899 -3.13934 -3.07152 0
M  V30 9183 H 857.505 -3.93931 -1.60308 0
M  V30 9184 N 855.82 0.285905 -1.54985 0
M  V30 9185 C 856.783 1.33625 -1.86218 0
M  V30 9186 C 857.783 1.42971 -0.735936 0
M  V30 9187 O 858.973 1.42345 -1.00417 0
M  V30 9188 C 856.105 2.71926 -2.05595 0
M  V30 9189 H 857.298 1.07167 -2.80099 0
M  V30 9190 H 854.851 0.523335 -1.47278 0
M  V30 9191 H 855.586 3.03583 -1.14053 0
M  V30 9192 H 855.371 2.6653 -2.87583 0
M  V30 9193 H 856.861 3.47841 -2.31077 0
M  V30 9194 N 857.298 1.47698 0.54982 0
M  V30 9195 C 858.246 1.61156 1.67724 0
M  V30 9196 C 859.24 0.478606 1.62498 0
M  V30 9197 O 860.446 0.656661 1.67595 0
M  V30 9198 H 856.821 0.507304 0.55511 0
M  V30 9199 H 858.792 2.55884 1.53512 0
M  V30 9200 C 857.541 1.64994 3.06059 0
M  V30 9201 H 856.864 2.51525 3.10765 0
M  V30 9202 H 858.304 1.78459 3.84615 0
M  V30 9203 C 856.763 0.384677 3.34697 0
M  V30 9204 O 857.293 -0.511057 3.98436 0
M  V30 9205 N 855.499 0.262434 2.89413 0
M  V30 9206 H 855.046 0.99229 2.37721 0
M  V30 9207 H 855.004 -0.583177 3.08944 0
M  V30 9208 N 858.776 -0.797141 1.35954 0
M  V30 9209 C 860.023 -1.55468 1.29754 0
M  V30 9210 C 860.351 -1.94095 -0.125391 0
M  V30 9211 O 859.606 -1.62341 -1.09288 0
M  V30 9212 C 859.905 -2.84847 2.15863 0
M  V30 9213 C 859.571 -2.65394 3.64523 0
M  V30 9214 C 858.233 -2.59796 4.05042 0
M  V30 9215 C 860.585 -2.4727 4.58811 0
M  V30 9216 C 857.913 -2.3403 5.38002 0
M  V30 9217 C 860.265 -2.23032 5.91979 0
M  V30 9218 C 858.929 -2.15862 6.31633 0
M  V30 9219 H 858.199 -0.568897 0.474803 0
M  V30 9220 H 860.846 -0.920299 1.67937 0
M  V30 9221 H 859.151 -3.52712 1.70591 0
M  V30 9222 H 860.848 -3.42597 2.08395 0
M  V30 9223 H 857.438 -2.70602 3.32374 0
M  V30 9224 H 861.622 -2.506 4.28384 0
M  V30 9225 H 856.878 -2.26956 5.67715 0
M  V30 9226 H 861.052 -2.08001 6.64612 0
M  V30 9227 H 858.679 -1.9566 7.34589 0
M  V30 9228 N 860.254 -1.20106 -1.0204 0
M  V30 9229 C 861.482 -1.0344 -1.79186 0
M  V30 9230 C 861.897 0.416542 -1.84148 0
M  V30 9231 O 861.254 1.28925 -1.29168 0
M  V30 9232 C 861.305 -1.60663 -3.23836 0
M  V30 9233 O 861.026 -3.00079 -3.19193 0
M  V30 9234 C 862.527 -1.48897 -4.17546 0
M  V30 9235 H 859.747 -0.364093 -0.563629 0
M  V30 9236 H 862.291 -1.5911 -1.28469 0
M  V30 9237 H 860.446 -1.09122 -3.71714 0
M  V30 9238 H 860.86 -3.27162 -4.09958 0
M  V30 9239 H 862.334 -1.93703 -5.16898 0
M  V30 9240 H 862.811 -0.440843 -4.36982 0
M  V30 9241 H 863.417 -1.9961 -3.75547 0
M  V30 9242 N 861.732 1.21287 -1.00634 0
M  V30 9243 C 862.679 2.23705 -0.567876 0
M  V30 9244 C 863.649 1.61043 0.406753 0
M  V30 9245 O 864.834 1.88289 0.308499 0
M  V30 9246 C 861.974 3.44961 0.097996 0
M  V30 9247 C 861.087 4.22091 -0.919972 0
M  V30 9248 C 860.222 5.30718 -0.226222 0
M  V30 9249 C 859.261 5.99581 -1.23165 0
M  V30 9250 N 858.398 6.99821 -0.565278 0
M  V30 9251 H 863.238 2.60571 -1.44592 0
M  V30 9252 H 860.775 1.28049 -0.724006 0
M  V30 9253 H 862.733 4.1418 0.501097 0
M  V30 9254 H 861.363 3.08818 0.939744 0
M  V30 9255 H 860.415 3.52038 -1.44131 0
M  V30 9256 H 861.727 4.69476 -1.68505 0
M  V30 9257 H 860.881 6.06253 0.232917 0
M  V30 9258 H 859.62 4.84343 0.571247 0
M  V30 9259 H 858.625 5.22816 -1.70128 0
M  V30 9260 H 859.85 6.48042 -2.03022 0
M  V30 9261 H 857.796 6.55656 0.212508 0
M  V30 9262 H 857.713 7.4528 -1.26858 0
M  V30 9263 H 858.981 7.79393 -0.129389 0
M  V30 9264 N 863.21 0.781244 1.36873 0
M  V30 9265 C 864.459 0.34652 1.98701 0
M  V30 9266 C 864.772 -1.08555 1.62712 0
M  V30 9267 O 865.978 -1.62213 2.17713 0
M  V30 9268 C 864.434 0.568611 3.5538 0
M  V30 9269 C 864.042 2.01156 4.003 0
M  V30 9270 C 865.786 0.197983 4.24038 0
M  V30 9271 C 863.693 2.18074 5.49725 0
M  V30 9272 H 862.623 0.125821 0.743428 0
M  V30 9273 H 865.274 0.961721 1.56279 0
M  V30 9274 H 863.656 -0.116185 3.9583 0
M  V30 9275 H 864.83 2.73209 3.71071 0
M  V30 9276 H 863.145 2.33967 3.44454 0
M  V30 9277 H 865.742 0.302778 5.33842 0
M  V30 9278 H 866.085 -0.852927 4.07469 0
M  V30 9279 H 866.618 0.835696 3.88923 0
M  V30 9280 H 863.357 3.21519 5.71232 0
M  V30 9281 H 862.877 1.50517 5.80607 0
M  V30 9282 H 864.556 1.98393 6.15832 0
M  V30 9283 N 864.689 -1.48329 0.532571 0
M  V30 9284 C 865.937 -2.021 -0.000581206 0
M  V30 9285 C 866.258 -1.4117 -1.34522 0
M  V30 9286 O 865.528 -0.578005 -1.87179 0
M  V30 9287 H 864.108 -0.746993 -0.00320281 0
M  V30 9288 H 866.77 -1.82011 0.696991 0
M  V30 9289 H 865.866 -3.11917 -0.106991 0
M  V30 9290 N 866.167 -0.267825 -1.55308 0
M  V30 9291 C 867.395 0.354587 -2.03839 0
M  V30 9292 C 867.81 1.50007 -1.14644 0
M  V30 9293 O 867.167 1.81752 -0.165055 0
M  V30 9294 C 867.218 0.84254 -3.51544 0
M  V30 9295 O 866.939 -0.257318 -4.37344 0
M  V30 9296 C 868.44 1.53351 -4.15931 0
M  V30 9297 H 865.66 0.0818131 -0.665994 0
M  V30 9298 H 868.204 -0.397795 -2.00594 0
M  V30 9299 H 866.359 1.54503 -3.55257 0
M  V30 9300 H 866.773 0.116593 -5.2437 0
M  V30 9301 H 868.247 1.82643 -5.20908 0
M  V30 9302 H 868.724 2.4626 -3.63666 0
M  V30 9303 H 869.33 0.87506 -4.162 0
M  V30 9304 N 867.645 1.57599 0.00500368 0
M  V30 9305 C 868.575 2.11143 0.99705 0
M  V30 9306 C 869.556 1.0194 1.3617 0
M  V30 9307 O 870.741 1.29596 1.44632 0
M  V30 9308 C 867.871 2.61062 2.2905 0
M  V30 9309 C 866.825 3.74745 2.0676 0
M  V30 9310 C 866.151 4.10961 3.42075 0
M  V30 9311 C 867.451 5.02222 1.43424 0
M  V30 9312 H 869.145 2.94281 0.551251 0
M  V30 9313 H 866.691 1.41565 0.263715 0
M  V30 9314 H 868.644 2.97146 2.98801 0
M  V30 9315 H 867.368 1.75038 2.75734 0
M  V30 9316 H 866.027 3.39047 1.39436 0
M  V30 9317 H 865.675 3.21968 3.86453 0
M  V30 9318 H 865.375 4.87549 3.27979 0
M  V30 9319 H 866.899 4.49599 4.1315 0
M  V30 9320 H 868.313 5.36109 2.03125 0
M  V30 9321 H 866.71 5.83581 1.39831 0
M  V30 9322 H 867.78 4.83224 0.40285 0
M  V30 9323 N 869.123 -0.277682 1.55134 0
M  V30 9324 C 870.539 -0.624625 1.46869 0
M  V30 9325 C 870.739 -1.89717 0.678958 0
M  V30 9326 O 869.795 -2.51739 0.195939 0
M  V30 9327 C 871.108 -0.755937 2.91043 0
M  V30 9328 C 872.656 -0.850299 3.01229 0
M  V30 9329 C 873.131 -1.01343 4.46647 0
M  V30 9330 N 874.622 -1.07906 4.50456 0
M  V30 9331 C 875.357 -1.224 5.60184 0
M  V30 9332 N 874.853 -1.33642 6.79788 0
M  V30 9333 N 876.646 -1.25473 5.47917 0
M  V30 9334 H 868.797 0.558102 2.04937 0
M  V30 9335 H 871.06 0.188228 0.929125 0
M  V30 9336 H 870.766 0.108593 3.51532 0
M  V30 9337 H 870.64 -1.6377 3.39793 0
M  V30 9338 H 873.027 -1.7053 2.40839 0
M  V30 9339 H 873.108 0.0559681 2.55739 0
M  V30 9340 H 872.752 -0.163102 5.07638 0
M  V30 9341 H 872.682 -1.93427 4.89789 0
M  V30 9342 H 875.173 -1.00477 3.64298 0
M  V30 9343 H 875.486 -1.44522 7.59166 0
M  V30 9344 H 873.831 -1.30655 6.82608 0
M  V30 9345 H 877.022 -1.16317 4.53418 0
M  V30 9346 H 877.195 -1.36424 6.33476 0
M  V30 9347 N 870.601 -1.47988 -0.541979 0
M  V30 9348 C 871.826 -1.59286 -1.32826 0
M  V30 9349 C 872.251 -0.24894 -1.86445 0
M  V30 9350 O 871.609 0.777581 -1.63778 0
M  V30 9351 C 871.657 -2.6334 -2.46343 0
M  V30 9352 O 870.761 -2.19667 -3.49028 0
M  V30 9353 H 870.102 -0.534543 -0.393903 0
M  V30 9354 H 872.632 -1.93885 -0.653427 0
M  V30 9355 H 872.642 -2.84238 -2.92699 0
M  V30 9356 H 871.317 -3.60913 -2.06675 0
M  V30 9357 H 869.894 -2.08932 -3.08872 0
M  V30 9358 N 872.079 0.78992 -1.36375 0
M  V30 9359 C 873.011 1.91113 -1.26524 0
M  V30 9360 C 874.024 1.61747 -0.184851 0
M  V30 9361 O 875.213 1.73004 -0.439524 0
M  V30 9362 C 872.313 3.25908 -0.92937 0
M  V30 9363 C 871.486 3.83057 -2.11154 0
M  V30 9364 C 870.545 4.96289 -1.74881 0
M  V30 9365 O 869.571 5.12834 -2.46962 0
M  V30 9366 N 870.773 5.76478 -0.682193 0
M  V30 9367 H 873.538 2.00085 -2.23128 0
M  V30 9368 H 871.099 0.968165 -1.29762 0
M  V30 9369 H 873.091 3.99151 -0.667884 0
M  V30 9370 H 871.661 3.12556 -0.0524843 0
M  V30 9371 H 870.881 3.01808 -2.53586 0
M  V30 9372 H 872.169 4.1797 -2.90135 0
M  V30 9373 H 871.567 5.65638 -0.0836661 0
M  V30 9374 H 870.124 6.50026 -0.480529 0
M  V30 9375 N 873.557 1.20646 1.01402 0
M  V30 9376 C 874.52 0.959314 2.08158 0
M  V30 9377 C 875.52 -0.0661558 1.60664 0
M  V30 9378 O 876.71 0.170177 1.73367 0
M  V30 9379 C 873.842 0.444785 3.37986 0
M  V30 9380 H 875.035 1.90631 2.31517 0
M  V30 9381 H 872.588 1.02219 1.18241 0
M  V30 9382 H 873.323 -0.507553 3.20304 0
M  V30 9383 H 873.108 1.18435 3.73785 0
M  V30 9384 H 874.598 0.291443 4.16582 0
M  V30 9385 N 875.035 -1.20752 1.01276 0
M  V30 9386 C 875.965 -2.25658 0.600064 0
M  V30 9387 C 876.946 -1.65733 -0.38298 0
M  V30 9388 O 878.131 -1.92324 -0.269256 0
M  V30 9389 C 875.261 -3.47237 -0.0663197 0
M  V30 9390 C 874.215 -4.1973 0.83731 0
M  V30 9391 C 873.541 -5.34687 0.0369102 0
M  V30 9392 C 874.841 -4.76286 2.14357 0
M  V30 9393 H 876.535 -2.60432 1.477 0
M  V30 9394 H 874.081 -1.25187 0.711634 0
M  V30 9395 H 876.034 -4.19803 -0.366563 0
M  V30 9396 H 874.758 -3.11615 -0.977944 0
M  V30 9397 H 873.417 -3.49024 1.1215 0
M  V30 9398 H 873.065 -4.95309 -0.876244 0
M  V30 9399 H 872.765 -5.84119 0.63865 0
M  V30 9400 H 874.289 -6.10059 -0.256968 0
M  V30 9401 H 875.703 -5.40691 1.90595 0
M  V30 9402 H 874.1 -5.36139 2.69583 0
M  V30 9403 H 875.17 -3.9524 2.80916 0
M  V30 9404 N 876.513 -0.788492 -1.36457 0
M  V30 9405 C 877.741 -0.372365 -2.03522 0
M  V30 9406 C 878.156 1.01093 -1.59454 0
M  V30 9407 O 877.513 1.64824 -0.783535 0
M  V30 9408 C 877.564 -0.425435 -3.58988 0
M  V30 9409 O 877.285 -1.75418 -4.01448 0
M  V30 9410 C 878.786 0.000180167 -4.433 0
M  V30 9411 H 876.006 -0.1536 -0.653183 0
M  V30 9412 H 878.55 -1.06708 -1.74452 0
M  V30 9413 H 876.705 0.220856 -3.8677 0
M  V30 9414 H 877.119 -1.70437 -4.96036 0
M  V30 9415 H 878.593 -0.0880919 -5.5193 0
M  V30 9416 H 879.07 1.05269 -4.26398 0
M  V30 9417 H 879.676 -0.618563 -4.20778 0
M  V30 9418 N 877.991 1.48044 -0.54043 0
M  V30 9419 C 879.219 2.06895 -0.0145153 0
M  V30 9420 C 879.634 1.39552 1.27164 0
M  V30 9421 O 878.991 0.486454 1.75897 0
M  V30 9422 C 879.042 3.60934 0.202278 0
M  V30 9423 O 878.763 4.25749 -1.03293 0
M  V30 9424 C 880.264 4.36607 0.767387 0
M  V30 9425 H 877.484 0.66991 -0.0382368 0
M  V30 9426 H 880.028 1.90288 -0.749057 0
M  V30 9427 H 878.183 3.77111 0.886897 0
M  V30 9428 H 878.597 5.18048 -0.820167 0
M  V30 9429 H 880.071 5.45126 0.86845 0
M  V30 9430 H 880.548 4.01745 1.77477 0
M  V30 9431 H 881.154 4.25133 0.119002 0
M  V30 9432 N 879.47 0.276058 1.55163 0
M  V30 9433 C 880.695 -0.346648 2.04483 0
M  V30 9434 C 881.12 -1.48613 1.15308 0
M  V30 9435 O 880.478 -1.80663 0.151875 0
M  V30 9436 C 880.526 -0.804268 3.51517 0
M  V30 9437 O 879.63 -1.91143 3.65429 0
M  V30 9438 H 878.971 -0.0715251 0.660136 0
M  V30 9439 H 881.501 0.410631 2.00437 0
M  V30 9440 H 881.511 -1.09977 3.92898 0
M  V30 9441 H 880.186 0.0294123 4.1589 0
M  V30 9442 H 878.763 -1.61839 3.3595 0
M  V30 9443 N 880.948 -1.576 0.00335426 0
M  V30 9444 C 881.911 -2.07576 -0.971838 0
M  V30 9445 C 882.911 -0.985796 -1.27038 0
M  V30 9446 O 884.101 -1.24833 -1.21501 0
M  V30 9447 C 881.233 -2.52003 -2.29581 0
M  V30 9448 H 882.426 -2.95008 -0.539481 0
M  V30 9449 H 879.979 -1.54381 -0.244186 0
M  V30 9450 H 880.714 -1.67825 -2.77498 0
M  V30 9451 H 880.499 -3.31609 -2.09231 0
M  V30 9452 H 881.989 -2.90983 -2.99531 0
M  V30 9453 N 882.426 0.269451 -1.5528 0
M  V30 9454 C 883.376 1.33553 -1.84791 0
M  V30 9455 C 884.36 1.44532 -0.707067 0
M  V30 9456 O 885.552 1.48153 -0.968493 0
M  V30 9457 C 882.681 2.69516 -2.12641 0
M  V30 9458 C 881.767 2.62633 -3.32993 0
M  V30 9459 N 882.158 2.25371 -4.52815 0
M  V30 9460 C 880.456 2.93688 -3.35654 0
M  V30 9461 C 881.157 2.28567 -5.34913 0
M  V30 9462 N 880.133 2.67181 -4.73408 0
M  V30 9463 H 883.935 1.03758 -2.74976 0
M  V30 9464 H 881.449 0.478087 -1.55203 0
M  V30 9465 H 883.446 3.46424 -2.3194 0
M  V30 9466 H 882.106 3.00197 -1.23742 0
M  V30 9467 H 883.117 1.9729 -4.7885 0
M  V30 9468 H 879.794 3.29057 -2.56958 0
M  V30 9469 H 881.184 2.02289 -6.40725 0
M  V30 9470 N 883.904 1.48273 0.534124 0
M  V30 9471 C 885.129 1.59988 1.31979 0
M  V30 9472 C 885.554 0.258824 1.86311 0
M  V30 9473 O 884.912 -0.768885 1.64188 0
M  V30 9474 C 884.96 2.64642 2.44943 0
M  V30 9475 O 884.064 2.21515 3.47858 0
M  V30 9476 H 883.405 0.536625 0.391063 0
M  V30 9477 H 885.935 1.94229 0.643135 0
M  V30 9478 H 885.945 2.85786 2.91187 0
M  V30 9479 H 884.62 3.62004 2.04758 0
M  V30 9480 H 883.197 2.10567 3.0776 0
M  V30 9481 N 885.382 -0.782676 1.36792 0
M  V30 9482 C 886.628 -1.54311 1.3159 0
M  V30 9483 C 886.961 -1.93928 -0.102696 0
M  V30 9484 O 886.236 -1.63233 -1.05761 0
M  V30 9485 C 886.519 -2.81561 2.24489 0
M  V30 9486 C 886.372 -2.48268 3.75078 0
M  V30 9487 C 887.691 -3.83428 2.16034 0
M  V30 9488 H 884.81 -0.559828 0.479335 0
M  V30 9489 H 887.452 -0.898717 1.67401 0
M  V30 9490 H 885.602 -3.36549 1.9408 0
M  V30 9491 H 887.274 -1.99279 4.16036 0
M  V30 9492 H 885.517 -1.81116 3.94182 0
M  V30 9493 H 886.188 -3.39183 4.35499 0
M  V30 9494 H 888.664 -3.37905 2.42815 0
M  V30 9495 H 887.54 -4.70204 2.83194 0
M  V30 9496 H 887.801 -4.26887 1.14976 0
M  V30 9497 N 886.86 -1.21182 -1.00761 0
M  V30 9498 C 888.106 -1.02898 -1.74756 0
M  V30 9499 C 888.439 0.436774 -1.89225 0
M  V30 9500 O 887.714 1.32415 -1.42466 0
M  V30 9501 C 887.997 -1.72372 -3.16164 0
M  V30 9502 C 887.85 -3.2645 -3.09435 0
M  V30 9503 C 889.169 -1.46415 -4.15031 0
M  V30 9504 H 886.288 -0.375214 -0.634337 0
M  V30 9505 H 888.93 -1.49321 -1.17487 0
M  V30 9506 H 887.08 -1.32906 -3.65059 0
M  V30 9507 H 888.752 -3.75269 -2.68274 0
M  V30 9508 H 886.995 -3.56889 -2.46603 0
M  V30 9509 H 887.666 -3.70226 -4.09435 0
M  V30 9510 H 890.142 -1.80671 -3.7483 0
M  V30 9511 H 889.018 -1.97544 -5.12121 0
M  V30 9512 H 889.279 -0.39361 -4.40344 0
M  V30 9513 N 888.338 1.20213 -1.01915 0
M  V30 9514 C 889.288 2.20957 -0.562327 0
M  V30 9515 C 890.272 1.56258 0.383704 0
M  V30 9516 O 891.464 1.75794 0.206255 0
M  V30 9517 C 888.593 3.43167 0.0954035 0
M  V30 9518 C 887.679 4.15028 -0.872487 0
M  V30 9519 N 888.07 4.63231 -2.03103 0
M  V30 9520 C 886.368 4.4057 -0.69385 0
M  V30 9521 C 887.069 5.18307 -2.64069 0
M  V30 9522 N 886.045 5.08522 -1.9211 0
M  V30 9523 H 889.847 2.55894 -1.44553 0
M  V30 9524 H 887.361 1.36178 -0.884831 0
M  V30 9525 H 889.358 4.14569 0.440232 0
M  V30 9526 H 888.018 3.09734 0.974413 0
M  V30 9527 H 889.029 4.58365 -2.41086 0
M  V30 9528 H 885.706 4.17276 0.136889 0
M  V30 9529 H 887.096 5.65961 -3.6213 0
M  V30 9530 N 889.816 0.795718 1.36037 0
M  V30 9531 C 890.766 0.171437 2.27355 0
M  V30 9532 C 891.75 -0.648346 1.47259 0
M  V30 9533 O 892.942 -0.507386 1.69572 0
M  V30 9534 C 890.071 -0.687876 3.36338 0
M  V30 9535 C 889.157 0.141041 4.23865 0
M  V30 9536 N 889.548 1.19868 4.91391 0
M  V30 9537 C 887.846 -0.0791045 4.4593 0
M  V30 9538 C 888.547 1.70382 5.56188 0
M  V30 9539 N 887.523 1.01202 5.34097 0
M  V30 9540 H 891.325 0.980846 2.7705 0
M  V30 9541 H 888.839 0.635798 1.49437 0
M  V30 9542 H 890.836 -1.15107 4.00694 0
M  V30 9543 H 889.496 -1.49576 2.88196 0
M  V30 9544 H 890.507 1.58119 4.93172 0
M  V30 9545 H 887.184 -0.856993 4.0861 0
M  V30 9546 H 888.574 2.58715 6.20093 0
M  V30 9547 N 891.294 -1.47756 0.548274 0
M  V30 9548 C 892.542 -2.02089 0.0208542 0
M  V30 9549 C 892.863 -1.42589 -1.33017 0
M  V30 9550 O 892.133 -0.597825 -1.86555 0
M  V30 9551 H 890.713 -0.746985 0.00472023 0
M  V30 9552 H 893.375 -1.81262 0.716257 0
M  V30 9553 H 892.471 -3.12012 -0.0739016 0
M  V30 9554 N 892.772 -0.284283 -1.55015 0
M  V30 9555 C 894.021 0.33055 -1.98973 0
M  V30 9556 C 894.334 1.56284 -1.17621 0
M  V30 9557 O 895.54 2.2512 -1.51767 0
M  V30 9558 C 893.996 0.639457 -3.54174 0
M  V30 9559 C 893.604 -0.573543 -4.44313 0
M  V30 9560 C 895.348 1.21641 -4.06699 0
M  V30 9561 C 893.255 -0.238715 -5.90918 0
M  V30 9562 H 892.185 0.127285 -0.743179 0
M  V30 9563 H 894.836 -0.390372 -1.793 0
M  V30 9564 H 893.218 1.41953 -3.69683 0
M  V30 9565 H 894.392 -1.3502 -4.40575 0
M  V30 9566 H 892.707 -1.06797 -4.02472 0
M  V30 9567 H 895.304 1.48088 -5.13784 0
M  V30 9568 H 895.647 2.15328 -3.56286 0
M  V30 9569 H 896.18 0.498422 -3.94665 0
M  V30 9570 H 892.919 -1.1437 -6.45445 0
M  V30 9571 H 892.439 0.500997 -5.97704 0
M  V30 9572 H 894.118 0.165774 -6.46788 0
M  V30 9573 N 894.251 1.57596 -0.0117121 0
M  V30 9574 C 895.662 1.79033 0.529521 0
M  V30 9575 C 896.013 0.920299 1.73277 0
M  V30 9576 O 895.138 0.125934 2.16033 0
M  V30 9577 C 895.733 3.24695 0.967405 0
M  V30 9578 C 894.292 3.47188 1.45387 0
M  V30 9579 C 893.439 2.74245 0.410466 0
M  V30 9580 H 896.39 1.56908 -0.237836 0
M  V30 9581 H 896.411 3.33451 1.83278 0
M  V30 9582 H 895.923 3.87992 0.0914605 0
M  V30 9583 H 894.024 2.89121 2.35032 0
M  V30 9584 H 894.137 4.55886 1.47325 0
M  V30 9585 H 892.501 2.39209 0.874721 0
M  V30 9586 H 893.284 3.40248 -0.456713 0
M  V30 9587 N 895.729 -0.261212 1.5542 0
M  V30 9588 C 896.659 -1.32712 1.92119 0
M  V30 9589 C 897.64 -1.50934 0.784406 0
M  V30 9590 O 898.825 -1.63781 1.04352 0
M  V30 9591 C 895.955 -2.68453 2.20341 0
M  V30 9592 C 894.909 -2.64947 3.36136 0
M  V30 9593 C 894.235 -4.04349 3.49865 0
M  V30 9594 C 895.535 -2.23182 4.72215 0
M  V30 9595 H 897.229 -1.02245 2.81401 0
M  V30 9596 H 894.775 -0.490406 1.35392 0
M  V30 9597 H 896.728 -3.43144 2.44603 0
M  V30 9598 H 895.452 -3.00527 1.27871 0
M  V30 9599 H 894.111 -1.92714 3.11861 0
M  V30 9600 H 893.759 -4.33665 2.5484 0
M  V30 9601 H 893.459 -4.02895 4.27726 0
M  V30 9602 H 894.983 -4.80761 3.76432 0
M  V30 9603 H 896.397 -2.87599 4.95943 0
M  V30 9604 H 894.794 -2.32867 5.53076 0
M  V30 9605 H 895.864 -1.18327 4.70241 0
M  V30 9606 N 897.207 -1.48554 -0.526253 0
M  V30 9607 C 898.139 -1.59446 -1.6465 0
M  V30 9608 C 899.152 -0.478525 -1.55608 0
M  V30 9609 O 900.341 -0.74953 -1.62001 0
M  V30 9610 C 897.441 -1.51164 -3.03319 0
M  V30 9611 C 896.614 -2.77861 -3.37805 0
M  V30 9612 C 895.673 -2.62982 -4.5577 0
M  V30 9613 O 894.699 -3.36876 -4.58806 0
M  V30 9614 N 895.901 -1.72847 -5.5417 0
M  V30 9615 H 898.666 -2.56055 -1.55743 0
M  V30 9616 H 896.227 -1.45325 -0.713606 0
M  V30 9617 H 898.219 -1.389 -3.80117 0
M  V30 9618 H 896.789 -0.625147 -3.06285 0
M  V30 9619 H 896.009 -3.04663 -2.50149 0
M  V30 9620 H 897.297 -3.61908 -3.57632 0
M  V30 9621 H 896.695 -1.12022 -5.54498 0
M  V30 9622 H 895.252 -1.6652 -6.3017 0
M  V30 9623 N 898.685 0.775411 -1.37205 0
M  V30 9624 C 899.648 1.8702 -1.325 0
M  V30 9625 C 900.648 1.5915 -0.229793 0
M  V30 9626 O 901.838 1.673 -0.485423 0
M  V30 9627 C 898.97 3.24085 -1.05745 0
M  V30 9628 H 900.163 1.92604 -2.29878 0
M  V30 9629 H 897.716 0.97476 -1.22181 0
M  V30 9630 H 898.451 3.24178 -0.0888371 0
M  V30 9631 H 898.236 3.45705 -1.85016 0
M  V30 9632 H 899.726 4.0416 -1.05094 0
M  V30 9633 N 900.163 1.21714 1.00117 0
M  V30 9634 C 901.411 1.03465 1.73607 0
M  V30 9635 C 901.732 -0.432295 1.90148 0
M  V30 9636 O 901.002 -1.31157 1.45515 0
M  V30 9637 H 899.582 0.379857 0.643209 0
M  V30 9638 H 902.244 1.53088 1.20624 0
M  V30 9639 H 901.34 1.50574 2.73375 0
M  V30 9640 N 901.641 -1.19671 1.02551 0
M  V30 9641 C 902.869 -1.93233 0.739513 0
M  V30 9642 C 903.284 -1.75298 -0.701158 0
M  V30 9643 O 902.641 -1.07269 -1.47647 0
M  V30 9644 C 902.692 -3.45085 1.07697 0
M  V30 9645 O 902.413 -3.62441 2.46106 0
M  V30 9646 C 903.914 -4.35776 0.813298 0
M  V30 9647 H 901.134 -0.613905 0.270853 0
M  V30 9648 H 903.678 -1.51909 1.36909 0
M  V30 9649 H 901.833 -3.84255 0.492635 0
M  V30 9650 H 902.247 -4.56337 2.58567 0
M  V30 9651 H 903.721 -5.40941 1.09941 0
M  V30 9652 H 904.198 -4.38474 -0.252359 0
M  V30 9653 H 904.804 -4.02282 1.38021 0
M  V30 9654 N 903.119 -0.802921 -1.35613 0
M  V30 9655 C 904.082 -0.216422 -2.28176 0
M  V30 9656 C 905.082 0.594101 -1.49422 0
M  V30 9657 O 906.272 0.41312 -1.6923 0
M  V30 9658 C 903.404 0.698746 -3.33662 0
M  V30 9659 H 904.597 -1.03276 -2.81557 0
M  V30 9660 H 902.15 -0.573307 -1.45406 0
M  V30 9661 H 902.885 1.53891 -2.85461 0
M  V30 9662 H 902.67 0.119314 -3.91918 0
M  V30 9663 H 904.16 1.10354 -4.02755 0
M  V30 9664 N 904.597 1.47463 -0.556102 0
M  V30 9665 C 905.529 2.28046 0.22968 0
M  V30 9666 C 906.542 1.3694 0.880409 0
M  V30 9667 O 907.731 1.61773 0.754447 0
M  V30 9668 C 904.831 3.11165 1.34273 0
M  V30 9669 C 904.004 4.30225 0.789004 0
M  V30 9670 C 903.063 4.94948 1.78641 0
M  V30 9671 O 902.089 5.53372 1.33297 0
M  V30 9672 N 903.291 4.89543 3.11974 0
M  V30 9673 H 906.056 2.96125 -0.461558 0
M  V30 9674 H 903.617 1.5708 -0.392105 0
M  V30 9675 H 905.609 3.51331 2.00869 0
M  V30 9676 H 904.179 2.45337 1.93722 0
M  V30 9677 H 903.399 3.94163 -0.0536971 0
M  V30 9678 H 904.687 5.07238 0.398378 0
M  V30 9679 H 904.085 4.43275 3.51459 0
M  V30 9680 H 902.642 5.33732 3.74131 0
M  V30 9681 N 906.075 0.2925 1.54862 0
M  V30 9682 C 907.322 -0.319263 1.99967 0
M  V30 9683 C 907.65 -1.54547 1.18092 0
M  V30 9684 O 906.905 -1.94186 0.242969 0
M  V30 9685 C 907.204 -0.728674 3.49893 0
M  V30 9686 C 906.87 0.394836 4.49168 0
M  V30 9687 C 905.532 0.703289 4.76033 0
M  V30 9688 C 907.884 1.15103 5.08331 0
M  V30 9689 C 905.212 1.77121 5.59325 0
M  V30 9690 C 907.564 2.20881 5.92785 0
M  V30 9691 C 906.228 2.52342 6.17964 0
M  V30 9692 H 905.498 -0.116827 0.731733 0
M  V30 9693 H 908.145 0.40983 1.87063 0
M  V30 9694 H 906.45 -1.53772 3.60363 0
M  V30 9695 H 908.147 -1.21305 3.82212 0
M  V30 9696 H 904.737 0.144319 4.28357 0
M  V30 9697 H 908.921 0.92599 4.87585 0
M  V30 9698 H 904.177 2.01978 5.77074 0
M  V30 9699 H 908.351 2.79939 6.37657 0
M  V30 9700 H 905.978 3.35225 6.82296 0
M  V30 9701 N 907.553 -1.57587 0.0200696 0
M  V30 9702 C 908.801 -1.91046 -0.65922 0
M  V30 9703 C 909.122 -0.896197 -1.73186 0
M  V30 9704 O 908.392 0.0635952 -1.95797 0
M  V30 9705 H 906.972 -0.705163 -0.246483 0
M  V30 9706 H 909.634 -1.94789 0.0657368 0
M  V30 9707 H 908.73 -2.91399 -1.11773 0
M  V30 9708 N 909.032 0.252966 -1.55557 0
M  V30 9709 C 910.272 0.989276 -1.78865 0
M  V30 9710 C 910.636 1.82755 -0.588615 0
M  V30 9711 O 911.837 2.59516 -0.700347 0
M  V30 9712 C 910.108 1.83203 -3.06874 0
M  V30 9713 S 911.667 2.62826 -3.5138 0
M  V30 9714 H 908.485 0.332863 -0.62827 0
M  V30 9715 H 911.087 0.257716 -1.93794 0
M  V30 9716 H 909.791 1.20579 -3.92287 0
M  V30 9717 H 909.322 2.60644 -2.94666 0
M  V30 9718 H 911.337 3.85648 -3.12234 0
M  V30 9719 N 910.51 1.48831 0.518367 0
M  V30 9720 C 911.758 1.57128 1.27103 0
M  V30 9721 C 912.079 0.252098 1.93364 0
M  V30 9722 O 911.349 -0.727281 1.819 0
M  V30 9723 H 909.929 0.578891 0.472116 0
M  V30 9724 H 912.591 1.85361 0.602262 0
M  V30 9725 H 911.687 2.35838 2.04418 0
M  V30 9726 N 911.988 -0.768124 1.37614 0
M  V30 9727 C 913.265 -1.51637 1.23554 0
M  V30 9728 C 913.645 -2.1042 -0.169331 0
M  V30 9729 O 912.993 -1.95834 -1.17735 0
M  V30 9730 C 913.203 -2.59436 2.33439 0
M  V30 9731 C 914.551 -3.2674 2.71157 0
M  V30 9732 O 915.575 -2.69733 2.32642 0
M  V30 9733 O 914.434 -4.29814 3.37524 0
M  V30 9734 H 911.528 -0.671778 0.482332 0
M  V30 9735 H 914.074 -0.804779 1.49403 0
M  V30 9736 H 912.846 -2.14146 3.27502 0
M  V30 9737 H 912.469 -3.38192 2.09073 0
M  V30 9738 N 913.466 -1.22244 -0.994698 0
M  V30 9739 C 914.429 -0.992308 -2.06606 0
M  V30 9740 C 915.429 0.0405872 -1.60749 0
M  V30 9741 O 916.619 -0.197737 -1.73074 0
M  V30 9742 C 913.751 -0.498499 -3.37236 0
M  V30 9743 H 914.944 -1.9429 -2.28455 0
M  V30 9744 H 912.497 -1.04087 -1.166 0
M  V30 9745 H 913.232 0.456531 -3.21071 0
M  V30 9746 H 913.017 -1.24367 -3.71854 0
M  V30 9747 H 914.507 -0.35768 -4.16065 0
M  V30 9748 N 914.944 1.19125 -1.03184 0
M  V30 9749 C 916.191 1.88883 -0.730029 0
M  V30 9750 C 916.519 1.79807 0.741602 0
M  V30 9751 O 915.774 1.18686 1.55603 0
M  V30 9752 C 916.073 3.39052 -1.13041 0
M  V30 9753 C 915.739 3.68332 -2.60082 0
M  V30 9754 C 914.401 3.76033 -3.00254 0
M  V30 9755 C 916.753 3.81423 -3.55199 0
M  V30 9756 C 914.081 3.94296 -4.34451 0
M  V30 9757 C 916.433 4.012 -4.89103 0
M  V30 9758 C 915.097 4.07134 -5.28959 0
M  V30 9759 H 914.367 0.691172 -0.267137 0
M  V30 9760 H 917.014 1.41053 -1.29523 0
M  V30 9761 H 915.319 3.88801 -0.48386 0
M  V30 9762 H 917.016 3.91351 -0.874368 0
M  V30 9763 H 913.606 3.62948 -2.27961 0
M  V30 9764 H 917.79 3.74814 -3.25313 0
M  V30 9765 H 913.046 3.97131 -4.64863 0
M  V30 9766 H 917.22 4.10271 -5.62717 0
M  V30 9767 H 914.847 4.21038 -6.32954 0
M  V30 9768 N 916.422 0.810101 1.35185 0
M  V30 9769 C 917.354 0.180581 2.28488 0
M  V30 9770 C 918.367 -0.622154 1.50443 0
M  V30 9771 O 919.556 -0.453938 1.72632 0
M  V30 9772 C 916.656 -0.766447 3.30119 0
M  V30 9773 C 915.829 -0.00932028 4.37399 0
M  V30 9774 C 914.888 -0.875354 5.18868 0
M  V30 9775 O 913.914 -0.325012 5.68271 0
M  V30 9776 N 915.116 -2.19695 5.37321 0
M  V30 9777 H 917.881 0.98212 2.83151 0
M  V30 9778 H 915.442 0.665879 1.47573 0
M  V30 9779 H 917.434 -1.35012 3.81515 0
M  V30 9780 H 916.004 -1.46878 2.75945 0
M  V30 9781 H 915.224 0.755585 3.86891 0
M  V30 9782 H 916.512 0.512352 5.06214 0
M  V30 9783 H 915.91 -2.66797 4.98834 0
M  V30 9784 H 914.467 -2.72978 5.91884 0
M  V30 9785 N 917.9 -1.47166 0.563914 0
M  V30 9786 C 918.832 -2.28165 -0.217583 0
M  V30 9787 C 919.845 -1.37405 -0.873134 0
M  V30 9788 O 921.034 -1.6217 -0.745857 0
M  V30 9789 C 918.134 -3.11873 -1.32621 0
M  V30 9790 C 917.307 -4.30637 -0.766177 0
M  V30 9791 C 916.366 -4.95889 -1.76014 0
M  V30 9792 O 915.392 -5.54071 -1.3036 0
M  V30 9793 N 916.594 -4.91191 -3.09373 0
M  V30 9794 H 919.359 -2.95876 0.477256 0
M  V30 9795 H 916.92 -1.5687 0.40043 0
M  V30 9796 H 918.912 -3.52392 -1.99003 0
M  V30 9797 H 917.482 -2.46361 -1.92419 0
M  V30 9798 H 916.702 -3.94129 0.0745998 0
M  V30 9799 H 917.99 -5.07442 -0.371472 0
M  V30 9800 H 917.388 -4.45133 -3.49104 0
M  V30 9801 H 915.945 -5.35708 -3.71295 0
M  V30 9802 N 919.378 -0.300708 -1.54705 0
M  V30 9803 C 920.606 0.31127 -2.04545 0
M  V30 9804 C 921.021 1.47542 -1.178 0
M  V30 9805 O 920.378 1.81361 -0.203571 0
M  V30 9806 C 920.429 0.767783 -3.53253 0
M  V30 9807 O 920.15 -0.350027 -4.36699 0
M  V30 9808 C 921.651 1.44494 -4.1909 0
M  V30 9809 H 918.871 0.067668 -0.667579 0
M  V30 9810 H 921.415 -0.440254 -1.99705 0
M  V30 9811 H 919.57 1.46933 -3.58454 0
M  V30 9812 H 919.984 0.00534038 -5.245 0
M  V30 9813 H 921.458 1.71553 -5.24665 0
M  V30 9814 H 921.935 2.3849 -3.68808 0
M  V30 9815 H 922.541 0.786581 -4.17963 0
M  V30 9816 N 920.856 1.57574 -0.0284266 0
M  V30 9817 C 921.786 2.1321 0.952039 0
M  V30 9818 C 922.767 1.04806 1.33977 0
M  V30 9819 O 923.952 1.32635 1.41851 0
M  V30 9820 C 921.082 2.65862 2.23461 0
M  V30 9821 C 920.036 3.79047 1.98765 0
M  V30 9822 C 919.362 4.18124 3.33281 0
M  V30 9823 C 920.662 5.05151 1.32739 0
M  V30 9824 H 922.356 2.95385 0.488705 0
M  V30 9825 H 919.902 1.42092 0.233628 0
M  V30 9826 H 921.855 3.03417 2.92431 0
M  V30 9827 H 920.579 1.80848 2.71959 0
M  V30 9828 H 919.238 3.41929 1.32213 0
M  V30 9829 H 918.886 3.30092 3.79537 0
M  V30 9830 H 918.586 4.94396 3.17563 0
M  V30 9831 H 920.11 4.58262 4.0352 0
M  V30 9832 H 921.524 5.40297 1.91708 0
M  V30 9833 H 919.921 5.86416 1.27421 0
M  V30 9834 H 920.991 4.83969 0.300261 0
M  V30 9835 N 922.334 -0.244713 1.55689 0
M  V30 9836 C 923.583 -0.970373 1.76824 0
M  V30 9837 C 923.896 -1.86402 0.592764 0
M  V30 9838 O 925.102 -2.62659 0.687186 0
M  V30 9839 C 923.558 -1.77547 3.13058 0
M  V30 9840 C 923.166 -0.929104 4.3826 0
M  V30 9841 C 924.91 -2.49373 3.43531 0
M  V30 9842 C 922.817 -1.73021 5.65524 0
M  V30 9843 H 921.747 -0.366048 0.659185 0
M  V30 9844 H 924.398 -0.224964 1.82116 0
M  V30 9845 H 922.78 -2.56291 3.01879 0
M  V30 9846 H 923.954 -0.183836 4.60433 0
M  V30 9847 H 922.269 -0.324071 4.15137 0
M  V30 9848 H 924.866 -3.09767 4.35831 0
M  V30 9849 H 925.209 -3.21099 2.64955 0
M  V30 9850 H 925.742 -1.77637 3.55935 0
M  V30 9851 H 922.481 -1.05666 6.46927 0
M  V30 9852 H 922.001 -2.45071 5.47449 0
M  V30 9853 H 923.68 -2.2968 6.0486 0
M  V30 9854 N 923.813 -1.49104 -0.510467 0
M  V30 9855 C 925.062 -1.57362 -1.26175 0
M  V30 9856 C 925.375 -0.261218 -1.93848 0
M  V30 9857 O 926.581 -0.222238 -2.70589 0
M  V30 9858 C 925.037 -2.77606 -2.29048 0
M  V30 9859 C 924.645 -4.15567 -1.67357 0
M  V30 9860 C 926.389 -2.95188 -3.05064 0
M  V30 9861 C 924.296 -5.27046 -2.68285 0
M  V30 9862 H 923.226 -0.585887 -0.474608 0
M  V30 9863 H 925.877 -1.75474 -0.536753 0
M  V30 9864 H 924.259 -2.52968 -3.04669 0
M  V30 9865 H 925.433 -4.50304 -0.977924 0
M  V30 9866 H 923.748 -4.03264 -1.03765 0
M  V30 9867 H 926.345 -3.75643 -3.80521 0
M  V30 9868 H 926.688 -2.05385 -3.62108 0
M  V30 9869 H 927.221 -3.19821 -2.36558 0
M  V30 9870 H 923.96 -6.18878 -2.16034 0
M  V30 9871 H 923.48 -4.96774 -3.36118 0
M  V30 9872 H 925.159 -5.55983 -3.30896 0
M  V30 9873 N 925.291 0.760815 -1.38019 0
M  V30 9874 C 926.531 1.53264 -1.35239 0
M  V30 9875 C 926.895 1.91908 0.0595038 0
M  V30 9876 O 928.096 2.67962 0.212122 0
M  V30 9877 C 926.367 2.75643 -2.27499 0
M  V30 9878 S 927.926 3.6559 -2.42672 0
M  V30 9879 H 924.744 0.52457 -0.479945 0
M  V30 9880 H 927.346 0.893737 -1.73875 0
M  V30 9881 H 926.05 2.4535 -3.28986 0
M  V30 9882 H 925.581 3.44483 -1.89987 0
M  V30 9883 H 927.596 4.68124 -1.64542 0
M  V30 9884 N 926.769 1.22769 0.988202 0
M  V30 9885 C 928.18 1.0512 1.54294 0
M  V30 9886 C 928.531 -0.383904 1.92407 0
M  V30 9887 O 927.656 -1.26955 1.75246 0
M  V30 9888 C 928.251 1.90198 2.80375 0
M  V30 9889 C 926.81 1.76831 3.32276 0
M  V30 9890 C 925.957 1.86377 2.05326 0
M  V30 9891 H 928.908 1.36546 0.808758 0
M  V30 9892 H 928.929 1.42216 3.52923 0
M  V30 9893 H 928.441 2.9464 2.52605 0
M  V30 9894 H 926.542 0.751412 3.64945 0
M  V30 9895 H 926.655 2.59771 4.02562 0
M  V30 9896 H 925.019 1.2987 2.19103 0
M  V30 9897 H 925.802 2.9236 1.79946 0
M  V30 9898 N 928.247 -1.18576 1.03814 0
M  V30 9899 C 929.658 -1.70159 0.768299 0
M  V30 9900 C 930.009 -1.8286 -0.711106 0
M  V30 9901 O 929.134 -1.5063 -1.55369 0
M  V30 9902 C 929.729 -3.09062 1.38804 0
M  V30 9903 C 928.288 -3.57866 1.16656 0
M  V30 9904 C 927.435 -2.34484 1.48029 0
M  V30 9905 H 930.386 -1.03287 1.20488 0
M  V30 9906 H 930.407 -3.72211 0.7899 0
M  V30 9907 H 929.919 -2.99785 2.46476 0
M  V30 9908 H 928.02 -3.72442 0.108471 0
M  V30 9909 H 928.133 -4.41445 1.8618 0
M  V30 9910 H 926.497 -2.38273 0.899902 0
M  V30 9911 H 927.28 -2.27829 2.56805 0
M  V30 9912 N 929.725 -0.817259 -1.34754 0
M  V30 9913 C 930.688 -0.240611 -2.27934 0
M  V30 9914 C 931.688 0.578219 -1.50044 0
M  V30 9915 O 932.878 0.395148 -1.69659 0
M  V30 9916 C 930.01 0.663318 -3.34384 0
M  V30 9917 H 931.203 -1.06257 -2.80445 0
M  V30 9918 H 928.756 -0.588697 -1.4479 0
M  V30 9919 H 929.491 1.50855 -2.87077 0
M  V30 9920 H 929.276 0.0777388 -3.92023 0
M  V30 9921 H 930.766 1.06076 -4.03903 0
M  V30 9922 N 931.203 1.46865 -0.571711 0
M  V30 9923 C 932.452 2.01636 -0.050881 0
M  V30 9924 C 932.765 1.45001 1.31279 0
M  V30 9925 O 933.971 1.91523 1.92435 0
M  V30 9926 C 932.427 3.59877 -0.0404114 0
M  V30 9927 C 932.035 4.25506 -1.40172 0
M  V30 9928 C 933.779 4.22346 0.42705 0
M  V30 9929 C 931.686 5.75795 -1.34958 0
M  V30 9930 H 930.616 0.753846 -0.0152514 0
M  V30 9931 H 933.267 1.68711 -0.721723 0
M  V30 9932 H 931.649 3.89829 0.696374 0
M  V30 9933 H 932.823 4.07178 -2.15737 0
M  V30 9934 H 931.138 3.75086 -1.8083 0
M  V30 9935 H 933.735 5.32499 0.484688 0
M  V30 9936 H 934.078 3.9052 1.44222 0
M  V30 9937 H 934.611 3.9698 -0.255326 0
M  V30 9938 H 931.35 6.12265 -2.3412 0
M  V30 9939 H 930.87 5.96419 -0.635962 0
M  V30 9940 H 932.549 6.38294 -1.05779 0
M  V30 9941 N 932.681 0.308908 1.54543 0
M  V30 9942 C 933.613 -0.597453 2.21276 0
M  V30 9943 C 934.626 -1.09137 1.20801 0
M  V30 9944 O 935.815 -1.00747 1.47351 0
M  V30 9945 C 932.915 -1.83085 2.85189 0
M  V30 9946 C 932.088 -1.4781 4.11669 0
M  V30 9947 C 931.147 -2.56748 4.59311 0
M  V30 9948 O 930.173 -2.21507 5.24331 0
M  V30 9949 N 931.375 -3.87427 4.32297 0
M  V30 9950 H 934.14 -0.0261183 2.99689 0
M  V30 9951 H 931.701 0.131456 1.61365 0
M  V30 9952 H 933.693 -2.55326 3.13992 0
M  V30 9953 H 932.263 -2.31039 2.1057 0
M  V30 9954 H 931.483 -0.587974 3.8979 0
M  V30 9955 H 932.771 -1.2179 4.94009 0
M  V30 9956 H 932.169 -4.18863 3.80224 0
M  V30 9957 H 930.726 -4.55942 4.6579 0
M  V30 9958 N 934.159 -1.57557 0.0367827 0
M  V30 9959 C 935.407 -1.91735 -0.63892 0
M  V30 9960 C 935.728 -0.914515 -1.72226 0
M  V30 9961 O 934.998 0.0428248 -1.95853 0
M  V30 9962 H 933.578 -0.707738 -0.23899 0
M  V30 9963 H 936.24 -1.94708 0.0863931 0
M  V30 9964 H 935.336 -2.92568 -1.08676 0
M  V30 9965 N 935.637 0.236453 -1.55816 0
M  V30 9966 C 936.886 0.960981 -1.77336 0
M  V30 9967 C 937.199 1.86085 -0.602641 0
M  V30 9968 O 938.405 2.62291 -0.701106 0
M  V30 9969 C 936.861 1.75884 -3.13995 0
M  V30 9970 C 936.469 0.905849 -4.38746 0
M  V30 9971 C 938.213 2.47548 -3.44848 0
M  V30 9972 C 936.12 1.7002 -5.66434 0
M  V30 9973 H 935.05 0.362547 -0.661117 0
M  V30 9974 H 937.701 0.215303 -1.82233 0
M  V30 9975 H 936.083 2.54687 -3.03234 0
M  V30 9976 H 937.257 0.159415 -4.60524 0
M  V30 9977 H 935.572 0.30205 -4.15303 0
M  V30 9978 H 938.169 3.07452 -4.37467 0
M  V30 9979 H 938.512 3.19689 -2.66655 0
M  V30 9980 H 939.045 1.75747 -3.56872 0
M  V30 9981 H 935.784 1.02234 -6.47479 0
M  V30 9982 H 935.304 2.42164 -5.48741 0
M  V30 9983 H 936.983 2.26469 -6.0607 0
M  V30 9984 N 937.115 1.49373 0.502552 0
M  V30 9985 C 938.526 1.52 1.0841 0
M  V30 9986 C 938.877 0.305317 1.9381 0
M  V30 9987 O 938.002 -0.585023 2.08342 0
M  V30 9988 C 938.597 2.75437 1.97281 0
M  V30 9989 C 937.156 2.80848 2.50602 0
M  V30 9990 C 936.303 2.45894 1.28186 0
M  V30 9991 H 939.254 1.56092 0.286533 0
M  V30 9992 H 939.275 2.55511 2.81947 0
M  V30 9993 H 938.787 3.63827 1.35098 0
M  V30 9994 H 936.888 1.96735 3.16427 0
M  V30 9995 H 937.001 3.82979 2.8786 0
M  V30 9996 H 935.365 1.97639 1.60657 0
M  V30 9997 H 936.148 3.36556 0.677139 0
M  V30 9998 N 938.594 -0.753485 1.38421 0
M  V30 9999 C 939.557 -1.84888 1.35459 0
M  V30 10000 C 940.557 -1.58764 0.255083 0
M  V30 10001 O 941.747 -1.66507 0.511978 0
M  V30 10002 C 938.879 -3.22361 1.10888 0
M  V30 10003 H 940.072 -1.88922 2.32913 0
M  V30 10004 H 937.625 -0.955199 1.23716 0
M  V30 10005 H 938.36 -3.23996 0.1404 0
M  V30 10006 H 938.145 -3.42717 1.90492 0
M  V30 10007 H 939.635 -4.02437 1.1151 0
M  V30 10008 N 940.072 -1.23292 -0.981677 0
M  V30 10009 C 941.3 -1.09088 -1.75805 0
M  V30 10010 C 941.715 0.357746 -1.8538 0
M  V30 10011 O 941.072 1.24751 -1.33205 0
M  V30 10012 C 941.123 -1.70885 -3.1856 0
M  V30 10013 O 940.844 -3.10082 -3.09484 0
M  V30 10014 C 942.345 -1.62106 -4.12597 0
M  V30 10015 H 939.565 -0.38184 -0.55176 0
M  V30 10016 H 942.109 -1.63116 -1.23342 0
M  V30 10017 H 940.264 -1.20893 -3.68054 0
M  V30 10018 H 940.678 -3.40039 -3.99342 0
M  V30 10019 H 942.152 -2.10049 -5.10474 0
M  V30 10020 H 942.629 -0.579642 -4.35358 0
M  V30 10021 H 943.235 -2.11457 -3.69007 0
M  V30 10022 N 941.55 1.18024 -1.04442 0
M  V30 10023 C 942.5 2.19714 -0.609069 0
M  V30 10024 C 943.484 1.57037 0.350473 0
M  V30 10025 O 944.676 1.76192 0.16892 0
M  V30 10026 C 941.805 3.43293 0.0225911 0
M  V30 10027 C 940.891 4.13084 -0.960325 0
M  V30 10028 N 941.282 4.58819 -2.12883 0
M  V30 10029 C 939.58 4.38999 -0.787146 0
M  V30 10030 C 940.281 5.12589 -2.75004 0
M  V30 10031 N 939.257 5.04333 -2.02853 0
M  V30 10032 H 943.059 2.5277 -1.49948 0
M  V30 10033 H 940.573 1.34271 -0.913517 0
M  V30 10034 H 942.57 4.1541 0.352196 0
M  V30 10035 H 941.23 3.11731 0.908495 0
M  V30 10036 H 942.241 4.53148 -2.50754 0
M  V30 10037 H 938.918 4.17472 0.048348 0
M  V30 10038 H 940.308 5.58152 -3.74053 0
M  V30 10039 N 943.028 0.824394 1.34319 0
M  V30 10040 C 944.276 0.41235 1.97849 0
M  V30 10041 C 944.597 -1.02841 1.65677 0
M  V30 10042 O 943.867 -1.71421 0.948245 0
M  V30 10043 H 942.447 0.149486 0.73189 0
M  V30 10044 H 945.109 1.05416 1.63931 0
M  V30 10045 H 944.205 0.532557 3.07523 0
M  V30 10046 N 944.506 -1.46559 0.579492 0
M  V30 10047 C 945.453 -2.30275 -0.155598 0
M  V30 10048 C 946.423 -1.40422 -0.887175 0
M  V30 10049 O 947.608 -1.69373 -0.878481 0
M  V30 10050 C 944.748 -3.24827 -1.16539 0
M  V30 10051 C 943.861 -4.29778 -0.43759 0
M  V30 10052 C 942.996 -5.11461 -1.43462 0
M  V30 10053 C 942.035 -6.08164 -0.693048 0
M  V30 10054 N 941.172 -6.82726 -1.63799 0
M  V30 10055 H 946.012 -2.92607 0.564356 0
M  V30 10056 H 943.549 -1.44211 0.290126 0
M  V30 10057 H 945.507 -3.78088 -1.76368 0
M  V30 10058 H 944.137 -2.64311 -1.8531 0
M  V30 10059 H 943.189 -3.794 0.27567 0
M  V30 10060 H 944.501 -4.98597 0.142298 0
M  V30 10061 H 943.655 -5.68982 -2.1058 0
M  V30 10062 H 942.394 -4.42595 -2.04844 0
M  V30 10063 H 941.399 -5.49799 -0.00807093 0
M  V30 10064 H 942.624 -6.79047 -0.0846678 0
M  V30 10065 H 940.57 -6.16572 -2.23997 0
M  V30 10066 H 940.487 -7.47795 -1.11082 0
M  V30 10067 H 941.755 -7.44807 -2.29962 0
M  V30 10068 N 945.984 -0.3171 -1.54377 0
M  V30 10069 C 947.395 0.172287 -1.85903 0
M  V30 10070 C 947.746 1.52141 -1.23885 0
M  V30 10071 O 946.871 2.0949 -0.542476 0
M  V30 10072 C 947.466 0.319392 -3.37291 0
M  V30 10073 C 946.025 0.752998 -3.68791 0
M  V30 10074 C 945.172 -0.129143 -2.76999 0
M  V30 10075 H 948.123 -0.537597 -1.49317 0
M  V30 10076 H 948.144 1.15137 -3.62662 0
M  V30 10077 H 947.656 -0.662671 -3.82401 0
M  V30 10078 H 945.757 1.74504 -3.2921 0
M  V30 10079 H 945.87 0.561228 -4.75801 0
M  V30 10080 H 944.234 0.394242 -2.5163 0
M  V30 10081 H 945.017 -1.10785 -3.24933 0
M  V30 10082 N 947.462 1.57535 -0.0451378 0
M  V30 10083 C 948.69 1.96761 0.639742 0
M  V30 10084 C 949.105 0.922405 1.64734 0
M  V30 10085 O 948.462 -0.0940535 1.82257 0
M  V30 10086 C 948.513 3.36066 1.33199 0
M  V30 10087 O 948.234 4.36579 0.364757 0
M  V30 10088 C 949.735 3.90015 2.1072 0
M  V30 10089 H 946.955 0.64769 0.175324 0
M  V30 10090 H 949.499 2.04206 -0.109651 0
M  V30 10091 H 947.654 3.2979 2.03266 0
M  V30 10092 H 948.068 5.17432 0.858168 0
M  V30 10093 H 949.542 4.89785 2.54586 0
M  V30 10094 H 950.019 3.25117 2.95288 0
M  V30 10095 H 950.625 3.99609 1.45577 0
M  V30 10096 N 948.94 -0.228186 1.55939 0
M  V30 10097 C 950.165 -0.974795 1.83064 0
M  V30 10098 C 950.59 -1.77426 0.624624 0
M  V30 10099 O 949.948 -1.76211 -0.426556 0
M  V30 10100 C 949.996 -1.87342 3.08116 0
M  V30 10101 O 949.1 -2.96784 2.86344 0
M  V30 10102 H 948.441 -0.276379 0.603747 0
M  V30 10103 H 950.971 -0.243507 2.03146 0
M  V30 10104 H 950.981 -2.28451 3.38045 0
M  V30 10105 H 949.656 -1.28575 3.95526 0
M  V30 10106 H 948.233 -2.59669 2.67631 0
M  V30 10107 N 950.418 -1.49637 -0.494624 0
M  V30 10108 C 951.648 -1.62928 -1.27036 0
M  V30 10109 C 952.056 -0.302464 -1.86767 0
M  V30 10110 O 951.399 0.722878 -1.68879 0
M  V30 10111 C 951.461 -2.64449 -2.43531 0
M  V30 10112 C 951.125 -4.08632 -2.0462 0
M  V30 10113 C 952.122 -4.95238 -1.58225 0
M  V30 10114 C 949.807 -4.54405 -2.1406 0
M  V30 10115 C 951.801 -6.25658 -1.21782 0
M  V30 10116 C 949.488 -5.84836 -1.77228 0
M  V30 10117 C 950.486 -6.70287 -1.31165 0
M  V30 10118 O 950.174 -7.98287 -0.948339 0
M  V30 10119 H 949.906 -0.551263 -0.391261 0
M  V30 10120 H 952.46 -1.96453 -0.599621 0
M  V30 10121 H 950.69 -2.26117 -3.137 0
M  V30 10122 H 952.379 -2.67203 -3.05545 0
M  V30 10123 H 953.145 -4.611 -1.50373 0
M  V30 10124 H 949.024 -3.88056 -2.48865 0
M  V30 10125 H 952.568 -6.92309 -0.857566 0
M  V30 10126 H 948.465 -6.18502 -1.84732 0
M  V30 10127 H 949.233 -8.11353 -1.07925 0
M  V30 10128 N 951.896 0.746133 -1.38819 0
M  V30 10129 C 953.121 1.54049 -1.38866 0
M  V30 10130 C 953.546 1.88092 0.0176624 0
M  V30 10131 O 952.904 1.51113 1.00173 0
M  V30 10132 C 952.952 2.8116 -2.25791 0
M  V30 10133 O 952.056 3.76623 -1.68014 0
M  V30 10134 H 951.397 0.465648 -0.473359 0
M  V30 10135 H 953.927 0.921469 -1.82675 0
M  V30 10136 H 953.937 3.30009 -2.39913 0
M  V30 10137 H 952.612 2.55713 -3.27999 0
M  V30 10138 H 951.189 3.35352 -1.63074 0
M  V30 10139 N 953.375 1.23811 0.975125 0
M  V30 10140 C 954.624 1.06741 1.71141 0
M  V30 10141 C 954.937 -0.394986 1.9157 0
M  V30 10142 O 956.143 -0.685723 2.62698 0
M  V30 10143 C 954.599 1.86168 3.08009 0
M  V30 10144 C 954.207 3.36771 2.95448 0
M  V30 10145 C 955.951 1.77604 3.85561 0
M  V30 10146 C 953.858 4.0857 4.2758 0
M  V30 10147 H 952.788 0.395819 0.64175 0
M  V30 10148 H 955.439 1.47825 1.0872 0
M  V30 10149 H 953.821 1.37893 3.71216 0
M  V30 10150 H 954.995 3.92571 2.41298 0
M  V30 10151 H 953.31 3.46205 2.31368 0
M  V30 10152 H 955.907 2.28556 4.83391 0
M  V30 10153 H 956.25 0.739837 4.09673 0
M  V30 10154 H 956.783 2.23519 3.29065 0
M  V30 10155 H 953.522 5.12518 4.08663 0
M  V30 10156 H 953.042 3.57556 4.81574 0
M  V30 10157 H 954.721 4.15157 4.9624 0
M  V30 10158 N 954.853 -1.17469 1.05066 0
M  V30 10159 C 956.269 -1.39699 0.771769 0
M  V30 10160 C 956.469 -1.91253 -0.634382 0
M  V30 10161 O 955.525 -2.10334 -1.39699 0
M  V30 10162 C 956.838 -2.38886 1.82631 0
M  V30 10163 C 958.386 -2.52595 1.84838 0
M  V30 10164 C 958.861 -3.55054 2.89311 0
M  V30 10165 N 960.352 -3.6257 2.88266 0
M  V30 10166 C 961.087 -4.41603 3.65752 0
M  V30 10167 N 960.583 -5.24162 4.53019 0
M  V30 10168 N 962.376 -4.36464 3.54197 0
M  V30 10169 H 954.527 -0.823355 1.95792 0
M  V30 10170 H 956.79 -0.42432 0.847736 0
M  V30 10171 H 956.496 -2.08075 2.83545 0
M  V30 10172 H 956.37 -3.38371 1.66687 0
M  V30 10173 H 958.757 -2.82717 0.845888 0
M  V30 10174 H 958.838 -1.53188 2.04859 0
M  V30 10175 H 958.482 -3.2567 3.89745 0
M  V30 10176 H 958.412 -4.54162 2.66542 0
M  V30 10177 H 960.903 -3.03625 2.24989 0
M  V30 10178 H 961.216 -5.81646 5.0883 0
M  V30 10179 H 959.561 -5.23547 4.57081 0
M  V30 10180 H 962.752 -3.7102 2.85416 0
M  V30 10181 H 962.925 -4.97814 4.14832 0
M  V30 10182 N 956.331 -0.831506 -1.3388 0
M  V30 10183 C 957.577 -0.424302 -1.98312 0
M  V30 10184 C 957.91 1.01211 -1.65741 0
M  V30 10185 O 957.185 1.70636 -0.933464 0
M  V30 10186 C 957.468 -0.636815 -3.54424 0
M  V30 10187 C 957.321 -2.11997 -3.96708 0
M  V30 10188 C 958.64 -0.0782411 -4.4003 0
M  V30 10189 H 955.759 -0.155637 -0.720379 0
M  V30 10190 H 958.401 -1.04566 -1.58638 0
M  V30 10191 H 956.551 -0.107907 -3.8835 0
M  V30 10192 H 958.223 -2.71317 -3.73075 0
M  V30 10193 H 956.466 -2.60723 -3.46707 0
M  V30 10194 H 957.137 -2.21944 -5.05416 0
M  V30 10195 H 959.613 -0.530243 -4.12708 0
M  V30 10196 H 958.489 -0.256676 -5.483 0
M  V30 10197 H 958.75 1.01745 -4.30233 0
M  V30 10198 N 957.809 1.4625 -0.587256 0
M  V30 10199 C 959.086 1.95599 -0.00750181 0
M  V30 10200 C 959.466 1.52989 1.45457 0
M  V30 10201 O 958.814 0.782731 2.14676 0
M  V30 10202 C 959.024 3.48513 -0.184309 0
M  V30 10203 C 960.372 4.24565 -0.0544972 0
M  V30 10204 O 961.396 3.5602 -0.113378 0
M  V30 10205 O 960.255 5.46445 0.0774075 0
M  V30 10206 H 957.349 0.825649 0.0472495 0
M  V30 10207 H 959.895 1.56512 -0.655893 0
M  V30 10208 H 958.667 3.72428 -1.20053 0
M  V30 10209 H 958.29 3.9444 0.500301 0
M  V30 10210 N 959.287 0.325282 1.54207 0
M  V30 10211 C 960.235 -0.5554 2.25872 0
M  V30 10212 C 961.229 -1.11714 1.27344 0
M  V30 10213 O 962.435 -1.06498 1.45115 0
M  V30 10214 H 958.81 -0.19776 0.725531 0
M  V30 10215 H 960.781 0.0712858 2.98315 0
M  V30 10216 C 959.53 -1.70379 3.03095 0
M  V30 10217 H 958.853 -1.2808 3.78729 0
M  V30 10218 H 960.293 -2.29556 3.56483 0
M  V30 10219 C 958.752 -2.62242 2.11496 0
M  V30 10220 O 959.282 -3.64003 1.69895 0
M  V30 10221 N 957.488 -2.30515 1.7695 0
M  V30 10222 H 957.035 -1.47805 2.10978 0
M  V30 10223 H 956.993 -2.92241 1.15942 0
M  V30 10224 N 960.765 -1.57509 0.0534917 0
M  V30 10225 C 961.993 -1.97098 -0.629298 0
M  V30 10226 C 962.408 -0.931128 -1.64242 0
M  V30 10227 O 961.765 0.0843866 -1.82305 0
M  V30 10228 C 961.816 -3.36767 -1.31415 0
M  V30 10229 O 961.537 -4.36766 -0.341599 0
M  V30 10230 C 963.038 -3.91127 -2.08649 0
M  V30 10231 H 960.258 -0.648611 -0.171886 0
M  V30 10232 H 962.802 -2.04145 0.120479 0
M  V30 10233 H 960.957 -3.30863 -2.01515 0
M  V30 10234 H 961.371 -5.1788 -0.830715 0
M  V30 10235 H 962.845 -4.91129 -2.51985 0
M  V30 10236 H 963.322 -3.26679 -2.9356 0
M  V30 10237 H 963.928 -4.00376 -1.43456 0
M  V30 10238 N 962.243 0.219913 -1.56058 0
M  V30 10239 C 963.489 0.945463 -1.79412 0
M  V30 10240 C 963.822 1.83922 -0.62341 0
M  V30 10241 O 963.097 1.90806 0.377256 0
M  V30 10242 C 963.38 1.783 -3.1286 0
M  V30 10243 C 963.233 0.915626 -4.40382 0
M  V30 10244 C 964.552 2.76045 -3.42764 0
M  V30 10245 H 961.671 0.342288 -0.652693 0
M  V30 10246 H 964.313 0.214235 -1.88788 0
M  V30 10247 H 962.463 2.40642 -3.04998 0
M  V30 10248 H 964.135 0.30882 -4.60265 0
M  V30 10249 H 962.378 0.221124 -4.33236 0
M  V30 10250 H 963.049 1.53607 -5.30197 0
M  V30 10251 H 965.525 2.23838 -3.50764 0
M  V30 10252 H 964.401 3.31748 -4.37304 0
M  V30 10253 H 964.662 3.53866 -2.65012 0
M  V30 10254 N 963.721 1.49897 0.486681 0
M  V30 10255 C 965.132 1.53142 1.06792 0
M  V30 10256 C 965.483 0.325856 1.93475 0
M  V30 10257 O 964.608 -0.562893 2.08951 0
M  V30 10258 C 965.203 2.77514 1.94348 0
M  V30 10259 C 963.762 2.83491 2.47609 0
M  V30 10260 C 962.909 2.47239 1.2557 0
M  V30 10261 H 965.86 1.56387 0.269962 0
M  V30 10262 H 965.881 2.58487 2.79221 0
M  V30 10263 H 965.393 3.65239 1.31232 0
M  V30 10264 H 963.494 2.0008 3.14323 0
M  V30 10265 H 963.607 3.86011 2.83782 0
M  V30 10266 H 961.971 1.99332 1.58552 0
M  V30 10267 H 962.754 3.37255 0.641404 0
M  V30 10268 N 965.199 -0.738761 1.39212 0
M  V30 10269 C 966.129 -1.86602 1.40364 0
M  V30 10270 C 967.11 -1.67984 0.267495 0
M  V30 10271 O 968.295 -1.88358 0.472765 0
M  V30 10272 C 965.425 -3.24308 1.24265 0
M  V30 10273 C 964.379 -3.57557 2.35239 0
M  V30 10274 C 963.705 -4.94159 2.04233 0
M  V30 10275 C 965.005 -3.60914 3.77543 0
M  V30 10276 H 966.699 -1.85896 2.34698 0
M  V30 10277 H 964.245 -0.892959 1.1297 0
M  V30 10278 H 966.198 -4.02838 1.23692 0
M  V30 10279 H 964.922 -3.25531 0.263974 0
M  V30 10280 H 963.581 -2.81354 2.35022 0
M  V30 10281 H 963.229 -4.91959 1.04813 0
M  V30 10282 H 962.929 -5.17373 2.78567 0
M  V30 10283 H 964.453 -5.7505 2.05303 0
M  V30 10284 H 965.867 -4.29528 3.79709 0
M  V30 10285 H 964.264 -3.95644 4.51205 0
M  V30 10286 H 965.334 -2.60803 4.08791 0
M  V30 10287 N 966.677 -1.24326 -0.968545 0
M  V30 10288 C 967.923 -1.08406 -1.71394 0
M  V30 10289 C 968.256 0.376353 -1.90518 0
M  V30 10290 O 967.531 1.27816 -1.46606 0
M  V30 10291 C 967.814 -1.82344 -3.1052 0
M  V30 10292 C 967.667 -3.3613 -2.98893 0
M  V30 10293 C 968.986 -1.59545 -4.10163 0
M  V30 10294 H 966.105 -0.395205 -0.622079 0
M  V30 10295 H 968.747 -1.52983 -1.12677 0
M  V30 10296 H 966.897 -1.44452 -3.60646 0
M  V30 10297 H 968.569 -3.83614 -2.56199 0
M  V30 10298 H 966.812 -3.64553 -2.35124 0
M  V30 10299 H 967.483 -3.83064 -3.97449 0
M  V30 10300 H 969.959 -1.92504 -3.68892 0
M  V30 10301 H 968.835 -2.13736 -5.05577 0
M  V30 10302 H 969.096 -0.533503 -4.38869 0
M  V30 10303 N 968.156 1.1691 -1.05688 0
M  V30 10304 C 969.384 1.91204 -0.790485 0
M  V30 10305 C 969.799 1.77095 0.654434 0
M  V30 10306 O 969.156 1.11146 1.44751 0
M  V30 10307 C 969.207 3.42108 -1.16808 0
M  V30 10308 O 968.928 3.55788 -2.55629 0
M  V30 10309 C 970.429 4.33466 -0.92855 0
M  V30 10310 H 967.649 0.606508 -0.287035 0
M  V30 10311 H 970.193 1.48225 -1.40888 0
M  V30 10312 H 968.348 3.82814 -0.59434 0
M  V30 10313 H 968.762 4.49321 -2.70575 0
M  V30 10314 H 970.236 5.37836 -1.24245 0
M  V30 10315 H 970.713 4.38989 0.136016 0
M  V30 10316 H 971.319 3.98481 -1.48638 0
M  V30 10317 N 969.634 0.838594 1.33437 0
M  V30 10318 C 970.566 0.229006 2.28053 0
M  V30 10319 C 971.579 -0.590103 1.51729 0
M  V30 10320 O 972.768 -0.417218 1.73556 0
M  V30 10321 C 969.868 -0.696251 3.31671 0
M  V30 10322 C 969.041 0.0834606 4.3732 0
M  V30 10323 C 968.1 -0.765097 5.20608 0
M  V30 10324 O 967.126 -0.2044 5.68833 0
M  V30 10325 N 968.328 -2.08249 5.4186 0
M  V30 10326 H 971.093 1.04196 2.81004 0
M  V30 10327 H 968.654 0.697031 1.46127 0
M  V30 10328 H 970.646 -1.26889 3.84293 0
M  V30 10329 H 969.216 -1.40992 2.78998 0
M  V30 10330 H 968.436 0.837481 3.85201 0
M  V30 10331 H 969.724 0.619613 5.05013 0
M  V30 10332 H 969.122 -2.56156 5.04381 0
M  V30 10333 H 967.679 -2.60362 5.97541 0
M  V30 10334 N 971.112 -1.45937 0.595003 0
M  V30 10335 C 972.075 -2.2888 -0.121102 0
M  V30 10336 C 973.075 -1.39075 -0.807149 0
M  V30 10337 O 974.265 -1.61326 -0.657228 0
M  V30 10338 C 971.397 -3.19778 -1.1813 0
M  V30 10339 H 972.59 -2.93673 0.607968 0
M  V30 10340 H 970.143 -1.5225 0.353495 0
M  V30 10341 H 970.878 -2.59759 -1.94154 0
M  V30 10342 H 970.663 -3.85914 -0.693724 0
M  V30 10343 H 972.153 -3.82176 -1.68319 0
M  V30 10344 N 972.59 -0.333456 -1.54032 0
M  V30 10345 C 974.001 0.15256 -1.86076 0
M  V30 10346 C 974.352 1.50819 -1.25492 0
M  V30 10347 O 973.477 2.08903 -0.564665 0
M  V30 10348 C 974.072 0.283599 -3.37611 0
M  V30 10349 C 972.631 0.713841 -3.69569 0
M  V30 10350 C 971.778 -0.158515 -2.76847 0
M  V30 10351 H 974.729 -0.553404 -1.48738 0
M  V30 10352 H 974.75 1.11284 -3.63863 0
M  V30 10353 H 974.262 -0.703193 -3.81676 0
M  V30 10354 H 972.363 1.71002 -3.31042 0
M  V30 10355 H 972.476 0.510731 -4.7637 0
M  V30 10356 H 970.84 0.367531 -2.52034 0
M  V30 10357 H 971.623 -1.14226 -3.2374 0
M  V30 10358 N 974.068 1.57479 -0.061844 0
M  V30 10359 C 975.031 2.1104 0.894127 0
M  V30 10360 C 976.031 1.03227 1.23292 0
M  V30 10361 O 977.221 1.29256 1.16784 0
M  V30 10362 C 974.353 2.6035 2.20069 0
M  V30 10363 H 975.546 2.96807 0.429619 0
M  V30 10364 H 973.099 1.55181 0.18672 0
M  V30 10365 H 973.834 1.78008 2.71079 0
M  V30 10366 H 973.619 3.39146 1.9678 0
M  V30 10367 H 975.109 3.019 2.88525 0
M  V30 10368 N 975.546 -0.211634 1.56173 0
M  V30 10369 C 976.792 -0.935935 1.79911 0
M  V30 10370 C 977.125 -1.83589 0.633155 0
M  V30 10371 O 976.4 -1.91004 -0.367132 0
M  V30 10372 C 976.683 -1.76638 3.13801 0
M  V30 10373 C 976.536 -0.892259 4.40861 0
M  V30 10374 C 977.855 -2.74224 3.44223 0
M  V30 10375 H 974.974 -0.338822 0.654499 0
M  V30 10376 H 977.616 -0.20422 1.88899 0
M  V30 10377 H 975.766 -2.39021 3.0627 0
M  V30 10378 H 977.438 -0.284407 4.60422 0
M  V30 10379 H 975.681 -0.198145 4.33347 0
M  V30 10380 H 976.352 -1.50793 5.31004 0
M  V30 10381 H 978.828 -2.21975 3.51946 0
M  V30 10382 H 977.704 -3.29424 4.39057 0
M  V30 10383 H 977.965 -3.52455 2.66885 0
M  V30 10384 N 977.024 -1.50153 -0.478725 0
M  V30 10385 C 977.956 -1.64603 -1.59494 0
M  V30 10386 C 978.969 -0.527789 -1.54007 0
M  V30 10387 O 980.158 -0.80069 -1.59534 0
M  V30 10388 C 977.258 -1.60738 -2.98356 0
M  V30 10389 C 976.431 -2.88468 -3.28794 0
M  V30 10390 C 975.49 -2.77349 -4.47173 0
M  V30 10391 O 974.516 -3.51302 -4.47857 0
M  V30 10392 N 975.718 -1.9039 -5.4839 0
M  V30 10393 H 978.483 -2.6088 -1.47518 0
M  V30 10394 H 976.044 -1.47521 -0.667011 0
M  V30 10395 H 978.036 -1.50923 -3.75505 0
M  V30 10396 H 976.606 -0.722273 -3.04141 0
M  V30 10397 H 975.826 -3.12467 -2.40329 0
M  V30 10398 H 977.114 -3.73102 -3.45937 0
M  V30 10399 H 976.512 -1.29606 -5.50653 0
M  V30 10400 H 975.069 -1.86484 -6.24553 0
M  V30 10401 N 978.502 0.731368 -1.39602 0
M  V30 10402 C 979.913 1.30981 -1.33045 0
M  V30 10403 C 980.264 1.962 0.00349918 0
M  V30 10404 O 979.389 1.96539 0.905615 0
M  V30 10405 C 979.984 2.3817 -2.40958 0
M  V30 10406 C 978.543 2.91678 -2.3791 0
M  V30 10407 C 977.69 1.65286 -2.22656 0
M  V30 10408 H 980.641 0.528615 -1.49637 0
M  V30 10409 H 980.662 3.18645 -2.07955 0
M  V30 10410 H 980.174 1.90673 -3.38032 0
M  V30 10411 H 978.275 3.43446 -1.44485 0
M  V30 10412 H 978.388 3.44545 -3.32904 0
M  V30 10413 H 976.752 1.89759 -1.69893 0
M  V30 10414 H 977.535 1.19836 -3.21705 0
M  V30 10415 N 979.98 1.24838 0.961938 0
M  V30 10416 C 980.91 1.07053 2.07514 0
M  V30 10417 C 981.891 -0.0182465 1.7009 0
M  V30 10418 O 983.076 0.149915 1.9362 0
M  V30 10419 C 980.206 0.680693 3.40564 0
M  V30 10420 C 979.16 1.71889 3.91967 0
M  V30 10421 C 978.486 1.18395 5.21428 0
M  V30 10422 C 979.786 3.1161 4.19161 0
M  V30 10423 H 981.48 2.00167 2.22651 0
M  V30 10424 H 979.026 0.963799 1.0699 0
M  V30 10425 H 980.979 0.54324 4.17884 0
M  V30 10426 H 979.703 -0.28615 3.25344 0
M  V30 10427 H 978.362 1.84465 3.16809 0
M  V30 10428 H 978.01 0.207543 5.02572 0
M  V30 10429 H 977.71 1.87778 5.56788 0
M  V30 10430 H 979.234 1.05873 6.01351 0
M  V30 10431 H 980.648 3.0223 4.87165 0
M  V30 10432 H 979.045 3.78398 4.65763 0
M  V30 10433 H 980.115 3.59218 3.25715 0
M  V30 10434 N 981.458 -1.16348 1.06306 0
M  V30 10435 C 982.39 -2.20316 0.631929 0
M  V30 10436 C 983.403 -1.59819 -0.310133 0
M  V30 10437 O 984.592 -1.78213 -0.101103 0
M  V30 10438 C 981.692 -3.3877 -0.0937645 0
M  V30 10439 C 980.865 -4.28826 0.861816 0
M  V30 10440 C 979.924 -5.25908 0.175346 0
M  V30 10441 O 978.95 -5.63363 0.813039 0
M  V30 10442 N 980.152 -5.70307 -1.08305 0
M  V30 10443 H 982.917 -2.57925 1.52626 0
M  V30 10444 H 980.478 -1.31358 0.946392 0
M  V30 10445 H 982.47 -4.00759 -0.563412 0
M  V30 10446 H 981.04 -2.99666 -0.889904 0
M  V30 10447 H 980.26 -3.64098 1.51083 0
M  V30 10448 H 981.548 -4.85875 1.51007 0
M  V30 10449 H 980.946 -5.4197 -1.62127 0
M  V30 10450 H 979.503 -6.34387 -1.49656 0
M  V30 10451 N 982.937 -0.845659 -1.3299 0
M  V30 10452 C 984.186 -0.440928 -1.96822 0
M  V30 10453 C 984.499 1.00668 -1.67706 0
M  V30 10454 O 985.705 1.51641 -2.25205 0
M  V30 10455 C 984.161 -0.73752 -3.52262 0
M  V30 10456 C 983.769 -2.20026 -3.90247 0
M  V30 10457 C 985.513 -0.400072 -4.22611 0
M  V30 10458 C 983.42 -2.44054 -5.38694 0
M  V30 10459 H 982.35 -0.161148 -0.736578 0
M  V30 10460 H 985.001 -1.03519 -1.51513 0
M  V30 10461 H 983.383 -0.0728025 -3.95933 0
M  V30 10462 H 984.557 -2.90602 -3.57613 0
M  V30 10463 H 982.872 -2.50135 -3.32899 0
M  V30 10464 H 985.469 -0.557136 -5.3179 0
M  V30 10465 H 985.812 0.657547 -4.11074 0
M  V30 10466 H 986.345 -1.0203 -3.84493 0
M  V30 10467 H 983.084 -3.48407 -5.55241 0
M  V30 10468 H 982.604 -1.78047 -5.72765 0
M  V30 10469 H 984.283 -2.27549 -6.05665 0
M  V30 10470 N 984.415 1.45619 -0.602734 0
M  V30 10471 C 985.831 1.57368 -0.26599 0
M  V30 10472 C 986.031 1.59485 1.23154 0
M  V30 10473 O 985.087 1.52254 2.01432 0
M  V30 10474 C 986.4 2.85863 -0.932881 0
M  V30 10475 C 987.948 2.9953 -0.908344 0
M  V30 10476 C 988.423 4.30789 -1.55515 0
M  V30 10477 N 989.914 4.37536 -1.52042 0
M  V30 10478 C 990.649 5.37758 -1.99008 0
M  V30 10479 N 990.145 6.44544 -2.54038 0
M  V30 10480 N 991.938 5.29085 -1.89805 0
M  V30 10481 H 984.089 1.42489 -1.57514 0
M  V30 10482 H 986.352 0.680948 -0.659556 0
M  V30 10483 H 986.058 2.90183 -1.98713 0
M  V30 10484 H 985.932 3.74467 -0.453209 0
M  V30 10485 H 988.319 2.9478 0.137344 0
M  V30 10486 H 988.4 2.12349 -1.42623 0
M  V30 10487 H 988.044 4.36297 -2.60014 0
M  V30 10488 H 987.974 5.16778 -1.01232 0
M  V30 10489 H 990.465 3.60972 -1.11837 0
M  V30 10490 H 990.778 7.17258 -2.87682 0
M  V30 10491 H 989.123 6.45308 -2.58075 0
M  V30 10492 H 992.314 4.44566 -1.46556 0
M  V30 10493 H 992.487 6.07043 -2.26722 0
M  V30 10494 N 985.893 0.34162 1.53853 0
M  V30 10495 C 987.304 -0.14269 1.86154 0
M  V30 10496 C 987.655 -1.50151 1.2629 0
M  V30 10497 O 986.78 -2.08601 0.575735 0
M  V30 10498 C 987.375 -0.265691 3.37757 0
M  V30 10499 C 985.934 -0.694231 3.69942 0
M  V30 10500 C 985.081 0.173195 2.76759 0
M  V30 10501 H 988.032 0.561284 1.48443 0
M  V30 10502 H 988.053 -1.09352 3.64448 0
M  V30 10503 H 987.565 0.723424 3.81298 0
M  V30 10504 H 985.666 -1.69244 3.31945 0
M  V30 10505 H 985.779 -0.485461 4.76634 0
M  V30 10506 H 984.143 -0.35416 2.52226 0
M  V30 10507 H 984.926 1.15941 3.23129 0
M  V30 10508 N 987.371 -1.57444 0.0701946 0
M  V30 10509 C 988.619 -1.93047 -0.598106 0
M  V30 10510 C 988.94 -0.950841 -1.70247 0
M  V30 10511 O 988.21 0.00127177 -1.959 0
M  V30 10512 H 986.79 -0.712648 -0.223924 0
M  V30 10513 H 989.452 -1.94481 0.127674 0
M  V30 10514 H 988.548 -2.94807 -1.02445 0
M  V30 10515 N 988.849 0.203349 -1.56283 0
M  V30 10516 C 990.095 0.926381 -1.80405 0
M  V30 10517 C 990.428 1.8325 -0.642883 0
M  V30 10518 O 989.703 1.91196 0.356998 0
M  V30 10519 C 989.986 1.74972 -3.14733 0
M  V30 10520 C 989.839 0.868866 -4.41328 0
M  V30 10521 C 991.158 2.72394 -3.45672 0
M  V30 10522 H 988.277 0.335346 -0.656286 0
M  V30 10523 H 990.919 0.1942 -1.89005 0
M  V30 10524 H 989.069 2.37394 -3.07533 0
M  V30 10525 H 990.741 0.259986 -4.60567 0
M  V30 10526 H 988.984 0.175161 -4.33446 0
M  V30 10527 H 989.655 1.47975 -5.31796 0
M  V30 10528 H 992.131 2.20105 -3.53119 0
M  V30 10529 H 991.007 3.27091 -4.40798 0
M  V30 10530 H 991.268 3.51035 -2.6875 0
M  V30 10531 N 990.327 1.50405 0.470755 0
M  V30 10532 C 991.257 1.72222 1.57676 0
M  V30 10533 C 992.238 0.57121 1.60222 0
M  V30 10534 O 993.423 0.810381 1.76484 0
M  V30 10535 C 990.553 1.81666 2.95998 0
M  V30 10536 C 989.507 2.96857 3.08318 0
M  V30 10537 C 988.833 2.91445 4.4829 0
M  V30 10538 C 990.133 4.37361 2.85504 0
M  V30 10539 H 991.827 2.64825 1.39671 0
M  V30 10540 H 989.373 1.27438 0.67049 0
M  V30 10541 H 991.326 1.95514 3.73299 0
M  V30 10542 H 990.05 0.856856 3.1516 0
M  V30 10543 H 988.709 2.82661 2.33449 0
M  V30 10544 H 988.357 1.93309 4.64371 0
M  V30 10545 H 988.057 3.68776 4.57469 0
M  V30 10546 H 989.581 3.07341 5.27611 0
M  V30 10547 H 990.995 4.52081 3.52555 0
M  V30 10548 H 989.392 5.16145 3.06127 0
M  V30 10549 H 990.462 4.49708 1.81359 0
M  V30 10550 N 991.805 -0.723954 1.39988 0
M  V30 10551 C 993.03 -1.5182 1.41299 0
M  V30 10552 C 993.455 -1.88096 0.0122636 0
M  V30 10553 O 992.813 -1.52687 -0.977559 0
M  V30 10554 C 992.861 -2.77532 2.30235 0
M  V30 10555 O 991.965 -3.73903 1.73984 0
M  V30 10556 H 991.306 -0.458058 0.480707 0
M  V30 10557 H 993.836 -0.892291 1.84118 0
M  V30 10558 H 993.846 -3.2615 2.45132 0
M  V30 10559 H 992.521 -2.50462 3.32026 0
M  V30 10560 H 991.098 -3.32715 1.68389 0
M  V30 10561 N 993.283 -1.25346 -0.955304 0
M  V30 10562 C 994.215 -1.0146 -2.0552 0
M  V30 10563 C 995.228 0.0202256 -1.62787 0
M  V30 10564 O 996.417 -0.218251 -1.77161 0
M  V30 10565 C 993.517 -0.511727 -3.35014 0
M  V30 10566 C 992.69 -1.61256 -4.0659 0
M  V30 10567 C 991.749 -1.11017 -5.14356 0
M  V30 10568 O 990.775 -1.80443 -5.39842 0
M  V30 10569 N 991.977 0.0489001 -5.80479 0
M  V30 10570 H 994.742 -1.96166 -2.26581 0
M  V30 10571 H 992.303 -1.16543 -1.12381 0
M  V30 10572 H 994.295 -0.160123 -4.04383 0
M  V30 10573 H 992.865 0.341377 -3.1073 0
M  V30 10574 H 992.085 -2.13577 -3.31328 0
M  V30 10575 H 993.373 -2.35213 -4.51168 0
M  V30 10576 H 992.771 0.629021 -5.62192 0
M  V30 10577 H 991.328 0.341542 -6.50905 0
M  V30 10578 N 994.761 1.15782 -1.06922 0
M  V30 10579 C 995.989 1.90355 -0.81072 0
M  V30 10580 C 996.404 1.77779 0.635614 0
M  V30 10581 O 995.761 1.12675 1.43564 0
M  V30 10582 C 995.812 3.4085 -1.2043 0
M  V30 10583 O 995.533 3.53057 -2.59388 0
M  V30 10584 C 997.034 4.32457 -0.974473 0
M  V30 10585 H 994.254 0.60343 -0.293451 0
M  V30 10586 H 996.798 1.46723 -1.42452 0
M  V30 10587 H 994.953 3.82162 -0.634909 0
M  V30 10588 H 995.367 4.46426 -2.75326 0
M  V30 10589 H 996.841 5.36488 -1.29942 0
M  V30 10590 H 997.318 4.39109 0.0894481 0
M  V30 10591 H 997.924 3.96882 -1.52856 0
M  V30 10592 N 996.239 0.8527 1.3254 0
M  V30 10593 C 997.485 0.46507 1.98012 0
M  V30 10594 C 997.84 -0.968179 1.66265 0
M  V30 10595 O 997.133 -1.66985 0.9395 0
M  V30 10596 C 997.327 0.638757 3.51646 0
M  V30 10597 C 997.156 2.08734 3.98322 0
M  V30 10598 C 995.926 2.72544 4.25497 0
M  V30 10599 C 998.124 3.0577 4.13533 0
M  V30 10600 N 996.106 4.08333 4.58408 0
M  V30 10601 C 997.477 4.26542 4.49958 0
M  V30 10602 C 999.532 3.01991 3.95861 0
M  V30 10603 C 998.235 5.4403 4.70557 0
M  V30 10604 C 1000.26 4.18722 4.17643 0
M  V30 10605 C 999.623 5.38252 4.54383 0
M  V30 10606 H 995.722 0.218881 0.750743 0
M  V30 10607 H 998.306 1.10368 1.60397 0
M  V30 10608 H 996.477 0.0298629 3.88389 0
M  V30 10609 H 998.209 0.221215 4.04095 0
M  V30 10610 H 994.964 2.23594 4.17496 0
M  V30 10611 H 995.388 4.78372 4.79051 0
M  V30 10612 H 1000.03 2.107 3.66559 0
M  V30 10613 H 997.748 6.35854 4.98714 0
M  V30 10614 H 1001.33 4.17232 4.05474 0
M  V30 10615 H 1000.21 6.27075 4.709 0
M  V30 10616 N 997.718 -1.45297 0.610449 0
M  V30 10617 C 998.943 -2.07101 0.111414 0
M  V30 10618 C 999.368 -1.45161 -1.19625 0
M  V30 10619 O 998.726 -0.545368 -1.72903 0
M  V30 10620 C 998.774 -3.60598 -0.0117372 0
M  V30 10621 O 997.878 -3.98512 -1.06122 0
M  V30 10622 H 997.219 -0.659709 0.075364 0
M  V30 10623 H 999.749 -1.86504 0.841269 0
M  V30 10624 H 999.759 -4.07464 -0.209028 0
M  V30 10625 H 998.434 -4.05067 0.943076 0
M  V30 10626 H 997.011 -3.63312 -0.840158 0
M  V30 10627 N 999.196 -0.349774 -1.5367 0
M  V30 10628 C 1000.44 0.244343 -2.00617 0
M  V30 10629 C 1000.76 1.50567 -1.23914 0
M  V30 10630 O 1000.03 1.92784 -0.348016 0
M  V30 10631 H 998.615 0.0932792 -0.741153 0
M  V30 10632 H 1001.28 -0.472367 -1.89089 0
M  V30 10633 H 1000.37 0.482433 -3.08349 0
M  V30 10634 N 1000.67 1.57404 -0.0785433 0
M  V30 10635 C 1002.09 1.57158 0.2781 0
M  V30 10636 C 1002.29 1.08847 1.69572 0
M  V30 10637 O 1001.35 0.757407 2.40873 0
M  V30 10638 C 1002.66 3.00589 0.0816067 0
M  V30 10639 C 1004.21 3.12637 0.150627 0
M  V30 10640 C 1004.68 4.57997 -0.0176685 0
M  V30 10641 N 1006.17 4.63185 0.0377145 0
M  V30 10642 C 1006.91 5.7336 -0.0679907 0
M  V30 10643 N 1006.4 6.92426 -0.227598 0
M  V30 10644 N 1008.2 5.62099 -0.0104424 0
M  V30 10645 H 1000.35 1.87121 -1.00496 0
M  V30 10646 H 1002.61 0.862937 -0.392484 0
M  V30 10647 H 1002.32 3.40072 -0.896869 0
M  V30 10648 H 1002.19 3.67931 0.831046 0
M  V30 10649 H 1004.58 2.73037 1.11959 0
M  V30 10650 H 1004.66 2.4792 -0.630028 0
M  V30 10651 H 1004.3 4.98288 -0.983431 0
M  V30 10652 H 1004.23 5.20754 0.782475 0
M  V30 10653 H 1006.72 3.77564 0.159208 0
M  V30 10654 H 1007.04 7.72217 -0.300217 0
M  V30 10655 H 1005.38 6.94502 -0.263049 0
M  V30 10656 H 1008.57 4.67964 0.112999 0
M  V30 10657 H 1008.75 6.47928 -0.0962747 0
M  V30 10658 N 1002.15 -0.195058 1.56388 0
M  V30 10659 C 1003.38 -0.931642 1.84738 0
M  V30 10660 C 1003.79 -1.76849 0.661046 0
M  V30 10661 O 1003.15 -1.78705 -0.370241 0
M  V30 10662 C 1003.2 -1.82777 3.11889 0
M  V30 10663 O 1002.92 -1.02471 4.25948 0
M  V30 10664 C 1004.42 -2.67603 3.53417 0
M  V30 10665 H 1001.64 -0.271821 0.613477 0
M  V30 10666 H 1004.19 -0.202299 2.03497 0
M  V30 10667 H 1002.34 -2.51074 2.95027 0
M  V30 10668 H 1002.76 -1.63539 4.98353 0
M  V30 10669 H 1004.23 -3.26138 4.45352 0
M  V30 10670 H 1004.71 -3.41314 2.76408 0
M  V30 10671 H 1005.31 -2.04678 3.7281 0
M  V30 10672 N 1003.63 -1.50653 -0.462772 0
M  V30 10673 C 1004.56 -1.66286 -1.5774 0
M  V30 10674 C 1005.57 -0.544094 -1.53439 0
M  V30 10675 O 1006.76 -0.817566 -1.58676 0
M  V30 10676 C 1003.86 -1.63893 -2.96635 0
M  V30 10677 C 1003.04 -2.91939 -3.25716 0
M  V30 10678 C 1002.1 -2.82076 -4.44206 0
M  V30 10679 O 1001.12 -3.56032 -4.44106 0
M  V30 10680 N 1002.32 -1.96196 -5.4634 0
M  V30 10681 H 1005.09 -2.6243 -1.44742 0
M  V30 10682 H 1002.65 -1.48221 -0.651326 0
M  V30 10683 H 1004.64 -1.54897 -3.73884 0
M  V30 10684 H 1003.21 -0.75449 -3.03358 0
M  V30 10685 H 1002.43 -3.14998 -2.37002 0
M  V30 10686 H 1003.72 -3.7675 -3.4196 0
M  V30 10687 H 1003.12 -1.35439 -5.49247 0
M  V30 10688 H 1001.67 -1.93097 -6.2254 0
M  V30 10689 N 1005.11 0.71652 -1.4037 0
M  V30 10690 C 1006.04 1.84138 -1.36477 0
M  V30 10691 C 1007.05 1.6054 -0.27033 0
M  V30 10692 O 1008.24 1.70431 -0.530612 0
M  V30 10693 C 1005.34 3.20523 -1.10082 0
M  V30 10694 C 1004.52 3.71326 -2.31162 0
M  V30 10695 C 1003.57 4.86322 -2.00942 0
M  V30 10696 O 1002.6 4.99022 -2.73799 0
M  V30 10697 N 1003.8 5.72051 -0.986812 0
M  V30 10698 H 1006.57 1.87977 -2.3342 0
M  V30 10699 H 1004.13 0.89802 -1.34712 0
M  V30 10700 H 1006.12 3.95049 -0.878526 0
M  V30 10701 H 1004.69 3.11838 -0.21809 0
M  V30 10702 H 1003.91 2.87941 -2.69227 0
M  V30 10703 H 1005.2 4.02003 -3.11883 0
M  V30 10704 H 1004.6 5.64399 -0.383381 0
M  V30 10705 H 1003.15 6.46565 -0.824419 0
M  V30 10706 N 1006.59 1.25851 0.948643 0
M  V30 10707 C 1007.52 1.0108 2.04593 0
M  V30 10708 C 1008.5 -0.0619691 1.62482 0
M  V30 10709 O 1009.68 0.0789196 1.88335 0
M  V30 10710 C 1006.81 0.529174 3.34541 0
M  V30 10711 C 1005.85 1.59337 3.95618 0
M  V30 10712 S 1006.69 3.18026 4.30836 0
M  V30 10713 C 1007.84 2.71613 5.63895 0
M  V30 10714 H 1008.08 1.93988 2.2529 0
M  V30 10715 H 1005.61 1.09448 1.08906 0
M  V30 10716 H 1007.57 0.25795 4.09689 0
M  V30 10717 H 1006.23 -0.37951 3.11799 0
M  V30 10718 H 1005.42 1.20722 4.89328 0
M  V30 10719 H 1005.02 1.81559 3.26975 0
M  V30 10720 H 1007.32 2.15612 6.42275 0
M  V30 10721 H 1008.26 3.63986 6.07387 0
M  V30 10722 H 1008.67 2.11417 5.23415 0
M  V30 10723 N 1008.06 -1.15214 1.07534 0
M  V30 10724 C 1008.99 -2.2216 0.718837 0
M  V30 10725 C 1009.98 -1.6753 -0.29459 0
M  V30 10726 O 1011.16 -1.93481 -0.166931 0
M  V30 10727 C 1008.29 -3.471 0.117836 0
M  V30 10728 C 1007.24 -4.14701 1.05862 0
M  V30 10729 C 1006.57 -5.3374 0.320284 0
M  V30 10730 C 1007.87 -4.64254 2.39302 0
M  V30 10731 H 1009.56 -2.52237 1.61297 0
M  V30 10732 H 1007.11 -1.21239 0.776992 0
M  V30 10733 H 1009.06 -4.21156 -0.143519 0
M  V30 10734 H 1007.79 -3.16361 -0.811389 0
M  V30 10735 H 1006.45 -3.42589 1.30493 0
M  V30 10736 H 1006.09 -4.99257 -0.61246 0
M  V30 10737 H 1005.79 -5.79912 0.947381 0
M  V30 10738 H 1007.32 -6.10563 0.0667721 0
M  V30 10739 H 1008.73 -5.29827 2.18988 0
M  V30 10740 H 1007.13 -5.21095 2.97623 0
M  V30 10741 H 1008.2 -3.79793 3.01472 0
M  V30 10742 N 1009.54 -0.859717 -1.32086 0
M  V30 10743 C 1010.79 -0.466271 -1.97367 0
M  V30 10744 C 1011.12 0.976728 -1.6785 0
M  V30 10745 O 1010.4 1.68618 -0.969449 0
M  V30 10746 C 1010.68 -0.711851 -3.52994 0
M  V30 10747 C 1010.53 -2.20364 -3.92122 0
M  V30 10748 C 1011.85 -0.17156 -4.39765 0
M  V30 10749 H 1008.97 -0.170883 -0.716916 0
M  V30 10750 H 1011.61 -1.07907 -1.56384 0
M  V30 10751 H 1009.76 -0.190258 -3.88034 0
M  V30 10752 H 1011.43 -2.7917 -3.67236 0
M  V30 10753 H 1009.68 -2.68019 -3.41099 0
M  V30 10754 H 1010.35 -2.32615 -5.00594 0
M  V30 10755 H 1012.82 -0.617665 -4.1149 0
M  V30 10756 H 1011.7 -0.372921 -5.47632 0
M  V30 10757 H 1011.96 0.925959 -4.32294 0
M  V30 10758 N 1011.02 1.44971 -0.618145 0
M  V30 10759 C 1012.43 1.85611 -0.201334 0
M  V30 10760 C 1012.78 1.51698 1.24427 0
M  V30 10761 O 1011.91 0.94875 1.94493 0
M  V30 10762 C 1012.5 3.36897 -0.358619 0
M  V30 10763 C 1011.06 3.764 0.00358196 0
M  V30 10764 C 1010.21 2.68881 -0.678118 0
M  V30 10765 H 1013.16 1.35622 -0.824152 0
M  V30 10766 H 1013.18 3.78326 0.406176 0
M  V30 10767 H 1012.69 3.61548 -1.41084 0
M  V30 10768 H 1010.79 3.57365 1.05457 0
M  V30 10769 H 1010.91 4.77449 -0.397427 0
M  V30 10770 H 1009.27 2.54442 -0.114699 0
M  V30 10771 H 1010.05 2.96367 -1.73268 0
M  V30 10772 N 1012.5 0.357919 1.53482 0
M  V30 10773 C 1013.46 -0.479797 2.24122 0
M  V30 10774 C 1014.46 -1.01596 1.24639 0
M  V30 10775 O 1015.65 -0.902928 1.48973 0
M  V30 10776 C 1012.78 -1.66983 2.97203 0
M  V30 10777 H 1013.98 0.138219 2.99581 0
M  V30 10778 H 1011.53 0.109484 1.55916 0
M  V30 10779 H 1012.26 -2.32615 2.25966 0
M  V30 10780 H 1012.05 -1.29242 3.70188 0
M  V30 10781 H 1013.54 -2.26367 3.50924 0
M  V30 10782 N 1013.98 -1.5736 0.0868897 0
M  V30 10783 C 1015.22 -1.95147 -0.573512 0
M  V30 10784 C 1015.58 -0.967591 -1.66299 0
M  V30 10785 O 1014.87 0.00774571 -1.91598 0
M  V30 10786 C 1015.06 -3.37316 -1.18123 0
M  V30 10787 C 1014.89 -4.49443 -0.152145 0
M  V30 10788 C 1013.66 -5.04586 0.268496 0
M  V30 10789 C 1015.86 -5.10592 0.616502 0
M  V30 10790 N 1013.84 -6.00264 1.28671 0
M  V30 10791 C 1015.21 -6.0191 1.48677 0
M  V30 10792 C 1017.27 -4.93359 0.67092 0
M  V30 10793 C 1015.97 -6.77844 2.40664 0
M  V30 10794 C 1018 -5.69949 1.57837 0
M  V30 10795 C 1017.36 -6.60927 2.43628 0
M  V30 10796 H 1013.46 -0.760898 -0.180439 0
M  V30 10797 H 1016.04 -1.93978 0.167548 0
M  V30 10798 H 1014.21 -3.39194 -1.89214 0
M  V30 10799 H 1015.95 -3.62301 -1.80332 0
M  V30 10800 H 1012.7 -4.73454 -0.117625 0
M  V30 10801 H 1013.13 -6.52804 1.79377 0
M  V30 10802 H 1017.77 -4.22794 0.0218207 0
M  V30 10803 H 1015.49 -7.47677 3.06603 0
M  V30 10804 H 1019.07 -5.58631 1.6255 0
M  V30 10805 H 1017.95 -7.19156 3.12705 0
M  V30 10806 N 1015.45 0.186762 -1.56489 0
M  V30 10807 C 1016.39 1.25565 -1.91745 0
M  V30 10808 C 1017.4 1.4128 -0.80894 0
M  V30 10809 O 1018.59 1.41558 -1.08737 0
M  V30 10810 C 1015.69 2.62662 -2.14154 0
M  V30 10811 C 1014.86 2.68448 -3.45333 0
M  V30 10812 C 1013.92 3.86798 -3.56754 0
M  V30 10813 O 1012.95 3.73514 -4.29507 0
M  V30 10814 N 1014.15 5.02607 -2.90459 0
M  V30 10815 H 1016.91 0.956351 -2.84032 0
M  V30 10816 H 1014.47 0.376631 -1.57458 0
M  V30 10817 H 1016.47 3.40277 -2.19075 0
M  V30 10818 H 1015.04 2.85046 -1.28326 0
M  V30 10819 H 1014.26 1.77044 -3.52206 0
M  V30 10820 H 1015.54 2.69311 -4.31682 0
M  V30 10821 H 1014.94 5.163 -2.31194 0
M  V30 10822 H 1013.5 5.78139 -3.00996 0
M  V30 10823 N 1016.93 1.50896 0.454776 0
M  V30 10824 C 1017.86 1.6712 1.56855 0
M  V30 10825 C 1018.88 0.552223 1.53148 0
M  V30 10826 O 1020.07 0.825969 1.5824 0
M  V30 10827 C 1017.17 1.65464 2.95762 0
M  V30 10828 C 1016.34 2.93662 3.24163 0
M  V30 10829 C 1015.4 2.84428 4.42704 0
M  V30 10830 O 1014.42 3.58382 4.42211 0
M  V30 10831 N 1015.63 1.9909 5.45292 0
M  V30 10832 H 1018.39 2.63194 1.43349 0
M  V30 10833 H 1015.95 1.48564 0.643457 0
M  V30 10834 H 1017.94 1.56878 3.73057 0
M  V30 10835 H 1016.51 0.770568 3.02954 0
M  V30 10836 H 1015.73 3.16251 2.35328 0
M  V30 10837 H 1017.02 3.78558 3.39957 0
M  V30 10838 H 1016.42 1.3835 5.48521 0
M  V30 10839 H 1014.98 1.96396 6.21508 0
M  V30 10840 N 1018.41 -0.709066 1.40748 0
M  V30 10841 C 1019.66 -1.47119 1.39585 0
M  V30 10842 C 1019.99 -1.942 0.000245323 0
M  V30 10843 O 1019.26 -1.68609 -0.969593 0
M  V30 10844 C 1019.55 -2.69266 2.39099 0
M  V30 10845 C 1019.4 -2.28037 3.8771 0
M  V30 10846 C 1020.72 -3.71438 2.36055 0
M  V30 10847 H 1017.84 -0.533632 0.508336 0
M  V30 10848 H 1020.48 -0.808718 1.7193 0
M  V30 10849 H 1018.63 -3.25788 2.11647 0
M  V30 10850 H 1020.3 -1.76946 4.26014 0
M  V30 10851 H 1018.55 -1.59966 4.03229 0
M  V30 10852 H 1019.22 -3.15621 4.52866 0
M  V30 10853 H 1021.69 -3.24559 2.60385 0
M  V30 10854 H 1020.57 -4.54532 3.07721 0
M  V30 10855 H 1020.83 -4.20193 1.37443 0
M  V30 10856 N 1019.89 -1.26353 -0.941956 0
M  V30 10857 C 1021.12 -1.14626 -1.72245 0
M  V30 10858 C 1021.53 0.298588 -1.86424 0
M  V30 10859 O 1020.89 1.2045 -1.37106 0
M  V30 10860 C 1020.94 -1.80933 -3.12963 0
M  V30 10861 O 1020.66 -3.19771 -2.99463 0
M  V30 10862 C 1022.16 -1.7515 -4.07231 0
M  V30 10863 H 1019.38 -0.3992 -0.539333 0
M  V30 10864 H 1021.93 -1.66958 -1.1809 0
M  V30 10865 H 1020.08 -1.32541 -3.64021 0
M  V30 10866 H 1020.5 -3.52571 -3.88322 0
M  V30 10867 H 1021.97 -2.26183 -5.03533 0
M  V30 10868 H 1022.45 -0.717855 -4.33294 0
M  V30 10869 H 1023.05 -2.2309 -3.62093 0
M  V30 10870 N 1021.37 1.14642 -1.08144 0
M  V30 10871 C 1022.78 1.6719 -0.830923 0
M  V30 10872 C 1023.13 1.85373 0.642749 0
M  V30 10873 O 1022.25 1.56293 1.49671 0
M  V30 10874 C 1022.85 3.03697 -1.50179 0
M  V30 10875 C 1021.41 3.5329 -1.29858 0
M  V30 10876 C 1020.56 2.28828 -1.5663 0
M  V30 10877 H 1023.51 0.987441 -1.24239 0
M  V30 10878 H 1023.53 3.69023 -0.9275 0
M  V30 10879 H 1023.04 2.90431 -2.57432 0
M  V30 10880 H 1021.14 3.71783 -0.246626 0
M  V30 10881 H 1021.25 4.34231 -2.02436 0
M  V30 10882 H 1019.62 2.34769 -0.987716 0
M  V30 10883 H 1020.4 2.18141 -2.65084 0
M  V30 10884 N 1022.85 0.866709 1.31628 0
M  V30 10885 C 1023.78 0.335762 2.31073 0
M  V30 10886 C 1024.76 -0.571597 1.60209 0
M  V30 10887 O 1025.94 -0.489306 1.87935 0
M  V30 10888 C 1023.07 -0.466416 3.44154 0
M  V30 10889 C 1022.03 0.347561 4.26586 0
M  V30 10890 C 1021.35 -0.5801 5.31544 0
M  V30 10891 C 1022.65 1.57986 4.97833 0
M  V30 10892 H 1024.35 1.16673 2.75731 0
M  V30 10893 H 1021.89 0.56248 1.3256 0
M  V30 10894 H 1023.84 -0.84836 4.12772 0
M  V30 10895 H 1022.57 -1.33086 2.98254 0
M  V30 10896 H 1021.23 0.71141 3.59631 0
M  V30 10897 H 1020.88 -1.44174 4.81895 0
M  V30 10898 H 1020.58 -0.0393965 5.87587 0
M  V30 10899 H 1022.1 -0.958958 6.03023 0
M  V30 10900 H 1023.51 1.26954 5.59067 0
M  V30 10901 H 1021.91 2.05939 5.63657 0
M  V30 10902 H 1022.98 2.3345 4.25005 0
M  V30 10903 N 1024.32 -1.44642 0.625825 0
M  V30 10904 C 1025.29 -2.29085 -0.072526 0
M  V30 10905 C 1026.29 -1.40755 -0.777467 0
M  V30 10906 O 1027.48 -1.62684 -0.622861 0
M  V30 10907 C 1024.61 -3.22212 -1.1132 0
M  V30 10908 H 1025.8 -2.92317 0.670124 0
M  V30 10909 H 1023.35 -1.51466 0.38571 0
M  V30 10910 H 1024.09 -2.63819 -1.88601 0
M  V30 10911 H 1023.87 -3.87299 -0.611709 0
M  V30 10912 H 1025.36 -3.8566 -1.60175 0
M  V30 10913 N 1025.8 -0.366053 -1.5329 0
M  V30 10914 C 1027.21 0.113056 -1.86357 0
M  V30 10915 C 1027.56 1.48123 -1.28662 0
M  V30 10916 O 1026.69 2.07658 -0.608849 0
M  V30 10917 C 1027.28 0.211923 -3.38137 0
M  V30 10918 C 1025.84 0.635289 -3.71 0
M  V30 10919 C 1024.99 -0.217203 -2.76448 0
M  V30 10920 H 1027.94 -0.584829 -1.47531 0
M  V30 10921 H 1027.96 1.0354 -3.66142 0
M  V30 10922 H 1027.47 -0.783994 -3.80099 0
M  V30 10923 H 1025.57 1.63942 -3.34595 0
M  V30 10924 H 1025.69 0.409571 -4.77346 0
M  V30 10925 H 1024.05 0.313988 -2.52757 0
M  V30 10926 H 1024.83 -1.21067 -3.21244 0
M  V30 10927 N 1027.28 1.57312 -0.0952337 0
M  V30 10928 C 1028.24 2.12889 0.849161 0
M  V30 10929 C 1029.24 1.05819 1.21075 0
M  V30 10930 O 1030.43 1.31704 1.14016 0
M  V30 10931 C 1027.56 2.6496 2.14498 0
M  V30 10932 H 1028.76 2.97651 0.366566 0
M  V30 10933 H 1026.31 1.55542 0.153762 0
M  V30 10934 H 1027.05 1.83718 2.67242 0
M  V30 10935 H 1026.83 3.43244 1.89542 0
M  V30 10936 H 1028.32 3.07952 2.82056 0
M  V30 10937 N 1028.76 -0.17846 1.56586 0
M  V30 10938 C 1029.99 -0.911996 1.85715 0
M  V30 10939 C 1030.4 -1.76138 0.679766 0
M  V30 10940 O 1029.76 -1.79088 -0.351266 0
M  V30 10941 C 1029.81 -1.79459 3.1381 0
M  V30 10942 O 1029.53 -0.979476 4.2701 0
M  V30 10943 C 1031.03 -2.6384 3.56235 0
M  V30 10944 H 1028.25 -0.265299 0.616326 0
M  V30 10945 H 1030.79 -0.180704 2.037 0
M  V30 10946 H 1028.95 -2.4793 2.97673 0
M  V30 10947 H 1029.36 -1.58244 5.00059 0
M  V30 10948 H 1030.84 -3.21396 4.48786 0
M  V30 10949 H 1031.31 -3.38363 2.80013 0
M  V30 10950 H 1031.92 -2.00712 3.7496 0
M  V30 10951 N 1030.24 -1.51135 -0.446768 0
M  V30 10952 C 1031.46 -1.67129 -1.21965 0
M  V30 10953 C 1031.88 -0.36467 -1.85245 0
M  V30 10954 O 1031.24 0.655908 -1.70306 0
M  V30 10955 C 1031.29 -2.78016 -2.31061 0
M  V30 10956 O 1031.01 -4.03615 -1.70371 0
M  V30 10957 C 1032.51 -3.05197 -3.21511 0
M  V30 10958 H 1029.73 -0.561111 -0.367961 0
M  V30 10959 H 1032.27 -1.97499 -0.530517 0
M  V30 10960 H 1030.43 -2.50272 -2.95707 0
M  V30 10961 H 1030.84 -4.65126 -2.424 0
M  V30 10962 H 1032.32 -3.8639 -3.94216 0
M  V30 10963 H 1032.79 -2.17228 -3.81718 0
M  V30 10964 H 1033.4 -3.34565 -2.62577 0
M  V30 10965 N 1031.71 0.701592 -1.41122 0
M  V30 10966 C 1032.94 1.49049 -1.43499 0
M  V30 10967 C 1033.36 1.88761 -0.0385684 0
M  V30 10968 O 1032.71 1.56384 0.940755 0
M  V30 10969 C 1032.76 2.7569 -2.33832 0
M  V30 10970 O 1032.49 2.37653 -3.68039 0
M  V30 10971 C 1033.99 3.69479 -2.44949 0
M  V30 10972 H 1031.21 0.459519 -0.488961 0
M  V30 10973 H 1033.75 0.864318 -1.85337 0
M  V30 10974 H 1031.91 3.34559 -1.95318 0
M  V30 10975 H 1032.32 3.19241 -4.16156 0
M  V30 10976 H 1033.79 4.55139 -3.12334 0
M  V30 10977 H 1034.27 4.13553 -1.47887 0
M  V30 10978 H 1034.88 3.16517 -2.84072 0
M  V30 10979 N 1033.19 1.2685 0.935242 0
M  V30 10980 C 1034.12 1.1143 2.05196 0
M  V30 10981 C 1035.1 0.0178362 1.70091 0
M  V30 10982 O 1036.29 0.190951 1.93259 0
M  V30 10983 C 1033.42 0.752779 3.39044 0
M  V30 10984 C 1032.37 1.80164 3.88233 0
M  V30 10985 C 1031.7 1.29428 5.18799 0
M  V30 10986 C 1033 3.20431 4.12457 0
M  V30 10987 H 1034.69 2.04845 2.18355 0
M  V30 10988 H 1032.24 0.986276 1.04922 0
M  V30 10989 H 1034.19 0.631757 4.16637 0
M  V30 10990 H 1032.91 -0.217075 3.25878 0
M  V30 10991 H 1031.57 1.91144 3.12825 0
M  V30 10992 H 1031.22 0.3141 5.02018 0
M  V30 10993 H 1030.92 1.99546 5.5268 0
M  V30 10994 H 1032.45 1.18605 5.9897 0
M  V30 10995 H 1033.86 3.12495 4.80645 0
M  V30 10996 H 1032.26 3.88193 4.57631 0
M  V30 10997 H 1033.33 3.66046 3.18023 0
M  V30 10998 N 1034.67 -1.14067 1.0875 0
M  V30 10999 C 1035.9 -1.89041 0.840902 0
M  V30 11000 C 1036.31 -1.78768 -0.60725 0
M  V30 11001 O 1035.67 -1.14945 -1.41753 0
M  V30 11002 C 1035.72 -3.38891 1.25838 0
M  V30 11003 O 1035.44 -3.48886 2.64972 0
M  V30 11004 C 1036.94 -4.30852 1.04315 0
M  V30 11005 H 1034.16 -0.598685 0.303014 0
M  V30 11006 H 1036.71 -1.44438 1.44769 0
M  V30 11007 H 1034.86 -3.81103 0.695627 0
M  V30 11008 H 1035.28 -4.41989 2.82393 0
M  V30 11009 H 1036.75 -5.34353 1.38461 0
M  V30 11010 H 1037.23 -4.39196 -0.0195784 0
M  V30 11011 H 1037.83 -3.944 1.59151 0
M  V30 11012 N 1036.15 -0.873678 -1.31166 0
M  V30 11013 C 1037.37 -0.500242 -2.01277 0
M  V30 11014 C 1037.8 0.900811 -1.65127 0
M  V30 11015 O 1037.16 1.59504 -0.861862 0
M  V30 11016 C 1037.2 -0.668976 -3.5434 0
M  V30 11017 O 1036.31 0.290096 -4.11378 0
M  V30 11018 H 1035.65 -0.198507 -0.633633 0
M  V30 11019 H 1038.18 -1.17811 -1.67277 0
M  V30 11020 H 1038.19 -0.563673 -4.04088 0
M  V30 11021 H 1036.86 -1.69055 -3.79991 0
M  V30 11022 H 1035.44 0.139437 -3.72639 0
M  V30 11023 N 1037.63 1.44308 -0.633487 0
M  V30 11024 C 1038.54 2.34492 0.0711787 0
M  V30 11025 C 1039.55 1.52754 0.8332 0
M  V30 11026 O 1040.73 1.85475 0.784929 0
M  V30 11027 C 1037.79 3.30767 1.03895 0
M  V30 11028 C 1036.85 4.28412 0.276043 0
M  V30 11029 C 1036.09 5.20087 1.19772 0
M  V30 11030 O 1036.31 5.15743 2.4365 0
M  V30 11031 O 1035.24 5.98038 0.680764 0
M  V30 11032 H 1039.07 2.96203 -0.67063 0
M  V30 11033 H 1036.66 1.4412 -0.393678 0
M  V30 11034 H 1038.54 3.90021 1.59566 0
M  V30 11035 H 1037.21 2.71586 1.76133 0
M  V30 11036 H 1036.12 3.72696 -0.32377 0
M  V30 11037 H 1037.45 4.9052 -0.406364 0
M  V30 11038 N 1039.1 0.374177 1.53094 0
M  V30 11039 C 1040.33 -0.215903 2.06273 0
M  V30 11040 C 1040.75 -1.40979 1.24526 0
M  V30 11041 O 1040.11 -1.79331 0.266462 0
M  V30 11042 C 1040.16 -0.579089 3.5592 0
M  V30 11043 O 1039.26 -1.67516 3.76845 0
M  V30 11044 H 1038.61 -0.0293981 0.663349 0
M  V30 11045 H 1041.14 0.537271 1.9742 0
M  V30 11046 H 1041.15 -0.847678 3.99097 0
M  V30 11047 H 1039.82 0.293843 4.14861 0
M  V30 11048 H 1038.4 -1.40146 3.45563 0
M  V30 11049 N 1040.58 -1.57259 0.103575 0
M  V30 11050 C 1041.83 -1.94945 -0.558953 0
M  V30 11051 C 1042.16 -0.986038 -1.67305 0
M  V30 11052 O 1041.44 -0.0205464 -1.94489 0
M  V30 11053 C 1041.72 -3.42689 -1.10617 0
M  V30 11054 C 1041.57 -4.498 0.00345246 0
M  V30 11055 C 1042.89 -3.91933 -2.00191 0
M  V30 11056 H 1040.01 -0.708859 -0.201713 0
M  V30 11057 H 1042.65 -1.89183 0.176006 0
M  V30 11058 H 1040.8 -3.4773 -1.73251 0
M  V30 11059 H 1042.47 -4.56866 0.638082 0
M  V30 11060 H 1040.72 -4.28615 0.668705 0
M  V30 11061 H 1041.39 -5.50397 -0.420396 0
M  V30 11062 H 1043.86 -3.89098 -1.4745 0
M  V30 11063 H 1042.74 -4.9586 -2.35402 0
M  V30 11064 H 1043 -3.31722 -2.92255 0
M  V30 11065 N 1042.06 0.170153 -1.56679 0
M  V30 11066 C 1043.02 1.19443 -1.95617 0
M  V30 11067 C 1044.02 1.37118 -0.83996 0
M  V30 11068 O 1045.21 1.34504 -1.10699 0
M  V30 11069 C 1042.35 2.55926 -2.25199 0
M  V30 11070 H 1043.54 0.86095 -2.87276 0
M  V30 11071 H 1041.09 0.412646 -1.50755 0
M  V30 11072 H 1041.83 2.94286 -1.36257 0
M  V30 11073 H 1041.61 2.44464 -3.06562 0
M  V30 11074 H 1043.1 3.29742 -2.56242 0
M  V30 11075 N 1043.54 1.5137 0.438746 0
M  V30 11076 C 1044.79 1.63645 1.18595 0
M  V30 11077 C 1045.11 0.354241 1.91755 0
M  V30 11078 O 1044.38 -0.629838 1.85499 0
M  V30 11079 H 1042.96 0.603103 0.440767 0
M  V30 11080 H 1045.62 1.88293 0.503159 0
M  V30 11081 H 1044.72 2.46342 1.9163 0
M  V30 11082 N 1045.02 -0.694098 1.41492 0
M  V30 11083 C 1046.24 -1.48789 1.44488 0
M  V30 11084 C 1046.67 -1.88028 0.0521588 0
M  V30 11085 O 1046.02 -1.54727 -0.944952 0
M  V30 11086 C 1046.07 -2.72586 2.3607 0
M  V30 11087 O 1045.18 -3.70128 1.81876 0
M  V30 11088 H 1044.52 -0.447758 0.490315 0
M  V30 11089 H 1047.05 -0.853036 1.85969 0
M  V30 11090 H 1047.06 -3.20877 2.51995 0
M  V30 11091 H 1045.73 -2.43363 3.37264 0
M  V30 11092 H 1044.31 -3.29069 1.75408 0
M  V30 11093 N 1046.49 -1.27344 -0.928501 0
M  V30 11094 C 1047.44 -1.06656 -2.01515 0
M  V30 11095 C 1048.43 0.00516619 -1.60899 0
M  V30 11096 O 1049.62 -0.213277 -1.7571 0
M  V30 11097 C 1046.75 -0.714935 -3.35773 0
M  V30 11098 C 1045.84 -1.82476 -3.82836 0
M  V30 11099 N 1046.23 -3.06421 -4.02417 0
M  V30 11100 C 1044.52 -1.71126 -4.11864 0
M  V30 11101 C 1045.23 -3.78637 -4.41598 0
M  V30 11102 N 1044.2 -3.06396 -4.49024 0
M  V30 11103 H 1048 -2.00718 -2.14685 0
M  V30 11104 H 1045.52 -1.18048 -1.11528 0
M  V30 11105 H 1047.51 -0.54784 -4.13285 0
M  V30 11106 H 1046.17 0.218069 -3.23967 0
M  V30 11107 H 1047.19 -3.42191 -3.88749 0
M  V30 11108 H 1043.86 -0.849031 -4.08776 0
M  V30 11109 H 1045.25 -4.85159 -4.64834 0
M  V30 11110 N 1047.97 1.13488 -1.09353 0
M  V30 11111 C 1049.39 1.36739 -0.823086 0
M  V30 11112 C 1049.59 1.93476 0.562963 0
M  V30 11113 O 1048.64 2.15374 1.31796 0
M  V30 11114 C 1049.96 2.31943 -1.91371 0
M  V30 11115 C 1051.51 2.4556 -1.94085 0
M  V30 11116 C 1051.98 3.44072 -3.02289 0
M  V30 11117 N 1053.47 3.51622 -3.01524 0
M  V30 11118 C 1054.21 4.27724 -3.8189 0
M  V30 11119 N 1053.7 5.06987 -4.72161 0
M  V30 11120 N 1055.5 4.23018 -3.70152 0
M  V30 11121 H 1047.65 0.75012 -1.98713 0
M  V30 11122 H 1049.91 0.392564 -0.862901 0
M  V30 11123 H 1049.62 1.97408 -2.91072 0
M  V30 11124 H 1049.49 3.31952 -1.79131 0
M  V30 11125 H 1051.88 2.79382 -0.950234 0
M  V30 11126 H 1051.96 1.45479 -2.10403 0
M  V30 11127 H 1051.6 3.10981 -4.01564 0
M  V30 11128 H 1051.53 4.43956 -2.83214 0
M  V30 11129 H 1054.02 2.95066 -2.36103 0
M  V30 11130 H 1054.34 5.6236 -5.30067 0
M  V30 11131 H 1052.68 5.06222 -4.76197 0
M  V30 11132 H 1055.87 3.60171 -2.98989 0
M  V30 11133 H 1056.04 4.82075 -4.33022 0
M  V30 11134 N 1049.45 0.880621 1.30701 0
M  V30 11135 C 1050.38 0.360251 2.30704 0
M  V30 11136 C 1051.36 -0.554572 1.60806 0
M  V30 11137 O 1052.55 -0.469345 1.88443 0
M  V30 11138 C 1049.68 -0.429888 3.44629 0
M  V30 11139 C 1048.63 0.392786 4.26194 0
M  V30 11140 C 1047.96 -0.52369 5.32129 0
M  V30 11141 C 1049.26 1.63258 4.96129 0
M  V30 11142 H 1050.95 1.19591 2.74478 0
M  V30 11143 H 1048.5 0.576508 1.31956 0
M  V30 11144 H 1050.45 -0.804532 4.13649 0
M  V30 11145 H 1049.17 -1.29916 2.99649 0
M  V30 11146 H 1047.83 0.749514 3.58856 0
M  V30 11147 H 1047.48 -1.39054 4.83397 0
M  V30 11148 H 1047.18 0.0229272 5.87596 0
M  V30 11149 H 1048.71 -0.894946 6.04006 0
M  V30 11150 H 1050.12 1.32877 5.57689 0
M  V30 11151 H 1048.52 2.11906 5.61441 0
M  V30 11152 H 1049.59 2.37944 4.22505 0
M  V30 11153 N 1050.93 -1.4397 0.641131 0
M  V30 11154 C 1052.18 -2.01548 0.149333 0
M  V30 11155 C 1052.5 -1.50759 -1.23679 0
M  V30 11156 O 1051.77 -0.715257 -1.82376 0
M  V30 11157 H 1050.35 -0.745173 0.0522161 0
M  V30 11158 H 1053.01 -1.7634 0.830082 0
M  V30 11159 H 1052.11 -3.11851 0.124676 0
M  V30 11160 N 1052.41 -0.382291 -1.52893 0
M  V30 11161 C 1053.68 0.259354 -1.93873 0
M  V30 11162 C 1054.06 1.64964 -1.3172 0
M  V30 11163 O 1053.41 2.23345 -0.482611 0
M  V30 11164 C 1053.62 0.292765 -3.4777 0
M  V30 11165 C 1054.97 0.525095 -4.21341 0
M  V30 11166 O 1055.99 0.373272 -3.54239 0
M  V30 11167 O 1054.85 0.822004 -5.40283 0
M  V30 11168 H 1051.95 0.159422 -0.811489 0
M  V30 11169 H 1054.49 -0.436289 -1.63996 0
M  V30 11170 H 1053.27 -0.681341 -3.85323 0
M  V30 11171 H 1052.89 1.03362 -3.8393 0
M  V30 11172 N 1053.89 1.57202 -0.111913 0
M  V30 11173 C 1055.13 1.96035 0.542393 0
M  V30 11174 C 1055.49 0.993925 1.64739 0
M  V30 11175 O 1054.78 0.0227369 1.91587 0
M  V30 11176 C 1054.97 3.39152 1.12741 0
M  V30 11177 C 1054.8 4.49628 0.0806232 0
M  V30 11178 C 1053.57 5.04095 -0.348737 0
M  V30 11179 C 1055.77 5.09546 -0.697655 0
M  V30 11180 N 1053.75 5.98141 -1.38204 0
M  V30 11181 C 1055.12 5.99468 -1.58234 0
M  V30 11182 C 1057.18 4.92229 -0.749324 0
M  V30 11183 C 1055.88 6.7393 -2.51418 0
M  V30 11184 C 1057.91 5.67366 -1.66884 0
M  V30 11185 C 1057.27 6.56968 -2.54112 0
M  V30 11186 H 1053.37 0.763672 0.168311 0
M  V30 11187 H 1055.95 1.93687 -0.198387 0
M  V30 11188 H 1054.12 3.42161 1.83794 0
M  V30 11189 H 1055.86 3.65125 1.74546 0
M  V30 11190 H 1052.61 4.73581 0.042288 0
M  V30 11191 H 1053.03 6.49868 -1.8974 0
M  V30 11192 H 1057.68 4.22706 -0.0890808 0
M  V30 11193 H 1055.39 7.42704 -3.18459 0
M  V30 11194 H 1058.98 5.55974 -1.71417 0
M  V30 11195 H 1057.86 7.1409 -3.24107 0
M  V30 11196 N 1055.36 -0.161842 1.56767 0
M  V30 11197 C 1056.61 -0.875192 1.82167 0
M  V30 11198 C 1056.93 -1.82367 0.690444 0
M  V30 11199 O 1056.2 -1.93756 -0.289023 0
M  V30 11200 H 1054.78 -0.326178 0.672024 0
M  V30 11201 H 1057.44 -0.159392 1.94247 0
M  V30 11202 H 1056.54 -1.44639 2.76561 0
M  V30 11203 N 1056.84 -1.516 -0.430713 0
M  V30 11204 C 1057.79 -1.73392 -1.52328 0
M  V30 11205 C 1058.76 -0.575758 -1.55802 0
M  V30 11206 O 1059.94 -0.810931 -1.72709 0
M  V30 11207 C 1057.08 -1.87092 -2.89984 0
M  V30 11208 C 1056.2 -3.14668 -2.95987 0
M  V30 11209 C 1055.33 -3.18923 -4.24807 0
M  V30 11210 C 1054.37 -4.40787 -4.24703 0
M  V30 11211 N 1053.51 -4.42556 -5.45059 0
M  V30 11212 H 1058.35 -2.6665 -1.33048 0
M  V30 11213 H 1055.88 -1.32146 -0.646207 0
M  V30 11214 H 1057.84 -1.93017 -3.69865 0
M  V30 11215 H 1056.47 -0.972363 -3.07807 0
M  V30 11216 H 1055.52 -3.1802 -2.08728 0
M  V30 11217 H 1056.84 -4.04562 -2.91772 0
M  V30 11218 H 1055.99 -3.23801 -5.13067 0
M  V30 11219 H 1054.73 -2.2693 -4.31688 0
M  V30 11220 H 1053.73 -4.36079 -3.34836 0
M  V30 11221 H 1054.96 -5.34053 -4.19481 0
M  V30 11222 H 1052.91 -3.53435 -5.52648 0
M  V30 11223 H 1052.82 -5.26267 -5.42751 0
M  V30 11224 H 1054.09 -4.51634 -6.35332 0
M  V30 11225 N 1058.32 0.686584 -1.41858 0
M  V30 11226 C 1059.25 1.81107 -1.38836 0
M  V30 11227 C 1060.23 1.60599 -0.254293 0
M  V30 11228 O 1061.41 1.83229 -0.442641 0
M  V30 11229 C 1058.54 3.17928 -1.16787 0
M  V30 11230 C 1057.59 3.5721 -2.33031 0
M  V30 11231 S 1058.42 3.60986 -3.95536 0
M  V30 11232 C 1059.58 5.00519 -3.75808 0
M  V30 11233 H 1059.81 1.83396 -2.33994 0
M  V30 11234 H 1057.34 0.856146 -1.28489 0
M  V30 11235 H 1059.3 3.9691 -1.04752 0
M  V30 11236 H 1057.96 3.1324 -0.232335 0
M  V30 11237 H 1057.15 4.56629 -2.13321 0
M  V30 11238 H 1056.76 2.8556 -2.41519 0
M  V30 11239 H 1059.05 5.88272 -3.36069 0
M  V30 11240 H 1059.99 5.25273 -4.74862 0
M  V30 11241 H 1060.4 4.72481 -3.08904 0
M  V30 11242 N 1059.8 1.27835 0.921735 0
M  V30 11243 C 1061.05 1.13904 1.6646 0
M  V30 11244 C 1061.36 -0.313379 1.93073 0
M  V30 11245 O 1062.57 -0.573687 2.6537 0
M  V30 11246 C 1061.02 1.99064 2.99836 0
M  V30 11247 C 1060.63 3.48998 2.80899 0
M  V30 11248 C 1062.37 1.93797 3.77681 0
M  V30 11249 C 1060.28 4.26337 4.09867 0
M  V30 11250 H 1059.21 0.422681 0.624385 0
M  V30 11251 H 1061.86 1.52303 1.02352 0
M  V30 11252 H 1060.24 1.53514 3.65034 0
M  V30 11253 H 1061.42 4.02452 2.24431 0
M  V30 11254 H 1059.73 3.55707 2.16476 0
M  V30 11255 H 1062.33 2.48852 4.73262 0
M  V30 11256 H 1062.67 0.912928 4.06167 0
M  V30 11257 H 1063.21 2.37275 3.19289 0
M  V30 11258 H 1059.94 5.2939 3.86557 0
M  V30 11259 H 1059.46 3.77659 4.65976 0
M  V30 11260 H 1061.14 4.3583 4.78185 0
M  V30 11261 N 1061.28 -1.12907 1.09954 0
M  V30 11262 C 1062.5 -1.88679 0.861099 0
M  V30 11263 C 1062.93 -1.78853 -0.582499 0
M  V30 11264 O 1062.28 -1.13992 -1.4098 0
M  V30 11265 C 1062.33 -3.36047 1.30785 0
M  V30 11266 O 1061.44 -4.09716 0.469728 0
M  V30 11267 H 1060.78 -0.586447 0.31141 0
M  V30 11268 H 1063.31 -1.42818 1.46507 0
M  V30 11269 H 1063.32 -3.86882 1.29562 0
M  V30 11270 H 1061.99 -3.42516 2.35914 0
M  V30 11271 H 1060.57 -3.6887 0.54674 0
M  V30 11272 N 1062.75 -0.88754 -1.30232 0
M  V30 11273 C 1063.99 -0.514017 -1.97831 0
M  V30 11274 C 1064.36 0.920151 -1.68515 0
M  V30 11275 O 1065.56 1.39993 -2.29468 0
M  V30 11276 C 1063.83 -0.784155 -3.48692 0
M  V30 11277 S 1065.39 -0.513119 -4.3579 0
M  V30 11278 H 1062.21 -0.191157 -0.684821 0
M  V30 11279 H 1064.81 -1.14736 -1.58291 0
M  V30 11280 H 1063.51 -1.82639 -3.6752 0
M  V30 11281 H 1063.04 -0.138468 -3.93156 0
M  V30 11282 H 1065.06 0.647155 -4.91962 0
M  V30 11283 N 1064.23 1.43628 -0.648757 0
M  V30 11284 C 1065.46 2.06732 -0.166284 0
M  V30 11285 C 1065.88 1.48281 1.15734 0
M  V30 11286 O 1065.24 0.591018 1.71396 0
M  V30 11287 C 1065.29 3.60502 -0.0838732 0
M  V30 11288 O 1064.39 4.01186 0.955185 0
M  V30 11289 H 1063.73 0.657479 -0.0928285 0
M  V30 11290 H 1066.26 1.84208 -0.890421 0
M  V30 11291 H 1066.27 4.07875 0.100923 0
M  V30 11292 H 1064.95 4.02424 -1.05014 0
M  V30 11293 H 1063.53 3.65412 0.743537 0
M  V30 11294 N 1065.71 0.390394 1.52688 0
M  V30 11295 C 1066.66 -0.4591 2.28024 0
M  V30 11296 C 1067.65 -1.06212 1.31967 0
M  V30 11297 O 1068.86 -1.00247 1.49501 0
M  V30 11298 H 1065.23 -0.16681 0.733266 0
M  V30 11299 H 1067.2 0.197747 2.97744 0
M  V30 11300 C 1065.95 -1.5737 3.10048 0
M  V30 11301 H 1065.28 -1.11901 3.83821 0
M  V30 11302 H 1066.72 -2.1423 3.65898 0
M  V30 11303 C 1065.18 -2.53036 2.22429 0
M  V30 11304 O 1065.71 -3.5647 1.85181 0
M  V30 11305 N 1063.91 -2.22802 1.86567 0
M  V30 11306 H 1063.46 -1.38723 2.17057 0
M  V30 11307 H 1063.42 -2.87061 1.28233 0
M  V30 11308 N 1067.19 -1.57141 0.120249 0
M  V30 11309 C 1068.14 -2.11936 -0.84067 0
M  V30 11310 C 1069.12 -1.04044 -1.22734 0
M  V30 11311 O 1070.31 -1.30275 -1.19822 0
M  V30 11312 C 1067.44 -2.72332 -2.09023 0
M  V30 11313 C 1066.53 -3.87306 -1.72786 0
M  V30 11314 N 1066.92 -4.94302 -1.07232 0
M  V30 11315 C 1065.22 -3.97513 -2.02236 0
M  V30 11316 C 1065.92 -5.7467 -0.901626 0
M  V30 11317 N 1064.9 -5.24535 -1.42702 0
M  V30 11318 H 1068.7 -2.92038 -0.330308 0
M  V30 11319 H 1066.21 -1.62192 -0.0821814 0
M  V30 11320 H 1068.21 -3.09932 -2.78833 0
M  V30 11321 H 1066.87 -1.93693 -2.60601 0
M  V30 11322 H 1067.88 -5.12641 -0.736158 0
M  V30 11323 H 1064.56 -3.29917 -2.55853 0
M  V30 11324 H 1065.95 -6.70785 -0.386974 0
M  V30 11325 N 1068.67 0.153526 -1.5685 0
M  V30 11326 C 1069.9 0.881055 -1.86872 0
M  V30 11327 C 1070.3 1.75547 -0.705692 0
M  V30 11328 O 1069.65 1.8064 0.333888 0
M  V30 11329 C 1069.71 1.79429 -3.11521 0
M  V30 11330 C 1069.37 1.0977 -4.43621 0
M  V30 11331 C 1070.37 0.454693 -5.17908 0
M  V30 11332 C 1068.06 1.08915 -4.9035 0
M  V30 11333 C 1070.05 -0.187562 -6.37124 0
M  V30 11334 C 1067.74 0.443084 -6.09492 0
M  V30 11335 C 1068.73 -0.194154 -6.82724 0
M  V30 11336 O 1068.42 -0.829995 -7.99604 0
M  V30 11337 H 1068.15 0.260486 -0.623797 0
M  V30 11338 H 1070.71 0.153024 -2.04829 0
M  V30 11339 H 1068.94 2.5631 -2.89555 0
M  V30 11340 H 1070.63 2.39321 -3.27842 0
M  V30 11341 H 1071.39 0.453151 -4.82878 0
M  V30 11342 H 1067.27 1.57456 -4.33276 0
M  V30 11343 H 1070.82 -0.685542 -6.94223 0
M  V30 11344 H 1066.71 0.44227 -6.43983 0
M  V30 11345 H 1067.48 -0.731013 -8.15229 0
M  V30 11346 N 1070.14 1.51827 0.422667 0
M  V30 11347 C 1071.09 1.74791 1.53463 0
M  V30 11348 C 1072.09 0.614602 1.57858 0
M  V30 11349 O 1073.29 0.796336 1.61426 0
M  V30 11350 H 1069.67 0.552524 0.510118 0
M  V30 11351 H 1071.64 2.67974 1.31273 0
M  V30 11352 C 1070.39 1.90339 2.90975 0
M  V30 11353 H 1069.71 2.76958 2.8833 0
M  V30 11354 H 1071.15 2.10413 3.68106 0
M  V30 11355 C 1069.61 0.66695 3.30232 0
M  V30 11356 O 1070.14 -0.171542 4.01334 0
M  V30 11357 N 1068.35 0.506768 2.86147 0
M  V30 11358 H 1067.89 1.19019 2.28456 0
M  V30 11359 H 1067.85 -0.319247 3.12775 0
M  V30 11360 N 1071.62 -0.679052 1.4222 0
M  V30 11361 C 1072.85 -1.47248 1.46058 0
M  V30 11362 C 1073.27 -1.87962 0.0720987 0
M  V30 11363 O 1072.63 -1.5572 -0.928488 0
M  V30 11364 C 1072.68 -2.70067 2.38948 0
M  V30 11365 O 1071.78 -3.68178 1.85791 0
M  V30 11366 H 1071.12 -0.442533 0.495036 0
M  V30 11367 H 1073.65 -0.833263 1.86863 0
M  V30 11368 H 1073.66 -3.18187 2.55385 0
M  V30 11369 H 1072.34 -2.39773 3.39826 0
M  V30 11370 H 1070.92 -3.2719 1.78889 0
M  V30 11371 N 1073.1 -1.28322 -0.914942 0
M  V30 11372 C 1074.35 -1.15578 -1.66642 0
M  V30 11373 C 1074.68 0.295209 -1.91943 0
M  V30 11374 O 1073.95 1.21482 -1.51896 0
M  V30 11375 C 1074.24 -1.9535 -3.02507 0
M  V30 11376 C 1074.09 -3.48504 -2.84367 0
M  V30 11377 C 1075.41 -1.76798 -4.03027 0
M  V30 11378 H 1072.53 -0.421234 -0.604757 0
M  V30 11379 H 1075.17 -1.57625 -1.06087 0
M  V30 11380 H 1073.32 -1.59619 -3.54195 0
M  V30 11381 H 1074.99 -3.94135 -2.39699 0
M  V30 11382 H 1073.24 -3.74198 -2.1945 0
M  V30 11383 H 1073.91 -3.99576 -3.80845 0
M  V30 11384 H 1076.38 -2.07977 -3.60395 0
M  V30 11385 H 1075.26 -2.34987 -4.96057 0
M  V30 11386 H 1075.52 -0.719162 -4.36211 0
M  V30 11387 N 1074.58 1.12322 -1.10551 0
M  V30 11388 C 1075.51 2.17221 -0.699299 0
M  V30 11389 C 1076.49 1.59809 0.299973 0
M  V30 11390 O 1077.67 1.87451 0.198589 0
M  V30 11391 C 1074.8 3.38685 -0.0320136 0
M  V30 11392 C 1073.85 4.14732 -0.99495 0
M  V30 11393 S 1074.68 4.72879 -2.51288 0
M  V30 11394 C 1075.84 5.97676 -1.85834 0
M  V30 11395 H 1076.07 2.51342 -1.5879 0
M  V30 11396 H 1073.6 1.23802 -0.92263 0
M  V30 11397 H 1075.56 4.09034 0.346656 0
M  V30 11398 H 1074.22 3.02842 0.833407 0
M  V30 11399 H 1073.41 5.01754 -0.475331 0
M  V30 11400 H 1073.02 3.50098 -1.31559 0
M  V30 11401 H 1075.31 6.6698 -1.18927 0
M  V30 11402 H 1076.25 6.54266 -2.70817 0
M  V30 11403 H 1076.66 5.48793 -1.32237 0
M  V30 11404 N 1076.06 0.894434 1.2976 0
M  V30 11405 C 1077.47 0.566892 1.77885 0
M  V30 11406 C 1077.82 -0.917289 1.73437 0
M  V30 11407 O 1076.94 -1.71707 1.31703 0
M  V30 11408 C 1077.54 1.02227 3.2301 0
M  V30 11409 C 1076.1 0.745978 3.68934 0
M  V30 11410 C 1075.24 1.19993 2.49994 0
M  V30 11411 H 1078.2 1.0777 1.16496 0
M  V30 11412 H 1078.22 0.355281 3.78838 0
M  V30 11413 H 1077.73 2.1025 3.26215 0
M  V30 11414 H 1075.83 -0.321866 3.71207 0
M  V30 11415 H 1075.94 1.34017 4.59974 0
M  V30 11416 H 1074.31 0.619047 2.47063 0
M  V30 11417 H 1075.09 2.28811 2.55931 0
M  V30 11418 N 1077.53 -1.43282 0.656365 0
M  V30 11419 C 1078.47 -2.29087 -0.0720378 0
M  V30 11420 C 1079.48 -1.4268 -0.783982 0
M  V30 11421 O 1080.67 -1.66585 -0.641213 0
M  V30 11422 C 1077.77 -3.19676 -1.12519 0
M  V30 11423 C 1076.94 -4.34638 -0.490756 0
M  V30 11424 C 1076 -5.06079 -1.44121 0
M  V30 11425 O 1075.03 -5.6124 -0.948595 0
M  V30 11426 N 1076.23 -5.09872 -2.77509 0
M  V30 11427 H 1078.99 -2.92241 0.664456 0
M  V30 11428 H 1076.55 -1.54006 0.499383 0
M  V30 11429 H 1078.55 -3.64334 -1.76189 0
M  V30 11430 H 1077.12 -2.581 -1.76362 0
M  V30 11431 H 1076.34 -3.92857 0.3251 0
M  V30 11432 H 1077.62 -5.08777 -0.0480061 0
M  V30 11433 H 1077.02 -4.66433 -3.20088 0
M  V30 11434 H 1075.58 -5.58237 -3.36474 0
M  V30 11435 N 1079.01 -0.398486 -1.52479 0
M  V30 11436 C 1080.42 0.0735015 -1.86555 0
M  V30 11437 C 1080.78 1.45361 -1.31775 0
M  V30 11438 O 1079.9 2.0632 -0.652759 0
M  V30 11439 C 1080.5 0.140152 -3.3851 0
M  V30 11440 C 1079.05 0.556451 -3.72264 0
M  V30 11441 C 1078.2 -0.275792 -2.75925 0
M  V30 11442 H 1081.15 -0.615991 -1.46257 0
M  V30 11443 H 1081.17 0.957507 -3.68255 0
M  V30 11444 H 1080.69 -0.864442 -3.7835 0
M  V30 11445 H 1078.79 1.56808 -3.37997 0
M  V30 11446 H 1078.9 0.308227 -4.78107 0
M  V30 11447 H 1077.26 0.260304 -2.53366 0
M  V30 11448 H 1078.05 -1.27854 -3.18604 0
M  V30 11449 N 1080.49 1.57075 -0.12858 0
M  V30 11450 C 1081.42 2.18833 0.814519 0
M  V30 11451 C 1082.4 1.13114 1.2704 0
M  V30 11452 O 1083.59 1.41387 1.33129 0
M  V30 11453 C 1080.72 2.79535 2.06101 0
M  V30 11454 C 1079.67 3.9092 1.74257 0
M  V30 11455 C 1079 4.38473 3.06015 0
M  V30 11456 C 1080.3 5.1257 1.00345 0
M  V30 11457 H 1081.99 2.97895 0.299862 0
M  V30 11458 H 1079.54 1.4329 0.14279 0
M  V30 11459 H 1081.49 3.21401 2.72543 0
M  V30 11460 H 1080.21 1.97777 2.59907 0
M  V30 11461 H 1078.87 3.49645 1.102 0
M  V30 11462 H 1078.52 3.53561 3.57776 0
M  V30 11463 H 1078.22 5.13591 2.85479 0
M  V30 11464 H 1079.75 4.82997 3.7356 0
M  V30 11465 H 1081.16 5.51395 1.56959 0
M  V30 11466 H 1079.56 5.93333 0.898693 0
M  V30 11467 H 1080.63 4.84899 -0.0081335 0
M  V30 11468 N 1081.97 -0.145205 1.5693 0
M  V30 11469 C 1082.9 -1.18096 2.01434 0
M  V30 11470 C 1083.88 -1.447 0.894204 0
M  V30 11471 O 1085.07 -1.55589 1.16214 0
M  V30 11472 C 1082.2 -2.51369 2.39647 0
M  V30 11473 C 1081.15 -2.39283 3.54863 0
M  V30 11474 C 1080.48 -3.77283 3.78895 0
M  V30 11475 C 1081.78 -1.8754 4.87469 0
M  V30 11476 H 1083.47 -0.810897 2.8821 0
M  V30 11477 H 1081.02 -0.388624 1.38657 0
M  V30 11478 H 1082.97 -3.24054 2.69382 0
M  V30 11479 H 1081.69 -2.90214 1.49811 0
M  V30 11480 H 1080.35 -1.6905 3.25296 0
M  V30 11481 H 1080 -4.13567 2.86307 0
M  V30 11482 H 1079.7 -3.70057 4.56433 0
M  V30 11483 H 1081.22 -4.51514 4.11057 0
M  V30 11484 H 1082.64 -2.50019 5.1591 0
M  V30 11485 H 1081.03 -1.912 5.68826 0
M  V30 11486 H 1082.1 -0.831194 4.77723 0
M  V30 11487 N 1083.45 -1.52049 -0.414609 0
M  V30 11488 C 1084.68 -1.69679 -1.18392 0
M  V30 11489 C 1085.09 -0.403881 -1.84429 0
M  V30 11490 O 1084.45 0.619636 -1.71659 0
M  V30 11491 C 1084.5 -2.82855 -2.25112 0
M  V30 11492 O 1084.22 -4.07138 -1.61772 0
M  V30 11493 C 1085.72 -3.11948 -3.14965 0
M  V30 11494 H 1082.94 -0.56879 -0.355977 0
M  V30 11495 H 1085.48 -1.9858 -0.488505 0
M  V30 11496 H 1083.64 -2.56488 -2.90332 0
M  V30 11497 H 1084.05 -4.70163 -2.32479 0
M  V30 11498 H 1085.53 -3.94665 -3.85932 0
M  V30 11499 H 1086 -2.25276 -3.77024 0
M  V30 11500 H 1086.61 -3.40059 -2.55421 0
M  V30 11501 N 1084.93 0.6715 -1.42579 0
M  V30 11502 C 1085.87 1.80623 -1.46554 0
M  V30 11503 C 1086.87 1.65934 -0.340932 0
M  V30 11504 O 1088.07 1.72502 -0.514098 0
M  V30 11505 H 1084.45 0.595619 -0.459067 0
M  V30 11506 H 1086.42 1.74388 -2.42139 0
M  V30 11507 C 1085.17 3.18794 -1.38801 0
M  V30 11508 H 1084.49 3.30725 -2.24635 0
M  V30 11509 H 1085.93 3.98201 -1.45645 0
M  V30 11510 C 1084.39 3.36742 -0.103219 0
M  V30 11511 O 1084.92 3.92761 0.842715 0
M  V30 11512 N 1083.13 2.90594 -0.0193034 0
M  V30 11513 H 1082.67 2.45192 -0.78986 0
M  V30 11514 H 1082.63 3.0298 0.839686 0
M  V30 11515 N 1086.4 1.28806 0.908124 0
M  V30 11516 C 1087.34 1.09018 2.01613 0
M  V30 11517 C 1088.35 0.0402059 1.6275 0
M  V30 11518 O 1089.54 0.283853 1.76229 0
M  V30 11519 C 1086.64 0.635712 3.32884 0
M  V30 11520 C 1085.81 1.76235 4.00325 0
M  V30 11521 C 1084.87 1.3003 5.09881 0
M  V30 11522 O 1083.9 2.00354 5.32773 0
M  V30 11523 N 1085.1 0.166575 5.80261 0
M  V30 11524 H 1087.86 2.0444 2.19144 0
M  V30 11525 H 1085.42 1.20633 1.07978 0
M  V30 11526 H 1087.42 0.310097 4.0351 0
M  V30 11527 H 1085.99 -0.225816 3.11783 0
M  V30 11528 H 1085.21 2.25727 3.23173 0
M  V30 11529 H 1086.49 2.51796 4.42127 0
M  V30 11530 H 1085.89 -0.419934 5.64139 0
M  V30 11531 H 1084.45 -0.0997281 6.51724 0
M  V30 11532 N 1087.88 -1.11734 1.11145 0
M  V30 11533 C 1089.13 -1.82766 0.853194 0
M  V30 11534 C 1089.44 -1.85408 -0.623168 0
M  V30 11535 O 1090.65 -2.52509 -0.997574 0
M  V30 11536 C 1089.11 -3.28215 1.47658 0
M  V30 11537 C 1088.71 -3.33911 2.98676 0
M  V30 11538 C 1090.46 -4.04168 1.29803 0
M  V30 11539 C 1088.36 -4.73739 3.54013 0
M  V30 11540 H 1087.29 -0.684807 0.315523 0
M  V30 11541 H 1089.95 -1.25756 1.33633 0
M  V30 11542 H 1088.33 -3.85138 0.921116 0
M  V30 11543 H 1089.5 -2.86887 3.606 0
M  V30 11544 H 1087.82 -2.71437 3.15771 0
M  V30 11545 H 1090.41 -5.07429 1.68582 0
M  V30 11546 H 1090.76 -4.15606 0.240302 0
M  V30 11547 H 1091.29 -3.53623 1.82196 0
M  V30 11548 H 1088.03 -4.67497 4.59485 0
M  V30 11549 H 1087.55 -5.21186 2.9686 0
M  V30 11550 H 1089.23 -5.42691 3.52271 0
M  V30 11551 N 1089.36 -0.901303 -1.29284 0
M  V30 11552 C 1090.59 -0.543511 -1.99634 0
M  V30 11553 C 1091 0.872154 -1.67448 0
M  V30 11554 O 1090.36 1.57591 -0.920406 0
M  V30 11555 C 1090.41 -0.728148 -3.54091 0
M  V30 11556 O 1090.13 -2.08809 -3.85137 0
M  V30 11557 C 1091.63 -0.375519 -4.41707 0
M  V30 11558 H 1088.85 -0.208405 -0.637815 0
M  V30 11559 H 1091.4 -1.21109 -1.64781 0
M  V30 11560 H 1089.55 -0.107728 -3.8725 0
M  V30 11561 H 1089.97 -2.11863 -4.79807 0
M  V30 11562 H 1091.44 -0.555538 -5.49197 0
M  V30 11563 H 1091.92 0.687532 -4.33785 0
M  V30 11564 H 1092.52 -0.972949 -4.14021 0
M  V30 11565 N 1090.84 1.42931 -0.663954 0
M  V30 11566 C 1091.77 2.33499 0.00731327 0
M  V30 11567 C 1092.75 1.50074 0.800733 0
M  V30 11568 O 1093.93 1.78708 0.760062 0
M  V30 11569 C 1091.06 3.33569 0.966897 0
M  V30 11570 C 1090.02 4.27064 0.282839 0
M  V30 11571 C 1089.34 5.17257 1.35461 0
M  V30 11572 C 1090.64 5.1564 -0.831438 0
M  V30 11573 H 1092.34 2.89879 -0.749044 0
M  V30 11574 H 1089.88 1.39385 -0.361656 0
M  V30 11575 H 1091.84 3.95833 1.44549 0
M  V30 11576 H 1090.56 2.75469 1.75455 0
M  V30 11577 H 1089.22 3.6618 -0.175417 0
M  V30 11578 H 1088.87 4.5549 2.13397 0
M  V30 11579 H 1088.57 5.80634 0.902098 0
M  V30 11580 H 1090.09 5.82395 1.83436 0
M  V30 11581 H 1091.51 5.71651 -0.434534 0
M  V30 11582 H 1089.9 5.87794 -1.20908 0
M  V30 11583 H 1090.97 4.54687 -1.68487 0
M  V30 11584 N 1092.32 0.406567 1.52266 0
M  V30 11585 C 1093.54 -0.172101 2.06685 0
M  V30 11586 C 1093.97 -1.38306 1.27488 0
M  V30 11587 O 1093.32 -1.78726 0.304441 0
M  V30 11588 C 1093.37 -0.503463 3.57068 0
M  V30 11589 O 1092.48 -1.59485 3.80314 0
M  V30 11590 H 1091.82 -0.0153209 0.663823 0
M  V30 11591 H 1094.35 0.579025 1.96236 0
M  V30 11592 H 1094.36 -0.762833 4.00805 0
M  V30 11593 H 1093.03 0.381775 4.14144 0
M  V30 11594 H 1091.61 -1.32784 3.48458 0
M  V30 11595 N 1093.79 -1.57004 0.136909 0
M  V30 11596 C 1094.76 -2.15066 -0.792419 0
M  V30 11597 C 1095.76 -1.08991 -1.18226 0
M  V30 11598 O 1096.95 -1.34681 -1.10484 0
M  V30 11599 C 1094.08 -2.70554 -2.07397 0
M  V30 11600 H 1095.27 -2.98519 -0.28752 0
M  V30 11601 H 1092.83 -1.55895 -0.112469 0
M  V30 11602 H 1093.56 -1.90739 -2.62277 0
M  V30 11603 H 1093.35 -3.48149 -1.80374 0
M  V30 11604 H 1094.84 -3.15322 -2.73792 0
M  V30 11605 N 1095.27 0.136881 -1.57004 0
M  V30 11606 C 1096.68 0.695911 -1.73245 0
M  V30 11607 C 1097.03 1.8118 -0.75288 0
M  V30 11608 O 1096.16 2.16258 0.0782477 0
M  V30 11609 C 1096.75 1.26914 -3.14131 0
M  V30 11610 C 1095.31 1.77463 -3.31939 0
M  V30 11611 C 1094.46 0.667128 -2.69156 0
M  V30 11612 H 1097.41 -0.0888841 -1.58451 0
M  V30 11613 H 1097.43 2.13892 -3.14691 0
M  V30 11614 H 1096.94 0.456754 -3.85403 0
M  V30 11615 H 1095.05 2.61236 -2.65681 0
M  V30 11616 H 1095.16 1.89638 -4.39971 0
M  V30 11617 H 1093.52 1.09629 -2.29899 0
M  V30 11618 H 1094.31 -0.13398 -3.43038 0
M  V30 11619 N 1096.75 1.52266 0.40654 0
M  V30 11620 C 1097.68 1.72025 1.51459 0
M  V30 11621 C 1098.7 0.600667 1.51314 0
M  V30 11622 O 1099.88 0.875894 1.55532 0
M  V30 11623 C 1096.98 1.7479 2.90348 0
M  V30 11624 C 1096.16 3.03826 3.14656 0
M  V30 11625 C 1095.22 2.98369 4.33431 0
M  V30 11626 O 1094.24 3.7227 4.30586 0
M  V30 11627 N 1095.44 2.16338 5.38682 0
M  V30 11628 H 1098.21 2.67622 1.34903 0
M  V30 11629 H 1095.77 1.50536 0.595867 0
M  V30 11630 H 1097.76 1.68667 3.67877 0
M  V30 11631 H 1096.33 0.86656 3.00349 0
M  V30 11632 H 1095.55 3.23577 2.25148 0
M  V30 11633 H 1096.84 3.89182 3.27742 0
M  V30 11634 H 1096.24 1.55731 5.43842 0
M  V30 11635 H 1094.8 2.1607 6.14945 0
M  V30 11636 N 1098.23 -0.663929 1.42933 0
M  V30 11637 C 1099.64 -1.24484 1.39143 0
M  V30 11638 C 1099.99 -1.95993 0.0901142 0
M  V30 11639 O 1099.12 -2.00636 -0.810812 0
M  V30 11640 C 1099.71 -2.26402 2.52047 0
M  V30 11641 C 1098.27 -2.79995 2.51555 0
M  V30 11642 C 1097.42 -1.54475 2.30289 0
M  V30 11643 H 1100.37 -0.456619 1.51989 0
M  V30 11644 H 1100.39 -3.08361 2.22921 0
M  V30 11645 H 1099.9 -1.74328 3.46744 0
M  V30 11646 H 1098 -3.36161 1.60707 0
M  V30 11647 H 1098.11 -3.2827 3.48964 0
M  V30 11648 H 1096.48 -1.81437 1.78753 0
M  V30 11649 H 1097.26 -1.04351 3.27056 0
M  V30 11650 N 1099.71 -1.29285 -0.901281 0
M  V30 11651 C 1100.95 -1.17339 -1.65407 0
M  V30 11652 C 1101.29 0.274834 -1.92245 0
M  V30 11653 O 1100.56 1.19865 -1.53176 0
M  V30 11654 C 1100.84 -1.98547 -3.00418 0
M  V30 11655 C 1100.7 -3.51501 -2.80655 0
M  V30 11656 C 1102.02 -1.81062 -4.01129 0
M  V30 11657 H 1099.13 -0.427624 -0.600255 0
M  V30 11658 H 1101.78 -1.58741 -1.0441 0
M  V30 11659 H 1099.93 -1.63366 -3.52482 0
M  V30 11660 H 1101.6 -3.96655 -2.35505 0
M  V30 11661 H 1099.84 -3.76504 -2.15469 0
M  V30 11662 H 1100.51 -4.03593 -3.76585 0
M  V30 11663 H 1102.99 -2.11788 -3.58169 0
M  V30 11664 H 1101.86 -2.40235 -4.93536 0
M  V30 11665 H 1102.13 -0.765388 -4.35424 0
M  V30 11666 N 1101.18 1.11143 -1.11736 0
M  V30 11667 C 1102.41 1.87285 -0.891007 0
M  V30 11668 C 1102.83 1.79758 0.553971 0
M  V30 11669 O 1102.19 1.16221 1.39149 0
M  V30 11670 C 1102.24 3.33924 -1.36114 0
M  V30 11671 O 1101.34 4.08917 -0.534851 0
M  V30 11672 H 1100.69 0.581418 -0.320701 0
M  V30 11673 H 1103.22 1.40469 -1.4876 0
M  V30 11674 H 1103.23 3.84772 -1.35701 0
M  V30 11675 H 1101.9 3.38719 -2.41334 0
M  V30 11676 H 1100.48 3.67954 -0.605355 0
M  V30 11677 N 1102.66 0.908147 1.28804 0
M  V30 11678 C 1103.91 0.539201 1.95501 0
M  V30 11679 C 1104.24 -0.913759 1.7136 0
M  V30 11680 O 1103.52 -1.64904 1.03136 0
M  V30 11681 C 1103.8 0.842372 3.50109 0
M  V30 11682 C 1103.65 2.34765 3.83673 0
M  V30 11683 C 1104.97 0.334658 4.38826 0
M  V30 11684 H 1102.09 0.197373 0.71008 0
M  V30 11685 H 1104.73 1.13637 1.52272 0
M  V30 11686 H 1102.88 0.334143 3.8706 0
M  V30 11687 H 1104.55 2.92607 3.56621 0
M  V30 11688 H 1102.8 2.80494 3.30916 0
M  V30 11689 H 1103.47 2.51034 4.91616 0
M  V30 11690 H 1105.94 0.769961 4.08914 0
M  V30 11691 H 1104.82 0.575914 5.4587 0
M  V30 11692 H 1105.08 -0.764878 4.35433 0
M  V30 11693 N 1104.14 -1.42577 0.671525 0
M  V30 11694 C 1105.39 -2.01185 0.192051 0
M  V30 11695 C 1105.71 -1.53349 -1.20454 0
M  V30 11696 O 1104.98 -0.753781 -1.80817 0
M  V30 11697 H 1103.56 -0.743898 0.0680106 0
M  V30 11698 H 1106.22 -1.74539 0.8673 0
M  V30 11699 H 1105.32 -3.11516 0.190796 0
M  V30 11700 N 1105.62 -0.414636 -1.52048 0
M  V30 11701 C 1106.87 0.16073 -2.01059 0
M  V30 11702 C 1107.18 1.45753 -1.30443 0
M  V30 11703 O 1108.39 2.11448 -1.703 0
M  V30 11704 C 1106.84 0.336993 -3.58319 0
M  V30 11705 C 1106.45 -0.948037 -4.37854 0
M  V30 11706 C 1108.19 0.867353 -4.15545 0
M  V30 11707 C 1106.1 -0.738662 -5.86769 0
M  V30 11708 H 1105.03 0.0638419 -0.751292 0
M  V30 11709 H 1107.68 -0.540925 -1.75346 0
M  V30 11710 H 1106.06 1.10111 -3.80383 0
M  V30 11711 H 1107.24 -1.71873 -4.27547 0
M  V30 11712 H 1105.55 -1.40522 -3.91972 0
M  V30 11713 H 1108.15 1.04012 -5.24486 0
M  V30 11714 H 1108.49 1.84358 -3.73253 0
M  V30 11715 H 1109.03 0.162148 -3.97469 0
M  V30 11716 H 1105.77 -1.6866 -6.3343 0
M  V30 11717 H 1105.29 -0.00736294 -5.998 0
M  V30 11718 H 1106.96 -0.382978 -6.45866 0
M  V30 11719 N 1107.1 1.56929 -0.145233 0
M  V30 11720 C 1108.06 2.15483 0.781002 0
M  V30 11721 C 1109.06 1.09617 1.17647 0
M  V30 11722 O 1110.25 1.35265 1.09768 0
M  V30 11723 C 1107.38 2.7165 2.05959 0
M  V30 11724 H 1108.57 2.98667 0.271685 0
M  V30 11725 H 1106.13 1.55952 0.1042 0
M  V30 11726 H 1106.86 1.92127 2.61262 0
M  V30 11727 H 1106.65 3.491 1.78526 0
M  V30 11728 H 1108.14 3.16769 2.72116 0
M  V30 11729 N 1108.58 -0.128553 1.57075 0
M  V30 11730 C 1109.53 -1.16373 1.96065 0
M  V30 11731 C 1110.51 -1.37579 0.834323 0
M  V30 11732 O 1111.7 -1.38831 1.09795 0
M  V30 11733 C 1108.83 -2.49276 2.36043 0
M  V30 11734 C 1107.92 -2.31586 3.55287 0
M  V30 11735 N 1108.31 -1.83688 4.71267 0
M  V30 11736 C 1106.61 -2.62275 3.60732 0
M  V30 11737 C 1107.31 -1.79479 5.53319 0
M  V30 11738 N 1106.28 -2.23474 4.95541 0
M  V30 11739 H 1110.08 -0.785792 2.832 0
M  V30 11740 H 1107.6 -0.33641 1.58877 0
M  V30 11741 H 1109.6 -3.24134 2.62188 0
M  V30 11742 H 1108.26 -2.87837 1.50267 0
M  V30 11743 H 1109.27 -1.53376 4.94668 0
M  V30 11744 H 1105.94 -3.04586 2.85541 0
M  V30 11745 H 1107.33 -1.43781 6.56336 0
M  V30 11746 N 1110.05 -1.5248 -0.398459 0
M  V30 11747 C 1111.3 -1.67309 -1.1461 0
M  V30 11748 C 1111.63 -0.407095 -1.89885 0
M  V30 11749 O 1110.91 0.594834 -1.85181 0
M  V30 11750 C 1111.19 -2.90204 -2.13198 0
M  V30 11751 C 1111.04 -4.26881 -1.4175 0
M  V30 11752 C 1112.36 -3.08634 -3.13741 0
M  V30 11753 H 1109.48 -0.608853 -0.415292 0
M  V30 11754 H 1112.12 -1.85057 -0.430573 0
M  V30 11755 H 1110.27 -2.75204 -2.74218 0
M  V30 11756 H 1111.95 -4.53631 -0.837676 0
M  V30 11757 H 1110.19 -4.27793 -0.719387 0
M  V30 11758 H 1110.86 -5.08939 -2.1374 0
M  V30 11759 H 1113.34 -3.22603 -2.62805 0
M  V30 11760 H 1112.21 -3.96117 -3.79977 0
M  V30 11761 H 1112.47 -2.22425 -3.82073 0
M  V30 11762 N 1111.53 0.65634 -1.43283 0
M  V30 11763 C 1112.78 1.41837 -1.44949 0
M  V30 11764 C 1113.11 1.94065 -0.0723212 0
M  V30 11765 O 1112.39 1.72092 0.906346 0
M  V30 11766 C 1112.67 2.60206 -2.48927 0
M  V30 11767 C 1112.52 2.1349 -3.95907 0
M  V30 11768 C 1113.84 3.62421 -2.49678 0
M  V30 11769 H 1110.96 0.514398 -0.527792 0
M  V30 11770 H 1113.6 0.74435 -1.74813 0
M  V30 11771 H 1111.75 3.17708 -2.23592 0
M  V30 11772 H 1113.42 1.61012 -4.32288 0
M  V30 11773 H 1111.67 1.4489 -4.08888 0
M  V30 11774 H 1112.34 2.98596 -4.64268 0
M  V30 11775 H 1114.81 3.14671 -2.72252 0
M  V30 11776 H 1113.69 4.42798 -3.24378 0
M  V30 11777 H 1113.95 4.14802 -1.52944 0
M  V30 11778 N 1113.01 1.29761 0.894412 0
M  V30 11779 C 1114.26 1.19224 1.64794 0
M  V30 11780 C 1114.61 -0.252648 1.90734 0
M  V30 11781 O 1113.9 -1.17881 1.51045 0
M  V30 11782 C 1114.1 1.94458 2.99868 0
M  V30 11783 C 1113.93 3.46115 2.87114 0
M  V30 11784 C 1112.7 4.15469 2.87599 0
M  V30 11785 C 1114.89 4.41518 2.63754 0
M  V30 11786 N 1112.88 5.53453 2.65637 0
M  V30 11787 C 1114.25 5.66999 2.50823 0
M  V30 11788 C 1116.3 4.31221 2.48903 0
M  V30 11789 C 1115.01 6.83351 2.24554 0
M  V30 11790 C 1117.03 5.4733 2.24018 0
M  V30 11791 C 1116.39 6.71786 2.11856 0
M  V30 11792 H 1112.49 0.491294 0.608403 0
M  V30 11793 H 1115.08 1.63656 1.05474 0
M  V30 11794 H 1113.25 1.52432 3.57238 0
M  V30 11795 H 1114.98 1.76142 3.64357 0
M  V30 11796 H 1111.73 3.67217 2.9908 0
M  V30 11797 H 1112.16 6.26037 2.57695 0
M  V30 11798 H 1116.8 3.35689 2.57046 0
M  V30 11799 H 1114.52 7.78933 2.15149 0
M  V30 11800 H 1118.1 5.41265 2.13363 0
M  V30 11801 H 1116.98 7.60113 1.92867 0
M  V30 11802 N 1114.49 -1.10549 1.12324 0
M  V30 11803 C 1115.9 -1.63991 0.892402 0
M  V30 11804 C 1116.25 -1.87631 -0.573506 0
M  V30 11805 O 1115.37 -1.6174 -1.43768 0
M  V30 11806 C 1115.97 -2.97914 1.61347 0
M  V30 11807 C 1114.53 -3.48227 1.42881 0
M  V30 11808 C 1113.68 -2.22857 1.65015 0
M  V30 11809 H 1116.63 -0.94065 1.27818 0
M  V30 11810 H 1116.65 -3.65326 1.06382 0
M  V30 11811 H 1116.16 -2.80677 2.68034 0
M  V30 11812 H 1114.26 -3.70611 0.384441 0
M  V30 11813 H 1114.37 -4.26419 2.18413 0
M  V30 11814 H 1112.74 -2.30941 1.07417 0
M  V30 11815 H 1113.52 -2.08152 2.72997 0
M  V30 11816 N 1115.97 -0.914965 -1.28321 0
M  V30 11817 C 1116.9 -0.361578 -2.2633 0
M  V30 11818 C 1117.91 0.500637 -1.54911 0
M  V30 11819 O 1119.1 0.31532 -1.75693 0
M  V30 11820 C 1116.2 0.501693 -3.35166 0
M  V30 11821 C 1115.37 -0.338289 -4.3609 0
M  V30 11822 C 1114.43 0.460267 -5.24183 0
M  V30 11823 O 1113.46 -0.127594 -5.69057 0
M  V30 11824 N 1114.66 1.76302 -5.5308 0
M  V30 11825 H 1117.42 -1.20402 -2.74451 0
M  V30 11826 H 1114.99 -0.781042 -1.41814 0
M  V30 11827 H 1116.98 1.04268 -3.91037 0
M  V30 11828 H 1115.55 1.24485 -2.86744 0
M  V30 11829 H 1114.77 -1.06064 -3.79663 0
M  V30 11830 H 1116.06 -0.912996 -5.00542 0
M  V30 11831 H 1115.45 2.26314 -5.18458 0
M  V30 11832 H 1114.01 2.25081 -6.11704 0
M  V30 11833 N 1117.44 1.42219 -0.679077 0
M  V30 11834 C 1118.85 1.8459 -0.279877 0
M  V30 11835 C 1119.21 1.56839 1.17881 0
M  V30 11836 O 1118.33 1.03039 1.90294 0
M  V30 11837 C 1118.93 3.35072 -0.501185 0
M  V30 11838 C 1117.48 3.76076 -0.156065 0
M  V30 11839 C 1116.63 2.65763 -0.791549 0
M  V30 11840 H 1119.58 1.32005 -0.880932 0
M  V30 11841 H 1119.6 3.79708 0.245349 0
M  V30 11842 H 1119.12 3.55239 -1.56291 0
M  V30 11843 H 1117.22 3.61516 0.90205 0
M  V30 11844 H 1117.33 4.75334 -0.599572 0
M  V30 11845 H 1115.69 2.53726 -0.222514 0
M  V30 11846 H 1116.48 2.88751 -1.85682 0
M  V30 11847 N 1118.92 0.422693 1.51826 0
M  V30 11848 C 1119.88 -0.384307 2.25955 0
M  V30 11849 C 1120.88 -0.962184 1.28836 0
M  V30 11850 O 1122.07 -0.838931 1.52668 0
M  V30 11851 C 1119.21 -1.54228 3.04018 0
M  V30 11852 H 1120.4 0.265157 2.98726 0
M  V30 11853 H 1117.95 0.175515 1.55311 0
M  V30 11854 H 1118.69 -2.22822 2.35629 0
M  V30 11855 H 1118.47 -1.13425 3.75336 0
M  V30 11856 H 1119.96 -2.1128 3.60209 0
M  V30 11857 N 1120.4 -1.5685 0.153553 0
M  V30 11858 C 1121.63 -2.00701 -0.502678 0
M  V30 11859 C 1122.04 -1.0337 -1.57988 0
M  V30 11860 O 1121.4 -0.0317233 -1.82472 0
M  V30 11861 C 1121.45 -3.44443 -1.09732 0
M  V30 11862 O 1121.17 -4.38054 -0.0631405 0
M  V30 11863 C 1122.67 -4.03605 -1.83352 0
M  V30 11864 H 1119.89 -0.658229 -0.130289 0
M  V30 11865 H 1122.44 -2.02965 0.250063 0
M  V30 11866 H 1120.59 -3.43009 -1.80065 0
M  V30 11867 H 1121.01 -5.22114 -0.499681 0
M  V30 11868 H 1122.48 -5.0616 -2.20241 0
M  V30 11869 H 1122.96 -3.44687 -2.7219 0
M  V30 11870 H 1123.56 -4.08688 -1.17703 0
M  V30 11871 N 1121.88 0.120221 -1.57141 0
M  V30 11872 C 1123.11 0.842441 -1.88972 0
M  V30 11873 C 1123.52 1.73494 -0.744671 0
M  V30 11874 O 1122.88 1.80268 0.284557 0
M  V30 11875 C 1122.93 1.67688 -3.20254 0
M  V30 11876 O 1122.65 0.820319 -4.30351 0
M  V30 11877 C 1124.15 2.50436 -3.65782 0
M  V30 11878 H 1121.37 0.242241 -0.625748 0
M  V30 11879 H 1123.91 0.104978 -2.0423 0
M  V30 11880 H 1122.07 2.36712 -3.0667 0
M  V30 11881 H 1122.48 1.39575 -5.05588 0
M  V30 11882 H 1123.96 3.04518 -4.60405 0
M  V30 11883 H 1124.43 3.27737 -2.92378 0
M  V30 11884 H 1125.04 1.86657 -3.82151 0
M  V30 11885 N 1123.36 1.52689 0.390367 0
M  V30 11886 C 1124.3 1.7737 1.47677 0
M  V30 11887 C 1125.27 0.616864 1.54221 0
M  V30 11888 O 1126.46 0.856437 1.70499 0
M  V30 11889 C 1123.6 1.94715 2.84921 0
M  V30 11890 C 1122.71 3.22405 2.8754 0
M  V30 11891 C 1121.85 3.30074 4.16202 0
M  V30 11892 C 1120.89 4.51893 4.12867 0
M  V30 11893 N 1120.02 4.56851 5.33134 0
M  V30 11894 H 1124.86 2.70084 1.25932 0
M  V30 11895 H 1122.4 1.33813 0.610943 0
M  V30 11896 H 1124.36 2.02755 3.64618 0
M  V30 11897 H 1122.99 1.05363 3.0512 0
M  V30 11898 H 1122.04 3.23442 2.00223 0
M  V30 11899 H 1123.35 4.12156 2.80943 0
M  V30 11900 H 1122.51 3.3729 5.04302 0
M  V30 11901 H 1121.24 2.38295 4.25519 0
M  V30 11902 H 1120.25 4.44803 3.23156 0
M  V30 11903 H 1121.47 5.44987 4.05174 0
M  V30 11904 H 1119.42 3.67963 5.43083 0
M  V30 11905 H 1119.34 5.40472 5.28607 0
M  V30 11906 H 1120.61 4.6832 6.23134 0
M  V30 11907 N 1124.83 -0.648732 1.43629 0
M  V30 11908 C 1125.78 -1.76145 1.49136 0
M  V30 11909 C 1126.75 -1.62569 0.340649 0
M  V30 11910 O 1127.94 -1.82748 0.548435 0
M  V30 11911 C 1125.08 -3.14321 1.42466 0
M  V30 11912 C 1124.19 -3.38999 2.67776 0
M  V30 11913 C 1123.32 -4.67047 2.53062 0
M  V30 11914 C 1122.36 -4.84845 3.7362 0
M  V30 11915 N 1121.5 -6.04155 3.57689 0
M  V30 11916 H 1126.34 -1.70774 2.44213 0
M  V30 11917 H 1123.88 -0.833311 1.2122 0
M  V30 11918 H 1125.84 -3.94206 1.36592 0
M  V30 11919 H 1124.47 -3.18751 0.509666 0
M  V30 11920 H 1123.52 -2.53179 2.83909 0
M  V30 11921 H 1124.83 -3.48035 3.57314 0
M  V30 11922 H 1123.98 -5.55066 2.44922 0
M  V30 11923 H 1122.72 -4.60339 1.61056 0
M  V30 11924 H 1121.73 -3.95261 3.82163 0
M  V30 11925 H 1122.95 -4.9338 4.6664 0
M  V30 11926 H 1120.9 -5.9857 2.6842 0
M  V30 11927 H 1120.82 -6.14169 4.40832 0
M  V30 11928 H 1122.08 -6.94782 3.53409 0
M  V30 11929 N 1126.31 -1.30234 -0.887518 0
M  V30 11930 C 1127.26 -1.16302 -2.01436 0
M  V30 11931 C 1128.25 -0.0755422 -1.69231 0
M  V30 11932 O 1129.46 -0.236213 -1.78443 0
M  V30 11933 H 1125.84 -0.35961 -0.660443 0
M  V30 11934 H 1127.81 -2.11677 -2.10322 0
M  V30 11935 C 1126.56 -0.869009 -3.36665 0
M  V30 11936 H 1125.88 -1.69787 -3.61956 0
M  V30 11937 H 1127.32 -0.811621 -4.16159 0
M  V30 11938 C 1125.78 0.428021 -3.3417 0
M  V30 11939 O 1126.31 1.45033 -3.74604 0
M  V30 11940 N 1124.51 0.438264 -2.87276 0
M  V30 11941 H 1124.06 -0.394142 -2.54567 0
M  V30 11942 H 1124.02 1.30604 -2.85989 0
M  V30 11943 N 1127.79 1.09952 -1.12909 0
M  V30 11944 C 1128.74 2.16436 -0.801514 0
M  V30 11945 C 1129.71 1.64444 0.233976 0
M  V30 11946 O 1130.89 1.90497 0.10743 0
M  V30 11947 C 1128.03 3.4406 -0.267753 0
M  V30 11948 C 1127.15 4.09979 -1.36165 0
M  V30 11949 C 1126.28 5.25341 -0.786803 0
M  V30 11950 C 1125.32 5.83172 -1.85948 0
M  V30 11951 N 1124.46 6.89904 -1.30298 0
M  V30 11952 H 1129.3 2.43799 -1.71365 0
M  V30 11953 H 1126.83 1.19665 -0.855499 0
M  V30 11954 H 1128.79 4.17157 0.0598031 0
M  V30 11955 H 1127.42 3.17031 0.607528 0
M  V30 11956 H 1126.47 3.34801 -1.8059 0
M  V30 11957 H 1127.79 4.48999 -2.17259 0
M  V30 11958 H 1126.94 6.05312 -0.410211 0
M  V30 11959 H 1125.68 4.87669 0.055279 0
M  V30 11960 H 1124.68 5.01867 -2.24521 0
M  V30 11961 H 1125.91 6.22907 -2.70487 0
M  V30 11962 H 1123.85 6.54221 -0.482806 0
M  V30 11963 H 1123.77 7.27662 -2.05046 0
M  V30 11964 H 1125.04 7.73643 -0.953779 0
M  V30 11965 N 1129.27 0.921757 1.27833 0
M  V30 11966 C 1130.2 0.373575 2.26135 0
M  V30 11967 C 1131.21 -0.492414 1.55174 0
M  V30 11968 O 1132.4 -0.305998 1.75858 0
M  V30 11969 C 1129.5 -0.483911 3.35427 0
M  V30 11970 C 1128.68 0.361411 4.35904 0
M  V30 11971 C 1127.73 -0.432461 5.2442 0
M  V30 11972 O 1126.76 0.15777 5.68981 0
M  V30 11973 N 1127.96 -1.73367 5.54007 0
M  V30 11974 H 1130.73 1.21856 2.73809 0
M  V30 11975 H 1128.29 0.788552 1.41398 0
M  V30 11976 H 1130.28 -1.02193 3.91585 0
M  V30 11977 H 1128.85 -1.22963 2.874 0
M  V30 11978 H 1128.07 1.08076 3.79095 0
M  V30 11979 H 1129.36 0.939528 5.0005 0
M  V30 11980 H 1128.76 -2.23561 5.19651 0
M  V30 11981 H 1127.31 -2.21834 6.12889 0
M  V30 11982 N 1130.75 -1.41857 0.686609 0
M  V30 11983 C 1131.99 -2.03236 0.217839 0
M  V30 11984 C 1132.35 -1.5317 -1.15771 0
M  V30 11985 O 1133.55 -2.06415 -1.72181 0
M  V30 11986 C 1131.82 -3.56428 0.263443 0
M  V30 11987 S 1133.38 -4.386 -0.132595 0
M  V30 11988 H 1130.2 -0.705472 0.088487 0
M  V30 11989 H 1132.8 -1.73428 0.902393 0
M  V30 11990 H 1131.51 -3.90362 1.26672 0
M  V30 11991 H 1131.04 -3.90925 -0.440556 0
M  V30 11992 H 1133.05 -4.77119 -1.3628 0
M  V30 11993 N 1132.22 -0.430739 -1.51599 0
M  V30 11994 C 1133.16 0.419726 -2.25324 0
M  V30 11995 C 1134.17 0.991925 -1.29092 0
M  V30 11996 O 1135.36 0.887188 -1.54891 0
M  V30 11997 C 1132.46 1.59844 -2.98836 0
M  V30 11998 C 1131.63 1.14629 -4.22112 0
M  V30 11999 C 1130.69 2.19437 -4.78261 0
M  V30 12000 O 1129.72 1.79141 -5.40275 0
M  V30 12001 N 1130.92 3.51849 -4.61717 0
M  V30 12002 H 1133.68 -0.212112 -2.98948 0
M  V30 12003 H 1131.24 -0.259269 -1.59811 0
M  V30 12004 H 1133.24 2.29567 -3.33288 0
M  V30 12005 H 1131.81 2.13575 -2.28264 0
M  V30 12006 H 1131.03 0.276367 -3.9323 0
M  V30 12007 H 1132.31 0.821488 -5.02124 0
M  V30 12008 H 1131.71 3.87324 -4.12306 0
M  V30 12009 H 1130.27 4.17486 -5.00548 0
M  V30 12010 N 1133.7 1.56767 -0.161869 0
M  V30 12011 C 1134.65 2.18807 0.789074 0
M  V30 12012 C 1135.64 1.14934 1.24445 0
M  V30 12013 O 1136.85 1.33154 1.2112 0
M  V30 12014 H 1133.23 0.700808 0.272713 0
M  V30 12015 H 1135.2 2.97419 0.241766 0
M  V30 12016 C 1133.95 2.83568 2.01207 0
M  V30 12017 H 1133.27 3.63219 1.67068 0
M  V30 12018 H 1134.71 3.3046 2.65654 0
M  V30 12019 C 1133.17 1.82846 2.82964 0
M  V30 12020 O 1133.7 1.30809 3.79805 0
M  V30 12021 N 1131.9 1.51815 2.47791 0
M  V30 12022 H 1131.45 1.94325 1.69103 0
M  V30 12023 H 1131.41 0.846742 3.02783 0
M  V30 12024 N 1135.18 -0.111886 1.57202 0
M  V30 12025 C 1136.6 -0.465629 1.52657 0
M  V30 12026 C 1136.8 -1.81463 0.875989 0
M  V30 12027 O 1135.85 -2.4825 0.461345 0
M  V30 12028 C 1137.17 -0.443571 2.9741 0
M  V30 12029 C 1138.71 -0.52662 3.08538 0
M  V30 12030 C 1139.19 -0.53488 4.54866 0
M  V30 12031 N 1140.68 -0.596117 4.59348 0
M  V30 12032 C 1141.41 -0.624073 5.69994 0
M  V30 12033 N 1140.91 -0.609245 6.90116 0
M  V30 12034 N 1142.7 -0.667619 5.58121 0
M  V30 12035 H 1134.85 0.771925 1.97876 0
M  V30 12036 H 1137.12 0.285534 0.903977 0
M  V30 12037 H 1136.82 0.480138 3.48407 0
M  V30 12038 H 1136.7 -1.26876 3.55221 0
M  V30 12039 H 1139.08 -1.44075 2.57539 0
M  V30 12040 H 1139.17 0.326396 2.53709 0
M  V30 12041 H 1138.81 0.375233 5.06512 0
M  V30 12042 H 1138.74 -1.40488 5.07514 0
M  V30 12043 H 1141.23 -0.613452 3.72888 0
M  V30 12044 H 1141.54 -0.633396 7.702 0
M  V30 12045 H 1139.89 -0.576557 6.92604 0
M  V30 12046 H 1143.08 -0.676616 4.63184 0
M  V30 12047 H 1143.25 -0.685938 6.44359 0
M  V30 12048 N 1136.66 -1.52894 -0.382264 0
M  V30 12049 C 1137.91 -1.67933 -1.1244 0
M  V30 12050 C 1138.23 -0.425166 -1.90309 0
M  V30 12051 O 1137.5 0.560557 -1.87709 0
M  V30 12052 H 1136.08 -0.619047 -0.418079 0
M  V30 12053 H 1138.74 -1.90031 -0.432928 0
M  V30 12054 H 1137.84 -2.53285 -1.82355 0
M  V30 12055 N 1138.14 0.641106 -1.43971 0
M  V30 12056 C 1139.39 1.39676 -1.45511 0
M  V30 12057 C 1139.7 1.95403 -0.0877084 0
M  V30 12058 O 1140.91 2.71493 0.0193965 0
M  V30 12059 C 1139.36 2.52839 -2.56126 0
M  V30 12060 C 1138.97 2.03668 -3.99028 0
M  V30 12061 C 1140.71 3.30118 -2.66875 0
M  V30 12062 C 1138.62 3.14114 -5.01085 0
M  V30 12063 H 1137.55 0.524854 -0.541336 0
M  V30 12064 H 1140.2 0.69075 -1.70003 0
M  V30 12065 H 1138.58 3.25968 -2.24857 0
M  V30 12066 H 1139.76 1.3747 -4.39817 0
M  V30 12067 H 1138.07 1.39233 -3.92432 0
M  V30 12068 H 1140.67 4.12434 -3.40297 0
M  V30 12069 H 1141.01 3.78946 -1.72353 0
M  V30 12070 H 1141.55 2.64075 -2.97505 0
M  V30 12071 H 1138.28 2.70241 -5.97202 0
M  V30 12072 H 1137.8 3.78985 -4.64898 0
M  V30 12073 H 1139.48 3.79051 -5.24337 0
M  V30 12074 N 1139.62 1.30703 0.880598 0
M  V30 12075 C 1140.55 1.20033 2.00286 0
M  V30 12076 C 1141.53 0.0899614 1.69862 0
M  V30 12077 O 1142.71 0.272747 1.92275 0
M  V30 12078 C 1139.84 0.895902 3.35546 0
M  V30 12079 C 1138.8 1.96468 3.80242 0
M  V30 12080 C 1138.12 1.51316 5.12843 0
M  V30 12081 C 1139.42 3.37637 3.98496 0
M  V30 12082 H 1141.12 2.13922 2.0947 0
M  V30 12083 H 1138.66 1.02989 1.00644 0
M  V30 12084 H 1140.61 0.807899 4.13583 0
M  V30 12085 H 1139.34 -0.0786636 3.26505 0
M  V30 12086 H 1138 2.0424 3.04437 0
M  V30 12087 H 1137.65 0.52674 5.00234 0
M  V30 12088 H 1137.35 2.22807 5.43719 0
M  V30 12089 H 1138.87 1.43903 5.93401 0
M  V30 12090 H 1140.28 3.326 4.66959 0
M  V30 12091 H 1138.68 4.07253 4.40755 0
M  V30 12092 H 1139.75 3.79205 3.02211 0
M  V30 12093 N 1141.09 -1.09351 1.1349 0
M  V30 12094 C 1142.34 -1.81812 0.898452 0
M  V30 12095 C 1142.67 -1.85525 -0.573959 0
M  V30 12096 O 1141.95 -1.32403 -1.42477 0
M  V30 12097 C 1142.23 -3.27921 1.48794 0
M  V30 12098 C 1142.08 -3.32476 3.02952 0
M  V30 12099 C 1143.4 -4.24625 1.15678 0
M  V30 12100 H 1140.52 -0.660074 0.327829 0
M  V30 12101 H 1143.16 -1.28091 1.40331 0
M  V30 12102 H 1141.31 -3.738 1.05858 0
M  V30 12103 H 1142.99 -2.94994 3.54649 0
M  V30 12104 H 1141.23 -2.72037 3.37903 0
M  V30 12105 H 1141.9 -4.35409 3.39298 0
M  V30 12106 H 1144.38 -3.87036 1.52781 0
M  V30 12107 H 1143.25 -5.25194 1.59571 0
M  V30 12108 H 1143.51 -4.42044 0.0705933 0
M  V30 12109 N 1142.57 -0.928524 -1.27343 0
M  V30 12110 C 1143.52 -0.426873 -2.26818 0
M  V30 12111 C 1144.49 0.506663 -1.58184 0
M  V30 12112 O 1145.67 0.425641 -1.85992 0
M  V30 12113 C 1142.81 0.313523 -3.43673 0
M  V30 12114 C 1141.93 -0.65422 -4.27018 0
M  V30 12115 C 1141.06 0.106102 -5.31094 0
M  V30 12116 C 1140.1 -0.854293 -6.06109 0
M  V30 12117 N 1139.24 -0.126545 -7.01986 0
M  V30 12118 H 1144.08 -1.28014 -2.69103 0
M  V30 12119 H 1141.61 -0.642515 -1.32326 0
M  V30 12120 H 1143.57 0.75912 -4.10236 0
M  V30 12121 H 1142.2 1.13102 -3.02337 0
M  V30 12122 H 1141.25 -1.21834 -3.60362 0
M  V30 12123 H 1142.57 -1.38817 -4.79094 0
M  V30 12124 H 1141.72 0.611577 -6.0361 0
M  V30 12125 H 1140.46 0.873009 -4.79823 0
M  V30 12126 H 1139.46 -1.37101 -5.32432 0
M  V30 12127 H 1140.69 -1.621 -6.5947 0
M  V30 12128 H 1138.64 0.622102 -6.53044 0
M  V30 12129 H 1138.55 -0.800046 -7.51755 0
M  V30 12130 H 1139.82 0.358251 -7.78676 0
M  V30 12131 N 1144.05 1.41491 -0.694123 0
M  V30 12132 C 1144.98 2.33462 -0.0422169 0
M  V30 12133 C 1145.96 1.51739 0.76872 0
M  V30 12134 O 1147.15 1.8028 0.721985 0
M  V30 12135 C 1144.28 3.35545 0.895925 0
M  V30 12136 C 1143.23 4.27568 0.192188 0
M  V30 12137 C 1142.56 5.20014 1.24459 0
M  V30 12138 C 1143.86 5.1376 -0.940626 0
M  V30 12139 H 1145.55 2.88225 -0.810363 0
M  V30 12140 H 1143.1 1.38586 -0.39114 0
M  V30 12141 H 1145.05 3.9881 1.36121 0
M  V30 12142 H 1143.77 2.79129 1.69572 0
M  V30 12143 H 1142.43 3.65726 -0.25305 0
M  V30 12144 H 1142.08 4.59913 2.03687 0
M  V30 12145 H 1141.78 5.82417 0.778734 0
M  V30 12146 H 1143.3 5.86155 1.71041 0
M  V30 12147 H 1144.72 5.70601 -0.555692 0
M  V30 12148 H 1143.11 5.85097 -1.33349 0
M  V30 12149 H 1144.18 4.51011 -1.78093 0
M  V30 12150 N 1145.53 0.438773 1.51369 0
M  V30 12151 C 1146.46 -0.417215 2.24354 0
M  V30 12152 C 1147.44 -1.02351 1.26345 0
M  V30 12153 O 1148.62 -1.06569 1.55484 0
M  V30 12154 C 1145.75 -1.58163 2.99503 0
M  V30 12155 C 1144.8 -1.09588 4.1218 0
M  V30 12156 S 1145.63 -0.0367491 5.35487 0
M  V30 12157 C 1146.78 -1.2058 6.14175 0
M  V30 12158 H 1147.02 0.202416 2.9661 0
M  V30 12159 H 1144.55 0.223306 1.52777 0
M  V30 12160 H 1146.51 -2.24917 3.43399 0
M  V30 12161 H 1145.17 -2.17268 2.26833 0
M  V30 12162 H 1144.36 -1.96667 4.64045 0
M  V30 12163 H 1143.96 -0.506564 3.70554 0
M  V30 12164 H 1146.26 -2.12387 6.43349 0
M  V30 12165 H 1147.2 -0.727087 7.04357 0
M  V30 12166 H 1147.61 -1.44501 5.45692 0
M  V30 12167 N 1147.01 -1.56678 0.170181 0
M  V30 12168 C 1147.92 -2.21496 -0.773079 0
M  V30 12169 C 1148.93 -1.20626 -1.25401 0
M  V30 12170 O 1150.11 -1.53283 -1.30638 0
M  V30 12171 C 1147.17 -2.8421 -1.98558 0
M  V30 12172 C 1146.23 -4.00278 -1.55164 0
M  V30 12173 C 1145.47 -4.59992 -2.70634 0
M  V30 12174 O 1145.69 -4.18595 -3.87472 0
M  V30 12175 O 1144.62 -5.49881 -2.44775 0
M  V30 12176 H 1148.45 -3.02659 -0.251195 0
M  V30 12177 H 1146.03 -1.49288 -0.0579621 0
M  V30 12178 H 1147.92 -3.2398 -2.69472 0
M  V30 12179 H 1146.59 -2.06045 -2.49654 0
M  V30 12180 H 1145.5 -3.6518 -0.812038 0
M  V30 12181 H 1146.83 -4.80033 -1.0876 0
M  V30 12182 N 1148.48 0.103547 -1.57259 0
M  V30 12183 C 1149.73 0.804704 -1.86805 0
M  V30 12184 C 1150.08 1.76756 -0.759942 0
M  V30 12185 O 1149.38 1.90106 0.238789 0
M  V30 12186 C 1149.57 1.57946 -3.20605 0
M  V30 12187 C 1149.4 0.693136 -4.44326 0
M  V30 12188 C 1148.17 0.342079 -5.04141 0
M  V30 12189 C 1150.37 0.00385713 -5.143 0
M  V30 12190 N 1148.35 -0.553293 -6.11402 0
M  V30 12191 C 1149.72 -0.74991 -6.15448 0
M  V30 12192 C 1151.78 -0.0709485 -4.97849 0
M  V30 12193 C 1150.48 -1.57148 -7.01924 0
M  V30 12194 C 1152.51 -0.879391 -5.84825 0
M  V30 12195 C 1151.87 -1.6213 -6.85488 0
M  V30 12196 H 1147.97 0.270899 -0.733579 0
M  V30 12197 H 1150.55 0.0676446 -1.94582 0
M  V30 12198 H 1148.72 2.28745 -3.13895 0
M  V30 12199 H 1150.45 2.22715 -3.37905 0
M  V30 12200 H 1147.21 0.687831 -4.68579 0
M  V30 12201 H 1147.63 -0.993284 -6.69674 0
M  V30 12202 H 1152.27 0.488299 -4.19971 0
M  V30 12203 H 1149.99 -2.14182 -7.79199 0
M  V30 12204 H 1153.58 -0.939834 -5.74159 0
M  V30 12205 H 1152.46 -2.2368 -7.51623 0
M  V30 12206 N 1149.96 1.53094 0.37415 0
M  V30 12207 C 1150.87 1.81872 1.48188 0
M  V30 12208 C 1151.89 0.706487 1.59012 0
M  V30 12209 O 1153.06 0.995648 1.75068 0
M  V30 12210 C 1150.13 1.99494 2.83554 0
M  V30 12211 C 1149.19 3.23402 2.82329 0
M  V30 12212 C 1148.42 3.40174 4.11239 0
M  V30 12213 O 1148.65 2.61425 5.06965 0
M  V30 12214 O 1147.58 4.33493 4.17573 0
M  V30 12215 H 1151.41 2.75965 1.26795 0
M  V30 12216 H 1148.99 1.38368 0.56343 0
M  V30 12217 H 1150.87 2.12705 3.63778 0
M  V30 12218 H 1149.55 1.08591 3.04942 0
M  V30 12219 H 1148.45 3.15621 2.00834 0
M  V30 12220 H 1149.79 4.14199 2.65894 0
M  V30 12221 N 1151.44 -0.633461 1.44309 0
M  V30 12222 C 1152.85 -1.21504 1.41752 0
M  V30 12223 C 1153.2 -1.95758 0.131667 0
M  V30 12224 O 1152.33 -2.02311 -0.768072 0
M  V30 12225 C 1152.92 -2.21005 2.56792 0
M  V30 12226 C 1151.48 -2.74596 2.57438 0
M  V30 12227 C 1150.63 -1.49555 2.33513 0
M  V30 12228 H 1153.58 -0.424277 1.52923 0
M  V30 12229 H 1153.6 -3.03563 2.29412 0
M  V30 12230 H 1153.11 -1.66934 3.50364 0
M  V30 12231 H 1151.21 -3.32676 1.67801 0
M  V30 12232 H 1151.33 -3.20794 3.55849 0
M  V30 12233 H 1149.69 -1.77605 1.82561 0
M  V30 12234 H 1150.47 -0.973899 3.29196 0
M  V30 12235 N 1152.92 -1.31168 -0.873655 0
M  V30 12236 C 1154.17 -1.20404 -1.62319 0
M  V30 12237 C 1154.49 0.238829 -1.93532 0
M  V30 12238 O 1153.76 1.15854 -1.57971 0
M  V30 12239 H 1152.34 -0.442632 -0.601736 0
M  V30 12240 H 1155 -1.64445 -1.04613 0
M  V30 12241 H 1154.1 -1.77309 -2.56842 0
M  V30 12242 N 1154.4 1.08748 -1.14068 0
M  V30 12243 C 1155.81 1.33125 -0.880341 0
M  V30 12244 C 1156.01 1.9569 0.480396 0
M  V30 12245 O 1155.07 2.2077 1.22543 0
M  V30 12246 C 1156.38 2.23618 -2.01036 0
M  V30 12247 C 1157.93 2.37108 -2.04326 0
M  V30 12248 C 1158.4 3.30941 -3.1661 0
M  V30 12249 N 1159.9 3.38517 -3.16166 0
M  V30 12250 C 1160.63 4.11142 -3.99687 0
M  V30 12251 N 1160.13 4.86505 -4.93239 0
M  V30 12252 N 1161.92 4.06938 -3.87761 0
M  V30 12253 H 1154.07 0.665164 -2.01716 0
M  V30 12254 H 1156.33 0.355612 -0.878774 0
M  V30 12255 H 1156.04 1.84885 -2.99183 0
M  V30 12256 H 1155.91 3.24056 -1.93049 0
M  V30 12257 H 1158.3 2.75101 -1.06787 0
M  V30 12258 H 1158.38 1.36424 -2.16384 0
M  V30 12259 H 1158.03 2.93669 -4.14392 0
M  V30 12260 H 1157.96 4.31545 -3.01789 0
M  V30 12261 H 1160.45 2.84786 -2.48405 0
M  V30 12262 H 1160.76 5.39372 -5.53441 0
M  V30 12263 H 1159.1 4.8557 -4.9724 0
M  V30 12264 H 1162.3 3.47166 -3.13996 0
M  V30 12265 H 1162.47 4.63275 -4.53079 0
M  V30 12266 N 1155.87 0.935264 1.26849 0
M  V30 12267 C 1156.78 0.446122 2.30319 0
M  V30 12268 C 1157.8 -0.476965 1.67335 0
M  V30 12269 O 1158.98 -0.357934 1.98194 0
M  V30 12270 C 1156.04 -0.286297 3.45516 0
M  V30 12271 C 1155.1 0.672626 4.23998 0
M  V30 12272 C 1154.34 -0.0249345 5.33694 0
M  V30 12273 O 1154.56 -1.24296 5.56693 0
M  V30 12274 O 1153.49 0.650752 5.98372 0
M  V30 12275 H 1157.32 1.30546 2.74211 0
M  V30 12276 H 1154.9 0.70091 1.31938 0
M  V30 12277 H 1156.79 -0.699109 4.1556 0
M  V30 12278 H 1155.46 -1.12112 3.03665 0
M  V30 12279 H 1154.37 1.13527 3.56458 0
M  V30 12280 H 1155.7 1.47489 4.69583 0
M  V30 12281 N 1157.35 -1.41121 0.701616 0
M  V30 12282 C 1158.26 -2.34565 0.0407815 0
M  V30 12283 C 1159.28 -1.56555 -0.75937 0
M  V30 12284 O 1160.45 -1.89008 -0.695542 0
M  V30 12285 C 1157.52 -3.35347 -0.879954 0
M  V30 12286 C 1156.58 -4.29241 -0.0713279 0
M  V30 12287 C 1155.81 -5.25209 -0.948211 0
M  V30 12288 O 1156.04 -5.26781 -2.18766 0
M  V30 12289 O 1154.97 -6.00605 -0.394657 0
M  V30 12290 H 1158.8 -2.92666 0.811188 0
M  V30 12291 H 1156.38 -1.42077 0.461991 0
M  V30 12292 H 1158.26 -3.9719 -1.40776 0
M  V30 12293 H 1156.94 -2.7968 -1.62975 0
M  V30 12294 H 1155.85 -3.70727 0.50122 0
M  V30 12295 H 1157.18 -4.88022 0.639935 0
M  V30 12296 N 1158.83 -0.446794 -1.51134 0
M  V30 12297 C 1160.08 0.118047 -2.01354 0
M  V30 12298 C 1160.39 1.42953 -1.33505 0
M  V30 12299 O 1161.6 2.07788 -1.74747 0
M  V30 12300 C 1160.05 0.260912 -3.58953 0
M  V30 12301 C 1159.66 -1.0407 -4.35745 0
M  V30 12302 C 1161.41 0.779014 -4.17291 0
M  V30 12303 C 1159.31 -0.862958 -5.8507 0
M  V30 12304 H 1158.24 0.0478915 -0.752478 0
M  V30 12305 H 1160.89 -0.577997 -1.74159 0
M  V30 12306 H 1159.28 1.02018 -3.82633 0
M  V30 12307 H 1160.45 -1.80903 -4.23805 0
M  V30 12308 H 1158.77 -1.48805 -3.88904 0
M  V30 12309 H 1161.36 0.928636 -5.26574 0
M  V30 12310 H 1161.71 1.76399 -3.7708 0
M  V30 12311 H 1162.24 0.0778022 -3.97724 0
M  V30 12312 H 1158.98 -1.82059 -6.2971 0
M  V30 12313 H 1158.5 -0.134588 -5.99649 0
M  V30 12314 H 1160.18 -0.51989 -6.44908 0
M  V30 12315 N 1160.31 1.56586 -0.178487 0
M  V30 12316 C 1161.26 2.19631 0.765822 0
M  V30 12317 C 1162.25 1.16247 1.23219 0
M  V30 12318 O 1163.46 1.34431 1.19701 0
M  V30 12319 H 1159.83 0.703661 0.265264 0
M  V30 12320 H 1161.8 2.97659 0.210207 0
M  V30 12321 C 1160.55 2.85686 1.98188 0
M  V30 12322 H 1159.87 3.64971 1.63206 0
M  V30 12323 H 1161.31 3.33259 2.62134 0
M  V30 12324 C 1159.77 1.85837 2.81009 0
M  V30 12325 O 1160.3 1.3483 3.78396 0
M  V30 12326 N 1158.51 1.54435 2.46167 0
M  V30 12327 H 1158.06 1.96107 1.67032 0
M  V30 12328 H 1158.01 0.878808 3.01868 0
M  V30 12329 N 1161.79 -0.095206 1.57312 0
M  V30 12330 C 1162.75 -1.09974 2.01093 0
M  V30 12331 C 1163.75 -1.32954 0.904424 0
M  V30 12332 O 1164.94 -1.29069 1.16991 0
M  V30 12333 C 1162.07 -2.4489 2.37153 0
M  V30 12334 H 1163.26 -0.722906 2.91057 0
M  V30 12335 H 1160.82 -0.340249 1.52552 0
M  V30 12336 H 1161.55 -2.8745 1.50143 0
M  V30 12337 H 1161.34 -2.29559 3.17876 0
M  V30 12338 H 1162.83 -3.17141 2.71683 0
M  V30 12339 N 1163.26 -1.53291 -0.366026 0
M  V30 12340 C 1164.51 -1.69451 -1.10872 0
M  V30 12341 C 1164.84 -0.446078 -1.89316 0
M  V30 12342 O 1164.09 0.571962 -1.87155 0
M  V30 12343 C 1164.39 -2.89547 -2.09517 0
M  V30 12344 C 1164.06 -4.26073 -1.47556 0
M  V30 12345 C 1162.72 -4.63199 -1.30386 0
M  V30 12346 C 1165.07 -5.10977 -1.02724 0
M  V30 12347 C 1162.4 -5.82866 -0.669666 0
M  V30 12348 C 1164.75 -6.31289 -0.407052 0
M  V30 12349 C 1163.42 -6.67128 -0.222839 0
M  V30 12350 H 1162.69 -0.620066 -0.405708 0
M  V30 12351 H 1165.33 -1.87475 -0.390563 0
M  V30 12352 H 1163.64 -2.66034 -2.87634 0
M  V30 12353 H 1165.34 -2.99245 -2.66933 0
M  V30 12354 H 1161.93 -3.9684 -1.61914 0
M  V30 12355 H 1166.11 -4.82844 -1.14783 0
M  V30 12356 H 1161.37 -6.09224 -0.515351 0
M  V30 12357 H 1165.54 -6.96381 -0.0514661 0
M  V30 12358 H 1163.17 -7.59718 0.270647 0
M  V30 12359 N 1164.74 0.6258 -1.44643 0
M  V30 12360 C 1165.97 1.41726 -1.51422 0
M  V30 12361 C 1166.39 1.87565 -0.14181 0
M  V30 12362 O 1165.75 1.59059 0.870054 0
M  V30 12363 C 1165.8 2.61012 -2.48807 0
M  V30 12364 O 1164.9 3.61029 -1.99328 0
M  V30 12365 H 1164.24 0.423855 -0.511119 0
M  V30 12366 H 1166.77 0.763336 -1.89827 0
M  V30 12367 H 1166.78 3.08489 -2.67018 0
M  V30 12368 H 1165.46 2.26995 -3.48491 0
M  V30 12369 H 1164.04 3.20325 -1.90909 0
M  V30 12370 N 1166.22 1.31629 0.866686 0
M  V30 12371 C 1167.47 1.22693 1.62228 0
M  V30 12372 C 1167.82 -0.212134 1.91227 0
M  V30 12373 O 1167.11 -1.1465 1.53512 0
M  V30 12374 C 1167.31 2.00775 2.95676 0
M  V30 12375 C 1167.14 3.52128 2.79708 0
M  V30 12376 C 1165.91 4.21476 2.78722 0
M  V30 12377 C 1168.11 4.47013 2.5433 0
M  V30 12378 N 1166.09 5.58963 2.53838 0
M  V30 12379 C 1167.46 5.72192 2.3874 0
M  V30 12380 C 1169.51 4.36404 2.39701 0
M  V30 12381 C 1168.22 6.8796 2.10008 0
M  V30 12382 C 1170.24 5.51959 2.12358 0
M  V30 12383 C 1169.6 6.76129 1.97559 0
M  V30 12384 H 1165.7 0.504088 0.597845 0
M  V30 12385 H 1168.29 1.65856 1.01979 0
M  V30 12386 H 1166.46 1.59975 3.53924 0
M  V30 12387 H 1168.19 1.83831 3.60539 0
M  V30 12388 H 1164.95 3.73478 2.91224 0
M  V30 12389 H 1165.37 6.31362 2.44358 0
M  V30 12390 H 1170.01 3.41066 2.49868 0
M  V30 12391 H 1167.73 7.83321 1.98578 0
M  V30 12392 H 1171.32 5.45669 2.01834 0
M  V30 12393 H 1170.2 7.64033 1.76701 0
M  V30 12394 N 1167.7 -1.08142 1.14644 0
M  V30 12395 C 1168.92 -1.84857 0.940349 0
M  V30 12396 C 1169.35 -1.81163 -0.506117 0
M  V30 12397 O 1168.71 -1.19869 -1.36019 0
M  V30 12398 C 1168.76 -3.30198 1.4492 0
M  V30 12399 O 1167.86 -4.07355 0.64308 0
M  V30 12400 H 1167.2 -0.572711 0.336003 0
M  V30 12401 H 1169.73 -1.36475 1.52432 0
M  V30 12402 H 1169.74 -3.81039 1.45854 0
M  V30 12403 H 1168.42 -3.32202 2.50229 0
M  V30 12404 H 1166.99 -3.66219 0.702698 0
M  V30 12405 N 1169.18 -0.941978 -1.26351 0
M  V30 12406 C 1170.13 -0.443011 -2.28342 0
M  V30 12407 C 1171.12 0.48013 -1.62453 0
M  V30 12408 O 1172.33 0.358255 -1.76399 0
M  V30 12409 H 1168.7 -0.124728 -0.741584 0
M  V30 12410 H 1170.67 -1.31573 -2.67827 0
M  V30 12411 C 1169.42 0.275675 -3.46605 0
M  V30 12412 H 1168.74 -0.425504 -3.97529 0
M  V30 12413 H 1170.18 0.589012 -4.19889 0
M  V30 12414 C 1168.64 1.49376 -3.01974 0
M  V30 12415 O 1169.17 2.59203 -3.06883 0
M  V30 12416 N 1167.38 1.35061 -2.57307 0
M  V30 12417 H 1166.93 0.457045 -2.53513 0
M  V30 12418 H 1166.88 2.16681 -2.27809 0
M  V30 12419 N 1170.66 1.40747 -0.709091 0
M  V30 12420 C 1171.88 2.05841 -0.253816 0
M  V30 12421 C 1172.31 1.53056 1.09341 0
M  V30 12422 O 1171.66 0.663181 1.68735 0
M  V30 12423 C 1171.71 3.59822 -0.236699 0
M  V30 12424 O 1170.82 4.04876 0.784168 0
M  V30 12425 H 1170.16 0.65295 -0.120631 0
M  V30 12426 H 1172.69 1.80266 -0.967749 0
M  V30 12427 H 1172.7 4.07936 -0.0721616 0
M  V30 12428 H 1171.37 3.97608 -1.21988 0
M  V30 12429 H 1169.95 3.68237 0.587884 0
M  V30 12430 N 1172.13 0.454803 1.50895 0
M  V30 12431 C 1173.06 -0.337982 2.31041 0
M  V30 12432 C 1174.04 -1.00523 1.37219 0
M  V30 12433 O 1175.23 -1.00553 1.66141 0
M  V30 12434 C 1172.36 -1.42964 3.1651 0
M  V30 12435 C 1171.31 -0.884907 4.18752 0
M  V30 12436 C 1170.64 -2.07363 4.92854 0
M  V30 12437 C 1171.94 0.0926716 5.22218 0
M  V30 12438 H 1173.63 0.33089 2.97566 0
M  V30 12439 H 1171.18 0.160577 1.43102 0
M  V30 12440 H 1173.13 -1.9916 3.71367 0
M  V30 12441 H 1171.86 -2.12705 2.47839 0
M  V30 12442 H 1170.52 -0.345031 3.64973 0
M  V30 12443 H 1170.16 -2.75764 4.2067 0
M  V30 12444 H 1169.86 -1.71545 5.62002 0
M  V30 12445 H 1171.39 -2.6408 5.5054 0
M  V30 12446 H 1172.8 -0.379568 5.72042 0
M  V30 12447 H 1171.2 0.3643 5.98993 0
M  V30 12448 H 1172.27 1.02383 4.73968 0
M  V30 12449 N 1173.61 -1.56489 0.186789 0
M  V30 12450 C 1174.54 -2.15911 -0.769104 0
M  V30 12451 C 1175.56 -1.11872 -1.18273 0
M  V30 12452 O 1176.75 -1.38999 -1.1199 0
M  V30 12453 C 1173.85 -2.69957 -2.04882 0
M  V30 12454 C 1173.02 -3.98812 -1.79631 0
M  V30 12455 C 1172.08 -4.37767 -2.9197 0
M  V30 12456 O 1171.1 -5.0535 -2.61935 0
M  V30 12457 N 1172.31 -4.0059 -4.20128 0
M  V30 12458 H 1175.07 -2.98561 -0.261007 0
M  V30 12459 H 1172.63 -1.61899 0.00453357 0
M  V30 12460 H 1174.62 -2.93006 -2.79158 0
M  V30 12461 H 1173.19 -1.91808 -2.46837 0
M  V30 12462 H 1172.41 -3.8398 -0.891776 0
M  V30 12463 H 1173.7 -4.82939 -1.60148 0
M  V30 12464 H 1173.1 -3.46213 -4.47385 0
M  V30 12465 H 1171.66 -4.28608 -4.91059 0
M  V30 12466 N 1175.09 0.086862 -1.5736 0
M  V30 12467 C 1176.04 1.12359 -2.03662 0
M  V30 12468 C 1177.03 1.40982 -0.939169 0
M  V30 12469 O 1178.24 1.40566 -1.12433 0
M  V30 12470 H 1174.61 0.379605 -0.649156 0
M  V30 12471 H 1176.58 0.706822 -2.89908 0
M  V30 12472 C 1175.33 2.43327 -2.48369 0
M  V30 12473 H 1174.66 2.22148 -3.324 0
M  V30 12474 H 1176.1 3.14351 -2.84534 0
M  V30 12475 C 1174.55 3.08214 -1.36036 0
M  V30 12476 O 1175.08 3.95659 -0.694063 0
M  V30 12477 N 1173.29 2.68596 -1.10927 0
M  V30 12478 H 1172.84 1.97578 -1.6529 0
M  V30 12479 H 1172.8 3.12336 -0.359679 0
M  V30 12480 N 1176.57 1.53483 0.357892 0
M  V30 12481 C 1177.8 1.73956 1.12013 0
M  V30 12482 C 1178.21 0.472053 1.82803 0
M  V30 12483 O 1177.57 -0.555499 1.7384 0
M  V30 12484 C 1177.62 2.91015 2.14459 0
M  V30 12485 O 1177.34 4.12862 1.4655 0
M  V30 12486 C 1178.84 3.23423 3.0317 0
M  V30 12487 H 1176.06 0.58161 0.334621 0
M  V30 12488 H 1178.6 2.00256 0.414467 0
M  V30 12489 H 1176.76 2.67087 2.80612 0
M  V30 12490 H 1177.17 4.78468 2.14869 0
M  V30 12491 H 1178.65 4.08717 3.71018 0
M  V30 12492 H 1179.12 2.39114 3.68404 0
M  V30 12493 H 1179.73 3.49305 2.42624 0
M  V30 12494 N 1178.05 -0.61812 1.44973 0
M  V30 12495 C 1178.99 -1.75059 1.53157 0
M  V30 12496 C 1179.99 -1.64554 0.402282 0
M  V30 12497 O 1181.19 -1.70475 0.577767 0
M  V30 12498 H 1177.57 -0.57817 0.480856 0
M  V30 12499 H 1179.54 -1.65281 2.48445 0
M  V30 12500 C 1178.29 -3.13423 1.50538 0
M  V30 12501 H 1177.61 -3.2216 2.36755 0
M  V30 12502 H 1179.05 -3.92521 1.60323 0
M  V30 12503 C 1177.51 -3.36127 0.228127 0
M  V30 12504 O 1178.04 -3.95618 -0.696364 0
M  V30 12505 N 1176.25 -2.90322 0.127142 0
M  V30 12506 H 1175.79 -2.42091 0.880317 0
M  V30 12507 H 1175.75 -3.05887 -0.726659 0
M  V30 12508 N 1179.52 -1.32087 -0.859693 0
M  V30 12509 C 1180.77 -1.21716 -1.60836 0
M  V30 12510 C 1181.09 0.220904 -1.94349 0
M  V30 12511 O 1182.29 0.446422 -2.67805 0
M  V30 12512 C 1180.75 -2.13143 -2.89997 0
M  V30 12513 C 1180.36 -3.62003 -2.63928 0
M  V30 12514 C 1182.1 -2.11596 -3.68004 0
M  V30 12515 C 1180.01 -4.45407 -3.89059 0
M  V30 12516 H 1178.94 -0.45199 -0.603507 0
M  V30 12517 H 1181.59 -1.57013 -0.949687 0
M  V30 12518 H 1179.97 -1.70755 -3.57294 0
M  V30 12519 H 1181.14 -4.12701 -2.04974 0
M  V30 12520 H 1179.46 -3.6563 -1.99258 0
M  V30 12521 H 1182.06 -2.71149 -4.6085 0
M  V30 12522 H 1182.4 -1.10568 -4.01348 0
M  V30 12523 H 1182.93 -2.52238 -3.07605 0
M  V30 12524 H 1179.67 -5.4723 -3.60859 0
M  V30 12525 H 1179.19 -3.99462 -4.47427 0
M  V30 12526 H 1180.87 -4.58149 -4.56846 0
M  V30 12527 N 1181 1.07532 -1.15215 0
M  V30 12528 C 1182.41 1.61567 -0.935568 0
M  V30 12529 C 1182.76 1.89085 0.523557 0
M  V30 12530 O 1181.89 1.65495 1.39429 0
M  V30 12531 C 1182.48 2.93531 -1.69189 0
M  V30 12532 C 1181.04 3.44316 -1.52063 0
M  V30 12533 C 1180.19 2.18404 -1.70866 0
M  V30 12534 H 1183.14 0.906431 -1.30267 0
M  V30 12535 H 1183.16 3.62377 -1.16031 0
M  V30 12536 H 1182.67 2.73471 -2.75381 0
M  V30 12537 H 1180.77 3.69462 -0.482567 0
M  V30 12538 H 1180.89 4.20478 -2.29642 0
M  V30 12539 H 1179.25 2.28012 -1.13502 0
M  V30 12540 H 1180.03 2.00841 -2.7842 0
M  V30 12541 N 1182.48 0.948665 1.2585 0
M  V30 12542 C 1183.43 0.434929 2.23813 0
M  V30 12543 C 1184.41 -0.472518 1.53805 0
M  V30 12544 O 1185.61 -0.306542 1.74325 0
M  V30 12545 C 1182.74 -0.291678 3.42059 0
M  V30 12546 C 1181.82 0.633493 4.19342 0
M  V30 12547 N 1182.21 1.76254 4.74097 0
M  V30 12548 C 1180.51 0.440528 4.43819 0
M  V30 12549 C 1181.21 2.33968 5.32573 0
M  V30 12550 N 1180.19 1.62687 5.18685 0
M  V30 12551 H 1183.99 1.29668 2.63749 0
M  V30 12552 H 1181.5 0.805431 1.4102 0
M  V30 12553 H 1183.5 -0.676811 4.1137 0
M  V30 12554 H 1182.16 -1.15011 3.03649 0
M  V30 12555 H 1183.17 2.14453 4.71413 0
M  V30 12556 H 1179.85 -0.375515 4.15808 0
M  V30 12557 H 1181.24 3.2914 5.85761 0
M  V30 12558 N 1183.96 -1.40369 0.716545 0
M  V30 12559 C 1185.18 -2.05704 0.264729 0
M  V30 12560 C 1185.61 -1.53634 -1.08527 0
M  V30 12561 O 1184.97 -0.67212 -1.68381 0
M  V30 12562 C 1185.01 -3.59692 0.255778 0
M  V30 12563 O 1184.12 -4.05286 -0.762686 0
M  V30 12564 H 1183.46 -0.652301 0.124092 0
M  V30 12565 H 1185.99 -1.7975 0.977295 0
M  V30 12566 H 1186 -4.07892 0.0937944 0
M  V30 12567 H 1184.67 -3.96955 1.24095 0
M  V30 12568 H 1183.25 -3.68543 -0.568347 0
M  V30 12569 N 1185.44 -0.462799 -1.50652 0
M  V30 12570 C 1186.4 0.324264 -2.26895 0
M  V30 12571 C 1187.4 0.927687 -1.31342 0
M  V30 12572 O 1188.59 0.798159 -1.54839 0
M  V30 12573 C 1185.72 1.46113 -3.08 0
M  V30 12574 H 1186.91 -0.344266 -2.97917 0
M  V30 12575 H 1184.47 -0.216631 -1.54791 0
M  V30 12576 H 1185.2 2.16496 -2.41454 0
M  V30 12577 H 1184.99 1.03433 -3.78212 0
M  V30 12578 H 1186.48 2.01655 -3.65684 0
M  V30 12579 N 1186.91 1.56388 -0.195085 0
M  V30 12580 C 1188.16 1.9758 0.443686 0
M  V30 12581 C 1188.49 1.08196 1.61629 0
M  V30 12582 O 1187.74 0.121061 1.95325 0
M  V30 12583 C 1188.04 3.44651 0.946051 0
M  V30 12584 C 1187.71 4.50758 -0.11318 0
M  V30 12585 C 1186.37 4.79499 -0.404229 0
M  V30 12586 C 1188.72 5.14534 -0.830899 0
M  V30 12587 C 1186.05 5.69307 -1.41797 0
M  V30 12588 C 1188.4 6.05438 -1.83379 0
M  V30 12589 C 1187.07 6.32535 -2.13204 0
M  V30 12590 H 1186.34 0.722995 0.162356 0
M  V30 12591 H 1188.98 1.8926 -0.292049 0
M  V30 12592 H 1187.29 3.50042 1.76006 0
M  V30 12593 H 1188.99 3.73878 1.44969 0
M  V30 12594 H 1185.58 4.28421 0.123833 0
M  V30 12595 H 1189.76 4.92421 -0.61927 0
M  V30 12596 H 1185.02 5.88575 -1.65496 0
M  V30 12597 H 1189.19 6.53915 -2.39516 0
M  V30 12598 H 1186.82 7.01924 -2.91902 0
M  V30 12599 N 1188.39 -0.0785156 1.57404 0
M  V30 12600 C 1189.64 -0.777722 1.86103 0
M  V30 12601 C 1189.95 -1.79079 0.786771 0
M  V30 12602 O 1191.16 -2.53908 0.961393 0
M  V30 12603 C 1189.62 -1.43407 3.30095 0
M  V30 12604 C 1189.22 -0.459912 4.45633 0
M  V30 12605 C 1190.97 -2.11603 3.68 0
M  V30 12606 C 1188.88 -1.12179 5.80663 0
M  V30 12607 H 1187.81 -0.294205 0.694233 0
M  V30 12608 H 1190.46 -0.0309003 1.83474 0
M  V30 12609 H 1188.84 -2.22892 3.27315 0
M  V30 12610 H 1190.01 0.304642 4.59792 0
M  V30 12611 H 1188.33 0.117242 4.16235 0
M  V30 12612 H 1190.92 -2.61887 4.66175 0
M  V30 12613 H 1191.27 -2.91244 2.9746 0
M  V30 12614 H 1191.8 -1.38958 3.72741 0
M  V30 12615 H 1188.54 -0.365842 6.54478 0
M  V30 12616 H 1188.06 -1.85737 5.70317 0
M  V30 12617 H 1189.74 -1.64355 6.25777 0
M  V30 12618 N 1189.87 -1.5367 -0.349747 0
M  V30 12619 C 1191.1 -1.74858 -1.11532 0
M  V30 12620 C 1191.52 -0.483591 -1.81777 0
M  V30 12621 O 1190.88 0.563399 -1.72324 0
M  V30 12622 C 1190.93 -2.92479 -2.10923 0
M  V30 12623 O 1190.03 -2.62194 -3.18321 0
M  V30 12624 H 1189.37 -0.580219 -0.322865 0
M  V30 12625 H 1191.9 -2.00611 -0.402033 0
M  V30 12626 H 1191.91 -3.19093 -2.54252 0
M  V30 12627 H 1190.59 -3.84228 -1.59191 0
M  V30 12628 H 1189.16 -2.46448 -2.79853 0
M  V30 12629 N 1191.35 0.610423 -1.45298 0
M  V30 12630 C 1192.76 1.19234 -1.43667 0
M  V30 12631 C 1193.11 1.95523 -0.162794 0
M  V30 12632 O 1192.24 2.03507 0.735789 0
M  V30 12633 C 1192.83 2.16892 -2.60276 0
M  V30 12634 C 1191.39 2.70465 -2.61774 0
M  V30 12635 C 1190.54 1.45821 -2.35863 0
M  V30 12636 H 1193.49 0.399895 -1.53579 0
M  V30 12637 H 1193.51 2.99875 -2.34212 0
M  V30 12638 H 1193.02 1.61339 -3.52975 0
M  V30 12639 H 1191.12 3.29965 -1.73072 0
M  V30 12640 H 1191.23 3.15092 -3.60907 0
M  V30 12641 H 1189.6 1.74678 -1.85364 0
M  V30 12642 H 1190.38 0.921403 -3.30704 0
M  V30 12643 N 1192.83 1.32541 0.852676 0
M  V30 12644 C 1193.77 1.21643 1.96142 0
M  V30 12645 C 1194.74 0.0981496 1.6581 0
M  V30 12646 O 1195.93 0.27404 1.88822 0
M  V30 12647 C 1193.07 0.947483 3.31838 0
M  V30 12648 C 1192.18 2.15074 3.74656 0
M  V30 12649 C 1191.32 1.81711 4.99154 0
M  V30 12650 C 1190.36 2.98346 5.34468 0
M  V30 12651 N 1189.49 2.65062 6.50143 0
M  V30 12652 H 1194.33 2.16479 2.04795 0
M  V30 12653 H 1191.87 1.07664 1.00234 0
M  V30 12654 H 1193.83 0.772038 4.09994 0
M  V30 12655 H 1192.46 0.0359112 3.2278 0
M  V30 12656 H 1191.51 2.43639 2.92137 0
M  V30 12657 H 1192.82 3.02314 3.96747 0
M  V30 12658 H 1191.98 1.60729 5.85022 0
M  V30 12659 H 1190.71 0.916875 4.79004 0
M  V30 12660 H 1189.72 3.19956 4.47111 0
M  V30 12661 H 1190.94 3.89104 5.56574 0
M  V30 12662 H 1188.89 1.77582 6.31507 0
M  V30 12663 H 1188.81 3.45832 6.72262 0
M  V30 12664 H 1190.08 2.47516 7.39159 0
M  V30 12665 N 1194.3 -1.0692 1.15784 0
M  V30 12666 C 1195.55 -1.78983 0.929944 0
M  V30 12667 C 1195.87 -1.87884 -0.543969 0
M  V30 12668 O 1197.07 -2.56513 -0.889578 0
M  V30 12669 C 1195.53 -3.21657 1.61446 0
M  V30 12670 C 1195.14 -3.20943 3.12569 0
M  V30 12671 C 1196.88 -3.98299 1.46828 0
M  V30 12672 C 1194.79 -4.58298 3.73788 0
M  V30 12673 H 1193.72 -0.670809 0.344284 0
M  V30 12674 H 1196.37 -1.19975 1.38846 0
M  V30 12675 H 1194.75 -3.80885 1.08364 0
M  V30 12676 H 1195.92 -2.71334 3.72444 0
M  V30 12677 H 1194.24 -2.57799 3.26999 0
M  V30 12678 H 1196.84 -4.99822 1.89952 0
M  V30 12679 H 1197.18 -4.14213 0.416358 0
M  V30 12680 H 1197.71 -3.45577 1.97031 0
M  V30 12681 H 1194.45 -4.47588 4.789 0
M  V30 12682 H 1193.97 -5.08126 3.18698 0
M  V30 12683 H 1195.65 -5.27262 3.74972 0
M  V30 12684 N 1195.78 -0.955326 -1.25345 0
M  V30 12685 C 1197.03 -0.606149 -1.92377 0
M  V30 12686 C 1197.34 0.860927 -1.75634 0
M  V30 12687 O 1198.55 1.3201 -2.37246 0
M  V30 12688 C 1197.01 -1.03341 -3.44744 0
M  V30 12689 C 1196.61 -2.52308 -3.70196 0
M  V30 12690 C 1198.36 -0.756797 -4.17699 0
M  V30 12691 C 1196.27 -2.88831 -5.16072 0
M  V30 12692 H 1195.2 -0.222994 -0.720271 0
M  V30 12693 H 1197.85 -1.15987 -1.42194 0
M  V30 12694 H 1196.23 -0.408096 -3.93892 0
M  V30 12695 H 1197.4 -3.19864 -3.31698 0
M  V30 12696 H 1195.72 -2.77448 -3.10502 0
M  V30 12697 H 1198.31 -1.00583 -5.25154 0
M  V30 12698 H 1198.66 0.306794 -4.15168 0
M  V30 12699 H 1199.19 -1.34249 -3.74462 0
M  V30 12700 H 1195.93 -3.9421 -5.23716 0
M  V30 12701 H 1195.45 -2.25948 -5.55614 0
M  V30 12702 H 1197.13 -2.78061 -5.84201 0
M  V30 12703 N 1197.26 1.39987 -0.723979 0
M  V30 12704 C 1198.21 2.32507 -0.0658033 0
M  V30 12705 C 1199.2 1.52484 0.737908 0
M  V30 12706 O 1200.41 1.68225 0.640332 0
M  V30 12707 H 1196.78 0.751996 -0.00247717 0
M  V30 12708 H 1198.76 2.85657 -0.862696 0
M  V30 12709 C 1197.5 3.37509 0.835628 0
M  V30 12710 H 1196.83 3.99157 0.226589 0
M  V30 12711 H 1198.27 4.04722 1.26396 0
M  V30 12712 C 1196.73 2.73665 1.96492 0
M  V30 12713 O 1197.26 2.60649 3.05655 0
M  V30 12714 N 1195.46 2.3192 1.75104 0
M  V30 12715 H 1195.01 2.42707 0.863204 0
M  V30 12716 H 1194.97 1.89542 2.50841 0
M  V30 12717 N 1198.74 0.470782 1.50404 0
M  V30 12718 C 1199.99 -0.0841494 2.01925 0
M  V30 12719 C 1200.31 -1.40244 1.35487 0
M  V30 12720 O 1199.58 -1.89409 0.500111 0
M  V30 12721 H 1198.16 -0.0340884 0.746222 0
M  V30 12722 H 1200.82 0.621133 1.84738 0
M  V30 12723 H 1199.92 -0.235877 3.11207 0
M  V30 12724 N 1200.22 -1.56282 0.203376 0
M  V30 12725 C 1201.16 -2.19473 -0.714164 0
M  V30 12726 C 1202.13 -1.14454 -1.20372 0
M  V30 12727 O 1203.32 -1.42739 -1.26611 0
M  V30 12728 C 1200.46 -2.86451 -1.92457 0
M  V30 12729 C 1199.57 -4.06017 -1.47561 0
M  V30 12730 C 1198.71 -4.60829 -2.64216 0
M  V30 12731 C 1197.75 -5.72734 -2.15967 0
M  V30 12732 N 1196.88 -6.21916 -3.25829 0
M  V30 12733 H 1201.72 -2.97523 -0.168558 0
M  V30 12734 H 1199.26 -1.46926 -0.0714525 0
M  V30 12735 H 1201.22 -3.23459 -2.63496 0
M  V30 12736 H 1199.85 -2.10951 -2.44335 0
M  V30 12737 H 1198.9 -3.74617 -0.660784 0
M  V30 12738 H 1200.21 -4.8693 -1.08168 0
M  V30 12739 H 1199.37 -5.00185 -3.43366 0
M  V30 12740 H 1198.11 -3.7904 -3.06887 0
M  V30 12741 H 1197.11 -5.32899 -1.35273 0
M  V30 12742 H 1198.34 -6.56346 -1.74316 0
M  V30 12743 H 1196.28 -5.43047 -3.68016 0
M  V30 12744 H 1196.2 -6.97904 -2.90631 0
M  V30 12745 H 1197.47 -6.65927 -4.05168 0
M  V30 12746 N 1201.7 0.070167 -1.57444 0
M  V30 12747 C 1202.97 0.802108 -1.78397 0
M  V30 12748 C 1203.35 1.95706 -0.791356 0
M  V30 12749 O 1202.7 2.27827 0.17518 0
M  V30 12750 C 1202.91 1.27354 -3.24934 0
M  V30 12751 C 1204.26 1.70626 -3.88808 0
M  V30 12752 O 1205.28 1.36916 -3.28835 0
M  V30 12753 O 1204.14 2.33041 -4.94322 0
M  V30 12754 H 1201.24 0.384483 -0.73219 0
M  V30 12755 H 1203.78 0.0501168 -1.69626 0
M  V30 12756 H 1202.55 0.447204 -3.88736 0
M  V30 12757 H 1202.18 2.0868 -3.38435 0
M  V30 12758 N 1203.17 1.53854 0.341593 0
M  V30 12759 C 1204.42 1.71447 1.08322 0
M  V30 12760 C 1204.75 0.477289 1.88243 0
M  V30 12761 O 1204.03 -0.525695 1.87261 0
M  V30 12762 C 1204.31 2.97917 2.02281 0
M  V30 12763 C 1204.16 4.31847 1.25809 0
M  V30 12764 C 1205.48 3.20065 3.0207 0
M  V30 12765 H 1202.6 0.623847 0.392408 0
M  V30 12766 H 1205.24 1.86527 0.361594 0
M  V30 12767 H 1203.39 2.85191 2.63815 0
M  V30 12768 H 1205.07 4.56427 0.668737 0
M  V30 12769 H 1203.31 4.30169 0.560119 0
M  V30 12770 H 1203.98 5.16522 1.94704 0
M  V30 12771 H 1206.46 3.32135 2.50651 0
M  V30 12772 H 1205.33 4.09947 3.65013 0
M  V30 12773 H 1205.59 2.36452 3.73554 0
M  V30 12774 N 1204.65 -0.602709 1.4562 0
M  V30 12775 C 1205.56 -1.74132 1.5721 0
M  V30 12776 C 1206.58 -1.67909 0.456347 0
M  V30 12777 O 1207.75 -1.88178 0.717714 0
M  V30 12778 C 1204.82 -3.10604 1.54032 0
M  V30 12779 C 1203.88 -3.28244 2.76685 0
M  V30 12780 C 1203.11 -4.58205 2.73649 0
M  V30 12781 O 1203.34 -5.40836 1.81254 0
M  V30 12782 O 1202.27 -4.78663 3.64919 0
M  V30 12783 H 1206.1 -1.67304 2.53462 0
M  V30 12784 H 1203.68 -0.767381 1.28186 0
M  V30 12785 H 1205.56 -3.91904 1.54885 0
M  V30 12786 H 1204.24 -3.17913 0.60934 0
M  V30 12787 H 1203.14 -2.46514 2.81393 0
M  V30 12788 H 1204.48 -3.25814 3.68925 0
M  V30 12789 N 1206.13 -1.32992 -0.845635 0
M  V30 12790 C 1207.04 -1.24701 -1.98713 0
M  V30 12791 C 1208.06 -0.158864 -1.73273 0
M  V30 12792 O 1209.23 -0.381209 -1.97759 0
M  V30 12793 C 1206.3 -0.979524 -3.32575 0
M  V30 12794 C 1205.36 -2.15701 -3.71176 0
M  V30 12795 C 1204.59 -1.90219 -4.98651 0
M  V30 12796 O 1204.81 -0.849171 -5.64044 0
M  V30 12797 O 1203.75 -2.76571 -5.34595 0
M  V30 12798 H 1207.57 -2.20683 -2.08645 0
M  V30 12799 H 1205.16 -1.12971 -0.97765 0
M  V30 12800 H 1207.04 -0.847219 -4.12796 0
M  V30 12801 H 1205.72 -0.0499398 -3.23661 0
M  V30 12802 H 1204.62 -2.34483 -2.91494 0
M  V30 12803 H 1205.96 -3.0697 -3.84747 0
M  V30 12804 N 1207.61 1.06304 -1.1635 0
M  V30 12805 C 1208.85 1.79366 -0.94634 0
M  V30 12806 C 1209.19 1.86981 0.524569 0
M  V30 12807 O 1208.46 1.36134 1.38917 0
M  V30 12808 C 1208.74 3.23861 -1.57436 0
M  V30 12809 C 1208.6 3.24327 -3.1166 0
M  V30 12810 C 1209.92 4.21409 -1.26895 0
M  V30 12811 H 1207.04 0.65115 -0.345215 0
M  V30 12812 H 1209.68 1.24325 -1.43678 0
M  V30 12813 H 1207.83 3.70862 -1.15731 0
M  V30 12814 H 1209.5 2.85488 -3.62346 0
M  V30 12815 H 1207.74 2.62983 -3.44997 0
M  V30 12816 H 1208.41 4.2626 -3.50723 0
M  V30 12817 H 1210.89 3.8285 -1.62989 0
M  V30 12818 H 1209.77 5.20778 -1.73439 0
M  V30 12819 H 1210.03 4.41701 -0.187768 0
M  V30 12820 N 1209.09 0.96196 1.24836 0
M  V30 12821 C 1210.31 0.637709 1.97353 0
M  V30 12822 C 1210.74 -0.784919 1.7094 0
M  V30 12823 O 1210.09 -1.53188 0.969694 0
M  V30 12824 C 1210.14 0.911485 3.4889 0
M  V30 12825 O 1209.25 -0.00601668 4.124 0
M  V30 12826 H 1208.59 0.241685 0.618453 0
M  V30 12827 H 1211.12 1.29055 1.58764 0
M  V30 12828 H 1211.13 0.840702 3.99245 0
M  V30 12829 H 1209.8 1.9483 3.67442 0
M  V30 12830 H 1208.38 0.117597 3.72715 0
M  V30 12831 N 1210.56 -1.39601 0.731392 0
M  V30 12832 C 1211.8 -2.0244 0.282387 0
M  V30 12833 C 1212.17 -1.56776 -1.10839 0
M  V30 12834 O 1213.37 -2.11788 -1.65527 0
M  V30 12835 C 1211.64 -3.55409 0.376704 0
M  V30 12836 S 1213.2 -4.38799 0.00700932 0
M  V30 12837 H 1210.02 -0.7023 0.110886 0
M  V30 12838 H 1212.62 -1.70469 0.957111 0
M  V30 12839 H 1211.32 -3.86134 1.39027 0
M  V30 12840 H 1210.85 -3.92129 -0.315963 0
M  V30 12841 H 1212.87 -4.81213 -1.21032 0
M  V30 12842 N 1212.04 -0.478751 -1.50152 0
M  V30 12843 C 1213.29 0.07531 -2.01559 0
M  V30 12844 C 1213.6 1.40089 -1.36508 0
M  V30 12845 O 1214.81 2.04035 -1.79115 0
M  V30 12846 C 1213.27 0.184714 -3.59426 0
M  V30 12847 C 1212.87 -1.13289 -4.33439 0
M  V30 12848 C 1214.62 0.690326 -4.18849 0
M  V30 12849 C 1212.53 -0.986866 -5.83108 0
M  V30 12850 H 1211.46 0.0319196 -0.753324 0
M  V30 12851 H 1214.11 -0.614809 -1.72894 0
M  V30 12852 H 1212.49 0.938788 -3.84711 0
M  V30 12853 H 1213.66 -1.89852 -4.19872 0
M  V30 12854 H 1211.98 -1.57021 -3.8566 0
M  V30 12855 H 1214.57 0.816733 -5.28426 0
M  V30 12856 H 1214.92 1.68361 -3.80737 0
M  V30 12857 H 1215.45 -0.00657846 -3.97799 0
M  V30 12858 H 1212.19 -1.95375 -6.25707 0
M  V30 12859 H 1211.71 -0.261752 -5.99229 0
M  V30 12860 H 1213.39 -0.656567 -6.4366 0
M  V30 12861 N 1213.52 1.56172 -0.211661 0
M  V30 12862 C 1214.43 2.23468 0.714081 0
M  V30 12863 C 1215.45 1.23908 1.22159 0
M  V30 12864 O 1216.62 1.56693 1.26528 0
M  V30 12865 C 1213.69 2.89375 1.90953 0
M  V30 12866 C 1212.75 4.04251 1.44497 0
M  V30 12867 C 1211.98 4.67006 2.58343 0
M  V30 12868 O 1212.2 4.28721 3.76237 0
M  V30 12869 O 1211.14 5.56177 2.3011 0
M  V30 12870 H 1214.96 3.03219 0.170862 0
M  V30 12871 H 1212.55 1.49389 0.0183607 0
M  V30 12872 H 1214.43 3.3101 2.60787 0
M  V30 12873 H 1213.11 2.12591 2.44104 0
M  V30 12874 H 1212.01 3.67205 0.714932 0
M  V30 12875 H 1213.35 4.82748 0.959947 0
M  V30 12876 N 1215 -0.0618163 1.57479 0
M  V30 12877 C 1216.23 -0.771724 1.91969 0
M  V30 12878 C 1216.64 -1.7061 0.808549 0
M  V30 12879 O 1216 -1.812 -0.217455 0
M  V30 12880 C 1216.05 -1.55687 3.26257 0
M  V30 12881 O 1215.77 -0.660032 4.331 0
M  V30 12882 C 1217.27 -2.36688 3.74825 0
M  V30 12883 H 1214.49 -0.21885 0.634307 0
M  V30 12884 H 1217.04 -0.0291068 2.04479 0
M  V30 12885 H 1215.19 -2.25167 3.15244 0
M  V30 12886 H 1215.6 -1.20715 5.1042 0
M  V30 12887 H 1217.08 -2.8722 4.7139 0
M  V30 12888 H 1217.56 -3.1666 3.0434 0
M  V30 12889 H 1218.16 -1.72346 3.88815 0
M  V30 12890 N 1216.48 -1.54033 -0.333429 0
M  V30 12891 C 1217.41 -1.79056 -1.43079 0
M  V30 12892 C 1218.42 -0.672176 -1.48276 0
M  V30 12893 O 1219.61 -0.949103 -1.51176 0
M  V30 12894 C 1216.71 -1.88443 -2.81678 0
M  V30 12895 C 1215.88 -3.18493 -2.99802 0
M  V30 12896 C 1214.94 -3.18708 -4.18702 0
M  V30 12897 O 1213.97 -3.92389 -4.12334 0
M  V30 12898 N 1215.17 -2.41792 -5.27747 0
M  V30 12899 H 1217.94 -2.73753 -1.21981 0
M  V30 12900 H 1215.5 -1.53207 -0.523365 0
M  V30 12901 H 1217.49 -1.86027 -3.59411 0
M  V30 12902 H 1216.06 -1.00887 -2.95872 0
M  V30 12903 H 1215.28 -3.33951 -2.09453 0
M  V30 12904 H 1216.57 -4.04376 -3.088 0
M  V30 12905 H 1215.96 -1.81501 -5.35793 0
M  V30 12906 H 1214.52 -2.45163 -6.03936 0
M  V30 12907 N 1217.95 0.594978 -1.45938 0
M  V30 12908 C 1219.23 1.35477 -1.41086 0
M  V30 12909 C 1219.61 2.10917 -0.0879512 0
M  V30 12910 O 1218.96 2.08704 0.930323 0
M  V30 12911 C 1219.17 2.29106 -2.63271 0
M  V30 12912 C 1220.52 2.9132 -3.08898 0
M  V30 12913 O 1221.54 2.39423 -2.63733 0
M  V30 12914 O 1220.4 3.85553 -3.87313 0
M  V30 12915 H 1217.49 0.6081 -0.560485 0
M  V30 12916 H 1220.04 0.617016 -1.58085 0
M  V30 12917 H 1218.81 1.72707 -3.51124 0
M  V30 12918 H 1218.44 3.10241 -2.48669 0
M  V30 12919 N 1219.43 1.33438 0.838571 0
M  V30 12920 C 1220.38 1.23698 1.96981 0
M  V30 12921 C 1221.37 0.138299 1.68835 0
M  V30 12922 O 1222.58 0.302278 1.77444 0
M  V30 12923 H 1218.96 0.383874 0.646641 0
M  V30 12924 H 1220.93 2.19337 2.02321 0
M  V30 12925 C 1219.68 0.993362 3.33208 0
M  V30 12926 H 1219 1.83104 3.55405 0
M  V30 12927 H 1220.44 0.965517 4.1286 0
M  V30 12928 C 1218.9 -0.303701 3.35528 0
M  V30 12929 O 1219.43 -1.3103 3.79729 0
M  V30 12930 N 1217.63 -0.331342 2.88705 0
M  V30 12931 H 1217.18 0.488351 2.52929 0
M  V30 12932 H 1217.14 -1.199 2.9064 0
M  V30 12933 N 1220.91 -1.05686 1.16912 0
M  V30 12934 C 1221.84 -2.1329 0.839044 0
M  V30 12935 C 1222.86 -1.62047 -0.156392 0
M  V30 12936 O 1224.04 -1.78366 0.0692192 0
M  V30 12937 C 1221.14 -3.38122 0.229558 0
M  V30 12938 C 1220.32 -4.18659 1.26662 0
M  V30 12939 C 1219.38 -5.21842 0.675811 0
M  V30 12940 O 1218.4 -5.53049 1.3463 0
M  V30 12941 N 1219.6 -5.78034 -0.534532 0
M  V30 12942 H 1222.37 -2.42203 1.76515 0
M  V30 12943 H 1219.93 -1.2174 1.06729 0
M  V30 12944 H 1221.92 -4.04305 -0.178868 0
M  V30 12945 H 1220.49 -3.06783 -0.60023 0
M  V30 12946 H 1219.71 -3.4804 1.85099 0
M  V30 12947 H 1221 -4.6927 1.9663 0
M  V30 12948 H 1220.4 -5.54955 -1.09731 0
M  V30 12949 H 1218.96 -6.45763 -0.885087 0
M  V30 12950 N 1222.39 -0.968567 -1.24324 0
M  V30 12951 C 1223.34 -0.491346 -2.27351 0
M  V30 12952 C 1224.33 0.445563 -1.63435 0
M  V30 12953 O 1225.54 0.320758 -1.77119 0
M  V30 12954 H 1221.91 -0.14043 -0.738772 0
M  V30 12955 H 1223.88 -1.37224 -2.64976 0
M  V30 12956 C 1222.63 0.202093 -3.47112 0
M  V30 12957 H 1221.95 -0.50973 -3.96537 0
M  V30 12958 H 1223.39 0.499815 -4.21044 0
M  V30 12959 C 1221.85 1.42937 -3.05075 0
M  V30 12960 O 1222.38 2.52635 -3.12312 0
M  V30 12961 N 1220.59 1.29572 -2.60114 0
M  V30 12962 H 1220.14 0.403169 -2.54425 0
M  V30 12963 H 1220.09 2.118 -2.32353 0
M  V30 12964 N 1223.87 1.39211 -0.738786 0
M  V30 12965 C 1225.09 2.05256 -0.297421 0
M  V30 12966 C 1225.52 1.55341 1.06069 0
M  V30 12967 O 1224.87 0.698823 1.67291 0
M  V30 12968 C 1224.92 3.59239 -0.312969 0
M  V30 12969 O 1224.03 4.06448 0.698112 0
M  V30 12970 H 1223.37 0.650245 -0.134454 0
M  V30 12971 H 1225.9 1.78173 -1.00577 0
M  V30 12972 H 1225.91 4.07691 -0.158675 0
M  V30 12973 H 1224.58 3.94931 -1.30394 0
M  V30 12974 H 1223.16 3.69401 0.509643 0
M  V30 12975 N 1225.34 0.486708 1.49896 0
M  V30 12976 C 1226.25 -0.304222 2.32619 0
M  V30 12977 C 1227.27 -0.981103 1.43702 0
M  V30 12978 O 1228.45 -0.965639 1.76741 0
M  V30 12979 C 1225.51 -1.36301 3.18783 0
M  V30 12980 C 1224.57 -0.701082 4.23537 0
M  V30 12981 C 1223.81 -1.70943 5.05583 0
M  V30 12982 O 1224.03 -2.93773 4.88931 0
M  V30 12983 O 1222.96 -1.27263 5.88292 0
M  V30 12984 H 1226.79 0.37248 3.01407 0
M  V30 12985 H 1224.37 0.248277 1.47323 0
M  V30 12986 H 1226.26 -1.97594 3.72202 0
M  V30 12987 H 1224.93 -2.0229 2.52706 0
M  V30 12988 H 1223.84 -0.0487926 3.74068 0
M  V30 12989 H 1225.17 -0.0838817 4.92129 0
M  V30 12990 N 1226.82 -1.56058 0.219941 0
M  V30 12991 C 1228.07 -1.97869 -0.411383 0
M  V30 12992 C 1228.39 -1.10878 -1.60409 0
M  V30 12993 O 1227.66 -0.185454 -1.9502 0
M  V30 12994 H 1226.24 -0.730747 -0.154979 0
M  V30 12995 H 1228.9 -1.92379 0.312461 0
M  V30 12996 H 1228 -3.0323 -0.738798 0
M  V30 12997 N 1228.3 0.053464 -1.57509 0
M  V30 12998 C 1229.21 1.07902 -2.08313 0
M  V30 12999 C 1230.23 1.41223 -1.01647 0
M  V30 13000 O 1231.4 1.51032 -1.33233 0
M  V30 13001 C 1228.47 2.36813 -2.5322 0
M  V30 13002 C 1227.53 2.10297 -3.74264 0
M  V30 13003 C 1226.76 3.33062 -4.1702 0
M  V30 13004 O 1226.99 4.42857 -3.59491 0
M  V30 13005 O 1225.92 3.20195 -5.09665 0
M  V30 13006 H 1229.75 0.677368 -2.9605 0
M  V30 13007 H 1227.33 0.268838 -1.46961 0
M  V30 13008 H 1229.21 3.12645 -2.82544 0
M  V30 13009 H 1227.89 2.76323 -1.68605 0
M  V30 13010 H 1226.79 1.32111 -3.49996 0
M  V30 13011 H 1228.13 1.75658 -4.59788 0
M  V30 13012 N 1229.78 1.54207 0.325255 0
M  V30 13013 C 1230.74 1.82757 1.38321 0
M  V30 13014 C 1231.74 0.699312 1.44797 0
M  V30 13015 O 1232.93 0.96762 1.44854 0
M  V30 13016 C 1230.06 1.98608 2.7707 0
M  V30 13017 H 1231.26 2.7728 1.14261 0
M  V30 13018 H 1228.81 1.45899 0.560647 0
M  V30 13019 H 1229.55 1.0629 3.06387 0
M  V30 13020 H 1229.33 2.80707 2.73763 0
M  V30 13021 H 1230.82 2.2215 3.53609 0
M  V30 13022 N 1231.26 -0.58723 1.46251 0
M  V30 13023 C 1232.67 -0.910129 1.31106 0
M  V30 13024 C 1232.87 -1.99557 0.279141 0
M  V30 13025 O 1231.93 -2.50466 -0.319867 0
M  V30 13026 C 1233.24 -1.33177 2.69601 0
M  V30 13027 C 1234.79 -1.44486 2.77656 0
M  V30 13028 C 1235.27 -1.90018 4.16722 0
M  V30 13029 N 1236.76 -1.97219 4.19117 0
M  V30 13030 C 1237.49 -2.33714 5.23608 0
M  V30 13031 N 1236.99 -2.69034 6.3843 0
M  V30 13032 N 1238.78 -2.3423 5.10972 0
M  V30 13033 H 1230.93 0.12987 2.12003 0
M  V30 13034 H 1233.19 -0.00456718 0.947989 0
M  V30 13035 H 1232.9 -0.608243 3.464 0
M  V30 13036 H 1232.77 -2.29421 2.99409 0
M  V30 13037 H 1235.16 -2.15926 2.01147 0
M  V30 13038 H 1235.24 -0.465047 2.51537 0
M  V30 13039 H 1234.89 -1.19159 4.93724 0
M  V30 13040 H 1234.82 -2.88949 4.40245 0
M  V30 13041 H 1237.31 -1.72431 3.36268 0
M  V30 13042 H 1237.62 -2.95822 7.13939 0
M  V30 13043 H 1235.97 -2.66683 6.41798 0
M  V30 13044 H 1239.16 -2.06056 4.20308 0
M  V30 13045 H 1239.33 -2.62345 5.92519 0
M  V30 13046 N 1232.74 -1.33881 -0.831482 0
M  V30 13047 C 1233.68 -1.24741 -1.96322 0
M  V30 13048 C 1234.68 -0.147251 -1.68759 0
M  V30 13049 O 1235.88 -0.311684 -1.77281 0
M  V30 13050 H 1232.26 -0.387298 -0.644596 0
M  V30 13051 H 1234.23 -2.20407 -2.01155 0
M  V30 13052 C 1232.98 -1.01102 -3.32677 0
M  V30 13053 H 1232.3 -1.84986 -3.54429 0
M  V30 13054 H 1233.74 -0.987398 -4.12343 0
M  V30 13055 C 1232.2 0.285903 -3.35685 0
M  V30 13056 O 1232.73 1.29014 -3.80419 0
M  V30 13057 N 1230.94 0.316026 -2.88877 0
M  V30 13058 H 1230.48 -0.501758 -2.52666 0
M  V30 13059 H 1230.44 1.18357 -2.91271 0
M  V30 13060 N 1234.21 1.05064 -1.1747 0
M  V30 13061 C 1235.45 1.79662 -0.974724 0
M  V30 13062 C 1235.82 1.85699 0.487857 0
M  V30 13063 O 1237.02 2.56401 0.806954 0
M  V30 13064 C 1235.29 3.19597 -1.59976 0
M  V30 13065 S 1236.85 4.10657 -1.54615 0
M  V30 13066 H 1233.67 0.618746 -0.350249 0
M  V30 13067 H 1236.27 1.2605 -1.49438 0
M  V30 13068 H 1234.97 3.12807 -2.65669 0
M  V30 13069 H 1234.5 3.78286 -1.07996 0
M  V30 13070 H 1236.52 4.93086 -0.555033 0
M  V30 13071 N 1235.69 0.975146 1.23809 0
M  V30 13072 C 1236.93 0.649078 1.9382 0
M  V30 13073 C 1237.3 -0.801879 1.74453 0
M  V30 13074 O 1238.5 -1.23853 2.38567 0
M  V30 13075 C 1236.77 1.0225 3.42461 0
M  V30 13076 S 1238.33 0.812107 4.3122 0
M  V30 13077 H 1235.14 0.237878 0.670026 0
M  V30 13078 H 1237.75 1.25368 1.50011 0
M  V30 13079 H 1236.45 2.07523 3.54065 0
M  V30 13080 H 1235.98 0.408976 3.91268 0
M  V30 13081 H 1238 -0.306716 4.95251 0
M  V30 13082 N 1237.17 -1.38817 0.746158 0
M  V30 13083 C 1238.08 -2.34316 0.115386 0
M  V30 13084 C 1239.1 -1.58892 -0.709179 0
M  V30 13085 O 1240.27 -1.91126 -0.635059 0
M  V30 13086 C 1237.34 -3.37977 -0.772821 0
M  V30 13087 C 1236.4 -4.2925 0.0652679 0
M  V30 13088 C 1235.63 -5.2796 -0.78064 0
M  V30 13089 O 1235.85 -5.33474 -2.01896 0
M  V30 13090 O 1234.79 -6.01556 -0.20338 0
M  V30 13091 H 1238.61 -2.89937 0.903887 0
M  V30 13092 H 1236.2 -1.40536 0.506958 0
M  V30 13093 H 1238.08 -4.01468 -1.28068 0
M  V30 13094 H 1236.76 -2.84723 -1.53994 0
M  V30 13095 H 1235.66 -3.68945 0.61891 0
M  V30 13096 H 1237 -4.85739 0.794871 0
M  V30 13097 N 1238.65 -0.49465 -1.49636 0
M  V30 13098 C 1239.88 0.0491129 -2.06842 0
M  V30 13099 C 1240.29 1.31395 -1.35576 0
M  V30 13100 O 1239.65 1.7731 -0.432135 0
M  V30 13101 C 1239.7 0.313171 -3.60141 0
M  V30 13102 O 1239.42 -0.90152 -4.28724 0
M  V30 13103 C 1240.92 0.901284 -4.34041 0
M  V30 13104 H 1238.14 -0.0176186 -0.670769 0
M  V30 13105 H 1240.68 -0.690188 -1.92501 0
M  V30 13106 H 1238.84 1.00244 -3.74206 0
M  V30 13107 H 1239.25 -0.660477 -5.20325 0
M  V30 13108 H 1240.73 1.03567 -5.42197 0
M  V30 13109 H 1241.2 1.89746 -3.96097 0
M  V30 13110 H 1241.81 0.249677 -4.24566 0
M  V30 13111 N 1240.13 1.55939 -0.228214 0
M  V30 13112 C 1241.35 2.0332 0.409364 0
M  V30 13113 C 1241.78 1.10683 1.52088 0
M  V30 13114 O 1241.13 0.0962484 1.81044 0
M  V30 13115 C 1241.18 3.48877 0.911981 0
M  V30 13116 O 1240.29 3.59378 2.02289 0
M  V30 13117 H 1239.63 0.657625 0.0917909 0
M  V30 13118 H 1242.16 2.01605 -0.348802 0
M  V30 13119 H 1242.17 3.89331 1.22007 0
M  V30 13120 H 1240.84 4.15783 0.0984902 0
M  V30 13121 H 1239.42 3.30815 1.72093 0
M  V30 13122 N 1241.6 -0.0451101 1.57535 0
M  V30 13123 C 1242.85 -0.738072 1.87711 0
M  V30 13124 C 1243.17 -1.7737 0.824579 0
M  V30 13125 O 1244.37 -2.51812 1.01503 0
M  V30 13126 C 1242.83 -1.36373 3.33062 0
M  V30 13127 C 1242.44 -0.365283 4.46508 0
M  V30 13128 C 1244.18 -2.0375 3.72406 0
M  V30 13129 C 1242.09 -0.998371 5.82912 0
M  V30 13130 H 1241.02 -0.279413 0.700317 0
M  V30 13131 H 1243.67 0.00802425 1.83498 0
M  V30 13132 H 1242.05 -2.15899 3.31969 0
M  V30 13133 H 1243.22 0.402102 4.59042 0
M  V30 13134 H 1241.54 0.205505 4.15893 0
M  V30 13135 H 1244.14 -2.51939 4.71625 0
M  V30 13136 H 1244.48 -2.84869 3.03571 0
M  V30 13137 H 1245.01 -1.3102 3.75604 0
M  V30 13138 H 1241.75 -0.226935 6.55107 0
M  V30 13139 H 1241.27 -1.73598 5.74129 0
M  V30 13140 H 1242.95 -1.51044 6.29122 0
M  V30 13141 N 1243.08 -1.54377 -0.317073 0
M  V30 13142 C 1244.5 -1.45232 -0.6618 0
M  V30 13143 C 1244.7 -0.630457 -1.91383 0
M  V30 13144 O 1243.75 -0.13181 -2.52156 0
M  V30 13145 C 1245.07 -2.89025 -0.829761 0
M  V30 13146 C 1246.62 -2.98967 -0.926685 0
M  V30 13147 C 1247.09 -4.43923 -1.12677 0
M  V30 13148 N 1248.58 -4.47564 -1.19335 0
M  V30 13149 C 1249.32 -5.56887 -1.36617 0
M  V30 13150 N 1248.81 -6.76167 -1.50899 0
M  V30 13151 N 1250.61 -5.44546 -1.39377 0
M  V30 13152 H 1242.76 -2.0629 0.505766 0
M  V30 13153 H 1245.02 -0.933615 0.164522 0
M  V30 13154 H 1244.73 -3.51695 0.0190945 0
M  V30 13155 H 1244.6 -3.35515 -1.72364 0
M  V30 13156 H 1246.99 -2.36421 -1.76604 0
M  V30 13157 H 1247.07 -2.55798 -0.00913402 0
M  V30 13158 H 1246.71 -5.07059 -0.29224 0
M  V30 13159 H 1246.64 -4.84708 -2.05829 0
M  V30 13160 H 1249.13 -3.61623 -1.09715 0
M  V30 13161 H 1249.45 -7.55242 -1.63796 0
M  V30 13162 H 1247.79 -6.79062 -1.47985 0
M  V30 13163 H 1250.98 -4.50311 -1.27819 0
M  V30 13164 H 1251.15 -6.29799 -1.52502 0
M  V30 13165 N 1244.56 0.579466 -1.4656 0
M  V30 13166 C 1245.49 1.70291 -1.53406 0
M  V30 13167 C 1246.51 1.57232 -0.422116 0
M  V30 13168 O 1247.69 1.64598 -0.69064 0
M  V30 13169 C 1244.79 3.08572 -1.40131 0
M  V30 13170 C 1243.97 3.47602 -2.65502 0
M  V30 13171 C 1243.03 4.64955 -2.4638 0
M  V30 13172 O 1242.05 4.70653 -3.20116 0
M  V30 13173 N 1243.25 5.60041 -1.52756 0
M  V30 13174 H 1246.02 1.64873 -2.50274 0
M  V30 13175 H 1243.58 0.765533 -1.42658 0
M  V30 13176 H 1245.57 3.84877 -1.25106 0
M  V30 13177 H 1244.14 3.0834 -0.514322 0
M  V30 13178 H 1243.36 2.60969 -2.95446 0
M  V30 13179 H 1244.65 3.70446 -3.48779 0
M  V30 13180 H 1244.05 5.58176 -0.919587 0
M  V30 13181 H 1242.61 6.35764 -1.43693 0
M  V30 13182 N 1246.04 1.3432 0.824371 0
M  V30 13183 C 1247.32 1.17178 1.56616 0
M  V30 13184 C 1247.7 -0.256195 2.0954 0
M  V30 13185 O 1247.04 -1.25732 1.90798 0
M  V30 13186 C 1247.25 2.22511 2.68867 0
M  V30 13187 C 1248.6 2.57414 3.37673 0
M  V30 13188 O 1249.63 2.2129 2.79122 0
M  V30 13189 O 1248.48 3.19462 4.43403 0
M  V30 13190 H 1245.58 0.454141 0.691147 0
M  V30 13191 H 1248.12 1.45948 0.865869 0
M  V30 13192 H 1246.9 3.18366 2.27505 0
M  V30 13193 H 1246.52 1.9491 3.46548 0
M  V30 13194 N 1247.52 -1.0444 1.18026 0
M  V30 13195 C 1248.74 -1.81772 0.998684 0
M  V30 13196 C 1249.17 -1.82682 -0.448225 0
M  V30 13197 O 1248.52 -1.24136 -1.32136 0
M  V30 13198 C 1248.57 -3.2542 1.55352 0
M  V30 13199 O 1247.68 -4.05103 0.772351 0
M  V30 13200 H 1247.02 -0.561731 0.354054 0
M  V30 13201 H 1249.55 -1.31557 1.56697 0
M  V30 13202 H 1249.56 -3.76206 1.57903 0
M  V30 13203 H 1248.23 -3.24073 2.60672 0
M  V30 13204 H 1246.81 -3.63798 0.818852 0
M  V30 13205 N 1248.99 -0.981699 -1.2329 0
M  V30 13206 C 1250.27 -0.567659 -1.87182 0
M  V30 13207 C 1250.65 0.955194 -1.88253 0
M  V30 13208 O 1250 1.83245 -1.36504 0
M  V30 13209 C 1250.21 -1.17522 -3.28618 0
M  V30 13210 C 1251.56 -1.26877 -4.052 0
M  V30 13211 O 1252.58 -1.12877 -3.37842 0
M  V30 13212 O 1251.44 -1.49163 -5.2575 0
M  V30 13213 H 1248.53 -0.191315 -0.804567 0
M  V30 13214 H 1251.08 -1.07686 -1.31155 0
M  V30 13215 H 1249.85 -2.21735 -3.22411 0
M  V30 13216 H 1249.48 -0.650913 -3.92236 0
M  V30 13217 N 1250.47 1.3842 -0.753509 0
M  V30 13218 C 1251.7 2.04929 -0.319174 0
M  V30 13219 C 1252.12 1.56457 1.04416 0
M  V30 13220 O 1251.48 0.716527 1.6654 0
M  V30 13221 C 1251.53 3.58887 -0.351054 0
M  V30 13222 O 1250.63 4.07166 0.654963 0
M  V30 13223 H 1249.97 0.648782 -0.141343 0
M  V30 13224 H 1252.5 1.77096 -1.02461 0
M  V30 13225 H 1252.51 4.075 -0.201907 0
M  V30 13226 H 1251.19 3.93525 -1.34576 0
M  V30 13227 H 1249.77 3.69921 0.470435 0
M  V30 13228 N 1251.95 0.502579 1.49372 0
M  V30 13229 C 1253.18 -0.0403087 2.07361 0
M  V30 13230 C 1253.6 -1.29918 1.36026 0
M  V30 13231 O 1252.96 -1.76428 0.417488 0
M  V30 13232 C 1253.01 -0.275362 3.59547 0
M  V30 13233 O 1252.11 -1.34975 3.89686 0
M  V30 13234 H 1251.45 0.0269268 0.663454 0
M  V30 13235 H 1253.98 0.702652 1.92156 0
M  V30 13236 H 1253.99 -0.506392 4.04845 0
M  V30 13237 H 1252.67 0.644382 4.10878 0
M  V30 13238 H 1251.24 -1.10355 3.56197 0
M  V30 13239 N 1253.43 -1.55816 0.23648 0
M  V30 13240 C 1254.67 -1.98981 -0.391725 0
M  V30 13241 C 1255.01 -1.12428 -1.58346 0
M  V30 13242 O 1254.28 -0.185303 -1.93615 0
M  V30 13243 C 1254.57 -3.50831 -0.811759 0
M  V30 13244 C 1254.42 -4.48152 0.384648 0
M  V30 13245 C 1255.74 -4.07489 -1.66254 0
M  V30 13246 H 1252.86 -0.723404 -0.140911 0
M  V30 13247 H 1255.5 -1.87011 0.335706 0
M  V30 13248 H 1253.65 -3.61162 -1.43157 0
M  V30 13249 H 1255.32 -4.49814 1.02298 0
M  V30 13250 H 1253.56 -4.21406 1.02955 0
M  V30 13251 H 1254.23 -5.51979 0.0475809 0
M  V30 13252 H 1256.71 -4.00195 -1.13944 0
M  V30 13253 H 1255.59 -5.14026 -1.92531 0
M  V30 13254 H 1255.85 -3.55297 -2.6309 0
M  V30 13255 N 1254.91 0.036755 -1.57557 0
M  V30 13256 C 1256.13 0.744813 -1.93565 0
M  V30 13257 C 1256.56 1.68508 -0.835863 0
M  V30 13258 O 1255.91 1.80091 0.208986 0
M  V30 13259 C 1255.96 1.48461 -3.28621 0
M  V30 13260 O 1255.07 2.59739 -3.20327 0
M  V30 13261 H 1254.41 0.200866 -0.632889 0
M  V30 13262 H 1256.94 -0.00547543 -2.04599 0
M  V30 13263 H 1256.95 1.85622 -3.63329 0
M  V30 13264 H 1255.62 0.794953 -4.08232 0
M  V30 13265 H 1254.2 2.25176 -2.97237 0
M  V30 13266 N 1256.39 1.54543 0.308881 0
M  V30 13267 C 1257.66 1.64118 1.06418 0
M  V30 13268 C 1258.04 0.484402 2.05467 0
M  V30 13269 O 1257.39 -0.519752 2.2251 0
M  V30 13270 C 1257.6 3.01776 1.75306 0
M  V30 13271 C 1258.95 3.58324 2.27792 0
M  V30 13272 O 1259.97 3.04177 1.85351 0
M  V30 13273 O 1258.83 4.53113 3.05533 0
M  V30 13274 H 1255.93 0.665172 0.491401 0
M  V30 13275 H 1258.47 1.66889 0.307598 0
M  V30 13276 H 1257.24 3.77407 1.03341 0
M  V30 13277 H 1256.87 3.02748 2.57739 0
M  V30 13278 N 1257.86 -0.571685 1.46866 0
M  V30 13279 C 1258.81 -1.67992 1.58263 0
M  V30 13280 C 1259.78 -1.60535 0.426345 0
M  V30 13281 O 1260.97 -1.79584 0.644534 0
M  V30 13282 C 1258.11 -3.06327 1.58927 0
M  V30 13283 C 1257.22 -3.24328 2.85369 0
M  V30 13284 C 1256.35 -4.52976 2.77464 0
M  V30 13285 C 1255.39 -4.64359 3.98795 0
M  V30 13286 N 1254.53 -5.84345 3.89211 0
M  V30 13287 H 1259.37 -1.57589 2.52922 0
M  V30 13288 H 1256.91 -0.767883 1.25467 0
M  V30 13289 H 1258.86 -3.86411 1.57296 0
M  V30 13290 H 1257.49 -3.15601 0.677912 0
M  V30 13291 H 1256.55 -2.37774 2.96931 0
M  V30 13292 H 1257.86 -3.28605 3.7526 0
M  V30 13293 H 1257.01 -5.41303 2.74001 0
M  V30 13294 H 1255.75 -4.51155 1.85231 0
M  V30 13295 H 1254.76 -3.74448 4.02578 0
M  V30 13296 H 1255.98 -4.6795 4.92137 0
M  V30 13297 H 1253.93 -5.835 2.99772 0
M  V30 13298 H 1253.84 -5.89938 4.72768 0
M  V30 13299 H 1255.11 -6.75072 3.89741 0
M  V30 13300 N 1259.34 -1.34755 -0.817236 0
M  V30 13301 C 1260.27 -1.22648 -1.93624 0
M  V30 13302 C 1261.29 -0.152226 -1.62087 0
M  V30 13303 O 1262.48 -0.404578 -1.73855 0
M  V30 13304 C 1259.58 -0.863519 -3.27714 0
M  V30 13305 C 1258.75 -2.03394 -3.87233 0
M  V30 13306 C 1257.81 -1.64846 -4.99712 0
M  V30 13307 O 1256.83 -2.3658 -5.17705 0
M  V30 13308 N 1258.04 -0.565909 -5.77735 0
M  V30 13309 H 1260.8 -2.19051 -2.0454 0
M  V30 13310 H 1258.36 -1.27785 -0.994113 0
M  V30 13311 H 1260.35 -0.58733 -4.00415 0
M  V30 13312 H 1258.92 0.0104987 -3.12598 0
M  V30 13313 H 1258.14 -2.47454 -3.06856 0
M  V30 13314 H 1259.43 -2.81655 -4.23731 0
M  V30 13315 H 1258.83 0.030313 -5.65692 0
M  V30 13316 H 1257.39 -0.349467 -6.50862 0
M  V30 13317 N 1260.82 1.03812 -1.18578 0
M  V30 13318 C 1262.24 1.29271 -0.936011 0
M  V30 13319 C 1262.44 1.97551 0.396965 0
M  V30 13320 O 1261.49 2.25769 1.13069 0
M  V30 13321 C 1262.8 2.1489 -2.1034 0
M  V30 13322 C 1264.35 2.28228 -2.14198 0
M  V30 13323 C 1264.83 3.17214 -3.30362 0
M  V30 13324 N 1266.32 3.24802 -3.30239 0
M  V30 13325 C 1267.05 3.9382 -4.16765 0
M  V30 13326 N 1266.55 4.65147 -5.1343 0
M  V30 13327 N 1268.34 3.90125 -4.04671 0
M  V30 13328 H 1260.49 0.579011 -2.04356 0
M  V30 13329 H 1262.76 0.318021 -0.893066 0
M  V30 13330 H 1262.46 1.72029 -3.06755 0
M  V30 13331 H 1262.34 3.15576 -2.06619 0
M  V30 13332 H 1264.72 2.70324 -1.18359 0
M  V30 13333 H 1264.8 1.27124 -2.21976 0
M  V30 13334 H 1264.45 2.75829 -4.26475 0
M  V30 13335 H 1264.38 4.18356 -3.19821 0
M  V30 13336 H 1266.87 2.73994 -2.60261 0
M  V30 13337 H 1267.18 5.15414 -5.7582 0
M  V30 13338 H 1265.53 4.64043 -5.17387 0
M  V30 13339 H 1268.72 3.33536 -3.28438 0
M  V30 13340 H 1268.89 4.43641 -4.7232 0
M  V30 13341 N 1262.3 0.988223 1.22768 0
M  V30 13342 C 1263.23 0.492919 2.23837 0
M  V30 13343 C 1264.24 -0.409467 1.57567 0
M  V30 13344 O 1265.43 -0.21235 1.77232 0
M  V30 13345 C 1262.53 -0.305428 3.37521 0
M  V30 13346 C 1261.7 0.591966 4.33376 0
M  V30 13347 C 1260.76 -0.15387 5.25975 0
M  V30 13348 O 1259.79 0.459153 5.67345 0
M  V30 13349 N 1260.99 -1.43756 5.62418 0
M  V30 13350 H 1263.76 1.36199 2.66965 0
M  V30 13351 H 1261.32 0.862395 1.3702 0
M  V30 13352 H 1263.31 -0.812921 3.96451 0
M  V30 13353 H 1261.88 -1.07556 2.93514 0
M  V30 13354 H 1261.1 1.28019 3.72833 0
M  V30 13355 H 1262.39 1.20327 4.94367 0
M  V30 13356 H 1261.79 -1.95701 5.30771 0
M  V30 13357 H 1260.34 -1.89034 6.23786 0
M  V30 13358 N 1263.78 -1.38018 0.760839 0
M  V30 13359 C 1265 -2.04231 0.331285 0
M  V30 13360 C 1265.42 -1.57385 -1.04285 0
M  V30 13361 O 1264.78 -0.750168 -1.66369 0
M  V30 13362 C 1264.83 -3.59772 0.353021 0
M  V30 13363 O 1264.55 -4.049 1.67294 0
M  V30 13364 C 1266.05 -4.4321 -0.0894942 0
M  V30 13365 H 1263.27 -0.656145 0.140408 0
M  V30 13366 H 1265.81 -1.76567 1.03172 0
M  V30 13367 H 1263.97 -3.86246 -0.298735 0
M  V30 13368 H 1264.38 -4.99369 1.60408 0
M  V30 13369 H 1265.86 -5.51995 -0.0231262 0
M  V30 13370 H 1266.33 -4.2419 -1.13839 0
M  V30 13371 H 1266.94 -4.21939 0.533661 0
M  V30 13372 N 1265.25 -0.510493 -1.49103 0
M  V30 13373 C 1266.5 0.0325393 -2.01674 0
M  V30 13374 C 1266.82 1.37162 -1.39448 0
M  V30 13375 O 1268.02 2.00189 -1.83402 0
M  V30 13376 C 1266.48 0.108433 -3.59737 0
M  V30 13377 C 1266.09 -1.22458 -4.30939 0
M  V30 13378 C 1267.83 0.601326 -4.20219 0
M  V30 13379 C 1265.74 -1.11033 -5.80884 0
M  V30 13380 H 1264.67 0.0159333 -0.753832 0
M  V30 13381 H 1267.32 -0.651344 -1.71551 0
M  V30 13382 H 1265.7 0.856974 -3.86616 0
M  V30 13383 H 1266.87 -1.98715 -4.15751 0
M  V30 13384 H 1265.19 -1.65166 -3.82242 0
M  V30 13385 H 1267.79 0.704462 -5.30039 0
M  V30 13386 H 1268.13 1.60247 -3.84222 0
M  V30 13387 H 1268.66 -0.0909561 -3.97696 0
M  V30 13388 H 1265.4 -2.08603 -6.21422 0
M  V30 13389 H 1264.92 -0.388798 -5.98539 0
M  V30 13390 H 1266.6 -0.792949 -6.42123 0
M  V30 13391 N 1266.73 1.55688 -0.24474 0
M  V30 13392 C 1267.98 1.98067 0.381081 0
M  V30 13393 C 1268.29 1.13606 1.59227 0
M  V30 13394 O 1269.5 1.45988 2.2891 0
M  V30 13395 C 1267.96 3.52432 0.729385 0
M  V30 13396 C 1267.56 4.45629 -0.460282 0
M  V30 13397 C 1269.31 4.03471 1.31952 0
M  V30 13398 C 1267.21 5.91334 -0.088252 0
M  V30 13399 H 1266.14 0.739699 0.146157 0
M  V30 13400 H 1268.8 1.80235 -0.344615 0
M  V30 13401 H 1267.18 3.65951 1.51315 0
M  V30 13402 H 1268.35 4.43868 -1.23764 0
M  V30 13403 H 1266.67 4.05059 -0.965197 0
M  V30 13404 H 1269.26 5.09849 1.61116 0
M  V30 13405 H 1269.61 3.50691 2.24325 0
M  V30 13406 H 1270.14 3.93269 0.5987 0
M  V30 13407 H 1266.88 6.48147 -0.979069 0
M  V30 13408 H 1266.4 5.96235 0.652947 0
M  V30 13409 H 1268.08 6.46156 0.330324 0
M  V30 13410 N 1268.21 -0.0283989 1.57574 0
M  V30 13411 C 1269.46 -0.718121 1.88483 0
M  V30 13412 C 1269.77 -1.76485 0.843345 0
M  V30 13413 O 1270.98 -2.50721 1.04169 0
M  V30 13414 C 1269.43 -1.32832 3.3449 0
M  V30 13415 C 1269.04 -0.317905 4.46871 0
M  V30 13416 C 1270.79 -1.99788 3.74546 0
M  V30 13417 C 1268.69 -0.936489 5.83938 0
M  V30 13418 H 1267.62 -0.271969 0.703242 0
M  V30 13419 H 1270.27 0.0274862 1.83479 0
M  V30 13420 H 1268.66 -2.12366 3.34241 0
M  V30 13421 H 1269.83 0.450767 4.5859 0
M  V30 13422 H 1268.14 0.249605 4.15651 0
M  V30 13423 H 1270.74 -2.46923 4.74271 0
M  V30 13424 H 1271.08 -2.81633 3.06575 0
M  V30 13425 H 1271.62 -1.27029 3.76973 0
M  V30 13426 H 1268.36 -0.15744 6.55311 0
M  V30 13427 H 1267.88 -1.67499 5.75938 0
M  V30 13428 H 1269.56 -1.44363 6.30689 0
M  V30 13429 N 1269.69 -1.54705 -0.300681 0
M  V30 13430 C 1270.65 -1.84934 -1.35395 0
M  V30 13431 C 1271.65 -0.72226 -1.43666 0
M  V30 13432 O 1272.84 -0.990543 -1.43296 0
M  V30 13433 C 1269.97 -2.02991 -2.73875 0
M  V30 13434 H 1271.17 -2.79063 -1.09835 0
M  V30 13435 H 1268.72 -1.46772 -0.537365 0
M  V30 13436 H 1269.45 -1.11151 -3.04657 0
M  V30 13437 H 1269.24 -2.85027 -2.69262 0
M  V30 13438 H 1270.73 -2.27747 -3.5003 0
M  V30 13439 N 1271.17 0.563888 -1.47167 0
M  V30 13440 C 1272.44 1.32454 -1.43928 0
M  V30 13441 C 1272.82 2.10683 -0.13267 0
M  V30 13442 O 1272.17 2.1063 0.885845 0
M  V30 13443 C 1272.38 2.2347 -2.68071 0
M  V30 13444 C 1273.73 2.84702 -3.15008 0
M  V30 13445 O 1274.75 2.33775 -2.68752 0
M  V30 13446 O 1273.61 3.77251 -3.95404 0
M  V30 13447 H 1270.71 0.596074 -0.573258 0
M  V30 13448 H 1273.25 0.583345 -1.59359 0
M  V30 13449 H 1272.02 1.6522 -3.54708 0
M  V30 13450 H 1271.65 3.04897 -2.55193 0
M  V30 13451 N 1272.64 1.35187 0.810078 0
M  V30 13452 C 1273.87 1.31528 1.60359 0
M  V30 13453 C 1274.29 -0.105385 1.87805 0
M  V30 13454 O 1273.65 -1.07113 1.46276 0
M  V30 13455 C 1273.7 2.12429 2.91386 0
M  V30 13456 O 1272.8 1.50262 3.84051 0
M  V30 13457 H 1272.15 0.451122 0.487222 0
M  V30 13458 H 1274.68 1.78178 1.00568 0
M  V30 13459 H 1274.69 2.24257 3.40841 0
M  V30 13460 H 1273.36 3.15714 2.70735 0
M  V30 13461 H 1271.94 1.47253 3.42594 0
M  V30 13462 N 1274.12 -1.03182 1.19127 0
M  V30 13463 C 1275.53 -1.57984 0.994888 0
M  V30 13464 C 1275.88 -1.90898 -0.453019 0
M  V30 13465 O 1275.01 -1.70556 -1.33191 0
M  V30 13466 C 1275.6 -2.8705 1.79966 0
M  V30 13467 C 1274.16 -3.38435 1.64737 0
M  V30 13468 C 1273.31 -2.11912 1.78854 0
M  V30 13469 H 1276.26 -0.857458 1.33542 0
M  V30 13470 H 1276.28 -3.57821 1.294 0
M  V30 13471 H 1275.79 -2.63062 2.85341 0
M  V30 13472 H 1273.9 -3.67416 0.619358 0
M  V30 13473 H 1274.01 -4.11665 2.45089 0
M  V30 13474 H 1272.37 -2.23642 1.21886 0
M  V30 13475 H 1273.16 -1.90369 2.85682 0
M  V30 13476 N 1275.6 -0.99472 -1.22242 0
M  V30 13477 C 1276.83 -0.689809 -1.95592 0
M  V30 13478 C 1277.25 0.739321 -1.72961 0
M  V30 13479 O 1276.61 1.50563 -1.00997 0
M  V30 13480 C 1276.66 -1.00367 -3.46351 0
M  V30 13481 O 1275.76 -0.103326 -4.12271 0
M  V30 13482 H 1275.1 -0.257997 -0.611828 0
M  V30 13483 H 1277.63 -1.33219 -1.55286 0
M  V30 13484 H 1277.64 -0.946259 -3.96875 0
M  V30 13485 H 1276.32 -2.04504 -3.62148 0
M  V30 13486 H 1274.89 -0.216374 -3.72272 0
M  V30 13487 N 1277.08 1.37613 -0.768148 0
M  V30 13488 C 1278.49 1.82437 -0.396703 0
M  V30 13489 C 1278.84 1.64019 1.07668 0
M  V30 13490 O 1277.97 1.14932 1.83356 0
M  V30 13491 C 1278.56 3.31207 -0.713265 0
M  V30 13492 C 1277.12 3.74323 -0.39492 0
M  V30 13493 C 1276.27 2.60191 -0.958962 0
M  V30 13494 H 1279.22 1.26135 -0.963099 0
M  V30 13495 H 1279.24 3.805 0.00337228 0
M  V30 13496 H 1278.75 3.4458 -1.78567 0
M  V30 13497 H 1276.85 3.66521 0.670313 0
M  V30 13498 H 1276.96 4.70558 -0.900653 0
M  V30 13499 H 1275.33 2.51797 -0.383423 0
M  V30 13500 H 1276.11 2.76358 -2.03669 0
M  V30 13501 N 1278.56 0.518393 1.4883 0
M  V30 13502 C 1279.52 -0.23983 2.27942 0
M  V30 13503 C 1280.52 -0.878302 1.34694 0
M  V30 13504 O 1281.71 -0.740142 1.57694 0
M  V30 13505 C 1278.84 -1.34581 3.1321 0
M  V30 13506 H 1280.03 0.454599 2.96434 0
M  V30 13507 H 1277.59 0.273932 1.53881 0
M  V30 13508 H 1278.32 -2.07385 2.49323 0
M  V30 13509 H 1278.11 -0.893251 3.8179 0
M  V30 13510 H 1279.6 -1.87944 3.72917 0
M  V30 13511 N 1280.03 -1.55556 0.252993 0
M  V30 13512 C 1281.28 -1.99385 -0.370599 0
M  V30 13513 C 1281.61 -1.14101 -1.57145 0
M  V30 13514 O 1280.89 -0.205828 -1.93408 0
M  V30 13515 C 1281.17 -3.51672 -0.774503 0
M  V30 13516 C 1281.02 -4.47719 0.432159 0
M  V30 13517 C 1282.34 -4.0923 -1.61923 0
M  V30 13518 H 1279.46 -0.724858 -0.133231 0
M  V30 13519 H 1282.1 -1.86644 0.355522 0
M  V30 13520 H 1280.25 -3.62661 -1.39318 0
M  V30 13521 H 1281.93 -4.48704 1.07063 0
M  V30 13522 H 1280.17 -4.2029 1.07419 0
M  V30 13523 H 1280.84 -5.51898 0.106123 0
M  V30 13524 H 1283.32 -4.01381 -1.09693 0
M  V30 13525 H 1282.19 -5.16039 -1.87068 0
M  V30 13526 H 1282.45 -3.58067 -2.59307 0
M  V30 13527 N 1281.51 0.0200419 -1.57587 0
M  V30 13528 C 1282.74 0.724241 -1.94344 0
M  V30 13529 C 1283.16 1.67612 -0.853688 0
M  V30 13530 O 1282.52 1.80303 0.189873 0
M  V30 13531 C 1282.57 1.44967 -3.30177 0
M  V30 13532 O 1281.67 2.56326 -3.23064 0
M  V30 13533 H 1281.01 0.194142 -0.634984 0
M  V30 13534 H 1283.54 -0.0271756 -2.04582 0
M  V30 13535 H 1283.55 1.81758 -3.65278 0
M  V30 13536 H 1282.23 0.75161 -4.09052 0
M  V30 13537 H 1280.81 2.22011 -2.99609 0
M  V30 13538 N 1282.99 1.54862 0.292472 0
M  V30 13539 C 1284.24 1.74807 1.02813 0
M  V30 13540 C 1284.57 0.536935 1.8663 0
M  V30 13541 O 1283.84 -0.465854 1.88839 0
M  V30 13542 C 1284.13 3.04202 1.927 0
M  V30 13543 C 1283.98 4.35631 1.12006 0
M  V30 13544 C 1285.3 3.29514 2.91734 0
M  V30 13545 H 1282.42 0.636015 0.372362 0
M  V30 13546 H 1285.06 1.87583 0.302069 0
M  V30 13547 H 1283.21 2.9344 2.54608 0
M  V30 13548 H 1284.88 4.58323 0.52319 0
M  V30 13549 H 1283.13 4.31733 0.42298 0
M  V30 13550 H 1283.8 5.22454 1.78172 0
M  V30 13551 H 1286.27 3.39941 2.39957 0
M  V30 13552 H 1285.15 4.21352 3.51786 0
M  V30 13553 H 1285.41 2.48216 3.65843 0
M  V30 13554 N 1284.47 -0.556076 1.47464 0
M  V30 13555 C 1285.72 -1.30955 1.53407 0
M  V30 13556 C 1286.03 -1.94559 0.201485 0
M  V30 13557 O 1287.24 -2.71144 0.138925 0
M  V30 13558 C 1285.69 -2.37476 2.70431 0
M  V30 13559 C 1285.3 -1.80057 4.10224 0
M  V30 13560 C 1287.04 -3.13997 2.85668 0
M  V30 13561 C 1284.95 -2.84365 5.18547 0
M  V30 13562 H 1283.88 -0.4924 0.571015 0
M  V30 13563 H 1286.53 -0.590459 1.73741 0
M  V30 13564 H 1284.91 -3.12304 2.43479 0
M  V30 13565 H 1286.09 -1.11593 4.47083 0
M  V30 13566 H 1284.4 -1.16116 3.99882 0
M  V30 13567 H 1287 -3.91892 3.63764 0
M  V30 13568 H 1287.34 -3.68253 1.94153 0
M  V30 13569 H 1287.88 -2.46281 3.12395 0
M  V30 13570 H 1284.62 -2.34963 6.11942 0
M  V30 13571 H 1284.14 -3.51235 4.86203 0
M  V30 13572 H 1285.81 -3.47836 5.45545 0
M  V30 13573 N 1285.95 -1.35615 -0.802897 0
M  V30 13574 C 1287.18 -1.32217 -1.59142 0
M  V30 13575 C 1287.59 0.0995496 -1.88537 0
M  V30 13576 O 1286.95 1.05258 -1.49087 0
M  V30 13577 C 1287 -2.13048 -2.92049 0
M  V30 13578 O 1286.72 -3.49677 -2.63927 0
M  V30 13579 C 1288.22 -2.17278 -3.864 0
M  V30 13580 H 1285.44 -0.454054 -0.49404 0
M  V30 13581 H 1287.98 -1.78521 -0.997516 0
M  V30 13582 H 1286.14 -1.70334 -3.47944 0
M  V30 13583 H 1286.55 -3.917 -3.48814 0
M  V30 13584 H 1288.03 -2.7822 -4.76758 0
M  V30 13585 H 1288.5 -1.17253 -4.23259 0
M  V30 13586 H 1289.11 -2.6017 -3.3644 0
M  V30 13587 N 1287.43 1.02549 -1.19673 0
M  V30 13588 C 1288.67 1.75408 -0.995732 0
M  V30 13589 C 1288.99 1.89773 0.473863 0
M  V30 13590 O 1290.19 2.59638 0.793762 0
M  V30 13591 C 1288.65 3.15444 -1.73273 0
M  V30 13592 C 1288.26 3.09121 -3.24266 0
M  V30 13593 C 1290 3.92575 -1.61509 0
M  V30 13594 C 1287.91 4.44109 -3.9054 0
M  V30 13595 H 1286.84 0.657569 -0.368944 0
M  V30 13596 H 1289.49 1.14739 -1.43203 0
M  V30 13597 H 1287.87 3.76601 -1.22425 0
M  V30 13598 H 1289.05 2.57325 -3.82257 0
M  V30 13599 H 1287.36 2.45485 -3.36342 0
M  V30 13600 H 1289.96 4.92428 -2.08372 0
M  V30 13601 H 1290.3 4.12382 -0.569804 0
M  V30 13602 H 1290.83 3.38027 -2.09721 0
M  V30 13603 H 1287.57 4.29506 -4.95182 0
M  V30 13604 H 1287.09 4.95947 -3.37337 0
M  V30 13605 H 1288.77 5.12982 -3.94282 0
M  V30 13606 N 1288.9 1.00119 1.21713 0
M  V30 13607 C 1290.13 0.700172 1.95224 0
M  V30 13608 C 1290.55 -0.730138 1.73351 0
M  V30 13609 O 1289.91 -1.50026 1.01794 0
M  V30 13610 C 1289.96 1.02202 3.45814 0
M  V30 13611 O 1289.06 0.125188 4.1221 0
M  V30 13612 H 1288.4 0.261238 0.610451 0
M  V30 13613 H 1290.93 1.34041 1.54578 0
M  V30 13614 H 1290.94 0.967293 3.96368 0
M  V30 13615 H 1289.62 2.06422 3.61058 0
M  V30 13616 H 1288.2 0.236114 3.72152 0
M  V30 13617 N 1290.38 -1.37203 0.775435 0
M  V30 13618 C 1291.61 -2.04396 0.351737 0
M  V30 13619 C 1292.03 -1.58099 -1.01913 0
M  V30 13620 O 1291.39 -0.742932 -1.65379 0
M  V30 13621 C 1291.44 -3.58283 0.408105 0
M  V30 13622 O 1290.54 -4.08156 -0.590104 0
M  V30 13623 H 1289.88 -0.646451 0.151647 0
M  V30 13624 H 1292.41 -1.75443 1.05265 0
M  V30 13625 H 1292.42 -4.07127 0.266711 0
M  V30 13626 H 1291.1 -3.91335 1.40819 0
M  V30 13627 H 1289.67 -3.70622 -0.411524 0
M  V30 13628 N 1291.86 -0.526279 -1.48553 0
M  V30 13629 C 1293.14 0.073385 -1.95462 0
M  V30 13630 C 1293.52 1.51658 -1.46843 0
M  V30 13631 O 1292.86 2.17729 -0.693293 0
M  V30 13632 C 1293.07 -0.040041 -3.48977 0
M  V30 13633 C 1294.42 0.121108 -4.24427 0
M  V30 13634 O 1295.45 0.0339335 -3.56184 0
M  V30 13635 O 1294.31 0.303297 -5.45658 0
M  V30 13636 H 1291.4 0.0813498 -0.822989 0
M  V30 13637 H 1293.95 -0.590614 -1.59091 0
M  V30 13638 H 1292.72 -1.0455 -3.77074 0
M  V30 13639 H 1292.34 0.662975 -3.92034 0
M  V30 13640 N 1293.34 1.5542 -0.261239 0
M  V30 13641 C 1294.57 2.03687 0.363225 0
M  V30 13642 C 1294.98 1.14007 1.50492 0
M  V30 13643 O 1294.34 0.157349 1.8182 0
M  V30 13644 C 1294.39 3.51184 0.857435 0
M  V30 13645 O 1294.11 4.37449 -0.238776 0
M  V30 13646 C 1295.61 4.15277 1.55113 0
M  V30 13647 H 1292.83 0.665641 0.0846356 0
M  V30 13648 H 1295.37 2.00761 -0.389288 0
M  V30 13649 H 1293.53 3.54599 1.56008 0
M  V30 13650 H 1293.94 5.24316 0.138821 0
M  V30 13651 H 1295.42 5.20129 1.8485 0
M  V30 13652 H 1295.89 3.62619 2.47799 0
M  V30 13653 H 1296.5 4.15826 0.892695 0
M  V30 13654 N 1294.82 -0.0116844 1.57596 0
M  V30 13655 C 1296.09 -0.735344 1.81251 0
M  V30 13656 C 1296.47 -1.92634 0.863446 0
M  V30 13657 O 1295.82 -2.28321 -0.0905028 0
M  V30 13658 C 1296.03 -1.15206 3.29437 0
M  V30 13659 C 1297.38 -1.56078 3.94873 0
M  V30 13660 O 1298.4 -1.24618 3.3369 0
M  V30 13661 O 1297.26 -2.14534 5.0263 0
M  V30 13662 H 1294.36 -0.357044 0.745955 0
M  V30 13663 H 1296.9 0.0128733 1.69695 0
M  V30 13664 H 1295.67 -0.302619 3.90128 0
M  V30 13665 H 1295.3 -1.95975 3.45947 0
M  V30 13666 N 1296.29 -1.55015 -0.284256 0
M  V30 13667 C 1297.2 -1.90203 -1.37332 0
M  V30 13668 C 1298.22 -0.797994 -1.54622 0
M  V30 13669 O 1299.4 -1.09602 -1.68965 0
M  V30 13670 C 1296.46 -2.15687 -2.71441 0
M  V30 13671 C 1295.52 -3.39313 -2.62993 0
M  V30 13672 C 1294.75 -3.63571 -3.90707 0
M  V30 13673 O 1294.98 -2.90538 -4.9086 0
M  V30 13674 O 1293.91 -4.57102 -3.91589 0
M  V30 13675 H 1297.74 -2.82888 -1.1049 0
M  V30 13676 H 1295.32 -1.41418 -0.481798 0
M  V30 13677 H 1297.2 -2.33553 -3.50758 0
M  V30 13678 H 1295.88 -1.26185 -2.98092 0
M  V30 13679 H 1294.79 -3.26793 -1.82091 0
M  V30 13680 H 1296.12 -4.28997 -2.41293 0
M  V30 13681 N 1297.77 0.548248 -1.47757 0
M  V30 13682 C 1298.68 1.68178 -1.63565 0
M  V30 13683 C 1299.7 1.661 -0.518351 0
M  V30 13684 O 1300.87 1.85384 -0.787061 0
M  V30 13685 C 1297.94 3.04673 -1.65454 0
M  V30 13686 C 1297 3.17749 -2.88677 0
M  V30 13687 C 1296.23 4.47733 -2.90466 0
M  V30 13688 O 1296.46 5.33736 -2.01201 0
M  V30 13689 O 1295.39 4.64789 -3.82433 0
M  V30 13690 H 1299.22 1.57781 -2.59497 0
M  V30 13691 H 1296.8 0.719277 -1.30946 0
M  V30 13692 H 1298.68 3.85885 -1.69324 0
M  V30 13693 H 1297.36 3.15433 -0.726912 0
M  V30 13694 H 1296.26 2.359 -2.90348 0
M  V30 13695 H 1297.6 3.11897 -3.80763 0
M  V30 13696 N 1299.25 1.36039 0.795694 0
M  V30 13697 C 1300.16 1.31991 1.93948 0
M  V30 13698 C 1301.18 0.223064 1.72564 0
M  V30 13699 O 1302.35 0.454344 1.96208 0
M  V30 13700 C 1299.42 1.10228 3.28711 0
M  V30 13701 C 1298.48 2.29328 3.62914 0
M  V30 13702 C 1297.71 2.08595 4.91247 0
M  V30 13703 O 1297.93 1.05793 5.60503 0
M  V30 13704 O 1296.87 2.96222 5.23962 0
M  V30 13705 H 1300.69 2.28274 2.00311 0
M  V30 13706 H 1298.28 1.16521 0.935048 0
M  V30 13707 H 1300.16 0.999842 4.09367 0
M  V30 13708 H 1298.84 0.17003 3.23253 0
M  V30 13709 H 1297.74 2.4514 2.8259 0
M  V30 13710 H 1299.08 3.21038 3.73089 0
M  V30 13711 N 1300.73 -1.01913 1.20215 0
M  V30 13712 C 1301.96 -1.79076 1.03631 0
M  V30 13713 C 1302.37 -1.84192 -0.414583 0
M  V30 13714 O 1301.73 -1.29306 -1.28788 0
M  V30 13715 C 1301.78 -3.23665 1.61008 0
M  V30 13716 O 1301.5 -3.18873 3.00419 0
M  V30 13717 C 1303 -4.17387 1.49342 0
M  V30 13718 H 1300.22 -0.563241 0.364692 0
M  V30 13719 H 1302.77 -1.283 1.59246 0
M  V30 13720 H 1300.92 -3.71597 1.09518 0
M  V30 13721 H 1301.33 -4.09609 3.27598 0
M  V30 13722 H 1302.81 -5.16691 1.94253 0
M  V30 13723 H 1303.29 -4.36935 0.445493 0
M  V30 13724 H 1303.89 -3.75335 2.0001 0
M  V30 13725 N 1302.21 -1.00763 -1.2118 0
M  V30 13726 C 1303.43 -0.710515 -1.9485 0
M  V30 13727 C 1303.86 0.720934 -1.73736 0
M  V30 13728 O 1303.21 1.49484 -1.02588 0
M  V30 13729 C 1303.26 -1.04035 -3.45267 0
M  V30 13730 O 1302.37 -0.147047 -4.12138 0
M  V30 13731 H 1301.71 -0.264472 -0.609057 0
M  V30 13732 H 1304.24 -1.34858 -1.53865 0
M  V30 13733 H 1304.25 -0.9883 -3.95849 0
M  V30 13734 H 1302.92 -2.08334 -3.59958 0
M  V30 13735 H 1301.5 -0.255847 -3.72021 0
M  V30 13736 N 1303.68 1.3679 -0.7827 0
M  V30 13737 C 1304.62 2.28805 -0.13451 0
M  V30 13738 C 1305.63 1.49159 0.652338 0
M  V30 13739 O 1306.82 1.71682 0.488626 0
M  V30 13740 C 1303.92 3.28508 0.832802 0
M  V30 13741 C 1303.09 4.37291 0.0974435 0
M  V30 13742 C 1302.15 5.16999 0.979715 0
M  V30 13743 O 1301.18 5.67501 0.439439 0
M  V30 13744 N 1302.38 5.32786 2.30477 0
M  V30 13745 H 1305.14 2.85072 -0.924873 0
M  V30 13746 H 1302.7 1.48884 -0.636012 0
M  V30 13747 H 1304.7 3.78718 1.42671 0
M  V30 13748 H 1303.27 2.7293 1.52408 0
M  V30 13749 H 1302.49 3.88335 -0.677483 0
M  V30 13750 H 1303.77 5.07143 -0.410259 0
M  V30 13751 H 1303.17 4.93358 2.76793 0
M  V30 13752 H 1301.73 5.86264 2.84848 0
M  V30 13753 N 1305.16 0.53415 1.48272 0
M  V30 13754 C 1306.58 0.192291 1.58437 0
M  V30 13755 C 1306.78 -1.3046 1.53566 0
M  V30 13756 O 1305.83 -2.08316 1.42692 0
M  V30 13757 C 1307.15 0.798515 2.89904 0
M  V30 13758 C 1308.7 0.76763 3.03441 0
M  V30 13759 C 1309.17 1.3525 4.37574 0
M  V30 13760 N 1310.66 1.31466 4.44152 0
M  V30 13761 C 1311.4 1.73706 5.46456 0
M  V30 13762 N 1310.89 2.23695 6.55692 0
M  V30 13763 N 1312.69 1.64918 5.37363 0
M  V30 13764 H 1304.84 1.50696 1.49681 0
M  V30 13765 H 1307.1 0.627073 0.710973 0
M  V30 13766 H 1306.81 1.8496 2.99136 0
M  V30 13767 H 1306.68 0.278033 3.76174 0
M  V30 13768 H 1309.07 -0.274704 2.93819 0
M  V30 13769 H 1309.15 1.32562 2.18771 0
M  V30 13770 H 1308.79 2.39379 4.47951 0
M  V30 13771 H 1308.72 0.770153 5.20938 0
M  V30 13772 H 1311.21 0.948761 3.65796 0
M  V30 13773 H 1311.53 2.5391 7.29897 0
M  V30 13774 H 1309.87 2.27691 6.56644 0
M  V30 13775 H 1313.06 1.25658 4.50919 0
M  V30 13776 H 1313.23 1.98157 6.16958 0
M  V30 13777 N 1306.64 -1.55279 0.269478 0
M  V30 13778 C 1307.59 -2.18984 -0.634838 0
M  V30 13779 C 1308.57 -1.15269 -1.12258 0
M  V30 13780 O 1309.77 -1.41103 -1.0686 0
M  V30 13781 C 1306.9 -2.91014 -1.82114 0
M  V30 13782 C 1305.98 -4.02011 -1.35084 0
M  V30 13783 N 1306.37 -5.02273 -0.596299 0
M  V30 13784 C 1304.67 -4.14979 -1.63427 0
M  V30 13785 C 1305.37 -5.80647 -0.349781 0
M  V30 13786 N 1304.35 -5.35749 -0.92057 0
M  V30 13787 H 1308.15 -2.93857 -0.0504516 0
M  V30 13788 H 1305.66 -1.62237 0.0727843 0
M  V30 13789 H 1307.66 -3.35098 -2.48022 0
M  V30 13790 H 1306.32 -2.1765 -2.40953 0
M  V30 13791 H 1307.33 -5.17324 -0.244188 0
M  V30 13792 H 1304.01 -3.52802 -2.23242 0
M  V30 13793 H 1305.4 -6.71419 0.254139 0
M  V30 13794 N 1308.12 0.00332656 -1.576 0
M  V30 13795 C 1309.34 0.703587 -1.95101 0
M  V30 13796 C 1309.77 1.66697 -0.871418 0
M  V30 13797 O 1309.13 1.80494 0.170739 0
M  V30 13798 C 1309.17 1.41457 -3.31696 0
M  V30 13799 O 1308.28 2.52885 -3.25765 0
M  V30 13800 H 1307.62 0.187396 -0.637008 0
M  V30 13801 H 1310.15 -0.0488727 -2.04542 0
M  V30 13802 H 1310.16 1.77874 -3.67185 0
M  V30 13803 H 1308.83 0.708182 -4.09826 0
M  V30 13804 H 1307.41 2.18821 -3.01947 0
M  V30 13805 N 1309.6 1.55164 0.276031 0
M  V30 13806 C 1310.53 1.90844 1.34539 0
M  V30 13807 C 1311.51 0.769968 1.51676 0
M  V30 13808 O 1312.69 1.02785 1.64769 0
M  V30 13809 C 1309.82 2.17769 2.70543 0
M  V30 13810 C 1308.78 3.33592 2.68142 0
M  V30 13811 C 1308.1 3.45991 4.07669 0
M  V30 13812 C 1309.4 4.70064 2.27678 0
M  V30 13813 H 1311.1 2.80412 1.04926 0
M  V30 13814 H 1308.64 1.34918 0.503303 0
M  V30 13815 H 1310.6 2.41317 3.45462 0
M  V30 13816 H 1309.32 1.24997 3.01734 0
M  V30 13817 H 1307.98 3.10007 1.95681 0
M  V30 13818 H 1307.63 2.50691 4.36077 0
M  V30 13819 H 1307.33 4.23862 4.06958 0
M  V30 13820 H 1308.85 3.71828 4.84331 0
M  V30 13821 H 1310.26 4.93176 2.92319 0
M  V30 13822 H 1308.66 5.50829 2.38134 0
M  V30 13823 H 1309.73 4.69091 1.22808 0
M  V30 13824 N 1311.07 -0.540404 1.48045 0
M  V30 13825 C 1312.49 -0.867958 1.33935 0
M  V30 13826 C 1312.69 -1.98568 0.342488 0
M  V30 13827 O 1311.75 -2.51357 -0.240022 0
M  V30 13828 C 1313.06 -1.24532 2.73701 0
M  V30 13829 C 1314.61 -1.3558 2.82112 0
M  V30 13830 C 1315.08 -1.76664 4.22556 0
M  V30 13831 N 1316.57 -1.83785 4.25179 0
M  V30 13832 C 1317.31 -2.16938 5.30778 0
M  V30 13833 N 1316.8 -2.48587 6.46666 0
M  V30 13834 N 1318.6 -2.17855 5.18166 0
M  V30 13835 H 1310.75 0.197251 2.11482 0
M  V30 13836 H 1313.01 0.0255947 0.947654 0
M  V30 13837 H 1312.72 -0.497731 3.4816 0
M  V30 13838 H 1312.59 -2.19779 3.06556 0
M  V30 13839 H 1314.98 -2.09417 2.07915 0
M  V30 13840 H 1315.06 -0.384787 2.52889 0
M  V30 13841 H 1314.7 -1.03391 4.97265 0
M  V30 13842 H 1314.63 -2.74797 4.49215 0
M  V30 13843 H 1317.12 -1.61645 3.41583 0
M  V30 13844 H 1317.44 -2.72959 7.22989 0
M  V30 13845 H 1315.78 -2.4613 6.49958 0
M  V30 13846 H 1318.97 -1.9258 4.2665 0
M  V30 13847 H 1319.15 -2.43361 6.00566 0
M  V30 13848 N 1312.55 -1.36459 -0.788468 0
M  V30 13849 C 1313.46 -1.33017 -1.93245 0
M  V30 13850 C 1314.48 -0.232212 -1.72444 0
M  V30 13851 O 1315.65 -0.464743 -1.95965 0
M  V30 13852 C 1312.72 -1.1197 -3.28121 0
M  V30 13853 C 1311.78 -2.3125 -3.61693 0
M  V30 13854 C 1311.01 -2.11197 -4.90134 0
M  V30 13855 O 1311.24 -1.08764 -5.59934 0
M  V30 13856 O 1310.17 -2.98996 -5.22384 0
M  V30 13857 H 1314 -2.29333 -1.99098 0
M  V30 13858 H 1311.58 -1.17016 -0.928856 0
M  V30 13859 H 1313.46 -1.02154 -4.08831 0
M  V30 13860 H 1312.14 -0.187171 -3.23158 0
M  V30 13861 H 1311.05 -2.46635 -2.81286 0
M  V30 13862 H 1312.38 -3.23012 -3.71381 0
M  V30 13863 N 1314.03 1.01274 -1.20754 0
M  V30 13864 C 1315.27 1.7647 -1.03139 0
M  V30 13865 C 1315.63 1.87157 0.428531 0
M  V30 13866 O 1316.84 2.58839 0.724973 0
M  V30 13867 C 1315.11 3.14346 -1.70063 0
M  V30 13868 S 1316.67 4.05531 -1.67602 0
M  V30 13869 H 1313.48 0.60729 -0.369756 0
M  V30 13870 H 1316.09 1.21232 -1.53372 0
M  V30 13871 H 1314.79 3.04197 -2.75486 0
M  V30 13872 H 1314.32 3.74659 -1.19977 0
M  V30 13873 H 1316.34 4.91071 -0.711623 0
M  V30 13874 N 1315.51 1.01404 1.20644 0
M  V30 13875 C 1316.46 0.582109 2.23339 0
M  V30 13876 C 1317.43 -0.39649 1.61298 0
M  V30 13877 O 1318.61 -0.296504 1.88482 0
M  V30 13878 C 1315.75 -0.076029 3.45016 0
M  V30 13879 C 1314.86 0.946829 4.21496 0
M  V30 13880 C 1314 0.26001 5.30563 0
M  V30 13881 C 1313.04 1.2698 5.98784 0
M  V30 13882 N 1312.18 0.609827 6.99447 0
M  V30 13883 H 1317.02 1.46248 2.59645 0
M  V30 13884 H 1314.55 0.732145 1.27585 0
M  V30 13885 H 1316.51 -0.474714 4.1449 0
M  V30 13886 H 1315.14 -0.920062 3.0941 0
M  V30 13887 H 1314.19 1.4637 3.51113 0
M  V30 13888 H 1315.5 1.71491 4.68393 0
M  V30 13889 H 1314.66 -0.19431 6.06389 0
M  V30 13890 H 1313.4 -0.540395 4.84697 0
M  V30 13891 H 1312.4 1.73453 5.21722 0
M  V30 13892 H 1313.63 2.07144 6.46737 0
M  V30 13893 H 1311.57 -0.170756 6.55778 0
M  V30 13894 H 1311.49 1.31601 7.44458 0
M  V30 13895 H 1312.76 0.179014 7.79294 0
M  V30 13896 N 1316.99 -1.36373 0.789944 0
M  V30 13897 C 1318.24 -1.98834 0.361866 0
M  V30 13898 C 1318.56 -1.63006 -1.07024 0
M  V30 13899 O 1317.83 -0.904312 -1.73779 0
M  V30 13900 H 1316.41 -0.735457 0.130812 0
M  V30 13901 H 1319.07 -1.66561 1.0121 0
M  V30 13902 H 1318.16 -3.08778 0.454122 0
M  V30 13903 N 1318.47 -0.542005 -1.47987 0
M  V30 13904 C 1319.69 -0.0146835 -2.07395 0
M  V30 13905 C 1320.12 1.26266 -1.39422 0
M  V30 13906 O 1319.47 1.75259 -0.464118 0
M  V30 13907 C 1319.52 0.179937 -3.60151 0
M  V30 13908 O 1318.63 1.24596 -3.93128 0
M  V30 13909 H 1317.97 -0.0445076 -0.662507 0
M  V30 13910 H 1320.5 -0.753352 -1.90226 0
M  V30 13911 H 1320.51 0.398876 -4.06046 0
M  V30 13912 H 1319.18 -0.753093 -4.09025 0
M  V30 13913 H 1317.76 1.00872 -3.58997 0
M  V30 13914 N 1319.94 1.55134 -0.277709 0
M  V30 13915 C 1320.87 2.256 0.602232 0
M  V30 13916 C 1321.85 1.24708 1.15681 0
M  V30 13917 O 1323.04 1.53433 1.19046 0
M  V30 13918 C 1320.17 2.97907 1.78519 0
M  V30 13919 C 1319.12 4.0575 1.36203 0
M  V30 13920 C 1318.45 4.65644 2.62829 0
M  V30 13921 C 1319.75 5.19801 0.510327 0
M  V30 13922 H 1321.44 2.99396 0.0145622 0
M  V30 13923 H 1318.99 1.43999 0.00556389 0
M  V30 13924 H 1320.94 3.45915 2.40668 0
M  V30 13925 H 1319.67 2.21649 2.39873 0
M  V30 13926 H 1318.33 3.58557 0.763726 0
M  V30 13927 H 1317.97 3.86053 3.22447 0
M  V30 13928 H 1317.67 5.38463 2.35227 0
M  V30 13929 H 1319.2 5.16403 3.25823 0
M  V30 13930 H 1320.61 5.63845 1.03689 0
M  V30 13931 H 1319.01 5.99197 0.329073 0
M  V30 13932 H 1320.08 4.82614 -0.470273 0
M  V30 13933 N 1321.42 0.00503138 1.57599 0
M  V30 13934 C 1322.7 -0.716079 1.82021 0
M  V30 13935 C 1323.08 -1.91707 0.883829 0
M  V30 13936 O 1322.43 -2.28404 -0.0662812 0
M  V30 13937 C 1322.64 -1.11706 3.3064 0
M  V30 13938 C 1323.98 -1.51881 3.96506 0
M  V30 13939 O 1325.01 -1.21071 3.34993 0
M  V30 13940 O 1323.87 -2.09191 5.04877 0
M  V30 13941 H 1320.96 -0.349112 0.7497 0
M  V30 13942 H 1323.51 0.030871 1.69672 0
M  V30 13943 H 1322.28 -0.261223 3.90427 0
M  V30 13944 H 1321.9 -1.92295 3.48006 0
M  V30 13945 N 1322.9 -1.55308 -0.267798 0
M  V30 13946 C 1324.14 -1.77913 -1.0063 0
M  V30 13947 C 1324.5 -0.571149 -1.83308 0
M  V30 13948 O 1325.7 -0.675552 -2.60173 0
M  V30 13949 C 1323.98 -3.05112 -1.86123 0
M  V30 13950 S 1325.53 -3.48856 -2.66167 0
M  V30 13951 H 1322.35 -0.625065 -0.338843 0
M  V30 13952 H 1324.95 -1.93539 -0.276196 0
M  V30 13953 H 1323.66 -3.91118 -1.24317 0
M  V30 13954 H 1323.19 -2.92165 -2.63444 0
M  V30 13955 H 1325.2 -3.0854 -3.8861 0
M  V30 13956 N 1324.38 0.532545 -1.4833 0
M  V30 13957 C 1325.29 1.66433 -1.65339 0
M  V30 13958 C 1326.3 1.65541 -0.535939 0
M  V30 13959 O 1327.48 1.84539 -0.806679 0
M  V30 13960 C 1324.54 3.02901 -1.68676 0
M  V30 13961 C 1323.61 3.14669 -2.92031 0
M  V30 13962 C 1322.84 4.44627 -2.95199 0
M  V30 13963 O 1323.06 5.31572 -2.06851 0
M  V30 13964 O 1322 4.60707 -3.87341 0
M  V30 13965 H 1325.82 1.5502 -2.61156 0
M  V30 13966 H 1323.41 0.705348 -1.31701 0
M  V30 13967 H 1325.29 3.84068 -1.73407 0
M  V30 13968 H 1323.96 3.14644 -0.760327 0
M  V30 13969 H 1322.87 2.32807 -2.92834 0
M  V30 13970 H 1324.2 3.07841 -3.8405 0
M  V30 13971 N 1325.86 1.36875 0.78122 0
M  V30 13972 C 1326.82 1.31706 1.8758 0
M  V30 13973 C 1327.82 0.223044 1.59246 0
M  V30 13974 O 1329.01 0.478327 1.67504 0
M  V30 13975 C 1326.14 1.0437 3.2453 0
M  V30 13976 H 1327.33 2.29059 1.93576 0
M  V30 13977 H 1324.89 1.21766 0.979931 0
M  V30 13978 H 1325.62 0.0750941 3.24213 0
M  V30 13979 H 1325.41 1.83548 3.46486 0
M  V30 13980 H 1326.9 1.0338 4.04602 0
M  V30 13981 N 1327.33 -1.00632 1.21289 0
M  V30 13982 C 1328.57 -1.75921 1.04073 0
M  V30 13983 C 1328.94 -1.87381 -0.4186 0
M  V30 13984 O 1330.14 -2.5922 -0.711236 0
M  V30 13985 C 1328.41 -3.1344 1.71727 0
M  V30 13986 S 1329.97 -4.04636 1.6975 0
M  V30 13987 H 1326.79 -0.605321 0.372972 0
M  V30 13988 H 1329.39 -1.20417 1.54013 0
M  V30 13989 H 1328.09 -3.02731 2.77096 0
M  V30 13990 H 1327.62 -3.74017 1.21962 0
M  V30 13991 H 1329.64 -4.90686 0.737656 0
M  V30 13992 N 1328.81 -1.02043 -1.20104 0
M  V30 13993 C 1329.74 -0.552093 -2.22451 0
M  V30 13994 C 1330.76 0.367547 -1.58597 0
M  V30 13995 O 1331.95 0.165285 -1.77733 0
M  V30 13996 C 1329.05 0.215833 -3.38212 0
M  V30 13997 C 1328.22 -0.70666 -4.31654 0
M  V30 13998 C 1327.28 0.0143628 -5.26198 0
M  V30 13999 O 1326.3 -0.609413 -5.65928 0
M  V30 14000 N 1327.51 1.28794 -5.66032 0
M  V30 14001 H 1330.27 -1.43229 -2.6326 0
M  V30 14002 H 1327.83 -0.89842 -1.34685 0
M  V30 14003 H 1329.82 0.707523 -3.98467 0
M  V30 14004 H 1328.39 0.997358 -2.96263 0
M  V30 14005 H 1327.61 -1.37859 -3.69308 0
M  V30 14006 H 1328.9 -1.33392 -4.91003 0
M  V30 14007 H 1328.3 1.8156 -5.35773 0
M  V30 14008 H 1326.86 1.72429 -6.28579 0
M  V30 14009 N 1330.29 1.35952 -0.797165 0
M  V30 14010 C 1331.52 2.0381 -0.38421 0
M  V30 14011 C 1331.94 1.597 0.993854 0
M  V30 14012 O 1331.3 0.769148 1.64176 0
M  V30 14013 C 1331.35 3.57589 -0.465054 0
M  V30 14014 O 1330.45 4.09043 0.525095 0
M  V30 14015 H 1329.79 0.643957 -0.161912 0
M  V30 14016 H 1332.32 1.73746 -1.08043 0
M  V30 14017 H 1332.33 4.06651 -0.331448 0
M  V30 14018 H 1331.01 3.89045 -1.47027 0
M  V30 14019 H 1329.58 3.7123 0.352509 0
M  V30 14020 N 1331.77 0.549846 1.47697 0
M  V30 14021 C 1333 0.0276889 2.06881 0
M  V30 14022 C 1333.41 -1.26273 1.40359 0
M  V30 14023 O 1332.77 -1.75584 0.497644 0
M  V30 14024 C 1332.82 -0.179291 3.61055 0
M  V30 14025 O 1332.54 1.06002 4.25083 0
M  V30 14026 C 1334.04 -0.739571 4.37087 0
M  V30 14027 H 1331.26 0.0425016 0.669653 0
M  V30 14028 H 1333.81 0.761158 1.89807 0
M  V30 14029 H 1331.96 -0.862867 3.77668 0
M  V30 14030 H 1332.37 0.853137 5.17515 0
M  V30 14031 H 1333.85 -0.833722 5.45668 0
M  V30 14032 H 1334.33 -1.74915 4.02867 0
M  V30 14033 H 1334.93 -0.0919294 4.25201 0
M  V30 14034 N 1333.25 -1.54984 0.285932 0
M  V30 14035 C 1334.18 -2.25916 -0.590259 0
M  V30 14036 C 1335.16 -1.25319 -1.15018 0
M  V30 14037 O 1336.34 -1.54062 -1.18231 0
M  V30 14038 C 1333.47 -2.98849 -1.76936 0
M  V30 14039 C 1332.43 -4.06466 -1.3405 0
M  V30 14040 C 1331.75 -4.67032 -2.60356 0
M  V30 14041 C 1333.05 -5.20064 -0.482754 0
M  V30 14042 H 1334.75 -2.994 0.00131571 0
M  V30 14043 H 1332.29 -1.44 0.00207281 0
M  V30 14044 H 1334.25 -3.47186 -2.3883 0
M  V30 14045 H 1332.97 -2.22918 -2.38694 0
M  V30 14046 H 1331.63 -3.58957 -0.7447 0
M  V30 14047 H 1331.28 -3.87757 -3.20396 0
M  V30 14048 H 1330.98 -5.39703 -2.32368 0
M  V30 14049 H 1332.5 -5.18124 -3.23079 0
M  V30 14050 H 1333.91 -5.64387 -1.00697 0
M  V30 14051 H 1332.31 -5.99363 -0.297291 0
M  V30 14052 H 1333.38 -4.82358 0.495861 0
M  V30 14053 N 1334.72 -0.0133892 -1.57594 0
M  V30 14054 C 1335.67 0.991796 -2.10395 0
M  V30 14055 C 1336.67 1.34724 -1.02693 0
M  V30 14056 O 1337.87 1.33131 -1.21145 0
M  V30 14057 H 1334.25 0.337553 -0.671984 0
M  V30 14058 H 1336.22 0.52102 -2.93816 0
M  V30 14059 C 1334.97 2.27039 -2.63341 0
M  V30 14060 H 1334.29 2.00559 -3.45855 0
M  V30 14061 H 1335.73 2.95619 -3.0395 0
M  V30 14062 C 1334.19 2.98939 -1.55362 0
M  V30 14063 O 1334.72 3.90444 -0.944282 0
M  V30 14064 N 1332.93 2.60997 -1.27784 0
M  V30 14065 H 1332.47 1.86666 -1.77521 0
M  V30 14066 H 1332.43 3.09416 -0.557585 0
M  V30 14067 N 1336.2 1.55448 0.259558 0
M  V30 14068 C 1337.45 1.7589 0.987201 0
M  V30 14069 C 1337.76 0.574951 1.86959 0
M  V30 14070 O 1338.97 0.662091 2.63303 0
M  V30 14071 C 1337.43 3.11349 1.80526 0
M  V30 14072 C 1337.03 4.37353 0.970882 0
M  V30 14073 C 1338.78 3.41136 2.5264 0
M  V30 14074 C 1336.69 5.63847 1.7841 0
M  V30 14075 H 1335.62 0.655662 0.372321 0
M  V30 14076 H 1338.27 1.81893 0.242332 0
M  V30 14077 H 1336.65 2.9942 2.5916 0
M  V30 14078 H 1337.82 4.60237 0.227763 0
M  V30 14079 H 1336.14 4.14809 0.363669 0
M  V30 14080 H 1338.73 4.32855 3.13912 0
M  V30 14081 H 1339.08 2.61879 3.23612 0
M  V30 14082 H 1339.61 3.54224 1.81026 0
M  V30 14083 H 1336.35 6.4589 1.11834 0
M  V30 14084 H 1335.87 5.45086 2.50283 0
M  V30 14085 H 1337.55 6.02641 2.35441 0
M  V30 14086 N 1337.68 -0.524672 1.4861 0
M  V30 14087 C 1338.96 -1.28592 1.47389 0
M  V30 14088 C 1339.34 -2.10257 0.188482 0
M  V30 14089 O 1338.69 -2.12905 -0.829689 0
M  V30 14090 C 1338.9 -2.16284 2.73902 0
M  V30 14091 C 1340.24 -2.7625 3.22445 0
M  V30 14092 O 1341.27 -2.26567 2.74856 0
M  V30 14093 O 1340.13 -3.66635 4.05267 0
M  V30 14094 H 1337.22 -0.580666 0.58886 0
M  V30 14095 H 1339.77 -0.540888 1.60849 0
M  V30 14096 H 1338.54 -1.55757 3.58964 0
M  V30 14097 H 1338.16 -2.98024 2.63188 0
M  V30 14098 N 1339.16 -1.37287 -0.77395 0
M  V30 14099 C 1340.57 -1.18039 -1.0742 0
M  V30 14100 C 1340.77 -0.0150339 -2.01494 0
M  V30 14101 O 1339.83 0.645562 -2.44108 0
M  V30 14102 C 1341.14 -2.49808 -1.67382 0
M  V30 14103 C 1342.69 -2.5631 -1.7965 0
M  V30 14104 C 1343.17 -3.88204 -2.43025 0
M  V30 14105 N 1344.66 -3.89634 -2.50478 0
M  V30 14106 C 1345.39 -4.88437 -3.00361 0
M  V30 14107 N 1344.89 -5.97635 -3.50434 0
M  V30 14108 N 1346.68 -4.75843 -2.99215 0
M  V30 14109 H 1338.83 -2.11875 -0.149269 0
M  V30 14110 H 1341.1 -0.939203 -0.128846 0
M  V30 14111 H 1340.8 -3.35433 -1.05726 0
M  V30 14112 H 1340.68 -2.66737 -2.66704 0
M  V30 14113 H 1343.06 -1.71094 -2.40439 0
M  V30 14114 H 1343.14 -2.43266 -0.790894 0
M  V30 14115 H 1342.79 -4.73834 -1.82876 0
M  V30 14116 H 1342.72 -3.98551 -3.44187 0
M  V30 14117 H 1345.21 -3.10751 -2.15039 0
M  V30 14118 H 1345.52 -6.6898 -3.86893 0
M  V30 14119 H 1343.87 -6.01283 -3.48545 0
M  V30 14120 H 1347.06 -3.89656 -2.59395 0
M  V30 14121 H 1347.23 -5.52999 -3.37781 0
M  V30 14122 N 1340.64 0.999871 -1.21821 0
M  V30 14123 C 1341.57 2.08597 -0.925334 0
M  V30 14124 C 1342.55 1.62087 0.129103 0
M  V30 14125 O 1343.73 1.885 -0.000975316 0
M  V30 14126 C 1340.86 3.36443 -0.390388 0
M  V30 14127 C 1339.9 4.01869 -1.42842 0
M  V30 14128 S 1340.74 4.43618 -2.99938 0
M  V30 14129 C 1341.89 5.74644 -2.48064 0
M  V30 14130 H 1342.13 2.33119 -1.84507 0
M  V30 14131 H 1339.66 1.13339 -1.04851 0
M  V30 14132 H 1341.62 4.10405 -0.0883221 0
M  V30 14133 H 1340.28 3.09963 0.508115 0
M  V30 14134 H 1339.47 4.93902 -1.00385 0
M  V30 14135 H 1339.07 3.34202 -1.67883 0
M  V30 14136 H 1341.37 6.50642 -1.88869 0
M  V30 14137 H 1342.31 6.21919 -3.3856 0
M  V30 14138 H 1342.72 5.31709 -1.89593 0
M  V30 14139 N 1342.11 1.02678 1.19562 0
M  V30 14140 C 1343.35 0.7307 1.90893 0
M  V30 14141 C 1343.72 -0.727166 1.77697 0
M  V30 14142 O 1344.92 -1.13623 2.43605 0
M  V30 14143 C 1343.19 1.16683 3.37816 0
M  V30 14144 S 1344.75 0.994271 4.27387 0
M  V30 14145 H 1341.57 0.266082 0.659334 0
M  V30 14146 H 1344.17 1.31617 1.44558 0
M  V30 14147 H 1342.87 2.22354 3.44945 0
M  V30 14148 H 1342.4 0.574559 3.89182 0
M  V30 14149 H 1344.42 -0.0963871 4.96106 0
M  V30 14150 N 1343.59 -1.35528 0.804364 0
M  V30 14151 C 1344.82 -2.03604 0.395013 0
M  V30 14152 C 1345.24 -1.60225 -0.985371 0
M  V30 14153 O 1344.6 -0.777844 -1.63766 0
M  V30 14154 C 1344.65 -3.57337 0.484011 0
M  V30 14155 O 1343.75 -4.09316 -0.503395 0
M  V30 14156 H 1343.09 -0.643089 0.165325 0
M  V30 14157 H 1345.62 -1.73171 1.08963 0
M  V30 14158 H 1345.63 -4.0647 0.353009 0
M  V30 14159 H 1344.31 -3.8826 1.49088 0
M  V30 14160 H 1342.89 -3.71412 -0.332817 0
M  V30 14161 N 1345.07 -0.557671 -1.47404 0
M  V30 14162 C 1346 0.178019 -2.3282 0
M  V30 14163 C 1346.98 0.908318 -1.43818 0
M  V30 14164 O 1348.17 0.888693 -1.72673 0
M  V30 14165 C 1345.3 1.2082 -3.25607 0
M  V30 14166 C 1344.25 0.594335 -4.23853 0
M  V30 14167 C 1343.58 1.72919 -5.05968 0
M  V30 14168 C 1344.88 -0.452196 -5.20339 0
M  V30 14169 H 1346.57 -0.535091 -2.9458 0
M  V30 14170 H 1344.12 -0.258775 -1.41656 0
M  V30 14171 H 1346.07 1.73104 -3.84204 0
M  V30 14172 H 1344.79 1.95126 -2.61903 0
M  V30 14173 H 1343.45 0.0927898 -3.66483 0
M  V30 14174 H 1343.1 2.4613 -4.38668 0
M  V30 14175 H 1342.8 1.32422 -5.72484 0
M  V30 14176 H 1344.33 2.25527 -5.67424 0
M  V30 14177 H 1345.74 -0.0154011 -5.73298 0
M  V30 14178 H 1344.14 -0.776068 -5.95061 0
M  V30 14179 H 1345.21 -1.34791 -4.65789 0
M  V30 14180 N 1346.55 1.54831 -0.294147 0
M  V30 14181 C 1347.77 2.04873 0.32276 0
M  V30 14182 C 1348.2 1.17034 1.47257 0
M  V30 14183 O 1347.56 0.172949 1.80473 0
M  V30 14184 C 1347.61 3.52431 0.76319 0
M  V30 14185 O 1346.71 3.67635 1.86865 0
M  V30 14186 H 1346.05 0.660926 0.0638162 0
M  V30 14187 H 1348.58 1.99944 -0.433995 0
M  V30 14188 H 1348.59 3.94155 1.05385 0
M  V30 14189 H 1347.27 4.15827 -0.0779464 0
M  V30 14190 H 1345.84 3.37816 1.57907 0
M  V30 14191 N 1348.03 0.0217466 1.57585 0
M  V30 14192 C 1349.25 -0.67246 1.96196 0
M  V30 14193 C 1349.68 -1.6529 0.897827 0
M  V30 14194 O 1349.04 -1.80743 -0.142002 0
M  V30 14195 C 1349.08 -1.36162 3.33905 0
M  V30 14196 O 1348.19 -2.47671 3.29747 0
M  V30 14197 H 1347.53 -0.177238 0.639908 0
M  V30 14198 H 1350.06 0.0814073 2.04438 0
M  V30 14199 H 1350.07 -1.7201 3.69968 0
M  V30 14200 H 1348.74 -0.642893 4.10901 0
M  V30 14201 H 1347.32 -2.13989 3.0539 0
M  V30 14202 N 1349.51 -1.55583 -0.251311 0
M  V30 14203 C 1350.92 -1.67693 -0.820719 0
M  V30 14204 C 1351.27 -0.618393 -1.862 0
M  V30 14205 O 1350.39 0.236158 -2.15108 0
M  V30 14206 C 1350.99 -3.04011 -1.49542 0
M  V30 14207 C 1349.55 -3.18075 -2.01259 0
M  V30 14208 C 1348.69 -2.63557 -0.862138 0
M  V30 14209 H 1351.64 -1.58677 -0.0272072 0
M  V30 14210 H 1351.67 -2.9821 -2.36328 0
M  V30 14211 H 1351.18 -3.81032 -0.737323 0
M  V30 14212 H 1349.28 -2.45869 -2.79963 0
M  V30 14213 H 1349.39 -4.24927 -2.213 0
M  V30 14214 H 1347.76 -2.21268 -1.26145 0
M  V30 14215 H 1348.54 -3.431 -0.117196 0
M  V30 14216 N 1350.98 0.516783 -1.48886 0
M  V30 14217 C 1352.26 1.27808 -1.48069 0
M  V30 14218 C 1352.64 2.10154 -0.19963 0
M  V30 14219 O 1351.99 2.13342 0.818386 0
M  V30 14220 C 1352.2 2.14828 -2.75045 0
M  V30 14221 C 1353.55 2.74536 -3.23906 0
M  V30 14222 O 1354.57 2.25107 -2.76053 0
M  V30 14223 O 1353.43 3.6448 -4.07206 0
M  V30 14224 H 1350.52 0.577535 -0.591931 0
M  V30 14225 H 1353.07 0.532351 -1.61134 0
M  V30 14226 H 1351.84 1.53852 -3.59785 0
M  V30 14227 H 1351.46 2.96624 -2.64764 0
M  V30 14228 N 1352.46 1.37696 0.766659 0
M  V30 14229 C 1353.69 1.36564 1.56093 0
M  V30 14230 C 1354.11 -0.0455828 1.88045 0
M  V30 14231 O 1353.47 -1.02405 1.49609 0
M  V30 14232 C 1353.52 2.21592 2.84481 0
M  V30 14233 O 1352.62 1.62404 3.79076 0
M  V30 14234 H 1351.96 0.466394 0.472623 0
M  V30 14235 H 1354.49 1.81287 0.948486 0
M  V30 14236 H 1354.5 2.34987 3.33534 0
M  V30 14237 H 1353.18 3.24167 2.60554 0
M  V30 14238 H 1351.75 1.58078 3.37736 0
M  V30 14239 N 1353.94 -0.993397 1.22349 0
M  V30 14240 C 1355.17 -1.76838 1.07406 0
M  V30 14241 C 1355.58 -1.8503 -0.37542 0
M  V30 14242 O 1354.94 -1.32008 -1.26016 0
M  V30 14243 C 1354.99 -3.20177 1.67837 0
M  V30 14244 O 1354.71 -3.12429 3.07115 0
M  V30 14245 C 1356.21 -4.14125 1.58161 0
M  V30 14246 H 1353.43 -0.555379 0.376557 0
M  V30 14247 H 1355.98 -1.24893 1.61932 0
M  V30 14248 H 1354.13 -3.69191 1.17375 0
M  V30 14249 H 1354.55 -4.02568 3.36213 0
M  V30 14250 H 1356.02 -5.12455 2.05169 0
M  V30 14251 H 1356.5 -4.35892 0.538073 0
M  V30 14252 H 1357.1 -3.71008 2.07926 0
M  V30 14253 N 1355.42 -1.03311 -1.19015 0
M  V30 14254 C 1356.35 -0.638279 -2.24607 0
M  V30 14255 C 1357.33 0.354795 -1.66359 0
M  V30 14256 O 1358.51 0.236574 -1.92754 0
M  V30 14257 C 1355.64 0.00737316 -3.47299 0
M  V30 14258 C 1354.6 -0.908431 -4.18248 0
M  V30 14259 C 1353.92 -0.127658 -5.34548 0
M  V30 14260 C 1355.22 -2.2241 -4.72579 0
M  V30 14261 H 1356.92 -1.52099 -2.57888 0
M  V30 14262 H 1354.46 -0.732779 -1.23961 0
M  V30 14263 H 1356.42 0.295256 -4.20364 0
M  V30 14264 H 1355.14 0.924912 -3.1323 0
M  V30 14265 H 1353.8 -1.18058 -3.47071 0
M  V30 14266 H 1353.45 0.792048 -4.96725 0
M  V30 14267 H 1353.15 -0.737702 -5.82951 0
M  V30 14268 H 1354.67 0.153385 -6.10407 0
M  V30 14269 H 1356.09 -1.99745 -5.37378 0
M  V30 14270 H 1354.48 -2.78644 -5.31486 0
M  V30 14271 H 1355.55 -2.87584 -3.90415 0
M  V30 14272 N 1356.9 1.35099 -0.81154 0
M  V30 14273 C 1358.12 2.03391 -0.405805 0
M  V30 14274 C 1358.55 1.60745 0.97686 0
M  V30 14275 O 1357.9 0.786518 1.63351 0
M  V30 14276 C 1357.95 3.57075 -0.502954 0
M  V30 14277 O 1357.06 4.09577 0.481681 0
M  V30 14278 H 1356.4 0.642203 -0.168733 0
M  V30 14279 H 1358.93 1.72591 -1.0988 0
M  V30 14280 H 1358.94 4.06277 -0.37456 0
M  V30 14281 H 1357.61 3.87463 -1.51145 0
M  V30 14282 H 1356.19 3.71583 0.313115 0
M  V30 14283 N 1358.37 0.56548 1.47106 0
M  V30 14284 C 1359.6 0.0496298 2.0684 0
M  V30 14285 C 1360.02 -1.24777 1.4169 0
M  V30 14286 O 1359.37 -1.75046 0.516239 0
M  V30 14287 C 1359.42 -0.140987 3.61225 0
M  V30 14288 O 1359.15 1.10504 4.23934 0
M  V30 14289 C 1360.65 -0.693171 4.37847 0
M  V30 14290 H 1357.87 0.0496018 0.669164 0
M  V30 14291 H 1360.41 0.781247 1.88989 0
M  V30 14292 H 1358.57 -0.822762 3.78562 0
M  V30 14293 H 1358.98 0.907978 5.16581 0
M  V30 14294 H 1360.45 -0.7758 5.46521 0
M  V30 14295 H 1360.93 -1.70632 4.04699 0
M  V30 14296 H 1361.54 -0.046826 4.25274 0
M  V30 14297 N 1359.85 -1.54672 0.302354 0
M  V30 14298 C 1361.08 -2.05041 -0.311891 0
M  V30 14299 C 1361.5 -1.17814 -1.46634 0
M  V30 14300 O 1360.86 -0.182517 -1.80379 0
M  V30 14301 C 1360.91 -3.52831 -0.744489 0
M  V30 14302 O 1360.01 -3.68621 -1.84913 0
M  V30 14303 H 1359.35 -0.661255 -0.0603102 0
M  V30 14304 H 1361.88 -1.99711 0.444593 0
M  V30 14305 H 1361.89 -3.94708 -1.03293 0
M  V30 14306 H 1360.57 -4.1578 0.0999976 0
M  V30 14307 H 1359.15 -3.38649 -1.56113 0
M  V30 14308 N 1361.33 -0.0301034 -1.57571 0
M  V30 14309 C 1362.56 0.662045 -1.9655 0
M  V30 14310 C 1362.98 1.64811 -0.906581 0
M  V30 14311 O 1362.34 1.80816 0.132415 0
M  V30 14312 C 1362.39 1.34389 -3.34622 0
M  V30 14313 O 1361.49 2.45919 -3.31056 0
M  V30 14314 H 1360.83 0.173842 -0.640839 0
M  V30 14315 H 1363.36 -0.092248 -2.04392 0
M  V30 14316 H 1363.37 1.70045 -3.70875 0
M  V30 14317 H 1362.05 0.621092 -4.11236 0
M  V30 14318 H 1360.62 2.12367 -3.06521 0
M  V30 14319 N 1362.81 1.55714 0.243056 0
M  V30 14320 C 1364.03 1.82126 0.992219 0
M  V30 14321 C 1364.46 0.607665 1.78014 0
M  V30 14322 O 1363.82 -0.443351 1.75796 0
M  V30 14323 C 1363.86 3.06314 1.90274 0
M  V30 14324 O 1362.97 2.83499 2.99503 0
M  V30 14325 H 1362.31 0.601082 0.282128 0
M  V30 14326 H 1364.84 2.02904 0.262881 0
M  V30 14327 H 1364.85 3.35849 2.31666 0
M  V30 14328 H 1363.52 3.94282 1.32344 0
M  V30 14329 H 1362.1 2.65141 2.62211 0
M  V30 14330 N 1364.29 -0.50888 1.49158 0
M  V30 14331 C 1365.53 -1.261 1.57934 0
M  V30 14332 C 1365.86 -1.93199 0.264405 0
M  V30 14333 O 1365.13 -1.82359 -0.715684 0
M  V30 14334 H 1363.71 -0.468421 0.581886 0
M  V30 14335 H 1366.37 -0.590447 1.85741 0
M  V30 14336 H 1365.46 -2.02913 2.37135 0
M  V30 14337 N 1365.76 -1.381 -0.759346 0
M  V30 14338 C 1366.7 -1.3075 -1.88248 0
M  V30 14339 C 1367.71 -0.220835 -1.61295 0
M  V30 14340 O 1368.9 -0.477952 -1.71982 0
M  V30 14341 C 1366 -1.00174 -3.23757 0
M  V30 14342 C 1365.17 -2.19635 -3.78258 0
M  V30 14343 C 1364.23 -1.85892 -4.92271 0
M  V30 14344 O 1363.26 -2.58325 -5.07205 0
M  V30 14345 N 1364.46 -0.810436 -5.74815 0
M  V30 14346 H 1367.22 -2.27529 -1.95065 0
M  V30 14347 H 1364.78 -1.31886 -0.93902 0
M  V30 14348 H 1366.78 -0.756631 -3.97564 0
M  V30 14349 H 1365.35 -0.122094 -3.12361 0
M  V30 14350 H 1364.57 -2.60246 -2.96084 0
M  V30 14351 H 1365.85 -2.99373 -4.11404 0
M  V30 14352 H 1365.25 -0.209644 -5.65311 0
M  V30 14353 H 1363.81 -0.625206 -6.48795 0
M  V30 14354 N 1367.24 0.986894 -1.22875 0
M  V30 14355 C 1368.47 1.768 -1.08427 0
M  V30 14356 C 1368.89 1.84612 0.360555 0
M  V30 14357 O 1368.25 1.30299 1.26063 0
M  V30 14358 C 1368.3 3.17638 -1.70701 0
M  V30 14359 O 1367.4 4.00957 -0.964752 0
M  V30 14360 H 1366.74 0.544199 -0.380451 0
M  V30 14361 H 1369.27 1.23931 -1.62795 0
M  V30 14362 H 1369.28 3.68243 -1.75672 0
M  V30 14363 H 1367.96 3.11267 -2.75837 0
M  V30 14364 H 1366.54 3.59477 -0.991493 0
M  V30 14365 N 1368.72 1.0394 1.18466 0
M  V30 14366 C 1369.95 0.761926 1.92897 0
M  V30 14367 C 1370.37 -0.674618 1.75586 0
M  V30 14368 O 1369.73 -1.46711 1.06515 0
M  V30 14369 C 1369.78 1.13152 3.42387 0
M  V30 14370 O 1368.88 0.256266 4.11603 0
M  V30 14371 H 1368.22 0.280527 0.601831 0
M  V30 14372 H 1370.75 1.3889 1.50235 0
M  V30 14373 H 1370.76 1.0929 3.9309 0
M  V30 14374 H 1369.44 2.17804 3.54308 0
M  V30 14375 H 1368.01 0.354392 3.71212 0
M  V30 14376 N 1370.2 -1.34667 0.818693 0
M  V30 14377 C 1371.61 -1.80839 0.46414 0
M  V30 14378 C 1371.96 -1.67902 -1.01506 0
M  V30 14379 O 1371.09 -1.21658 -1.78964 0
M  V30 14380 C 1371.68 -3.28331 0.835698 0
M  V30 14381 C 1370.24 -3.72599 0.533575 0
M  V30 14382 C 1369.39 -2.56452 1.05487 0
M  V30 14383 H 1372.34 -1.22474 1.00925 0
M  V30 14384 H 1372.36 -3.8025 0.13785 0
M  V30 14385 H 1371.87 -3.37715 1.91233 0
M  V30 14386 H 1369.97 -3.68756 -0.533819 0
M  V30 14387 H 1370.08 -4.66891 1.07468 0
M  V30 14388 H 1368.45 -2.50201 0.476612 0
M  V30 14389 H 1369.23 -2.68608 2.13786 0
M  V30 14390 N 1371.68 -0.573274 -1.46804 0
M  V30 14391 C 1372.9 -0.0586717 -2.07317 0
M  V30 14392 C 1373.33 1.2328 -1.42069 0
M  V30 14393 O 1372.68 1.74235 -0.501188 0
M  V30 14394 C 1372.73 0.103503 -3.60451 0
M  V30 14395 O 1371.84 1.16229 -3.95682 0
M  V30 14396 H 1371.18 -0.0585504 -0.661414 0
M  V30 14397 H 1373.71 -0.793532 -1.88585 0
M  V30 14398 H 1373.72 0.312658 -4.068 0
M  V30 14399 H 1372.39 -0.839684 -4.07335 0
M  V30 14400 H 1370.97 0.932347 -3.61056 0
M  V30 14401 N 1373.15 1.5451 -0.310553 0
M  V30 14402 C 1374.57 1.85829 0.180166 0
M  V30 14403 C 1374.92 1.23239 1.52665 0
M  V30 14404 O 1374.04 0.53359 2.09718 0
M  V30 14405 C 1374.64 3.37153 0.333687 0
M  V30 14406 C 1373.2 3.68469 0.768625 0
M  V30 14407 C 1372.34 2.77051 -0.117399 0
M  V30 14408 H 1375.29 1.49544 -0.531262 0
M  V30 14409 H 1375.31 3.62171 1.16673 0
M  V30 14410 H 1374.83 3.82678 -0.646455 0
M  V30 14411 H 1372.93 3.28467 1.75898 0
M  V30 14412 H 1373.04 4.75559 0.581392 0
M  V30 14413 H 1371.4 2.51461 0.404905 0
M  V30 14414 H 1372.19 3.254 -1.09407 0
M  V30 14415 N 1374.63 0.0384594 1.57553 0
M  V30 14416 C 1375.87 -0.642187 1.9405 0
M  V30 14417 C 1376.24 -1.68753 0.915779 0
M  V30 14418 O 1377.44 -2.42133 1.16726 0
M  V30 14419 C 1375.71 -1.23422 3.35413 0
M  V30 14420 S 1377.27 -1.93464 3.93849 0
M  V30 14421 H 1374.09 -0.211198 0.678908 0
M  V30 14422 H 1376.69 0.104358 1.95221 0
M  V30 14423 H 1375.39 -0.461112 4.07801 0
M  V30 14424 H 1374.92 -2.01787 3.37707 0
M  V30 14425 H 1376.94 -3.21401 3.78042 0
M  V30 14426 N 1376.11 -1.55841 -0.234795 0
M  V30 14427 C 1377.06 -1.91326 -1.29086 0
M  V30 14428 C 1378.03 -0.768868 -1.47233 0
M  V30 14429 O 1379.21 -1.0236 -1.61019 0
M  V30 14430 C 1376.35 -2.22388 -2.6389 0
M  V30 14431 C 1375.47 -3.49693 -2.5365 0
M  V30 14432 C 1374.6 -3.70267 -3.80889 0
M  V30 14433 C 1373.64 -4.91132 -3.65317 0
M  V30 14434 N 1372.78 -5.08163 -4.84474 0
M  V30 14435 H 1377.62 -2.81382 -0.981246 0
M  V30 14436 H 1375.15 -1.3928 -0.47324 0
M  V30 14437 H 1377.11 -2.38404 -3.42373 0
M  V30 14438 H 1375.74 -1.35521 -2.92974 0
M  V30 14439 H 1374.79 -3.41943 -1.66672 0
M  V30 14440 H 1376.11 -4.38326 -2.38059 0
M  V30 14441 H 1375.26 -3.86308 -4.67815 0
M  V30 14442 H 1374 -2.7989 -3.9939 0
M  V30 14443 H 1373 -4.75054 -2.76774 0
M  V30 14444 H 1374.23 -5.8298 -3.48298 0
M  V30 14445 H 1372.18 -4.20726 -5.03314 0
M  V30 14446 H 1372.09 -5.90904 -4.71559 0
M  V30 14447 H 1373.36 -5.28627 -5.72865 0
M  V30 14448 N 1377.59 0.500963 -1.49426 0
M  V30 14449 C 1379.01 0.832142 -1.36189 0
M  V30 14450 C 1379.21 1.9759 -0.395014 0
M  V30 14451 O 1378.26 2.51905 0.173294 0
M  V30 14452 C 1379.57 1.17232 -2.76907 0
M  V30 14453 C 1381.12 1.28052 -2.85607 0
M  V30 14454 C 1381.6 1.65399 -4.27092 0
M  V30 14455 N 1383.09 1.72448 -4.29902 0
M  V30 14456 C 1383.82 2.02789 -5.36343 0
M  V30 14457 N 1383.32 2.31354 -6.53029 0
M  V30 14458 N 1385.11 2.0404 -5.23759 0
M  V30 14459 H 1377.26 -0.253253 -2.10885 0
M  V30 14460 H 1379.53 -0.0507111 -0.946643 0
M  V30 14461 H 1379.23 0.405247 -3.49357 0
M  V30 14462 H 1379.11 2.11574 -3.12276 0
M  V30 14463 H 1381.49 2.03831 -2.13394 0
M  V30 14464 H 1381.57 0.317603 -2.53821 0
M  V30 14465 H 1381.22 0.901704 -4.99832 0
M  V30 14466 H 1381.15 2.6279 -4.56343 0
M  V30 14467 H 1383.64 1.52532 -3.45749 0
M  V30 14468 H 1383.95 2.53695 -7.29972 0
M  V30 14469 H 1382.3 2.28811 -6.56255 0
M  V30 14470 H 1385.49 1.812 -4.31606 0
M  V30 14471 H 1385.66 2.27353 -6.06807 0
M  V30 14472 N 1379.07 1.38501 0.752011 0
M  V30 14473 C 1380.48 1.31086 1.32941 0
M  V30 14474 C 1380.83 -0.0326248 1.96173 0
M  V30 14475 O 1379.95 -0.934692 1.95173 0
M  V30 14476 C 1380.55 2.37395 2.41721 0
M  V30 14477 C 1379.11 2.33553 2.95177 0
M  V30 14478 C 1378.26 2.20178 1.68573 0
M  V30 14479 H 1381.21 1.48836 0.550771 0
M  V30 14480 H 1381.23 2.03202 3.21697 0
M  V30 14481 H 1380.74 3.35164 1.9567 0
M  V30 14482 H 1378.84 1.39371 3.45553 0
M  V30 14483 H 1378.95 3.27753 3.49449 0
M  V30 14484 H 1377.32 1.67057 1.9226 0
M  V30 14485 H 1378.1 3.19891 1.24599 0
M  V30 14486 N 1380.55 -0.980364 1.23396 0
M  V30 14487 C 1381.49 -2.09401 1.01262 0
M  V30 14488 C 1382.49 -1.69331 -0.0483957 0
M  V30 14489 O 1383.69 -1.79693 0.105109 0
M  V30 14490 H 1380.07 -0.684969 0.310358 0
M  V30 14491 H 1382.04 -2.25236 1.95732 0
M  V30 14492 C 1380.79 -3.42118 0.620526 0
M  V30 14493 H 1380.11 -3.73402 1.42868 0
M  V30 14494 H 1381.55 -4.2098 0.505169 0
M  V30 14495 C 1380.01 -3.30146 -0.671208 0
M  V30 14496 O 1380.54 -3.62997 -1.72034 0
M  V30 14497 N 1378.75 -2.83303 -0.647137 0
M  V30 14498 H 1378.29 -2.56767 0.206957 0
M  V30 14499 H 1378.25 -2.75675 -1.51165 0
M  V30 14500 N 1382.02 -1.04567 -1.17913 0
M  V30 14501 C 1383.25 -0.772146 -1.92491 0
M  V30 14502 C 1383.67 0.665297 -1.75942 0
M  V30 14503 O 1383.03 1.46144 -1.07292 0
M  V30 14504 C 1383.08 -1.14966 -3.41782 0
M  V30 14505 O 1382.18 -0.278091 -4.11461 0
M  V30 14506 H 1381.52 -0.283715 -0.600335 0
M  V30 14507 H 1384.05 -1.39685 -1.49496 0
M  V30 14508 H 1384.06 -1.11374 -3.92505 0
M  V30 14509 H 1382.74 -2.1968 -3.53148 0
M  V30 14510 H 1381.32 -0.374073 -3.71019 0
M  V30 14511 N 1383.5 1.34231 -0.825823 0
M  V30 14512 C 1384.43 2.27366 -0.194964 0
M  V30 14513 C 1385.41 1.49029 0.650315 0
M  V30 14514 O 1386.6 1.7824 0.613424 0
M  V30 14515 C 1383.72 3.30796 0.727439 0
M  V30 14516 C 1382.77 4.26481 -0.0406869 0
M  V30 14517 S 1383.6 5.17151 -1.38981 0
M  V30 14518 C 1384.76 6.24115 -0.472354 0
M  V30 14519 H 1384.99 2.80524 -0.984559 0
M  V30 14520 H 1382.52 1.41323 -0.621875 0
M  V30 14521 H 1384.48 3.90875 1.25406 0
M  V30 14522 H 1383.14 2.76479 1.49058 0
M  V30 14523 H 1382.34 4.99651 0.660652 0
M  V30 14524 H 1381.94 3.7067 -0.497956 0
M  V30 14525 H 1384.23 6.76671 0.334956 0
M  V30 14526 H 1385.17 6.98303 -1.17383 0
M  V30 14527 H 1385.58 5.64469 -0.0594964 0
M  V30 14528 N 1384.98 0.581051 1.46498 0
M  V30 14529 C 1386.2 0.0696654 2.07283 0
M  V30 14530 C 1386.63 -1.22525 1.42721 0
M  V30 14531 O 1385.99 -1.73967 0.510421 0
M  V30 14532 C 1386.04 -0.0843864 3.60501 0
M  V30 14533 O 1385.14 -1.14129 3.96293 0
M  V30 14534 H 1384.48 0.0620572 0.661094 0
M  V30 14535 H 1387.01 0.803522 1.88161 0
M  V30 14536 H 1387.02 -0.29108 4.0696 0
M  V30 14537 H 1385.7 0.861274 4.06884 0
M  V30 14538 H 1384.27 -0.913186 3.61546 0
M  V30 14539 N 1386.46 -1.54343 0.318742 0
M  V30 14540 C 1387.73 -1.92635 -0.339299 0
M  V30 14541 C 1388.11 -1.24786 -1.7027 0
M  V30 14542 O 1387.46 -0.389844 -2.2515 0
M  V30 14543 C 1387.67 -3.46262 -0.436318 0
M  V30 14544 C 1389.02 -4.18809 -0.698871 0
M  V30 14545 O 1390.04 -3.52392 -0.519431 0
M  V30 14546 O 1388.9 -5.36422 -1.04471 0
M  V30 14547 H 1386 -0.804202 -0.192841 0
M  V30 14548 H 1388.54 -1.6566 0.368104 0
M  V30 14549 H 1387.32 -3.8781 0.521427 0
M  V30 14550 H 1386.94 -3.79327 -1.19149 0
M  V30 14551 N 1387.94 -0.0468143 -1.5753 0
M  V30 14552 C 1388.85 0.944362 -2.14753 0
M  V30 14553 C 1389.86 1.34473 -1.10422 0
M  V30 14554 O 1391.04 1.42254 -1.42569 0
M  V30 14555 C 1388.1 2.2023 -2.67768 0
M  V30 14556 C 1387.16 1.8607 -3.8688 0
M  V30 14557 C 1386.4 3.05867 -4.37357 0
M  V30 14558 O 1386.62 4.19099 -3.86927 0
M  V30 14559 O 1385.55 2.87134 -5.28997 0
M  V30 14560 H 1389.38 0.48772 -2.99758 0
M  V30 14561 H 1386.96 0.174831 -1.48374 0
M  V30 14562 H 1388.85 2.94044 -3.01855 0
M  V30 14563 H 1387.52 2.65041 -1.85836 0
M  V30 14564 H 1386.43 1.09586 -3.5769 0
M  V30 14565 H 1387.76 1.46062 -4.70028 0
M  V30 14566 N 1389.41 1.55964 0.226527 0
M  V30 14567 C 1390.32 1.95169 1.30178 0
M  V30 14568 C 1391.34 0.854831 1.51554 0
M  V30 14569 O 1392.52 1.15798 1.64781 0
M  V30 14570 C 1389.58 2.25612 2.63249 0
M  V30 14571 C 1388.64 3.4884 2.50219 0
M  V30 14572 C 1387.88 3.77822 3.76944 0
M  V30 14573 O 1388.1 3.08556 4.79739 0
M  V30 14574 O 1387.03 4.7132 3.74354 0
M  V30 14575 H 1390.86 2.86794 0.999145 0
M  V30 14576 H 1388.44 1.43109 0.42898 0
M  V30 14577 H 1390.33 2.4641 3.41848 0
M  V30 14578 H 1389 1.37162 2.93203 0
M  V30 14579 H 1387.91 3.33326 1.69836 0
M  V30 14580 H 1389.24 4.37657 2.25205 0
M  V30 14581 N 1390.89 -0.493031 1.4969 0
M  V30 14582 C 1391.82 -1.61058 1.63074 0
M  V30 14583 C 1392.84 -1.54504 0.513069 0
M  V30 14584 O 1394.03 -1.60291 0.785431 0
M  V30 14585 C 1391.13 -2.99877 1.57883 0
M  V30 14586 C 1390.3 -3.31531 2.85317 0
M  V30 14587 C 1389.36 -4.49799 2.7307 0
M  V30 14588 O 1388.38 -4.51189 3.47012 0
M  V30 14589 N 1389.59 -5.50182 1.85148 0
M  V30 14590 H 1392.35 -1.5 2.59461 0
M  V30 14591 H 1389.91 -0.681057 1.46878 0
M  V30 14592 H 1391.9 -3.76928 1.47333 0
M  V30 14593 H 1390.47 -3.04817 0.693218 0
M  V30 14594 H 1389.69 -2.433 3.10159 0
M  V30 14595 H 1390.98 -3.49481 3.69784 0
M  V30 14596 H 1390.38 -5.51865 1.24345 0
M  V30 14597 H 1388.94 -6.26305 1.80516 0
M  V30 14598 N 1392.37 -1.38898 -0.744656 0
M  V30 14599 C 1393.28 -1.39098 -1.88915 0
M  V30 14600 C 1394.3 -0.286956 -1.71617 0
M  V30 14601 O 1395.47 -0.526852 -1.94387 0
M  V30 14602 C 1392.54 -1.22352 -3.24393 0
M  V30 14603 C 1391.6 -2.4264 -3.54153 0
M  V30 14604 C 1390.83 -2.26683 -4.83167 0
M  V30 14605 O 1391.05 -1.26523 -5.56191 0
M  V30 14606 O 1389.99 -3.15464 -5.12607 0
M  V30 14607 H 1393.81 -2.35551 -1.91701 0
M  V30 14608 H 1391.4 -1.19911 -0.891158 0
M  V30 14609 H 1393.28 -1.15109 -4.05374 0
M  V30 14610 H 1391.96 -0.289886 -3.22399 0
M  V30 14611 H 1390.86 -2.55459 -2.73298 0
M  V30 14612 H 1392.2 -3.34664 -3.60917 0
M  V30 14613 N 1393.85 0.973806 -1.23914 0
M  V30 14614 C 1395.07 1.7564 -1.10296 0
M  V30 14615 C 1395.5 1.84984 0.340954 0
M  V30 14616 O 1394.86 1.31629 1.24674 0
M  V30 14617 C 1394.9 3.15809 -1.7406 0
M  V30 14618 O 1394.01 3.99911 -1.00722 0
M  V30 14619 H 1393.35 0.540133 -0.386202 0
M  V30 14620 H 1395.88 1.22197 -1.64101 0
M  V30 14621 H 1395.89 3.66359 -1.79568 0
M  V30 14622 H 1394.56 3.08324 -2.79122 0
M  V30 14623 H 1393.14 3.58405 -1.02956 0
M  V30 14624 N 1395.33 1.05191 1.17357 0
M  V30 14625 C 1396.55 0.782343 1.92079 0
M  V30 14626 C 1396.98 -0.655957 1.76292 0
M  V30 14627 O 1396.33 -1.45573 1.08065 0
M  V30 14628 C 1396.38 1.16777 3.41168 0
M  V30 14629 O 1395.49 0.299908 4.11308 0
M  V30 14630 H 1394.83 0.286894 0.598822 0
M  V30 14631 H 1397.36 1.40476 1.48754 0
M  V30 14632 H 1397.37 1.13454 3.91909 0
M  V30 14633 H 1396.04 2.2155 3.51978 0
M  V30 14634 H 1394.62 0.393744 3.70815 0
M  V30 14635 N 1396.8 -1.33791 0.83293 0
M  V30 14636 C 1398.04 -1.99788 0.431774 0
M  V30 14637 C 1398.41 -1.64566 -0.989046 0
M  V30 14638 O 1399.61 -2.23483 -1.49361 0
M  V30 14639 C 1397.88 -3.51636 0.6393 0
M  V30 14640 S 1399.44 -4.37539 0.332481 0
M  V30 14641 H 1396.26 -0.69214 0.162676 0
M  V30 14642 H 1398.86 -1.629 1.08092 0
M  V30 14643 H 1397.56 -3.74758 1.67286 0
M  V30 14644 H 1397.09 -3.93393 -0.024221 0
M  V30 14645 H 1399.11 -4.88865 -0.850029 0
M  V30 14646 N 1398.28 -0.588812 -1.46187 0
M  V30 14647 C 1399.56 -0.00958331 -1.95598 0
M  V30 14648 C 1399.94 1.45294 -1.53144 0
M  V30 14649 O 1399.29 2.14592 -0.785015 0
M  V30 14650 C 1399.5 -0.188018 -3.48493 0
M  V30 14651 C 1400.85 -0.0590152 -4.24559 0
M  V30 14652 O 1401.87 -0.117167 -3.56007 0
M  V30 14653 O 1400.73 0.0715924 -5.46453 0
M  V30 14654 H 1397.82 0.0463708 -0.825699 0
M  V30 14655 H 1400.37 -0.657558 -1.56443 0
M  V30 14656 H 1399.14 -1.20449 -3.723 0
M  V30 14657 H 1398.76 0.496103 -3.94493 0
M  V30 14658 N 1399.76 1.54172 -0.326923 0
M  V30 14659 C 1400.99 2.05044 0.276508 0
M  V30 14660 C 1401.4 1.20288 1.45521 0
M  V30 14661 O 1400.76 0.234324 1.80989 0
M  V30 14662 C 1400.81 3.54505 0.707714 0
M  V30 14663 O 1400.53 4.36042 -0.424098 0
M  V30 14664 C 1402.03 4.21482 1.3736 0
M  V30 14665 H 1399.25 0.668632 0.0563273 0
M  V30 14666 H 1401.8 1.98929 -0.474087 0
M  V30 14667 H 1399.95 3.60896 1.40828 0
M  V30 14668 H 1400.37 5.24433 -0.0836846 0
M  V30 14669 H 1401.84 5.27501 1.62623 0
M  V30 14670 H 1402.32 3.72802 2.32196 0
M  V30 14671 H 1402.92 4.19238 0.715526 0
M  V30 14672 N 1401.24 0.0551678 1.57503 0
M  V30 14673 C 1402.48 -0.618636 1.93134 0
M  V30 14674 C 1402.82 -1.70258 0.934125 0
M  V30 14675 O 1402.09 -1.9446 -0.0392699 0
M  V30 14676 C 1402.38 -1.21103 3.39126 0
M  V30 14677 C 1402.23 -0.134865 4.49598 0
M  V30 14678 C 1403.55 -2.12148 3.85592 0
M  V30 14679 H 1400.67 -0.223416 0.702321 0
M  V30 14680 H 1403.31 0.117748 1.89635 0
M  V30 14681 H 1401.46 -1.83862 3.42238 0
M  V30 14682 H 1403.13 0.497292 4.58612 0
M  V30 14683 H 1401.37 0.536587 4.30469 0
M  V30 14684 H 1402.04 -0.589447 5.48844 0
M  V30 14685 H 1404.52 -1.59346 3.8438 0
M  V30 14686 H 1403.4 -2.50539 4.88387 0
M  V30 14687 H 1403.66 -3.02318 3.22578 0
M  V30 14688 N 1402.72 -1.56081 -0.218252 0
M  V30 14689 C 1403.99 -1.70043 -0.966684 0
M  V30 14690 C 1404.37 -0.603372 -2.02293 0
M  V30 14691 O 1403.72 0.389138 -2.25162 0
M  V30 14692 C 1403.93 -3.11484 -1.57413 0
M  V30 14693 C 1405.28 -3.70995 -2.06513 0
M  V30 14694 O 1406.3 -3.14466 -1.67301 0
M  V30 14695 O 1405.16 -4.70156 -2.78596 0
M  V30 14696 H 1402.26 -0.692691 -0.451784 0
M  V30 14697 H 1404.8 -1.68398 -0.209774 0
M  V30 14698 H 1403.57 -3.8279 -0.811614 0
M  V30 14699 H 1403.2 -3.1726 -2.3965 0
M  V30 14700 N 1404.2 0.485086 -1.49949 0
M  V30 14701 C 1405.44 1.23571 -1.5992 0
M  V30 14702 C 1405.76 1.92754 -0.295108 0
M  V30 14703 O 1405.03 1.83474 0.686582 0
M  V30 14704 H 1403.61 0.459104 -0.589264 0
M  V30 14705 H 1406.28 0.560822 -1.86657 0
M  V30 14706 H 1405.37 1.99114 -2.40333 0
M  V30 14707 N 1405.67 1.39291 0.737279 0
M  V30 14708 C 1406.9 1.39844 1.53162 0
M  V30 14709 C 1407.32 -0.00568546 1.88099 0
M  V30 14710 O 1406.68 -0.992085 1.51748 0
M  V30 14711 C 1406.73 2.27577 2.79716 0
M  V30 14712 O 1405.83 1.70408 3.75546 0
M  V30 14713 H 1405.17 0.476314 0.462624 0
M  V30 14714 H 1407.7 1.83258 0.909819 0
M  V30 14715 H 1407.71 2.42009 3.28475 0
M  V30 14716 H 1406.39 3.29621 2.53619 0
M  V30 14717 H 1404.97 1.65206 3.34307 0
M  V30 14718 N 1407.15 -0.967221 1.24429 0
M  V30 14719 C 1408.56 -1.52488 1.07723 0
M  V30 14720 C 1408.91 -1.93031 -0.351191 0
M  V30 14721 O 1408.04 -1.77376 -1.23963 0
M  V30 14722 C 1408.63 -2.77107 1.94929 0
M  V30 14723 C 1407.19 -3.29227 1.82446 0
M  V30 14724 C 1406.34 -2.02133 1.89835 0
M  V30 14725 H 1409.29 -0.785465 1.37899 0
M  V30 14726 H 1409.31 -3.50459 1.48186 0
M  V30 14727 H 1408.82 -2.47567 2.98885 0
M  V30 14728 H 1406.92 -3.63617 0.813246 0
M  V30 14729 H 1407.04 -3.98095 2.66566 0
M  V30 14730 H 1405.4 -2.16867 1.3357 0
M  V30 14731 H 1406.18 -1.74958 2.95372 0
M  V30 14732 N 1408.63 -1.05812 -1.16797 0
M  V30 14733 C 1409.86 -0.792519 -1.9112 0
M  V30 14734 C 1410.27 0.652549 -1.77164 0
M  V30 14735 O 1409.63 1.44633 -1.113 0
M  V30 14736 C 1409.68 -1.17172 -3.41984 0
M  V30 14737 O 1409.4 -2.56008 -3.55516 0
M  V30 14738 C 1410.9 -0.933162 -4.33367 0
M  V30 14739 H 1408.12 -0.28768 -0.606202 0
M  V30 14740 H 1410.67 -1.41046 -1.48075 0
M  V30 14741 H 1408.82 -0.598413 -3.8275 0
M  V30 14742 H 1409.24 -2.71053 -4.49033 0
M  V30 14743 H 1410.71 -1.24817 -5.37703 0
M  V30 14744 H 1411.19 0.131345 -4.39004 0
M  V30 14745 H 1411.79 -1.49062 -3.98322 0
M  V30 14746 N 1410.11 1.33347 -0.840014 0
M  V30 14747 C 1411.33 2.02485 -0.448856 0
M  V30 14748 C 1411.76 1.62781 0.942543 0
M  V30 14749 O 1411.12 0.82099 1.61646 0
M  V30 14750 C 1411.16 3.55928 -0.578582 0
M  V30 14751 O 1410.27 4.10507 0.394695 0
M  V30 14752 H 1409.61 0.63848 -0.182317 0
M  V30 14753 H 1412.14 1.70221 -1.13516 0
M  V30 14754 H 1412.15 4.05391 -0.460653 0
M  V30 14755 H 1410.82 3.8417 -1.5933 0
M  V30 14756 H 1409.4 3.72164 0.234227 0
M  V30 14757 N 1411.59 0.596556 1.45873 0
M  V30 14758 C 1412.86 0.0199562 1.9559 0
M  V30 14759 C 1413.24 -1.44479 1.53912 0
M  V30 14760 O 1412.59 -2.14173 0.796384 0
M  V30 14761 C 1412.8 0.206497 3.48389 0
M  V30 14762 C 1414.15 0.0815298 4.24522 0
M  V30 14763 O 1415.17 0.136045 3.5594 0
M  V30 14764 O 1414.03 -0.0426117 5.46483 0
M  V30 14765 H 1411.13 -0.0419913 0.825933 0
M  V30 14766 H 1413.67 0.665846 1.56092 0
M  V30 14767 H 1412.44 1.22422 3.71656 0
M  V30 14768 H 1412.07 -0.475175 3.9475 0
M  V30 14769 N 1413.06 -1.53996 0.335095 0
M  V30 14770 C 1414.29 -2.05657 -0.268328 0
M  V30 14771 C 1414.71 -1.20897 -1.44102 0
M  V30 14772 O 1414.07 -0.220737 -1.79951 0
M  V30 14773 C 1414.12 -3.54331 -0.669481 0
M  V30 14774 O 1413.22 -3.7246 -1.77052 0
M  V30 14775 H 1412.56 -0.662386 -0.0462705 0
M  V30 14776 H 1415.09 -1.98723 0.486854 0
M  V30 14777 H 1415.1 -3.9681 -0.948971 0
M  V30 14778 H 1413.78 -4.15474 0.188168 0
M  V30 14779 H 1412.36 -3.41884 -1.48895 0
M  V30 14780 N 1414.54 -0.0635198 -1.57472 0
M  V30 14781 C 1415.77 0.620205 -1.9791 0
M  V30 14782 C 1416.19 1.62851 -0.941335 0
M  V30 14783 O 1415.55 1.81056 0.0940313 0
M  V30 14784 C 1415.6 1.27261 -3.37397 0
M  V30 14785 O 1414.7 2.38841 -3.36197 0
M  V30 14786 H 1414.04 0.16021 -0.644382 0
M  V30 14787 H 1416.57 -0.135582 -2.0415 0
M  V30 14788 H 1416.58 1.6214 -3.74399 0
M  V30 14789 H 1415.26 0.533723 -4.12461 0
M  V30 14790 H 1413.83 2.05817 -3.10956 0
M  V30 14791 N 1416.02 1.56195 0.209972 0
M  V30 14792 C 1417.27 1.7939 0.930796 0
M  V30 14793 C 1417.59 0.634038 1.84404 0
M  V30 14794 O 1416.86 -0.348467 1.92776 0
M  V30 14795 H 1415.44 0.661676 0.346689 0
M  V30 14796 H 1418.1 1.93665 0.219049 0
M  V30 14797 H 1417.2 2.71982 1.53075 0
M  V30 14798 N 1417.5 -0.477127 1.50204 0
M  V30 14799 C 1418.45 -1.57334 1.65015 0
M  V30 14800 C 1419.43 -1.52771 0.504953 0
M  V30 14801 O 1420.62 -1.59897 0.759072 0
M  V30 14802 C 1417.75 -2.95815 1.74208 0
M  V30 14803 C 1416.84 -3.05284 2.94385 0
M  V30 14804 N 1417.23 -2.84582 4.18147 0
M  V30 14805 C 1415.53 -3.36413 2.92817 0
M  V30 14806 C 1416.23 -2.98859 4.99057 0
M  V30 14807 N 1415.2 -3.28794 4.32892 0
M  V30 14808 H 1419.01 -1.40018 2.58403 0
M  V30 14809 H 1416.52 -0.68374 1.47305 0
M  V30 14810 H 1418.52 -3.74627 1.82921 0
M  V30 14811 H 1417.18 -3.14182 0.819746 0
M  V30 14812 H 1418.19 -2.60282 4.47743 0
M  V30 14813 H 1414.87 -3.60806 2.1006 0
M  V30 14814 H 1416.26 -2.87144 6.07452 0
M  V30 14815 N 1418.98 -1.3968 -0.729882 0
M  V30 14816 C 1420.25 -1.27689 -1.48172 0
M  V30 14817 C 1420.63 0.111239 -2.10807 0
M  V30 14818 O 1419.98 1.12289 -1.99006 0
M  V30 14819 C 1420.19 -2.40505 -2.529 0
M  V30 14820 C 1421.54 -2.80064 -3.19138 0
M  V30 14821 O 1422.56 -2.39992 -2.63215 0
M  V30 14822 O 1421.42 -3.49248 -4.20342 0
M  V30 14823 H 1418.52 -0.500674 -0.658221 0
M  V30 14824 H 1421.06 -1.51566 -0.763272 0
M  V30 14825 H 1419.83 -3.33282 -2.05033 0
M  V30 14826 H 1419.46 -2.1832 -3.32298 0
M  V30 14827 N 1420.45 0.960609 -1.2494 0
M  V30 14828 C 1421.68 1.7446 -1.12153 0
M  V30 14829 C 1422.1 1.85335 0.321315 0
M  V30 14830 O 1421.46 1.32944 1.23271 0
M  V30 14831 C 1421.51 3.13945 -1.774 0
M  V30 14832 O 1420.61 3.9882 -1.04958 0
M  V30 14833 H 1419.96 0.536007 -0.391909 0
M  V30 14834 H 1422.49 1.2045 -1.65388 0
M  V30 14835 H 1422.5 3.64434 -1.83444 0
M  V30 14836 H 1421.17 3.05346 -2.82377 0
M  V30 14837 H 1419.75 3.57293 -1.06752 0
M  V30 14838 N 1421.93 1.0643 1.16234 0
M  V30 14839 C 1423.34 0.806012 1.68405 0
M  V30 14840 C 1423.69 -0.670197 1.84398 0
M  V30 14841 O 1422.82 -1.51975 1.54054 0
M  V30 14842 C 1423.41 1.45654 3.05893 0
M  V30 14843 C 1421.97 1.24599 3.55179 0
M  V30 14844 C 1421.12 1.53216 2.31128 0
M  V30 14845 H 1424.07 1.22759 1.00578 0
M  V30 14846 H 1424.09 0.872616 3.70359 0
M  V30 14847 H 1423.6 2.53092 2.94221 0
M  V30 14848 H 1421.71 0.191407 3.72108 0
M  V30 14849 H 1421.82 1.95967 4.37188 0
M  V30 14850 H 1420.18 0.952755 2.36209 0
M  V30 14851 H 1420.97 2.61816 2.22052 0
M  V30 14852 N 1423.41 -1.329 0.847073 0
M  V30 14853 C 1424.66 -1.9751 0.446755 0
M  V30 14854 C 1424.99 -1.67069 -0.995905 0
M  V30 14855 O 1424.24 -0.947232 -1.71248 0
M  V30 14856 C 1424.54 -3.51913 0.623845 0
M  V30 14857 C 1424.21 -4.02324 2.03583 0
M  V30 14858 C 1422.87 -4.15802 2.42203 0
M  V30 14859 C 1425.22 -4.29147 2.95774 0
M  V30 14860 C 1422.55 -4.53441 3.72301 0
M  V30 14861 C 1424.9 -4.68242 4.25362 0
M  V30 14862 C 1423.56 -4.79925 4.63927 0
M  V30 14863 H 1422.83 -0.722742 0.163479 0
M  V30 14864 H 1425.48 -1.58435 1.07567 0
M  V30 14865 H 1423.79 -3.917 -0.0883447 0
M  V30 14866 H 1425.48 -3.99919 0.294268 0
M  V30 14867 H 1422.07 -3.92314 1.72591 0
M  V30 14868 H 1426.26 -4.1825 2.67171 0
M  V30 14869 H 1421.51 -4.60681 4.01974 0
M  V30 14870 H 1425.69 -4.87952 4.96866 0
M  V30 14871 H 1423.31 -5.08847 5.64782 0
M  V30 14872 N 1424.89 -0.604284 -1.45555 0
M  V30 14873 C 1425.85 0.106526 -2.28952 0
M  V30 14874 C 1426.85 0.798277 -1.39586 0
M  V30 14875 O 1428.04 0.646943 -1.61741 0
M  V30 14876 C 1425.17 1.16091 -3.20524 0
M  V30 14877 H 1426.37 -0.626655 -2.9328 0
M  V30 14878 H 1423.92 -0.363183 -1.52022 0
M  V30 14879 H 1424.65 1.92496 -2.6099 0
M  V30 14880 H 1424.44 0.669137 -3.86348 0
M  V30 14881 H 1425.93 1.65882 -3.8324 0
M  V30 14882 N 1426.37 1.53816 -0.343257 0
M  V30 14883 C 1427.28 2.28716 0.522121 0
M  V30 14884 C 1428.29 1.33815 1.11218 0
M  V30 14885 O 1429.47 1.66853 1.12793 0
M  V30 14886 C 1426.53 3.04517 1.65741 0
M  V30 14887 C 1425.59 4.15043 1.09716 0
M  V30 14888 C 1424.83 4.8722 2.17835 0
M  V30 14889 O 1425.05 4.59065 3.38549 0
M  V30 14890 O 1423.98 5.73678 1.82145 0
M  V30 14891 H 1427.81 3.03576 -0.086732 0
M  V30 14892 H 1425.4 1.49007 -0.108313 0
M  V30 14893 H 1427.28 3.51921 2.31796 0
M  V30 14894 H 1425.95 2.32514 2.25208 0
M  V30 14895 H 1424.86 3.71943 0.401152 0
M  V30 14896 H 1426.19 4.89147 0.547362 0
M  V30 14897 N 1427.84 0.0718701 1.57436 0
M  V30 14898 C 1429.07 -0.609701 1.98236 0
M  V30 14899 C 1429.49 -1.6235 0.949959 0
M  V30 14900 O 1428.85 -1.81103 -0.0844281 0
M  V30 14901 C 1428.9 -1.2547 3.38068 0
M  V30 14902 O 1428 -2.37055 3.37459 0
M  V30 14903 H 1427.35 -0.15679 0.645223 0
M  V30 14904 H 1429.88 0.146407 2.04076 0
M  V30 14905 H 1429.89 -1.60152 3.75254 0
M  V30 14906 H 1428.56 -0.511842 4.12738 0
M  V30 14907 H 1427.14 -2.04165 3.12043 0
M  V30 14908 N 1429.32 -1.56304 -0.201686 0
M  V30 14909 C 1430.55 -1.84341 -0.939465 0
M  V30 14910 C 1430.97 -0.653544 -1.77128 0
M  V30 14911 O 1430.32 0.377813 -1.78546 0
M  V30 14912 C 1430.37 -3.11111 -1.84098 0
M  V30 14913 O 1430.09 -4.25509 -1.04276 0
M  V30 14914 C 1431.6 -3.52279 -2.69099 0
M  V30 14915 H 1428.82 -0.61232 -0.274419 0
M  V30 14916 H 1431.36 -2.03409 -0.210924 0
M  V30 14917 H 1429.51 -2.9396 -2.52322 0
M  V30 14918 H 1429.93 -4.97655 -1.6565 0
M  V30 14919 H 1431.4 -4.43965 -3.28023 0
M  V30 14920 H 1431.88 -2.74959 -3.42482 0
M  V30 14921 H 1432.49 -3.71939 -2.06256 0
M  V30 14922 N 1430.8 0.469154 -1.50455 0
M  V30 14923 C 1432.05 1.22109 -1.61541 0
M  V30 14924 C 1432.38 1.91905 -0.316646 0
M  V30 14925 O 1431.63 1.82845 0.697585 0
M  V30 14926 C 1431.93 2.28673 -2.7467 0
M  V30 14927 C 1431.6 1.76115 -4.15083 0
M  V30 14928 C 1430.26 1.61503 -4.53288 0
M  V30 14929 C 1432.61 1.37145 -5.02833 0
M  V30 14930 C 1429.94 1.06346 -5.76981 0
M  V30 14931 C 1432.29 0.834294 -6.27074 0
M  V30 14932 C 1430.95 0.674814 -6.6408 0
M  V30 14933 H 1430.22 0.44683 -0.591121 0
M  V30 14934 H 1432.87 0.516821 -1.84394 0
M  V30 14935 H 1431.18 3.05015 -2.45912 0
M  V30 14936 H 1432.87 2.86615 -2.80451 0
M  V30 14937 H 1429.46 1.88457 -3.84944 0
M  V30 14938 H 1433.65 1.47268 -4.73947 0
M  V30 14939 H 1428.9 0.927377 -6.04326 0
M  V30 14940 H 1433.08 0.523676 -6.94428 0
M  V30 14941 H 1430.7 0.245264 -7.59804 0
M  V30 14942 N 1432.28 1.40065 0.722464 0
M  V30 14943 C 1433.52 1.38175 1.48444 0
M  V30 14944 C 1433.86 -0.0182857 1.94191 0
M  V30 14945 O 1433.13 -0.985638 1.67677 0
M  V30 14946 C 1433.42 2.36518 2.71535 0
M  V30 14947 C 1433.27 3.85517 2.31726 0
M  V30 14948 C 1434.59 2.325 3.73673 0
M  V30 14949 H 1431.71 0.503221 0.538458 0
M  V30 14950 H 1434.35 1.7115 0.825087 0
M  V30 14951 H 1432.5 2.08529 3.27793 0
M  V30 14952 H 1434.17 4.24306 1.81003 0
M  V30 14953 H 1432.41 4.01684 1.63807 0
M  V30 14954 H 1433.08 4.49834 3.19928 0
M  V30 14955 H 1435.56 2.57277 3.27029 0
M  V30 14956 H 1434.44 3.03369 4.57447 0
M  V30 14957 H 1434.7 1.33427 4.21485 0
M  V30 14958 N 1433.76 -0.95397 1.25448 0
M  V30 14959 C 1434.67 -2.08452 1.07634 0
M  V30 14960 C 1435.68 -1.73995 0.013294 0
M  V30 14961 O 1436.86 -2.00256 0.214367 0
M  V30 14962 C 1433.92 -3.39606 0.697756 0
M  V30 14963 C 1432.99 -3.87926 1.83881 0
M  V30 14964 C 1432.22 -5.12821 1.47819 0
M  V30 14965 O 1432.44 -5.69172 0.374143 0
M  V30 14966 O 1431.38 -5.55866 2.3086 0
M  V30 14967 H 1435.2 -2.26382 2.02447 0
M  V30 14968 H 1432.79 -1.06877 1.04392 0
M  V30 14969 H 1434.67 -4.18438 0.498778 0
M  V30 14970 H 1433.34 -3.22944 -0.221108 0
M  V30 14971 H 1432.25 -3.10095 2.09265 0
M  V30 14972 H 1433.58 -4.09087 2.73694 0
M  V30 14973 N 1435.24 -1.07045 -1.15668 0
M  V30 14974 C 1436.51 -0.704942 -1.82455 0
M  V30 14975 C 1436.89 0.812921 -1.9482 0
M  V30 14976 O 1436.24 1.72615 -1.49721 0
M  V30 14977 C 1436.45 -1.41574 -3.18995 0
M  V30 14978 C 1437.8 -1.56584 -3.94673 0
M  V30 14979 O 1438.82 -1.37626 -3.28538 0
M  V30 14980 O 1437.68 -1.87751 -5.13237 0
M  V30 14981 H 1434.78 -0.250469 -0.788159 0
M  V30 14982 H 1437.32 -1.17118 -1.22806 0
M  V30 14983 H 1436.09 -2.4504 -3.05075 0
M  V30 14984 H 1435.72 -0.940071 -3.86327 0
M  V30 14985 N 1436.71 1.32449 -0.85411 0
M  V30 14986 C 1437.94 2.01463 -0.471188 0
M  V30 14987 C 1438.36 1.64195 0.931954 0
M  V30 14988 O 1437.71 0.862994 1.60806 0
M  V30 14989 C 1437.76 3.56486 -0.600022 0
M  V30 14990 O 1437.49 3.92414 -1.94789 0
M  V30 14991 C 1438.99 4.42773 -0.216036 0
M  V30 14992 H 1436.21 0.644914 -0.185275 0
M  V30 14993 H 1438.75 1.6904 -1.1509 0
M  V30 14994 H 1436.91 3.87387 0.0319488 0
M  V30 14995 H 1437.32 4.87133 -1.94427 0
M  V30 14996 H 1438.79 5.50843 -0.357186 0
M  V30 14997 H 1439.27 4.31025 0.843468 0
M  V30 14998 H 1439.88 4.1726 -0.823058 0
M  V30 14999 N 1438.19 0.611994 1.45232 0
M  V30 15000 C 1439.14 -0.125771 2.27653 0
M  V30 15001 C 1440.13 -0.834397 1.37574 0
M  V30 15002 O 1441.32 -0.72366 1.61531 0
M  V30 15003 C 1438.45 -1.11955 3.24532 0
M  V30 15004 C 1437.53 -0.411537 4.22099 0
M  V30 15005 N 1437.92 0.549272 5.02809 0
M  V30 15006 C 1436.22 -0.658514 4.41112 0
M  V30 15007 C 1436.92 0.965836 5.73626 0
M  V30 15008 N 1435.9 0.308649 5.42723 0
M  V30 15009 H 1439.7 0.612115 2.87455 0
M  V30 15010 H 1437.21 0.436003 1.56438 0
M  V30 15011 H 1439.21 -1.66253 3.82316 0
M  V30 15012 H 1437.87 -1.85795 2.6629 0
M  V30 15013 H 1438.88 0.926222 5.0955 0
M  V30 15014 H 1435.56 -1.38125 3.9399 0
M  V30 15015 H 1436.95 1.75853 6.48479 0
M  V30 15016 N 1439.67 -1.53632 0.351409 0
M  V30 15017 C 1440.58 -2.2899 -0.509985 0
M  V30 15018 C 1441.6 -1.34403 -1.10507 0
M  V30 15019 O 1442.77 -1.67448 -1.11906 0
M  V30 15020 C 1439.84 -3.05392 -1.64124 0
M  V30 15021 C 1438.9 -4.15619 -1.07514 0
M  V30 15022 C 1438.13 -4.88369 -2.15248 0
M  V30 15023 O 1438.35 -4.60854 -3.3611 0
M  V30 15024 O 1437.29 -5.74636 -1.79101 0
M  V30 15025 H 1441.11 -3.03526 0.10283 0
M  V30 15026 H 1438.7 -1.48947 0.116214 0
M  V30 15027 H 1440.58 -3.53146 -2.29926 0
M  V30 15028 H 1439.26 -2.33705 -2.23972 0
M  V30 15029 H 1438.16 -3.7215 -0.381421 0
M  V30 15030 H 1439.5 -4.8943 -0.521413 0
M  V30 15031 N 1441.15 -0.0802183 -1.57396 0
M  V30 15032 C 1442.1 0.901668 -2.14412 0
M  V30 15033 C 1443.09 1.30247 -1.08314 0
M  V30 15034 O 1444.3 1.27873 -1.26682 0
M  V30 15035 H 1440.67 0.308748 -0.685696 0
M  V30 15036 H 1442.64 0.395934 -2.95762 0
M  V30 15037 C 1441.39 2.15665 -2.72734 0
M  V30 15038 H 1440.71 1.8571 -3.54051 0
M  V30 15039 H 1442.15 2.82461 -3.16214 0
M  V30 15040 C 1440.61 2.9208 -1.67901 0
M  V30 15041 O 1441.14 3.86087 -1.10903 0
M  V30 15042 N 1439.35 2.55343 -1.38739 0
M  V30 15043 H 1438.9 1.78969 -1.85278 0
M  V30 15044 H 1438.85 3.06773 -0.688317 0
M  V30 15045 N 1442.63 1.56409 0.193394 0
M  V30 15046 C 1443.85 1.84837 0.929676 0
M  V30 15047 C 1444.27 0.662928 1.76779 0
M  V30 15048 O 1443.63 -0.368339 1.78744 0
M  V30 15049 C 1443.68 3.12083 1.82445 0
M  V30 15050 O 1443.4 4.26056 1.02018 0
M  V30 15051 C 1444.9 3.53701 2.67227 0
M  V30 15052 H 1442.12 0.613766 0.271168 0
M  V30 15053 H 1444.66 2.03518 0.200134 0
M  V30 15054 H 1442.82 2.95294 2.5076 0
M  V30 15055 H 1443.23 4.98526 1.63008 0
M  V30 15056 H 1444.71 4.45699 3.25663 0
M  V30 15057 H 1445.18 2.76771 3.41019 0
M  V30 15058 H 1445.79 3.73027 2.04281 0
M  V30 15059 N 1444.1 -0.461169 1.50702 0
M  V30 15060 C 1445.01 -1.58355 1.73092 0
M  V30 15061 C 1446.03 -1.62795 0.61431 0
M  V30 15062 O 1447.21 -1.8048 0.893806 0
M  V30 15063 C 1444.27 -2.94509 1.82936 0
M  V30 15064 C 1443.33 -3.00378 3.06711 0
M  V30 15065 C 1442.56 -4.30037 3.16076 0
M  V30 15066 O 1442.79 -5.21097 2.31978 0
M  V30 15067 O 1441.72 -4.41702 4.08881 0
M  V30 15068 H 1445.55 -1.42384 2.68255 0
M  V30 15069 H 1443.13 -0.641709 1.34916 0
M  V30 15070 H 1445.01 -3.75357 1.91534 0
M  V30 15071 H 1443.69 -3.10658 0.909581 0
M  V30 15072 H 1442.6 -2.18571 3.03608 0
M  V30 15073 H 1443.93 -2.89167 3.983 0
M  V30 15074 N 1445.58 -1.40446 -0.715026 0
M  V30 15075 C 1446.51 -1.43511 -1.84193 0
M  V30 15076 C 1447.49 -0.295969 -1.67505 0
M  V30 15077 O 1448.68 -0.504667 -1.87528 0
M  V30 15078 C 1445.81 -1.29751 -3.22152 0
M  V30 15079 C 1444.76 -2.41274 -3.53512 0
M  V30 15080 C 1444.09 -2.12591 -4.90621 0
M  V30 15081 C 1445.39 -3.83614 -3.54454 0
M  V30 15082 H 1447.08 -2.37819 -1.81885 0
M  V30 15083 H 1444.63 -1.14469 -0.873655 0
M  V30 15084 H 1446.58 -1.30511 -4.0068 0
M  V30 15085 H 1445.3 -0.319189 -3.25037 0
M  V30 15086 H 1443.96 -2.39764 -2.77324 0
M  V30 15087 H 1443.61 -1.13148 -4.90109 0
M  V30 15088 H 1443.31 -2.87308 -5.1257 0
M  V30 15089 H 1444.84 -2.15034 -5.71483 0
M  V30 15090 H 1446.25 -3.86945 -4.23021 0
M  V30 15091 H 1444.65 -4.57855 -3.87929 0
M  V30 15092 H 1445.72 -4.13159 -2.53827 0
M  V30 15093 N 1447.06 0.947303 -1.25952 0
M  V30 15094 C 1448.31 1.6953 -1.11299 0
M  V30 15095 C 1448.64 1.9113 0.343961 0
M  V30 15096 O 1447.91 1.48755 1.25309 0
M  V30 15097 C 1448.2 3.0738 -1.87588 0
M  V30 15098 C 1448.05 2.93145 -3.41154 0
M  V30 15099 C 1449.37 4.07396 -1.66483 0
M  V30 15100 H 1446.49 0.615281 -0.405707 0
M  V30 15101 H 1449.13 1.10064 -1.54874 0
M  V30 15102 H 1447.28 3.58143 -1.50553 0
M  V30 15103 H 1448.95 2.49651 -3.87907 0
M  V30 15104 H 1447.19 2.28902 -3.68492 0
M  V30 15105 H 1447.87 3.9089 -3.89755 0
M  V30 15106 H 1450.34 3.65572 -1.98738 0
M  V30 15107 H 1449.22 5.01876 -2.22287 0
M  V30 15108 H 1449.48 4.379 -0.607916 0
M  V30 15109 N 1448.54 1.07657 1.15099 0
M  V30 15110 C 1449.76 0.82291 1.90376 0
M  V30 15111 C 1450.19 -0.618415 1.77644 0
M  V30 15112 O 1449.55 -1.43248 1.11129 0
M  V30 15113 C 1449.59 1.23988 3.38614 0
M  V30 15114 O 1448.7 0.387085 4.10579 0
M  V30 15115 H 1448.04 0.299532 0.592602 0
M  V30 15116 H 1450.57 1.436 1.4574 0
M  V30 15117 H 1450.58 1.21741 3.89414 0
M  V30 15118 H 1449.25 2.28966 3.472 0
M  V30 15119 H 1447.83 0.472311 3.69897 0
M  V30 15120 N 1450.02 -1.31994 0.861122 0
M  V30 15121 C 1451.24 -2.01745 0.481013 0
M  V30 15122 C 1451.67 -1.6426 -0.916527 0
M  V30 15123 O 1451.02 -0.846603 -1.60319 0
M  V30 15124 C 1451.07 -3.54963 0.635134 0
M  V30 15125 O 1450.18 -4.11083 -0.329337 0
M  V30 15126 H 1449.52 -0.635499 0.192452 0
M  V30 15127 H 1452.05 -1.68394 1.1621 0
M  V30 15128 H 1452.06 -4.04607 0.525089 0
M  V30 15129 H 1450.73 -3.81587 1.65422 0
M  V30 15130 H 1449.31 -3.72489 -0.174989 0
M  V30 15131 N 1451.49 -0.619688 -1.44906 0
M  V30 15132 C 1452.46 0.0822364 -2.29052 0
M  V30 15133 C 1453.46 0.783427 -1.40425 0
M  V30 15134 O 1454.65 0.629751 -1.62419 0
M  V30 15135 C 1451.78 1.12685 -3.21737 0
M  V30 15136 H 1452.97 -0.657726 -2.92599 0
M  V30 15137 H 1450.53 -0.379286 -1.51628 0
M  V30 15138 H 1451.26 1.89717 -2.63017 0
M  V30 15139 H 1451.05 0.628122 -3.87036 0
M  V30 15140 H 1452.54 1.61808 -3.84978 0
M  V30 15141 N 1452.97 1.53444 -0.359552 0
M  V30 15142 C 1454.25 1.93467 0.288106 0
M  V30 15143 C 1454.63 1.29256 1.66901 0
M  V30 15144 O 1453.98 0.449402 2.24037 0
M  V30 15145 C 1454.19 3.47297 0.344359 0
M  V30 15146 C 1455.54 4.20515 0.587585 0
M  V30 15147 O 1456.56 3.53646 0.425818 0
M  V30 15148 O 1455.42 5.39003 0.902119 0
M  V30 15149 H 1452.51 0.809033 0.171451 0
M  V30 15150 H 1455.06 1.64625 -0.411896 0
M  V30 15151 H 1453.83 3.86292 -0.624064 0
M  V30 15152 H 1453.45 3.82353 1.0905 0
M  V30 15153 N 1454.45 0.0885642 1.57351 0
M  V30 15154 C 1455.68 -0.585238 1.9845 0
M  V30 15155 C 1456.09 -1.62127 0.967483 0
M  V30 15156 O 1455.45 -1.82448 -0.0437565 0
M  V30 15157 C 1455.5 -1.23881 3.39611 0
M  V30 15158 O 1455.22 -0.244223 4.37419 0
M  V30 15159 C 1456.72 -1.99885 3.95678 0
M  V30 15160 H 1453.94 -0.157396 0.652279 0
M  V30 15161 H 1456.49 0.165923 2.03826 0
M  V30 15162 H 1454.64 -1.94094 3.3527 0
M  V30 15163 H 1455.06 -0.715149 5.19602 0
M  V30 15164 H 1456.53 -2.40983 4.9662 0
M  V30 15165 H 1457.01 -2.8621 3.33137 0
M  V30 15166 H 1457.61 -1.34501 4.03472 0
M  V30 15167 N 1455.93 -1.56509 -0.185096 0
M  V30 15168 C 1456.84 -1.98552 -1.24958 0
M  V30 15169 C 1457.85 -0.894713 -1.49234 0
M  V30 15170 O 1459.03 -1.20126 -1.61653 0
M  V30 15171 C 1456.1 -2.32513 -2.57175 0
M  V30 15172 C 1455.16 -3.55351 -2.40882 0
M  V30 15173 C 1454.39 -3.87683 -3.66794 0
M  V30 15174 O 1454.61 -3.21167 -4.7139 0
M  V30 15175 O 1453.55 -4.8108 -3.61726 0
M  V30 15176 H 1457.37 -2.89342 -0.922756 0
M  V30 15177 H 1454.96 -1.44196 -0.390887 0
M  V30 15178 H 1456.84 -2.55387 -3.35195 0
M  V30 15179 H 1455.51 -1.44888 -2.89464 0
M  V30 15180 H 1454.42 -3.37712 -1.60939 0
M  V30 15181 H 1455.75 -4.43474 -2.13522 0
M  V30 15182 N 1457.41 0.45317 -1.50944 0
M  V30 15183 C 1458.63 1.22672 -1.66611 0
M  V30 15184 C 1459.05 1.85398 -0.356814 0
M  V30 15185 O 1458.41 1.70026 0.663122 0
M  V30 15186 C 1458.46 2.32238 -2.77034 0
M  V30 15187 O 1458.18 1.72081 -4.02889 0
M  V30 15188 C 1459.68 3.22802 -3.03832 0
M  V30 15189 H 1456.9 0.370337 -0.559546 0
M  V30 15190 H 1459.44 0.538884 -1.97272 0
M  V30 15191 H 1457.6 2.96765 -2.49017 0
M  V30 15192 H 1458.01 2.4437 -4.64095 0
M  V30 15193 H 1459.49 3.95851 -3.84716 0
M  V30 15194 H 1459.96 3.82636 -2.15608 0
M  V30 15195 H 1460.57 2.63993 -3.33449 0
M  V30 15196 N 1458.88 1.40823 0.707568 0
M  V30 15197 C 1459.83 1.41724 1.82162 0
M  V30 15198 C 1460.8 0.273135 1.63839 0
M  V30 15199 O 1461.99 0.472399 1.84859 0
M  V30 15200 C 1459.13 1.29347 3.19943 0
M  V30 15201 C 1458.24 2.53529 3.49782 0
M  V30 15202 C 1457.37 2.33533 4.77112 0
M  V30 15203 C 1456.41 3.53252 4.9988 0
M  V30 15204 N 1455.55 3.32401 6.18429 0
M  V30 15205 H 1460.39 2.36943 1.80726 0
M  V30 15206 H 1457.93 1.17671 0.882723 0
M  V30 15207 H 1459.89 1.20175 3.99517 0
M  V30 15208 H 1458.52 0.377426 3.20586 0
M  V30 15209 H 1457.57 2.73198 2.64702 0
M  V30 15210 H 1458.88 3.42617 3.62512 0
M  V30 15211 H 1458.03 2.2176 5.64719 0
M  V30 15212 H 1456.77 1.41883 4.66605 0
M  V30 15213 H 1455.78 3.65492 4.10725 0
M  V30 15214 H 1457 4.4584 5.12253 0
M  V30 15215 H 1454.95 2.4344 6.09158 0
M  V30 15216 H 1454.87 4.15059 6.31872 0
M  V30 15217 H 1456.13 3.24377 7.08802 0
M  V30 15218 N 1460.36 -0.94061 1.26453 0
M  V30 15219 C 1461.77 -1.50169 1.10934 0
M  V30 15220 C 1462.12 -1.93733 -0.310167 0
M  V30 15221 O 1461.25 -1.79966 -1.20172 0
M  V30 15222 C 1461.84 -2.7291 2.00763 0
M  V30 15223 C 1460.4 -3.25283 1.89388 0
M  V30 15224 C 1459.55 -1.98061 1.9408 0
M  V30 15225 H 1462.5 -0.756038 1.39534 0
M  V30 15226 H 1462.52 -3.47237 1.55586 0
M  V30 15227 H 1462.03 -2.41172 3.04069 0
M  V30 15228 H 1460.14 -3.6181 0.890192 0
M  V30 15229 H 1460.25 -3.92351 2.7495 0
M  V30 15230 H 1458.61 -2.13985 1.3814 0
M  V30 15231 H 1459.4 -1.68654 2.99016 0
M  V30 15232 N 1461.84 -1.08266 -1.14527 0
M  V30 15233 C 1462.8 -0.715117 -2.17758 0
M  V30 15234 C 1463.8 0.24935 -1.58855 0
M  V30 15235 O 1464.99 0.0290846 -1.74176 0
M  V30 15236 C 1462.13 -0.055575 -3.40855 0
M  V30 15237 H 1463.32 -1.62921 -2.51787 0
M  V30 15238 H 1460.87 -0.880346 -1.2915 0
M  V30 15239 H 1461.61 0.870312 -3.12404 0
M  V30 15240 H 1461.39 -0.749382 -3.84872 0
M  V30 15241 H 1462.88 0.186592 -4.17183 0
M  V30 15242 N 1463.32 1.31536 -0.86811 0
M  V30 15243 C 1464.57 1.97066 -0.478829 0
M  V30 15244 C 1464.9 1.68469 0.966021 0
M  V30 15245 O 1464.17 0.980166 1.67997 0
M  V30 15246 C 1464.46 3.52533 -0.734313 0
M  V30 15247 C 1464.31 3.90711 -2.22856 0
M  V30 15248 C 1465.63 4.39647 -0.199559 0
M  V30 15249 H 1462.75 0.715813 -0.175444 0
M  V30 15250 H 1465.39 1.55694 -1.08901 0
M  V30 15251 H 1463.54 3.87905 -0.214962 0
M  V30 15252 H 1465.21 3.65451 -2.81502 0
M  V30 15253 H 1463.45 3.39385 -2.70185 0
M  V30 15254 H 1464.13 4.99103 -2.35797 0
M  V30 15255 H 1466.6 4.11088 -0.643853 0
M  V30 15256 H 1465.48 5.47383 -0.407783 0
M  V30 15257 H 1465.74 4.32875 0.898414 0
M  V30 15258 N 1464.8 0.627364 1.44575 0
M  V30 15259 C 1466.04 0.133615 2.03963 0
M  V30 15260 C 1466.4 -1.22005 1.48252 0
M  V30 15261 O 1467.6 -1.80569 1.99118 0
M  V30 15262 C 1465.87 0.115834 3.57212 0
M  V30 15263 S 1467.43 -0.313843 4.37676 0
M  V30 15264 H 1464.25 0.0592399 0.708528 0
M  V30 15265 H 1466.85 0.829908 1.77011 0
M  V30 15266 H 1465.56 1.10422 3.95266 0
M  V30 15267 H 1465.09 -0.601828 3.88769 0
M  V30 15268 H 1467.1 -1.55892 4.71075 0
M  V30 15269 N 1466.28 -1.53251 0.367684 0
M  V30 15270 C 1467.5 -2.0618 -0.224645 0
M  V30 15271 C 1467.93 -1.23927 -1.41505 0
M  V30 15272 O 1467.28 -0.258858 -1.79443 0
M  V30 15273 C 1467.33 -3.55671 -0.594171 0
M  V30 15274 O 1466.44 -3.76132 -1.69112 0
M  V30 15275 H 1465.78 -0.663218 -0.0322099 0
M  V30 15276 H 1468.31 -1.97646 0.528897 0
M  V30 15277 H 1468.32 -3.98734 -0.864589 0
M  V30 15278 H 1466.99 -4.14982 0.276254 0
M  V30 15279 H 1465.57 -3.44965 -1.41609 0
M  V30 15280 N 1467.75 -0.0969077 -1.57302 0
M  V30 15281 C 1469 0.567212 -1.94706 0
M  V30 15282 C 1469.33 1.67721 -0.978937 0
M  V30 15283 O 1468.61 1.94496 -0.0123016 0
M  V30 15284 C 1468.89 1.12069 -3.42217 0
M  V30 15285 C 1468.74 0.015615 -4.49797 0
M  V30 15286 C 1470.06 2.0185 -3.91081 0
M  V30 15287 H 1467.18 0.204716 -0.707997 0
M  V30 15288 H 1469.82 -0.167984 -1.89256 0
M  V30 15289 H 1467.97 1.74723 -3.46993 0
M  V30 15290 H 1469.65 -0.61871 -4.57132 0
M  V30 15291 H 1467.89 -0.650529 -4.28895 0
M  V30 15292 H 1468.56 0.443724 -5.50214 0
M  V30 15293 H 1471.04 1.49098 -3.8847 0
M  V30 15294 H 1469.91 2.37502 -4.94858 0
M  V30 15295 H 1470.17 2.93659 -3.3048 0
M  V30 15296 N 1469.23 1.56605 0.176793 0
M  V30 15297 C 1470.48 1.81952 0.895627 0
M  V30 15298 C 1470.81 0.673893 1.82133 0
M  V30 15299 O 1470.09 -0.324494 1.91774 0
M  V30 15300 C 1470.37 3.17658 1.69604 0
M  V30 15301 C 1470.22 4.4274 0.793834 0
M  V30 15302 C 1471.54 3.50246 2.66488 0
M  V30 15303 H 1468.66 0.661884 0.324159 0
M  V30 15304 H 1471.3 1.89307 0.162092 0
M  V30 15305 H 1469.45 3.11518 2.3214 0
M  V30 15306 H 1471.12 4.60942 0.181775 0
M  V30 15307 H 1469.37 4.33681 0.101566 0
M  V30 15308 H 1470.04 5.34231 1.38927 0
M  V30 15309 H 1472.51 3.56804 2.1408 0
M  V30 15310 H 1471.39 4.46286 3.19562 0
M  V30 15311 H 1471.65 2.7467 3.46423 0
M  V30 15312 N 1470.71 -0.445159 1.51182 0
M  V30 15313 C 1471.96 -1.19701 1.63705 0
M  V30 15314 C 1472.29 -1.91047 0.348511 0
M  V30 15315 O 1471.56 -1.83264 -0.651497 0
M  V30 15316 C 1471.85 -2.22021 2.83511 0
M  V30 15317 C 1471.7 -1.54809 4.2232 0
M  V30 15318 C 1473.02 -3.23083 2.9884 0
M  V30 15319 H 1470.14 -0.433818 0.595795 0
M  V30 15320 H 1472.78 -0.487276 1.83645 0
M  V30 15321 H 1470.93 -2.82551 2.66641 0
M  V30 15322 H 1472.6 -0.976774 4.5084 0
M  V30 15323 H 1470.84 -0.850596 4.25379 0
M  V30 15324 H 1471.52 -2.29289 5.02126 0
M  V30 15325 H 1473.99 -2.72601 3.14369 0
M  V30 15326 H 1472.87 -3.91978 3.84246 0
M  V30 15327 H 1473.13 -3.88732 2.1057 0
M  V30 15328 N 1472.19 -1.41197 -0.700089 0
M  V30 15329 C 1473.6 -1.3593 -1.27985 0
M  V30 15330 C 1473.95 -0.0402059 -1.96159 0
M  V30 15331 O 1473.07 0.861611 -1.98508 0
M  V30 15332 C 1473.67 -2.46203 -2.32743 0
M  V30 15333 C 1472.23 -2.44348 -2.86306 0
M  V30 15334 C 1471.38 -2.26283 -1.60285 0
M  V30 15335 H 1474.33 -1.50778 -0.495152 0
M  V30 15336 H 1474.35 -2.15001 -3.13934 0
M  V30 15337 H 1473.86 -3.42195 -1.83096 0
M  V30 15338 H 1471.96 -1.521 -3.40142 0
M  V30 15339 H 1472.07 -3.40497 -3.37044 0
M  V30 15340 H 1470.44 -1.74078 -1.85928 0
M  V30 15341 H 1471.22 -3.24295 -1.1264 0
M  V30 15342 N 1473.67 0.933891 -1.2695 0
M  V30 15343 C 1475.08 1.49578 -1.11728 0
M  V30 15344 C 1475.43 1.93895 0.299889 0
M  V30 15345 O 1474.55 1.806 1.19216 0
M  V30 15346 C 1475.15 2.71841 -2.02208 0
M  V30 15347 C 1473.71 3.24274 -1.9111 0
M  V30 15348 C 1472.85 1.97029 -1.95128 0
M  V30 15349 H 1475.8 0.748628 -1.39933 0
M  V30 15350 H 1475.83 3.46407 -1.57425 0
M  V30 15351 H 1475.34 2.39556 -3.05343 0
M  V30 15352 H 1473.44 3.61333 -0.909367 0
M  V30 15353 H 1473.55 3.90887 -2.77027 0
M  V30 15354 H 1471.92 2.13249 -1.39273 0
M  V30 15355 H 1472.7 1.67066 -2.99907 0
M  V30 15356 N 1475.14 1.08871 1.13951 0
M  V30 15357 C 1476.39 0.822504 1.85372 0
M  V30 15358 C 1476.72 -0.650183 1.82993 0
M  V30 15359 O 1476 -1.4783 1.26398 0
M  V30 15360 C 1476.28 1.35107 3.33793 0
M  V30 15361 C 1476.13 2.88945 3.44719 0
M  V30 15362 C 1477.45 0.980203 4.29045 0
M  V30 15363 H 1474.57 0.300255 0.673065 0
M  V30 15364 H 1477.21 1.34914 1.33784 0
M  V30 15365 H 1475.36 0.903108 3.77857 0
M  V30 15366 H 1477.04 3.42148 3.09407 0
M  V30 15367 H 1475.28 3.26365 2.85777 0
M  V30 15368 H 1475.95 3.21004 4.49066 0
M  V30 15369 H 1478.43 1.36646 3.93023 0
M  V30 15370 H 1477.3 1.37717 5.31343 0
M  V30 15371 H 1477.56 -0.112253 4.41957 0
M  V30 15372 N 1476.62 -1.31073 0.875073 0
M  V30 15373 C 1477.53 -2.3215 0.338196 0
M  V30 15374 C 1478.55 -1.64928 -0.554504 0
M  V30 15375 O 1479.72 -1.96308 -0.449998 0
M  V30 15376 C 1476.79 -3.43804 -0.447163 0
M  V30 15377 C 1475.85 -4.26674 0.474106 0
M  V30 15378 C 1475.08 -5.32997 -0.273867 0
M  V30 15379 O 1475.31 -5.50288 -1.50129 0
M  V30 15380 O 1474.24 -6.00756 0.370913 0
M  V30 15381 H 1478.07 -2.80002 1.17612 0
M  V30 15382 H 1475.65 -1.35064 0.6386 0
M  V30 15383 H 1477.53 -4.11847 -0.892199 0
M  V30 15384 H 1476.21 -2.98105 -1.26155 0
M  V30 15385 H 1475.11 -3.61366 0.967748 0
M  V30 15386 H 1476.45 -4.75952 1.25423 0
M  V30 15387 N 1478.1 -0.635022 -1.4424 0
M  V30 15388 C 1479.03 0.0543561 -2.33437 0
M  V30 15389 C 1480.01 0.830807 -1.48431 0
M  V30 15390 O 1481.2 0.795913 -1.77141 0
M  V30 15391 C 1478.33 1.03391 -3.31553 0
M  V30 15392 C 1477.28 0.368824 -4.26408 0
M  V30 15393 C 1476.61 1.45855 -5.14422 0
M  V30 15394 C 1477.91 -0.727381 -5.1721 0
M  V30 15395 H 1479.6 -0.690489 -2.91329 0
M  V30 15396 H 1477.15 -0.3335 -1.40085 0
M  V30 15397 H 1479.1 1.52495 -3.9284 0
M  V30 15398 H 1477.82 1.80969 -2.71878 0
M  V30 15399 H 1476.48 -0.101605 -3.66459 0
M  V30 15400 H 1476.13 2.22531 -4.51098 0
M  V30 15401 H 1475.83 1.0189 -5.78699 0
M  V30 15402 H 1477.35 1.95132 -5.78581 0
M  V30 15403 H 1478.77 -0.319272 -5.7241 0
M  V30 15404 H 1477.17 -1.09041 -5.9011 0
M  V30 15405 H 1478.24 -1.59292 -4.57989 0
M  V30 15406 N 1479.58 1.53054 -0.375806 0
M  V30 15407 C 1480.49 2.29772 0.47349 0
M  V30 15408 C 1481.5 1.36144 1.08355 0
M  V30 15409 O 1482.68 1.69208 1.09228 0
M  V30 15410 C 1479.75 3.07964 1.59245 0
M  V30 15411 C 1478.81 4.17277 1.00888 0
M  V30 15412 C 1478.04 4.91731 2.07451 0
M  V30 15413 O 1478.26 4.66143 3.28736 0
M  V30 15414 O 1477.2 5.77413 1.69936 0
M  V30 15415 H 1481.02 3.03324 -0.151105 0
M  V30 15416 H 1478.61 1.48744 -0.139895 0
M  V30 15417 H 1480.49 3.56759 2.24279 0
M  V30 15418 H 1479.16 2.37239 2.20226 0
M  V30 15419 H 1478.07 3.7271 0.322167 0
M  V30 15420 H 1479.4 4.90198 0.443483 0
M  V30 15421 N 1481.06 0.105248 1.57248 0
M  V30 15422 C 1482 -0.867443 2.1582 0
M  V30 15423 C 1483 -1.28508 1.10373 0
M  V30 15424 O 1484.2 -1.25842 1.287 0
M  V30 15425 H 1480.58 -0.2978 0.690521 0
M  V30 15426 H 1482.55 -0.348831 2.96354 0
M  V30 15427 C 1481.3 -2.11299 2.7613 0
M  V30 15428 H 1480.62 -1.80054 3.5696 0
M  V30 15429 H 1482.06 -2.77395 3.20668 0
M  V30 15430 C 1480.52 -2.89372 1.72527 0
M  V30 15431 O 1481.05 -3.84274 1.17032 0
M  V30 15432 N 1479.26 -2.53103 1.42784 0
M  V30 15433 H 1478.8 -1.75998 1.88102 0
M  V30 15434 H 1478.76 -3.05639 0.737035 0
M  V30 15435 N 1482.53 -1.56697 -0.168486 0
M  V30 15436 C 1483.78 -1.81794 -0.882907 0
M  V30 15437 C 1484.1 -0.682707 -1.82658 0
M  V30 15438 O 1483.37 0.297234 -1.93632 0
M  V30 15439 H 1481.95 -0.670636 -0.329024 0
M  V30 15440 H 1484.62 -1.94178 -0.167625 0
M  V30 15441 H 1483.71 -2.75945 -1.45811 0
M  V30 15442 N 1484.01 0.437135 -1.51416 0
M  V30 15443 C 1484.94 1.538 -1.75692 0
M  V30 15444 C 1485.92 1.5891 -0.606759 0
M  V30 15445 O 1487.11 1.74635 -0.849492 0
M  V30 15446 C 1484.24 2.91877 -1.88215 0
M  V30 15447 C 1483.19 3.01628 -3.03652 0
M  V30 15448 C 1482.52 4.41687 -3.01358 0
M  V30 15449 C 1483.82 2.75691 -4.43612 0
M  V30 15450 H 1485.51 1.33737 -2.67871 0
M  V30 15451 H 1483.06 0.641936 -1.289 0
M  V30 15452 H 1485.01 3.68851 -2.03781 0
M  V30 15453 H 1483.74 3.13173 -0.926847 0
M  V30 15454 H 1482.39 2.27094 -2.87791 0
M  V30 15455 H 1482.04 4.5995 -2.03605 0
M  V30 15456 H 1481.74 4.49141 -3.78875 0
M  V30 15457 H 1483.27 5.20634 -3.19018 0
M  V30 15458 H 1484.68 3.42398 -4.59822 0
M  V30 15459 H 1483.08 2.94554 -5.22836 0
M  V30 15460 H 1484.15 1.71297 -4.53636 0
M  V30 15461 N 1485.49 1.41566 0.692592 0
M  V30 15462 C 1486.44 1.43857 1.82779 0
M  V30 15463 C 1487.43 0.316262 1.66422 0
M  V30 15464 O 1488.64 0.488433 1.73246 0
M  V30 15465 H 1485.01 0.450174 0.602368 0
M  V30 15466 H 1486.98 2.39524 1.77964 0
M  V30 15467 C 1485.73 1.34054 3.20819 0
M  V30 15468 H 1485.06 2.19701 3.34023 0
M  V30 15469 H 1486.5 1.39717 4.00319 0
M  V30 15470 C 1484.96 0.053218 3.36858 0
M  V30 15471 O 1485.49 -0.900928 3.91467 0
M  V30 15472 N 1483.69 -0.0238376 2.9059 0
M  V30 15473 H 1483.24 0.753374 2.46337 0
M  V30 15474 H 1483.2 -0.884571 3.017 0
M  V30 15475 N 1486.97 -0.927146 1.27443 0
M  V30 15476 C 1487.93 -2.00938 1.10257 0
M  V30 15477 C 1488.93 -1.60733 0.0463898 0
M  V30 15478 O 1490.12 -1.71752 0.291029 0
M  V30 15479 C 1487.25 -3.34047 0.680115 0
M  V30 15480 H 1488.45 -2.17615 2.06358 0
M  V30 15481 H 1486 -1.10802 1.10239 0
M  V30 15482 H 1486.73 -3.23069 -0.282259 0
M  V30 15483 H 1486.52 -3.64585 1.44291 0
M  V30 15484 H 1488.01 -4.13523 0.582126 0
M  V30 15485 N 1488.45 -1.09474 -1.13372 0
M  V30 15486 C 1489.72 -0.743485 -1.80919 0
M  V30 15487 C 1490.1 0.771414 -1.965 0
M  V30 15488 O 1489.45 1.694 -1.53349 0
M  V30 15489 C 1489.66 -1.48309 -3.1592 0
M  V30 15490 C 1491.01 -1.64921 -3.91263 0
M  V30 15491 O 1492.03 -1.44564 -3.25545 0
M  V30 15492 O 1490.89 -1.98595 -5.09139 0
M  V30 15493 H 1487.99 -0.26713 -0.782669 0
M  V30 15494 H 1490.53 -1.19697 -1.20294 0
M  V30 15495 H 1489.3 -2.51456 -2.99809 0
M  V30 15496 H 1488.93 -1.02181 -3.84246 0
M  V30 15497 N 1489.92 1.30607 -0.882012 0
M  V30 15498 C 1490.83 2.31967 -0.350503 0
M  V30 15499 C 1491.85 1.6522 0.54575 0
M  V30 15500 O 1493.03 1.96544 0.439581 0
M  V30 15501 C 1490.09 3.44037 0.428924 0
M  V30 15502 C 1489.15 4.26417 -0.496727 0
M  V30 15503 C 1488.39 5.33135 0.245597 0
M  V30 15504 O 1488.61 5.51077 1.47209 0
M  V30 15505 O 1487.54 6.00551 -0.402767 0
M  V30 15506 H 1491.37 2.79374 -1.19095 0
M  V30 15507 H 1488.95 1.34723 -0.645754 0
M  V30 15508 H 1490.84 4.12314 0.870346 0
M  V30 15509 H 1489.51 2.9877 1.24573 0
M  V30 15510 H 1488.42 3.60848 -0.986899 0
M  V30 15511 H 1489.75 4.7528 -1.27945 0
M  V30 15512 N 1491.4 0.642663 1.43901 0
M  V30 15513 C 1492.35 -0.0774542 2.27868 0
M  V30 15514 C 1493.34 -0.805028 1.39313 0
M  V30 15515 O 1494.53 -0.689234 1.63029 0
M  V30 15516 C 1491.66 -1.05046 3.26834 0
M  V30 15517 C 1490.74 -0.321911 4.22877 0
M  V30 15518 N 1491.13 0.655802 5.01531 0
M  V30 15519 C 1489.43 -0.5648 4.42409 0
M  V30 15520 C 1490.13 1.08729 5.71448 0
M  V30 15521 N 1489.11 0.423699 5.41946 0
M  V30 15522 H 1492.91 0.672951 2.86092 0
M  V30 15523 H 1490.43 0.469088 1.55478 0
M  V30 15524 H 1492.42 -1.58106 3.85756 0
M  V30 15525 H 1491.08 -1.80104 2.70171 0
M  V30 15526 H 1492.09 1.0341 5.07471 0
M  V30 15527 H 1488.77 -1.29736 3.96831 0
M  V30 15528 H 1490.16 1.89569 6.44603 0
M  V30 15529 N 1492.88 -1.52852 0.383918 0
M  V30 15530 C 1493.81 -2.22704 -0.497825 0
M  V30 15531 C 1494.79 -1.22573 -1.06839 0
M  V30 15532 O 1495.98 -1.51541 -1.12105 0
M  V30 15533 C 1493.1 -2.93606 -1.68858 0
M  V30 15534 C 1492.15 -4.07962 -1.24376 0
M  V30 15535 S 1492.98 -5.35007 -0.229773 0
M  V30 15536 C 1494.14 -6.09429 -1.42643 0
M  V30 15537 H 1494.37 -2.97147 0.0953535 0
M  V30 15538 H 1491.9 -1.53482 0.168084 0
M  V30 15539 H 1493.86 -3.35067 -2.3715 0
M  V30 15540 H 1492.52 -2.18853 -2.25304 0
M  V30 15541 H 1491.72 -4.56654 -2.13269 0
M  V30 15542 H 1491.32 -3.68486 -0.639823 0
M  V30 15543 H 1493.61 -6.35274 -2.35443 0
M  V30 15544 H 1494.55 -7.01278 -0.980541 0
M  V30 15545 H 1494.96 -5.40128 -1.6408 0
M  V30 15546 N 1494.36 -0.113586 -1.5719 0
M  V30 15547 C 1495.32 0.824258 -2.13866 0
M  V30 15548 C 1496.32 1.19831 -1.07224 0
M  V30 15549 O 1497.51 1.12471 -1.33026 0
M  V30 15550 C 1494.64 2.11391 -2.67445 0
M  V30 15551 H 1495.84 0.331803 -2.98059 0
M  V30 15552 H 1493.39 0.135599 -1.55711 0
M  V30 15553 H 1494.13 2.65079 -1.86824 0
M  V30 15554 H 1493.91 1.85523 -3.45433 0
M  V30 15555 H 1495.4 2.78443 -3.11222 0
M  V30 15556 N 1495.84 1.56784 0.160173 0
M  V30 15557 C 1496.79 1.98199 1.21737 0
M  V30 15558 C 1497.78 0.872381 1.4521 0
M  V30 15559 O 1498.99 1.05753 1.45658 0
M  V30 15560 H 1495.36 0.630742 0.409474 0
M  V30 15561 H 1497.33 2.86295 0.841289 0
M  V30 15562 C 1496.08 2.36748 2.54648 0
M  V30 15563 H 1495.4 3.21676 2.37413 0
M  V30 15564 H 1496.84 2.69561 3.27281 0
M  V30 15565 C 1495.3 1.2151 3.14224 0
M  V30 15566 O 1495.83 0.508739 3.98465 0
M  V30 15567 N 1494.04 0.982766 2.73478 0
M  V30 15568 H 1493.59 1.55893 2.05073 0
M  V30 15569 H 1493.54 0.213589 3.13674 0
M  V30 15570 N 1497.32 -0.429099 1.51646 0
M  V30 15571 C 1498.54 -1.20006 1.68541 0
M  V30 15572 C 1498.96 -1.84806 0.386264 0
M  V30 15573 O 1498.32 -1.7106 -0.635988 0
M  V30 15574 C 1498.37 -2.27801 2.80694 0
M  V30 15575 O 1498.09 -1.65649 4.05576 0
M  V30 15576 C 1499.59 -3.17927 3.08929 0
M  V30 15577 H 1496.81 -0.361388 0.565367 0
M  V30 15578 H 1499.35 -0.507432 1.98104 0
M  V30 15579 H 1497.51 -2.92766 2.53706 0
M  V30 15580 H 1497.92 -2.36955 4.67924 0
M  V30 15581 H 1499.4 -3.8968 3.90965 0
M  V30 15582 H 1499.87 -3.79157 2.21668 0
M  V30 15583 H 1500.48 -2.58654 3.37606 0
M  V30 15584 N 1498.79 -1.41931 -0.685074 0
M  V30 15585 C 1500.07 -1.32338 -1.44035 0
M  V30 15586 C 1500.45 0.0441161 -2.11054 0
M  V30 15587 O 1499.8 1.05901 -2.02478 0
M  V30 15588 C 1500.01 -2.48429 -2.45121 0
M  V30 15589 C 1501.36 -2.90076 -3.10067 0
M  V30 15590 O 1502.38 -2.48245 -2.55447 0
M  V30 15591 O 1501.24 -3.62445 -4.09019 0
M  V30 15592 H 1498.33 -0.521361 -0.641959 0
M  V30 15593 H 1500.88 -1.53918 -0.714666 0
M  V30 15594 H 1499.65 -3.39637 -1.94326 0
M  V30 15595 H 1499.27 -2.28781 -3.25184 0
M  V30 15596 N 1500.27 0.920374 -1.27933 0
M  V30 15597 C 1501.5 1.70804 -1.17647 0
M  V30 15598 C 1501.92 1.86264 0.262189 0
M  V30 15599 O 1501.28 1.36798 1.18979 0
M  V30 15600 C 1501.33 3.08142 -1.87298 0
M  V30 15601 O 1500.43 3.95279 -1.17593 0
M  V30 15602 H 1499.77 0.523267 -0.408763 0
M  V30 15603 H 1502.3 1.15127 -1.69136 0
M  V30 15604 H 1502.31 3.58414 -1.94945 0
M  V30 15605 H 1500.99 2.96208 -2.91948 0
M  V30 15606 H 1499.56 3.53716 -1.18065 0
M  V30 15607 N 1501.75 1.10074 1.1279 0
M  V30 15608 C 1503 0.835715 1.83572 0
M  V30 15609 C 1503.31 -0.640831 1.84805 0
M  V30 15610 O 1504.52 -1.02162 2.51545 0
M  V30 15611 C 1502.97 1.44519 3.29609 0
M  V30 15612 C 1502.58 2.95476 3.36746 0
M  V30 15613 C 1504.33 1.2594 4.05388 0
M  V30 15614 C 1502.23 3.49477 4.77095 0
M  V30 15615 H 1501.16 0.308974 0.687787 0
M  V30 15616 H 1503.81 1.32427 1.27025 0
M  V30 15617 H 1502.2 0.884323 3.86 0
M  V30 15618 H 1503.37 3.57846 2.90315 0
M  V30 15619 H 1501.68 3.13166 2.74437 0
M  V30 15620 H 1504.28 1.63732 5.09015 0
M  V30 15621 H 1504.62 0.200633 4.15816 0
M  V30 15622 H 1505.16 1.78814 3.55346 0
M  V30 15623 H 1501.9 4.55003 4.7186 0
M  V30 15624 H 1501.42 2.91873 5.23995 0
M  V30 15625 H 1503.1 3.47077 5.46028 0
M  V30 15626 N 1503.23 -1.30138 0.888926 0
M  V30 15627 C 1504.47 -1.97776 0.516122 0
M  V30 15628 C 1504.83 -1.68613 -0.918358 0
M  V30 15629 O 1506.03 -2.29617 -1.39748 0
M  V30 15630 C 1504.3 -3.48608 0.787866 0
M  V30 15631 S 1505.86 -4.35735 0.517757 0
M  V30 15632 H 1502.68 -0.684617 0.191885 0
M  V30 15633 H 1505.28 -1.58168 1.14904 0
M  V30 15634 H 1503.99 -3.67326 1.8303 0
M  V30 15635 H 1503.52 -3.93141 0.142652 0
M  V30 15636 H 1505.53 -4.9203 -0.64192 0
M  V30 15637 N 1504.71 -0.650285 -1.43559 0
M  V30 15638 C 1505.64 0.0817484 -2.29054 0
M  V30 15639 C 1506.65 0.790023 -1.42346 0
M  V30 15640 O 1507.84 0.648269 -1.66312 0
M  V30 15641 C 1504.94 1.13873 -3.19196 0
M  V30 15642 C 1504.11 0.509177 -4.34426 0
M  V30 15643 C 1503.17 1.46265 -5.05463 0
M  V30 15644 O 1502.2 0.972378 -5.60833 0
M  V30 15645 N 1503.4 2.79668 -5.08691 0
M  V30 15646 H 1506.16 -0.652062 -2.92521 0
M  V30 15647 H 1503.73 -0.49285 -1.54216 0
M  V30 15648 H 1505.72 1.77732 -3.63584 0
M  V30 15649 H 1504.29 1.77454 -2.5735 0
M  V30 15650 H 1503.51 -0.308444 -3.92991 0
M  V30 15651 H 1504.8 0.0695732 -5.08752 0
M  V30 15652 H 1504.19 3.22062 -4.65072 0
M  V30 15653 H 1502.75 3.38838 -5.56805 0
M  V30 15654 N 1506.18 1.52647 -0.392018 0
M  V30 15655 C 1507.59 1.86522 0.0814091 0
M  V30 15656 C 1507.95 1.31158 1.45918 0
M  V30 15657 O 1507.07 0.644007 2.06595 0
M  V30 15658 C 1507.67 3.38448 0.1545 0
M  V30 15659 C 1506.22 3.72025 0.572227 0
M  V30 15660 C 1505.37 2.7604 -0.264093 0
M  V30 15661 H 1508.32 1.46517 -0.609785 0
M  V30 15662 H 1508.34 3.67846 0.973109 0
M  V30 15663 H 1507.86 3.78713 -0.848396 0
M  V30 15664 H 1505.96 3.37329 1.58239 0
M  V30 15665 H 1506.07 4.77973 0.328491 0
M  V30 15666 H 1504.43 2.53254 0.271042 0
M  V30 15667 H 1505.22 3.19143 -1.26502 0
M  V30 15668 N 1507.66 0.121921 1.57128 0
M  V30 15669 C 1508.59 -0.823788 2.18486 0
M  V30 15670 C 1509.57 -1.27519 1.12574 0
M  V30 15671 O 1510.76 -1.33727 1.40822 0
M  V30 15672 C 1507.89 -2.07284 2.78659 0
M  V30 15673 C 1506.84 -1.75912 3.90178 0
M  V30 15674 C 1506.17 -3.07871 4.37172 0
M  V30 15675 C 1507.47 -1.02517 5.1214 0
M  V30 15676 H 1509.16 -0.312488 2.97765 0
M  V30 15677 H 1506.71 -0.148862 1.43228 0
M  V30 15678 H 1508.66 -2.73903 3.20242 0
M  V30 15679 H 1507.39 -2.60743 1.96673 0
M  V30 15680 H 1506.04 -1.11681 3.49174 0
M  V30 15681 H 1505.69 -3.59271 3.52041 0
M  V30 15682 H 1505.39 -2.87653 5.12376 0
M  V30 15683 H 1506.92 -3.75604 4.81409 0
M  V30 15684 H 1508.33 -1.59295 5.50725 0
M  V30 15685 H 1506.73 -0.923836 5.92946 0
M  V30 15686 H 1507.8 -0.0124219 4.84898 0
M  V30 15687 N 1509.14 -1.56867 -0.151857 0
M  V30 15688 C 1510.39 -1.82273 -0.863689 0
M  V30 15689 C 1510.7 -0.702377 -1.82554 0
M  V30 15690 O 1511.91 -0.841903 -2.58117 0
M  V30 15691 C 1510.36 -3.23046 -1.58649 0
M  V30 15692 C 1509.97 -4.43003 -0.667292 0
M  V30 15693 C 1511.72 -3.57729 -2.28539 0
M  V30 15694 C 1509.62 -5.74798 -1.39144 0
M  V30 15695 H 1508.55 -0.679753 -0.326269 0
M  V30 15696 H 1511.2 -1.8313 -0.116454 0
M  V30 15697 H 1509.59 -3.16561 -2.37918 0
M  V30 15698 H 1510.76 -4.60712 0.0898254 0
M  V30 15699 H 1509.08 -4.16329 -0.0770521 0
M  V30 15700 H 1511.67 -4.53451 -2.83348 0
M  V30 15701 H 1512.02 -2.8355 -3.04803 0
M  V30 15702 H 1512.55 -3.65853 -1.56194 0
M  V30 15703 H 1509.29 -6.52059 -0.670747 0
M  V30 15704 H 1508.81 -5.61032 -2.12139 0
M  V30 15705 H 1510.49 -6.17429 -1.93367 0
M  V30 15706 N 1510.62 0.421051 -1.51871 0
M  V30 15707 C 1511.57 1.5122 -1.74359 0
M  V30 15708 C 1512.54 1.55432 -0.585667 0
M  V30 15709 O 1513.72 1.7219 -0.821912 0
M  V30 15710 C 1510.86 2.88787 -1.88935 0
M  V30 15711 C 1509.97 2.93977 -3.16546 0
M  V30 15712 C 1509.11 4.22768 -3.21622 0
M  V30 15713 C 1508.15 4.21888 -4.43483 0
M  V30 15714 N 1507.28 5.4223 -4.46017 0
M  V30 15715 H 1512.12 1.31348 -2.67492 0
M  V30 15716 H 1509.66 0.637779 -1.32555 0
M  V30 15717 H 1511.62 3.68629 -1.95368 0
M  V30 15718 H 1510.25 3.07181 -0.991942 0
M  V30 15719 H 1509.3 2.06699 -3.19343 0
M  V30 15720 H 1510.61 2.8919 -4.06412 0
M  V30 15721 H 1509.77 5.10995 -3.27061 0
M  V30 15722 H 1508.51 4.30234 -2.29674 0
M  V30 15723 H 1507.51 3.32052 -4.38202 0
M  V30 15724 H 1508.74 4.16072 -5.36713 0
M  V30 15725 H 1506.68 5.50386 -3.56947 0
M  V30 15726 H 1506.6 5.39389 -5.29713 0
M  V30 15727 H 1507.87 6.32443 -4.55671 0
M  V30 15728 N 1512.1 1.42293 0.677538 0
M  V30 15729 C 1513.34 1.42334 1.43476 0
M  V30 15730 C 1513.67 0.0397842 1.94959 0
M  V30 15731 O 1512.94 -0.921258 1.72886 0
M  V30 15732 H 1511.52 0.523969 0.532415 0
M  V30 15733 H 1514.18 1.7769 0.800758 0
M  V30 15734 H 1513.27 2.12146 2.28912 0
M  V30 15735 N 1513.57 -0.913576 1.28419 0
M  V30 15736 C 1514.99 -1.192 1.0613 0
M  V30 15737 C 1515.19 -2.00542 -0.196232 0
M  V30 15738 O 1514.25 -2.35998 -0.897853 0
M  V30 15739 C 1515.56 -1.92642 2.30889 0
M  V30 15740 C 1517.11 -2.05524 2.3607 0
M  V30 15741 C 1517.58 -2.82374 3.60595 0
M  V30 15742 N 1519.07 -2.89935 3.61236 0
M  V30 15743 C 1519.81 -3.49899 4.54266 0
M  V30 15744 N 1519.3 -4.11141 5.57615 0
M  V30 15745 N 1521.1 -3.4744 4.41862 0
M  V30 15746 H 1513.25 -0.370509 2.09143 0
M  V30 15747 H 1515.51 -0.226573 0.920526 0
M  V30 15748 H 1515.22 -1.40299 3.22504 0
M  V30 15749 H 1515.09 -2.93191 2.37316 0
M  V30 15750 H 1517.48 -2.57047 1.44951 0
M  V30 15751 H 1517.56 -1.0415 2.33637 0
M  V30 15752 H 1517.2 -2.3153 4.52058 0
M  V30 15753 H 1517.13 -3.84063 3.60282 0
M  V30 15754 H 1519.62 -2.46424 2.86502 0
M  V30 15755 H 1519.94 -4.54877 6.24746 0
M  V30 15756 H 1518.28 -4.09645 5.61441 0
M  V30 15757 H 1521.47 -2.98806 3.60323 0
M  V30 15758 H 1521.65 -3.9388 5.14551 0
M  V30 15759 N 1515.05 -1.1067 -1.12204 0
M  V30 15760 C 1516.28 -0.873095 -1.88127 0
M  V30 15761 C 1516.7 0.571099 -1.79221 0
M  V30 15762 O 1516.06 1.40251 -1.14888 0
M  V30 15763 C 1516.11 -1.32922 -3.35208 0
M  V30 15764 O 1515.21 -0.495807 -4.09409 0
M  V30 15765 H 1514.55 -0.315138 -0.584452 0
M  V30 15766 H 1517.08 -1.47413 -1.41882 0
M  V30 15767 H 1517.09 -1.32023 -3.86049 0
M  V30 15768 H 1515.77 -2.38091 -3.41007 0
M  V30 15769 H 1514.35 -0.570216 -3.68515 0
M  V30 15770 N 1516.53 1.29665 -0.895815 0
M  V30 15771 C 1517.49 2.26103 -0.3755 0
M  V30 15772 C 1518.49 1.53212 0.488126 0
M  V30 15773 O 1519.68 1.71706 0.293733 0
M  V30 15774 C 1516.82 3.37732 0.46364 0
M  V30 15775 H 1518.01 2.73643 -1.22718 0
M  V30 15776 H 1515.56 1.4104 -0.673613 0
M  V30 15777 H 1516.3 2.95526 1.33546 0
M  V30 15778 H 1516.08 3.91793 -0.155123 0
M  V30 15779 H 1517.57 4.09488 0.819112 0
M  V30 15780 N 1518.01 0.657889 1.43212 0
M  V30 15781 C 1519.42 0.252443 1.84985 0
M  V30 15782 C 1519.77 -1.20196 1.55072 0
M  V30 15783 O 1518.9 -1.91803 1.00202 0
M  V30 15784 C 1519.49 0.451388 3.3578 0
M  V30 15785 C 1518.05 0.100219 3.76267 0
M  V30 15786 C 1517.2 0.752009 2.66908 0
M  V30 15787 H 1520.15 0.861239 1.33298 0
M  V30 15788 H 1520.17 -0.30169 3.79302 0
M  V30 15789 H 1519.68 1.51001 3.5752 0
M  V30 15790 H 1517.78 -0.955618 3.60137 0
M  V30 15791 H 1517.89 0.528942 4.76171 0
M  V30 15792 H 1516.26 0.184823 2.54029 0
M  V30 15793 H 1517.04 1.81375 2.91476 0
M  V30 15794 N 1519.49 -1.52437 0.400108 0
M  V30 15795 C 1520.73 -2.01312 -0.178252 0
M  V30 15796 C 1521.06 -1.28797 -1.46411 0
M  V30 15797 O 1520.33 -0.411211 -1.91536 0
M  V30 15798 H 1518.91 -0.743819 -0.0688613 0
M  V30 15799 H 1521.57 -1.87434 0.53428 0
M  V30 15800 H 1520.66 -3.09768 -0.380793 0
M  V30 15801 N 1520.96 -0.130252 -1.57061 0
M  V30 15802 C 1522.38 0.226279 -1.57988 0
M  V30 15803 C 1522.58 1.65902 -1.14363 0
M  V30 15804 O 1521.64 2.38252 -0.836191 0
M  V30 15805 C 1522.95 -0.0172647 -3.00695 0
M  V30 15806 C 1524.5 0.0477572 -3.12964 0
M  V30 15807 C 1524.97 -0.168238 -4.57691 0
M  V30 15808 N 1526.46 -0.114591 -4.63058 0
M  V30 15809 C 1527.2 -0.256462 -5.72826 0
M  V30 15810 N 1526.69 -0.455129 -6.91303 0
M  V30 15811 N 1528.49 -0.195243 -5.61761 0
M  V30 15812 H 1520.64 -1.06594 -1.83716 0
M  V30 15813 H 1522.9 -0.420643 -0.849567 0
M  V30 15814 H 1522.61 -1.00819 -3.3694 0
M  V30 15815 H 1522.48 0.709629 -3.70465 0
M  V30 15816 H 1524.87 1.02922 -2.7657 0
M  V30 15817 H 1524.95 -0.711198 -2.45714 0
M  V30 15818 H 1524.59 -1.14673 -4.94785 0
M  V30 15819 H 1524.52 0.610839 -5.23045 0
M  V30 15820 H 1527.01 0.0349873 -3.77884 0
M  V30 15821 H 1527.33 -0.553943 -7.70812 0
M  V30 15822 H 1525.67 -0.491244 -6.93262 0
M  V30 15823 H 1528.86 -0.0409186 -4.68082 0
M  V30 15824 H 1529.04 -0.309248 -6.47262 0
M  V30 15825 N 1522.44 1.56945 0.143535 0
M  V30 15826 C 1523.37 2.0156 1.17881 0
M  V30 15827 C 1524.35 0.895744 1.44604 0
M  V30 15828 O 1525.54 1.16379 1.55466 0
M  V30 15829 C 1522.67 2.39915 2.51114 0
M  V30 15830 C 1521.62 3.55117 2.38905 0
M  V30 15831 C 1520.95 3.79296 3.7688 0
M  V30 15832 C 1522.25 4.87668 1.87021 0
M  V30 15833 H 1523.94 2.88296 0.80783 0
M  V30 15834 H 1521.49 1.38698 0.387149 0
M  V30 15835 H 1523.44 2.69727 3.23767 0
M  V30 15836 H 1522.17 1.5012 2.90055 0
M  V30 15837 H 1520.83 3.25476 1.68703 0
M  V30 15838 H 1520.47 2.86747 4.13262 0
M  V30 15839 H 1520.17 4.56827 3.69571 0
M  V30 15840 H 1521.7 4.11537 4.51076 0
M  V30 15841 H 1523.11 5.16176 2.4947 0
M  V30 15842 H 1521.51 5.69029 1.90594 0
M  V30 15843 H 1522.58 4.77811 0.82611 0
M  V30 15844 N 1523.92 -0.412991 1.52093 0
M  V30 15845 C 1524.87 -1.52347 1.75765 0
M  V30 15846 C 1525.86 -1.57463 0.624641 0
M  V30 15847 O 1527.07 -1.60916 0.806599 0
M  V30 15848 H 1523.44 -0.50659 0.555761 0
M  V30 15849 H 1525.42 -1.29564 2.68804 0
M  V30 15850 C 1524.16 -2.89757 1.92188 0
M  V30 15851 H 1523.49 -2.86561 2.78788 0
M  V30 15852 H 1524.93 -3.66759 2.12753 0
M  V30 15853 C 1523.39 -3.29801 0.687963 0
M  V30 15854 O 1523.92 -4.01435 -0.145984 0
M  V30 15855 N 1522.12 -2.85819 0.524978 0
M  V30 15856 H 1521.67 -2.27694 1.20471 0
M  V30 15857 H 1521.63 -3.12972 -0.299325 0
M  V30 15858 N 1525.4 -1.4265 -0.669982 0
M  V30 15859 C 1526.33 -1.42457 -1.79551 0
M  V30 15860 C 1527.34 -0.322966 -1.59564 0
M  V30 15861 O 1528.53 -0.586359 -1.68594 0
M  V30 15862 C 1525.63 -1.20561 -3.16731 0
M  V30 15863 C 1524.81 -2.43246 -3.63525 0
M  V30 15864 C 1523.87 -2.16823 -4.79452 0
M  V30 15865 O 1522.89 -2.90058 -4.8975 0
M  V30 15866 N 1524.09 -1.17436 -5.68497 0
M  V30 15867 H 1526.86 -2.39474 -1.80201 0
M  V30 15868 H 1524.42 -1.37591 -0.853244 0
M  V30 15869 H 1526.41 -1.00794 -3.91947 0
M  V30 15870 H 1524.98 -0.320497 -3.10953 0
M  V30 15871 H 1524.2 -2.78549 -2.78934 0
M  V30 15872 H 1525.49 -3.24931 -3.91532 0
M  V30 15873 H 1524.89 -0.568736 -5.62834 0
M  V30 15874 H 1523.44 -1.03655 -6.43505 0
M  V30 15875 N 1526.88 0.906753 -1.28902 0
M  V30 15876 C 1528.29 1.47175 -1.14876 0
M  V30 15877 C 1528.64 1.94487 0.258693 0
M  V30 15878 O 1527.76 1.83088 1.15359 0
M  V30 15879 C 1528.36 2.67491 -2.07928 0
M  V30 15880 C 1526.92 3.20148 -1.97946 0
M  V30 15881 C 1526.07 1.92846 -1.99263 0
M  V30 15882 H 1529.02 0.718777 -1.4149 0
M  V30 15883 H 1529.04 3.42989 -1.64738 0
M  V30 15884 H 1528.55 2.33025 -3.10356 0
M  V30 15885 H 1526.65 3.59322 -0.985806 0
M  V30 15886 H 1526.76 3.84923 -2.85256 0
M  V30 15887 H 1525.13 2.10247 -1.43765 0
M  V30 15888 H 1525.91 1.60666 -3.03383 0
M  V30 15889 N 1528.36 1.11264 1.11616 0
M  V30 15890 C 1529.58 0.88306 1.87661 0
M  V30 15891 C 1530.01 -0.561586 1.79521 0
M  V30 15892 O 1529.36 -1.3964 1.1563 0
M  V30 15893 C 1529.41 1.34698 3.34498 0
M  V30 15894 O 1528.52 0.517512 4.0914 0
M  V30 15895 H 1527.86 0.318233 0.582772 0
M  V30 15896 H 1530.39 1.48164 1.41098 0
M  V30 15897 H 1530.4 1.34068 3.85344 0
M  V30 15898 H 1529.07 2.39896 3.39739 0
M  V30 15899 H 1527.65 0.589751 3.68207 0
M  V30 15900 N 1529.83 -1.29188 0.902679 0
M  V30 15901 C 1530.8 -2.25901 0.387485 0
M  V30 15902 C 1531.8 -1.53469 -0.479993 0
M  V30 15903 O 1532.99 -1.71859 -0.284623 0
M  V30 15904 C 1530.12 -3.37974 -0.445723 0
M  V30 15905 H 1531.31 -2.72988 1.24167 0
M  V30 15906 H 1528.86 -1.4068 0.681083 0
M  V30 15907 H 1529.6 -2.9623 -1.31977 0
M  V30 15908 H 1529.38 -3.91705 0.175899 0
M  V30 15909 H 1530.87 -4.09917 -0.797384 0
M  V30 15910 N 1531.31 -0.665475 -1.42861 0
M  V30 15911 C 1532.56 -0.184156 -2.01962 0
M  V30 15912 C 1532.89 1.20301 -1.52451 0
M  V30 15913 O 1532.17 1.80573 -0.722756 0
M  V30 15914 C 1532.45 -0.208497 -3.59496 0
M  V30 15915 C 1532.3 -1.63045 -4.19209 0
M  V30 15916 C 1533.62 0.448421 -4.3781 0
M  V30 15917 H 1530.74 -0.0683924 -0.73382 0
M  V30 15918 H 1533.38 -0.84849 -1.70002 0
M  V30 15919 H 1531.53 0.357179 -3.86855 0
M  V30 15920 H 1533.2 -2.24766 -4.02837 0
M  V30 15921 H 1531.45 -2.17401 -3.75392 0
M  V30 15922 H 1532.12 -1.59924 -5.28326 0
M  V30 15923 H 1534.59 -0.0330053 -4.16087 0
M  V30 15924 H 1533.47 0.400713 -5.47435 0
M  V30 15925 H 1533.73 1.52454 -4.14982 0
M  V30 15926 N 1532.79 1.52222 -0.408187 0
M  V30 15927 C 1534.04 2.01404 0.167574 0
M  V30 15928 C 1534.36 1.29572 1.45726 0
M  V30 15929 O 1533.63 0.421363 1.91315 0
M  V30 15930 H 1532.21 0.744174 0.0649156 0
M  V30 15931 H 1534.87 1.87148 -0.544212 0
M  V30 15932 H 1533.97 3.09966 0.36436 0
M  V30 15933 N 1534.27 0.138579 1.5699 0
M  V30 15934 C 1535.5 -0.521806 2.00212 0
M  V30 15935 C 1535.91 -1.58967 1.01857 0
M  V30 15936 O 1535.27 -1.82494 0.0143099 0
M  V30 15937 C 1535.32 -1.13014 3.4338 0
M  V30 15938 O 1535.04 -0.104938 4.37974 0
M  V30 15939 C 1536.54 -1.87195 4.01837 0
M  V30 15940 H 1533.76 -0.136564 0.656956 0
M  V30 15941 H 1536.3 0.230685 2.03195 0
M  V30 15942 H 1534.46 -1.8333 3.41275 0
M  V30 15943 H 1534.87 -0.54948 5.21614 0
M  V30 15944 H 1536.35 -2.25061 5.04035 0
M  V30 15945 H 1536.82 -2.75467 3.42074 0
M  V30 15946 H 1537.43 -1.21597 4.07547 0
M  V30 15947 N 1535.75 -1.57019 -0.13521 0
M  V30 15948 C 1537.16 -1.51949 -0.48824 0
M  V30 15949 C 1537.36 -0.848955 -1.82743 0
M  V30 15950 O 1536.42 -0.424441 -2.48907 0
M  V30 15951 C 1537.73 -2.96719 -0.487673 0
M  V30 15952 C 1539.28 -3.07722 -0.572365 0
M  V30 15953 C 1539.75 -4.54022 -0.602347 0
M  V30 15954 N 1541.24 -4.58413 -0.664242 0
M  V30 15955 C 1541.98 -5.69005 -0.70862 0
M  V30 15956 N 1541.48 -6.89135 -0.711626 0
M  V30 15957 N 1543.27 -5.57069 -0.750399 0
M  V30 15958 H 1535.42 -1.99001 0.742465 0
M  V30 15959 H 1537.68 -0.908116 0.272083 0
M  V30 15960 H 1537.39 -3.49082 0.428363 0
M  V30 15961 H 1537.26 -3.53299 -1.32136 0
M  V30 15962 H 1539.65 -2.55372 -1.47882 0
M  V30 15963 H 1539.73 -2.54166 0.288696 0
M  V30 15964 H 1539.37 -5.07013 0.3 0
M  V30 15965 H 1539.3 -5.05373 -1.48006 0
M  V30 15966 H 1541.8 -3.71936 -0.668739 0
M  V30 15967 H 1542.11 -7.69175 -0.747663 0
M  V30 15968 H 1540.45 -6.91672 -0.679311 0
M  V30 15969 H 1543.64 -4.62129 -0.745301 0
M  V30 15970 H 1543.82 -6.4327 -0.781518 0
M  V30 15971 N 1537.22 0.404919 -1.52309 0
M  V30 15972 C 1538.16 1.51276 -1.72186 0
M  V30 15973 C 1539.17 1.5125 -0.602276 0
M  V30 15974 O 1540.36 1.55439 -0.877549 0
M  V30 15975 C 1537.46 2.90162 -1.75099 0
M  V30 15976 C 1536.63 3.14333 -3.04161 0
M  V30 15977 C 1535.69 4.33113 -2.9883 0
M  V30 15978 O 1534.72 4.30189 -3.72728 0
M  V30 15979 N 1535.92 5.38451 -2.16911 0
M  V30 15980 H 1538.68 1.34618 -2.67765 0
M  V30 15981 H 1536.24 0.594264 -1.50599 0
M  V30 15982 H 1538.24 3.67697 -1.69058 0
M  V30 15983 H 1536.81 3.00257 -0.869756 0
M  V30 15984 H 1536.03 2.24803 -3.23817 0
M  V30 15985 H 1537.31 3.27327 -3.89531 0
M  V30 15986 H 1536.71 5.43676 -1.56309 0
M  V30 15987 H 1535.27 6.14715 -2.16724 0
M  V30 15988 N 1538.7 1.43003 0.662408 0
M  V30 15989 C 1539.63 1.43407 1.78793 0
M  V30 15990 C 1540.65 0.331423 1.59391 0
M  V30 15991 O 1541.84 0.595291 1.68281 0
M  V30 15992 C 1538.94 1.22239 3.16087 0
M  V30 15993 C 1538.11 2.4517 3.6223 0
M  V30 15994 C 1537.17 2.19362 4.78296 0
M  V30 15995 O 1536.19 2.92651 4.88205 0
M  V30 15996 N 1537.4 1.20449 5.67866 0
M  V30 15997 H 1540.16 2.40426 1.78928 0
M  V30 15998 H 1537.72 1.38042 0.845936 0
M  V30 15999 H 1539.71 1.02871 3.91407 0
M  V30 16000 H 1538.28 0.336983 3.10778 0
M  V30 16001 H 1537.5 2.80024 2.77453 0
M  V30 16002 H 1538.79 3.27003 3.89803 0
M  V30 16003 H 1538.19 0.598577 5.62524 0
M  V30 16004 H 1536.75 1.07066 6.42946 0
M  V30 16005 N 1540.18 -0.899904 1.29381 0
M  V30 16006 C 1541.13 -2.004 1.14493 0
M  V30 16007 C 1542.1 -1.66056 0.0383099 0
M  V30 16008 O 1543.28 -1.89687 0.20579 0
M  V30 16009 C 1540.42 -3.35039 0.827237 0
M  V30 16010 C 1539.54 -3.82166 2.01427 0
M  V30 16011 C 1538.67 -5.0538 1.63598 0
M  V30 16012 C 1537.71 -5.44876 2.78884 0
M  V30 16013 N 1536.85 -6.59276 2.41452 0
M  V30 16014 H 1541.69 -2.12466 2.08955 0
M  V30 16015 H 1539.22 -1.0405 1.03981 0
M  V30 16016 H 1541.18 -4.12511 0.62373 0
M  V30 16017 H 1539.81 -3.227 -0.0804772 0
M  V30 16018 H 1538.86 -3.00731 2.32949 0
M  V30 16019 H 1540.18 -4.07387 2.87814 0
M  V30 16020 H 1539.33 -5.90436 1.39534 0
M  V30 16021 H 1538.07 -4.81998 0.743593 0
M  V30 16022 H 1537.07 -4.58355 3.0363 0
M  V30 16023 H 1538.3 -5.7024 3.68786 0
M  V30 16024 H 1536.24 -6.37498 1.54701 0
M  V30 16025 H 1536.16 -6.84293 3.21372 0
M  V30 16026 H 1537.43 -7.47602 2.20708 0
M  V30 16027 N 1541.66 -1.11854 -1.11024 0
M  V30 16028 C 1542.59 -0.803129 -2.19253 0
M  V30 16029 C 1543.57 0.230417 -1.68532 0
M  V30 16030 O 1544.75 0.0929421 -1.93977 0
M  V30 16031 C 1541.88 -0.250265 -3.46397 0
M  V30 16032 C 1540.84 -1.21617 -4.10357 0
M  V30 16033 C 1540.16 -0.523821 -5.32128 0
M  V30 16034 C 1541.46 -2.56852 -4.54779 0
M  V30 16035 H 1543.16 -1.7081 -2.45895 0
M  V30 16036 H 1540.7 -0.822712 -1.18184 0
M  V30 16037 H 1542.66 -0.0173732 -4.21396 0
M  V30 16038 H 1541.38 0.690018 -3.19228 0
M  V30 16039 H 1540.04 -1.43477 -3.37357 0
M  V30 16040 H 1539.69 0.421408 -5.01232 0
M  V30 16041 H 1539.39 -1.16809 -5.75873 0
M  V30 16042 H 1540.91 -0.299823 -6.09863 0
M  V30 16043 H 1542.33 -2.39056 -5.21081 0
M  V30 16044 H 1540.72 -3.17301 -5.09353 0
M  V30 16045 H 1541.79 -3.15751 -3.68007 0
M  V30 16046 N 1543.14 1.28707 -0.909517 0
M  V30 16047 C 1544.36 1.99283 -0.556211 0
M  V30 16048 C 1544.78 1.68 0.861475 0
M  V30 16049 O 1544.14 0.930421 1.57001 0
M  V30 16050 C 1544.19 3.5362 -0.75068 0
M  V30 16051 O 1543.91 3.83799 -2.11258 0
M  V30 16052 C 1545.41 4.41459 -0.403637 0
M  V30 16053 H 1542.63 0.636476 -0.212462 0
M  V30 16054 H 1545.17 1.64007 -1.22156 0
M  V30 16055 H 1543.33 3.87174 -0.132384 0
M  V30 16056 H 1543.74 4.78448 -2.14913 0
M  V30 16057 H 1545.22 5.48833 -0.590496 0
M  V30 16058 H 1545.69 4.34214 0.659897 0
M  V30 16059 H 1546.3 4.13394 -0.999292 0
M  V30 16060 N 1544.61 0.673042 1.42506 0
M  V30 16061 C 1545.84 0.201349 2.0642 0
M  V30 16062 C 1546.26 -1.132 1.50224 0
M  V30 16063 O 1545.62 -1.70368 0.620024 0
M  V30 16064 C 1545.67 0.14505 3.60308 0
M  V30 16065 O 1544.77 -0.886953 4.02749 0
M  V30 16066 H 1544.12 0.103975 0.655809 0
M  V30 16067 H 1546.65 0.921559 1.8267 0
M  V30 16068 H 1546.66 -0.0316792 4.07988 0
M  V30 16069 H 1545.33 1.11829 4.00583 0
M  V30 16070 H 1543.91 -0.681408 3.66621 0
M  V30 16071 N 1546.09 -1.52004 0.416254 0
M  V30 16072 C 1547.06 -2.2579 -0.393882 0
M  V30 16073 C 1548.06 -1.28427 -0.967637 0
M  V30 16074 O 1549.25 -1.52311 -0.845396 0
M  V30 16075 C 1546.38 -3.03361 -1.55515 0
M  V30 16076 H 1547.57 -2.98835 0.252492 0
M  V30 16077 H 1545.12 -1.55384 0.168929 0
M  V30 16078 H 1545.86 -2.34682 -2.23818 0
M  V30 16079 H 1545.64 -3.74852 -1.15015 0
M  V30 16080 H 1547.13 -3.5931 -2.12805 0
M  V30 16081 N 1547.57 -0.146903 -1.56914 0
M  V30 16082 C 1548.82 0.504234 -1.96122 0
M  V30 16083 C 1549.15 1.64879 -1.03175 0
M  V30 16084 O 1548.4 1.95605 -0.0609397 0
M  V30 16085 C 1548.7 1.05159 -3.41579 0
M  V30 16086 C 1548.37 0.0254845 -4.50893 0
M  V30 16087 C 1547.03 -0.256589 -4.80515 0
M  V30 16088 C 1549.38 -0.672284 -5.16846 0
M  V30 16089 C 1546.71 -1.24224 -5.73398 0
M  V30 16090 C 1549.06 -1.64675 -6.1079 0
M  V30 16091 C 1547.72 -1.93652 -6.38792 0
M  V30 16092 H 1546.99 0.184512 -0.71766 0
M  V30 16093 H 1549.64 -0.233712 -1.90069 0
M  V30 16094 H 1547.95 1.86687 -3.44464 0
M  V30 16095 H 1549.64 1.56398 -3.69244 0
M  V30 16096 H 1546.23 0.255517 -4.27838 0
M  V30 16097 H 1550.42 -0.467555 -4.94093 0
M  V30 16098 H 1545.67 -1.47319 -5.93386 0
M  V30 16099 H 1549.85 -2.19294 -6.60971 0
M  V30 16100 H 1547.47 -2.70179 -7.10568 0
M  V30 16101 N 1549.05 1.57088 0.126881 0
M  V30 16102 C 1549.98 1.96399 1.18153 0
M  V30 16103 C 1550.99 0.862288 1.38089 0
M  V30 16104 O 1552.18 1.14062 1.37303 0
M  V30 16105 C 1549.28 2.24026 2.54295 0
M  V30 16106 C 1548.46 3.5533 2.55068 0
M  V30 16107 C 1547.51 3.71261 3.72896 0
M  V30 16108 O 1546.54 4.43454 3.56844 0
M  V30 16109 N 1547.74 3.09435 4.91152 0
M  V30 16110 H 1550.51 2.87476 0.847217 0
M  V30 16111 H 1548.07 1.58781 0.316242 0
M  V30 16112 H 1550.06 2.31906 3.31665 0
M  V30 16113 H 1548.63 1.39114 2.79939 0
M  V30 16114 H 1547.85 3.58708 1.63468 0
M  V30 16115 H 1549.14 4.41649 2.52634 0
M  V30 16116 H 1548.54 2.50736 5.07097 0
M  V30 16117 H 1547.09 3.22848 5.66226 0
M  V30 16118 N 1550.53 -0.396836 1.52522 0
M  V30 16119 C 1551.46 -1.50361 1.72986 0
M  V30 16120 C 1552.47 -1.50928 0.610289 0
M  V30 16121 O 1553.66 -1.54972 0.88578 0
M  V30 16122 C 1550.76 -2.89229 1.76635 0
M  V30 16123 C 1549.93 -3.12715 3.05824 0
M  V30 16124 C 1548.99 -4.31523 3.01122 0
M  V30 16125 O 1548.02 -4.28207 3.75004 0
M  V30 16126 N 1549.22 -5.37294 2.19763 0
M  V30 16127 H 1551.99 -1.33196 2.68475 0
M  V30 16128 H 1549.55 -0.586269 1.50912 0
M  V30 16129 H 1551.54 -3.66796 1.71006 0
M  V30 16130 H 1550.11 -2.99791 0.885667 0
M  V30 16131 H 1549.33 -2.23083 3.25004 0
M  V30 16132 H 1550.62 -3.25257 3.91261 0
M  V30 16133 H 1550.01 -5.4284 1.5919 0
M  V30 16134 H 1548.57 -6.13557 2.19981 0
M  V30 16135 N 1552.01 -1.43353 -0.654814 0
M  V30 16136 C 1552.94 -1.44353 -1.7803 0
M  V30 16137 C 1553.95 -0.339872 -1.59213 0
M  V30 16138 O 1555.14 -0.604207 -1.67963 0
M  V30 16139 C 1552.24 -1.23913 -3.15434 0
M  V30 16140 C 1551.41 -2.47088 -3.60924 0
M  V30 16141 C 1550.47 -2.21896 -4.77126 0
M  V30 16142 O 1549.5 -2.95236 -4.86646 0
M  V30 16143 N 1550.7 -1.23459 -5.6722 0
M  V30 16144 H 1553.46 -2.41372 -1.77651 0
M  V30 16145 H 1551.03 -1.38488 -0.838603 0
M  V30 16146 H 1553.02 -1.04945 -3.90856 0
M  V30 16147 H 1551.59 -0.35346 -3.10595 0
M  V30 16148 H 1550.81 -2.81492 -2.75964 0
M  V30 16149 H 1552.1 -3.29066 -3.88064 0
M  V30 16150 H 1551.49 -0.6284 -5.62199 0
M  V30 16151 H 1550.05 -1.10474 -6.4237 0
M  V30 16152 N 1553.48 0.89303 -1.29857 0
M  V30 16153 C 1554.43 1.98497 -1.12173 0
M  V30 16154 C 1555.42 1.60852 -0.039207 0
M  V30 16155 O 1556.61 1.75055 -0.261652 0
M  V30 16156 C 1553.74 3.33674 -0.807259 0
M  V30 16157 C 1552.82 3.77658 -1.92965 0
M  V30 16158 N 1553.22 3.93814 -3.17402 0
M  V30 16159 C 1551.51 4.06988 -1.82419 0
M  V30 16160 C 1552.21 4.30988 -3.90671 0
M  V30 16161 N 1551.19 4.40403 -3.18662 0
M  V30 16162 H 1554.99 2.09068 -2.06562 0
M  V30 16163 H 1552.51 1.0823 -1.21078 0
M  V30 16164 H 1554.5 4.11617 -0.661603 0
M  V30 16165 H 1553.16 3.24445 0.128646 0
M  V30 16166 H 1554.17 3.79164 -3.52782 0
M  V30 16167 H 1550.85 4.06279 -0.961436 0
M  V30 16168 H 1552.24 4.51278 -4.97793 0
M  V30 16169 N 1554.96 1.12442 1.10429 0
M  V30 16170 C 1555.89 0.814745 2.18824 0
M  V30 16171 C 1556.87 -0.221476 1.68652 0
M  V30 16172 O 1558.06 -0.0826537 1.94024 0
M  V30 16173 C 1555.19 0.268632 3.4626 0
M  V30 16174 C 1554.14 1.23792 4.09707 0
M  V30 16175 C 1553.47 0.552034 5.31843 0
M  V30 16176 C 1554.77 2.5926 4.53411 0
M  V30 16177 H 1556.46 1.72111 2.44986 0
M  V30 16178 H 1554.01 0.828968 1.17746 0
M  V30 16179 H 1555.96 0.0397207 4.21381 0
M  V30 16180 H 1554.68 -0.673079 3.19589 0
M  V30 16181 H 1553.34 1.45264 3.36592 0
M  V30 16182 H 1552.99 -0.394821 5.01448 0
M  V30 16183 H 1552.69 1.19861 5.75245 0
M  V30 16184 H 1554.22 0.332161 6.09696 0
M  V30 16185 H 1555.63 2.41816 5.19806 0
M  V30 16186 H 1554.03 3.19997 5.07663 0
M  V30 16187 H 1555.1 3.17699 3.66327 0
M  V30 16188 N 1556.44 -1.28223 0.91633 0
M  V30 16189 C 1557.39 -2.29188 0.396916 0
M  V30 16190 C 1558.38 -1.61453 -0.512763 0
M  V30 16191 O 1559.59 -1.75641 -0.393723 0
M  V30 16192 H 1555.96 -0.743947 0.109761 0
M  V30 16193 H 1557.93 -2.70423 1.2615 0
M  V30 16194 C 1556.68 -3.4598 -0.345452 0
M  V30 16195 H 1556.01 -3.98306 0.345326 0
M  V30 16196 H 1557.45 -4.18617 -0.67349 0
M  V30 16197 C 1555.9 -2.98904 -1.55429 0
M  V30 16198 O 1556.43 -3.01598 -2.65333 0
M  V30 16199 N 1554.64 -2.54534 -1.40217 0
M  V30 16200 H 1554.19 -2.52541 -0.508029 0
M  V30 16201 H 1554.15 -2.23397 -2.21227 0
M  V30 16202 N 1557.92 -0.68059 -1.42147 0
M  V30 16203 C 1559.16 -0.205263 -2.01457 0
M  V30 16204 C 1559.49 1.19015 -1.53837 0
M  V30 16205 O 1558.75 1.81423 -0.733763 0
M  V30 16206 C 1559.05 -0.194825 -3.56869 0
M  V30 16207 C 1558.71 -1.5357 -4.23942 0
M  V30 16208 C 1557.37 -1.90282 -4.4198 0
M  V30 16209 C 1559.73 -2.41852 -4.61689 0
M  V30 16210 C 1557.05 -3.14891 -4.95036 0
M  V30 16211 C 1559.41 -3.65779 -5.16129 0
M  V30 16212 C 1558.07 -4.02653 -5.32379 0
M  V30 16213 H 1557.34 -0.0751109 -0.737183 0
M  V30 16214 H 1559.99 -0.87672 -1.70252 0
M  V30 16215 H 1558.29 0.560155 -3.87775 0
M  V30 16216 H 1559.99 0.190248 -4.00548 0
M  V30 16217 H 1556.58 -1.24012 -4.10267 0
M  V30 16218 H 1560.76 -2.14773 -4.47422 0
M  V30 16219 H 1556.02 -3.43474 -5.05802 0
M  V30 16220 H 1560.19 -4.34384 -5.4432 0
M  V30 16221 H 1557.82 -4.99283 -5.73254 0
M  V30 16222 N 1559.4 1.51781 -0.424309 0
M  V30 16223 C 1560.62 2.06871 0.147968 0
M  V30 16224 C 1561.05 1.29093 1.36808 0
M  V30 16225 O 1560.4 0.325279 1.78358 0
M  V30 16226 C 1560.45 3.57631 0.461757 0
M  V30 16227 O 1559.56 3.82149 1.55035 0
M  V30 16228 H 1558.9 0.663957 0.00757275 0
M  V30 16229 H 1561.43 1.95547 -0.601888 0
M  V30 16230 H 1561.44 4.01668 0.716005 0
M  V30 16231 H 1560.11 4.1367 -0.430081 0
M  V30 16232 H 1558.69 3.49984 1.28709 0
M  V30 16233 N 1560.87 0.155222 1.56834 0
M  V30 16234 C 1561.81 -0.812448 2.14317 0
M  V30 16235 C 1562.82 -1.20502 1.09467 0
M  V30 16236 O 1564.01 -1.14767 1.36714 0
M  V30 16237 C 1561.11 -2.10279 2.65774 0
M  V30 16238 C 1560.28 -1.8763 3.95112 0
M  V30 16239 C 1559.34 -3.0073 4.31796 0
M  V30 16240 O 1558.37 -2.72064 4.9997 0
M  V30 16241 N 1559.57 -4.28114 3.92044 0
M  V30 16242 H 1562.33 -0.321106 2.97975 0
M  V30 16243 H 1559.89 -0.0280861 1.61876 0
M  V30 16244 H 1561.89 -2.85005 2.87323 0
M  V30 16245 H 1560.46 -2.50652 1.86796 0
M  V30 16246 H 1559.68 -0.968958 3.82106 0
M  V30 16247 H 1560.96 -1.69845 4.79614 0
M  V30 16248 H 1560.36 -4.54269 3.37129 0
M  V30 16249 H 1558.92 -4.99594 4.18627 0
M  V30 16250 N 1562.35 -1.57153 -0.118549 0
M  V30 16251 C 1563.6 -1.8515 -0.82748 0
M  V30 16252 C 1563.93 -0.741026 -1.79506 0
M  V30 16253 O 1563.21 0.253095 -1.92846 0
M  V30 16254 C 1563.49 -3.23734 -1.57698 0
M  V30 16255 C 1563.34 -4.45381 -0.628967 0
M  V30 16256 C 1564.66 -3.59895 -2.53305 0
M  V30 16257 H 1561.78 -0.673459 -0.29937 0
M  V30 16258 H 1564.42 -1.89778 -0.0917198 0
M  V30 16259 H 1562.57 -3.19919 -2.20418 0
M  V30 16260 H 1564.24 -4.61299 -0.0105746 0
M  V30 16261 H 1562.49 -4.33759 0.059462 0
M  V30 16262 H 1563.16 -5.3902 -1.19004 0
M  V30 16263 H 1565.63 -3.64503 -2.0069 0
M  V30 16264 H 1564.51 -4.57839 -3.02778 0
M  V30 16265 H 1564.77 -2.87338 -3.3599 0
M  V30 16266 N 1563.83 0.388742 -1.5273 0
M  V30 16267 C 1564.76 1.49441 -1.73781 0
M  V30 16268 C 1565.77 1.50602 -0.618285 0
M  V30 16269 O 1566.96 1.545 -0.893986 0
M  V30 16270 C 1564.06 2.88288 -1.78166 0
M  V30 16271 C 1563.24 3.11089 -3.07478 0
M  V30 16272 C 1562.3 4.2992 -3.03407 0
M  V30 16273 O 1561.32 4.26212 -3.77269 0
M  V30 16274 N 1562.52 5.36121 -2.2261 0
M  V30 16275 H 1565.29 1.3177 -2.69178 0
M  V30 16276 H 1562.85 0.578258 -1.51221 0
M  V30 16277 H 1564.84 3.65884 -1.72949 0
M  V30 16278 H 1563.41 2.99317 -0.901553 0
M  V30 16279 H 1562.63 2.21356 -3.26183 0
M  V30 16280 H 1563.92 3.23177 -3.92981 0
M  V30 16281 H 1563.32 5.41988 -1.62067 0
M  V30 16282 H 1561.87 6.12381 -2.23232 0
M  V30 16283 N 1565.31 1.43698 0.647203 0
M  V30 16284 C 1566.26 1.45765 1.75318 0
M  V30 16285 C 1567.24 0.32536 1.57576 0
M  V30 16286 O 1568.43 0.569564 1.67586 0
M  V30 16287 C 1565.56 1.38923 3.13935 0
M  V30 16288 C 1564.65 2.57205 3.37204 0
M  V30 16289 N 1565.04 3.82529 3.30916 0
M  V30 16290 C 1563.34 2.52057 3.67944 0
M  V30 16291 C 1564.04 4.61252 3.54431 0
M  V30 16292 N 1563.01 3.92076 3.76534 0
M  V30 16293 H 1566.82 2.40527 1.6889 0
M  V30 16294 H 1564.33 1.38435 0.849093 0
M  V30 16295 H 1566.33 1.38487 3.93226 0
M  V30 16296 H 1564.99 0.451864 3.2154 0
M  V30 16297 H 1566 4.1473 3.10192 0
M  V30 16298 H 1562.68 1.67038 3.82628 0
M  V30 16299 H 1564.07 5.70275 3.55297 0
M  V30 16300 N 1566.79 -0.886131 1.30328 0
M  V30 16301 C 1568.03 -1.63784 1.19085 0
M  V30 16302 C 1568.36 -1.92825 -0.254697 0
M  V30 16303 O 1567.62 -1.54682 -1.19883 0
M  V30 16304 C 1567.92 -2.98624 1.96364 0
M  V30 16305 C 1567.58 -2.89139 3.45991 0
M  V30 16306 C 1566.24 -2.86259 3.86794 0
M  V30 16307 C 1568.6 -2.7735 4.41278 0
M  V30 16308 C 1565.92 -2.69428 5.21177 0
M  V30 16309 C 1568.28 -2.62057 5.75768 0
M  V30 16310 C 1566.94 -2.57551 6.15811 0
M  V30 16311 H 1566.21 -0.599327 0.435761 0
M  V30 16312 H 1568.86 -1.03037 1.61418 0
M  V30 16313 H 1567.16 -3.63315 1.46662 0
M  V30 16314 H 1568.86 -3.55746 1.85057 0
M  V30 16315 H 1565.45 -2.92189 3.13566 0
M  V30 16316 H 1569.63 -2.78642 4.10697 0
M  V30 16317 H 1564.89 -2.64353 5.51296 0
M  V30 16318 H 1569.06 -2.51909 6.49242 0
M  V30 16319 H 1566.69 -2.44268 7.19887 0
M  V30 16320 N 1568.26 -1.13026 -1.09832 0
M  V30 16321 C 1569.51 -0.887662 -1.81563 0
M  V30 16322 C 1569.83 0.587935 -1.85926 0
M  V30 16323 O 1569.1 1.42732 -1.3418 0
M  V30 16324 H 1567.68 -0.32541 -0.672397 0
M  V30 16325 H 1570.35 -1.42597 -1.32861 0
M  V30 16326 H 1569.44 -1.2747 -2.84882 0
M  V30 16327 N 1569.74 1.27735 -0.923117 0
M  V30 16328 C 1570.97 1.9922 -0.57672 0
M  V30 16329 C 1571.39 1.68446 0.837113 0
M  V30 16330 O 1570.75 0.922129 1.56098 0
M  V30 16331 C 1570.8 3.51528 -0.803768 0
M  V30 16332 O 1569.9 4.12186 0.132829 0
M  V30 16333 H 1569.24 0.625593 -0.222553 0
M  V30 16334 H 1571.77 1.62657 -1.24112 0
M  V30 16335 H 1571.78 4.01641 -0.717534 0
M  V30 16336 H 1570.46 3.7326 -1.83439 0
M  V30 16337 H 1569.04 3.729 -0.00292957 0
M  V30 16338 N 1571.22 0.688118 1.41784 0
M  V30 16339 C 1572.47 0.215517 2.00948 0
M  V30 16340 C 1572.79 -1.18656 1.54744 0
M  V30 16341 O 1572.06 -1.79925 0.774831 0
M  V30 16342 H 1570.64 0.0766876 0.743053 0
M  V30 16343 H 1573.3 0.88761 1.73515 0
M  V30 16344 H 1572.4 0.227139 3.11272 0
M  V30 16345 N 1572.7 -1.51554 0.432352 0
M  V30 16346 C 1573.65 -2.24474 -0.39944 0
M  V30 16347 C 1574.63 -1.26505 -0.994242 0
M  V30 16348 O 1575.82 -1.51623 -0.913209 0
M  V30 16349 C 1572.95 -3.08659 -1.50282 0
M  V30 16350 C 1572.04 -4.14053 -0.917654 0
M  V30 16351 N 1572.43 -5.05763 -0.061209 0
M  V30 16352 C 1570.73 -4.29949 -1.18576 0
M  V30 16353 C 1571.43 -5.81087 0.266897 0
M  V30 16354 N 1570.41 -5.42484 -0.348218 0
M  V30 16355 H 1574.21 -2.92739 0.260928 0
M  V30 16356 H 1571.72 -1.60555 0.24413 0
M  V30 16357 H 1573.72 -3.59472 -2.11153 0
M  V30 16358 H 1572.38 -2.41936 -2.16557 0
M  V30 16359 H 1573.39 -5.17002 0.304858 0
M  V30 16360 H 1570.07 -3.74453 -1.84638 0
M  V30 16361 H 1571.46 -6.64956 0.963519 0
M  V30 16362 N 1574.18 -0.163538 -1.56749 0
M  V30 16363 C 1575.11 0.801071 -2.14745 0
M  V30 16364 C 1576.12 1.1992 -1.10104 0
M  V30 16365 O 1577.31 1.14041 -1.37321 0
M  V30 16366 C 1574.41 2.08867 -2.66886 0
M  V30 16367 C 1573.58 1.85532 -3.96102 0
M  V30 16368 C 1572.64 2.98436 -4.33385 0
M  V30 16369 O 1571.67 2.69408 -5.01406 0
M  V30 16370 N 1572.87 4.26029 -3.94309 0
M  V30 16371 H 1575.64 0.3053 -2.98141 0
M  V30 16372 H 1573.2 0.019501 -1.61888 0
M  V30 16373 H 1575.19 2.83477 -2.8883 0
M  V30 16374 H 1573.76 2.49657 -1.88122 0
M  V30 16375 H 1572.98 0.94868 -3.82614 0
M  V30 16376 H 1574.27 1.673 -4.80508 0
M  V30 16377 H 1573.66 4.52475 -3.39533 0
M  V30 16378 H 1572.22 4.97367 -4.21271 0
M  V30 16379 N 1575.65 1.57214 0.110213 0
M  V30 16380 C 1576.56 2.04287 1.15342 0
M  V30 16381 C 1577.58 0.964895 1.44796 0
M  V30 16382 O 1578.76 1.27702 1.55737 0
M  V30 16383 C 1575.82 2.44518 2.45788 0
M  V30 16384 C 1574.88 3.66439 2.23653 0
M  V30 16385 C 1574.12 4.04742 3.47879 0
M  V30 16386 O 1574.34 3.43291 4.5553 0
M  V30 16387 O 1573.27 4.97791 3.38361 0
M  V30 16388 H 1577.1 2.93415 0.783656 0
M  V30 16389 H 1574.68 1.45897 0.321644 0
M  V30 16390 H 1576.57 2.71089 3.22628 0
M  V30 16391 H 1575.24 1.58533 2.82221 0
M  V30 16392 H 1574.15 3.45006 1.44643 0
M  V30 16393 H 1575.48 4.53156 1.9212 0
M  V30 16394 N 1577.13 -0.380637 1.52934 0
M  V30 16395 C 1578.38 -1.12306 1.69585 0
M  V30 16396 C 1578.73 -1.87427 0.434626 0
M  V30 16397 O 1578.03 -1.82864 -0.571955 0
M  V30 16398 C 1578.22 -2.1227 2.87535 0
M  V30 16399 C 1578.05 -1.46969 4.25006 0
M  V30 16400 C 1576.82 -1.23021 4.90096 0
M  V30 16401 C 1579.02 -0.915348 5.06089 0
M  V30 16402 N 1577 -0.539124 6.11528 0
M  V30 16403 C 1578.37 -0.352792 6.18995 0
M  V30 16404 C 1580.43 -0.81257 4.91225 0
M  V30 16405 C 1579.13 0.302501 7.18664 0
M  V30 16406 C 1581.15 -0.171084 5.91152 0
M  V30 16407 C 1580.52 0.380664 7.03371 0
M  V30 16408 H 1576.62 -0.39663 0.67395 0
M  V30 16409 H 1579.2 -0.411454 1.90303 0
M  V30 16410 H 1577.37 -2.80759 2.68382 0
M  V30 16411 H 1579.1 -2.7908 2.93081 0
M  V30 16412 H 1575.86 -1.50746 4.48969 0
M  V30 16413 H 1576.28 -0.209381 6.76676 0
M  V30 16414 H 1580.92 -1.22493 4.04667 0
M  V30 16415 H 1578.64 0.72685 8.04825 0
M  V30 16416 H 1582.23 -0.0926928 5.81726 0
M  V30 16417 H 1581.11 0.8692 7.79368 0
M  V30 16418 N 1578.61 -1.44039 -0.639573 0
M  V30 16419 C 1579.56 -1.50541 -1.77314 0
M  V30 16420 C 1580.55 -0.37781 -1.65133 0
M  V30 16421 O 1581.76 -0.552396 -1.71314 0
M  V30 16422 H 1578.13 -0.472221 -0.585245 0
M  V30 16423 H 1580.1 -2.45964 -1.68951 0
M  V30 16424 C 1578.85 -1.45868 -3.15623 0
M  V30 16425 H 1578.18 -2.31946 -3.25639 0
M  V30 16426 H 1579.62 -1.54479 -3.94857 0
M  V30 16427 C 1578.08 -0.178204 -3.36428 0
M  V30 16428 O 1578.61 0.755017 -3.94541 0
M  V30 16429 N 1576.81 -0.0840295 -2.90478 0
M  V30 16430 H 1576.36 -0.844281 -2.43371 0
M  V30 16431 H 1576.32 0.771988 -3.04775 0
M  V30 16432 N 1580.09 0.879207 -1.30796 0
M  V30 16433 C 1581.34 1.62828 -1.19715 0
M  V30 16434 C 1581.66 1.93429 0.247031 0
M  V30 16435 O 1580.93 1.57478 1.16522 0
M  V30 16436 H 1579.51 0.603607 -0.440077 0
M  V30 16437 H 1582.17 1.05309 -1.64 0
M  V30 16438 H 1581.27 2.57591 -1.76219 0
M  V30 16439 N 1581.57 1.13606 1.09231 0
M  V30 16440 C 1582.52 0.810747 2.18013 0
M  V30 16441 C 1583.51 -0.207782 1.68121 0
M  V30 16442 O 1584.72 -0.0647274 1.79884 0
M  V30 16443 H 1581.09 0.244415 0.711172 0
M  V30 16444 H 1583.06 1.73632 2.42682 0
M  V30 16445 C 1581.81 0.295302 3.46444 0
M  V30 16446 H 1581.13 1.07037 3.85205 0
M  V30 16447 H 1582.57 0.106127 4.23867 0
M  V30 16448 C 1581.03 -0.979398 3.2235 0
M  V30 16449 O 1581.56 -2.05483 3.45166 0
M  V30 16450 N 1579.77 -0.911282 2.75942 0
M  V30 16451 H 1579.32 -0.035979 2.57575 0
M  V30 16452 H 1579.27 -1.76476 2.60199 0
M  V30 16453 N 1583.05 -1.27244 0.929878 0
M  V30 16454 C 1584.29 -1.94269 0.57146 0
M  V30 16455 C 1584.62 -1.73064 -0.887639 0
M  V30 16456 O 1583.88 -1.05422 -1.64878 0
M  V30 16457 C 1584.17 -3.47233 0.846386 0
M  V30 16458 C 1583.84 -3.88563 2.28757 0
M  V30 16459 C 1582.5 -3.99557 2.68156 0
M  V30 16460 C 1584.85 -4.09468 3.22467 0
M  V30 16461 C 1582.18 -4.28846 4.00385 0
M  V30 16462 C 1584.53 -4.40242 4.54279 0
M  V30 16463 C 1583.2 -4.4945 4.93509 0
M  V30 16464 H 1582.47 -0.710882 0.209112 0
M  V30 16465 H 1585.12 -1.51273 1.17425 0
M  V30 16466 H 1583.42 -3.91469 0.160941 0
M  V30 16467 H 1585.12 -3.97238 0.548006 0
M  V30 16468 H 1581.71 -3.80544 1.97192 0
M  V30 16469 H 1585.89 -4.00412 2.9323 0
M  V30 16470 H 1581.15 -4.34184 4.30458 0
M  V30 16471 H 1585.32 -4.55365 5.26892 0
M  V30 16472 H 1582.95 -4.71899 5.95999 0
M  V30 16473 N 1584.52 -0.695628 -1.41417 0
M  V30 16474 C 1585.77 -0.226171 -2.0083 0
M  V30 16475 C 1586.09 1.17833 -1.55371 0
M  V30 16476 O 1585.36 1.79512 -0.784362 0
M  V30 16477 H 1583.94 -0.0806271 -0.742636 0
M  V30 16478 H 1586.6 -0.8968 -1.73042 0
M  V30 16479 H 1585.7 -0.243643 -3.11148 0
M  V30 16480 N 1586 1.51322 -0.440383 0
M  V30 16481 C 1586.95 2.24682 0.38753 0
M  V30 16482 C 1587.94 1.27031 0.98752 0
M  V30 16483 O 1589.13 1.52105 0.905156 0
M  V30 16484 C 1586.26 3.09451 1.48643 0
M  V30 16485 C 1585.34 4.14534 0.895682 0
M  V30 16486 N 1585.73 5.05788 0.0343863 0
M  V30 16487 C 1584.03 4.30571 1.16294 0
M  V30 16488 C 1584.73 5.80938 -0.297709 0
M  V30 16489 N 1583.71 5.42661 0.319444 0
M  V30 16490 H 1587.51 2.92597 -0.276449 0
M  V30 16491 H 1585.02 1.60423 -0.252641 0
M  V30 16492 H 1587.02 3.60587 2.09244 0
M  V30 16493 H 1585.68 2.43081 2.15271 0
M  V30 16494 H 1586.69 5.16833 -0.332271 0
M  V30 16495 H 1583.37 3.75427 1.82649 0
M  V30 16496 H 1584.76 6.64435 -0.99877 0
M  V30 16497 N 1587.48 0.171848 1.5666 0
M  V30 16498 C 1588.9 -0.184312 1.58532 0
M  V30 16499 C 1589.1 -1.62811 1.18721 0
M  V30 16500 O 1588.15 -2.35951 0.899066 0
M  V30 16501 C 1589.46 0.0969826 3.00544 0
M  V30 16502 C 1591.01 0.0352364 3.1298 0
M  V30 16503 C 1591.49 0.289528 4.57084 0
M  V30 16504 N 1592.98 0.237322 4.62592 0
M  V30 16505 C 1593.71 0.408247 5.71945 0
M  V30 16506 N 1593.21 0.638256 6.89854 0
M  V30 16507 N 1595 0.344115 5.61046 0
M  V30 16508 H 1587.15 1.11427 1.80825 0
M  V30 16509 H 1589.42 0.44302 0.838115 0
M  V30 16510 H 1589.12 1.09717 3.34148 0
M  V30 16511 H 1589 -0.611157 3.72216 0
M  V30 16512 H 1591.38 -0.955531 2.79202 0
M  V30 16513 H 1591.46 0.776095 2.43743 0
M  V30 16514 H 1591.11 1.27751 4.91571 0
M  V30 16515 H 1591.04 -0.471948 5.24481 0
M  V30 16516 H 1593.53 0.0652142 3.77844 0
M  V30 16517 H 1593.84 0.758116 7.69072 0
M  V30 16518 H 1592.19 0.674877 6.91716 0
M  V30 16519 H 1595.38 0.165008 4.67809 0
M  V30 16520 H 1595.55 0.480749 6.46214 0
M  V30 16521 N 1588.96 -1.5727 -0.101874 0
M  V30 16522 C 1590.37 -1.5295 -0.455899 0
M  V30 16523 C 1590.57 -0.887526 -1.80901 0
M  V30 16524 O 1589.63 -0.477143 -2.47951 0
M  V30 16525 C 1590.94 -2.97687 -0.424625 0
M  V30 16526 C 1592.49 -3.08867 -0.506963 0
M  V30 16527 C 1592.97 -4.55197 -0.505907 0
M  V30 16528 N 1594.46 -4.59718 -0.566856 0
M  V30 16529 C 1595.19 -5.7038 -0.587766 0
M  V30 16530 N 1594.69 -6.9049 -0.56529 0
M  V30 16531 N 1596.48 -5.58535 -0.632067 0
M  V30 16532 H 1588.63 -1.97381 0.784509 0
M  V30 16533 H 1590.89 -0.902141 0.291284 0
M  V30 16534 H 1590.6 -3.48094 0.502312 0
M  V30 16535 H 1590.47 -3.56022 -1.24612 0
M  V30 16536 H 1592.86 -2.58451 -1.42432 0
M  V30 16537 H 1592.94 -2.53496 0.342544 0
M  V30 16538 H 1592.59 -5.06263 0.407477 0
M  V30 16539 H 1592.52 -5.08399 -1.37253 0
M  V30 16540 H 1595.01 -3.73271 -0.589696 0
M  V30 16541 H 1595.32 -7.70588 -0.584342 0
M  V30 16542 H 1593.67 -6.92957 -0.532444 0
M  V30 16543 H 1596.86 -4.63606 -0.647109 0
M  V30 16544 H 1597.03 -6.44783 -0.644895 0
M  V30 16545 N 1590.44 0.372521 -1.53134 0
M  V30 16546 C 1591.37 1.4759 -1.75357 0
M  V30 16547 C 1592.38 1.49938 -0.634223 0
M  V30 16548 O 1593.57 1.53543 -0.910322 0
M  V30 16549 C 1590.67 2.86382 -1.81214 0
M  V30 16550 C 1589.84 3.0781 -3.1076 0
M  V30 16551 C 1588.9 4.26677 -3.07949 0
M  V30 16552 O 1587.93 4.22186 -3.81769 0
M  V30 16553 N 1589.13 5.33729 -2.28283 0
M  V30 16554 H 1591.89 1.28908 -2.7056 0
M  V30 16555 H 1589.46 0.562186 -1.51826 0
M  V30 16556 H 1591.45 3.64029 -1.7682 0
M  V30 16557 H 1590.02 2.98344 -0.933249 0
M  V30 16558 H 1589.24 2.17884 -3.28512 0
M  V30 16559 H 1590.53 3.18991 -3.96386 0
M  V30 16560 H 1589.92 5.40238 -1.67806 0
M  V30 16561 H 1588.48 6.09979 -2.29714 0
M  V30 16562 N 1591.91 1.44376 0.631925 0
M  V30 16563 C 1592.85 1.47167 1.75711 0
M  V30 16564 C 1593.86 0.365158 1.58652 0
M  V30 16565 O 1595.05 0.630852 1.66981 0
M  V30 16566 C 1592.15 1.28916 3.13423 0
M  V30 16567 C 1591.32 2.52798 3.56948 0
M  V30 16568 C 1590.38 2.29458 4.73535 0
M  V30 16569 O 1589.41 3.02941 4.81887 0
M  V30 16570 N 1590.61 1.32467 5.65184 0
M  V30 16571 H 1593.37 2.44168 1.73788 0
M  V30 16572 H 1590.93 1.39805 0.816465 0
M  V30 16573 H 1592.93 1.1115 3.89137 0
M  V30 16574 H 1591.5 0.402828 3.09994 0
M  V30 16575 H 1590.72 2.85846 2.71451 0
M  V30 16576 H 1592 3.35198 3.82779 0
M  V30 16577 H 1591.4 0.717762 5.61128 0
M  V30 16578 H 1589.96 1.2068 6.40531 0
M  V30 16579 N 1593.39 -0.872258 1.31261 0
M  V30 16580 C 1594.35 -1.96081 1.1868 0
M  V30 16581 C 1595.35 -1.60392 0.11452 0
M  V30 16582 O 1596.54 -1.70363 0.363613 0
M  V30 16583 C 1593.68 -3.30862 0.821183 0
M  V30 16584 H 1594.87 -2.08667 2.15402 0
M  V30 16585 H 1592.42 -1.06026 1.14839 0
M  V30 16586 H 1593.16 -3.23976 -0.14498 0
M  V30 16587 H 1592.94 -3.58137 1.59625 0
M  V30 16588 H 1594.43 -4.10682 0.756991 0
M  V30 16589 N 1594.87 -1.14184 -1.08627 0
M  V30 16590 C 1596.1 -0.930752 -1.84447 0
M  V30 16591 C 1596.51 0.524072 -1.81797 0
M  V30 16592 O 1595.85 1.37483 -1.21836 0
M  V30 16593 C 1595.91 -1.35125 -3.33139 0
M  V30 16594 C 1595.58 -2.82117 -3.59526 0
M  V30 16595 C 1596.57 -3.80242 -3.54559 0
M  V30 16596 C 1594.26 -3.19475 -3.87609 0
M  V30 16597 C 1596.25 -5.13734 -3.77301 0
M  V30 16598 C 1593.94 -4.53144 -4.10005 0
M  V30 16599 C 1594.94 -5.50082 -4.04844 0
M  V30 16600 O 1594.63 -6.81339 -4.26653 0
M  V30 16601 H 1594.36 -0.331385 -0.589203 0
M  V30 16602 H 1596.91 -1.52033 -1.38113 0
M  V30 16603 H 1595.14 -0.704995 -3.80219 0
M  V30 16604 H 1596.83 -1.11133 -3.9039 0
M  V30 16605 H 1597.6 -3.52726 -3.32881 0
M  V30 16606 H 1593.48 -2.44617 -3.90747 0
M  V30 16607 H 1597.02 -5.89386 -3.73188 0
M  V30 16608 H 1592.92 -4.80381 -4.31166 0
M  V30 16609 H 1593.68 -6.87563 -4.44071 0
M  V30 16610 N 1596.35 1.26749 -0.936613 0
M  V30 16611 C 1597.6 1.93255 -0.577524 0
M  V30 16612 C 1597.91 1.74337 0.886905 0
M  V30 16613 O 1599.12 2.3526 1.35517 0
M  V30 16614 C 1597.57 3.4624 -0.982119 0
M  V30 16615 C 1597.18 3.739 -2.46784 0
M  V30 16616 C 1598.92 4.18777 -0.694706 0
M  V30 16617 C 1596.83 5.20303 -2.81138 0
M  V30 16618 H 1595.76 0.723502 -0.212276 0
M  V30 16619 H 1598.41 1.43901 -1.13863 0
M  V30 16620 H 1596.79 3.94454 -0.349577 0
M  V30 16621 H 1597.97 3.3641 -3.14905 0
M  V30 16622 H 1596.28 3.14587 -2.72808 0
M  V30 16623 H 1598.88 5.2659 -0.927756 0
M  V30 16624 H 1599.22 4.14667 0.368392 0
M  V30 16625 H 1599.76 3.76414 -1.28676 0
M  V30 16626 H 1596.5 5.29511 -3.86392 0
M  V30 16627 H 1596.02 5.58907 -2.17675 0
M  V30 16628 H 1597.69 5.88265 -2.69358 0
M  V30 16629 N 1597.83 0.703118 1.41046 0
M  V30 16630 C 1599.24 0.311167 1.84089 0
M  V30 16631 C 1599.59 -1.15202 1.58818 0
M  V30 16632 O 1598.71 -1.88518 1.06254 0
M  V30 16633 C 1599.31 0.557986 3.34174 0
M  V30 16634 C 1597.87 0.219875 3.75757 0
M  V30 16635 C 1597.01 0.836543 2.64381 0
M  V30 16636 H 1599.97 0.903211 1.30491 0
M  V30 16637 H 1599.99 -0.180865 3.8007 0
M  V30 16638 H 1599.5 1.62298 3.52535 0
M  V30 16639 H 1597.6 -0.840559 3.62995 0
M  V30 16640 H 1597.71 0.680165 4.74247 0
M  V30 16641 H 1596.08 0.265547 2.53312 0
M  V30 16642 H 1596.86 1.90556 2.85558 0
M  V30 16643 N 1599.3 -1.51086 0.448402 0
M  V30 16644 C 1600.53 -2.06593 -0.112695 0
M  V30 16645 C 1600.95 -1.31471 -1.35502 0
M  V30 16646 O 1600.3 -0.377406 -1.78555 0
M  V30 16647 C 1600.36 -3.59008 -0.423769 0
M  V30 16648 O 1600.08 -4.31293 0.769259 0
M  V30 16649 C 1601.58 -4.31064 -1.03433 0
M  V30 16650 H 1598.8 -0.670993 -0.00301626 0
M  V30 16651 H 1601.34 -1.94532 0.630667 0
M  V30 16652 H 1599.5 -3.70946 -1.11704 0
M  V30 16653 H 1599.91 -5.2211 0.500162 0
M  V30 16654 H 1601.38 -5.38756 -1.20191 0
M  V30 16655 H 1601.86 -3.90075 -2.01837 0
M  V30 16656 H 1602.47 -4.23598 -0.380115 0
M  V30 16657 N 1600.78 -0.180154 -1.56567 0
M  V30 16658 C 1602.01 0.471692 -2.01965 0
M  V30 16659 C 1602.43 1.5542 -1.05954 0
M  V30 16660 O 1601.79 1.81255 -0.0405307 0
M  V30 16661 C 1601.84 1.01883 -3.45908 0
M  V30 16662 O 1600.94 2.13245 -3.52988 0
M  V30 16663 H 1600.28 0.11197 -0.654491 0
M  V30 16664 H 1602.81 -0.286642 -2.02582 0
M  V30 16665 H 1602.82 1.33922 -3.85395 0
M  V30 16666 H 1601.5 0.226299 -4.15284 0
M  V30 16667 H 1600.08 1.82184 -3.25367 0
M  V30 16668 N 1602.26 1.57322 0.0935319 0
M  V30 16669 C 1603.51 1.86443 0.797919 0
M  V30 16670 C 1603.84 0.769491 1.78304 0
M  V30 16671 O 1603.11 -0.222383 1.93225 0
M  V30 16672 C 1603.4 3.26201 1.52528 0
M  V30 16673 C 1603.25 4.46325 0.558031 0
M  V30 16674 C 1604.57 3.63879 2.47548 0
M  V30 16675 H 1601.69 0.678136 0.288618 0
M  V30 16676 H 1604.33 1.899 0.0615161 0
M  V30 16677 H 1602.48 3.23385 2.15301 0
M  V30 16678 H 1604.15 4.61257 -0.0628154 0
M  V30 16679 H 1602.4 4.3361 -0.128462 0
M  V30 16680 H 1603.07 5.40845 1.10413 0
M  V30 16681 H 1605.54 3.6765 1.94866 0
M  V30 16682 H 1604.42 4.62598 2.95456 0
M  V30 16683 H 1604.68 2.92647 3.31376 0
M  V30 16684 N 1603.74 -0.364395 1.53329 0
M  V30 16685 C 1604.97 -1.1275 1.7348 0
M  V30 16686 C 1605.38 -1.83002 0.4643 0
M  V30 16687 O 1604.74 -1.73603 -0.562864 0
M  V30 16688 C 1604.79 -2.15691 2.90103 0
M  V30 16689 O 1604.51 -1.48298 4.12237 0
M  V30 16690 C 1606.01 -3.04539 3.22135 0
M  V30 16691 H 1603.23 -0.337084 0.580186 0
M  V30 16692 H 1605.78 -0.422952 2.00078 0
M  V30 16693 H 1603.93 -2.81742 2.65895 0
M  V30 16694 H 1604.34 -2.16896 4.77553 0
M  V30 16695 H 1605.82 -3.72747 4.07141 0
M  V30 16696 H 1606.3 -3.69414 2.3755 0
M  V30 16697 H 1606.9 -2.44103 3.48273 0
M  V30 16698 N 1605.22 -1.44709 -0.62426 0
M  V30 16699 C 1606.44 -1.51573 -1.41564 0
M  V30 16700 C 1606.87 -0.143806 -1.87549 0
M  V30 16701 O 1606.22 0.868361 -1.59151 0
M  V30 16702 C 1606.27 -2.49085 -2.60747 0
M  V30 16703 O 1605.38 -1.99712 -3.60817 0
M  V30 16704 H 1604.72 -0.51157 -0.423311 0
M  V30 16705 H 1607.25 -1.89908 -0.761316 0
M  V30 16706 H 1607.26 -2.67346 -3.08205 0
M  V30 16707 H 1605.93 -3.48733 -2.26624 0
M  V30 16708 H 1604.51 -1.9125 -3.20122 0
M  V30 16709 N 1606.69 0.865285 -1.31722 0
M  V30 16710 C 1607.64 1.99433 -1.19704 0
M  V30 16711 C 1608.64 1.69079 -0.104255 0
M  V30 16712 O 1609.84 1.78017 -0.266466 0
M  V30 16713 H 1606.22 0.654244 -0.370768 0
M  V30 16714 H 1608.19 2.06699 -2.15216 0
M  V30 16715 C 1606.94 3.35142 -0.926027 0
M  V30 16716 H 1606.26 3.59022 -1.75906 0
M  V30 16717 H 1607.7 4.14722 -0.88214 0
M  V30 16718 C 1606.16 3.34848 0.37124 0
M  V30 16719 O 1606.69 3.77012 1.38654 0
M  V30 16720 N 1604.9 2.87979 0.389441 0
M  V30 16721 H 1604.44 2.53861 -0.437293 0
M  V30 16722 H 1604.4 2.88165 1.25731 0
M  V30 16723 N 1608.17 1.14759 1.0802 0
M  V30 16724 C 1609.58 0.928711 1.61963 0
M  V30 16725 C 1609.93 -0.531568 1.88862 0
M  V30 16726 O 1609.06 -1.40129 1.64902 0
M  V30 16727 C 1609.65 1.67943 2.94246 0
M  V30 16728 C 1608.21 1.50602 3.44958 0
M  V30 16729 C 1607.36 1.69938 2.19126 0
M  V30 16730 H 1610.31 1.29882 0.911945 0
M  V30 16731 H 1610.33 1.14493 3.62866 0
M  V30 16732 H 1609.84 2.7422 2.74636 0
M  V30 16733 H 1607.95 0.466901 3.69663 0
M  V30 16734 H 1608.06 2.27857 4.21447 0
M  V30 16735 H 1606.42 1.12534 2.28491 0
M  V30 16736 H 1607.21 2.77566 2.0202 0
M  V30 16737 N 1609.65 -1.26251 0.943322 0
M  V30 16738 C 1610.9 -1.93652 0.592032 0
M  V30 16739 C 1611.23 -1.73996 -0.869234 0
M  V30 16740 O 1610.48 -1.07165 -1.6375 0
M  V30 16741 C 1610.78 -3.46316 0.883167 0
M  V30 16742 C 1610.45 -3.86115 2.32866 0
M  V30 16743 C 1609.11 -3.9669 2.72379 0
M  V30 16744 C 1611.46 -4.06025 3.26792 0
M  V30 16745 C 1608.79 -4.24575 4.04911 0
M  V30 16746 C 1611.14 -4.35399 4.58923 0
M  V30 16747 C 1609.8 -4.4419 4.98248 0
M  V30 16748 H 1609.07 -0.708624 0.21664 0
M  V30 16749 H 1611.72 -1.50019 1.19023 0
M  V30 16750 H 1610.03 -3.91277 0.202452 0
M  V30 16751 H 1611.72 -3.96634 0.590108 0
M  V30 16752 H 1608.31 -3.78431 2.01217 0
M  V30 16753 H 1612.5 -3.9728 2.9746 0
M  V30 16754 H 1607.75 -4.29594 4.35039 0
M  V30 16755 H 1611.93 -4.49751 5.31692 0
M  V30 16756 H 1609.55 -4.65551 6.00971 0
M  V30 16757 N 1611.13 -0.710588 -1.40671 0
M  V30 16758 C 1612.36 -0.257442 -2.05292 0
M  V30 16759 C 1612.77 1.09891 -1.53523 0
M  V30 16760 O 1612.13 1.68966 -0.689703 0
M  V30 16761 C 1612.18 -0.223091 -3.60811 0
M  V30 16762 O 1611.9 -1.52588 -4.10668 0
M  V30 16763 C 1613.4 0.249217 -4.42599 0
M  V30 16764 H 1610.62 -0.116663 -0.66078 0
M  V30 16765 H 1613.17 -0.967391 -1.80172 0
M  V30 16766 H 1611.32 0.437787 -3.84918 0
M  V30 16767 H 1611.74 -1.42301 -5.04827 0
M  V30 16768 H 1613.21 0.22211 -5.51553 0
M  V30 16769 H 1613.69 1.29057 -4.19811 0
M  V30 16770 H 1614.29 -0.381202 -4.23588 0
M  V30 16771 N 1612.61 1.50847 -0.456408 0
M  V30 16772 C 1613.54 2.31077 0.335523 0
M  V30 16773 C 1614.52 1.37326 1.00377 0
M  V30 16774 O 1615.7 1.66247 1.00376 0
M  V30 16775 C 1612.83 3.16662 1.42627 0
M  V30 16776 C 1611.79 4.18846 0.88045 0
M  V30 16777 C 1611.11 4.93074 2.06838 0
M  V30 16778 C 1612.41 5.22208 -0.0982288 0
M  V30 16779 H 1614.11 2.97531 -0.334056 0
M  V30 16780 H 1611.65 1.43085 -0.162099 0
M  V30 16781 H 1613.61 3.71578 1.98765 0
M  V30 16782 H 1612.33 2.48066 2.12441 0
M  V30 16783 H 1610.99 3.65009 0.341147 0
M  V30 16784 H 1610.64 4.20963 2.75316 0
M  V30 16785 H 1610.34 5.62184 1.70947 0
M  V30 16786 H 1611.86 5.5082 2.63494 0
M  V30 16787 H 1613.28 5.72082 0.373481 0
M  V30 16788 H 1611.67 5.98954 -0.370674 0
M  V30 16789 H 1612.74 4.73859 -1.02887 0
M  V30 16790 N 1614.09 0.188454 1.56469 0
M  V30 16791 C 1615.31 -0.460975 2.02212 0
M  V30 16792 C 1615.74 -1.54856 1.06777 0
M  V30 16793 O 1615.09 -1.81231 0.0501425 0
M  V30 16794 C 1615.14 -1.00047 3.46443 0
M  V30 16795 O 1614.25 -2.1137 3.54114 0
M  V30 16796 H 1613.59 -0.108497 0.655076 0
M  V30 16797 H 1616.12 0.297381 2.02427 0
M  V30 16798 H 1616.13 -1.31876 3.86099 0
M  V30 16799 H 1614.8 -0.204273 4.15398 0
M  V30 16800 H 1613.38 -1.80456 3.26328 0
M  V30 16801 N 1615.56 -1.5737 -0.0851874 0
M  V30 16802 C 1616.51 -1.99199 -1.10922 0
M  V30 16803 C 1617.5 -0.871945 -1.35225 0
M  V30 16804 O 1618.69 -1.13581 -1.35751 0
M  V30 16805 C 1615.82 -2.42827 -2.42672 0
M  V30 16806 C 1614.9 -3.61538 -2.217 0
M  V30 16807 N 1615.3 -4.76153 -1.70622 0
M  V30 16808 C 1613.59 -3.67828 -2.52228 0
M  V30 16809 C 1614.29 -5.58058 -1.64152 0
M  V30 16810 N 1613.27 -5.01515 -2.09723 0
M  V30 16811 H 1617.07 -2.8526 -0.707395 0
M  V30 16812 H 1614.59 -1.59745 -0.292468 0
M  V30 16813 H 1616.58 -2.71027 -3.16781 0
M  V30 16814 H 1615.24 -1.58147 -2.83583 0
M  V30 16815 H 1616.25 -4.98709 -1.39677 0
M  V30 16816 H 1612.93 -2.93832 -2.96596 0
M  V30 16817 H 1614.32 -6.60051 -1.25627 0
M  V30 16818 N 1617.04 0.356258 -1.53521 0
M  V30 16819 C 1618.29 1.09573 -1.69818 0
M  V30 16820 C 1618.61 1.89559 -0.457406 0
M  V30 16821 O 1617.88 1.88633 0.528616 0
M  V30 16822 H 1616.46 0.407512 -0.626054 0
M  V30 16823 H 1619.12 0.400612 -1.90738 0
M  V30 16824 H 1618.22 1.7803 -2.56343 0
M  V30 16825 N 1618.52 1.45038 0.616577 0
M  V30 16826 C 1619.74 1.52321 1.40759 0
M  V30 16827 C 1620.17 0.15375 1.87471 0
M  V30 16828 O 1619.53 -0.859908 1.5961 0
M  V30 16829 C 1619.58 2.50464 2.59423 0
M  V30 16830 O 1618.68 2.01623 3.59753 0
M  V30 16831 H 1618.02 0.513808 0.420592 0
M  V30 16832 H 1620.55 1.90309 0.751234 0
M  V30 16833 H 1620.56 2.68977 3.06783 0
M  V30 16834 H 1619.24 3.4993 2.24771 0
M  V30 16835 H 1617.81 1.92945 3.19103 0
M  V30 16836 N 1620 -0.858287 1.32179 0
M  V30 16837 C 1621.41 -1.4281 1.20259 0
M  V30 16838 C 1621.76 -1.95313 -0.186332 0
M  V30 16839 O 1620.88 -1.87244 -1.08484 0
M  V30 16840 C 1621.48 -2.59589 2.17713 0
M  V30 16841 C 1620.04 -3.1258 2.09691 0
M  V30 16842 C 1619.19 -1.85317 2.06283 0
M  V30 16843 H 1622.14 -0.665769 1.4406 0
M  V30 16844 H 1622.16 -3.36639 1.77354 0
M  V30 16845 H 1621.67 -2.21346 3.18791 0
M  V30 16846 H 1619.77 -3.55416 1.11849 0
M  V30 16847 H 1619.88 -3.74071 2.99346 0
M  V30 16848 H 1618.25 -2.04766 1.51469 0
M  V30 16849 H 1619.03 -1.49296 3.09137 0
M  V30 16850 N 1621.48 -1.1533 -1.07409 0
M  V30 16851 C 1622.42 -0.845328 -2.16696 0
M  V30 16852 C 1623.42 0.181009 -1.6843 0
M  V30 16853 O 1624.62 0.0361013 -1.79964 0
M  V30 16854 H 1621 -0.255698 -0.707193 0
M  V30 16855 H 1622.97 -1.7747 -2.39889 0
M  V30 16856 C 1621.72 -0.350381 -3.4593 0
M  V30 16857 H 1621.04 -1.13152 -3.83454 0
M  V30 16858 H 1622.48 -0.173547 -4.23645 0
M  V30 16859 C 1620.94 0.927991 -3.23867 0
M  V30 16860 O 1621.47 1.99965 -3.48392 0
M  V30 16861 N 1619.68 0.867266 -2.77357 0
M  V30 16862 H 1619.22 -0.00500352 -2.576 0
M  V30 16863 H 1619.18 1.72314 -2.62974 0
M  V30 16864 N 1622.95 1.25748 -0.950004 0
M  V30 16865 C 1623.9 2.23767 -0.43731 0
M  V30 16866 C 1624.89 1.53856 0.47088 0
M  V30 16867 O 1626.08 1.74358 0.304687 0
M  V30 16868 C 1623.21 3.4209 0.288037 0
M  V30 16869 C 1622.29 4.19274 -0.637955 0
M  V30 16870 N 1622.69 4.73909 -1.76759 0
M  V30 16871 C 1620.98 4.43772 -0.445251 0
M  V30 16872 C 1621.68 5.32323 -2.34535 0
M  V30 16873 N 1620.66 5.18511 -1.63239 0
M  V30 16874 H 1624.46 2.6361 -1.29949 0
M  V30 16875 H 1621.98 1.40934 -0.806931 0
M  V30 16876 H 1623.97 4.11441 0.672433 0
M  V30 16877 H 1622.63 3.03771 1.14688 0
M  V30 16878 H 1623.64 4.71184 -2.14955 0
M  V30 16879 H 1620.32 4.15848 0.37109 0
M  V30 16880 H 1621.71 5.85411 -3.29763 0
M  V30 16881 N 1624.43 0.718038 1.40292 0
M  V30 16882 C 1625.66 0.268326 2.05153 0
M  V30 16883 C 1626.07 -1.09075 1.54104 0
M  V30 16884 O 1625.43 -1.68597 0.698654 0
M  V30 16885 C 1625.48 0.242222 3.60688 0
M  V30 16886 O 1625.2 1.54764 4.09853 0
M  V30 16887 C 1626.7 -0.225741 4.42725 0
M  V30 16888 H 1623.92 0.120165 0.660153 0
M  V30 16889 H 1626.47 0.976933 1.79656 0
M  V30 16890 H 1624.62 -0.417367 3.85145 0
M  V30 16891 H 1625.04 1.44976 5.04066 0
M  V30 16892 H 1626.51 -0.192857 5.51663 0
M  V30 16893 H 1626.99 -1.26829 4.20489 0
M  V30 16894 H 1627.59 0.40366 4.2338 0
M  V30 16895 N 1625.91 -1.50602 0.464402 0
M  V30 16896 C 1626.87 -2.26929 -0.32185 0
M  V30 16897 C 1627.87 -1.3144 -0.926289 0
M  V30 16898 O 1629.06 -1.54924 -0.796511 0
M  V30 16899 C 1626.2 -3.08155 -1.45785 0
M  V30 16900 H 1627.39 -2.97881 0.347436 0
M  V30 16901 H 1624.94 -1.54768 0.218278 0
M  V30 16902 H 1625.68 -2.41684 -2.16239 0
M  V30 16903 H 1625.46 -3.78321 -1.03031 0
M  V30 16904 H 1626.95 -3.65899 -2.01266 0
M  V30 16905 N 1627.39 -0.19675 -1.56367 0
M  V30 16906 C 1628.63 0.442238 -1.97919 0
M  V30 16907 C 1628.97 1.61156 -1.08362 0
M  V30 16908 O 1628.24 1.94024 -0.135969 0
M  V30 16909 C 1628.53 0.90078 -3.48652 0
M  V30 16910 C 1628.38 -0.270471 -4.48986 0
M  V30 16911 C 1629.7 1.7657 -4.03126 0
M  V30 16912 H 1626.82 0.159276 -0.719583 0
M  V30 16913 H 1629.46 -0.288004 -1.87805 0
M  V30 16914 H 1627.61 1.52302 -3.57402 0
M  V30 16915 H 1629.28 -0.908176 -4.52272 0
M  V30 16916 H 1627.52 -0.921973 -4.23889 0
M  V30 16917 H 1628.19 0.0929101 -5.51922 0
M  V30 16918 H 1630.67 1.24091 -3.97166 0
M  V30 16919 H 1629.55 2.0555 -5.0896 0
M  V30 16920 H 1629.81 2.72047 -3.48486 0
M  V30 16921 N 1628.87 1.57413 0.0768405 0
M  V30 16922 C 1629.82 1.99785 1.09864 0
M  V30 16923 C 1630.8 0.879104 1.34761 0
M  V30 16924 O 1631.99 1.143 1.35146 0
M  V30 16925 C 1629.12 2.44111 2.41381 0
M  V30 16926 C 1628.21 3.62709 2.1978 0
M  V30 16927 N 1628.6 4.77051 1.68094 0
M  V30 16928 C 1626.9 3.6916 2.50273 0
M  V30 16929 C 1627.6 5.58921 1.6119 0
M  V30 16930 N 1626.57 5.0262 2.07061 0
M  V30 16931 H 1630.38 2.85631 0.692257 0
M  V30 16932 H 1627.89 1.59898 0.283993 0
M  V30 16933 H 1629.89 2.72703 3.15339 0
M  V30 16934 H 1628.55 1.59649 2.82741 0
M  V30 16935 H 1629.56 4.99443 1.3703 0
M  V30 16936 H 1626.23 2.95401 2.95033 0
M  V30 16937 H 1627.62 6.60708 1.22125 0
M  V30 16938 N 1630.34 -0.348112 1.53707 0
M  V30 16939 C 1631.31 -1.41018 1.80683 0
M  V30 16940 C 1632.31 -1.4582 0.67774 0
M  V30 16941 O 1633.5 -1.46275 0.94601 0
M  V30 16942 C 1630.63 -2.79988 1.94473 0
M  V30 16943 H 1631.82 -1.18365 2.75554 0
M  V30 16944 H 1629.38 -0.582244 1.4505 0
M  V30 16945 H 1630.11 -3.07931 1.0173 0
M  V30 16946 H 1629.9 -2.77899 2.76612 0
M  V30 16947 H 1631.39 -3.56868 2.16876 0
M  V30 16948 N 1631.82 -1.45363 -0.608876 0
M  V30 16949 C 1632.77 -1.50362 -1.71392 0
M  V30 16950 C 1633.76 -0.367024 -1.56658 0
M  V30 16951 O 1634.95 -0.613796 -1.66017 0
M  V30 16952 C 1632.08 -1.47197 -3.10142 0
M  V30 16953 C 1631.16 -2.66055 -3.30266 0
M  V30 16954 N 1631.55 -3.91168 -3.20657 0
M  V30 16955 C 1629.85 -2.61724 -3.61132 0
M  V30 16956 C 1630.55 -4.70487 -3.42077 0
M  V30 16957 N 1629.53 -4.01921 -3.66006 0
M  V30 16958 H 1633.33 -2.4492 -1.62454 0
M  V30 16959 H 1630.85 -1.40637 -0.812091 0
M  V30 16960 H 1632.84 -1.48864 -3.89416 0
M  V30 16961 H 1631.5 -0.536956 -3.20229 0
M  V30 16962 H 1632.51 -4.22809 -2.99087 0
M  V30 16963 H 1629.19 -1.77124 -3.78065 0
M  V30 16964 H 1630.58 -5.79495 -3.40052 0
M  V30 16965 N 1633.3 0.851265 -1.32632 0
M  V30 16966 C 1634.23 1.97562 -1.24465 0
M  V30 16967 C 1635.21 1.69619 -0.127777 0
M  V30 16968 O 1636.4 1.9162 -0.315509 0
M  V30 16969 C 1633.53 3.33467 -0.970423 0
M  V30 16970 C 1632.48 3.75772 -2.0489 0
M  V30 16971 C 1631.81 5.09345 -1.62702 0
M  V30 16972 C 1633.11 3.90876 -3.4643 0
M  V30 16973 H 1634.8 2.04653 -2.18535 0
M  V30 16974 H 1632.35 0.983252 -1.05205 0
M  V30 16975 H 1634.3 4.11681 -0.899825 0
M  V30 16976 H 1633.02 3.26599 0.00591373 0
M  V30 16977 H 1631.68 2.99812 -2.1097 0
M  V30 16978 H 1631.33 4.98937 -0.638039 0
M  V30 16979 H 1631.03 5.38621 -2.34864 0
M  V30 16980 H 1632.55 5.90048 -1.57085 0
M  V30 16981 H 1633.97 4.59434 -3.42919 0
M  V30 16982 H 1632.37 4.31574 -4.1697 0
M  V30 16983 H 1633.44 2.93689 -3.85843 0
M  V30 16984 N 1634.78 1.15898 1.06796 0
M  V30 16985 C 1635.74 0.863427 2.12315 0
M  V30 16986 C 1636.74 -0.139326 1.60195 0
M  V30 16987 O 1637.93 0.0909705 1.73962 0
M  V30 16988 C 1635.06 0.290251 3.39662 0
M  V30 16989 H 1636.26 1.79879 2.39966 0
M  V30 16990 H 1633.81 0.967223 1.22778 0
M  V30 16991 H 1634.54 -0.653037 3.17657 0
M  V30 16992 H 1634.33 1.01273 3.78796 0
M  V30 16993 H 1635.82 0.10124 4.17477 0
M  V30 16994 N 1636.26 -1.25243 0.956659 0
M  V30 16995 C 1637.5 -1.92632 0.611328 0
M  V30 16996 C 1637.83 -1.75272 -0.85467 0
M  V30 16997 O 1637.1 -1.11758 -1.60894 0
M  V30 16998 H 1635.68 -0.712904 0.223109 0
M  V30 16999 H 1638.34 -1.52366 1.21534 0
M  V30 17000 H 1637.43 -3.00516 0.842396 0
M  V30 17001 N 1637.73 -0.725468 -1.3991 0
M  V30 17002 C 1638.68 -0.0682776 -2.325 0
M  V30 17003 C 1639.68 0.736285 -1.52562 0
M  V30 17004 O 1640.88 0.638542 -1.68293 0
M  V30 17005 H 1637.26 -0.00327742 -0.751993 0
M  V30 17006 H 1639.23 -0.865735 -2.85565 0
M  V30 17007 C 1637.98 0.832036 -3.37598 0
M  V30 17008 H 1637.3 0.222341 -3.99181 0
M  V30 17009 H 1638.74 1.25965 -4.04856 0
M  V30 17010 C 1637.2 1.96201 -2.73874 0
M  V30 17011 O 1637.73 3.05378 -2.60974 0
M  V30 17012 N 1635.94 1.74857 -2.32106 0
M  V30 17013 H 1635.48 0.860621 -2.42798 0
M  V30 17014 H 1635.44 2.50639 -1.89808 0
M  V30 17015 N 1639.21 1.50354 -0.472382 0
M  V30 17016 C 1640.44 2.06746 0.0798134 0
M  V30 17017 C 1640.86 1.3361 1.33393 0
M  V30 17018 O 1640.21 0.405765 1.77932 0
M  V30 17019 C 1640.26 3.59636 0.3666 0
M  V30 17020 O 1639.98 4.30015 -0.837776 0
M  V30 17021 C 1641.49 4.32655 0.965618 0
M  V30 17022 H 1638.71 0.670956 -0.00765904 0
M  V30 17023 H 1641.25 1.93504 -0.661535 0
M  V30 17024 H 1639.4 3.72676 1.05788 0
M  V30 17025 H 1639.82 5.21248 -0.583161 0
M  V30 17026 H 1641.29 5.406 1.11604 0
M  V30 17027 H 1641.77 3.93237 1.95606 0
M  V30 17028 H 1642.38 4.24149 0.312676 0
M  V30 17029 N 1640.69 0.205039 1.56261 0
M  V30 17030 C 1641.64 -0.724845 2.16171 0
M  V30 17031 C 1642.63 -1.16929 1.10528 0
M  V30 17032 O 1643.82 -1.12603 1.36564 0
M  V30 17033 C 1640.95 -1.93992 2.83235 0
M  V30 17034 C 1640.03 -1.51592 3.96082 0
M  V30 17035 N 1640.42 -0.80348 4.99377 0
M  V30 17036 C 1638.72 -1.80447 4.07866 0
M  V30 17037 C 1639.42 -0.58958 5.78704 0
M  V30 17038 N 1638.4 -1.14132 5.31484 0
M  V30 17039 H 1642.2 -0.171919 2.93397 0
M  V30 17040 H 1639.71 0.00563679 1.62399 0
M  V30 17041 H 1641.71 -2.61667 3.24555 0
M  V30 17042 H 1640.37 -2.49747 2.07501 0
M  V30 17043 H 1641.38 -0.457893 5.15872 0
M  V30 17044 H 1638.06 -2.3764 3.43269 0
M  V30 17045 H 1639.45 -0.0237117 6.71896 0
M  V30 17046 N 1642.17 -1.57451 -0.0684915 0
M  V30 17047 C 1643.1 -2.06954 -1.0813 0
M  V30 17048 C 1644.08 -0.963716 -1.40166 0
M  V30 17049 O 1645.27 -1.23664 -1.49736 0
M  V30 17050 C 1642.4 -2.51622 -2.39381 0
M  V30 17051 C 1641.35 -3.66111 -2.2169 0
M  V30 17052 C 1640.68 -3.96846 -3.58354 0
M  V30 17053 C 1641.98 -4.96036 -1.63541 0
M  V30 17054 H 1643.67 -2.91822 -0.66936 0
M  V30 17055 H 1641.22 -1.40387 -0.320533 0
M  V30 17056 H 1643.17 -2.84867 -3.1053 0
M  V30 17057 H 1641.89 -1.63788 -2.82562 0
M  V30 17058 H 1640.55 -3.33155 -1.52982 0
M  V30 17059 H 1640.2 -3.06137 -3.9911 0
M  V30 17060 H 1639.9 -4.73939 -3.47354 0
M  V30 17061 H 1641.42 -4.3259 -4.30927 0
M  V30 17062 H 1642.84 -5.27491 -2.24559 0
M  V30 17063 H 1641.23 -5.77474 -1.63228 0
M  V30 17064 H 1642.3 -4.81208 -0.597199 0
M  V30 17065 N 1643.65 0.339955 -1.5389 0
M  V30 17066 C 1644.9 1.07766 -1.7097 0
M  V30 17067 C 1645.22 1.89064 -0.477486 0
M  V30 17068 O 1644.49 1.89183 0.508579 0
M  V30 17069 H 1643.07 0.400849 -0.630341 0
M  V30 17070 H 1645.73 0.380359 -1.91153 0
M  V30 17071 H 1644.82 1.75301 -2.58217 0
M  V30 17072 N 1645.13 1.45684 0.601159 0
M  V30 17073 C 1646.37 1.4974 1.35729 0
M  V30 17074 C 1646.69 0.143072 1.94474 0
M  V30 17075 O 1645.96 -0.82832 1.77527 0
M  V30 17076 H 1644.54 0.551455 0.503892 0
M  V30 17077 H 1647.21 1.81685 0.705443 0
M  V30 17078 H 1646.3 2.23982 2.17344 0
M  V30 17079 N 1646.6 -0.84422 1.33082 0
M  V30 17080 C 1647.54 -1.96055 1.18722 0
M  V30 17081 C 1648.55 -1.62361 0.119538 0
M  V30 17082 O 1649.74 -1.74634 0.369469 0
M  V30 17083 C 1646.84 -3.29387 0.797318 0
M  V30 17084 C 1646.01 -3.91253 1.95551 0
M  V30 17085 C 1645.07 -5.02932 1.54745 0
M  V30 17086 O 1644.1 -5.22367 2.26101 0
M  V30 17087 N 1645.3 -5.78758 0.449394 0
M  V30 17088 H 1648.06 -2.08912 2.14886 0
M  V30 17089 H 1645.62 -1.01966 1.25756 0
M  V30 17090 H 1647.62 -4.01517 0.506536 0
M  V30 17091 H 1646.19 -3.12514 -0.0734775 0
M  V30 17092 H 1645.41 -3.11779 2.41221 0
M  V30 17093 H 1646.69 -4.2932 2.73061 0
M  V30 17094 H 1646.09 -5.65516 -0.14428 0
M  V30 17095 H 1644.65 -6.51434 0.218264 0
M  V30 17096 N 1648.08 -1.16463 -1.0618 0
M  V30 17097 C 1649.49 -0.95436 -1.60465 0
M  V30 17098 C 1649.84 0.501455 -1.89684 0
M  V30 17099 O 1648.97 1.37488 -1.67111 0
M  V30 17100 C 1649.56 -1.72603 -2.91537 0
M  V30 17101 C 1648.12 -1.56071 -3.42518 0
M  V30 17102 C 1647.27 -1.73403 -2.16395 0
M  V30 17103 H 1650.22 -1.31316 -0.891166 0
M  V30 17104 H 1650.24 -1.20252 -3.60998 0
M  V30 17105 H 1649.75 -2.78554 -2.70239 0
M  V30 17106 H 1647.85 -0.525652 -3.68874 0
M  V30 17107 H 1647.97 -2.34533 -4.17769 0
M  V30 17108 H 1646.33 -1.16155 -2.26672 0
M  V30 17109 H 1647.11 -2.80745 -1.97578 0
M  V30 17110 N 1649.56 1.24734 -0.963288 0
M  V30 17111 C 1650.79 1.96745 -0.640234 0
M  V30 17112 C 1651.2 1.71503 0.789445 0
M  V30 17113 O 1650.56 0.996174 1.52914 0
M  V30 17114 C 1650.61 3.50118 -0.899987 0
M  V30 17115 O 1650.33 3.74494 -2.27346 0
M  V30 17116 C 1651.83 4.39349 -0.590511 0
M  V30 17117 H 1649.05 0.626892 -0.239266 0
M  V30 17118 H 1651.6 1.58678 -1.29002 0
M  V30 17119 H 1649.75 3.86264 -0.296478 0
M  V30 17120 H 1650.17 4.68902 -2.35013 0
M  V30 17121 H 1651.64 5.45834 -0.822744 0
M  V30 17122 H 1652.12 4.36622 0.475138 0
M  V30 17123 H 1652.72 4.08783 -1.17373 0
M  V30 17124 N 1651.04 0.732878 1.39523 0
M  V30 17125 C 1651.97 0.106583 2.33257 0
M  V30 17126 C 1652.95 -0.726582 1.53801 0
M  V30 17127 O 1654.13 -0.671994 1.82203 0
M  V30 17128 C 1651.26 -0.803051 3.37888 0
M  V30 17129 C 1650.22 -0.0742048 4.27936 0
M  V30 17130 C 1649.54 -1.10071 5.23248 0
M  V30 17131 C 1650.84 1.08195 5.10971 0
M  V30 17132 H 1652.54 0.889539 2.8588 0
M  V30 17133 H 1650.08 0.429209 1.37455 0
M  V30 17134 H 1652.04 -1.25071 4.02412 0
M  V30 17135 H 1650.76 -1.6181 2.83699 0
M  V30 17136 H 1649.42 0.35381 3.64889 0
M  V30 17137 H 1649.07 -1.90927 4.65356 0
M  V30 17138 H 1648.77 -0.617825 5.84343 0
M  V30 17139 H 1650.29 -1.54812 5.90649 0
M  V30 17140 H 1651.71 0.712835 5.68851 0
M  V30 17141 H 1650.1 1.49433 5.81197 0
M  V30 17142 H 1651.17 1.90463 4.45928 0
M  V30 17143 N 1652.52 -1.50101 0.480349 0
M  V30 17144 C 1653.45 -2.31581 -0.298718 0
M  V30 17145 C 1654.43 -1.38905 -0.981798 0
M  V30 17146 O 1655.61 -1.67823 -0.977188 0
M  V30 17147 C 1652.74 -3.18891 -1.37571 0
M  V30 17148 C 1651.7 -4.20194 -0.813704 0
M  V30 17149 C 1651.02 -4.96302 -1.98968 0
M  V30 17150 C 1652.32 -5.21985 0.181295 0
M  V30 17151 H 1654.02 -2.96961 0.381349 0
M  V30 17152 H 1651.56 -1.42809 0.184842 0
M  V30 17153 H 1653.51 -3.74694 -1.92828 0
M  V30 17154 H 1652.24 -2.51414 -2.08467 0
M  V30 17155 H 1650.9 -3.65506 -0.283034 0
M  V30 17156 H 1650.55 -4.2529 -2.68584 0
M  V30 17157 H 1650.25 -5.64833 -1.61981 0
M  V30 17158 H 1651.77 -5.54943 -2.54698 0
M  V30 17159 H 1653.18 -5.72604 -0.28242 0
M  V30 17160 H 1651.58 -5.98289 0.465916 0
M  V30 17161 H 1652.65 -4.72162 1.10413 0
M  V30 17162 N 1653.99 -0.213323 -1.5615 0
M  V30 17163 C 1655.4 0.29602 -1.84338 0
M  V30 17164 C 1655.76 1.60073 -1.13451 0
M  V30 17165 O 1654.88 2.12645 -0.4014 0
M  V30 17166 C 1655.48 0.54387 -3.34406 0
M  V30 17167 C 1654.03 0.997539 -3.62941 0
M  V30 17168 C 1653.18 0.0560823 -2.77243 0
M  V30 17169 H 1656.13 -0.436707 -1.52573 0
M  V30 17170 H 1656.15 1.39093 -3.54166 0
M  V30 17171 H 1655.67 -0.405885 -3.85972 0
M  V30 17172 H 1653.77 1.96094 -3.16825 0
M  V30 17173 H 1653.88 0.877642 -4.70993 0
M  V30 17174 H 1652.24 0.561362 -2.48437 0
M  V30 17175 H 1653.03 -0.888442 -3.31605 0
M  V30 17176 N 1655.47 1.57485 0.0601405 0
M  V30 17177 C 1656.7 1.91772 0.768565 0
M  V30 17178 C 1657.11 0.808661 1.71048 0
M  V30 17179 O 1656.45 -0.226062 1.82304 0
M  V30 17180 C 1656.52 3.21623 1.6062 0
M  V30 17181 C 1656.18 4.49355 0.832411 0
M  V30 17182 C 1657.18 5.19694 0.146434 0
M  V30 17183 C 1654.86 4.95951 0.796137 0
M  V30 17184 C 1656.86 6.34887 -0.565461 0
M  V30 17185 C 1654.54 6.11047 0.0804763 0
M  V30 17186 C 1655.54 6.80367 -0.599112 0
M  V30 17187 O 1655.23 7.93266 -1.30322 0
M  V30 17188 H 1654.96 0.638161 0.222994 0
M  V30 17189 H 1657.51 2.05376 0.0311569 0
M  V30 17190 H 1655.74 3.0426 2.38668 0
M  V30 17191 H 1657.43 3.41471 2.19436 0
M  V30 17192 H 1658.2 4.84717 0.16569 0
M  V30 17193 H 1654.08 4.4186 1.31457 0
M  V30 17194 H 1657.62 6.88929 -1.09646 0
M  V30 17195 H 1653.52 6.45473 0.0591881 0
M  V30 17196 H 1654.29 8.09452 -1.21369 0
M  V30 17197 N 1656.95 -0.331789 1.54068 0
M  V30 17198 C 1658.36 -0.906719 1.63204 0
M  V30 17199 C 1658.71 -1.89161 0.520837 0
M  V30 17200 O 1657.84 -2.1359 -0.347577 0
M  V30 17201 C 1658.43 -1.65132 2.95832 0
M  V30 17202 C 1656.99 -2.17509 3.07192 0
M  V30 17203 C 1656.14 -0.99788 2.58723 0
M  V30 17204 H 1659.09 -0.109595 1.58321 0
M  V30 17205 H 1659.11 -2.515 2.85531 0
M  V30 17206 H 1658.62 -0.934255 3.76687 0
M  V30 17207 H 1656.72 -2.92356 2.30995 0
M  V30 17208 H 1656.84 -2.43074 4.12858 0
M  V30 17209 H 1655.2 -1.37469 2.14417 0
M  V30 17210 H 1655.98 -0.295261 3.42028 0
M  V30 17211 N 1658.43 -1.46001 -0.593424 0
M  V30 17212 C 1659.65 -1.54541 -1.38318 0
M  V30 17213 C 1660.08 -0.183555 -1.87202 0
M  V30 17214 O 1659.44 0.834407 -1.60958 0
M  V30 17215 C 1659.48 -2.54559 -2.55405 0
M  V30 17216 O 1658.59 -2.07321 -3.56499 0
M  V30 17217 H 1657.93 -0.520434 -0.412364 0
M  V30 17218 H 1660.46 -1.9148 -0.720862 0
M  V30 17219 H 1660.47 -2.73823 -3.02465 0
M  V30 17220 H 1659.14 -3.53461 -2.19176 0
M  V30 17221 H 1657.72 -1.97997 -3.15993 0
M  V30 17222 N 1659.91 0.83715 -1.33527 0
M  V30 17223 C 1661.13 1.62976 -1.28271 0
M  V30 17224 C 1661.56 1.87554 0.143201 0
M  V30 17225 O 1660.91 1.44088 1.10038 0
M  V30 17226 C 1660.96 2.95607 -2.06516 0
M  V30 17227 O 1660.07 3.87 -1.42494 0
M  V30 17228 H 1659.41 0.496212 -0.441214 0
M  V30 17229 H 1661.94 1.04137 -1.76115 0
M  V30 17230 H 1661.95 3.4529 -2.17344 0
M  V30 17231 H 1660.62 2.77041 -3.10195 0
M  V30 17232 H 1659.2 3.45492 -1.40321 0
M  V30 17233 N 1661.38 1.17024 1.05561 0
M  V30 17234 C 1662.35 0.885897 2.11387 0
M  V30 17235 C 1663.35 -0.122327 1.60334 0
M  V30 17236 O 1664.54 0.109416 1.73856 0
M  V30 17237 C 1661.67 0.32626 3.39335 0
M  V30 17238 H 1662.86 1.82414 2.38045 0
M  V30 17239 H 1660.42 0.980191 1.21745 0
M  V30 17240 H 1661.15 -0.619308 3.18332 0
M  V30 17241 H 1660.94 1.05285 3.777 0
M  V30 17242 H 1662.43 0.145513 4.17346 0
M  V30 17243 N 1662.86 -1.24221 0.969889 0
M  V30 17244 C 1664.09 -1.96403 0.650658 0
M  V30 17245 C 1664.51 -1.71919 -0.780339 0
M  V30 17246 O 1663.86 -1.00427 -1.52383 0
M  V30 17247 C 1663.91 -3.49636 0.918542 0
M  V30 17248 O 1663.63 -3.73283 2.29328 0
M  V30 17249 C 1665.14 -4.3903 0.613803 0
M  V30 17250 H 1662.36 -0.625614 0.242587 0
M  V30 17251 H 1664.9 -1.57992 1.29842 0
M  V30 17252 H 1663.05 -3.86101 0.316959 0
M  V30 17253 H 1663.47 -4.67649 2.37496 0
M  V30 17254 H 1664.94 -5.4539 0.851679 0
M  V30 17255 H 1665.42 -4.36868 -0.451976 0
M  V30 17256 H 1666.03 -4.08155 1.19539 0
M  V30 17257 N 1664.34 -0.740267 -1.39132 0
M  V30 17258 C 1665.27 -0.118951 -2.33197 0
M  V30 17259 C 1666.25 0.718416 -1.54184 0
M  V30 17260 O 1667.44 0.662322 -1.82557 0
M  V30 17261 C 1664.57 0.78512 -3.38309 0
M  V30 17262 C 1663.52 0.0515093 -4.27969 0
M  V30 17263 C 1662.85 1.07295 -5.23824 0
M  V30 17264 C 1664.15 -1.10903 -5.1039 0
M  V30 17265 H 1665.84 -0.904687 -2.85405 0
M  V30 17266 H 1663.39 -0.436493 -1.37225 0
M  V30 17267 H 1665.34 1.22935 -4.03069 0
M  V30 17268 H 1664.06 1.60303 -2.84553 0
M  V30 17269 H 1662.72 -0.373156 -3.64696 0
M  V30 17270 H 1662.37 1.88456 -4.66362 0
M  V30 17271 H 1662.07 0.586827 -5.84662 0
M  V30 17272 H 1663.59 1.51677 -5.91461 0
M  V30 17273 H 1665.01 -0.742993 -5.68465 0
M  V30 17274 H 1663.41 -1.52513 -5.80396 0
M  V30 17275 H 1664.48 -1.92825 -4.44912 0
M  V30 17276 N 1665.82 1.49844 -0.488302 0
M  V30 17277 C 1667.04 2.07313 0.0600937 0
M  V30 17278 C 1667.47 1.3478 1.3121 0
M  V30 17279 O 1666.83 0.400634 1.76818 0
M  V30 17280 C 1666.87 3.59268 0.309658 0
M  V30 17281 O 1665.98 3.88381 1.38688 0
M  V30 17282 H 1665.32 0.663681 -0.0205947 0
M  V30 17283 H 1667.85 1.92818 -0.684284 0
M  V30 17284 H 1667.86 4.04344 0.545 0
M  V30 17285 H 1666.53 4.11474 -0.605146 0
M  V30 17286 H 1665.11 3.55128 1.13749 0
M  V30 17287 N 1667.3 0.221601 1.56034 0
M  V30 17288 C 1668.52 -0.417979 2.03145 0
M  V30 17289 C 1668.95 -1.52556 1.10038 0
M  V30 17290 O 1668.3 -1.81084 0.0885729 0
M  V30 17291 C 1668.35 -0.926762 3.48487 0
M  V30 17292 O 1667.46 -2.03811 3.58518 0
M  V30 17293 H 1666.8 -0.0945778 0.65723 0
M  V30 17294 H 1669.33 0.340252 2.01751 0
M  V30 17295 H 1669.34 -1.23656 3.8881 0
M  V30 17296 H 1668.01 -0.116115 4.15738 0
M  V30 17297 H 1666.59 -1.73494 3.30082 0
M  V30 17298 N 1668.77 -1.57515 -0.0517878 0
M  V30 17299 C 1669.74 -2.04049 -1.04387 0
M  V30 17300 C 1670.74 -0.940745 -1.30409 0
M  V30 17301 O 1671.93 -1.20505 -1.25794 0
M  V30 17302 C 1669.06 -2.43816 -2.38257 0
M  V30 17303 H 1670.25 -2.9294 -0.642367 0
M  V30 17304 H 1667.81 -1.53432 -0.29805 0
M  V30 17305 H 1668.54 -1.58013 -2.832 0
M  V30 17306 H 1668.33 -3.24086 -2.20705 0
M  V30 17307 H 1669.82 -2.80325 -3.09528 0
M  V30 17308 N 1670.25 0.323614 -1.54242 0
M  V30 17309 C 1671.22 1.38126 -1.82904 0
M  V30 17310 C 1672.22 1.44723 -0.700853 0
M  V30 17311 O 1673.41 1.44751 -0.969161 0
M  V30 17312 C 1670.54 2.76858 -1.98903 0
M  V30 17313 H 1671.73 1.13966 -2.77402 0
M  V30 17314 H 1669.28 0.559094 -1.45958 0
M  V30 17315 H 1670.02 3.06274 -1.06616 0
M  V30 17316 H 1669.8 2.73464 -2.80998 0
M  V30 17317 H 1671.29 3.53372 -2.22526 0
M  V30 17318 N 1671.73 1.46313 0.585673 0
M  V30 17319 C 1673.14 1.4567 1.16778 0
M  V30 17320 C 1673.49 0.195957 1.95219 0
M  V30 17321 O 1672.62 -0.701142 2.04727 0
M  V30 17322 C 1673.21 2.6392 2.12443 0
M  V30 17323 C 1671.77 2.66327 2.65983 0
M  V30 17324 C 1670.92 2.38304 1.41797 0
M  V30 17325 H 1673.87 1.54236 0.37377 0
M  V30 17326 H 1673.89 2.39268 2.95856 0
M  V30 17327 H 1673.4 3.55663 1.55324 0
M  V30 17328 H 1671.5 1.78648 3.2698 0
M  V30 17329 H 1671.62 3.66203 3.08921 0
M  V30 17330 H 1669.98 1.88302 1.71507 0
M  V30 17331 H 1670.76 3.3222 0.86514 0
M  V30 17332 N 1673.21 -0.830057 1.33969 0
M  V30 17333 C 1674.46 -1.58821 1.26111 0
M  V30 17334 C 1674.79 -1.9345 -0.170484 0
M  V30 17335 O 1674.06 -1.59433 -1.11407 0
M  V30 17336 C 1674.35 -2.89243 2.14501 0
M  V30 17337 C 1674.2 -2.61239 3.66162 0
M  V30 17338 C 1675.52 -3.90752 2.02487 0
M  V30 17339 H 1672.64 -0.576255 0.459455 0
M  V30 17340 H 1675.28 -0.956736 1.64154 0
M  V30 17341 H 1673.43 -3.43133 1.82186 0
M  V30 17342 H 1675.1 -2.13713 4.08809 0
M  V30 17343 H 1673.34 -1.94796 3.87604 0
M  V30 17344 H 1674.02 -3.54212 4.23365 0
M  V30 17345 H 1676.49 -3.46194 2.30844 0
M  V30 17346 H 1675.37 -4.79825 2.6657 0
M  V30 17347 H 1675.63 -4.30649 0.999704 0
M  V30 17348 N 1674.69 -1.17582 -1.04939 0
M  V30 17349 C 1675.65 -0.897095 -2.10914 0
M  V30 17350 C 1676.65 0.113823 -1.60397 0
M  V30 17351 O 1677.84 -0.118635 -1.73796 0
M  V30 17352 C 1674.97 -0.344251 -3.39157 0
M  V30 17353 H 1676.17 -1.83674 -2.37074 0
M  V30 17354 H 1673.72 -0.986634 -1.21224 0
M  V30 17355 H 1674.45 0.602417 -3.18656 0
M  V30 17356 H 1674.24 -1.07287 -3.77137 0
M  V30 17357 H 1675.73 -0.167644 -4.17263 0
M  V30 17358 N 1676.17 1.23705 -0.976463 0
M  V30 17359 C 1677.12 2.22789 -0.484676 0
M  V30 17360 C 1678.1 1.5482 0.43814 0
M  V30 17361 O 1679.29 1.74965 0.267635 0
M  V30 17362 C 1676.42 3.42624 0.21541 0
M  V30 17363 C 1675.51 4.17827 -0.726745 0
M  V30 17364 N 1675.9 4.70053 -1.86771 0
M  V30 17365 C 1674.2 4.42728 -0.539282 0
M  V30 17366 C 1674.9 5.27229 -2.45773 0
M  V30 17367 N 1673.87 5.14932 -1.742 0
M  V30 17368 H 1677.67 2.60795 -1.35511 0
M  V30 17369 H 1675.19 1.39191 -0.836644 0
M  V30 17370 H 1677.19 4.12775 0.585009 0
M  V30 17371 H 1675.85 3.06135 1.08218 0
M  V30 17372 H 1676.86 4.66519 -2.24901 0
M  V30 17373 H 1673.53 4.16541 0.282799 0
M  V30 17374 H 1674.92 5.78284 -3.42106 0
M  V30 17375 N 1677.64 0.747635 1.38738 0
M  V30 17376 C 1678.57 0.131317 2.3313 0
M  V30 17377 C 1679.55 -0.710229 1.54563 0
M  V30 17378 O 1680.74 -0.652631 1.82905 0
M  V30 17379 C 1677.87 -0.767168 3.38721 0
M  V30 17380 C 1676.82 -0.0288124 4.2799 0
M  V30 17381 C 1676.15 -1.04515 5.24386 0
M  V30 17382 C 1677.45 1.13608 5.09795 0
M  V30 17383 H 1679.14 0.91981 2.84921 0
M  V30 17384 H 1676.69 0.443764 1.36992 0
M  V30 17385 H 1678.64 -1.20796 4.03716 0
M  V30 17386 H 1677.37 -1.58792 2.85399 0
M  V30 17387 H 1676.03 0.392491 3.64493 0
M  V30 17388 H 1675.67 -1.8598 4.67355 0
M  V30 17389 H 1675.37 -0.555813 5.84965 0
M  V30 17390 H 1676.9 -1.48538 5.92257 0
M  V30 17391 H 1678.31 0.773129 5.68063 0
M  V30 17392 H 1676.71 1.55589 5.79579 0
M  V30 17393 H 1677.78 1.95182 4.43883 0
M  V30 17394 N 1679.12 -1.49583 0.496242 0
M  V30 17395 C 1680.05 -2.31885 -0.274139 0
M  V30 17396 C 1681.03 -1.39939 -0.96701 0
M  V30 17397 O 1682.22 -1.6885 -0.959333 0
M  V30 17398 C 1679.35 -3.20332 -1.34181 0
M  V30 17399 C 1678.3 -4.21033 -0.769091 0
M  V30 17400 C 1677.63 -4.98385 -1.93693 0
M  V30 17401 C 1678.93 -5.21764 0.236648 0
M  V30 17402 H 1680.62 -2.9654 0.412824 0
M  V30 17403 H 1678.17 -1.42605 0.199979 0
M  V30 17404 H 1680.12 -3.76718 -1.88843 0
M  V30 17405 H 1678.84 -2.53611 -2.05789 0
M  V30 17406 H 1677.5 -3.65785 -0.244252 0
M  V30 17407 H 1677.15 -4.28115 -2.64058 0
M  V30 17408 H 1676.85 -5.66519 -1.55981 0
M  V30 17409 H 1678.38 -5.57613 -2.48798 0
M  V30 17410 H 1679.79 -5.72871 -0.221672 0
M  V30 17411 H 1678.19 -5.97761 0.529346 0
M  V30 17412 H 1679.26 -4.70964 1.15415 0
M  V30 17413 N 1680.6 -0.229873 -1.55915 0
M  V30 17414 C 1681.56 0.663347 -2.19391 0
M  V30 17415 C 1682.56 1.11548 -1.15818 0
M  V30 17416 O 1683.75 1.02294 -1.41002 0
M  V30 17417 C 1680.88 1.9097 -2.82389 0
M  V30 17418 H 1682.08 0.109797 -2.99699 0
M  V30 17419 H 1679.63 0.0197234 -1.56288 0
M  V30 17420 H 1680.37 2.50491 -2.05973 0
M  V30 17421 H 1680.15 1.59388 -3.58243 0
M  V30 17422 H 1681.64 2.5459 -3.31019 0
M  V30 17423 N 1682.08 1.5754 0.0434337 0
M  V30 17424 C 1683.3 1.93247 0.753012 0
M  V30 17425 C 1683.73 0.828712 1.68861 0
M  V30 17426 O 1683.09 -0.216618 1.80001 0
M  V30 17427 C 1683.13 3.27989 1.49852 0
M  V30 17428 O 1682.24 3.19223 2.61094 0
M  V30 17429 H 1681.58 0.632032 0.203547 0
M  V30 17430 H 1684.11 2.046 0.00319776 0
M  V30 17431 H 1684.12 3.62539 1.87161 0
M  V30 17432 H 1682.79 4.07891 0.812251 0
M  V30 17433 H 1681.37 2.9628 2.26434 0
M  V30 17434 N 1683.56 -0.31543 1.54411 0
M  V30 17435 C 1684.97 -0.889358 1.64156 0
M  V30 17436 C 1685.32 -1.88598 0.54087 0
M  V30 17437 O 1684.44 -2.13947 -0.324904 0
M  V30 17438 C 1685.04 -1.61985 2.97567 0
M  V30 17439 C 1683.6 -2.14239 3.09481 0
M  V30 17440 C 1682.74 -0.970382 2.59767 0
M  V30 17441 H 1685.69 -0.092797 1.58428 0
M  V30 17442 H 1685.72 -2.48457 2.88183 0
M  V30 17443 H 1685.23 -0.89425 3.77657 0
M  V30 17444 H 1683.33 -2.8989 2.34082 0
M  V30 17445 H 1683.44 -2.38681 4.15413 0
M  V30 17446 H 1681.81 -1.35187 2.15863 0
M  V30 17447 H 1682.59 -0.258968 3.42322 0
M  V30 17448 N 1685.03 -1.46622 -0.577906 0
M  V30 17449 C 1686.27 -1.53743 -1.34694 0
M  V30 17450 C 1686.64 -0.186609 -1.91091 0
M  V30 17451 O 1687.84 -0.132588 -2.68473 0
M  V30 17452 C 1686.11 -2.60908 -2.44258 0
M  V30 17453 S 1687.67 -2.87468 -3.31523 0
M  V30 17454 H 1684.49 -0.543138 -0.458827 0
M  V30 17455 H 1687.09 -1.83884 -0.663842 0
M  V30 17456 H 1685.79 -3.57682 -2.01225 0
M  V30 17457 H 1685.32 -2.32515 -3.17333 0
M  V30 17458 H 1687.34 -2.23104 -4.43214 0
M  V30 17459 N 1686.51 0.822941 -1.34408 0
M  V30 17460 C 1687.74 1.61087 -1.2984 0
M  V30 17461 C 1688.16 1.88369 0.127527 0
M  V30 17462 O 1687.51 1.47508 1.0746 0
M  V30 17463 C 1687.56 2.9518 -2.08689 0
M  V30 17464 O 1687.28 2.69089 -3.45721 0
M  V30 17465 C 1688.79 3.89583 -2.11518 0
M  V30 17466 H 1686.01 0.500726 -0.44667 0
M  V30 17467 H 1688.55 1.02391 -1.77021 0
M  V30 17468 H 1686.7 3.50434 -1.6515 0
M  V30 17469 H 1687.12 3.5459 -3.86479 0
M  V30 17470 H 1688.59 4.80835 -2.71111 0
M  V30 17471 H 1689.07 4.24953 -1.10957 0
M  V30 17472 H 1689.68 3.40265 -2.55146 0
M  V30 17473 N 1687.99 1.18137 1.04314 0
M  V30 17474 C 1689.22 1.00062 1.81666 0
M  V30 17475 C 1689.64 -0.446281 1.82729 0
M  V30 17476 O 1689 -1.32004 1.24277 0
M  V30 17477 C 1689.05 1.55698 3.25255 0
M  V30 17478 O 1688.15 0.776662 4.05021 0
M  V30 17479 H 1687.49 0.354651 0.561354 0
M  V30 17480 H 1690.02 1.56837 1.3139 0
M  V30 17481 H 1690.03 1.58303 3.76037 0
M  V30 17482 H 1688.71 2.61016 3.23795 0
M  V30 17483 H 1687.28 0.822723 3.63711 0
M  V30 17484 N 1689.47 -1.23186 0.98301 0
M  V30 17485 C 1690.88 -1.43814 0.69207 0
M  V30 17486 C 1691.08 -1.87387 -0.740823 0
M  V30 17487 O 1690.14 -2.02154 -1.51295 0
M  V30 17488 C 1691.45 -2.48769 1.68922 0
M  V30 17489 C 1693 -2.62579 1.70356 0
M  V30 17490 C 1693.48 -3.70746 2.68908 0
M  V30 17491 N 1694.97 -3.78192 2.67442 0
M  V30 17492 C 1695.7 -4.61453 3.40366 0
M  V30 17493 N 1695.2 -5.48784 4.22857 0
M  V30 17494 N 1696.99 -4.55673 3.29118 0
M  V30 17495 H 1689.14 -0.932046 1.90858 0
M  V30 17496 H 1691.41 -0.471274 0.82256 0
M  V30 17497 H 1691.11 -2.23675 2.71408 0
M  V30 17498 H 1690.99 -3.47201 1.47415 0
M  V30 17499 H 1693.37 -2.87022 0.685728 0
M  V30 17500 H 1693.45 -1.64454 1.9593 0
M  V30 17501 H 1693.1 -3.47051 3.70834 0
M  V30 17502 H 1693.03 -4.68418 2.40607 0
M  V30 17503 H 1695.52 -3.15785 2.07577 0
M  V30 17504 H 1695.83 -6.09312 4.75351 0
M  V30 17505 H 1694.18 -5.48398 4.26948 0
M  V30 17506 H 1697.37 -3.86468 2.64122 0
M  V30 17507 H 1697.54 -5.20332 3.8621 0
M  V30 17508 N 1690.95 -0.754982 -1.38339 0
M  V30 17509 C 1692.36 -0.379276 -1.82807 0
M  V30 17510 C 1692.71 1.09228 -1.62984 0
M  V30 17511 O 1691.83 1.84445 -1.13177 0
M  V30 17512 C 1692.43 -0.681628 -3.31872 0
M  V30 17513 C 1690.99 -0.359183 -3.74682 0
M  V30 17514 C 1690.13 -0.93409 -2.61094 0
M  V30 17515 H 1693.09 -0.951019 -1.27048 0
M  V30 17516 H 1693.11 0.0396803 -3.80479 0
M  V30 17517 H 1692.62 -1.75271 -3.46268 0
M  V30 17518 H 1690.72 0.705257 -3.65865 0
M  V30 17519 H 1690.83 -0.85571 -4.71396 0
M  V30 17520 H 1689.2 -0.359379 -2.52152 0
M  V30 17521 H 1689.98 -2.01023 -2.78289 0
M  V30 17522 N 1692.42 1.49318 -0.504168 0
M  V30 17523 C 1693.36 2.25955 0.319279 0
M  V30 17524 C 1694.34 1.30675 0.967609 0
M  V30 17525 O 1695.52 1.5997 0.997086 0
M  V30 17526 C 1692.65 3.06096 1.44992 0
M  V30 17527 C 1691.69 4.16555 0.915644 0
M  V30 17528 S 1692.53 5.35141 -0.196097 0
M  V30 17529 C 1693.68 6.18837 0.937637 0
M  V30 17530 H 1693.91 2.9545 -0.33118 0
M  V30 17531 H 1691.45 1.51661 -0.289517 0
M  V30 17532 H 1693.41 3.52853 2.09774 0
M  V30 17533 H 1692.07 2.36065 2.07201 0
M  V30 17534 H 1691.26 4.72157 1.76306 0
M  V30 17535 H 1690.86 3.72406 0.344981 0
M  V30 17536 H 1693.15 6.51975 1.84216 0
M  V30 17537 H 1694.1 7.06852 0.420168 0
M  V30 17538 H 1694.5 5.51458 1.2064 0
M  V30 17539 N 1693.9 0.238138 1.5579 0
M  V30 17540 C 1694.83 -0.659451 2.23994 0
M  V30 17541 C 1695.81 -1.18817 1.21723 0
M  V30 17542 O 1697 -1.22913 1.50353 0
M  V30 17543 C 1694.13 -1.86043 2.93267 0
M  V30 17544 C 1693.08 -1.46485 4.02152 0
M  V30 17545 C 1692.41 -2.74595 4.58805 0
M  V30 17546 C 1693.71 -0.642448 5.18334 0
M  V30 17547 H 1695.4 -0.0907522 2.99262 0
M  V30 17548 H 1692.95 -0.042209 1.43938 0
M  V30 17549 H 1694.9 -2.49393 3.39678 0
M  V30 17550 H 1693.63 -2.45436 2.15473 0
M  V30 17551 H 1692.28 -0.854729 3.56497 0
M  V30 17552 H 1691.93 -3.32168 3.77721 0
M  V30 17553 H 1691.63 -2.48854 5.32302 0
M  V30 17554 H 1693.16 -3.38859 5.07944 0
M  V30 17555 H 1694.57 -1.18005 5.61024 0
M  V30 17556 H 1692.97 -0.481458 5.98166 0
M  V30 17557 H 1694.04 0.347298 4.83655 0
M  V30 17558 N 1695.38 -1.57561 -0.0350783 0
M  V30 17559 C 1696.31 -2.02953 -1.06502 0
M  V30 17560 C 1697.33 -0.941331 -1.32826 0
M  V30 17561 O 1698.51 -1.21873 -1.30419 0
M  V30 17562 C 1695.61 -2.38471 -2.40801 0
M  V30 17563 C 1694.79 -3.69596 -2.33917 0
M  V30 17564 C 1693.85 -3.9237 -3.50616 0
M  V30 17565 O 1692.87 -4.63504 -3.30382 0
M  V30 17566 N 1694.07 -3.37544 -4.72275 0
M  V30 17567 H 1696.84 -2.91926 -0.678169 0
M  V30 17568 H 1694.4 -1.60355 -0.22313 0
M  V30 17569 H 1696.39 -2.50849 -3.1758 0
M  V30 17570 H 1694.96 -1.55199 -2.71352 0
M  V30 17571 H 1694.18 -3.67629 -1.42277 0
M  V30 17572 H 1695.47 -4.55627 -2.26455 0
M  V30 17573 H 1694.87 -2.79875 -4.91616 0
M  V30 17574 H 1693.43 -3.55312 -5.4644 0
M  V30 17575 N 1696.86 0.307236 -1.54576 0
M  V30 17576 C 1697.81 1.38019 -1.81479 0
M  V30 17577 C 1698.79 1.46213 -0.671612 0
M  V30 17578 O 1699.98 1.5047 -0.932077 0
M  V30 17579 C 1697.11 2.74621 -2.06005 0
M  V30 17580 C 1696.2 2.70675 -3.2649 0
M  V30 17581 N 1696.59 2.36346 -4.47185 0
M  V30 17582 C 1694.89 3.01786 -3.28392 0
M  V30 17583 C 1695.59 2.41543 -5.2918 0
M  V30 17584 N 1694.57 2.78646 -4.66752 0
M  V30 17585 H 1698.37 1.10432 -2.72364 0
M  V30 17586 H 1695.88 0.515792 -1.53991 0
M  V30 17587 H 1697.88 3.51977 -2.23424 0
M  V30 17588 H 1696.54 3.03125 -1.16384 0
M  V30 17589 H 1697.55 2.08908 -4.73896 0
M  V30 17590 H 1694.23 3.35225 -2.48858 0
M  V30 17591 H 1695.62 2.17854 -6.35602 0
M  V30 17592 N 1698.34 1.46926 0.570122 0
M  V30 17593 C 1699.75 1.469 1.15227 0
M  V30 17594 C 1700.1 0.216651 1.95 0
M  V30 17595 O 1699.22 -0.679388 2.05459 0
M  V30 17596 C 1699.82 2.66158 2.09632 0
M  V30 17597 C 1698.38 2.69133 2.63144 0
M  V30 17598 C 1697.52 2.39795 1.39262 0
M  V30 17599 H 1700.48 1.54623 0.35739 0
M  V30 17600 H 1700.5 2.42393 2.93302 0
M  V30 17601 H 1700.01 3.5729 1.51543 0
M  V30 17602 H 1698.11 1.82106 3.25066 0
M  V30 17603 H 1698.22 3.69459 3.05019 0
M  V30 17604 H 1696.59 1.9011 1.695 0
M  V30 17605 H 1697.37 3.33119 0.829855 0
M  V30 17606 N 1699.82 -0.815801 1.34842 0
M  V30 17607 C 1701.04 -1.60397 1.30693 0
M  V30 17608 C 1701.46 -1.88434 -0.117536 0
M  V30 17609 O 1700.82 -1.48076 -1.06676 0
M  V30 17610 C 1700.87 -2.94069 2.10252 0
M  V30 17611 O 1700.59 -2.67251 3.47143 0
M  V30 17612 C 1702.09 -3.88456 2.13581 0
M  V30 17613 H 1699.31 -0.49835 0.449319 0
M  V30 17614 H 1701.85 -1.01451 1.77561 0
M  V30 17615 H 1700.01 -3.49554 1.67006 0
M  V30 17616 H 1700.42 -3.52536 3.88354 0
M  V30 17617 H 1701.9 -4.79391 2.73658 0
M  V30 17618 H 1702.37 -4.24359 1.13209 0
M  V30 17619 H 1702.98 -3.38907 2.56947 0
M  V30 17620 N 1701.29 -1.18689 -1.03686 0
M  V30 17621 C 1702.52 -1.00814 -1.80333 0
M  V30 17622 C 1702.93 0.446495 -1.83856 0
M  V30 17623 O 1702.27 1.32192 -1.27558 0
M  V30 17624 C 1702.34 -1.49133 -3.27108 0
M  V30 17625 C 1702 -2.97112 -3.47237 0
M  V30 17626 C 1703 -3.94938 -3.38113 0
M  V30 17627 C 1700.68 -3.35628 -3.7371 0
M  V30 17628 C 1702.68 -5.29274 -3.55172 0
M  V30 17629 C 1700.36 -4.70126 -3.90416 0
M  V30 17630 C 1701.36 -5.66758 -3.81148 0
M  V30 17631 O 1701.05 -6.98821 -3.97371 0
M  V30 17632 H 1700.78 -0.356077 -0.574617 0
M  V30 17633 H 1703.34 -1.57754 -1.31541 0
M  V30 17634 H 1701.57 -0.865624 -3.76887 0
M  V30 17635 H 1703.25 -1.27591 -3.85325 0
M  V30 17636 H 1704.02 -3.66527 -3.17621 0
M  V30 17637 H 1699.9 -2.6097 -3.8002 0
M  V30 17638 H 1703.44 -6.04684 -3.47854 0
M  V30 17639 H 1699.34 -4.98236 -4.10404 0
M  V30 17640 H 1700.11 -7.05779 -4.14509 0
M  V30 17641 N 1702.77 1.22662 -0.989529 0
M  V30 17642 C 1703.72 2.26484 -0.529864 0
M  V30 17643 C 1704.71 1.64168 0.417759 0
M  V30 17644 O 1705.92 1.77638 0.290649 0
M  V30 17645 H 1702.29 0.736282 -0.152949 0
M  V30 17646 H 1704.27 2.62608 -1.41702 0
M  V30 17647 C 1703.01 3.47405 0.143148 0
M  V30 17648 H 1702.34 3.95615 -0.576962 0
M  V30 17649 H 1703.78 4.21831 0.428279 0
M  V30 17650 C 1702.24 3.07457 1.37738 0
M  V30 17651 O 1702.77 3.16555 2.47297 0
M  V30 17652 N 1700.97 2.62276 1.25139 0
M  V30 17653 H 1700.52 2.55073 0.359927 0
M  V30 17654 H 1700.48 2.35915 2.07826 0
M  V30 17655 N 1704.25 0.762308 1.37937 0
M  V30 17656 C 1705.5 0.319104 1.9916 0
M  V30 17657 C 1705.81 -1.10787 1.61201 0
M  V30 17658 O 1707.02 -1.65198 2.15457 0
M  V30 17659 C 1705.47 0.519582 3.5613 0
M  V30 17660 C 1705.08 1.9562 4.03034 0
M  V30 17661 C 1706.83 0.139528 4.24271 0
M  V30 17662 C 1704.73 2.10478 5.52678 0
M  V30 17663 H 1703.66 0.115564 0.745091 0
M  V30 17664 H 1706.31 0.940092 1.5759 0
M  V30 17665 H 1704.7 -0.170724 3.95632 0
M  V30 17666 H 1705.87 2.68069 3.74801 0
M  V30 17667 H 1704.18 2.29197 3.47646 0
M  V30 17668 H 1706.78 0.22918 5.34209 0
M  V30 17669 H 1707.12 -0.908999 4.06255 0
M  V30 17670 H 1707.66 0.782019 3.90038 0
M  V30 17671 H 1704.4 3.13616 5.75609 0
M  V30 17672 H 1703.92 1.42501 5.82626 0
M  V30 17673 H 1705.6 1.89887 6.18508 0
M  V30 17674 N 1705.73 -1.49049 0.51208 0
M  V30 17675 C 1706.95 -2.07382 -0.0271044 0
M  V30 17676 C 1707.38 -1.3685 -1.29049 0
M  V30 17677 O 1706.74 -0.428713 -1.76158 0
M  V30 17678 C 1706.78 -3.59715 -0.252462 0
M  V30 17679 O 1705.89 -3.90538 -1.32491 0
M  V30 17680 H 1705.23 -0.663269 0.0311507 0
M  V30 17681 H 1707.76 -1.91705 0.714873 0
M  V30 17682 H 1707.77 -4.05159 -0.480603 0
M  V30 17683 H 1706.44 -4.10459 0.670531 0
M  V30 17684 H 1705.02 -3.56892 -1.08085 0
M  V30 17685 N 1707.21 -0.246397 -1.55662 0
M  V30 17686 C 1708.16 0.667276 -2.18017 0
M  V30 17687 C 1709.14 1.13957 -1.1359 0
M  V30 17688 O 1710.33 1.08942 -1.39501 0
M  V30 17689 C 1707.46 1.86414 -2.88279 0
M  V30 17690 C 1706.55 1.41037 -3.99962 0
M  V30 17691 N 1706.94 0.670796 -5.01332 0
M  V30 17692 C 1705.24 1.69569 -4.12507 0
M  V30 17693 C 1705.94 0.43594 -5.80064 0
M  V30 17694 N 1704.91 1 -5.34323 0
M  V30 17695 H 1708.71 0.0940693 -2.93749 0
M  V30 17696 H 1706.23 -0.048692 -1.62327 0
M  V30 17697 H 1708.23 2.5297 -3.31379 0
M  V30 17698 H 1706.89 2.44158 -2.14049 0
M  V30 17699 H 1707.9 0.320958 -5.16905 0
M  V30 17700 H 1704.57 2.28455 -3.49449 0
M  V30 17701 H 1705.96 -0.154438 -6.71722 0
M  V30 17702 N 1708.68 1.57577 0.026722 0
M  V30 17703 C 1710.09 1.77689 0.573022 0
M  V30 17704 C 1710.45 0.877771 1.7547 0
M  V30 17705 O 1709.57 0.0732156 2.16276 0
M  V30 17706 C 1710.17 3.22239 1.0463 0
M  V30 17707 C 1708.72 3.4354 1.5381 0
M  V30 17708 C 1707.87 2.73163 0.47722 0
M  V30 17709 H 1710.82 1.57441 -0.199502 0
M  V30 17710 H 1710.84 3.28882 1.91355 0
M  V30 17711 H 1710.36 3.87654 0.186047 0
M  V30 17712 H 1708.46 2.83304 2.42012 0
M  V30 17713 H 1708.57 4.52158 1.58398 0
M  V30 17714 H 1706.93 2.37004 0.932793 0
M  V30 17715 H 1707.72 3.41261 -0.373605 0
M  V30 17716 N 1710.16 -0.299034 1.54737 0
M  V30 17717 C 1711.39 -1.05723 1.7843 0
M  V30 17718 C 1711.81 -1.80089 0.543094 0
M  V30 17719 O 1711.17 -1.74083 -0.506438 0
M  V30 17720 C 1711.22 -2.01193 2.99255 0
M  V30 17721 O 1710.32 -3.09528 2.72518 0
M  V30 17722 H 1709.66 -0.303614 0.590521 0
M  V30 17723 H 1712.19 -0.335859 2.01825 0
M  V30 17724 H 1712.2 -2.43623 3.27279 0
M  V30 17725 H 1710.88 -1.46472 3.89254 0
M  V30 17726 H 1709.45 -2.71599 2.55516 0
M  V30 17727 N 1711.64 -1.47227 -0.562322 0
M  V30 17728 C 1712.89 -1.53286 -1.31712 0
M  V30 17729 C 1713.21 -0.194583 -1.94027 0
M  V30 17730 O 1712.48 0.780961 -1.7966 0
M  V30 17731 H 1711.06 -0.564621 -0.489094 0
M  V30 17732 H 1713.72 -1.83492 -0.657024 0
M  V30 17733 H 1712.82 -2.29665 -2.1133 0
M  V30 17734 N 1713.12 0.808639 -1.35273 0
M  V30 17735 C 1714.37 1.56071 -1.27768 0
M  V30 17736 C 1714.68 1.9505 0.146545 0
M  V30 17737 O 1715.89 2.69314 0.343855 0
M  V30 17738 C 1714.34 2.81648 -2.24059 0
M  V30 17739 C 1713.95 2.49915 -3.71815 0
M  V30 17740 C 1715.69 3.59658 -2.25492 0
M  V30 17741 C 1713.6 3.7177 -4.59936 0
M  V30 17742 H 1712.53 0.585811 -0.474701 0
M  V30 17743 H 1715.18 0.889051 -1.60525 0
M  V30 17744 H 1713.56 3.50514 -1.84271 0
M  V30 17745 H 1714.74 1.89068 -4.20226 0
M  V30 17746 H 1713.05 1.85154 -3.72971 0
M  V30 17747 H 1715.65 4.50162 -2.88545 0
M  V30 17748 H 1715.99 3.96835 -1.2581 0
M  V30 17749 H 1716.53 2.97751 -2.63798 0
M  V30 17750 H 1713.26 3.39704 -5.60608 0
M  V30 17751 H 1712.78 4.3185 -4.16252 0
M  V30 17752 H 1714.46 4.39022 -4.75256 0
M  V30 17753 N 1714.6 1.19237 1.03055 0
M  V30 17754 C 1715.84 0.995444 1.76688 0
M  V30 17755 C 1716.18 -0.472805 1.88357 0
M  V30 17756 O 1715.45 -1.3511 1.39913 0
M  V30 17757 C 1715.73 1.66308 3.19396 0
M  V30 17758 C 1715.59 3.20486 3.15609 0
M  V30 17759 C 1716.91 1.38468 4.17749 0
M  V30 17760 H 1714.02 0.36304 0.641382 0
M  V30 17761 H 1716.67 1.47052 1.20315 0
M  V30 17762 H 1714.82 1.25915 3.67529 0
M  V30 17763 H 1716.49 3.70081 2.75387 0
M  V30 17764 H 1714.73 3.52118 2.53369 0
M  V30 17765 H 1715.4 3.62345 4.16426 0
M  V30 17766 H 1717.88 1.73485 3.78209 0
M  V30 17767 H 1716.75 1.87735 5.15797 0
M  V30 17768 H 1717.02 0.309505 4.41015 0
M  V30 17769 N 1716.07 -1.22136 0.99602 0
M  V30 17770 C 1717.02 -2.2199 0.520059 0
M  V30 17771 C 1718.01 -1.55497 -0.413454 0
M  V30 17772 O 1719.2 -1.75369 -0.239765 0
M  V30 17773 C 1716.33 -3.42923 -0.160875 0
M  V30 17774 C 1715.42 -4.16618 0.793126 0
M  V30 17775 N 1715.81 -4.67022 1.94226 0
M  V30 17776 C 1714.1 -4.41814 0.609648 0
M  V30 17777 C 1714.81 -5.23252 2.5413 0
M  V30 17778 N 1713.78 -5.12096 1.8237 0
M  V30 17779 H 1717.58 -2.58606 1.39643 0
M  V30 17780 H 1715.1 -1.37842 0.858682 0
M  V30 17781 H 1717.09 -4.13654 -0.519266 0
M  V30 17782 H 1715.75 -3.07818 -1.03334 0
M  V30 17783 H 1716.77 -4.62882 2.32294 0
M  V30 17784 H 1713.44 -4.16938 -0.216495 0
M  V30 17785 H 1714.83 -5.72769 3.51263 0
M  V30 17786 N 1717.55 -0.769612 -1.37531 0
M  V30 17787 C 1718.48 -0.11267 -2.28923 0
M  V30 17788 C 1719.5 0.666541 -1.4853 0
M  V30 17789 O 1720.69 0.504986 -1.71208 0
M  V30 17790 C 1717.79 0.864111 -3.27699 0
M  V30 17791 C 1716.96 0.139166 -4.37179 0
M  V30 17792 C 1716.02 1.029 -5.16041 0
M  V30 17793 O 1715.04 0.493571 -5.67056 0
M  V30 17794 N 1716.25 2.3555 -5.30562 0
M  V30 17795 H 1719.01 -0.897628 -2.85942 0
M  V30 17796 H 1716.57 -0.621776 -1.49484 0
M  V30 17797 H 1718.56 1.46279 -3.77339 0
M  V30 17798 H 1717.13 1.55005 -2.71463 0
M  V30 17799 H 1716.35 -0.640396 -3.88963 0
M  V30 17800 H 1717.64 -0.361847 -5.07512 0
M  V30 17801 H 1717.04 2.81489 -4.90694 0
M  V30 17802 H 1715.6 2.90429 -5.83519 0
M  V30 17803 N 1719.03 1.48775 -0.519977 0
M  V30 17804 C 1720.28 2.02792 0.0177768 0
M  V30 17805 C 1720.61 1.3972 1.34878 0
M  V30 17806 O 1719.88 0.539438 1.8687 0
M  V30 17807 C 1720.17 3.59786 0.150355 0
M  V30 17808 C 1720.02 4.33356 -1.20511 0
M  V30 17809 C 1721.34 4.31172 0.881959 0
M  V30 17810 H 1718.46 0.736983 0.00498634 0
M  V30 17811 H 1721.1 1.77603 -0.675069 0
M  V30 17812 H 1719.25 3.81378 0.740452 0
M  V30 17813 H 1720.92 4.23209 -1.83554 0
M  V30 17814 H 1719.17 3.95167 -1.78957 0
M  V30 17815 H 1719.84 5.4162 -1.06544 0
M  V30 17816 H 1722.31 4.14349 0.381302 0
M  V30 17817 H 1721.19 5.40729 0.943601 0
M  V30 17818 H 1721.45 3.97747 1.93001 0
M  V30 17819 N 1720.51 0.254649 1.55529 0
M  V30 17820 C 1721.92 -0.247042 1.85058 0
M  V30 17821 C 1722.27 -1.57009 1.17655 0
M  V30 17822 O 1721.4 -2.11506 0.457638 0
M  V30 17823 C 1721.99 -0.455017 3.35731 0
M  V30 17824 C 1720.55 -0.900961 3.65458 0
M  V30 17825 C 1719.7 0.0174436 2.77295 0
M  V30 17826 H 1722.65 0.477005 1.51362 0
M  V30 17827 H 1722.67 -1.29654 3.57729 0
M  V30 17828 H 1722.18 0.508076 3.8476 0
M  V30 17829 H 1720.28 -1.87625 3.21913 0
M  V30 17830 H 1720.39 -0.752458 4.73154 0
M  V30 17831 H 1718.76 -0.495296 2.49838 0
M  V30 17832 H 1719.54 0.976049 3.29132 0
M  V30 17833 N 1721.99 -1.57589 -0.0183649 0
M  V30 17834 C 1723.23 -1.90038 -0.708056 0
M  V30 17835 C 1723.57 -0.853686 -1.7443 0
M  V30 17836 O 1722.84 0.12994 -1.94065 0
M  V30 17837 C 1723.12 -3.33107 -1.3679 0
M  V30 17838 C 1722.98 -4.48479 -0.344448 0
M  V30 17839 C 1724.3 -3.75276 -2.29904 0
M  V30 17840 H 1721.41 -0.691134 -0.255934 0
M  V30 17841 H 1724.06 -1.89978 0.0291579 0
M  V30 17842 H 1722.21 -3.33289 -1.99626 0
M  V30 17843 H 1723.88 -4.60432 0.282816 0
M  V30 17844 H 1722.12 -4.32503 0.335196 0
M  V30 17845 H 1722.79 -5.45497 -0.844832 0
M  V30 17846 H 1725.27 -3.76529 -1.77103 0
M  V30 17847 H 1724.14 -4.76168 -2.73049 0
M  V30 17848 H 1724.41 -3.08124 -3.17036 0
M  V30 17849 N 1723.46 0.290824 -1.54893 0
M  V30 17850 C 1724.71 1.02272 -1.74312 0
M  V30 17851 C 1725.03 1.87449 -0.537393 0
M  V30 17852 O 1724.3 1.90705 0.448135 0
M  V30 17853 H 1722.88 0.380592 -0.642774 0
M  V30 17854 H 1725.55 0.319353 -1.92266 0
M  V30 17855 H 1724.64 1.66997 -2.63663 0
M  V30 17856 N 1724.94 1.47523 0.554506 0
M  V30 17857 C 1725.87 1.63093 1.67102 0
M  V30 17858 C 1726.85 0.480298 1.63178 0
M  V30 17859 O 1728.04 0.709956 1.80757 0
M  V30 17860 C 1725.17 1.64751 3.05736 0
M  V30 17861 C 1724.12 2.79068 3.24507 0
M  V30 17862 C 1723.45 2.65801 4.63955 0
M  V30 17863 C 1724.75 4.20631 3.09623 0
M  V30 17864 H 1726.44 2.56561 1.54328 0
M  V30 17865 H 1723.99 1.2347 0.741023 0
M  V30 17866 H 1725.94 1.74234 3.83693 0
M  V30 17867 H 1724.67 0.678453 3.19475 0
M  V30 17868 H 1723.32 2.691 2.48959 0
M  V30 17869 H 1722.97 1.66917 4.74497 0
M  V30 17870 H 1722.67 3.42494 4.77464 0
M  V30 17871 H 1724.2 2.77216 5.44044 0
M  V30 17872 H 1725.61 4.31562 3.77396 0
M  V30 17873 H 1724.01 4.98133 3.3464 0
M  V30 17874 H 1725.08 4.38809 2.06336 0
M  V30 17875 N 1726.42 -0.801453 1.357 0
M  V30 17876 C 1727.37 -1.93495 1.29083 0
M  V30 17877 C 1728.36 -1.68389 0.184806 0
M  V30 17878 O 1729.57 -1.76543 0.351097 0
M  V30 17879 H 1725.94 -0.635809 0.40156 0
M  V30 17880 H 1727.91 -1.96195 2.24833 0
M  V30 17881 C 1726.66 -3.30342 1.08487 0
M  V30 17882 H 1725.99 -3.50221 1.92835 0
M  V30 17883 H 1727.43 -4.10041 1.079 0
M  V30 17884 C 1725.89 -3.36238 -0.211057 0
M  V30 17885 O 1726.42 -3.83198 -1.20508 0
M  V30 17886 N 1724.62 -2.89509 -0.251599 0
M  V30 17887 H 1724.17 -2.51486 0.557916 0
M  V30 17888 H 1724.13 -2.93836 -1.11839 0
M  V30 17889 N 1727.9 -1.19782 -1.02421 0
M  V30 17890 C 1729.31 -1.00493 -1.57347 0
M  V30 17891 C 1729.66 0.440854 -1.91183 0
M  V30 17892 O 1728.79 1.32102 -1.714 0
M  V30 17893 C 1729.38 -1.8179 -2.85898 0
M  V30 17894 C 1727.94 -1.66889 -3.3738 0
M  V30 17895 C 1727.09 -1.80199 -2.10769 0
M  V30 17896 H 1730.04 -1.34085 -0.848938 0
M  V30 17897 H 1730.06 -1.31676 -3.5699 0
M  V30 17898 H 1729.57 -2.87011 -2.6124 0
M  V30 17899 H 1727.67 -0.64274 -3.67014 0
M  V30 17900 H 1727.78 -2.47705 -4.10096 0
M  V30 17901 H 1726.15 -1.23308 -2.22862 0
M  V30 17902 H 1726.93 -2.86889 -1.88546 0
M  V30 17903 N 1729.38 1.21606 -1.00248 0
M  V30 17904 C 1730.79 1.42695 -0.714862 0
M  V30 17905 C 1730.99 1.88542 0.710917 0
M  V30 17906 O 1730.05 2.04535 1.48059 0
M  V30 17907 C 1731.36 2.4605 -1.72858 0
M  V30 17908 C 1732.91 2.59836 -1.74511 0
M  V30 17909 C 1733.39 3.66421 -2.74772 0
M  V30 17910 N 1734.88 3.73889 -2.73425 0
M  V30 17911 C 1735.61 4.5598 -3.47664 0
M  V30 17912 N 1735.11 5.41987 -4.31535 0
M  V30 17913 N 1736.9 4.50379 -3.36326 0
M  V30 17914 H 1729.05 0.901565 -1.92316 0
M  V30 17915 H 1731.31 0.458128 -0.829954 0
M  V30 17916 H 1731.02 2.19329 -2.74932 0
M  V30 17917 H 1730.89 3.44812 -1.5292 0
M  V30 17918 H 1733.28 2.85895 -0.731304 0
M  V30 17919 H 1733.36 1.61317 -1.98521 0
M  V30 17920 H 1733.01 3.41108 -3.76308 0
M  V30 17921 H 1732.94 4.64531 -2.48029 0
M  V30 17922 H 1735.43 3.12443 -2.12575 0
M  V30 17923 H 1735.74 6.01673 -4.84984 0
M  V30 17924 H 1734.09 5.41537 -4.35618 0
M  V30 17925 H 1737.28 3.82217 -2.70237 0
M  V30 17926 H 1737.45 5.14122 -3.9444 0
M  V30 17927 N 1730.86 0.776895 1.37121 0
M  V30 17928 C 1731.79 0.180738 2.32799 0
M  V30 17929 C 1732.77 -0.677284 1.56035 0
M  V30 17930 O 1733.95 -0.613687 1.84249 0
M  V30 17931 C 1731.08 -0.695148 3.40272 0
M  V30 17932 C 1730.04 0.0619772 4.27955 0
M  V30 17933 C 1729.36 -0.933688 5.26485 0
M  V30 17934 C 1730.66 1.24396 5.0727 0
M  V30 17935 H 1732.36 0.980039 2.82906 0
M  V30 17936 H 1729.9 0.472722 1.3602 0
M  V30 17937 H 1731.85 -1.12205 4.06187 0
M  V30 17938 H 1730.58 -1.52702 2.88703 0
M  V30 17939 H 1729.24 0.469717 3.63578 0
M  V30 17940 H 1728.89 -1.76025 4.71194 0
M  V30 17941 H 1728.59 -0.431608 5.86013 0
M  V30 17942 H 1730.11 -1.35942 5.95275 0
M  V30 17943 H 1731.52 0.89345 5.66295 0
M  V30 17944 H 1729.92 1.67848 5.76149 0
M  V30 17945 H 1730.99 2.04553 4.39643 0
M  V30 17946 N 1732.33 -1.48497 0.527859 0
M  V30 17947 C 1733.26 -2.32414 -0.224891 0
M  V30 17948 C 1734.24 -1.41959 -0.93711 0
M  V30 17949 O 1735.43 -1.70847 -0.923302 0
M  V30 17950 C 1732.56 -3.23106 -1.27356 0
M  V30 17951 C 1731.51 -4.2257 -0.679611 0
M  V30 17952 C 1730.84 -5.02381 -1.83077 0
M  V30 17953 C 1732.14 -5.21144 0.347269 0
M  V30 17954 H 1733.83 -2.95598 0.475632 0
M  V30 17955 H 1731.38 -1.42148 0.230182 0
M  V30 17956 H 1733.33 -3.80639 -1.8081 0
M  V30 17957 H 1732.06 -2.57919 -2.00363 0
M  V30 17958 H 1730.72 -3.66221 -0.166608 0
M  V30 17959 H 1730.36 -4.3362 -2.54918 0
M  V30 17960 H 1730.06 -5.697 -1.43929 0
M  V30 17961 H 1731.59 -5.62765 -2.36914 0
M  V30 17962 H 1733 -5.73213 -0.100107 0
M  V30 17963 H 1731.4 -5.96503 0.656021 0
M  V30 17964 H 1732.47 -4.6841 1.25379 0
M  V30 17965 N 1733.81 -0.262893 -1.55392 0
M  V30 17966 C 1735.22 0.237224 -1.85187 0
M  V30 17967 C 1735.57 1.56383 -1.18486 0
M  V30 17968 O 1734.7 2.1126 -0.468849 0
M  V30 17969 C 1735.29 0.437206 -3.35967 0
M  V30 17970 C 1733.85 0.881568 -3.65931 0
M  V30 17971 C 1733 -0.0321489 -2.77281 0
M  V30 17972 H 1735.95 -0.485025 -1.51107 0
M  V30 17973 H 1735.97 1.27755 -3.58412 0
M  V30 17974 H 1735.48 -0.528474 -3.84485 0
M  V30 17975 H 1733.58 1.85915 -3.22903 0
M  V30 17976 H 1733.7 0.727355 -4.73547 0
M  V30 17977 H 1732.06 0.48204 -2.50097 0
M  V30 17978 H 1732.84 -0.99349 -3.2861 0
M  V30 17979 N 1735.29 1.57597 0.0100073 0
M  V30 17980 C 1736.51 1.94801 0.711852 0
M  V30 17981 C 1736.94 0.864343 1.67065 0
M  V30 17982 O 1736.3 -0.178388 1.8042 0
M  V30 17983 C 1736.35 3.31094 1.42862 0
M  V30 17984 O 1735.45 3.2469 2.54264 0
M  V30 17985 H 1734.79 0.636207 0.190095 0
M  V30 17986 H 1737.32 2.04561 -0.0402016 0
M  V30 17987 H 1737.33 3.66428 1.79429 0
M  V30 17988 H 1736.01 4.09522 0.725549 0
M  V30 17989 H 1734.58 3.01017 2.20099 0
M  V30 17990 N 1736.77 -0.282606 1.55045 0
M  V30 17991 C 1738.18 -0.854338 1.66006 0
M  V30 17992 C 1738.53 -1.87408 0.580753 0
M  V30 17993 O 1737.65 -2.14588 -0.279449 0
M  V30 17994 C 1738.25 -1.55637 3.00936 0
M  V30 17995 C 1736.81 -2.07626 3.13956 0
M  V30 17996 C 1735.96 -0.915064 2.61767 0
M  V30 17997 H 1738.91 -0.0591711 1.5859 0
M  V30 17998 H 1738.93 -2.42289 2.93388 0
M  V30 17999 H 1738.44 -0.813942 3.79469 0
M  V30 18000 H 1736.54 -2.84859 2.40179 0
M  V30 18001 H 1736.65 -2.29816 4.20382 0
M  V30 18002 H 1735.02 -1.30577 2.18682 0
M  V30 18003 H 1735.8 -0.186298 3.42794 0
M  V30 18004 N 1738.25 -1.47815 -0.546675 0
M  V30 18005 C 1739.47 -1.58613 -1.32851 0
M  V30 18006 C 1739.89 -0.240179 -1.87266 0
M  V30 18007 O 1739.25 0.768148 -1.65547 0
M  V30 18008 C 1739.3 -2.61969 -2.49107 0
M  V30 18009 O 1739.02 -3.9134 -1.96938 0
M  V30 18010 C 1740.52 -2.83051 -3.4117 0
M  V30 18011 H 1737.74 -0.535292 -0.404603 0
M  V30 18012 H 1740.28 -1.93516 -0.661192 0
M  V30 18013 H 1738.44 -2.29971 -3.11756 0
M  V30 18014 H 1738.85 -4.47905 -2.72913 0
M  V30 18015 H 1740.33 -3.59209 -4.19134 0
M  V30 18016 H 1740.8 -1.91258 -3.95369 0
M  V30 18017 H 1741.41 -3.16287 -2.84328 0
M  V30 18018 N 1739.72 0.794246 -1.36123 0
M  V30 18019 C 1740.97 1.54708 -1.29416 0
M  V30 18020 C 1741.29 1.95195 0.125849 0
M  V30 18021 O 1742.49 2.69663 0.315271 0
M  V30 18022 C 1740.95 2.79256 -2.27034 0
M  V30 18023 C 1740.56 2.45957 -3.74445 0
M  V30 18024 C 1742.3 3.57246 -2.29294 0
M  V30 18025 C 1740.21 3.66871 -4.63853 0
M  V30 18026 H 1739.14 0.580743 -0.480888 0
M  V30 18027 H 1741.79 0.871975 -1.61458 0
M  V30 18028 H 1740.17 3.4854 -1.87979 0
M  V30 18029 H 1741.34 1.846 -4.22208 0
M  V30 18030 H 1739.66 1.81187 -3.74913 0
M  V30 18031 H 1742.26 4.47076 -2.93304 0
M  V30 18032 H 1742.6 3.95478 -1.30011 0
M  V30 18033 H 1743.13 2.94936 -2.66941 0
M  V30 18034 H 1739.87 3.33739 -5.6418 0
M  V30 18035 H 1739.39 4.27411 -4.20809 0
M  V30 18036 H 1741.07 4.33957 -4.79886 0
M  V30 18037 N 1741.2 1.20323 1.01785 0
M  V30 18038 C 1742.15 0.918588 2.08677 0
M  V30 18039 C 1743.14 -0.121089 1.60444 0
M  V30 18040 O 1744.33 0.086115 1.7679 0
M  V30 18041 C 1741.46 0.471136 3.40052 0
M  V30 18042 C 1740.54 1.54417 3.94989 0
M  V30 18043 N 1740.93 2.76628 4.23451 0
M  V30 18044 C 1739.23 1.41004 4.23124 0
M  V30 18045 C 1739.93 3.45834 4.67733 0
M  V30 18046 N 1738.91 2.73245 4.69934 0
M  V30 18047 H 1742.71 1.84727 2.28589 0
M  V30 18048 H 1740.22 1.09705 1.19744 0
M  V30 18049 H 1742.22 0.248624 4.16158 0
M  V30 18050 H 1740.88 -0.450936 3.21553 0
M  V30 18051 H 1741.89 3.13291 4.12395 0
M  V30 18052 H 1738.57 0.552281 4.13831 0
M  V30 18053 H 1739.96 4.50404 4.98584 0
M  V30 18054 N 1742.68 -1.21073 1.00892 0
M  V30 18055 C 1743.61 -2.22968 0.530841 0
M  V30 18056 C 1744.62 -1.58239 -0.382664 0
M  V30 18057 O 1745.81 -1.77567 -0.182237 0
M  V30 18058 C 1742.91 -3.37991 -0.248096 0
M  V30 18059 C 1742.09 -4.32309 0.665439 0
M  V30 18060 C 1741.15 -5.2616 -0.0645731 0
M  V30 18061 O 1740.17 -5.66484 0.555383 0
M  V30 18062 N 1741.37 -5.64777 -1.3419 0
M  V30 18063 H 1744.14 -2.64614 1.4071 0
M  V30 18064 H 1741.7 -1.35536 0.885528 0
M  V30 18065 H 1743.69 -3.97774 -0.745513 0
M  V30 18066 H 1742.26 -2.95297 -1.02558 0
M  V30 18067 H 1741.48 -3.70607 1.34329 0
M  V30 18068 H 1742.77 -4.92254 1.28701 0
M  V30 18069 H 1742.17 -5.34016 -1.86664 0
M  V30 18070 H 1740.72 -6.26905 -1.78419 0
M  V30 18071 N 1744.16 -0.784156 -1.36707 0
M  V30 18072 C 1745.39 -0.365901 -2.03639 0
M  V30 18073 C 1745.8 1.01599 -1.59132 0
M  V30 18074 O 1745.16 1.65072 -0.778298 0
M  V30 18075 C 1745.21 -0.414035 -3.59121 0
M  V30 18076 O 1744.93 -1.74142 -4.02003 0
M  V30 18077 C 1746.43 0.0142546 -4.43298 0
M  V30 18078 H 1743.65 -0.151525 -0.653667 0
M  V30 18079 H 1746.2 -1.06154 -1.7479 0
M  V30 18080 H 1744.35 0.233134 -3.86698 0
M  V30 18081 H 1744.76 -1.68861 -4.96575 0
M  V30 18082 H 1746.24 -0.0705681 -5.51955 0
M  V30 18083 H 1746.72 1.06623 -4.26061 0
M  V30 18084 H 1747.32 -0.605201 -4.20972 0
M  V30 18085 N 1745.64 1.48215 -0.535727 0
M  V30 18086 C 1746.57 2.27708 0.261085 0
M  V30 18087 C 1747.58 1.35714 0.899197 0
M  V30 18088 O 1748.77 1.60717 0.776669 0
M  V30 18089 C 1745.87 3.09285 1.38549 0
M  V30 18090 C 1745.04 4.29097 0.848218 0
M  V30 18091 C 1744.1 4.92439 1.85445 0
M  V30 18092 O 1743.13 5.51483 1.4091 0
M  V30 18093 N 1744.33 4.85197 3.18691 0
M  V30 18094 H 1747.1 2.96732 -0.420706 0
M  V30 18095 H 1744.66 1.57606 -0.370421 0
M  V30 18096 H 1746.65 3.4853 2.05691 0
M  V30 18097 H 1745.22 2.42644 1.97085 0
M  V30 18098 H 1744.44 3.942 0.000627744 0
M  V30 18099 H 1745.73 5.06641 0.468243 0
M  V30 18100 H 1745.12 4.3839 3.57535 0
M  V30 18101 H 1743.68 5.28525 3.81451 0
M  V30 18102 N 1747.11 0.27113 1.5525 0
M  V30 18103 C 1748.34 -0.34974 2.03618 0
M  V30 18104 C 1748.75 -1.5031 1.14907 0
M  V30 18105 O 1748.1 -1.82994 0.160886 0
M  V30 18106 C 1748.16 -0.89674 3.48136 0
M  V30 18107 C 1747.82 0.127473 4.56822 0
M  V30 18108 C 1748.82 0.945589 5.11229 0
M  V30 18109 C 1746.5 0.260562 5.01624 0
M  V30 18110 C 1748.5 1.88302 6.08951 0
M  V30 18111 C 1746.18 1.20147 5.99173 0
M  V30 18112 C 1747.18 2.01121 6.52717 0
M  V30 18113 O 1746.87 2.93621 7.48359 0
M  V30 18114 H 1746.6 -0.0843491 0.670717 0
M  V30 18115 H 1749.16 0.399804 2.01471 0
M  V30 18116 H 1747.39 -1.69628 3.4751 0
M  V30 18117 H 1749.08 -1.43027 3.79866 0
M  V30 18118 H 1749.84 0.853483 4.77431 0
M  V30 18119 H 1745.72 -0.359689 4.59595 0
M  V30 18120 H 1749.26 2.51545 6.50669 0
M  V30 18121 H 1745.16 1.29441 6.32389 0
M  V30 18122 H 1745.93 2.88258 7.66061 0
M  V30 18123 N 1748.59 -1.576 -0.00164943 0
M  V30 18124 C 1749.54 -2.08318 -0.993594 0
M  V30 18125 C 1750.51 -0.978234 -1.34238 0
M  V30 18126 O 1751.69 -1.25056 -1.44103 0
M  V30 18127 C 1748.83 -2.58982 -2.28084 0
M  V30 18128 C 1747.95 -3.83372 -1.99123 0
M  V30 18129 C 1747.08 -4.22543 -3.21917 0
M  V30 18130 C 1746.12 -5.39774 -2.88635 0
M  V30 18131 N 1745.26 -5.74247 -4.03962 0
M  V30 18132 H 1750.1 -2.92802 -0.554154 0
M  V30 18133 H 1747.64 -1.44748 -0.261973 0
M  V30 18134 H 1749.59 -2.86434 -3.03334 0
M  V30 18135 H 1748.22 -1.77374 -2.697 0
M  V30 18136 H 1747.28 -3.62838 -1.14248 0
M  V30 18137 H 1748.59 -4.68722 -1.70591 0
M  V30 18138 H 1747.74 -4.51268 -4.05514 0
M  V30 18139 H 1746.48 -3.35899 -3.53587 0
M  V30 18140 H 1745.49 -5.10774 -2.03445 0
M  V30 18141 H 1746.71 -6.28094 -2.58215 0
M  V30 18142 H 1744.66 -4.9056 -4.35531 0
M  V30 18143 H 1744.57 -6.54167 -3.78948 0
M  V30 18144 H 1745.84 -6.07563 -4.88352 0
M  V30 18145 N 1750.07 0.274379 -1.55193 0
M  V30 18146 C 1751.48 0.845522 -1.66457 0
M  V30 18147 C 1751.83 1.87097 -0.590684 0
M  V30 18148 O 1750.96 2.14733 0.268065 0
M  V30 18149 C 1751.55 1.54039 -3.01757 0
M  V30 18150 C 1750.11 2.05958 -3.15053 0
M  V30 18151 C 1749.26 0.901169 -2.62248 0
M  V30 18152 H 1752.21 0.0507599 -1.58619 0
M  V30 18153 H 1752.23 2.40729 -2.94669 0
M  V30 18154 H 1751.74 0.793807 -3.79895 0
M  V30 18155 H 1749.84 2.83582 -2.41686 0
M  V30 18156 H 1749.96 2.27584 -4.21595 0
M  V30 18157 H 1748.32 1.29416 -2.19371 0
M  V30 18158 H 1749.1 0.168116 -3.42888 0
M  V30 18159 N 1751.55 1.48103 0.538828 0
M  V30 18160 C 1752.8 1.54925 1.29156 0
M  V30 18161 C 1753.11 0.224177 1.94311 0
M  V30 18162 O 1754.32 0.170559 2.70964 0
M  V30 18163 C 1752.77 2.73184 2.34304 0
M  V30 18164 C 1752.38 4.12297 1.75257 0
M  V30 18165 C 1754.12 2.89313 3.10642 0
M  V30 18166 C 1752.03 5.2183 2.78294 0
M  V30 18167 H 1750.96 0.576723 0.485702 0
M  V30 18168 H 1753.61 1.74418 0.570142 0
M  V30 18169 H 1751.99 2.47107 3.09441 0
M  V30 18170 H 1753.17 4.48355 1.06368 0
M  V30 18171 H 1751.48 4.0121 1.11442 0
M  V30 18172 H 1754.08 3.68313 3.87621 0
M  V30 18173 H 1754.42 1.98438 3.65962 0
M  V30 18174 H 1754.96 3.15248 2.42618 0
M  V30 18175 H 1751.7 6.14642 2.27805 0
M  V30 18176 H 1751.22 4.90269 3.45537 0
M  V30 18177 H 1752.89 5.49567 3.41446 0
M  V30 18178 N 1753.03 -0.787016 1.36542 0
M  V30 18179 C 1754.27 -1.54499 1.30906 0
M  V30 18180 C 1754.6 -1.94183 -0.110963 0
M  V30 18181 O 1753.86 -1.63149 -1.08079 0
M  V30 18182 C 1754.16 -2.83235 2.17974 0
M  V30 18183 C 1753.82 -2.62677 3.66485 0
M  V30 18184 C 1752.48 -2.56779 4.06962 0
M  V30 18185 C 1754.84 -2.43853 4.60636 0
M  V30 18186 C 1752.16 -2.30026 5.39727 0
M  V30 18187 C 1754.52 -2.18626 5.93621 0
M  V30 18188 C 1753.18 -2.11162 6.33219 0
M  V30 18189 H 1752.45 -0.565352 0.479017 0
M  V30 18190 H 1755.1 -0.907794 1.68616 0
M  V30 18191 H 1753.4 -3.51435 1.73208 0
M  V30 18192 H 1755.1 -3.41038 2.10936 0
M  V30 18193 H 1751.69 -2.68125 3.34376 0
M  V30 18194 H 1755.87 -2.4741 4.30235 0
M  V30 18195 H 1751.13 -2.22731 5.69386 0
M  V30 18196 H 1755.3 -2.03056 6.66139 0
M  V30 18197 H 1752.93 -1.90195 7.36023 0
M  V30 18198 N 1754.5 -1.20861 -1.01145 0
M  V30 18199 C 1755.92 -1.02156 -1.56272 0
M  V30 18200 C 1756.27 0.420552 -1.9164 0
M  V30 18201 O 1755.39 1.30277 -1.72792 0
M  V30 18202 C 1755.99 -1.84812 -2.83954 0
M  V30 18203 C 1754.55 -1.70458 -3.35591 0
M  V30 18204 C 1753.69 -1.82425 -2.08846 0
M  V30 18205 H 1756.64 -1.34978 -0.834669 0
M  V30 18206 H 1756.66 -1.35455 -3.55573 0
M  V30 18207 H 1756.18 -2.89765 -2.58181 0
M  V30 18208 H 1754.28 -0.681631 -3.66312 0
M  V30 18209 H 1754.39 -2.52041 -4.07446 0
M  V30 18210 H 1752.75 -1.25665 -2.21541 0
M  V30 18211 H 1753.54 -2.88872 -1.85493 0
M  V30 18212 N 1755.98 1.20536 -1.01532 0
M  V30 18213 C 1757.39 1.71594 -0.735687 0
M  V30 18214 C 1757.74 1.81469 0.745873 0
M  V30 18215 O 1756.87 1.47638 1.58215 0
M  V30 18216 C 1757.46 3.11654 -1.3288 0
M  V30 18217 C 1756.02 3.60027 -1.09806 0
M  V30 18218 C 1755.17 2.37266 -1.43528 0
M  V30 18219 H 1758.12 1.05568 -1.18495 0
M  V30 18220 H 1758.14 3.7365 -0.718725 0
M  V30 18221 H 1757.65 3.04434 -2.4071 0
M  V30 18222 H 1755.76 3.72581 -0.0373763 0
M  V30 18223 H 1755.87 4.44918 -1.77722 0
M  V30 18224 H 1754.23 2.39947 -0.854268 0
M  V30 18225 H 1755.02 2.32688 -2.5241 0
M  V30 18226 N 1757.46 0.791395 1.36289 0
M  V30 18227 C 1758.41 0.164218 2.27408 0
M  V30 18228 C 1759.39 -0.653018 1.47053 0
M  V30 18229 O 1760.59 -0.512767 1.6941 0
M  V30 18230 C 1757.72 -0.698551 3.36118 0
M  V30 18231 C 1756.8 0.127583 4.23908 0
M  V30 18232 N 1757.19 1.18307 4.91769 0
M  V30 18233 C 1755.49 -0.0932621 4.45902 0
M  V30 18234 C 1756.19 1.68616 5.56726 0
M  V30 18235 N 1755.17 0.995058 5.34415 0
M  V30 18236 H 1758.97 0.972045 2.7736 0
M  V30 18237 H 1756.48 0.63105 1.49638 0
M  V30 18238 H 1758.48 -1.16379 4.00327 0
M  V30 18239 H 1757.14 -1.5049 2.8772 0
M  V30 18240 H 1758.15 1.56553 4.93672 0
M  V30 18241 H 1754.83 -0.869962 4.08336 0
M  V30 18242 H 1756.22 2.56745 6.20912 0
M  V30 18243 N 1758.94 -1.47929 0.54358 0
M  V30 18244 C 1760.16 -2.07393 0.0168905 0
M  V30 18245 C 1760.59 -1.39557 -1.26117 0
M  V30 18246 O 1759.95 -0.465983 -1.75209 0
M  V30 18247 C 1760 -3.6017 -0.176105 0
M  V30 18248 O 1759.1 -3.9326 -1.24178 0
M  V30 18249 H 1758.44 -0.662459 0.0452126 0
M  V30 18250 H 1760.97 -1.90145 0.755376 0
M  V30 18251 H 1760.98 -4.06088 -0.394555 0
M  V30 18252 H 1759.66 -4.08944 0.757445 0
M  V30 18253 H 1758.23 -3.59105 -1.0049 0
M  V30 18254 N 1760.42 -0.27936 -1.55104 0
M  V30 18255 C 1761.65 0.338937 -2.03801 0
M  V30 18256 C 1762.06 1.49699 -1.15702 0
M  V30 18257 O 1761.4 1.82906 -0.170589 0
M  V30 18258 C 1761.46 0.878265 -3.48607 0
M  V30 18259 C 1761.12 -0.151698 -4.56748 0
M  V30 18260 C 1762.12 -0.972688 -5.1072 0
M  V30 18261 C 1759.81 -0.287161 -5.01478 0
M  V30 18262 C 1761.8 -1.91529 -6.07944 0
M  V30 18263 C 1759.49 -1.23323 -5.98527 0
M  V30 18264 C 1760.49 -2.04579 -6.51641 0
M  V30 18265 O 1760.17 -2.97586 -7.46792 0
M  V30 18266 H 1759.91 0.080791 -0.671155 0
M  V30 18267 H 1762.46 -0.410483 -2.01257 0
M  V30 18268 H 1760.69 1.67783 -3.48405 0
M  V30 18269 H 1762.38 1.41011 -3.80619 0
M  V30 18270 H 1763.14 -0.878791 -4.76972 0
M  V30 18271 H 1759.02 0.33531 -4.59779 0
M  V30 18272 H 1762.57 -2.54993 -6.49326 0
M  V30 18273 H 1758.46 -1.32793 -6.31693 0
M  V30 18274 H 1759.23 -2.92316 -7.64522 0
M  V30 18275 N 1761.9 1.57599 -0.0067085 0
M  V30 18276 C 1763.14 1.90036 0.675957 0
M  V30 18277 C 1763.46 0.882449 1.74563 0
M  V30 18278 O 1764.66 1.09728 2.48339 0
M  V30 18279 C 1763.12 3.37366 1.25349 0
M  V30 18280 C 1762.73 4.47468 0.218284 0
M  V30 18281 C 1764.47 3.78904 1.91396 0
M  V30 18282 C 1762.38 5.85879 0.806182 0
M  V30 18283 H 1761.31 0.709125 0.256237 0
M  V30 18284 H 1763.96 1.83373 -0.0683502 0
M  V30 18285 H 1762.34 3.38888 2.04868 0
M  V30 18286 H 1763.52 4.57472 -0.552808 0
M  V30 18287 H 1761.83 4.14992 -0.342131 0
M  V30 18288 H 1764.43 4.79654 2.36297 0
M  V30 18289 H 1764.77 3.12773 2.74734 0
M  V30 18290 H 1765.3 3.79709 1.186 0
M  V30 18291 H 1762.04 6.55499 0.0114275 0
M  V30 18292 H 1761.56 5.79526 1.54628 0
M  V30 18293 H 1763.24 6.33748 1.30278 0
M  V30 18294 N 1763.37 -0.266145 1.55336 0
M  V30 18295 C 1764.34 -1.31242 1.87904 0
M  V30 18296 C 1765.34 -1.42022 0.754083 0
M  V30 18297 O 1766.53 -1.41054 1.02222 0
M  V30 18298 C 1763.66 -2.69285 2.09041 0
M  V30 18299 H 1764.85 -1.03592 2.81441 0
M  V30 18300 H 1762.4 -0.504537 1.47933 0
M  V30 18301 H 1763.14 -3.02106 1.17909 0
M  V30 18302 H 1762.92 -2.62846 2.90954 0
M  V30 18303 H 1764.41 -3.4487 2.35488 0
M  V30 18304 N 1764.85 -1.48386 -0.530967 0
M  V30 18305 C 1765.81 -1.62355 -1.61782 0
M  V30 18306 C 1766.81 -0.496909 -1.5293 0
M  V30 18307 O 1768 -0.762672 -1.56617 0
M  V30 18308 C 1765.14 -1.59282 -3.014 0
M  V30 18309 H 1766.33 -2.59265 -1.50737 0
M  V30 18310 H 1763.88 -1.36969 -0.752948 0
M  V30 18311 H 1764.62 -0.638453 -3.17953 0
M  V30 18312 H 1764.4 -2.41073 -3.09235 0
M  V30 18313 H 1765.89 -1.72248 -3.80421 0
M  V30 18314 N 1766.33 0.779763 -1.36958 0
M  V30 18315 C 1767.55 1.57389 -1.35068 0
M  V30 18316 C 1767.98 1.87993 0.0635244 0
M  V30 18317 O 1767.34 1.48625 1.03828 0
M  V30 18318 C 1767.39 2.86582 -2.18868 0
M  V30 18319 O 1766.49 3.80609 -1.58779 0
M  V30 18320 H 1765.83 0.477052 -0.461863 0
M  V30 18321 H 1768.36 0.965741 -1.80373 0
M  V30 18322 H 1768.37 3.35761 -2.31794 0
M  V30 18323 H 1767.05 2.63635 -3.21666 0
M  V30 18324 H 1765.62 3.39229 -1.54848 0
M  V30 18325 N 1767.81 1.21396 1.00503 0
M  V30 18326 C 1769.22 1.02983 1.55728 0
M  V30 18327 C 1769.57 -0.410383 1.9186 0
M  V30 18328 O 1768.69 -1.29358 1.7348 0
M  V30 18329 C 1769.29 1.86316 2.8297 0
M  V30 18330 C 1767.85 1.72235 3.34682 0
M  V30 18331 C 1767 1.8353 2.07875 0
M  V30 18332 H 1769.95 1.35418 0.827499 0
M  V30 18333 H 1769.97 1.37339 3.5485 0
M  V30 18334 H 1769.48 2.91131 2.56641 0
M  V30 18335 H 1767.58 0.701047 3.65945 0
M  V30 18336 H 1767.69 2.54198 4.06103 0
M  V30 18337 H 1766.06 1.26838 2.20872 0
M  V30 18338 H 1766.84 2.89852 1.83958 0
M  V30 18339 N 1769.29 -1.19996 1.0217 0
M  V30 18340 C 1770.25 -2.21179 0.601036 0
M  V30 18341 C 1771.25 -1.57345 -0.331531 0
M  V30 18342 O 1772.44 -1.73789 -0.119521 0
M  V30 18343 C 1769.57 -3.40683 -0.121557 0
M  V30 18344 H 1770.76 -2.5991 1.49622 0
M  V30 18345 H 1768.32 -1.33548 0.812071 0
M  V30 18346 H 1769.05 -3.07461 -1.03142 0
M  V30 18347 H 1768.84 -3.88245 0.548448 0
M  V30 18348 H 1770.33 -4.1565 -0.403046 0
M  V30 18349 N 1770.76 -0.798611 -1.35867 0
M  V30 18350 C 1771.99 -0.386918 -2.02945 0
M  V30 18351 C 1772.4 1.00438 -1.6034 0
M  V30 18352 O 1771.74 1.65716 -0.792719 0
M  V30 18353 C 1771.81 -0.381754 -3.57467 0
M  V30 18354 C 1771.47 -1.72219 -4.23308 0
M  V30 18355 C 1772.47 -2.67919 -4.45551 0
M  V30 18356 C 1770.15 -2.00402 -4.60591 0
M  V30 18357 C 1772.15 -3.8999 -5.04169 0
M  V30 18358 C 1769.83 -3.22737 -5.18926 0
M  V30 18359 C 1770.83 -4.1735 -5.40655 0
M  V30 18360 O 1770.52 -5.37527 -5.97762 0
M  V30 18361 H 1770.25 -0.156344 -0.657672 0
M  V30 18362 H 1772.81 -1.08128 -1.74635 0
M  V30 18363 H 1771.04 0.369157 -3.84934 0
M  V30 18364 H 1772.72 0.00653107 -4.05899 0
M  V30 18365 H 1773.49 -2.47436 -4.17134 0
M  V30 18366 H 1769.37 -1.27573 -4.42997 0
M  V30 18367 H 1772.91 -4.6385 -5.21046 0
M  V30 18368 H 1768.81 -3.43094 -5.46769 0
M  V30 18369 H 1769.58 -5.38716 -6.16221 0
M  V30 18370 N 1772.24 1.47639 -0.551417 0
M  V30 18371 C 1773.47 2.06878 -0.0298904 0
M  V30 18372 C 1773.88 1.40493 1.26123 0
M  V30 18373 O 1773.24 0.499513 1.75531 0
M  V30 18374 C 1773.29 3.61074 0.175449 0
M  V30 18375 O 1773.01 4.2497 -1.06454 0
M  V30 18376 C 1774.51 4.37166 0.734919 0
M  V30 18377 H 1771.73 0.669607 -0.0432142 0
M  V30 18378 H 1774.28 1.89726 -0.763178 0
M  V30 18379 H 1772.43 3.7776 0.858848 0
M  V30 18380 H 1772.85 5.17424 -0.858644 0
M  V30 18381 H 1774.32 5.45756 0.827915 0
M  V30 18382 H 1774.8 4.03052 1.74486 0
M  V30 18383 H 1775.4 4.2521 0.0874045 0
M  V30 18384 N 1773.72 0.287581 1.54954 0
M  V30 18385 C 1774.97 -0.324967 1.9947 0
M  V30 18386 C 1775.29 -1.55437 1.17747 0
M  V30 18387 O 1774.56 -1.9403 0.270067 0
M  V30 18388 H 1773.14 -0.123062 0.736794 0
M  V30 18389 H 1775.8 0.395805 1.90839 0
M  V30 18390 H 1774.9 -0.606265 3.06155 0
M  V30 18391 N 1775.2 -1.57593 0.0150662 0
M  V30 18392 C 1776.45 -1.91214 -0.666599 0
M  V30 18393 C 1776.77 -0.890139 -1.72936 0
M  V30 18394 O 1776.03 0.102976 -1.95429 0
M  V30 18395 C 1776.33 -3.3158 -1.33376 0
M  V30 18396 C 1775.99 -4.49098 -0.402748 0
M  V30 18397 C 1774.66 -4.80977 -0.146455 0
M  V30 18398 C 1777.01 -5.20659 0.237376 0
M  V30 18399 C 1774.34 -5.81783 0.758003 0
M  V30 18400 C 1776.69 -6.22429 1.1298 0
M  V30 18401 C 1775.35 -6.52758 1.39513 0
M  V30 18402 H 1774.62 -0.699701 -0.243926 0
M  V30 18403 H 1777.27 -1.91358 0.073824 0
M  V30 18404 H 1775.57 -3.27632 -2.1486 0
M  V30 18405 H 1777.27 -3.54859 -1.86751 0
M  V30 18406 H 1773.86 -4.24198 -0.612678 0
M  V30 18407 H 1778.04 -4.96272 0.052408 0
M  V30 18408 H 1773.3 -6.03634 0.971415 0
M  V30 18409 H 1777.47 -6.77005 1.63208 0
M  V30 18410 H 1775.1 -7.30687 2.09764 0
M  V30 18411 N 1776.68 0.257904 -1.55475 0
M  V30 18412 C 1778.09 0.82782 -1.67344 0
M  V30 18413 C 1778.44 1.8646 -0.610494 0
M  V30 18414 O 1777.56 2.15005 0.245275 0
M  V30 18415 C 1778.16 1.5083 -3.03374 0
M  V30 18416 C 1776.72 2.02605 -3.17219 0
M  V30 18417 C 1775.86 0.873303 -2.63189 0
M  V30 18418 H 1778.82 0.0339334 -1.58664 0
M  V30 18419 H 1778.84 2.3759 -2.97205 0
M  V30 18420 H 1778.35 0.753469 -3.80716 0
M  V30 18421 H 1776.45 2.81002 -2.4468 0
M  V30 18422 H 1776.56 2.23099 -4.23985 0
M  V30 18423 H 1774.93 1.27082 -2.20731 0
M  V30 18424 H 1775.71 0.131739 -3.43047 0
M  V30 18425 N 1778.15 1.48666 0.52309 0
M  V30 18426 C 1779.08 1.666 1.63605 0
M  V30 18427 C 1780.07 0.514803 1.62123 0
M  V30 18428 O 1781.25 0.748138 1.79211 0
M  V30 18429 C 1778.38 1.71199 3.02172 0
M  V30 18430 C 1777.33 2.85888 3.18515 0
M  V30 18431 C 1776.66 2.75582 4.58213 0
M  V30 18432 C 1777.96 4.27104 3.00631 0
M  V30 18433 H 1779.65 2.59776 1.48851 0
M  V30 18434 H 1777.2 1.25014 0.714667 0
M  V30 18435 H 1779.15 1.82333 3.79911 0
M  V30 18436 H 1777.88 0.746066 3.17964 0
M  V30 18437 H 1776.54 2.7432 2.43195 0
M  V30 18438 H 1776.18 1.76944 4.7085 0
M  V30 18439 H 1775.88 3.52545 4.70091 0
M  V30 18440 H 1777.41 2.88693 5.38041 0
M  V30 18441 H 1778.82 4.3947 3.68157 0
M  V30 18442 H 1777.22 5.05119 3.23999 0
M  V30 18443 H 1778.29 4.43087 1.96982 0
M  V30 18444 N 1779.63 -0.772489 1.37369 0
M  V30 18445 C 1780.86 -1.56671 1.35901 0
M  V30 18446 C 1781.28 -1.88024 -0.0535538 0
M  V30 18447 O 1780.64 -1.49174 -1.03038 0
M  V30 18448 C 1780.69 -2.85417 2.20384 0
M  V30 18449 O 1779.79 -3.79761 1.60796 0
M  V30 18450 H 1779.13 -0.474596 0.464386 0
M  V30 18451 H 1781.66 -0.956162 1.80883 0
M  V30 18452 H 1781.67 -3.34527 2.33571 0
M  V30 18453 H 1780.35 -2.61926 3.2306 0
M  V30 18454 H 1778.93 -3.38403 1.56645 0
M  V30 18455 N 1781.11 -1.21927 -0.998575 0
M  V30 18456 C 1782.52 -1.03808 -1.5518 0
M  V30 18457 C 1782.87 0.400202 -1.92075 0
M  V30 18458 O 1782 1.28436 -1.74164 0
M  V30 18459 C 1782.59 -1.87814 -2.81978 0
M  V30 18460 C 1781.15 -1.74008 -3.33764 0
M  V30 18461 C 1780.3 -1.8463 -2.06899 0
M  V30 18462 H 1783.25 -1.35855 -0.820305 0
M  V30 18463 H 1783.27 -1.39219 -3.54116 0
M  V30 18464 H 1782.78 -2.92487 -2.55094 0
M  V30 18465 H 1780.88 -0.720445 -3.65569 0
M  V30 18466 H 1781 -2.56348 -4.0475 0
M  V30 18467 H 1779.36 -1.28007 -2.20196 0
M  V30 18468 H 1780.14 -2.90824 -1.82419 0
M  V30 18469 N 1782.59 1.19452 -1.02805 0
M  V30 18470 C 1783.82 1.93075 -0.743624 0
M  V30 18471 C 1784.23 1.75446 0.697425 0
M  V30 18472 O 1783.59 1.07583 1.47418 0
M  V30 18473 C 1783.64 3.44855 -1.08431 0
M  V30 18474 O 1783.36 3.61916 -2.46877 0
M  V30 18475 C 1784.86 4.35601 -0.822571 0
M  V30 18476 H 1782.08 0.613327 -0.272159 0
M  V30 18477 H 1784.63 1.51617 -1.37232 0
M  V30 18478 H 1782.78 3.84149 -0.500812 0
M  V30 18479 H 1783.19 4.55785 -2.59538 0
M  V30 18480 H 1784.67 5.40706 -1.11092 0
M  V30 18481 H 1785.15 4.38527 0.243026 0
M  V30 18482 H 1785.75 4.01987 -1.38876 0
M  V30 18483 N 1784.07 0.805805 1.35442 0
M  V30 18484 C 1785.01 0.213632 2.29809 0
M  V30 18485 C 1785.98 -0.651878 1.52774 0
M  V30 18486 O 1787.17 -0.597124 1.81216 0
M  V30 18487 C 1784.31 -0.632444 3.39255 0
M  V30 18488 C 1783.42 0.253414 4.31256 0
M  V30 18489 C 1782.56 -0.600593 5.27794 0
M  V30 18490 C 1781.6 0.285712 6.11433 0
M  V30 18491 N 1780.73 -0.528222 7.0011 0
M  V30 18492 H 1785.57 1.02378 2.79862 0
M  V30 18493 H 1783.11 0.516397 1.37738 0
M  V30 18494 H 1785.07 -1.13814 4.01376 0
M  V30 18495 H 1783.7 -1.40786 2.90481 0
M  V30 18496 H 1782.75 0.877202 3.70148 0
M  V30 18497 H 1784.06 0.935631 4.89946 0
M  V30 18498 H 1783.22 -1.17145 5.95283 0
M  V30 18499 H 1781.95 -1.31638 4.69598 0
M  V30 18500 H 1780.96 0.868843 5.42891 0
M  V30 18501 H 1782.18 0.999349 6.71707 0
M  V30 18502 H 1780.13 -1.228 6.44404 0
M  V30 18503 H 1780.05 0.0959658 7.55939 0
M  V30 18504 H 1781.32 -1.08238 7.71949 0
M  V30 18505 N 1785.54 -1.47344 0.559239 0
M  V30 18506 C 1786.47 -2.32839 -0.175542 0
M  V30 18507 C 1787.46 -1.43914 -0.906787 0
M  V30 18508 O 1788.64 -1.72767 -0.886855 0
M  V30 18509 C 1785.77 -3.25735 -1.20474 0
M  V30 18510 C 1784.72 -4.23916 -0.589825 0
M  V30 18511 C 1784.05 -5.06151 -1.7238 0
M  V30 18512 C 1785.35 -5.2029 0.457733 0
M  V30 18513 H 1787.04 -2.94522 0.538225 0
M  V30 18514 H 1784.59 -1.41628 0.260282 0
M  V30 18515 H 1786.54 -3.84388 -1.72695 0
M  V30 18516 H 1785.27 -2.62111 -1.94847 0
M  V30 18517 H 1783.93 -3.66492 -0.0888897 0
M  V30 18518 H 1783.57 -4.38929 -2.45663 0
M  V30 18519 H 1783.27 -5.72625 -1.31813 0
M  V30 18520 H 1784.8 -5.67663 -2.24923 0
M  V30 18521 H 1786.21 -5.73296 0.0215019 0
M  V30 18522 H 1784.61 -5.94978 0.7824 0
M  V30 18523 H 1785.68 -4.65645 1.35286 0
M  V30 18524 N 1787.02 -0.295795 -1.54799 0
M  V30 18525 C 1788.25 0.32058 -2.04907 0
M  V30 18526 C 1788.67 1.47132 -1.17191 0
M  V30 18527 O 1788.03 1.80455 -0.174869 0
M  V30 18528 C 1788.08 0.759439 -3.52512 0
M  V30 18529 O 1787.18 1.86474 -3.67833 0
M  V30 18530 H 1786.52 0.0631128 -0.660994 0
M  V30 18531 H 1789.05 -0.436123 -1.99898 0
M  V30 18532 H 1789.06 1.04965 -3.94267 0
M  V30 18533 H 1787.74 -0.0823715 -4.15818 0
M  V30 18534 H 1786.32 1.57547 -3.37984 0
M  V30 18535 N 1788.5 1.57583 -0.0234236 0
M  V30 18536 C 1789.43 2.06766 0.988961 0
M  V30 18537 C 1790.45 0.98998 1.29241 0
M  V30 18538 O 1791.64 1.2663 1.25806 0
M  V30 18539 C 1788.74 2.47244 2.31784 0
M  V30 18540 C 1787.91 3.78023 2.20039 0
M  V30 18541 C 1786.97 4.05113 3.35812 0
M  V30 18542 O 1785.99 4.75447 3.12952 0
M  V30 18543 N 1787.2 3.5484 4.59422 0
M  V30 18544 H 1789.96 2.94242 0.569355 0
M  V30 18545 H 1787.52 1.61073 0.163461 0
M  V30 18546 H 1789.51 2.62463 3.08051 0
M  V30 18547 H 1788.08 1.65163 2.65405 0
M  V30 18548 H 1787.3 3.72656 1.28534 0
M  V30 18549 H 1788.59 4.63717 2.09389 0
M  V30 18550 H 1787.99 2.97928 4.8089 0
M  V30 18551 H 1786.55 3.75348 5.32877 0
M  V30 18552 N 1789.98 -0.249655 1.5561 0
M  V30 18553 C 1791.21 -0.994263 1.81102 0
M  V30 18554 C 1791.62 -1.79553 0.596445 0
M  V30 18555 O 1790.96 -1.78246 -0.4443 0
M  V30 18556 C 1791.02 -1.9824 2.99902 0
M  V30 18557 C 1790.69 -1.36833 4.36034 0
M  V30 18558 C 1791.68 -0.772202 5.14133 0
M  V30 18559 C 1789.37 -1.38852 4.82727 0
M  V30 18560 C 1791.36 -0.204446 6.37072 0
M  V30 18561 C 1789.05 -0.816913 6.05615 0
M  V30 18562 C 1790.05 -0.225898 6.82626 0
M  V30 18563 O 1789.74 0.336892 8.03194 0
M  V30 18564 H 1789.47 -0.298339 0.606605 0
M  V30 18565 H 1792.02 -0.278647 2.03501 0
M  V30 18566 H 1790.25 -2.73625 2.73252 0
M  V30 18567 H 1791.94 -2.59021 3.12511 0
M  V30 18568 H 1792.71 -0.749129 4.7918 0
M  V30 18569 H 1788.59 -1.83793 4.22778 0
M  V30 18570 H 1792.13 0.257492 6.97125 0
M  V30 18571 H 1788.03 -0.837303 6.40046 0
M  V30 18572 H 1788.79 0.228492 8.18181 0
M  V30 18573 N 1791.46 -1.48941 -0.515198 0
M  V30 18574 C 1792.87 -1.51076 -1.09695 0
M  V30 18575 C 1793.22 -0.288875 -1.94062 0
M  V30 18576 O 1792.34 0.602665 -2.07839 0
M  V30 18577 C 1792.94 -2.73755 -1.99609 0
M  V30 18578 C 1791.5 -2.78714 -2.52974 0
M  V30 18579 C 1790.65 -2.44798 -1.30266 0
M  V30 18580 H 1793.6 -1.55843 -0.299757 0
M  V30 18581 H 1793.62 -2.53112 -2.84103 0
M  V30 18582 H 1793.13 -3.62668 -1.38178 0
M  V30 18583 H 1791.23 -1.94045 -3.18084 0
M  V30 18584 H 1791.34 -3.80525 -2.91097 0
M  V30 18585 H 1789.71 -1.9627 -1.62327 0
M  V30 18586 H 1790.49 -3.35969 -0.705648 0
M  V30 18587 N 1792.94 0.765193 -1.37777 0
M  V30 18588 C 1794.17 1.5521 -1.36358 0
M  V30 18589 C 1794.57 1.8913 0.0514021 0
M  V30 18590 O 1793.92 1.52422 1.02535 0
M  V30 18591 C 1793.98 2.88605 -2.14354 0
M  V30 18592 C 1793.64 2.77286 -3.63265 0
M  V30 18593 C 1794.64 2.47869 -4.57009 0
M  V30 18594 C 1792.32 2.95102 -4.06473 0
M  V30 18595 C 1794.32 2.36406 -5.91938 0
M  V30 18596 C 1792.01 2.83259 -5.41486 0
M  V30 18597 C 1793 2.53952 -6.34032 0
M  V30 18598 O 1792.69 2.42148 -7.66564 0
M  V30 18599 H 1792.42 0.487266 -0.468559 0
M  V30 18600 H 1794.98 0.955716 -1.81811 0
M  V30 18601 H 1793.21 3.50388 -1.636 0
M  V30 18602 H 1794.9 3.50043 -2.05486 0
M  V30 18603 H 1795.66 2.33784 -4.24936 0
M  V30 18604 H 1791.54 3.16913 -3.34794 0
M  V30 18605 H 1795.09 2.13452 -6.64142 0
M  V30 18606 H 1790.98 2.96914 -5.7316 0
M  V30 18607 H 1791.75 2.57448 -7.76957 0
M  V30 18608 N 1794.41 1.22455 0.992094 0
M  V30 18609 C 1795.35 0.938597 2.08004 0
M  V30 18610 C 1796.32 -0.118779 1.62166 0
M  V30 18611 O 1797.51 0.0129778 1.88496 0
M  V30 18612 C 1794.64 0.411803 3.36187 0
M  V30 18613 C 1793.68 1.45398 4.00951 0
M  V30 18614 S 1794.51 3.02757 4.417 0
M  V30 18615 C 1795.67 2.51718 5.73052 0
M  V30 18616 H 1795.9 1.85987 2.3194 0
M  V30 18617 H 1793.44 1.0557 1.12669 0
M  V30 18618 H 1795.39 0.114452 4.1034 0
M  V30 18619 H 1794.06 -0.488368 3.1028 0
M  V30 18620 H 1793.25 1.03528 4.93252 0
M  V30 18621 H 1792.85 1.70008 3.33127 0
M  V30 18622 H 1795.14 1.93009 6.49426 0
M  V30 18623 H 1796.09 3.42513 6.1975 0
M  V30 18624 H 1796.49 1.92974 5.30491 0
M  V30 18625 O 1795.93 -1.12323 1.16042 0
M  V30 18626 H 1796.62 -1.72018 0.89048 0
M  V30 END ATOM
M  V30 BEGIN BOND
M  V30 END BOND
M  V30 END CTAB
M  END
$$$$
