drugbank_target|Q9X112 5-methyltetrahydropteroyltriglutamate--homocysteine methyltransferase (DB04422; DB04481)
 OpenBabel12092119573D

  0  0  0     0  0            999 V3000
M  V30 BEGIN CTAB
M  V30 COUNTS 12043 12189 0 0 0
M  V30 BEGIN ATOM
M  V30 1 H -0.908 1.98254 -0.117106 0
M  V30 2 N 0 1.576 0 0
M  V30 3 C 0.933 2.03868 1.02534 0
M  V30 4 C 1.911 0.928543 1.3348 0
M  V30 5 O 3.095 1.19667 1.45644 0
M  V30 6 C 0.222 2.43627 2.35294 0
M  V30 7 C -0.732 3.65373 2.2001 0
M  V30 8 S 0.101 5.13292 1.52614 0
M  V30 9 C 1.257 5.56322 2.86805 0
M  V30 10 H 1.49 2.90518 0.631377 0
M  V30 11 H -0.977 1.52953 0.210867 0
M  V30 12 H 0.981 2.67203 3.11629 0
M  V30 13 H -0.358 1.57376 2.7183 0
M  V30 14 H -1.165 3.90944 3.18086 0
M  V30 15 H -1.563 3.418 1.51819 0
M  V30 16 H 0.729 5.58782 3.83104 0
M  V30 17 H 1.672 6.56266 2.65933 0
M  V30 18 H 2.08 4.83886 2.90714 0
M  V30 19 N 1.4781 -0.272755 1.55222 0
M  V30 20 C 2.4251 -1.33716 1.88119 0
M  V30 21 C 3.3951 -1.49066 0.73271 0
M  V30 22 O 4.5801 -1.63469 0.984002 0
M  V30 23 C 1.7201 -2.69238 2.15882 0
M  V30 24 C 0.8331 -2.62108 3.43399 0
M  V30 25 C -0.0319 -3.89811 3.60861 0
M  V30 26 C -0.9929 -3.77193 4.8207 0
M  V30 27 N -1.8559 -4.9673 4.96189 0
M  V30 28 H 2.9841 -1.04962 2.78903 0
M  V30 29 H 0.5211 -0.507088 1.38083 0
M  V30 30 H 2.4791 -3.48089 2.29978 0
M  V30 31 H 1.1091 -2.96194 1.28331 0
M  V30 32 H 0.1611 -1.74967 3.37773 0
M  V30 33 H 1.4731 -2.48685 4.32386 0
M  V30 34 H 0.6271 -4.77103 3.74777 0
M  V30 35 H -0.6339 -4.06102 2.7006 0
M  V30 36 H -1.6289 -2.88284 4.68159 0
M  V30 37 H -0.4039 -3.62421 5.74307 0
M  V30 38 H -2.4579 -5.13431 4.08319 0
M  V30 39 H -2.5409 -4.85839 5.79221 0
M  V30 40 H -1.2729 -5.85594 5.1449 0
M  V30 41 N 2.9562 -1.48159 -0.537278 0
M  V30 42 C 3.9192 -1.61665 -1.62472 0
M  V30 43 C 4.9192 -0.490395 -1.5314 0
M  V30 44 O 6.1092 -0.755998 -1.5694 0
M  V30 45 C 3.2412 -1.57997 -3.02076 0
M  V30 46 H 4.4342 -2.58621 -1.51839 0
M  V30 47 H 1.9872 -1.36647 -0.758771 0
M  V30 48 H 2.7222 -0.624913 -3.18222 0
M  V30 49 H 2.5072 -2.39755 -3.10258 0
M  V30 50 H 3.9972 -1.70627 -3.81151 0
M  V30 51 N 4.4343 0.785586 -1.36625 0
M  V30 52 C 5.6643 1.5722 -1.34036 0
M  V30 53 C 6.0723 1.89033 0.0795062 0
M  V30 54 O 5.4153 1.50881 1.04789 0
M  V30 55 C 5.4773 2.91759 -2.10041 0
M  V30 56 C 5.1413 2.82654 -3.59104 0
M  V30 57 C 6.1383 2.54634 -4.53274 0
M  V30 58 C 3.8233 3.01111 -4.02042 0
M  V30 59 C 5.8173 2.45177 -5.88359 0
M  V30 60 C 3.5043 2.91276 -5.37216 0
M  V30 61 C 4.5023 2.63348 -6.30188 0
M  V30 62 O 4.1903 2.53514 -7.6288 0
M  V30 63 H 3.9223 0.494177 -0.461265 0
M  V30 64 H 6.4763 0.982632 -1.8037 0
M  V30 65 H 4.7063 3.52781 -1.58375 0
M  V30 66 H 6.3953 3.53059 -2.00261 0
M  V30 67 H 7.1613 2.40073 -4.21414 0
M  V30 68 H 3.0403 3.21854 -3.30047 0
M  V30 69 H 6.5843 2.23299 -6.60896 0
M  V30 70 H 2.4813 3.054 -5.68684 0
M  V30 71 H 3.2493 2.68967 -7.73045 0
M  V30 72 N 5.9124 1.20967 1.01018 0
M  V30 73 C 6.8754 0.965918 2.07853 0
M  V30 74 C 7.8754 -0.0610545 1.60684 0
M  V30 75 O 9.0654 0.175681 1.73312 0
M  V30 76 C 6.1974 0.455513 3.37843 0
M  V30 77 H 7.3904 1.91365 2.3091 0
M  V30 78 H 4.9434 1.02594 1.17916 0
M  V30 79 H 5.6784 -0.497381 3.20463 0
M  V30 80 H 5.4634 1.19622 3.73407 0
M  V30 81 H 6.9534 0.304667 4.16487 0
M  V30 82 N 7.3905 -1.2043 1.01659 0
M  V30 83 C 8.6375 -1.89797 0.705917 0
M  V30 84 C 8.9655 -1.78848 -0.764439 0
M  V30 85 O 8.2205 -1.16694 -1.57102 0
M  V30 86 C 8.5195 -3.40464 1.08714 0
M  V30 87 C 8.1855 -3.71614 2.5537 0
M  V30 88 C 6.8475 -3.79826 2.95441 0
M  V30 89 C 9.1995 -3.85915 3.50313 0
M  V30 90 C 6.5275 -3.99797 4.29394 0
M  V30 91 C 8.8795 -4.07396 4.83954 0
M  V30 92 C 7.5435 -4.13837 5.23732 0
M  V30 93 H 6.8135 -0.694518 0.258313 0
M  V30 94 H 9.4605 -1.42691 1.27717 0
M  V30 95 H 7.7655 -3.89385 0.434309 0
M  V30 96 H 9.4625 -3.92433 0.824461 0
M  V30 97 H 6.0525 -3.65822 2.23321 0
M  V30 98 H 10.2365 -3.78926 3.20513 0
M  V30 99 H 5.4925 -4.03018 4.59768 0
M  V30 100 H 9.6665 -4.17404 5.57447 0
M  V30 101 H 7.2935 -4.29064 6.27541 0
M  V30 102 N 8.8686 -0.792821 -1.36206 0
M  V30 103 C 10.1166 -0.366062 -1.98757 0
M  V30 104 C 10.4376 1.0668 -1.63231 0
M  V30 105 O 9.7076 1.73587 -0.907978 0
M  V30 106 H 8.2876 -0.132364 -0.735179 0
M  V30 107 H 10.9496 -1.01562 -1.66347 0
M  V30 108 H 10.0456 -0.460638 -3.08682 0
M  V30 109 N 10.3467 1.47872 -0.545128 0
M  V30 110 C 11.5937 2.02493 -0.0165858 0
M  V30 111 C 11.9217 1.42073 1.32836 0
M  V30 112 O 11.1767 0.561459 1.87473 0
M  V30 113 C 11.4757 3.57131 0.13867 0
M  V30 114 C 11.1417 4.36411 -1.13384 0
M  V30 115 C 9.8037 4.57792 -1.48256 0
M  V30 116 C 12.1557 4.82223 -1.97764 0
M  V30 117 C 9.4837 5.22233 -2.67376 0
M  V30 118 C 11.8357 5.47977 -3.16076 0
M  V30 119 C 10.4997 5.67593 -3.51275 0
M  V30 120 H 9.7697 0.740975 -0.00606918 0
M  V30 121 H 12.4167 1.77683 -0.714207 0
M  V30 122 H 10.7217 3.80865 0.919172 0
M  V30 123 H 12.4187 3.97031 0.562782 0
M  V30 124 H 9.0087 4.2004 -0.852297 0
M  V30 125 H 13.1927 4.65493 -1.72132 0
M  V30 126 H 8.4487 5.35616 -2.94831 0
M  V30 127 H 12.6227 5.8244 -3.81755 0
M  V30 128 H 10.2497 6.17298 -4.43675 0
M  V30 129 N 11.8248 0.280983 1.55075 0
M  V30 130 C 13.2358 -0.215629 1.85451 0
M  V30 131 C 13.5868 -1.54991 1.203 0
M  V30 132 O 12.7118 -2.10699 0.493435 0
M  V30 133 C 13.3068 -0.398026 3.36454 0
M  V30 134 C 11.8658 -0.838866 3.66933 0
M  V30 135 C 11.0128 0.064458 2.77225 0
M  V30 136 H 13.9638 0.502601 1.50531 0
M  V30 137 H 13.9848 -1.23569 3.59876 0
M  V30 138 H 13.4968 0.573241 3.83843 0
M  V30 139 H 11.5978 -1.8214 3.25048 0
M  V30 140 H 11.7108 -0.672123 4.74362 0
M  V30 141 H 10.0748 -0.452863 2.50642 0
M  V30 142 H 10.8578 1.03172 3.2743 0
M  V30 143 N 13.3029 -1.57598 0.00835791 0
M  V30 144 C 14.2499 -2.08945 -0.980346 0
M  V30 145 C 15.2199 -0.986738 -1.33614 0
M  V30 146 O 16.4049 -1.25968 -1.43306 0
M  V30 147 C 13.5449 -2.60425 -2.26435 0
M  V30 148 C 12.6579 -3.84628 -1.96685 0
M  V30 149 C 11.7929 -4.24579 -3.19228 0
M  V30 150 C 10.8319 -5.41596 -2.85202 0
M  V30 151 N 9.9689 -5.768 -4.00307 0
M  V30 152 H 14.8089 -2.93148 -0.535551 0
M  V30 153 H 12.3459 -1.44912 -0.252776 0
M  V30 154 H 14.3039 -2.88354 -3.01509 0
M  V30 155 H 12.9339 -1.79083 -2.68568 0
M  V30 156 H 11.9859 -3.63556 -1.11942 0
M  V30 157 H 13.2979 -4.69796 -1.67611 0
M  V30 158 H 12.4519 -4.53834 -4.02641 0
M  V30 159 H 11.1909 -3.38137 -3.51447 0
M  V30 160 H 10.1959 -5.12056 -2.00198 0
M  V30 161 H 11.4209 -6.29721 -2.54222 0
M  V30 162 H 9.3669 -4.93316 -4.32407 0
M  V30 163 H 9.2839 -6.5656 -3.74786 0
M  V30 164 H 10.5519 -6.10652 -4.84484 0
M  V30 165 N 14.781 0.264519 -1.55364 0
M  V30 166 C 16.03 0.992812 -1.75574 0
M  V30 167 C 16.343 1.87142 -0.568979 0
M  V30 168 O 17.549 2.63513 -0.653682 0
M  V30 169 C 16.005 1.81519 -3.10771 0
M  V30 170 C 15.613 0.984839 -4.37041 0
M  V30 171 C 17.357 2.53727 -3.40327 0
M  V30 172 C 15.264 1.80209 -5.63275 0
M  V30 173 H 14.194 0.374412 -0.65447 0
M  V30 174 H 16.845 0.248138 -1.81815 0
M  V30 175 H 15.227 2.60115 -2.98591 0
M  V30 176 H 16.401 0.242455 -4.60162 0
M  V30 177 H 14.716 0.37691 -4.14691 0
M  V30 178 H 17.313 3.15292 -4.3185 0
M  V30 179 H 17.656 3.24447 -2.60845 0
M  V30 180 H 18.189 1.82156 -3.53644 0
M  V30 181 H 14.928 1.13896 -6.45529 0
M  V30 182 H 14.448 2.52022 -5.44284 0
M  V30 183 H 16.127 2.37364 -6.01887 0
M  V30 184 N 16.2591 1.48442 0.529413 0
M  V30 185 C 17.5071 1.56179 1.28267 0
M  V30 186 C 17.8281 0.237721 1.93546 0
M  V30 187 O 17.0981 -0.740779 1.81354 0
M  V30 188 H 15.6781 0.575367 0.476405 0
M  V30 189 H 18.3401 1.84909 0.61602 0
M  V30 190 H 17.4361 2.34312 2.06165 0
M  V30 191 N 17.7372 -0.778329 1.37039 0
M  V30 192 C 18.6472 -1.92253 1.34446 0
M  V30 193 C 19.6632 -1.72267 0.244991 0
M  V30 194 O 20.8392 -1.95615 0.479258 0
M  V30 195 C 17.9042 -3.27282 1.144 0
M  V30 196 C 16.9652 -3.59969 2.33925 0
M  V30 197 C 16.1982 -4.88555 2.14825 0
M  V30 198 O 16.4212 -5.59113 1.12912 0
M  V30 199 O 15.3552 -5.20153 3.02861 0
M  V30 200 H 19.1812 -1.97392 2.30803 0
M  V30 201 H 16.7662 -0.920154 1.17701 0
M  V30 202 H 18.6482 -4.08062 1.05182 0
M  V30 203 H 17.3232 -3.23011 0.211124 0
M  V30 204 H 16.2302 -2.7945 2.48714 0
M  V30 205 H 17.5632 -3.68976 3.25757 0
M  V30 206 N 19.2153 -1.21501 -1.00376 0
M  V30 207 C 20.1623 -0.975387 -2.09177 0
M  V30 208 C 21.1323 0.0990615 -1.65804 0
M  V30 209 O 22.3173 -0.0483147 -1.90739 0
M  V30 210 C 19.4573 -0.547507 -3.40729 0
M  V30 211 C 18.5703 -1.69153 -3.97506 0
M  V30 212 C 17.7053 -1.2127 -5.17172 0
M  V30 213 C 16.7443 -2.32897 -5.66061 0
M  V30 214 N 15.8813 -1.86138 -6.76976 0
M  V30 215 H 20.7213 -1.9068 -2.29009 0
M  V30 216 H 18.2583 -0.950257 -1.12288 0
M  V30 217 H 20.2163 -0.280667 -4.16255 0
M  V30 218 H 18.8463 0.346904 -3.20931 0
M  V30 219 H 17.8983 -2.07298 -3.18954 0
M  V30 220 H 19.2103 -2.5316 -4.29781 0
M  V30 221 H 18.3643 -0.902591 -5.99948 0
M  V30 222 H 17.1033 -0.342692 -4.86495 0
M  V30 223 H 16.1083 -2.64709 -4.81881 0
M  V30 224 H 17.3333 -3.20396 -5.98768 0
M  V30 225 H 15.2793 -1.01484 -6.48103 0
M  V30 226 H 15.1963 -2.63717 -7.08512 0
M  V30 227 H 16.4643 -1.58165 -7.63285 0
M  V30 228 N 20.6934 1.19889 -1.02296 0
M  V30 229 C 22.1094 1.41462 -0.738954 0
M  V30 230 C 22.3094 1.89721 0.678846 0
M  V30 231 O 21.3654 2.07016 1.4457 0
M  V30 232 C 22.6784 2.43083 -1.77005 0
M  V30 233 C 24.2264 2.5684 -1.78892 0
M  V30 234 C 24.7014 3.61709 -2.80945 0
M  V30 235 N 26.1924 3.69199 -2.79725 0
M  V30 236 C 26.9274 4.50019 -3.55345 0
M  V30 237 N 26.4234 5.34592 -4.40662 0
M  V30 238 N 28.2164 4.44612 -3.43914 0
M  V30 239 H 20.3674 0.868827 -1.93817 0
M  V30 240 H 22.6304 0.44399 -0.837602 0
M  V30 241 H 22.3364 2.14636 -2.78612 0
M  V30 242 H 22.2104 3.4217 -1.58744 0
M  V30 243 H 24.5974 2.84614 -0.779674 0
M  V30 244 H 24.6784 1.57927 -2.01228 0
M  V30 245 H 24.3224 3.34678 -3.82038 0
M  V30 246 H 24.2524 4.60259 -2.5587 0
M  V30 247 H 26.7434 3.08794 -2.17842 0
M  V30 248 H 27.0564 5.93363 -4.95116 0
M  V30 249 H 25.4014 5.34073 -4.44737 0
M  V30 250 H 28.5924 3.7758 -2.76679 0
M  V30 251 H 28.7654 5.0736 -4.031 0
M  V30 252 N 22.1715 0.800033 1.35784 0
M  V30 253 C 23.0815 0.207204 2.33683 0
M  V30 254 C 24.0975 -0.64631 1.61551 0
M  V30 255 O 25.2735 -0.559604 1.93469 0
M  V30 256 C 22.3385 -0.639659 3.40748 0
M  V30 257 C 21.3995 0.233585 4.28664 0
M  V30 258 C 20.6325 -0.572954 5.30616 0
M  V30 259 O 20.8555 -1.80816 5.40982 0
M  V30 260 O 19.7895 0.0327285 6.01891 0
M  V30 261 H 23.6155 1.01692 2.86169 0
M  V30 262 H 21.2005 0.561691 1.38439 0
M  V30 263 H 23.0825 -1.12223 4.06182 0
M  V30 264 H 21.7575 -1.42708 2.90544 0
M  V30 265 H 20.6645 0.763147 3.66233 0
M  V30 266 H 21.9975 0.984784 4.82248 0
M  V30 267 N 23.6496 -1.47581 0.552962 0
M  V30 268 C 24.8966 -2.02482 0.0273243 0
M  V30 269 C 25.2246 -1.42776 -1.32081 0
M  V30 270 O 24.4796 -0.571393 -1.87173 0
M  V30 271 C 24.7786 -3.57199 -0.119728 0
M  V30 272 C 24.4446 -4.35804 1.15697 0
M  V30 273 C 23.1066 -4.57 1.50681 0
M  V30 274 C 25.4586 -4.81167 2.00319 0
M  V30 275 C 22.7866 -5.20807 2.70142 0
M  V30 276 C 25.1386 -5.46293 3.18978 0
M  V30 277 C 23.8026 -5.65722 3.54281 0
M  V30 278 H 23.0726 -0.740933 0.00999866 0
M  V30 279 H 25.7196 -1.77302 0.72362 0
M  V30 280 H 24.0246 -3.81348 -0.89896 0
M  V30 281 H 25.7216 -3.97324 -0.541718 0
M  V30 282 H 22.3116 -4.19582 0.874561 0
M  V30 283 H 26.4956 -4.64574 1.74599 0
M  V30 284 H 21.7516 -5.34045 2.97668 0
M  V30 285 H 25.9256 -5.80407 3.84838 0
M  V30 286 H 23.5526 -6.14936 4.46942 0
M  V30 287 N 25.1277 -0.289203 -1.54924 0
M  V30 288 C 26.0747 0.592115 -2.23075 0
M  V30 289 C 27.0447 1.13881 -1.20915 0
M  V30 290 O 28.2297 1.18551 -1.495 0
M  V30 291 C 25.3697 1.76376 -2.96623 0
M  V30 292 C 24.4827 1.24959 -4.13533 0
M  V30 293 C 23.6177 2.38416 -4.74691 0
M  V30 294 C 22.6567 1.84072 -5.83767 0
M  V30 295 N 21.7937 2.91057 -6.38929 0
M  V30 296 H 26.6337 0.00432038 -2.98 0
M  V30 297 H 24.1707 -0.00963529 -1.47097 0
M  V30 298 H 26.1287 2.45268 -3.3749 0
M  V30 299 H 24.7587 2.32337 -2.24097 0
M  V30 300 H 23.8107 0.453307 -3.77689 0
M  V30 301 H 25.1227 0.811662 -4.92152 0
M  V30 302 H 24.2767 3.15276 -5.18349 0
M  V30 303 H 23.0157 2.8553 -3.95378 0
M  V30 304 H 22.0207 1.05697 -5.39545 0
M  V30 305 H 23.2457 1.37877 -6.64956 0
M  V30 306 H 21.1917 3.37526 -5.62505 0
M  V30 307 H 21.1087 2.51724 -7.12861 0
M  V30 308 H 22.3767 3.6785 -6.87246 0
M  V30 309 N 26.6058 1.57591 -0.0167156 0
M  V30 310 C 27.5528 2.09462 0.969251 0
M  V30 311 C 28.5228 0.99381 1.33089 0
M  V30 312 O 29.7078 1.26726 1.42636 0
M  V30 313 C 26.8478 2.61622 2.25051 0
M  V30 314 C 25.9608 3.85666 1.94642 0
M  V30 315 C 25.0958 4.26266 3.16972 0
M  V30 316 C 24.1348 5.43101 2.82326 0
M  V30 317 N 23.2718 5.78915 3.97243 0
M  V30 318 H 28.1118 2.93428 0.519997 0
M  V30 319 H 25.6488 1.45044 0.245087 0
M  V30 320 H 27.6068 2.89949 2.99976 0
M  V30 321 H 26.2368 1.80505 2.67615 0
M  V30 322 H 25.2888 3.64145 1.10013 0
M  V30 323 H 26.6008 4.70678 1.65117 0
M  V30 324 H 25.7548 4.55963 4.00228 0
M  V30 325 H 24.4938 3.39996 3.49648 0
M  V30 326 H 23.4988 5.1311 1.97479 0
M  V30 327 H 24.7238 6.3106 2.50879 0
M  V30 328 H 22.6698 4.95602 4.29785 0
M  V30 329 H 22.5868 6.58539 3.71299 0
M  V30 330 H 23.8548 6.13212 4.81239 0
M  V30 331 N 28.0839 -0.256276 1.55502 0
M  V30 332 C 29.0469 -1.30047 1.88734 0
M  V30 333 C 30.0469 -1.4154 0.763086 0
M  V30 334 O 31.2369 -1.40403 1.03115 0
M  V30 335 C 28.3689 -2.67953 2.10747 0
M  V30 336 H 29.5619 -1.01802 2.82093 0
M  V30 337 H 27.1149 -0.495134 1.4825 0
M  V30 338 H 27.8499 -3.01351 1.19825 0
M  V30 339 H 27.6349 -2.60993 2.92617 0
M  V30 340 H 29.1249 -3.43368 2.37673 0
M  V30 341 N 29.562 -1.4872 -0.521534 0
M  V30 342 C 30.492 -1.66771 -1.63431 0
M  V30 343 C 31.473 -0.516499 -1.62069 0
M  V30 344 O 32.658 -0.750013 -1.79132 0
M  V30 345 C 29.788 -1.71515 -3.01993 0
M  V30 346 C 28.742 -2.86222 -3.18216 0
M  V30 347 C 28.068 -2.76061 -4.57924 0
M  V30 348 C 29.368 -4.27419 -3.00184 0
M  V30 349 H 31.062 -2.59932 -1.48579 0
M  V30 350 H 28.608 -1.25089 -0.713358 0
M  V30 351 H 30.561 -1.82731 -3.7972 0
M  V30 352 H 29.285 -0.749393 -3.17886 0
M  V30 353 H 27.944 -2.74575 -2.42908 0
M  V30 354 H 27.592 -1.77437 -4.70665 0
M  V30 355 H 27.292 -3.53037 -4.69722 0
M  V30 356 H 28.816 -2.89256 -5.37739 0
M  V30 357 H 30.23 -4.39855 -3.67697 0
M  V30 358 H 28.627 -5.05458 -3.2347 0
M  V30 359 H 29.697 -4.43293 -1.96518 0
M  V30 360 N 31.0401 0.771051 -1.3745 0
M  V30 361 C 31.9501 1.91538 -1.35464 0
M  V30 362 C 32.9661 1.72134 -0.254123 0
M  V30 363 O 34.1421 1.95358 -0.489626 0
M  V30 364 C 31.2071 3.26671 -1.16134 0
M  V30 365 C 30.2681 3.58723 -2.35831 0
M  V30 366 C 29.5011 4.87409 -2.17413 0
M  V30 367 O 29.7241 5.58506 -1.15876 0
M  V30 368 O 28.6581 5.18539 -3.05615 0
M  V30 369 H 32.4841 1.96165 -2.31847 0
M  V30 370 H 30.0691 0.9139 -1.18187 0
M  V30 371 H 31.9511 4.07499 -1.07345 0
M  V30 372 H 30.6261 3.22894 -0.228251 0
M  V30 373 H 29.5331 2.78127 -2.50192 0
M  V30 374 H 30.8661 3.67243 -3.27709 0
M  V30 375 N 32.5182 1.22032 0.997298 0
M  V30 376 C 33.7952 0.950823 1.70935 0
M  V30 377 C 34.1752 -0.535292 2.042 0
M  V30 378 O 33.5232 -1.50217 1.72183 0
M  V30 379 C 33.7332 1.84386 2.96315 0
M  V30 380 C 35.0812 2.09732 3.69185 0
M  V30 381 O 36.1052 1.81798 3.06314 0
M  V30 382 O 34.9642 2.57018 4.82291 0
M  V30 383 H 32.0582 0.357204 0.745878 0
M  V30 384 H 34.6042 1.32997 1.05404 0
M  V30 385 H 33.3762 2.84928 2.68201 0
M  V30 386 H 32.9992 1.46602 3.69586 0
M  V30 387 N 33.9963 -1.19345 1.0293 0
M  V30 388 C 35.2433 -1.89038 0.726008 0
M  V30 389 C 35.5713 -1.79649 -0.745427 0
M  V30 390 O 34.8263 -1.18354 -1.55855 0
M  V30 391 C 35.1253 -3.39292 1.12319 0
M  V30 392 C 34.7913 -3.68885 2.59297 0
M  V30 393 C 33.4533 -3.76671 2.99453 0
M  V30 394 C 35.8053 -3.82178 3.54386 0
M  V30 395 C 33.1333 -3.9522 4.33611 0
M  V30 396 C 35.4853 -4.0224 4.88248 0
M  V30 397 C 34.1493 -4.08259 5.28092 0
M  V30 398 H 33.4193 -0.691739 0.265665 0
M  V30 399 H 36.0663 -1.41328 1.29223 0
M  V30 400 H 34.3713 -3.88903 0.475584 0
M  V30 401 H 36.0683 -3.91536 0.866037 0
M  V30 402 H 32.6583 -3.63433 2.27189 0
M  V30 403 H 36.8423 -3.75505 3.24514 0
M  V30 404 H 32.0983 -3.98119 4.64016 0
M  V30 405 H 36.2723 -4.11468 5.61843 0
M  V30 406 H 33.8993 -4.22384 6.32057 0
M  V30 407 N 35.4744 -0.807222 -1.35358 0
M  V30 408 C 36.7204 -0.397594 -1.99476 0
M  V30 409 C 37.0754 1.02405 -1.62883 0
M  V30 410 O 36.3684 1.70077 -0.882282 0
M  V30 411 C 36.5624 -0.519036 -3.53611 0
M  V30 412 C 36.3914 -1.95094 -4.05177 0
M  V30 413 C 35.1614 -2.57945 -4.34503 0
M  V30 414 C 37.3594 -2.91558 -4.23673 0
M  V30 415 N 35.3414 -3.92539 -4.72003 0
M  V30 416 C 36.7124 -4.11024 -4.64176 0
M  V30 417 C 38.7674 -2.88381 -4.05883 0
M  V30 418 C 37.4704 -5.27745 -4.88751 0
M  V30 419 C 39.4964 -4.04306 -4.31614 0
M  V30 420 C 38.8584 -5.22519 -4.72391 0
M  V30 421 H 34.9574 -0.193274 -0.75774 0
M  V30 422 H 37.5414 -1.0486 -1.6405 0
M  V30 423 H 35.7124 0.101979 -3.88266 0
M  V30 424 H 37.4444 -0.0839321 -4.04613 0
M  V30 425 H 34.1994 -2.09295 -4.24844 0
M  V30 426 H 34.6234 -4.61836 -4.95011 0
M  V30 427 H 39.2654 -1.98137 -3.73499 0
M  V30 428 H 36.9834 -6.1856 -5.20008 0
M  V30 429 H 40.5694 -4.03229 -4.19402 0
M  V30 430 H 39.4494 -6.1073 -4.91913 0
M  V30 431 N 36.9525 1.47285 -0.560781 0
M  V30 432 C 37.8995 2.30058 0.18491 0
M  V30 433 C 38.8695 1.39281 0.904986 0
M  V30 434 O 40.0545 1.68241 0.899979 0
M  V30 435 C 37.1945 3.23317 1.20666 0
M  V30 436 C 36.3075 4.29186 0.492285 0
M  V30 437 C 35.4425 5.09592 1.49964 0
M  V30 438 C 34.4815 6.07232 0.770439 0
M  V30 439 N 33.6185 6.80584 1.72479 0
M  V30 440 H 38.4585 2.93302 -0.527048 0
M  V30 441 H 35.9955 1.44568 -0.271738 0
M  V30 442 H 37.9535 3.75811 1.81168 0
M  V30 443 H 36.5835 2.61929 1.88661 0
M  V30 444 H 35.6355 3.7972 -0.227333 0
M  V30 445 H 36.9475 4.98738 -0.0787929 0
M  V30 446 H 36.1015 5.66254 2.17809 0
M  V30 447 H 34.8405 4.3995 2.10464 0
M  V30 448 H 33.8455 5.49745 0.0780846 0
M  V30 449 H 35.0705 6.78884 0.171134 0
M  V30 450 H 33.0165 6.1367 2.3183 0
M  V30 451 H 32.9335 7.46319 1.20596 0
M  V30 452 H 34.2015 7.41818 2.39428 0
M  V30 453 N 38.4306 0.297415 1.54768 0
M  V30 454 C 39.6786 -0.312295 1.99673 0
M  V30 455 C 39.9996 -1.54686 1.18732 0
M  V30 456 O 39.2696 -1.93854 0.282382 0
M  V30 457 H 37.8496 -0.118381 0.73756 0
M  V30 458 H 40.5116 0.407915 1.90583 0
M  V30 459 H 39.6076 -0.586813 3.06534 0
M  V30 460 N 39.9087 -1.5758 0.0250728 0
M  V30 461 C 40.8557 -2.09973 -0.958129 0
M  V30 462 C 41.8257 -1.00085 -1.3256 0
M  V30 463 O 43.0107 -1.27481 -1.41962 0
M  V30 464 C 40.1507 -2.62812 -2.2366 0
M  V30 465 C 39.2637 -3.86693 -1.92594 0
M  V30 466 C 38.3987 -4.27941 -3.14707 0
M  V30 467 C 37.4377 -5.44591 -2.79442 0
M  V30 468 N 36.5747 -5.81014 -3.94167 0
M  V30 469 H 41.4147 -2.937 -0.504428 0
M  V30 470 H 38.9517 -1.45172 -0.237392 0
M  V30 471 H 40.9097 -2.91536 -2.98434 0
M  V30 472 H 39.5397 -1.81922 -2.66654 0
M  V30 473 H 38.5917 -3.64723 -1.0808 0
M  V30 474 H 39.9037 -4.71547 -1.62619 0
M  V30 475 H 39.0577 -4.58079 -3.97804 0
M  V30 476 H 37.7967 -3.41845 -3.4784 0
M  V30 477 H 36.8017 -5.1415 -1.94755 0
M  V30 478 H 38.0267 -6.32382 -2.47528 0
M  V30 479 H 35.9727 -4.97874 -4.2715 0
M  V30 480 H 35.8897 -6.60498 -3.67801 0
M  V30 481 H 37.1577 -6.15756 -4.7798 0
M  V30 482 N 41.3868 0.248026 -1.55636 0
M  V30 483 C 42.6358 0.974134 -1.76617 0
M  V30 484 C 42.9488 1.86528 -0.588796 0
M  V30 485 O 44.1548 2.62805 -0.681594 0
M  V30 486 C 42.6108 1.78213 -3.12679 0
M  V30 487 C 42.2188 0.93843 -4.38061 0
M  V30 488 C 43.9628 2.50104 -3.42999 0
M  V30 489 C 41.8698 1.74225 -5.65155 0
M  V30 490 H 40.7998 0.36745 -0.658405 0
M  V30 491 H 43.4508 0.22884 -1.82067 0
M  V30 492 H 41.8328 2.56933 -3.01333 0
M  V30 493 H 43.0068 0.193635 -4.60393 0
M  V30 494 H 41.3218 0.332905 -4.15067 0
M  V30 495 H 43.9188 3.10694 -4.3517 0
M  V30 496 H 44.2618 3.21662 -2.64271 0
M  V30 497 H 44.7948 1.78395 -3.55556 0
M  V30 498 H 41.5338 1.07043 -6.46701 0
M  V30 499 H 41.0538 2.46235 -5.46926 0
M  V30 500 H 42.7328 2.30967 -6.0437 0
M  V30 501 N 42.8649 1.48995 0.513639 0
M  V30 502 C 44.0929 1.61531 1.29288 0
M  V30 503 C 44.5079 0.281801 1.86685 0
M  V30 504 O 43.8649 -0.731111 1.67215 0
M  V30 505 C 43.9159 2.67449 2.43215 0
M  V30 506 O 43.6369 3.95626 1.88179 0
M  V30 507 C 45.1379 2.90575 3.34785 0
M  V30 508 H 42.3579 0.544165 0.392588 0
M  V30 509 H 44.9019 1.9494 0.617956 0
M  V30 510 H 43.0569 2.36853 3.0656 0
M  V30 511 H 43.4709 4.53868 2.62876 0
M  V30 512 H 44.9449 3.68449 4.11035 0
M  V30 513 H 45.4219 2.00011 3.91015 0
M  V30 514 H 46.0279 3.22538 2.77218 0
M  V30 515 N 44.343 -0.763751 1.37857 0
M  V30 516 C 45.253 -1.90817 1.36478 0
M  V30 517 C 46.269 -1.71997 0.263248 0
M  V30 518 O 47.445 -1.95095 0.499979 0
M  V30 519 C 44.51 -3.2605 1.17864 0
M  V30 520 C 43.571 -3.57467 2.3773 0
M  V30 521 C 42.804 -4.86249 2.19995 0
M  V30 522 O 43.027 -5.57884 1.18836 0
M  V30 523 O 41.961 -5.16911 3.08361 0
M  V30 524 H 45.787 -1.94933 2.32884 0
M  V30 525 H 43.372 -0.907619 1.1867 0
M  V30 526 H 45.254 -4.06924 1.09504 0
M  V30 527 H 43.929 -3.22769 0.245372 0
M  V30 528 H 42.836 -2.76796 2.51664 0
M  V30 529 H 44.169 -3.655 3.29652 0
M  V30 530 N 45.8211 -1.22559 -0.990812 0
M  V30 531 C 46.7311 -1.01394 -2.11557 0
M  V30 532 C 47.7471 0.0383962 -1.73958 0
M  V30 533 O 48.9231 -0.154787 -2.00804 0
M  V30 534 C 45.9881 -0.596569 -3.41529 0
M  V30 535 C 45.0491 -1.72276 -3.93217 0
M  V30 536 C 44.2821 -1.32521 -5.16985 0
M  V30 537 O 44.5051 -0.204909 -5.70032 0
M  V30 538 O 43.4391 -2.14247 -5.62478 0
M  V30 539 H 47.2651 -1.95633 -2.32296 0
M  V30 540 H 44.8501 -1.01172 -1.0993 0
M  V30 541 H 46.7321 -0.374263 -4.19735 0
M  V30 542 H 45.4071 0.316939 -3.22145 0
M  V30 543 H 44.3141 -1.99961 -3.16174 0
M  V30 544 H 45.6471 -2.61421 -4.17037 0
M  V30 545 N 47.2992 1.18797 -1.03562 0
M  V30 546 C 48.2312 2.21731 -0.580337 0
M  V30 547 C 49.2442 1.59051 0.347349 0
M  V30 548 O 50.4332 1.77929 0.142669 0
M  V30 549 C 47.5332 3.38459 0.172805 0
M  V30 550 C 46.7062 4.3072 -0.761496 0
M  V30 551 C 45.7652 5.26174 -0.0525547 0
M  V30 552 O 44.7912 5.65108 -0.681333 0
M  V30 553 N 45.9932 5.67624 1.21586 0
M  V30 554 H 48.7582 2.61417 -1.46565 0
M  V30 555 H 46.3192 1.33531 -0.915476 0
M  V30 556 H 48.3112 3.99335 0.656793 0
M  V30 557 H 46.8812 2.97507 0.959602 0
M  V30 558 H 46.1012 3.67525 -1.42544 0
M  V30 559 H 47.3892 4.89267 -1.39626 0
M  V30 560 H 46.7872 5.38038 1.74732 0
M  V30 561 H 45.3442 6.30721 1.64421 0
M  V30 562 N 48.7773 0.814389 1.34928 0
M  V30 563 C 50.0243 0.398423 1.98542 0
M  V30 564 C 50.3523 -1.03638 1.64589 0
M  V30 565 O 49.6073 -1.73509 0.90516 0
M  V30 566 C 49.9063 0.537781 3.53331 0
M  V30 567 C 49.5723 1.93704 4.07172 0
M  V30 568 C 48.2343 2.31984 4.21589 0
M  V30 569 C 50.5863 2.85213 4.36237 0
M  V30 570 C 47.9143 3.61125 4.62391 0
M  V30 571 C 50.2663 4.13809 4.78482 0
M  V30 572 C 48.9303 4.52077 4.91104 0
M  V30 573 H 48.2003 0.145793 0.726516 0
M  V30 574 H 50.8473 1.03669 1.61012 0
M  V30 575 H 49.1523 -0.183906 3.91368 0
M  V30 576 H 50.8493 0.196588 4.00518 0
M  V30 577 H 47.4393 1.62966 3.96409 0
M  V30 578 H 51.6233 2.56885 4.24645 0
M  V30 579 H 46.8793 3.90612 4.70353 0
M  V30 580 H 51.0533 4.84811 4.99932 0
M  V30 581 H 48.6803 5.52196 5.22478 0
M  V30 582 N 50.2554 -1.46986 0.568584 0
M  V30 583 C 51.1654 -2.33942 -0.17555 0
M  V30 584 C 52.1814 -1.48891 -0.90041 0
M  V30 585 O 53.3574 -1.81794 -0.86676 0
M  V30 586 C 50.4224 -3.25811 -1.18524 0
M  V30 587 C 49.4834 -4.26757 -0.466582 0
M  V30 588 C 48.7164 -5.14236 -1.42817 0
M  V30 589 O 48.9394 -5.04379 -2.66379 0
M  V30 590 O 47.8734 -5.94412 -0.946453 0
M  V30 591 H 51.6994 -2.98896 0.538036 0
M  V30 592 H 49.2844 -1.4573 0.329097 0
M  V30 593 H 51.1664 -3.82527 -1.76779 0
M  V30 594 H 49.8414 -2.63471 -1.88055 0
M  V30 595 H 48.7484 -3.73769 0.157451 0
M  V30 596 H 50.0814 -4.91843 0.187485 0
M  V30 597 N 51.7335 -0.305618 -1.54608 0
M  V30 598 C 52.6435 0.57778 -2.27374 0
M  V30 599 C 53.6595 1.14451 -1.31061 0
M  V30 600 O 54.8355 1.16831 -1.6405 0
M  V30 601 C 51.9005 1.73123 -3.00382 0
M  V30 602 C 50.9615 1.19812 -4.12242 0
M  V30 603 C 50.1945 2.2966 -4.81759 0
M  V30 604 O 50.4175 3.49651 -4.50666 0
M  V30 605 O 49.3515 1.96091 -5.69062 0
M  V30 606 H 53.1775 -0.012624 -3.03697 0
M  V30 607 H 50.7625 -0.0719184 -1.49227 0
M  V30 608 H 52.6445 2.40315 -3.4616 0
M  V30 609 H 51.3195 2.30815 -2.26949 0
M  V30 610 H 50.2265 0.491798 -3.70853 0
M  V30 611 H 51.5595 0.666566 -4.87666 0
M  V30 612 N 53.2116 1.57565 -0.0334293 0
M  V30 613 C 54.1216 2.13943 0.962572 0
M  V30 614 C 55.1376 1.09276 1.35406 0
M  V30 615 O 56.3136 1.41355 1.4346 0
M  V30 616 C 53.3786 2.65887 2.22497 0
M  V30 617 C 52.4396 3.85286 1.8935 0
M  V30 618 C 51.6726 4.34743 3.09571 0
M  V30 619 O 51.8956 3.83352 4.22371 0
M  V30 620 O 50.8296 5.26538 2.91618 0
M  V30 621 H 54.6556 2.99333 0.513169 0
M  V30 622 H 52.2406 1.4822 0.18743 0
M  V30 623 H 54.1226 2.99346 2.96598 0
M  V30 624 H 52.7976 1.83578 2.6661 0
M  V30 625 H 51.7046 3.56746 1.1262 0
M  V30 626 H 53.0376 4.68771 1.5005 0
M  V30 627 N 54.6897 -0.239769 1.55765 0
M  V30 628 C 55.6227 -1.32356 1.85895 0
M  V30 629 C 56.6007 -1.46053 0.714662 0
M  V30 630 O 57.7847 -1.62154 0.961157 0
M  V30 631 C 54.9117 -2.6962 2.04994 0
M  V30 632 C 53.9577 -2.73036 3.27648 0
M  V30 633 S 54.7907 -2.28929 4.84099 0
M  V30 634 C 55.9467 -3.68103 5.06212 0
M  V30 635 H 56.1797 -1.06601 2.77531 0
M  V30 636 H 53.7127 -0.441112 1.47965 0
M  V30 637 H 55.6707 -3.48653 2.16682 0
M  V30 638 H 54.3317 -2.92609 1.14188 0
M  V30 639 H 53.5247 -3.7386 3.38 0
M  V30 640 H 53.1267 -2.02052 3.14723 0
M  V30 641 H 55.4187 -4.63656 4.93993 0
M  V30 642 H 56.3617 -3.6268 6.08168 0
M  V30 643 H 56.7697 -3.60947 4.34025 0
M  V30 644 N 56.1678 -1.49265 -0.50573 0
M  V30 645 C 57.1158 -1.66065 -1.62866 0
M  V30 646 C 58.1098 -0.526636 -1.61006 0
M  V30 647 O 59.3158 -0.706126 -1.65571 0
M  V30 648 H 55.6908 -0.52356 -0.539805 0
M  V30 649 H 57.6618 -2.60329 -1.45848 0
M  V30 650 C 56.4108 -1.74008 -3.01026 0
M  V30 651 H 55.7338 -2.6064 -3.03161 0
M  V30 652 H 57.1738 -1.89798 -3.79147 0
M  V30 653 C 55.6328 -0.483868 -3.33407 0
M  V30 654 O 56.1628 0.392548 -3.99777 0
M  V30 655 N 54.3688 -0.348236 -2.88506 0
M  V30 656 H 53.9158 -1.06242 -2.34671 0
M  V30 657 H 53.8738 0.491204 -3.10539 0
M  V30 658 N 57.6459 0.756429 -1.3826 0
M  V30 659 C 58.5929 1.87011 -1.35261 0
M  V30 660 C 59.5629 1.64695 -0.215616 0
M  V30 661 O 60.7479 1.864 -0.407399 0
M  V30 662 C 57.8879 3.24275 -1.18068 0
M  V30 663 C 57.0009 3.58442 -2.41129 0
M  V30 664 C 56.1359 4.84994 -2.16689 0
M  V30 665 C 55.1749 5.11939 -3.35537 0
M  V30 666 N 54.3119 6.29685 -3.10549 0
M  V30 667 H 59.1519 1.8891 -2.30472 0
M  V30 668 H 56.6889 0.923373 -1.14509 0
M  V30 669 H 58.6469 4.03479 -1.06116 0
M  V30 670 H 57.2769 3.21711 -0.264973 0
M  V30 671 H 56.3289 2.74103 -2.63764 0
M  V30 672 H 57.6409 3.74283 -3.29717 0
M  V30 673 H 56.7949 5.72135 -2.01857 0
M  V30 674 H 55.5339 4.71286 -1.25462 0
M  V30 675 H 54.5389 4.23268 -3.50891 0
M  V30 676 H 55.7639 5.27546 -4.27635 0
M  V30 677 H 53.7099 6.17306 -2.21967 0
M  V30 678 H 53.6269 6.46014 -3.92686 0
M  V30 679 H 54.8949 7.19722 -2.99367 0
M  V30 680 N 59.124 1.23083 0.984299 0
M  V30 681 C 60.054 1.03292 2.09411 0
M  V30 682 C 61.035 -0.048923 1.7003 0
M  V30 683 O 62.22 0.114967 1.93859 0
M  V30 684 C 59.35 0.619155 3.41736 0
M  V30 685 C 58.304 1.64791 3.95004 0
M  V30 686 C 57.63 1.0897 5.23478 0
M  V30 687 C 58.93 3.03999 4.24714 0
M  V30 688 H 60.624 1.96119 2.26225 0
M  V30 689 H 58.17 0.944344 1.08711 0
M  V30 690 H 60.123 0.467777 4.18796 0
M  V30 691 H 58.847 -0.344786 3.24775 0
M  V30 692 H 57.506 1.78721 3.20085 0
M  V30 693 H 57.154 0.11686 5.02864 0
M  V30 694 H 56.854 1.77704 5.60085 0
M  V30 695 H 58.378 0.950093 6.03163 0
M  V30 696 H 59.792 2.93393 4.92538 0
M  V30 697 H 58.189 3.69936 4.72512 0
M  V30 698 H 59.259 3.53285 3.32142 0
M  V30 699 N 60.6021 -1.18246 1.0419 0
M  V30 700 C 62.0181 -1.40269 0.761366 0
M  V30 701 C 62.2181 -1.90777 -0.648578 0
M  V30 702 O 61.2741 -2.0929 -1.41258 0
M  V30 703 C 62.5871 -2.40237 1.8085 0
M  V30 704 C 64.1351 -2.53961 1.82955 0
M  V30 705 C 64.6101 -3.57194 2.86664 0
M  V30 706 N 66.1011 -3.64702 2.85563 0
M  V30 707 C 66.8361 -4.44309 3.6246 0
M  V30 708 N 66.3321 -5.27514 4.49111 0
M  V30 709 N 68.1251 -4.39084 3.50944 0
M  V30 710 H 60.2761 -0.837882 1.95175 0
M  V30 711 H 62.5391 -0.430608 0.84456 0
M  V30 712 H 62.2451 -2.10176 2.81991 0
M  V30 713 H 62.1191 -3.39601 1.64168 0
M  V30 714 H 64.5061 -2.83338 0.824855 0
M  V30 715 H 64.5871 -1.54706 2.03715 0
M  V30 716 H 64.2311 -3.28558 3.87314 0
M  V30 717 H 64.1611 -4.5613 2.6316 0
M  V30 718 H 66.6521 -3.05289 2.22727 0
M  V30 719 H 66.9651 -5.85411 5.04493 0
M  V30 720 H 65.3101 -5.2693 4.53178 0
M  V30 721 H 68.5011 -3.7313 2.82651 0
M  V30 722 H 68.6741 -5.00883 4.11121 0
M  V30 723 N 62.0802 -0.821533 -1.34494 0
M  V30 724 C 63.0132 -0.187704 -2.27427 0
M  V30 725 C 63.9912 0.65507 -1.48821 0
M  V30 726 O 65.1752 0.619111 -1.78043 0
M  V30 727 C 62.3022 0.737996 -3.30562 0
M  V30 728 C 61.3482 -0.0270713 -4.26491 0
M  V30 729 S 62.1812 -1.37329 -5.17592 0
M  V30 730 C 63.3372 -0.452427 -6.24263 0
M  V30 731 H 63.5702 -0.975598 -2.80837 0
M  V30 732 H 61.1032 -0.61736 -1.4152 0
M  V30 733 H 63.0612 1.26654 -3.90473 0
M  V30 734 H 61.7222 1.4994 -2.76001 0
M  V30 735 H 60.9152 0.6766 -4.99438 0
M  V30 736 H 60.5172 -0.48612 -3.70827 0
M  V30 737 H 62.8092 0.356557 -6.76561 0
M  V30 738 H 63.7522 -1.15153 -6.98674 0
M  V30 739 H 64.1602 -0.0414755 -5.64485 0
M  V30 740 N 63.5583 1.46682 -0.576371 0
M  V30 741 C 64.7883 2.06498 -0.0648694 0
M  V30 742 C 65.1963 1.42665 1.24271 0
M  V30 743 O 64.5393 0.523886 1.76071 0
M  V30 744 C 64.6013 3.5904 0.181816 0
M  V30 745 C 64.2653 4.45028 -1.0392 0
M  V30 746 C 65.2623 4.81959 -1.94966 0
M  V30 747 C 62.9473 4.86259 -1.25927 0
M  V30 748 C 64.9413 5.58942 -3.06371 0
M  V30 749 C 62.6283 5.63002 -2.37638 0
M  V30 750 C 63.6263 5.99257 -3.2769 0
M  V30 751 O 63.3143 6.7445 -4.37461 0
M  V30 752 H 63.0463 0.674028 -0.0515987 0
M  V30 753 H 65.6003 1.89393 -0.794951 0
M  V30 754 H 63.8303 3.74429 0.966436 0
M  V30 755 H 65.5193 4.00806 0.641047 0
M  V30 756 H 66.2853 4.50689 -1.79177 0
M  V30 757 H 62.1643 4.57494 -0.567448 0
M  V30 758 H 65.7083 5.87158 -3.76684 0
M  V30 759 H 61.6053 5.93686 -2.53392 0
M  V30 760 H 62.3733 6.92867 -4.35749 0
M  V30 761 N 65.0364 0.313813 1.54444 0
M  V30 762 C 65.9694 -0.598866 2.20202 0
M  V30 763 C 66.9474 -1.12318 1.17573 0
M  V30 764 O 68.1314 -1.18899 1.46271 0
M  V30 765 C 65.2584 -1.82071 2.85601 0
M  V30 766 C 64.3044 -1.42851 4.01865 0
M  V30 767 S 65.1374 -0.473512 5.33402 0
M  V30 768 C 66.2934 -1.70286 6.0229 0
M  V30 769 H 66.5264 -0.0402532 2.97273 0
M  V30 770 H 64.0594 0.0979165 1.54089 0
M  V30 771 H 66.0174 -2.52184 3.23904 0
M  V30 772 H 64.6784 -2.3505 2.08351 0
M  V30 773 H 63.8714 -2.33871 4.46453 0
M  V30 774 H 63.4734 -0.807198 3.65185 0
M  V30 775 H 65.7654 -2.64168 6.23876 0
M  V30 776 H 66.7084 -1.29932 6.96077 0
M  V30 777 H 67.1164 -1.88541 5.32083 0
M  V30 778 N 66.5145 -1.57545 0.0417849 0
M  V30 779 C 67.7605 -1.92601 -0.635021 0
M  V30 780 C 68.0935 -0.919627 -1.71045 0
M  V30 781 O 67.3685 0.0557892 -1.9442 0
M  V30 782 C 67.6515 -3.38085 -1.23979 0
M  V30 783 C 67.5045 -4.49467 -0.173057 0
M  V30 784 C 68.8235 -3.83776 -2.15416 0
M  V30 785 H 65.9425 -0.700397 -0.229374 0
M  V30 786 H 68.5845 -1.89728 0.101633 0
M  V30 787 H 66.7345 -3.40664 -1.86762 0
M  V30 788 H 68.4065 -4.59018 0.458312 0
M  V30 789 H 66.6495 -4.30909 0.499996 0
M  V30 790 H 67.3205 -5.48323 -0.636054 0
M  V30 791 H 69.7965 -3.83013 -1.62605 0
M  V30 792 H 68.6725 -4.8624 -2.54679 0
M  V30 793 H 68.9335 -3.19998 -3.05047 0
M  V30 794 N 67.9926 0.231505 -1.5589 0
M  V30 795 C 68.9026 1.308 -1.94752 0
M  V30 796 C 69.9186 1.51826 -0.849989 0
M  V30 797 O 71.0946 1.6515 -1.15271 0
M  V30 798 C 68.1596 2.63968 -2.24771 0
M  V30 799 C 67.2206 2.51331 -3.48039 0
M  V30 800 C 66.4536 3.78148 -3.76616 0
M  V30 801 O 66.6766 4.80722 -3.07022 0
M  V30 802 O 65.6106 3.75857 -4.70123 0
M  V30 803 H 69.4366 1.0083 -2.86474 0
M  V30 804 H 67.0216 0.433547 -1.42971 0
M  V30 805 H 68.9036 3.42633 -2.45318 0
M  V30 806 H 67.5786 2.9364 -1.36225 0
M  V30 807 H 66.4856 1.709 -3.32782 0
M  V30 808 H 67.8186 2.26601 -4.36936 0
M  V30 809 N 69.4707 1.49531 0.497807 0
M  V30 810 C 70.4187 1.66926 1.61983 0
M  V30 811 C 71.4127 0.535167 1.60724 0
M  V30 812 O 72.6187 0.714896 1.65195 0
M  V30 813 H 68.9937 0.526415 0.537021 0
M  V30 814 H 70.9647 2.61098 1.44465 0
M  V30 815 C 69.7137 1.75602 3.00099 0
M  V30 816 H 69.0367 2.62244 3.01775 0
M  V30 817 H 70.4767 1.91807 3.78135 0
M  V30 818 C 68.9357 0.501543 3.33146 0
M  V30 819 O 69.4657 -0.371342 3.9998 0
M  V30 820 N 67.6717 0.363531 2.88317 0
M  V30 821 H 67.2187 1.07485 2.34104 0
M  V30 822 H 67.1767 -0.474728 3.10795 0
M  V30 823 N 70.9488 -0.749086 1.3866 0
M  V30 824 C 72.1788 -1.53611 1.38157 0
M  V30 825 C 72.5868 -1.89177 -0.0293595 0
M  V30 826 O 71.9298 -1.53606 -1.00752 0
M  V30 827 C 71.9918 -2.86087 2.17702 0
M  V30 828 C 71.6558 -2.73034 3.66472 0
M  V30 829 C 72.6528 -2.42526 4.59866 0
M  V30 830 C 70.3378 -2.90345 4.09884 0
M  V30 831 C 72.3318 -2.29492 5.94653 0
M  V30 832 C 70.0188 -2.7693 5.4475 0
M  V30 833 C 71.0168 -2.46547 6.36949 0
M  V30 834 O 70.7048 -2.33199 7.69333 0
M  V30 835 H 70.4368 -0.481773 0.474205 0
M  V30 836 H 72.9908 -0.934465 1.82912 0
M  V30 837 H 71.2208 -3.48458 1.67672 0
M  V30 838 H 72.9098 -3.47625 2.09551 0
M  V30 839 H 73.6758 -2.28816 4.27631 0
M  V30 840 H 69.5548 -3.1299 3.38464 0
M  V30 841 H 73.0988 -2.05698 6.66584 0
M  V30 842 H 68.9958 -2.90215 5.76581 0
M  V30 843 H 69.7638 -2.48376 7.79905 0
M  V30 844 N 72.4269 -1.23603 -0.977757 0
M  V30 845 C 73.8429 -0.999251 -1.24447 0
M  V30 846 C 74.0429 0.298053 -1.99283 0
M  V30 847 O 73.0989 1.01681 -2.31122 0
M  V30 848 C 74.4119 -2.20784 -2.04144 0
M  V30 849 C 75.9599 -2.25303 -2.17273 0
M  V30 850 C 76.4349 -3.45755 -3.00362 0
M  V30 851 N 77.9259 -3.4601 -3.07947 0
M  V30 852 C 78.6609 -4.35868 -3.72568 0
M  V30 853 N 78.1569 -5.35966 -4.38991 0
M  V30 854 N 79.9499 -4.23605 -3.6948 0
M  V30 855 H 72.1009 -2.06986 -0.476483 0
M  V30 856 H 74.3639 -0.907801 -0.273134 0
M  V30 857 H 74.0699 -3.14945 -1.56533 0
M  V30 858 H 73.9439 -2.22085 -3.04891 0
M  V30 859 H 76.3309 -1.3168 -2.64092 0
M  V30 860 H 76.4119 -2.28033 -1.15907 0
M  V30 861 H 76.0559 -4.39687 -2.5424 0
M  V30 862 H 75.9859 -3.40266 -4.01904 0
M  V30 863 H 78.4769 -2.73588 -2.60688 0
M  V30 864 H 78.7899 -6.00783 -4.86086 0
M  V30 865 H 77.1349 -5.39863 -4.37691 0
M  V30 866 H 80.3259 -3.44647 -3.16759 0
M  V30 867 H 80.4989 -4.93836 -4.1956 0
M  V30 868 N 73.905 1.17692 -1.04816 0
M  V30 869 C 74.852 2.21581 -0.645797 0
M  V30 870 C 75.822 1.62367 0.350159 0
M  V30 871 O 77.007 1.89254 0.242433 0
M  V30 872 C 74.147 3.45092 -0.0227568 0
M  V30 873 C 73.26 4.18613 -1.06709 0
M  V30 874 C 72.395 5.29602 -0.411767 0
M  V30 875 C 71.434 5.94904 -1.44067 0
M  V30 876 N 70.571 6.97414 -0.809781 0
M  V30 877 H 75.411 2.55353 -1.5362 0
M  V30 878 H 72.948 1.25438 -0.768364 0
M  V30 879 H 74.906 4.15679 0.35588 0
M  V30 880 H 73.536 3.11917 0.831122 0
M  V30 881 H 72.588 3.46779 -1.5636 0
M  V30 882 H 73.9 4.63293 -1.84827 0
M  V30 883 H 73.054 6.06696 0.0206623 0
M  V30 884 H 71.793 4.86045 0.401438 0
M  V30 885 H 70.798 5.16544 -1.88316 0
M  V30 886 H 72.023 6.40542 -2.25571 0
M  V30 887 H 69.969 6.55998 -0.0170186 0
M  V30 888 H 69.886 7.40386 -1.52856 0
M  V30 889 H 71.154 7.78463 -0.401999 0
M  V30 890 N 75.3831 0.828654 1.34056 0
M  V30 891 C 76.3311 0.242973 2.31327 0
M  V30 892 C 77.3251 -0.61944 1.57668 0
M  V30 893 O 78.5311 -0.51014 1.7262 0
M  V30 894 H 74.9061 0.059834 0.749616 0
M  V30 895 H 76.8771 1.07809 2.78244 0
M  V30 896 C 75.6261 -0.575733 3.429 0
M  V30 897 H 74.9491 0.0785582 3.99723 0
M  V30 898 H 76.3891 -0.951547 4.13185 0
M  V30 899 C 74.8481 -1.75044 2.87856 0
M  V30 900 O 75.3781 -2.84882 2.83205 0
M  V30 901 N 73.5841 -1.56903 2.44602 0
M  V30 902 H 73.1311 -0.675547 2.48584 0
M  V30 903 H 73.0891 -2.35652 2.08124 0
M  V30 904 N 76.8612 -1.46375 0.584142 0
M  V30 905 C 78.1072 -2.02678 0.0703716 0
M  V30 906 C 78.4402 -1.4545 -1.28678 0
M  V30 907 O 77.7152 -0.62014 -1.84349 0
M  V30 908 C 77.9982 -3.60099 0.00614674 0
M  V30 909 C 77.8512 -4.27709 1.3923 0
M  V30 910 C 79.1702 -4.34598 -0.693742 0
M  V30 911 H 76.2892 -0.736504 0.027047 0
M  V30 912 H 78.9312 -1.74501 0.751615 0
M  V30 913 H 77.0812 -3.84236 -0.574009 0
M  V30 914 H 78.7532 -4.14832 2.01773 0
M  V30 915 H 76.9962 -3.87016 1.95962 0
M  V30 916 H 77.6672 -5.36478 1.29982 0
M  V30 917 H 80.1432 -4.15615 -0.200869 0
M  V30 918 H 79.0192 -5.44318 -0.707714 0
M  V30 919 H 79.2802 -4.05759 -1.75533 0
M  V30 920 N 78.3393 -0.321999 -1.54275 0
M  V30 921 C 79.6163 0.335232 -1.92706 0
M  V30 922 C 79.9963 1.70006 -1.25145 0
M  V30 923 O 79.3443 2.25067 -0.394596 0
M  V30 924 C 79.5543 0.429008 -3.46353 0
M  V30 925 C 80.9023 0.690029 -4.18956 0
M  V30 926 O 81.9263 0.511992 -3.52501 0
M  V30 927 O 80.7853 1.03338 -5.36641 0
M  V30 928 H 77.8793 0.191143 -0.804608 0
M  V30 929 H 80.4253 -0.3716 -1.65581 0
M  V30 930 H 79.1973 -0.529611 -3.87699 0
M  V30 931 H 78.8203 1.18348 -3.79578 0
M  V30 932 N 79.8174 1.5752 -0.0501392 0
M  V30 933 C 81.0634 1.92936 0.624798 0
M  V30 934 C 81.3964 0.928685 1.70555 0
M  V30 935 O 80.6714 -0.0454779 1.94447 0
M  V30 936 C 80.9544 3.38737 1.22185 0
M  V30 937 C 80.8074 4.49552 0.149218 0
M  V30 938 C 82.1264 3.84913 2.13378 0
M  V30 939 H 79.2454 0.701604 0.225657 0
M  V30 940 H 81.8874 1.89671 -0.111693 0
M  V30 941 H 80.0374 3.4165 1.84953 0
M  V30 942 H 81.7094 4.58768 -0.482648 0
M  V30 943 H 79.9524 4.30638 -0.522841 0
M  V30 944 H 80.6234 5.48653 0.606966 0
M  V30 945 H 83.0994 3.8387 1.60572 0
M  V30 946 H 81.9754 4.87584 2.52097 0
M  V30 947 H 82.2364 3.21611 3.03346 0
M  V30 948 N 81.2955 -0.223234 1.56011 0
M  V30 949 C 82.5445 -0.945912 1.78144 0
M  V30 950 C 82.8575 -1.85567 0.618396 0
M  V30 951 O 84.0635 -2.61688 0.723318 0
M  V30 952 C 82.5195 -1.73216 3.15475 0
M  V30 953 C 82.1275 -0.868619 4.39499 0
M  V30 954 C 83.8715 -2.44615 3.46935 0
M  V30 955 C 81.7785 -1.65212 5.67855 0
M  V30 956 H 80.7085 -0.356929 0.664167 0
M  V30 957 H 83.3595 -0.199845 1.82409 0
M  V30 958 H 81.7415 -2.52107 3.05382 0
M  V30 959 H 82.9155 -0.120366 4.60643 0
M  V30 960 H 81.2305 -0.26683 4.15544 0
M  V30 961 H 83.8275 -3.03732 4.40058 0
M  V30 962 H 84.1705 -3.17417 2.69355 0
M  V30 963 H 84.7035 -1.72715 3.58349 0
M  V30 964 H 81.4425 -0.967407 6.48322 0
M  V30 965 H 80.9625 -2.37503 5.50774 0
M  V30 966 H 82.6415 -2.21322 6.07968 0
M  V30 967 N 82.7736 -1.49793 -0.48987 0
M  V30 968 C 84.1846 -1.52914 -1.07118 0
M  V30 969 C 84.5356 -0.321738 -1.93544 0
M  V30 970 O 83.6606 0.567338 -2.08831 0
M  V30 971 C 84.2556 -2.771 -1.94938 0
M  V30 972 C 82.8146 -2.82963 -2.48212 0
M  V30 973 C 81.9616 -2.46972 -1.26096 0
M  V30 974 H 84.9126 -1.56329 -0.273289 0
M  V30 975 H 84.9336 -2.57892 -2.79771 0
M  V30 976 H 84.4456 -3.64959 -1.32009 0
M  V30 977 H 82.5466 -1.99411 -3.14748 0
M  V30 978 H 82.6596 -3.85406 -2.84603 0
M  V30 979 H 81.0236 -1.98994 -1.58976 0
M  V30 980 H 81.8066 -3.37118 -0.648581 0
M  V30 981 N 84.2517 0.741722 -1.39055 0
M  V30 982 C 85.4767 1.53607 -1.39354 0
M  V30 983 C 85.9017 1.88096 0.0116905 0
M  V30 984 O 85.2597 1.5143 0.996924 0
M  V30 985 C 85.3077 2.80441 -2.26682 0
M  V30 986 O 84.4117 3.76088 -1.69208 0
M  V30 987 H 83.7527 0.464142 -0.474835 0
M  V30 988 H 86.2827 0.915665 -1.82967 0
M  V30 989 H 86.2927 3.29246 -2.40959 0
M  V30 990 H 84.9677 2.5467 -3.2881 0
M  V30 991 H 83.5447 3.34833 -1.64138 0
M  V30 992 N 85.7298 1.2412 0.971189 0
M  V30 993 C 86.6778 1.02812 2.08644 0
M  V30 994 C 87.6718 -0.0358403 1.69362 0
M  V30 995 O 88.8778 0.118429 1.7961 0
M  V30 996 H 85.2528 0.315428 0.682649 0
M  V30 997 H 87.2238 1.97397 2.23779 0
M  V30 998 C 85.9728 0.645874 3.41649 0
M  V30 999 H 85.2958 1.45632 3.72332 0
M  V30 1000 H 86.7358 0.536366 4.20594 0
M  V30 1001 C 85.1948 -0.646713 3.30635 0
M  V30 1002 O 85.7248 -1.69338 3.64263 0
M  V30 1003 N 83.9308 -0.626115 2.83775 0
M  V30 1004 H 83.4778 0.225988 2.56607 0
M  V30 1005 H 83.4358 -1.49117 2.76788 0
M  V30 1006 N 87.2079 -1.17134 1.05439 0
M  V30 1007 C 88.1179 -2.24878 0.668365 0
M  V30 1008 C 89.1339 -1.71186 -0.311687 0
M  V30 1009 O 90.3099 -2.00738 -0.163161 0
M  V30 1010 C 87.3749 -3.46662 0.051648 0
M  V30 1011 C 86.4359 -4.15429 1.08246 0
M  V30 1012 C 85.6689 -5.31399 0.495082 0
M  V30 1013 O 85.8919 -5.66153 -0.694743 0
M  V30 1014 O 84.8259 -5.89187 1.23056 0
M  V30 1015 H 88.6519 -2.60189 1.56637 0
M  V30 1016 H 86.2369 -1.24482 0.826104 0
M  V30 1017 H 88.1189 -4.20394 -0.290966 0
M  V30 1018 H 86.7939 -3.13142 -0.819971 0
M  V30 1019 H 85.7009 -3.43704 1.47711 0
M  V30 1020 H 87.0339 -4.52982 1.92532 0
M  V30 1021 N 88.686 -0.835752 -1.33615 0
M  V30 1022 C 89.616 -0.281739 -2.31794 0
M  V30 1023 C 90.597 0.608833 -1.58831 0
M  V30 1024 O 91.782 0.533035 -1.86741 0
M  V30 1025 C 88.912 0.546612 -3.42971 0
M  V30 1026 C 87.866 -0.247904 -4.27281 0
M  V30 1027 C 87.192 0.704001 -5.30045 0
M  V30 1028 C 88.492 -1.46324 -5.01385 0
M  V30 1029 H 90.186 -1.10206 -2.78379 0
M  V30 1030 H 87.732 -0.531388 -1.33837 0
M  V30 1031 H 89.685 0.944467 -4.1068 0
M  V30 1032 H 88.409 1.40011 -2.95067 0
M  V30 1033 H 87.068 -0.627281 -3.61194 0
M  V30 1034 H 86.716 1.55381 -4.78399 0
M  V30 1035 H 86.416 0.176524 -5.87335 0
M  V30 1036 H 87.94 1.09944 -6.0062 0
M  V30 1037 H 89.354 -1.13871 -5.61877 0
M  V30 1038 H 87.751 -1.92728 -5.6831 0
M  V30 1039 H 88.821 -2.23467 -4.30338 0
M  V30 1040 N 90.1641 1.46063 -0.591896 0
M  V30 1041 C 91.3891 2.07226 -0.0850314 0
M  V30 1042 C 91.8141 1.43625 1.21463 0
M  V30 1043 O 91.1721 0.523305 1.73583 0
M  V30 1044 C 91.2201 3.60554 0.0576567 0
M  V30 1045 O 90.3241 3.97128 1.11188 0
M  V30 1046 H 89.6651 0.660615 -0.0669568 0
M  V30 1047 H 92.1951 1.8756 -0.81745 0
M  V30 1048 H 92.2051 4.07165 0.2609 0
M  V30 1049 H 90.8801 4.06235 -0.891416 0
M  V30 1050 H 89.4571 3.62213 0.886356 0
M  V30 1051 N 91.6422 0.330177 1.54103 0
M  V30 1052 C 92.8722 -0.271784 2.04805 0
M  V30 1053 C 93.2802 -1.45816 1.20559 0
M  V30 1054 O 92.6232 -1.82247 0.2306 0
M  V30 1055 C 92.6852 -0.763238 3.51305 0
M  V30 1056 C 92.3492 0.301705 4.56003 0
M  V30 1057 C 93.3462 1.13999 5.07248 0
M  V30 1058 C 91.0312 0.451793 5.00264 0
M  V30 1059 C 93.0252 2.11402 6.01322 0
M  V30 1060 C 90.7122 1.42924 5.94151 0
M  V30 1061 C 91.7102 2.25882 6.44567 0
M  V30 1062 O 91.3982 3.21965 7.3661 0
M  V30 1063 H 91.1302 -0.058693 0.673447 0
M  V30 1064 H 93.6842 0.476395 1.99799 0
M  V30 1065 H 91.9142 -1.56244 3.5373 0
M  V30 1066 H 93.6032 -1.28427 3.85047 0
M  V30 1067 H 94.3692 1.03505 4.73827 0
M  V30 1068 H 90.2482 -0.184044 4.60632 0
M  V30 1069 H 93.7922 2.76192 6.40596 0
M  V30 1070 H 89.6892 1.53479 6.26988 0
M  V30 1071 H 90.4572 3.17281 7.54503 0
M  V30 1072 N 93.1203 -1.57491 0.0584922 0
M  V30 1073 C 94.3503 -1.9701 -0.622134 0
M  V30 1074 C 94.7583 -0.935034 -1.6448 0
M  V30 1075 O 94.1013 0.0882904 -1.83488 0
M  V30 1076 C 94.1633 -3.32794 -1.35972 0
M  V30 1077 C 93.8273 -4.54343 -0.492043 0
M  V30 1078 C 94.8243 -5.19323 0.244901 0
M  V30 1079 C 92.5093 -5.00534 -0.420821 0
M  V30 1080 C 94.5033 -6.28835 1.04143 0
M  V30 1081 C 92.1903 -6.09921 0.379389 0
M  V30 1082 C 93.1883 -6.73933 1.10919 0
M  V30 1083 O 92.8763 -7.81216 1.89623 0
M  V30 1084 H 92.6083 -0.653127 -0.174359 0
M  V30 1085 H 95.1623 -2.05029 0.123418 0
M  V30 1086 H 93.3923 -3.21351 -2.15105 0
M  V30 1087 H 95.0813 -3.5701 -1.93129 0
M  V30 1088 H 95.8473 -4.8459 0.19939 0
M  V30 1089 H 91.7263 -4.50496 -0.978474 0
M  V30 1090 H 95.2703 -6.7873 1.61157 0
M  V30 1091 H 91.1673 -6.44089 0.426512 0
M  V30 1092 H 91.9353 -7.98029 1.81913 0
M  V30 1093 N 94.5984 0.214957 -1.56127 0
M  V30 1094 C 95.8754 0.963093 -1.70247 0
M  V30 1095 C 96.2554 2.02166 -0.60764 0
M  V30 1096 O 95.6034 2.25244 0.384385 0
M  V30 1097 C 95.8134 1.56756 -3.11815 0
M  V30 1098 C 97.1614 2.0573 -3.7143 0
M  V30 1099 O 98.1854 1.66637 -3.14818 0
M  V30 1100 O 97.0444 2.77603 -4.70743 0
M  V30 1101 H 94.1384 0.450321 -0.693643 0
M  V30 1102 H 96.6844 0.206219 -1.68442 0
M  V30 1103 H 95.4564 0.803533 -3.82961 0
M  V30 1104 H 95.0794 2.3898 -3.17765 0
M  V30 1105 N 96.0765 1.50051 0.48192 0
M  V30 1106 C 97.3235 1.60498 1.23477 0
M  V30 1107 C 97.6515 0.300331 1.92167 0
M  V30 1108 O 96.9065 -0.713094 1.82246 0
M  V30 1109 C 97.2055 2.72717 2.30998 0
M  V30 1110 C 96.8715 4.13572 1.79636 0
M  V30 1111 C 95.5335 4.519 1.65348 0
M  V30 1112 C 97.8855 5.01649 1.41412 0
M  V30 1113 C 95.2135 5.76057 1.11244 0
M  V30 1114 C 97.5655 6.26343 0.887538 0
M  V30 1115 C 96.2295 6.63483 0.731207 0
M  V30 1116 H 95.4995 0.587303 0.451836 0
M  V30 1117 H 98.1465 1.83948 0.532468 0
M  V30 1118 H 96.4515 2.43312 3.07094 0
M  V30 1119 H 98.1485 2.78006 2.88988 0
M  V30 1120 H 94.7385 3.83329 1.91721 0
M  V30 1121 H 98.9225 4.72679 1.51289 0
M  V30 1122 H 94.1785 6.03516 0.978686 0
M  V30 1123 H 98.3525 6.93958 0.582654 0
M  V30 1124 H 95.9795 7.59568 0.309806 0
M  V30 1125 N 97.5546 -0.734337 1.39446 0
M  V30 1126 C 98.8006 -1.49613 1.36908 0
M  V30 1127 C 99.1336 -1.94169 -0.0347829 0
M  V30 1128 O 98.4086 -1.66833 -0.999847 0
M  V30 1129 C 98.6916 -2.73534 2.34203 0
M  V30 1130 C 98.5446 -2.34993 3.83534 0
M  V30 1131 C 99.8636 -3.75635 2.29317 0
M  V30 1132 H 96.9826 -0.542714 0.498629 0
M  V30 1133 H 99.6246 -0.839597 1.70443 0
M  V30 1134 H 97.7746 -3.29553 2.05736 0
M  V30 1135 H 99.4466 -1.84601 4.22753 0
M  V30 1136 H 97.6896 -1.67213 4.00278 0
M  V30 1137 H 98.3606 -3.23738 4.47099 0
M  V30 1138 H 100.837 -3.29203 2.54489 0
M  V30 1139 H 99.7126 -4.60008 2.99472 0
M  V30 1140 H 99.9736 -4.22603 1.29842 0
M  V30 1141 N 99.0327 -1.24633 -0.964593 0
M  V30 1142 C 99.9627 -1.06611 -2.07741 0
M  V30 1143 C 100.944 0.0218666 -1.70086 0
M  V30 1144 O 102.129 -0.145793 -1.93652 0
M  V30 1145 C 99.2587 -0.673444 -3.40708 0
M  V30 1146 C 98.2127 -1.71054 -3.92332 0
M  V30 1147 C 97.5387 -1.17285 -5.21678 0
M  V30 1148 C 98.8387 -3.10718 -4.19824 0
M  V30 1149 H 100.533 -1.99693 -2.23076 0
M  V30 1150 H 98.0787 -0.96152 -1.07195 0
M  V30 1151 H 100.032 -0.534345 -4.17998 0
M  V30 1152 H 98.7557 0.293073 -3.25282 0
M  V30 1153 H 97.4147 -1.83791 -3.17201 0
M  V30 1154 H 97.0627 -0.196847 -5.02615 0
M  V30 1155 H 96.7627 -1.86592 -5.57187 0
M  V30 1156 H 98.2867 -1.04593 -6.01575 0
M  V30 1157 H 99.7007 -3.01192 -4.87808 0
M  V30 1158 H 98.0977 -3.77406 -4.66567 0
M  V30 1159 H 99.1677 -3.58524 -3.26479 0
M  V30 1160 N 100.511 1.16574 -1.06058 0
M  V30 1161 C 101.788 1.83048 -0.689416 0
M  V30 1162 C 102.168 1.94122 0.829443 0
M  V30 1163 O 101.516 1.48249 1.7388 0
M  V30 1164 C 101.726 3.20186 -1.38859 0
M  V30 1165 C 103.074 3.95989 -1.53226 0
M  V30 1166 O 104.098 3.29696 -1.3483 0
M  V30 1167 O 102.957 5.14813 -1.83384 0
M  V30 1168 H 100.051 0.790258 -0.243764 0
M  V30 1169 H 102.597 1.23797 -1.16071 0
M  V30 1170 H 101.369 3.07146 -2.4244 0
M  V30 1171 H 100.992 3.87112 -0.907216 0
M  V30 1172 N 101.989 0.842826 1.3317 0
M  V30 1173 C 103.217 0.454055 2.01856 0
M  V30 1174 C 103.632 -0.94587 1.63397 0
M  V30 1175 O 102.989 -1.61534 0.849302 0
M  V30 1176 C 103.04 0.569715 3.56982 0
M  V30 1177 O 102.761 1.91448 3.94055 0
M  V30 1178 C 104.262 0.178412 4.42941 0
M  V30 1179 H 101.482 0.17979 0.646465 0
M  V30 1180 H 104.026 1.1365 1.70012 0
M  V30 1181 H 102.181 -0.0648587 3.87346 0
M  V30 1182 H 102.595 1.90282 4.88767 0
M  V30 1183 H 104.069 0.310376 5.51127 0
M  V30 1184 H 104.546 -0.880056 4.30293 0
M  V30 1185 H 105.152 0.787579 4.17944 0
M  V30 1186 N 103.467 -1.45747 0.599634 0
M  V30 1187 C 104.43 -2.28917 -0.113835 0
M  V30 1188 C 105.43 -1.3933 -0.802729 0
M  V30 1189 O 106.62 -1.61534 -0.652103 0
M  V30 1190 C 103.752 -3.20152 -1.17114 0
M  V30 1191 H 104.945 -2.93478 0.617289 0
M  V30 1192 H 102.498 -1.52137 0.358327 0
M  V30 1193 H 103.233 -2.60374 -1.93329 0
M  V30 1194 H 103.018 -3.86133 -0.681468 0
M  V30 1195 H 104.508 -3.82708 -1.67105 0
M  V30 1196 N 104.945 -0.338344 -1.53925 0
M  V30 1197 C 106.191 0.260143 -2.01125 0
M  V30 1198 C 106.524 1.50617 -1.22589 0
M  V30 1199 O 105.799 1.91979 -0.312113 0
M  V30 1200 C 106.082 0.579499 -3.55407 0
M  V30 1201 C 105.935 -0.678264 -4.44657 0
M  V30 1202 C 107.254 1.39122 -4.17532 0
M  V30 1203 H 104.373 0.0930772 -0.731099 0
M  V30 1204 H 107.015 -0.457852 -1.84401 0
M  V30 1205 H 105.165 1.19118 -3.69788 0
M  V30 1206 H 106.837 -1.31631 -4.42121 0
M  V30 1207 H 105.08 -1.3042 -4.13731 0
M  V30 1208 H 105.751 -0.410143 -5.50474 0
M  V30 1209 H 108.227 0.874035 -4.06817 0
M  V30 1210 H 107.103 1.58342 -5.25565 0
M  V30 1211 H 107.364 2.39178 -3.71815 0
M  V30 1212 N 106.423 1.57458 -0.0668435 0
M  V30 1213 C 107.356 2.08033 0.93795 0
M  V30 1214 C 108.334 0.984321 1.29421 0
M  V30 1215 O 109.518 1.25736 1.40437 0
M  V30 1216 C 106.645 2.53388 2.24749 0
M  V30 1217 C 105.691 3.74376 2.04315 0
M  V30 1218 S 106.524 5.19303 1.30706 0
M  V30 1219 C 107.68 5.67986 2.62951 0
M  V30 1220 H 107.913 2.92935 0.50759 0
M  V30 1221 H 105.446 1.5371 0.145804 0
M  V30 1222 H 107.404 2.8018 3.00016 0
M  V30 1223 H 106.065 1.68763 2.64911 0
M  V30 1224 H 105.258 4.04083 3.01218 0
M  V30 1225 H 104.86 3.47931 1.37186 0
M  V30 1226 H 107.152 5.74528 3.5906 0
M  V30 1227 H 108.095 6.66955 2.3786 0
M  V30 1228 H 108.503 4.95781 2.69929 0
M  V30 1229 N 107.901 -0.206675 1.56239 0
M  V30 1230 C 109.147 -0.930218 1.80208 0
M  V30 1231 C 109.48 -1.83387 0.638981 0
M  V30 1232 O 108.755 -1.91119 -0.361066 0
M  V30 1233 C 109.038 -1.75641 3.1436 0
M  V30 1234 C 108.891 -0.878257 4.41142 0
M  V30 1235 C 110.21 -2.73129 3.45092 0
M  V30 1236 H 107.329 -0.336742 0.655571 0
M  V30 1237 H 109.971 -0.198222 1.88963 0
M  V30 1238 H 108.121 -2.38048 3.07027 0
M  V30 1239 H 109.793 -0.269787 4.6051 0
M  V30 1240 H 108.036 -0.184385 4.33408 0
M  V30 1241 H 108.707 -1.49106 5.3148 0
M  V30 1242 H 111.183 -2.20856 3.52649 0
M  V30 1243 H 110.059 -3.28028 4.40101 0
M  V30 1244 H 110.32 -3.51606 2.68003 0
M  V30 1245 N 109.379 -1.50304 -0.473955 0
M  V30 1246 C 110.627 -1.60832 -1.22382 0
M  V30 1247 C 110.948 -0.30939 -1.9253 0
M  V30 1248 O 110.218 0.67296 -1.83978 0
M  V30 1249 H 108.798 -0.592652 -0.454723 0
M  V30 1250 H 111.46 -1.87068 -0.546968 0
M  V30 1251 H 110.556 -2.41803 -1.97327 0
M  V30 1252 N 110.857 0.726932 -1.39834 0
M  V30 1253 C 111.82 1.82269 -1.38962 0
M  V30 1254 C 112.82 1.58248 -0.285334 0
M  V30 1255 O 114.01 1.65499 -0.54366 0
M  V30 1256 C 111.142 3.20186 -1.17019 0
M  V30 1257 H 112.335 1.84443 -2.36476 0
M  V30 1258 H 109.888 0.931416 -1.25516 0
M  V30 1259 H 110.623 3.23669 -0.202204 0
M  V30 1260 H 110.408 3.3902 -1.96998 0
M  V30 1261 H 111.898 4.00235 -1.1917 0
M  V30 1262 N 112.336 1.25143 0.95797 0
M  V30 1263 C 113.582 1.09855 1.70469 0
M  V30 1264 C 113.915 -0.360187 1.90831 0
M  V30 1265 O 113.19 -1.26568 1.47685 0
M  V30 1266 C 113.473 1.8497 3.08963 0
M  V30 1267 C 113.326 3.38652 2.96032 0
M  V30 1268 C 114.645 1.63016 4.08795 0
M  V30 1269 H 111.764 0.400465 0.618706 0
M  V30 1270 H 114.406 1.53933 1.11376 0
M  V30 1271 H 112.556 1.47505 3.59409 0
M  V30 1272 H 114.228 3.85772 2.52938 0
M  V30 1273 H 112.471 3.66534 2.32025 0
M  V30 1274 H 113.142 3.8642 3.94187 0
M  V30 1275 H 115.618 1.95625 3.67247 0
M  V30 1276 H 114.494 2.18015 5.03747 0
M  V30 1277 H 114.755 0.570692 4.38401 0
M  V30 1278 N 113.814 -1.1601 1.06675 0
M  V30 1279 C 115.225 -1.68235 0.809565 0
M  V30 1280 C 115.576 -1.8454 -0.666303 0
M  V30 1281 O 114.701 -1.54374 -1.5165 0
M  V30 1282 C 115.296 -3.05585 1.46299 0
M  V30 1283 C 113.855 -3.54915 1.25349 0
M  V30 1284 C 113.002 -2.30804 1.53703 0
M  V30 1285 H 115.953 -1.00318 1.22971 0
M  V30 1286 H 115.974 -3.70174 0.880431 0
M  V30 1287 H 115.486 -2.93686 2.53713 0
M  V30 1288 H 113.587 -3.72067 0.199261 0
M  V30 1289 H 113.7 -4.36774 1.9689 0
M  V30 1290 H 112.064 -2.36007 0.957739 0
M  V30 1291 H 112.847 -2.21499 2.62284 0
M  V30 1292 N 115.292 -0.849877 -1.32721 0
M  V30 1293 C 116.202 -0.293791 -2.32753 0
M  V30 1294 C 117.218 0.585906 -1.63839 0
M  V30 1295 O 118.394 0.487413 -1.95413 0
M  V30 1296 C 115.459 0.512752 -3.42887 0
M  V30 1297 C 114.52 -0.39252 -4.27502 0
M  V30 1298 C 113.753 0.375625 -5.32377 0
M  V30 1299 O 113.976 1.60613 -5.4732 0
M  V30 1300 O 112.91 -0.256094 -6.01355 0
M  V30 1301 H 116.736 -1.12242 -2.82197 0
M  V30 1302 H 114.321 -0.612685 -1.36259 0
M  V30 1303 H 116.203 0.970704 -4.10067 0
M  V30 1304 H 114.878 1.31826 -2.95641 0
M  V30 1305 H 113.785 -0.898547 -3.63149 0
M  V30 1306 H 115.118 -1.16309 -4.7826 0
M  V30 1307 N 116.77 1.45427 -0.607355 0
M  V30 1308 C 118.186 1.57283 -0.270985 0
M  V30 1309 C 118.386 1.59875 1.22647 0
M  V30 1310 O 117.442 1.52893 2.00948 0
M  V30 1311 C 118.755 2.85566 -0.941952 0
M  V30 1312 C 120.303 2.9924 -0.917849 0
M  V30 1313 C 120.778 4.30293 -1.56882 0
M  V30 1314 N 122.269 4.37051 -1.5343 0
M  V30 1315 C 123.004 5.37123 -2.00715 0
M  V30 1316 N 122.5 6.43734 -2.56084 0
M  V30 1317 N 124.293 5.28479 -1.91484 0
M  V30 1318 H 116.444 1.41988 -1.57966 0
M  V30 1319 H 118.707 0.67885 -0.661715 0
M  V30 1320 H 118.413 2.8955 -1.99633 0
M  V30 1321 H 118.287 3.74322 -0.465096 0
M  V30 1322 H 120.674 2.94822 0.127984 0
M  V30 1323 H 120.755 2.11895 -1.43297 0
M  V30 1324 H 120.399 4.35469 -2.61398 0
M  V30 1325 H 120.329 5.16454 -1.02873 0
M  V30 1326 H 122.82 3.60615 -1.12982 0
M  V30 1327 H 123.133 7.16341 -2.89958 0
M  V30 1328 H 121.478 6.44485 -2.60122 0
M  V30 1329 H 124.669 4.44098 -1.47967 0
M  V30 1330 H 124.842 6.0632 -2.28648 0
M  V30 1331 N 118.248 0.346503 1.53744 0
M  V30 1332 C 119.495 -0.249104 2.00962 0
M  V30 1333 C 119.823 -1.5032 1.23426 0
M  V30 1334 O 119.078 -1.93217 0.310761 0
M  V30 1335 C 119.377 -0.605809 3.52228 0
M  V30 1336 C 119.043 0.551747 4.47512 0
M  V30 1337 C 117.705 0.86941 4.73281 0
M  V30 1338 C 120.057 1.32818 5.03993 0
M  V30 1339 C 117.385 1.96582 5.52786 0
M  V30 1340 C 119.737 2.41486 5.84694 0
M  V30 1341 C 118.401 2.73808 6.08757 0
M  V30 1342 H 117.671 -0.0911538 0.735372 0
M  V30 1343 H 120.318 0.475027 1.85515 0
M  V30 1344 H 118.623 -1.4107 3.65522 0
M  V30 1345 H 120.32 -1.07858 3.86222 0
M  V30 1346 H 116.91 0.294102 4.2759 0
M  V30 1347 H 121.094 1.09602 4.84047 0
M  V30 1348 H 116.35 2.22045 5.69654 0
M  V30 1349 H 120.524 3.02078 6.27473 0
M  V30 1350 H 118.151 3.58892 6.7015 0
M  V30 1351 N 119.726 -1.57421 0.075193 0
M  V30 1352 C 120.974 -1.93236 -0.591974 0
M  V30 1353 C 121.295 -0.956241 -1.69944 0
M  V30 1354 O 120.565 -0.00494792 -1.95899 0
M  V30 1355 H 119.145 -0.713355 -0.22166 0
M  V30 1356 H 121.807 -1.9444 0.133848 0
M  V30 1357 H 120.903 -2.95131 -1.01509 0
M  V30 1358 N 121.204 0.198386 -1.56346 0
M  V30 1359 C 122.114 1.2664 -1.97483 0
M  V30 1360 C 123.13 1.49989 -0.882002 0
M  V30 1361 O 124.306 1.62668 -1.18748 0
M  V30 1362 C 121.371 2.59141 -2.30319 0
M  V30 1363 C 120.432 2.43892 -3.53292 0
M  V30 1364 C 119.665 3.70074 -3.84553 0
M  V30 1365 O 119.888 4.74101 -3.1715 0
M  V30 1366 O 118.822 3.658 -4.7799 0
M  V30 1367 H 122.648 0.947304 -2.88548 0
M  V30 1368 H 120.233 0.403123 -1.43859 0
M  V30 1369 H 122.115 3.37352 -2.5253 0
M  V30 1370 H 120.79 2.90684 -1.42423 0
M  V30 1371 H 119.697 1.63803 -3.36332 0
M  V30 1372 H 121.03 2.17282 -4.41644 0
M  V30 1373 N 122.682 1.50554 0.465978 0
M  V30 1374 C 123.912 1.65323 1.23903 0
M  V30 1375 C 124.32 0.338051 1.86155 0
M  V30 1376 O 123.663 -0.690518 1.70228 0
M  V30 1377 C 123.725 2.69048 2.3844 0
M  V30 1378 C 123.389 4.12462 1.96784 0
M  V30 1379 C 124.386 4.98168 1.48745 0
M  V30 1380 C 122.071 4.58407 2.05349 0
M  V30 1381 C 124.065 6.27868 1.0982 0
M  V30 1382 C 121.752 5.88112 1.66035 0
M  V30 1383 C 122.75 6.72668 1.18349 0
M  V30 1384 O 122.438 7.99951 0.795825 0
M  V30 1385 H 122.17 0.558629 0.38067 0
M  V30 1386 H 124.724 1.97561 0.562022 0
M  V30 1387 H 122.954 2.32062 3.09328 0
M  V30 1388 H 124.643 2.72985 3.0039 0
M  V30 1389 H 125.409 4.63885 1.41546 0
M  V30 1390 H 121.288 3.92735 2.41414 0
M  V30 1391 H 124.832 6.93819 0.725293 0
M  V30 1392 H 120.729 6.21914 1.72895 0
M  V30 1393 H 121.497 8.13265 0.924222 0
M  V30 1394 N 124.16 -0.719506 1.40217 0
M  V30 1395 C 125.576 -1.02707 1.22161 0
M  V30 1396 C 125.776 -2.0128 0.0940557 0
M  V30 1397 O 124.832 -2.46452 -0.549318 0
M  V30 1398 C 126.145 -1.57454 2.56181 0
M  V30 1399 C 127.693 -1.69458 2.63159 0
M  V30 1400 C 128.168 -2.27611 3.97438 0
M  V30 1401 N 129.659 -2.35002 3.99159 0
M  V30 1402 C 130.394 -2.80972 4.99842 0
M  V30 1403 N 129.89 -3.26723 6.10921 0
M  V30 1404 N 131.683 -2.80321 4.87213 0
M  V30 1405 H 123.834 -0.0660492 2.12297 0
M  V30 1406 H 126.097 -0.0919077 0.943534 0
M  V30 1407 H 125.803 -0.924873 3.39321 0
M  V30 1408 H 125.677 -2.56036 2.76993 0
M  V30 1409 H 128.064 -2.33543 1.80393 0
M  V30 1410 H 128.145 -0.694867 2.46181 0
M  V30 1411 H 127.789 -1.6415 4.80643 0
M  V30 1412 H 127.719 -3.2829 4.11744 0
M  V30 1413 H 130.21 -2.02685 3.18947 0
M  V30 1414 H 130.523 -3.60355 6.8364 0
M  V30 1415 H 128.868 -3.24692 6.14492 0
M  V30 1416 H 132.059 -2.43912 3.9953 0
M  V30 1417 H 132.232 -3.15831 5.65822 0
M  V30 1418 N 125.638 -1.25649 -0.95132 0
M  V30 1419 C 126.886 -1.10375 -1.69298 0
M  V30 1420 C 127.207 0.355339 -1.91735 0
M  V30 1421 O 126.477 1.25188 -1.50681 0
M  V30 1422 H 125.057 -0.405461 -0.627384 0
M  V30 1423 H 127.719 -1.57823 -1.14358 0
M  V30 1424 H 126.815 -1.61465 -2.67087 0
M  V30 1425 N 127.117 1.15442 -1.07289 0
M  V30 1426 C 128.047 2.22312 -0.714107 0
M  V30 1427 C 129.028 1.67467 0.298155 0
M  V30 1428 O 130.213 1.93445 0.171048 0
M  V30 1429 C 127.343 3.47124 -0.110448 0
M  V30 1430 C 126.297 4.14926 -1.04979 0
M  V30 1431 C 125.623 5.33807 -0.308924 0
M  V30 1432 C 126.923 4.64762 -2.38314 0
M  V30 1433 H 128.617 2.5258 -1.6076 0
M  V30 1434 H 126.163 1.21404 -0.77441 0
M  V30 1435 H 128.116 4.21124 0.152482 0
M  V30 1436 H 126.84 3.16187 0.81812 0
M  V30 1437 H 125.499 3.42866 -1.29764 0
M  V30 1438 H 125.147 4.99126 0.623084 0
M  V30 1439 H 124.847 5.80113 -0.935036 0
M  V30 1440 H 126.371 6.10576 -0.0537771 0
M  V30 1441 H 127.785 5.30292 -2.1786 0
M  V30 1442 H 126.182 5.21728 -2.96514 0
M  V30 1443 H 127.252 3.80434 -3.00663 0
M  V30 1444 N 128.595 0.856903 1.32268 0
M  V30 1445 C 129.82 0.474569 2.01897 0
M  V30 1446 C 130.245 -0.921766 1.63967 0
M  V30 1447 O 129.603 -1.60589 0.84148 0
M  V30 1448 C 129.651 0.623799 3.55164 0
M  V30 1449 O 128.755 -0.342459 4.10976 0
M  V30 1450 H 128.096 0.190422 0.63611 0
M  V30 1451 H 130.626 1.15672 1.68764 0
M  V30 1452 H 130.636 0.512169 4.04773 0
M  V30 1453 H 129.311 1.64202 3.82113 0
M  V30 1454 H 127.888 -0.18688 3.72431 0
M  V30 1455 N 130.073 -1.45103 0.615059 0
M  V30 1456 C 131.301 -2.06553 0.11977 0
M  V30 1457 C 131.716 -1.45842 -1.19898 0
M  V30 1458 O 131.073 -0.575325 -1.73194 0
M  V30 1459 C 131.124 -3.61495 -0.018364 0
M  V30 1460 O 130.845 -4.19942 1.24822 0
M  V30 1461 C 132.346 -4.39947 -0.544237 0
M  V30 1462 H 129.566 -0.667096 0.0722739 0
M  V30 1463 H 132.11 -1.8623 0.84491 0
M  V30 1464 H 130.265 -3.81135 -0.693865 0
M  V30 1465 H 130.679 -5.13204 1.0827 0
M  V30 1466 H 132.153 -5.48838 -0.589953 0
M  V30 1467 H 132.63 -4.10255 -1.56805 0
M  V30 1468 H 133.236 -4.25188 0.0974703 0
M  V30 1469 N 131.551 -0.354651 -1.53558 0
M  V30 1470 C 132.781 0.239167 -2.05211 0
M  V30 1471 C 133.189 1.43879 -1.22863 0
M  V30 1472 O 132.532 1.81857 -0.259565 0
M  V30 1473 C 132.594 0.707251 -3.52474 0
M  V30 1474 C 132.258 -0.374212 -4.55465 0
M  V30 1475 C 133.255 -1.22054 -5.0537 0
M  V30 1476 C 130.94 -0.531323 -4.99482 0
M  V30 1477 C 132.934 -2.20942 -5.97882 0
M  V30 1478 C 130.621 -1.52358 -5.91802 0
M  V30 1479 C 131.619 -2.36108 -6.40892 0
M  V30 1480 O 131.307 -3.33643 -7.31394 0
M  V30 1481 H 131.039 0.0479716 -0.674296 0
M  V30 1482 H 133.593 -0.508121 -1.99016 0
M  V30 1483 H 131.823 1.50596 -3.56171 0
M  V30 1484 H 133.512 1.22285 -3.87042 0
M  V30 1485 H 134.278 -1.1103 -4.7212 0
M  V30 1486 H 130.157 0.110738 -4.60867 0
M  V30 1487 H 133.701 -2.86348 -6.36121 0
M  V30 1488 H 129.598 -1.63434 -6.24467 0
M  V30 1489 H 130.366 -3.29244 -7.4936 0
M  V30 1490 N 133.029 1.57378 -0.0835403 0
M  V30 1491 C 134.276 1.9393 0.58287 0
M  V30 1492 C 134.604 0.964455 1.68904 0
M  V30 1493 O 133.859 -0.0179474 1.95692 0
M  V30 1494 C 134.158 3.37063 1.1884 0
M  V30 1495 C 133.824 4.50424 0.207194 0
M  V30 1496 C 132.486 4.81159 -0.0627115 0
M  V30 1497 C 134.838 5.19136 -0.463426 0
M  V30 1498 C 132.166 5.77939 -1.01012 0
M  V30 1499 C 134.518 6.16931 -1.39924 0
M  V30 1500 C 133.182 6.46078 -1.67749 0
M  V30 1501 H 132.452 0.70964 0.213287 0
M  V30 1502 H 135.099 1.90856 -0.156916 0
M  V30 1503 H 133.404 3.3666 2.00418 0
M  V30 1504 H 135.101 3.6264 1.71153 0
M  V30 1505 H 131.691 4.2646 0.427747 0
M  V30 1506 H 135.875 4.95576 -0.268034 0
M  V30 1507 H 131.131 5.98842 -1.23283 0
M  V30 1508 H 135.305 6.69273 -1.92476 0
M  V30 1509 H 132.932 7.2088 -2.41321 0
M  V30 1510 N 134.507 -0.190092 1.56449 0
M  V30 1511 C 135.784 -0.935886 1.71757 0
M  V30 1512 C 136.164 -2.01173 0.639726 0
M  V30 1513 O 135.512 -2.25827 -0.348502 0
M  V30 1514 C 135.722 -1.51775 3.1427 0
M  V30 1515 C 137.07 -1.99794 3.74656 0
M  V30 1516 O 138.094 -1.61607 3.1743 0
M  V30 1517 O 136.953 -2.70079 4.751 0
M  V30 1518 H 134.047 -0.439229 0.700719 0
M  V30 1519 H 136.593 -0.179395 1.68749 0
M  V30 1520 H 135.365 -0.742505 3.84191 0
M  V30 1521 H 134.988 -2.33894 3.21527 0
M  V30 1522 N 135.985 -1.50799 -0.457987 0
M  V30 1523 C 136.918 -1.65273 -1.57353 0
M  V30 1524 C 137.896 -0.500578 -1.54703 0
M  V30 1525 O 139.08 -0.721781 -1.74134 0
M  V30 1526 C 136.207 -1.64737 -2.95938 0
M  V30 1527 C 135.253 -2.8567 -3.16693 0
M  V30 1528 S 136.086 -4.46791 -2.95191 0
M  V30 1529 C 137.242 -4.48968 -4.36095 0
M  V30 1530 H 137.475 -2.59633 -1.44838 0
M  V30 1531 H 135.008 -1.40225 -0.64625 0
M  V30 1532 H 136.966 -1.65112 -3.7583 0
M  V30 1533 H 135.627 -0.715899 -3.05833 0
M  V30 1534 H 134.82 -2.81637 -4.17967 0
M  V30 1535 H 134.422 -2.8293 -2.44594 0
M  V30 1536 H 136.714 -4.23337 -5.28954 0
M  V30 1537 H 137.657 -5.50664 -4.45168 0
M  V30 1538 H 138.065 -3.78522 -4.18786 0
M  V30 1539 N 137.463 0.71206 -1.40597 0
M  V30 1540 C 138.426 1.80785 -1.40888 0
M  V30 1541 C 139.426 1.57937 -0.302103 0
M  V30 1542 O 140.616 1.64913 -0.561182 0
M  V30 1543 C 137.748 3.18927 -1.20409 0
M  V30 1544 H 138.941 1.81924 -2.38419 0
M  V30 1545 H 136.494 0.91805 -1.26497 0
M  V30 1546 H 137.229 3.23436 -0.236522 0
M  V30 1547 H 137.014 3.36911 -2.00582 0
M  V30 1548 H 138.504 3.98949 -1.23408 0
M  V30 1549 N 138.941 1.26152 0.944643 0
M  V30 1550 C 140.357 1.03189 1.21754 0
M  V30 1551 C 140.557 -0.245112 2.00004 0
M  V30 1552 O 139.613 -0.955176 2.33736 0
M  V30 1553 C 140.926 2.26119 1.98219 0
M  V30 1554 C 142.474 2.30984 2.11224 0
M  V30 1555 C 142.949 3.53597 2.91089 0
M  V30 1556 N 144.44 3.54053 2.98664 0
M  V30 1557 C 145.175 4.45593 3.60881 0
M  V30 1558 N 144.671 5.47416 4.24626 0
M  V30 1559 N 146.464 4.33252 3.58119 0
M  V30 1560 H 138.615 2.08177 0.421437 0
M  V30 1561 H 140.878 0.914723 0.248969 0
M  V30 1562 H 140.584 3.18984 1.48128 0
M  V30 1563 H 140.458 2.3009 2.98895 0
M  V30 1564 H 142.845 1.38635 2.60508 0
M  V30 1565 H 142.926 2.31026 1.09821 0
M  V30 1566 H 142.57 4.46273 2.42493 0
M  V30 1567 H 142.5 3.50802 3.92741 0
M  V30 1568 H 144.991 2.80403 2.53343 0
M  V30 1569 H 145.304 6.13459 4.69987 0
M  V30 1570 H 143.649 5.51278 4.23223 0
M  V30 1571 H 146.84 3.52924 3.0751 0
M  V30 1572 H 147.013 5.04786 4.06319 0
M  V30 1573 N 140.419 -1.14872 1.07899 0
M  V30 1574 C 141.667 -1.85422 0.803941 0
M  V30 1575 C 141.988 -1.83051 -0.67211 0
M  V30 1576 O 141.258 -1.27532 -1.48703 0
M  V30 1577 H 139.838 -0.686537 0.294408 0
M  V30 1578 H 142.5 -1.39226 1.3639 0
M  V30 1579 H 141.596 -2.90399 1.14346 0
M  V30 1580 N 141.898 -0.863906 -1.31812 0
M  V30 1581 C 143.146 -0.470904 -1.96537 0
M  V30 1582 C 143.467 0.978771 -1.68657 0
M  V30 1583 O 142.737 1.6853 -0.998717 0
M  V30 1584 H 141.317 -0.171148 -0.72713 0
M  V30 1585 H 143.979 -1.10236 -1.60729 0
M  V30 1586 H 143.075 -0.623616 -3.05806 0
M  V30 1587 N 143.376 1.44774 -0.622745 0
M  V30 1588 C 144.323 2.30635 0.0871679 0
M  V30 1589 C 145.293 1.42994 0.845097 0
M  V30 1590 O 146.478 1.71907 0.827812 0
M  V30 1591 C 143.618 3.28144 1.06844 0
M  V30 1592 C 142.731 4.30888 0.309809 0
M  V30 1593 C 141.866 5.15494 1.28215 0
M  V30 1594 C 140.905 6.09953 0.512198 0
M  V30 1595 N 140.042 6.87287 1.43458 0
M  V30 1596 H 144.882 2.90803 -0.650974 0
M  V30 1597 H 142.419 1.43286 -0.33281 0
M  V30 1598 H 144.377 3.83157 1.65066 0
M  V30 1599 H 143.007 2.69695 1.77382 0
M  V30 1600 H 142.059 3.78414 -0.388181 0
M  V30 1601 H 143.371 4.97955 -0.290254 0
M  V30 1602 H 142.525 5.74983 1.93596 0
M  V30 1603 H 141.264 4.48481 1.91614 0
M  V30 1604 H 140.269 5.49581 -0.155151 0
M  V30 1605 H 141.494 6.78999 -0.116958 0
M  V30 1606 H 139.44 6.2295 2.05594 0
M  V30 1607 H 139.357 7.50763 0.888335 0
M  V30 1608 H 140.625 7.51306 2.07749 0
M  V30 1609 N 144.854 0.36279 1.53368 0
M  V30 1610 C 145.817 -0.472679 2.24273 0
M  V30 1611 C 146.817 -1.012 1.24961 0
M  V30 1612 O 148.007 -0.898194 1.49259 0
M  V30 1613 C 145.139 -1.66039 2.97731 0
M  V30 1614 H 146.332 0.14773 2.99536 0
M  V30 1615 H 143.885 0.114434 1.55881 0
M  V30 1616 H 144.62 -2.31896 2.26704 0
M  V30 1617 H 144.405 -1.28066 3.70596 0
M  V30 1618 H 145.895 -2.25252 3.51641 0
M  V30 1619 N 146.332 -1.57332 0.0918853 0
M  V30 1620 C 147.262 -2.16872 -0.865371 0
M  V30 1621 C 148.243 -1.10118 -1.29646 0
M  V30 1622 O 149.428 -1.38242 -1.36392 0
M  V30 1623 C 146.558 -2.74649 -2.12569 0
M  V30 1624 C 145.512 -3.86747 -1.83333 0
M  V30 1625 C 144.838 -4.31212 -3.16166 0
M  V30 1626 C 146.138 -5.10089 -1.1228 0
M  V30 1627 H 147.832 -2.97114 -0.369307 0
M  V30 1628 H 145.378 -1.42918 -0.176194 0
M  V30 1629 H 147.331 -3.14952 -2.7997 0
M  V30 1630 H 146.055 -1.91657 -2.64452 0
M  V30 1631 H 144.714 -3.46978 -1.18331 0
M  V30 1632 H 144.362 -3.45115 -3.6593 0
M  V30 1633 H 144.062 -5.06788 -2.97388 0
M  V30 1634 H 145.586 -4.74146 -3.84731 0
M  V30 1635 H 147 -5.47582 -1.69785 0
M  V30 1636 H 145.397 -5.91073 -1.03693 0
M  V30 1637 H 146.467 -4.84786 -0.105041 0
M  V30 1638 N 147.81 0.181792 -1.56548 0
M  V30 1639 C 148.72 1.24538 -1.98815 0
M  V30 1640 C 149.736 1.49045 -0.897861 0
M  V30 1641 O 150.912 1.61399 -1.20467 0
M  V30 1642 C 147.977 2.56683 -2.33055 0
M  V30 1643 C 147.038 2.40131 -3.55859 0
M  V30 1644 C 146.271 3.65975 -3.88456 0
M  V30 1645 O 146.494 4.70711 -3.22161 0
M  V30 1646 O 145.428 3.6071 -4.81842 0
M  V30 1647 H 149.254 0.916647 -2.89536 0
M  V30 1648 H 146.839 0.387842 -1.44278 0
M  V30 1649 H 148.721 3.34655 -2.56094 0
M  V30 1650 H 147.396 2.89157 -1.45498 0
M  V30 1651 H 146.303 1.60226 -3.38051 0
M  V30 1652 H 147.636 2.12585 -4.43924 0
M  V30 1653 N 149.288 1.51039 0.449983 0
M  V30 1654 C 150.221 1.66105 1.56474 0
M  V30 1655 C 151.199 0.508776 1.54435 0
M  V30 1656 O 152.383 0.731005 1.73749 0
M  V30 1657 C 149.51 1.66304 2.9506 0
M  V30 1658 C 148.556 2.87346 3.15174 0
M  V30 1659 S 149.389 4.4835 2.92818 0
M  V30 1660 C 150.545 4.51274 4.33708 0
M  V30 1661 H 150.778 2.60397 1.43459 0
M  V30 1662 H 148.311 1.40565 0.638805 0
M  V30 1663 H 150.269 1.67103 3.74949 0
M  V30 1664 H 148.93 0.732108 3.05449 0
M  V30 1665 H 148.123 2.83849 4.16468 0
M  V30 1666 H 147.725 2.84223 2.43091 0
M  V30 1667 H 150.017 4.26136 5.26701 0
M  V30 1668 H 150.96 5.53017 4.42242 0
M  V30 1669 H 151.368 3.80738 4.16772 0
M  V30 1670 N 150.766 -0.704594 1.40972 0
M  V30 1671 C 151.994 -1.49354 1.43182 0
M  V30 1672 C 152.409 -1.88768 0.0345508 0
M  V30 1673 O 151.766 -1.56184 -0.944081 0
M  V30 1674 C 151.817 -2.76187 2.33244 0
M  V30 1675 O 151.538 -2.38436 3.67532 0
M  V30 1676 C 153.039 -3.7 2.44162 0
M  V30 1677 H 150.259 -0.460559 0.487982 0
M  V30 1678 H 152.803 -0.868261 1.85153 0
M  V30 1679 H 150.958 -3.34974 1.94606 0
M  V30 1680 H 151.372 -3.20126 4.15475 0
M  V30 1681 H 152.846 -4.55803 3.11364 0
M  V30 1682 H 153.323 -4.13867 1.47006 0
M  V30 1683 H 153.929 -3.17121 2.83398 0
M  V30 1684 N 152.244 -1.26651 -0.937939 0
M  V30 1685 C 153.191 -1.0849 -2.03712 0
M  V30 1686 C 154.161 0.011033 -1.66096 0
M  V30 1687 O 155.346 -0.149353 -1.90215 0
M  V30 1688 C 152.486 -0.72735 -3.37348 0
M  V30 1689 C 151.599 -1.89986 -3.87981 0
M  V30 1690 C 150.734 -1.48513 -5.10017 0
M  V30 1691 C 149.773 -2.62575 -5.5292 0
M  V30 1692 N 148.91 -2.21762 -6.66158 0
M  V30 1693 H 153.75 -2.02551 -2.18579 0
M  V30 1694 H 151.287 -1.00844 -1.07093 0
M  V30 1695 H 153.245 -0.50092 -4.14182 0
M  V30 1696 H 151.875 0.176298 -3.22318 0
M  V30 1697 H 150.927 -2.23913 -3.07518 0
M  V30 1698 H 152.239 -2.75586 -4.15757 0
M  V30 1699 H 151.393 -1.21934 -5.94321 0
M  V30 1700 H 150.132 -0.60009 -4.83994 0
M  V30 1701 H 149.137 -2.8988 -4.67172 0
M  V30 1702 H 150.362 -3.51685 -5.80943 0
M  V30 1703 H 148.308 -1.35696 -6.41812 0
M  V30 1704 H 148.225 -3.00903 -6.93537 0
M  V30 1705 H 149.493 -1.98403 -7.53828 0
M  V30 1706 N 153.722 1.14298 -1.08507 0
M  V30 1707 C 154.969 1.85359 -0.815373 0
M  V30 1708 C 155.297 1.83001 0.658865 0
M  V30 1709 O 154.552 1.25655 1.50031 0
M  V30 1710 C 154.851 3.33547 -1.28379 0
M  V30 1711 C 154.517 3.56093 -2.76602 0
M  V30 1712 C 153.179 3.61955 -3.17084 0
M  V30 1713 C 155.531 3.64834 -3.72217 0
M  V30 1714 C 152.859 3.74082 -4.51973 0
M  V30 1715 C 155.211 3.78487 -5.06883 0
M  V30 1716 C 153.875 3.82598 -5.46969 0
M  V30 1717 H 153.145 0.678276 -0.298366 0
M  V30 1718 H 155.792 1.35002 -1.35819 0
M  V30 1719 H 154.097 3.86191 -0.660593 0
M  V30 1720 H 155.794 3.86959 -1.05186 0
M  V30 1721 H 152.384 3.52179 -2.4427 0
M  V30 1722 H 156.568 3.59595 -3.42061 0
M  V30 1723 H 151.824 3.75527 -4.82483 0
M  V30 1724 H 155.998 3.84193 -5.80834 0
M  V30 1725 H 153.625 3.91747 -6.51489 0
M  V30 1726 N 155.201 0.870884 1.31352 0
M  V30 1727 C 156.448 0.482273 1.96673 0
M  V30 1728 C 156.776 -0.965638 1.68836 0
M  V30 1729 O 156.031 -1.69514 0.977937 0
M  V30 1730 C 156.33 0.687157 3.50732 0
M  V30 1731 C 155.996 2.108 3.9859 0
M  V30 1732 C 154.658 2.49656 4.1137 0
M  V30 1733 C 157.01 3.03459 4.23748 0
M  V30 1734 C 154.338 3.80412 4.46659 0
M  V30 1735 C 156.69 4.3373 4.60501 0
M  V30 1736 C 155.354 4.725 4.71487 0
M  V30 1737 H 154.624 0.176476 0.719679 0
M  V30 1738 H 157.271 1.10405 1.56471 0
M  V30 1739 H 155.576 -0.0177476 3.91796 0
M  V30 1740 H 157.273 0.366284 3.99324 0
M  V30 1741 H 153.863 1.79633 3.8914 0
M  V30 1742 H 158.047 2.74665 4.13368 0
M  V30 1743 H 153.303 4.1021 4.53362 0
M  V30 1744 H 157.477 5.05578 4.78919 0
M  V30 1745 H 155.104 5.73859 4.98588 0
M  V30 1746 N 156.679 -1.44442 0.630414 0
M  V30 1747 C 157.627 -2.32437 -0.0871428 0
M  V30 1748 C 158.621 -1.47304 -0.836525 0
M  V30 1749 O 159.827 -1.63653 -0.749506 0
M  V30 1750 H 156.202 -0.750533 -0.0469495 0
M  V30 1751 H 158.173 -2.90709 0.673096 0
M  V30 1752 C 156.922 -3.31288 -1.05563 0
M  V30 1753 H 156.245 -3.96805 -0.488426 0
M  V30 1754 H 157.685 -3.9554 -1.52721 0
M  V30 1755 C 156.144 -2.6016 -2.14052 0
M  V30 1756 O 156.674 -2.39997 -3.22124 0
M  V30 1757 N 154.88 -2.19911 -1.89967 0
M  V30 1758 H 154.427 -2.36509 -1.02085 0
M  V30 1759 H 154.385 -1.72646 -2.62756 0
M  V30 1760 N 158.157 -0.370918 -1.53173 0
M  V30 1761 C 159.385 0.217704 -2.05751 0
M  V30 1762 C 159.8 1.42018 -1.24404 0
M  V30 1763 O 159.157 1.80245 -0.286033 0
M  V30 1764 C 159.208 0.605954 -3.56385 0
M  V30 1765 O 158.929 -0.548734 -4.3465 0
M  V30 1766 C 160.43 1.2524 -4.25241 0
M  V30 1767 H 157.65 0.0371659 -0.66997 0
M  V30 1768 H 160.194 -0.530832 -1.9749 0
M  V30 1769 H 158.349 1.3044 -3.6478 0
M  V30 1770 H 158.763 -0.23376 -5.23979 0
M  V30 1771 H 160.237 1.47458 -5.3194 0
M  V30 1772 H 160.714 2.2143 -3.79296 0
M  V30 1773 H 161.32 0.595233 -4.21114 0
M  V30 1774 N 159.635 1.57281 -0.100228 0
M  V30 1775 C 160.583 2.15542 0.874328 0
M  V30 1776 C 161.577 1.09962 1.28859 0
M  V30 1777 O 162.783 1.28298 1.26252 0
M  V30 1778 H 159.158 0.689567 0.300003 0
M  V30 1779 H 161.129 2.96241 0.35829 0
M  V30 1780 C 159.878 2.75454 2.1218 0
M  V30 1781 H 159.201 3.56384 1.81193 0
M  V30 1782 H 160.641 3.19781 2.78417 0
M  V30 1783 C 159.1 1.71602 2.89921 0
M  V30 1784 O 159.63 1.15804 3.84646 0
M  V30 1785 N 157.836 1.41975 2.53558 0
M  V30 1786 H 157.383 1.87539 1.76598 0
M  V30 1787 H 157.341 0.727274 3.05873 0
M  V30 1788 N 161.113 -0.173488 1.56642 0
M  V30 1789 C 162.343 -0.904781 1.85734 0
M  V30 1790 C 162.751 -1.76431 0.68328 0
M  V30 1791 O 162.094 -1.802 -0.356865 0
M  V30 1792 C 162.156 -1.83382 3.09211 0
M  V30 1793 C 161.82 -1.15411 4.42187 0
M  V30 1794 C 162.817 -0.520609 5.17287 0
M  V30 1795 C 160.502 -1.15151 4.88923 0
M  V30 1796 C 162.496 0.106412 6.37311 0
M  V30 1797 C 160.183 -0.520664 6.08878 0
M  V30 1798 C 161.181 0.107196 6.82916 0
M  V30 1799 O 160.869 0.728102 8.00596 0
M  V30 1800 H 160.601 -0.268408 0.62043 0
M  V30 1801 H 163.155 -0.179096 2.04618 0
M  V30 1802 H 161.385 -2.59976 2.86268 0
M  V30 1803 H 163.074 -2.43476 3.24768 0
M  V30 1804 H 163.84 -0.514606 4.82262 0
M  V30 1805 H 159.719 -1.62961 4.31236 0
M  V30 1806 H 163.263 0.597081 6.9504 0
M  V30 1807 H 159.16 -0.524242 6.43368 0
M  V30 1808 H 159.928 0.627138 8.16094 0
M  V30 1809 N 162.591 -1.51276 -0.441967 0
M  V30 1810 C 163.541 -1.6864 -1.53442 0
M  V30 1811 C 164.525 -0.540444 -1.51552 0
M  V30 1812 O 165.717 -0.796157 -1.58083 0
M  V30 1813 C 162.846 -1.8106 -2.91672 0
M  V30 1814 C 161.932 -3.01424 -2.98336 0
M  V30 1815 N 162.323 -4.2467 -2.74752 0
M  V30 1816 C 160.621 -3.00584 -3.29493 0
M  V30 1817 C 161.322 -5.05891 -2.87139 0
M  V30 1818 N 160.298 -4.40442 -3.18609 0
M  V30 1819 H 164.1 -2.61598 -1.33954 0
M  V30 1820 H 161.614 -1.4886 -0.6492 0
M  V30 1821 H 163.611 -1.91609 -3.70259 0
M  V30 1822 H 162.271 -0.892795 -3.12185 0
M  V30 1823 H 163.282 -4.53691 -2.49769 0
M  V30 1824 H 159.959 -2.18417 -3.55809 0
M  V30 1825 H 161.349 -6.13983 -2.72899 0
M  V30 1826 N 164.069 0.697108 -1.41344 0
M  V30 1827 C 165.299 1.48377 -1.43763 0
M  V30 1828 C 165.707 1.89156 -0.0408726 0
M  V30 1829 O 165.05 1.57239 0.949812 0
M  V30 1830 C 165.112 2.7781 -2.2817 0
M  V30 1831 C 164.776 2.59244 -3.76353 0
M  V30 1832 C 165.773 2.25292 -4.68551 0
M  V30 1833 C 163.458 2.74933 -4.20378 0
M  V30 1834 C 165.452 2.07264 -6.02761 0
M  V30 1835 C 163.139 2.56521 -5.54653 0
M  V30 1836 C 164.137 2.22737 -6.4566 0
M  V30 1837 O 163.825 2.04485 -7.77458 0
M  V30 1838 H 163.557 0.463842 -0.491759 0
M  V30 1839 H 166.111 0.865934 -1.86255 0
M  V30 1840 H 164.341 3.41995 -1.8049 0
M  V30 1841 H 166.03 3.39608 -2.22309 0
M  V30 1842 H 166.796 2.12787 -4.35829 0
M  V30 1843 H 162.675 3.00213 -3.49848 0
M  V30 1844 H 166.219 1.80817 -6.73759 0
M  V30 1845 H 162.116 2.68616 -5.86955 0
M  V30 1846 H 162.884 2.1926 -7.88586 0
M  V30 1847 N 165.547 1.27147 0.931209 0
M  V30 1848 C 166.477 1.12081 2.04842 0
M  V30 1849 C 167.458 0.0232364 1.70084 0
M  V30 1850 O 168.643 0.197085 1.93197 0
M  V30 1851 C 165.773 0.76354 3.38803 0
M  V30 1852 C 164.727 1.81396 3.87659 0
M  V30 1853 C 164.053 1.31075 5.18385 0
M  V30 1854 C 165.353 3.21739 4.11438 0
M  V30 1855 H 167.047 2.05537 2.17703 0
M  V30 1856 H 164.593 0.989603 1.04608 0
M  V30 1857 H 166.546 0.644982 4.16435 0
M  V30 1858 H 165.27 -0.206727 3.25945 0
M  V30 1859 H 163.929 1.92136 3.12217 0
M  V30 1860 H 163.577 0.330037 5.01916 0
M  V30 1861 H 163.277 2.013 5.52044 0
M  V30 1862 H 164.801 1.20506 5.98591 0
M  V30 1863 H 166.215 3.14019 4.79651 0
M  V30 1864 H 164.612 3.89644 4.56397 0
M  V30 1865 H 165.682 3.67054 3.16859 0
M  V30 1866 N 167.025 -1.13721 1.09112 0
M  V30 1867 C 168.271 -1.85198 0.826414 0
M  V30 1868 C 168.604 -1.83129 -0.646319 0
M  V30 1869 O 167.879 -1.2671 -1.47563 0
M  V30 1870 C 168.162 -3.33507 1.35812 0
M  V30 1871 C 168.015 -3.44108 2.89672 0
M  V30 1872 C 169.334 -4.28838 0.989256 0
M  V30 1873 H 166.453 -0.67243 0.301675 0
M  V30 1874 H 169.095 -1.33499 1.35197 0
M  V30 1875 H 167.245 -3.77666 0.911082 0
M  V30 1876 H 168.917 -3.08684 3.428 0
M  V30 1877 H 167.16 -2.85087 3.26967 0
M  V30 1878 H 167.831 -4.48388 3.21951 0
M  V30 1879 H 170.307 -3.92734 1.37475 0
M  V30 1880 H 169.183 -5.31051 1.38838 0
M  V30 1881 H 169.444 -4.4198 -0.102924 0
M  V30 1882 N 168.503 -0.877838 -1.30888 0
M  V30 1883 C 169.914 -0.544193 -1.78593 0
M  V30 1884 C 170.265 0.939301 -1.72254 0
M  V30 1885 O 169.39 1.7337 -1.29505 0
M  V30 1886 C 169.985 -0.98105 -3.24285 0
M  V30 1887 C 168.544 -0.698935 -3.69854 0
M  V30 1888 C 167.691 -1.168 -2.51502 0
M  V30 1889 H 170.642 -1.06278 -1.17859 0
M  V30 1890 H 170.663 -0.307009 -3.79259 0
M  V30 1891 H 170.175 -2.06079 -3.28866 0
M  V30 1892 H 168.276 0.369112 -3.70767 0
M  V30 1893 H 168.389 -1.28148 -4.61644 0
M  V30 1894 H 166.753 -0.587535 -2.47831 0
M  V30 1895 H 167.536 -2.25533 -2.58824 0
M  V30 1896 N 169.982 1.44106 -0.638065 0
M  V30 1897 C 170.892 2.34513 0.0637334 0
M  V30 1898 C 171.908 1.53018 0.828346 0
M  V30 1899 O 173.084 1.85723 0.779036 0
M  V30 1900 C 170.149 3.31095 1.02844 0
M  V30 1901 C 169.21 4.28497 0.26244 0
M  V30 1902 C 168.443 5.20465 1.1812 0
M  V30 1903 O 168.666 5.16514 2.42011 0
M  V30 1904 O 167.6 5.98251 0.661774 0
M  V30 1905 H 171.426 2.95989 -0.68003 0
M  V30 1906 H 169.011 1.43994 -0.398252 0
M  V30 1907 H 170.893 3.90526 1.58327 0
M  V30 1908 H 169.568 2.72144 1.7527 0
M  V30 1909 H 168.475 3.72592 -0.335602 0
M  V30 1910 H 169.808 4.90388 -0.421936 0
M  V30 1911 N 171.46 0.379036 1.52974 0
M  V30 1912 C 172.709 -0.207612 2.00629 0
M  V30 1913 C 173.022 -1.48758 1.27006 0
M  V30 1914 O 174.228 -2.15365 1.65318 0
M  V30 1915 C 172.684 -0.42053 3.57435 0
M  V30 1916 C 172.292 0.845587 4.39948 0
M  V30 1917 C 174.036 -0.964102 4.13407 0
M  V30 1918 C 171.943 0.601513 5.88333 0
M  V30 1919 H 170.873 -0.0813591 0.749598 0
M  V30 1920 H 173.524 0.499853 1.76561 0
M  V30 1921 H 171.906 -1.18959 3.7771 0
M  V30 1922 H 173.08 1.61848 4.31442 0
M  V30 1923 H 171.395 1.31336 3.95145 0
M  V30 1924 H 173.992 -1.16225 5.21916 0
M  V30 1925 H 174.335 -1.93019 3.68849 0
M  V30 1926 H 174.868 -0.25487 3.96983 0
M  V30 1927 H 171.607 1.53831 6.37194 0
M  V30 1928 H 171.127 -0.132628 5.99653 0
M  V30 1929 H 172.806 0.232134 6.46583 0
M  V30 1930 N 172.938 -1.57226 0.108567 0
M  V30 1931 C 173.848 -2.18292 -0.859401 0
M  V30 1932 C 174.864 -1.15612 -1.30038 0
M  V30 1933 O 176.04 -1.48039 -1.36552 0
M  V30 1934 C 173.105 -2.762 -2.09558 0
M  V30 1935 C 172.166 -3.93881 -1.70752 0
M  V30 1936 C 171.399 -4.49018 -2.88477 0
M  V30 1937 O 171.622 -4.03068 -4.036 0
M  V30 1938 O 170.556 -5.39852 -2.66164 0
M  V30 1939 H 174.382 -3.01441 -0.369769 0
M  V30 1940 H 171.967 -1.48945 -0.1165 0
M  V30 1941 H 173.849 -3.13156 -2.81978 0
M  V30 1942 H 172.524 -1.96089 -2.57548 0
M  V30 1943 H 171.431 -3.61713 -0.954714 0
M  V30 1944 H 172.764 -4.75396 -1.27513 0
M  V30 1945 N 174.416 0.165178 -1.56732 0
M  V30 1946 C 175.644 0.896218 -1.86482 0
M  V30 1947 C 176.059 1.75555 -0.694675 0
M  V30 1948 O 175.416 1.79379 0.33607 0
M  V30 1949 C 175.467 1.76792 -3.1532 0
M  V30 1950 O 175.188 0.943239 -4.27825 0
M  V30 1951 C 176.689 2.6081 -3.58459 0
M  V30 1952 H 173.909 0.260064 -0.618553 0
M  V30 1953 H 176.453 0.163428 -2.03846 0
M  V30 1954 H 174.608 2.45398 -2.99764 0
M  V30 1955 H 175.022 1.53998 -5.01383 0
M  V30 1956 H 176.496 3.17579 -4.51495 0
M  V30 1957 H 176.973 3.35977 -2.82872 0
M  V30 1958 H 177.579 1.97526 -3.76648 0
M  V30 1959 N 175.894 1.51508 0.433938 0
M  V30 1960 C 176.804 1.75917 1.5521 0
M  V30 1961 C 177.82 0.643545 1.61662 0
M  V30 1962 O 178.996 0.926183 1.7884 0
M  V30 1963 C 176.061 1.88213 2.91164 0
M  V30 1964 C 175.122 3.12074 2.94802 0
M  V30 1965 C 174.355 3.23774 4.24271 0
M  V30 1966 O 174.578 2.4133 5.16833 0
M  V30 1967 O 173.512 4.16774 4.34262 0
M  V30 1968 H 177.338 2.70777 1.37527 0
M  V30 1969 H 174.923 1.36051 0.617293 0
M  V30 1970 H 176.805 1.98267 3.71845 0
M  V30 1971 H 175.48 0.965413 3.08968 0
M  V30 1972 H 174.387 3.07497 2.13065 0
M  V30 1973 H 175.72 4.03446 2.81943 0
M  V30 1974 N 177.372 -0.689602 1.41712 0
M  V30 1975 C 178.282 -1.83314 1.46401 0
M  V30 1976 C 179.298 -1.7036 0.35405 0
M  V30 1977 O 180.474 -1.92171 0.602692 0
M  V30 1978 C 177.539 -3.19344 1.34982 0
M  V30 1979 C 176.6 -3.44363 2.56344 0
M  V30 1980 C 175.833 -4.73904 2.45461 0
M  V30 1981 O 176.056 -5.508 1.48241 0
M  V30 1982 O 174.99 -4.99839 3.35328 0
M  V30 1983 H 178.816 -1.82314 2.42889 0
M  V30 1984 H 176.401 -0.843438 1.23315 0
M  V30 1985 H 178.283 -4.00547 1.3092 0
M  V30 1986 H 176.958 -3.21014 0.41612 0
M  V30 1987 H 175.865 -2.63067 2.65982 0
M  V30 1988 H 177.198 -3.47512 3.48563 0
M  V30 1989 N 178.85 -1.27639 -0.924453 0
M  V30 1990 C 180.097 -1.14167 -1.67249 0
M  V30 1991 C 180.425 0.311863 -1.91984 0
M  V30 1992 O 179.68 1.24425 -1.51053 0
M  V30 1993 C 179.979 -1.87407 -3.04325 0
M  V30 1994 C 179.645 -3.37249 -2.99289 0
M  V30 1995 C 178.307 -3.7812 -2.97622 0
M  V30 1996 C 180.659 -4.32845 -2.90336 0
M  V30 1997 C 177.987 -5.12944 -2.8479 0
M  V30 1998 C 180.339 -5.6773 -2.79045 0
M  V30 1999 C 179.003 -6.07889 -2.7573 0
M  V30 2000 H 178.273 -0.417766 -0.612007 0
M  V30 2001 H 180.92 -1.58286 -1.07786 0
M  V30 2002 H 179.225 -1.35805 -3.67511 0
M  V30 2003 H 180.922 -1.74408 -3.61086 0
M  V30 2004 H 177.512 -3.04748 -3.01374 0
M  V30 2005 H 181.696 -4.02239 -2.90719 0
M  V30 2006 H 176.952 -5.432 -2.80612 0
M  V30 2007 H 181.126 -6.41472 -2.71083 0
M  V30 2008 H 178.753 -7.12314 -2.65544 0
M  V30 2009 N 180.328 1.1314 -1.09713 0
M  V30 2010 C 181.558 1.88048 -0.855656 0
M  V30 2011 C 181.966 1.79537 0.596919 0
M  V30 2012 O 181.309 1.16196 1.42282 0
M  V30 2013 C 181.371 3.38314 -1.21589 0
M  V30 2014 C 181.035 3.70605 -2.67397 0
M  V30 2015 C 182.032 3.69596 -3.65643 0
M  V30 2016 C 179.717 4.0017 -3.03593 0
M  V30 2017 C 181.711 3.977 -4.9811 0
M  V30 2018 C 179.398 4.27935 -4.36251 0
M  V30 2019 C 180.396 4.26685 -5.33318 0
M  V30 2020 O 180.084 4.53767 -6.63589 0
M  V30 2021 H 179.816 0.60208 -0.307368 0
M  V30 2022 H 182.37 1.44128 -1.46343 0
M  V30 2023 H 180.6 3.82752 -0.551177 0
M  V30 2024 H 182.289 3.94552 -0.953083 0
M  V30 2025 H 183.055 3.46826 -3.39023 0
M  V30 2026 H 178.934 4.00289 -2.2867 0
M  V30 2027 H 182.478 3.9664 -5.73866 0
M  V30 2028 H 178.375 4.50178 -4.62613 0
M  V30 2029 H 179.143 4.71422 -6.69107 0
M  V30 2030 N 181.806 0.884767 1.30421 0
M  V30 2031 C 182.736 0.367574 2.30589 0
M  V30 2032 C 183.717 -0.549464 1.60981 0
M  V30 2033 O 184.902 -0.46336 1.88591 0
M  V30 2034 C 182.032 -0.418944 3.44764 0
M  V30 2035 C 180.986 0.406316 4.26067 0
M  V30 2036 C 180.312 -0.506793 5.32293 0
M  V30 2037 C 181.612 1.64832 4.95608 0
M  V30 2038 H 183.306 1.20462 2.74097 0
M  V30 2039 H 180.852 0.580695 1.31772 0
M  V30 2040 H 182.805 -0.791395 4.13902 0
M  V30 2041 H 181.529 -1.28964 3.0006 0
M  V30 2042 H 180.188 0.760903 3.58617 0
M  V30 2043 H 179.836 -1.37519 4.83836 0
M  V30 2044 H 179.536 0.0415828 5.87585 0
M  V30 2045 H 181.06 -0.875764 6.04287 0
M  V30 2046 H 182.474 1.34646 5.57264 0
M  V30 2047 H 180.871 2.13688 5.60765 0
M  V30 2048 H 181.941 2.39284 4.21748 0
M  V30 2049 N 183.284 -1.43765 0.645699 0
M  V30 2050 C 184.214 -2.33471 -0.0370477 0
M  V30 2051 C 185.195 -1.49042 -0.819779 0
M  V30 2052 O 186.38 -1.77726 -0.782758 0
M  V30 2053 C 183.51 -3.32311 -1.0093 0
M  V30 2054 C 182.464 -4.2667 -0.337201 0
M  V30 2055 C 181.79 -5.1549 -1.42037 0
M  V30 2056 C 183.09 -5.16657 0.765706 0
M  V30 2057 H 184.784 -2.90809 0.712069 0
M  V30 2058 H 182.33 -1.39834 0.343876 0
M  V30 2059 H 184.283 -3.9396 -1.49578 0
M  V30 2060 H 183.007 -2.73213 -1.78948 0
M  V30 2061 H 181.666 -3.66374 0.128771 0
M  V30 2062 H 181.314 -4.52735 -2.1918 0
M  V30 2063 H 181.014 -5.79438 -0.975966 0
M  V30 2064 H 182.538 -5.80012 -1.90838 0
M  V30 2065 H 183.952 -5.72158 0.361702 0
M  V30 2066 H 182.349 -5.89286 1.13413 0
M  V30 2067 H 183.419 -4.56796 1.62683 0
M  V30 2068 N 184.763 -0.387143 -1.52771 0
M  V30 2069 C 185.673 0.456442 -2.30117 0
M  V30 2070 C 186.689 1.07342 -1.36944 0
M  V30 2071 O 187.865 1.07971 -1.70013 0
M  V30 2072 C 184.93 1.56957 -3.09136 0
M  V30 2073 C 183.991 0.977916 -4.18014 0
M  V30 2074 C 183.224 2.038 -4.93256 0
M  V30 2075 O 183.447 3.25271 -4.68567 0
M  V30 2076 O 182.381 1.6565 -5.78657 0
M  V30 2077 H 186.207 -0.17359 -3.03203 0
M  V30 2078 H 183.792 -0.150919 -1.48636 0
M  V30 2079 H 185.674 2.21628 -3.58412 0
M  V30 2080 H 184.349 2.18461 -2.38865 0
M  V30 2081 H 183.256 0.294525 -3.72939 0
M  V30 2082 H 184.589 0.407128 -4.90513 0
M  V30 2083 N 186.241 1.57166 -0.116904 0
M  V30 2084 C 187.189 2.16457 0.851418 0
M  V30 2085 C 188.183 1.11323 1.27686 0
M  V30 2086 O 189.389 1.2963 1.24884 0
M  V30 2087 H 185.764 0.69271 0.292672 0
M  V30 2088 H 187.735 2.96605 0.32685 0
M  V30 2089 C 186.484 2.77689 2.09246 0
M  V30 2090 H 185.807 3.58285 1.77402 0
M  V30 2091 H 187.247 3.22716 2.7501 0
M  V30 2092 C 185.706 1.74667 2.88085 0
M  V30 2093 O 186.236 1.19877 3.83396 0
M  V30 2094 N 184.442 1.44656 2.52038 0
M  V30 2095 H 183.989 1.89402 1.74599 0
M  V30 2096 H 183.947 0.759675 3.05084 0
M  V30 2097 N 187.719 -0.156864 1.56817 0
M  V30 2098 C 188.666 -1.19394 1.97519 0
M  V30 2099 C 189.636 -1.4322 0.841265 0
M  V30 2100 O 190.821 -1.55719 1.10255 0
M  V30 2101 C 187.961 -2.52483 2.35258 0
M  V30 2102 C 187.074 -2.35914 3.61896 0
M  V30 2103 C 186.209 -3.61969 3.88782 0
M  V30 2104 C 185.248 -3.40395 5.08722 0
M  V30 2105 N 184.385 -4.58556 5.31668 0
M  V30 2106 H 189.225 -0.839845 2.85921 0
M  V30 2107 H 186.762 -0.403264 1.41464 0
M  V30 2108 H 188.72 -3.30071 2.55165 0
M  V30 2109 H 187.35 -2.85859 1.49949 0
M  V30 2110 H 186.402 -1.49429 3.49821 0
M  V30 2111 H 187.714 -2.15926 4.49641 0
M  V30 2112 H 186.868 -4.47989 4.09135 0
M  V30 2113 H 185.607 -3.84951 2.9944 0
M  V30 2114 H 184.612 -2.52763 4.88253 0
M  V30 2115 H 185.837 -3.18822 5.99608 0
M  V30 2116 H 183.783 -4.81729 4.45279 0
M  V30 2117 H 183.7 -4.41535 6.13664 0
M  V30 2118 H 184.968 -5.45817 5.5651 0
M  V30 2119 N 189.197 -1.51736 -0.425897 0
M  V30 2120 C 190.608 -1.5732 -1.00536 0
M  V30 2121 C 190.959 -0.403537 -1.92005 0
M  V30 2122 O 190.084 0.478256 -2.11049 0
M  V30 2123 C 190.679 -2.85119 -1.8301 0
M  V30 2124 C 189.238 -2.93236 -2.35987 0
M  V30 2125 C 188.385 -2.52098 -1.15508 0
M  V30 2126 H 191.336 -1.57348 -0.206739 0
M  V30 2127 H 191.357 -2.69526 -2.68581 0
M  V30 2128 H 190.869 -3.7023 -1.16411 0
M  V30 2129 H 188.97 -2.12581 -3.06007 0
M  V30 2130 H 189.083 -3.9713 -2.68001 0
M  V30 2131 H 187.447 -2.05558 -1.50393 0
M  V30 2132 H 188.23 -3.39565 -0.505014 0
M  V30 2133 N 190.675 0.682077 -1.42076 0
M  V30 2134 C 191.605 1.80796 -1.47767 0
M  V30 2135 C 192.586 1.6677 -0.334954 0
M  V30 2136 O 193.771 1.863 -0.548264 0
M  V30 2137 C 190.901 3.19038 -1.37229 0
M  V30 2138 C 189.855 3.47789 -2.49453 0
M  V30 2139 C 189.181 4.8553 -2.23975 0
M  V30 2140 C 190.481 3.45411 -3.91776 0
M  V30 2141 H 192.175 1.7629 -2.41997 0
M  V30 2142 H 189.721 0.846721 -1.16476 0
M  V30 2143 H 191.674 3.97528 -1.39821 0
M  V30 2144 H 190.398 3.24204 -0.394907 0
M  V30 2145 H 189.057 2.71657 -2.46166 0
M  V30 2146 H 188.705 4.87337 -1.24547 0
M  V30 2147 H 188.405 5.0573 -2.99184 0
M  V30 2148 H 189.929 5.66312 -2.28304 0
M  V30 2149 H 191.343 4.13882 -3.96705 0
M  V30 2150 H 189.74 3.77145 -4.66778 0
M  V30 2151 H 190.81 2.44122 -4.18966 0
M  V30 2152 N 192.153 1.28127 0.917671 0
M  V30 2153 C 193.063 1.13556 2.05286 0
M  V30 2154 C 194.079 0.0630914 1.73886 0
M  V30 2155 O 195.255 0.271598 1.9956 0
M  V30 2156 C 192.32 0.794676 3.3747 0
M  V30 2157 C 191.381 1.94909 3.82504 0
M  V30 2158 C 190.614 1.62437 5.0838 0
M  V30 2159 O 190.837 0.536905 5.67867 0
M  V30 2160 O 189.771 2.46677 5.4903 0
M  V30 2161 H 193.597 2.08844 2.20495 0
M  V30 2162 H 191.182 1.07409 1.03845 0
M  V30 2163 H 193.064 0.618344 4.16839 0
M  V30 2164 H 191.739 -0.128581 3.23445 0
M  V30 2165 H 190.646 2.18055 3.03978 0
M  V30 2166 H 191.979 2.85291 4.01086 0
M  V30 2167 N 193.631 -1.12557 1.10312 0
M  V30 2168 C 194.908 -1.80363 0.756878 0
M  V30 2169 C 195.288 -1.97067 -0.756824 0
M  V30 2170 O 194.636 -1.54601 -1.68259 0
M  V30 2171 C 194.846 -3.14812 1.50647 0
M  V30 2172 C 196.194 -3.90029 1.67817 0
M  V30 2173 O 197.218 -3.24464 1.46974 0
M  V30 2174 O 196.077 -5.07652 2.02365 0
M  V30 2175 H 193.171 -0.780667 0.272926 0
M  V30 2176 H 195.717 -1.19404 1.20586 0
M  V30 2177 H 194.489 -2.97936 2.53672 0
M  V30 2178 H 194.112 -3.83478 1.05026 0
M  V30 2179 N 195.109 -0.891671 -1.2995 0
M  V30 2180 C 196.339 -0.527893 -1.99742 0
M  V30 2181 C 196.747 0.88979 -1.66971 0
M  V30 2182 O 196.09 1.59766 -0.906667 0
M  V30 2183 C 196.152 -0.630804 -3.53922 0
M  V30 2184 C 195.816 -2.01401 -4.10228 0
M  V30 2185 C 196.813 -2.98422 -4.25724 0
M  V30 2186 C 194.498 -2.32121 -4.45449 0
M  V30 2187 C 196.492 -4.24293 -4.75662 0
M  V30 2188 C 194.179 -3.58237 -4.95086 0
M  V30 2189 C 195.177 -4.54137 -5.10146 0
M  V30 2190 O 194.865 -5.78014 -5.58708 0
M  V30 2191 H 194.597 -0.201953 -0.645129 0
M  V30 2192 H 197.151 -1.20076 -1.66646 0
M  V30 2193 H 195.381 0.0990616 -3.86573 0
M  V30 2194 H 197.07 -0.277338 -4.04951 0
M  V30 2195 H 197.836 -2.76001 -3.98809 0
M  V30 2196 H 193.715 -1.5824 -4.32991 0
M  V30 2197 H 197.259 -4.99153 -4.87332 0
M  V30 2198 H 193.156 -3.80491 -5.21437 0
M  V30 2199 H 193.924 -5.8049 -5.77039 0
M  V30 2200 N 196.587 1.43421 -0.653314 0
M  V30 2201 C 197.517 2.33487 0.0246656 0
M  V30 2202 C 198.498 1.49475 0.811863 0
M  V30 2203 O 199.683 1.78139 0.773322 0
M  V30 2204 C 196.813 3.32841 0.99166 0
M  V30 2205 C 195.767 4.26842 0.314568 0
M  V30 2206 C 195.093 5.16236 1.39302 0
M  V30 2207 C 196.393 5.16243 -0.793095 0
M  V30 2208 H 198.087 2.90427 -0.727481 0
M  V30 2209 H 195.633 1.39649 -0.351287 0
M  V30 2210 H 197.586 3.94747 1.47487 0
M  V30 2211 H 196.31 2.74158 1.77497 0
M  V30 2212 H 194.969 3.663 -0.148199 0
M  V30 2213 H 194.617 4.53891 2.16776 0
M  V30 2214 H 194.317 5.79948 0.945223 0
M  V30 2215 H 195.841 5.81015 1.87759 0
M  V30 2216 H 197.255 5.71958 -0.392039 0
M  V30 2217 H 195.652 5.88676 -1.16536 0
M  V30 2218 H 196.722 4.55927 -1.65103 0
M  V30 2219 N 198.065 0.39524 1.52563 0
M  V30 2220 C 199.312 -0.185044 2.01653 0
M  V30 2221 C 199.64 -1.46317 1.28146 0
M  V30 2222 O 198.895 -1.9213 0.372074 0
M  V30 2223 C 199.194 -0.493444 3.53977 0
M  V30 2224 C 198.86 0.69384 4.4553 0
M  V30 2225 C 197.522 1.01954 4.70275 0
M  V30 2226 C 199.874 1.48785 4.99512 0
M  V30 2227 C 197.202 2.14069 5.46252 0
M  V30 2228 C 199.554 2.59965 5.76716 0
M  V30 2229 C 198.218 2.93037 5.99738 0
M  V30 2230 H 197.488 -0.0677123 0.7379 0
M  V30 2231 H 200.135 0.533807 1.8391 0
M  V30 2232 H 198.44 -1.29369 3.69825 0
M  V30 2233 H 200.137 -0.955163 3.89458 0
M  V30 2234 H 196.727 0.429987 4.26438 0
M  V30 2235 H 200.911 1.24946 4.80315 0
M  V30 2236 H 196.167 2.40056 5.62302 0
M  V30 2237 H 200.341 3.21887 6.17545 0
M  V30 2238 H 197.968 3.8003 6.58393 0
M  V30 2239 N 199.544 -1.57102 0.125237 0
M  V30 2240 C 200.791 -1.95407 -0.531248 0
M  V30 2241 C 201.119 -1.0089 -1.66287 0
M  V30 2242 O 200.374 -0.0339431 -1.95671 0
M  V30 2243 C 200.673 -3.40096 -1.09862 0
M  V30 2244 C 200.339 -4.50815 -0.0876989 0
M  V30 2245 C 199.001 -4.80824 0.19026 0
M  V30 2246 C 201.353 -5.17724 0.600902 0
M  V30 2247 C 198.681 -5.75058 1.163 0
M  V30 2248 C 201.033 -6.13005 1.56231 0
M  V30 2249 C 199.697 -6.41403 1.8482 0
M  V30 2250 H 198.967 -0.715046 -0.194397 0
M  V30 2251 H 201.614 -1.90373 0.207463 0
M  V30 2252 H 199.919 -3.41855 -1.91422 0
M  V30 2253 H 201.616 -3.6705 -1.61478 0
M  V30 2254 H 198.206 -4.27444 -0.314528 0
M  V30 2255 H 202.39 -4.94691 0.399333 0
M  V30 2256 H 197.646 -5.95362 1.39117 0
M  V30 2257 H 201.82 -6.63934 2.10153 0
M  V30 2258 H 199.447 -7.14229 2.60349 0
M  V30 2259 N 201.022 0.148545 -1.56898 0
M  V30 2260 C 201.969 1.18345 -1.98149 0
M  V30 2261 C 202.939 1.42772 -0.848848 0
M  V30 2262 O 204.124 1.55132 -1.11079 0
M  V30 2263 C 201.264 2.51231 -2.36594 0
M  V30 2264 C 200.377 2.33991 -3.63142 0
M  V30 2265 C 199.512 3.59902 -3.90697 0
M  V30 2266 C 198.551 3.37692 -5.1052 0
M  V30 2267 N 197.688 4.5573 -5.34092 0
M  V30 2268 H 202.528 0.82467 -2.86362 0
M  V30 2269 H 200.065 0.395756 -1.41676 0
M  V30 2270 H 202.023 3.28713 -2.56912 0
M  V30 2271 H 200.653 2.85059 -1.51463 0
M  V30 2272 H 199.705 1.47572 -3.50609 0
M  V30 2273 H 201.017 2.13539 -4.5078 0
M  V30 2274 H 200.171 4.45813 -4.11505 0
M  V30 2275 H 198.91 3.83357 -3.01477 0
M  V30 2276 H 197.915 2.5017 -4.89587 0
M  V30 2277 H 199.14 3.15637 -6.0129 0
M  V30 2278 H 197.086 4.79361 -4.47827 0
M  V30 2279 H 197.003 4.38274 -6.15996 0
M  V30 2280 H 198.271 5.42858 -5.59397 0
M  V30 2281 N 202.5 1.5196 0.417844 0
M  V30 2282 C 203.725 1.69717 1.1921 0
M  V30 2283 C 204.15 0.402148 1.83751 0
M  V30 2284 O 203.508 -0.639593 1.69643 0
M  V30 2285 C 203.556 2.82794 2.2374 0
M  V30 2286 O 202.66 2.47756 3.29683 0
M  V30 2287 H 202.001 0.565263 0.348387 0
M  V30 2288 H 204.531 1.98621 0.490985 0
M  V30 2289 H 204.541 3.07452 2.68212 0
M  V30 2290 H 203.216 3.76756 1.76146 0
M  V30 2291 H 201.793 2.33739 2.90552 0
M  V30 2292 N 203.978 -0.674533 1.42435 0
M  V30 2293 C 204.925 -1.78807 1.45934 0
M  V30 2294 C 205.895 -1.63157 0.311271 0
M  V30 2295 O 207.08 -1.83707 0.515383 0
M  V30 2296 C 204.22 -3.16839 1.36773 0
M  V30 2297 C 203.333 -3.43774 2.61617 0
M  V30 2298 C 202.468 -4.71536 2.44597 0
M  V30 2299 C 201.507 -4.91505 3.64814 0
M  V30 2300 N 200.644 -6.10508 3.46734 0
M  V30 2301 H 205.484 -1.75151 2.41093 0
M  V30 2302 H 203.021 -0.85504 1.19697 0
M  V30 2303 H 204.979 -3.96606 1.29459 0
M  V30 2304 H 203.609 -3.19619 0.452089 0
M  V30 2305 H 202.661 -2.58259 2.79297 0
M  V30 2306 H 203.973 -3.54423 3.50978 0
M  V30 2307 H 203.127 -5.59393 2.3487 0
M  V30 2308 H 201.866 -4.6317 1.52726 0
M  V30 2309 H 200.871 -4.0209 3.74972 0
M  V30 2310 H 202.096 -5.01716 4.57665 0
M  V30 2311 H 200.042 -6.03315 2.5758 0
M  V30 2312 H 199.959 -6.2202 4.29682 0
M  V30 2313 H 201.227 -7.01044 3.40819 0
M  V30 2314 N 205.456 -1.28612 -0.910864 0
M  V30 2315 C 206.704 -1.15705 -1.65701 0
M  V30 2316 C 207.025 0.29416 -1.92769 0
M  V30 2317 O 206.295 1.20331 -1.54588 0
M  V30 2318 H 204.875 -0.425216 -0.614167 0
M  V30 2319 H 207.537 -1.61381 -1.0928 0
M  V30 2320 H 206.633 -1.6988 -2.61815 0
M  V30 2321 N 206.934 1.1197 -1.10907 0
M  V30 2322 C 208.183 1.82947 -0.849302 0
M  V30 2323 C 208.496 1.85275 0.627112 0
M  V30 2324 O 209.702 2.52296 1.00295 0
M  V30 2325 C 208.158 3.28529 -1.46959 0
M  V30 2326 C 207.766 3.34546 -2.97965 0
M  V30 2327 C 209.51 4.04443 -1.28942 0
M  V30 2328 C 207.417 4.74491 -3.53004 0
M  V30 2329 H 206.347 0.685477 -0.314065 0
M  V30 2330 H 208.998 1.2604 -1.33365 0
M  V30 2331 H 207.38 3.85333 -0.912917 0
M  V30 2332 H 208.554 2.87654 -3.59989 0
M  V30 2333 H 206.869 2.72108 -3.15192 0
M  V30 2334 H 209.466 5.07787 -1.67502 0
M  V30 2335 H 209.809 4.15656 -0.231456 0
M  V30 2336 H 210.342 3.5401 -1.81443 0
M  V30 2337 H 207.081 4.68474 -4.58489 0
M  V30 2338 H 206.601 5.21816 -2.9575 0
M  V30 2339 H 208.28 5.4344 -3.51115 0
M  V30 2340 N 208.412 0.89855 1.29475 0
M  V30 2341 C 209.322 0.379974 2.31502 0
M  V30 2342 C 210.338 -0.524695 1.659 0
M  V30 2343 O 211.514 -0.414551 1.97087 0
M  V30 2344 C 208.579 -0.385138 3.44554 0
M  V30 2345 C 207.64 0.550914 4.2575 0
M  V30 2346 C 206.873 -0.177778 5.33404 0
M  V30 2347 O 207.096 -1.40189 5.52904 0
M  V30 2348 O 206.03 0.479106 5.9999 0
M  V30 2349 H 209.856 1.22639 2.77837 0
M  V30 2350 H 207.441 0.662834 1.33891 0
M  V30 2351 H 209.323 -0.817841 4.13388 0
M  V30 2352 H 207.998 -1.20763 3.0033 0
M  V30 2353 H 206.905 1.03271 3.59564 0
M  V30 2354 H 208.238 1.33979 4.73614 0
M  V30 2355 N 209.89 -1.43072 0.660911 0
M  V30 2356 C 211.118 -2.06067 0.185422 0
M  V30 2357 C 211.533 -1.49582 -1.15198 0
M  V30 2358 O 210.89 -0.630134 -1.71276 0
M  V30 2359 C 210.941 -3.61371 0.0966523 0
M  V30 2360 O 210.662 -4.15758 1.38119 0
M  V30 2361 C 212.163 -4.41455 -0.403996 0
M  V30 2362 H 209.383 -0.664459 0.0934604 0
M  V30 2363 H 211.927 -1.83447 0.90373 0
M  V30 2364 H 210.082 -3.8315 -0.572259 0
M  V30 2365 H 210.496 -5.09499 1.24542 0
M  V30 2366 H 211.97 -5.50437 -0.415045 0
M  V30 2367 H 212.447 -4.15036 -1.43674 0
M  V30 2368 H 213.053 -4.24663 0.232691 0
M  V30 2369 N 211.368 -0.403325 -1.52352 0
M  V30 2370 C 212.331 0.413051 -2.25447 0
M  V30 2371 C 213.331 0.978513 -1.276 0
M  V30 2372 O 214.521 0.858305 -1.51587 0
M  V30 2373 C 211.653 1.58087 -3.02029 0
M  V30 2374 H 212.846 -0.227094 -2.99039 0
M  V30 2375 H 210.399 -0.155722 -1.55522 0
M  V30 2376 H 211.134 2.25804 -2.32772 0
M  V30 2377 H 210.919 1.18195 -3.73861 0
M  V30 2378 H 212.409 2.1585 -3.57489 0
M  V30 2379 N 212.846 1.57033 -0.133567 0
M  V30 2380 C 214.257 1.82593 0.389464 0
M  V30 2381 C 214.608 1.05156 1.6564 0
M  V30 2382 O 213.733 0.292644 2.14412 0
M  V30 2383 C 214.328 3.31204 0.713377 0
M  V30 2384 C 212.887 3.57393 1.18098 0
M  V30 2385 C 212.034 2.76598 0.197126 0
M  V30 2386 H 214.985 1.54598 -0.358481 0
M  V30 2387 H 215.006 3.46627 1.56939 0
M  V30 2388 H 214.518 3.87537 -0.2089 0
M  V30 2389 H 212.619 3.06433 2.11966 0
M  V30 2390 H 212.732 4.65915 1.11624 0
M  V30 2391 H 211.096 2.45257 0.687088 0
M  V30 2392 H 211.879 3.35697 -0.718504 0
M  V30 2393 N 214.325 -0.140222 1.56975 0
M  V30 2394 C 215.571 -0.848084 1.84876 0
M  V30 2395 C 215.926 -1.78481 0.718481 0
M  V30 2396 O 215.219 -1.89497 -0.283093 0
M  V30 2397 C 215.413 -1.65386 3.16832 0
M  V30 2398 C 215.242 -0.79665 4.42587 0
M  V30 2399 C 214.012 -0.459648 5.03205 0
M  V30 2400 C 216.21 -0.12389 5.14151 0
M  V30 2401 N 214.192 0.410446 6.12526 0
M  V30 2402 C 215.563 0.606064 6.17031 0
M  V30 2403 C 217.618 -0.0452654 4.97879 0
M  V30 2404 C 216.321 1.40723 7.054 0
M  V30 2405 C 218.347 0.742658 5.86718 0
M  V30 2406 C 217.709 1.46087 6.89085 0
M  V30 2407 H 213.808 -0.287946 0.727056 0
M  V30 2408 H 216.392 -0.11304 1.94372 0
M  V30 2409 H 214.563 -2.36009 3.08471 0
M  V30 2410 H 216.295 -2.30541 3.32615 0
M  V30 2411 H 213.05 -0.797006 4.66846 0
M  V30 2412 H 213.474 0.836716 6.7181 0
M  V30 2413 H 218.116 -0.586184 4.18717 0
M  V30 2414 H 215.834 1.95938 7.83986 0
M  V30 2415 H 219.42 0.805574 5.76196 0
M  V30 2416 H 218.3 2.06077 7.56639 0
M  V30 2417 N 215.803 -1.52179 -0.40978 0
M  V30 2418 C 217.049 -1.66453 -1.15851 0
M  V30 2419 C 217.382 -0.392972 -1.90182 0
M  V30 2420 O 216.657 0.608579 -1.84734 0
M  V30 2421 C 216.94 -2.88612 -2.15349 0
M  V30 2422 C 216.793 -4.25815 -1.44918 0
M  V30 2423 C 218.112 -3.06294 -3.16026 0
M  V30 2424 H 215.231 -0.60575 -0.419805 0
M  V30 2425 H 217.873 -1.84732 -0.444314 0
M  V30 2426 H 216.023 -2.73158 -2.76255 0
M  V30 2427 H 217.695 -4.52995 -0.871365 0
M  V30 2428 H 215.938 -4.27247 -0.751159 0
M  V30 2429 H 216.609 -5.07337 -2.17516 0
M  V30 2430 H 219.085 -3.20641 -2.65195 0
M  V30 2431 H 217.961 -3.93283 -3.8291 0
M  V30 2432 H 218.222 -2.19579 -3.83715 0
M  V30 2433 N 217.281 0.66697 -1.42791 0
M  V30 2434 C 218.53 1.42278 -1.42968 0
M  V30 2435 C 218.843 1.9553 -0.0524489 0
M  V30 2436 O 220.049 2.71414 0.068363 0
M  V30 2437 C 218.505 2.57418 -2.51524 0
M  V30 2438 C 218.113 2.10832 -3.9529 0
M  V30 2439 C 219.857 3.34878 -2.60877 0
M  V30 2440 C 217.764 3.23101 -4.95338 0
M  V30 2441 H 216.694 0.534533 -0.531781 0
M  V30 2442 H 219.345 0.721302 -1.68729 0
M  V30 2443 H 217.727 3.29971 -2.18941 0
M  V30 2444 H 218.901 1.4538 -4.37266 0
M  V30 2445 H 217.216 1.46289 -3.89857 0
M  V30 2446 H 219.813 4.18505 -3.32802 0
M  V30 2447 H 220.156 3.81993 -1.6549 0
M  V30 2448 H 220.689 2.69398 -2.92693 0
M  V30 2449 H 217.428 2.80969 -5.9223 0
M  V30 2450 H 216.948 3.87309 -4.57987 0
M  V30 2451 H 218.627 3.88447 -5.17415 0
M  V30 2452 N 218.759 1.29093 0.90403 0
M  V30 2453 C 220.007 1.16583 1.65085 0
M  V30 2454 C 220.328 -0.283933 1.92922 0
M  V30 2455 O 219.598 -1.19509 1.55224 0
M  V30 2456 H 218.178 0.428467 0.611903 0
M  V30 2457 H 220.84 1.61959 1.08422 0
M  V30 2458 H 219.936 1.71266 2.6091 0
M  V30 2459 N 220.237 -1.11381 1.11499 0
M  V30 2460 C 221.648 -1.6465 0.880191 0
M  V30 2461 C 221.999 -1.87199 -0.587434 0
M  V30 2462 O 221.124 -1.60667 -1.44966 0
M  V30 2463 C 221.719 -2.99105 1.59128 0
M  V30 2464 C 220.278 -3.49279 1.40289 0
M  V30 2465 C 219.425 -2.24077 1.63354 0
M  V30 2466 H 222.376 -0.950123 1.27116 0
M  V30 2467 H 222.397 -3.66107 1.03664 0
M  V30 2468 H 221.909 -2.82661 2.65941 0
M  V30 2469 H 220.01 -3.70887 0.356888 0
M  V30 2470 H 220.123 -4.2803 2.15238 0
M  V30 2471 H 218.487 -2.31733 1.05698 0
M  V30 2472 H 219.27 -2.10175 2.71443 0
M  V30 2473 N 221.715 -0.905404 -1.28997 0
M  V30 2474 C 222.962 -0.534248 -1.95325 0
M  V30 2475 C 223.29 0.920535 -1.71337 0
M  V30 2476 O 222.545 1.66861 -1.02254 0
M  V30 2477 C 222.844 -0.779906 -3.48787 0
M  V30 2478 C 222.51 -2.21293 -3.92861 0
M  V30 2479 C 221.172 -2.60475 -4.04606 0
M  V30 2480 C 223.524 -3.14587 -4.15553 0
M  V30 2481 C 220.852 -3.9212 -4.36416 0
M  V30 2482 C 223.204 -4.45787 -4.48839 0
M  V30 2483 C 221.868 -4.84834 -4.58794 0
M  V30 2484 H 221.138 -0.195495 -0.714747 0
M  V30 2485 H 223.785 -1.14514 -1.53488 0
M  V30 2486 H 222.09 -0.0861365 -3.91705 0
M  V30 2487 H 223.787 -0.472029 -3.98212 0
M  V30 2488 H 220.377 -1.89887 -3.84241 0
M  V30 2489 H 224.561 -2.85528 -4.0594 0
M  V30 2490 H 219.817 -4.22086 -4.42327 0
M  V30 2491 H 223.991 -5.18098 -4.65346 0
M  V30 2492 H 221.618 -5.86877 -4.83197 0
M  V30 2493 N 223.193 1.4272 -0.668489 0
M  V30 2494 C 224.421 2.05966 -0.196348 0
M  V30 2495 C 224.836 1.50191 1.14403 0
M  V30 2496 O 224.193 0.639208 1.7094 0
M  V30 2497 C 224.244 3.61314 -0.115815 0
M  V30 2498 O 223.965 4.1502 -1.40322 0
M  V30 2499 C 225.466 4.41663 0.380579 0
M  V30 2500 H 222.686 0.663954 -0.0969829 0
M  V30 2501 H 225.23 1.82966 -0.913446 0
M  V30 2502 H 223.385 3.83448 0.551931 0
M  V30 2503 H 223.799 5.08832 -1.27243 0
M  V30 2504 H 225.273 5.5065 0.385848 0
M  V30 2505 H 225.75 4.15792 1.41471 0
M  V30 2506 H 226.356 4.24534 -0.255209 0
M  V30 2507 N 224.671 0.411399 1.52136 0
M  V30 2508 C 225.918 -0.163645 2.01838 0
M  V30 2509 C 226.246 -1.4495 1.29691 0
M  V30 2510 O 225.501 -1.91725 0.392431 0
M  V30 2511 C 225.8 -0.455872 3.54481 0
M  V30 2512 C 225.466 0.741055 4.44769 0
M  V30 2513 C 224.128 1.06936 4.69167 0
M  V30 2514 C 226.48 1.54075 4.97906 0
M  V30 2515 C 223.808 2.19851 5.43951 0
M  V30 2516 C 226.16 2.66067 5.73926 0
M  V30 2517 C 224.824 2.99381 5.96596 0
M  V30 2518 H 224.094 -0.0598821 0.738576 0
M  V30 2519 H 226.741 0.553283 1.83333 0
M  V30 2520 H 225.046 -1.2544 3.71177 0
M  V30 2521 H 226.743 -0.913802 3.90449 0
M  V30 2522 H 223.333 0.475192 4.25958 0
M  V30 2523 H 227.517 1.30033 4.78963 0
M  V30 2524 H 222.773 2.46006 5.59724 0
M  V30 2525 H 226.947 3.28419 6.14096 0
M  V30 2526 H 224.574 3.86992 6.54325 0
M  V30 2527 N 226.149 -1.5696 0.141893 0
M  V30 2528 C 227.079 -2.19516 -0.795936 0
M  V30 2529 C 228.06 -1.14187 -1.26077 0
M  V30 2530 O 229.245 -1.42511 -1.31925 0
M  V30 2531 C 226.375 -2.81272 -2.03723 0
M  V30 2532 C 225.329 -3.92384 -1.70936 0
M  V30 2533 C 224.655 -4.41052 -3.02287 0
M  V30 2534 C 225.955 -5.13403 -0.959954 0
M  V30 2535 H 227.649 -2.98138 -0.274596 0
M  V30 2536 H 225.195 -1.43406 -0.130636 0
M  V30 2537 H 227.148 -3.237 -2.69808 0
M  V30 2538 H 225.872 -1.99973 -2.58221 0
M  V30 2539 H 224.531 -3.50566 -1.07232 0
M  V30 2540 H 224.179 -3.56582 -3.54765 0
M  V30 2541 H 223.879 -5.15993 -2.81114 0
M  V30 2542 H 225.403 -4.86146 -3.69451 0
M  V30 2543 H 226.817 -5.52706 -1.52279 0
M  V30 2544 H 225.214 -5.94073 -0.848357 0
M  V30 2545 H 226.284 -4.84875 0.0492434 0
M  V30 2546 N 227.627 0.131896 -1.57047 0
M  V30 2547 C 228.857 0.855219 -1.88068 0
M  V30 2548 C 229.265 1.74557 -0.729817 0
M  V30 2549 O 228.608 1.81083 0.308962 0
M  V30 2550 C 228.67 1.75119 -3.13964 0
M  V30 2551 C 228.334 1.03646 -4.45091 0
M  V30 2552 C 229.331 0.383276 -5.18485 0
M  V30 2553 C 227.016 1.02148 -4.91804 0
M  V30 2554 C 229.01 -0.275347 -6.36805 0
M  V30 2555 C 226.697 0.359047 -6.10044 0
M  V30 2556 C 227.695 -0.288222 -6.82392 0
M  V30 2557 O 227.383 -0.94011 -7.98384 0
M  V30 2558 H 227.115 0.251864 -0.627328 0
M  V30 2559 H 229.669 0.124782 -2.05021 0
M  V30 2560 H 227.899 2.52295 -2.9306 0
M  V30 2561 H 229.588 2.3478 -3.31109 0
M  V30 2562 H 230.354 0.386562 -4.83457 0
M  V30 2563 H 226.233 1.5147 -4.35405 0
M  V30 2564 H 229.777 -0.781148 -6.93213 0
M  V30 2565 H 225.674 0.35348 -6.44531 0
M  V30 2566 H 226.442 -0.84329 -8.14144 0
M  V30 2567 N 229.106 1.52395 0.401703 0
M  V30 2568 C 230.036 1.79231 1.49661 0
M  V30 2569 C 231.017 0.643654 1.57452 0
M  V30 2570 O 232.202 0.889989 1.72606 0
M  V30 2571 C 229.332 1.94971 2.87409 0
M  V30 2572 C 228.286 3.10604 2.94465 0
M  V30 2573 C 227.612 3.11577 4.34538 0
M  V30 2574 C 228.912 4.49921 2.6527 0
M  V30 2575 H 230.606 2.70917 1.27454 0
M  V30 2576 H 228.152 1.30362 0.6117 0
M  V30 2577 H 230.105 2.12328 3.63999 0
M  V30 2578 H 228.829 0.999632 3.10926 0
M  V30 2579 H 227.488 2.93009 2.20321 0
M  V30 2580 H 227.136 2.14277 4.55076 0
M  V30 2581 H 226.836 3.89247 4.40183 0
M  V30 2582 H 228.36 3.31073 5.13053 0
M  V30 2583 H 229.774 4.67683 3.31581 0
M  V30 2584 H 228.171 5.29564 2.82281 0
M  V30 2585 H 229.241 4.57507 1.60671 0
M  V30 2586 N 230.584 -0.659388 1.43143 0
M  V30 2587 C 231.809 -1.45221 1.48073 0
M  V30 2588 C 232.234 -1.87845 0.097995 0
M  V30 2589 O 231.592 -1.56985 -0.90694 0
M  V30 2590 C 231.64 -2.66748 2.42647 0
M  V30 2591 O 230.744 -3.65583 1.90848 0
M  V30 2592 H 230.085 -0.435669 0.501088 0
M  V30 2593 H 232.615 -0.807432 1.87994 0
M  V30 2594 H 232.625 -3.14637 2.59745 0
M  V30 2595 H 231.3 -2.35067 3.43098 0
M  V30 2596 H 229.877 -3.24693 1.83381 0
M  V30 2597 N 232.062 -1.29571 -0.897171 0
M  V30 2598 C 233.009 -1.14916 -2.00158 0
M  V30 2599 C 233.979 -0.0418149 -1.66047 0
M  V30 2600 O 235.164 -0.209793 -1.89643 0
M  V30 2601 C 232.304 -0.834307 -3.34863 0
M  V30 2602 C 231.417 -2.02234 -3.8174 0
M  V30 2603 C 230.552 -1.64664 -5.05034 0
M  V30 2604 C 229.591 -2.80033 -5.44286 0
M  V30 2605 N 228.728 -2.42843 -6.58765 0
M  V30 2606 H 233.568 -2.09403 -2.12025 0
M  V30 2607 H 231.105 -1.042 -1.0383 0
M  V30 2608 H 233.063 -0.632436 -4.12379 0
M  V30 2609 H 231.693 0.0736656 -3.22716 0
M  V30 2610 H 230.745 -2.33583 -3.00238 0
M  V30 2611 H 232.057 -2.88673 -4.06779 0
M  V30 2612 H 231.211 -1.4078 -5.9014 0
M  V30 2613 H 229.95 -0.753766 -4.8184 0
M  V30 2614 H 228.955 -3.04596 -4.57713 0
M  V30 2615 H 230.18 -3.69989 -5.6946 0
M  V30 2616 H 228.126 -1.56046 -6.3717 0
M  V30 2617 H 228.043 -3.22815 -6.83613 0
M  V30 2618 H 229.311 -2.22285 -7.47134 0
M  V30 2619 N 233.54 1.10788 -1.12088 0
M  V30 2620 C 234.956 1.34691 -0.856186 0
M  V30 2621 C 235.156 1.94791 0.515615 0
M  V30 2622 O 234.212 2.18524 1.26505 0
M  V30 2623 C 235.525 2.27208 -1.9697 0
M  V30 2624 C 237.073 2.40755 -2.00016 0
M  V30 2625 C 237.548 3.36598 -3.1059 0
M  V30 2626 N 239.039 3.44164 -3.10008 0
M  V30 2627 C 239.774 4.18284 -3.92206 0
M  V30 2628 N 239.27 4.95322 -4.84384 0
M  V30 2629 N 241.063 4.13865 -3.80357 0
M  V30 2630 H 233.214 0.70144 -2.00483 0
M  V30 2631 H 235.477 0.371405 -0.872217 0
M  V30 2632 H 235.183 1.90251 -2.958 0
M  V30 2633 H 235.057 3.27485 -1.87172 0
M  V30 2634 H 237.444 2.76982 -1.01808 0
M  V30 2635 H 237.525 1.40305 -2.13888 0
M  V30 2636 H 237.169 3.01096 -4.09028 0
M  V30 2637 H 237.099 4.36918 -2.93956 0
M  V30 2638 H 239.59 2.8922 -2.43228 0
M  V30 2639 H 239.903 5.49267 -5.43623 0
M  V30 2640 H 238.248 4.94459 -4.884 0
M  V30 2641 H 241.439 3.52773 -3.07683 0
M  V30 2642 H 241.612 4.71372 -4.44649 0
M  V30 2643 N 235.018 0.912232 1.28515 0
M  V30 2644 C 235.966 0.389597 2.29314 0
M  V30 2645 C 236.96 -0.517915 1.61289 0
M  V30 2646 O 238.166 -0.399328 1.75515 0
M  V30 2647 H 234.541 0.107386 0.744293 0
M  V30 2648 H 236.512 1.25286 2.70825 0
M  V30 2649 C 235.261 -0.356496 3.45868 0
M  V30 2650 H 234.584 0.332608 3.98414 0
M  V30 2651 H 236.024 -0.686851 4.184 0
M  V30 2652 C 234.483 -1.56383 2.98406 0
M  V30 2653 O 235.013 -2.66294 3.00749 0
M  V30 2654 N 233.219 -1.41029 2.54085 0
M  V30 2655 H 232.766 -0.516089 2.52377 0
M  V30 2656 H 232.724 -2.21939 2.22689 0
M  V30 2657 N 236.496 -1.42363 0.676048 0
M  V30 2658 C 237.744 -2.01123 0.198437 0
M  V30 2659 C 238.065 -1.53731 -1.19966 0
M  V30 2660 O 237.335 -0.759518 -1.80577 0
M  V30 2661 H 235.915 -0.743678 0.0703721 0
M  V30 2662 H 238.577 -1.74263 0.872837 0
M  V30 2663 H 237.673 -3.11454 0.200686 0
M  V30 2664 N 237.974 -0.419461 -1.51915 0
M  V30 2665 C 238.884 0.407528 -2.31033 0
M  V30 2666 C 239.9 1.04413 -1.3919 0
M  V30 2667 O 241.076 1.0434 -1.72265 0
M  V30 2668 C 238.141 1.50365 -3.12396 0
M  V30 2669 C 237.202 0.889029 -4.19994 0
M  V30 2670 C 236.435 1.93291 -4.97468 0
M  V30 2671 O 236.658 3.15259 -4.75361 0
M  V30 2672 O 235.592 1.53339 -5.8204 0
M  V30 2673 H 239.418 -0.237865 -3.02767 0
M  V30 2674 H 237.003 -0.182413 -1.48282 0
M  V30 2675 H 238.885 2.13975 -3.63032 0
M  V30 2676 H 237.56 2.13345 -2.43445 0
M  V30 2677 H 236.467 0.215353 -3.7348 0
M  V30 2678 H 237.8 0.302991 -4.91267 0
M  V30 2679 N 239.452 1.56882 -0.150215 0
M  V30 2680 C 240.698 1.97299 0.494427 0
M  V30 2681 C 241.053 1.0338 1.62266 0
M  V30 2682 O 240.346 0.0694497 1.91474 0
M  V30 2683 C 240.54 3.41801 1.04437 0
M  V30 2684 C 240.369 4.49691 -0.0290451 0
M  V30 2685 C 239.139 5.03095 -0.47156 0
M  V30 2686 C 241.337 5.07693 -0.821703 0
M  V30 2687 N 239.319 5.94593 -1.52749 0
M  V30 2688 C 240.69 5.95431 -1.72805 0
M  V30 2689 C 242.745 4.90256 -0.869134 0
M  V30 2690 C 241.448 6.67599 -2.67777 0
M  V30 2691 C 243.474 5.63127 -1.8067 0
M  V30 2692 C 242.836 6.50576 -2.70057 0
M  V30 2693 H 238.935 0.76755 0.149639 0
M  V30 2694 H 241.519 1.93145 -0.24556 0
M  V30 2695 H 239.69 3.46541 1.75396 0
M  V30 2696 H 241.422 3.69272 1.6559 0
M  V30 2697 H 238.177 4.73543 -0.0732101 0
M  V30 2698 H 238.601 6.45047 -2.05531 0
M  V30 2699 H 243.243 4.22363 -0.192134 0
M  V30 2700 H 240.961 7.34717 -3.36476 0
M  V30 2701 H 244.547 5.51629 -1.84924 0
M  V30 2702 H 243.427 7.05974 -3.41424 0
M  V30 2703 N 240.93 -0.123565 1.57115 0
M  V30 2704 C 242.179 -0.830704 1.83799 0
M  V30 2705 C 242.492 -1.81259 0.735158 0
M  V30 2706 O 243.698 -2.56558 0.888278 0
M  V30 2707 C 242.154 -1.52802 3.25852 0
M  V30 2708 C 241.762 -0.587356 4.44133 0
M  V30 2709 C 243.506 -2.22056 3.61789 0
M  V30 2710 C 241.413 -1.28764 5.77212 0
M  V30 2711 H 240.343 -0.313967 0.685522 0
M  V30 2712 H 242.994 -0.0834359 1.8331 0
M  V30 2713 H 241.376 -2.32175 3.20797 0
M  V30 2714 H 242.55 0.172829 4.60476 0
M  V30 2715 H 240.865 -0.00201892 4.164 0
M  V30 2716 H 243.462 -2.75131 4.58483 0
M  V30 2717 H 243.805 -2.99644 2.88997 0
M  V30 2718 H 244.338 -1.49576 3.68608 0
M  V30 2719 H 241.077 -0.55314 6.53162 0
M  V30 2720 H 240.597 -2.01995 5.64764 0
M  V30 2721 H 242.276 -1.8221 6.20813 0
M  V30 2722 N 242.408 -1.52605 -0.393616 0
M  V30 2723 C 243.824 -1.41753 -0.733357 0
M  V30 2724 C 244.024 -0.534293 -1.94287 0
M  V30 2725 O 243.08 -0.0059787 -2.52499 0
M  V30 2726 C 244.393 -2.84531 -0.972772 0
M  V30 2727 C 245.941 -2.93978 -1.07453 0
M  V30 2728 C 246.416 -4.37756 -1.3466 0
M  V30 2729 N 247.907 -4.4106 -1.41492 0
M  V30 2730 C 248.642 -5.49387 -1.642 0
M  V30 2731 N 248.138 -6.67806 -1.8441 0
M  V30 2732 N 249.931 -5.36923 -1.66342 0
M  V30 2733 H 242.082 -2.08555 0.402328 0
M  V30 2734 H 244.345 -0.940654 0.117789 0
M  V30 2735 H 244.051 -3.51353 -0.156204 0
M  V30 2736 H 243.925 -3.26508 -1.88871 0
M  V30 2737 H 246.312 -2.27326 -1.88167 0
M  V30 2738 H 246.393 -2.55435 -0.136605 0
M  V30 2739 H 246.037 -5.04972 -0.544581 0
M  V30 2740 H 245.967 -4.73848 -2.2973 0
M  V30 2741 H 248.458 -3.55705 -1.27601 0
M  V30 2742 H 248.771 -7.46141 -2.01231 0
M  V30 2743 H 247.116 -6.70843 -1.81644 0
M  V30 2744 H 250.307 -4.43381 -1.50102 0
M  V30 2745 H 250.48 -6.21416 -1.837 0
M  V30 2746 N 243.887 0.651787 -1.4349 0
M  V30 2747 C 245.303 0.96762 -1.26922 0
M  V30 2748 C 245.503 2.00602 -0.189982 0
M  V30 2749 O 244.559 2.48793 0.431107 0
M  V30 2750 C 245.872 1.45052 -2.63401 0
M  V30 2751 C 247.42 1.5671 -2.70945 0
M  V30 2752 C 247.895 2.0839 -4.07845 0
M  V30 2753 N 249.386 2.1569 -4.09917 0
M  V30 2754 C 250.121 2.56804 -5.12679 0
M  V30 2755 N 249.617 2.97203 -6.25813 0
M  V30 2756 N 251.41 2.56756 -5.00033 0
M  V30 2757 H 243.561 -0.0353158 -2.12371 0
M  V30 2758 H 245.824 0.0467858 -0.946845 0
M  V30 2759 H 245.53 0.761926 -3.43348 0
M  V30 2760 H 245.404 2.42529 -2.88894 0
M  V30 2761 H 247.791 2.2467 -1.9133 0
M  V30 2762 H 247.872 0.57662 -2.49216 0
M  V30 2763 H 247.516 1.41031 -4.87927 0
M  V30 2764 H 247.446 3.08271 -4.26938 0
M  V30 2765 H 249.937 1.87237 -3.28254 0
M  V30 2766 H 250.25 3.27328 -7.00055 0
M  V30 2767 H 248.595 2.95004 -6.29283 0
M  V30 2768 H 251.786 2.24572 -4.10713 0
M  V30 2769 H 251.959 2.88475 -5.80247 0
M  V30 2770 N 245.365 1.30045 0.890287 0
M  V30 2771 C 246.776 1.16738 1.45702 0
M  V30 2772 C 247.127 -0.233939 1.948 0
M  V30 2773 O 246.252 -1.13021 1.84541 0
M  V30 2774 C 246.847 2.11313 2.64825 0
M  V30 2775 C 245.406 2.02001 3.17604 0
M  V30 2776 C 244.553 2.01699 1.90296 0
M  V30 2777 H 247.504 1.42392 0.700726 0
M  V30 2778 H 247.525 1.69086 3.40867 0
M  V30 2779 H 247.037 3.13294 2.2906 0
M  V30 2780 H 245.138 1.03142 3.5804 0
M  V30 2781 H 245.251 2.90128 3.81264 0
M  V30 2782 H 243.615 1.46427 2.08402 0
M  V30 2783 H 244.398 3.05402 1.56795 0
M  V30 2784 N 246.843 -1.10192 1.12674 0
M  V30 2785 C 247.791 -2.18694 0.792196 0
M  V30 2786 C 248.785 -1.67938 -0.222058 0
M  V30 2787 O 249.991 -1.79822 -0.0800074 0
M  V30 2788 H 246.366 -0.713223 0.238364 0
M  V30 2789 H 248.337 -2.44149 1.71564 0
M  V30 2790 C 247.086 -3.46682 0.265859 0
M  V30 2791 H 246.409 -3.86101 1.03761 0
M  V30 2792 H 247.849 -4.23942 0.0701128 0
M  V30 2793 C 246.308 -3.21506 -1.00675 0
M  V30 2794 O 246.838 -3.43408 -2.08408 0
M  V30 2795 N 245.044 -2.75158 -0.934692 0
M  V30 2796 H 244.591 -2.57535 -0.0578604 0
M  V30 2797 H 244.549 -2.58691 -1.7868 0
M  V30 2798 N 248.321 -0.919034 -1.28029 0
M  V30 2799 C 249.253 -0.368762 -2.26214 0
M  V30 2800 C 250.266 0.495716 -1.55069 0
M  V30 2801 O 251.455 0.30974 -1.75792 0
M  V30 2802 C 248.555 0.491049 -3.35324 0
M  V30 2803 C 247.728 -0.352133 -4.3598 0
M  V30 2804 C 246.787 0.443622 -5.24327 0
M  V30 2805 O 245.813 -0.14566 -5.69014 0
M  V30 2806 N 247.015 1.74545 -5.53637 0
M  V30 2807 H 249.78 -1.21273 -2.74068 0
M  V30 2808 H 247.341 -0.785541 -1.41566 0
M  V30 2809 H 249.333 1.03026 -3.91366 0
M  V30 2810 H 247.903 1.23574 -2.87138 0
M  V30 2811 H 247.123 -1.07269 -3.79324 0
M  V30 2812 H 248.411 -0.928883 -5.00249 0
M  V30 2813 H 247.809 2.24666 -5.19174 0
M  V30 2814 H 246.366 2.23138 -6.12416 0
M  V30 2815 N 249.799 1.42003 -0.683588 0
M  V30 2816 C 250.732 2.28166 0.039592 0
M  V30 2817 C 251.71 1.41562 0.799942 0
M  V30 2818 O 252.894 1.70997 0.793248 0
M  V30 2819 C 250.021 3.21575 1.06335 0
M  V30 2820 C 249.067 4.24643 0.397562 0
M  V30 2821 S 249.9 5.2869 -0.851296 0
M  V30 2822 C 251.056 6.25666 0.171166 0
M  V30 2823 H 251.289 2.89153 -0.691229 0
M  V30 2824 H 248.822 1.46962 -0.473435 0
M  V30 2825 H 250.78 3.75928 1.6489 0
M  V30 2826 H 249.441 2.59707 1.76667 0
M  V30 2827 H 248.634 4.90223 1.17035 0
M  V30 2828 H 248.236 3.73824 -0.114611 0
M  V30 2829 H 250.528 6.69653 1.02819 0
M  V30 2830 H 251.471 7.06666 -0.450397 0
M  V30 2831 H 251.879 5.62095 0.520578 0
M  V30 2832 N 251.277 0.427512 1.51691 0
M  V30 2833 C 252.187 -0.39527 2.31246 0
M  V30 2834 C 253.203 -1.03674 1.39742 0
M  V30 2835 O 254.379 -1.03425 1.72816 0
M  V30 2836 C 251.444 -1.48706 3.13189 0
M  V30 2837 C 250.505 -0.866743 4.20459 0
M  V30 2838 C 249.738 -1.90651 4.98486 0
M  V30 2839 O 249.961 -3.12733 4.77026 0
M  V30 2840 O 248.895 -1.5025 5.82845 0
M  V30 2841 H 252.721 0.253918 3.02637 0
M  V30 2842 H 250.306 0.190274 1.48183 0
M  V30 2843 H 252.188 -2.12047 3.64162 0
M  V30 2844 H 250.863 -2.12051 2.44573 0
M  V30 2845 H 249.77 -0.195544 3.73589 0
M  V30 2846 H 251.103 -0.276934 4.9142 0
M  V30 2847 N 252.755 -1.56801 0.158532 0
M  V30 2848 C 253.702 -2.17337 -0.776729 0
M  V30 2849 C 254.672 -1.1096 -1.23601 0
M  V30 2850 O 255.857 -1.39054 -1.30647 0
M  V30 2851 C 252.997 -2.80822 -2.00582 0
M  V30 2852 C 252.11 -4.01624 -1.59129 0
M  V30 2853 C 251.245 -4.53072 -2.77306 0
M  V30 2854 C 250.284 -5.66314 -2.32282 0
M  V30 2855 N 249.421 -6.12329 -3.43508 0
M  V30 2856 H 254.261 -2.96918 -0.253701 0
M  V30 2857 H 251.798 -1.46661 -0.113504 0
M  V30 2858 H 253.756 -3.15779 -2.72652 0
M  V30 2859 H 252.386 -2.03866 -2.50277 0
M  V30 2860 H 251.438 -3.72571 -0.767806 0
M  V30 2861 H 252.75 -4.83633 -1.2207 0
M  V30 2862 H 251.904 -4.90145 -3.57551 0
M  V30 2863 H 250.643 -3.70095 -3.17617 0
M  V30 2864 H 249.648 -5.28806 -1.5048 0
M  V30 2865 H 250.873 -6.51085 -1.93043 0
M  V30 2866 H 248.819 -5.32284 -3.83418 0
M  V30 2867 H 248.736 -6.89293 -3.105 0
M  V30 2868 H 250.004 -6.5405 -4.24075 0
M  V30 2869 N 254.233 0.115231 -1.57178 0
M  V30 2870 C 255.163 1.1423 -2.03651 0
M  V30 2871 C 256.144 1.42967 -0.921655 0
M  V30 2872 O 257.329 1.53343 -1.19162 0
M  V30 2873 C 254.459 2.4675 -2.44401 0
M  V30 2874 C 253.413 2.32467 -3.59365 0
M  V30 2875 C 252.739 3.69984 -3.86026 0
M  V30 2876 C 254.039 1.78203 -4.90959 0
M  V30 2877 H 255.733 0.755749 -2.89705 0
M  V30 2878 H 253.279 0.362093 -1.39373 0
M  V30 2879 H 255.232 3.18854 -2.75517 0
M  V30 2880 H 253.956 2.87302 -1.55322 0
M  V30 2881 H 252.615 1.62811 -3.28463 0
M  V30 2882 H 252.263 4.08028 -2.94147 0
M  V30 2883 H 251.963 3.61279 -4.63412 0
M  V30 2884 H 253.487 4.43587 -4.19599 0
M  V30 2885 H 254.901 2.40128 -5.20587 0
M  V30 2886 H 253.298 1.8031 -5.72371 0
M  V30 2887 H 254.368 0.739876 -4.79222 0
M  V30 2888 N 255.711 1.52812 0.385517 0
M  V30 2889 C 256.641 1.80808 1.47752 0
M  V30 2890 C 257.622 0.660318 1.5676 0
M  V30 2891 O 258.807 0.908246 1.71652 0
M  V30 2892 C 255.937 1.98008 2.85324 0
M  V30 2893 C 254.891 3.13709 2.91154 0
M  V30 2894 C 254.217 3.16169 4.31209 0
M  V30 2895 C 255.517 4.52709 2.60483 0
M  V30 2896 H 257.211 2.72253 1.24573 0
M  V30 2897 H 254.757 1.31003 0.597839 0
M  V30 2898 H 256.71 2.16176 3.61726 0
M  V30 2899 H 255.434 1.03255 3.09848 0
M  V30 2900 H 254.093 2.95329 2.17201 0
M  V30 2901 H 253.741 2.19092 4.52778 0
M  V30 2902 H 253.441 3.93894 4.36029 0
M  V30 2903 H 254.965 3.36496 5.09512 0
M  V30 2904 H 256.379 4.71173 3.26602 0
M  V30 2905 H 254.776 5.32528 2.76648 0
M  V30 2906 H 255.846 4.59186 1.55809 0
M  V30 2907 N 257.189 -0.644168 1.43834 0
M  V30 2908 C 258.099 -1.78563 1.52159 0
M  V30 2909 C 259.115 -1.69147 0.408069 0
M  V30 2910 O 260.291 -1.90156 0.663524 0
M  V30 2911 C 257.356 -3.14888 1.45073 0
M  V30 2912 C 256.417 -3.36034 2.6717 0
M  V30 2913 C 255.65 -4.65855 2.60413 0
M  V30 2914 O 255.873 -5.45805 1.65689 0
M  V30 2915 O 254.807 -4.88918 3.5106 0
M  V30 2916 H 258.633 -1.74494 2.48567 0
M  V30 2917 H 256.218 -0.80378 1.25935 0
M  V30 2918 H 258.1 -3.96179 1.43597 0
M  V30 2919 H 256.775 -3.19528 0.518037 0
M  V30 2920 H 255.682 -2.54472 2.74217 0
M  V30 2921 H 257.015 -3.36247 3.59442 0
M  V30 2922 N 258.668 -1.30515 -0.883378 0
M  V30 2923 C 259.893 -1.22487 -1.67367 0
M  V30 2924 C 260.318 0.208767 -1.86938 0
M  V30 2925 O 259.676 1.15015 -1.40148 0
M  V30 2926 C 259.724 -1.96041 -3.02655 0
M  V30 2927 O 258.828 -1.28859 -3.91751 0
M  V30 2928 H 258.169 -0.423573 -0.511353 0
M  V30 2929 H 260.699 -1.72362 -1.10239 0
M  V30 2930 H 260.709 -2.05124 -3.52687 0
M  V30 2931 H 259.384 -3.00307 -2.8773 0
M  V30 2932 H 257.961 -1.28141 -3.50192 0
M  V30 2933 N 260.146 1.09593 -1.13257 0
M  V30 2934 C 261.076 2.18214 -0.830946 0
M  V30 2935 C 262.057 1.68812 0.208966 0
M  V30 2936 O 263.242 1.9408 0.0682666 0
M  V30 2937 C 260.372 3.46051 -0.294296 0
M  V30 2938 C 259.326 4.08778 -1.26826 0
M  V30 2939 C 258.652 5.31419 -0.591449 0
M  V30 2940 C 259.952 4.51476 -2.62615 0
M  V30 2941 H 261.646 2.43703 -1.73923 0
M  V30 2942 H 259.192 1.17128 -0.837675 0
M  V30 2943 H 261.145 4.2134 -0.0709606 0
M  V30 2944 H 259.869 3.20079 0.649366 0
M  V30 2945 H 258.528 3.35505 -1.47756 0
M  V30 2946 H 258.176 5.01727 0.357633 0
M  V30 2947 H 257.876 5.74341 -1.24123 0
M  V30 2948 H 259.4 6.09433 -0.377355 0
M  V30 2949 H 260.814 5.17999 -2.45663 0
M  V30 2950 H 259.211 5.05277 -3.23752 0
M  V30 2951 H 260.281 3.63962 -3.20406 0
M  V30 2952 N 261.624 0.925811 1.2754 0
M  V30 2953 C 262.87 0.566092 1.94739 0
M  V30 2954 C 263.203 -0.890057 1.72603 0
M  V30 2955 O 262.478 -1.63467 1.05399 0
M  V30 2956 C 262.761 0.89054 3.48915 0
M  V30 2957 C 262.614 2.4003 3.80402 0
M  V30 2958 C 263.933 0.395101 4.38323 0
M  V30 2959 H 261.052 0.20714 0.707292 0
M  V30 2960 H 263.694 1.15725 1.50691 0
M  V30 2961 H 261.844 0.387452 3.86563 0
M  V30 2962 H 263.516 2.97494 3.52555 0
M  V30 2963 H 261.759 2.85028 3.2702 0
M  V30 2964 H 262.43 2.57785 4.8811 0
M  V30 2965 H 264.906 0.826241 4.07814 0
M  V30 2966 H 263.782 0.651086 5.45025 0
M  V30 2967 H 264.043 -0.704798 4.36446 0
M  V30 2968 N 263.102 -1.41638 0.69111 0
M  V30 2969 C 264.327 -2.06148 0.227583 0
M  V30 2970 C 264.752 -1.51652 -1.11281 0
M  V30 2971 O 264.11 -0.64164 -1.69566 0
M  V30 2972 C 264.158 -3.60095 0.190858 0
M  V30 2973 O 263.262 -4.03845 -0.835664 0
M  V30 2974 H 262.603 -0.654434 0.112306 0
M  V30 2975 H 265.133 -1.81484 0.944714 0
M  V30 2976 H 265.143 -4.07995 0.020207 0
M  V30 2977 H 263.818 -3.99129 1.16915 0
M  V30 2978 H 262.395 -3.67458 -0.63473 0
M  V30 2979 N 264.58 -0.43555 -1.51462 0
M  V30 2980 C 265.826 0.131709 -2.02372 0
M  V30 2981 C 266.159 1.42516 -1.3192 0
M  V30 2982 O 265.434 1.89606 -0.433573 0
M  V30 2983 C 265.717 0.352301 -3.58373 0
M  V30 2984 C 265.57 -0.959676 -4.39443 0
M  V30 2985 C 266.889 1.12286 -4.25535 0
M  V30 2986 H 264.008 0.0463936 -0.735538 0
M  V30 2987 H 266.65 -0.574197 -1.81116 0
M  V30 2988 H 264.8 0.9536 -3.76615 0
M  V30 2989 H 266.472 -1.59482 -4.32855 0
M  V30 2990 H 264.715 -1.56468 -4.04599 0
M  V30 2991 H 265.386 -0.759394 -5.46752 0
M  V30 2992 H 267.862 0.613545 -4.11552 0
M  V30 2993 H 266.738 1.24598 -5.34571 0
M  V30 2994 H 266.999 2.15048 -3.86273 0
M  V30 2995 N 266.058 1.56714 -0.166846 0
M  V30 2996 C 267.288 2.00828 0.48494 0
M  V30 2997 C 267.696 1.04612 1.57648 0
M  V30 2998 O 267.039 0.0383201 1.8366 0
M  V30 2999 C 267.101 3.4137 1.12723 0
M  V30 3000 C 266.765 4.56654 0.177886 0
M  V30 3001 C 267.762 5.16402 -0.60207 0
M  V30 3002 C 265.447 5.02244 0.0750139 0
M  V30 3003 C 267.441 6.20167 -1.47215 0
M  V30 3004 C 265.128 6.05859 -0.798649 0
M  V30 3005 C 266.126 6.64691 -1.57082 0
M  V30 3006 O 265.814 7.66297 -2.42989 0
M  V30 3007 H 265.546 0.663587 0.128953 0
M  V30 3008 H 268.1 2.03692 -0.264365 0
M  V30 3009 H 266.33 3.35406 1.92457 0
M  V30 3010 H 268.019 3.69466 1.68076 0
M  V30 3011 H 268.785 4.82065 -0.53274 0
M  V30 3012 H 264.664 4.56167 0.665812 0
M  V30 3013 H 268.208 6.66016 -2.07531 0
M  V30 3014 H 264.105 6.39621 -0.869199 0
M  V30 3015 H 264.873 7.83601 -2.36455 0
M  V30 3016 N 267.536 -0.106894 1.57237 0
M  V30 3017 C 268.483 -1.13049 2.01217 0
M  V30 3018 C 269.453 -1.40471 0.886403 0
M  V30 3019 O 270.638 -1.52133 1.15153 0
M  V30 3020 C 267.778 -2.4487 2.43172 0
M  V30 3021 C 266.891 -2.24281 3.69218 0
M  V30 3022 C 266.026 -3.49417 4.00101 0
M  V30 3023 C 265.065 -3.24038 5.19294 0
M  V30 3024 N 264.202 -4.41409 5.45988 0
M  V30 3025 H 269.042 -0.748456 2.88448 0
M  V30 3026 H 266.579 -0.358054 1.42676 0
M  V30 3027 H 268.537 -3.21786 2.65537 0
M  V30 3028 H 267.167 -2.80944 1.58967 0
M  V30 3029 H 266.219 -1.38224 3.54398 0
M  V30 3030 H 267.531 -2.01512 4.56283 0
M  V30 3031 H 266.685 -4.34746 4.2318 0
M  V30 3032 H 265.424 -3.75229 3.11535 0
M  V30 3033 H 264.429 -2.37102 4.96047 0
M  V30 3034 H 265.654 -2.99584 6.09447 0
M  V30 3035 H 263.6 -4.67319 4.60379 0
M  V30 3036 H 263.517 -4.21788 6.274 0
M  V30 3037 H 264.785 -5.27836 5.73593 0
M  V30 3038 N 269.014 -1.53014 -0.377408 0
M  V30 3039 C 269.924 -1.81557 -1.48574 0
M  V30 3040 C 270.94 -0.703102 -1.59162 0
M  V30 3041 O 272.116 -0.99192 -1.75279 0
M  V30 3042 C 269.181 -1.9889 -2.83978 0
M  V30 3043 C 268.242 -3.22801 -2.83016 0
M  V30 3044 C 267.475 -3.39298 -4.11962 0
M  V30 3045 O 267.698 -2.60345 -5.0752 0
M  V30 3046 O 266.632 -4.32604 -4.18494 0
M  V30 3047 H 270.458 -2.75695 -1.27382 0
M  V30 3048 H 268.043 -1.38248 -0.566373 0
M  V30 3049 H 269.925 -2.11931 -3.6423 0
M  V30 3050 H 268.6 -1.07942 -3.05172 0
M  V30 3051 H 267.507 -3.15193 -2.01505 0
M  V30 3052 H 268.84 -4.13632 -2.66775 0
M  V30 3053 N 270.492 0.636531 -1.44174 0
M  V30 3054 C 271.738 1.39826 -1.4689 0
M  V30 3055 C 272.071 1.93947 -0.0990585 0
M  V30 3056 O 271.346 1.73325 0.882544 0
M  V30 3057 C 271.629 2.56751 -2.5249 0
M  V30 3058 C 271.482 2.08014 -3.98811 0
M  V30 3059 C 272.801 3.58946 -2.54649 0
M  V30 3060 H 269.92 0.507075 -0.53483 0
M  V30 3061 H 272.562 0.720188 -1.75822 0
M  V30 3062 H 270.712 3.14597 -2.2795 0
M  V30 3063 H 272.384 1.5504 -4.34466 0
M  V30 3064 H 270.627 1.39242 -4.10846 0
M  V30 3065 H 271.298 2.92169 -4.68339 0
M  V30 3066 H 273.774 3.1089 -2.76563 0
M  V30 3067 H 272.65 4.38286 -3.3045 0
M  V30 3068 H 272.911 4.12655 -1.58646 0
M  V30 3069 N 271.97 1.30982 0.876444 0
M  V30 3070 C 273.217 1.20296 1.62896 0
M  V30 3071 C 273.545 -0.240395 1.93009 0
M  V30 3072 O 272.8 -1.18733 1.55567 0
M  V30 3073 C 273.099 1.98572 2.9716 0
M  V30 3074 C 272.765 3.48125 2.86566 0
M  V30 3075 C 271.427 3.88905 2.83383 0
M  V30 3076 C 273.779 4.43322 2.74071 0
M  V30 3077 C 271.107 5.2316 2.65556 0
M  V30 3078 C 273.459 5.77695 2.57781 0
M  V30 3079 C 272.123 6.17704 2.52979 0
M  V30 3080 H 271.393 0.440193 0.59608 0
M  V30 3081 H 274.04 1.62177 1.01837 0
M  V30 3082 H 272.345 1.49352 3.62217 0
M  V30 3083 H 274.042 1.8769 3.54364 0
M  V30 3084 H 270.632 3.15723 2.89856 0
M  V30 3085 H 274.816 4.12752 2.75589 0
M  V30 3086 H 270.072 5.53241 2.60259 0
M  V30 3087 H 274.246 6.51091 2.47089 0
M  V30 3088 H 271.873 7.21678 2.38924 0
M  V30 3089 N 273.449 -1.08991 1.13837 0
M  V30 3090 C 274.359 -2.19301 0.833333 0
M  V30 3091 C 275.375 -1.73026 -0.183847 0
M  V30 3092 O 276.551 -2.01395 -0.0138092 0
M  V30 3093 C 273.616 -3.45323 0.308651 0
M  V30 3094 C 272.677 -4.06255 1.38764 0
M  V30 3095 C 271.91 -5.26262 0.887896 0
M  V30 3096 O 272.133 -5.69747 -0.27287 0
M  V30 3097 O 271.067 -5.78435 1.66421 0
M  V30 3098 H 274.893 -2.47854 1.75506 0
M  V30 3099 H 272.478 -1.18012 0.916166 0
M  V30 3100 H 274.36 -4.21394 0.0216739 0
M  V30 3101 H 273.035 -3.18362 -0.585431 0
M  V30 3102 H 271.942 -3.318 1.72799 0
M  V30 3103 H 273.275 -4.37452 2.25602 0
M  V30 3104 N 274.927 -0.932562 -1.27047 0
M  V30 3105 C 275.874 -0.434072 -2.26681 0
M  V30 3106 C 276.844 0.501639 -1.58344 0
M  V30 3107 O 278.029 0.419734 -1.86126 0
M  V30 3108 C 275.169 0.30261 -3.43771 0
M  V30 3109 C 274.282 -0.667774 -4.26808 0
M  V30 3110 C 273.417 0.0892393 -5.31125 0
M  V30 3111 C 272.456 -0.873532 -6.05835 0
M  V30 3112 N 271.593 -0.148832 -7.01942 0
M  V30 3113 H 276.433 -1.28868 -2.68695 0
M  V30 3114 H 273.97 -0.646713 -1.32121 0
M  V30 3115 H 275.928 0.746092 -4.10474 0
M  V30 3116 H 274.558 1.12142 -3.02695 0
M  V30 3117 H 273.61 -1.22978 -3.59973 0
M  V30 3118 H 274.922 -1.40337 -4.78651 0
M  V30 3119 H 274.076 0.592409 -6.03801 0
M  V30 3120 H 272.815 0.85777 -4.80097 0
M  V30 3121 H 271.82 -1.38791 -5.31994 0
M  V30 3122 H 273.045 -1.64193 -6.58952 0
M  V30 3123 H 270.991 0.601365 -6.53238 0
M  V30 3124 H 270.908 -0.82391 -7.51497 0
M  V30 3125 H 272.176 0.333527 -7.78786 0
M  V30 3126 N 276.405 1.4127 -0.698611 0
M  V30 3127 C 277.335 2.33447 -0.049629 0
M  V30 3128 C 278.316 1.51982 0.763898 0
M  V30 3129 O 279.501 1.80509 0.716257 0
M  V30 3130 C 276.631 3.35828 0.885267 0
M  V30 3131 C 275.585 4.27627 0.178613 0
M  V30 3132 C 274.911 5.20406 1.22807 0
M  V30 3133 C 276.211 5.13459 -0.956933 0
M  V30 3134 H 277.905 2.87966 -0.81951 0
M  V30 3135 H 275.451 1.38461 -0.395538 0
M  V30 3136 H 277.404 3.9924 1.34854 0
M  V30 3137 H 276.128 2.79666 1.68685 0
M  V30 3138 H 274.787 3.65643 -0.26466 0
M  V30 3139 H 274.435 4.60558 2.02226 0
M  V30 3140 H 274.135 5.82661 0.760239 0
M  V30 3141 H 275.659 5.86695 1.69179 0
M  V30 3142 H 277.073 5.70421 -0.573805 0
M  V30 3143 H 275.47 5.8467 -1.35205 0
M  V30 3144 H 276.54 4.50443 -1.79524 0
M  V30 3145 N 277.883 0.443576 1.51229 0
M  V30 3146 C 279.129 -0.120975 2.02439 0
M  V30 3147 C 279.462 -1.41815 1.32674 0
M  V30 3148 O 278.737 -1.89373 0.443622 0
M  V30 3149 C 279.02 -0.333291 3.58554 0
M  V30 3150 C 278.873 0.982968 4.38928 0
M  V30 3151 C 280.192 -1.10028 4.26124 0
M  V30 3152 H 277.311 -0.0424923 0.735774 0
M  V30 3153 H 279.953 0.583794 1.80809 0
M  V30 3154 H 278.103 -0.933614 3.77115 0
M  V30 3155 H 279.775 1.61775 4.32003 0
M  V30 3156 H 278.018 1.58611 4.03763 0
M  V30 3157 H 278.689 0.788379 5.46341 0
M  V30 3158 H 281.165 -0.591711 4.11871 0
M  V30 3159 H 280.041 -1.21761 5.35225 0
M  V30 3160 H 280.302 -2.12996 3.87408 0
M  V30 3161 N 279.361 -1.56624 0.175154 0
M  V30 3162 C 280.271 -2.21741 -0.766042 0
M  V30 3163 C 281.287 -1.21023 -1.25018 0
M  V30 3164 O 282.463 -1.53697 -1.3015 0
M  V30 3165 C 279.528 -2.84839 -1.97655 0
M  V30 3166 C 278.589 -4.00769 -1.53892 0
M  V30 3167 C 277.822 -4.60849 -2.69173 0
M  V30 3168 O 278.045 -4.19823 -3.86141 0
M  V30 3169 O 276.979 -5.50655 -2.43028 0
M  V30 3170 H 280.805 -3.02738 -0.241585 0
M  V30 3171 H 278.39 -1.49305 -0.053222 0
M  V30 3172 H 280.272 -3.24834 -2.68442 0
M  V30 3173 H 278.947 -2.06836 -2.48999 0
M  V30 3174 H 277.854 -3.65436 -0.80044 0
M  V30 3175 H 279.187 -4.80376 -1.07236 0
M  V30 3176 N 280.839 0.0985539 -1.57292 0
M  V30 3177 C 281.787 1.1387 -2.02821 0
M  V30 3178 C 282.781 1.41676 -0.928666 0
M  V30 3179 O 283.987 1.41398 -1.11385 0
M  V30 3180 H 280.362 0.384419 -0.646317 0
M  V30 3181 H 282.333 0.728347 -2.89375 0
M  V30 3182 C 281.082 2.45166 -2.46554 0
M  V30 3183 H 280.405 2.24613 -3.3074 0
M  V30 3184 H 281.845 3.16456 -2.8219 0
M  V30 3185 C 280.304 3.09216 -1.33742 0
M  V30 3186 O 280.834 3.96163 -0.66464 0
M  V30 3187 N 279.04 2.69413 -1.08928 0
M  V30 3188 H 278.587 1.98801 -1.63817 0
M  V30 3189 H 278.545 3.12594 -0.336458 0
M  V30 3190 N 282.317 1.53212 0.369288 0
M  V30 3191 C 283.565 1.68881 1.11012 0
M  V30 3192 C 283.886 0.441285 1.89941 0
M  V30 3193 O 283.156 -0.544623 1.88177 0
M  V30 3194 H 281.736 0.622569 0.412816 0
M  V30 3195 H 284.398 1.90391 0.416802 0
M  V30 3196 H 283.494 2.54822 1.80201 0
M  V30 3197 N 283.795 -0.628877 1.44509 0
M  V30 3198 C 285.035 -1.39993 1.48934 0
M  V30 3199 C 285.399 -1.91627 0.119604 0
M  V30 3200 O 286.6 -2.68772 0.0385283 0
M  V30 3201 C 284.871 -2.53241 2.52198 0
M  V30 3202 S 286.43 -3.41383 2.75687 0
M  V30 3203 H 283.248 -0.477558 0.526744 0
M  V30 3204 H 285.85 -0.727804 1.81448 0
M  V30 3205 H 284.554 -2.13622 3.50419 0
M  V30 3206 H 284.085 -3.25278 2.21264 0
M  V30 3207 H 286.1 -4.50752 2.07453 0
M  V30 3208 N 285.273 -1.31445 -0.869486 0
M  V30 3209 C 286.22 -1.19135 -1.97675 0
M  V30 3210 C 287.19 -0.0770266 -1.65921 0
M  V30 3211 O 288.375 -0.249972 -1.89155 0
M  V30 3212 C 285.515 -0.905149 -3.33018 0
M  V30 3213 C 284.628 -2.10285 -3.77365 0
M  V30 3214 C 283.763 -1.75339 -5.01427 0
M  V30 3215 C 282.802 -2.91515 -5.38224 0
M  V30 3216 N 281.939 -2.56762 -6.53466 0
M  V30 3217 H 286.779 -2.13853 -2.07535 0
M  V30 3218 H 284.316 -1.06379 -1.01597 0
M  V30 3219 H 286.274 -0.719765 -4.10944 0
M  V30 3220 H 284.904 0.00519624 -3.228 0
M  V30 3221 H 283.956 -2.39899 -2.95216 0
M  V30 3222 H 285.268 -2.97237 -4.00564 0
M  V30 3223 H 284.422 -1.53266 -5.87022 0
M  V30 3224 H 283.161 -0.855801 -4.80133 0
M  V30 3225 H 282.166 -3.14237 -4.51149 0
M  V30 3226 H 283.391 -3.81985 -5.61484 0
M  V30 3227 H 281.337 -1.69526 -6.33717 0
M  V30 3228 H 281.254 -3.37243 -6.76612 0
M  V30 3229 H 282.522 -2.38083 -7.42251 0
M  V30 3230 N 286.751 1.08385 -1.14413 0
M  V30 3231 C 287.661 2.18856 -0.844951 0
M  V30 3232 C 288.677 1.73121 0.174668 0
M  V30 3233 O 289.853 2.014 0.00312857 0
M  V30 3234 C 286.918 3.45155 -0.32696 0
M  V30 3235 C 285.979 4.05513 -1.40916 0
M  V30 3236 C 285.212 5.25784 -0.915793 0
M  V30 3237 O 285.435 5.69884 0.242651 0
M  V30 3238 O 284.369 5.77545 -1.69487 0
M  V30 3239 H 288.195 2.46919 -1.76818 0
M  V30 3240 H 285.78 1.17524 -0.922411 0
M  V30 3241 H 287.662 4.21377 -0.0440211 0
M  V30 3242 H 286.337 3.18668 0.568539 0
M  V30 3243 H 285.244 3.30879 -1.74556 0
M  V30 3244 H 286.577 4.3625 -2.27919 0
M  V30 3245 N 288.23 0.939286 1.26551 0
M  V30 3246 C 289.479 0.581601 1.93133 0
M  V30 3247 C 289.792 -0.883224 1.74524 0
M  V30 3248 O 290.998 -1.3502 2.35546 0
M  V30 3249 C 289.454 0.989425 3.46032 0
M  V30 3250 C 289.062 2.47573 3.73379 0
M  V30 3251 C 290.806 0.703544 4.18629 0
M  V30 3252 C 288.713 2.82235 5.19709 0
M  V30 3253 H 287.643 0.213803 0.723052 0
M  V30 3254 H 290.294 1.14167 1.4366 0
M  V30 3255 H 288.676 0.357902 3.94379 0
M  V30 3256 H 289.85 3.15614 3.35744 0
M  V30 3257 H 288.165 2.73471 3.1401 0
M  V30 3258 H 290.762 0.938869 5.26393 0
M  V30 3259 H 291.105 -0.359639 4.14744 0
M  V30 3260 H 291.638 1.2947 3.76141 0
M  V30 3261 H 288.377 3.87509 5.28694 0
M  V30 3262 H 287.897 2.18854 5.58447 0
M  V30 3263 H 289.576 2.70599 5.87695 0
M  V30 3264 N 289.708 -1.40897 0.706093 0
M  V30 3265 C 290.638 -2.33418 0.0620085 0
M  V30 3266 C 291.619 -1.52385 -0.755827 0
M  V30 3267 O 292.804 -1.80886 -0.706674 0
M  V30 3268 C 289.934 -3.36293 -0.867445 0
M  V30 3269 C 288.888 -4.27716 -0.155932 0
M  V30 3270 C 288.214 -5.2105 -1.20046 0
M  V30 3271 C 289.514 -5.12944 0.984149 0
M  V30 3272 H 291.208 -2.87527 0.83477 0
M  V30 3273 H 288.754 -1.38249 0.402875 0
M  V30 3274 H 290.707 -3.99949 -1.32735 0
M  V30 3275 H 289.431 -2.80556 -1.67199 0
M  V30 3276 H 288.09 -3.65498 0.284047 0
M  V30 3277 H 287.738 -4.61624 -1.99781 0
M  V30 3278 H 287.438 -5.83056 -0.729328 0
M  V30 3279 H 288.962 -5.87584 -1.66066 0
M  V30 3280 H 290.376 -5.70109 0.604048 0
M  V30 3281 H 288.773 -5.83945 1.38304 0
M  V30 3282 H 289.843 -4.49485 1.81911 0
M  V30 3283 N 291.186 -0.45159 -1.50991 0
M  V30 3284 C 292.432 0.110237 -2.025 0
M  V30 3285 C 292.765 1.41109 -1.33424 0
M  V30 3286 O 292.04 1.89135 -0.453659 0
M  V30 3287 C 292.323 0.314271 -3.58726 0
M  V30 3288 C 292.176 -1.00623 -4.38401 0
M  V30 3289 C 293.495 1.07767 -4.26702 0
M  V30 3290 H 290.614 0.0385897 -0.735989 0
M  V30 3291 H 293.256 -0.593374 -1.80497 0
M  V30 3292 H 291.406 0.913601 -3.77605 0
M  V30 3293 H 293.078 -1.64064 -4.31139 0
M  V30 3294 H 291.321 -1.6075 -4.02917 0
M  V30 3295 H 291.992 -0.817341 -5.45915 0
M  V30 3296 H 294.468 0.56986 -4.12179 0
M  V30 3297 H 293.344 1.18921 -5.35863 0
M  V30 3298 H 293.605 2.10939 -3.88532 0
M  V30 3299 N 292.664 1.56529 -0.183458 0
M  V30 3300 C 293.612 2.19873 0.758845 0
M  V30 3301 C 294.606 1.16638 1.22849 0
M  V30 3302 O 295.812 1.3481 1.19274 0
M  V30 3303 H 292.187 0.7045 0.263029 0
M  V30 3304 H 294.158 2.97724 0.200755 0
M  V30 3305 C 292.907 2.86314 1.9728 0
M  V30 3306 H 292.23 3.65487 1.62047 0
M  V30 3307 H 293.67 3.3409 2.61075 0
M  V30 3308 C 292.129 1.86729 2.80418 0
M  V30 3309 O 292.659 1.36031 3.77966 0
M  V30 3310 N 290.865 1.55216 2.45675 0
M  V30 3311 H 290.412 1.96636 1.66409 0
M  V30 3312 H 290.37 0.888388 3.01588 0
M  V30 3313 N 294.142 -0.090211 1.57342 0
M  V30 3314 C 295.052 -1.12735 2.05738 0
M  V30 3315 C 296.068 -1.43557 0.983231 0
M  V30 3316 O 297.244 -1.54101 1.29672 0
M  V30 3317 C 294.309 -2.42659 2.47624 0
M  V30 3318 C 293.37 -2.18975 3.69254 0
M  V30 3319 C 292.603 -3.42704 4.09133 0
M  V30 3320 O 292.826 -4.51127 3.49057 0
M  V30 3321 O 291.76 -3.32003 5.02053 0
M  V30 3322 H 295.586 -0.746279 2.94388 0
M  V30 3323 H 293.171 -0.303064 1.46294 0
M  V30 3324 H 295.053 -3.19155 2.7517 0
M  V30 3325 H 293.728 -2.80182 1.62109 0
M  V30 3326 H 292.635 -1.40244 3.46818 0
M  V30 3327 H 293.968 -1.86342 4.55563 0
M  V30 3328 N 295.62 -1.53406 -0.361157 0
M  V30 3329 C 297.031 -1.61442 -0.937728 0
M  V30 3330 C 297.382 -0.48461 -1.90121 0
M  V30 3331 O 296.507 0.388312 -2.12888 0
M  V30 3332 C 297.102 -2.92624 -1.70753 0
M  V30 3333 C 295.661 -3.02981 -2.23337 0
M  V30 3334 C 294.808 -2.5677 -1.04712 0
M  V30 3335 H 297.759 -1.58083 -0.139816 0
M  V30 3336 H 297.78 -2.80675 -2.56908 0
M  V30 3337 H 297.292 -3.74834 -1.00604 0
M  V30 3338 H 295.393 -2.25368 -2.96715 0
M  V30 3339 H 295.506 -4.0814 -2.50916 0
M  V30 3340 H 293.87 -2.11752 -1.41539 0
M  V30 3341 H 294.653 -3.41402 -0.360539 0
M  V30 3342 N 297.098 0.621204 -1.44841 0
M  V30 3343 C 298.061 1.71459 -1.521 0
M  V30 3344 C 299.061 1.55696 -0.401933 0
M  V30 3345 O 300.251 1.61011 -0.664925 0
M  V30 3346 C 297.383 3.10624 -1.40447 0
M  V30 3347 H 298.576 1.66394 -2.49506 0
M  V30 3348 H 296.129 0.835745 -1.3208 0
M  V30 3349 H 296.864 3.21277 -0.441737 0
M  V30 3350 H 296.649 3.23473 -2.21602 0
M  V30 3351 H 298.139 3.90293 -1.4853 0
M  V30 3352 N 298.576 1.31904 0.862503 0
M  V30 3353 C 299.823 1.22017 1.61611 0
M  V30 3354 C 300.151 -0.21991 1.93253 0
M  V30 3355 O 299.406 -1.17076 1.56817 0
M  V30 3356 C 299.705 2.01713 2.95037 0
M  V30 3357 C 299.371 3.51145 2.82857 0
M  V30 3358 C 298.033 3.91889 2.79243 0
M  V30 3359 C 300.385 4.46204 2.69353 0
M  V30 3360 C 297.713 5.25947 2.59993 0
M  V30 3361 C 300.065 5.80397 2.5164 0
M  V30 3362 C 298.729 6.20352 2.46413 0
M  V30 3363 H 297.999 0.44649 0.591378 0
M  V30 3364 H 300.646 1.63248 1.00111 0
M  V30 3365 H 298.951 1.53185 3.60613 0
M  V30 3366 H 300.648 1.91437 3.52353 0
M  V30 3367 H 297.238 3.1878 2.86491 0
M  V30 3368 H 301.422 4.15652 2.71196 0
M  V30 3369 H 296.678 5.5597 2.54376 0
M  V30 3370 H 300.852 6.53676 2.40169 0
M  V30 3371 H 298.479 7.24172 2.31256 0
M  V30 3372 N 300.054 -1.07777 1.14986 0
M  V30 3373 C 301.3 -1.80557 0.923422 0
M  V30 3374 C 301.633 -1.86298 -0.548337 0
M  V30 3375 O 300.908 -1.34354 -1.40639 0
M  V30 3376 C 301.191 -3.25839 1.53299 0
M  V30 3377 C 301.044 -3.28269 3.07505 0
M  V30 3378 C 302.363 -4.22991 1.21518 0
M  V30 3379 H 299.482 -0.655493 0.336894 0
M  V30 3380 H 302.124 -1.26144 1.42083 0
M  V30 3381 H 300.274 -3.72306 1.10999 0
M  V30 3382 H 301.946 -2.90079 3.58681 0
M  V30 3383 H 300.189 -2.67355 3.4162 0
M  V30 3384 H 300.86 -4.30691 3.45266 0
M  V30 3385 H 303.336 -3.84894 1.581 0
M  V30 3386 H 302.212 -5.22945 1.66793 0
M  V30 3387 H 302.473 -4.41904 0.131505 0
M  V30 3388 N 301.532 -0.945985 -1.26051 0
M  V30 3389 C 302.772 -0.603665 -1.95282 0
M  V30 3390 C 303.136 0.842377 -1.72534 0
M  V30 3391 O 304.337 1.29387 -2.35611 0
M  V30 3392 C 302.608 -0.942292 -3.44754 0
M  V30 3393 S 304.167 -0.711242 -4.32997 0
M  V30 3394 H 300.985 -0.222176 -0.675395 0
M  V30 3395 H 303.587 -1.21832 -1.52896 0
M  V30 3396 H 302.291 -1.99203 -3.58812 0
M  V30 3397 H 301.822 -0.317546 -3.92116 0
M  V30 3398 H 303.837 0.422221 -4.944 0
M  V30 3399 N 303.011 1.40521 -0.713556 0
M  V30 3400 C 304.288 1.94775 -0.17943 0
M  V30 3401 C 304.668 1.65184 1.31444 0
M  V30 3402 O 304.016 0.968429 2.06963 0
M  V30 3403 C 304.226 3.45543 -0.489986 0
M  V30 3404 C 305.574 4.22442 -0.427536 0
M  V30 3405 O 306.598 3.53644 -0.425929 0
M  V30 3406 O 305.457 5.4501 -0.403292 0
M  V30 3407 H 302.551 0.826606 -0.0255192 0
M  V30 3408 H 305.097 1.5014 -0.790949 0
M  V30 3409 H 303.869 3.60432 -1.5233 0
M  V30 3410 H 303.492 3.97311 0.151598 0
M  V30 3411 N 304.489 0.459591 1.5075 0
M  V30 3412 C 305.419 -0.330644 2.31147 0
M  V30 3413 C 306.4 -1.00087 1.37538 0
M  V30 3414 O 307.585 -1.00025 1.66459 0
M  V30 3415 C 304.715 -1.41958 3.16962 0
M  V30 3416 C 303.669 -0.871608 4.19031 0
M  V30 3417 C 302.995 -2.05797 4.9351 0
M  V30 3418 C 304.295 0.109251 5.22186 0
M  V30 3419 H 305.989 0.340336 2.97459 0
M  V30 3420 H 303.535 0.165119 1.4305 0
M  V30 3421 H 305.488 -1.9798 3.71997 0
M  V30 3422 H 304.212 -2.11917 2.48513 0
M  V30 3423 H 302.871 -0.333442 3.6508 0
M  V30 3424 H 302.519 -2.74427 4.21544 0
M  V30 3425 H 302.219 -1.6976 5.62544 0
M  V30 3426 H 303.743 -2.62331 5.51375 0
M  V30 3427 H 305.157 -0.361405 5.7216 0
M  V30 3428 H 303.554 0.383316 5.98875 0
M  V30 3429 H 304.624 1.03887 4.73641 0
M  V30 3430 N 305.967 -1.56429 0.191757 0
M  V30 3431 C 306.877 -2.22541 -0.742481 0
M  V30 3432 C 307.893 -1.22342 -1.23727 0
M  V30 3433 O 309.069 -1.55069 -1.28513 0
M  V30 3434 C 306.134 -2.8692 -1.94623 0
M  V30 3435 C 305.195 -4.02378 -1.49633 0
M  V30 3436 C 304.428 -4.63678 -2.6427 0
M  V30 3437 O 304.651 -4.23895 -3.81666 0
M  V30 3438 O 303.585 -5.53202 -2.37174 0
M  V30 3439 H 307.411 -3.02977 -0.209462 0
M  V30 3440 H 304.996 -1.49353 -0.0373832 0
M  V30 3441 H 306.878 -3.27663 -2.64982 0
M  V30 3442 H 305.553 -2.09466 -2.46791 0
M  V30 3443 H 304.46 -3.66265 -0.761636 0
M  V30 3444 H 305.793 -4.81487 -1.02134 0
M  V30 3445 N 307.445 0.0818655 -1.57387 0
M  V30 3446 C 308.392 1.09834 -2.0299 0
M  V30 3447 C 309.362 1.39043 -0.908639 0
M  V30 3448 O 310.547 1.50282 -1.17559 0
M  V30 3449 C 307.687 2.40971 -2.47037 0
M  V30 3450 C 306.8 2.18379 -3.7274 0
M  V30 3451 C 305.935 3.43008 -4.0561 0
M  V30 3452 C 304.974 3.15736 -5.24383 0
M  V30 3453 N 304.111 4.32667 -5.52941 0
M  V30 3454 H 308.951 0.702472 -2.89602 0
M  V30 3455 H 306.488 0.33531 -1.43227 0
M  V30 3456 H 308.446 3.1752 -2.70623 0
M  V30 3457 H 307.076 2.78379 -1.63417 0
M  V30 3458 H 306.128 1.32569 -3.56552 0
M  V30 3459 H 307.44 1.94227 -4.59431 0
M  V30 3460 H 306.594 4.27958 -4.30043 0
M  V30 3461 H 305.333 3.70225 -3.17466 0
M  V30 3462 H 304.338 2.2918 -4.99757 0
M  V30 3463 H 305.563 2.8985 -6.14136 0
M  V30 3464 H 303.509 4.59935 -4.67756 0
M  V30 3465 H 303.426 4.11753 -6.34031 0
M  V30 3466 H 304.694 5.18644 -5.81918 0
M  V30 3467 N 308.923 1.53595 0.353017 0
M  V30 3468 C 309.886 1.80232 1.41594 0
M  V30 3469 C 310.886 0.673081 1.46035 0
M  V30 3470 O 312.076 0.941335 1.46576 0
M  V30 3471 C 309.208 1.93578 2.80607 0
M  V30 3472 H 310.401 2.75174 1.19244 0
M  V30 3473 H 307.954 1.44864 0.586872 0
M  V30 3474 H 308.689 1.00746 3.08254 0
M  V30 3475 H 308.474 2.75724 2.78781 0
M  V30 3476 H 309.964 2.15735 3.57558 0
M  V30 3477 N 310.401 -0.613514 1.45168 0
M  V30 3478 C 311.351 -1.71871 1.49815 0
M  V30 3479 C 312.335 -1.56774 0.362021 0
M  V30 3480 O 313.527 -1.66212 0.608493 0
M  V30 3481 C 310.656 -3.1061 1.46207 0
M  V30 3482 C 309.742 -3.31114 2.64999 0
M  V30 3483 N 310.133 -3.21904 3.90143 0
M  V30 3484 C 308.431 -3.61966 2.6057 0
M  V30 3485 C 309.132 -3.43577 4.69393 0
M  V30 3486 N 308.108 -3.67287 4.00751 0
M  V30 3487 H 311.91 -1.63235 2.444 0
M  V30 3488 H 309.424 -0.816577 1.40377 0
M  V30 3489 H 311.421 -3.8989 1.4762 0
M  V30 3490 H 310.081 -3.20399 0.52673 0
M  V30 3491 H 311.092 -3.00436 4.21852 0
M  V30 3492 H 307.769 -3.78629 1.75916 0
M  V30 3493 H 309.159 -3.41901 5.78406 0
M  V30 3494 N 311.879 -1.3236 -0.855495 0
M  V30 3495 C 313.125 -1.24064 -1.61182 0
M  V30 3496 C 313.48 0.195914 -1.914 0
M  V30 3497 O 312.773 1.13345 -1.54478 0
M  V30 3498 C 312.967 -2.03275 -2.93963 0
M  V30 3499 C 312.796 -3.54486 -2.76712 0
M  V30 3500 C 311.566 -4.23824 -2.75139 0
M  V30 3501 C 313.764 -4.49154 -2.50531 0
M  V30 3502 N 311.746 -5.61095 -2.4909 0
M  V30 3503 C 313.117 -5.74195 -2.3388 0
M  V30 3504 C 315.172 -4.3842 -2.35992 0
M  V30 3505 C 313.875 -6.89716 -2.04168 0
M  V30 3506 C 315.901 -5.53739 -2.0767 0
M  V30 3507 C 315.263 -6.77779 -1.9182 0
M  V30 3508 H 311.362 -0.509139 -0.59355 0
M  V30 3509 H 313.946 -1.66715 -1.00569 0
M  V30 3510 H 312.117 -1.6297 -3.52555 0
M  V30 3511 H 313.849 -1.86881 -3.58967 0
M  V30 3512 H 310.604 -3.75934 -2.88047 0
M  V30 3513 H 311.028 -6.33411 -2.38996 0
M  V30 3514 H 315.67 -3.43172 -2.46967 0
M  V30 3515 H 313.388 -7.84977 -1.9193 0
M  V30 3516 H 316.974 -5.4736 -1.97201 0
M  V30 3517 H 315.854 -7.65504 -1.70217 0
M  V30 3518 N 313.357 1.07166 -1.15556 0
M  V30 3519 C 314.634 1.76546 -0.842069 0
M  V30 3520 C 315.014 2.00453 0.661939 0
M  V30 3521 O 314.362 1.62452 1.60691 0
M  V30 3522 C 314.572 3.07266 -1.65495 0
M  V30 3523 C 315.92 3.81578 -1.86234 0
M  V30 3524 O 316.944 3.17083 -1.62287 0
M  V30 3525 O 315.803 4.97419 -2.26355 0
M  V30 3526 H 312.897 0.766756 -0.309862 0
M  V30 3527 H 315.443 1.13514 -1.26145 0
M  V30 3528 H 314.215 2.85494 -2.67598 0
M  V30 3529 H 313.838 3.7803 -1.23203 0
M  V30 3530 N 314.835 0.952656 1.25548 0
M  V30 3531 C 315.765 0.489287 2.28316 0
M  V30 3532 C 316.746 -0.463359 1.63667 0
M  V30 3533 O 317.931 -0.36274 1.90782 0
M  V30 3534 C 315.061 -0.235603 3.465 0
M  V30 3535 C 314.015 0.631593 4.23314 0
M  V30 3536 C 313.341 -0.223923 5.34231 0
M  V30 3537 C 314.641 1.90871 4.86174 0
M  V30 3538 H 316.335 1.34822 2.67326 0
M  V30 3539 H 313.881 0.649728 1.28509 0
M  V30 3540 H 315.834 -0.570882 4.17515 0
M  V30 3541 H 314.558 -1.12877 3.06474 0
M  V30 3542 H 313.217 0.949929 3.54079 0
M  V30 3543 H 312.865 -1.11678 4.90446 0
M  V30 3544 H 312.565 0.35299 5.86539 0
M  V30 3545 H 314.089 -0.554214 6.0808 0
M  V30 3546 H 315.503 1.63997 5.49343 0
M  V30 3547 H 313.9 2.43112 5.4865 0
M  V30 3548 H 314.97 2.61304 4.08471 0
M  V30 3549 N 316.313 -1.40141 0.720998 0
M  V30 3550 C 317.562 -2.0002 0.259804 0
M  V30 3551 C 317.875 -1.57839 -1.15526 0
M  V30 3552 O 319.081 -2.10455 -1.71525 0
M  V30 3553 C 317.537 -3.57516 0.413566 0
M  V30 3554 C 317.145 -4.08667 1.83562 0
M  V30 3555 C 318.889 -4.24498 0.0134387 0
M  V30 3556 C 316.796 -5.58686 1.93968 0
M  V30 3557 H 315.726 -0.748195 0.0933806 0
M  V30 3558 H 318.377 -1.60313 0.892866 0
M  V30 3559 H 316.759 -3.9495 -0.288169 0
M  V30 3560 H 317.933 -3.82598 2.56817 0
M  V30 3561 H 316.248 -3.543 2.1877 0
M  V30 3562 H 318.845 -5.34654 0.0703954 0
M  V30 3563 H 319.188 -4.03375 -1.02927 0
M  V30 3564 H 319.721 -3.92188 0.665815 0
M  V30 3565 H 316.46 -5.8467 2.96379 0
M  V30 3566 H 315.98 -5.86602 1.25131 0
M  V30 3567 H 317.659 -6.23875 1.71431 0
M  V30 3568 N 317.792 -0.46758 -1.50504 0
M  V30 3569 C 318.722 0.318381 -2.31319 0
M  V30 3570 C 319.703 0.993564 -1.38066 0
M  V30 3571 O 320.888 0.991411 -1.66987 0
M  V30 3572 C 318.018 1.40275 -3.17711 0
M  V30 3573 C 316.972 0.849373 -4.19487 0
M  V30 3574 C 316.298 2.03177 -4.94594 0
M  V30 3575 C 317.598 -0.136942 -5.2212 0
M  V30 3576 H 319.292 -0.356106 -2.97275 0
M  V30 3577 H 316.838 -0.172703 -1.42961 0
M  V30 3578 H 318.791 1.96004 -3.73042 0
M  V30 3579 H 317.515 2.10596 -2.49634 0
M  V30 3580 H 316.174 0.314076 -3.65252 0
M  V30 3581 H 315.822 2.72187 -4.22993 0
M  V30 3582 H 315.522 1.66774 -5.63436 0
M  V30 3583 H 317.046 2.59403 -5.52759 0
M  V30 3584 H 318.46 0.331056 -5.72343 0
M  V30 3585 H 316.857 -0.41507 -5.98663 0
M  V30 3586 H 317.927 -1.06398 -4.73083 0
M  V30 3587 N 319.27 1.56325 -0.20005 0
M  V30 3588 C 320.218 2.20666 0.735482 0
M  V30 3589 C 321.212 1.17934 1.21605 0
M  V30 3590 O 322.418 1.36068 1.17837 0
M  V30 3591 H 318.793 0.70725 0.255542 0
M  V30 3592 H 320.764 2.9792 0.169166 0
M  V30 3593 C 319.513 2.88391 1.94232 0
M  V30 3594 H 318.836 3.67185 1.58161 0
M  V30 3595 H 320.276 3.3684 2.57517 0
M  V30 3596 C 318.735 1.89692 2.78421 0
M  V30 3597 O 319.265 1.40032 3.76502 0
M  V30 3598 N 317.471 1.57813 2.44015 0
M  V30 3599 H 317.018 1.9839 1.64314 0
M  V30 3600 H 316.976 0.920325 3.00628 0
M  V30 3601 N 320.748 -0.0735177 1.57428 0
M  V30 3602 C 321.994 -0.774145 1.87443 0
M  V30 3603 C 322.327 -1.77311 0.792103 0
M  V30 3604 O 321.602 -1.93492 -0.197793 0
M  V30 3605 C 321.885 -1.48367 3.28115 0
M  V30 3606 C 321.738 -0.501227 4.46999 0
M  V30 3607 C 323.057 -2.429 3.66998 0
M  V30 3608 H 320.176 -0.279971 0.681752 0
M  V30 3609 H 322.818 -0.0373616 1.89963 0
M  V30 3610 H 320.968 -2.11171 3.26097 0
M  V30 3611 H 322.64 0.121468 4.6114 0
M  V30 3612 H 320.883 0.183593 4.33411 0
M  V30 3613 H 321.554 -1.03526 5.42205 0
M  V30 3614 H 324.03 -1.90175 3.70098 0
M  V30 3615 H 322.906 -2.89549 4.66318 0
M  V30 3616 H 323.167 -3.27628 2.96837 0
M  V30 3617 N 322.226 -1.5378 -0.344866 0
M  V30 3618 C 323.456 -1.74646 -1.10374 0
M  V30 3619 C 323.864 -0.48491 -1.8288 0
M  V30 3620 O 323.207 0.553062 -1.75177 0
M  V30 3621 C 323.269 -2.87145 -2.16306 0
M  V30 3622 C 322.933 -4.26795 -1.63386 0
M  V30 3623 C 323.93 -5.08412 -1.08688 0
M  V30 3624 C 321.615 -4.73276 -1.68272 0
M  V30 3625 C 323.609 -6.34609 -0.595792 0
M  V30 3626 C 321.296 -5.99446 -1.18776 0
M  V30 3627 C 322.294 -6.79946 -0.645215 0
M  V30 3628 O 321.982 -8.03745 -0.157626 0
M  V30 3629 H 321.714 -0.587112 -0.335075 0
M  V30 3630 H 324.268 -2.01403 -0.403252 0
M  V30 3631 H 322.498 -2.55909 -2.89909 0
M  V30 3632 H 324.187 -2.95992 -2.77747 0
M  V30 3633 H 324.953 -4.73666 -1.04236 0
M  V30 3634 H 320.832 -4.10677 -2.09442 0
M  V30 3635 H 324.376 -6.97389 -0.171654 0
M  V30 3636 H 320.273 -6.33687 -1.22928 0
M  V30 3637 H 321.041 -8.18038 -0.275037 0
M  V30 3638 N 323.704 0.605807 -1.45491 0
M  V30 3639 C 325.12 0.926751 -1.29936 0
M  V30 3640 C 325.32 1.99896 -0.253706 0
M  V30 3641 O 324.376 2.50038 0.351737 0
M  V30 3642 C 325.689 1.36599 -2.67883 0
M  V30 3643 C 327.237 1.4801 -2.75793 0
M  V30 3644 C 327.712 1.95309 -4.14268 0
M  V30 3645 N 329.203 2.0254 -4.16571 0
M  V30 3646 C 329.938 2.40363 -5.20589 0
M  V30 3647 N 329.434 2.77143 -6.34952 0
M  V30 3648 N 331.227 2.40718 -5.07948 0
M  V30 3649 H 323.378 -0.102862 -2.12151 0
M  V30 3650 H 325.641 0.016639 -0.947854 0
M  V30 3651 H 325.347 0.652306 -3.45598 0
M  V30 3652 H 325.221 2.33215 -2.96463 0
M  V30 3653 H 327.608 2.1847 -1.98381 0
M  V30 3654 H 327.689 0.497041 -2.50925 0
M  V30 3655 H 327.333 1.25436 -4.92167 0
M  V30 3656 H 327.263 2.94532 -4.3653 0
M  V30 3657 H 329.754 1.76699 -3.34045 0
M  V30 3658 H 330.067 3.0489 -7.10114 0
M  V30 3659 H 328.412 2.74834 -6.3835 0
M  V30 3660 H 331.603 2.11392 -4.1765 0
M  V30 3661 H 331.776 2.69869 -5.89131 0
M  V30 3662 N 325.182 1.32811 0.848464 0
M  V30 3663 C 326.092 1.24278 1.98978 0
M  V30 3664 C 327.108 0.155176 1.73307 0
M  V30 3665 O 328.284 0.376999 1.9784 0
M  V30 3666 C 325.349 0.972444 3.32783 0
M  V30 3667 C 324.41 2.14911 3.71634 0
M  V30 3668 C 323.643 1.89157 4.99054 0
M  V30 3669 O 323.866 0.837165 5.64223 0
M  V30 3670 O 322.8 2.75433 5.35183 0
M  V30 3671 H 326.626 2.20238 2.09115 0
M  V30 3672 H 324.211 1.12762 0.980052 0
M  V30 3673 H 326.093 0.838432 4.12975 0
M  V30 3674 H 324.768 0.043051 3.23671 0
M  V30 3675 H 323.675 2.33862 2.91992 0
M  V30 3676 H 325.008 3.06151 3.85399 0
M  V30 3677 N 326.66 -1.06551 1.16123 0
M  V30 3678 C 327.59 -2.15935 0.88851 0
M  V30 3679 C 328.571 -1.69306 -0.164135 0
M  V30 3680 O 329.756 -1.94193 -0.0167857 0
M  V30 3681 C 326.886 -3.45149 0.385942 0
M  V30 3682 C 325.84 -4.05271 1.3762 0
M  V30 3683 C 325.166 -5.29664 0.732137 0
M  V30 3684 C 326.466 -4.44355 2.74493 0
M  V30 3685 H 328.16 -2.39006 1.80323 0
M  V30 3686 H 325.706 -1.14866 0.868435 0
M  V30 3687 H 327.659 -4.21004 0.182647 0
M  V30 3688 H 326.383 -3.21689 -0.564274 0
M  V30 3689 H 325.042 -3.3147 1.56599 0
M  V30 3690 H 324.69 -5.02499 -0.224483 0
M  V30 3691 H 324.39 -5.70848 1.39307 0
M  V30 3692 H 325.914 -6.08218 0.538802 0
M  V30 3693 H 327.328 -5.11303 2.59311 0
M  V30 3694 H 325.725 -4.96515 3.37035 0
M  V30 3695 H 326.795 -3.55339 3.29943 0
M  V30 3696 N 328.138 -0.959301 -1.25041 0
M  V30 3697 C 329.363 -0.633507 -1.97488 0
M  V30 3698 C 329.788 0.788555 -1.70773 0
M  V30 3699 O 329.146 1.53394 -0.966431 0
M  V30 3700 C 329.194 -0.904057 -3.49083 0
M  V30 3701 O 328.298 0.0147939 -4.12397 0
M  V30 3702 H 327.639 -0.240368 -0.618966 0
M  V30 3703 H 330.169 -1.28717 -1.59038 0
M  V30 3704 H 330.179 -0.832203 -3.99423 0
M  V30 3705 H 328.854 -1.94048 -3.67856 0
M  V30 3706 H 327.431 -0.109664 -3.72739 0
M  V30 3707 N 329.616 1.39756 -0.72842 0
M  V30 3708 C 330.526 2.34444 -0.0855374 0
M  V30 3709 C 331.542 1.57976 0.729356 0
M  V30 3710 O 332.718 1.90301 0.659346 0
M  V30 3711 C 329.783 3.36965 0.815798 0
M  V30 3712 C 328.844 4.29299 -0.0105996 0
M  V30 3713 C 328.077 5.26923 0.84781 0
M  V30 3714 O 328.3 5.30859 2.08673 0
M  V30 3715 O 327.234 6.01249 0.279969 0
M  V30 3716 H 331.06 2.91065 -0.866892 0
M  V30 3717 H 328.645 1.4117 -0.48902 0
M  V30 3718 H 330.527 3.99804 1.33171 0
M  V30 3719 H 329.202 2.82739 1.57608 0
M  V30 3720 H 328.109 3.69703 -0.571877 0
M  V30 3721 H 329.442 4.86712 -0.73295 0
M  V30 3722 N 331.094 0.475555 1.50254 0
M  V30 3723 C 332.341 -0.0778919 2.0235 0
M  V30 3724 C 332.669 -1.39319 1.35722 0
M  V30 3725 O 331.924 -1.89888 0.473395 0
M  V30 3726 C 332.223 -0.305114 3.56095 0
M  V30 3727 C 331.889 0.92903 4.41225 0
M  V30 3728 C 330.551 1.26739 4.6421 0
M  V30 3729 C 332.903 1.75054 4.90923 0
M  V30 3730 C 330.231 2.42724 5.34137 0
M  V30 3731 C 332.583 2.9017 5.62125 0
M  V30 3732 C 331.247 3.24416 5.83362 0
M  V30 3733 H 330.517 -0.0285027 0.740452 0
M  V30 3734 H 333.164 0.630543 1.80821 0
M  V30 3735 H 331.469 -1.09584 3.76163 0
M  V30 3736 H 333.166 -0.747377 3.93974 0
M  V30 3737 H 329.756 0.655428 4.23559 0
M  V30 3738 H 333.94 1.50231 4.73016 0
M  V30 3739 H 329.196 2.69525 5.48786 0
M  V30 3740 H 333.37 3.54169 5.99614 0
M  V30 3741 H 330.997 4.14396 6.37323 0
M  V30 3742 N 332.573 -1.56217 0.208337 0
M  V30 3743 C 333.984 -1.84243 -0.301904 0
M  V30 3744 C 334.335 -1.12939 -1.60434 0
M  V30 3745 O 333.46 -0.39461 -2.12772 0
M  V30 3746 C 334.055 -3.34231 -0.554543 0
M  V30 3747 C 332.614 -3.62621 -1.00912 0
M  V30 3748 C 331.761 -2.77224 -0.064933 0
M  V30 3749 H 334.712 -1.52712 0.431833 0
M  V30 3750 H 334.733 -3.5372 -1.40223 0
M  V30 3751 H 334.245 -3.86099 0.393561 0
M  V30 3752 H 332.346 -3.16197 -1.97104 0
M  V30 3753 H 332.459 -4.7071 -0.892674 0
M  V30 3754 H 330.823 -2.48256 -0.56929 0
M  V30 3755 H 331.606 -3.31887 0.877851 0
M  V30 3756 N 334.051 0.0651679 -1.57465 0
M  V30 3757 C 334.981 1.07693 -2.07182 0
M  V30 3758 C 335.962 1.39962 -0.966673 0
M  V30 3759 O 337.147 1.49475 -1.2398 0
M  V30 3760 C 334.277 2.3885 -2.52127 0
M  V30 3761 C 333.231 2.20917 -3.66579 0
M  V30 3762 C 332.557 3.57515 -3.97601 0
M  V30 3763 C 333.857 1.62493 -4.9638 0
M  V30 3764 H 335.551 0.663199 -2.91962 0
M  V30 3765 H 333.097 0.317569 -1.40455 0
M  V30 3766 H 335.05 3.09928 -2.85522 0
M  V30 3767 H 333.774 2.82215 -1.64384 0
M  V30 3768 H 332.433 1.52279 -3.33477 0
M  V30 3769 H 332.081 3.98463 -3.06979 0
M  V30 3770 H 331.781 3.46353 -4.74672 0
M  V30 3771 H 333.305 4.30013 -4.33499 0
M  V30 3772 H 334.719 2.23445 -5.27963 0
M  V30 3773 H 333.116 1.62009 -5.77818 0
M  V30 3774 H 334.186 0.587041 -4.81333 0
M  V30 3775 N 335.529 1.53961 0.336706 0
M  V30 3776 C 336.757 1.75483 1.09605 0
M  V30 3777 C 337.172 0.4972 1.82136 0
M  V30 3778 O 336.529 -0.53149 1.74589 0
M  V30 3779 C 336.58 2.93943 2.10428 0
M  V30 3780 O 336.301 4.14842 1.40846 0
M  V30 3781 C 337.802 3.27571 2.98684 0
M  V30 3782 H 335.022 0.586166 0.326574 0
M  V30 3783 H 337.566 2.00808 0.38683 0
M  V30 3784 H 335.721 2.70929 2.76905 0
M  V30 3785 H 336.135 4.81383 2.08255 0
M  V30 3786 H 337.609 4.13791 3.6535 0
M  V30 3787 H 338.086 2.44168 3.65074 0
M  V30 3788 H 338.692 3.52615 2.37787 0
M  V30 3789 N 337.007 -0.598083 1.45811 0
M  V30 3790 C 338.253 -1.35882 1.50545 0
M  V30 3791 C 338.586 -1.93616 0.150445 0
M  V30 3792 O 337.861 -1.75604 -0.83628 0
M  V30 3793 C 338.144 -2.49966 2.59208 0
M  V30 3794 C 337.997 -1.97367 4.04186 0
M  V30 3795 C 339.316 -3.52068 2.64076 0
M  V30 3796 H 336.435 -0.492717 0.548087 0
M  V30 3797 H 339.077 -0.673319 1.77669 0
M  V30 3798 H 337.227 -3.08443 2.3621 0
M  V30 3799 H 338.899 -1.43466 4.38423 0
M  V30 3800 H 337.142 -1.283 4.14393 0
M  V30 3801 H 337.813 -2.79649 4.75921 0
M  V30 3802 H 340.289 -3.03448 2.84708 0
M  V30 3803 H 339.165 -4.2937 3.41954 0
M  V30 3804 H 339.426 -4.08304 1.69531 0
M  V30 3805 N 338.485 -1.33259 -0.841409 0
M  V30 3806 C 339.732 -1.24572 -1.5965 0
M  V30 3807 C 340.06 0.189137 -1.93578 0
M  V30 3808 O 339.315 1.14566 -1.5866 0
M  V30 3809 C 339.614 -2.06381 -2.9179 0
M  V30 3810 C 339.28 -3.556 -2.77235 0
M  V30 3811 C 337.942 -3.96282 -2.72973 0
M  V30 3812 C 340.294 -4.50433 -2.62221 0
M  V30 3813 C 337.622 -5.30017 -2.51592 0
M  V30 3814 C 339.974 -5.84327 -2.42374 0
M  V30 3815 C 338.638 -6.24194 -2.36512 0
M  V30 3816 H 337.908 -0.455842 -0.5842 0
M  V30 3817 H 340.555 -1.6482 -0.975016 0
M  V30 3818 H 338.86 -1.58903 -3.5813 0
M  V30 3819 H 340.557 -1.97019 -3.49263 0
M  V30 3820 H 337.147 -3.23298 -2.81384 0
M  V30 3821 H 341.331 -4.19914 -2.64549 0
M  V30 3822 H 336.587 -5.59947 -2.45499 0
M  V30 3823 H 340.761 -6.57414 -2.29739 0
M  V30 3824 H 338.388 -7.27759 -2.19706 0
M  V30 3825 N 339.963 1.05934 -1.16686 0
M  V30 3826 C 341.191 1.8249 -0.974929 0
M  V30 3827 C 341.606 1.82679 0.476861 0
M  V30 3828 O 340.963 1.2486 1.33103 0
M  V30 3829 C 341.014 3.28943 -1.49929 0
M  V30 3830 O 340.735 3.28886 -2.89423 0
M  V30 3831 C 342.236 4.22215 -1.35089 0
M  V30 3832 H 339.456 0.575295 -0.345365 0
M  V30 3833 H 342 1.33631 -1.548 0
M  V30 3834 H 340.155 3.751 -0.968423 0
M  V30 3835 H 340.569 4.20493 -3.13506 0
M  V30 3836 H 342.043 5.22987 -1.76603 0
M  V30 3837 H 342.52 4.38195 -0.296935 0
M  V30 3838 H 343.126 3.81907 -1.87155 0
M  V30 3839 N 341.441 0.965919 1.2453 0
M  V30 3840 C 342.671 0.643451 1.96324 0
M  V30 3841 C 343.079 -0.790927 1.71875 0
M  V30 3842 O 342.422 -1.54208 0.998273 0
M  V30 3843 C 342.484 0.836078 3.49643 0
M  V30 3844 C 342.148 2.24975 3.97788 0
M  V30 3845 C 343.145 3.22735 4.07601 0
M  V30 3846 C 340.83 2.57697 4.31158 0
M  V30 3847 C 342.824 4.51303 4.50116 0
M  V30 3848 C 340.511 3.86492 4.73357 0
M  V30 3849 C 341.509 4.83107 4.828 0
M  V30 3850 O 341.197 6.09605 5.24058 0
M  V30 3851 H 340.929 0.239223 0.632257 0
M  V30 3852 H 343.483 1.29587 1.59362 0
M  V30 3853 H 341.713 0.12649 3.86493 0
M  V30 3854 H 343.402 0.512965 4.02646 0
M  V30 3855 H 344.168 2.98783 3.82039 0
M  V30 3856 H 340.047 1.83216 4.23028 0
M  V30 3857 H 343.591 5.26716 4.57401 0
M  V30 3858 H 339.488 4.10245 4.98366 0
M  V30 3859 H 340.256 6.13146 5.42213 0
M  V30 3860 N 342.919 -1.39368 0.735821 0
M  V30 3861 C 344.149 -2.04498 0.293967 0
M  V30 3862 C 344.557 -1.55593 -1.07645 0
M  V30 3863 O 343.9 -0.716324 -1.69158 0
M  V30 3864 C 343.962 -3.58836 0.218342 0
M  V30 3865 C 343.626 -4.30721 1.52736 0
M  V30 3866 C 344.623 -4.57305 2.47322 0
M  V30 3867 C 342.308 -4.69251 1.79189 0
M  V30 3868 C 344.302 -5.21429 3.66593 0
M  V30 3869 C 341.989 -5.33104 2.98737 0
M  V30 3870 C 342.987 -5.59125 3.9226 0
M  V30 3871 O 342.675 -6.21653 5.09708 0
M  V30 3872 H 342.407 -0.664118 0.126189 0
M  V30 3873 H 344.961 -1.79385 1.00051 0
M  V30 3874 H 343.191 -3.8285 -0.544314 0
M  V30 3875 H 344.88 -4.05447 -0.191626 0
M  V30 3876 H 345.646 -4.27983 2.28156 0
M  V30 3877 H 341.525 -4.48354 1.07239 0
M  V30 3878 H 345.069 -5.41656 4.39607 0
M  V30 3879 H 340.966 -5.61846 3.17803 0
M  V30 3880 H 341.734 -6.40146 5.10054 0
M  V30 3881 N 344.397 -0.483516 -1.5 0
M  V30 3882 C 345.674 0.129337 -1.95172 0
M  V30 3883 C 346.054 1.55802 -1.4244 0
M  V30 3884 O 345.402 2.19625 -0.630649 0
M  V30 3885 C 345.612 0.0599251 -3.48949 0
M  V30 3886 C 346.96 0.242617 -4.23906 0
M  V30 3887 O 347.984 0.135933 -3.55941 0
M  V30 3888 O 346.843 0.459454 -5.44565 0
M  V30 3889 H 343.937 0.104887 -0.820322 0
M  V30 3890 H 346.483 -0.544807 -1.60717 0
M  V30 3891 H 345.255 -0.937079 -3.79914 0
M  V30 3892 H 344.878 0.774984 -3.89974 0
M  V30 3893 N 345.875 1.56104 -0.216619 0
M  V30 3894 C 347.1 2.0301 0.424462 0
M  V30 3895 C 347.525 1.0955 1.52907 0
M  V30 3896 O 346.883 0.0827914 1.81111 0
M  V30 3897 C 346.931 3.4819 0.937883 0
M  V30 3898 O 346.035 3.57865 2.04955 0
M  V30 3899 H 345.376 0.656925 0.0966755 0
M  V30 3900 H 347.906 2.01859 -0.33381 0
M  V30 3901 H 347.916 3.88413 1.24897 0
M  V30 3902 H 346.591 4.15699 0.129387 0
M  V30 3903 H 345.168 3.29527 1.74546 0
M  V30 3904 N 347.353 -0.0568162 1.57498 0
M  V30 3905 C 348.599 -0.75422 1.88253 0
M  V30 3906 C 348.932 -1.76461 0.810865 0
M  V30 3907 O 348.207 -1.93691 -0.177259 0
M  V30 3908 C 348.49 -1.44878 3.2967 0
M  V30 3909 C 348.343 -0.453789 4.47505 0
M  V30 3910 C 349.662 -2.38994 3.69554 0
M  V30 3911 H 346.781 -0.272724 0.684683 0
M  V30 3912 H 349.423 -0.0172113 1.89992 0
M  V30 3913 H 347.573 -2.077 3.28318 0
M  V30 3914 H 349.245 0.170371 4.60985 0
M  V30 3915 H 347.488 0.229552 4.33192 0
M  V30 3916 H 348.159 -0.977699 5.43273 0
M  V30 3917 H 350.635 -1.86239 3.72095 0
M  V30 3918 H 349.511 -2.84587 4.69363 0
M  V30 3919 H 349.772 -3.24461 3.00296 0
M  V30 3920 N 348.832 -1.54138 -0.328536 0
M  V30 3921 C 350.057 -1.76378 -1.09112 0
M  V30 3922 C 350.482 -0.508596 -1.81094 0
M  V30 3923 O 349.84 0.539598 -1.73084 0
M  V30 3924 C 349.888 -2.95358 -2.06872 0
M  V30 3925 O 348.992 -2.66556 -3.14677 0
M  V30 3926 H 348.333 -0.584614 -0.314838 0
M  V30 3927 H 350.863 -2.01146 -0.374348 0
M  V30 3928 H 350.873 -3.22566 -2.4983 0
M  V30 3929 H 349.548 -3.86385 -1.5388 0
M  V30 3930 H 348.125 -2.50282 -2.7643 0
M  V30 3931 N 350.31 0.590341 -1.46126 0
M  V30 3932 C 351.587 1.35029 -1.41515 0
M  V30 3933 C 351.967 2.10888 -0.0946472 0
M  V30 3934 O 351.315 2.08998 0.923693 0
M  V30 3935 C 351.525 2.28269 -2.63997 0
M  V30 3936 C 352.873 2.90338 -3.09821 0
M  V30 3937 O 353.897 2.38585 -2.64492 0
M  V30 3938 O 352.756 3.84321 -3.88535 0
M  V30 3939 H 349.85 0.606317 -0.562413 0
M  V30 3940 H 352.396 0.611994 -1.58281 0
M  V30 3941 H 351.168 1.71591 -3.51671 0
M  V30 3942 H 350.791 3.0945 -2.49652 0
M  V30 3943 N 351.788 1.33704 0.83433 0
M  V30 3944 C 353.018 1.28281 1.6195 0
M  V30 3945 C 353.426 -0.147603 1.88623 0
M  V30 3946 O 352.769 -1.1016 1.47005 0
M  V30 3947 C 352.831 1.99386 2.99141 0
M  V30 3948 C 352.495 3.48681 2.95416 0
M  V30 3949 C 353.492 4.438 2.70809 0
M  V30 3950 C 351.177 3.90925 3.15409 0
M  V30 3951 C 353.171 5.79138 2.66229 0
M  V30 3952 C 350.858 5.26366 3.10454 0
M  V30 3953 C 351.856 6.20284 2.85895 0
M  V30 3954 O 351.544 7.53245 2.80852 0
M  V30 3955 H 351.276 0.44315 0.510484 0
M  V30 3956 H 353.83 1.76711 1.04702 0
M  V30 3957 H 352.06 1.45554 3.58261 0
M  V30 3958 H 353.749 1.87403 3.60049 0
M  V30 3959 H 354.515 4.12485 2.5511 0
M  V30 3960 H 350.394 3.18229 3.33543 0
M  V30 3961 H 353.938 6.52416 2.4698 0
M  V30 3962 H 349.835 5.57304 3.25703 0
M  V30 3963 H 350.603 7.62846 2.96661 0
M  V30 3964 N 353.266 -1.05314 1.17247 0
M  V30 3965 C 354.176 -2.16538 0.90268 0
M  V30 3966 C 355.192 -1.73523 -0.128707 0
M  V30 3967 O 356.368 -2.01337 0.0502701 0
M  V30 3968 C 353.433 -3.44167 0.418356 0
M  V30 3969 C 352.494 -4.01635 1.51618 0
M  V30 3970 C 351.727 -5.23171 1.05487 0
M  V30 3971 O 351.95 -5.70327 -0.0914715 0
M  V30 3972 O 350.884 -5.72848 1.8474 0
M  V30 3973 H 354.71 -2.42145 1.83302 0
M  V30 3974 H 352.295 -1.15037 0.953246 0
M  V30 3975 H 354.177 -4.21112 0.155726 0
M  V30 3976 H 352.852 -3.20063 -0.48385 0
M  V30 3977 H 351.759 -3.26135 1.83268 0
M  V30 3978 H 353.092 -4.30053 2.39405 0
M  V30 3979 N 354.744 -0.972509 -1.24016 0
M  V30 3980 C 355.707 -0.511403 -2.23422 0
M  V30 3981 C 356.707 0.394679 -1.55881 0
M  V30 3982 O 357.897 0.189469 -1.73167 0
M  V30 3983 C 355.029 0.258769 -3.39916 0
M  V30 3984 H 356.222 -1.39024 -2.6573 0
M  V30 3985 H 353.775 -0.757585 -1.36713 0
M  V30 3986 H 354.51 1.1545 -3.03054 0
M  V30 3987 H 354.295 -0.391522 -3.9014 0
M  V30 3988 H 355.785 0.570244 -4.13688 0
M  V30 3989 N 356.222 1.38976 -0.743202 0
M  V30 3990 C 357.462 2.02193 -0.29954 0
M  V30 3991 C 357.826 1.5771 1.09506 0
M  V30 3992 O 359.027 2.13184 1.63726 0
M  V30 3993 C 357.298 3.55077 -0.406822 0
M  V30 3994 S 358.857 4.38778 -0.0442109 0
M  V30 3995 H 355.675 0.701335 -0.116836 0
M  V30 3996 H 358.277 1.69651 -0.971529 0
M  V30 3997 H 356.981 3.84942 -1.42295 0
M  V30 3998 H 356.512 3.92383 0.282707 0
M  V30 3999 H 358.527 4.82222 1.16947 0
M  V30 4000 N 357.7 0.491464 1.49741 0
M  V30 4001 C 358.946 -0.0565092 2.02721 0
M  V30 4002 C 359.279 -1.37522 1.37118 0
M  V30 4003 O 358.554 -1.87866 0.503645 0
M  V30 4004 C 358.837 -0.219051 3.59433 0
M  V30 4005 C 358.69 1.12211 4.35579 0
M  V30 4006 C 360.009 -0.964157 4.29409 0
M  V30 4007 H 357.128 -0.0190627 0.736753 0
M  V30 4008 H 359.77 0.641021 1.7886 0
M  V30 4009 H 357.92 -0.813165 3.79895 0
M  V30 4010 H 359.592 1.75437 4.26637 0
M  V30 4011 H 357.835 1.71377 3.98513 0
M  V30 4012 H 358.506 0.961794 5.43556 0
M  V30 4013 H 360.982 -0.460378 4.13545 0
M  V30 4014 H 359.858 -1.04671 5.38828 0
M  V30 4015 H 360.119 -2.00563 3.93988 0
M  V30 4016 N 359.178 -1.55987 0.224894 0
M  V30 4017 C 360.403 -2.03232 -0.41369 0
M  V30 4018 C 360.828 -1.10359 -1.52323 0
M  V30 4019 O 360.186 -0.092395 -1.81064 0
M  V30 4020 C 360.234 -3.48682 -0.919405 0
M  V30 4021 O 359.338 -3.58947 -2.03054 0
M  V30 4022 H 358.679 -0.657428 -0.0931903 0
M  V30 4023 H 361.209 -2.01679 0.34451 0
M  V30 4024 H 361.219 -3.8907 -1.22835 0
M  V30 4025 H 359.894 -4.15761 -0.107339 0
M  V30 4026 H 358.471 -3.30448 -1.72796 0
M  V30 4027 N 360.656 0.0484629 -1.57525 0
M  V30 4028 C 361.586 1.0549 -2.08313 0
M  V30 4029 C 362.567 1.38929 -0.981463 0
M  V30 4030 O 363.752 1.48151 -1.25558 0
M  V30 4031 C 360.882 2.36162 -2.54646 0
M  V30 4032 C 359.836 2.17016 -3.68901 0
M  V30 4033 C 359.162 3.53278 -4.01371 0
M  V30 4034 C 360.462 1.57219 -4.98076 0
M  V30 4035 H 362.156 0.632195 -2.92649 0
M  V30 4036 H 359.702 0.302654 -1.40784 0
M  V30 4037 H 361.655 3.06882 -2.88793 0
M  V30 4038 H 360.379 2.80456 -1.67368 0
M  V30 4039 H 359.038 1.48733 -3.35073 0
M  V30 4040 H 358.686 3.95185 -3.11188 0
M  V30 4041 H 358.386 3.41299 -4.78318 0
M  V30 4042 H 359.91 4.25391 -4.38035 0
M  V30 4043 H 361.324 2.17832 -5.30304 0
M  V30 4044 H 359.721 1.55871 -5.79503 0
M  V30 4045 H 360.791 0.535956 -4.81929 0
M  V30 4046 N 362.134 1.5431 0.320358 0
M  V30 4047 C 363.545 1.63872 0.894594 0
M  V30 4048 C 363.896 0.534847 1.88769 0
M  V30 4049 O 363.021 -0.331732 2.13842 0
M  V30 4050 C 363.616 2.97049 1.62934 0
M  V30 4051 C 362.175 3.08796 2.15226 0
M  V30 4052 C 361.322 2.59456 0.978671 0
M  V30 4053 H 364.273 1.58398 0.0978544 0
M  V30 4054 H 364.294 2.87388 2.49376 0
M  V30 4055 H 363.806 3.7737 0.906302 0
M  V30 4056 H 361.907 2.33156 2.90636 0
M  V30 4057 H 362.02 4.14649 2.40006 0
M  V30 4058 H 360.384 2.1543 1.35875 0
M  V30 4059 H 361.167 3.42237 0.269895 0
M  V30 4060 N 363.613 -0.582584 1.46437 0
M  V30 4061 C 364.859 -1.34278 1.51978 0
M  V30 4062 C 365.192 -1.93446 0.170973 0
M  V30 4063 O 364.467 -1.76481 -0.817608 0
M  V30 4064 C 364.75 -2.47203 2.61845 0
M  V30 4065 C 364.603 -1.93069 4.06257 0
M  V30 4066 C 365.922 -3.49247 2.67795 0
M  V30 4067 H 363.041 -0.486876 0.553282 0
M  V30 4068 H 365.683 -0.654437 1.78374 0
M  V30 4069 H 363.833 -3.0592 2.39469 0
M  V30 4070 H 365.505 -1.38808 4.3992 0
M  V30 4071 H 363.748 -1.23898 4.1573 0
M  V30 4072 H 364.419 -2.74586 4.7886 0
M  V30 4073 H 366.895 -3.00411 2.8791 0
M  V30 4074 H 365.771 -4.25719 3.46489 0
M  V30 4075 H 366.032 -4.06482 1.73852 0
M  V30 4076 N 365.091 -1.34144 -0.827227 0
M  V30 4077 C 366.038 -1.25364 -1.93785 0
M  V30 4078 C 367.008 -0.129774 -1.65592 0
M  V30 4079 O 368.193 -0.310024 -1.88264 0
M  V30 4080 C 365.333 -1.01064 -3.2997 0
M  V30 4081 C 364.446 -2.22185 -3.70484 0
M  V30 4082 C 363.581 -1.91203 -4.95595 0
M  V30 4083 C 362.62 -3.08491 -5.28677 0
M  V30 4084 N 361.757 -2.77421 -6.44967 0
M  V30 4085 H 366.597 -2.20347 -2.00627 0
M  V30 4086 H 364.134 -1.09558 -0.981608 0
M  V30 4087 H 366.092 -0.850139 -4.08446 0
M  V30 4088 H 364.722 -0.0975026 -3.22653 0
M  V30 4089 H 363.774 -2.4917 -2.87434 0
M  V30 4090 H 365.086 -3.0983 -3.90905 0
M  V30 4091 H 364.24 -1.71864 -5.81848 0
M  V30 4092 H 362.979 -1.00812 -4.77167 0
M  V30 4093 H 361.984 -3.28431 -4.40923 0
M  V30 4094 H 363.209 -3.99655 -5.49047 0
M  V30 4095 H 361.155 -1.89601 -6.28003 0
M  V30 4096 H 361.072 -3.58598 -6.6554 0
M  V30 4097 H 362.34 -2.61577 -7.34301 0
M  V30 4098 N 366.569 1.04691 -1.17803 0
M  V30 4099 C 367.985 1.29963 -0.926379 0
M  V30 4100 C 368.185 1.97251 0.411635 0
M  V30 4101 O 367.241 2.24922 1.14744 0
M  V30 4102 C 368.554 2.16447 -2.08737 0
M  V30 4103 C 370.102 2.29814 -2.12496 0
M  V30 4104 C 370.577 3.19661 -3.27995 0
M  V30 4105 N 372.068 3.27247 -3.27816 0
M  V30 4106 C 372.803 3.96906 -4.13827 0
M  V30 4107 N 372.299 4.6895 -5.09959 0
M  V30 4108 N 374.092 3.93122 -4.01761 0
M  V30 4109 H 366.243 0.594182 -2.0392 0
M  V30 4110 H 368.506 0.324649 -0.890678 0
M  V30 4111 H 368.212 1.74304 -3.05469 0
M  V30 4112 H 368.086 3.17103 -2.04268 0
M  V30 4113 H 370.473 2.71196 -1.16347 0
M  V30 4114 H 370.554 1.2877 -2.21025 0
M  V30 4115 H 370.198 2.78991 -4.24413 0
M  V30 4116 H 370.128 4.20722 -3.16703 0
M  V30 4117 H 372.619 2.75921 -2.58217 0
M  V30 4118 H 372.932 5.19679 -5.71974 0
M  V30 4119 H 371.277 4.67875 -5.13924 0
M  V30 4120 H 374.468 3.35967 -3.2595 0
M  V30 4121 H 374.641 4.47139 -4.6901 0
M  V30 4122 N 368.047 0.979072 1.23499 0
M  V30 4123 C 368.977 0.537606 2.27227 0
M  V30 4124 C 369.958 -0.428539 1.64613 0
M  V30 4125 O 371.143 -0.322191 1.91509 0
M  V30 4126 C 368.273 -0.162052 3.46922 0
M  V30 4127 C 367.227 0.721242 4.21879 0
M  V30 4128 C 366.553 -0.110555 5.34586 0
M  V30 4129 C 367.853 2.01141 4.82016 0
M  V30 4130 H 369.547 1.40462 2.64406 0
M  V30 4131 H 367.093 0.67684 1.27102 0
M  V30 4132 H 369.046 -0.482192 4.18632 0
M  V30 4133 H 367.77 -1.06351 3.08799 0
M  V30 4134 H 366.429 1.02482 3.51984 0
M  V30 4135 H 366.077 -1.0125 4.92704 0
M  V30 4136 H 365.777 0.477325 5.85658 0
M  V30 4137 H 367.301 -0.425107 6.09118 0
M  V30 4138 H 368.715 1.75612 5.45741 0
M  V30 4139 H 367.112 2.54695 5.43369 0
M  V30 4140 H 368.182 2.69909 4.02836 0
M  V30 4141 N 369.525 -1.3858 0.750561 0
M  V30 4142 C 370.475 -2.27795 0.0965949 0
M  V30 4143 C 371.459 -1.45048 -0.696411 0
M  V30 4144 O 372.651 -1.67812 -0.562863 0
M  V30 4145 C 369.78 -3.33894 -0.798085 0
M  V30 4146 C 368.866 -4.241 0.0016067 0
M  V30 4147 N 369.257 -4.95067 1.03647 0
M  V30 4148 C 367.555 -4.45429 -0.225674 0
M  V30 4149 C 368.256 -5.61489 1.52004 0
M  V30 4150 N 367.232 -5.37135 0.835874 0
M  V30 4151 H 371.034 -2.80125 0.889228 0
M  V30 4152 H 368.548 -1.51446 0.586323 0
M  V30 4153 H 370.545 -3.96693 -1.28219 0
M  V30 4154 H 369.205 -2.83123 -1.5897 0
M  V30 4155 H 370.216 -4.98104 1.41819 0
M  V30 4156 H 366.893 -4.05571 -0.990872 0
M  V30 4157 H 368.283 -6.28264 2.38188 0
M  V30 4158 N 371.003 -0.499398 -1.49478 0
M  V30 4159 C 372.25 0.0456899 -2.02448 0
M  V30 4160 C 372.578 1.37142 -1.37921 0
M  V30 4161 O 371.833 1.89111 -0.503544 0
M  V30 4162 C 372.132 0.248424 -3.56536 0
M  V30 4163 C 371.798 -0.999107 -4.39692 0
M  V30 4164 C 370.46 -1.34108 -4.62135 0
M  V30 4165 C 372.812 -1.82842 -4.88076 0
M  V30 4166 C 370.14 -2.51191 -5.30208 0
M  V30 4167 C 372.492 -2.99076 -5.57437 0
M  V30 4168 C 371.156 -3.33655 -5.78127 0
M  V30 4169 H 370.426 0.0167191 -0.740811 0
M  V30 4170 H 373.073 -0.65923 -1.79795 0
M  V30 4171 H 371.378 1.03586 -3.77859 0
M  V30 4172 H 373.075 0.684605 -3.95113 0
M  V30 4173 H 369.665 -0.722729 -4.22463 0
M  V30 4174 H 373.849 -1.57737 -4.70566 0
M  V30 4175 H 369.105 -2.78221 -5.44429 0
M  V30 4176 H 373.279 -3.63664 -5.93904 0
M  V30 4177 H 370.906 -4.24483 -6.30649 0
M  V30 4178 N 372.481 1.55866 -0.233164 0
M  V30 4179 C 373.758 1.90471 0.444988 0
M  V30 4180 C 374.138 1.15209 1.7689 0
M  V30 4181 O 373.486 0.265119 2.26957 0
M  V30 4182 C 373.696 3.4333 0.626559 0
M  V30 4183 C 375.044 4.14319 0.92871 0
M  V30 4184 O 376.068 3.48993 0.712926 0
M  V30 4185 O 374.927 5.29846 1.33887 0
M  V30 4186 H 372.021 0.792347 0.236885 0
M  V30 4187 H 374.567 1.67437 -0.276211 0
M  V30 4188 H 373.339 3.90095 -0.306822 0
M  V30 4189 H 372.962 3.72181 1.39881 0
M  V30 4190 N 373.959 -0.0401083 1.57549 0
M  V30 4191 C 375.206 -0.733125 1.88763 0
M  V30 4192 C 375.534 -1.75946 0.829058 0
M  V30 4193 O 374.789 -1.94949 -0.171323 0
M  V30 4194 C 375.088 -1.44902 3.26708 0
M  V30 4195 C 374.754 -0.559707 4.47413 0
M  V30 4196 C 373.416 -0.314731 4.8017 0
M  V30 4197 C 375.768 0.0549743 5.21171 0
M  V30 4198 C 373.096 0.553886 5.8408 0
M  V30 4199 C 375.448 0.911229 6.26003 0
M  V30 4200 C 374.112 1.16577 6.57241 0
M  V30 4201 H 373.382 -0.268269 0.690733 0
M  V30 4202 H 376.029 0.00679408 1.91499 0
M  V30 4203 H 374.334 -2.26197 3.1991 0
M  V30 4204 H 376.031 -1.99058 3.48105 0
M  V30 4205 H 372.621 -0.760793 4.21794 0
M  V30 4206 H 376.805 -0.121344 4.96152 0
M  V30 4207 H 372.061 0.759518 6.06664 0
M  V30 4208 H 376.235 1.3941 6.82303 0
M  V30 4209 H 373.862 1.84058 7.37582 0
M  V30 4210 N 375.437 -1.54477 -0.31217 0
M  V30 4211 C 376.683 -1.73483 -1.0503 0
M  V30 4212 C 377.016 -0.513125 -1.87298 0
M  V30 4213 O 376.291 0.489864 -1.8823 0
M  V30 4214 C 376.574 -3.01723 -1.96558 0
M  V30 4215 C 376.427 -4.3417 -1.17545 0
M  V30 4216 C 377.746 -3.25772 -2.95907 0
M  V30 4217 H 374.865 -0.631222 -0.380432 0
M  V30 4218 H 377.507 -1.87184 -0.325932 0
M  V30 4219 H 375.657 -2.90174 -2.58324 0
M  V30 4220 H 377.329 -4.5762 -0.581513 0
M  V30 4221 H 375.572 -4.31159 -0.477925 0
M  V30 4222 H 376.243 -5.20143 -1.84811 0
M  V30 4223 H 378.719 -3.36857 -2.44267 0
M  V30 4224 H 377.595 -4.16838 -3.57123 0
M  V30 4225 H 377.856 -2.43537 -3.68974 0
M  V30 4226 N 376.915 0.57481 -1.46744 0
M  V30 4227 C 378.14 1.36341 -1.56288 0
M  V30 4228 C 378.565 1.86954 -0.207347 0
M  V30 4229 O 377.923 1.62006 0.813871 0
M  V30 4230 C 377.971 2.52147 -2.57787 0
M  V30 4231 O 377.075 3.53834 -2.11838 0
M  V30 4232 H 376.416 0.405713 -0.525636 0
M  V30 4233 H 378.946 0.696453 -1.92382 0
M  V30 4234 H 378.956 2.98958 -2.77648 0
M  V30 4235 H 377.631 2.14663 -3.5622 0
M  V30 4236 H 376.208 3.1345 -2.01999 0
M  V30 4237 N 378.394 1.34581 0.820102 0
M  V30 4238 C 379.342 1.26401 1.95258 0
M  V30 4239 C 380.336 0.161553 1.68628 0
M  V30 4240 O 381.542 0.326703 1.7701 0
M  V30 4241 H 377.917 0.392749 0.64129 0
M  V30 4242 H 379.888 2.22105 1.99279 0
M  V30 4243 C 378.637 1.03919 3.31807 0
M  V30 4244 H 377.96 1.87984 3.52848 0
M  V30 4245 H 379.4 1.02232 4.11491 0
M  V30 4246 C 377.859 -0.257433 3.35915 0
M  V30 4247 O 378.389 -1.25784 3.81499 0
M  V30 4248 N 376.595 -0.291524 2.89134 0
M  V30 4249 H 376.142 0.523161 2.52232 0
M  V30 4250 H 376.1 -1.15883 2.92264 0
M  V30 4251 N 379.872 -1.04064 1.18357 0
M  V30 4252 C 380.782 -2.15569 0.925596 0
M  V30 4253 C 381.798 -1.7365 -0.110295 0
M  V30 4254 O 382.974 -2.01273 0.0716218 0
M  V30 4255 C 380.039 -3.43704 0.454836 0
M  V30 4256 C 379.1 -4.00004 1.55869 0
M  V30 4257 C 378.333 -5.22023 1.1103 0
M  V30 4258 O 378.556 -5.70392 -0.0309756 0
M  V30 4259 O 377.49 -5.70856 1.90805 0
M  V30 4260 H 381.316 -2.40187 1.8586 0
M  V30 4261 H 378.901 -1.1402 0.965394 0
M  V30 4262 H 380.783 -4.20923 0.200382 0
M  V30 4263 H 379.458 -3.20559 -0.449876 0
M  V30 4264 H 378.365 -3.24172 1.86716 0
M  V30 4265 H 379.698 -4.2749 2.43953 0
M  V30 4266 N 381.35 -0.985608 -1.22978 0
M  V30 4267 C 382.26 -0.538548 -2.28335 0
M  V30 4268 C 383.276 0.409163 -1.69121 0
M  V30 4269 O 384.452 0.277797 -1.99475 0
M  V30 4270 C 381.517 0.146867 -3.46389 0
M  V30 4271 C 380.578 -0.842896 -4.20944 0
M  V30 4272 C 379.811 -0.190095 -5.33361 0
M  V30 4273 O 380.034 1.01767 -5.61248 0
M  V30 4274 O 378.968 -0.891289 -5.95264 0
M  V30 4275 H 382.794 -1.41487 -2.68729 0
M  V30 4276 H 380.379 -0.753495 -1.29007 0
M  V30 4277 H 382.261 0.531125 -4.1804 0
M  V30 4278 H 380.936 0.997871 -3.07935 0
M  V30 4279 H 379.843 -1.27795 -3.51595 0
M  V30 4280 H 381.176 -1.66287 -4.6326 0
M  V30 4281 N 382.828 1.3818 -0.7579 0
M  V30 4282 C 383.776 2.32277 -0.122482 0
M  V30 4283 C 384.77 1.54238 0.700505 0
M  V30 4284 O 385.976 1.69737 0.599119 0
M  V30 4285 H 382.351 0.751712 -0.0208143 0
M  V30 4286 H 384.322 2.83469 -0.932099 0
M  V30 4287 C 383.071 3.39447 0.753076 0
M  V30 4288 H 382.394 3.99591 0.129184 0
M  V30 4289 H 383.834 4.07684 1.16489 0
M  V30 4290 C 382.293 2.78375 1.8976 0
M  V30 4291 O 382.823 2.68025 2.99208 0
M  V30 4292 N 381.029 2.36121 1.69397 0
M  V30 4293 H 380.576 2.4474 0.803762 0
M  V30 4294 H 380.534 1.95602 2.46145 0
M  V30 4295 N 384.306 0.507319 1.49211 0
M  V30 4296 C 385.236 -0.256939 2.32082 0
M  V30 4297 C 386.217 -0.956609 1.40652 0
M  V30 4298 O 387.402 -0.946788 1.69557 0
M  V30 4299 C 384.532 -1.31802 3.21318 0
M  V30 4300 C 383.486 -0.737855 4.21592 0
M  V30 4301 C 382.812 -1.89992 4.99807 0
M  V30 4302 C 384.112 0.275325 5.21574 0
M  V30 4303 H 385.806 0.434798 2.96226 0
M  V30 4304 H 383.352 0.210546 1.42452 0
M  V30 4305 H 385.305 -1.86045 3.78107 0
M  V30 4306 H 384.029 -2.03903 2.5513 0
M  V30 4307 H 382.688 -0.217126 3.65956 0
M  V30 4308 H 382.336 -2.60877 4.30061 0
M  V30 4309 H 382.036 -1.51777 5.6766 0
M  V30 4310 H 383.56 -2.44657 5.59442 0
M  V30 4311 H 384.974 -0.179193 5.7302 0
M  V30 4312 H 383.371 0.573649 5.97352 0
M  V30 4313 H 384.441 1.18903 4.70096 0
M  V30 4314 N 385.784 -1.5574 0.241426 0
M  V30 4315 C 386.731 -2.21149 -0.660432 0
M  V30 4316 C 387.701 -1.17356 -1.17545 0
M  V30 4317 O 388.886 -1.45784 -1.23093 0
M  V30 4318 C 386.026 -2.91059 -1.85414 0
M  V30 4319 C 385.139 -4.09495 -1.37616 0
M  V30 4320 C 384.274 -4.67135 -2.529 0
M  V30 4321 C 383.313 -5.77831 -2.01936 0
M  V30 4322 N 382.45 -6.29677 -3.10566 0
M  V30 4323 H 387.29 -2.97845 -0.095955 0
M  V30 4324 H 384.827 -1.47057 -0.0356024 0
M  V30 4325 H 386.785 -3.29788 -2.5553 0
M  V30 4326 H 385.415 -2.16846 -2.39118 0
M  V30 4327 H 384.467 -3.76117 -0.569235 0
M  V30 4328 H 385.779 -4.89423 -0.962618 0
M  V30 4329 H 384.933 -5.08409 -3.31067 0
M  V30 4330 H 383.672 -3.86411 -2.97553 0
M  V30 4331 H 382.677 -5.36039 -1.22238 0
M  V30 4332 H 383.902 -6.60402 -1.58259 0
M  V30 4333 H 381.848 -5.5186 -3.54664 0
M  V30 4334 H 381.765 -7.04783 -2.73526 0
M  V30 4335 H 383.033 -6.75609 -3.88809 0
M  V30 4336 N 387.262 0.0317525 -1.57568 0
M  V30 4337 C 388.21 1.05165 -2.07468 0
M  V30 4338 C 389.204 1.3761 -0.98792 0
M  V30 4339 O 390.41 1.36546 -1.17282 0
M  V30 4340 H 386.785 0.35666 -0.66204 0
M  V30 4341 H 388.756 0.604958 -2.92203 0
M  V30 4342 C 387.505 2.34488 -2.56731 0
M  V30 4343 H 386.828 2.10383 -3.39969 0
M  V30 4344 H 388.268 3.04203 -2.95358 0
M  V30 4345 C 386.727 3.03266 -1.46736 0
M  V30 4346 O 387.257 3.92988 -0.832069 0
M  V30 4347 N 385.463 2.6455 -1.20256 0
M  V30 4348 H 385.01 1.91674 -1.72102 0
M  V30 4349 H 384.968 3.10886 -0.468737 0
M  V30 4350 N 388.74 1.54641 0.303973 0
M  V30 4351 C 389.67 1.88386 1.3796 0
M  V30 4352 C 390.651 0.742485 1.5304 0
M  V30 4353 O 391.836 0.997959 1.66597 0
M  V30 4354 C 388.966 2.12854 2.74427 0
M  V30 4355 C 387.92 3.28702 2.74115 0
M  V30 4356 C 387.246 3.38582 4.13844 0
M  V30 4357 C 388.546 4.65881 2.3612 0
M  V30 4358 H 390.24 2.78474 1.09966 0
M  V30 4359 H 387.786 1.33988 0.527556 0
M  V30 4360 H 389.739 2.35047 3.49758 0
M  V30 4361 H 388.463 1.19535 3.03939 0
M  V30 4362 H 387.122 3.06428 2.0124 0
M  V30 4363 H 386.77 2.42784 4.40528 0
M  V30 4364 H 386.47 4.16453 4.14537 0
M  V30 4365 H 387.994 3.63031 4.90959 0
M  V30 4366 H 389.408 4.87823 3.01167 0
M  V30 4367 H 387.805 5.46444 2.48031 0
M  V30 4368 H 388.875 4.66799 1.3125 0
M  V30 4369 N 390.218 -0.567019 1.47046 0
M  V30 4370 C 391.128 -1.70247 1.6141 0
M  V30 4371 C 392.144 -1.66746 0.497157 0
M  V30 4372 O 393.32 -1.86371 0.763389 0
M  V30 4373 C 390.385 -3.06756 1.61561 0
M  V30 4374 C 389.446 -3.21399 2.84607 0
M  V30 4375 C 388.679 -4.51396 2.84741 0
M  V30 4376 O 388.902 -5.36255 1.94388 0
M  V30 4377 O 387.836 -4.69621 3.76483 0
M  V30 4378 H 391.662 -1.61073 2.57467 0
M  V30 4379 H 389.247 -0.735894 1.30019 0
M  V30 4380 H 391.129 -3.8801 1.64396 0
M  V30 4381 H 389.804 -3.16333 0.686684 0
M  V30 4382 H 388.711 -2.39579 2.8732 0
M  V30 4383 H 390.044 -3.16721 3.76761 0
M  V30 4384 N 391.696 -1.35014 -0.812953 0
M  V30 4385 C 392.643 -1.27412 -1.92444 0
M  V30 4386 C 393.613 -0.14733 -1.65445 0
M  V30 4387 O 394.798 -0.329974 -1.87925 0
M  V30 4388 C 391.938 -1.04558 -3.28879 0
M  V30 4389 C 391.051 -2.26101 -3.68106 0
M  V30 4390 C 390.186 -1.96449 -4.9354 0
M  V30 4391 C 389.225 -3.14081 -5.25376 0
M  V30 4392 N 388.362 -2.84246 -6.41988 0
M  V30 4393 H 393.202 -2.22463 -1.98278 0
M  V30 4394 H 390.739 -1.10593 -0.969933 0
M  V30 4395 H 392.697 -0.893413 -4.07522 0
M  V30 4396 H 391.327 -0.131719 -3.22531 0
M  V30 4397 H 390.379 -2.52204 -2.84775 0
M  V30 4398 H 391.691 -3.13959 -3.87597 0
M  V30 4399 H 390.845 -1.78026 -5.79993 0
M  V30 4400 H 389.584 -1.05867 -4.76071 0
M  V30 4401 H 388.589 -3.33089 -4.37415 0
M  V30 4402 H 389.814 -4.05455 -5.44778 0
M  V30 4403 H 387.76 -1.96252 -6.25956 0
M  V30 4404 H 387.677 -3.65637 -6.61699 0
M  V30 4405 H 388.945 -2.6935 -7.31485 0
M  V30 4406 N 393.175 1.03435 -1.18907 0
M  V30 4407 C 394.125 2.09924 -0.889706 0
M  V30 4408 C 395.109 1.60261 0.143216 0
M  V30 4409 O 396.301 1.76892 -0.0617122 0
M  V30 4410 C 393.43 3.40669 -0.424168 0
M  V30 4411 C 392.516 3.97082 -1.48952 0
M  V30 4412 N 392.907 4.27227 -2.70759 0
M  V30 4413 C 391.205 4.25029 -1.35152 0
M  V30 4414 C 391.906 4.7246 -3.39347 0
M  V30 4415 N 390.882 4.7366 -2.66735 0
M  V30 4416 H 394.684 2.31116 -1.81555 0
M  V30 4417 H 392.198 1.21246 -1.08042 0
M  V30 4418 H 394.195 4.16461 -0.191176 0
M  V30 4419 H 392.855 3.20901 0.495263 0
M  V30 4420 H 393.866 4.16678 -3.0757 0
M  V30 4421 H 390.543 4.14554 -0.495126 0
M  V30 4422 H 391.933 5.04751 -4.43481 0
M  V30 4423 N 394.653 0.992116 1.22453 0
M  V30 4424 C 395.901 0.666215 1.90804 0
M  V30 4425 C 396.222 -0.804152 1.77647 0
M  V30 4426 O 395.492 -1.57629 1.16318 0
M  V30 4427 H 394.072 0.243423 0.706225 0
M  V30 4428 H 396.734 1.25845 1.48825 0
M  V30 4429 H 395.83 0.928069 2.97982 0
M  V30 4430 N 396.131 -1.37776 0.765217 0
M  V30 4431 C 397.378 -1.99849 0.326588 0
M  V30 4432 C 397.706 -1.60746 -1.09504 0
M  V30 4433 O 396.961 -0.84202 -1.76659 0
M  V30 4434 C 397.26 -3.5504 0.410053 0
M  V30 4435 C 396.926 -4.13891 1.78899 0
M  V30 4436 C 395.588 -4.29678 2.16635 0
M  V30 4437 C 397.94 -4.46236 2.69301 0
M  V30 4438 C 395.268 -4.7511 3.44221 0
M  V30 4439 C 397.62 -4.93089 3.9629 0
M  V30 4440 C 396.284 -5.07082 4.34078 0
M  V30 4441 H 395.554 -0.7313 0.119507 0
M  V30 4442 H 398.201 -1.64645 0.977968 0
M  V30 4443 H 396.506 -3.90451 -0.324878 0
M  V30 4444 H 398.203 -4.00966 0.0520699 0
M  V30 4445 H 394.793 -4.02026 1.48569 0
M  V30 4446 H 398.977 -4.3363 2.41409 0
M  V30 4447 H 394.233 -4.84129 3.73402 0
M  V30 4448 H 398.407 -5.17084 4.66472 0
M  V30 4449 H 396.034 -5.42046 5.33001 0
M  V30 4450 N 397.609 -0.515225 -1.4894 0
M  V30 4451 C 399.02 -0.0710067 -1.86565 0
M  V30 4452 C 399.371 1.34733 -1.42623 0
M  V30 4453 O 398.496 2.00653 -0.810379 0
M  V30 4454 C 399.091 -0.122083 -3.3858 0
M  V30 4455 C 397.65 0.266863 -3.75453 0
M  V30 4456 C 396.797 -0.488376 -2.72966 0
M  V30 4457 H 399.748 -0.727266 -1.41055 0
M  V30 4458 H 399.769 0.669818 -3.74558 0
M  V30 4459 H 399.281 -1.15448 -3.70531 0
M  V30 4460 H 397.382 1.30196 -3.49113 0
M  V30 4461 H 397.495 -0.0624811 -4.79059 0
M  V30 4462 H 395.859 0.0635622 -2.54621 0
M  V30 4463 H 396.642 -1.52113 -3.07761 0
M  V30 4464 N 399.087 1.5561 -0.249682 0
M  V30 4465 C 399.997 2.25143 0.659375 0
M  V30 4466 C 401.013 1.2685 1.19101 0
M  V30 4467 O 402.189 1.59732 1.22669 0
M  V30 4468 C 399.254 2.93945 1.8384 0
M  V30 4469 C 398.315 4.07655 1.34596 0
M  V30 4470 C 397.548 4.73167 2.46878 0
M  V30 4471 O 397.771 4.37768 3.65671 0
M  V30 4472 O 396.705 5.61623 2.16478 0
M  V30 4473 H 400.531 3.03545 0.0968698 0
M  V30 4474 H 398.116 1.49389 -0.018074 0
M  V30 4475 H 399.998 3.37271 2.52638 0
M  V30 4476 H 398.673 2.18481 2.38847 0
M  V30 4477 H 397.58 3.68839 0.625174 0
M  V30 4478 H 398.913 4.84946 0.841941 0
M  V30 4479 N 400.565 -0.0233959 1.57583 0
M  V30 4480 C 401.842 -0.748794 1.807 0
M  V30 4481 C 402.222 -1.9327 0.849106 0
M  V30 4482 O 401.57 -2.28247 -0.107468 0
M  V30 4483 C 401.78 -1.17651 3.28571 0
M  V30 4484 C 403.128 -1.59008 3.93702 0
M  V30 4485 O 404.152 -1.27094 3.32755 0
M  V30 4486 O 403.011 -2.18264 5.01022 0
M  V30 4487 H 400.105 -0.362578 0.743281 0
M  V30 4488 H 402.651 0.000261958 1.697 0
M  V30 4489 H 401.423 -0.331603 3.89892 0
M  V30 4490 H 401.046 -1.98541 3.44481 0
M  V30 4491 N 402.043 -1.548 -0.295768 0
M  V30 4492 C 402.99 -1.86113 -1.36494 0
M  V30 4493 C 403.96 -0.7105 -1.50137 0
M  V30 4494 O 405.145 -0.959626 -1.64912 0
M  V30 4495 C 402.285 -2.11861 -2.72413 0
M  V30 4496 C 401.398 -3.39471 -2.67177 0
M  V30 4497 C 400.533 -3.55035 -3.95125 0
M  V30 4498 C 399.572 -4.76418 -3.84308 0
M  V30 4499 N 398.709 -4.8876 -5.04042 0
M  V30 4500 H 403.549 -2.77314 -1.09091 0
M  V30 4501 H 401.086 -1.37315 -0.52753 0
M  V30 4502 H 403.044 -2.24786 -3.51464 0
M  V30 4503 H 401.674 -1.2392 -2.98066 0
M  V30 4504 H 400.726 -3.35139 -1.79962 0
M  V30 4505 H 402.038 -4.28646 -2.55076 0
M  V30 4506 H 401.192 -3.67653 -4.82614 0
M  V30 4507 H 399.931 -2.64002 -4.10066 0
M  V30 4508 H 398.936 -4.63827 -2.95202 0
M  V30 4509 H 400.161 -5.68863 -3.70906 0
M  V30 4510 H 398.107 -4.00652 -5.19436 0
M  V30 4511 H 398.024 -5.71945 -4.94384 0
M  V30 4512 H 399.292 -5.0574 -5.93167 0
M  V30 4513 N 403.521 0.559213 -1.47345 0
M  V30 4514 C 404.468 1.66645 -1.59682 0
M  V30 4515 C 405.438 1.60168 -0.43994 0
M  V30 4516 O 406.623 1.79031 -0.659736 0
M  V30 4517 C 403.763 3.04969 -1.61518 0
M  V30 4518 C 402.876 3.21897 -2.88108 0
M  V30 4519 C 402.011 4.50608 -2.81294 0
M  V30 4520 C 401.05 4.60961 -4.02717 0
M  V30 4521 N 400.187 5.81024 -3.94151 0
M  V30 4522 H 405.027 1.55439 -2.54249 0
M  V30 4523 H 402.564 0.757219 -1.26113 0
M  V30 4524 H 404.522 3.85064 -1.60566 0
M  V30 4525 H 403.152 3.15015 -0.704645 0
M  V30 4526 H 402.204 2.35248 -2.98936 0
M  V30 4527 H 403.516 3.25412 -3.78032 0
M  V30 4528 H 402.67 5.3896 -2.7858 0
M  V30 4529 H 401.409 4.49568 -1.89049 0
M  V30 4530 H 400.414 3.71021 -4.05738 0
M  V30 4531 H 401.639 4.63761 -4.96087 0
M  V30 4532 H 399.585 5.80938 -3.04708 0
M  V30 4533 H 399.502 5.85909 -4.77752 0
M  V30 4534 H 400.77 6.71744 -3.9545 0
M  V30 4535 N 404.999 1.35443 0.805782 0
M  V30 4536 C 405.929 1.31095 1.93226 0
M  V30 4537 C 406.91 0.185244 1.69088 0
M  V30 4538 O 408.095 0.380332 1.90439 0
M  V30 4539 C 405.225 1.08299 3.29983 0
M  V30 4540 C 404.179 2.17519 3.68605 0
M  V30 4541 C 403.505 1.79887 5.03532 0
M  V30 4542 C 404.805 3.5949 3.78898 0
M  V30 4543 H 406.499 2.25352 1.97122 0
M  V30 4544 H 404.045 1.0848 0.946996 0
M  V30 4545 H 405.998 1.03897 4.08391 0
M  V30 4546 H 404.722 0.104885 3.26432 0
M  V30 4547 H 403.381 2.2102 2.92482 0
M  V30 4548 H 403.029 0.80693 4.96485 0
M  V30 4549 H 402.729 2.53001 5.30344 0
M  V30 4550 H 404.253 1.77011 5.84379 0
M  V30 4551 H 405.667 3.58307 4.47536 0
M  V30 4552 H 404.064 4.31371 4.1718 0
M  V30 4553 H 405.134 3.95584 2.80431 0
M  V30 4554 N 406.477 -1.02803 1.19454 0
M  V30 4555 C 407.723 -1.76478 0.999171 0
M  V30 4556 C 408.056 -1.88456 -0.468828 0
M  V30 4557 O 407.331 -1.40198 -1.34814 0
M  V30 4558 C 407.614 -3.19044 1.66981 0
M  V30 4559 C 407.467 -3.14932 3.21151 0
M  V30 4560 C 408.786 -4.17456 1.39349 0
M  V30 4561 H 405.905 -0.640614 0.364393 0
M  V30 4562 H 408.547 -1.20005 1.47305 0
M  V30 4563 H 406.697 -3.67263 1.2669 0
M  V30 4564 H 408.369 -2.74605 3.70661 0
M  V30 4565 H 406.612 -2.52625 3.52652 0
M  V30 4566 H 407.283 -4.1566 3.63223 0
M  V30 4567 H 409.759 -3.77842 1.74283 0
M  V30 4568 H 408.635 -5.154 1.88823 0
M  V30 4569 H 408.896 -4.40949 0.318813 0
M  V30 4570 N 407.956 -0.998596 -1.21925 0
M  V30 4571 C 408.919 -0.558679 -2.22287 0
M  V30 4572 C 409.919 0.361525 -1.56683 0
M  V30 4573 O 411.109 0.152695 -1.73529 0
M  V30 4574 C 408.241 0.18661 -3.40389 0
M  V30 4575 H 409.434 -1.4463 -2.62721 0
M  V30 4576 H 406.987 -0.786413 -1.35075 0
M  V30 4577 H 407.722 1.08996 -3.05435 0
M  V30 4578 H 407.507 -0.474188 -3.89222 0
M  V30 4579 H 408.997 0.482367 -4.14805 0
M  V30 4580 N 409.434 1.37368 -0.772513 0
M  V30 4581 C 410.682 1.99279 -0.336516 0
M  V30 4582 C 411.003 1.6163 1.09091 0
M  V30 4583 O 410.273 0.882109 1.74916 0
M  V30 4584 H 408.853 0.737063 -0.121435 0
M  V30 4585 H 411.515 1.67836 -0.990809 0
M  V30 4586 H 410.611 3.09332 -0.414763 0
M  V30 4587 N 410.912 0.523116 1.48665 0
M  V30 4588 C 412.158 -0.0134963 2.02796 0
M  V30 4589 C 412.491 -1.34582 1.40004 0
M  V30 4590 O 411.766 -1.86756 0.543381 0
M  V30 4591 C 412.049 -0.14276 3.59817 0
M  V30 4592 C 411.902 1.21425 4.331 0
M  V30 4593 C 413.221 -0.872856 4.31357 0
M  V30 4594 H 410.34 -0.00343074 0.736992 0
M  V30 4595 H 412.982 0.678816 1.7746 0
M  V30 4596 H 411.132 -0.732401 3.81534 0
M  V30 4597 H 412.804 1.84447 4.2282 0
M  V30 4598 H 411.047 1.79791 3.94788 0
M  V30 4599 H 411.718 1.07687 5.41394 0
M  V30 4600 H 414.194 -0.372555 4.14429 0
M  V30 4601 H 413.07 -0.932185 5.40927 0
M  V30 4602 H 413.331 -1.92161 3.98154 0
M  V30 4603 N 412.39 -1.55475 0.257931 0
M  V30 4604 C 413.639 -1.98383 -0.364275 0
M  V30 4605 C 413.952 -1.14952 -1.58258 0
M  V30 4606 O 415.158 -1.47924 -2.27664 0
M  V30 4607 C 413.614 -3.53037 -0.699479 0
M  V30 4608 C 413.222 -4.45223 0.498046 0
M  V30 4609 C 414.966 -4.04575 -1.28526 0
M  V30 4610 C 412.873 -5.91238 0.138383 0
M  V30 4611 H 411.803 -0.740911 -0.13988 0
M  V30 4612 H 414.454 -1.79936 0.359883 0
M  V30 4613 H 412.836 -3.6722 -1.48207 0
M  V30 4614 H 414.01 -4.42803 1.27522 0
M  V30 4615 H 412.325 -4.04226 0.999503 0
M  V30 4616 H 414.922 -5.11196 -1.56788 0
M  V30 4617 H 415.265 -3.5258 -2.21344 0
M  V30 4618 H 415.798 -3.93762 -0.565337 0
M  V30 4619 H 412.537 -6.47294 1.03398 0
M  V30 4620 H 412.057 -5.96768 -0.602374 0
M  V30 4621 H 413.736 -6.46413 -0.27553 0
M  V30 4622 N 413.868 0.0150385 -1.57593 0
M  V30 4623 C 414.816 1.02958 -2.08572 0
M  V30 4624 C 415.81 1.36554 -1.00246 0
M  V30 4625 O 417.016 1.35295 -1.18724 0
M  V30 4626 H 413.391 0.349619 -0.665786 0
M  V30 4627 H 415.362 0.573932 -2.92829 0
M  V30 4628 C 414.111 2.31752 -2.59203 0
M  V30 4629 H 413.434 2.06765 -3.42182 0
M  V30 4630 H 414.874 3.01053 -2.98568 0
M  V30 4631 C 413.333 3.01692 -1.49945 0
M  V30 4632 O 413.863 3.92083 -0.873704 0
M  V30 4633 N 412.069 2.6326 -1.23056 0
M  V30 4634 H 411.616 1.89838 -1.74125 0
M  V30 4635 H 411.574 3.10372 -0.501685 0
M  V30 4636 N 415.346 1.54954 0.287554 0
M  V30 4637 C 416.594 1.74528 1.01904 0
M  V30 4638 C 416.915 0.541349 1.87335 0
M  V30 4639 O 416.185 -0.444108 1.908 0
M  V30 4640 H 414.765 0.643576 0.379235 0
M  V30 4641 H 417.427 1.92333 0.315294 0
M  V30 4642 H 416.523 2.64015 1.6644 0
M  V30 4643 N 416.824 -0.551391 1.4764 0
M  V30 4644 C 418.24 -0.877887 1.33287 0
M  V30 4645 C 418.44 -1.98817 0.327721 0
M  V30 4646 O 417.496 -2.51171 -0.258695 0
M  V30 4647 C 418.809 -1.26563 2.72768 0
M  V30 4648 C 420.357 -1.37673 2.81097 0
M  V30 4649 C 420.832 -1.79799 4.21232 0
M  V30 4650 N 422.323 -1.8694 4.23802 0
M  V30 4651 C 423.058 -2.20876 5.29151 0
M  V30 4652 N 422.554 -2.53386 6.448 0
M  V30 4653 N 424.347 -2.217 5.16532 0
M  V30 4654 H 416.498 0.18153 2.11623 0
M  V30 4655 H 418.761 0.0185514 0.947818 0
M  V30 4656 H 418.467 -0.523591 3.47781 0
M  V30 4657 H 418.341 -2.22052 3.04915 0
M  V30 4658 H 420.728 -2.10956 2.06353 0
M  V30 4659 H 420.809 -0.40357 2.52596 0
M  V30 4660 H 420.453 -1.07083 4.96483 0
M  V30 4661 H 420.383 -2.78128 4.4716 0
M  V30 4662 H 422.874 -1.64179 3.40373 0
M  V30 4663 H 423.187 -2.78325 7.20941 0
M  V30 4664 H 421.532 -2.50953 6.48111 0
M  V30 4665 H 424.723 -1.95745 4.25207 0
M  V30 4666 H 424.896 -2.47818 5.98741 0
M  V30 4667 N 418.302 -1.35869 -0.798587 0
M  V30 4668 C 419.234 -1.25305 -1.91915 0
M  V30 4669 C 420.247 -0.174548 -1.61862 0
M  V30 4670 O 421.436 -0.428499 -1.73281 0
M  V30 4671 C 418.536 -0.9086 -3.26493 0
M  V30 4672 C 417.709 -2.08711 -3.84394 0
M  V30 4673 C 416.768 -1.71717 -4.97393 0
M  V30 4674 O 415.794 -2.43692 -5.14396 0
M  V30 4675 N 416.996 -0.645473 -5.769 0
M  V30 4676 H 419.761 -2.21849 -2.01502 0
M  V30 4677 H 417.322 -1.29143 -0.976408 0
M  V30 4678 H 419.314 -0.642455 -3.99568 0
M  V30 4679 H 417.884 -0.0325815 -3.12583 0
M  V30 4680 H 417.104 -2.51659 -3.03416 0
M  V30 4681 H 418.392 -2.87468 -4.19809 0
M  V30 4682 H 417.79 -0.047648 -5.6568 0
M  V30 4683 H 416.347 -0.43913 -6.50319 0
M  V30 4684 N 419.78 1.02168 -1.19998 0
M  V30 4685 C 421.191 1.57135 -1.00825 0
M  V30 4686 C 421.542 1.91276 0.436818 0
M  V30 4687 O 420.667 1.71679 1.3174 0
M  V30 4688 C 421.262 2.85514 -1.82393 0
M  V30 4689 C 419.821 3.37027 -1.67601 0
M  V30 4690 C 418.968 2.10388 -1.80644 0
M  V30 4691 H 421.919 0.846106 -1.34264 0
M  V30 4692 H 421.94 3.56711 -1.32429 0
M  V30 4693 H 421.452 2.60634 -2.87561 0
M  V30 4694 H 419.553 3.66878 -0.650485 0
M  V30 4695 H 419.666 4.09572 -2.4857 0
M  V30 4696 H 418.03 2.22601 -1.23778 0
M  V30 4697 H 418.813 1.8794 -2.87286 0
M  V30 4698 N 421.258 1.00505 1.21394 0
M  V30 4699 C 422.504 0.698477 1.91031 0
M  V30 4700 C 422.859 -0.762448 1.76648 0
M  V30 4701 O 422.152 -1.54554 1.13241 0
M  V30 4702 C 422.346 1.0546 3.41486 0
M  V30 4703 C 422.175 2.5486 3.70508 0
M  V30 4704 C 420.945 3.21461 3.8986 0
M  V30 4705 C 423.143 3.53019 3.74008 0
M  V30 4706 N 421.125 4.60211 4.06299 0
M  V30 4707 C 422.496 4.77279 3.95733 0
M  V30 4708 C 424.551 3.47154 3.56915 0
M  V30 4709 C 423.254 5.96388 4.02137 0
M  V30 4710 C 425.28 4.65652 3.64585 0
M  V30 4711 C 424.642 5.88717 3.86771 0
M  V30 4712 H 420.741 0.30707 0.719189 0
M  V30 4713 H 423.325 1.28753 1.46051 0
M  V30 4714 H 421.496 0.494007 3.85246 0
M  V30 4715 H 423.228 0.702765 3.98552 0
M  V30 4716 H 419.983 2.71906 3.87768 0
M  V30 4717 H 420.407 5.32216 4.1842 0
M  V30 4718 H 425.049 2.53015 3.38738 0
M  V30 4719 H 422.767 6.90919 4.19114 0
M  V30 4720 H 426.353 4.62717 3.52681 0
M  V30 4721 H 425.233 6.78877 3.92549 0
M  V30 4722 N 422.737 -1.36956 0.779787 0
M  V30 4723 C 423.684 -2.30175 0.169697 0
M  V30 4724 C 424.654 -1.51501 -0.68094 0
M  V30 4725 O 425.839 -1.80042 -0.631629 0
M  V30 4726 C 422.979 -3.37985 -0.697131 0
M  V30 4727 C 422.092 -4.31661 0.170992 0
M  V30 4728 C 421.227 -5.2655 -0.701298 0
M  V30 4729 C 420.266 -6.11867 0.168869 0
M  V30 4730 N 419.403 -6.98973 -0.661855 0
M  V30 4731 H 424.243 -2.81767 0.970135 0
M  V30 4732 H 421.78 -1.38699 0.489994 0
M  V30 4733 H 423.738 -3.99128 -1.2146 0
M  V30 4734 H 422.368 -2.87739 -1.46309 0
M  V30 4735 H 421.42 -3.71756 0.80634 0
M  V30 4736 H 422.732 -4.91644 0.841875 0
M  V30 4737 H 421.886 -5.92937 -1.28494 0
M  V30 4738 H 420.625 -4.66998 -1.40584 0
M  V30 4739 H 419.63 -5.44452 0.764986 0
M  V30 4740 H 420.855 -6.73493 0.870863 0
M  V30 4741 H 418.801 -6.41941 -1.35086 0
M  V30 4742 H 418.718 -7.55984 -0.0484447 0
M  V30 4743 H 419.986 -7.6974 -1.22963 0
M  V30 4744 N 424.215 -0.530993 -1.48385 0
M  V30 4745 C 425.461 0.00274135 -2.028 0
M  V30 4746 C 425.794 1.33838 -1.40716 0
M  V30 4747 O 425.069 1.86465 -0.553277 0
M  V30 4748 C 425.352 0.123676 -3.59888 0
M  V30 4749 C 425.205 -1.2372 -4.3245 0
M  V30 4750 C 426.524 0.849967 -4.31814 0
M  V30 4751 H 423.643 -0.000477758 -0.737 0
M  V30 4752 H 426.285 -0.688217 -1.77098 0
M  V30 4753 H 424.435 0.712157 -3.81917 0
M  V30 4754 H 426.107 -1.86687 -4.21836 0
M  V30 4755 H 424.35 -1.81882 -3.93829 0
M  V30 4756 H 425.021 -1.10557 -5.40815 0
M  V30 4757 H 427.497 0.350572 -4.14621 0
M  V30 4758 H 426.373 0.903486 -5.41413 0
M  V30 4759 H 426.634 1.90047 -3.99167 0
M  V30 4760 N 425.693 1.55336 -0.266172 0
M  V30 4761 C 426.97 1.91372 0.404486 0
M  V30 4762 C 427.35 1.18935 1.74407 0
M  V30 4763 O 426.698 0.3132 2.26343 0
M  V30 4764 C 426.908 3.44581 0.553593 0
M  V30 4765 C 428.256 4.16196 0.840618 0
M  V30 4766 O 429.28 3.50426 0.638739 0
M  V30 4767 O 428.139 5.32567 1.22618 0
M  V30 4768 H 425.233 0.797194 0.220025 0
M  V30 4769 H 427.779 1.66813 -0.311664 0
M  V30 4770 H 426.551 3.89357 -0.389498 0
M  V30 4771 H 426.174 3.75065 1.31955 0
M  V30 4772 N 427.171 -0.0066808 1.57599 0
M  V30 4773 C 428.101 -0.999296 2.11036 0
M  V30 4774 C 429.082 -1.36278 1.01795 0
M  V30 4775 O 430.267 -1.4477 1.29442 0
M  V30 4776 C 427.397 -2.29328 2.60818 0
M  V30 4777 C 426.351 -2.07159 3.74525 0
M  V30 4778 C 425.677 -3.42512 4.10596 0
M  V30 4779 C 426.977 -1.43959 5.02069 0
M  V30 4780 H 428.671 -0.554382 2.94223 0
M  V30 4781 H 426.217 -0.265221 1.41536 0
M  V30 4782 H 428.17 -2.99117 2.96828 0
M  V30 4783 H 426.894 -2.7592 1.74745 0
M  V30 4784 H 425.553 -1.39797 3.38899 0
M  V30 4785 H 425.201 -3.86795 3.21556 0
M  V30 4786 H 424.901 -3.28498 4.87199 0
M  V30 4787 H 426.425 -4.13628 4.4916 0
M  V30 4788 H 427.839 -2.03696 5.35893 0
M  V30 4789 H 426.236 -1.40452 5.83432 0
M  V30 4790 H 427.306 -0.407992 4.83181 0
M  V30 4791 N 428.649 -1.55105 -0.279332 0
M  V30 4792 C 430.065 -1.46803 -0.626187 0
M  V30 4793 C 430.265 -0.676939 -1.89789 0
M  V30 4794 O 429.321 -0.19326 -2.51759 0
M  V30 4795 C 430.634 -2.90962 -0.759034 0
M  V30 4796 C 432.182 -3.01138 -0.853504 0
M  V30 4797 C 432.657 -4.46539 -1.01818 0
M  V30 4798 N 434.148 -4.50341 -1.08386 0
M  V30 4799 C 434.883 -5.60053 -1.22996 0
M  V30 4800 N 434.379 -6.79645 -1.34366 0
M  V30 4801 N 436.172 -5.47783 -1.26056 0
M  V30 4802 H 428.323 -2.04996 0.555921 0
M  V30 4803 H 430.586 -0.929325 0.187239 0
M  V30 4804 H 430.292 -3.51544 0.104852 0
M  V30 4805 H 430.166 -3.39619 -1.64131 0
M  V30 4806 H 432.553 -2.40658 -1.70786 0
M  V30 4807 H 432.634 -2.55745 0.0532466 0
M  V30 4808 H 432.278 -5.0762 -0.168504 0
M  V30 4809 H 432.208 -4.89583 -1.93948 0
M  V30 4810 H 434.699 -3.64191 -1.00864 0
M  V30 4811 H 435.012 -7.59012 -1.4533 0
M  V30 4812 H 433.357 -6.82469 -1.31382 0
M  V30 4813 H 436.548 -4.53294 -1.168 0
M  V30 4814 H 436.721 -6.33331 -1.37098 0
M  V30 4815 N 430.127 0.543554 -1.4793 0
M  V30 4816 C 431.074 1.64942 -1.6144 0
M  V30 4817 C 432.044 1.59692 -0.456903 0
M  V30 4818 O 433.229 1.78321 -0.678688 0
M  V30 4819 C 430.369 3.03238 -1.64744 0
M  V30 4820 C 429.482 3.18823 -2.91506 0
M  V30 4821 C 428.617 4.47599 -2.86057 0
M  V30 4822 C 427.656 4.56664 -4.07584 0
M  V30 4823 N 426.793 5.76811 -4.00292 0
M  V30 4824 H 431.633 1.52733 -2.55884 0
M  V30 4825 H 429.17 0.7438 -1.2691 0
M  V30 4826 H 431.128 3.83339 -1.64641 0
M  V30 4827 H 429.758 3.1425 -0.738017 0
M  V30 4828 H 428.81 2.32064 -3.01414 0
M  V30 4829 H 430.122 3.21384 -3.81463 0
M  V30 4830 H 429.276 5.35975 -2.84281 0
M  V30 4831 H 428.015 4.47538 -1.93807 0
M  V30 4832 H 427.02 3.66697 -4.09651 0
M  V30 4833 H 428.245 4.58474 -5.00978 0
M  V30 4834 H 426.191 5.77673 -3.10853 0
M  V30 4835 H 426.108 5.80808 -4.8394 0
M  V30 4836 H 427.376 6.67512 -4.02553 0
M  V30 4837 N 431.605 1.3629 0.791371 0
M  V30 4838 C 432.851 1.30605 1.55146 0
M  V30 4839 C 433.184 -0.115042 1.93859 0
M  V30 4840 O 432.459 -1.06798 1.62556 0
M  V30 4841 C 432.742 2.22692 2.82985 0
M  V30 4842 C 432.595 3.73489 2.50651 0
M  V30 4843 C 433.914 2.13588 3.84796 0
M  V30 4844 H 431.033 0.475761 0.562868 0
M  V30 4845 H 433.675 1.66825 0.909358 0
M  V30 4846 H 431.825 1.91933 3.37778 0
M  V30 4847 H 433.497 4.14758 2.01924 0
M  V30 4848 H 431.74 3.93021 1.83622 0
M  V30 4849 H 432.411 4.3333 3.41949 0
M  V30 4850 H 434.887 2.40659 3.39445 0
M  V30 4851 H 433.763 2.80195 4.71998 0
M  V30 4852 H 434.024 1.12256 4.27611 0
M  V30 4853 N 433.083 -1.0153 1.20538 0
M  V30 4854 C 434.046 -2.0826 0.957098 0
M  V30 4855 C 435.046 -1.60657 -0.0678655 0
M  V30 4856 O 436.236 -1.73385 0.168332 0
M  V30 4857 C 433.368 -3.38033 0.441188 0
M  V30 4858 H 434.561 -2.31719 1.90384 0
M  V30 4859 H 432.114 -1.1835 1.02093 0
M  V30 4860 H 432.849 -3.20249 -0.510961 0
M  V30 4861 H 432.634 -3.73911 1.18038 0
M  V30 4862 H 434.124 -4.16613 0.287009 0
M  V30 4863 N 434.561 -1.01147 -1.20859 0
M  V30 4864 C 435.786 -0.716698 -1.94623 0
M  V30 4865 C 436.211 0.715415 -1.73964 0
M  V30 4866 O 435.569 1.49157 -1.03062 0
M  V30 4867 C 435.617 -1.0513 -3.44935 0
M  V30 4868 O 434.721 -0.160131 -4.12089 0
M  V30 4869 H 434.062 -0.266404 -0.608214 0
M  V30 4870 H 436.592 -1.35346 -1.53436 0
M  V30 4871 H 436.602 -1.00086 -3.95533 0
M  V30 4872 H 435.277 -2.09475 -3.59295 0
M  V30 4873 H 433.854 -0.267657 -3.71938 0
M  V30 4874 N 436.039 1.36541 -0.78704 0
M  V30 4875 C 436.969 2.32659 -0.197992 0
M  V30 4876 C 437.95 1.56533 0.665697 0
M  V30 4877 O 439.135 1.84698 0.60001 0
M  V30 4878 C 436.265 3.40778 0.669901 0
M  V30 4879 C 435.219 4.27897 -0.0937039 0
M  V30 4880 C 434.545 5.27163 0.894629 0
M  V30 4881 C 435.845 5.06334 -1.28154 0
M  V30 4882 H 437.539 2.82171 -1.00099 0
M  V30 4883 H 435.085 1.35665 -0.482793 0
M  V30 4884 H 437.038 4.07008 1.09191 0
M  V30 4885 H 435.762 2.89827 1.50558 0
M  V30 4886 H 434.421 3.6322 -0.49666 0
M  V30 4887 H 434.069 4.72486 1.72527 0
M  V30 4888 H 433.769 5.86317 0.388149 0
M  V30 4889 H 435.293 5.96266 1.31525 0
M  V30 4890 H 436.707 5.65617 -0.93541 0
M  V30 4891 H 435.104 5.74888 -1.72115 0
M  V30 4892 H 436.174 4.38114 -2.07807 0
M  V30 4893 N 437.518 0.538854 1.48102 0
M  V30 4894 C 438.764 0.00801365 2.02798 0
M  V30 4895 C 439.097 -1.3309 1.41424 0
M  V30 4896 O 438.372 -1.86169 0.563158 0
M  V30 4897 C 438.655 -0.104589 3.59948 0
M  V30 4898 C 438.508 1.26012 4.31788 0
M  V30 4899 C 439.827 -0.827055 4.32259 0
M  V30 4900 H 436.946 0.00438624 0.736987 0
M  V30 4901 H 439.588 0.6976 1.7673 0
M  V30 4902 H 437.738 -0.691893 3.82289 0
M  V30 4903 H 439.41 1.88922 4.2084 0
M  V30 4904 H 437.653 1.83968 3.92859 0
M  V30 4905 H 438.324 1.13424 5.40221 0
M  V30 4906 H 440.8 -0.328578 4.14801 0
M  V30 4907 H 439.676 -0.87476 5.41885 0
M  V30 4908 H 439.937 -1.87927 4.0017 0
M  V30 4909 N 438.996 -1.55193 0.274407 0
M  V30 4910 C 439.906 -2.26164 -0.623473 0
M  V30 4911 C 440.922 -1.28729 -1.17068 0
M  V30 4912 O 442.098 -1.61663 -1.20112 0
M  V30 4913 C 439.163 -2.96833 -1.7914 0
M  V30 4914 C 438.224 -4.09745 -1.28093 0
M  V30 4915 C 437.457 -4.77034 -2.3932 0
M  V30 4916 O 437.68 -4.4353 -3.5866 0
M  V30 4917 O 436.614 -5.64996 -2.07516 0
M  V30 4918 H 440.44 -3.03661 -0.0485661 0
M  V30 4919 H 438.025 -1.49341 0.0418382 0
M  V30 4920 H 439.907 -3.41248 -2.4724 0
M  V30 4921 H 438.582 -2.22253 -2.35341 0
M  V30 4922 H 437.489 -3.69787 -0.566416 0
M  V30 4923 H 438.822 -4.86224 -0.764683 0
M  V30 4924 N 440.474 -0.00167713 -1.576 0
M  V30 4925 C 441.421 0.989195 -2.08527 0
M  V30 4926 C 442.391 1.34031 -0.981065 0
M  V30 4927 O 443.576 1.43839 -1.2536 0
M  V30 4928 C 440.716 2.27537 -2.59463 0
M  V30 4929 C 439.829 1.98314 -3.83791 0
M  V30 4930 C 438.964 3.21025 -4.23222 0
M  V30 4931 C 438.003 2.87495 -5.40382 0
M  V30 4932 N 437.14 4.02749 -5.75098 0
M  V30 4933 H 441.98 0.547973 -2.92919 0
M  V30 4934 H 439.517 0.258917 -1.44803 0
M  V30 4935 H 441.475 3.02729 -2.87073 0
M  V30 4936 H 440.105 2.69325 -1.77943 0
M  V30 4937 H 439.157 1.13482 -3.63078 0
M  V30 4938 H 440.469 1.69601 -4.69081 0
M  V30 4939 H 439.623 4.04561 -4.52123 0
M  V30 4940 H 438.362 3.52877 -3.36644 0
M  V30 4941 H 437.367 2.02367 -5.11202 0
M  V30 4942 H 438.592 2.56889 -6.28637 0
M  V30 4943 H 436.538 4.34494 -4.91478 0
M  V30 4944 H 436.455 3.77566 -6.54966 0
M  V30 4945 H 437.723 4.87068 -6.08592 0
M  V30 4946 N 441.952 1.55251 0.271103 0
M  V30 4947 C 442.882 1.9127 1.33933 0
M  V30 4948 C 443.863 0.77478 1.5143 0
M  V30 4949 O 445.048 1.03307 1.64442 0
M  V30 4950 C 442.178 2.18627 2.69851 0
M  V30 4951 C 441.132 3.34442 2.67081 0
M  V30 4952 C 440.458 3.47284 4.06569 0
M  V30 4953 C 441.758 4.70784 2.26185 0
M  V30 4954 H 443.452 2.80744 1.04035 0
M  V30 4955 H 440.998 1.35077 0.499017 0
M  V30 4956 H 442.951 2.42413 3.44694 0
M  V30 4957 H 441.675 1.25955 3.01335 0
M  V30 4958 H 440.334 3.10627 1.94695 0
M  V30 4959 H 439.982 2.52074 4.35279 0
M  V30 4960 H 439.682 4.25152 4.0561 0
M  V30 4961 H 441.206 3.73363 4.83148 0
M  V30 4962 H 442.62 4.94102 2.90751 0
M  V30 4963 H 441.017 5.51582 2.36384 0
M  V30 4964 H 442.087 4.69478 1.21319 0
M  V30 4965 N 443.43 -0.535701 1.48216 0
M  V30 4966 C 444.678 -1.28928 1.55634 0
M  V30 4967 C 444.999 -1.93645 0.229514 0
M  V30 4968 O 444.269 -1.81038 -0.74846 0
M  V30 4969 H 442.849 -0.47884 0.573342 0
M  V30 4970 H 445.511 -0.623853 1.84646 0
M  V30 4971 H 444.607 -2.07157 2.33436 0
M  V30 4972 N 444.908 -1.36708 -0.784132 0
M  V30 4973 C 445.871 -1.31307 -1.87859 0
M  V30 4974 C 446.871 -0.219654 -1.59293 0
M  V30 4975 O 448.061 -0.47476 -1.67606 0
M  V30 4976 C 445.193 -1.03679 -3.24751 0
M  V30 4977 H 446.386 -2.28647 -1.94064 0
M  V30 4978 H 443.939 -1.21558 -0.98252 0
M  V30 4979 H 444.674 -0.0681936 -3.24228 0
M  V30 4980 H 444.459 -1.82811 -3.46876 0
M  V30 4981 H 445.949 -1.02518 -4.04821 0
M  V30 4982 N 446.386 1.0089 -1.21074 0
M  V30 4983 C 447.611 1.78727 -1.05221 0
M  V30 4984 C 448.036 1.83932 0.393795 0
M  V30 4985 O 447.394 1.28004 1.28393 0
M  V30 4986 C 447.442 3.20665 -1.64944 0
M  V30 4987 O 446.546 4.02632 -0.892273 0
M  V30 4988 H 445.887 0.550973 -0.370574 0
M  V30 4989 H 448.417 1.26847 -1.60534 0
M  V30 4990 H 448.427 3.71352 -1.69002 0
M  V30 4991 H 447.102 3.16191 -2.70177 0
M  V30 4992 H 445.679 3.61207 -0.926492 0
M  V30 4993 N 447.864 1.01787 1.20321 0
M  V30 4994 C 448.827 0.593972 2.2137 0
M  V30 4995 C 449.827 -0.336553 1.57239 0
M  V30 4996 O 451.017 -0.125069 1.7375 0
M  V30 4997 C 448.149 -0.132433 3.40643 0
M  V30 4998 H 449.342 1.48791 2.60387 0
M  V30 4999 H 446.895 0.807803 1.33807 0
M  V30 5000 H 447.63 -1.04123 3.0713 0
M  V30 5001 H 447.415 0.53605 3.88418 0
M  V30 5002 H 448.905 -0.416314 4.1552 0
M  V30 5003 N 449.342 -1.36122 0.79427 0
M  V30 5004 C 450.591 -1.98361 0.365464 0
M  V30 5005 C 450.904 -1.6374 -1.06997 0
M  V30 5006 O 452.11 -2.19251 -1.60129 0
M  V30 5007 C 450.566 -3.54821 0.602496 0
M  V30 5008 C 450.174 -3.98362 2.04967 0
M  V30 5009 C 451.918 -4.2383 0.238437 0
M  V30 5010 C 449.825 -5.47619 2.2331 0
M  V30 5011 H 448.755 -0.742193 0.13291 0
M  V30 5012 H 451.406 -1.55354 0.976589 0
M  V30 5013 H 449.788 -3.95922 -0.078409 0
M  V30 5014 H 450.962 -3.68447 2.76737 0
M  V30 5015 H 449.277 -3.42206 2.37243 0
M  V30 5016 H 451.874 -5.33529 0.353705 0
M  V30 5017 H 452.217 -4.08264 -0.814006 0
M  V30 5018 H 452.75 -3.88108 0.872769 0
M  V30 5019 H 449.489 -5.68138 3.26955 0
M  V30 5020 H 449.009 -5.79145 1.5605 0
M  V30 5021 H 450.688 -6.13911 2.0426 0
M  V30 5022 N 450.82 -0.546701 -1.47814 0
M  V30 5023 C 452.045 -0.021268 -2.07389 0
M  V30 5024 C 452.47 1.25822 -1.39822 0
M  V30 5025 O 451.828 1.75111 -0.46968 0
M  V30 5026 C 451.876 0.168502 -3.60206 0
M  V30 5027 O 450.98 1.23347 -3.93522 0
M  V30 5028 H 450.321 -0.0466108 -0.662362 0
M  V30 5029 H 452.851 -0.759387 -1.89985 0
M  V30 5030 H 452.861 0.385982 -4.0617 0
M  V30 5031 H 451.536 -0.766075 -4.08784 0
M  V30 5032 H 450.113 0.997319 -3.59316 0
M  V30 5033 N 452.299 1.55045 -0.282633 0
M  V30 5034 C 453.247 2.24254 0.617478 0
M  V30 5035 C 454.241 1.24215 1.15183 0
M  V30 5036 O 455.447 1.42123 1.10459 0
M  V30 5037 H 451.822 0.719801 0.217693 0
M  V30 5038 H 453.793 2.98398 0.0110076 0
M  V30 5039 C 452.542 2.98281 1.78672 0
M  V30 5040 H 451.865 3.75053 1.38475 0
M  V30 5041 H 453.305 3.50017 2.393 0
M  V30 5042 C 451.764 2.04184 2.67975 0
M  V30 5043 O 452.294 1.59792 3.6855 0
M  V30 5044 N 450.5 1.70526 2.35307 0
M  V30 5045 H 450.047 2.06821 1.53567 0
M  V30 5046 H 450.005 1.07839 2.95327 0
M  V30 5047 N 453.777 0.010035 1.57597 0
M  V30 5048 C 455.002 -0.687021 1.95691 0
M  V30 5049 C 455.427 -1.65952 0.885519 0
M  V30 5050 O 454.785 -1.80633 -0.15543 0
M  V30 5051 C 454.833 -1.3864 3.32884 0
M  V30 5052 O 453.937 -2.50115 3.27897 0
M  V30 5053 H 453.278 -0.181989 0.638573 0
M  V30 5054 H 455.808 0.0662122 2.04493 0
M  V30 5055 H 455.818 -1.74754 3.6868 0
M  V30 5056 H 454.493 -0.673411 4.10412 0
M  V30 5057 H 453.07 -2.16253 3.03791 0
M  V30 5058 N 455.255 -1.55392 -0.262866 0
M  V30 5059 C 456.495 -1.78231 -1.00064 0
M  V30 5060 C 456.859 -0.576966 -1.83126 0
M  V30 5061 O 458.06 -0.683809 -2.59957 0
M  V30 5062 C 456.331 -3.05701 -1.85153 0
M  V30 5063 S 457.89 -3.49699 -2.65058 0
M  V30 5064 H 454.708 -0.626138 -0.336856 0
M  V30 5065 H 457.31 -1.93626 -0.27005 0
M  V30 5066 H 456.014 -3.91511 -1.23074 0
M  V30 5067 H 455.545 -2.93 -2.62515 0
M  V30 5068 H 457.56 -3.09772 -3.87629 0
M  V30 5069 N 456.733 0.527833 -1.48498 0
M  V30 5070 C 458.144 1.10975 -1.50138 0
M  V30 5071 C 458.495 1.943 -0.272378 0
M  V30 5072 O 457.62 2.07319 0.620301 0
M  V30 5073 C 458.215 2.01927 -2.72049 0
M  V30 5074 C 456.774 2.55332 -2.76554 0
M  V30 5075 C 455.921 1.32341 -2.43683 0
M  V30 5076 H 458.872 0.312986 -1.55583 0
M  V30 5077 H 458.893 2.86244 -2.50689 0
M  V30 5078 H 458.405 1.41254 -3.61481 0
M  V30 5079 H 456.506 3.19721 -1.91336 0
M  V30 5080 H 456.619 2.94319 -3.78038 0
M  V30 5081 H 454.983 1.63989 -1.94884 0
M  V30 5082 H 455.766 0.734165 -3.35358 0
M  V30 5083 N 458.211 1.37122 0.776871 0
M  V30 5084 C 459.141 1.35164 1.90402 0
M  V30 5085 C 460.122 0.221069 1.68657 0
M  V30 5086 O 461.307 0.420642 1.8959 0
M  V30 5087 C 458.437 1.15274 3.27611 0
M  V30 5088 C 457.391 2.25289 3.63908 0
M  V30 5089 C 456.717 1.90527 4.99603 0
M  V30 5090 C 458.017 3.67446 3.71188 0
M  V30 5091 H 459.711 2.29482 1.92297 0
M  V30 5092 H 457.257 1.10465 0.923773 0
M  V30 5093 H 459.21 1.12536 4.06096 0
M  V30 5094 H 457.934 0.174102 3.26136 0
M  V30 5095 H 456.593 2.27174 2.87728 0
M  V30 5096 H 456.241 0.91206 4.94662 0
M  V30 5097 H 455.941 2.64193 5.24858 0
M  V30 5098 H 457.465 1.89367 5.80493 0
M  V30 5099 H 458.879 3.67719 4.39836 0
M  V30 5100 H 457.276 4.40123 4.07936 0
M  V30 5101 H 458.346 4.01443 2.71977 0
M  V30 5102 N 459.689 -1.00246 1.21608 0
M  V30 5103 C 460.936 -1.74061 1.03485 0
M  V30 5104 C 461.264 -1.89658 -0.431308 0
M  V30 5105 O 460.519 -1.42976 -1.33627 0
M  V30 5106 C 460.818 -3.15448 1.68009 0
M  V30 5107 C 460.484 -3.19792 3.17874 0
M  V30 5108 C 459.146 -3.20685 3.58768 0
M  V30 5109 C 461.498 -3.16835 4.13842 0
M  V30 5110 C 458.826 -3.16309 4.94131 0
M  V30 5111 C 461.178 -3.14001 5.49169 0
M  V30 5112 C 459.842 -3.13204 5.89457 0
M  V30 5113 H 459.112 -0.636934 0.378677 0
M  V30 5114 H 461.759 -1.17473 1.51236 0
M  V30 5115 H 460.064 -3.75284 1.12557 0
M  V30 5116 H 461.761 -3.71285 1.51487 0
M  V30 5117 H 458.351 -3.19842 2.85305 0
M  V30 5118 H 462.535 -3.15303 3.83272 0
M  V30 5119 H 457.791 -3.14032 5.24589 0
M  V30 5120 H 461.965 -3.10667 6.23265 0
M  V30 5121 H 459.592 -3.09568 6.94314 0
M  V30 5122 N 461.167 -1.02423 -1.1978 0
M  V30 5123 C 462.117 -0.571689 -2.20716 0
M  V30 5124 C 463.101 0.377077 -1.56419 0
M  V30 5125 O 464.293 0.198801 -1.7588 0
M  V30 5126 C 461.422 0.0808555 -3.43205 0
M  V30 5127 C 460.508 -0.890073 -4.14655 0
M  V30 5128 N 460.899 -2.05065 -4.62366 0
M  V30 5129 C 459.197 -0.71252 -4.40272 0
M  V30 5130 C 459.898 -2.66264 -5.17183 0
M  V30 5131 N 458.874 -1.94264 -5.07703 0
M  V30 5132 H 462.676 -1.45636 -2.55279 0
M  V30 5133 H 460.19 -0.890596 -1.35802 0
M  V30 5134 H 462.187 0.422654 -4.14752 0
M  V30 5135 H 460.847 0.961274 -3.10144 0
M  V30 5136 H 461.858 -2.43026 -4.57339 0
M  V30 5137 H 458.535 0.119199 -4.1733 0
M  V30 5138 H 459.925 -3.64526 -5.64421 0
M  V30 5139 N 462.645 1.35699 -0.801477 0
M  V30 5140 C 463.575 2.32436 -0.222658 0
M  V30 5141 C 464.556 1.5723 0.649057 0
M  V30 5142 O 465.741 1.85324 0.580387 0
M  V30 5143 C 462.871 3.41469 0.633719 0
M  V30 5144 C 461.825 4.27774 -0.139083 0
M  V30 5145 C 461.151 5.28082 0.838666 0
M  V30 5146 C 462.451 5.04946 -1.33517 0
M  V30 5147 H 464.145 2.81094 -1.03086 0
M  V30 5148 H 461.691 1.35146 -0.497155 0
M  V30 5149 H 463.644 4.08143 1.04868 0
M  V30 5150 H 462.368 2.91408 1.47475 0
M  V30 5151 H 461.027 3.62673 -0.535156 0
M  V30 5152 H 460.675 4.7429 1.67506 0
M  V30 5153 H 460.375 5.86695 0.32594 0
M  V30 5154 H 461.899 5.97628 1.25194 0
M  V30 5155 H 463.313 5.64593 -0.995349 0
M  V30 5156 H 461.71 5.7303 -1.78202 0
M  V30 5157 H 462.78 4.35886 -2.12442 0
M  V30 5158 N 464.123 0.554532 1.47522 0
M  V30 5159 C 465.534 0.120446 1.86311 0
M  V30 5160 C 465.885 -1.30904 1.46145 0
M  V30 5161 O 465.01 -1.98434 0.863294 0
M  V30 5162 C 465.605 0.211808 3.38137 0
M  V30 5163 C 464.164 -0.167224 3.76028 0
M  V30 5164 C 463.311 0.560576 2.71575 0
M  V30 5165 H 466.262 0.764408 1.39077 0
M  V30 5166 H 466.283 -0.570275 3.76202 0
M  V30 5167 H 465.795 1.25232 3.6734 0
M  V30 5168 H 463.896 -1.20894 3.52442 0
M  V30 5169 H 464.009 0.189473 4.78725 0
M  V30 5170 H 462.373 0.00396836 2.547 0
M  V30 5171 H 463.156 1.60219 3.0362 0
M  V30 5172 N 465.601 -1.54893 0.290851 0
M  V30 5173 C 466.847 -2.0023 -0.321867 0
M  V30 5174 C 467.18 -1.179 -1.54316 0
M  V30 5175 O 466.455 -0.25293 -1.92848 0
M  V30 5176 C 466.738 -3.53456 -0.688515 0
M  V30 5177 C 466.591 -4.46532 0.541209 0
M  V30 5178 C 467.91 -4.13057 -1.51895 0
M  V30 5179 H 465.029 -0.727891 -0.115515 0
M  V30 5180 H 467.671 -1.85722 0.400931 0
M  V30 5181 H 465.821 -3.6595 -1.30433 0
M  V30 5182 H 467.493 -4.4596 1.17973 0
M  V30 5183 H 465.736 -4.17545 1.17636 0
M  V30 5184 H 466.407 -5.51475 0.240675 0
M  V30 5185 H 468.883 -4.03937 -0.99872 0
M  V30 5186 H 467.759 -5.20448 -1.74429 0
M  V30 5187 H 468.02 -3.64284 -2.50498 0
M  V30 5188 N 467.08 -0.0183926 -1.57589 0
M  V30 5189 C 468.308 0.673046 -1.95647 0
M  V30 5190 C 468.723 1.66275 -0.894312 0
M  V30 5191 O 468.08 1.82072 0.124975 0
M  V30 5192 C 468.131 1.38884 -3.33756 0
M  V30 5193 O 467.852 0.438806 -4.35897 0
M  V30 5194 C 469.353 2.1731 -3.86383 0
M  V30 5195 H 466.573 0.186292 -0.644621 0
M  V30 5196 H 469.117 -0.0749748 -2.04363 0
M  V30 5197 H 467.272 2.08835 -3.26293 0
M  V30 5198 H 467.686 0.945869 -5.15901 0
M  V30 5199 H 469.16 2.62863 -4.85394 0
M  V30 5200 H 469.637 3.00764 -3.20059 0
M  V30 5201 H 470.243 1.52339 -3.97081 0
M  V30 5202 N 468.558 1.5553 0.254621 0
M  V30 5203 C 469.488 1.9268 1.31897 0
M  V30 5204 C 470.469 0.790797 1.506 0
M  V30 5205 O 471.654 1.05045 1.63337 0
M  V30 5206 C 468.784 2.21477 2.67517 0
M  V30 5207 C 467.738 3.37256 2.63519 0
M  V30 5208 C 467.064 3.51576 4.02862 0
M  V30 5209 C 468.364 4.73157 2.21179 0
M  V30 5210 H 470.058 2.81832 1.01051 0
M  V30 5211 H 467.604 1.35599 0.484662 0
M  V30 5212 H 469.557 2.46055 3.42104 0
M  V30 5213 H 468.281 1.29144 2.99982 0
M  V30 5214 H 466.94 3.12675 1.9139 0
M  V30 5215 H 466.588 2.56676 4.32581 0
M  V30 5216 H 466.288 4.2943 4.01078 0
M  V30 5217 H 467.812 3.78467 4.79161 0
M  V30 5218 H 469.226 4.97158 2.85494 0
M  V30 5219 H 467.623 5.54058 2.30521 0
M  V30 5220 H 468.693 4.70739 1.16332 0
M  V30 5221 N 470.036 -0.519951 1.48776 0
M  V30 5222 C 470.946 -1.65025 1.66745 0
M  V30 5223 C 471.962 -1.6508 0.549954 0
M  V30 5224 O 473.138 -1.83848 0.822295 0
M  V30 5225 C 470.203 -3.0146 1.71238 0
M  V30 5226 C 469.264 -3.12182 2.94688 0
M  V30 5227 C 468.497 -4.42109 2.98958 0
M  V30 5228 O 468.72 -5.29799 2.1135 0
M  V30 5229 O 467.654 -4.57406 3.91233 0
M  V30 5230 H 471.48 -1.52801 2.62461 0
M  V30 5231 H 469.065 -0.694157 1.32294 0
M  V30 5232 H 470.947 -3.82584 1.76657 0
M  V30 5233 H 469.622 -3.13988 0.786975 0
M  V30 5234 H 468.529 -2.30316 2.94797 0
M  V30 5235 H 469.862 -3.04574 3.86646 0
M  V30 5236 N 471.514 -1.37532 -0.769588 0
M  V30 5237 C 472.444 -1.36172 -1.89682 0
M  V30 5238 C 473.425 -0.23001 -1.68538 0
M  V30 5239 O 474.61 -0.43069 -1.89364 0
M  V30 5240 C 471.74 -1.1701 -3.26995 0
M  V30 5241 C 470.694 -2.27216 -3.62708 0
M  V30 5242 C 470.02 -1.93174 -4.98586 0
M  V30 5243 C 471.32 -3.6941 -3.69234 0
M  V30 5244 H 473.014 -2.30499 -1.91078 0
M  V30 5245 H 470.56 -1.10953 -0.917902 0
M  V30 5246 H 472.513 -1.14688 -4.05493 0
M  V30 5247 H 471.237 -0.191395 -3.26039 0
M  V30 5248 H 469.896 -2.28697 -2.86519 0
M  V30 5249 H 469.544 -0.938281 -4.94171 0
M  V30 5250 H 469.244 -2.66973 -5.23449 0
M  V30 5251 H 470.768 -1.92443 -5.79481 0
M  V30 5252 H 472.182 -3.70047 -4.37879 0
M  V30 5253 H 470.579 -4.4228 -4.05597 0
M  V30 5254 H 471.649 -4.0288 -2.69844 0
M  V30 5255 N 472.992 0.995999 -1.22138 0
M  V30 5256 C 473.902 2.11985 -1.00496 0
M  V30 5257 C 474.918 1.7394 0.0457701 0
M  V30 5258 O 476.094 2.00868 -0.146273 0
M  V30 5259 C 473.159 3.41779 -0.582086 0
M  V30 5260 C 472.22 3.93943 -1.70608 0
M  V30 5261 C 471.453 5.17542 -1.30328 0
M  V30 5262 O 471.676 5.70114 -0.180743 0
M  V30 5263 O 470.61 5.63382 -2.11861 0
M  V30 5264 H 474.436 2.33123 -1.94647 0
M  V30 5265 H 472.021 1.10358 -1.00705 0
M  V30 5266 H 473.903 4.1989 -0.356467 0
M  V30 5267 H 472.578 3.22007 0.330592 0
M  V30 5268 H 471.485 3.17019 -1.98619 0
M  V30 5269 H 472.818 4.18141 -2.59651 0
M  V30 5270 N 474.47 1.03057 1.19235 0
M  V30 5271 C 475.418 0.606391 2.24557 0
M  V30 5272 C 476.412 -0.361826 1.65491 0
M  V30 5273 O 477.618 -0.23022 1.78522 0
M  V30 5274 H 473.993 0.177838 0.730669 0
M  V30 5275 H 475.964 1.50529 2.5765 0
M  V30 5276 C 474.713 -0.0252127 3.47691 0
M  V30 5277 H 474.036 0.710838 3.9343 0
M  V30 5278 H 475.476 -0.284931 4.23042 0
M  V30 5279 C 473.935 -1.27229 3.11953 0
M  V30 5280 O 474.465 -2.36416 3.24762 0
M  V30 5281 N 472.671 -1.16169 2.6637 0
M  V30 5282 H 472.218 -0.273189 2.56147 0
M  V30 5283 H 472.176 -1.99703 2.42829 0
M  V30 5284 N 475.948 -1.35272 0.808662 0
M  V30 5285 C 476.896 -2.31663 0.208606 0
M  V30 5286 C 477.89 -1.56731 -0.642778 0
M  V30 5287 O 479.096 -1.71843 -0.53571 0
M  V30 5288 H 475.471 -0.750421 0.0486993 0
M  V30 5289 H 477.442 -2.79814 1.03666 0
M  V30 5290 C 476.191 -3.42008 -0.626573 0
M  V30 5291 H 475.514 -3.99795 0.0192103 0
M  V30 5292 H 476.954 -4.11727 -1.01278 0
M  V30 5293 C 475.413 -2.85226 -1.79298 0
M  V30 5294 O 475.943 -2.78945 -2.89055 0
M  V30 5295 N 474.149 -2.42245 -1.60516 0
M  V30 5296 H 473.696 -2.47554 -0.712375 0
M  V30 5297 H 473.654 -2.04603 -2.38715 0
M  V30 5298 N 477.426 -0.562348 -1.47226 0
M  V30 5299 C 478.356 0.170627 -2.32876 0
M  V30 5300 C 479.337 0.903748 -1.44106 0
M  V30 5301 O 480.522 0.883206 -1.72954 0
M  V30 5302 C 477.652 1.19786 -3.25989 0
M  V30 5303 C 476.606 0.580875 -4.2404 0
M  V30 5304 C 475.932 1.71311 -5.06514 0
M  V30 5305 C 477.232 -0.468714 -5.20193 0
M  V30 5306 H 478.926 -0.544441 -2.94408 0
M  V30 5307 H 476.472 -0.263271 -1.41573 0
M  V30 5308 H 478.425 1.71884 -3.84752 0
M  V30 5309 H 477.149 1.94294 -2.62521 0
M  V30 5310 H 475.808 0.0811538 -3.6651 0
M  V30 5311 H 475.456 2.44736 -4.39447 0
M  V30 5312 H 475.156 1.30604 -5.72902 0
M  V30 5313 H 476.68 2.23725 -5.68137 0
M  V30 5314 H 478.094 -0.0336028 -5.7329 0
M  V30 5315 H 476.491 -0.794957 -5.94811 0
M  V30 5316 H 477.561 -1.36269 -4.65359 0
M  V30 5317 N 478.904 1.54736 -0.299062 0
M  V30 5318 C 480.315 1.8569 0.193971 0
M  V30 5319 C 480.666 1.22101 1.53577 0
M  V30 5320 O 479.791 0.51799 2.10109 0
M  V30 5321 C 480.386 3.36895 0.358733 0
M  V30 5322 C 478.945 3.67887 0.795986 0
M  V30 5323 C 478.092 2.77131 -0.096807 0
M  V30 5324 H 481.043 1.49934 -0.520134 0
M  V30 5325 H 481.064 3.61294 1.19361 0
M  V30 5326 H 480.576 3.83148 -0.617998 0
M  V30 5327 H 478.677 3.27151 1.78334 0
M  V30 5328 H 478.79 4.75114 0.616718 0
M  V30 5329 H 477.154 2.51153 0.423581 0
M  V30 5330 H 477.937 3.26204 -1.06986 0
M  V30 5331 N 480.382 0.0267497 1.57577 0
M  V30 5332 C 481.63 -0.651116 1.91324 0
M  V30 5333 C 481.951 -1.72804 0.90353 0
M  V30 5334 O 481.221 -1.95822 -0.0552946 0
M  V30 5335 H 479.801 -0.243491 0.706202 0
M  V30 5336 H 482.463 0.0739935 1.94759 0
M  V30 5337 H 481.559 -1.10536 2.9187 0
M  V30 5338 N 481.861 -1.55662 -0.24637 0
M  V30 5339 C 483.109 -1.77168 -0.972411 0
M  V30 5340 C 483.43 -0.590827 -1.85834 0
M  V30 5341 O 482.7 0.393365 -1.9191 0
M  V30 5342 H 481.28 -0.653405 -0.362038 0
M  V30 5343 H 483.942 -1.93101 -0.264189 0
M  V30 5344 H 483.038 -2.68335 -1.59382 0
M  V30 5345 N 483.339 0.512053 -1.4905 0
M  V30 5346 C 484.269 1.62365 -1.67809 0
M  V30 5347 C 485.25 1.61737 -0.526809 0
M  V30 5348 O 486.435 1.78651 -0.761404 0
M  V30 5349 C 483.565 3.00895 -1.73435 0
M  V30 5350 C 482.519 3.16387 -2.88242 0
M  V30 5351 C 481.845 4.56157 -2.78971 0
M  V30 5352 C 483.145 2.97457 -4.29321 0
M  V30 5353 H 484.839 1.46921 -2.60873 0
M  V30 5354 H 482.385 0.705379 -1.2554 0
M  V30 5355 H 484.338 3.78549 -1.85145 0
M  V30 5356 H 483.062 3.17403 -0.769619 0
M  V30 5357 H 481.721 2.41155 -2.76116 0
M  V30 5358 H 481.369 4.69525 -1.8043 0
M  V30 5359 H 481.069 4.67465 -3.5602 0
M  V30 5360 H 482.593 5.35886 -2.92675 0
M  V30 5361 H 484.007 3.64888 -4.42187 0
M  V30 5362 H 482.404 3.20245 -5.07507 0
M  V30 5363 H 483.474 1.93692 -4.44535 0
M  V30 5364 N 484.817 1.37938 0.762283 0
M  V30 5365 C 485.764 1.34467 1.87583 0
M  V30 5366 C 486.734 0.208633 1.64785 0
M  V30 5367 O 487.919 0.399494 1.86571 0
M  V30 5368 C 485.059 1.16692 3.24772 0
M  V30 5369 C 484.172 2.39608 3.59461 0
M  V30 5370 C 483.307 2.14631 4.85908 0
M  V30 5371 C 482.346 3.33364 5.13357 0
M  V30 5372 N 481.483 3.07877 6.30996 0
M  V30 5373 H 486.323 2.29669 1.89885 0
M  V30 5374 H 483.86 1.14116 0.928219 0
M  V30 5375 H 485.818 1.04405 4.03925 0
M  V30 5376 H 484.448 0.251333 3.2182 0
M  V30 5377 H 483.5 2.626 2.75219 0
M  V30 5378 H 484.812 3.28128 3.75678 0
M  V30 5379 H 483.966 1.99429 5.72986 0
M  V30 5380 H 482.705 1.23463 4.71814 0
M  V30 5381 H 481.71 3.49094 4.24751 0
M  V30 5382 H 482.935 4.25395 5.29354 0
M  V30 5383 H 480.881 2.19348 6.18241 0
M  V30 5384 H 480.798 3.89944 6.47673 0
M  V30 5385 H 482.066 2.96313 7.20985 0
M  V30 5386 N 486.295 -0.989507 1.22664 0
M  V30 5387 C 487.205 -2.11449 1.01619 0
M  V30 5388 C 488.221 -1.73962 -0.036545 0
M  V30 5389 O 489.397 -2.00788 0.156924 0
M  V30 5390 C 486.462 -3.41465 0.600204 0
M  V30 5391 C 485.523 -3.93033 1.72695 0
M  V30 5392 C 484.756 -5.16844 1.33071 0
M  V30 5393 O 484.979 -5.7001 0.210975 0
M  V30 5394 O 483.913 -5.6225 2.14845 0
M  V30 5395 H 487.739 -2.32088 1.9588 0
M  V30 5396 H 485.324 -1.09823 1.01289 0
M  V30 5397 H 487.206 -4.19695 0.37873 0
M  V30 5398 H 485.881 -3.22178 -0.313511 0
M  V30 5399 H 484.788 -3.15961 2.00298 0
M  V30 5400 H 486.121 -4.16758 2.61865 0
M  V30 5401 N 487.773 -1.03688 -1.18687 0
M  V30 5402 C 488.72 -0.624624 -2.22187 0
M  V30 5403 C 489.69 0.365636 -1.62026 0
M  V30 5404 O 490.875 0.260481 -1.89014 0
M  V30 5405 C 488.015 0.0101738 -3.45099 0
M  V30 5406 C 487.128 -1.02709 -4.19613 0
M  V30 5407 C 486.263 -0.361213 -5.2997 0
M  V30 5408 C 485.302 -1.38384 -5.96252 0
M  V30 5409 N 484.439 -0.743196 -6.98155 0
M  V30 5410 H 489.279 -1.51176 -2.56807 0
M  V30 5411 H 486.816 -0.75636 -1.26165 0
M  V30 5412 H 488.774 0.395528 -4.15321 0
M  V30 5413 H 487.404 0.860848 -3.1111 0
M  V30 5414 H 486.456 -1.53043 -3.48256 0
M  V30 5415 H 487.768 -1.80398 -4.65036 0
M  V30 5416 H 486.922 0.0785537 -6.06649 0
M  V30 5417 H 485.661 0.447799 -4.8564 0
M  V30 5418 H 484.666 -1.83378 -5.18317 0
M  V30 5419 H 485.891 -2.19448 -6.42666 0
M  V30 5420 H 483.837 0.0455789 -6.55984 0
M  V30 5421 H 483.754 -1.45784 -7.41811 0
M  V30 5422 H 485.022 -0.327698 -7.78811 0
M  V30 5423 N 489.251 1.34841 -0.815825 0
M  V30 5424 C 490.181 2.32187 -0.247298 0
M  V30 5425 C 491.162 1.5791 0.632344 0
M  V30 5426 O 492.347 1.8593 0.560698 0
M  V30 5427 C 489.477 3.42122 0.597466 0
M  V30 5428 C 488.431 4.27602 -0.184446 0
M  V30 5429 C 487.757 5.28942 0.782609 0
M  V30 5430 C 489.057 5.03502 -1.38865 0
M  V30 5431 H 490.751 2.79985 -1.06061 0
M  V30 5432 H 488.297 1.34611 -0.511461 0
M  V30 5433 H 490.25 4.09232 1.00533 0
M  V30 5434 H 488.974 2.92956 1.44376 0
M  V30 5435 H 487.633 3.62085 -0.573592 0
M  V30 5436 H 487.281 4.7604 1.62466 0
M  V30 5437 H 486.981 5.87008 0.263695 0
M  V30 5438 H 488.505 5.98922 1.18848 0
M  V30 5439 H 489.919 5.63506 -1.05518 0
M  V30 5440 H 488.316 5.71108 -1.8427 0
M  V30 5441 H 489.386 4.33608 -2.17054 0
M  V30 5442 N 490.729 0.570148 1.46925 0
M  V30 5443 C 491.692 -0.159933 2.28641 0
M  V30 5444 C 492.692 -0.830638 1.37685 0
M  V30 5445 O 493.882 -0.684516 1.60187 0
M  V30 5446 C 491.014 -1.2354 3.17727 0
M  V30 5447 H 492.207 0.558035 2.94662 0
M  V30 5448 H 489.76 0.327603 1.52828 0
M  V30 5449 H 490.495 -1.98535 2.56426 0
M  V30 5450 H 490.28 -0.759125 3.84681 0
M  V30 5451 H 491.77 -1.74782 3.79264 0
M  V30 5452 N 492.207 -1.54576 0.307264 0
M  V30 5453 C 493.454 -2.00263 -0.300167 0
M  V30 5454 C 493.782 -1.19561 -1.53413 0
M  V30 5455 O 493.037 -0.261487 -1.93945 0
M  V30 5456 C 493.336 -3.50572 -0.695253 0
M  V30 5457 C 493.002 -4.48771 0.437679 0
M  V30 5458 C 491.664 -4.7534 0.748681 0
M  V30 5459 C 494.016 -5.0721 1.19949 0
M  V30 5460 C 491.344 -5.5761 1.8245 0
M  V30 5461 C 493.696 -5.90651 2.26527 0
M  V30 5462 C 492.36 -6.15528 2.58227 0
M  V30 5463 H 491.63 -0.732814 -0.109839 0
M  V30 5464 H 494.277 -1.86664 0.427661 0
M  V30 5465 H 492.582 -3.61814 -1.50326 0
M  V30 5466 H 494.279 -3.83352 -1.17653 0
M  V30 5467 H 490.869 -4.282 0.185187 0
M  V30 5468 H 495.053 -4.86679 0.972474 0
M  V30 5469 H 490.309 -5.75121 2.07476 0
M  V30 5470 H 494.483 -6.34957 2.86011 0
M  V30 5471 H 492.11 -6.79066 3.4172 0
M  V30 5472 N 493.685 -0.035106 -1.57561 0
M  V30 5473 C 494.648 0.929819 -2.09492 0
M  V30 5474 C 495.648 1.25026 -1.01119 0
M  V30 5475 O 496.838 1.18961 -1.27255 0
M  V30 5476 C 493.97 2.24457 -2.56577 0
M  V30 5477 H 495.163 0.479935 -2.96035 0
M  V30 5478 H 492.716 0.213033 -1.54841 0
M  V30 5479 H 493.451 2.74061 -1.73382 0
M  V30 5480 H 493.236 2.02508 -3.35757 0
M  V30 5481 H 494.726 2.93607 -2.96959 0
M  V30 5482 N 495.163 1.55791 0.238111 0
M  V30 5483 C 496.11 1.9105 1.29493 0
M  V30 5484 C 497.08 0.765733 1.47397 0
M  V30 5485 O 498.265 1.02017 1.61236 0
M  V30 5486 C 495.405 2.21826 2.64362 0
M  V30 5487 C 494.518 3.49153 2.54394 0
M  V30 5488 C 493.653 3.69455 3.81676 0
M  V30 5489 C 492.692 4.90353 3.66361 0
M  V30 5490 N 491.829 5.07131 4.85554 0
M  V30 5491 H 496.669 2.81172 0.987233 0
M  V30 5492 H 494.206 1.39179 0.476203 0
M  V30 5493 H 496.164 2.37675 3.4288 0
M  V30 5494 H 494.794 1.34897 2.93262 0
M  V30 5495 H 493.846 3.41587 1.67399 0
M  V30 5496 H 495.158 4.37818 2.38991 0
M  V30 5497 H 494.312 3.85311 4.68636 0
M  V30 5498 H 493.051 2.7904 3.99985 0
M  V30 5499 H 492.056 4.74464 2.77784 0
M  V30 5500 H 493.281 5.82237 3.49538 0
M  V30 5501 H 491.227 4.19654 5.04209 0
M  V30 5502 H 491.144 5.89899 4.72816 0
M  V30 5503 H 492.412 5.27407 5.73988 0
M  V30 5504 N 496.642 -0.504142 1.49319 0
M  V30 5505 C 497.552 -1.63248 1.68486 0
M  V30 5506 C 498.568 -1.64488 0.567432 0
M  V30 5507 O 499.744 -1.82966 0.841749 0
M  V30 5508 C 496.809 -2.99627 1.74426 0
M  V30 5509 C 495.87 -3.09039 2.97982 0
M  V30 5510 C 495.103 -4.38913 3.0363 0
M  V30 5511 O 495.326 -5.27528 2.16958 0
M  V30 5512 O 494.26 -4.53231 3.96062 0
M  V30 5513 H 498.086 -1.50008 2.64067 0
M  V30 5514 H 495.671 -0.680086 1.33023 0
M  V30 5515 H 497.553 -3.80689 1.80705 0
M  V30 5516 H 496.228 -3.13136 0.820233 0
M  V30 5517 H 495.135 -2.27177 2.97223 0
M  V30 5518 H 496.468 -3.00456 3.89855 0
M  V30 5519 N 498.12 -1.38341 -0.754957 0
M  V30 5520 C 499.067 -1.3546 -1.86867 0
M  V30 5521 C 500.037 -0.217369 -1.64672 0
M  V30 5522 O 501.222 -0.409383 -1.86356 0
M  V30 5523 C 498.362 -1.18413 -3.24149 0
M  V30 5524 C 497.475 -2.41511 -3.58185 0
M  V30 5525 C 496.61 -2.17205 -4.84763 0
M  V30 5526 C 495.649 -3.36081 -5.11582 0
M  V30 5527 N 494.786 -3.11219 -6.29354 0
M  V30 5528 H 499.626 -2.30672 -1.88664 0
M  V30 5529 H 497.163 -1.14607 -0.922154 0
M  V30 5530 H 499.121 -1.06545 -4.03366 0
M  V30 5531 H 497.751 -0.268397 -3.21682 0
M  V30 5532 H 496.803 -2.64056 -2.73822 0
M  V30 5533 H 498.115 -3.30115 -3.73932 0
M  V30 5534 H 497.269 -2.02465 -5.7192 0
M  V30 5535 H 496.008 -1.25964 -4.71152 0
M  V30 5536 H 495.013 -3.51341 -4.22894 0
M  V30 5537 H 496.238 -4.28196 -5.27091 0
M  V30 5538 H 494.184 -2.22624 -6.17069 0
M  V30 5539 H 494.101 -3.93373 -6.45596 0
M  V30 5540 H 495.369 -3.00132 -7.19403 0
M  V30 5541 N 499.598 0.982988 -1.23187 0
M  V30 5542 C 500.528 2.09301 -1.03515 0
M  V30 5543 C 501.509 1.70035 0.0471136 0
M  V30 5544 O 502.694 1.93847 -0.117029 0
M  V30 5545 C 499.824 3.4167 -0.622791 0
M  V30 5546 C 498.778 3.94828 -1.65211 0
M  V30 5547 C 498.104 5.23362 -1.09527 0
M  V30 5548 C 499.404 4.2439 -3.04451 0
M  V30 5549 H 501.098 2.26016 -1.96359 0
M  V30 5550 H 498.644 1.08611 -0.945501 0
M  V30 5551 H 500.597 4.18746 -0.472233 0
M  V30 5552 H 499.321 3.24811 0.341329 0
M  V30 5553 H 497.98 3.19895 -1.79061 0
M  V30 5554 H 497.628 5.02852 -0.122211 0
M  V30 5555 H 497.328 5.59895 -1.783 0
M  V30 5556 H 498.852 6.03062 -0.956511 0
M  V30 5557 H 500.266 4.92225 -2.93917 0
M  V30 5558 H 498.663 4.72118 -3.70438 0
M  V30 5559 H 499.733 3.31765 -3.53638 0
M  V30 5560 N 501.076 1.04316 1.18135 0
M  V30 5561 C 501.986 0.646876 2.25505 0
M  V30 5562 C 503.002 -0.328008 1.7088 0
M  V30 5563 O 504.178 -0.182309 2.00573 0
M  V30 5564 C 501.243 0.0185664 3.46695 0
M  V30 5565 C 500.304 1.04277 4.16443 0
M  V30 5566 C 499.537 0.444352 5.31847 0
M  V30 5567 O 499.76 -0.748735 5.65465 0
M  V30 5568 O 498.694 1.17428 5.90334 0
M  V30 5569 H 502.52 1.54147 2.61672 0
M  V30 5570 H 500.105 0.814188 1.25265 0
M  V30 5571 H 501.987 -0.331068 4.20097 0
M  V30 5572 H 500.662 -0.849814 3.12346 0
M  V30 5573 H 499.569 1.44425 3.45098 0
M  V30 5574 H 500.902 1.882 4.54798 0
M  V30 5575 N 502.554 -1.34406 0.822964 0
M  V30 5576 C 503.464 -2.33298 0.246838 0
M  V30 5577 C 504.48 -1.62625 -0.618797 0
M  V30 5578 O 505.656 -1.94391 -0.526685 0
M  V30 5579 C 502.721 -3.41785 -0.581731 0
M  V30 5580 C 501.782 -4.28206 0.306309 0
M  V30 5581 C 501.015 -5.31512 -0.48281 0
M  V30 5582 O 501.238 -5.43973 -1.71607 0
M  V30 5583 O 500.172 -6.01749 0.134884 0
M  V30 5584 H 503.998 -2.84401 1.06534 0
M  V30 5585 H 501.583 -1.37466 0.585108 0
M  V30 5586 H 503.465 -4.08028 -1.05313 0
M  V30 5587 H 502.14 -2.92925 -1.37756 0
M  V30 5588 H 501.047 -3.64885 0.825199 0
M  V30 5589 H 502.38 -4.80507 1.06649 0
M  V30 5590 N 504.032 -0.577932 -1.46621 0
M  V30 5591 C 504.962 0.145917 -2.33044 0
M  V30 5592 C 505.943 0.888412 -1.45056 0
M  V30 5593 O 507.128 0.864812 -1.73881 0
M  V30 5594 C 504.258 1.16322 -3.27241 0
M  V30 5595 C 503.212 0.535868 -4.24632 0
M  V30 5596 C 502.538 1.65929 -5.08303 0
M  V30 5597 C 503.838 -0.523861 -5.19666 0
M  V30 5598 H 505.532 -0.575636 -2.93814 0
M  V30 5599 H 503.078 -0.278272 -1.41286 0
M  V30 5600 H 505.031 1.67793 -3.86553 0
M  V30 5601 H 503.755 1.91498 -2.64567 0
M  V30 5602 H 502.414 0.0422759 -3.66576 0
M  V30 5603 H 502.062 2.40061 -4.42018 0
M  V30 5604 H 501.762 1.2452 -5.74255 0
M  V30 5605 H 503.286 2.17686 -5.70478 0
M  V30 5606 H 504.7 -0.0944059 -5.73222 0
M  V30 5607 H 503.097 -0.858 -5.93935 0
M  V30 5608 H 504.167 -1.41197 -4.63887 0
M  V30 5609 N 505.51 1.54411 -0.315457 0
M  V30 5610 C 506.457 2.24048 0.554166 0
M  V30 5611 C 507.427 1.2283 1.11812 0
M  V30 5612 O 508.612 1.51491 1.15997 0
M  V30 5613 C 505.752 2.99574 1.71316 0
M  V30 5614 C 504.865 4.15594 1.17922 0
M  V30 5615 C 504 4.78669 2.30324 0
M  V30 5616 C 503.039 5.86807 1.74137 0
M  V30 5617 N 502.176 6.43777 2.8017 0
M  V30 5618 H 507.016 2.97964 -0.0462602 0
M  V30 5619 H 504.553 1.47059 -0.0346009 0
M  V30 5620 H 506.511 3.41604 2.39505 0
M  V30 5621 H 505.141 2.28008 2.285 0
M  V30 5622 H 504.193 3.78404 0.389136 0
M  V30 5623 H 505.505 4.93459 0.728012 0
M  V30 5624 H 504.659 5.23626 3.06433 0
M  V30 5625 H 503.398 4.00168 2.78778 0
M  V30 5626 H 502.403 5.41261 0.965236 0
M  V30 5627 H 503.628 6.67201 1.2657 0
M  V30 5628 H 501.574 5.68153 3.2793 0
M  V30 5629 H 501.491 7.17031 2.39588 0
M  V30 5630 H 502.759 6.9339 3.56132 0
M  V30 5631 N 506.988 0.0434614 1.5754 0
M  V30 5632 C 507.921 -0.968729 2.06618 0
M  V30 5633 C 508.899 -1.30868 0.965 0
M  V30 5634 O 510.083 -1.42288 1.23638 0
M  V30 5635 C 507.21 -2.28486 2.50023 0
M  V30 5636 C 506.256 -2.09851 3.71302 0
M  V30 5637 S 507.089 -1.38401 5.17306 0
M  V30 5638 C 508.245 -2.71354 5.64019 0
M  V30 5639 H 508.478 -0.551021 2.92149 0
M  V30 5640 H 506.011 -0.168607 1.53477 0
M  V30 5641 H 507.969 -3.04142 2.75695 0
M  V30 5642 H 506.63 -2.67387 1.64812 0
M  V30 5643 H 505.823 -3.07184 3.99567 0
M  V30 5644 H 505.425 -1.42336 3.45856 0
M  V30 5645 H 507.717 -3.67549 5.69134 0
M  V30 5646 H 508.66 -2.47734 6.6335 0
M  V30 5647 H 509.068 -2.77259 4.91719 0
M  V30 5648 N 508.466 -1.55915 -0.229846 0
M  V30 5649 C 509.396 -1.94754 -1.28815 0
M  V30 5650 C 510.377 -0.814657 -1.49323 0
M  V30 5651 O 511.562 -1.07631 -1.61645 0
M  V30 5652 C 508.692 -2.25705 -2.63959 0
M  V30 5653 C 507.646 -3.41406 -2.5812 0
M  V30 5654 C 506.972 -3.57941 -3.97218 0
M  V30 5655 C 508.272 -4.76616 -2.13623 0
M  V30 5656 H 509.966 -2.83404 -0.965547 0
M  V30 5657 H 507.512 -1.36353 -0.463028 0
M  V30 5658 H 509.465 -2.51467 -3.38146 0
M  V30 5659 H 508.189 -1.339 -2.9789 0
M  V30 5660 H 506.848 -3.1568 -1.86391 0
M  V30 5661 H 506.496 -2.63526 -4.28443 0
M  V30 5662 H 506.196 -4.35757 -3.94195 0
M  V30 5663 H 507.72 -3.86042 -4.73079 0
M  V30 5664 H 509.134 -5.01637 -2.77549 0
M  V30 5665 H 507.531 -5.57655 -2.21677 0
M  V30 5666 H 508.601 -4.7253 -1.08829 0
M  V30 5667 N 509.944 0.496216 -1.49584 0
M  V30 5668 C 510.891 1.59722 -1.66606 0
M  V30 5669 C 511.861 1.58158 -0.507477 0
M  V30 5670 O 513.046 1.76072 -0.735076 0
M  V30 5671 C 510.186 2.97844 -1.74308 0
M  V30 5672 C 509.299 3.09388 -3.01502 0
M  V30 5673 C 508.434 4.38271 -3.00153 0
M  V30 5674 C 507.473 4.43466 -4.21906 0
M  V30 5675 N 506.61 5.63784 -4.1844 0
M  V30 5676 H 511.45 1.44515 -2.60613 0
M  V30 5677 H 508.987 0.703048 -1.29212 0
M  V30 5678 H 510.945 3.77907 -1.76754 0
M  V30 5679 H 509.575 3.11743 -0.837619 0
M  V30 5680 H 508.627 2.22357 -3.08645 0
M  V30 5681 H 509.939 3.09085 -3.91494 0
M  V30 5682 H 509.093 5.2666 -3.01188 0
M  V30 5683 H 507.832 4.41146 -2.07947 0
M  V30 5684 H 506.837 3.53478 -4.21109 0
M  V30 5685 H 508.062 4.42303 -5.1531 0
M  V30 5686 H 506.008 5.67491 -3.29074 0
M  V30 5687 H 505.925 5.65118 -5.02173 0
M  V30 5688 H 507.193 6.54367 -4.23585 0
M  V30 5689 N 511.423 1.38739 0.74761 0
M  V30 5690 C 512.7 1.25791 1.49786 0
M  V30 5691 C 513.08 -0.138075 2.10648 0
M  V30 5692 O 512.428 -1.14815 1.9756 0
M  V30 5693 C 512.638 2.37265 2.55942 0
M  V30 5694 C 513.986 2.75978 3.22679 0
M  V30 5695 O 515.01 2.36621 2.6625 0
M  V30 5696 O 513.869 3.43867 4.24756 0
M  V30 5697 H 510.963 0.492251 0.664543 0
M  V30 5698 H 513.509 1.50582 0.782511 0
M  V30 5699 H 512.281 3.30644 2.0926 0
M  V30 5700 H 511.904 2.14071 3.35051 0
M  V30 5701 N 512.901 -0.976442 1.23707 0
M  V30 5702 C 514.148 -1.71827 1.07153 0
M  V30 5703 C 514.476 -1.9053 -0.390982 0
M  V30 5704 O 513.731 -1.45779 -1.30564 0
M  V30 5705 C 514.03 -3.11814 1.74662 0
M  V30 5706 C 513.696 -3.12978 3.24585 0
M  V30 5707 C 512.358 -3.13003 3.6549 0
M  V30 5708 C 514.71 -3.07986 4.20469 0
M  V30 5709 C 512.038 -3.05757 5.00729 0
M  V30 5710 C 514.39 -3.02282 5.55705 0
M  V30 5711 C 513.054 -3.00631 5.95968 0
M  V30 5712 H 512.324 -0.628758 0.392102 0
M  V30 5713 H 514.971 -1.14239 1.53693 0
M  V30 5714 H 513.276 -3.72812 1.20492 0
M  V30 5715 H 514.973 -3.67989 1.59328 0
M  V30 5716 H 511.563 -3.13718 2.92026 0
M  V30 5717 H 515.747 -3.07103 3.89874 0
M  V30 5718 H 511.003 -3.02834 5.31132 0
M  V30 5719 H 515.177 -2.97376 6.29714 0
M  V30 5720 H 512.804 -2.94771 7.00724 0
M  V30 5721 N 514.379 -1.04941 -1.1758 0
M  V30 5722 C 515.309 -0.669172 -2.23706 0
M  V30 5723 C 516.29 0.331835 -1.66832 0
M  V30 5724 O 517.475 0.209988 -1.93061 0
M  V30 5725 C 514.605 -0.0404889 -3.47276 0
M  V30 5726 C 513.559 -0.965983 -4.16957 0
M  V30 5727 C 512.885 -0.201312 -5.34321 0
M  V30 5728 C 514.185 -2.28902 -4.69469 0
M  V30 5729 H 515.879 -1.55639 -2.55767 0
M  V30 5730 H 513.425 -0.749793 -1.22939 0
M  V30 5731 H 515.378 0.237298 -4.20731 0
M  V30 5732 H 514.102 0.881658 -3.14475 0
M  V30 5733 H 512.761 -1.22829 -3.45411 0
M  V30 5734 H 512.409 0.723519 -4.97769 0
M  V30 5735 H 512.109 -0.817968 -5.81879 0
M  V30 5736 H 513.633 0.0692499 -6.10561 0
M  V30 5737 H 515.047 -2.07132 -5.34574 0
M  V30 5738 H 513.444 -2.85942 -5.27596 0
M  V30 5739 H 514.514 -2.92937 -3.86414 0
M  V30 5740 N 515.857 1.33968 -0.830081 0
M  V30 5741 C 516.767 2.33164 -0.259207 0
M  V30 5742 C 517.783 1.62951 0.610164 0
M  V30 5743 O 518.959 1.94668 0.516369 0
M  V30 5744 C 516.024 3.42088 0.563598 0
M  V30 5745 C 515.085 4.28037 -0.329014 0
M  V30 5746 C 514.318 5.3176 0.454616 0
M  V30 5747 O 514.541 5.44876 1.6872 0
M  V30 5748 O 513.475 6.01669 -0.166794 0
M  V30 5749 H 517.301 2.83832 -1.08041 0
M  V30 5750 H 514.886 1.37154 -0.59239 0
M  V30 5751 H 516.768 4.08581 1.03147 0
M  V30 5752 H 515.443 2.93651 1.36201 0
M  V30 5753 H 514.35 3.64443 -0.844538 0
M  V30 5754 H 515.683 4.79934 -1.09196 0
M  V30 5755 N 517.335 0.585699 1.46312 0
M  V30 5756 C 518.583 0.072278 2.01971 0
M  V30 5757 C 518.904 -1.29345 1.45928 0
M  V30 5758 O 518.174 -1.84973 0.645109 0
M  V30 5759 H 516.754 0.023729 0.746623 0
M  V30 5760 H 519.416 0.762155 1.7938 0
M  V30 5761 H 518.512 0.00552767 3.121 0
M  V30 5762 N 518.813 -1.54241 0.323641 0
M  V30 5763 C 519.76 -2.24339 -0.542277 0
M  V30 5764 C 520.73 -1.23421 -1.11159 0
M  V30 5765 O 521.915 -1.52104 -1.15192 0
M  V30 5766 C 519.055 -3.00479 -1.69725 0
M  V30 5767 C 518.168 -4.16214 -1.15716 0
M  V30 5768 C 517.303 -4.79884 -2.27783 0
M  V30 5769 C 516.342 -5.87722 -1.71023 0
M  V30 5770 N 515.479 -6.45254 -2.76752 0
M  V30 5771 H 520.319 -2.97935 0.0620613 0
M  V30 5772 H 517.856 -1.47039 0.0423993 0
M  V30 5773 H 519.814 -3.42869 -2.3769 0
M  V30 5774 H 518.444 -2.29217 -2.27288 0
M  V30 5775 H 517.496 -3.78605 -0.369063 0
M  V30 5776 H 518.808 -4.93838 -0.701832 0
M  V30 5777 H 517.962 -5.25243 -3.03651 0
M  V30 5778 H 516.701 -4.01641 -2.76652 0
M  V30 5779 H 515.706 -5.41765 -0.936518 0
M  V30 5780 H 516.931 -6.67863 -1.2303 0
M  V30 5781 H 514.877 -5.69884 -3.24912 0
M  V30 5782 H 514.794 -7.18292 -2.35782 0
M  V30 5783 H 516.062 -6.95269 -3.5245 0
M  V30 5784 N 520.291 -0.0518155 -1.57515 0
M  V30 5785 C 521.519 0.631395 -1.9703 0
M  V30 5786 C 521.934 1.64341 -0.92938 0
M  V30 5787 O 521.291 1.82296 0.0863266 0
M  V30 5788 C 521.342 1.31774 -3.36627 0
M  V30 5789 O 521.063 0.346247 -4.3673 0
M  V30 5790 C 522.564 2.09065 -3.90905 0
M  V30 5791 H 519.784 0.172576 -0.648428 0
M  V30 5792 H 522.328 -0.118306 -2.04158 0
M  V30 5793 H 520.483 2.01867 -3.30649 0
M  V30 5794 H 520.897 0.836226 -5.17791 0
M  V30 5795 H 522.371 2.52508 -4.9086 0
M  V30 5796 H 522.848 2.93908 -3.26366 0
M  V30 5797 H 523.454 1.43882 -4.00223 0
M  V30 5798 N 521.769 1.56035 0.221574 0
M  V30 5799 C 523.016 1.79047 0.94597 0
M  V30 5800 C 523.344 0.62057 1.84334 0
M  V30 5801 O 522.599 -0.395053 1.91671 0
M  V30 5802 C 522.898 3.07813 1.8162 0
M  V30 5803 C 522.564 4.3797 1.07206 0
M  V30 5804 C 521.226 4.73334 0.866508 0
M  V30 5805 C 523.578 5.18326 0.546565 0
M  V30 5806 C 520.906 5.8657 0.123549 0
M  V30 5807 C 523.258 6.32335 -0.18305 0
M  V30 5808 C 521.922 6.66301 -0.399861 0
M  V30 5809 H 521.192 0.655178 0.346155 0
M  V30 5810 H 523.839 1.90299 0.214146 0
M  V30 5811 H 522.144 2.91682 2.61589 0
M  V30 5812 H 523.841 3.2282 2.37884 0
M  V30 5813 H 520.431 4.10202 1.24226 0
M  V30 5814 H 524.615 4.9144 0.692847 0
M  V30 5815 H 519.871 6.11376 -0.0546591 0
M  V30 5816 H 524.045 6.9383 -0.59775 0
M  V30 5817 H 521.672 7.53889 -0.977489 0
M  V30 5818 N 523.247 -0.488276 1.49845 0
M  V30 5819 C 524.524 -1.24959 1.50481 0
M  V30 5820 C 524.904 -2.09735 0.239698 0
M  V30 5821 O 524.252 -2.14865 -0.777524 0
M  V30 5822 C 524.462 -2.0954 2.79095 0
M  V30 5823 C 525.81 -2.68305 3.29086 0
M  V30 5824 O 526.834 -2.19797 2.80299 0
M  V30 5825 O 525.693 -3.56643 4.14087 0
M  V30 5826 H 522.787 -0.566133 0.602845 0
M  V30 5827 H 525.333 -0.501504 1.6212 0
M  V30 5828 H 524.105 -1.46958 3.62656 0
M  V30 5829 H 523.728 -2.91517 2.70377 0
M  V30 5830 N 524.725 -1.39134 -0.740242 0
M  V30 5831 C 525.655 -1.40165 -1.86751 0
M  V30 5832 C 526.636 -0.265708 -1.68012 0
M  V30 5833 O 527.821 -0.47076 -1.88408 0
M  V30 5834 C 524.951 -1.2392 -3.2444 0
M  V30 5835 C 523.905 -2.34858 -3.57807 0
M  V30 5836 C 523.231 -2.03707 -4.94376 0
M  V30 5837 C 524.531 -3.77159 -3.61315 0
M  V30 5838 H 526.225 -2.345 -1.86145 0
M  V30 5839 H 523.771 -1.12875 -0.89416 0
M  V30 5840 H 525.724 -1.23263 -4.02969 0
M  V30 5841 H 524.448 -0.26051 -3.25559 0
M  V30 5842 H 523.107 -2.34723 -2.81604 0
M  V30 5843 H 522.755 -1.04289 -4.9207 0
M  V30 5844 H 522.455 -2.78016 -5.17669 0
M  V30 5845 H 523.979 -2.04691 -5.75268 0
M  V30 5846 H 525.393 -3.79252 -4.29931 0
M  V30 5847 H 523.79 -4.50784 -3.96124 0
M  V30 5848 H 524.86 -4.08513 -2.61238 0
M  V30 5849 N 526.204 0.969867 -1.24223 0
M  V30 5850 C 527.615 1.52717 -1.07399 0
M  V30 5851 C 527.966 1.92956 0.355298 0
M  V30 5852 O 527.091 1.77112 1.2434 0
M  V30 5853 C 527.686 2.77521 -1.94339 0
M  V30 5854 C 526.245 3.29615 -1.81744 0
M  V30 5855 C 525.392 2.02537 -1.89405 0
M  V30 5856 H 528.343 0.788399 -1.37732 0
M  V30 5857 H 528.364 3.50773 -1.47439 0
M  V30 5858 H 527.876 2.48203 -2.98357 0
M  V30 5859 H 525.977 3.63789 -0.805505 0
M  V30 5860 H 526.09 3.98661 -2.65718 0
M  V30 5861 H 524.454 2.17151 -1.33108 0
M  V30 5862 H 525.237 1.75587 -2.94999 0
M  V30 5863 N 527.682 1.05563 1.17022 0
M  V30 5864 C 528.63 0.653887 2.2322 0
M  V30 5865 C 529.624 -0.326642 1.66221 0
M  V30 5866 O 530.83 -0.192301 1.7897 0
M  V30 5867 H 527.205 0.193297 0.726733 0
M  V30 5868 H 529.176 1.5596 2.54399 0
M  V30 5869 C 527.925 0.0485434 3.47666 0
M  V30 5870 H 527.248 0.79413 3.91834 0
M  V30 5871 H 528.688 -0.195133 4.23551 0
M  V30 5872 C 527.147 -1.20583 3.14581 0
M  V30 5873 O 527.677 -2.29475 3.29703 0
M  V30 5874 N 525.883 -1.10493 2.68774 0
M  V30 5875 H 525.43 -0.218795 2.56669 0
M  V30 5876 H 525.388 -1.94507 2.47011 0
M  V30 5877 N 529.16 -1.33526 0.837174 0
M  V30 5878 C 530.406 -1.9813 0.432704 0
M  V30 5879 C 530.739 -1.66168 -1.00508 0
M  V30 5880 O 530.014 -0.94069 -1.70239 0
M  V30 5881 C 530.297 -3.54151 0.651834 0
M  V30 5882 C 530.15 -3.95806 2.13676 0
M  V30 5883 C 531.469 -4.39993 0.0968937 0
M  V30 5884 H 528.588 -0.719713 0.15869 0
M  V30 5885 H 531.23 -1.58193 1.05237 0
M  V30 5886 H 529.38 -3.88301 0.124369 0
M  V30 5887 H 531.052 -3.71921 2.72896 0
M  V30 5888 H 529.295 -3.45599 2.62191 0
M  V30 5889 H 529.966 -5.0447 2.24084 0
M  V30 5890 H 532.442 -4.12479 0.547733 0
M  V30 5891 H 531.318 -5.48186 0.279917 0
M  V30 5892 H 531.579 -4.3066 -0.9992 0
M  V30 5893 N 530.638 -0.59345 -1.46 0
M  V30 5894 C 531.863 -0.0872365 -2.07216 0
M  V30 5895 C 532.288 1.2131 -1.43755 0
M  V30 5896 O 531.646 1.73528 -0.525152 0
M  V30 5897 C 531.694 0.0538197 -3.6056 0
M  V30 5898 O 530.798 1.10765 -3.97247 0
M  V30 5899 H 530.139 -0.0676598 -0.660544 0
M  V30 5900 H 532.669 -0.819445 -1.87473 0
M  V30 5901 H 532.679 0.256567 -4.07193 0
M  V30 5902 H 531.354 -0.895739 -4.0614 0
M  V30 5903 H 529.931 0.882501 -3.62307 0
M  V30 5904 N 532.116 1.54067 -0.331816 0
M  V30 5905 C 533.363 2.00715 0.268269 0
M  V30 5906 C 533.691 1.21986 1.51491 0
M  V30 5907 O 532.946 0.292309 1.93505 0
M  V30 5908 C 533.245 3.51634 0.639392 0
M  V30 5909 C 532.911 4.48018 -0.509019 0
M  V30 5910 C 531.573 4.74089 -0.824209 0
M  V30 5911 C 533.925 5.05237 -1.28003 0
M  V30 5912 C 531.253 5.54637 -1.91298 0
M  V30 5913 C 533.605 5.86972 -2.35895 0
M  V30 5914 C 532.269 6.11342 -2.67987 0
M  V30 5915 H 531.539 0.734469 0.0981667 0
M  V30 5916 H 534.186 1.8596 -0.457304 0
M  V30 5917 H 532.491 3.6416 1.44551 0
M  V30 5918 H 534.188 3.85175 1.11539 0
M  V30 5919 H 530.778 4.27851 -0.253287 0
M  V30 5920 H 534.962 4.8507 -1.04978 0
M  V30 5921 H 530.218 5.71747 -2.16599 0
M  V30 5922 H 534.392 6.30327 -2.96076 0
M  V30 5923 H 532.019 6.73544 -3.5248 0
M  V30 5924 N 533.594 0.0601682 1.57485 0
M  V30 5925 C 534.504 -0.926121 2.15546 0
M  V30 5926 C 535.52 -1.33532 1.11558 0
M  V30 5927 O 536.696 -1.4104 1.4377 0
M  V30 5928 C 533.761 -2.17952 2.69625 0
M  V30 5929 C 532.822 -1.82783 3.88444 0
M  V30 5930 C 532.055 -3.02148 4.39935 0
M  V30 5931 O 532.278 -4.15803 3.90466 0
M  V30 5932 O 531.212 -2.82639 5.31412 0
M  V30 5933 H 535.038 -0.462289 3.00161 0
M  V30 5934 H 532.623 -0.162246 1.48516 0
M  V30 5935 H 534.505 -2.91474 3.04337 0
M  V30 5936 H 533.18 -2.63456 1.88077 0
M  V30 5937 H 532.087 -1.06549 3.58606 0
M  V30 5938 H 533.42 -1.42072 4.7125 0
M  V30 5939 N 535.072 -1.5615 -0.213296 0
M  V30 5940 C 536.349 -1.70349 -0.961281 0
M  V30 5941 C 536.729 -0.609791 -2.02101 0
M  V30 5942 O 536.077 0.381987 -2.25285 0
M  V30 5943 C 536.287 -3.11982 -1.56424 0
M  V30 5944 C 537.635 -3.71649 -2.05334 0
M  V30 5945 O 538.659 -3.14995 -1.66302 0
M  V30 5946 O 537.518 -4.71038 -2.77102 0
M  V30 5947 H 534.612 -0.694121 -0.449582 0
M  V30 5948 H 537.158 -1.68464 -0.204426 0
M  V30 5949 H 535.93 -3.83046 -0.799457 0
M  V30 5950 H 535.553 -3.18019 -2.38641 0
M  V30 5951 N 536.55 0.480323 -1.50102 0
M  V30 5952 C 537.797 1.23307 -1.60629 0
M  V30 5953 C 538.125 1.92135 -0.302375 0
M  V30 5954 O 537.38 1.82321 0.711154 0
M  V30 5955 C 537.679 2.30708 -2.72963 0
M  V30 5956 C 537.345 1.79195 -4.13763 0
M  V30 5957 C 536.007 1.64867 -4.52076 0
M  V30 5958 C 538.359 1.40878 -5.018 0
M  V30 5959 C 535.687 1.10631 -5.76175 0
M  V30 5960 C 538.039 0.880872 -6.26437 0
M  V30 5961 C 536.703 0.724146 -6.6356 0
M  V30 5962 H 535.973 0.451211 -0.587784 0
M  V30 5963 H 538.62 0.53051 -1.84005 0
M  V30 5964 H 536.925 3.06834 -2.43639 0
M  V30 5965 H 538.622 2.88692 -2.78313 0
M  V30 5966 H 535.212 1.91313 -3.83533 0
M  V30 5967 H 539.396 1.50786 -4.7284 0
M  V30 5968 H 534.652 0.972263 -6.0362 0
M  V30 5969 H 538.826 0.575269 -6.9402 0
M  V30 5970 H 536.453 0.301722 -7.59601 0
M  V30 5971 N 538.028 1.39524 0.732853 0
M  V30 5972 C 538.991 1.38189 1.82857 0
M  V30 5973 C 539.991 0.278624 1.58368 0
M  V30 5974 O 541.181 0.536639 1.65728 0
M  V30 5975 C 538.313 1.15661 3.2068 0
M  V30 5976 H 539.506 2.35692 1.85444 0
M  V30 5977 H 537.059 1.2512 0.936728 0
M  V30 5978 H 537.794 0.188482 3.23752 0
M  V30 5979 H 537.579 1.95559 3.39852 0
M  V30 5980 H 539.069 1.17472 4.00737 0
M  V30 5981 N 539.506 -0.963266 1.24736 0
M  V30 5982 C 540.752 -1.70933 1.09131 0
M  V30 5983 C 541.085 -1.90676 -0.368273 0
M  V30 5984 O 540.36 -1.47147 -1.27193 0
M  V30 5985 C 540.643 -3.09744 1.83658 0
M  V30 5986 C 540.496 -2.97465 3.37394 0
M  V30 5987 C 541.815 -4.09483 1.61282 0
M  V30 5988 H 538.934 -0.620398 0.397838 0
M  V30 5989 H 541.576 -1.12028 1.53459 0
M  V30 5990 H 539.726 -3.60031 1.4598 0
M  V30 5991 H 541.398 -2.54571 3.84696 0
M  V30 5992 H 539.641 -2.33576 3.65547 0
M  V30 5993 H 540.312 -3.95822 3.84745 0
M  V30 5994 H 542.788 -3.68073 1.94066 0
M  V30 5995 H 541.664 -5.04666 2.15878 0
M  V30 5996 H 541.925 -4.38639 0.552102 0
M  V30 5997 N 540.985 -1.06182 -1.16461 0
M  V30 5998 C 542.262 -0.691364 -1.82974 0
M  V30 5999 C 542.642 0.827377 -1.9421 0
M  V30 6000 O 541.99 1.73723 -1.48434 0
M  V30 6001 C 542.2 -1.39199 -3.20038 0
M  V30 6002 C 543.548 -1.53647 -3.95825 0
M  V30 6003 O 544.572 -1.35181 -3.29552 0
M  V30 6004 O 543.431 -1.83932 -5.14618 0
M  V30 6005 H 540.525 -0.244605 -0.789998 0
M  V30 6006 H 543.071 -1.16203 -1.23673 0
M  V30 6007 H 541.843 -2.42766 -3.06888 0
M  V30 6008 H 541.466 -0.911335 -3.87015 0
M  V30 6009 N 542.463 1.3308 -0.844243 0
M  V30 6010 C 543.393 2.3161 -0.296493 0
M  V30 6011 C 544.374 1.59215 0.598707 0
M  V30 6012 O 545.559 1.87077 0.521134 0
M  V30 6013 C 542.689 3.43313 0.524762 0
M  V30 6014 C 541.643 4.27115 -0.275106 0
M  V30 6015 C 540.969 5.30483 0.670236 0
M  V30 6016 C 542.269 5.00443 -1.49514 0
M  V30 6017 H 543.963 2.77672 -1.11976 0
M  V30 6018 H 541.509 1.33496 -0.539899 0
M  V30 6019 H 543.462 4.11273 0.918298 0
M  V30 6020 H 542.186 2.95952 1.3813 0
M  V30 6021 H 540.845 3.60787 -0.650267 0
M  V30 6022 H 540.493 4.79379 1.52332 0
M  V30 6023 H 540.193 5.87435 0.139123 0
M  V30 6024 H 541.717 6.01308 1.06117 0
M  V30 6025 H 543.131 5.61141 -1.17447 0
M  V30 6026 H 541.528 5.67071 -1.96343 0
M  V30 6027 H 542.598 4.28906 -2.26202 0
M  V30 6028 N 543.941 0.601185 1.45683 0
M  V30 6029 C 544.873 -0.159446 2.28645 0
M  V30 6030 C 545.886 -0.837882 1.39583 0
M  V30 6031 O 547.075 -0.704344 1.64016 0
M  V30 6032 C 544.175 -1.24641 3.15147 0
M  V30 6033 C 543.348 -0.656334 4.32448 0
M  V30 6034 C 542.407 -1.63337 5.00208 0
M  V30 6035 O 541.433 -1.16217 5.57209 0
M  V30 6036 N 542.635 -2.96773 4.98905 0
M  V30 6037 H 545.4 0.5524 2.94565 0
M  V30 6038 H 542.961 0.440223 1.558 0
M  V30 6039 H 544.953 -1.8997 3.57342 0
M  V30 6040 H 543.523 -1.86087 2.51178 0
M  V30 6041 H 542.743 0.174879 3.93812 0
M  V30 6042 H 544.031 -0.242211 5.08223 0
M  V30 6043 H 543.429 -3.37662 4.53873 0
M  V30 6044 H 541.986 -3.57541 5.44984 0
M  V30 6045 N 545.419 -1.53889 0.339982 0
M  V30 6046 C 546.382 -2.23547 -0.50592 0
M  V30 6047 C 547.382 -1.23445 -1.03044 0
M  V30 6048 O 548.572 -1.47909 -0.920253 0
M  V30 6049 C 545.704 -2.95234 -1.7044 0
M  V30 6050 H 546.897 -2.99722 0.103247 0
M  V30 6051 H 544.45 -1.56033 0.0912804 0
M  V30 6052 H 545.185 -2.23236 -2.35236 0
M  V30 6053 H 544.97 -3.68654 -1.33553 0
M  V30 6054 H 546.46 -3.48258 -2.30447 0
M  V30 6055 N 546.897 -0.0685191 -1.57451 0
M  V30 6056 C 548.143 0.602239 -1.93652 0
M  V30 6057 C 548.476 1.6946 -0.948526 0
M  V30 6058 O 547.751 1.94487 0.022782 0
M  V30 6059 C 548.034 1.18223 -3.4014 0
M  V30 6060 C 547.887 0.0967431 -4.49696 0
M  V30 6061 C 549.206 2.08872 -3.87377 0
M  V30 6062 H 546.325 0.217453 -0.70419 0
M  V30 6063 H 548.967 -0.133821 -1.89528 0
M  V30 6064 H 547.117 1.80953 -3.43785 0
M  V30 6065 H 548.789 -0.536155 -4.58174 0
M  V30 6066 H 547.032 -0.573063 -4.29998 0
M  V30 6067 H 547.703 0.542894 -5.49324 0
M  V30 6068 H 550.179 1.56081 -3.85717 0
M  V30 6069 H 549.055 2.46389 -4.90493 0
M  V30 6070 H 549.316 2.99572 -3.25129 0
M  V30 6071 N 548.375 1.56261 0.205012 0
M  V30 6072 C 549.285 1.96944 1.27476 0
M  V30 6073 C 550.301 0.875636 1.50362 0
M  V30 6074 O 551.477 1.18058 1.6317 0
M  V30 6075 C 548.542 2.29219 2.60115 0
M  V30 6076 C 547.603 3.52255 2.45387 0
M  V30 6077 C 546.836 3.8298 3.71701 0
M  V30 6078 O 547.059 3.15138 4.75441 0
M  V30 6079 O 545.993 4.76435 3.67823 0
M  V30 6080 H 549.819 2.88144 0.959527 0
M  V30 6081 H 547.404 1.43686 0.409217 0
M  V30 6082 H 549.286 2.51098 3.3842 0
M  V30 6083 H 547.961 1.4119 2.91285 0
M  V30 6084 H 546.868 3.35635 1.65227 0
M  V30 6085 H 548.201 4.40719 2.19152 0
M  V30 6086 N 549.853 -0.472356 1.50355 0
M  V30 6087 C 551.269 -0.806001 1.37753 0
M  V30 6088 C 551.469 -1.968 0.432649 0
M  V30 6089 O 550.525 -2.52189 -0.12519 0
M  V30 6090 C 551.838 -1.11926 2.79093 0
M  V30 6091 C 553.386 -1.22579 2.87999 0
M  V30 6092 C 553.861 -1.57218 4.3017 0
M  V30 6093 N 555.352 -1.64212 4.33115 0
M  V30 6094 C 556.087 -1.92517 5.40116 0
M  V30 6095 N 555.583 -2.1885 6.57325 0
M  V30 6096 N 557.376 -1.94008 5.27558 0
M  V30 6097 H 549.527 0.293451 2.10363 0
M  V30 6098 H 551.79 0.0687672 0.945503 0
M  V30 6099 H 551.496 -0.338504 3.50067 0
M  V30 6100 H 551.37 -2.05577 3.16256 0
M  V30 6101 H 553.757 -1.99722 2.17245 0
M  V30 6102 H 553.838 -0.269107 2.54381 0
M  V30 6103 H 553.482 -0.806154 5.01461 0
M  V30 6104 H 553.412 -2.54034 4.61275 0
M  V30 6105 H 555.903 -1.45906 3.48597 0
M  V30 6106 H 556.216 -2.39718 7.3468 0
M  V30 6107 H 554.561 -2.16245 6.60502 0
M  V30 6108 H 557.752 -1.72931 4.34986 0
M  V30 6109 H 557.925 -2.15731 6.11035 0
M  V30 6110 N 551.331 -1.39911 -0.725443 0
M  V30 6111 C 552.577 -1.37858 -1.48738 0
M  V30 6112 C 552.91 0.0224187 -1.94187 0
M  V30 6113 O 552.185 0.989204 -1.67466 0
M  V30 6114 C 552.468 -2.3594 -2.72038 0
M  V30 6115 C 552.321 -3.85023 -2.32546 0
M  V30 6116 C 553.64 -2.31704 -3.74167 0
M  V30 6117 H 550.759 -0.502074 -0.539528 0
M  V30 6118 H 553.401 -1.70974 -0.828728 0
M  V30 6119 H 551.551 -2.0783 -3.28236 0
M  V30 6120 H 553.223 -4.2392 -1.81905 0
M  V30 6121 H 551.466 -4.01334 -1.64661 0
M  V30 6122 H 552.137 -4.49152 -3.20884 0
M  V30 6123 H 554.613 -2.5658 -3.27576 0
M  V30 6124 H 553.489 -3.02395 -4.58092 0
M  V30 6125 H 553.75 -1.3253 -4.21768 0
M  V30 6126 N 552.809 0.956637 -1.25245 0
M  V30 6127 C 554.225 1.22733 -1.02023 0
M  V30 6128 C 554.425 1.99761 0.264186 0
M  V30 6129 O 553.481 2.32814 0.977436 0
M  V30 6130 C 554.794 2.00367 -2.24217 0
M  V30 6131 C 556.342 2.13418 -2.28958 0
M  V30 6132 C 556.817 2.9445 -3.50803 0
M  V30 6133 N 558.308 3.02029 -3.51187 0
M  V30 6134 C 559.043 3.65116 -4.42129 0
M  V30 6135 N 558.539 4.2983 -5.43339 0
M  V30 6136 N 560.332 3.62237 -4.29815 0
M  V30 6137 H 552.483 0.441282 -2.07765 0
M  V30 6138 H 554.746 0.257686 -0.912306 0
M  V30 6139 H 554.452 1.51165 -3.17556 0
M  V30 6140 H 554.326 3.01077 -2.27228 0
M  V30 6141 H 556.713 2.61819 -1.36143 0
M  V30 6142 H 556.794 1.1202 -2.29968 0
M  V30 6143 H 556.438 2.46741 -4.43939 0
M  V30 6144 H 556.368 3.9607 -3.47039 0
M  V30 6145 H 558.859 2.56007 -2.77973 0
M  V30 6146 H 559.172 4.75819 -6.08947 0
M  V30 6147 H 557.517 4.28465 -5.47214 0
M  V30 6148 H 560.708 3.10863 -3.49974 0
M  V30 6149 H 560.881 4.11117 -5.00886 0
M  V30 6150 N 554.287 1.06798 1.15896 0
M  V30 6151 C 555.235 0.677525 2.22514 0
M  V30 6152 C 556.229 -0.308994 1.66558 0
M  V30 6153 O 557.435 -0.173308 1.79164 0
M  V30 6154 H 553.81 0.200994 0.724642 0
M  V30 6155 H 555.781 1.5865 2.52731 0
M  V30 6156 C 554.53 0.0854153 3.47595 0
M  V30 6157 H 553.853 0.835645 3.90969 0
M  V30 6158 H 555.293 -0.150199 4.23734 0
M  V30 6159 C 553.752 -1.1724 3.15843 0
M  V30 6160 O 554.282 -2.25965 3.32119 0
M  V30 6161 N 552.488 -1.07636 2.69931 0
M  V30 6162 H 552.035 -0.191559 2.56887 0
M  V30 6163 H 551.993 -1.91876 2.4906 0
M  V30 6164 N 555.766 -1.3263 0.851289 0
M  V30 6165 C 556.696 -2.31449 0.308771 0
M  V30 6166 C 557.677 -1.59531 -0.590255 0
M  V30 6167 O 558.862 -1.87351 -0.511205 0
M  V30 6168 C 555.992 -3.43586 -0.506548 0
M  V30 6169 C 554.946 -4.26963 0.297753 0
M  V30 6170 C 554.272 -5.30831 -0.642094 0
M  V30 6171 C 555.572 -4.99643 1.52166 0
M  V30 6172 H 557.266 -2.77074 1.13447 0
M  V30 6173 H 554.812 -1.33207 0.546971 0
M  V30 6174 H 556.765 -4.11754 -0.896474 0
M  V30 6175 H 555.489 -2.96681 -1.36558 0
M  V30 6176 H 554.148 -3.60437 0.669391 0
M  V30 6177 H 553.796 -4.8018 -1.49788 0
M  V30 6178 H 553.496 -5.87501 -0.107968 0
M  V30 6179 H 555.02 -6.01862 -1.02927 0
M  V30 6180 H 556.434 -5.6051 1.20421 0
M  V30 6181 H 554.831 -5.66022 1.99347 0
M  V30 6182 H 555.901 -4.27701 2.28474 0
M  V30 6183 N 557.244 -0.608902 -1.45362 0
M  V30 6184 C 558.655 -0.189511 -1.85736 0
M  V30 6185 C 559.006 1.2539 -1.50903 0
M  V30 6186 O 558.131 1.95094 -0.936347 0
M  V30 6187 C 558.726 -0.33716 -3.37118 0
M  V30 6188 C 557.285 0.0275487 -3.7639 0
M  V30 6189 C 556.432 -0.660983 -2.69307 0
M  V30 6190 H 559.383 -0.815499 -1.36144 0
M  V30 6191 H 559.404 0.430257 -3.7806 0
M  V30 6192 H 558.916 -1.38779 -3.62439 0
M  V30 6193 H 557.017 1.0773 -3.56686 0
M  V30 6194 H 557.13 -0.367018 -4.77692 0
M  V30 6195 H 555.494 -0.0984958 -2.54509 0
M  V30 6196 H 556.277 -1.71377 -2.97464 0
M  V30 6197 N 558.722 1.53707 -0.348139 0
M  V30 6198 C 559.632 2.28881 0.514857 0
M  V30 6199 C 560.648 1.34168 1.10793 0
M  V30 6200 O 561.824 1.6721 1.12262 0
M  V30 6201 C 558.889 3.05042 1.64774 0
M  V30 6202 C 557.95 4.15389 1.08398 0
M  V30 6203 C 557.183 4.87909 2.16287 0
M  V30 6204 O 557.406 4.60137 3.3709 0
M  V30 6205 O 556.34 5.74254 1.80323 0
M  V30 6206 H 560.166 3.03547 -0.0963699 0
M  V30 6207 H 557.751 1.48972 -0.113043 0
M  V30 6208 H 559.633 3.52656 2.30677 0
M  V30 6209 H 558.308 2.33228 2.24469 0
M  V30 6210 H 557.215 3.72068 0.389341 0
M  V30 6211 H 558.548 4.89318 0.531829 0
M  V30 6212 N 560.2 0.0768682 1.57412 0
M  V30 6213 C 561.477 -0.632359 1.85096 0
M  V30 6214 C 561.857 -1.87479 0.9703 0
M  V30 6215 O 561.205 -2.28469 0.0379062 0
M  V30 6216 C 561.415 -0.965174 3.35388 0
M  V30 6217 C 562.763 -1.33648 4.03018 0
M  V30 6218 O 563.787 -1.05675 3.40164 0
M  V30 6219 O 562.646 -1.85959 5.13889 0
M  V30 6220 H 559.74 -0.314574 0.764835 0
M  V30 6221 H 562.286 0.108184 1.69355 0
M  V30 6222 H 561.058 -0.0829745 3.91212 0
M  V30 6223 H 560.681 -1.76231 3.5641 0
M  V30 6224 N 561.678 -1.56367 -0.196722 0
M  V30 6225 C 562.903 -1.84991 -0.937714 0
M  V30 6226 C 563.328 -0.660244 -1.76132 0
M  V30 6227 O 562.686 0.390967 -1.77034 0
M  V30 6228 C 562.734 -3.11828 -1.81096 0
M  V30 6229 O 561.838 -2.92266 -2.90955 0
M  V30 6230 H 561.179 -0.609193 -0.264159 0
M  V30 6231 H 563.709 -2.03595 -0.202529 0
M  V30 6232 H 563.719 -3.42579 -2.21594 0
M  V30 6233 H 562.394 -3.98037 -1.2058 0
M  V30 6234 H 560.971 -2.72809 -2.54224 0
M  V30 6235 N 563.156 0.464375 -1.50603 0
M  V30 6236 C 564.403 1.21596 -1.61928 0
M  V30 6237 C 564.731 1.91804 -0.322737 0
M  V30 6238 O 563.986 1.83065 0.691776 0
M  V30 6239 C 564.285 2.278 -2.75394 0
M  V30 6240 C 563.951 1.74797 -4.1564 0
M  V30 6241 C 562.613 1.60063 -4.53799 0
M  V30 6242 C 564.965 1.35548 -5.03266 0
M  V30 6243 C 562.293 1.04514 -5.77316 0
M  V30 6244 C 564.645 0.814381 -6.27336 0
M  V30 6245 C 563.309 0.653726 -6.64291 0
M  V30 6246 H 562.579 0.444951 -0.592536 0
M  V30 6247 H 565.226 0.510964 -1.84557 0
M  V30 6248 H 563.531 3.04233 -2.46879 0
M  V30 6249 H 565.228 2.85723 -2.81359 0
M  V30 6250 H 561.818 1.87234 -3.8554 0
M  V30 6251 H 566.002 1.45763 -4.74412 0
M  V30 6252 H 561.258 0.908186 -6.04617 0
M  V30 6253 H 565.432 0.501626 -6.94591 0
M  V30 6254 H 563.059 0.22114 -7.59878 0
M  V30 6255 N 564.634 1.40294 0.718013 0
M  V30 6256 C 566.05 1.2227 1.02577 0
M  V30 6257 C 566.25 0.0961976 2.0127 0
M  V30 6258 O 565.306 -0.546695 2.46511 0
M  V30 6259 C 566.619 2.56348 1.57182 0
M  V30 6260 C 568.167 2.6334 1.69178 0
M  V30 6261 C 568.642 3.9768 2.27188 0
M  V30 6262 N 570.133 3.99409 2.34578 0
M  V30 6263 C 570.868 5.00141 2.8044 0
M  V30 6264 N 570.364 6.11268 3.26073 0
M  V30 6265 N 572.157 4.87511 2.79802 0
M  V30 6266 H 564.308 2.12304 0.0637899 0
M  V30 6267 H 566.571 0.943632 0.0909036 0
M  V30 6268 H 566.277 3.3942 0.921262 0
M  V30 6269 H 566.151 2.77266 2.55741 0
M  V30 6270 H 568.538 1.80641 2.33351 0
M  V30 6271 H 568.619 2.46255 0.692247 0
M  V30 6272 H 568.263 4.80817 1.63638 0
M  V30 6273 H 568.193 4.12093 3.27852 0
M  V30 6274 H 570.684 3.19162 2.02346 0
M  V30 6275 H 570.997 6.84023 3.59628 0
M  V30 6276 H 569.342 6.14837 3.24038 0
M  V30 6277 H 572.533 3.9979 2.43487 0
M  V30 6278 H 572.706 5.66158 3.15228 0
M  V30 6279 N 566.112 -0.949982 1.2575 0
M  V30 6280 C 567.528 -1.22191 1.02672 0
M  V30 6281 C 567.728 -1.99898 -0.253588 0
M  V30 6282 O 566.784 -2.33329 -0.965076 0
M  V30 6283 C 568.097 -1.99175 2.25277 0
M  V30 6284 C 569.645 -2.12201 2.30087 0
M  V30 6285 C 570.12 -2.92586 3.5236 0
M  V30 6286 N 571.611 -3.00163 3.52784 0
M  V30 6287 C 572.346 -3.62766 4.44059 0
M  V30 6288 N 571.842 -4.26943 5.45611 0
M  V30 6289 N 573.635 -3.59953 4.3173 0
M  V30 6290 H 565.786 -0.430258 2.07996 0
M  V30 6291 H 568.049 -0.252844 0.91366 0
M  V30 6292 H 567.755 -1.49479 3.18354 0
M  V30 6293 H 567.629 -2.99868 2.28821 0
M  V30 6294 H 570.016 -2.61093 1.3753 0
M  V30 6295 H 570.097 -1.10799 2.30559 0
M  V30 6296 H 569.741 -2.44383 4.45241 0
M  V30 6297 H 569.671 -3.94224 3.49134 0
M  V30 6298 H 572.162 -2.54529 2.79327 0
M  V30 6299 H 572.475 -4.72583 6.11461 0
M  V30 6300 H 570.82 -4.25557 5.49478 0
M  V30 6301 H 574.011 -3.09003 3.51617 0
M  V30 6302 H 574.184 -4.08455 5.03059 0
M  V30 6303 N 567.59 -1.07411 -1.15328 0
M  V30 6304 C 568.5 -0.706438 -2.23711 0
M  V30 6305 C 569.516 0.282586 -1.7169 0
M  V30 6306 O 570.692 0.129066 -2.00986 0
M  V30 6307 C 567.757 -0.11048 -3.46524 0
M  V30 6308 C 566.818 -1.15282 -4.13532 0
M  V30 6309 C 566.051 -0.585205 -5.30482 0
M  V30 6310 O 566.274 0.598549 -5.67251 0
M  V30 6311 O 565.208 -1.33039 -5.87013 0
M  V30 6312 H 569.034 -1.61031 -2.57493 0
M  V30 6313 H 566.619 -0.847113 -1.23062 0
M  V30 6314 H 568.501 0.21957 -4.20828 0
M  V30 6315 H 567.176 0.766703 -3.14489 0
M  V30 6316 H 566.083 -1.53523 -3.41147 0
M  V30 6317 H 567.416 -2.00192 -4.49649 0
M  V30 6318 N 569.068 1.32177 -0.85831 0
M  V30 6319 C 570.015 2.28794 -0.303607 0
M  V30 6320 C 570.985 1.55213 0.591453 0
M  V30 6321 O 572.17 1.83418 0.525585 0
M  V30 6322 C 569.31 3.41475 0.49889 0
M  V30 6323 C 568.423 4.2993 -0.422373 0
M  V30 6324 C 567.558 5.29743 0.393111 0
M  V30 6325 C 566.597 6.09842 -0.525317 0
M  V30 6326 N 565.734 7.01643 0.253208 0
M  V30 6327 H 570.574 2.75631 -1.13276 0
M  V30 6328 H 568.111 1.35606 -0.570026 0
M  V30 6329 H 570.069 4.05531 0.979826 0
M  V30 6330 H 568.699 2.95779 1.29284 0
M  V30 6331 H 567.751 3.66422 -1.02171 0
M  V30 6332 H 569.063 4.85899 -1.12709 0
M  V30 6333 H 568.217 5.9942 0.937056 0
M  V30 6334 H 566.956 4.744 1.13117 0
M  V30 6335 H 565.961 5.39066 -1.08112 0
M  V30 6336 H 567.186 6.6727 -1.26205 0
M  V30 6337 H 565.132 6.48725 0.974295 0
M  V30 6338 H 565.049 7.54981 -0.392398 0
M  V30 6339 H 566.317 7.756 0.778761 0
M  V30 6340 N 570.547 0.616602 1.45037 0
M  V30 6341 C 571.457 -0.0985401 2.34393 0
M  V30 6342 C 572.473 -0.850971 1.51771 0
M  V30 6343 O 573.649 -0.806521 1.84546 0
M  V30 6344 C 570.714 -1.07748 3.29532 0
M  V30 6345 C 569.775 -0.326022 4.2806 0
M  V30 6346 C 569.008 -1.25833 5.18654 0
M  V30 6347 O 569.231 -2.49652 5.12864 0
M  V30 6348 O 568.165 -0.750512 5.97203 0
M  V30 6349 H 571.991 0.636016 2.96966 0
M  V30 6350 H 569.576 0.376832 1.44569 0
M  V30 6351 H 571.458 -1.64107 3.88133 0
M  V30 6352 H 570.133 -1.79291 2.69512 0
M  V30 6353 H 569.04 0.280253 3.73049 0
M  V30 6354 H 570.373 0.349091 4.9096 0
M  V30 6355 N 572.025 -1.5352 0.356285 0
M  V30 6356 C 573.255 -2.05236 -0.236983 0
M  V30 6357 C 573.663 -1.23016 -1.43749 0
M  V30 6358 O 573.006 -0.2615 -1.81829 0
M  V30 6359 C 573.068 -3.52549 -0.7035 0
M  V30 6360 C 572.732 -4.55425 0.379059 0
M  V30 6361 C 573.729 -5.0524 1.22592 0
M  V30 6362 C 571.414 -4.99425 0.536638 0
M  V30 6363 C 573.408 -5.97647 2.21578 0
M  V30 6364 C 571.095 -5.9164 1.52988 0
M  V30 6365 C 572.093 -6.4064 2.3679 0
M  V30 6366 O 571.781 -7.31039 3.34421 0
M  V30 6367 H 571.513 -0.674346 -0.047254 0
M  V30 6368 H 574.067 -1.98962 0.510238 0
M  V30 6369 H 572.297 -3.56331 -1.50217 0
M  V30 6370 H 573.986 -3.87171 -1.21873 0
M  V30 6371 H 574.752 -4.72002 1.11532 0
M  V30 6372 H 570.631 -4.60879 -0.105834 0
M  V30 6373 H 574.175 -6.35816 2.87025 0
M  V30 6374 H 570.072 -6.24293 1.64099 0
M  V30 6375 H 570.84 -7.49009 3.30041 0
M  V30 6376 N 573.503 -0.0852151 -1.57369 0
M  V30 6377 C 574.731 0.58946 -1.98325 0
M  V30 6378 C 575.146 1.62333 -0.96403 0
M  V30 6379 O 574.503 1.82438 0.0476395 0
M  V30 6380 C 574.554 1.24604 -3.39347 0
M  V30 6381 O 574.275 0.253532 -4.37366 0
M  V30 6382 C 575.776 2.00726 -3.95252 0
M  V30 6383 H 572.996 0.158783 -0.651942 0
M  V30 6384 H 575.54 -0.161584 -2.03861 0
M  V30 6385 H 573.695 1.94808 -3.34856 0
M  V30 6386 H 574.109 0.726207 -5.19448 0
M  V30 6387 H 575.583 2.42039 -4.96106 0
M  V30 6388 H 576.06 2.86919 -3.32527 0
M  V30 6389 H 576.666 1.3536 -4.03185 0
M  V30 6390 N 574.981 1.5647 0.188427 0
M  V30 6391 C 575.891 1.98285 1.2538 0
M  V30 6392 C 576.907 0.891535 1.49424 0
M  V30 6393 O 578.083 1.19782 1.61908 0
M  V30 6394 C 575.148 2.31965 2.57669 0
M  V30 6395 C 574.209 3.54838 2.41638 0
M  V30 6396 C 573.442 3.86901 3.67618 0
M  V30 6397 O 573.665 3.20163 4.72072 0
M  V30 6398 O 572.599 4.80309 3.62749 0
M  V30 6399 H 576.425 2.89145 0.928912 0
M  V30 6400 H 574.01 1.44112 0.393955 0
M  V30 6401 H 575.892 2.54673 3.35737 0
M  V30 6402 H 574.567 1.44271 2.89771 0
M  V30 6403 H 573.474 3.37369 1.61658 0
M  V30 6404 H 574.807 4.43019 2.14465 0
M  V30 6405 N 576.459 -0.456382 1.50847 0
M  V30 6406 C 577.875 -0.791345 1.386 0
M  V30 6407 C 578.075 -1.9633 0.453498 0
M  V30 6408 O 577.131 -2.52308 -0.0984353 0
M  V30 6409 C 578.444 -1.08959 2.80265 0
M  V30 6410 C 579.992 -1.19517 2.89283 0
M  V30 6411 C 580.467 -1.52647 4.31814 0
M  V30 6412 N 581.958 -1.59609 4.34832 0
M  V30 6413 C 582.693 -1.86777 5.42127 0
M  V30 6414 N 582.189 -2.11866 6.59609 0
M  V30 6415 N 583.982 -1.88402 5.29586 0
M  V30 6416 H 576.133 0.315746 2.1004 0
M  V30 6417 H 578.396 0.0787916 0.94472 0
M  V30 6418 H 578.102 -0.301355 3.50407 0
M  V30 6419 H 577.976 -2.02211 3.18419 0
M  V30 6420 H 580.363 -1.97406 2.19351 0
M  V30 6421 H 580.444 -0.242111 2.54652 0
M  V30 6422 H 580.088 -0.752922 5.02288 0
M  V30 6423 H 580.018 -2.49127 4.63943 0
M  V30 6424 H 582.509 -1.42201 3.50125 0
M  V30 6425 H 582.822 -2.31912 7.37182 0
M  V30 6426 H 581.167 -2.09228 6.62758 0
M  V30 6427 H 584.358 -1.68307 4.36795 0
M  V30 6428 H 584.531 -2.09238 6.13289 0
M  V30 6429 N 577.937 -1.40673 -0.710563 0
M  V30 6430 C 579.214 -1.29718 -1.46398 0
M  V30 6431 C 579.594 0.082177 -2.1094 0
M  V30 6432 O 578.942 1.09536 -2.00534 0
M  V30 6433 C 579.152 -2.43967 -2.49562 0
M  V30 6434 C 580.5 -2.84436 -3.15248 0
M  V30 6435 O 581.524 -2.43597 -2.59883 0
M  V30 6436 O 580.383 -3.55008 -4.1549 0
M  V30 6437 H 577.477 -0.509697 -0.651258 0
M  V30 6438 H 580.023 -1.52603 -0.742312 0
M  V30 6439 H 578.795 -3.36076 -2.0042 0
M  V30 6440 H 578.418 -2.22879 -3.29258 0
M  V30 6441 N 579.415 0.9433 -1.26252 0
M  V30 6442 C 580.831 1.21644 -1.03319 0
M  V30 6443 C 581.031 2.0003 0.242983 0
M  V30 6444 O 580.087 2.33838 0.952688 0
M  V30 6445 C 581.4 1.97978 -2.2633 0
M  V30 6446 C 582.948 2.10978 -2.31209 0
M  V30 6447 C 583.423 2.90713 -3.53907 0
M  V30 6448 N 584.914 2.98287 -3.54371 0
M  V30 6449 C 585.649 3.60406 -4.45976 0
M  V30 6450 N 585.145 4.24043 -5.47868 0
M  V30 6451 N 586.938 3.57658 -4.33633 0
M  V30 6452 H 579.089 0.419221 -2.08222 0
M  V30 6453 H 581.352 0.247995 -0.914988 0
M  V30 6454 H 581.058 1.47788 -3.19142 0
M  V30 6455 H 580.932 2.9865 -2.30408 0
M  V30 6456 H 583.319 2.6036 -1.38913 0
M  V30 6457 H 583.4 1.09575 -2.31143 0
M  V30 6458 H 583.044 2.42018 -4.46531 0
M  V30 6459 H 582.974 3.92367 -3.5122 0
M  V30 6460 H 585.465 2.53044 -2.80673 0
M  V30 6461 H 585.778 4.69334 -6.13959 0
M  V30 6462 H 584.123 4.22637 -5.51728 0
M  V30 6463 H 587.314 3.07134 -3.53251 0
M  V30 6464 H 587.487 4.05782 -5.05218 0
M  V30 6465 N 580.893 1.08022 1.14757 0
M  V30 6466 C 582.142 0.802468 1.8505 0
M  V30 6467 C 582.455 -0.674061 1.83619 0
M  V30 6468 O 583.661 -1.06683 2.49662 0
M  V30 6469 C 582.117 1.38551 3.32162 0
M  V30 6470 C 581.725 2.89354 3.42021 0
M  V30 6471 C 583.469 1.18608 4.07594 0
M  V30 6472 C 581.376 3.40815 4.83321 0
M  V30 6473 H 580.306 0.296518 0.693248 0
M  V30 6474 H 582.957 1.30114 1.29393 0
M  V30 6475 H 581.339 0.814556 3.87532 0
M  V30 6476 H 582.513 3.52552 2.96722 0
M  V30 6477 H 580.828 3.08165 2.80041 0
M  V30 6478 H 583.425 1.54525 5.11885 0
M  V30 6479 H 583.768 0.125599 4.1611 0
M  V30 6480 H 584.301 1.72375 3.58513 0
M  V30 6481 H 581.04 4.46418 4.79991 0
M  V30 6482 H 580.56 2.82374 5.29174 0
M  V30 6483 H 582.239 3.37171 5.522 0
M  V30 6484 N 582.371 -1.3172 0.865308 0
M  V30 6485 C 583.303 -2.27545 0.274906 0
M  V30 6486 C 584.316 -1.52887 -0.559413 0
M  V30 6487 O 585.505 -1.74361 -0.382166 0
M  V30 6488 C 582.605 -3.33006 -0.629286 0
M  V30 6489 C 581.778 -4.37063 0.171553 0
M  V30 6490 C 580.837 -5.22044 -0.660052 0
M  V30 6491 O 579.863 -5.69129 -0.0897527 0
M  V30 6492 N 581.065 -5.45946 -1.97289 0
M  V30 6493 H 583.83 -2.78848 1.09836 0
M  V30 6494 H 581.391 -1.44693 0.726331 0
M  V30 6495 H 583.383 -3.86772 -1.19121 0
M  V30 6496 H 581.953 -2.81782 -1.35342 0
M  V30 6497 H 581.173 -3.83436 0.914919 0
M  V30 6498 H 582.461 -5.03662 0.721235 0
M  V30 6499 H 581.859 -5.0944 -2.45942 0
M  V30 6500 H 580.416 -6.02665 -2.4827 0
M  V30 6501 N 583.85 -0.624285 -1.44708 0
M  V30 6502 C 585.266 -0.289322 -1.56956 0
M  V30 6503 C 585.466 1.20773 -1.61295 0
M  V30 6504 O 584.522 1.9915 -1.55227 0
M  V30 6505 C 585.835 -0.975215 -2.84447 0
M  V30 6506 C 587.383 -0.952709 -2.98148 0
M  V30 6507 C 587.858 -1.61893 -4.28433 0
M  V30 6508 N 589.349 -1.5852 -4.35231 0
M  V30 6509 C 590.084 -2.06969 -5.34744 0
M  V30 6510 N 589.58 -2.63579 -6.40701 0
M  V30 6511 N 591.373 -1.97638 -5.26209 0
M  V30 6512 H 583.524 -1.59612 -1.40135 0
M  V30 6513 H 585.787 -0.669592 -0.671081 0
M  V30 6514 H 585.493 -2.02999 -2.87201 0
M  V30 6515 H 585.367 -0.508749 -3.73753 0
M  V30 6516 H 587.754 0.093568 -2.94952 0
M  V30 6517 H 587.835 -1.4576 -2.10209 0
M  V30 6518 H 587.479 -2.66463 -4.32389 0
M  V30 6519 H 587.409 -1.08893 -5.15218 0
M  V30 6520 H 589.899 -1.17183 -3.59272 0
M  V30 6521 H 590.213 -2.98298 -7.12908 0
M  V30 6522 H 588.558 -2.67626 -6.41406 0
M  V30 6523 H 591.749 -1.5314 -4.42341 0
M  V30 6524 H 591.922 -2.35708 -6.03611 0
M  V30 6525 N 585.328 1.53329 -0.364422 0
M  V30 6526 C 586.238 2.29414 0.490552 0
M  V30 6527 C 587.254 1.35335 1.09363 0
M  V30 6528 O 588.43 1.68391 1.10483 0
M  V30 6529 C 585.495 3.06772 1.61529 0
M  V30 6530 C 584.556 4.16516 1.03986 0
M  V30 6531 C 583.789 4.90176 2.111 0
M  V30 6532 O 584.012 4.63687 3.32191 0
M  V30 6533 O 582.946 5.76134 1.74222 0
M  V30 6534 H 586.772 3.03428 -0.12856 0
M  V30 6535 H 584.357 1.48843 -0.128837 0
M  V30 6536 H 586.239 3.55082 2.26924 0
M  V30 6537 H 584.914 2.35596 2.21983 0
M  V30 6538 H 583.821 3.7246 0.349856 0
M  V30 6539 H 585.154 4.89855 0.4799 0
M  V30 6540 N 586.806 0.0935595 1.57322 0
M  V30 6541 C 588.222 -0.263091 1.57417 0
M  V30 6542 C 588.422 -1.68526 1.1046 0
M  V30 6543 O 587.478 -2.40139 0.780357 0
M  V30 6544 C 588.791 -0.0529201 3.00653 0
M  V30 6545 C 590.339 -0.120788 3.12767 0
M  V30 6546 C 590.814 0.0613707 4.57959 0
M  V30 6547 N 592.305 0.00648534 4.632 0
M  V30 6548 C 593.04 0.122699 5.73269 0
M  V30 6549 N 592.536 0.29366 6.92177 0
M  V30 6550 N 594.329 0.0640787 5.62063 0
M  V30 6551 H 586.48 1.02277 1.86154 0
M  V30 6552 H 588.743 0.4007 0.859153 0
M  V30 6553 H 588.449 0.929279 3.39201 0
M  V30 6554 H 588.323 -0.795899 3.68708 0
M  V30 6555 H 590.71 -1.09349 2.74093 0
M  V30 6556 H 590.791 0.653656 2.47307 0
M  V30 6557 H 590.435 1.03093 4.97327 0
M  V30 6558 H 590.365 -0.732748 5.21477 0
M  V30 6559 H 592.856 -0.123173 3.77699 0
M  V30 6560 H 593.169 0.37389 7.71895 0
M  V30 6561 H 591.514 0.329307 6.94219 0
M  V30 6562 H 594.705 -0.0683396 4.6805 0
M  V30 6563 H 594.878 0.158097 6.47807 0
M  V30 6564 N 588.284 -1.56567 -0.180126 0
M  V30 6565 C 589.214 -1.98753 -1.22553 0
M  V30 6566 C 590.195 -0.86175 -1.46656 0
M  V30 6567 O 591.38 -1.12719 -1.58139 0
M  V30 6568 C 588.51 -2.33988 -2.56645 0
M  V30 6569 C 587.464 -3.49445 -2.47128 0
M  V30 6570 C 586.79 -3.70397 -3.8563 0
M  V30 6571 C 588.09 -4.83171 -1.98352 0
M  V30 6572 H 589.784 -2.86332 -0.874896 0
M  V30 6573 H 587.33 -1.37757 -0.419414 0
M  V30 6574 H 589.283 -2.62097 -3.29974 0
M  V30 6575 H 588.007 -1.43309 -2.93479 0
M  V30 6576 H 586.666 -3.2145 -1.76254 0
M  V30 6577 H 586.314 -2.77023 -4.19842 0
M  V30 6578 H 586.014 -4.48077 -3.80132 0
M  V30 6579 H 587.538 -4.00897 -4.60558 0
M  V30 6580 H 588.952 -5.10213 -2.61449 0
M  V30 6581 H 587.349 -5.64425 -2.03823 0
M  V30 6582 H 588.419 -4.75753 -0.937402 0
M  V30 6583 N 589.762 0.448376 -1.51087 0
M  V30 6584 C 590.71 1.56407 -1.72161 0
M  V30 6585 C 591.704 1.58878 -0.587721 0
M  V30 6586 O 592.91 1.62755 -0.768822 0
M  V30 6587 H 589.285 0.519423 -0.543786 0
M  V30 6588 H 591.256 1.35803 -2.65707 0
M  V30 6589 C 590.005 2.94163 -1.85373 0
M  V30 6590 H 589.328 2.9299 -2.72024 0
M  V30 6591 H 590.768 3.71625 -2.04135 0
M  V30 6592 C 589.227 3.31317 -0.610803 0
M  V30 6593 O 589.757 4.00985 0.239636 0
M  V30 6594 N 587.963 2.86966 -0.458127 0
M  V30 6595 H 587.51 2.30443 -1.15124 0
M  V30 6596 H 587.468 3.12188 0.372289 0
M  V30 6597 N 591.24 1.41047 0.703093 0
M  V30 6598 C 592.17 1.45067 1.82969 0
M  V30 6599 C 593.151 0.31016 1.67248 0
M  V30 6600 O 594.336 0.520548 1.87093 0
M  V30 6601 C 591.466 1.32478 3.2104 0
M  V30 6602 C 590.42 2.44262 3.51454 0
M  V30 6603 C 589.746 2.16742 4.88801 0
M  V30 6604 C 591.046 3.86606 3.51189 0
M  V30 6605 H 592.74 2.39353 1.79863 0
M  V30 6606 H 590.286 1.15206 0.863919 0
M  V30 6607 H 592.239 1.33904 3.99559 0
M  V30 6608 H 590.963 0.346735 3.24754 0
M  V30 6609 H 589.622 2.42107 2.75282 0
M  V30 6610 H 589.27 1.17299 4.89132 0
M  V30 6611 H 588.97 2.91643 5.10116 0
M  V30 6612 H 590.494 2.19872 5.69639 0
M  V30 6613 H 591.908 3.90517 4.19725 0
M  V30 6614 H 590.305 4.61128 3.84033 0
M  V30 6615 H 591.375 4.15296 2.50315 0
M  V30 6616 N 592.718 -0.936591 1.26751 0
M  V30 6617 C 594.129 -1.49816 1.1141 0
M  V30 6618 C 594.48 -1.9383 -0.304015 0
M  V30 6619 O 593.605 -1.80346 -1.196 0
M  V30 6620 C 594.2 -2.72271 2.01629 0
M  V30 6621 C 592.759 -3.2468 1.9042 0
M  V30 6622 C 591.906 -1.97444 1.94708 0
M  V30 6623 H 594.857 -0.751604 1.39773 0
M  V30 6624 H 594.878 -3.46741 1.56688 0
M  V30 6625 H 594.39 -2.40205 3.04833 0
M  V30 6626 H 592.491 -3.61525 0.901674 0
M  V30 6627 H 592.604 -3.91476 2.76195 0
M  V30 6628 H 590.968 -2.13545 1.38818 0
M  V30 6629 H 591.751 -1.67703 2.9955 0
M  V30 6630 N 594.196 -1.08629 -1.14182 0
M  V30 6631 C 595.126 -0.740003 -2.21464 0
M  V30 6632 C 596.107 0.278591 -1.67803 0
M  V30 6633 O 597.292 0.148461 -1.93632 0
M  V30 6634 C 594.422 -0.150952 -3.46972 0
M  V30 6635 C 593.376 -1.09815 -4.13672 0
M  V30 6636 C 592.702 -0.3712 -5.3341 0
M  V30 6637 C 594.002 -2.43722 -4.61949 0
M  V30 6638 H 595.696 -1.63697 -2.50686 0
M  V30 6639 H 593.242 -0.788526 -1.20492 0
M  V30 6640 H 595.195 0.103325 -4.21273 0
M  V30 6641 H 593.919 0.781164 -3.1712 0
M  V30 6642 H 592.578 -1.33756 -3.41328 0
M  V30 6643 H 592.226 0.564792 -4.99819 0
M  V30 6644 H 591.926 -1.00267 -5.78982 0
M  V30 6645 H 593.45 -0.12503 -6.10472 0
M  V30 6646 H 594.864 -2.24034 -5.27714 0
M  V30 6647 H 593.261 -3.02582 -5.18232 0
M  V30 6648 H 594.331 -3.05082 -3.76899 0
M  V30 6649 N 595.674 1.31259 -0.872281 0
M  V30 6650 C 596.921 1.96622 -0.484365 0
M  V30 6651 C 597.249 1.68939 0.963841 0
M  V30 6652 O 596.504 0.97974 1.6941 0
M  V30 6653 C 596.803 3.50659 -0.690889 0
M  V30 6654 C 596.469 3.98366 -2.11224 0
M  V30 6655 C 595.131 4.11104 -2.50094 0
M  V30 6656 C 597.483 4.23425 -3.0391 0
M  V30 6657 C 594.811 4.46254 -3.80887 0
M  V30 6658 C 597.163 4.60039 -4.3422 0
M  V30 6659 C 595.827 4.70984 -4.73001 0
M  V30 6660 H 595.097 0.71949 -0.177242 0
M  V30 6661 H 597.744 1.56353 -1.10571 0
M  V30 6662 H 596.049 3.91798 0.0135782 0
M  V30 6663 H 597.746 3.99284 -0.370534 0
M  V30 6664 H 594.336 3.88949 -1.80047 0
M  V30 6665 H 598.52 4.13075 -2.75104 0
M  V30 6666 H 593.776 4.52926 -4.10692 0
M  V30 6667 H 597.95 4.78381 -5.06088 0
M  V30 6668 H 595.577 4.97977 -5.7439 0
M  V30 6669 N 597.152 0.631951 1.44375 0
M  V30 6670 C 598.563 0.219036 1.85411 0
M  V30 6671 C 598.914 -1.22974 1.52879 0
M  V30 6672 O 598.039 -1.93579 0.967266 0
M  V30 6673 C 598.634 0.39075 3.36539 0
M  V30 6674 C 597.193 0.0323351 3.76386 0
M  V30 6675 C 596.34 0.703744 2.68221 0
M  V30 6676 H 599.291 0.837056 1.3483 0
M  V30 6677 H 599.312 -0.370056 3.78696 0
M  V30 6678 H 598.824 1.44527 3.60185 0
M  V30 6679 H 596.925 -1.02042 3.58355 0
M  V30 6680 H 597.038 0.442969 4.77048 0
M  V30 6681 H 595.402 0.138974 2.54321 0
M  V30 6682 H 596.185 1.76088 2.947 0
M  V30 6683 N 598.631 -1.53133 0.372548 0
M  V30 6684 C 599.859 -2.05774 -0.215515 0
M  V30 6685 C 600.274 -1.24555 -1.41886 0
M  V30 6686 O 599.631 -0.287951 -1.80214 0
M  V30 6687 C 599.682 -3.5645 -0.602161 0
M  V30 6688 O 599.403 -4.34591 0.553359 0
M  V30 6689 C 600.904 -4.25374 -1.24787 0
M  V30 6690 H 598.124 -0.670009 -0.0364529 0
M  V30 6691 H 600.668 -1.97434 0.532934 0
M  V30 6692 H 598.823 -3.64918 -1.30052 0
M  V30 6693 H 599.237 -5.23954 0.239336 0
M  V30 6694 H 600.711 -5.32097 -1.46891 0
M  V30 6695 H 601.188 -3.79531 -2.21026 0
M  V30 6696 H 601.794 -4.21177 -0.590752 0
M  V30 6697 N 600.109 -0.101901 -1.5727 0
M  V30 6698 C 601.337 0.568392 -1.98939 0
M  V30 6699 C 601.752 1.61301 -0.981194 0
M  V30 6700 O 601.109 1.82478 0.0282869 0
M  V30 6701 C 601.16 1.20997 -3.40649 0
M  V30 6702 O 600.881 0.207129 -4.3761 0
M  V30 6703 C 602.382 1.96523 -3.97358 0
M  V30 6704 H 599.602 0.15186 -0.65359 0
M  V30 6705 H 602.146 -0.183198 -2.03678 0
M  V30 6706 H 600.301 1.91245 -3.36904 0
M  V30 6707 H 600.715 0.671071 -5.20189 0
M  V30 6708 H 602.189 2.36764 -4.98645 0
M  V30 6709 H 602.666 2.83376 -3.35552 0
M  V30 6710 H 603.272 1.31076 -4.04598 0
M  V30 6711 N 601.587 1.56661 0.17182 0
M  V30 6712 C 602.815 1.861 0.904115 0
M  V30 6713 C 603.23 0.687227 1.75848 0
M  V30 6714 O 602.587 -0.343671 1.79235 0
M  V30 6715 C 602.638 3.14568 1.78127 0
M  V30 6716 O 602.359 4.27422 0.961366 0
M  V30 6717 C 603.86 3.5735 2.62327 0
M  V30 6718 H 601.08 0.617445 0.262684 0
M  V30 6719 H 603.624 2.03775 0.172068 0
M  V30 6720 H 601.779 2.98721 2.46666 0
M  V30 6721 H 602.193 5.00725 1.56123 0
M  V30 6722 H 603.667 4.50144 3.1949 0
M  V30 6723 H 604.144 2.81445 3.37173 0
M  V30 6724 H 604.75 3.75807 1.99121 0
M  V30 6725 N 603.065 -0.440357 1.51323 0
M  V30 6726 C 604.314 -1.18697 1.63076 0
M  V30 6727 C 604.627 -1.92418 0.35136 0
M  V30 6728 O 605.833 -2.69258 0.348221 0
M  V30 6729 C 604.289 -2.15849 2.87988 0
M  V30 6730 C 603.897 -1.47789 4.22921 0
M  V30 6731 C 605.641 -2.90962 3.09098 0
M  V30 6732 C 603.548 -2.43407 5.38987 0
M  V30 6733 H 602.478 -0.44676 0.607389 0
M  V30 6734 H 605.129 -0.454313 1.77787 0
M  V30 6735 H 603.511 -2.92537 2.66905 0
M  V30 6736 H 604.685 -0.7668 4.54375 0
M  V30 6737 H 603 -0.848404 4.07665 0
M  V30 6738 H 605.597 -3.62584 3.92985 0
M  V30 6739 H 605.94 -3.52133 2.22053 0
M  V30 6740 H 606.473 -2.21381 3.30507 0
M  V30 6741 H 603.212 -1.86929 6.28282 0
M  V30 6742 H 602.732 -3.12579 5.11913 0
M  V30 6743 H 604.411 -3.046 5.70813 0
M  V30 6744 N 604.543 -1.41418 -0.695603 0
M  V30 6745 C 605.791 -1.40496 -1.45277 0
M  V30 6746 C 606.112 -0.0149538 -1.94994 0
M  V30 6747 O 605.382 0.9432 -1.71699 0
M  V30 6748 H 603.962 -0.517147 -0.539044 0
M  V30 6749 H 606.624 -1.76656 -0.823321 0
M  V30 6750 H 605.72 -2.09214 -2.31595 0
M  V30 6751 N 606.021 0.929856 -1.27246 0
M  V30 6752 C 607.246 1.71674 -1.16374 0
M  V30 6753 C 607.671 1.86064 0.276024 0
M  V30 6754 O 607.029 1.3591 1.19992 0
M  V30 6755 C 607.077 3.09526 -1.85003 0
M  V30 6756 O 606.181 3.96142 -1.14653 0
M  V30 6757 H 605.522 0.52629 -0.404863 0
M  V30 6758 H 608.052 1.16381 -1.68276 0
M  V30 6759 H 608.062 3.59852 -1.92276 0
M  V30 6760 H 606.737 2.98369 -2.89739 0
M  V30 6761 H 605.314 3.54584 -1.15433 0
M  V30 6762 N 607.499 1.09233 1.13605 0
M  V30 6763 C 608.746 0.827159 1.84836 0
M  V30 6764 C 609.074 -0.647199 1.83416 0
M  V30 6765 O 608.329 -1.49228 1.26608 0
M  V30 6766 C 608.628 1.305 3.32723 0
M  V30 6767 C 608.294 2.78864 3.54325 0
M  V30 6768 C 606.956 3.19382 3.59928 0
M  V30 6769 C 609.308 3.74532 3.62457 0
M  V30 6770 C 606.636 4.54346 3.71196 0
M  V30 6771 C 608.988 5.09283 3.75252 0
M  V30 6772 C 607.652 5.49394 3.79108 0
M  V30 6773 H 606.922 0.302679 0.676363 0
M  V30 6774 H 609.569 1.36676 1.34134 0
M  V30 6775 H 607.874 0.68517 3.85762 0
M  V30 6776 H 609.571 1.07648 3.86281 0
M  V30 6777 H 606.161 2.46507 3.50617 0
M  V30 6778 H 610.345 3.44343 3.57409 0
M  V30 6779 H 605.601 4.84864 3.72447 0
M  V30 6780 H 609.775 5.83269 3.80487 0
M  V30 6781 H 607.402 6.5397 3.87591 0
M  V30 6782 N 608.977 -1.30795 0.87923 0
M  V30 6783 C 610.388 -1.78535 0.546093 0
M  V30 6784 C 610.739 -1.72354 -0.937467 0
M  V30 6785 O 609.864 -1.2969 -1.73233 0
M  V30 6786 C 610.459 -3.24181 0.9845 0
M  V30 6787 C 609.018 -3.69779 0.702871 0
M  V30 6788 C 608.165 -2.51377 1.17068 0
M  V30 6789 H 611.116 -1.17746 1.06403 0
M  V30 6790 H 611.137 -3.79227 0.311045 0
M  V30 6791 H 610.649 -3.28647 2.06429 0
M  V30 6792 H 608.75 -3.70806 -0.365166 0
M  V30 6793 H 608.863 -4.61507 1.28639 0
M  V30 6794 H 607.227 -2.47768 0.590172 0
M  V30 6795 H 608.01 -2.58584 2.25808 0
M  V30 6796 N 610.455 -0.639598 -1.44038 0
M  V30 6797 C 611.387 0.0987684 -2.28987 0
M  V30 6798 C 612.4 0.80058 -1.41755 0
M  V30 6799 O 613.589 0.660611 -1.65826 0
M  V30 6800 C 610.689 1.16242 -3.18341 0
M  V30 6801 C 609.862 0.541447 -4.34036 0
M  V30 6802 C 608.921 1.50017 -5.04362 0
M  V30 6803 O 607.947 1.01403 -5.60095 0
M  V30 6804 N 609.149 2.83441 -5.06598 0
M  V30 6805 H 611.914 -0.630305 -2.92997 0
M  V30 6806 H 609.475 -0.481376 -1.54578 0
M  V30 6807 H 611.467 1.80429 -3.62253 0
M  V30 6808 H 610.037 1.79362 -2.56024 0
M  V30 6809 H 609.257 -0.27923 -3.9321 0
M  V30 6810 H 610.545 0.107379 -5.08687 0
M  V30 6811 H 609.943 3.2551 -4.62666 0
M  V30 6812 H 608.5 3.42966 -5.54272 0
M  V30 6813 N 611.933 1.52934 -0.380664 0
M  V30 6814 C 613.161 2.05886 0.204599 0
M  V30 6815 C 613.576 1.25305 1.41223 0
M  V30 6816 O 612.933 0.297504 1.80059 0
M  V30 6817 C 612.984 3.56764 0.583249 0
M  V30 6818 O 612.705 4.34292 -0.576398 0
M  V30 6819 C 614.206 4.2603 1.2253 0
M  V30 6820 H 611.426 0.670193 0.0328991 0
M  V30 6821 H 613.97 1.97148 -0.543397 0
M  V30 6822 H 612.125 3.65603 1.28115 0
M  V30 6823 H 612.539 5.23819 -0.267119 0
M  V30 6824 H 614.013 5.32868 1.44068 0
M  V30 6825 H 614.49 3.80698 2.19011 0
M  V30 6826 H 615.096 4.21485 0.568407 0
M  V30 6827 N 613.412 0.11024 1.57214 0
M  V30 6828 C 614.823 -0.416527 1.81994 0
M  V30 6829 C 615.174 -1.67183 1.02686 0
M  V30 6830 O 614.299 -2.14823 0.260782 0
M  V30 6831 C 614.894 -0.762466 3.30109 0
M  V30 6832 C 613.453 -1.23391 3.556 0
M  V30 6833 C 612.6 -0.238166 2.76275 0
M  V30 6834 H 615.551 0.335491 1.55113 0
M  V30 6835 H 615.572 -1.62068 3.44259 0
M  V30 6836 H 615.084 0.151346 3.87805 0
M  V30 6837 H 613.185 -2.16492 3.03253 0
M  V30 6838 H 613.298 -1.18528 4.64207 0
M  V30 6839 H 611.662 -0.723421 2.4421 0
M  V30 6840 H 612.445 0.668591 3.36727 0
M  V30 6841 N 614.89 -1.56749 -0.16351 0
M  V30 6842 C 615.8 -2.00255 -1.2221 0
M  V30 6843 C 616.816 -0.915194 -1.47987 0
M  V30 6844 O 617.992 -1.22342 -1.59982 0
M  V30 6845 C 615.057 -2.36035 -2.53946 0
M  V30 6846 C 614.118 -3.58637 -2.35962 0
M  V30 6847 C 613.351 -3.92701 -3.61416 0
M  V30 6848 O 613.574 -3.27632 -4.66919 0
M  V30 6849 O 612.508 -4.86019 -3.55062 0
M  V30 6850 H 616.334 -2.90586 -0.882794 0
M  V30 6851 H 613.919 -1.44721 -0.370978 0
M  V30 6852 H 615.801 -2.59982 -3.31643 0
M  V30 6853 H 614.476 -1.48863 -2.8744 0
M  V30 6854 H 613.383 -3.39898 -1.5627 0
M  V30 6855 H 614.716 -4.46374 -2.0739 0
M  V30 6856 N 616.368 0.432326 -1.51554 0
M  V30 6857 C 617.614 1.18309 -1.64714 0
M  V30 6858 C 617.947 1.90745 -0.364696 0
M  V30 6859 O 617.222 1.8381 0.635936 0
M  V30 6860 C 617.505 2.1961 -2.85383 0
M  V30 6861 C 617.358 1.51223 -4.23617 0
M  V30 6862 C 618.677 3.20538 -3.01569 0
M  V30 6863 H 615.796 0.428751 -0.599451 0
M  V30 6864 H 618.438 0.471689 -1.84052 0
M  V30 6865 H 616.588 2.8028 -2.69027 0
M  V30 6866 H 618.26 0.938516 -4.51652 0
M  V30 6867 H 616.503 0.814501 -4.26085 0
M  V30 6868 H 617.174 2.25024 -5.04052 0
M  V30 6869 H 619.65 2.69926 -3.16669 0
M  V30 6870 H 618.526 3.88706 -3.87555 0
M  V30 6871 H 618.787 3.86933 -2.13859 0
M  V30 6872 N 617.846 1.41785 0.688094 0
M  V30 6873 C 619.262 1.24419 0.999608 0
M  V30 6874 C 619.462 0.138868 2.01021 0
M  V30 6875 O 618.518 -0.494283 2.47615 0
M  V30 6876 C 619.831 2.59625 1.51709 0
M  V30 6877 C 621.379 2.66869 1.63554 0
M  V30 6878 C 621.854 4.0241 2.18702 0
M  V30 6879 N 623.345 4.04295 2.26053 0
M  V30 6880 C 624.08 5.05977 2.69768 0
M  V30 6881 N 623.576 6.18047 3.13033 0
M  V30 6882 N 625.369 4.93336 2.69398 0
M  V30 6883 H 617.52 2.12392 0.0187427 0
M  V30 6884 H 619.783 0.945347 0.0708673 0
M  V30 6885 H 619.489 3.41297 0.849059 0
M  V30 6886 H 619.363 2.82628 2.49803 0
M  V30 6887 H 621.75 1.8555 2.29467 0
M  V30 6888 H 621.831 2.47668 0.639857 0
M  V30 6889 H 621.475 4.8418 1.53402 0
M  V30 6890 H 621.405 4.18955 3.19037 0
M  V30 6891 H 623.896 3.23383 1.9553 0
M  V30 6892 H 624.209 6.91498 3.45038 0
M  V30 6893 H 622.554 6.21572 3.10923 0
M  V30 6894 H 625.745 4.04865 2.34952 0
M  V30 6895 H 625.918 5.72717 3.03148 0
M  V30 6896 N 619.324 -0.923095 1.27737 0
M  V30 6897 C 620.271 -2.02432 1.1086 0
M  V30 6898 C 621.241 -1.66098 0.00835195 0
M  V30 6899 O 622.426 -1.90027 0.171542 0
M  V30 6900 C 619.566 -3.36476 0.766671 0
M  V30 6901 C 618.679 -3.85737 1.94501 0
M  V30 6902 C 617.814 -5.08249 1.54455 0
M  V30 6903 C 616.853 -5.49818 2.6901 0
M  V30 6904 N 615.99 -6.63524 2.29521 0
M  V30 6905 H 620.83 -2.16201 2.05089 0
M  V30 6906 H 618.367 -1.05909 1.02087 0
M  V30 6907 H 620.325 -4.13569 0.549223 0
M  V30 6908 H 618.955 -3.22502 -0.13867 0
M  V30 6909 H 618.007 -3.04883 2.27487 0
M  V30 6910 H 619.319 -4.12513 2.80419 0
M  V30 6911 H 618.473 -5.92857 1.28862 0
M  V30 6912 H 617.212 -4.83261 0.656534 0
M  V30 6913 H 616.217 -4.63757 2.95313 0
M  V30 6914 H 617.442 -5.76799 3.5844 0
M  V30 6915 H 615.388 -6.40185 1.43177 0
M  V30 6916 H 615.305 -6.89978 3.08977 0
M  V30 6917 H 616.573 -7.51461 2.07187 0
M  V30 6918 N 620.802 -1.09834 -1.13024 0
M  V30 6919 C 621.735 -0.685453 -2.17662 0
M  V30 6920 C 622.713 0.310142 -1.59615 0
M  V30 6921 O 623.897 0.21052 -1.87321 0
M  V30 6922 C 621.024 -0.0104476 -3.38698 0
M  V30 6923 C 620.07 -0.968522 -4.15358 0
M  V30 6924 S 620.903 -2.48272 -4.74469 0
M  V30 6925 C 622.059 -1.82025 -5.98847 0
M  V30 6926 H 622.292 -1.57187 -2.52348 0
M  V30 6927 H 619.825 -0.914728 -1.24387 0
M  V30 6928 H 621.783 0.372694 -4.08805 0
M  V30 6929 H 620.444 0.852673 -3.02305 0
M  V30 6930 H 619.637 -0.443373 -5.02046 0
M  V30 6931 H 619.239 -1.29327 -3.50928 0
M  V30 6932 H 621.531 -1.14678 -6.67724 0
M  V30 6933 H 622.474 -2.66645 -6.55977 0
M  V30 6934 H 622.882 -1.2874 -5.49624 0
M  V30 6935 N 622.28 1.30327 -0.886154 0
M  V30 6936 C 623.696 1.48676 -0.580323 0
M  V30 6937 C 623.896 1.81189 0.881639 0
M  V30 6938 O 622.952 1.90021 1.66278 0
M  V30 6939 C 624.265 2.60932 -1.49449 0
M  V30 6940 C 625.813 2.74812 -1.49824 0
M  V30 6941 C 626.288 3.90183 -2.39836 0
M  V30 6942 N 627.779 3.97495 -2.37806 0
M  V30 6943 C 628.514 4.86078 -3.04165 0
M  V30 6944 N 628.01 5.79448 -3.79753 0
M  V30 6945 N 629.803 4.79456 -2.93391 0
M  V30 6946 H 621.954 1.07495 -1.8319 0
M  V30 6947 H 624.217 0.532661 -0.784204 0
M  V30 6948 H 623.923 2.43731 -2.5355 0
M  V30 6949 H 623.797 3.57437 -1.20494 0
M  V30 6950 H 626.184 2.91418 -0.464731 0
M  V30 6951 H 626.265 1.78924 -1.82811 0
M  V30 6952 H 625.909 3.74334 -3.43273 0
M  V30 6953 H 625.839 4.85411 -2.04166 0
M  V30 6954 H 628.33 3.30703 -1.82877 0
M  V30 6955 H 628.643 6.43805 -4.27475 0
M  V30 6956 H 626.988 5.79376 -3.8386 0
M  V30 6957 H 630.179 4.05494 -2.33864 0
M  V30 6958 H 630.352 5.48283 -3.45383 0
M  V30 6959 N 623.758 0.647228 1.43697 0
M  V30 6960 C 624.983 0.164083 2.0675 0
M  V30 6961 C 625.408 -1.15892 1.48158 0
M  V30 6962 O 624.766 -1.71459 0.589194 0
M  V30 6963 C 624.814 0.0800368 3.60511 0
M  V30 6964 O 623.918 -0.959453 4.01084 0
M  V30 6965 H 623.259 0.0921288 0.657578 0
M  V30 6966 H 625.789 0.88846 1.84303 0
M  V30 6967 H 625.799 -0.105263 4.07864 0
M  V30 6968 H 624.474 1.04586 4.02535 0
M  V30 6969 H 623.051 -0.747425 3.65333 0
M  V30 6970 N 625.236 -1.5273 0.388769 0
M  V30 6971 C 626.183 -2.26437 -0.446639 0
M  V30 6972 C 627.153 -1.28025 -1.05824 0
M  V30 6973 O 628.338 -1.56852 -1.08637 0
M  V30 6974 C 625.478 -3.07407 -1.56828 0
M  V30 6975 C 624.591 -4.20747 -0.979589 0
M  V30 6976 C 623.726 -4.89113 -2.07224 0
M  V30 6977 C 622.765 -5.94447 -1.45942 0
M  V30 6978 N 621.902 -6.56411 -2.49135 0
M  V30 6979 H 626.742 -2.97404 0.18837 0
M  V30 6980 H 624.279 -1.46727 0.104725 0
M  V30 6981 H 626.237 -3.52642 -2.22934 0
M  V30 6982 H 624.867 -2.3865 -2.17361 0
M  V30 6983 H 623.919 -3.7983 -0.208151 0
M  V30 6984 H 625.231 -4.9637 -0.491747 0
M  V30 6985 H 624.385 -5.3765 -2.81101 0
M  V30 6986 H 623.124 -4.13013 -2.59368 0
M  V30 6987 H 622.129 -5.4525 -0.705894 0
M  V30 6988 H 623.354 -6.7248 -0.945932 0
M  V30 6989 H 621.3 -5.83152 -3.00449 0
M  V30 6990 H 621.217 -7.27645 -2.05105 0
M  V30 6991 H 622.485 -7.09592 -3.22644 0
M  V30 6992 N 626.714 -0.118576 -1.57153 0
M  V30 6993 C 627.944 0.546466 -1.99242 0
M  V30 6994 C 628.352 1.60791 -0.997148 0
M  V30 6995 O 627.695 1.83691 0.0181745 0
M  V30 6996 C 627.757 1.23167 -3.37743 0
M  V30 6997 C 627.421 0.318226 -4.55891 0
M  V30 6998 C 628.418 -0.442988 -5.18009 0
M  V30 6999 C 626.103 0.229421 -5.01776 0
M  V30 7000 C 628.097 -1.28074 -6.244 0
M  V30 7001 C 625.784 -0.611966 -6.08028 0
M  V30 7002 C 626.782 -1.36568 -6.69207 0
M  V30 7003 O 626.47 -2.1931 -7.73407 0
M  V30 7004 H 626.202 0.149297 -0.659307 0
M  V30 7005 H 628.756 -0.201603 -2.04408 0
M  V30 7006 H 626.986 2.0268 -3.29329 0
M  V30 7007 H 628.675 1.79358 -3.64123 0
M  V30 7008 H 629.441 -0.38425 -4.83475 0
M  V30 7009 H 625.32 0.805771 -4.53903 0
M  V30 7010 H 628.864 -1.86952 -6.72082 0
M  V30 7011 H 624.761 -0.6721 -6.41991 0
M  V30 7012 H 625.529 -2.12247 -7.90502 0
M  V30 7013 N 628.193 1.56834 0.155195 0
M  V30 7014 C 629.609 1.51315 0.50755 0
M  V30 7015 C 629.809 0.825614 1.83809 0
M  V30 7016 O 628.865 0.39271 2.49427 0
M  V30 7017 C 630.178 2.96074 0.52542 0
M  V30 7018 C 631.726 3.06968 0.611505 0
M  V30 7019 C 632.201 4.53218 0.660115 0
M  V30 7020 N 633.692 4.5753 0.722564 0
M  V30 7021 C 634.427 5.68056 0.781023 0
M  V30 7022 N 633.923 6.88173 0.799327 0
M  V30 7023 N 635.716 5.56068 0.821278 0
M  V30 7024 H 627.867 1.9993 -0.717063 0
M  V30 7025 H 630.13 0.911507 -0.260496 0
M  V30 7026 H 629.836 3.49599 -0.383875 0
M  V30 7027 H 629.71 3.51587 1.36624 0
M  V30 7028 H 632.097 2.53468 1.51122 0
M  V30 7029 H 632.178 2.54513 -0.256306 0
M  V30 7030 H 631.822 5.07354 -0.23541 0
M  V30 7031 H 631.752 5.03447 1.5443 0
M  V30 7032 H 634.243 3.71054 0.716049 0
M  V30 7033 H 634.556 7.6816 0.845553 0
M  V30 7034 H 632.901 6.90751 0.767337 0
M  V30 7035 H 636.092 4.61142 0.804091 0
M  V30 7036 H 636.265 6.42223 0.863372 0
M  V30 7037 N 629.671 -0.424282 1.51781 0
M  V30 7038 C 630.618 -1.51591 1.74037 0
M  V30 7039 C 631.588 -1.55556 0.582358 0
M  V30 7040 O 632.773 -1.72364 0.818245 0
M  V30 7041 C 629.913 -2.89188 1.8832 0
M  V30 7042 C 629.026 -2.9465 3.1592 0
M  V30 7043 C 628.161 -4.23452 3.20721 0
M  V30 7044 C 627.2 -4.22831 4.42584 0
M  V30 7045 N 626.337 -5.43178 4.44862 0
M  V30 7046 H 631.177 -1.31917 2.67212 0
M  V30 7047 H 628.714 -0.640599 1.32419 0
M  V30 7048 H 630.672 -3.69044 1.94583 0
M  V30 7049 H 629.302 -3.07392 0.985402 0
M  V30 7050 H 628.354 -2.07378 3.18902 0
M  V30 7051 H 629.666 -2.90055 4.05795 0
M  V30 7052 H 628.82 -5.1169 3.25973 0
M  V30 7053 H 627.559 -4.30722 2.28757 0
M  V30 7054 H 626.564 -3.32984 4.37495 0
M  V30 7055 H 627.789 -4.17213 5.35826 0
M  V30 7056 H 625.735 -5.51145 3.55775 0
M  V30 7057 H 625.652 -5.40515 5.28563 0
M  V30 7058 H 626.92 -6.33412 4.54324 0
M  V30 7059 N 631.149 -1.42148 -0.680565 0
M  V30 7060 C 632.397 -1.42029 -1.43779 0
M  V30 7061 C 632.718 -0.0356347 -1.94967 0
M  V30 7062 O 631.988 0.924936 -1.7269 0
M  V30 7063 H 630.568 -0.522835 -0.533529 0
M  V30 7064 H 633.23 -1.7752 -0.804538 0
M  V30 7065 H 632.326 -2.11658 -2.29363 0
M  V30 7066 N 632.627 0.916307 -1.28225 0
M  V30 7067 C 633.537 2.05165 -1.13775 0
M  V30 7068 C 634.553 1.73879 -0.0649418 0
M  V30 7069 O 635.729 1.99531 -0.273722 0
M  V30 7070 C 632.794 3.37385 -0.798267 0
M  V30 7071 C 631.855 3.82296 -1.95316 0
M  V30 7072 C 631.088 5.08206 -1.62978 0
M  V30 7073 O 631.311 5.6781 -0.542948 0
M  V30 7074 O 630.245 5.48768 -2.47261 0
M  V30 7075 H 634.071 2.20273 -2.09078 0
M  V30 7076 H 631.656 1.0373 -1.07519 0
M  V30 7077 H 633.538 4.16773 -0.62278 0
M  V30 7078 H 632.213 3.23458 0.125139 0
M  V30 7079 H 631.12 3.03746 -2.18378 0
M  V30 7080 H 632.453 4.00782 -2.85718 0
M  V30 7081 N 634.105 1.10431 1.1244 0
M  V30 7082 C 635.354 0.841539 1.83306 0
M  V30 7083 C 635.667 -0.634961 1.85007 0
M  V30 7084 O 636.873 -1.01363 2.51869 0
M  V30 7085 C 635.329 1.45565 3.29149 0
M  V30 7086 C 634.937 2.96544 3.35806 0
M  V30 7087 C 636.681 1.27227 4.04986 0
M  V30 7088 C 634.588 3.5099 4.75983 0
M  V30 7089 H 633.518 0.311156 0.686803 0
M  V30 7090 H 636.169 1.32829 1.26604 0
M  V30 7091 H 634.551 0.896574 3.85717 0
M  V30 7092 H 635.725 3.58766 2.89177 0
M  V30 7093 H 634.04 3.14036 2.73442 0
M  V30 7094 H 636.637 1.65348 5.08492 0
M  V30 7095 H 636.98 0.213834 4.1575 0
M  V30 7096 H 637.513 1.79941 3.54776 0
M  V30 7097 H 634.252 4.56499 4.70413 0
M  V30 7098 H 633.772 2.93535 5.23065 0
M  V30 7099 H 635.451 3.48808 5.44924 0
M  V30 7100 N 635.583 -1.29855 0.893053 0
M  V30 7101 C 636.808 -2.00512 0.530066 0
M  V30 7102 C 637.233 -1.66446 -0.876199 0
M  V30 7103 O 636.591 -0.885446 -1.58207 0
M  V30 7104 C 636.639 -3.53308 0.721505 0
M  V30 7105 O 635.743 -4.11764 -0.228994 0
M  V30 7106 H 635.084 -0.630617 0.207891 0
M  V30 7107 H 637.614 -1.6551 1.20282 0
M  V30 7108 H 637.624 -4.03206 0.623599 0
M  V30 7109 H 636.299 -3.77439 1.74678 0
M  V30 7110 H 634.876 -3.72805 -0.0841034 0
M  V30 7111 N 637.061 -0.65484 -1.43351 0
M  V30 7112 C 638.008 0.0357713 -2.30772 0
M  V30 7113 C 638.978 0.813035 -1.44841 0
M  V30 7114 O 640.163 0.789314 -1.73708 0
M  V30 7115 C 637.303 0.995084 -3.30442 0
M  V30 7116 C 636.416 0.21375 -4.31471 0
M  V30 7117 C 635.551 1.16701 -5.18222 0
M  V30 7118 C 634.59 0.376201 -6.10943 0
M  V30 7119 N 633.727 1.28113 -6.90313 0
M  V30 7120 H 638.567 -0.71559 -2.89281 0
M  V30 7121 H 636.104 -0.364645 -1.42509 0
M  V30 7122 H 638.062 1.5649 -3.86739 0
M  V30 7123 H 636.692 1.7133 -2.7358 0
M  V30 7124 H 635.744 -0.472377 -3.77456 0
M  V30 7125 H 637.056 -0.401103 -4.97185 0
M  V30 7126 H 636.21 1.8074 -5.79153 0
M  V30 7127 H 634.949 1.81577 -4.52638 0
M  V30 7128 H 633.954 -0.277534 -5.49099 0
M  V30 7129 H 635.179 -0.268178 -6.7857 0
M  V30 7130 H 633.125 1.91666 -6.27376 0
M  V30 7131 H 633.042 0.720879 -7.52555 0
M  V30 7132 H 634.31 1.90962 -7.55747 0
M  V30 7133 N 638.539 1.52521 -0.396863 0
M  V30 7134 C 639.449 2.30403 0.44178 0
M  V30 7135 C 640.465 1.37625 1.06468 0
M  V30 7136 O 641.641 1.70697 1.06886 0
M  V30 7137 C 638.706 3.1013 1.54986 0
M  V30 7138 C 637.767 4.18628 0.951279 0
M  V30 7139 C 637 4.94543 2.00655 0
M  V30 7140 O 637.223 4.70629 3.22281 0
M  V30 7141 O 636.157 5.797 1.61962 0
M  V30 7142 H 639.983 3.03087 -0.192892 0
M  V30 7143 H 637.568 1.48537 -0.16038 0
M  V30 7144 H 639.45 3.59816 2.19341 0
M  V30 7145 H 638.125 2.40251 2.16935 0
M  V30 7146 H 637.032 3.73119 0.270773 0
M  V30 7147 H 638.365 4.90763 0.375887 0
M  V30 7148 N 640.017 0.126909 1.57088 0
M  V30 7149 C 640.927 -0.833867 2.1928 0
M  V30 7150 C 641.943 -1.2868 1.17122 0
M  V30 7151 O 643.119 -1.34815 1.49622 0
M  V30 7152 C 640.184 -2.0632 2.78627 0
M  V30 7153 C 639.245 -1.66143 3.95847 0
M  V30 7154 C 638.478 -2.83217 4.52354 0
M  V30 7155 O 638.701 -3.98868 4.0775 0
M  V30 7156 O 637.635 -2.59846 5.42922 0
M  V30 7157 H 641.461 -0.334564 3.01852 0
M  V30 7158 H 639.046 -0.0991091 1.49071 0
M  V30 7159 H 640.928 -2.78304 3.16425 0
M  V30 7160 H 639.603 -2.55242 1.99082 0
M  V30 7161 H 638.51 -0.912435 3.62802 0
M  V30 7162 H 639.843 -1.21957 4.76852 0
M  V30 7163 N 641.495 -1.56914 -0.146875 0
M  V30 7164 C 642.725 -1.87243 -0.873126 0
M  V30 7165 C 643.133 -0.713127 -1.75246 0
M  V30 7166 O 642.476 0.326228 -1.8078 0
M  V30 7167 C 642.538 -3.12279 -1.78107 0
M  V30 7168 C 642.202 -4.44082 -1.07889 0
M  V30 7169 C 643.199 -5.18096 -0.432734 0
M  V30 7170 C 640.884 -4.90807 -1.06836 0
M  V30 7171 C 642.878 -6.37039 0.214569 0
M  V30 7172 C 640.565 -6.09674 -0.417243 0
M  V30 7173 C 641.563 -6.82636 0.223093 0
M  V30 7174 O 641.251 -7.99245 0.863884 0
M  V30 7175 H 640.983 -0.624896 -0.257839 0
M  V30 7176 H 643.537 -2.04892 -0.14434 0
M  V30 7177 H 641.767 -2.90639 -2.5508 0
M  V30 7178 H 643.456 -3.28854 -2.37929 0
M  V30 7179 H 644.222 -4.83066 -0.432677 0
M  V30 7180 H 640.101 -4.3394 -1.55618 0
M  V30 7181 H 643.645 -6.93927 0.714965 0
M  V30 7182 H 639.542 -6.44165 -0.414967 0
M  V30 7183 H 640.31 -8.14912 0.765564 0
M  V30 7184 N 642.974 0.416227 -1.52004 0
M  V30 7185 C 643.884 1.53147 -1.77717 0
M  V30 7186 C 644.9 1.609 -0.662368 0
M  V30 7187 O 646.076 1.77747 -0.946991 0
M  V30 7188 C 643.141 2.88948 -1.91598 0
M  V30 7189 C 642.202 2.9114 -3.15493 0
M  V30 7190 C 641.435 4.20464 -3.28703 0
M  V30 7191 O 641.658 5.13981 -2.47345 0
M  V30 7192 O 640.592 4.29368 -4.21813 0
M  V30 7193 H 644.418 1.34357 -2.72363 0
M  V30 7194 H 642.003 0.601373 -1.36762 0
M  V30 7195 H 643.885 3.69505 -2.02593 0
M  V30 7196 H 642.56 3.07821 -1.00141 0
M  V30 7197 H 641.467 2.09461 -3.09962 0
M  V30 7198 H 642.8 2.77216 -4.06709 0
M  V30 7199 N 644.452 1.42507 0.673017 0
M  V30 7200 C 645.415 1.4582 1.76831 0
M  V30 7201 C 646.415 0.345542 1.57043 0
M  V30 7202 O 647.605 0.606447 1.63303 0
M  V30 7203 C 644.737 1.29158 3.15485 0
M  V30 7204 H 645.93 2.43345 1.7528 0
M  V30 7205 H 643.483 1.28981 0.882817 0
M  V30 7206 H 644.218 0.325626 3.22661 0
M  V30 7207 H 644.003 2.09797 3.31252 0
M  V30 7208 H 645.493 1.34363 3.95394 0
M  V30 7209 N 645.93 -0.909495 1.28709 0
M  V30 7210 C 647.177 -1.65905 1.16111 0
M  V30 7211 C 647.505 -1.92334 -0.289436 0
M  V30 7212 O 646.76 -1.52495 -1.22653 0
M  V30 7213 C 647.059 -3.02117 1.90945 0
M  V30 7214 C 646.725 -2.95332 3.40719 0
M  V30 7215 C 645.387 -2.93189 3.81567 0
M  V30 7216 C 647.739 -2.85264 4.36204 0
M  V30 7217 C 645.067 -2.78784 5.16233 0
M  V30 7218 C 647.419 -2.724 5.70948 0
M  V30 7219 C 646.083 -2.68617 6.11066 0
M  V30 7220 H 645.353 -0.60709 0.42488 0
M  V30 7221 H 648 -1.05932 1.59533 0
M  V30 7222 H 646.305 -3.65901 1.40085 0
M  V30 7223 H 648.002 -3.59026 1.7861 0
M  V30 7224 H 644.592 -2.97797 3.08245 0
M  V30 7225 H 648.776 -2.86005 4.05605 0
M  V30 7226 H 644.032 -2.74254 5.46438 0
M  V30 7227 H 648.206 -2.63579 6.44592 0
M  V30 7228 H 645.833 -2.57213 7.15364 0
M  V30 7229 N 647.408 -1.11026 -1.11852 0
M  V30 7230 C 648.657 -0.851249 -1.82857 0
M  V30 7231 C 648.97 0.62514 -1.85341 0
M  V30 7232 O 650.176 1.00026 -2.52403 0
M  V30 7233 C 648.632 -1.47309 -3.28372 0
M  V30 7234 C 648.24 -2.9832 -3.34229 0
M  V30 7235 C 649.984 -1.29373 -4.04306 0
M  V30 7236 C 647.891 -3.53509 -4.74115 0
M  V30 7237 H 646.821 -0.314794 -0.685143 0
M  V30 7238 H 649.472 -1.33499 -1.25898 0
M  V30 7239 H 647.854 -0.917017 -3.85236 0
M  V30 7240 H 649.028 -3.60295 -2.87271 0
M  V30 7241 H 647.343 -3.15482 -2.71772 0
M  V30 7242 H 649.94 -1.68042 -5.07608 0
M  V30 7243 H 650.283 -0.235879 -4.15631 0
M  V30 7244 H 650.816 -1.8182 -3.53817 0
M  V30 7245 H 647.555 -4.58987 -4.67986 0
M  V30 7246 H 647.075 -2.96305 -5.21501 0
M  V30 7247 H 648.754 -3.51693 -5.43066 0
M  V30 7248 N 648.886 1.2938 -0.899927 0
M  V30 7249 C 649.833 2.27713 -0.376243 0
M  V30 7250 C 650.803 1.57016 0.541774 0
M  V30 7251 O 651.988 1.84997 0.466966 0
M  V30 7252 C 649.128 3.42889 0.39 0
M  V30 7253 C 648.241 4.28369 -0.558938 0
M  V30 7254 C 647.376 5.30726 0.224379 0
M  V30 7255 C 646.415 6.07862 -0.719068 0
M  V30 7256 N 645.552 7.02094 0.0298569 0
M  V30 7257 H 650.392 2.71888 -1.21988 0
M  V30 7258 H 647.929 1.33724 -0.612879 0
M  V30 7259 H 649.887 4.08443 0.850314 0
M  V30 7260 H 648.517 2.99743 1.19809 0
M  V30 7261 H 647.569 3.62986 -1.13777 0
M  V30 7262 H 648.881 4.82068 -1.2811 0
M  V30 7263 H 648.035 6.02098 0.745881 0
M  V30 7264 H 646.774 4.77759 0.979674 0
M  V30 7265 H 645.779 5.35353 -1.25207 0
M  V30 7266 H 647.004 6.62917 -1.4737 0
M  V30 7267 H 644.95 6.51496 0.767415 0
M  V30 7268 H 644.867 7.5335 -0.632391 0
M  V30 7269 H 646.135 7.77685 0.531615 0
M  V30 7270 N 650.364 0.662433 1.43002 0
M  V30 7271 C 651.274 -0.0239199 2.34588 0
M  V30 7272 C 652.29 -0.802255 1.54402 0
M  V30 7273 O 653.466 -0.747401 1.87018 0
M  V30 7274 C 650.531 -0.972098 3.32793 0
M  V30 7275 C 649.592 -0.189673 4.28881 0
M  V30 7276 C 648.825 -1.09269 5.22395 0
M  V30 7277 O 649.048 -2.33209 5.20547 0
M  V30 7278 O 647.982 -0.560136 5.99288 0
M  V30 7279 H 651.808 0.730171 2.94792 0
M  V30 7280 H 649.393 0.422635 1.43297 0
M  V30 7281 H 651.275 -1.51676 3.93157 0
M  V30 7282 H 649.95 -1.70626 2.75079 0
M  V30 7283 H 648.857 0.398794 3.71968 0
M  V30 7284 H 650.19 0.50511 4.89601 0
M  V30 7285 N 651.842 -1.52309 0.404946 0
M  V30 7286 C 652.774 -2.24579 -0.45791 0
M  V30 7287 C 653.787 -1.2739 -1.01369 0
M  V30 7288 O 654.976 -1.53363 -0.91335 0
M  V30 7289 C 652.076 -2.9608 -1.64893 0
M  V30 7290 C 651.249 -4.20106 -1.21777 0
M  V30 7291 C 650.308 -4.74468 -2.27523 0
M  V30 7292 O 649.334 -5.37157 -1.88285 0
M  V30 7293 N 650.536 -4.55678 -3.59635 0
M  V30 7294 H 653.301 -2.99265 0.161341 0
M  V30 7295 H 650.862 -1.60228 0.232107 0
M  V30 7296 H 652.854 -3.29344 -2.35191 0
M  V30 7297 H 651.424 -2.24606 -2.17419 0
M  V30 7298 H 650.644 -3.92704 -0.343071 0
M  V30 7299 H 651.932 -5.00658 -0.906596 0
M  V30 7300 H 651.33 -4.05673 -3.94266 0
M  V30 7301 H 649.887 -4.9339 -4.25922 0
M  V30 7302 N 653.32 -0.135238 -1.57019 0
M  V30 7303 C 654.569 0.518694 -1.94917 0
M  V30 7304 C 654.882 1.66783 -1.0219 0
M  V30 7305 O 656.088 2.38561 -1.29619 0
M  V30 7306 C 654.544 0.974123 -3.46466 0
M  V30 7307 C 654.152 -0.147439 -4.47757 0
M  V30 7308 C 655.896 1.59851 -3.93253 0
M  V30 7309 C 653.803 0.325599 -5.90503 0
M  V30 7310 H 652.733 0.19754 -0.727663 0
M  V30 7311 H 655.384 -0.217698 -1.82204 0
M  V30 7312 H 653.766 1.76542 -3.5447 0
M  V30 7313 H 654.94 -0.924122 -4.51438 0
M  V30 7314 H 653.255 -0.679496 -4.10818 0
M  V30 7315 H 655.852 1.96385 -4.9733 0
M  V30 7316 H 656.195 2.48306 -3.3414 0
M  V30 7317 H 656.728 0.872323 -3.88118 0
M  V30 7318 H 653.467 -0.523295 -6.53408 0
M  V30 7319 H 652.987 1.06841 -5.90208 0
M  V30 7320 H 654.666 0.781498 -6.42263 0
M  V30 7321 N 654.798 1.5699 0.138552 0
M  V30 7322 C 655.745 1.98899 1.17081 0
M  V30 7323 C 656.715 0.857922 1.42228 0
M  V30 7324 O 657.9 1.12065 1.54422 0
M  V30 7325 C 655.04 2.38189 2.4972 0
M  V30 7326 C 654.153 3.64624 2.31674 0
M  V30 7327 C 653.288 3.9298 3.57407 0
M  V30 7328 C 652.327 5.1266 3.34435 0
M  V30 7329 N 651.464 5.36983 4.5232 0
M  V30 7330 H 656.304 2.86881 0.80642 0
M  V30 7331 H 653.841 1.41925 0.386727 0
M  V30 7332 H 655.799 2.59 3.2707 0
M  V30 7333 H 654.429 1.53275 2.84089 0
M  V30 7334 H 653.481 3.51542 1.45337 0
M  V30 7335 H 654.793 4.52131 2.10664 0
M  V30 7336 H 653.947 4.14335 4.43183 0
M  V30 7337 H 652.686 3.03912 3.8143 0
M  V30 7338 H 651.691 4.9117 2.47048 0
M  V30 7339 H 652.916 6.03288 3.11802 0
M  V30 7340 H 650.862 4.50871 4.76499 0
M  V30 7341 H 650.779 6.18775 4.34343 0
M  V30 7342 H 652.047 5.62842 5.39285 0
M  V30 7343 N 656.276 -0.40816 1.52223 0
M  V30 7344 C 657.223 -1.49737 1.75635 0
M  V30 7345 C 658.193 -1.5493 0.598824 0
M  V30 7346 O 659.378 -1.71487 0.83648 0
M  V30 7347 C 656.518 -2.87174 1.91376 0
M  V30 7348 C 655.631 -2.91283 3.19027 0
M  V30 7349 C 654.766 -4.20026 3.25195 0
M  V30 7350 C 653.805 -4.18113 4.47044 0
M  V30 7351 N 652.942 -5.38429 4.50598 0
M  V30 7352 H 657.782 -1.29075 2.68596 0
M  V30 7353 H 655.319 -0.626518 1.33091 0
M  V30 7354 H 657.277 -3.66959 1.98486 0
M  V30 7355 H 655.907 -3.06329 1.01795 0
M  V30 7356 H 654.959 -2.03984 3.21084 0
M  V30 7357 H 656.271 -2.85734 4.08849 0
M  V30 7358 H 655.425 -5.08204 3.31382 0
M  V30 7359 H 654.164 -4.28271 2.33313 0
M  V30 7360 H 653.169 -3.28325 4.41002 0
M  V30 7361 H 654.394 -4.11507 5.40221 0
M  V30 7362 H 652.34 -5.4734 3.616 0
M  V30 7363 H 652.257 -5.34879 5.34266 0
M  V30 7364 H 653.525 -6.28557 4.61016 0
M  V30 7365 N 657.755 -1.42862 -0.66545 0
M  V30 7366 C 658.718 -1.46756 -1.76055 0
M  V30 7367 C 659.718 -0.353866 -1.56858 0
M  V30 7368 O 660.908 -0.615099 -1.62979 0
M  V30 7369 C 658.04 -1.30829 -3.14796 0
M  V30 7370 H 659.233 -2.44271 -1.73987 0
M  V30 7371 H 656.786 -1.29447 -0.875965 0
M  V30 7372 H 657.521 -0.342733 -3.22484 0
M  V30 7373 H 657.306 -2.11551 -3.30134 0
M  V30 7374 H 658.796 -1.36458 -3.94676 0
M  V30 7375 N 659.233 0.902656 -1.29189 0
M  V30 7376 C 660.482 1.6475 -1.16362 0
M  V30 7377 C 660.795 1.93517 0.284682 0
M  V30 7378 O 662.001 2.66192 0.534229 0
M  V30 7379 C 660.457 2.96848 -2.03493 0
M  V30 7380 C 660.065 2.75687 -3.5313 0
M  V30 7381 C 661.809 3.74762 -1.99383 0
M  V30 7382 C 659.716 4.03492 -4.32375 0
M  V30 7383 H 658.646 0.618041 -0.431904 0
M  V30 7384 H 661.297 1.0008 -1.53806 0
M  V30 7385 H 659.679 3.62715 -1.58916 0
M  V30 7386 H 660.853 2.18431 -4.05739 0
M  V30 7387 H 659.168 2.11171 -3.58881 0
M  V30 7388 H 661.765 4.69515 -2.5585 0
M  V30 7389 H 662.108 4.04767 -0.973123 0
M  V30 7390 H 662.641 3.15732 -2.41988 0
M  V30 7391 H 659.38 3.78656 -5.3507 0
M  V30 7392 H 658.9 4.60318 -3.84535 0
M  V30 7393 H 660.579 4.71662 -4.42881 0
M  V30 7394 N 660.711 1.11618 1.11262 0
M  V30 7395 C 661.621 0.78898 2.20935 0
M  V30 7396 C 662.637 -0.21867 1.7262 0
M  V30 7397 O 663.813 -0.0543826 2.01327 0
M  V30 7398 C 660.878 0.239014 3.45875 0
M  V30 7399 C 659.939 1.3055 4.08968 0
M  V30 7400 C 659.172 0.781687 5.27944 0
M  V30 7401 O 659.395 -0.387605 5.69082 0
M  V30 7402 O 658.329 1.54734 5.81671 0
M  V30 7403 H 662.155 1.70477 2.51339 0
M  V30 7404 H 659.74 0.892203 1.19834 0
M  V30 7405 H 661.622 -0.0632312 4.21353 0
M  V30 7406 H 660.297 -0.649454 3.17118 0
M  V30 7407 H 659.204 1.66079 3.35214 0
M  V30 7408 H 660.537 2.16743 4.41909 0
M  V30 7409 N 662.189 -1.289 0.906776 0
M  V30 7410 C 663.119 -2.29932 0.406659 0
M  V30 7411 C 664.1 -1.6189 -0.522061 0
M  V30 7412 O 665.285 -1.8935 -0.431283 0
M  V30 7413 C 662.415 -3.45425 -0.360366 0
M  V30 7414 C 661.369 -4.25316 0.478574 0
M  V30 7415 C 660.695 -5.33076 -0.416373 0
M  V30 7416 C 661.995 -4.92739 1.7322 0
M  V30 7417 H 663.689 -2.72013 1.25097 0
M  V30 7418 H 661.235 -1.30768 0.602977 0
M  V30 7419 H 663.188 -4.15186 -0.721029 0
M  V30 7420 H 661.912 -3.02206 -1.23852 0
M  V30 7421 H 660.571 -3.57273 0.821662 0
M  V30 7422 H 660.219 -4.86101 -1.29287 0
M  V30 7423 H 659.919 -5.8743 0.141309 0
M  V30 7424 H 661.443 -6.05686 -0.773072 0
M  V30 7425 H 662.857 -5.54898 1.44086 0
M  V30 7426 H 661.254 -5.57057 2.23175 0
M  V30 7427 H 662.324 -4.17625 2.46408 0
M  V30 7428 N 663.667 -0.670007 -1.42649 0
M  V30 7429 C 664.599 0.0501746 -2.29145 0
M  V30 7430 C 665.612 0.770331 -1.43422 0
M  V30 7431 O 666.801 0.625288 -1.6719 0
M  V30 7432 C 663.901 1.09463 -3.20735 0
M  V30 7433 C 663.074 0.44926 -4.35087 0
M  V30 7434 C 662.133 1.39285 -5.07431 0
M  V30 7435 O 661.159 0.894997 -5.6212 0
M  V30 7436 N 662.361 2.72631 -5.12496 0
M  V30 7437 H 665.126 -0.692312 -2.91594 0
M  V30 7438 H 662.687 -0.514056 -1.53522 0
M  V30 7439 H 664.679 1.72705 -3.65999 0
M  V30 7440 H 663.249 1.73891 -2.59771 0
M  V30 7441 H 662.469 -0.362573 -3.92529 0
M  V30 7442 H 663.757 -0.000544776 -5.088 0
M  V30 7443 H 663.155 3.15623 -4.69467 0
M  V30 7444 H 661.712 3.31132 -5.61422 0
M  V30 7445 N 665.145 1.52092 -0.413018 0
M  V30 7446 C 666.055 2.30858 0.417318 0
M  V30 7447 C 667.071 1.38746 1.05003 0
M  V30 7448 O 668.247 1.71821 1.05069 0
M  V30 7449 C 665.312 3.11756 1.51687 0
M  V30 7450 C 664.373 4.19613 0.906825 0
M  V30 7451 C 663.606 4.96644 1.95399 0
M  V30 7452 O 663.829 4.7402 3.17271 0
M  V30 7453 O 662.763 5.81385 1.55805 0
M  V30 7454 H 666.589 3.02865 -0.225028 0
M  V30 7455 H 664.174 1.48358 -0.176126 0
M  V30 7456 H 666.056 3.62122 2.15512 0
M  V30 7457 H 664.731 2.42539 2.14375 0
M  V30 7458 H 663.638 3.73385 0.231183 0
M  V30 7459 H 664.971 4.91134 0.323814 0
M  V30 7460 N 666.623 0.143563 1.56945 0
M  V30 7461 C 667.533 -0.810562 2.20152 0
M  V30 7462 C 668.549 -1.27431 1.1848 0
M  V30 7463 O 669.725 -1.33221 1.51044 0
M  V30 7464 C 666.79 -2.03353 2.80799 0
M  V30 7465 C 665.851 -1.61936 3.97587 0
M  V30 7466 C 665.084 -2.78403 4.55332 0
M  V30 7467 O 665.307 -3.94521 4.11958 0
M  V30 7468 O 664.241 -2.54073 5.45647 0
M  V30 7469 H 668.067 -0.30253 3.02189 0
M  V30 7470 H 665.652 -0.0832925 1.49168 0
M  V30 7471 H 667.534 -2.74932 3.19359 0
M  V30 7472 H 666.209 -2.53116 2.01777 0
M  V30 7473 H 665.116 -0.873904 3.6375 0
M  V30 7474 H 666.449 -1.16892 4.78118 0
M  V30 7475 N 668.101 -1.57061 -0.130224 0
M  V30 7476 C 669.35 -1.83446 -0.838488 0
M  V30 7477 C 669.663 -0.727468 -1.81569 0
M  V30 7478 O 670.869 -0.877394 -2.56932 0
M  V30 7479 C 669.325 -3.25201 -1.54182 0
M  V30 7480 C 668.933 -4.4388 -0.606178 0
M  V30 7481 C 670.677 -3.60844 -2.23588 0
M  V30 7482 C 668.584 -5.76661 -1.31209 0
M  V30 7483 H 667.514 -0.684185 -0.316871 0
M  V30 7484 H 670.165 -1.83273 -0.0912059 0
M  V30 7485 H 668.547 -3.1981 -2.33533 0
M  V30 7486 H 669.721 -4.60545 0.153308 0
M  V30 7487 H 668.036 -4.16395 -0.0196705 0
M  V30 7488 H 670.633 -4.57313 -2.77072 0
M  V30 7489 H 670.976 -2.87724 -3.00867 0
M  V30 7490 H 671.509 -3.67971 -1.51137 0
M  V30 7491 H 668.248 -6.52922 -0.580823 0
M  V30 7492 H 667.768 -5.63902 -2.04387 0
M  V30 7493 H 669.447 -6.20035 -1.8484 0
M  V30 7494 N 669.579 0.400081 -1.52437 0
M  V30 7495 C 670.827 1.14392 -1.6661 0
M  V30 7496 C 671.148 1.90792 -0.402927 0
M  V30 7497 O 670.418 1.87042 0.582425 0
M  V30 7498 H 668.998 0.425275 -0.614125 0
M  V30 7499 H 671.66 0.455076 -1.89513 0
M  V30 7500 H 670.756 1.85298 -2.51139 0
M  V30 7501 N 671.057 1.43213 0.657864 0
M  V30 7502 C 671.987 1.50815 1.78262 0
M  V30 7503 C 672.968 0.363211 1.66177 0
M  V30 7504 O 674.153 0.579806 1.85343 0
M  V30 7505 C 671.283 1.42625 3.16663 0
M  V30 7506 C 670.237 2.5532 3.43505 0
M  V30 7507 C 669.563 2.32184 4.81658 0
M  V30 7508 C 670.863 3.97583 3.38711 0
M  V30 7509 H 672.557 2.44954 1.72157 0
M  V30 7510 H 670.103 1.17896 0.82683 0
M  V30 7511 H 672.056 1.46548 3.95097 0
M  V30 7512 H 670.78 0.449877 3.23487 0
M  V30 7513 H 669.439 2.50742 2.6744 0
M  V30 7514 H 669.087 1.32801 4.85153 0
M  V30 7515 H 668.787 3.07724 5.00579 0
M  V30 7516 H 670.311 2.37883 5.62356 0
M  V30 7517 H 671.725 4.03673 4.07089 0
M  V30 7518 H 670.122 4.73112 3.69168 0
M  V30 7519 H 671.192 4.23049 2.36976 0
M  V30 7520 N 672.536 -0.895792 1.29666 0
M  V30 7521 C 673.813 -1.62723 1.08538 0
M  V30 7522 C 674.193 -2.07848 -0.369119 0
M  V30 7523 O 673.541 -1.8372 -1.35864 0
M  V30 7524 C 673.751 -2.80505 2.07648 0
M  V30 7525 C 675.099 -3.51098 2.3878 0
M  V30 7526 O 676.123 -2.90679 2.05874 0
M  V30 7527 O 674.982 -4.60028 2.9502 0
M  V30 7528 H 672.076 -0.714692 0.416106 0
M  V30 7529 H 674.622 -0.943517 1.41053 0
M  V30 7530 H 673.394 -2.44386 3.05599 0
M  V30 7531 H 673.017 -3.5658 1.75887 0
M  V30 7532 N 674.014 -1.12206 -1.10668 0
M  V30 7533 C 675.26 -0.877172 -1.82848 0
M  V30 7534 C 675.593 0.595571 -1.84842 0
M  V30 7535 O 674.868 1.44013 -1.30731 0
M  V30 7536 C 675.151 -1.44957 -3.29635 0
M  V30 7537 C 675.004 -2.99051 -3.35989 0
M  V30 7538 C 676.323 -1.10714 -4.25946 0
M  V30 7539 H 673.442 -0.320103 -0.663854 0
M  V30 7540 H 676.084 -1.38827 -1.2972 0
M  V30 7541 H 674.234 -1.01488 -3.7501 0
M  V30 7542 H 675.906 -3.51182 -2.99113 0
M  V30 7543 H 674.149 -3.34705 -2.75962 0
M  V30 7544 H 674.82 -3.34194 -4.39339 0
M  V30 7545 H 677.296 -1.48254 -3.88793 0
M  V30 7546 H 676.172 -1.5343 -5.2702 0
M  V30 7547 H 676.433 -0.019 -4.42096 0
M  V30 7548 N 675.492 1.28418 -0.913599 0
M  V30 7549 C 676.422 2.29713 -0.418847 0
M  V30 7550 C 677.403 1.62165 0.513469 0
M  V30 7551 O 678.588 1.89576 0.421235 0
M  V30 7552 C 675.718 3.45612 0.342042 0
M  V30 7553 C 674.672 4.25056 -0.501123 0
M  V30 7554 C 673.998 5.3329 0.388097 0
M  V30 7555 C 675.298 4.91814 -1.75831 0
M  V30 7556 H 676.992 2.71346 -1.26538 0
M  V30 7557 H 674.538 1.30446 -0.609903 0
M  V30 7558 H 676.491 4.15562 0.699 0
M  V30 7559 H 675.215 3.02858 1.22248 0
M  V30 7560 H 673.874 3.56833 -0.840598 0
M  V30 7561 H 673.522 4.8678 1.26707 0
M  V30 7562 H 673.222 5.87347 -0.172459 0
M  V30 7563 H 674.746 6.06088 0.74094 0
M  V30 7564 H 676.16 5.54126 -1.47026 0
M  V30 7565 H 674.557 5.55866 -2.26126 0
M  V30 7566 H 675.627 4.16313 -2.4862 0
M  V30 7567 N 676.97 0.677563 1.42291 0
M  V30 7568 C 678.216 0.201272 2.01799 0
M  V30 7569 C 678.549 -1.19004 1.53465 0
M  V30 7570 O 677.824 -1.79953 0.738039 0
M  V30 7571 C 678.107 0.238968 3.59306 0
M  V30 7572 C 677.96 1.66594 4.17812 0
M  V30 7573 C 679.279 -0.411287 4.38174 0
M  V30 7574 H 676.398 0.0746114 0.733214 0
M  V30 7575 H 679.04 0.862872 1.69276 0
M  V30 7576 H 677.19 -0.324368 3.87144 0
M  V30 7577 H 678.862 2.28173 4.00917 0
M  V30 7578 H 677.105 2.20576 3.73536 0
M  V30 7579 H 677.776 1.64398 5.26951 0
M  V30 7580 H 680.252 0.0682804 4.16044 0
M  V30 7581 H 679.128 -0.354286 5.47755 0
M  V30 7582 H 679.389 -1.4893 4.1626 0
M  V30 7583 N 678.448 -1.51871 0.421078 0
M  V30 7584 C 679.398 -2.24171 -0.416111 0
M  V30 7585 C 680.382 -1.25763 -1.00362 0
M  V30 7586 O 681.574 -1.5094 -0.924452 0
M  V30 7587 C 678.703 -3.07533 -1.52571 0
M  V30 7588 C 677.789 -4.1336 -0.948399 0
M  V30 7589 N 678.18 -5.05704 -0.0987933 0
M  V30 7590 C 676.478 -4.29055 -1.21768 0
M  V30 7591 C 677.179 -5.8127 0.223705 0
M  V30 7592 N 676.155 -5.4221 -0.388524 0
M  V30 7593 H 679.957 -2.92925 0.239166 0
M  V30 7594 H 677.471 -1.60732 0.232191 0
M  V30 7595 H 679.468 -3.57893 -2.13819 0
M  V30 7596 H 678.128 -2.4032 -2.18349 0
M  V30 7597 H 679.139 -5.17214 0.266428 0
M  V30 7598 H 675.816 -3.73071 -1.87416 0
M  V30 7599 H 677.206 -6.65653 0.914076 0
M  V30 7600 N 679.926 -0.151884 -1.56866 0
M  V30 7601 C 681.174 0.497021 -1.95893 0
M  V30 7602 C 681.495 1.65078 -1.03799 0
M  V30 7603 O 680.765 1.95642 -0.10049 0
M  V30 7604 H 679.345 0.186603 -0.723318 0
M  V30 7605 H 682.007 -0.228525 -1.93556 0
M  V30 7606 H 681.103 0.869933 -2.99731 0
M  V30 7607 N 681.404 1.57128 0.121893 0
M  V30 7608 C 682.314 2.03425 1.16857 0
M  V30 7609 C 683.33 0.954108 1.45509 0
M  V30 7610 O 684.506 1.26541 1.56682 0
M  V30 7611 C 681.571 2.42685 2.47599 0
M  V30 7612 C 680.632 3.64767 2.2637 0
M  V30 7613 C 679.865 4.02145 3.50878 0
M  V30 7614 O 680.088 3.39897 4.58068 0
M  V30 7615 O 679.022 4.95262 3.42051 0
M  V30 7616 H 682.848 2.92825 0.80544 0
M  V30 7617 H 680.433 1.45654 0.332477 0
M  V30 7618 H 682.315 2.68684 3.24634 0
M  V30 7619 H 680.99 1.56432 2.83392 0
M  V30 7620 H 679.897 3.43922 1.47203 0
M  V30 7621 H 681.23 4.51716 1.95482 0
M  V30 7622 N 682.882 -0.391992 1.52647 0
M  V30 7623 C 684.129 -1.13732 1.67545 0
M  V30 7624 C 684.457 -1.90045 0.413881 0
M  V30 7625 O 683.712 -1.86157 -0.603646 0
M  V30 7626 C 684.011 -2.14401 2.85949 0
M  V30 7627 C 683.677 -1.54767 4.23507 0
M  V30 7628 C 682.339 -1.38229 4.60919 0
M  V30 7629 C 684.691 -1.11382 5.0916 0
M  V30 7630 C 682.019 -0.7685 5.81645 0
M  V30 7631 C 684.371 -0.514143 6.30507 0
M  V30 7632 C 683.035 -0.33604 6.66654 0
M  V30 7633 H 682.305 -0.416174 0.613091 0
M  V30 7634 H 684.952 -0.422327 1.86785 0
M  V30 7635 H 683.257 -2.92108 2.61114 0
M  V30 7636 H 684.954 -2.71974 2.94671 0
M  V30 7637 H 681.544 -1.68626 3.94035 0
M  V30 7638 H 685.728 -1.22962 4.80826 0
M  V30 7639 H 680.984 -0.618681 6.08262 0
M  V30 7640 H 685.158 -0.169657 6.96193 0
M  V30 7641 H 682.785 0.14166 7.60068 0
M  V30 7642 N 684.36 -1.4356 -0.65026 0
M  V30 7643 C 685.27 -1.514 -1.79207 0
M  V30 7644 C 686.286 -0.400895 -1.69319 0
M  V30 7645 O 687.462 -0.655458 -1.90436 0
M  V30 7646 C 684.527 -1.43737 -3.155 0
M  V30 7647 C 683.588 -2.65743 -3.37163 0
M  V30 7648 C 682.821 -2.58436 -4.66954 0
M  V30 7649 O 683.044 -1.63374 -5.46503 0
M  V30 7650 O 681.978 -3.48984 -4.90402 0
M  V30 7651 H 685.804 -2.47825 -1.75547 0
M  V30 7652 H 683.389 -1.25594 -0.809111 0
M  V30 7653 H 685.271 -1.41916 -3.96784 0
M  V30 7654 H 683.946 -0.504488 -3.19745 0
M  V30 7655 H 682.853 -2.73136 -2.55632 0
M  V30 7656 H 684.186 -3.58014 -3.37768 0
M  V30 7657 N 685.838 0.888903 -1.30139 0
M  V30 7658 C 687.254 1.17153 -1.08385 0
M  V30 7659 C 687.454 2.0088 0.157925 0
M  V30 7660 O 686.51 2.37668 0.852652 0
M  V30 7661 C 687.823 1.882 -2.34523 0
M  V30 7662 C 689.371 2.00981 -2.39949 0
M  V30 7663 C 689.846 2.75441 -3.65918 0
M  V30 7664 N 691.337 2.82989 -3.66704 0
M  V30 7665 C 692.072 3.41167 -4.60861 0
M  V30 7666 N 691.568 4.00425 -5.6536 0
M  V30 7667 N 693.361 3.38944 -4.48412 0
M  V30 7668 H 685.512 0.33053 -2.09812 0
M  V30 7669 H 687.775 0.208964 -0.924683 0
M  V30 7670 H 687.481 1.34119 -3.25123 0
M  V30 7671 H 687.355 2.88609 -2.42868 0
M  V30 7672 H 689.742 2.54234 -1.4983 0
M  V30 7673 H 689.823 0.996725 -2.35582 0
M  V30 7674 H 689.467 2.22861 -4.56394 0
M  V30 7675 H 689.397 3.77118 -3.67546 0
M  V30 7676 H 691.888 2.40912 -2.91153 0
M  V30 7677 H 692.201 4.42871 -6.33313 0
M  V30 7678 H 690.546 3.98856 -5.69157 0
M  V30 7679 H 693.737 2.91875 -3.6596 0
M  V30 7680 H 693.91 3.83989 -5.21974 0
M  V30 7681 N 687.317 1.12792 1.10072 0
M  V30 7682 C 688.545 0.908506 1.85886 0
M  V30 7683 C 688.96 -0.542408 1.80841 0
M  V30 7684 O 688.317 -1.37517 1.1998 0
M  V30 7685 C 688.368 1.37973 3.34134 0
M  V30 7686 O 688.089 2.77378 3.39106 0
M  V30 7687 C 689.59 1.1978 4.26811 0
M  V30 7688 H 686.81 0.3244 0.587372 0
M  V30 7689 H 689.354 1.49882 1.39125 0
M  V30 7690 H 687.509 0.832566 3.78348 0
M  V30 7691 H 687.923 2.98144 4.31521 0
M  V30 7692 H 689.397 1.57635 5.29014 0
M  V30 7693 H 689.874 0.138768 4.38981 0
M  V30 7694 H 690.48 1.73266 3.88406 0
M  V30 7695 N 688.795 -1.27931 0.920396 0
M  V30 7696 C 690.072 -1.89728 0.475687 0
M  V30 7697 C 690.452 -1.8337 -1.04588 0
M  V30 7698 O 689.8 -1.27404 -1.89685 0
M  V30 7699 C 690.01 -3.33959 1.01354 0
M  V30 7700 C 691.358 -4.10907 1.06963 0
M  V30 7701 O 692.382 -3.42945 0.962646 0
M  V30 7702 O 691.241 -5.32399 1.23343 0
M  V30 7703 H 688.335 -0.81294 0.151845 0
M  V30 7704 H 690.881 -1.36252 1.01161 0
M  V30 7705 H 689.653 -3.32843 2.05746 0
M  V30 7706 H 689.276 -3.94944 0.458829 0
M  V30 7707 N 690.273 -0.685099 -1.4193 0
M  V30 7708 C 691.206 0.0371639 -2.2817 0
M  V30 7709 C 692.184 0.798436 -1.41647 0
M  V30 7710 O 693.368 0.791428 -1.71081 0
M  V30 7711 C 690.495 1.05993 -3.21688 0
M  V30 7712 C 689.541 0.393043 -4.24685 0
M  V30 7713 S 690.374 -0.856921 -5.28599 0
M  V30 7714 C 691.53 0.164508 -6.25684 0
M  V30 7715 H 691.763 -0.694305 -2.89079 0
M  V30 7716 H 689.296 -0.474999 -1.46912 0
M  V30 7717 H 691.254 1.64489 -3.76103 0
M  V30 7718 H 689.915 1.7639 -2.59895 0
M  V30 7719 H 689.108 1.16513 -4.90348 0
M  V30 7720 H 688.71 -0.118589 -3.73812 0
M  V30 7721 H 691.002 1.02106 -6.69762 0
M  V30 7722 H 691.945 -0.457917 -7.06618 0
M  V30 7723 H 692.353 0.514596 -5.6215 0
M  V30 7724 N 691.751 1.51645 -0.429126 0
M  V30 7725 C 692.997 2.02314 0.140286 0
M  V30 7726 C 693.33 1.31314 1.43074 0
M  V30 7727 O 692.605 0.425531 1.89788 0
M  V30 7728 C 692.888 3.5822 0.36749 0
M  V30 7729 C 692.741 4.39846 -0.941039 0
M  V30 7730 C 694.06 4.25055 1.14089 0
M  V30 7731 H 691.179 0.735335 0.0495112 0
M  V30 7732 H 693.821 1.81358 -0.566514 0
M  V30 7733 H 691.971 3.76207 0.969556 0
M  V30 7734 H 693.643 4.33527 -1.57646 0
M  V30 7735 H 691.886 4.05259 -1.54751 0
M  V30 7736 H 692.557 5.47069 -0.73621 0
M  V30 7737 H 695.033 4.11288 0.630986 0
M  V30 7738 H 693.909 5.34038 1.26863 0
M  V30 7739 H 694.17 3.85358 2.16683 0
M  V30 7740 N 693.229 0.160201 1.56784 0
M  V30 7741 C 694.139 -0.787167 2.21 0
M  V30 7742 C 695.155 -1.26167 1.19825 0
M  V30 7743 O 696.331 -1.31611 1.52448 0
M  V30 7744 C 693.396 -2.00364 2.8294 0
M  V30 7745 C 692.457 -1.5771 3.99282 0
M  V30 7746 C 691.69 -2.73558 4.58259 0
M  V30 7747 O 691.913 -3.90129 4.16119 0
M  V30 7748 O 690.847 -2.48271 5.48311 0
M  V30 7749 H 694.673 -0.270462 3.02493 0
M  V30 7750 H 692.258 -0.0674666 1.49248 0
M  V30 7751 H 694.14 -2.71529 3.22257 0
M  V30 7752 H 692.815 -2.50961 2.04451 0
M  V30 7753 H 691.722 -0.835274 3.64656 0
M  V30 7754 H 693.055 -1.11815 4.79331 0
M  V30 7755 N 694.707 -1.5719 -0.113559 0
M  V30 7756 C 695.954 -1.85138 -0.820382 0
M  V30 7757 C 696.282 -0.74608 -1.79622 0
M  V30 7758 O 695.537 0.262077 -1.93937 0
M  V30 7759 C 695.836 -3.19593 -1.59984 0
M  V30 7760 C 695.502 -4.44315 -0.767809 0
M  V30 7761 C 694.164 -4.78179 -0.538379 0
M  V30 7762 C 696.516 -5.2086 -0.188203 0
M  V30 7763 C 693.844 -5.86028 0.28082 0
M  V30 7764 C 696.196 -6.29572 0.618217 0
M  V30 7765 C 694.86 -6.61964 0.857912 0
M  V30 7766 H 694.13 -0.677467 -0.300199 0
M  V30 7767 H 696.777 -1.91322 -0.0825443 0
M  V30 7768 H 695.082 -3.0901 -2.40874 0
M  V30 7769 H 696.779 -3.3844 -2.1508 0
M  V30 7770 H 693.369 -4.17786 -0.956724 0
M  V30 7771 H 697.553 -4.95045 -0.352658 0
M  V30 7772 H 692.809 -6.09547 0.475693 0
M  V30 7773 H 696.983 -6.88064 1.0743 0
M  V30 7774 H 694.61 -7.45365 1.49451 0
M  V30 7775 N 696.185 0.383891 -1.52853 0
M  V30 7776 C 697.432 1.12842 -1.68146 0
M  V30 7777 C 697.76 1.89823 -0.423954 0
M  V30 7778 O 697.015 1.86475 0.593765 0
M  V30 7779 C 697.314 2.12881 -2.87082 0
M  V30 7780 C 696.98 1.52519 -4.24322 0
M  V30 7781 C 695.642 1.35783 -4.61645 0
M  V30 7782 C 697.994 1.0868 -5.09743 0
M  V30 7783 C 695.322 0.737643 -5.82044 0
M  V30 7784 C 697.674 0.480699 -6.30771 0
M  V30 7785 C 696.338 0.300681 -6.66822 0
M  V30 7786 H 695.608 0.412917 -0.615289 0
M  V30 7787 H 698.255 0.412416 -1.87006 0
M  V30 7788 H 696.56 2.90719 -2.62659 0
M  V30 7789 H 698.257 2.70408 -2.96109 0
M  V30 7790 H 694.847 1.66534 -3.94923 0
M  V30 7791 H 699.031 1.2041 -4.81472 0
M  V30 7792 H 694.287 0.586415 -6.08581 0
M  V30 7793 H 698.461 0.132733 -6.96273 0
M  V30 7794 H 696.088 -0.181966 -7.59982 0
M  V30 7795 N 697.663 1.43903 0.642637 0
M  V30 7796 C 698.626 1.49538 1.73698 0
M  V30 7797 C 699.626 0.378776 1.56275 0
M  V30 7798 O 700.816 0.64095 1.6198 0
M  V30 7799 C 697.948 1.35821 3.12675 0
M  V30 7800 H 699.141 2.47008 1.70079 0
M  V30 7801 H 696.694 1.30824 0.85526 0
M  V30 7802 H 697.429 0.393994 3.21898 0
M  V30 7803 H 697.214 2.16776 3.26727 0
M  V30 7804 H 698.704 1.4272 3.92455 0
M  V30 7805 N 699.141 -0.881989 1.30609 0
M  V30 7806 C 700.051 -2.02076 1.19174 0
M  V30 7807 C 701.067 -1.73645 0.11102 0
M  V30 7808 O 702.243 -1.98735 0.326528 0
M  V30 7809 C 699.308 -3.3515 0.887438 0
M  V30 7810 C 698.369 -3.76983 2.05383 0
M  V30 7811 C 697.602 -5.03707 1.76395 0
M  V30 7812 O 697.825 -5.66171 0.693302 0
M  V30 7813 O 696.759 -5.42019 2.61723 0
M  V30 7814 H 700.585 -2.14652 2.14845 0
M  V30 7815 H 698.17 -1.00843 1.10232 0
M  V30 7816 H 700.052 -4.14975 0.73306 0
M  V30 7817 H 698.727 -3.23676 -0.0393354 0
M  V30 7818 H 697.634 -2.97849 2.26355 0
M  V30 7819 H 698.967 -3.93066 2.96243 0
M  V30 7820 N 700.619 -1.13374 -1.09472 0
M  V30 7821 C 701.566 -0.810682 -2.16094 0
M  V30 7822 C 702.536 0.227003 -1.64541 0
M  V30 7823 O 703.721 0.0993538 -1.90541 0
M  V30 7824 C 700.861 -0.282336 -3.43943 0
M  V30 7825 C 699.974 -1.37902 -4.09398 0
M  V30 7826 C 699.109 -0.809066 -5.25002 0
M  V30 7827 C 698.148 -1.88419 -5.82379 0
M  V30 7828 N 697.285 -1.33221 -6.89345 0
M  V30 7829 H 702.125 -1.72397 -2.43071 0
M  V30 7830 H 699.662 -0.860564 -1.19301 0
M  V30 7831 H 701.62 0.0421189 -4.17179 0
M  V30 7832 H 700.25 0.594083 -3.17286 0
M  V30 7833 H 699.302 -1.82008 -3.34032 0
M  V30 7834 H 700.614 -2.19161 -4.48074 0
M  V30 7835 H 699.768 -0.435867 -6.05132 0
M  V30 7836 H 698.507 0.0346058 -4.87688 0
M  V30 7837 H 697.512 -2.26646 -5.00911 0
M  V30 7838 H 698.737 -2.73125 -6.21755 0
M  V30 7839 H 696.683 -0.510535 -6.5401 0
M  V30 7840 H 696.6 -2.08129 -7.26786 0
M  V30 7841 H 697.868 -0.986565 -7.73232 0
M  V30 7842 N 702.098 1.27442 -0.927168 0
M  V30 7843 C 703.028 2.29256 -0.443188 0
M  V30 7844 C 704.009 1.62701 0.49624 0
M  V30 7845 O 705.194 1.90013 0.401105 0
M  V30 7846 C 702.324 3.45955 0.305366 0
M  V30 7847 C 701.278 4.24501 -0.546178 0
M  V30 7848 C 700.604 5.33671 0.331512 0
M  V30 7849 C 701.904 4.89921 -1.81037 0
M  V30 7850 H 703.598 2.69988 -1.29409 0
M  V30 7851 H 701.144 1.29792 -0.623705 0
M  V30 7852 H 703.097 4.1628 0.654885 0
M  V30 7853 H 701.821 3.04138 1.19029 0
M  V30 7854 H 700.48 3.55921 -0.878398 0
M  V30 7855 H 700.128 4.88096 1.21537 0
M  V30 7856 H 699.828 5.87131 -0.234746 0
M  V30 7857 H 701.352 6.0684 0.676614 0
M  V30 7858 H 702.766 5.52536 -1.52895 0
M  V30 7859 H 701.163 5.53436 -2.32009 0
M  V30 7860 H 702.233 4.13652 -2.53021 0
M  V30 7861 N 703.576 0.692616 1.41565 0
M  V30 7862 C 704.524 0.0139952 2.32596 0
M  V30 7863 C 705.518 -0.771691 1.50802 0
M  V30 7864 O 706.724 -0.677646 1.66757 0
M  V30 7865 H 703.099 -0.0142745 0.751865 0
M  V30 7866 H 705.07 0.798851 2.87508 0
M  V30 7867 C 703.819 -0.910602 3.35564 0
M  V30 7868 H 703.142 -0.315446 3.98554 0
M  V30 7869 H 704.582 -1.3538 4.01806 0
M  V30 7870 C 703.041 -2.02539 2.6922 0
M  V30 7871 O 703.571 -3.11386 2.53775 0
M  V30 7872 N 701.777 -1.80227 2.27962 0
M  V30 7873 H 701.324 -0.917054 2.40724 0
M  V30 7874 H 701.282 -2.55001 1.83907 0
M  V30 7875 N 705.054 -1.51416 0.437162 0
M  V30 7876 C 706.302 -2.01687 -0.129108 0
M  V30 7877 C 706.623 -1.32329 -1.43227 0
M  V30 7878 O 705.893 -0.457796 -1.90476 0
M  V30 7879 H 704.473 -0.745277 -0.0507023 0
M  V30 7880 H 707.135 -1.86075 0.579828 0
M  V30 7881 H 706.231 -3.10605 -0.305141 0
M  V30 7882 N 706.532 -0.168513 -1.56696 0
M  V30 7883 C 707.781 0.477233 -1.95973 0
M  V30 7884 C 708.094 1.64578 -1.05704 0
M  V30 7885 O 709.3 2.35758 -1.3465 0
M  V30 7886 C 707.756 0.900413 -3.48455 0
M  V30 7887 C 707.364 -0.242382 -4.47344 0
M  V30 7888 C 709.108 1.51474 -3.96555 0
M  V30 7889 C 707.015 0.200272 -5.91061 0
M  V30 7890 H 705.945 0.182061 -0.73169 0
M  V30 7891 H 708.596 -0.256297 -1.81701 0
M  V30 7892 H 706.978 1.68984 -3.58135 0
M  V30 7893 H 708.152 -1.01967 -4.49377 0
M  V30 7894 H 706.467 -0.766484 -4.09285 0
M  V30 7895 H 709.064 1.85792 -5.01384 0
M  V30 7896 H 709.407 2.41163 -3.39332 0
M  V30 7897 H 709.94 0.789802 -3.89881 0
M  V30 7898 H 706.679 -0.661775 -6.52151 0
M  V30 7899 H 706.199 0.942979 -5.92341 0
M  V30 7900 H 707.878 0.645088 -6.43776 0
M  V30 7901 N 708.01 1.57248 0.105221 0
M  V30 7902 C 708.973 2.00388 1.11252 0
M  V30 7903 C 709.973 0.89594 1.33527 0
M  V30 7904 O 711.163 1.16166 1.29811 0
M  V30 7905 C 708.295 2.35589 2.46395 0
M  V30 7906 H 709.488 2.90591 0.741424 0
M  V30 7907 H 707.041 1.52332 0.349956 0
M  V30 7908 H 707.776 1.4831 2.884 0
M  V30 7909 H 707.561 3.16408 2.31578 0
M  V30 7910 H 709.051 2.69658 3.18864 0
M  V30 7911 N 709.488 -0.375779 1.53054 0
M  V30 7912 C 710.716 -1.14036 1.72637 0
M  V30 7913 C 711.131 -1.83342 0.450687 0
M  V30 7914 O 710.488 -1.7318 -0.575749 0
M  V30 7915 C 710.539 -2.17841 2.88492 0
M  V30 7916 O 710.26 -1.51358 4.11123 0
M  V30 7917 C 711.761 -3.06924 3.19863 0
M  V30 7918 H 708.981 -0.341386 0.577665 0
M  V30 7919 H 711.525 -0.437809 1.99759 0
M  V30 7920 H 709.68 -2.8371 2.63794 0
M  V30 7921 H 710.094 -2.20439 4.75928 0
M  V30 7922 H 711.568 -3.75763 4.04359 0
M  V30 7923 H 712.045 -3.71169 2.34798 0
M  V30 7924 H 712.651 -2.46684 3.46449 0
M  V30 7925 N 710.966 -1.44241 -0.634997 0
M  V30 7926 C 712.194 -1.50296 -1.42193 0
M  V30 7927 C 712.609 -0.12658 -1.88375 0
M  V30 7928 O 711.966 0.86678 -1.60603 0
M  V30 7929 C 712.017 -2.46437 -2.64482 0
M  V30 7930 O 711.738 -3.78724 -2.20226 0
M  V30 7931 C 713.239 -2.61918 -3.57651 0
M  V30 7932 H 710.459 -0.509865 -0.43621 0
M  V30 7933 H 713.003 -1.89167 -0.776921 0
M  V30 7934 H 711.158 -2.10712 -3.25083 0
M  V30 7935 H 711.572 -4.30595 -2.9948 0
M  V30 7936 H 713.046 -3.33225 -4.40074 0
M  V30 7937 H 713.523 -1.67017 -4.06204 0
M  V30 7938 H 714.129 -2.98528 -3.02921 0
M  V30 7939 N 712.444 0.87505 -1.31075 0
M  V30 7940 C 713.376 1.98773 -1.14114 0
M  V30 7941 C 714.389 1.62595 -0.0816119 0
M  V30 7942 O 715.578 1.75449 -0.32861 0
M  V30 7943 C 712.678 3.31159 -0.720224 0
M  V30 7944 C 711.851 3.9571 -1.86366 0
M  V30 7945 C 710.91 5.06407 -1.42965 0
M  V30 7946 O 709.936 5.27501 -2.13848 0
M  V30 7947 N 711.138 5.79649 -0.314194 0
M  V30 7948 H 713.903 2.1387 -2.09951 0
M  V30 7949 H 711.464 1.04873 -1.23342 0
M  V30 7950 H 713.456 4.0259 -0.412687 0
M  V30 7951 H 712.026 3.12257 0.146396 0
M  V30 7952 H 711.246 3.17324 -2.33879 0
M  V30 7953 H 712.534 4.35576 -2.62966 0
M  V30 7954 H 711.932 5.65025 0.276228 0
M  V30 7955 H 710.489 6.51766 -0.0661641 0
M  V30 7956 N 713.922 1.13953 1.08869 0
M  V30 7957 C 714.87 0.817664 2.17754 0
M  V30 7958 C 715.864 -0.202444 1.68186 0
M  V30 7959 O 717.07 -0.0590159 1.79903 0
M  V30 7960 H 713.445 0.246671 0.710392 0
M  V30 7961 H 715.416 1.74401 2.4213 0
M  V30 7962 C 714.165 0.3063 3.46348 0
M  V30 7963 H 713.488 1.08259 3.84864 0
M  V30 7964 H 714.928 0.119584 4.23831 0
M  V30 7965 C 713.387 -0.969158 3.22659 0
M  V30 7966 O 713.917 -2.04386 3.45817 0
M  V30 7967 N 712.123 -0.902516 2.7623 0
M  V30 7968 H 711.67 -0.027801 2.57585 0
M  V30 7969 H 711.628 -1.75649 2.60758 0
M  V30 7970 N 715.4 -1.26948 0.933913 0
M  V30 7971 C 716.648 -1.93704 0.576484 0
M  V30 7972 C 716.969 -1.73702 -0.886145 0
M  V30 7973 O 716.239 -1.08838 -1.62884 0
M  V30 7974 H 714.819 -0.716812 0.210214 0
M  V30 7975 H 717.481 -1.54534 1.18766 0
M  V30 7976 H 716.577 -3.01987 0.788055 0
M  V30 7977 N 716.879 -0.700114 -1.41195 0
M  V30 7978 C 718.125 -0.242122 -2.01954 0
M  V30 7979 C 718.48 1.14697 -1.54475 0
M  V30 7980 O 717.773 1.76392 -0.748095 0
M  V30 7981 C 717.967 -0.243986 -3.56566 0
M  V30 7982 C 717.796 -1.63172 -4.19053 0
M  V30 7983 C 716.566 -2.23566 -4.53152 0
M  V30 7984 C 718.764 -2.57916 -4.44954 0
M  V30 7985 N 716.746 -3.54856 -5.00949 0
M  V30 7986 C 718.117 -3.73892 -4.94576 0
M  V30 7987 C 720.172 -2.56125 -4.26971 0
M  V30 7988 C 718.875 -4.88363 -5.28104 0
M  V30 7989 C 720.901 -3.69712 -4.61592 0
M  V30 7990 C 720.263 -4.84418 -5.11389 0
M  V30 7991 H 716.362 -0.134088 -0.770418 0
M  V30 7992 H 718.946 -0.918576 -1.71669 0
M  V30 7993 H 717.117 0.401971 -3.86314 0
M  V30 7994 H 718.849 0.229261 -4.0405 0
M  V30 7995 H 715.604 -1.75809 -4.39759 0
M  V30 7996 H 716.028 -4.22167 -5.29249 0
M  V30 7997 H 720.67 -1.68656 -3.87705 0
M  V30 7998 H 718.388 -5.76488 -5.66292 0
M  V30 7999 H 721.974 -3.69583 -4.49332 0
M  V30 8000 H 720.854 -5.70855 -5.37675 0
M  V30 8001 N 718.357 1.51182 -0.445186 0
M  V30 8002 C 719.603 2.02452 0.11882 0
M  V30 8003 C 719.936 1.32824 1.41673 0
M  V30 8004 O 719.211 0.445637 1.89326 0
M  V30 8005 C 719.494 3.5859 0.329475 0
M  V30 8006 C 719.347 4.38823 -0.987638 0
M  V30 8007 C 720.666 4.26241 1.09575 0
M  V30 8008 H 717.785 0.735819 0.0417092 0
M  V30 8009 H 720.427 1.80747 -0.585718 0
M  V30 8010 H 718.577 3.77214 0.9296 0
M  V30 8011 H 720.249 4.3183 -1.62235 0
M  V30 8012 H 718.492 4.03594 -1.59041 0
M  V30 8013 H 719.163 5.46257 -0.794192 0
M  V30 8014 H 721.639 4.11934 0.587328 0
M  V30 8015 H 720.515 5.35354 1.21191 0
M  V30 8016 H 720.776 3.87635 2.12584 0
M  V30 8017 N 719.835 0.176821 1.56605 0
M  V30 8018 C 720.765 -0.746841 2.21234 0
M  V30 8019 C 721.746 -1.23502 1.16967 0
M  V30 8020 O 722.931 -1.28718 1.45414 0
M  V30 8021 C 720.061 -1.97407 2.8574 0
M  V30 8022 C 719.015 -1.62153 3.96094 0
M  V30 8023 C 718.341 -2.92387 4.47676 0
M  V30 8024 C 719.641 -0.845353 5.15413 0
M  V30 8025 H 721.335 -0.208116 2.98676 0
M  V30 8026 H 718.881 -0.0986594 1.43662 0
M  V30 8027 H 720.834 -2.62531 3.2963 0
M  V30 8028 H 719.558 -2.53703 2.05676 0
M  V30 8029 H 718.217 -0.993964 3.52868 0
M  V30 8030 H 717.865 -3.46734 3.64396 0
M  V30 8031 H 717.565 -2.69551 5.22127 0
M  V30 8032 H 719.089 -3.5853 4.94255 0
M  V30 8033 H 720.503 -1.39929 5.55961 0
M  V30 8034 H 718.9 -0.715814 5.95815 0
M  V30 8035 H 719.97 0.157239 4.84645 0
M  V30 8036 N 721.313 -1.57302 -0.09688 0
M  V30 8037 C 722.538 -1.9058 -0.818169 0
M  V30 8038 C 722.963 -0.770921 -1.71576 0
M  V30 8039 O 722.321 0.277588 -1.79162 0
M  V30 8040 C 722.369 -3.22714 -1.60898 0
M  V30 8041 O 721.473 -3.10178 -2.71779 0
M  V30 8042 H 720.814 -0.624759 -0.224882 0
M  V30 8043 H 723.344 -2.04471 -0.07264 0
M  V30 8044 H 723.354 -3.55978 -1.99358 0
M  V30 8045 H 722.029 -4.04899 -0.950227 0
M  V30 8046 H 720.606 -2.88424 -2.3636 0
M  V30 8047 N 722.791 0.367657 -1.53252 0
M  V30 8048 C 724.021 1.12955 -1.72988 0
M  V30 8049 C 724.429 1.8358 -0.457708 0
M  V30 8050 O 723.772 1.74336 0.579006 0
M  V30 8051 C 723.834 2.20545 -2.83902 0
M  V30 8052 C 723.498 1.69704 -4.24323 0
M  V30 8053 C 724.495 1.16223 -5.06743 0
M  V30 8054 C 722.18 1.7528 -4.70725 0
M  V30 8055 C 724.174 0.689935 -6.33655 0
M  V30 8056 C 721.861 1.27662 -5.97617 0
M  V30 8057 C 722.859 0.746083 -6.78913 0
M  V30 8058 O 722.547 0.276925 -8.03423 0
M  V30 8059 H 722.279 0.343753 -0.582074 0
M  V30 8060 H 724.833 0.433106 -2.00782 0
M  V30 8061 H 723.063 2.93676 -2.51577 0
M  V30 8062 H 724.752 2.82111 -2.91836 0
M  V30 8063 H 725.518 1.11256 -4.72067 0
M  V30 8064 H 721.397 2.15515 -4.07522 0
M  V30 8065 H 724.941 0.275164 -6.97057 0
M  V30 8066 H 720.838 1.32322 -6.31792 0
M  V30 8067 H 721.606 0.396445 -8.17539 0
M  V30 8068 N 724.269 1.44576 0.627338 0
M  V30 8069 C 725.517 1.47267 1.38408 0
M  V30 8070 C 725.838 0.107971 1.94701 0
M  V30 8071 O 725.108 -0.860206 1.76004 0
M  V30 8072 H 723.688 0.542276 0.513756 0
M  V30 8073 H 726.35 1.80383 0.738099 0
M  V30 8074 H 725.446 2.20025 2.21349 0
M  V30 8075 N 725.747 -0.868086 1.31537 0
M  V30 8076 C 726.972 -1.65926 1.24432 0
M  V30 8077 C 727.397 -1.87169 -0.186936 0
M  V30 8078 O 726.755 -1.4148 -1.13371 0
M  V30 8079 C 726.803 -3.00347 1.9956 0
M  V30 8080 O 725.907 -3.90221 1.33422 0
M  V30 8081 H 725.248 -0.506375 0.429512 0
M  V30 8082 H 727.778 -1.0822 1.73637 0
M  V30 8083 H 727.788 -3.50269 2.09226 0
M  V30 8084 H 726.463 -2.84205 3.03645 0
M  V30 8085 H 725.04 -3.48672 1.32219 0
M  V30 8086 N 727.225 -1.14528 -1.08264 0
M  V30 8087 C 728.641 -0.885976 -1.3275 0
M  V30 8088 C 728.841 0.472096 -1.95892 0
M  V30 8089 O 727.897 1.21606 -2.21288 0
M  V30 8090 C 729.21 -2.01982 -2.22764 0
M  V30 8091 C 730.758 -2.05329 -2.36239 0
M  V30 8092 C 731.233 -3.1801 -3.29596 0
M  V30 8093 N 732.724 -3.17598 -3.37173 0
M  V30 8094 C 733.459 -4.01426 -4.09444 0
M  V30 8095 N 732.955 -4.95297 -4.8441 0
M  V30 8096 N 734.748 -3.89482 -4.0529 0
M  V30 8097 H 726.899 -2.01996 -0.656607 0
M  V30 8098 H 729.162 -0.880274 -0.351884 0
M  V30 8099 H 728.868 -2.99964 -1.83615 0
M  V30 8100 H 728.742 -1.94421 -3.23234 0
M  V30 8101 H 731.129 -1.07953 -2.74646 0
M  V30 8102 H 731.21 -2.1696 -1.35506 0
M  V30 8103 H 730.854 -4.15633 -2.9191 0
M  V30 8104 H 730.784 -3.03616 -4.30261 0
M  V30 8105 H 733.275 -2.4961 -2.83731 0
M  V30 8106 H 733.588 -5.55723 -5.37021 0
M  V30 8107 H 731.933 -4.99293 -4.83457 0
M  V30 8108 H 735.124 -3.15465 -3.45832 0
M  V30 8109 H 735.297 -4.55039 -4.6135 0
M  V30 8110 N 728.703 1.26451 -0.940633 0
M  V30 8111 C 729.943 1.95537 -0.595381 0
M  V30 8112 C 730.307 1.72175 0.849683 0
M  V30 8113 O 731.508 2.3506 1.30384 0
M  V30 8114 C 729.779 3.45151 -0.927669 0
M  V30 8115 S 731.338 4.33295 -0.69288 0
M  V30 8116 H 728.156 0.676331 -0.219311 0
M  V30 8117 H 730.758 1.53411 -1.21183 0
M  V30 8118 H 729.462 3.59654 -1.9768 0
M  V30 8119 H 728.993 3.92247 -0.300921 0
M  V30 8120 H 731.008 4.94217 0.443175 0
M  V30 8121 N 730.181 0.707592 1.40822 0
M  V30 8122 C 731.411 0.252706 2.05049 0
M  V30 8123 C 731.819 -1.10758 1.53393 0
M  V30 8124 O 731.162 -1.70567 0.682097 0
M  V30 8125 C 731.224 0.146001 3.59203 0
M  V30 8126 C 730.888 1.44027 4.33711 0
M  V30 8127 C 731.885 2.38058 4.62195 0
M  V30 8128 C 729.57 1.69698 4.72766 0
M  V30 8129 C 731.564 3.56013 5.28709 0
M  V30 8130 C 729.251 2.87936 5.39014 0
M  V30 8131 C 730.249 3.80915 5.66915 0
M  V30 8132 O 729.937 4.9708 6.31796 0
M  V30 8133 H 729.669 0.112784 0.666525 0
M  V30 8134 H 732.223 0.96417 1.81364 0
M  V30 8135 H 730.453 -0.621338 3.81676 0
M  V30 8136 H 732.142 -0.273275 4.04979 0
M  V30 8137 H 732.908 2.19487 4.32493 0
M  V30 8138 H 728.787 0.981835 4.50423 0
M  V30 8139 H 732.331 4.28604 5.50404 0
M  V30 8140 H 728.228 3.06419 5.68135 0
M  V30 8141 H 728.996 4.97053 6.50293 0
M  V30 8142 N 731.66 -1.50943 0.453197 0
M  V30 8143 C 733.076 -1.59245 0.106342 0
M  V30 8144 C 733.276 -1.46287 -1.38572 0
M  V30 8145 O 732.332 -1.31219 -2.15726 0
M  V30 8146 C 733.645 -2.93797 0.640595 0
M  V30 8147 C 735.193 -3.07148 0.602435 0
M  V30 8148 C 735.668 -4.44247 1.11393 0
M  V30 8149 N 737.159 -4.50611 1.07258 0
M  V30 8150 C 737.894 -5.55049 1.43905 0
M  V30 8151 N 737.39 -6.66828 1.87914 0
M  V30 8152 N 739.183 -5.45494 1.35621 0
M  V30 8153 H 731.334 -1.5761 1.42382 0
M  V30 8154 H 733.597 -0.74384 0.587713 0
M  V30 8155 H 733.303 -3.087 1.68515 0
M  V30 8156 H 733.177 -3.77127 0.0742272 0
M  V30 8157 H 735.564 -2.91903 -0.433171 0
M  V30 8158 H 735.645 -2.25619 1.20539 0
M  V30 8159 H 735.289 -4.60239 2.14808 0
M  V30 8160 H 735.219 -5.2434 0.487353 0
M  V30 8161 H 737.71 -3.70391 0.749585 0
M  V30 8162 H 738.023 -7.42558 2.14072 0
M  V30 8163 H 736.368 -6.67995 1.91853 0
M  V30 8164 H 739.559 -4.57053 1.01093 0
M  V30 8165 H 739.732 -6.2677 1.64508 0
M  V30 8166 N 733.138 -0.185124 -1.56509 0
M  V30 8167 C 734.549 0.329221 -1.83774 0
M  V30 8168 C 734.9 1.62093 -1.10545 0
M  V30 8169 O 734.025 2.13334 -0.36298 0
M  V30 8170 C 734.62 0.604099 -3.33371 0
M  V30 8171 C 733.179 1.06284 -3.61083 0
M  V30 8172 C 732.326 0.10608 -2.77097 0
M  V30 8173 H 735.277 -0.409116 -1.53336 0
M  V30 8174 H 735.298 1.45458 -3.51599 0
M  V30 8175 H 734.81 -0.336201 -3.86641 0
M  V30 8176 H 732.911 2.01777 -3.13236 0
M  V30 8177 H 733.024 0.962453 -4.69333 0
M  V30 8178 H 731.388 0.606082 -2.47384 0
M  V30 8179 H 732.171 -0.828486 -3.33153 0
M  V30 8180 N 734.616 1.57351 0.0885366 0
M  V30 8181 C 736.027 1.75303 0.642308 0
M  V30 8182 C 736.378 0.808238 1.78779 0
M  V30 8183 O 735.503 -0.01171 2.16397 0
M  V30 8184 C 736.098 3.17885 1.17194 0
M  V30 8185 C 734.657 3.37239 1.67172 0
M  V30 8186 C 733.804 2.7108 0.584045 0
M  V30 8187 H 736.755 1.58103 -0.137567 0
M  V30 8188 H 736.776 3.2112 2.04114 0
M  V30 8189 H 736.288 3.86625 0.338024 0
M  V30 8190 H 734.389 2.73588 2.52943 0
M  V30 8191 H 734.502 4.45594 1.76019 0
M  V30 8192 H 732.866 2.33161 1.02508 0
M  V30 8193 H 733.649 3.42464 -0.239403 0
M  V30 8194 N 736.094 -0.359525 1.53444 0
M  V30 8195 C 737.343 -1.09886 1.69139 0
M  V30 8196 C 737.656 -1.90285 0.452863 0
M  V30 8197 O 738.862 -2.67033 0.490459 0
M  V30 8198 C 737.318 -2.0028 2.99025 0
M  V30 8199 C 736.926 -1.25164 4.30161 0
M  V30 8200 C 738.67 -2.74168 3.24086 0
M  V30 8201 C 736.577 -2.14494 5.51132 0
M  V30 8202 H 735.507 -0.413936 0.630217 0
M  V30 8203 H 738.158 -0.359434 1.79945 0
M  V30 8204 H 736.54 -2.77978 2.82036 0
M  V30 8205 H 737.714 -0.524867 4.57801 0
M  V30 8206 H 736.029 -0.631116 4.11589 0
M  V30 8207 H 738.626 -3.41243 4.11652 0
M  V30 8208 H 738.969 -3.39868 2.40407 0
M  V30 8209 H 739.502 -2.0355 3.41778 0
M  V30 8210 H 736.241 -1.53362 6.37307 0
M  V30 8211 H 735.761 -2.85004 5.27762 0
M  V30 8212 H 737.44 -2.73914 5.86157 0
M  V30 8213 N 737.572 -1.44907 -0.619662 0
M  V30 8214 C 738.821 -1.47569 -1.37501 0
M  V30 8215 C 739.134 -0.116707 -1.95252 0
M  V30 8216 O 740.34 -0.020909 -2.71492 0
M  V30 8217 C 738.796 -2.59851 -2.49009 0
M  V30 8218 C 738.404 -4.02008 -1.97722 0
M  V30 8219 C 740.148 -2.71746 -3.2612 0
M  V30 8220 C 738.055 -5.05693 -3.0664 0
M  V30 8221 H 736.985 -0.549068 -0.51676 0
M  V30 8222 H 739.636 -1.71009 -0.665437 0
M  V30 8223 H 738.018 -2.29671 -3.22594 0
M  V30 8224 H 739.192 -4.41809 -1.30925 0
M  V30 8225 H 737.507 -3.94456 -1.33392 0
M  V30 8226 H 740.104 -3.46382 -4.07337 0
M  V30 8227 H 740.447 -1.77959 -3.76346 0
M  V30 8228 H 740.98 -3.01392 -2.5963 0
M  V30 8229 H 737.719 -6.01148 -2.61345 0
M  V30 8230 H 737.239 -4.70473 -3.72042 0
M  V30 8231 H 738.918 -5.29906 -3.71226 0
M  V30 8232 N 739.05 0.861098 -1.31996 0
M  V30 8233 C 740.28 1.64501 -1.24992 0
M  V30 8234 C 740.688 1.88288 0.185576 0
M  V30 8235 O 740.031 1.44756 1.131 0
M  V30 8236 C 740.093 3.03098 -1.93319 0
M  V30 8237 C 739.757 3.02381 -3.42658 0
M  V30 8238 C 740.754 2.79696 -4.38254 0
M  V30 8239 C 738.439 3.23221 -3.84491 0
M  V30 8240 C 740.433 2.77843 -5.73657 0
M  V30 8241 C 738.12 3.20996 -5.20005 0
M  V30 8242 C 739.118 2.98335 -6.14398 0
M  V30 8243 O 738.806 2.95971 -7.47433 0
M  V30 8244 H 738.538 0.519309 -0.432775 0
M  V30 8245 H 741.092 1.08241 -1.74565 0
M  V30 8246 H 739.322 3.61121 -1.38306 0
M  V30 8247 H 741.011 3.63751 -1.8011 0
M  V30 8248 H 741.777 2.63368 -4.07262 0
M  V30 8249 H 737.656 3.39887 -3.11445 0
M  V30 8250 H 741.2 2.60074 -6.47308 0
M  V30 8251 H 737.097 3.36865 -5.50629 0
M  V30 8252 H 737.865 3.1197 -7.56714 0
M  V30 8253 N 740.528 1.15101 1.07655 0
M  V30 8254 C 741.776 0.922149 1.79836 0
M  V30 8255 C 742.097 -0.552346 1.87014 0
M  V30 8256 O 741.367 -1.40145 1.3688 0
M  V30 8257 H 739.947 0.338182 0.666064 0
M  V30 8258 H 742.609 1.45107 1.30115 0
M  V30 8259 H 741.705 1.32883 2.82398 0
M  V30 8260 N 742.006 -1.2595 0.947325 0
M  V30 8261 C 743.234 -1.97544 0.615127 0
M  V30 8262 C 743.649 -1.70484 -0.811221 0
M  V30 8263 O 743.006 -0.97662 -1.5417 0
M  V30 8264 C 743.057 -3.51236 0.855328 0
M  V30 8265 O 742.778 -3.77359 2.22558 0
M  V30 8266 C 744.279 -4.40066 0.534515 0
M  V30 8267 H 741.499 -0.629888 0.231263 0
M  V30 8268 H 744.043 -1.60308 1.26971 0
M  V30 8269 H 742.198 -3.8661 0.247266 0
M  V30 8270 H 742.612 -4.71857 2.29022 0
M  V30 8271 H 744.086 -5.46838 0.753168 0
M  V30 8272 H 744.563 -4.35982 -0.530701 0
M  V30 8273 H 745.169 -4.10245 1.12158 0
M  V30 8274 N 743.484 -0.715051 -1.40445 0
M  V30 8275 C 744.73 -0.254705 -2.01194 0
M  V30 8276 C 745.063 1.14894 -1.56567 0
M  V30 8277 O 744.338 1.77933 -0.785491 0
M  V30 8278 C 744.621 -0.334148 -3.58546 0
M  V30 8279 C 744.474 -1.77613 -4.13248 0
M  V30 8280 C 745.793 0.294968 -4.3911 0
M  V30 8281 H 742.912 -0.094025 -0.730978 0
M  V30 8282 H 745.554 -0.907449 -1.66929 0
M  V30 8283 H 743.704 0.221609 -3.87867 0
M  V30 8284 H 745.376 -2.38723 -3.94727 0
M  V30 8285 H 743.619 -2.30402 -3.67556 0
M  V30 8286 H 744.29 -1.78311 -5.22407 0
M  V30 8287 H 746.766 -0.178563 -4.15717 0
M  V30 8288 H 745.642 0.208934 -5.48502 0
M  V30 8289 H 745.903 1.37841 -4.20062 0
M  V30 8290 N 744.962 1.50701 -0.461195 0
M  V30 8291 C 746.19 2.06681 0.0951756 0
M  V30 8292 C 746.605 1.32615 1.34382 0
M  V30 8293 O 745.962 0.392531 1.78229 0
M  V30 8294 C 746.013 3.59354 0.393316 0
M  V30 8295 O 745.734 4.30626 -0.805797 0
M  V30 8296 C 747.235 4.31926 0.997744 0
M  V30 8297 H 744.455 0.670995 -0.00267259 0
M  V30 8298 H 746.999 1.93991 -0.647137 0
M  V30 8299 H 745.154 3.7188 1.08555 0
M  V30 8300 H 745.568 5.21667 -0.544409 0
M  V30 8301 H 747.042 5.39756 1.15619 0
M  V30 8302 H 747.519 3.91772 1.98523 0
M  V30 8303 H 748.125 4.23905 0.344188 0
M  V30 8304 N 746.441 0.193421 1.56409 0
M  V30 8305 C 747.857 -0.162447 1.58771 0
M  V30 8306 C 748.057 -1.6116 1.20954 0
M  V30 8307 O 747.113 -2.3469 0.931497 0
M  V30 8308 C 748.426 0.138391 3.00381 0
M  V30 8309 C 749.974 0.0783649 3.12902 0
M  V30 8310 C 750.449 0.352491 4.56642 0
M  V30 8311 N 751.94 0.30105 4.62221 0
M  V30 8312 C 752.675 0.487028 5.71328 0
M  V30 8313 N 752.171 0.733265 6.88909 0
M  V30 8314 N 753.964 0.4214 5.60518 0
M  V30 8315 H 746.115 1.13909 1.79272 0
M  V30 8316 H 748.378 0.454528 0.83193 0
M  V30 8317 H 748.084 1.14312 3.32604 0
M  V30 8318 H 747.958 -0.559804 3.73023 0
M  V30 8319 H 750.345 -0.916963 2.80492 0
M  V30 8320 H 750.426 0.809611 2.4265 0
M  V30 8321 H 750.07 1.34513 4.89764 0
M  V30 8322 H 750 -0.399624 5.25081 0
M  V30 8323 H 752.491 0.117279 3.77718 0
M  V30 8324 H 752.804 0.86403 7.67955 0
M  V30 8325 H 751.149 0.770138 6.9072 0
M  V30 8326 H 754.34 0.229461 4.67537 0
M  V30 8327 H 754.513 0.569758 6.4549 0
M  V30 8328 N 747.919 -1.57396 -0.0801906 0
M  V30 8329 C 749.33 -1.75642 -0.633002 0
M  V30 8330 C 749.681 -0.817708 -1.78348 0
M  V30 8331 O 748.806 0.000233743 -2.164 0
M  V30 8332 C 749.401 -3.18502 -1.15507 0
M  V30 8333 C 747.96 -3.38121 -1.65381 0
M  V30 8334 C 747.107 -2.71386 -0.569661 0
M  V30 8335 H 750.058 -1.58027 0.145949 0
M  V30 8336 H 750.079 -3.22198 -2.02408 0
M  V30 8337 H 749.591 -3.86799 -0.317515 0
M  V30 8338 H 747.692 -2.74926 -2.51488 0
M  V30 8339 H 747.805 -4.46521 -1.73654 0
M  V30 8340 H 746.169 -2.33702 -1.0127 0
M  V30 8341 H 746.952 -3.42332 0.257561 0
M  V30 8342 N 749.397 0.351382 -1.53633 0
M  V30 8343 C 750.307 1.45471 -1.84052 0
M  V30 8344 C 751.323 1.57945 -0.730015 0
M  V30 8345 O 752.499 1.73571 -1.02153 0
M  V30 8346 C 749.564 2.80562 -2.03681 0
M  V30 8347 C 748.625 2.77497 -3.27558 0
M  V30 8348 C 747.858 4.06144 -3.46241 0
M  V30 8349 O 748.081 5.03028 -2.68922 0
M  V30 8350 O 747.015 4.11092 -4.39645 0
M  V30 8351 H 750.841 1.22684 -2.77817 0
M  V30 8352 H 748.426 0.542827 -1.3919 0
M  V30 8353 H 750.308 3.6058 -2.18082 0
M  V30 8354 H 748.983 3.03296 -1.13106 0
M  V30 8355 H 747.89 1.96126 -3.18568 0
M  V30 8356 H 749.223 2.59716 -4.18101 0
M  V30 8357 N 750.875 1.45233 0.611969 0
M  V30 8358 C 752.286 1.4354 1.19387 0
M  V30 8359 C 752.637 0.160713 1.95541 0
M  V30 8360 O 751.762 -0.737954 2.03429 0
M  V30 8361 C 752.357 2.60045 2.17169 0
M  V30 8362 C 750.916 2.61486 2.70744 0
M  V30 8363 C 750.063 2.35708 1.46072 0
M  V30 8364 H 753.014 1.53536 0.401529 0
M  V30 8365 H 753.035 2.33893 3.00124 0
M  V30 8366 H 752.547 3.52803 1.61714 0
M  V30 8367 H 750.648 1.72721 3.30149 0
M  V30 8368 H 750.761 3.60572 3.15476 0
M  V30 8369 H 749.125 1.85178 1.74875 0
M  V30 8370 H 749.908 3.30606 0.924922 0
M  V30 8371 N 752.353 -0.854086 1.3245 0
M  V30 8372 C 753.286 -1.96654 1.15768 0
M  V30 8373 C 754.264 -1.625 0.0569975 0
M  V30 8374 O 755.448 -1.87254 0.216412 0
M  V30 8375 C 752.575 -3.29776 0.772361 0
M  V30 8376 C 751.621 -3.82909 1.87837 0
M  V30 8377 S 752.454 -4.0643 3.48675 0
M  V30 8378 C 753.61 -5.42526 3.12116 0
M  V30 8379 H 753.843 -2.10504 2.09942 0
M  V30 8380 H 751.376 -1.00612 1.17118 0
M  V30 8381 H 753.334 -4.06706 0.556809 0
M  V30 8382 H 751.995 -3.13739 -0.150519 0
M  V30 8383 H 751.188 -4.79192 1.56177 0
M  V30 8384 H 750.79 -3.12825 2.0498 0
M  V30 8385 H 753.082 -6.24792 2.61996 0
M  V30 8386 H 754.025 -5.79148 4.07422 0
M  V30 8387 H 754.433 -5.06556 2.49121 0
M  V30 8388 N 753.831 -1.1567 -1.07043 0
M  V30 8389 C 755.059 -0.957471 -1.83412 0
M  V30 8390 C 755.474 0.494271 -1.82215 0
M  V30 8391 O 754.831 1.34288 -1.23584 0
M  V30 8392 C 754.882 -1.46784 -3.30359 0
M  V30 8393 O 754.603 -2.86271 -3.31633 0
M  V30 8394 C 756.104 -1.31054 -4.23485 0
M  V30 8395 H 753.324 -0.33986 -0.578564 0
M  V30 8396 H 755.868 -1.53518 -1.35102 0
M  V30 8397 H 754.023 -0.932586 -3.76007 0
M  V30 8398 H 754.437 -3.0948 -4.23465 0
M  V30 8399 H 755.911 -1.71605 -5.24648 0
M  V30 8400 H 756.388 -0.255107 -4.38458 0
M  V30 8401 H 756.994 -1.83503 -3.83676 0
M  V30 8402 N 755.309 1.25446 -0.953992 0
M  V30 8403 C 756.239 2.28264 -0.491717 0
M  V30 8404 C 757.22 1.63717 0.461617 0
M  V30 8405 O 758.405 1.90821 0.36071 0
M  V30 8406 C 755.535 3.46525 0.231915 0
M  V30 8407 C 754.489 4.23247 -0.636098 0
M  V30 8408 C 753.815 5.34254 0.218238 0
M  V30 8409 C 755.115 4.85971 -1.91389 0
M  V30 8410 H 756.809 2.67183 -1.35106 0
M  V30 8411 H 754.355 1.2844 -0.651095 0
M  V30 8412 H 756.308 4.17576 0.566439 0
M  V30 8413 H 755.032 3.06594 1.12551 0
M  V30 8414 H 753.691 3.53978 -0.953696 0
M  V30 8415 H 753.339 4.90564 1.11156 0
M  V30 8416 H 753.039 5.86501 -0.359232 0
M  V30 8417 H 754.563 6.08138 0.547743 0
M  V30 8418 H 755.977 5.49168 -1.64581 0
M  V30 8419 H 754.374 5.48391 -2.43696 0
M  V30 8420 H 755.444 4.08192 -2.61738 0
M  V30 8421 N 756.787 0.722489 1.40064 0
M  V30 8422 C 757.734 0.0743738 2.3068 0
M  V30 8423 C 758.704 -0.743004 1.48555 0
M  V30 8424 O 759.889 -0.705536 1.77276 0
M  V30 8425 C 757.029 -0.836292 3.34814 0
M  V30 8426 C 756.142 -0.00764663 4.31999 0
M  V30 8427 C 755.277 -0.918428 5.232 0
M  V30 8428 C 754.316 -0.0842838 6.12042 0
M  V30 8429 N 753.453 -0.950316 6.95639 0
M  V30 8430 H 758.293 0.852794 2.85537 0
M  V30 8431 H 755.83 0.432222 1.40607 0
M  V30 8432 H 757.788 -1.3786 3.93765 0
M  V30 8433 H 756.418 -1.58082 2.81443 0
M  V30 8434 H 755.47 0.651928 3.74772 0
M  V30 8435 H 756.782 0.63786 4.94705 0
M  V30 8436 H 755.936 -1.52902 5.87116 0
M  V30 8437 H 754.675 -1.59774 4.60786 0
M  V30 8438 H 753.68 0.5392 5.4715 0
M  V30 8439 H 754.905 0.591628 6.76518 0
M  V30 8440 H 752.851 -1.61515 6.35806 0
M  V30 8441 H 752.768 -0.361004 7.55138 0
M  V30 8442 H 754.036 -1.54687 7.63997 0
M  V30 8443 N 758.265 -1.50454 0.469181 0
M  V30 8444 C 759.175 -2.32248 -0.331349 0
M  V30 8445 C 760.191 -1.42548 -0.997807 0
M  V30 8446 O 761.367 -1.75602 -0.9862 0
M  V30 8447 C 758.432 -3.17171 -1.40012 0
M  V30 8448 C 757.493 -4.2269 -0.750463 0
M  V30 8449 C 756.726 -5.03554 -1.76831 0
M  V30 8450 O 756.949 -4.85469 -2.99459 0
M  V30 8451 O 755.883 -5.86767 -1.3412 0
M  V30 8452 H 759.709 -3.01821 0.337279 0
M  V30 8453 H 757.294 -1.47602 0.231066 0
M  V30 8454 H 759.176 -3.69871 -2.01924 0
M  V30 8455 H 757.851 -2.50328 -2.05226 0
M  V30 8456 H 756.758 -3.73986 -0.0924446 0
M  V30 8457 H 758.091 -4.91997 -0.14131 0
M  V30 8458 N 759.743 -0.201713 -1.56304 0
M  V30 8459 C 760.992 0.435557 -1.96941 0
M  V30 8460 C 761.305 1.62299 -1.09172 0
M  V30 8461 O 762.511 2.32849 -1.3962 0
M  V30 8462 C 760.967 0.826298 -3.50286 0
M  V30 8463 C 760.575 -0.337216 -4.46729 0
M  V30 8464 C 762.319 1.43028 -3.99679 0
M  V30 8465 C 760.226 0.0748539 -5.91353 0
M  V30 8466 H 759.156 0.1665 -0.735387 0
M  V30 8467 H 761.807 -0.294781 -1.81117 0
M  V30 8468 H 760.189 1.61349 -3.61639 0
M  V30 8469 H 761.363 -1.11476 -4.47113 0
M  V30 8470 H 759.678 -0.853126 -4.07567 0
M  V30 8471 H 762.275 1.75115 -5.05212 0
M  V30 8472 H 762.618 2.33911 -3.44371 0
M  V30 8473 H 763.151 0.706924 -3.91468 0
M  V30 8474 H 759.89 -0.799957 -6.506 0
M  V30 8475 H 759.41 0.817122 -5.94208 0
M  V30 8476 H 761.089 0.508389 -6.45 0
M  V30 8477 N 761.222 1.57436 0.0718424 0
M  V30 8478 C 762.45 1.91474 0.783932 0
M  V30 8479 C 762.865 0.797669 1.71122 0
M  V30 8480 O 762.222 -0.228989 1.81058 0
M  V30 8481 C 762.273 3.25259 1.57761 0
M  V30 8482 O 761.994 4.3267 0.687596 0
M  V30 8483 C 763.495 3.7331 2.3907 0
M  V30 8484 H 760.715 0.632901 0.222885 0
M  V30 8485 H 763.259 2.04457 0.0421262 0
M  V30 8486 H 761.414 3.13804 2.27169 0
M  V30 8487 H 761.828 5.09641 1.23962 0
M  V30 8488 H 763.302 4.69551 2.90216 0
M  V30 8489 H 763.779 3.02318 3.18591 0
M  V30 8490 H 764.385 3.8771 1.74818 0
M  V30 8491 N 762.7 -0.34323 1.53817 0
M  V30 8492 C 763.93 -1.10188 1.74763 0
M  V30 8493 C 764.338 -1.82829 0.486856 0
M  V30 8494 O 763.681 -1.75236 -0.551198 0
M  V30 8495 C 763.743 -2.16 2.87375 0
M  V30 8496 C 763.407 -1.62931 4.26969 0
M  V30 8497 C 764.404 -1.08147 5.08528 0
M  V30 8498 C 762.089 -1.67769 4.73454 0
M  V30 8499 C 764.083 -0.589039 6.34672 0
M  V30 8500 C 761.77 -1.18138 5.99572 0
M  V30 8501 C 762.768 -0.637979 6.80014 0
M  V30 8502 O 762.456 -0.149073 8.03762 0
M  V30 8503 H 762.188 -0.33445 0.587469 0
M  V30 8504 H 764.742 -0.401109 2.01445 0
M  V30 8505 H 762.972 -2.89637 2.56218 0
M  V30 8506 H 764.661 -2.77432 2.96287 0
M  V30 8507 H 765.427 -1.03732 4.73777 0
M  V30 8508 H 761.306 -2.09004 4.10899 0
M  V30 8509 H 764.85 -0.164233 6.97407 0
M  V30 8510 H 760.747 -1.22254 6.33817 0
M  V30 8511 H 761.515 -0.266332 8.18067 0
M  V30 8512 N 764.178 -1.45556 -0.604258 0
M  V30 8513 C 765.141 -1.54091 -1.69672 0
M  V30 8514 C 766.141 -0.420076 -1.55216 0
M  V30 8515 O 767.331 -0.683671 -1.60224 0
M  V30 8516 C 764.463 -1.44063 -3.08964 0
M  V30 8517 H 765.656 -2.51431 -1.6347 0
M  V30 8518 H 763.209 -1.33046 -0.820273 0
M  V30 8519 H 763.944 -0.479201 -3.2074 0
M  V30 8520 H 763.729 -2.25362 -3.20865 0
M  V30 8521 H 765.219 -1.53075 -3.88533 0
M  V30 8522 N 765.656 0.84705 -1.32902 0
M  V30 8523 C 766.588 1.96308 -1.18304 0
M  V30 8524 C 767.601 1.62386 -0.116082 0
M  V30 8525 O 768.79 1.74713 -0.365751 0
M  V30 8526 C 765.89 3.29556 -0.790305 0
M  V30 8527 C 765.063 3.91668 -1.94717 0
M  V30 8528 C 764.122 5.0326 -1.53674 0
M  V30 8529 O 763.148 5.22847 -2.24989 0
M  V30 8530 N 764.35 5.78852 -0.437075 0
M  V30 8531 H 767.115 2.09369 -2.14441 0
M  V30 8532 H 764.676 1.02233 -1.25539 0
M  V30 8533 H 766.668 4.01624 -0.49799 0
M  V30 8534 H 765.238 3.12497 0.0801286 0
M  V30 8535 H 764.458 3.12292 -2.40557 0
M  V30 8536 H 765.746 4.299 -2.72146 0
M  V30 8537 H 765.144 5.65484 0.156316 0
M  V30 8538 H 763.701 6.51479 -0.204399 0
M  V30 8539 N 767.134 1.16236 1.06428 0
M  V30 8540 C 768.359 0.967688 1.83441 0
M  V30 8541 C 768.784 -0.479167 1.81894 0
M  V30 8542 O 768.142 -1.34224 1.21875 0
M  V30 8543 C 768.19 1.49806 3.2801 0
M  V30 8544 O 767.294 0.703481 4.06356 0
M  V30 8545 H 766.635 0.344468 0.56766 0
M  V30 8546 H 769.165 1.54442 1.34197 0
M  V30 8547 H 769.175 1.51495 3.78831 0
M  V30 8548 H 767.85 2.55133 3.2845 0
M  V30 8549 H 766.427 0.756986 3.65136 0
M  V30 8550 N 768.612 -1.24939 0.960631 0
M  V30 8551 C 769.542 -2.28 0.503815 0
M  V30 8552 C 770.523 -1.63959 -0.452928 0
M  V30 8553 O 771.708 -1.91009 -0.350585 0
M  V30 8554 C 768.838 -3.46643 -0.213535 0
M  V30 8555 C 767.792 -4.22903 0.658535 0
M  V30 8556 C 767.118 -5.34363 -0.189902 0
M  V30 8557 C 768.418 -4.84949 1.93963 0
M  V30 8558 H 770.112 -2.66462 1.36521 0
M  V30 8559 H 767.658 -1.28093 0.657897 0
M  V30 8560 H 769.611 -4.1787 -0.544286 0
M  V30 8561 H 768.335 -3.07187 -1.10923 0
M  V30 8562 H 766.994 -3.53467 0.972455 0
M  V30 8563 H 766.642 -4.91147 -1.08553 0
M  V30 8564 H 766.342 -5.86302 0.390331 0
M  V30 8565 H 767.866 -6.0842 -0.515484 0
M  V30 8566 H 769.28 -5.48288 1.67491 0
M  V30 8567 H 767.677 -5.47091 2.46601 0
M  V30 8568 H 768.747 -4.06799 2.639 0
M  V30 8569 N 770.09 -0.729906 -1.39679 0
M  V30 8570 C 771.318 -0.285709 -2.04918 0
M  V30 8571 C 771.733 1.07765 -1.55023 0
M  V30 8572 O 771.09 1.67999 -0.712923 0
M  V30 8573 C 771.141 -0.272793 -3.60469 0
M  V30 8574 O 770.862 -1.58233 -4.08527 0
M  V30 8575 C 772.363 0.188199 -4.429 0
M  V30 8576 H 769.583 -0.125758 -0.65911 0
M  V30 8577 H 772.127 -0.992129 -1.78821 0
M  V30 8578 H 770.282 0.384699 -3.85485 0
M  V30 8579 H 770.696 -1.49245 -5.02818 0
M  V30 8580 H 772.17 0.14608 -5.51807 0
M  V30 8581 H 772.647 1.2326 -4.21549 0
M  V30 8582 H 773.253 -0.439541 -4.23023 0
M  V30 8583 N 771.568 1.50203 -0.477153 0
M  V30 8584 C 772.478 2.32421 0.319027 0
M  V30 8585 C 773.494 1.43075 0.990233 0
M  V30 8586 O 774.67 1.76123 0.976873 0
M  V30 8587 C 771.735 3.17909 1.38328 0
M  V30 8588 C 770.796 4.23082 0.728036 0
M  V30 8589 C 770.029 5.04484 1.74158 0
M  V30 8590 O 770.252 4.8705 2.96881 0
M  V30 8591 O 769.186 5.8747 1.31006 0
M  V30 8592 H 773.012 3.01638 -0.353281 0
M  V30 8593 H 770.597 1.47478 -0.238891 0
M  V30 8594 H 772.479 3.70937 1.9996 0
M  V30 8595 H 771.154 2.51413 2.03895 0
M  V30 8596 H 770.061 3.7403 0.07261 0
M  V30 8597 H 771.394 4.92065 0.115216 0
M  V30 8598 N 773.046 0.209999 1.56195 0
M  V30 8599 C 773.993 -0.704854 2.19774 0
M  V30 8600 C 774.963 -1.19886 1.14964 0
M  V30 8601 O 776.148 -1.26005 1.43274 0
M  V30 8602 C 773.288 -1.91241 2.87265 0
M  V30 8603 C 772.401 -1.45838 4.06639 0
M  V30 8604 C 771.536 -2.6226 4.61945 0
M  V30 8605 C 770.575 -2.13537 5.73645 0
M  V30 8606 N 769.712 -3.2319 6.23292 0
M  V30 8607 H 774.552 -0.155944 2.97592 0
M  V30 8608 H 772.089 -0.0652235 1.46955 0
M  V30 8609 H 774.047 -2.62123 3.24573 0
M  V30 8610 H 772.677 -2.43439 2.11985 0
M  V30 8611 H 771.729 -0.644897 3.74894 0
M  V30 8612 H 773.041 -1.06103 4.87384 0
M  V30 8613 H 772.195 -3.41243 5.01636 0
M  V30 8614 H 770.934 -3.05278 3.80338 0
M  V30 8615 H 769.939 -1.33013 5.33468 0
M  V30 8616 H 771.164 -1.71533 6.57079 0
M  V30 8617 H 769.11 -3.65711 5.44602 0
M  V30 8618 H 769.027 -2.8767 6.99129 0
M  V30 8619 H 770.295 -4.02342 6.67639 0
M  V30 8620 N 774.524 -1.57472 -0.0634922 0
M  V30 8621 C 775.935 -1.76303 -0.614337 0
M  V30 8622 C 776.286 -0.836578 -1.77471 0
M  V30 8623 O 775.411 -0.0227184 -2.16388 0
M  V30 8624 C 776.006 -3.19709 -1.12122 0
M  V30 8625 C 774.565 -3.39856 -1.61786 0
M  V30 8626 C 773.712 -2.71975 -0.540845 0
M  V30 8627 H 776.663 -1.57864 0.162702 0
M  V30 8628 H 776.684 -3.24326 -1.98979 0
M  V30 8629 H 776.196 -3.87114 -0.276472 0
M  V30 8630 H 774.297 -2.77578 -2.48558 0
M  V30 8631 H 774.41 -4.48338 -1.68908 0
M  V30 8632 H 772.774 -2.34763 -0.987854 0
M  V30 8633 H 773.557 -3.4204 0.293856 0
M  V30 8634 N 776.003 0.335068 -1.53997 0
M  V30 8635 C 777.249 1.07594 -1.71905 0
M  V30 8636 C 777.582 1.88039 -0.485264 0
M  V30 8637 O 776.857 1.87482 0.517752 0
M  V30 8638 C 777.14 2.01016 -2.98772 0
M  V30 8639 C 776.993 1.23977 -4.32377 0
M  V30 8640 C 778.312 3.0071 -3.21343 0
M  V30 8641 H 775.431 0.38976 -0.625505 0
M  V30 8642 H 778.073 0.353684 -1.86679 0
M  V30 8643 H 776.223 2.62603 -2.86307 0
M  V30 8644 H 777.895 0.649383 -4.56706 0
M  V30 8645 H 776.138 0.541878 -4.30402 0
M  V30 8646 H 776.809 1.92512 -5.17342 0
M  V30 8647 H 779.285 2.4924 -3.33194 0
M  V30 8648 H 778.161 3.63272 -4.11491 0
M  V30 8649 H 778.422 3.72549 -2.38033 0
M  V30 8650 N 777.481 1.45874 0.596531 0
M  V30 8651 C 778.428 1.55389 1.70655 0
M  V30 8652 C 779.398 0.399036 1.61236 0
M  V30 8653 O 780.583 0.61396 1.80652 0
M  V30 8654 C 777.723 1.53705 3.0898 0
M  V30 8655 C 776.836 2.79823 3.29125 0
M  V30 8656 C 775.971 2.69735 4.5762 0
M  V30 8657 C 775.01 3.90856 4.71061 0
M  V30 8658 N 774.147 3.79237 5.90867 0
M  V30 8659 H 778.987 2.50211 1.61859 0
M  V30 8660 H 776.524 1.24146 0.789069 0
M  V30 8661 H 778.482 1.50715 3.89026 0
M  V30 8662 H 777.112 0.624247 3.16706 0
M  V30 8663 H 776.164 2.92852 2.42779 0
M  V30 8664 H 777.476 3.69628 3.34927 0
M  V30 8665 H 776.63 2.64773 5.45875 0
M  V30 8666 H 775.369 1.77547 4.54234 0
M  V30 8667 H 774.374 3.96164 3.81227 0
M  V30 8668 H 775.599 4.84124 4.76236 0
M  V30 8669 H 773.545 2.89825 5.88504 0
M  V30 8670 H 773.462 4.62686 5.97877 0
M  V30 8671 H 774.73 3.78227 6.8159 0
M  V30 8672 N 778.959 -0.83999 1.33349 0
M  V30 8673 C 780.207 -1.59202 1.24496 0
M  V30 8674 C 780.528 -1.94077 -0.189499 0
M  V30 8675 O 779.798 -1.60868 -1.11796 0
M  V30 8676 H 778.378 -0.590276 0.457802 0
M  V30 8677 H 781.04 -1.00394 1.67054 0
M  V30 8678 H 780.136 -2.52247 1.83788 0
M  V30 8679 N 780.437 -1.16799 -1.0581 0
M  V30 8680 C 781.37 -0.822491 -2.12862 0
M  V30 8681 C 782.348 0.208006 -1.61264 0
M  V30 8682 O 783.532 0.0909652 -1.8828 0
M  V30 8683 C 780.659 -0.225826 -3.37946 0
M  V30 8684 C 779.705 -1.23071 -4.08357 0
M  V30 8685 S 780.538 -2.77944 -4.5772 0
M  V30 8686 C 781.694 -2.19741 -5.86059 0
M  V30 8687 H 781.927 -1.72917 -2.41841 0
M  V30 8688 H 779.46 -0.991982 -1.18318 0
M  V30 8689 H 781.418 0.111955 -4.10347 0
M  V30 8690 H 780.079 0.658692 -3.07116 0
M  V30 8691 H 779.272 -0.761758 -4.9821 0
M  V30 8692 H 778.874 -1.51383 -3.41993 0
M  V30 8693 H 781.166 -1.5691 -6.59079 0
M  V30 8694 H 782.109 -3.07823 -6.37692 0
M  V30 8695 H 782.517 -1.63433 -5.40324 0
M  V30 8696 N 781.915 1.24427 -0.967243 0
M  V30 8697 C 782.845 2.2773 -0.515899 0
M  V30 8698 C 783.826 1.64197 0.444227 0
M  V30 8699 O 785.011 1.91193 0.340451 0
M  V30 8700 C 782.141 3.46751 0.195149 0
M  V30 8701 C 781.095 4.22548 -0.680953 0
M  V30 8702 C 780.421 5.34456 0.161561 0
M  V30 8703 C 781.721 4.83914 -1.96532 0
M  V30 8704 H 783.415 2.65735 -1.37933 0
M  V30 8705 H 780.961 1.27742 -0.664681 0
M  V30 8706 H 782.914 4.18153 0.522117 0
M  V30 8707 H 781.638 3.07771 1.09292 0
M  V30 8708 H 780.297 3.52946 -0.991186 0
M  V30 8709 H 779.945 4.91716 1.05947 0
M  V30 8710 H 779.645 5.86087 -0.421418 0
M  V30 8711 H 781.169 6.08685 0.483211 0
M  V30 8712 H 782.583 5.47392 -1.70396 0
M  V30 8713 H 780.98 5.45775 -2.49499 0
M  V30 8714 H 782.05 4.05393 -2.66053 0
M  V30 8715 N 783.393 0.737304 1.3929 0
M  V30 8716 C 784.621 0.296573 2.04763 0
M  V30 8717 C 785.036 -1.06941 1.55592 0
M  V30 8718 O 784.393 -1.67619 0.721822 0
M  V30 8719 C 784.444 0.291906 3.6032 0
M  V30 8720 O 784.165 1.60397 4.07682 0
M  V30 8721 C 785.666 -0.164708 4.42994 0
M  V30 8722 H 782.886 0.129251 0.658434 0
M  V30 8723 H 785.43 1.0016 1.78293 0
M  V30 8724 H 783.585 -0.364251 3.85684 0
M  V30 8725 H 783.999 1.51909 5.0202 0
M  V30 8726 H 785.473 -0.116814 5.51876 0
M  V30 8727 H 785.95 -1.21022 4.22197 0
M  V30 8728 H 786.556 0.461968 4.22784 0
M  V30 8729 N 784.871 -1.49948 0.485112 0
M  V30 8730 C 786.119 -2.01996 -0.0648775 0
M  V30 8731 C 786.44 -1.36819 -1.38945 0
M  V30 8732 O 785.71 -0.518163 -1.88923 0
M  V30 8733 H 784.29 -0.746513 -0.0269662 0
M  V30 8734 H 786.952 -1.84136 0.638733 0
M  V30 8735 H 786.048 -3.11418 -0.20617 0
M  V30 8736 N 786.349 -0.21828 -1.56081 0
M  V30 8737 C 787.76 0.290166 -1.84431 0
M  V30 8738 C 788.111 1.59712 -1.13958 0
M  V30 8739 O 787.236 2.12516 -0.40815 0
M  V30 8740 C 787.831 0.53325 -3.34577 0
M  V30 8741 C 786.39 0.986011 -3.63256 0
M  V30 8742 C 785.537 0.0472798 -2.7726 0
M  V30 8743 H 788.488 -0.441548 -1.52434 0
M  V30 8744 H 788.509 1.37967 -3.54606 0
M  V30 8745 H 788.021 -0.418137 -3.85841 0
M  V30 8746 H 786.122 1.95087 -3.17446 0
M  V30 8747 H 786.235 0.862684 -4.71269 0
M  V30 8748 H 784.599 0.553471 -2.48614 0
M  V30 8749 H 785.382 -0.898966 -3.31321 0
M  V30 8750 N 787.827 1.57504 0.0551401 0
M  V30 8751 C 789.073 1.88334 0.752216 0
M  V30 8752 C 789.406 0.812742 1.76375 0
M  V30 8753 O 788.681 -0.175198 1.93709 0
M  V30 8754 C 788.964 3.29824 1.44528 0
M  V30 8755 C 788.817 4.47553 0.449026 0
M  V30 8756 C 790.136 3.69808 2.38601 0
M  V30 8757 H 787.255 0.684973 0.271995 0
M  V30 8758 H 789.897 1.89994 0.0151895 0
M  V30 8759 H 788.047 3.28539 2.07351 0
M  V30 8760 H 789.719 4.60967 -0.175277 0
M  V30 8761 H 787.962 4.33168 -0.234162 0
M  V30 8762 H 788.633 5.43376 0.971917 0
M  V30 8763 H 791.109 3.72293 1.85842 0
M  V30 8764 H 789.985 4.69665 2.84088 0
M  V30 8765 H 790.246 3.00641 3.24141 0
M  V30 8766 N 789.305 -0.326896 1.54172 0
M  V30 8767 C 790.533 -1.08486 1.76177 0
M  V30 8768 C 790.948 -1.81815 0.508788 0
M  V30 8769 O 790.305 -1.74924 -0.520362 0
M  V30 8770 C 790.356 -2.08552 2.95276 0
M  V30 8771 O 790.077 -1.38202 4.15731 0
M  V30 8772 C 791.578 -2.96593 3.29466 0
M  V30 8773 H 788.798 -0.322835 0.588233 0
M  V30 8774 H 791.342 -0.374036 2.0105 0
M  V30 8775 H 789.497 -2.75174 2.72687 0
M  V30 8776 H 789.911 -2.05186 4.827 0
M  V30 8777 H 791.385 -3.62708 4.16109 0
M  V30 8778 H 791.862 -3.63511 2.46487 0
M  V30 8779 H 792.468 -2.35537 3.54122 0
M  V30 8780 N 790.784 -1.46188 -0.588786 0
M  V30 8781 C 792.033 -1.50452 -1.34339 0
M  V30 8782 C 792.346 -0.158096 -1.9496 0
M  V30 8783 O 793.552 -0.0784918 -2.71387 0
M  V30 8784 C 792.008 -2.65074 -2.43441 0
M  V30 8785 C 791.616 -4.06111 -1.8915 0
M  V30 8786 C 793.36 -2.78603 -3.20282 0
M  V30 8787 C 791.267 -5.12084 -2.95845 0
M  V30 8788 H 790.197 -0.559905 -0.504997 0
M  V30 8789 H 792.848 -1.72382 -0.629014 0
M  V30 8790 H 791.23 -2.36462 -3.1765 0
M  V30 8791 H 792.404 -4.44487 -1.21524 0
M  V30 8792 H 790.719 -3.97197 -1.24995 0
M  V30 8793 H 793.316 -3.54944 -3.99898 0
M  V30 8794 H 793.659 -1.85902 -3.72486 0
M  V30 8795 H 794.192 -3.06832 -2.53178 0
M  V30 8796 H 790.931 -6.06556 -2.48535 0
M  V30 8797 H 790.451 -4.78259 -3.61979 0
M  V30 8798 H 792.13 -5.37661 -3.59902 0
M  V30 8799 N 792.262 0.832906 -1.33792 0
M  V30 8800 C 793.195 1.94788 -1.18882 0
M  V30 8801 C 794.173 1.62389 -0.0828426 0
M  V30 8802 O 795.357 1.86886 -0.246175 0
M  V30 8803 C 792.484 3.28506 -0.824728 0
M  V30 8804 C 791.53 3.79872 -1.93905 0
M  V30 8805 S 792.363 4.00832 -3.55097 0
M  V30 8806 C 793.519 5.37492 -3.20708 0
M  V30 8807 H 793.752 2.07137 -2.13264 0
M  V30 8808 H 791.285 0.987362 -1.18704 0
M  V30 8809 H 793.243 4.05769 -0.621442 0
M  V30 8810 H 791.904 3.13939 0.100587 0
M  V30 8811 H 791.097 4.76647 -1.6378 0
M  V30 8812 H 790.699 3.09524 -2.09931 0
M  V30 8813 H 792.991 6.20544 -2.71903 0
M  V30 8814 H 793.934 5.72593 -4.16584 0
M  V30 8815 H 794.342 5.02529 -2.57148 0
M  V30 8816 N 793.74 1.17359 1.05189 0
M  V30 8817 C 794.965 0.98709 1.82404 0
M  V30 8818 C 795.39 -0.459848 1.82392 0
M  V30 8819 O 794.748 -1.32924 1.23292 0
M  V30 8820 C 794.796 1.53276 3.26403 0
M  V30 8821 O 793.9 0.746541 4.05587 0
M  V30 8822 H 793.241 0.35047 0.563974 0
M  V30 8823 H 795.771 1.55856 1.32552 0
M  V30 8824 H 795.781 1.55504 3.77203 0
M  V30 8825 H 794.456 2.58603 3.25726 0
M  V30 8826 H 793.033 0.795671 3.64312 0
M  V30 8827 N 795.218 -1.23913 0.973828 0
M  V30 8828 C 796.464 -1.92747 0.649635 0
M  V30 8829 C 796.819 -1.7465 -0.807157 0
M  V30 8830 O 796.112 -1.09271 -1.57386 0
M  V30 8831 C 796.306 -3.4406 0.967356 0
M  V30 8832 C 796.135 -3.76874 2.45348 0
M  V30 8833 C 794.905 -3.97915 3.11435 0
M  V30 8834 C 797.103 -3.82871 3.43386 0
M  V30 8835 N 795.085 -4.1788 4.49722 0
M  V30 8836 C 796.456 -4.07751 4.67053 0
M  V30 8837 C 798.511 -3.65634 3.37958 0
M  V30 8838 C 797.214 -4.17185 5.8596 0
M  V30 8839 C 799.24 -3.76317 4.56223 0
M  V30 8840 C 798.602 -4.01628 5.78683 0
M  V30 8841 H 794.701 -0.72677 0.288667 0
M  V30 8842 H 797.285 -1.4928 1.24994 0
M  V30 8843 H 795.456 -3.86378 0.395804 0
M  V30 8844 H 797.188 -4.00211 0.601108 0
M  V30 8845 H 793.943 -3.94562 2.61949 0
M  V30 8846 H 794.367 -4.31829 5.21395 0
M  V30 8847 H 799.009 -3.45067 2.44312 0
M  V30 8848 H 796.727 -4.36562 6.80029 0
M  V30 8849 H 800.313 -3.64343 4.53592 0
M  V30 8850 H 799.193 -4.09699 6.68667 0
M  V30 8851 N 796.696 -0.74468 -1.38897 0
M  V30 8852 C 797.921 -0.306119 -2.05128 0
M  V30 8853 C 798.346 1.0541 -1.55789 0
M  V30 8854 O 797.704 1.66993 -0.705909 0
M  V30 8855 C 797.752 -0.328195 -3.59103 0
M  V30 8856 O 796.856 0.680876 -4.06741 0
M  V30 8857 H 796.197 -0.137209 -0.649669 0
M  V30 8858 H 798.727 -1.01331 -1.77745 0
M  V30 8859 H 798.737 -0.175956 -4.0762 0
M  V30 8860 H 797.412 -1.32067 -3.94374 0
M  V30 8861 H 795.989 0.49398 -3.69614 0
M  V30 8862 N 798.174 1.49689 -0.493057 0
M  V30 8863 C 799.404 2.06536 0.0512397 0
M  V30 8864 C 799.812 1.35459 1.32089 0
M  V30 8865 O 799.155 0.424145 1.78736 0
M  V30 8866 C 799.217 3.57452 0.383231 0
M  V30 8867 C 798.881 4.50163 -0.787555 0
M  V30 8868 C 799.878 4.92151 -1.67582 0
M  V30 8869 C 797.563 4.92565 -0.984109 0
M  V30 8870 C 799.557 5.7527 -2.74487 0
M  V30 8871 C 797.244 5.75463 -2.05634 0
M  V30 8872 C 798.242 6.16719 -2.93507 0
M  V30 8873 O 797.93 6.97961 -3.98881 0
M  V30 8874 H 797.662 0.675862 -0.0136516 0
M  V30 8875 H 800.216 1.9356 -0.687298 0
M  V30 8876 H 798.446 3.68408 1.17526 0
M  V30 8877 H 800.135 3.96572 0.8652 0
M  V30 8878 H 800.901 4.60043 -1.53575 0
M  V30 8879 H 796.78 4.5996 -0.309541 0
M  V30 8880 H 800.324 6.07392 -3.43104 0
M  V30 8881 H 796.221 6.06983 -2.19639 0
M  V30 8882 H 796.989 7.16253 -3.96137 0
M  V30 8883 N 799.652 0.226554 1.55963 0
M  V30 8884 C 800.882 -0.407915 2.02533 0
M  V30 8885 C 801.29 -1.53539 1.10554 0
M  V30 8886 O 800.633 -1.8338 0.108409 0
M  V30 8887 C 800.695 -0.996081 3.45425 0
M  V30 8888 C 800.359 -0.00341651 4.57 0
M  V30 8889 C 801.356 0.798782 5.13727 0
M  V30 8890 C 799.041 0.116786 5.02164 0
M  V30 8891 C 801.035 1.70784 6.14094 0
M  V30 8892 C 798.722 1.02937 6.02368 0
M  V30 8893 C 799.72 1.82344 6.5821 0
M  V30 8894 O 799.408 2.72067 7.56462 0
M  V30 8895 H 799.14 -0.103524 0.668026 0
M  V30 8896 H 801.694 0.341937 2.02534 0
M  V30 8897 H 799.924 -1.79512 3.42509 0
M  V30 8898 H 801.613 -1.53848 3.75614 0
M  V30 8899 H 802.379 0.716393 4.7968 0
M  V30 8900 H 798.258 -0.491172 4.58376 0
M  V30 8901 H 801.802 2.32807 6.57607 0
M  V30 8902 H 797.699 1.11276 6.35836 0
M  V30 8903 H 798.467 2.66199 7.74003 0
M  V30 8904 N 801.13 -1.57531 -0.0467866 0
M  V30 8905 C 802.546 -1.54451 -0.402107 0
M  V30 8906 C 802.746 -0.950275 -1.77685 0
M  V30 8907 O 801.802 -0.563602 -2.4613 0
M  V30 8908 C 803.115 -2.9899 -0.320212 0
M  V30 8909 C 804.663 -3.10452 -0.398588 0
M  V30 8910 C 805.138 -4.56689 -0.346335 0
M  V30 8911 N 806.629 -4.6142 -0.405666 0
M  V30 8912 C 807.364 -5.72087 -0.387845 0
M  V30 8913 N 806.86 -6.92045 -0.32336 0
M  V30 8914 N 808.653 -5.60404 -0.436263 0
M  V30 8915 H 800.804 -1.94515 0.853087 0
M  V30 8916 H 803.067 -0.891397 0.322669 0
M  V30 8917 H 802.773 -3.46124 0.623794 0
M  V30 8918 H 802.647 -3.60164 -1.1208 0
M  V30 8919 H 805.034 -2.63276 -1.33302 0
M  V30 8920 H 805.115 -2.52142 0.431026 0
M  V30 8921 H 804.759 -5.04527 0.584356 0
M  V30 8922 H 804.689 -5.12889 -1.19382 0
M  V30 8923 H 807.18 -3.75105 -0.458737 0
M  V30 8924 H 807.493 -7.7216 -0.314375 0
M  V30 8925 H 805.838 -6.94396 -0.28967 0
M  V30 8926 H 809.029 -4.65586 -0.48451 0
M  V30 8927 H 809.202 -6.46645 -0.418907 0
M  V30 8928 N 802.608 0.318715 -1.54344 0
M  V30 8929 C 803.518 1.41535 -1.87097 0
M  V30 8930 C 804.534 1.56361 -0.763353 0
M  V30 8931 O 805.71 1.71365 -1.05811 0
M  V30 8932 C 802.775 2.76178 -2.09587 0
M  V30 8933 C 801.836 2.70486 -3.3337 0
M  V30 8934 C 801.069 3.98708 -3.54778 0
M  V30 8935 O 801.292 4.9721 -2.79532 0
M  V30 8936 O 800.226 4.01674 -4.48266 0
M  V30 8937 H 804.052 1.16764 -2.80357 0
M  V30 8938 H 801.637 0.51318 -1.4031 0
M  V30 8939 H 803.519 3.55873 -2.25682 0
M  V30 8940 H 802.194 3.00829 -1.19514 0
M  V30 8941 H 801.101 1.89325 -3.22656 0
M  V30 8942 H 802.434 2.50789 -4.23516 0
M  V30 8943 N 804.086 1.46499 0.581025 0
M  V30 8944 C 805.363 1.42372 1.34125 0
M  V30 8945 C 805.743 0.108073 2.10823 0
M  V30 8946 O 805.091 -0.910366 2.09582 0
M  V30 8947 C 805.301 2.65445 2.26583 0
M  V30 8948 C 806.649 3.11664 2.88359 0
M  V30 8949 O 807.673 2.66006 2.36896 0
M  V30 8950 O 806.532 3.90974 3.81839 0
M  V30 8951 H 803.626 0.566262 0.602724 0
M  V30 8952 H 806.172 1.58667 0.601903 0
M  V30 8953 H 804.944 3.52756 1.69348 0
M  V30 8954 H 804.567 2.51618 3.07854 0
M  V30 8955 N 805.565 -0.825799 1.34232 0
M  V30 8956 C 806.814 -1.57686 1.2577 0
M  V30 8957 C 807.127 -1.94848 -0.171372 0
M  V30 8958 O 808.333 -2.68854 -0.378123 0
M  V30 8959 C 806.789 -2.84478 2.20454 0
M  V30 8960 C 806.397 -2.54629 3.68603 0
M  V30 8961 C 808.141 -3.625 2.20893 0
M  V30 8962 C 806.048 -3.77597 4.55164 0
M  V30 8963 H 804.978 -0.591809 0.467203 0
M  V30 8964 H 807.629 -0.909421 1.59379 0
M  V30 8965 H 806.011 -3.52832 1.79793 0
M  V30 8966 H 807.185 -1.94404 4.17784 0
M  V30 8967 H 805.5 -1.89888 3.70582 0
M  V30 8968 H 808.097 -4.538 2.82789 0
M  V30 8969 H 808.44 -3.98404 1.20746 0
M  V30 8970 H 808.973 -3.01086 2.59985 0
M  V30 8971 H 805.712 -3.46815 5.56237 0
M  V30 8972 H 805.232 -4.37116 4.10719 0
M  V30 8973 H 806.911 -4.45039 4.69627 0
M  V30 8974 N 807.043 -1.17915 -1.04565 0
M  V30 8975 C 808.454 -0.976383 -1.59134 0
M  V30 8976 C 808.805 0.475267 -1.90357 0
M  V30 8977 O 807.93 1.35172 -1.6899 0
M  V30 8978 C 808.525 -1.76604 -2.89131 0
M  V30 8979 C 807.084 -1.60777 -3.40335 0
M  V30 8980 C 806.231 -1.76369 -2.13985 0
M  V30 8981 H 809.182 -1.32532 -0.872985 0
M  V30 8982 H 809.203 -1.25215 -3.59307 0
M  V30 8983 H 808.715 -2.82252 -2.66375 0
M  V30 8984 H 806.816 -0.576436 -3.68114 0
M  V30 8985 H 806.929 -2.40268 -4.14497 0
M  V30 8986 H 805.293 -1.19268 -2.25049 0
M  V30 8987 H 806.076 -2.83441 -1.9369 0
M  V30 8988 N 808.521 1.23394 -0.980386 0
M  V30 8989 C 809.431 2.28561 -0.528864 0
M  V30 8990 C 810.447 1.68946 0.416329 0
M  V30 8991 O 811.623 1.99355 0.286251 0
M  V30 8992 C 808.688 3.46323 0.16155 0
M  V30 8993 C 807.749 4.21297 -0.825044 0
M  V30 8994 C 806.982 5.33437 -0.167483 0
M  V30 8995 O 807.205 5.60812 1.04146 0
M  V30 8996 O 806.139 5.95637 -0.866047 0
M  V30 8997 H 809.965 2.69326 -1.40346 0
M  V30 8998 H 807.55 1.29325 -0.748019 0
M  V30 8999 H 809.432 4.17811 0.548841 0
M  V30 9000 H 808.107 3.0751 1.01092 0
M  V30 9001 H 807.014 3.52134 -1.26303 0
M  V30 9002 H 808.347 4.6396 -1.64322 0
M  V30 9003 N 809.999 0.752036 1.385 0
M  V30 9004 C 811.415 0.42946 1.53713 0
M  V30 9005 C 811.615 -1.0576 1.71514 0
M  V30 9006 O 810.671 -1.84366 1.72527 0
M  V30 9007 C 811.984 1.22735 2.74511 0
M  V30 9008 C 813.532 1.21727 2.8836 0
M  V30 9009 C 814.007 1.99809 4.12117 0
M  V30 9010 N 815.498 1.97062 4.19191 0
M  V30 9011 C 816.233 2.54274 5.13938 0
M  V30 9012 N 815.729 3.20193 6.14368 0
M  V30 9013 N 817.522 2.44212 5.06277 0
M  V30 9014 H 809.673 1.71581 1.25195 0
M  V30 9015 H 811.936 0.727293 0.60807 0
M  V30 9016 H 811.642 2.28032 2.67758 0
M  V30 9017 H 811.516 0.843186 3.67655 0
M  V30 9018 H 813.903 0.172367 2.94596 0
M  V30 9019 H 813.984 1.64094 1.96232 0
M  V30 9020 H 813.628 3.0431 4.06642 0
M  V30 9021 H 813.558 1.54837 5.03322 0
M  V30 9022 H 816.049 1.49054 3.47263 0
M  V30 9023 H 816.362 3.61272 6.83156 0
M  V30 9024 H 814.707 3.24287 6.14705 0
M  V30 9025 H 817.898 1.92343 4.26757 0
M  V30 9026 H 818.071 2.89096 5.79937 0
M  V30 9027 N 811.477 -1.49425 0.500989 0
M  V30 9028 C 812.387 -2.32899 -0.282011 0
M  V30 9029 C 813.403 -1.44632 -0.967346 0
M  V30 9030 O 814.579 -1.77654 -0.94873 0
M  V30 9031 C 811.644 -3.20069 -1.33253 0
M  V30 9032 C 810.705 -4.24186 -0.660636 0
M  V30 9033 C 809.938 -5.07191 -1.6611 0
M  V30 9034 O 810.161 -4.91712 -2.89094 0
M  V30 9035 O 809.095 -5.8948 -1.21643 0
M  V30 9036 H 812.921 -3.01038 0.401224 0
M  V30 9037 H 810.506 -1.47079 0.262323 0
M  V30 9038 H 812.388 -3.74071 -1.94033 0
M  V30 9039 H 811.063 -2.54625 -1.9987 0
M  V30 9040 H 809.97 -3.74098 -0.0130959 0
M  V30 9041 H 811.303 -4.92186 -0.0369179 0
M  V30 9042 N 812.955 -0.234822 -1.55841 0
M  V30 9043 C 814.204 0.393685 -1.97821 0
M  V30 9044 C 814.517 1.59947 -1.1259 0
M  V30 9045 O 815.723 2.29835 -1.44528 0
M  V30 9046 C 814.179 0.751811 -3.5196 0
M  V30 9047 C 813.787 -0.431898 -4.45913 0
M  V30 9048 C 815.531 1.34518 -4.02623 0
M  V30 9049 C 813.438 -0.0505976 -5.91378 0
M  V30 9050 H 812.368 0.150864 -0.738753 0
M  V30 9051 H 815.019 -0.333132 -1.80451 0
M  V30 9052 H 813.401 1.53642 -3.6498 0
M  V30 9053 H 814.575 -1.20935 -4.44647 0
M  V30 9054 H 812.89 -0.939385 -4.05666 0
M  V30 9055 H 815.487 1.64359 -5.08813 0
M  V30 9056 H 815.83 2.26554 -3.49255 0
M  V30 9057 H 816.363 0.623729 -3.9288 0
M  V30 9058 H 813.102 -0.937779 -6.48757 0
M  V30 9059 H 812.622 0.690898 -5.95808 0
M  V30 9060 H 814.301 0.37146 -6.45933 0
M  V30 9061 N 814.433 1.57553 0.0384317 0
M  V30 9062 C 815.396 2.04927 1.02653 0
M  V30 9063 C 816.396 0.951768 1.29607 0
M  V30 9064 O 817.586 1.21568 1.24768 0
M  V30 9065 C 814.718 2.45828 2.36181 0
M  V30 9066 H 815.911 2.93474 0.617508 0
M  V30 9067 H 813.464 1.53679 0.285031 0
M  V30 9068 H 814.199 1.60408 2.8185 0
M  V30 9069 H 813.984 3.25945 2.1795 0
M  V30 9070 H 815.474 2.82939 3.0714 0
M  V30 9071 N 815.911 -0.310526 1.54511 0
M  V30 9072 C 817.141 -1.06456 1.77061 0
M  V30 9073 C 817.549 -1.81755 0.525528 0
M  V30 9074 O 816.892 -1.76365 -0.513904 0
M  V30 9075 C 816.954 -2.09856 2.91892 0
M  V30 9076 C 816.618 -1.53838 4.30329 0
M  V30 9077 C 817.615 -0.973358 5.10707 0
M  V30 9078 C 815.3 -1.57688 4.76906 0
M  V30 9079 C 817.294 -0.454283 6.35779 0
M  V30 9080 C 814.981 -1.05393 6.01943 0
M  V30 9081 C 815.979 -0.493595 6.81214 0
M  V30 9082 O 815.667 0.0214506 8.03897 0
M  V30 9083 H 815.399 -0.321913 0.594431 0
M  V30 9084 H 817.953 -0.358289 2.02251 0
M  V30 9085 H 816.183 -2.84137 2.62304 0
M  V30 9086 H 817.872 -2.71085 3.02106 0
M  V30 9087 H 818.638 -0.936588 4.75871 0
M  V30 9088 H 814.517 -2.00242 4.1524 0
M  V30 9089 H 818.061 -0.0162657 6.97598 0
M  V30 9090 H 813.958 -1.08782 6.36268 0
M  V30 9091 H 814.726 -0.0927478 8.18447 0
M  V30 9092 N 817.389 -1.46805 -0.573248 0
M  V30 9093 C 818.321 -1.54127 -1.6964 0
M  V30 9094 C 819.334 -0.428778 -1.57052 0
M  V30 9095 O 820.523 -0.697612 -1.64303 0
M  V30 9096 C 817.623 -1.41438 -3.07975 0
M  V30 9097 C 816.796 -2.66974 -3.46474 0
M  V30 9098 C 815.855 -2.48349 -4.63906 0
M  V30 9099 O 814.881 -3.22109 -4.69292 0
M  V30 9100 N 816.083 -1.55129 -5.59388 0
M  V30 9101 H 818.848 -2.50971 -1.6381 0
M  V30 9102 H 816.409 -1.42981 -0.759479 0
M  V30 9103 H 818.401 -1.26737 -3.84343 0
M  V30 9104 H 816.971 -0.527388 -3.08119 0
M  V30 9105 H 816.191 -2.9655 -2.59715 0
M  V30 9106 H 817.479 -3.50347 -3.68964 0
M  V30 9107 H 816.877 -0.94324 -5.57781 0
M  V30 9108 H 815.434 -1.46387 -6.35149 0
M  V30 9109 N 818.867 0.818669 -1.34668 0
M  V30 9110 C 820.116 1.57017 -1.26604 0
M  V30 9111 C 820.429 1.94936 0.161036 0
M  V30 9112 O 821.635 2.69051 0.36386 0
M  V30 9113 C 820.091 2.83305 -2.2196 0
M  V30 9114 C 819.699 2.52671 -3.69948 0
M  V30 9115 C 821.443 3.61324 -2.22813 0
M  V30 9116 C 819.35 3.75178 -4.5716 0
M  V30 9117 H 818.28 0.589323 -0.470335 0
M  V30 9118 H 820.931 0.900956 -1.59859 0
M  V30 9119 H 819.313 3.51874 -1.81661 0
M  V30 9120 H 820.487 1.92186 -4.18809 0
M  V30 9121 H 818.802 1.8792 -3.71584 0
M  V30 9122 H 821.399 4.52294 -2.85192 0
M  V30 9123 H 821.742 3.97759 -1.22857 0
M  V30 9124 H 822.275 2.99703 -2.61578 0
M  V30 9125 H 819.014 3.43861 -5.58068 0
M  V30 9126 H 818.534 4.34931 -4.13031 0
M  V30 9127 H 820.213 4.42542 -4.71981 0
M  V30 9128 N 820.346 1.18468 1.03938 0
M  V30 9129 C 821.309 0.914944 2.10146 0
M  V30 9130 C 822.309 -0.10022 1.60487 0
M  V30 9131 O 823.499 0.133365 1.73689 0
M  V30 9132 C 820.631 0.372993 3.38853 0
M  V30 9133 H 821.824 1.85677 2.35508 0
M  V30 9134 H 819.377 0.996876 1.20383 0
M  V30 9135 H 820.112 -0.57538 3.19155 0
M  V30 9136 H 819.897 1.1048 3.76213 0
M  V30 9137 H 821.387 0.203014 4.17106 0
M  V30 9138 N 821.824 -1.22873 0.986916 0
M  V30 9139 C 822.754 -2.2688 0.552064 0
M  V30 9140 C 823.735 -1.64883 -0.418048 0
M  V30 9141 O 824.92 -1.9171 -0.30999 0
M  V30 9142 C 822.05 -3.47018 -0.139959 0
M  V30 9143 C 821.004 -4.21411 0.748091 0
M  V30 9144 C 820.33 -5.34645 -0.0765132 0
M  V30 9145 C 821.63 -4.80726 2.04206 0
M  V30 9146 H 823.324 -2.63507 1.42143 0
M  V30 9147 H 820.87 -1.26668 0.68492 0
M  V30 9148 H 822.823 -4.18931 -0.455527 0
M  V30 9149 H 821.547 -3.0947 -1.04382 0
M  V30 9150 H 820.206 -3.51325 1.04721 0
M  V30 9151 H 819.854 -4.93339 -0.981109 0
M  V30 9152 H 819.554 -5.85342 0.514606 0
M  V30 9153 H 821.078 -6.09377 -0.386313 0
M  V30 9154 H 822.492 -5.44612 1.79083 0
M  V30 9155 H 820.889 -5.41737 2.5815 0
M  V30 9156 H 821.959 -4.01109 2.72469 0
M  V30 9157 N 823.302 -0.75937 -1.38099 0
M  V30 9158 C 824.265 -0.14372 -2.28749 0
M  V30 9159 C 825.265 0.641338 -1.47457 0
M  V30 9160 O 826.455 0.466751 -1.67831 0
M  V30 9161 C 823.587 0.804545 -3.3127 0
M  V30 9162 H 824.78 -0.942663 -2.847 0
M  V30 9163 H 822.333 -0.526757 -1.47156 0
M  V30 9164 H 823.068 1.62895 -2.80421 0
M  V30 9165 H 822.853 0.243939 -3.9134 0
M  V30 9166 H 824.343 1.23111 -3.99041 0
M  V30 9167 N 824.78 1.49157 -0.508906 0
M  V30 9168 C 826.029 2.0167 0.0346854 0
M  V30 9169 C 826.342 1.39302 1.37311 0
M  V30 9170 O 827.548 1.83189 2.00385 0
M  V30 9171 C 826.004 3.59725 0.112261 0
M  V30 9172 C 825.612 4.31069 -1.21999 0
M  V30 9173 C 827.356 4.20155 0.605798 0
M  V30 9174 C 825.263 5.81001 -1.10415 0
M  V30 9175 H 824.193 0.753814 0.0167355 0
M  V30 9176 H 826.844 1.7162 -0.649518 0
M  V30 9177 H 825.226 3.86525 0.861087 0
M  V30 9178 H 826.4 4.15962 -1.98273 0
M  V30 9179 H 824.715 3.82418 -1.64759 0
M  V30 9180 H 827.312 5.29964 0.710102 0
M  V30 9181 H 827.655 3.84051 1.60656 0
M  V30 9182 H 828.188 3.97705 -0.0867239 0
M  V30 9183 H 824.927 6.21643 -2.07941 0
M  V30 9184 H 824.447 5.9858 -0.382428 0
M  V30 9185 H 826.126 6.42207 -0.786116 0
M  V30 9186 N 826.258 0.243083 1.55714 0
M  V30 9187 C 827.206 -0.674349 2.2261 0
M  V30 9188 C 828.2 -1.18307 1.21243 0
M  V30 9189 O 829.406 -1.1404 1.39265 0
M  V30 9190 H 825.781 -0.235941 0.714028 0
M  V30 9191 H 827.752 -0.0869446 2.98273 0
M  V30 9192 C 826.501 -1.86206 2.93637 0
M  V30 9193 H 825.824 -1.47975 3.71407 0
M  V30 9194 H 827.264 -2.4813 3.43813 0
M  V30 9195 C 825.723 -2.73084 1.97298 0
M  V30 9196 O 826.253 -3.72497 1.50361 0
M  V30 9197 N 824.459 -2.39571 1.64482 0
M  V30 9198 H 824.006 -1.5878 2.02846 0
M  V30 9199 H 823.964 -2.97976 1.00288 0
M  V30 9200 N 827.736 -1.57571 -0.0300757 0
M  V30 9201 C 828.646 -2.09892 -1.04798 0
M  V30 9202 C 829.662 -1.03732 -1.39698 0
M  V30 9203 O 830.838 -1.35461 -1.49038 0
M  V30 9204 C 827.903 -2.56707 -2.33028 0
M  V30 9205 C 826.964 -3.77345 -2.04718 0
M  V30 9206 C 826.197 -4.21918 -3.26834 0
M  V30 9207 O 826.42 -3.66025 -4.37472 0
M  V30 9208 O 825.354 -5.14362 -3.12594 0
M  V30 9209 H 829.18 -2.97023 -0.633344 0
M  V30 9210 H 826.765 -1.47344 -0.246991 0
M  V30 9211 H 828.647 -2.87154 -3.08417 0
M  V30 9212 H 827.322 -1.72688 -2.73789 0
M  V30 9213 H 826.229 -3.51919 -1.26901 0
M  V30 9214 H 827.562 -4.62345 -1.68813 0
M  V30 9215 N 829.214 0.302327 -1.54673 0
M  V30 9216 C 830.124 1.39542 -1.88587 0
M  V30 9217 C 831.14 1.55543 -0.779895 0
M  V30 9218 O 832.316 1.70233 -1.07623 0
M  V30 9219 C 829.381 2.7394 -2.12504 0
M  V30 9220 C 828.442 2.66935 -3.3622 0
M  V30 9221 C 827.675 3.94923 -3.58987 0
M  V30 9222 O 827.898 4.94218 -2.84789 0
M  V30 9223 O 826.832 3.96896 -4.52501 0
M  V30 9224 H 830.658 1.13784 -2.81579 0
M  V30 9225 H 828.243 0.49827 -1.40846 0
M  V30 9226 H 830.125 3.5346 -2.29443 0
M  V30 9227 H 828.8 2.99544 -1.22698 0
M  V30 9228 H 827.707 1.85892 -3.24646 0
M  V30 9229 H 829.04 2.46283 -4.26152 0
M  V30 9230 N 830.692 1.47107 0.565454 0
M  V30 9231 C 831.938 1.53535 1.32495 0
M  V30 9232 C 832.271 0.193537 1.93233 0
M  V30 9233 O 831.546 -0.796956 1.77423 0
M  V30 9234 C 831.829 2.64712 2.4413 0
M  V30 9235 C 831.682 4.08482 1.88314 0
M  V30 9236 C 833.001 2.71853 3.46098 0
M  V30 9237 H 830.12 0.558926 0.480386 0
M  V30 9238 H 832.762 1.79125 0.633575 0
M  V30 9239 H 830.912 2.43023 3.03104 0
M  V30 9240 H 832.584 4.4151 1.33665 0
M  V30 9241 H 830.827 4.17148 1.19037 0
M  V30 9242 H 831.498 4.82032 2.68978 0
M  V30 9243 H 833.974 2.91397 2.97031 0
M  V30 9244 H 832.85 3.51433 4.21646 0
M  V30 9245 H 833.111 1.78584 4.04426 0
M  V30 9246 N 832.17 -0.811516 1.35101 0
M  V30 9247 C 833.117 -1.92308 1.27617 0
M  V30 9248 C 834.087 -1.6543 0.149091 0
M  V30 9249 O 835.272 -1.8789 0.331974 0
M  V30 9250 C 832.412 -3.28768 1.04908 0
M  V30 9251 C 831.525 -3.67865 2.26493 0
M  V30 9252 C 830.66 -4.9333 1.96974 0
M  V30 9253 C 829.699 -5.25041 3.1464 0
M  V30 9254 N 828.836 -6.41685 2.84929 0
M  V30 9255 H 833.676 -1.98041 2.22674 0
M  V30 9256 H 831.213 -0.968755 1.10696 0
M  V30 9257 H 833.171 -4.07426 0.897749 0
M  V30 9258 H 831.801 -3.22517 0.135151 0
M  V30 9259 H 830.853 -2.84507 2.52507 0
M  V30 9260 H 832.165 -3.87263 3.14371 0
M  V30 9261 H 831.319 -5.79803 1.78643 0
M  V30 9262 H 830.058 -4.75958 1.06374 0
M  V30 9263 H 829.063 -4.3706 3.33554 0
M  V30 9264 H 830.288 -5.44346 4.06035 0
M  V30 9265 H 828.234 -6.25747 1.96918 0
M  V30 9266 H 828.151 -6.6131 3.66341 0
M  V30 9267 H 829.419 -7.31198 2.70128 0
M  V30 9268 N 833.648 -1.19017 -1.03309 0
M  V30 9269 C 834.925 -0.899659 -1.73682 0
M  V30 9270 C 835.305 0.595677 -2.02521 0
M  V30 9271 O 834.653 1.55263 -1.67648 0
M  V30 9272 C 834.863 -1.75508 -3.01659 0
M  V30 9273 C 836.211 -1.98679 -3.75249 0
M  V30 9274 O 837.235 -1.72624 -3.11576 0
M  V30 9275 O 836.094 -2.42587 -4.89708 0
M  V30 9276 H 833.188 -0.334903 -0.756154 0
M  V30 9277 H 835.734 -1.29809 -1.09305 0
M  V30 9278 H 834.506 -2.7684 -2.76542 0
M  V30 9279 H 834.129 -1.35565 -3.73775 0
M  V30 9280 N 835.127 1.22348 -0.993418 0
M  V30 9281 C 836.057 2.26584 -0.564088 0
M  V30 9282 C 837.038 1.65102 0.409298 0
M  V30 9283 O 838.223 1.91872 0.299819 0
M  V30 9284 C 835.353 3.47087 0.121554 0
M  V30 9285 C 834.307 4.21009 -0.770429 0
M  V30 9286 C 833.633 5.34678 0.0481586 0
M  V30 9287 C 834.933 4.79636 -2.06752 0
M  V30 9288 H 836.627 2.62749 -1.43538 0
M  V30 9289 H 834.173 1.26303 -0.691628 0
M  V30 9290 H 836.126 4.19166 0.433303 0
M  V30 9291 H 834.85 3.1002 1.0274 0
M  V30 9292 H 833.509 3.50764 -1.06583 0
M  V30 9293 H 833.157 4.93852 0.954933 0
M  V30 9294 H 832.857 5.85061 -0.545641 0
M  V30 9295 H 834.381 6.09573 0.353991 0
M  V30 9296 H 835.795 5.43654 -1.81969 0
M  V30 9297 H 834.192 5.4036 -2.61019 0
M  V30 9298 H 835.262 3.99659 -2.74592 0
M  V30 9299 N 836.605 0.766683 1.37694 0
M  V30 9300 C 837.515 0.150158 2.34119 0
M  V30 9301 C 838.531 -0.685513 1.59927 0
M  V30 9302 O 839.707 -0.606616 1.92047 0
M  V30 9303 C 836.772 -0.722562 3.39087 0
M  V30 9304 C 835.833 0.128983 4.29106 0
M  V30 9305 C 835.066 -0.702178 5.29061 0
M  V30 9306 O 835.289 -1.93954 5.36412 0
M  V30 9307 O 834.223 -0.114056 6.01792 0
M  V30 9308 H 838.049 0.946829 2.88563 0
M  V30 9309 H 835.634 0.527765 1.39768 0
M  V30 9310 H 837.516 -1.22095 4.03325 0
M  V30 9311 H 836.191 -1.49751 2.86978 0
M  V30 9312 H 835.098 0.673612 3.67985 0
M  V30 9313 H 836.431 0.866892 4.84506 0
M  V30 9314 N 838.083 -1.48885 0.516809 0
M  V30 9315 C 838.993 -2.33185 -0.257293 0
M  V30 9316 C 840.009 -1.4565 -0.951952 0
M  V30 9317 O 841.185 -1.78651 -0.929834 0
M  V30 9318 C 838.25 -3.21465 -1.29851 0
M  V30 9319 C 837.311 -4.24863 -0.615608 0
M  V30 9320 C 836.544 -5.08925 -1.60722 0
M  V30 9321 O 836.767 -4.9475 -2.83863 0
M  V30 9322 O 835.701 -5.90737 -1.15384 0
M  V30 9323 H 839.527 -3.00596 0.433131 0
M  V30 9324 H 837.112 -1.46792 0.277908 0
M  V30 9325 H 838.994 -3.76108 -1.90055 0
M  V30 9326 H 837.669 -2.5673 -1.97158 0
M  V30 9327 H 836.576 -3.74091 0.0265829 0
M  V30 9328 H 837.909 -4.92198 0.0152871 0
M  V30 9329 N 839.561 -0.251338 -1.55583 0
M  V30 9330 C 840.524 0.63305 -2.20284 0
M  V30 9331 C 841.524 1.09941 -1.17344 0
M  V30 9332 O 842.714 1.00341 -1.42399 0
M  V30 9333 C 839.846 1.8706 -2.84993 0
M  V30 9334 H 841.039 0.0684846 -2.99822 0
M  V30 9335 H 838.592 -0.00181653 -1.563 0
M  V30 9336 H 839.327 2.47629 -2.09405 0
M  V30 9337 H 839.112 1.54436 -3.60405 0
M  V30 9338 H 840.602 2.50004 -3.34496 0
M  V30 9339 N 841.039 1.57585 0.0217189 0
M  V30 9340 C 842.287 1.89231 0.709641 0
M  V30 9341 C 842.608 0.849964 1.75501 0
M  V30 9342 O 841.878 -0.115485 1.95559 0
M  V30 9343 H 840.458 0.69838 0.265092 0
M  V30 9344 H 843.12 1.94895 -0.0140688 0
M  V30 9345 H 842.216 2.88333 1.19459 0
M  V30 9346 N 842.517 -0.29412 1.54831 0
M  V30 9347 C 843.766 -1.02614 1.73647 0
M  V30 9348 C 844.079 -1.88193 0.533162 0
M  V30 9349 O 845.285 -2.64713 0.603275 0
M  V30 9350 C 843.741 -1.87417 3.07251 0
M  V30 9351 C 843.349 -1.06806 4.35082 0
M  V30 9352 C 845.093 -2.60176 3.35423 0
M  V30 9353 C 843 -1.90926 5.59733 0
M  V30 9354 H 841.93 -0.386834 0.647206 0
M  V30 9355 H 844.581 -0.282789 1.81308 0
M  V30 9356 H 842.963 -2.65765 2.93572 0
M  V30 9357 H 844.137 -0.330226 4.59615 0
M  V30 9358 H 842.452 -0.455979 4.13896 0
M  V30 9359 H 845.049 -3.23476 4.25755 0
M  V30 9360 H 845.392 -3.29365 2.54606 0
M  V30 9361 H 845.925 -1.88871 3.50103 0
M  V30 9362 H 842.664 -1.26194 6.43238 0
M  V30 9363 H 842.184 -2.62363 5.39375 0
M  V30 9364 H 843.863 -2.48807 5.97247 0
M  V30 9365 N 843.995 -1.47404 -0.557645 0
M  V30 9366 C 844.942 -1.59859 -1.66475 0
M  V30 9367 C 845.912 -0.441644 -1.60121 0
M  V30 9368 O 847.097 -0.661641 -1.78961 0
M  V30 9369 C 844.237 -1.61843 -3.04797 0
M  V30 9370 C 843.35 -2.8845 -3.2159 0
M  V30 9371 C 842.485 -2.81773 -4.50308 0
M  V30 9372 C 841.524 -4.03208 -4.60532 0
M  V30 9373 N 840.661 -3.94769 -5.80604 0
M  V30 9374 H 845.501 -2.54415 -1.55168 0
M  V30 9375 H 843.038 -1.26194 -0.755876 0
M  V30 9376 H 844.996 -1.60976 -3.84893 0
M  V30 9377 H 843.626 -0.707997 -3.1494 0
M  V30 9378 H 842.678 -2.99186 -2.34929 0
M  V30 9379 H 843.99 -3.78379 -3.25009 0
M  V30 9380 H 843.144 -2.79153 -5.38663 0
M  V30 9381 H 841.883 -1.89527 -4.49367 0
M  V30 9382 H 840.888 -4.06133 -3.70589 0
M  V30 9383 H 842.113 -4.9658 -4.63233 0
M  V30 9384 H 840.059 -3.05326 -5.80613 0
M  V30 9385 H 839.976 -4.78375 -5.854 0
M  V30 9386 H 841.244 -3.96165 -6.71322 0
M  V30 9387 N 845.473 0.80434 -1.35529 0
M  V30 9388 C 846.722 1.55665 -1.28263 0
M  V30 9389 C 847.035 1.95096 0.140352 0
M  V30 9390 O 848.241 2.69422 0.335303 0
M  V30 9391 C 846.697 2.80935 -2.24952 0
M  V30 9392 C 846.305 2.48733 -3.72607 0
M  V30 9393 C 848.049 3.5894 -2.26632 0
M  V30 9394 C 845.956 3.70308 -4.61114 0
M  V30 9395 H 844.886 0.584301 -0.476559 0
M  V30 9396 H 847.537 0.88395 -1.60806 0
M  V30 9397 H 845.919 3.49927 -1.85383 0
M  V30 9398 H 847.093 1.87733 -4.20824 0
M  V30 9399 H 845.408 1.83969 -3.73557 0
M  V30 9400 H 848.005 4.49244 -2.89973 0
M  V30 9401 H 848.348 3.96433 -1.27069 0
M  V30 9402 H 848.881 2.96912 -2.64742 0
M  V30 9403 H 845.62 3.37922 -5.61684 0
M  V30 9404 H 845.14 4.30526 -4.17621 0
M  V30 9405 H 846.819 4.37511 -4.76648 0
M  V30 9406 N 846.951 1.19563 1.02676 0
M  V30 9407 C 848.197 1.00105 1.76371 0
M  V30 9408 C 848.53 -0.466823 1.88506 0
M  V30 9409 O 847.805 -1.34665 1.40341 0
M  V30 9410 C 848.088 1.67321 3.18866 0
M  V30 9411 C 847.941 3.21486 3.1459 0
M  V30 9412 C 849.26 1.39794 4.17308 0
M  V30 9413 H 846.379 0.365075 0.640226 0
M  V30 9414 H 849.021 1.47433 1.19848 0
M  V30 9415 H 847.171 1.27081 3.67128 0
M  V30 9416 H 848.843 3.70953 2.7421 0
M  V30 9417 H 847.086 3.5292 2.52249 0
M  V30 9418 H 847.757 3.63665 4.15273 0
M  V30 9419 H 850.233 1.74685 3.77657 0
M  V30 9420 H 849.109 1.89371 5.15199 0
M  V30 9421 H 849.37 0.323505 4.40915 0
M  V30 9422 N 848.429 -1.21819 0.999893 0
M  V30 9423 C 849.361 -2.23356 0.514256 0
M  V30 9424 C 850.374 -1.5795 -0.394413 0
M  V30 9425 O 851.563 -1.77427 -0.195428 0
M  V30 9426 C 848.663 -3.37797 -0.273207 0
M  V30 9427 C 847.836 -4.32791 0.633293 0
M  V30 9428 C 846.895 -5.26098 -0.103673 0
M  V30 9429 O 845.921 -5.66881 0.513269 0
M  V30 9430 N 847.123 -5.63764 -1.38383 0
M  V30 9431 H 849.888 -2.65653 1.3874 0
M  V30 9432 H 847.449 -1.3619 0.875431 0
M  V30 9433 H 849.441 -3.97209 -0.775053 0
M  V30 9434 H 848.011 -2.94527 -1.0475 0
M  V30 9435 H 847.231 -3.71595 1.31571 0
M  V30 9436 H 848.519 -4.93196 1.25039 0
M  V30 9437 H 847.917 -5.32614 -1.90627 0
M  V30 9438 H 846.474 -6.25562 -1.83073 0
M  V30 9439 N 849.908 -0.773975 -1.37286 0
M  V30 9440 C 851.157 -0.335977 -1.98882 0
M  V30 9441 C 851.47 1.09416 -1.62134 0
M  V30 9442 O 852.676 1.63366 -2.1685 0
M  V30 9443 C 851.132 -0.549756 -3.55676 0
M  V30 9444 C 850.74 -1.9903 -4.01361 0
M  V30 9445 C 852.484 -0.175493 -4.24137 0
M  V30 9446 C 850.391 -2.15156 -5.50874 0
M  V30 9447 H 849.321 -0.121877 -0.744085 0
M  V30 9448 H 851.972 -0.953419 -1.56787 0
M  V30 9449 H 850.354 0.137175 -3.95762 0
M  V30 9450 H 851.528 -2.71237 -3.72515 0
M  V30 9451 H 849.843 -2.32137 -3.4569 0
M  V30 9452 H 852.44 -0.274463 -5.33995 0
M  V30 9453 H 852.783 0.874524 -4.07011 0
M  V30 9454 H 853.316 -0.815058 -3.89361 0
M  V30 9455 H 850.055 -3.18485 -5.72929 0
M  V30 9456 H 849.575 -1.47435 -5.81397 0
M  V30 9457 H 851.254 -1.95124 -6.16876 0
M  V30 9458 N 851.386 1.48609 -0.524698 0
M  V30 9459 C 852.663 1.95454 0.075465 0
M  V30 9460 C 853.043 1.46682 1.51814 0
M  V30 9461 O 852.391 0.690975 2.17802 0
M  V30 9462 C 852.601 3.48981 -0.0363273 0
M  V30 9463 C 853.949 4.24414 0.125624 0
M  V30 9464 O 854.973 3.5618 0.0377239 0
M  V30 9465 O 853.832 5.45625 0.309104 0
M  V30 9466 H 850.926 0.822902 0.0822256 0
M  V30 9467 H 853.472 1.59153 -0.588921 0
M  V30 9468 H 852.244 3.77185 -1.04149 0
M  V30 9469 H 851.867 3.91963 0.667146 0
M  V30 9470 N 852.864 0.259585 1.55447 0
M  V30 9471 C 853.774 -0.645026 2.25558 0
M  V30 9472 C 854.79 -1.18291 1.27606 0
M  V30 9473 O 855.966 -1.21649 1.6051 0
M  V30 9474 C 853.031 -1.81964 2.9511 0
M  V30 9475 C 852.092 -1.31997 4.08504 0
M  V30 9476 C 851.325 -2.43861 4.74729 0
M  V30 9477 O 851.548 -3.62876 4.40088 0
M  V30 9478 O 850.482 -2.12898 5.6299 0
M  V30 9479 H 854.308 -0.0775399 3.03601 0
M  V30 9480 H 851.893 0.0275859 1.49375 0
M  V30 9481 H 853.775 -2.50485 3.38873 0
M  V30 9482 H 852.45 -2.37451 2.19997 0
M  V30 9483 H 851.357 -0.601676 3.6923 0
M  V30 9484 H 852.69 -0.811045 4.85472 0
M  V30 9485 N 854.342 -1.57594 -0.0133615 0
M  V30 9486 C 855.753 -1.78168 -0.557937 0
M  V30 9487 C 856.104 -0.892616 -1.74719 0
M  V30 9488 O 855.229 -0.0915491 -2.16206 0
M  V30 9489 C 855.824 -3.23115 -1.01894 0
M  V30 9490 C 854.383 -3.44831 -1.50892 0
M  V30 9491 C 853.53 -2.73558 -0.454044 0
M  V30 9492 H 856.481 -1.57266 0.212843 0
M  V30 9493 H 856.502 -3.30493 -1.8856 0
M  V30 9494 H 856.014 -3.87798 -0.153175 0
M  V30 9495 H 854.115 -2.85345 -2.39602 0
M  V30 9496 H 854.228 -4.53485 -1.54559 0
M  V30 9497 H 852.592 -2.37787 -0.912666 0
M  V30 9498 H 853.375 -3.40932 0.402524 0
M  V30 9499 N 855.82 0.285905 -1.54985 0
M  V30 9500 C 856.783 1.33625 -1.86218 0
M  V30 9501 C 857.783 1.42971 -0.735936 0
M  V30 9502 O 858.973 1.42345 -1.00417 0
M  V30 9503 C 856.105 2.71926 -2.05595 0
M  V30 9504 H 857.298 1.07167 -2.80099 0
M  V30 9505 H 854.851 0.523335 -1.47278 0
M  V30 9506 H 855.586 3.03583 -1.14053 0
M  V30 9507 H 855.371 2.6653 -2.87583 0
M  V30 9508 H 856.861 3.47841 -2.31077 0
M  V30 9509 N 857.298 1.47698 0.54982 0
M  V30 9510 C 858.545 1.54702 1.30665 0
M  V30 9511 C 858.873 0.212418 1.93337 0
M  V30 9512 O 858.128 -0.79543 1.78805 0
M  V30 9513 C 858.427 2.61903 2.4319 0
M  V30 9514 C 858.093 4.04953 1.98302 0
M  V30 9515 C 856.755 4.43893 1.85776 0
M  V30 9516 C 859.107 4.94682 1.64133 0
M  V30 9517 C 856.435 5.70387 1.37388 0
M  V30 9518 C 858.787 6.21646 1.17214 0
M  V30 9519 C 857.451 6.5946 1.0329 0
M  V30 9520 H 856.721 0.566096 0.478139 0
M  V30 9521 H 859.368 1.8133 0.615767 0
M  V30 9522 H 857.673 2.2906 3.17866 0
M  V30 9523 H 859.37 2.64543 3.0136 0
M  V30 9524 H 855.96 3.74191 2.08995 0
M  V30 9525 H 860.144 4.65291 1.72679 0
M  V30 9526 H 855.4 5.98427 1.25278 0
M  V30 9527 H 859.574 6.90581 0.898391 0
M  V30 9528 H 857.201 7.57367 0.655735 0
M  V30 9529 N 858.776 -0.797141 1.35954 0
M  V30 9530 C 860.192 -1.09408 1.16198 0
M  V30 9531 C 860.392 -2.01491 -0.0191682 0
M  V30 9532 O 859.448 -2.42977 -0.686902 0
M  V30 9533 C 860.761 -1.71597 2.46931 0
M  V30 9534 C 862.309 -1.83974 2.53224 0
M  V30 9535 C 862.784 -2.49579 3.84024 0
M  V30 9536 N 864.275 -2.57055 3.85327 0
M  V30 9537 C 865.01 -3.08608 4.83268 0
M  V30 9538 N 864.506 -3.60527 5.91601 0
M  V30 9539 N 866.299 -3.07249 4.70696 0
M  V30 9540 H 858.45 -0.185209 2.11591 0
M  V30 9541 H 860.713 -0.144768 0.936881 0
M  V30 9542 H 860.419 -1.11404 3.3359 0
M  V30 9543 H 860.293 -2.71193 2.62172 0
M  V30 9544 H 862.68 -2.43308 1.66988 0
M  V30 9545 H 862.761 -0.83207 2.41889 0
M  V30 9546 H 862.405 -1.90892 4.70662 0
M  V30 9547 H 862.335 -3.50902 3.92651 0
M  V30 9548 H 864.826 -2.20283 3.07057 0
M  V30 9549 H 865.139 -3.98192 6.62317 0
M  V30 9550 H 863.484 -3.587 5.95281 0
M  V30 9551 H 866.675 -2.65972 3.85197 0
M  V30 9552 H 866.848 -3.47119 5.47186 0
M  V30 9553 N 860.254 -1.20106 -1.0204 0
M  V30 9554 C 861.164 -0.962051 -2.13967 0
M  V30 9555 C 862.18 0.0808053 -1.73812 0
M  V30 9556 O 863.356 -0.105774 -2.01122 0
M  V30 9557 C 860.421 -0.513108 -3.42882 0
M  V30 9558 C 859.482 -1.62636 -3.97301 0
M  V30 9559 C 858.715 -1.19875 -5.20063 0
M  V30 9560 O 858.938 -0.0658423 -5.70362 0
M  V30 9561 O 857.872 -2.00467 -5.67536 0
M  V30 9562 H 861.698 -1.8991 -2.36998 0
M  V30 9563 H 859.283 -0.984608 -1.12365 0
M  V30 9564 H 861.165 -0.271797 -4.20523 0
M  V30 9565 H 859.84 0.395402 -3.21276 0
M  V30 9566 H 858.747 -1.92192 -3.20957 0
M  V30 9567 H 860.08 -2.51174 -4.23288 0
M  V30 9568 N 861.732 1.21287 -1.00634 0
M  V30 9569 C 862.679 2.23705 -0.567876 0
M  V30 9570 C 863.649 1.61043 0.406753 0
M  V30 9571 O 864.834 1.88289 0.308499 0
M  V30 9572 C 861.974 3.44961 0.097996 0
M  V30 9573 C 861.087 4.22091 -0.919972 0
M  V30 9574 C 860.222 5.30718 -0.226222 0
M  V30 9575 C 859.261 5.99581 -1.23165 0
M  V30 9576 N 858.398 6.99821 -0.565278 0
M  V30 9577 H 863.238 2.60571 -1.44592 0
M  V30 9578 H 860.775 1.28049 -0.724006 0
M  V30 9579 H 862.733 4.1418 0.501097 0
M  V30 9580 H 861.363 3.08818 0.939744 0
M  V30 9581 H 860.415 3.52038 -1.44131 0
M  V30 9582 H 861.727 4.69476 -1.68505 0
M  V30 9583 H 860.881 6.06253 0.232917 0
M  V30 9584 H 859.62 4.84343 0.571247 0
M  V30 9585 H 858.625 5.22816 -1.70128 0
M  V30 9586 H 859.85 6.48042 -2.03022 0
M  V30 9587 H 857.796 6.55656 0.212508 0
M  V30 9588 H 857.713 7.4528 -1.26858 0
M  V30 9589 H 858.981 7.79393 -0.129389 0
M  V30 9590 N 863.21 0.781244 1.36873 0
M  V30 9591 C 864.173 0.180094 2.28491 0
M  V30 9592 C 865.173 -0.617798 1.48458 0
M  V30 9593 O 866.363 -0.439991 1.68552 0
M  V30 9594 C 863.495 -0.751741 3.32508 0
M  V30 9595 H 864.688 0.987837 2.83164 0
M  V30 9596 H 862.241 0.550102 1.463 0
M  V30 9597 H 862.976 -1.58413 2.82977 0
M  V30 9598 H 862.761 -0.181649 3.91679 0
M  V30 9599 H 864.251 -1.16748 4.00949 0
M  V30 9600 N 864.689 -1.48329 0.532571 0
M  V30 9601 C 866.1 -1.86469 0.0927749 0
M  V30 9602 C 866.451 -1.44186 -1.3306 0
M  V30 9603 O 865.576 -0.833741 -1.99694 0
M  V30 9604 C 866.171 -3.38414 0.161588 0
M  V30 9605 C 864.73 -3.75739 -0.223028 0
M  V30 9606 C 863.877 -2.72377 0.520199 0
M  V30 9607 H 866.828 -1.40197 0.743678 0
M  V30 9608 H 866.849 -3.75314 -0.626059 0
M  V30 9609 H 866.361 -3.69159 1.19765 0
M  V30 9610 H 864.462 -3.50608 -1.26113 0
M  V30 9611 H 864.575 -4.78954 0.118385 0
M  V30 9612 H 862.939 -2.54678 -0.0338425 0
M  V30 9613 H 863.722 -3.05965 1.55694 0
M  V30 9614 N 866.167 -0.267825 -1.55308 0
M  V30 9615 C 867.416 0.351635 -1.98611 0
M  V30 9616 C 867.729 1.57522 -1.15957 0
M  V30 9617 O 868.935 2.26717 -1.49371 0
M  V30 9618 C 867.391 0.676986 -3.53475 0
M  V30 9619 C 866.999 -0.526385 -4.44897 0
M  V30 9620 C 868.743 1.25948 -4.05386 0
M  V30 9621 C 866.65 -0.176026 -5.91138 0
M  V30 9622 H 865.58 0.13516 -0.741787 0
M  V30 9623 H 868.231 -0.371333 -1.79704 0
M  V30 9624 H 866.613 1.45866 -3.68156 0
M  V30 9625 H 867.787 -1.30339 -4.41982 0
M  V30 9626 H 866.102 -1.02522 -4.03582 0
M  V30 9627 H 868.699 1.53529 -5.12184 0
M  V30 9628 H 869.042 2.19094 -3.53982 0
M  V30 9629 H 869.575 0.540253 -3.94114 0
M  V30 9630 H 866.314 -1.07518 -6.46622 0
M  V30 9631 H 865.834 0.564363 -5.97139 0
M  V30 9632 H 867.513 0.234365 -6.46575 0
M  V30 9633 N 867.645 1.57599 0.00500368 0
M  V30 9634 C 868.592 2.08106 0.998025 0
M  V30 9635 C 869.562 0.975374 1.34446 0
M  V30 9636 O 870.747 1.24749 1.44369 0
M  V30 9637 C 867.887 2.58496 2.28635 0
M  V30 9638 C 867 3.82947 1.99939 0
M  V30 9639 C 866.135 4.21857 3.22816 0
M  V30 9640 C 865.174 5.39159 2.89783 0
M  V30 9641 N 864.311 5.73386 4.05183 0
M  V30 9642 H 869.151 2.92684 0.560385 0
M  V30 9643 H 866.688 1.44692 0.265053 0
M  V30 9644 H 868.646 2.85787 3.03943 0
M  V30 9645 H 867.276 1.768 2.70077 0
M  V30 9646 H 866.328 3.62594 1.1502 0
M  V30 9647 H 867.64 4.68358 1.71588 0
M  V30 9648 H 866.794 4.50404 4.06474 0
M  V30 9649 H 865.533 3.35145 3.54301 0
M  V30 9650 H 864.538 5.1034 2.04532 0
M  V30 9651 H 865.763 6.27543 2.59551 0
M  V30 9652 H 863.709 4.89632 4.36574 0
M  V30 9653 H 863.626 6.53359 3.80339 0
M  V30 9654 H 864.894 6.06522 4.89644 0
M  V30 9655 N 869.123 -0.277682 1.55134 0
M  V30 9656 C 870.07 -1.34313 1.87693 0
M  V30 9657 C 871.04 -1.49298 0.727973 0
M  V30 9658 O 872.225 -1.6378 0.978807 0
M  V30 9659 C 869.365 -2.69922 2.15026 0
M  V30 9660 C 868.478 -2.63197 3.42565 0
M  V30 9661 C 867.613 -3.90955 3.59622 0
M  V30 9662 C 866.652 -3.78722 4.8087 0
M  V30 9663 N 865.789 -4.98303 4.94609 0
M  V30 9664 H 870.629 -1.05847 2.78569 0
M  V30 9665 H 868.166 -0.511469 1.37922 0
M  V30 9666 H 870.124 -3.48817 2.28872 0
M  V30 9667 H 868.754 -2.966 1.2739 0
M  V30 9668 H 867.806 -1.76038 3.37216 0
M  V30 9669 H 869.118 -2.50056 4.31594 0
M  V30 9670 H 868.272 -4.78291 3.7326 0
M  V30 9671 H 867.011 -4.06957 2.6877 0
M  V30 9672 H 866.016 -2.89769 4.67241 0
M  V30 9673 H 867.241 -3.64242 5.73153 0
M  V30 9674 H 865.187 -5.14725 4.06687 0
M  V30 9675 H 865.104 -4.87675 5.77676 0
M  V30 9676 H 866.372 -5.87225 5.12628 0
M  V30 9677 N 870.601 -1.47988 -0.541979 0
M  V30 9678 C 871.826 -1.59286 -1.32826 0
M  V30 9679 C 872.251 -0.24894 -1.86445 0
M  V30 9680 O 871.609 0.777581 -1.63778 0
M  V30 9681 C 871.657 -2.6334 -2.46343 0
M  V30 9682 O 870.761 -2.19667 -3.49028 0
M  V30 9683 H 870.102 -0.534543 -0.393903 0
M  V30 9684 H 872.632 -1.93885 -0.653427 0
M  V30 9685 H 872.642 -2.84238 -2.92699 0
M  V30 9686 H 871.317 -3.60913 -2.06675 0
M  V30 9687 H 869.894 -2.08932 -3.08872 0
M  V30 9688 N 872.079 0.78992 -1.36375 0
M  V30 9689 C 873.026 1.90254 -1.3066 0
M  V30 9690 C 873.996 1.65171 -0.17539 0
M  V30 9691 O 875.181 1.87338 -0.361824 0
M  V30 9692 C 872.321 3.27057 -1.10125 0
M  V30 9693 C 871.434 3.64215 -2.32317 0
M  V30 9694 C 870.569 4.90134 -2.04798 0
M  V30 9695 C 869.608 5.19969 -3.22953 0
M  V30 9696 N 868.745 6.37071 -2.95102 0
M  V30 9697 H 873.585 1.94474 -2.25796 0
M  V30 9698 H 871.122 0.951022 -1.12223 0
M  V30 9699 H 873.08 4.05947 -0.962453 0
M  V30 9700 H 871.71 3.22261 -0.186444 0
M  V30 9701 H 870.762 2.80454 -2.57002 0
M  V30 9702 H 872.074 3.82212 -3.20492 0
M  V30 9703 H 871.228 5.76888 -1.87845 0
M  V30 9704 H 869.967 4.74205 -1.13932 0
M  V30 9705 H 868.972 4.31699 -3.40465 0
M  V30 9706 H 870.197 5.37817 -4.14644 0
M  V30 9707 H 868.143 6.22535 -2.06848 0
M  V30 9708 H 868.06 6.55398 -3.76815 0
M  V30 9709 H 869.328 7.26808 -2.81727 0
M  V30 9710 N 873.557 1.20646 1.01402 0
M  V30 9711 C 874.803 1.02974 1.75408 0
M  V30 9712 C 875.158 -0.433294 1.87458 0
M  V30 9713 O 874.451 -1.31741 1.39122 0
M  V30 9714 C 874.645 1.64991 3.17037 0
M  V30 9715 C 874.474 3.17174 3.18796 0
M  V30 9716 C 873.244 3.86165 3.2589 0
M  V30 9717 C 875.442 4.14369 3.04636 0
M  V30 9718 N 873.424 5.25614 3.1718 0
M  V30 9719 C 874.795 5.4051 3.03724 0
M  V30 9720 C 876.85 4.05534 2.88872 0
M  V30 9721 C 875.553 6.58836 2.88664 0
M  V30 9722 C 877.579 5.23486 2.75166 0
M  V30 9723 C 876.941 6.48535 2.74922 0
M  V30 9724 H 873.04 0.431068 0.65246 0
M  V30 9725 H 875.624 1.52858 1.20593 0
M  V30 9726 H 873.795 1.17688 3.70141 0
M  V30 9727 H 875.527 1.40612 3.79487 0
M  V30 9728 H 872.282 3.37038 3.32719 0
M  V30 9729 H 872.706 5.98625 3.16192 0
M  V30 9730 H 877.348 3.09661 2.87872 0
M  V30 9731 H 875.066 7.5488 2.88413 0
M  V30 9732 H 878.652 5.18464 2.63982 0
M  V30 9733 H 877.532 7.3827 2.64439 0
M  V30 9734 N 875.035 -1.20752 1.01276 0
M  V30 9735 C 876.446 -1.7175 0.732033 0
M  V30 9736 C 876.797 -1.8131 -0.749733 0
M  V30 9737 O 875.922 -1.47301 -1.58529 0
M  V30 9738 C 876.517 -3.11936 1.32217 0
M  V30 9739 C 875.076 -3.6026 1.09039 0
M  V30 9740 C 874.223 -2.37571 1.43022 0
M  V30 9741 H 877.174 -1.0582 1.1827 0
M  V30 9742 H 877.195 -3.73802 0.710771 0
M  V30 9743 H 876.707 -3.04946 2.40061 0
M  V30 9744 H 874.808 -3.72588 0.0294464 0
M  V30 9745 H 874.921 -4.45295 1.76775 0
M  V30 9746 H 873.285 -2.40128 0.849159 0
M  V30 9747 H 874.068 -2.33225 2.51915 0
M  V30 9748 N 876.513 -0.788492 -1.36457 0
M  V30 9749 C 877.423 -0.187385 -2.3385 0
M  V30 9750 C 878.439 0.659984 -1.60998 0
M  V30 9751 O 879.615 0.575986 -1.92988 0
M  V30 9752 C 876.68 0.668525 -3.40194 0
M  V30 9753 C 875.741 -0.197234 -4.28847 0
M  V30 9754 C 874.974 0.61792 -5.30111 0
M  V30 9755 O 875.197 1.85396 -5.3943 0
M  V30 9756 O 874.131 0.0183016 -6.01897 0
M  V30 9757 H 877.957 -0.992617 -2.87021 0
M  V30 9758 H 875.542 -0.549934 -1.3891 0
M  V30 9759 H 877.424 1.15663 -4.05216 0
M  V30 9760 H 876.099 1.45166 -2.89324 0
M  V30 9761 H 875.006 -0.73207 -3.66867 0
M  V30 9762 H 876.339 -0.943863 -4.83065 0
M  V30 9763 N 877.991 1.48044 -0.54043 0
M  V30 9764 C 879.221 2.06595 -0.0144943 0
M  V30 9765 C 879.629 1.39593 1.27713 0
M  V30 9766 O 878.972 0.480794 1.77297 0
M  V30 9767 C 879.034 3.5849 0.269316 0
M  V30 9768 C 878.698 4.47429 -0.930372 0
M  V30 9769 C 879.695 4.8657 -1.83155 0
M  V30 9770 C 877.38 4.89185 -1.14032 0
M  V30 9771 C 879.374 5.66246 -2.92649 0
M  V30 9772 C 877.061 5.6863 -2.23838 0
M  V30 9773 C 878.059 6.07069 -3.12979 0
M  V30 9774 O 877.747 6.84917 -4.20884 0
M  V30 9775 H 877.479 0.675086 -0.0351467 0
M  V30 9776 H 880.033 1.91275 -0.74853 0
M  V30 9777 H 878.263 3.71961 1.05745 0
M  V30 9778 H 879.952 3.99124 0.738595 0
M  V30 9779 H 880.718 4.54924 -1.68134 0
M  V30 9780 H 876.597 4.58742 -0.455717 0
M  V30 9781 H 880.141 5.96169 -3.62254 0
M  V30 9782 H 876.038 5.99688 -2.38839 0
M  V30 9783 H 876.806 7.03287 -4.18723 0
M  V30 9784 N 879.47 0.276058 1.55163 0
M  V30 9785 C 880.717 -0.340455 1.99618 0
M  V30 9786 C 881.045 -1.5579 1.16446 0
M  V30 9787 O 880.3 -1.94433 0.222359 0
M  V30 9788 C 880.599 -0.765744 3.491 0
M  V30 9789 C 880.265 0.347174 4.49561 0
M  V30 9790 C 878.927 0.65276 4.76752 0
M  V30 9791 C 881.279 1.09705 5.09523 0
M  V30 9792 C 878.607 1.71179 5.61173 0
M  V30 9793 C 880.959 2.14581 5.95095 0
M  V30 9794 C 879.623 2.45773 6.20606 0
M  V30 9795 H 878.893 -0.124581 0.730452 0
M  V30 9796 H 881.54 0.389966 1.87487 0
M  V30 9797 H 879.845 -1.57585 3.58712 0
M  V30 9798 H 881.542 -1.25352 3.80904 0
M  V30 9799 H 878.132 0.0988779 4.28486 0
M  V30 9800 H 882.316 0.874223 4.8854 0
M  V30 9801 H 877.572 1.95846 5.79184 0
M  V30 9802 H 881.746 2.7316 6.40591 0
M  V30 9803 H 879.373 3.27969 6.85813 0
M  V30 9804 N 880.948 -1.576 0.00335426 0
M  V30 9805 C 881.858 -2.12067 -1.00322 0
M  V30 9806 C 882.874 -1.06672 -1.37467 0
M  V30 9807 O 884.05 -1.38592 -1.46131 0
M  V30 9808 C 881.115 -2.61593 -2.27531 0
M  V30 9809 C 880.176 -3.81602 -1.96668 0
M  V30 9810 C 879.409 -4.28756 -3.17811 0
M  V30 9811 O 879.632 -3.75222 -4.2961 0
M  V30 9812 O 878.566 -5.20877 -3.01613 0
M  V30 9813 H 882.392 -2.98299 -0.570199 0
M  V30 9814 H 879.977 -1.47835 -0.215682 0
M  V30 9815 H 881.859 -2.93631 -3.02256 0
M  V30 9816 H 880.534 -1.78457 -2.70065 0
M  V30 9817 H 879.441 -3.54531 -1.19408 0
M  V30 9818 H 880.774 -4.65822 -1.58968 0
M  V30 9819 N 882.426 0.269451 -1.5528 0
M  V30 9820 C 883.672 0.997946 -1.77236 0
M  V30 9821 C 884.027 1.83808 -0.568546 0
M  V30 9822 O 883.32 1.8651 0.438706 0
M  V30 9823 C 883.514 1.91 -3.02082 0
M  V30 9824 C 883.343 1.15963 -4.34491 0
M  V30 9825 C 882.113 0.873873 -4.97686 0
M  V30 9826 C 884.311 0.548307 -5.11369 0
M  V30 9827 N 882.293 0.0970863 -6.13823 0
M  V30 9828 C 883.664 -0.0941413 -6.19929 0
M  V30 9829 C 885.719 0.456507 -4.95803 0
M  V30 9830 C 884.422 -0.819547 -7.14616 0
M  V30 9831 C 886.448 -0.255315 -5.90849 0
M  V30 9832 C 885.81 -0.886488 -6.988 0
M  V30 9833 H 881.909 0.347038 -0.700777 0
M  V30 9834 H 884.493 0.273262 -1.92773 0
M  V30 9835 H 882.664 2.60691 -2.87915 0
M  V30 9836 H 884.396 2.57237 -3.12428 0
M  V30 9837 H 881.151 1.18003 -4.58663 0
M  V30 9838 H 881.575 -0.278741 -6.76426 0
M  V30 9839 H 886.217 0.930164 -4.12441 0
M  V30 9840 H 883.935 -1.30488 -7.97495 0
M  V30 9841 H 887.521 -0.32671 -5.80882 0
M  V30 9842 H 886.401 -1.42851 -7.71079 0
M  V30 9843 N 883.904 1.48273 0.534124 0
M  V30 9844 C 884.867 1.6201 1.62127 0
M  V30 9845 C 885.867 0.493653 1.53035 0
M  V30 9846 O 887.057 0.759337 1.56779 0
M  V30 9847 C 884.189 1.5864 3.01739 0
M  V30 9848 H 885.382 2.58944 1.51288 0
M  V30 9849 H 882.935 1.36808 0.755861 0
M  V30 9850 H 883.67 0.631685 3.18088 0
M  V30 9851 H 883.455 2.40415 3.09747 0
M  V30 9852 H 884.945 1.71438 3.80787 0
M  V30 9853 N 885.382 -0.782676 1.36792 0
M  V30 9854 C 886.631 -1.53605 1.30723 0
M  V30 9855 C 886.944 -1.95294 -0.109296 0
M  V30 9856 O 888.15 -2.69921 -0.292398 0
M  V30 9857 C 886.606 -2.77321 2.29393 0
M  V30 9858 C 886.214 -2.42774 3.76517 0
M  V30 9859 C 887.958 -3.55289 2.32314 0
M  V30 9860 C 885.865 -3.62926 4.66947 0
M  V30 9861 H 884.795 -0.576646 0.485794 0
M  V30 9862 H 887.446 -0.858255 1.62192 0
M  V30 9863 H 885.828 -3.46934 1.90927 0
M  V30 9864 H 887.002 -1.81014 4.23758 0
M  V30 9865 H 885.317 -1.78002 3.76436 0
M  V30 9866 H 887.914 -4.44573 2.97083 0
M  V30 9867 H 888.257 -3.94361 1.3336 0
M  V30 9868 H 888.79 -2.92662 2.69432 0
M  V30 9869 H 885.529 -3.28944 5.66989 0
M  V30 9870 H 885.049 -4.23828 4.24418 0
M  V30 9871 H 886.728 -4.29873 4.83548 0
M  V30 9872 N 886.86 -1.21182 -1.00761 0
M  V30 9873 C 887.808 -0.965728 -2.11604 0
M  V30 9874 C 888.802 0.0861028 -1.69181 0
M  V30 9875 O 890.008 -0.0650558 -1.79882 0
M  V30 9876 H 886.383 -0.295023 -0.691712 0
M  V30 9877 H 888.354 -1.90667 -2.2954 0
M  V30 9878 C 887.103 -0.544164 -3.43415 0
M  V30 9879 H 886.426 -1.34515 -3.76491 0
M  V30 9880 H 887.866 -0.411268 -4.22001 0
M  V30 9881 C 886.325 0.744583 -3.28569 0
M  V30 9882 O 886.855 1.80078 -3.59075 0
M  V30 9883 N 885.061 0.710083 -2.81791 0
M  V30 9884 H 884.608 -0.14971 -2.57165 0
M  V30 9885 H 884.566 1.57268 -2.72239 0
M  V30 9886 N 888.338 1.20213 -1.01915 0
M  V30 9887 C 889.301 2.21307 -0.596327 0
M  V30 9888 C 890.301 1.57274 0.334879 0
M  V30 9889 O 891.491 1.73764 0.12322 0
M  V30 9890 C 888.623 3.40657 0.128808 0
M  V30 9891 H 889.816 2.60228 -1.49068 0
M  V30 9892 H 887.369 1.33721 -0.809226 0
M  V30 9893 H 888.104 3.07241 1.03796 0
M  V30 9894 H 887.889 3.88361 -0.540183 0
M  V30 9895 H 889.379 4.15564 0.411892 0
M  V30 9896 N 889.816 0.795718 1.36037 0
M  V30 9897 C 891.063 0.371024 1.99072 0
M  V30 9898 C 891.391 -1.05896 1.63145 0
M  V30 9899 O 890.646 -1.7474 0.881163 0
M  V30 9900 C 890.945 0.489038 3.54038 0
M  V30 9901 C 890.611 1.88075 4.09803 0
M  V30 9902 C 889.273 2.26152 4.24745 0
M  V30 9903 C 891.625 2.79174 4.40126 0
M  V30 9904 C 888.953 3.54718 4.67324 0
M  V30 9905 C 891.305 4.07175 4.8414 0
M  V30 9906 C 889.969 4.45266 4.97287 0
M  V30 9907 H 889.239 0.135767 0.728456 0
M  V30 9908 H 891.886 1.0144 1.62426 0
M  V30 9909 H 890.191 -0.237823 3.91078 0
M  V30 9910 H 891.888 0.141374 4.00751 0
M  V30 9911 H 888.478 1.57488 3.98617 0
M  V30 9912 H 892.662 2.51009 4.28145 0
M  V30 9913 H 887.918 3.84093 4.75691 0
M  V30 9914 H 892.092 4.77875 5.06565 0
M  V30 9915 H 889.719 5.44943 5.30038 0
M  V30 9916 N 891.294 -1.47756 0.548274 0
M  V30 9917 C 892.242 -2.3158 -0.217584 0
M  V30 9918 C 893.236 -1.42372 -0.917957 0
M  V30 9919 O 894.442 -1.59184 -0.840259 0
M  V30 9920 H 890.817 -0.74671 -0.0890388 0
M  V30 9921 H 892.788 -2.94032 0.508719 0
M  V30 9922 C 891.537 -3.24834 -1.24008 0
M  V30 9923 H 890.86 -3.93435 -0.710572 0
M  V30 9924 H 892.3 -3.86336 -1.74701 0
M  V30 9925 C 890.759 -2.47724 -2.2833 0
M  V30 9926 O 891.289 -2.21522 -3.35098 0
M  V30 9927 N 889.495 -2.08891 -2.02022 0
M  V30 9928 H 889.042 -2.30401 -1.1521 0
M  V30 9929 H 889 -1.57613 -2.7204 0
M  V30 9930 N 892.772 -0.284283 -1.55015 0
M  V30 9931 C 893.702 0.592663 -2.25853 0
M  V30 9932 C 894.683 1.15151 -1.25197 0
M  V30 9933 O 895.868 1.18395 -1.53936 0
M  V30 9934 C 892.998 1.77254 -2.98661 0
M  V30 9935 C 891.952 1.34482 -4.06323 0
M  V30 9936 C 891.278 2.60853 -4.66754 0
M  V30 9937 C 892.578 0.488288 -5.20013 0
M  V30 9938 H 894.272 0.00187041 -2.994 0
M  V30 9939 H 891.818 -0.000540402 -1.44 0
M  V30 9940 H 893.771 2.39199 -3.46932 0
M  V30 9941 H 892.495 2.38931 -2.22664 0
M  V30 9942 H 891.154 0.748519 -3.58877 0
M  V30 9943 H 890.802 3.20808 -3.87416 0
M  V30 9944 H 890.502 2.32942 -5.39455 0
M  V30 9945 H 892.026 3.23631 -5.1778 0
M  V30 9946 H 893.44 1.01298 -5.6428 0
M  V30 9947 H 891.837 0.303669 -5.99331 0
M  V30 9948 H 892.907 -0.490727 -4.8241 0
M  V30 9949 N 894.251 1.57596 -0.0117121 0
M  V30 9950 C 895.214 2.08089 0.960816 0
M  V30 9951 C 896.214 0.992519 1.26514 0
M  V30 9952 O 897.404 1.25475 1.20837 0
M  V30 9953 C 894.536 2.53217 2.28241 0
M  V30 9954 H 895.729 2.9529 0.523829 0
M  V30 9955 H 893.282 1.54508 0.235995 0
M  V30 9956 H 894.017 1.69294 2.76604 0
M  V30 9957 H 893.802 3.32714 2.0747 0
M  V30 9958 H 895.292 2.92568 2.97983 0
M  V30 9959 N 895.729 -0.261212 1.5542 0
M  V30 9960 C 896.692 -1.30645 1.8832 0
M  V30 9961 C 897.692 -1.41782 0.758588 0
M  V30 9962 O 898.882 -1.40729 1.02669 0
M  V30 9963 C 896.014 -2.6862 2.09895 0
M  V30 9964 H 897.207 -1.02698 2.81768 0
M  V30 9965 H 894.76 -0.499838 1.48092 0
M  V30 9966 H 895.495 -3.0173 1.18868 0
M  V30 9967 H 895.28 -2.61921 2.91787 0
M  V30 9968 H 896.77 -3.44121 2.36581 0
M  V30 9969 N 897.207 -1.48554 -0.526253 0
M  V30 9970 C 898.155 -1.63804 -1.65139 0
M  V30 9971 C 899.149 -0.504398 -1.61716 0
M  V30 9972 O 900.355 -0.683241 -1.66529 0
M  V30 9973 H 896.73 -0.516071 -0.546969 0
M  V30 9974 H 898.701 -2.58294 -1.49421 0
M  V30 9975 C 897.45 -1.69843 -3.03395 0
M  V30 9976 H 896.773 -2.56438 -3.06724 0
M  V30 9977 H 898.213 -1.84555 -3.81727 0
M  V30 9978 C 896.672 -0.437875 -3.34042 0
M  V30 9979 O 897.202 0.447604 -3.99198 0
M  V30 9980 N 895.408 -0.308444 -2.88958 0
M  V30 9981 H 894.955 -1.02998 -2.36112 0
M  V30 9982 H 894.913 0.533952 -3.09833 0
M  V30 9983 N 898.685 0.775411 -1.37205 0
M  V30 9984 C 899.648 1.8702 -1.325 0
M  V30 9985 C 900.648 1.5915 -0.229793 0
M  V30 9986 O 901.838 1.673 -0.485423 0
M  V30 9987 C 898.97 3.24085 -1.05745 0
M  V30 9988 H 900.163 1.92604 -2.29878 0
M  V30 9989 H 897.716 0.97476 -1.22181 0
M  V30 9990 H 898.451 3.24178 -0.0888371 0
M  V30 9991 H 898.236 3.45705 -1.85016 0
M  V30 9992 H 899.726 4.0416 -1.05094 0
M  V30 9993 N 900.163 1.21714 1.00117 0
M  V30 9994 C 901.579 0.97532 1.26332 0
M  V30 9995 C 901.779 -0.336029 1.98678 0
M  V30 9996 O 900.835 -1.06073 2.29139 0
M  V30 9997 C 902.148 2.16848 2.0832 0
M  V30 9998 C 903.696 2.21115 2.21533 0
M  V30 9999 C 904.171 3.3996 3.06906 0
M  V30 10000 N 905.662 3.40071 3.14494 0
M  V30 10001 C 906.397 4.28678 3.80818 0
M  V30 10002 N 905.893 5.2749 4.49139 0
M  V30 10003 N 907.686 4.16476 3.77497 0
M  V30 10004 H 899.837 2.06039 0.515897 0
M  V30 10005 H 902.1 0.902423 0.290408 0
M  V30 10006 H 901.806 3.119 1.62515 0
M  V30 10007 H 901.68 2.16226 3.09073 0
M  V30 10008 H 904.067 1.26616 2.66557 0
M  V30 10009 H 904.148 2.2578 1.20238 0
M  V30 10010 H 903.792 4.34755 2.62585 0
M  V30 10011 H 903.722 3.32534 4.08324 0
M  V30 10012 H 906.213 2.68563 2.65861 0
M  V30 10013 H 906.526 5.91397 4.97463 0
M  V30 10014 H 904.871 5.31412 4.47914 0
M  V30 10015 H 908.062 3.38539 3.23278 0
M  V30 10016 H 908.235 4.85739 4.28908 0
M  V30 10017 N 901.641 -1.19671 1.02551 0
M  V30 10018 C 903.052 -1.70964 0.750208 0
M  V30 10019 C 903.403 -1.82095 -0.730461 0
M  V30 10020 O 902.528 -1.48974 -1.56958 0
M  V30 10021 C 903.123 -3.10516 1.35518 0
M  V30 10022 C 901.682 -3.59083 1.12854 0
M  V30 10023 C 900.829 -2.36041 1.45534 0
M  V30 10024 H 903.78 -1.04559 1.19386 0
M  V30 10025 H 903.801 -3.73028 0.750378 0
M  V30 10026 H 903.313 -3.02383 2.43282 0
M  V30 10027 H 901.414 -3.72536 0.0689627 0
M  V30 10028 H 901.527 -4.43395 1.81488 0
M  V30 10029 H 899.891 -2.39214 0.87458 0
M  V30 10030 H 900.674 -2.3054 2.54374 0
M  V30 10031 N 903.119 -0.802921 -1.35613 0
M  V30 10032 C 904.029 -0.212177 -2.33639 0
M  V30 10033 C 905.045 0.642871 -1.61689 0
M  V30 10034 O 906.221 0.555485 -1.93588 0
M  V30 10035 C 903.286 0.632406 -3.40883 0
M  V30 10036 C 902.347 -0.242708 -4.28613 0
M  V30 10037 C 901.58 0.56166 -5.30736 0
M  V30 10038 O 901.803 1.79664 -5.41366 0
M  V30 10039 O 900.737 -0.0455387 -6.01883 0
M  V30 10040 H 904.563 -1.023 -2.85952 0
M  V30 10041 H 902.148 -0.564636 -1.38319 0
M  V30 10042 H 904.03 1.11358 -4.0642 0
M  V30 10043 H 902.705 1.42089 -2.90848 0
M  V30 10044 H 901.612 -0.77094 -3.6607 0
M  V30 10045 H 902.945 -0.995046 -4.82037 0
M  V30 10046 N 904.597 1.47463 -0.556102 0
M  V30 10047 C 905.825 2.06868 -0.0364585 0
M  V30 10048 C 906.24 1.40893 1.25677 0
M  V30 10049 O 905.597 0.505083 1.75371 0
M  V30 10050 C 905.648 3.61128 0.163984 0
M  V30 10051 O 905.369 4.24629 -1.07803 0
M  V30 10052 C 906.87 4.37397 0.721036 0
M  V30 10053 H 904.09 0.669466 -0.0453399 0
M  V30 10054 H 906.634 1.89482 -0.769198 0
M  V30 10055 H 904.789 3.78031 0.84685 0
M  V30 10056 H 905.203 5.17149 -0.875067 0
M  V30 10057 H 906.677 5.46016 0.810584 0
M  V30 10058 H 907.154 4.03604 1.73206 0
M  V30 10059 H 907.76 4.25236 0.073904 0
M  V30 10060 N 906.075 0.2925 1.54862 0
M  V30 10061 C 907.007 -0.620889 2.2063 0
M  V30 10062 C 908.02 -1.10412 1.19637 0
M  V30 10063 O 909.209 -1.02304 1.46274 0
M  V30 10064 C 906.309 -1.861 2.83232 0
M  V30 10065 C 905.482 -1.52168 4.10078 0
M  V30 10066 C 904.541 -2.61605 4.56562 0
M  V30 10067 O 903.567 -2.27056 5.21952 0
M  V30 10068 N 904.769 -3.9199 4.28163 0
M  V30 10069 H 907.534 -0.0579028 2.99644 0
M  V30 10070 H 905.095 0.114333 1.61496 0
M  V30 10071 H 907.087 -2.58642 3.11266 0
M  V30 10072 H 905.657 -2.33259 2.08108 0
M  V30 10073 H 904.877 -0.629283 3.89145 0
M  V30 10074 H 906.165 -1.27023 4.92689 0
M  V30 10075 H 905.563 -4.22872 3.7576 0
M  V30 10076 H 904.12 -4.60857 4.60928 0
M  V30 10077 N 907.553 -1.57587 0.0200696 0
M  V30 10078 C 908.802 -1.90602 -0.659822 0
M  V30 10079 C 909.115 -0.897216 -1.73808 0
M  V30 10080 O 910.321 -1.11829 -2.47399 0
M  V30 10081 C 908.777 -3.38416 -1.22484 0
M  V30 10082 C 908.385 -4.47637 -0.180339 0
M  V30 10083 C 910.129 -3.80513 -1.88176 0
M  V30 10084 C 908.036 -5.86542 -0.756482 0
M  V30 10085 H 906.966 -0.711272 -0.250216 0
M  V30 10086 H 909.617 -1.83308 0.0838942 0
M  V30 10087 H 907.999 -3.40613 -2.01987 0
M  V30 10088 H 909.173 -4.56987 0.591573 0
M  V30 10089 H 907.488 -4.14687 0.377302 0
M  V30 10090 H 910.085 -4.8164 -2.32222 0
M  V30 10091 H 910.428 -3.15091 -2.72073 0
M  V30 10092 H 910.961 -3.80701 -1.15377 0
M  V30 10093 H 907.7 -6.55485 0.0441468 0
M  V30 10094 H 907.22 -5.80816 -1.49709 0
M  V30 10095 H 908.899 -6.3483 -1.249 0
M  V30 10096 N 909.032 0.252966 -1.55557 0
M  V30 10097 C 909.982 1.31585 -1.86197 0
M  V30 10098 C 910.966 1.43773 -0.722357 0
M  V30 10099 O 912.158 1.47117 -0.984152 0
M  V30 10100 C 909.287 2.67245 -2.15487 0
M  V30 10101 C 908.373 2.59087 -3.3576 0
M  V30 10102 N 908.764 2.20556 -4.5518 0
M  V30 10103 C 907.062 2.90112 -3.3875 0
M  V30 10104 C 907.763 2.22881 -5.37307 0
M  V30 10105 N 906.739 2.62145 -4.76215 0
M  V30 10106 H 910.541 1.00835 -2.76061 0
M  V30 10107 H 908.055 0.461598 -1.55702 0
M  V30 10108 H 910.052 3.43944 -2.35602 0
M  V30 10109 H 908.712 2.98867 -1.26919 0
M  V30 10110 H 909.723 1.922 -4.80915 0
M  V30 10111 H 906.4 3.26313 -2.60434 0
M  V30 10112 H 907.79 1.95482 -6.42835 0
M  V30 10113 N 910.51 1.48831 0.518367 0
M  V30 10114 C 911.473 1.63721 1.604 0
M  V30 10115 C 912.473 0.509857 1.52503 0
M  V30 10116 O 913.663 0.775922 1.55965 0
M  V30 10117 C 910.795 1.61831 3.00039 0
M  V30 10118 H 911.988 2.60534 1.48533 0
M  V30 10119 H 909.541 1.37602 0.741309 0
M  V30 10120 H 910.276 0.665387 3.17401 0
M  V30 10121 H 910.061 2.43686 3.0718 0
M  V30 10122 H 911.551 1.75467 3.78947 0
M  V30 10123 N 911.988 -0.768124 1.37614 0
M  V30 10124 C 912.938 -1.8718 1.30184 0
M  V30 10125 C 913.922 -1.59787 0.188943 0
M  V30 10126 O 915.114 -1.71855 0.423656 0
M  V30 10127 C 912.243 -3.24698 1.11471 0
M  V30 10128 C 911.329 -3.58031 2.27321 0
M  V30 10129 N 911.72 -3.6252 3.52722 0
M  V30 10130 C 910.018 -3.88216 2.19554 0
M  V30 10131 C 910.719 -3.92704 4.29137 0
M  V30 10132 N 909.695 -4.08789 3.58319 0
M  V30 10133 H 913.497 -1.88907 2.25147 0
M  V30 10134 H 911.011 -0.964753 1.30638 0
M  V30 10135 H 913.008 -4.0366 1.04233 0
M  V30 10136 H 911.668 -3.24232 0.174281 0
M  V30 10137 H 912.679 -3.44636 3.86583 0
M  V30 10138 H 909.356 -3.95551 1.33588 0
M  V30 10139 H 910.746 -4.02922 5.37683 0
M  V30 10140 N 913.466 -1.22244 -0.994698 0
M  V30 10141 C 914.399 -0.934168 -2.08203 0
M  V30 10142 C 915.377 0.122231 -1.6214 0
M  V30 10143 O 916.561 -0.00896598 -1.88498 0
M  V30 10144 C 913.688 -0.404646 -3.36274 0
M  V30 10145 C 912.734 -1.44544 -4.01259 0
M  V30 10146 S 913.567 -3.01816 -4.42343 0
M  V30 10147 C 914.723 -2.50497 -5.73587 0
M  V30 10148 H 914.956 -1.85493 -2.32335 0
M  V30 10149 H 912.489 -1.0533 -1.12893 0
M  V30 10150 H 914.447 -0.105719 -4.10364 0
M  V30 10151 H 913.108 0.494971 -3.10176 0
M  V30 10152 H 912.301 -1.02478 -4.93472 0
M  V30 10153 H 911.903 -1.69298 -3.33488 0
M  V30 10154 H 914.195 -1.91626 -6.49835 0
M  V30 10155 H 915.138 -3.41193 -6.20478 0
M  V30 10156 H 915.546 -1.91845 -5.30901 0
M  V30 10157 N 914.944 1.19125 -1.03184 0
M  V30 10158 C 916.184 1.90582 -0.738785 0
M  V30 10159 C 916.548 1.78004 0.719627 0
M  V30 10160 O 917.749 2.44084 1.12589 0
M  V30 10161 C 916.02 3.37319 -1.18114 0
M  V30 10162 S 917.579 4.26962 -1.01238 0
M  V30 10163 H 914.397 0.6582 -0.268875 0
M  V30 10164 H 916.999 1.43999 -1.32229 0
M  V30 10165 H 915.703 3.43999 -2.23814 0
M  V30 10166 H 915.234 3.88935 -0.591051 0
M  V30 10167 H 917.249 4.96143 0.0753558 0
M  V30 10168 N 916.422 0.810101 1.35185 0
M  V30 10169 C 917.652 0.404109 2.02609 0
M  V30 10170 C 918.06 -0.990748 1.61186 0
M  V30 10171 O 917.403 -1.65038 0.80674 0
M  V30 10172 C 917.465 0.412047 3.57131 0
M  V30 10173 C 917.129 1.75802 4.21832 0
M  V30 10174 C 918.126 2.71687 4.43263 0
M  V30 10175 C 915.811 2.04299 4.58876 0
M  V30 10176 C 917.805 3.9425 5.00845 0
M  V30 10177 C 915.492 3.27125 5.16171 0
M  V30 10178 C 916.49 4.21918 5.37098 0
M  V30 10179 O 916.178 5.42576 5.93184 0
M  V30 10180 H 915.91 0.161914 0.656323 0
M  V30 10181 H 918.464 1.09605 1.73712 0
M  V30 10182 H 916.694 -0.336509 3.85233 0
M  V30 10183 H 918.383 0.0278817 4.0589 0
M  V30 10184 H 919.149 2.50964 4.15021 0
M  V30 10185 H 915.028 1.31324 4.41899 0
M  V30 10186 H 918.572 4.68251 5.17094 0
M  V30 10187 H 914.469 3.47718 5.43841 0
M  V30 10188 H 915.237 5.43921 6.11631 0
M  V30 10189 N 917.9 -1.47166 0.563914 0
M  V30 10190 C 919.125 -2.0735 0.0454698 0
M  V30 10191 C 919.55 -1.41281 -1.24182 0
M  V30 10192 O 918.908 -0.490084 -1.7455 0
M  V30 10193 C 918.956 -3.60378 -0.126453 0
M  V30 10194 O 918.06 -3.94934 -1.18746 0
M  V30 10195 H 917.401 -0.661773 0.0543377 0
M  V30 10196 H 919.931 -1.89086 0.781508 0
M  V30 10197 H 919.941 -4.06593 -0.338554 0
M  V30 10198 H 918.616 -4.07862 0.81373 0
M  V30 10199 H 917.193 -3.60455 -0.955318 0
M  V30 10200 N 919.378 -0.300708 -1.54705 0
M  V30 10201 C 920.655 0.361757 -1.92226 0
M  V30 10202 C 921.035 1.71714 -1.2279 0
M  V30 10203 O 920.383 2.2559 -0.363542 0
M  V30 10204 C 920.593 0.476699 -3.45729 0
M  V30 10205 C 921.941 0.7477 -4.17965 0
M  V30 10206 O 922.965 0.560521 -3.51762 0
M  V30 10207 O 921.824 1.10724 -5.35166 0
M  V30 10208 H 918.918 0.202213 -0.801897 0
M  V30 10209 H 921.464 -0.348746 -1.66078 0
M  V30 10210 H 920.236 -0.476132 -3.88392 0
M  V30 10211 H 919.859 1.23568 -3.77911 0
M  V30 10212 N 920.856 1.57574 -0.0284266 0
M  V30 10213 C 922.103 1.91772 0.650364 0
M  V30 10214 C 922.431 0.904769 1.72175 0
M  V30 10215 O 921.686 -0.0864038 1.95509 0
M  V30 10216 C 921.985 3.32699 1.3056 0
M  V30 10217 C 921.651 4.49423 0.364658 0
M  V30 10218 C 920.313 4.81084 0.105672 0
M  V30 10219 C 922.665 5.20439 -0.28151 0
M  V30 10220 C 919.993 5.81119 -0.8073 0
M  V30 10221 C 922.345 6.21449 -1.18253 0
M  V30 10222 C 921.009 6.51551 -1.45042 0
M  V30 10223 H 920.279 0.701744 0.237985 0
M  V30 10224 H 922.926 1.91288 -0.0900448 0
M  V30 10225 H 921.231 3.29441 2.12075 0
M  V30 10226 H 922.928 3.5643 1.83736 0
M  V30 10227 H 919.518 4.24703 0.576692 0
M  V30 10228 H 923.702 4.9621 -0.0944806 0
M  V30 10229 H 918.958 6.02788 -1.02256 0
M  V30 10230 H 923.132 6.75597 -1.68942 0
M  V30 10231 H 920.759 7.28882 -2.15951 0
M  V30 10232 N 922.334 -0.244713 1.55689 0
M  V30 10233 C 923.282 -1.32276 1.91326 0
M  V30 10234 C 924.276 -1.49714 0.792589 0
M  V30 10235 O 925.482 -1.51163 0.977227 0
M  V30 10236 H 921.857 -0.442979 0.607679 0
M  V30 10237 H 923.828 -0.99486 2.81327 0
M  V30 10238 C 922.577 -2.67077 2.22633 0
M  V30 10239 H 921.9 -2.54458 3.08368 0
M  V30 10240 H 923.34 -3.41378 2.5147 0
M  V30 10241 C 921.799 -3.20335 1.04342 0
M  V30 10242 O 922.329 -4.00633 0.292543 0
M  V30 10243 N 920.535 -2.78392 0.833457 0
M  V30 10244 H 920.082 -2.13202 1.44577 0
M  V30 10245 H 920.04 -3.1437 0.0436713 0
M  V30 10246 N 923.813 -1.49104 -0.510467 0
M  V30 10247 C 924.723 -1.67792 -1.6396 0
M  V30 10248 C 925.739 -0.560454 -1.64727 0
M  V30 10249 O 926.915 -0.833985 -1.83321 0
M  V30 10250 C 923.98 -1.73154 -3.00364 0
M  V30 10251 C 923.041 -2.9667 -3.10299 0
M  V30 10252 C 922.274 -3.01767 -4.40196 0
M  V30 10253 O 922.497 -2.1472 -5.28443 0
M  V30 10254 O 921.431 -3.94137 -4.54906 0
M  V30 10255 H 925.257 -2.63428 -1.51126 0
M  V30 10256 H 922.842 -1.32734 -0.685719 0
M  V30 10257 H 924.724 -1.79089 -3.81451 0
M  V30 10258 H 923.399 -0.806952 -3.1348 0
M  V30 10259 H 922.306 -2.96257 -2.28435 0
M  V30 10260 H 923.639 -3.88578 -3.02106 0
M  V30 10261 N 925.291 0.760815 -1.38019 0
M  V30 10262 C 926.54 1.51506 -1.3315 0
M  V30 10263 C 926.853 1.95444 0.0782124 0
M  V30 10264 O 928.059 2.70352 0.249418 0
M  V30 10265 C 926.515 2.73636 -2.33776 0
M  V30 10266 C 926.123 2.36753 -3.80332 0
M  V30 10267 C 927.867 3.51548 -2.37937 0
M  V30 10268 C 925.774 3.55451 -4.72661 0
M  V30 10269 H 924.704 0.568844 -0.494907 0
M  V30 10270 H 927.355 0.832343 -1.63537 0
M  V30 10271 H 925.737 3.43852 -1.96422 0
M  V30 10272 H 926.911 1.7425 -4.26584 0
M  V30 10273 H 925.226 1.71991 -3.7922 0
M  V30 10274 H 927.823 4.39791 -3.04119 0
M  V30 10275 H 928.166 3.9219 -1.39617 0
M  V30 10276 H 928.699 2.88339 -2.74054 0
M  V30 10277 H 925.438 3.19882 -5.7215 0
M  V30 10278 H 924.958 4.17022 -4.31107 0
M  V30 10279 H 926.637 4.22125 -4.90326 0
M  V30 10280 N 926.769 1.22769 0.988202 0
M  V30 10281 C 928.018 1.0492 1.72263 0
M  V30 10282 C 928.331 -0.415282 1.91141 0
M  V30 10283 O 929.537 -0.713547 2.61956 0
M  V30 10284 C 927.993 1.82891 3.09966 0
M  V30 10285 C 927.601 3.33618 2.99003 0
M  V30 10286 C 929.345 1.73505 3.87423 0
M  V30 10287 C 927.252 4.04012 4.3189 0
M  V30 10288 H 926.182 0.38899 0.645912 0
M  V30 10289 H 928.833 1.46664 1.10281 0
M  V30 10290 H 927.215 1.33948 3.72658 0
M  V30 10291 H 928.389 3.8999 2.45448 0
M  V30 10292 H 926.704 3.43732 2.35027 0
M  V30 10293 H 929.301 2.23416 4.85787 0
M  V30 10294 H 929.644 0.696344 4.10435 0
M  V30 10295 H 930.177 2.20016 3.31418 0
M  V30 10296 H 926.916 5.08155 4.14075 0
M  V30 10297 H 926.436 3.52428 4.8534 0
M  V30 10298 H 928.115 4.0987 5.00615 0
M  V30 10299 N 928.247 -1.18576 1.03814 0
M  V30 10300 C 929.157 -2.25778 0.637311 0
M  V30 10301 C 930.173 -1.7074 -0.335248 0
M  V30 10302 O 931.349 -2.00494 -0.19081 0
M  V30 10303 C 928.414 -3.467 0.00386953 0
M  V30 10304 C 927.475 -4.16881 1.02511 0
M  V30 10305 C 926.708 -5.32031 0.421802 0
M  V30 10306 O 926.931 -5.65142 -0.772699 0
M  V30 10307 O 925.865 -5.90826 1.14925 0
M  V30 10308 H 929.691 -2.62323 1.53037 0
M  V30 10309 H 927.276 -1.25609 0.80887 0
M  V30 10310 H 929.158 -4.19953 -0.348873 0
M  V30 10311 H 927.833 -3.11983 -0.863047 0
M  V30 10312 H 926.74 -3.45707 1.4296 0
M  V30 10313 H 928.073 -4.55592 1.86271 0
M  V30 10314 N 929.725 -0.817259 -1.34754 0
M  V30 10315 C 930.955 -0.414849 -2.02392 0
M  V30 10316 C 931.363 0.982186 -1.61709 0
M  V30 10317 O 930.706 1.64607 -0.815481 0
M  V30 10318 C 930.768 -0.430981 -3.56907 0
M  V30 10319 C 930.432 -1.78037 -4.20894 0
M  V30 10320 C 931.429 -2.74034 -4.41816 0
M  V30 10321 C 929.114 -2.0673 -4.57786 0
M  V30 10322 C 931.108 -3.96901 -4.98747 0
M  V30 10323 C 928.795 -3.29858 -5.14429 0
M  V30 10324 C 929.793 -4.24761 -5.34853 0
M  V30 10325 O 929.481 -5.45714 -5.90298 0
M  V30 10326 H 929.213 -0.165392 -0.655455 0
M  V30 10327 H 931.767 -1.10524 -1.73129 0
M  V30 10328 H 929.997 0.316074 -3.85406 0
M  V30 10329 H 931.686 -0.0494067 -4.0587 0
M  V30 10330 H 932.452 -2.53161 -4.13684 0
M  V30 10331 H 928.331 -1.33666 -4.41197 0
M  V30 10332 H 931.875 -4.70987 -5.14604 0
M  V30 10333 H 927.772 -3.50597 -5.41989 0
M  V30 10334 H 928.54 -5.47157 -6.08738 0
M  V30 10335 N 931.203 1.46865 -0.571711 0
M  V30 10336 C 932.452 2.01636 -0.050881 0
M  V30 10337 C 932.765 1.45001 1.31279 0
M  V30 10338 O 933.971 1.91523 1.92435 0
M  V30 10339 C 932.427 3.59877 -0.0404114 0
M  V30 10340 C 932.035 4.25506 -1.40172 0
M  V30 10341 C 933.779 4.22346 0.42705 0
M  V30 10342 C 931.686 5.75795 -1.34958 0
M  V30 10343 H 930.616 0.753846 -0.0152514 0
M  V30 10344 H 933.267 1.68711 -0.721723 0
M  V30 10345 H 931.649 3.89829 0.696374 0
M  V30 10346 H 932.823 4.07178 -2.15737 0
M  V30 10347 H 931.138 3.75086 -1.8083 0
M  V30 10348 H 933.735 5.32499 0.484688 0
M  V30 10349 H 934.078 3.9052 1.44222 0
M  V30 10350 H 934.611 3.9698 -0.255326 0
M  V30 10351 H 931.35 6.12265 -2.3412 0
M  V30 10352 H 930.87 5.96419 -0.635962 0
M  V30 10353 H 932.549 6.38294 -1.05779 0
M  V30 10354 N 932.681 0.308908 1.54543 0
M  V30 10355 C 933.631 -0.578902 2.20528 0
M  V30 10356 C 934.615 -1.09288 1.18088 0
M  V30 10357 O 935.807 -1.03234 1.43777 0
M  V30 10358 C 932.936 -1.74649 2.95555 0
M  V30 10359 C 932.022 -1.24809 4.05319 0
M  V30 10360 N 932.413 -0.46828 5.03628 0
M  V30 10361 C 930.711 -1.52813 4.19004 0
M  V30 10362 C 931.412 -0.201896 5.8135 0
M  V30 10363 N 930.388 -0.783927 5.37918 0
M  V30 10364 H 934.19 0.0243496 2.9389 0
M  V30 10365 H 931.704 0.114049 1.61999 0
M  V30 10366 H 933.701 -2.39414 3.41301 0
M  V30 10367 H 932.361 -2.35336 2.23712 0
M  V30 10368 H 933.372 -0.112453 5.17778 0
M  V30 10369 H 930.049 -2.14191 3.58369 0
M  V30 10370 H 931.439 0.424929 6.70555 0
M  V30 10371 N 934.159 -1.57557 0.0367827 0
M  V30 10372 C 935.091 -2.07597 -0.971395 0
M  V30 10373 C 936.104 -1.0009 -1.28397 0
M  V30 10374 O 937.293 -1.27692 -1.24728 0
M  V30 10375 C 934.393 -2.492 -2.2968 0
M  V30 10376 C 933.566 -3.79875 -2.16826 0
M  V30 10377 C 932.625 -4.07946 -3.32366 0
M  V30 10378 O 931.651 -4.78083 -3.0891 0
M  V30 10379 N 932.853 -3.58722 -4.56397 0
M  V30 10380 H 935.618 -2.94714 -0.544389 0
M  V30 10381 H 933.179 -1.61205 -0.1498 0
M  V30 10382 H 935.171 -2.65065 -3.05815 0
M  V30 10383 H 933.741 -1.67407 -2.63995 0
M  V30 10384 H 932.961 -3.73732 -1.2537 0
M  V30 10385 H 934.249 -4.65476 -2.0545 0
M  V30 10386 H 933.647 -3.01994 -4.78347 0
M  V30 10387 H 932.204 -3.79852 -5.29675 0
M  V30 10388 N 935.637 0.236453 -1.55816 0
M  V30 10389 C 936.567 1.29639 -1.94206 0
M  V30 10390 C 937.548 1.49667 -0.808319 0
M  V30 10391 O 938.733 1.621 -1.06945 0
M  V30 10392 C 935.863 2.64914 -2.24584 0
M  V30 10393 C 934.817 2.59565 -3.40308 0
M  V30 10394 C 934.143 3.98732 -3.56254 0
M  V30 10395 C 935.443 2.15642 -4.75706 0
M  V30 10396 H 937.137 0.977552 -2.82992 0
M  V30 10397 H 934.683 0.468804 -1.36155 0
M  V30 10398 H 936.636 3.39209 -2.50031 0
M  V30 10399 H 935.36 2.98455 -1.32636 0
M  V30 10400 H 934.019 1.87728 -3.14887 0
M  V30 10401 H 933.667 4.29556 -2.61707 0
M  V30 10402 H 933.367 3.96039 -4.34082 0
M  V30 10403 H 934.891 4.74711 -3.84033 0
M  V30 10404 H 936.305 2.79673 -5.00456 0
M  V30 10405 H 934.702 2.24039 -5.56711 0
M  V30 10406 H 935.772 1.10831 -4.72064 0
M  V30 10407 N 937.115 1.49373 0.502552 0
M  V30 10408 C 938.025 1.68659 1.63068 0
M  V30 10409 C 939.041 0.569182 1.64427 0
M  V30 10410 O 940.217 0.843695 1.82876 0
M  V30 10411 C 937.282 1.74745 2.99441 0
M  V30 10412 C 936.343 2.98311 3.08721 0
M  V30 10413 C 935.576 3.04097 4.38589 0
M  V30 10414 O 935.799 2.17519 5.27297 0
M  V30 10415 O 934.733 3.96544 4.52809 0
M  V30 10416 H 938.559 2.64226 1.49727 0
M  V30 10417 H 936.144 1.33096 0.67867 0
M  V30 10418 H 938.026 1.8111 3.80496 0
M  V30 10419 H 936.701 0.823565 3.13048 0
M  V30 10420 H 935.608 2.97465 2.2686 0
M  V30 10421 H 936.941 3.90174 3.00041 0
M  V30 10422 N 938.594 -0.753485 1.38421 0
M  V30 10423 C 939.841 -1.51261 1.34634 0
M  V30 10424 C 940.169 -1.94396 -0.0635771 0
M  V30 10425 O 939.424 -1.65736 -1.04068 0
M  V30 10426 C 939.723 -2.77836 2.24816 0
M  V30 10427 C 939.389 -2.53662 3.72782 0
M  V30 10428 C 938.051 -2.46779 4.13103 0
M  V30 10429 C 940.403 -2.32548 4.66445 0
M  V30 10430 C 937.731 -2.16796 5.45176 0
M  V30 10431 C 940.083 -2.04085 5.98775 0
M  V30 10432 C 938.747 -1.95658 6.3818 0
M  V30 10433 H 938.017 -0.553503 0.492661 0
M  V30 10434 H 940.664 -0.866406 1.7078 0
M  V30 10435 H 938.969 -3.47106 1.81726 0
M  V30 10436 H 940.666 -3.35793 2.19189 0
M  V30 10437 H 937.256 -2.59891 3.40815 0
M  V30 10438 H 941.44 -2.36845 4.3614 0
M  V30 10439 H 936.696 -2.0878 5.74648 0
M  V30 10440 H 940.87 -1.86751 6.70893 0
M  V30 10441 H 938.497 -1.7219 7.40442 0
M  V30 10442 N 940.072 -1.23292 -0.981677 0
M  V30 10443 C 941.349 -0.972514 -1.6971 0
M  V30 10444 C 941.729 0.509244 -2.04866 0
M  V30 10445 O 941.077 1.48013 -1.74082 0
M  V30 10446 C 941.287 -1.88144 -2.93943 0
M  V30 10447 C 942.635 -2.14416 -3.66485 0
M  V30 10448 O 943.659 -1.85684 -3.03974 0
M  V30 10449 O 942.518 -2.63139 -4.78978 0
M  V30 10450 H 939.612 -0.366673 -0.741269 0
M  V30 10451 H 942.158 -1.34328 -1.03701 0
M  V30 10452 H 940.93 -2.8832 -2.64551 0
M  V30 10453 H 940.553 -1.51296 -3.67689 0
M  V30 10454 N 941.55 1.18024 -1.04442 0
M  V30 10455 C 942.796 1.88377 -0.751133 0
M  V30 10456 C 943.129 1.80377 0.719571 0
M  V30 10457 O 942.404 1.20662 1.52548 0
M  V30 10458 C 942.687 3.38708 -1.22265 0
M  V30 10459 C 942.54 3.55499 -2.75574 0
M  V30 10460 C 943.859 4.32475 -0.815688 0
M  V30 10461 H 940.978 0.684037 -0.27434 0
M  V30 10462 H 943.62 1.38837 -1.29709 0
M  V30 10463 H 941.77 3.8103 -0.758192 0
M  V30 10464 H 943.442 3.22244 -3.30086 0
M  V30 10465 H 941.685 2.98028 -3.15217 0
M  V30 10466 H 942.356 4.60994 -3.03625 0
M  V30 10467 H 944.832 3.97953 -1.21542 0
M  V30 10468 H 943.708 5.36213 -1.17331 0
M  V30 10469 H 943.969 4.41207 0.280901 0
M  V30 10470 N 943.028 0.824394 1.34319 0
M  V30 10471 C 944.277 0.40956 1.97498 0
M  V30 10472 C 944.59 -1.03323 1.66083 0
M  V30 10473 O 945.796 -1.55205 2.22764 0
M  V30 10474 C 944.252 0.681384 3.53391 0
M  V30 10475 C 943.86 2.1379 3.93698 0
M  V30 10476 C 945.604 0.332788 4.23194 0
M  V30 10477 C 943.511 2.35453 5.42509 0
M  V30 10478 H 942.441 0.149409 0.739049 0
M  V30 10479 H 945.092 1.01095 1.5314 0
M  V30 10480 H 943.474 0.00980375 3.95999 0
M  V30 10481 H 944.648 2.84876 3.62191 0
M  V30 10482 H 942.963 2.44807 3.36836 0
M  V30 10483 H 945.56 0.472463 5.32609 0
M  V30 10484 H 945.903 -0.722862 4.09976 0
M  V30 10485 H 946.436 0.959005 3.86067 0
M  V30 10486 H 943.175 3.39529 5.60714 0
M  V30 10487 H 942.695 1.68912 5.75525 0
M  V30 10488 H 944.374 2.17885 6.09209 0
M  V30 10489 N 944.506 -1.46559 0.579492 0
M  V30 10490 C 945.731 -2.0729 0.0674595 0
M  V30 10491 C 946.156 -1.4259 -1.22677 0
M  V30 10492 O 945.514 -0.50857 -1.74021 0
M  V30 10493 C 945.562 -3.60492 -0.0882227 0
M  V30 10494 O 944.666 -3.96172 -1.14551 0
M  V30 10495 H 944.007 -0.661159 0.0613536 0
M  V30 10496 H 946.537 -1.88247 0.801519 0
M  V30 10497 H 946.547 -4.06929 -0.295411 0
M  V30 10498 H 945.222 -4.06976 0.856943 0
M  V30 10499 H 943.799 -3.61448 -0.917033 0
M  V30 10500 N 945.984 -0.3171 -1.54377 0
M  V30 10501 C 947.233 0.288271 -1.99629 0
M  V30 10502 C 947.546 1.53754 -1.2091 0
M  V30 10503 O 948.752 2.2185 -1.56508 0
M  V30 10504 C 947.208 0.564188 -3.5545 0
M  V30 10505 C 946.816 -0.667659 -4.42997 0
M  V30 10506 C 948.56 1.12987 -4.09187 0
M  V30 10507 C 946.467 -0.364003 -5.90279 0
M  V30 10508 H 945.397 0.111492 -0.745711 0
M  V30 10509 H 948.048 -0.428317 -1.78431 0
M  V30 10510 H 946.43 1.34079 -3.72611 0
M  V30 10511 H 947.604 -1.44335 -4.37612 0
M  V30 10512 H 945.919 -1.1531 -4.00116 0
M  V30 10513 H 948.516 1.37157 -5.1681 0
M  V30 10514 H 948.859 2.07722 -3.60773 0
M  V30 10515 H 949.392 0.414595 -3.95634 0
M  V30 10516 H 946.131 -1.28035 -6.42874 0
M  V30 10517 H 945.651 0.374102 -5.98632 0
M  V30 10518 H 947.33 0.0285433 -6.46994 0
M  V30 10519 N 947.462 1.57535 -0.0451378 0
M  V30 10520 C 948.372 2.14653 0.946646 0
M  V30 10521 C 949.388 1.10279 1.3459 0
M  V30 10522 O 950.564 1.42417 1.42405 0
M  V30 10523 C 947.629 2.67533 2.20515 0
M  V30 10524 C 946.69 3.86682 1.86481 0
M  V30 10525 C 945.923 4.37031 3.06332 0
M  V30 10526 O 946.146 3.86481 4.1951 0
M  V30 10527 O 945.08 5.28691 2.87697 0
M  V30 10528 H 948.906 2.99706 0.49091 0
M  V30 10529 H 946.491 1.48355 0.17641 0
M  V30 10530 H 948.373 3.01542 2.94365 0
M  V30 10531 H 947.048 1.85554 2.65238 0
M  V30 10532 H 945.955 3.57573 1.09966 0
M  V30 10533 H 947.288 4.69873 1.46562 0
M  V30 10534 N 948.94 -0.228186 1.55939 0
M  V30 10535 C 949.903 -1.26621 1.91049 0
M  V30 10536 C 950.903 -1.40141 0.788491 0
M  V30 10537 O 952.093 -1.3852 1.05631 0
M  V30 10538 C 949.225 -2.64108 2.15545 0
M  V30 10539 H 950.418 -0.966978 2.83883 0
M  V30 10540 H 947.971 -0.468313 1.49119 0
M  V30 10541 H 948.706 -2.99141 1.25241 0
M  V30 10542 H 948.491 -2.55673 2.97277 0
M  V30 10543 H 949.981 -3.39025 2.43827 0
M  V30 10544 N 950.418 -1.49637 -0.494624 0
M  V30 10545 C 951.643 -1.63431 -1.27691 0
M  V30 10546 C 952.068 -0.30813 -1.85559 0
M  V30 10547 O 951.426 0.725083 -1.66169 0
M  V30 10548 C 951.474 -2.71043 -2.3784 0
M  V30 10549 O 950.578 -2.3066 -3.41862 0
M  V30 10550 H 949.919 -0.546804 -0.376698 0
M  V30 10551 H 952.449 -1.95866 -0.591413 0
M  V30 10552 H 952.459 -2.93406 -2.83508 0
M  V30 10553 H 951.134 -3.67306 -1.95088 0
M  V30 10554 H 949.711 -2.18652 -3.02069 0
M  V30 10555 N 951.896 0.746133 -1.38819 0
M  V30 10556 C 953.312 1.0502 -1.20179 0
M  V30 10557 C 953.512 2.01423 -0.0556271 0
M  V30 10558 O 952.568 2.45359 0.59625 0
M  V30 10559 C 953.881 1.62315 -2.53129 0
M  V30 10560 C 955.429 1.74449 -2.59878 0
M  V30 10561 C 955.904 2.35155 -3.93022 0
M  V30 10562 N 957.395 2.42577 -3.94602 0
M  V30 10563 C 958.13 2.9046 -4.94389 0
M  V30 10564 N 957.626 3.38322 -6.04574 0
M  V30 10565 N 959.419 2.89568 -4.81775 0
M  V30 10566 H 951.57 0.106551 -2.12133 0
M  V30 10567 H 953.833 0.109897 -0.941609 0
M  V30 10568 H 953.539 0.98946 -3.37495 0
M  V30 10569 H 953.413 2.61276 -2.72057 0
M  V30 10570 H 955.8 2.36943 -1.75903 0
M  V30 10571 H 955.881 0.741721 -2.4481 0
M  V30 10572 H 955.525 1.73292 -4.77422 0
M  V30 10573 H 955.455 3.36088 -4.05404 0
M  V30 10574 H 957.946 2.08735 -3.15021 0
M  V30 10575 H 958.259 3.73336 -6.76639 0
M  V30 10576 H 956.604 3.3636 -6.08184 0
M  V30 10577 H 959.795 2.51492 -3.94803 0
M  V30 10578 H 959.968 3.26571 -5.59692 0
M  V30 10579 N 953.375 1.23811 0.975125 0
M  V30 10580 C 954.6 1.10109 1.75757 0
M  V30 10581 C 955.025 -0.342922 1.84948 0
M  V30 10582 O 954.383 -1.24814 1.31496 0
M  V30 10583 C 954.431 1.73724 3.15994 0
M  V30 10584 O 953.535 1.00297 4.00018 0
M  V30 10585 H 952.876 0.385627 0.540544 0
M  V30 10586 H 955.406 1.63971 1.22372 0
M  V30 10587 H 955.416 1.79178 3.6655 0
M  V30 10588 H 954.091 2.78794 3.0862 0
M  V30 10589 H 952.668 1.02575 3.58515 0
M  V30 10590 N 954.853 -1.17469 1.05066 0
M  V30 10591 C 955.8 -2.21443 0.650512 0
M  V30 10592 C 956.77 -1.62441 -0.346702 0
M  V30 10593 O 957.955 -1.89305 -0.238404 0
M  V30 10594 C 955.095 -3.45087 0.0301014 0
M  V30 10595 C 954.208 -4.18385 1.07599 0
M  V30 10596 C 953.343 -5.29513 0.423038 0
M  V30 10597 C 952.382 -5.94596 1.45333 0
M  V30 10598 N 951.519 -6.97241 0.824623 0
M  V30 10599 H 956.359 -2.55025 1.54163 0
M  V30 10600 H 953.896 -1.25274 0.771032 0
M  V30 10601 H 955.854 -4.15754 -0.347032 0
M  V30 10602 H 954.484 -3.12093 -0.824481 0
M  V30 10603 H 953.536 -3.46446 1.57097 0
M  V30 10604 H 954.848 -4.62899 1.85813 0
M  V30 10605 H 954.002 -6.067 -0.00774975 0
M  V30 10606 H 952.741 -4.86129 -0.391092 0
M  V30 10607 H 951.746 -5.16142 1.89415 0
M  V30 10608 H 952.971 -6.40061 2.26934 0
M  V30 10609 H 950.917 -6.55993 0.0309804 0
M  V30 10610 H 950.834 -7.40059 1.54432 0
M  V30 10611 H 952.102 -7.78375 0.418567 0
M  V30 10612 N 956.331 -0.831506 -1.3388 0
M  V30 10613 C 957.579 -0.422837 -1.97627 0
M  V30 10614 C 957.9 1.01961 -1.6622 0
M  V30 10615 O 957.17 1.70916 -0.957323 0
M  V30 10616 H 955.75 -0.153365 -0.731087 0
M  V30 10617 H 958.412 -1.06284 -1.6337 0
M  V30 10618 H 957.508 -0.548858 -3.07236 0
M  V30 10619 N 957.809 1.4625 -0.587256 0
M  V30 10620 C 958.719 2.34147 0.145744 0
M  V30 10621 C 959.735 1.50026 0.881376 0
M  V30 10622 O 960.911 1.82884 0.843539 0
M  V30 10623 C 957.976 3.27294 1.14366 0
M  V30 10624 C 957.037 4.27317 0.412199 0
M  V30 10625 C 956.27 5.16013 1.36257 0
M  V30 10626 O 956.493 5.0773 2.59934 0
M  V30 10627 O 955.427 5.95569 0.870681 0
M  V30 10628 H 959.253 2.98187 -0.576055 0
M  V30 10629 H 956.838 1.45299 -0.347628 0
M  V30 10630 H 958.72 3.84747 1.71894 0
M  V30 10631 H 957.395 2.65845 1.84684 0
M  V30 10632 H 956.302 3.73538 -0.205036 0
M  V30 10633 H 957.635 4.91564 -0.250104 0
M  V30 10634 N 959.287 0.325282 1.54207 0
M  V30 10635 C 960.536 -0.27768 1.99779 0
M  V30 10636 C 960.849 -1.5311 1.21723 0
M  V30 10637 O 962.055 -2.21017 1.57682 0
M  V30 10638 C 960.511 -0.545329 3.55745 0
M  V30 10639 C 960.119 0.691143 4.42637 0
M  V30 10640 C 961.863 -1.10815 4.09781 0
M  V30 10641 C 959.77 0.395302 5.90077 0
M  V30 10642 H 958.7 -0.107536 0.746292 0
M  V30 10643 H 961.351 0.437773 1.78202 0
M  V30 10644 H 959.733 -1.32101 3.73317 0
M  V30 10645 H 960.907 1.46653 4.3684 0
M  V30 10646 H 959.222 1.1743 3.99499 0
M  V30 10647 H 961.819 -1.34414 5.1753 0
M  V30 10648 H 962.162 -2.05806 3.6187 0
M  V30 10649 H 962.695 -0.393608 3.95848 0
M  V30 10650 H 959.434 1.31443 6.42186 0
M  V30 10651 H 958.954 -0.34235 5.98822 0
M  V30 10652 H 960.633 0.00576877 6.47 0
M  V30 10653 N 960.765 -1.57509 0.0534917 0
M  V30 10654 C 962.014 -1.91959 -0.619244 0
M  V30 10655 C 962.327 -0.933882 -1.71866 0
M  V30 10656 O 963.533 -1.17052 -2.44972 0
M  V30 10657 C 961.989 -3.40938 -1.15278 0
M  V30 10658 C 961.597 -4.47919 -0.085348 0
M  V30 10659 C 963.341 -3.84419 -1.80063 0
M  V30 10660 C 961.248 -5.88014 -0.631897 0
M  V30 10661 H 960.178 -0.71642 -0.235072 0
M  V30 10662 H 962.829 -1.83089 0.122758 0
M  V30 10663 H 961.211 -3.44821 -1.94717 0
M  V30 10664 H 962.385 -4.55629 0.688374 0
M  V30 10665 H 960.7 -4.13793 0.465178 0
M  V30 10666 H 963.297 -4.86457 -2.21954 0
M  V30 10667 H 963.64 -3.20791 -2.65328 0
M  V30 10668 H 964.173 -3.83062 -1.07275 0
M  V30 10669 H 960.912 -6.55244 0.183175 0
M  V30 10670 H 960.432 -5.83861 -1.37355 0
M  V30 10671 H 962.111 -6.37336 -1.11407 0
M  V30 10672 N 962.243 0.219913 -1.56058 0
M  V30 10673 C 963.468 0.965073 -1.83579 0
M  V30 10674 C 963.893 1.77092 -0.634024 0
M  V30 10675 O 963.251 1.76434 0.417205 0
M  V30 10676 C 963.299 1.85705 -3.09105 0
M  V30 10677 O 962.403 2.95261 -2.87914 0
M  V30 10678 H 961.744 0.273173 -0.605204 0
M  V30 10679 H 964.274 0.23273 -2.03272 0
M  V30 10680 H 964.284 2.26655 -3.39252 0
M  V30 10681 H 962.959 1.26476 -3.96203 0
M  V30 10682 H 961.536 2.58246 -2.69005 0
M  V30 10683 N 963.721 1.49897 0.486681 0
M  V30 10684 C 964.684 1.67086 1.56891 0
M  V30 10685 C 965.684 0.54209 1.51387 0
M  V30 10686 O 966.874 0.80883 1.54284 0
M  V30 10687 C 964.006 1.68159 2.96539 0
M  V30 10688 H 965.199 2.63626 1.42974 0
M  V30 10689 H 962.752 1.39143 0.711954 0
M  V30 10690 H 963.487 0.732562 3.15918 0
M  V30 10691 H 963.272 2.50147 3.01942 0
M  V30 10692 H 964.762 1.83466 3.7514 0
M  V30 10693 N 965.199 -0.738761 1.39212 0
M  V30 10694 C 966.446 -1.49824 1.36231 0
M  V30 10695 C 966.774 -1.94453 -0.0429552 0
M  V30 10696 O 966.029 -1.6683 -1.02304 0
M  V30 10697 C 966.328 -2.75435 2.2775 0
M  V30 10698 C 965.994 -2.49694 3.75451 0
M  V30 10699 C 964.656 -2.42383 4.15697 0
M  V30 10700 C 967.008 -2.27587 4.68885 0
M  V30 10701 C 964.336 -2.11001 5.47444 0
M  V30 10702 C 966.688 -1.97723 6.00906 0
M  V30 10703 C 965.352 -1.88879 6.4022 0
M  V30 10704 H 964.622 -0.548247 0.498504 0
M  V30 10705 H 967.269 -0.848244 1.71689 0
M  V30 10706 H 965.574 -3.45159 1.85398 0
M  V30 10707 H 967.271 -3.33449 2.22739 0
M  V30 10708 H 963.861 -2.56261 3.43552 0
M  V30 10709 H 968.045 -2.32206 4.38628 0
M  V30 10710 H 963.301 -2.02673 5.76831 0
M  V30 10711 H 967.475 -1.79625 6.72836 0
M  V30 10712 H 965.102 -1.64327 7.42227 0
M  V30 10713 N 966.677 -1.24326 -0.968545 0
M  V30 10714 C 967.587 -1.05194 -2.09694 0
M  V30 10715 C 968.603 0.00701291 -1.73999 0
M  V30 10716 O 969.779 -0.190981 -2.00492 0
M  V30 10717 C 966.844 -0.658075 -3.40397 0
M  V30 10718 C 965.905 -1.79341 -3.90045 0
M  V30 10719 C 965.138 -1.41824 -5.14511 0
M  V30 10720 O 965.361 -0.307693 -5.69569 0
M  V30 10721 O 964.295 -2.24358 -5.58522 0
M  V30 10722 H 968.121 -1.99791 -2.2873 0
M  V30 10723 H 965.706 -1.03138 -1.08088 0
M  V30 10724 H 967.588 -0.449911 -4.18991 0
M  V30 10725 H 966.263 0.258782 -3.22664 0
M  V30 10726 H 965.17 -2.05632 -3.12516 0
M  V30 10727 H 966.503 -2.68901 -4.12254 0
M  V30 10728 N 968.156 1.1691 -1.05688 0
M  V30 10729 C 969.104 2.2315 -0.656262 0
M  V30 10730 C 970.098 1.66256 0.324873 0
M  V30 10731 O 971.304 1.7899 0.190397 0
M  V30 10732 H 967.679 0.726527 -0.19407 0
M  V30 10733 H 969.65 2.54233 -1.56231 0
M  V30 10734 C 968.399 3.47661 -0.0522431 0
M  V30 10735 H 967.722 3.91749 -0.798299 0
M  V30 10736 H 969.162 4.23571 0.190626 0
M  V30 10737 C 967.621 3.14709 1.20248 0
M  V30 10738 O 968.151 3.29947 2.29124 0
M  V30 10739 N 966.357 2.68892 1.10207 0
M  V30 10740 H 965.904 2.56692 0.216063 0
M  V30 10741 H 965.862 2.47218 1.94244 0
M  V30 10742 N 969.634 0.838594 1.33437 0
M  V30 10743 C 970.881 0.434169 1.97791 0
M  V30 10744 C 971.209 -1.00652 1.66431 0
M  V30 10745 O 970.464 -1.71848 0.936309 0
M  V30 10746 C 970.763 0.601425 3.52303 0
M  V30 10747 C 970.429 2.01017 4.03612 0
M  V30 10748 C 969.091 2.39551 4.17336 0
M  V30 10749 C 971.443 2.93035 4.31022 0
M  V30 10750 C 968.771 3.69406 4.55802 0
M  V30 10751 C 971.123 4.22372 4.7094 0
M  V30 10752 C 969.787 4.60862 4.82869 0
M  V30 10753 H 969.057 0.158874 0.723768 0
M  V30 10754 H 971.704 1.06556 1.59116 0
M  V30 10755 H 970.009 -0.113284 3.91636 0
M  V30 10756 H 971.706 0.268798 4.00098 0
M  V30 10757 H 968.296 1.7009 3.93405 0
M  V30 10758 H 972.48 2.64503 4.19943 0
M  V30 10759 H 967.736 3.99033 4.63231 0
M  V30 10760 H 971.91 4.93749 4.91106 0
M  V30 10761 H 969.537 5.6153 5.12433 0
M  V30 10762 N 971.112 -1.45937 0.595003 0
M  V30 10763 C 972.059 -2.30427 -0.131165 0
M  V30 10764 C 973.029 -1.41355 -0.872232 0
M  V30 10765 O 974.214 -1.70296 -0.860467 0
M  V30 10766 C 971.354 -3.26045 -1.13087 0
M  V30 10767 C 970.467 -4.30218 -0.391982 0
M  V30 10768 C 969.602 -5.12953 -1.3803 0
M  V30 10769 C 968.641 -6.08865 -0.628505 0
M  V30 10770 N 967.778 -6.84425 -1.56548 0
M  V30 10771 H 972.618 -2.91992 0.595359 0
M  V30 10772 H 970.155 -1.43895 0.305405 0
M  V30 10773 H 972.113 -3.79937 -1.72348 0
M  V30 10774 H 970.743 -2.66261 -1.82496 0
M  V30 10775 H 969.795 -3.79086 0.315895 0
M  V30 10776 H 971.107 -4.98418 0.195173 0
M  V30 10777 H 970.261 -5.71184 -2.04534 0
M  V30 10778 H 969 -4.44743 -2.00138 0
M  V30 10779 H 968.005 -5.49777 0.0502431 0
M  V30 10780 H 969.23 -6.79099 -0.012641 0
M  V30 10781 H 967.176 -6.18913 -2.17444 0
M  V30 10782 H 967.093 -7.48931 -1.03145 0
M  V30 10783 H 968.361 -7.47204 -2.22049 0
M  V30 10784 N 972.59 -0.333456 -1.54032 0
M  V30 10785 C 973.838 0.265608 -2.00347 0
M  V30 10786 C 974.159 1.51873 -1.2231 0
M  V30 10787 O 973.429 1.93142 -0.327549 0
M  V30 10788 H 972.009 0.101135 -0.740122 0
M  V30 10789 H 974.671 -0.452285 -1.8958 0
M  V30 10790 H 973.767 0.51511 -3.0782 0
M  V30 10791 N 974.068 1.57479 -0.061844 0
M  V30 10792 C 975.314 1.9421 0.604485 0
M  V30 10793 C 975.669 0.941011 1.67818 0
M  V30 10794 O 974.962 -0.0382264 1.91562 0
M  V30 10795 C 975.156 3.35394 1.23474 0
M  V30 10796 C 974.985 4.49144 0.223628 0
M  V30 10797 C 973.755 5.04949 -0.188187 0
M  V30 10798 C 975.953 5.11508 -0.535193 0
M  V30 10799 N 973.935 6.02235 -1.19105 0
M  V30 10800 C 975.306 6.04199 -1.39082 0
M  V30 10801 C 977.361 4.94364 -0.592346 0
M  V30 10802 C 976.064 6.81587 -2.2985 0
M  V30 10803 C 978.09 5.72388 -1.48749 0
M  V30 10804 C 977.452 6.6472 -2.33082 0
M  V30 10805 H 973.551 0.757931 0.192522 0
M  V30 10806 H 976.135 1.9422 -0.136667 0
M  V30 10807 H 974.306 3.36141 1.94587 0
M  V30 10808 H 976.038 3.59387 1.86073 0
M  V30 10809 H 972.793 4.73207 0.192933 0
M  V30 10810 H 973.217 6.55575 -1.68969 0
M  V30 10811 H 977.859 4.22776 0.045445 0
M  V30 10812 H 975.577 7.5246 -2.94669 0
M  V30 10813 H 979.163 5.61146 -1.53642 0
M  V30 10814 H 978.043 7.2404 -3.01225 0
M  V30 10815 N 975.546 -0.211634 1.56173 0
M  V30 10816 C 976.795 -0.932647 1.78842 0
M  V30 10817 C 977.108 -1.85103 0.63217 0
M  V30 10818 O 978.314 -2.61143 0.742746 0
M  V30 10819 C 976.77 -1.70866 3.16753 0
M  V30 10820 C 976.378 -0.835934 4.40132 0
M  V30 10821 C 978.122 -2.4203 3.48743 0
M  V30 10822 C 976.029 -1.60987 5.69067 0
M  V30 10823 H 974.959 -0.351983 0.666801 0
M  V30 10824 H 977.61 -0.186284 1.82552 0
M  V30 10825 H 975.992 -2.4983 3.07247 0
M  V30 10826 H 977.166 -0.0861298 4.60719 0
M  V30 10827 H 975.481 -0.235941 4.15731 0
M  V30 10828 H 978.078 -3.00453 4.42303 0
M  V30 10829 H 978.421 -3.15406 2.71707 0
M  V30 10830 H 978.954 -1.70048 3.59623 0
M  V30 10831 H 975.693 -0.9192 6.49023 0
M  V30 10832 H 975.213 -2.33403 5.52524 0
M  V30 10833 H 976.892 -2.16798 6.09596 0
M  V30 10834 N 977.024 -1.50153 -0.478725 0
M  V30 10835 C 977.971 -1.68458 -1.57767 0
M  V30 10836 C 978.941 -0.5259 -1.57555 0
M  V30 10837 O 980.126 -0.755574 -1.75202 0
M  V30 10838 C 977.266 -1.77772 -2.95789 0
M  V30 10839 C 976.379 -3.05092 -3.05848 0
M  V30 10840 C 975.514 -3.05247 -4.34739 0
M  V30 10841 C 974.553 -4.27053 -4.38512 0
M  V30 10842 N 973.69 -4.24991 -5.58862 0
M  V30 10843 H 978.53 -2.62282 -1.41464 0
M  V30 10844 H 976.067 -1.30023 -0.687921 0
M  V30 10845 H 978.025 -1.81152 -3.75819 0
M  V30 10846 H 976.655 -0.873944 -3.10744 0
M  V30 10847 H 975.707 -3.11219 -2.1874 0
M  V30 10848 H 977.019 -3.95075 -3.04495 0
M  V30 10849 H 976.173 -3.07314 -5.23109 0
M  V30 10850 H 974.912 -2.13081 -4.38689 0
M  V30 10851 H 973.917 -4.25206 -3.4854 0
M  V30 10852 H 975.142 -5.20437 -4.36259 0
M  V30 10853 H 973.088 -3.35674 -5.63612 0
M  V30 10854 H 973.005 -5.08734 -5.59219 0
M  V30 10855 H 974.273 -4.31193 -6.49379 0
M  V30 10856 N 978.502 0.731368 -1.39602 0
M  V30 10857 C 979.434 1.85575 -1.34516 0
M  V30 10858 C 980.447 1.60818 -0.253287 0
M  V30 10859 O 981.636 1.70984 -0.512505 0
M  V30 10860 C 978.736 3.21673 -1.06676 0
M  V30 10861 C 977.909 3.73757 -2.27211 0
M  V30 10862 C 976.968 4.88426 -1.95773 0
M  V30 10863 O 975.994 5.01898 -2.68491 0
M  V30 10864 N 977.196 5.73065 -0.926083 0
M  V30 10865 H 979.961 1.90442 -2.31413 0
M  V30 10866 H 977.522 0.912258 -1.33752 0
M  V30 10867 H 979.514 3.95959 -0.836577 0
M  V30 10868 H 978.084 3.12052 -0.185003 0
M  V30 10869 H 977.304 2.90781 -2.66158 0
M  V30 10870 H 978.592 4.05289 -3.07601 0
M  V30 10871 H 977.99 5.64774 -0.323497 0
M  V30 10872 H 976.547 6.47403 -0.755795 0
M  V30 10873 N 979.98 1.24838 0.961938 0
M  V30 10874 C 981.229 1.0855 1.69999 0
M  V30 10875 C 981.542 -0.374645 1.91979 0
M  V30 10876 O 982.748 -0.657822 2.6341 0
M  V30 10877 C 981.204 1.89424 3.06017 0
M  V30 10878 C 980.812 3.39885 2.9186 0
M  V30 10879 C 982.556 1.81684 3.83655 0
M  V30 10880 C 980.463 4.13082 4.23223 0
M  V30 10881 H 979.393 0.402603 0.637516 0
M  V30 10882 H 982.044 1.4897 1.07146 0
M  V30 10883 H 980.426 1.41823 3.69733 0
M  V30 10884 H 981.6 3.95108 2.37121 0
M  V30 10885 H 979.915 3.4864 2.27683 0
M  V30 10886 H 982.512 2.3367 4.80939 0
M  V30 10887 H 982.855 0.783247 4.08865 0
M  V30 10888 H 983.388 2.26997 3.26676 0
M  V30 10889 H 980.127 5.16824 4.03204 0
M  V30 10890 H 979.647 3.62644 4.77755 0
M  V30 10891 H 981.326 4.20397 4.91808 0
M  V30 10892 N 981.458 -1.16348 1.06306 0
M  V30 10893 C 982.706 -1.86512 0.778311 0
M  V30 10894 C 983.027 -1.82107 -0.697273 0
M  V30 10895 O 982.297 -1.2547 -1.50446 0
M  V30 10896 H 980.877 -0.690529 0.284919 0
M  V30 10897 H 983.539 -1.41092 1.34458 0
M  V30 10898 H 982.635 -2.91947 1.10333 0
M  V30 10899 N 982.937 -0.845659 -1.3299 0
M  V30 10900 C 984.183 -0.445311 -1.9785 0
M  V30 10901 C 984.516 0.994476 -1.66805 0
M  V30 10902 O 983.791 1.69636 -0.95151 0
M  V30 10903 C 984.074 -0.674371 -3.53729 0
M  V30 10904 C 983.927 -2.16192 -3.94437 0
M  V30 10905 C 985.246 -0.124908 -4.39923 0
M  V30 10906 H 982.365 -0.163269 -0.718688 0
M  V30 10907 H 985.007 -1.06242 -1.5752 0
M  V30 10908 H 983.157 -0.149091 -3.88214 0
M  V30 10909 H 984.829 -2.75259 -3.70176 0
M  V30 10910 H 983.072 -2.64386 -3.43922 0
M  V30 10911 H 983.743 -2.27292 -5.03033 0
M  V30 10912 H 986.219 -0.573986 -4.12122 0
M  V30 10913 H 985.095 -0.314816 -5.47996 0
M  V30 10914 H 985.356 0.971758 -4.31288 0
M  V30 10915 N 984.415 1.45619 -0.602734 0
M  V30 10916 C 985.663 2.01873 -0.095844 0
M  V30 10917 C 985.984 1.47427 1.27633 0
M  V30 10918 O 985.254 0.666652 1.84208 0
M  V30 10919 H 983.834 0.746295 -0.0324408 0
M  V30 10920 H 986.496 1.78478 -0.783037 0
M  V30 10921 H 985.592 3.12072 -0.0419507 0
M  V30 10922 N 985.893 0.34162 1.53853 0
M  V30 10923 C 987.139 -0.255862 2.01179 0
M  V30 10924 C 987.472 -1.50356 1.22909 0
M  V30 10925 O 986.747 -1.91913 0.316198 0
M  V30 10926 C 987.03 -0.571934 3.55529 0
M  V30 10927 C 986.883 0.687727 4.44511 0
M  V30 10928 C 988.202 -1.38233 4.17827 0
M  V30 10929 H 985.321 -0.091521 0.731295 0
M  V30 10930 H 987.963 0.461775 1.84303 0
M  V30 10931 H 986.113 -1.18331 3.70041 0
M  V30 10932 H 987.785 1.32572 4.4184 0
M  V30 10933 H 986.028 1.313 4.13452 0
M  V30 10934 H 986.699 0.421858 5.50386 0
M  V30 10935 H 989.175 -0.865374 4.07002 0
M  V30 10936 H 988.051 -1.57223 5.25901 0
M  V30 10937 H 988.312 -2.38386 3.72323 0
M  V30 10938 N 987.371 -1.57444 0.0701946 0
M  V30 10939 C 988.617 -1.94528 -0.594177 0
M  V30 10940 C 988.972 -0.949898 -1.67316 0
M  V30 10941 O 988.265 0.0280668 -1.91579 0
M  V30 10942 C 988.459 -3.36044 -1.21694 0
M  V30 10943 C 988.288 -4.49256 -0.199806 0
M  V30 10944 C 987.058 -5.04843 0.214963 0
M  V30 10945 C 989.256 -5.11217 0.562312 0
M  V30 10946 N 987.238 -6.01595 1.22297 0
M  V30 10947 C 988.609 -6.03453 1.42284 0
M  V30 10948 C 990.664 -4.94043 0.618555 0
M  V30 10949 C 989.367 -6.80359 2.33461 0
M  V30 10950 C 991.393 -5.71591 1.51783 0
M  V30 10951 C 990.755 -6.63474 2.36604 0
M  V30 10952 H 986.854 -0.758941 -0.1885 0
M  V30 10953 H 989.438 -1.94145 0.146965 0
M  V30 10954 H 987.609 -3.37168 -1.92801 0
M  V30 10955 H 989.341 -3.60368 -1.84165 0
M  V30 10956 H 986.096 -4.73303 -0.167835 0
M  V30 10957 H 986.52 -6.5467 1.72443 0
M  V30 10958 H 991.162 -4.22794 -0.0230235 0
M  V30 10959 H 988.88 -7.50886 2.98656 0
M  V30 10960 H 992.466 -5.60324 1.56616 0
M  V30 10961 H 991.346 -7.22432 3.0506 0
M  V30 10962 N 988.849 0.203349 -1.56283 0
M  V30 10963 C 990.126 0.950415 -1.70958 0
M  V30 10964 C 990.506 2.01708 -0.622647 0
M  V30 10965 O 989.854 2.25523 0.367635 0
M  V30 10966 C 990.064 1.54434 -3.12971 0
M  V30 10967 C 991.412 2.02964 -3.72949 0
M  V30 10968 O 992.436 1.64293 -3.16048 0
M  V30 10969 O 991.295 2.74097 -4.72793 0
M  V30 10970 H 988.389 0.445154 -0.69697 0
M  V30 10971 H 990.935 0.193695 -1.68591 0
M  V30 10972 H 989.707 0.77505 -3.83547 0
M  V30 10973 H 989.33 2.36611 -3.19532 0
M  V30 10974 N 990.327 1.50405 0.470755 0
M  V30 10975 C 991.576 1.60652 1.21959 0
M  V30 10976 C 991.889 0.312521 1.93087 0
M  V30 10977 O 993.095 0.293901 2.69905 0
M  V30 10978 C 991.551 2.83581 2.21607 0
M  V30 10979 C 991.159 4.19858 1.5628 0
M  V30 10980 C 992.903 3.03173 2.9713 0
M  V30 10981 C 990.81 5.33974 2.54217 0
M  V30 10982 H 989.74 0.598264 0.458907 0
M  V30 10983 H 992.391 1.76836 0.490041 0
M  V30 10984 H 990.773 2.60957 2.97855 0
M  V30 10985 H 991.947 4.52738 0.85819 0
M  V30 10986 H 990.262 4.05873 0.930366 0
M  V30 10987 H 992.859 3.856 3.70428 0
M  V30 10988 H 993.202 2.14914 3.56536 0
M  V30 10989 H 993.735 3.2598 2.27995 0
M  V30 10990 H 990.474 6.24388 1.99549 0
M  V30 10991 H 989.994 5.05511 3.22829 0
M  V30 10992 H 991.673 5.64561 3.16039 0
M  V30 10993 N 991.805 -0.723954 1.39988 0
M  V30 10994 C 992.755 -1.82943 1.36073 0
M  V30 10995 C 993.739 -1.59105 0.239682 0
M  V30 10996 O 994.931 -1.7042 0.478116 0
M  V30 10997 C 992.06 -3.20988 1.21745 0
M  V30 10998 C 991.146 -3.50618 2.38596 0
M  V30 10999 N 991.537 -3.51115 3.64077 0
M  V30 11000 C 989.835 -3.81035 2.31794 0
M  V30 11001 C 990.536 -3.78852 4.41413 0
M  V30 11002 N 989.512 -3.97182 3.71143 0
M  V30 11003 H 993.314 -1.81649 2.31043 0
M  V30 11004 H 990.828 -0.922703 1.33641 0
M  V30 11005 H 992.825 -4.00139 1.17022 0
M  V30 11006 H 991.485 -3.23513 0.277344 0
M  V30 11007 H 992.496 -3.32163 3.97351 0
M  V30 11008 H 989.173 -3.911 1.46105 0
M  V30 11009 H 990.563 -3.85612 5.5023 0
M  V30 11010 N 993.283 -1.25346 -0.955304 0
M  V30 11011 C 994.508 -1.12892 -1.73983 0
M  V30 11012 C 994.933 0.313455 -1.8547 0
M  V30 11013 O 994.291 1.22706 -1.33465 0
M  V30 11014 C 994.339 -1.78729 -3.1319 0
M  V30 11015 O 993.443 -1.06648 -3.98372 0
M  V30 11016 H 992.784 -0.394178 -0.534341 0
M  V30 11017 H 995.314 -1.65897 -1.19747 0
M  V30 11018 H 995.324 -1.84987 -3.63653 0
M  V30 11019 H 993.999 -2.83669 -3.04146 0
M  V30 11020 H 992.576 -1.08266 -3.56837 0
M  V30 11021 N 994.761 1.15782 -1.06922 0
M  V30 11022 C 996.172 1.68062 -0.813144 0
M  V30 11023 C 996.523 1.84681 0.662374 0
M  V30 11024 O 995.648 1.54696 1.51321 0
M  V30 11025 C 996.243 3.05273 -1.46949 0
M  V30 11026 C 994.802 3.54647 -1.26104 0
M  V30 11027 C 993.949 2.30477 -1.54194 0
M  V30 11028 H 996.9 1.00056 -1.23185 0
M  V30 11029 H 996.921 3.69986 -0.888308 0
M  V30 11030 H 996.433 2.93145 -2.54337 0
M  V30 11031 H 994.534 3.72024 -0.20718 0
M  V30 11032 H 994.647 4.36354 -1.97819 0
M  V30 11033 H 993.011 2.35803 -0.96276 0
M  V30 11034 H 993.794 2.2094 -2.62755 0
M  V30 11035 N 996.239 0.8527 1.3254 0
M  V30 11036 C 997.202 0.300959 2.27215 0
M  V30 11037 C 998.202 -0.538235 1.51525 0
M  V30 11038 O 999.392 -0.350027 1.70647 0
M  V30 11039 C 996.524 -0.574428 3.36025 0
M  V30 11040 H 997.717 1.13655 2.77529 0
M  V30 11041 H 995.27 0.626878 1.43178 0
M  V30 11042 H 996.005 -1.43191 2.90976 0
M  V30 11043 H 995.79 0.0262265 3.92091 0
M  V30 11044 H 997.28 -0.9533 4.06573 0
M  V30 11045 N 997.718 -1.45297 0.610449 0
M  V30 11046 C 998.964 -2.02518 0.106917 0
M  V30 11047 C 999.297 -1.47747 -1.26034 0
M  V30 11048 O 998.572 -0.65329 -1.832 0
M  V30 11049 C 998.855 -3.6003 0.0710975 0
M  V30 11050 C 998.708 -4.25128 1.46922 0
M  V30 11051 C 1000.03 -4.35778 -0.61524 0
M  V30 11052 H 997.146 -0.735896 0.040327 0
M  V30 11053 H 999.788 -1.73117 0.782968 0
M  V30 11054 H 997.938 -3.85209 -0.504611 0
M  V30 11055 H 999.61 -4.11125 2.09223 0
M  V30 11056 H 997.853 -3.83418 2.02911 0
M  V30 11057 H 998.524 -5.34046 1.39637 0
M  V30 11058 H 1001 -4.1591 -0.125871 0
M  V30 11059 H 999.876 -5.45506 -0.609419 0
M  V30 11060 H 1000.14 -4.08859 -1.68186 0
M  V30 11061 N 999.196 -0.349774 -1.5367 0
M  V30 11062 C 1000.61 0.132815 -1.86227 0
M  V30 11063 C 1000.96 1.49479 -1.27084 0
M  V30 11064 O 1000.08 2.08292 -0.58679 0
M  V30 11065 C 1000.68 0.247775 -3.37893 0
M  V30 11066 C 999.237 0.674603 -3.70305 0
M  V30 11067 C 998.384 -0.187869 -2.76663 0
M  V30 11068 H 1001.33 -0.569148 -1.48143 0
M  V30 11069 H 1001.36 1.07418 -3.65023 0
M  V30 11070 H 1000.87 -0.743635 -3.80909 0
M  V30 11071 H 998.969 1.67481 -3.32837 0
M  V30 11072 H 999.082 0.460177 -4.76885 0
M  V30 11073 H 997.446 0.340779 -2.5241 0
M  V30 11074 H 998.229 -1.17653 -3.2251 0
M  V30 11075 N 1000.67 1.57404 -0.0785433 0
M  V30 11076 C 1001.9 1.98492 0.601292 0
M  V30 11077 C 1002.32 0.956832 1.61945 0
M  V30 11078 O 1001.68 -0.0767502 1.81137 0
M  V30 11079 C 1001.73 3.38596 1.24036 0
M  V30 11080 O 1000.83 3.38461 2.35622 0
M  V30 11081 H 1000.17 0.645882 0.154054 0
M  V30 11082 H 1002.7 2.04012 -0.155056 0
M  V30 11083 H 1002.71 3.75929 1.5856 0
M  V30 11084 H 1001.39 4.12952 0.494341 0
M  V30 11085 H 999.967 3.12906 2.02841 0
M  V30 11086 N 1002.15 -0.195058 1.56388 0
M  V30 11087 C 1003.4 -0.913626 1.79821 0
M  V30 11088 C 1003.71 -1.84422 0.651767 0
M  V30 11089 O 1004.92 -2.6034 0.770402 0
M  V30 11090 C 1003.38 -1.67497 3.18548 0
M  V30 11091 C 1002.98 -0.789205 4.40994 0
M  V30 11092 C 1004.73 -2.38318 3.5129 0
M  V30 11093 C 1002.63 -1.54942 5.70742 0
M  V30 11094 H 1001.56 -0.344891 0.670497 0
M  V30 11095 H 1004.22 -0.166912 1.82739 0
M  V30 11096 H 1002.6 -2.46557 3.0988 0
M  V30 11097 H 1003.77 -0.0372595 4.60785 0
M  V30 11098 H 1002.09 -0.191834 4.15958 0
M  V30 11099 H 1004.68 -2.95745 4.45465 0
M  V30 11100 H 1005.03 -3.12507 2.75037 0
M  V30 11101 H 1005.56 -1.66224 3.61406 0
M  V30 11102 H 1002.3 -0.85031 6.49962 0
M  V30 11103 H 1001.82 -2.2753 5.54969 0
M  V30 11104 H 1003.5 -2.1032 6.11861 0
M  V30 11105 N 1003.63 -1.50653 -0.462772 0
M  V30 11106 C 1004.58 -1.70661 -1.58043 0
M  V30 11107 C 1005.57 -0.572533 -1.59432 0
M  V30 11108 O 1006.78 -0.753257 -1.63481 0
M  V30 11109 H 1003.15 -0.538805 -0.524588 0
M  V30 11110 H 1005.12 -2.64399 -1.38332 0
M  V30 11111 C 1003.87 -1.82558 -2.95919 0
M  V30 11112 H 1003.2 -2.69216 -2.95572 0
M  V30 11113 H 1004.64 -2.0058 -3.73556 0
M  V30 11114 C 1003.09 -0.57916 -3.31885 0
M  V30 11115 O 1003.62 0.277888 -4.00738 0
M  V30 11116 N 1001.83 -0.430723 -2.8739 0
M  V30 11117 H 1001.38 -1.1292 -2.31531 0
M  V30 11118 H 1001.34 0.402061 -3.11819 0
M  V30 11119 N 1005.11 0.71652 -1.4037 0
M  V30 11120 C 1006.02 1.86074 -1.42876 0
M  V30 11121 C 1007.03 1.71005 -0.321475 0
M  V30 11122 O 1008.21 1.93286 -0.565909 0
M  V30 11123 C 1005.28 3.21862 -1.28863 0
M  V30 11124 C 1004.34 3.49193 -2.49726 0
M  V30 11125 C 1003.57 4.78502 -2.36372 0
M  V30 11126 O 1003.79 5.53529 -1.37703 0
M  V30 11127 O 1002.73 5.06147 -3.25728 0
M  V30 11128 H 1006.55 1.86916 -2.39366 0
M  V30 11129 H 1004.14 0.866818 -1.21683 0
M  V30 11130 H 1006.02 4.02972 -1.23253 0
M  V30 11131 H 1004.69 3.2175 -0.354783 0
M  V30 11132 H 1003.6 2.68095 -2.60913 0
M  V30 11133 H 1004.93 3.54101 -3.41868 0
M  V30 11134 N 1006.59 1.25851 0.948643 0
M  V30 11135 C 1007.52 1.0108 2.04593 0
M  V30 11136 C 1008.5 -0.0619691 1.62482 0
M  V30 11137 O 1009.68 0.0789196 1.88335 0
M  V30 11138 C 1006.81 0.529174 3.34541 0
M  V30 11139 C 1005.85 1.59337 3.95618 0
M  V30 11140 S 1006.69 3.18026 4.30836 0
M  V30 11141 C 1007.84 2.71613 5.63895 0
M  V30 11142 H 1008.08 1.93988 2.2529 0
M  V30 11143 H 1005.61 1.09448 1.08906 0
M  V30 11144 H 1007.57 0.25795 4.09689 0
M  V30 11145 H 1006.23 -0.37951 3.11799 0
M  V30 11146 H 1005.42 1.20722 4.89328 0
M  V30 11147 H 1005.02 1.81559 3.26975 0
M  V30 11148 H 1007.32 2.15612 6.42275 0
M  V30 11149 H 1008.26 3.63986 6.07387 0
M  V30 11150 H 1008.67 2.11417 5.23415 0
M  V30 11151 N 1008.06 -1.15214 1.07534 0
M  V30 11152 C 1009.48 -1.38031 0.801228 0
M  V30 11153 C 1009.68 -1.92556 -0.593672 0
M  V30 11154 O 1008.74 -2.1325 -1.35206 0
M  V30 11155 C 1010.05 -2.34958 1.87657 0
M  V30 11156 C 1011.6 -2.48617 1.90154 0
M  V30 11157 C 1012.07 -3.48837 2.96777 0
M  V30 11158 N 1013.56 -3.56374 2.95892 0
M  V30 11159 C 1014.3 -4.33746 3.75036 0
M  V30 11160 N 1013.79 -5.14435 4.64036 0
M  V30 11161 N 1015.59 -4.28853 3.63375 0
M  V30 11162 H 1007.74 -0.781639 1.97495 0
M  V30 11163 H 1010 -0.406243 0.856546 0
M  V30 11164 H 1009.71 -2.02013 2.87895 0
M  V30 11165 H 1009.58 -3.3476 1.73827 0
M  V30 11166 H 1011.97 -2.80859 0.905666 0
M  V30 11167 H 1012.05 -1.48808 2.08062 0
M  V30 11168 H 1011.69 -3.1733 3.96565 0
M  V30 11169 H 1011.62 -4.48406 2.76116 0
M  V30 11170 H 1014.11 -2.98784 2.31379 0
M  V30 11171 H 1014.43 -5.70722 5.21053 0
M  V30 11172 H 1012.77 -5.13734 4.68084 0
M  V30 11173 H 1015.96 -3.64882 2.93221 0
M  V30 11174 H 1016.14 -4.88903 4.25298 0
M  V30 11175 N 1009.54 -0.859717 -1.32086 0
M  V30 11176 C 1010.45 -0.31108 -2.32528 0
M  V30 11177 C 1011.47 0.573714 -1.6427 0
M  V30 11178 O 1012.64 0.472878 -1.9577 0
M  V30 11179 C 1009.71 0.487256 -3.43259 0
M  V30 11180 C 1008.77 -0.424279 -4.27198 0
M  V30 11181 C 1008 0.336051 -5.32641 0
M  V30 11182 O 1008.23 1.56541 -5.48499 0
M  V30 11183 O 1007.16 -0.300777 -6.01148 0
M  V30 11184 H 1010.99 -1.14336 -2.81355 0
M  V30 11185 H 1008.57 -0.622794 -1.358 0
M  V30 11186 H 1010.45 0.940203 -4.10777 0
M  V30 11187 H 1009.13 1.29626 -2.96612 0
M  V30 11188 H 1008.04 -0.925509 -3.62471 0
M  V30 11189 H 1009.37 -1.1986 -4.77383 0
M  V30 11190 N 1011.02 1.44971 -0.618145 0
M  V30 11191 C 1012.27 2.01372 -0.115004 0
M  V30 11192 C 1012.58 1.49104 1.26599 0
M  V30 11193 O 1013.79 1.97549 1.86244 0
M  V30 11194 C 1012.24 3.59567 -0.154883 0
M  V30 11195 C 1011.85 4.20832 -1.53639 0
M  V30 11196 C 1013.6 4.23491 0.292468 0
M  V30 11197 C 1011.5 5.7121 -1.53208 0
M  V30 11198 H 1010.43 0.752979 -0.0392267 0
M  V30 11199 H 1013.08 1.66329 -0.775032 0
M  V30 11200 H 1011.47 3.91847 0.572001 0
M  V30 11201 H 1012.64 4.00109 -2.28582 0
M  V30 11202 H 1010.96 3.69143 -1.92672 0
M  V30 11203 H 1013.55 5.33771 0.315032 0
M  V30 11204 H 1013.9 3.9491 1.31725 0
M  V30 11205 H 1014.43 3.95967 -0.381493 0
M  V30 11206 H 1011.17 6.04506 -2.53481 0
M  V30 11207 H 1010.69 5.94094 -0.825387 0
M  V30 11208 H 1012.37 6.34606 -1.26032 0
M  V30 11209 N 1012.5 0.357919 1.53482 0
M  V30 11210 C 1013.74 -0.23451 2.0144 0
M  V30 11211 C 1014.08 -1.49044 1.24497 0
M  V30 11212 O 1013.35 -1.91566 0.336535 0
M  V30 11213 C 1013.64 -0.534193 3.56116 0
M  V30 11214 C 1013.49 0.734834 4.43757 0
M  V30 11215 C 1014.81 -1.33793 4.1927 0
M  V30 11216 H 1011.93 -0.0837595 0.732225 0
M  V30 11217 H 1014.57 0.481297 1.83803 0
M  V30 11218 H 1012.72 -1.144 3.71275 0
M  V30 11219 H 1014.39 1.37251 4.40409 0
M  V30 11220 H 1012.63 1.35678 4.12036 0
M  V30 11221 H 1013.3 0.48021 5.49907 0
M  V30 11222 H 1015.78 -0.822158 4.07897 0
M  V30 11223 H 1014.66 -1.51636 5.27539 0
M  V30 11224 H 1014.92 -2.34423 3.74831 0
M  V30 11225 N 1013.98 -1.5736 0.0868897 0
M  V30 11226 C 1014.89 -2.17087 -0.889402 0
M  V30 11227 C 1015.9 -1.13809 -1.31619 0
M  V30 11228 O 1017.08 -1.46143 -1.38579 0
M  V30 11229 C 1014.14 -2.73286 -2.13344 0
M  V30 11230 C 1013.2 -3.91491 -1.76164 0
M  V30 11231 C 1012.44 -4.45 -2.94637 0
M  V30 11232 O 1012.66 -3.97467 -4.09116 0
M  V30 11233 O 1011.59 -5.36133 -2.73579 0
M  V30 11234 H 1015.42 -3.00902 -0.411275 0
M  V30 11235 H 1013.01 -1.4877 -0.137015 0
M  V30 11236 H 1014.89 -3.0924 -2.86266 0
M  V30 11237 H 1013.56 -1.92521 -2.60225 0
M  V30 11238 H 1012.47 -3.60363 -1.00447 0
M  V30 11239 H 1013.8 -4.73593 -1.34053 0
M  V30 11240 N 1015.45 0.186762 -1.56489 0
M  V30 11241 C 1016.87 0.537933 -1.50261 0
M  V30 11242 C 1017.07 1.85435 -0.788414 0
M  V30 11243 O 1016.13 2.50168 -0.342377 0
M  V30 11244 C 1017.44 0.584965 -2.94955 0
M  V30 11245 C 1018.99 0.673228 -3.05674 0
M  V30 11246 C 1019.46 0.751294 -4.51796 0
M  V30 11247 N 1020.95 0.814599 -4.55981 0
M  V30 11248 C 1021.69 0.895313 -5.66367 0
M  V30 11249 N 1021.18 0.937814 -6.86423 0
M  V30 11250 N 1022.98 0.933145 -5.543 0
M  V30 11251 H 1015.13 -0.676636 -2.01334 0
M  V30 11252 H 1017.39 -0.242079 -0.916571 0
M  V30 11253 H 1017.1 -0.313361 -3.50301 0
M  V30 11254 H 1016.97 1.4368 -3.48763 0
M  V30 11255 H 1019.36 1.56198 -2.50372 0
M  V30 11256 H 1019.44 -0.204976 -2.54977 0
M  V30 11257 H 1019.08 -0.133143 -5.07725 0
M  V30 11258 H 1019.01 1.64542 -5.00233 0
M  V30 11259 H 1021.5 0.790662 -3.69536 0
M  V30 11260 H 1021.82 1.00015 -7.66301 0
M  V30 11261 H 1020.16 0.906351 -6.89065 0
M  V30 11262 H 1023.35 0.896836 -4.59428 0
M  V30 11263 H 1023.53 0.992588 -6.40353 0
M  V30 11264 N 1016.93 1.50896 0.454776 0
M  V30 11265 C 1018.18 1.6294 1.20741 0
M  V30 11266 C 1018.51 0.336339 1.91265 0
M  V30 11267 O 1017.79 -0.663153 1.82846 0
M  V30 11268 C 1018.07 2.82092 2.23822 0
M  V30 11269 C 1017.92 4.21326 1.57495 0
M  V30 11270 C 1019.24 2.96777 3.24979 0
M  V30 11271 H 1016.36 0.59302 0.437603 0
M  V30 11272 H 1019 1.83331 0.498959 0
M  V30 11273 H 1017.15 2.64837 2.84243 0
M  V30 11274 H 1018.82 4.50209 1.00546 0
M  V30 11275 H 1017.07 4.24829 0.877664 0
M  V30 11276 H 1017.74 5.00656 2.32482 0
M  V30 11277 H 1020.21 3.12627 2.74597 0
M  V30 11278 H 1019.09 3.81742 3.94416 0
M  V30 11279 H 1019.35 2.08091 3.90065 0
M  V30 11280 N 1018.41 -0.709066 1.40748 0
M  V30 11281 C 1019.34 -1.83583 1.4429 0
M  V30 11282 C 1020.32 -1.67378 0.303067 0
M  V30 11283 O 1021.51 -1.87312 0.512612 0
M  V30 11284 C 1018.64 -3.21599 1.31116 0
M  V30 11285 C 1017.59 -3.52486 2.4277 0
M  V30 11286 C 1016.92 -4.89716 2.14668 0
M  V30 11287 C 1018.22 -3.52824 3.85113 0
M  V30 11288 H 1019.91 -1.80876 2.38588 0
M  V30 11289 H 1017.46 -0.868795 1.14839 0
M  V30 11290 H 1019.41 -4.00123 1.32209 0
M  V30 11291 H 1018.13 -3.24898 0.332965 0
M  V30 11292 H 1016.79 -2.76305 2.40937 0
M  V30 11293 H 1016.44 -4.89625 1.15224 0
M  V30 11294 H 1016.14 -5.11347 2.89478 0
M  V30 11295 H 1017.66 -5.70566 2.17455 0
M  V30 11296 H 1019.08 -4.21377 3.88734 0
M  V30 11297 H 1017.48 -3.85984 4.59496 0
M  V30 11298 H 1018.55 -2.52073 4.14231 0
M  V30 11299 N 1019.89 -1.26353 -0.941956 0
M  V30 11300 C 1021.31 -1.03448 -1.21534 0
M  V30 11301 C 1021.51 0.240855 -2.00055 0
M  V30 11302 O 1020.56 0.950199 -2.33939 0
M  V30 11303 C 1021.87 -2.2654 -1.97737 0
M  V30 11304 C 1023.42 -2.31433 -2.10731 0
M  V30 11305 C 1023.9 -3.54216 -2.90336 0
M  V30 11306 N 1025.39 -3.54688 -2.9791 0
M  V30 11307 C 1026.12 -4.4636 -3.59931 0
M  V30 11308 N 1025.62 -5.48319 -4.2346 0
M  V30 11309 N 1027.41 -4.34013 -3.57196 0
M  V30 11310 H 1019.56 -2.08266 -0.417005 0
M  V30 11311 H 1021.83 -0.915251 -0.247021 0
M  V30 11312 H 1021.53 -3.19299 -1.47449 0
M  V30 11313 H 1021.41 -2.30726 -2.98405 0
M  V30 11314 H 1023.79 -1.3919 -2.60212 0
M  V30 11315 H 1023.87 -2.31259 -1.09329 0
M  V30 11316 H 1023.52 -4.46788 -2.41543 0
M  V30 11317 H 1023.45 -3.51637 -3.91993 0
M  V30 11318 H 1025.94 -2.80942 -2.52745 0
M  V30 11319 H 1026.25 -6.14458 -4.6868 0
M  V30 11320 H 1024.6 -5.52177 -4.22049 0
M  V30 11321 H 1027.79 -3.53578 -3.06758 0
M  V30 11322 H 1027.96 -5.0565 -4.05244 0
M  V30 11323 N 1021.37 1.14642 -1.08144 0
M  V30 11324 C 1022.61 1.85892 -0.810683 0
M  V30 11325 C 1022.95 1.82575 0.661821 0
M  V30 11326 O 1022.22 1.25454 1.48632 0
M  V30 11327 C 1022.5 3.34647 -1.32979 0
M  V30 11328 C 1022.36 3.46551 -2.86744 0
M  V30 11329 C 1023.68 4.29661 -0.952864 0
M  V30 11330 H 1020.8 0.674963 -0.295963 0
M  V30 11331 H 1023.44 1.3464 -1.3406 0
M  V30 11332 H 1021.59 3.78425 -0.87903 0
M  V30 11333 H 1023.26 3.11579 -3.40171 0
M  V30 11334 H 1021.5 2.87849 -3.24539 0
M  V30 11335 H 1022.17 4.51101 -3.18138 0
M  V30 11336 H 1024.65 3.93885 -1.34141 0
M  V30 11337 H 1023.53 5.32209 -1.34331 0
M  V30 11338 H 1023.79 4.41877 0.140392 0
M  V30 11339 N 1022.85 0.866709 1.31628 0
M  V30 11340 C 1023.78 0.335762 2.31073 0
M  V30 11341 C 1024.76 -0.571597 1.60209 0
M  V30 11342 O 1025.94 -0.489306 1.87935 0
M  V30 11343 C 1023.07 -0.466416 3.44154 0
M  V30 11344 C 1022.03 0.347561 4.26586 0
M  V30 11345 C 1021.35 -0.5801 5.31544 0
M  V30 11346 C 1022.65 1.57986 4.97833 0
M  V30 11347 H 1024.35 1.16673 2.75731 0
M  V30 11348 H 1021.89 0.56248 1.3256 0
M  V30 11349 H 1023.84 -0.84836 4.12772 0
M  V30 11350 H 1022.57 -1.33086 2.98254 0
M  V30 11351 H 1021.23 0.71141 3.59631 0
M  V30 11352 H 1020.88 -1.44174 4.81895 0
M  V30 11353 H 1020.58 -0.0393965 5.87587 0
M  V30 11354 H 1022.1 -0.958958 6.03023 0
M  V30 11355 H 1023.51 1.26954 5.59067 0
M  V30 11356 H 1021.91 2.05939 5.63657 0
M  V30 11357 H 1022.98 2.3345 4.25005 0
M  V30 11358 N 1024.32 -1.44642 0.625825 0
M  V30 11359 C 1025.73 -1.85502 0.211175 0
M  V30 11360 C 1026.09 -1.52356 -1.2362 0
M  V30 11361 O 1025.21 -0.959051 -1.93988 0
M  V30 11362 C 1025.81 -3.36702 0.37648 0
M  V30 11363 C 1024.36 -3.76396 0.0163795 0
M  V30 11364 C 1023.51 -2.68517 0.692368 0
M  V30 11365 H 1026.46 -1.35183 0.831333 0
M  V30 11366 H 1026.48 -3.78536 -0.386106 0
M  V30 11367 H 1026 -3.60795 1.42999 0
M  V30 11368 H 1024.1 -3.57919 -1.0356 0
M  V30 11369 H 1024.21 -4.77231 0.422742 0
M  V30 11370 H 1022.57 -2.54377 0.128191 0
M  V30 11371 H 1023.36 -2.95444 1.74837 0
M  V30 11372 N 1025.8 -0.366053 -1.5329 0
M  V30 11373 C 1026.75 0.480205 -2.25749 0
M  V30 11374 C 1027.72 1.07713 -1.2644 0
M  V30 11375 O 1028.9 1.10953 -1.55222 0
M  V30 11376 C 1026.04 1.61374 -3.05045 0
M  V30 11377 C 1025.16 1.04194 -4.19246 0
M  V30 11378 C 1024.29 2.14462 -4.85983 0
M  V30 11379 C 1023.33 1.5475 -5.92215 0
M  V30 11380 N 1022.47 2.58852 -6.52641 0
M  V30 11381 H 1027.31 -0.144199 -2.97651 0
M  V30 11382 H 1024.84 -0.0829321 -1.46866 0
M  V30 11383 H 1026.8 2.28144 -3.49294 0
M  V30 11384 H 1025.43 2.2088 -2.35397 0
M  V30 11385 H 1024.48 0.264514 -3.79479 0
M  V30 11386 H 1025.8 0.565379 -4.95585 0
M  V30 11387 H 1024.95 2.89051 -5.33418 0
M  V30 11388 H 1023.69 2.6547 -4.09117 0
M  V30 11389 H 1022.69 0.786759 -5.44142 0
M  V30 11390 H 1023.92 1.04566 -6.71001 0
M  V30 11391 H 1021.87 3.09073 -5.78627 0
M  V30 11392 H 1021.78 2.15884 -7.24521 0
M  V30 11393 H 1023.05 3.33142 -7.04724 0
M  V30 11394 N 1027.28 1.57312 -0.0952337 0
M  V30 11395 C 1028.19 2.17556 0.877877 0
M  V30 11396 C 1029.21 1.14505 1.31014 0
M  V30 11397 O 1030.38 1.46876 1.37802 0
M  V30 11398 C 1027.45 2.74413 2.11892 0
M  V30 11399 C 1026.51 3.92419 1.74085 0
M  V30 11400 C 1025.74 4.46556 2.92273 0
M  V30 11401 O 1025.96 3.99631 4.07002 0
M  V30 11402 O 1024.9 5.37576 2.70732 0
M  V30 11403 H 1028.72 3.01116 0.395312 0
M  V30 11404 H 1026.31 1.48841 0.129123 0
M  V30 11405 H 1028.19 3.10754 2.84622 0
M  V30 11406 H 1026.87 1.93899 2.59201 0
M  V30 11407 H 1025.77 3.6089 0.985346 0
M  V30 11408 H 1027.11 4.74298 1.31539 0
M  V30 11409 N 1028.76 -0.17846 1.56586 0
M  V30 11410 C 1029.69 -1.22342 1.98884 0
M  V30 11411 C 1030.67 -1.46564 0.86331 0
M  V30 11412 O 1031.85 -1.58019 1.12887 0
M  V30 11413 C 1028.98 -2.56396 2.34261 0
M  V30 11414 C 1027.94 -2.46756 3.49708 0
M  V30 11415 C 1027.26 -3.85235 3.70807 0
M  V30 11416 C 1028.56 -1.97838 4.83381 0
M  V30 11417 H 1030.26 -0.871848 2.86425 0
M  V30 11418 H 1027.8 -0.417948 1.37801 0
M  V30 11419 H 1029.76 -3.29695 2.62448 0
M  V30 11420 H 1028.48 -2.93327 1.43621 0
M  V30 11421 H 1027.14 -1.75912 3.21637 0
M  V30 11422 H 1026.79 -4.19547 2.7747 0
M  V30 11423 H 1026.49 -3.79655 4.48481 0
M  V30 11424 H 1028.01 -4.60131 4.01387 0
M  V30 11425 H 1029.43 -2.60906 5.10491 0
M  V30 11426 H 1027.82 -2.03223 5.64642 0
M  V30 11427 H 1028.89 -0.932339 4.75852 0
M  V30 11428 N 1030.24 -1.51135 -0.446768 0
M  V30 11429 C 1031.48 -1.62571 -1.19388 0
M  V30 11430 C 1031.8 -0.3432 -1.92566 0
M  V30 11431 O 1033 -0.336804 -2.69403 0
M  V30 11432 C 1031.46 -2.87071 -2.17068 0
M  V30 11433 C 1031.07 -4.22291 -1.49581 0
M  V30 11434 C 1032.81 -3.07862 -2.9227 0
M  V30 11435 C 1030.72 -5.3795 -2.45689 0
M  V30 11436 H 1029.65 -0.60549 -0.449331 0
M  V30 11437 H 1032.3 -1.77593 -0.461846 0
M  V30 11438 H 1030.68 -2.65662 -2.93666 0
M  V30 11439 H 1031.86 -4.54046 -0.786054 0
M  V30 11440 H 1030.17 -4.07302 -0.865677 0
M  V30 11441 H 1032.77 -3.91444 -3.64246 0
M  V30 11442 H 1033.11 -2.20559 -3.53072 0
M  V30 11443 H 1033.64 -3.29566 -2.2278 0
M  V30 11444 H 1030.38 -6.27484 -1.89591 0
M  V30 11445 H 1029.9 -5.10583 -3.14746 0
M  V30 11446 H 1031.58 -5.69517 -3.07017 0
M  V30 11447 N 1031.71 0.701592 -1.41122 0
M  V30 11448 C 1032.96 1.46245 -1.41364 0
M  V30 11449 C 1033.31 1.9239 -0.0200662 0
M  V30 11450 O 1032.61 1.6622 0.952971 0
M  V30 11451 C 1032.8 2.693 -2.34973 0
M  V30 11452 C 1032.63 2.35193 -3.83294 0
M  V30 11453 C 1031.4 2.2585 -4.52018 0
M  V30 11454 C 1033.6 1.98555 -4.74426 0
M  V30 11455 N 1031.58 1.84565 -5.85499 0
M  V30 11456 C 1032.95 1.67981 -5.9681 0
M  V30 11457 C 1035.01 1.85313 -4.62129 0
M  V30 11458 C 1033.71 1.25496 -7.08268 0
M  V30 11459 C 1035.74 1.44232 -5.73543 0
M  V30 11460 C 1035.1 1.14564 -6.95021 0
M  V30 11461 H 1031.2 0.532679 -0.572518 0
M  V30 11462 H 1033.78 0.812296 -1.76946 0
M  V30 11463 H 1031.95 3.32045 -2.01496 0
M  V30 11464 H 1033.68 3.35734 -2.25976 0
M  V30 11465 H 1030.44 2.4405 -4.05878 0
M  V30 11466 H 1030.86 1.66421 -6.56226 0
M  V30 11467 H 1035.5 2.06905 -3.68714 0
M  V30 11468 H 1033.22 1.02647 -8.01554 0
M  V30 11469 H 1036.81 1.34544 -5.66029 0
M  V30 11470 H 1035.69 0.832556 -7.79768 0
M  V30 11471 N 1033.19 1.2685 0.935242 0
M  V30 11472 C 1034.44 1.12132 1.67658 0
M  V30 11473 C 1034.75 -0.333839 1.9273 0
M  V30 11474 O 1035.96 -0.601801 2.64746 0
M  V30 11475 C 1034.42 1.95873 3.0193 0
M  V30 11476 C 1034.02 3.46 2.84584 0
M  V30 11477 C 1035.77 1.89781 3.79715 0
M  V30 11478 C 1033.67 4.21966 4.14365 0
M  V30 11479 H 1032.6 0.416035 0.628833 0
M  V30 11480 H 1035.26 1.51209 1.03962 0
M  V30 11481 H 1033.64 1.49633 3.66641 0
M  V30 11482 H 1034.81 4.00049 2.28687 0
M  V30 11483 H 1033.13 3.53391 2.20236 0
M  V30 11484 H 1035.72 2.43819 4.75875 0
M  V30 11485 H 1036.07 0.869797 4.07112 0
M  V30 11486 H 1036.6 2.33875 3.21788 0
M  V30 11487 H 1033.34 5.2526 3.9215 0
M  V30 11488 H 1032.86 3.72696 4.69955 0
M  V30 11489 H 1034.54 4.30734 4.82781 0
M  V30 11490 N 1034.67 -1.14067 1.0875 0
M  V30 11491 C 1035.62 -2.21332 0.715195 0
M  V30 11492 C 1036.61 -1.67059 -0.280679 0
M  V30 11493 O 1037.82 -1.79432 -0.142874 0
M  V30 11494 H 1034.19 -0.721126 0.213264 0
M  V30 11495 H 1036.16 -2.50002 1.62916 0
M  V30 11496 C 1034.91 -3.474 0.144401 0
M  V30 11497 H 1034.24 -3.89495 0.901884 0
M  V30 11498 H 1035.68 -4.23928 -0.0782564 0
M  V30 11499 C 1034.14 -3.17787 -1.11862 0
M  V30 11500 O 1034.67 -3.35906 -2.20295 0
M  V30 11501 N 1032.87 -2.71719 -1.03039 0
M  V30 11502 H 1032.42 -2.57175 -0.14793 0
M  V30 11503 H 1032.38 -2.52281 -1.87621 0
M  V30 11504 N 1036.15 -0.873678 -1.31166 0
M  V30 11505 C 1037.56 -0.53852 -1.78765 0
M  V30 11506 C 1037.91 0.944765 -1.71955 0
M  V30 11507 O 1037.04 1.73781 -1.28954 0
M  V30 11508 C 1037.63 -0.970749 -3.24595 0
M  V30 11509 C 1036.19 -0.687189 -3.70074 0
M  V30 11510 C 1035.34 -1.16001 -2.51871 0
M  V30 11511 H 1038.29 -1.05903 -1.18196 0
M  V30 11512 H 1038.31 -0.294966 -3.79355 0
M  V30 11513 H 1037.82 -2.05034 -3.29519 0
M  V30 11514 H 1035.92 0.380881 -3.70648 0
M  V30 11515 H 1036.03 -1.26682 -4.62048 0
M  V30 11516 H 1034.4 -0.579663 -2.48016 0
M  V30 11517 H 1035.18 -2.2471 -2.59539 0
M  V30 11518 N 1037.63 1.44308 -0.633487 0
M  V30 11519 C 1038.9 1.95476 -0.0697262 0
M  V30 11520 C 1039.28 1.57539 1.40516 0
M  V30 11521 O 1038.63 0.850632 2.12077 0
M  V30 11522 C 1038.84 3.4775 -0.295093 0
M  V30 11523 C 1040.19 4.24177 -0.189542 0
M  V30 11524 O 1041.21 3.55479 -0.226586 0
M  V30 11525 O 1040.07 5.46415 -0.096479 0
M  V30 11526 H 1037.17 0.826734 0.0209582 0
M  V30 11527 H 1039.71 1.54347 -0.705354 0
M  V30 11528 H 1038.48 3.6842 -1.31841 0
M  V30 11529 H 1038.11 3.95832 0.37456 0
M  V30 11530 N 1039.1 0.374177 1.53094 0
M  V30 11531 C 1040.34 -0.21278 2.03289 0
M  V30 11532 C 1040.71 -1.45291 1.25517 0
M  V30 11533 O 1041.91 -2.11605 1.65761 0
M  V30 11534 C 1040.18 -0.48913 3.54037 0
M  V30 11535 S 1041.74 -1.04853 4.26088 0
M  V30 11536 H 1038.56 -0.0612752 0.708355 0
M  V30 11537 H 1041.16 0.519031 1.88484 0
M  V30 11538 H 1039.86 0.420786 4.08237 0
M  V30 11539 H 1039.39 -1.24978 3.7302 0
M  V30 11540 H 1041.41 -2.33213 4.3798 0
M  V30 11541 N 1040.58 -1.57259 0.103575 0
M  V30 11542 C 1041.83 -1.94272 -0.557024 0
M  V30 11543 C 1042.15 -0.986739 -1.68192 0
M  V30 11544 O 1041.42 -0.0402818 -1.95859 0
M  V30 11545 H 1040 -0.717237 -0.208757 0
M  V30 11546 H 1042.66 -1.94167 0.168898 0
M  V30 11547 H 1041.76 -2.96914 -0.961691 0
M  V30 11548 N 1042.06 0.170153 -1.56679 0
M  V30 11549 C 1042.99 1.21285 -1.9953 0
M  V30 11550 C 1043.97 1.46104 -0.871071 0
M  V30 11551 O 1045.16 1.57419 -1.13724 0
M  V30 11552 C 1042.29 2.5515 -2.35618 0
M  V30 11553 C 1041.24 2.44898 -3.51011 0
M  V30 11554 C 1040.57 3.83263 -3.72845 0
M  V30 11555 C 1041.87 1.95271 -4.84424 0
M  V30 11556 H 1043.56 0.856646 -2.86883 0
M  V30 11557 H 1041.11 0.410634 -1.38021 0
M  V30 11558 H 1043.06 3.28299 -2.64193 0
M  V30 11559 H 1041.78 2.92561 -1.45175 0
M  V30 11560 H 1040.44 1.74203 -3.22566 0
M  V30 11561 H 1040.09 4.18069 -2.79691 0
M  V30 11562 H 1039.79 3.77272 -4.50488 0
M  V30 11563 H 1041.31 4.57996 -4.03822 0
M  V30 11564 H 1042.73 2.58195 -5.11867 0
M  V30 11565 H 1041.13 2.00225 -5.65712 0
M  V30 11566 H 1042.2 0.90709 -4.7634 0
M  V30 11567 N 1043.54 1.5137 0.438746 0
M  V30 11568 C 1044.49 1.72582 1.53245 0
M  V30 11569 C 1045.46 0.567488 1.56105 0
M  V30 11570 O 1046.64 0.80176 1.73137 0
M  V30 11571 C 1043.78 1.85551 2.90972 0
M  V30 11572 C 1042.89 3.13094 2.97652 0
M  V30 11573 C 1042.03 3.16666 4.26493 0
M  V30 11574 C 1041.07 4.38529 4.27035 0
M  V30 11575 N 1040.2 4.39659 5.47398 0
M  V30 11576 H 1045.04 2.65941 1.3446 0
M  V30 11577 H 1042.58 1.31801 0.653206 0
M  V30 11578 H 1044.54 1.91053 3.70884 0
M  V30 11579 H 1043.17 0.956025 3.08318 0
M  V30 11580 H 1042.22 3.16909 2.10412 0
M  V30 11581 H 1043.53 4.03009 2.93914 0
M  V30 11582 H 1042.69 3.21075 5.14777 0
M  V30 11583 H 1041.43 2.24637 4.32885 0
M  V30 11584 H 1040.43 4.34297 3.37144 0
M  V30 11585 H 1041.66 5.31821 4.22307 0
M  V30 11586 H 1039.6 3.50499 5.54514 0
M  V30 11587 H 1039.52 5.23382 5.45534 0
M  V30 11588 H 1040.79 4.48259 6.37718 0
M  V30 11589 N 1045.02 -0.694098 1.41492 0
M  V30 11590 C 1046.24 -1.48286 1.44288 0
M  V30 11591 C 1046.66 -1.88737 0.0485783 0
M  V30 11592 O 1046.02 -1.56881 -0.932449 0
M  V30 11593 C 1046.07 -2.74446 2.3529 0
M  V30 11594 O 1045.79 -2.35698 3.69294 0
M  V30 11595 C 1047.29 -3.68175 2.46905 0
M  V30 11596 H 1044.51 -0.45692 0.491391 0
M  V30 11597 H 1047.05 -0.854477 1.85793 0
M  V30 11598 H 1045.21 -3.33518 1.9709 0
M  V30 11599 H 1045.62 -3.17029 4.17843 0
M  V30 11600 H 1047.1 -4.53476 3.14743 0
M  V30 11601 H 1047.57 -4.12763 1.50078 0
M  V30 11602 H 1048.18 -3.15006 2.85747 0
M  V30 11603 N 1046.49 -1.27344 -0.928501 0
M  V30 11604 C 1047.91 -1.04732 -1.2043 0
M  V30 11605 C 1048.11 0.219623 -2.003 0
M  V30 11606 O 1047.17 0.925333 -2.34934 0
M  V30 11607 C 1048.48 -2.28625 -1.95323 0
M  V30 11608 C 1050.03 -2.33655 -2.08265 0
M  V30 11609 C 1050.5 -3.57275 -2.86563 0
M  V30 11610 N 1051.99 -3.57828 -2.94132 0
M  V30 11611 C 1052.73 -4.50152 -3.55177 0
M  V30 11612 N 1052.22 -5.52779 -4.17621 0
M  V30 11613 N 1054.02 -4.37777 -3.52573 0
M  V30 11614 H 1046.17 -2.08697 -0.394892 0
M  V30 11615 H 1048.43 -0.91782 -0.2373 0
M  V30 11616 H 1048.14 -3.20845 -1.44054 0
M  V30 11617 H 1048.01 -2.33878 -2.95941 0
M  V30 11618 H 1050.4 -1.41942 -2.58721 0
M  V30 11619 H 1050.48 -2.32406 -1.0687 0
M  V30 11620 H 1050.12 -4.49325 -2.3679 0
M  V30 11621 H 1050.05 -3.55775 -3.88242 0
M  V30 11622 H 1052.54 -2.83607 -2.49751 0
M  V30 11623 H 1052.86 -6.19394 -4.62137 0
M  V30 11624 H 1051.2 -5.56622 -4.16169 0
M  V30 11625 H 1054.39 -3.56811 -3.02991 0
M  V30 11626 H 1054.57 -5.09919 -3.99858 0
M  V30 11627 N 1047.97 1.13488 -1.09353 0
M  V30 11628 C 1048.92 2.20949 -0.726923 0
M  V30 11629 C 1049.91 1.67205 0.271816 0
M  V30 11630 O 1051.12 1.79505 0.133356 0
M  V30 11631 H 1047.5 0.719985 -0.217086 0
M  V30 11632 H 1049.47 2.49134 -1.6424 0
M  V30 11633 C 1048.22 3.47319 -0.162822 0
M  V30 11634 H 1047.54 3.89011 -0.922527 0
M  V30 11635 H 1048.98 4.23963 0.0557734 0
M  V30 11636 C 1047.44 3.18376 1.10175 0
M  V30 11637 O 1047.97 3.3707 2.18511 0
M  V30 11638 N 1046.17 2.72262 1.01597 0
M  V30 11639 H 1045.72 2.5725 0.134289 0
M  V30 11640 H 1045.68 2.53272 1.86281 0
M  V30 11641 N 1049.45 0.880621 1.30701 0
M  V30 11642 C 1050.7 0.506967 1.96981 0
M  V30 11643 C 1051.05 -0.932694 1.68281 0
M  V30 11644 O 1050.35 -1.64954 0.974709 0
M  V30 11645 C 1050.54 0.713203 3.50212 0
M  V30 11646 C 1050.37 2.17136 3.93805 0
M  V30 11647 C 1049.14 2.81508 4.19621 0
M  V30 11648 C 1051.34 3.14473 4.06954 0
M  V30 11649 N 1049.32 4.17965 4.49643 0
M  V30 11650 C 1050.69 4.3599 4.40809 0
M  V30 11651 C 1052.74 3.1032 3.89366 0
M  V30 11652 C 1051.45 5.53889 4.58911 0
M  V30 11653 C 1053.47 4.27487 4.08667 0
M  V30 11654 C 1052.84 5.47769 4.42864 0
M  V30 11655 H 1048.93 0.234756 0.745931 0
M  V30 11656 H 1051.52 1.13745 1.5802 0
M  V30 11657 H 1049.69 0.112239 3.88238 0
M  V30 11658 H 1051.42 0.30688 4.03535 0
M  V30 11659 H 1048.18 2.32399 4.12659 0
M  V30 11660 H 1048.6 4.88425 4.68796 0
M  V30 11661 H 1053.24 2.18428 3.62007 0
M  V30 11662 H 1050.96 6.46289 4.85114 0
M  V30 11663 H 1054.55 4.25738 3.96533 0
M  V30 11664 H 1053.43 6.36922 4.57493 0
M  V30 11665 N 1050.93 -1.4397 0.641131 0
M  V30 11666 C 1052.21 -1.95436 0.0800918 0
M  V30 11667 C 1052.59 -1.58282 -1.39678 0
M  V30 11668 O 1051.93 -0.861867 -2.11623 0
M  V30 11669 C 1052.14 -3.47589 0.313531 0
M  V30 11670 C 1053.49 -4.2407 0.212034 0
M  V30 11671 O 1054.52 -3.55353 0.245434 0
M  V30 11672 O 1053.38 -5.46356 0.125455 0
M  V30 11673 H 1050.47 -0.826834 -0.0165735 0
M  V30 11674 H 1053.02 -1.5397 0.71353 0
M  V30 11675 H 1051.79 -3.67716 1.33793 0
M  V30 11676 H 1051.41 -3.96025 -0.353563 0
M  V30 11677 N 1052.41 -0.382291 -1.52893 0
M  V30 11678 C 1053.32 0.463745 -2.29971 0
M  V30 11679 C 1054.33 1.07777 -1.36602 0
M  V30 11680 O 1055.51 1.0851 -1.69669 0
M  V30 11681 C 1052.57 1.57938 -3.08637 0
M  V30 11682 C 1051.64 0.991182 -4.17701 0
M  V30 11683 C 1050.87 2.05365 -4.92606 0
M  V30 11684 O 1051.09 3.26757 -4.67532 0
M  V30 11685 O 1050.03 1.67487 -5.78128 0
M  V30 11686 H 1053.85 -0.163962 -3.03257 0
M  V30 11687 H 1051.44 -0.146199 -1.48683 0
M  V30 11688 H 1053.32 2.22765 -3.57706 0
M  V30 11689 H 1051.99 2.19218 -2.3817 0
M  V30 11690 H 1050.9 0.306364 -3.72843 0
M  V30 11691 H 1052.23 0.422699 -4.90382 0
M  V30 11692 N 1053.89 1.57202 -0.111913 0
M  V30 11693 C 1055.13 1.95239 0.548607 0
M  V30 11694 C 1055.46 0.994897 1.6678 0
M  V30 11695 O 1054.74 0.0308603 1.94476 0
M  V30 11696 C 1055.02 3.43271 1.08798 0
M  V30 11697 C 1054.88 4.49792 -0.0273064 0
M  V30 11698 C 1056.19 3.92989 1.98109 0
M  V30 11699 H 1053.31 0.709919 0.197951 0
M  V30 11700 H 1055.96 1.89087 -0.186036 0
M  V30 11701 H 1054.11 3.48644 1.71404 0
M  V30 11702 H 1055.78 4.56521 -0.662302 0
M  V30 11703 H 1054.02 4.28254 -0.691426 0
M  V30 11704 H 1054.69 5.50612 0.391201 0
M  V30 11705 H 1057.17 3.89875 1.45385 0
M  V30 11706 H 1056.04 4.97101 2.32769 0
M  V30 11707 H 1056.3 3.33267 2.90492 0
M  V30 11708 N 1055.36 -0.161842 1.56767 0
M  V30 11709 C 1056.61 -0.875278 1.81719 0
M  V30 11710 C 1056.93 -1.82998 0.690739 0
M  V30 11711 O 1058.13 -2.58648 0.82545 0
M  V30 11712 C 1056.59 -1.60703 3.22029 0
M  V30 11713 C 1056.2 -0.695486 4.42569 0
M  V30 11714 C 1057.94 -2.30813 3.56266 0
M  V30 11715 C 1055.85 -1.42801 5.73901 0
M  V30 11716 H 1054.78 -0.330591 0.677662 0
M  V30 11717 H 1057.43 -0.128112 1.83052 0
M  V30 11718 H 1055.81 -2.39929 3.1504 0
M  V30 11719 H 1056.98 0.0604882 4.6076 0
M  V30 11720 H 1055.3 -0.10356 4.16271 0
M  V30 11721 H 1057.9 -2.86229 4.51638 0
M  V30 11722 H 1058.24 -3.06603 2.81604 0
M  V30 11723 H 1058.77 -1.5852 3.64851 0
M  V30 11724 H 1055.51 -0.712253 6.51619 0
M  V30 11725 H 1055.03 -2.15707 5.5967 0
M  V30 11726 H 1056.71 -1.97295 6.16185 0
M  V30 11727 N 1056.84 -1.516 -0.430713 0
M  V30 11728 C 1058.25 -1.57 -1.01035 0
M  V30 11729 C 1058.6 -0.397439 -1.92132 0
M  V30 11730 O 1057.73 0.484954 -2.10896 0
M  V30 11731 C 1058.32 -2.84536 -1.83915 0
M  V30 11732 C 1056.88 -2.92485 -2.36917 0
M  V30 11733 C 1056.03 -2.5173 -1.16308 0
M  V30 11734 H 1058.98 -1.57281 -0.211734 0
M  V30 11735 H 1059 -2.68672 -2.69435 0
M  V30 11736 H 1058.51 -3.69858 -1.17586 0
M  V30 11737 H 1056.61 -2.11608 -3.0668 0
M  V30 11738 H 1056.73 -3.96277 -2.6926 0
M  V30 11739 H 1055.09 -2.05079 -1.51045 0
M  V30 11740 H 1055.87 -3.39403 -0.515793 0
M  V30 11741 N 1058.32 0.686584 -1.41858 0
M  V30 11742 C 1059.54 1.4802 -1.45275 0
M  V30 11743 C 1059.97 1.87997 -0.0621297 0
M  V30 11744 O 1059.33 1.55226 0.936733 0
M  V30 11745 C 1059.38 2.7133 -2.37513 0
M  V30 11746 O 1058.48 3.69159 -1.83836 0
M  V30 11747 H 1057.82 0.445152 -0.492682 0
M  V30 11748 H 1060.35 0.843161 -1.86419 0
M  V30 11749 H 1060.36 3.19537 -2.53693 0
M  V30 11750 H 1059.04 2.41571 -3.3855 0
M  V30 11751 H 1057.61 3.28134 -1.77151 0
M  V30 11752 N 1059.8 1.27835 0.921735 0
M  V30 11753 C 1060.73 1.136 2.04003 0
M  V30 11754 C 1061.71 0.0358756 1.70062 0
M  V30 11755 O 1062.89 0.211438 1.93046 0
M  V30 11756 C 1060.02 0.788697 3.38226 0
M  V30 11757 C 1058.98 1.84272 3.863 0
M  V30 11758 C 1058.3 1.34923 5.17397 0
M  V30 11759 C 1059.6 3.24788 4.09035 0
M  V30 11760 H 1061.3 2.07149 2.1617 0
M  V30 11761 H 1058.84 0.997349 1.0387 0
M  V30 11762 H 1060.8 0.675911 4.15944 0
M  V30 11763 H 1059.52 -0.182499 3.2609 0
M  V30 11764 H 1058.18 1.94451 3.1078 0
M  V30 11765 H 1057.83 0.367328 5.01657 0
M  V30 11766 H 1057.53 2.05397 5.50532 0
M  V30 11767 H 1059.05 1.24951 5.97678 0
M  V30 11768 H 1060.47 3.17575 4.77304 0
M  V30 11769 H 1058.86 3.93025 4.53488 0
M  V30 11770 H 1059.93 3.69398 3.14122 0
M  V30 11771 N 1061.28 -1.12907 1.09954 0
M  V30 11772 C 1062.69 -1.363 0.830326 0
M  V30 11773 C 1062.89 -1.93772 -0.552694 0
M  V30 11774 O 1061.95 -2.1607 -1.30652 0
M  V30 11775 C 1063.26 -2.30925 1.92598 0
M  V30 11776 C 1064.81 -2.44528 1.95385 0
M  V30 11777 C 1065.28 -3.42464 3.0411 0
M  V30 11778 N 1066.77 -3.50018 3.03384 0
M  V30 11779 C 1067.51 -4.25693 3.84152 0
M  V30 11780 N 1067.01 -5.04476 4.74843 0
M  V30 11781 N 1068.8 -4.21049 3.7239 0
M  V30 11782 H 1060.95 -0.739571 1.99108 0
M  V30 11783 H 1063.21 -0.387983 0.86497 0
M  V30 11784 H 1062.92 -1.95861 2.92115 0
M  V30 11785 H 1062.79 -3.30997 1.80889 0
M  V30 11786 H 1065.18 -2.78875 0.965037 0
M  V30 11787 H 1065.26 -1.44361 2.11172 0
M  V30 11788 H 1064.9 -3.08847 4.03207 0
M  V30 11789 H 1064.83 -4.42448 2.85565 0
M  V30 11790 H 1067.33 -2.93809 2.37665 0
M  V30 11791 H 1067.64 -5.59541 5.33042 0
M  V30 11792 H 1065.98 -5.0369 4.78875 0
M  V30 11793 H 1069.17 -3.5858 3.00895 0
M  V30 11794 H 1069.35 -4.79771 4.35572 0
M  V30 11795 N 1062.75 -0.88754 -1.30232 0
M  V30 11796 C 1063.7 -0.345765 -2.30016 0
M  V30 11797 C 1064.7 0.5486 -1.60271 0
M  V30 11798 O 1065.9 0.43275 -1.74721 0
M  V30 11799 H 1062.28 -0.0931623 -0.746207 0
M  V30 11800 H 1064.25 -1.20095 -2.73166 0
M  V30 11801 C 1063 0.422435 -3.45124 0
M  V30 11802 H 1062.32 -0.256516 -3.98976 0
M  V30 11803 H 1063.76 0.766572 -4.17013 0
M  V30 11804 C 1062.22 1.62049 -2.95367 0
M  V30 11805 O 1062.75 2.71985 -2.95613 0
M  V30 11806 N 1060.95 1.45852 -2.51347 0
M  V30 11807 H 1060.5 0.564158 -2.51346 0
M  V30 11808 H 1060.46 2.26148 -2.18413 0
M  V30 11809 N 1064.23 1.43628 -0.648757 0
M  V30 11810 C 1065.17 2.28001 0.0952198 0
M  V30 11811 C 1066.14 1.39569 0.834225 0
M  V30 11812 O 1067.33 1.69011 0.834711 0
M  V30 11813 C 1064.45 3.18886 1.14145 0
M  V30 11814 C 1063.5 4.23547 0.500996 0
M  V30 11815 S 1064.33 5.30609 -0.722118 0
M  V30 11816 C 1065.49 6.25062 0.323687 0
M  V30 11817 H 1065.72 2.90752 -0.620511 0
M  V30 11818 H 1063.26 1.48073 -0.437457 0
M  V30 11819 H 1065.21 3.71795 1.74008 0
M  V30 11820 H 1063.87 2.55322 1.82947 0
M  V30 11821 H 1063.07 4.87224 1.28954 0
M  V30 11822 H 1062.67 3.73993 -0.0234176 0
M  V30 11823 H 1064.96 6.66946 1.19118 0
M  V30 11824 H 1065.9 7.07554 -0.277939 0
M  V30 11825 H 1066.31 5.60658 0.657493 0
M  V30 11826 N 1065.71 0.390394 1.52688 0
M  V30 11827 C 1066.96 -0.191729 2.01892 0
M  V30 11828 C 1067.29 -1.4637 1.27631 0
M  V30 11829 O 1066.56 -1.90809 0.377094 0
M  V30 11830 C 1066.85 -0.458535 3.57169 0
M  V30 11831 C 1066.7 0.828796 4.42098 0
M  V30 11832 C 1068.02 -1.2487 4.22014 0
M  V30 11833 H 1065.14 -0.0682091 0.733837 0
M  V30 11834 H 1067.78 0.520176 1.82741 0
M  V30 11835 H 1065.93 -1.06498 3.73618 0
M  V30 11836 H 1067.6 1.46562 4.37398 0
M  V30 11837 H 1065.85 1.44388 4.09066 0
M  V30 11838 H 1066.52 0.596746 5.48765 0
M  V30 11839 H 1068.99 -0.735452 4.09549 0
M  V30 11840 H 1067.87 -1.40412 5.30637 0
M  V30 11841 H 1068.13 -2.2642 3.79719 0
M  V30 11842 N 1067.19 -1.57141 0.120249 0
M  V30 11843 C 1068.15 -2.14213 -0.815185 0
M  V30 11844 C 1069.15 -1.07731 -1.19376 0
M  V30 11845 O 1070.34 -1.33502 -1.11906 0
M  V30 11846 C 1067.47 -2.68339 -2.10255 0
M  V30 11847 H 1068.67 -2.98197 -0.319166 0
M  V30 11848 H 1066.22 -1.55767 -0.128997 0
M  V30 11849 H 1066.95 -1.87946 -2.64285 0
M  V30 11850 H 1066.74 -3.46216 -1.84057 0
M  V30 11851 H 1068.23 -3.124 -2.77121 0
M  V30 11852 N 1068.67 0.153526 -1.5685 0
M  V30 11853 C 1069.6 1.19162 -2.00805 0
M  V30 11854 C 1070.58 1.45172 -0.886518 0
M  V30 11855 O 1071.76 1.56203 -1.15387 0
M  V30 11856 C 1068.89 2.52637 -2.38311 0
M  V30 11857 C 1067.85 2.41161 -3.53589 0
M  V30 11858 C 1067.17 3.79287 -3.76889 0
M  V30 11859 C 1068.47 1.90122 -4.86468 0
M  V30 11860 H 1070.17 0.82617 -2.87776 0
M  V30 11861 H 1067.71 0.395972 -1.38449 0
M  V30 11862 H 1069.67 3.25478 -2.6766 0
M  V30 11863 H 1068.39 2.91005 -1.4827 0
M  V30 11864 H 1067.05 1.70772 -3.24395 0
M  V30 11865 H 1066.7 4.15079 -2.84109 0
M  V30 11866 H 1066.4 3.72472 -4.54465 0
M  V30 11867 H 1067.92 4.53687 -4.08657 0
M  V30 11868 H 1069.33 2.52752 -5.14577 0
M  V30 11869 H 1067.73 1.94214 -5.67804 0
M  V30 11870 H 1068.8 0.856517 -4.77275 0
M  V30 11871 N 1070.14 1.51827 0.422667 0
M  V30 11872 C 1071.11 1.7359 1.49663 0
M  V30 11873 C 1072.11 0.605811 1.48952 0
M  V30 11874 O 1073.3 0.87354 1.50715 0
M  V30 11875 C 1070.43 1.80585 2.8914 0
M  V30 11876 H 1071.62 2.69453 1.31664 0
M  V30 11877 H 1069.18 1.42038 0.652298 0
M  V30 11878 H 1069.91 0.865895 3.12526 0
M  V30 11879 H 1069.7 2.62729 2.9106 0
M  V30 11880 H 1071.19 1.99212 3.67021 0
M  V30 11881 N 1071.62 -0.679052 1.4222 0
M  V30 11882 C 1072.57 -1.79269 1.45366 0
M  V30 11883 C 1073.54 -1.63255 0.306089 0
M  V30 11884 O 1074.72 -1.8387 0.509548 0
M  V30 11885 C 1071.86 -3.17272 1.35766 0
M  V30 11886 C 1070.98 -3.44603 2.60525 0
M  V30 11887 C 1070.11 -4.7231 2.43098 0
M  V30 11888 C 1069.15 -4.92661 3.63251 0
M  V30 11889 N 1068.29 -6.11606 3.44794 0
M  V30 11890 H 1073.13 -1.75916 2.40536 0
M  V30 11891 H 1070.67 -0.858836 1.19425 0
M  V30 11892 H 1072.62 -3.97015 1.282 0
M  V30 11893 H 1071.25 -3.1976 0.441939 0
M  V30 11894 H 1070.31 -2.59144 2.78475 0
M  V30 11895 H 1071.62 -3.55536 3.49851 0
M  V30 11896 H 1070.77 -5.60136 2.33093 0
M  V30 11897 H 1069.51 -4.63652 1.51255 0
M  V30 11898 H 1068.52 -4.03278 3.73693 0
M  V30 11899 H 1069.74 -5.03167 4.5607 0
M  V30 11900 H 1067.69 -6.04129 2.55663 0
M  V30 11901 H 1067.6 -6.23381 4.27705 0
M  V30 11902 H 1068.87 -7.02122 3.38592 0
M  V30 11903 N 1073.1 -1.28322 -0.914942 0
M  V30 11904 C 1074.01 -1.13993 -2.05043 0
M  V30 11905 C 1075.03 -0.0667921 -1.73872 0
M  V30 11906 O 1076.2 -0.275845 -1.99502 0
M  V30 11907 C 1073.27 -0.801856 -3.373 0
M  V30 11908 C 1072.33 -1.95723 -3.82088 0
M  V30 11909 C 1071.56 -1.63519 -5.08033 0
M  V30 11910 O 1071.78 -0.54899 -5.67752 0
M  V30 11911 O 1070.72 -2.47844 -5.48504 0
M  V30 11912 H 1074.54 -2.09313 -2.2005 0
M  V30 11913 H 1072.13 -1.0763 -1.03616 0
M  V30 11914 H 1074.01 -0.627214 -4.16706 0
M  V30 11915 H 1072.69 0.121696 -3.23471 0
M  V30 11916 H 1071.59 -2.18702 -3.03514 0
M  V30 11917 H 1072.93 -2.86144 -4.00478 0
M  V30 11918 N 1074.58 1.12322 -1.10551 0
M  V30 11919 C 1075.51 2.17221 -0.699299 0
M  V30 11920 C 1076.49 1.59809 0.299973 0
M  V30 11921 O 1077.67 1.87451 0.198589 0
M  V30 11922 C 1074.8 3.38685 -0.0320136 0
M  V30 11923 C 1073.85 4.14732 -0.99495 0
M  V30 11924 S 1074.68 4.72879 -2.51288 0
M  V30 11925 C 1075.84 5.97676 -1.85834 0
M  V30 11926 H 1076.07 2.51342 -1.5879 0
M  V30 11927 H 1073.6 1.23802 -0.92263 0
M  V30 11928 H 1075.56 4.09034 0.346656 0
M  V30 11929 H 1074.22 3.02842 0.833407 0
M  V30 11930 H 1073.41 5.01754 -0.475331 0
M  V30 11931 H 1073.02 3.50098 -1.31559 0
M  V30 11932 H 1075.31 6.6698 -1.18927 0
M  V30 11933 H 1076.25 6.54266 -2.70817 0
M  V30 11934 H 1076.66 5.48793 -1.32237 0
M  V30 11935 N 1076.06 0.894434 1.2976 0
M  V30 11936 C 1077.47 0.589778 1.48303 0
M  V30 11937 C 1077.67 -0.870085 1.81746 0
M  V30 11938 O 1076.73 -1.65065 1.91076 0
M  V30 11939 C 1078.04 1.51107 2.59975 0
M  V30 11940 C 1079.59 1.51571 2.73853 0
M  V30 11941 C 1080.06 2.42316 3.88648 0
M  V30 11942 N 1081.56 2.40333 3.95973 0
M  V30 11943 C 1082.29 3.07254 4.84131 0
M  V30 11944 N 1081.79 3.83435 5.77018 0
M  V30 11945 N 1083.58 2.96438 4.77578 0
M  V30 11946 H 1075.73 1.83871 1.06327 0
M  V30 11947 H 1077.99 0.78758 0.527657 0
M  V30 11948 H 1077.7 2.55097 2.42112 0
M  V30 11949 H 1077.57 1.22767 3.56662 0
M  V30 11950 H 1079.96 0.483277 2.91116 0
M  V30 11951 H 1080.04 1.83946 1.77757 0
M  V30 11952 H 1079.69 3.4565 3.72141 0
M  V30 11953 H 1079.62 2.07252 4.84101 0
M  V30 11954 H 1082.11 1.84979 3.29532 0
M  V30 11955 H 1082.42 4.31565 6.4107 0
M  V30 11956 H 1080.76 3.87542 5.7692 0
M  V30 11957 H 1083.96 2.36442 4.03996 0
M  V30 11958 H 1084.13 3.48867 5.46073 0
M  V30 11959 N 1077.53 -1.43282 0.656365 0
M  V30 11960 C 1078.44 -2.34576 -0.033864 0
M  V30 11961 C 1079.46 -1.5406 -0.808793 0
M  V30 11962 O 1080.64 -1.867 -0.755322 0
M  V30 11963 C 1077.7 -3.32378 -0.986197 0
M  V30 11964 C 1076.76 -4.28797 -0.207851 0
M  V30 11965 C 1076 -5.21927 -1.11482 0
M  V30 11966 O 1076.22 -5.19554 -2.35414 0
M  V30 11967 O 1075.15 -5.99045 -0.585536 0
M  V30 11968 H 1078.98 -2.95099 0.717668 0
M  V30 11969 H 1076.56 -1.43475 0.416556 0
M  V30 11970 H 1078.45 -3.9251 -1.53341 0
M  V30 11971 H 1077.12 -2.74354 -1.7179 0
M  V30 11972 H 1076.03 -3.72134 0.383022 0
M  V30 11973 H 1077.36 -4.89811 0.48435 0
M  V30 11974 N 1079.01 -0.398486 -1.52479 0
M  V30 11975 C 1079.96 0.432212 -2.26717 0
M  V30 11976 C 1080.93 1.05007 -1.28696 0
M  V30 11977 O 1082.12 1.07636 -1.57541 0
M  V30 11978 C 1079.26 1.54868 -3.08399 0
M  V30 11979 C 1078.37 0.952779 -4.21362 0
M  V30 11980 C 1077.5 2.04106 -4.90423 0
M  V30 11981 C 1076.54 1.42153 -5.95364 0
M  V30 11982 N 1075.68 2.44951 -6.57984 0
M  V30 11983 H 1080.52 -0.207303 -2.97278 0
M  V30 11984 H 1078.06 -0.114066 -1.46657 0
M  V30 11985 H 1080.01 2.20684 -3.54054 0
M  V30 11986 H 1078.64 2.15837 -2.4003 0
M  V30 11987 H 1077.7 0.183962 -3.79955 0
M  V30 11988 H 1079.01 0.460131 -4.96673 0
M  V30 11989 H 1078.16 2.77672 -5.39429 0
M  V30 11990 H 1076.9 2.56733 -4.14656 0
M  V30 11991 H 1075.91 0.671161 -5.45688 0
M  V30 11992 H 1077.13 0.903093 -6.73068 0
M  V30 11993 H 1075.08 2.9673 -5.85053 0
M  V30 11994 H 1074.99 2.00468 -7.28937 0
M  V30 11995 H 1076.26 3.18119 -7.11632 0
M  V30 11996 N 1080.49 1.57075 -0.12858 0
M  V30 11997 C 1081.74 1.9552 0.527087 0
M  V30 11998 C 1082.07 1.01243 1.66072 0
M  V30 11999 O 1081.32 0.0381076 1.95663 0
M  V30 12000 C 1081.62 3.40329 1.09138 0
M  V30 12001 C 1081.29 4.50832 0.0781039 0
M  V30 12002 C 1079.95 4.80782 -0.200493 0
M  V30 12003 C 1082.3 5.17595 -0.61192 0
M  V30 12004 C 1079.63 5.74809 -1.17524 0
M  V30 12005 C 1081.98 6.12671 -1.57536 0
M  V30 12006 C 1080.64 6.41008 -1.86184 0
M  V30 12007 H 1079.91 0.715458 0.192875 0
M  V30 12008 H 1082.56 1.90328 -0.211515 0
M  V30 12009 H 1080.87 3.42262 1.90694 0
M  V30 12010 H 1082.56 3.67393 1.60696 0
M  V30 12011 H 1079.15 4.2751 0.30543 0
M  V30 12012 H 1083.34 4.94605 -0.40986 0
M  V30 12013 H 1078.59 5.95065 -1.40384 0
M  V30 12014 H 1082.77 6.63486 -2.11565 0
M  V30 12015 H 1080.39 7.13673 -2.61868 0
M  V30 12016 N 1081.97 -0.145205 1.5693 0
M  V30 12017 C 1082.88 -1.19864 2.01667 0
M  V30 12018 C 1083.9 -1.46909 0.932402 0
M  V30 12019 O 1085.07 -1.58543 1.24201 0
M  V30 12020 C 1082.14 -2.51174 2.38982 0
M  V30 12021 C 1081.2 -2.3176 3.61366 0
M  V30 12022 C 1080.43 -3.56809 3.96892 0
M  V30 12023 O 1080.65 -4.63063 3.33059 0
M  V30 12024 O 1079.59 -3.49366 4.9013 0
M  V30 12025 H 1083.41 -0.848821 2.91597 0
M  V30 12026 H 1081 -0.354063 1.45144 0
M  V30 12027 H 1082.88 -3.28587 2.63835 0
M  V30 12028 H 1081.56 -2.85683 1.52207 0
M  V30 12029 H 1080.46 -1.52293 3.41698 0
M  V30 12030 H 1081.8 -2.02167 4.48764 0
M  V30 12031 N 1083.45 -1.52049 -0.414609 0
M  V30 12032 C 1084.67 -1.6997 -1.18848 0
M  V30 12033 C 1085.1 -0.406058 -1.83665 0
M  V30 12034 O 1084.46 0.635981 -1.69779 0
M  V30 12035 C 1084.5 -2.8327 -2.23138 0
M  V30 12036 O 1083.61 -2.48457 -3.29155 0
M  V30 12037 H 1082.95 -0.566003 -0.347183 0
M  V30 12038 H 1085.48 -1.98726 -0.486757 0
M  V30 12039 H 1085.49 -3.08022 -2.67557 0
M  V30 12040 H 1084.16 -3.7713 -1.75344 0
M  V30 12041 H 1082.74 -2.34357 -2.90054 0
M  V30 12042 O 1084.96 0.56047 -1.51463 0
M  V30 12043 H 1085.66 1.21558 -1.50809 0
M  V30 END ATOM
M  V30 BEGIN BOND
M  V30 END BOND
M  V30 END CTAB
M  END
$$$$
