drugbank_target|P48147 Prolyl endopeptidase (DB01684; DB03382; DB03535; DB03864; DB07148; DB08738; DB08739)
 OpenBabel12092120063D

  0  0  0     0  0            999 V3000
M  V30 BEGIN CTAB
M  V30 COUNTS 11214 11366 0 0 0
M  V30 BEGIN ATOM
M  V30 1 H -0.908 1.98254 -0.117106 0
M  V30 2 N 0 1.576 0 0
M  V30 3 C 0.933 2.03868 1.02534 0
M  V30 4 C 1.911 0.928543 1.3348 0
M  V30 5 O 3.095 1.19667 1.45644 0
M  V30 6 C 0.222 2.43627 2.35294 0
M  V30 7 C -0.732 3.65373 2.2001 0
M  V30 8 S 0.101 5.13292 1.52614 0
M  V30 9 C 1.257 5.56322 2.86805 0
M  V30 10 H 1.49 2.90518 0.631377 0
M  V30 11 H -0.977 1.52953 0.210867 0
M  V30 12 H 0.981 2.67203 3.11629 0
M  V30 13 H -0.358 1.57376 2.7183 0
M  V30 14 H -1.165 3.90944 3.18086 0
M  V30 15 H -1.563 3.418 1.51819 0
M  V30 16 H 0.729 5.58782 3.83104 0
M  V30 17 H 1.672 6.56266 2.65933 0
M  V30 18 H 2.08 4.83886 2.90714 0
M  V30 19 N 1.4781 -0.272755 1.55222 0
M  V30 20 C 2.4081 -1.34136 1.91127 0
M  V30 21 C 3.3891 -1.51513 0.773168 0
M  V30 22 O 4.5741 -1.64552 1.03132 0
M  V30 23 C 1.7041 -2.70083 2.1834 0
M  V30 24 C 0.6581 -2.67437 3.34158 0
M  V30 25 C -0.0159 -4.06938 3.46851 0
M  V30 26 C 1.2841 -2.26686 4.70543 0
M  V30 27 H 2.9781 -1.04333 2.80633 0
M  V30 28 H 0.5241 -0.500454 1.35024 0
M  V30 29 H 2.4771 -3.44952 2.42046 0
M  V30 30 H 1.2011 -3.01469 1.25634 0
M  V30 31 H -0.1399 -1.95026 3.1042 0
M  V30 32 H -0.4919 -4.35547 2.51611 0
M  V30 33 H -0.7919 -4.06062 4.2472 0
M  V30 34 H 0.7321 -4.83545 3.72849 0
M  V30 35 H 2.1461 -2.91277 4.93792 0
M  V30 36 H 0.5431 -2.36971 5.5133 0
M  V30 37 H 1.6131 -1.21818 4.69349 0
M  V30 38 N 2.9562 -1.48159 -0.537278 0
M  V30 39 C 4.1812 -1.59707 -1.32319 0
M  V30 40 C 4.6062 -0.254859 -1.86365 0
M  V30 41 O 3.9642 0.772378 -1.64024 0
M  V30 42 C 4.0122 -2.6412 -2.45505 0
M  V30 43 O 3.1162 -2.20774 -3.48328 0
M  V30 44 H 2.4572 -0.535791 -0.392204 0
M  V30 45 H 4.9872 -1.94092 -0.647268 0
M  V30 46 H 4.9972 -2.85166 -2.91795 0
M  V30 47 H 3.6722 -3.61567 -2.05528 0
M  V30 48 H 2.2492 -2.09911 -3.08207 0
M  V30 49 N 4.4343 0.785586 -1.36625 0
M  V30 50 C 5.3643 1.91259 -1.33949 0
M  V30 51 C 6.3453 1.68795 -0.210325 0
M  V30 52 O 7.5303 1.89854 -0.408561 0
M  V30 53 C 4.6603 3.28339 -1.13186 0
M  V30 54 C 3.6143 3.65335 -2.22967 0
M  V30 55 C 2.9403 5.00806 -1.87342 0
M  V30 56 C 4.2403 3.7352 -3.65075 0
M  V30 57 H 5.9343 1.93755 -2.28253 0
M  V30 58 H 3.4803 0.930788 -1.09874 0
M  V30 59 H 5.4333 4.06804 -1.09948 0
M  V30 60 H 4.1573 3.2624 -0.153332 0
M  V30 61 H 2.8163 2.89169 -2.25337 0
M  V30 62 H 2.4643 4.95233 -0.880545 0
M  V30 63 H 2.1643 5.26529 -2.60846 0
M  V30 64 H 3.6883 5.81687 -1.85667 0
M  V30 65 H 5.1023 4.42168 -3.64911 0
M  V30 66 H 3.4993 4.10731 -4.37516 0
M  V30 67 H 4.5693 2.74527 -3.99703 0
M  V30 68 N 5.9124 1.20967 1.01018 0
M  V30 69 C 6.8444 0.922059 2.09835 0
M  V30 70 C 7.8574 -0.0927106 1.62536 0
M  V30 71 O 9.0464 0.139127 1.77957 0
M  V30 72 C 6.1464 0.362004 3.36961 0
M  V30 73 C 5.3194 1.42986 4.13369 0
M  V30 74 C 4.3784 0.879976 5.1879 0
M  V30 75 O 3.4044 1.56219 5.47343 0
M  V30 76 N 4.6064 -0.307396 5.79686 0
M  V30 77 H 7.3714 1.8588 2.35093 0
M  V30 78 H 4.9324 1.11422 1.1746 0
M  V30 79 H 6.9244 -0.0201474 4.04695 0
M  V30 80 H 5.4944 -0.479437 3.08902 0
M  V30 81 H 4.7144 1.98608 3.40512 0
M  V30 82 H 6.0024 2.14885 4.61196 0
M  V30 83 H 5.4004 -0.878796 5.58832 0
M  V30 84 H 3.9574 -0.631115 6.48737 0
M  V30 85 N 7.3905 -1.2043 1.01659 0
M  V30 86 C 8.6205 -1.93496 0.724081 0
M  V30 87 C 9.0285 -1.74998 -0.71918 0
M  V30 88 O 8.3715 -1.06118 -1.49949 0
M  V30 89 C 8.4335 -3.45886 0.97994 0
M  V30 90 C 8.0975 -3.88145 2.41232 0
M  V30 91 C 9.0945 -3.93907 3.39313 0
M  V30 92 C 6.7795 -4.20134 2.75305 0
M  V30 93 C 8.7735 -4.31069 4.6953 0
M  V30 94 C 6.4605 -4.56971 4.05735 0
M  V30 95 C 7.4585 -4.62411 5.02658 0
M  V30 96 O 7.1465 -4.98403 6.30754 0
M  V30 97 H 6.8785 -0.621824 0.265162 0
M  V30 98 H 9.4325 -1.53867 1.36066 0
M  V30 99 H 7.6625 -3.85639 0.286198 0
M  V30 100 H 9.3515 -4.0018 0.679021 0
M  V30 101 H 10.1175 -3.69357 3.14325 0
M  V30 102 H 5.9965 -4.1509 2.00551 0
M  V30 103 H 9.5405 -4.3523 5.45179 0
M  V30 104 H 5.4375 -4.80977 4.30502 0
M  V30 105 H 6.2055 -5.16395 6.35042 0
M  V30 106 N 8.8686 -0.792821 -1.36206 0
M  V30 107 C 10.2796 -0.429513 -1.81692 0
M  V30 108 C 10.6306 1.04695 -1.65932 0
M  V30 109 O 9.7556 1.81256 -1.18218 0
M  V30 110 C 10.3506 -0.772831 -3.29868 0
M  V30 111 C 8.9096 -0.462307 -3.7355 0
M  V30 112 C 8.0566 -1.00569 -2.5842 0
M  V30 113 H 11.0076 -0.985672 -1.24379 0
M  V30 114 H 11.0286 -0.0651928 -3.80444 0
M  V30 115 H 10.5406 -1.84747 -3.41307 0
M  V30 116 H 8.6416 0.604158 -3.67669 0
M  V30 117 H 8.7546 -0.985299 -4.68859 0
M  V30 118 H 7.1186 -0.428734 -2.51066 0
M  V30 119 H 7.9016 -2.08616 -2.72643 0
M  V30 120 N 10.3467 1.47872 -0.545128 0
M  V30 121 C 11.6237 1.9554 0.0485222 0
M  V30 122 C 12.0037 1.4876 1.49779 0
M  V30 123 O 11.3517 0.720925 2.16829 0
M  V30 124 C 11.5617 3.48898 -0.084417 0
M  V30 125 C 12.9097 4.24547 0.0671239 0
M  V30 126 O 13.9337 3.56198 -0.0113649 0
M  V30 127 O 12.7927 5.45999 0.233882 0
M  V30 128 H 9.8867 0.823957 0.0708773 0
M  V30 129 H 12.4327 1.58327 -0.610798 0
M  V30 130 H 11.2047 3.75714 -1.09337 0
M  V30 131 H 10.8277 3.92845 0.613066 0
M  V30 132 N 11.8248 0.280983 1.55075 0
M  V30 133 C 13.0708 -0.33461 2.00021 0
M  V30 134 C 13.4038 -1.55063 1.16915 0
M  V30 135 O 12.6788 -1.93006 0.240646 0
M  V30 136 C 12.9618 -0.711007 3.53011 0
M  V30 137 C 12.8148 0.512766 4.46868 0
M  V30 138 C 14.1338 -1.54522 4.12081 0
M  V30 139 H 11.2528 -0.120147 0.727141 0
M  V30 140 H 13.8948 0.389097 1.85973 0
M  V30 141 H 12.0448 -1.32761 3.65112 0
M  V30 142 H 13.7168 1.15131 4.46702 0
M  V30 143 H 11.9598 1.14975 4.18286 0
M  V30 144 H 12.6308 0.205556 5.51617 0
M  V30 145 H 15.1068 -1.02442 4.03293 0
M  V30 146 H 13.9828 -1.77739 5.19327 0
M  V30 147 H 14.2438 -2.52813 3.62682 0
M  V30 148 N 13.3029 -1.57598 0.00835791 0
M  V30 149 C 14.5329 -1.94931 -0.684496 0
M  V30 150 C 14.9409 -0.882233 -1.67372 0
M  V30 151 O 14.2839 0.146621 -1.83114 0
M  V30 152 C 14.3459 -3.283 -1.4649 0
M  V30 153 C 14.0099 -4.52548 -0.63634 0
M  V30 154 C 15.0069 -5.19839 0.0795586 0
M  V30 155 C 12.6919 -4.98942 -0.579849 0
M  V30 156 C 14.6859 -6.3183 0.840843 0
M  V30 157 C 12.3729 -6.10819 0.185155 0
M  V30 158 C 13.3709 -6.77121 0.894227 0
M  V30 159 O 13.0589 -7.86853 1.64673 0
M  V30 160 H 12.7909 -0.647249 -0.19505 0
M  V30 161 H 15.3449 -2.05318 0.0581272 0
M  V30 162 H 13.5749 -3.14345 -2.2522 0
M  V30 163 H 15.2639 -3.50685 -2.04389 0
M  V30 164 H 16.0299 -4.84979 0.0451202 0
M  V30 165 H 11.9089 -4.47155 -1.1213 0
M  V30 166 H 15.4529 -6.83513 1.39483 0
M  V30 167 H 11.3499 -6.4512 0.221384 0
M  V30 168 H 12.1179 -8.03412 1.56432 0
M  V30 169 N 14.781 0.264519 -1.55364 0
M  V30 170 C 16.197 0.61215 -1.47394 0
M  V30 171 C 16.397 1.89134 -0.695018 0
M  V30 172 O 15.453 2.51563 -0.217275 0
M  V30 173 C 16.766 0.731235 -2.91674 0
M  V30 174 C 18.314 0.82473 -3.01939 0
M  V30 175 C 18.789 0.975522 -4.4749 0
M  V30 176 N 20.28 1.04083 -4.51354 0
M  V30 177 C 21.015 1.17646 -5.61201 0
M  V30 178 N 20.511 1.27874 -6.80896 0
M  V30 179 N 22.304 1.20823 -5.48961 0
M  V30 180 H 14.455 -0.575456 -2.04456 0
M  V30 181 H 16.718 -0.196099 -0.927496 0
M  V30 182 H 16.424 -0.138392 -3.51428 0
M  V30 183 H 16.298 1.60883 -3.41169 0
M  V30 184 H 18.685 1.68482 -2.42276 0
M  V30 185 H 18.766 -0.0776479 -2.55682 0
M  V30 186 H 18.41 0.120058 -5.07758 0
M  V30 187 H 18.34 1.89268 -4.91412 0
M  V30 188 H 20.831 0.973846 -3.65136 0
M  V30 189 H 21.144 1.38081 -7.60364 0
M  V30 190 H 19.489 1.24863 -6.83692 0
M  V30 191 H 22.68 1.12469 -4.54388 0
M  V30 192 H 22.853 1.31049 -6.3461 0
M  V30 193 N 16.2591 1.48442 0.529413 0
M  V30 194 C 17.5361 1.46978 1.29062 0
M  V30 195 C 17.9161 0.181769 2.10316 0
M  V30 196 O 17.2641 -0.836481 2.12639 0
M  V30 197 C 17.4741 2.7321 2.17157 0
M  V30 198 C 18.8221 3.21562 2.77278 0
M  V30 199 O 19.8461 2.74131 2.27444 0
M  V30 200 O 18.7051 4.04094 3.67927 0
M  V30 201 H 15.7991 0.587003 0.582543 0
M  V30 202 H 18.3451 1.60676 0.546021 0
M  V30 203 H 17.1171 3.58465 1.56903 0
M  V30 204 H 16.7401 2.62235 2.98862 0
M  V30 205 N 17.7372 -0.778329 1.37039 0
M  V30 206 C 18.6472 -1.92253 1.34446 0
M  V30 207 C 19.6632 -1.72267 0.244991 0
M  V30 208 O 20.8392 -1.95615 0.479258 0
M  V30 209 C 17.9042 -3.27282 1.144 0
M  V30 210 C 16.9652 -3.59969 2.33925 0
M  V30 211 C 16.1982 -4.88555 2.14825 0
M  V30 212 O 16.4212 -5.59113 1.12912 0
M  V30 213 O 15.3552 -5.20153 3.02861 0
M  V30 214 H 19.1812 -1.97392 2.30803 0
M  V30 215 H 16.7662 -0.920154 1.17701 0
M  V30 216 H 18.6482 -4.08062 1.05182 0
M  V30 217 H 17.3232 -3.23011 0.211124 0
M  V30 218 H 16.2302 -2.7945 2.48714 0
M  V30 219 H 17.5632 -3.68976 3.25757 0
M  V30 220 N 19.2153 -1.21501 -1.00376 0
M  V30 221 C 20.4433 -1.059 -1.77744 0
M  V30 222 C 20.8583 0.391125 -1.84704 0
M  V30 223 O 20.2153 1.27133 -1.30933 0
M  V30 224 C 20.2663 -1.65111 -3.21591 0
M  V30 225 O 19.9873 -3.0445 -3.15027 0
M  V30 226 C 21.4883 -1.54637 -4.15454 0
M  V30 227 H 18.7083 -0.371825 -0.558558 0
M  V30 228 H 21.2523 -1.60865 -1.26264 0
M  V30 229 H 19.4073 -1.14235 -3.70175 0
M  V30 230 H 19.8213 -3.3278 -4.0541 0
M  V30 231 H 21.2953 -2.00808 -5.14179 0
M  V30 232 H 21.7723 -0.501022 -4.36333 0
M  V30 233 H 22.3783 -2.04767 -3.72761 0
M  V30 234 N 20.6934 1.19889 -1.02296 0
M  V30 235 C 21.6564 2.21116 -0.603351 0
M  V30 236 C 22.6564 1.5738 0.329884 0
M  V30 237 O 23.8464 1.73802 0.117702 0
M  V30 238 C 20.9784 3.40696 0.117992 0
M  V30 239 H 22.1714 2.59754 -1.49893 0
M  V30 240 H 19.7244 1.33463 -0.813468 0
M  V30 241 H 20.4594 3.07569 1.0282 0
M  V30 242 H 20.2444 3.88188 -0.552511 0
M  V30 243 H 21.7344 4.15692 0.398696 0
M  V30 244 N 22.1715 0.800033 1.35784 0
M  V30 245 C 23.4175 0.377901 1.99248 0
M  V30 246 C 23.7505 -1.05052 1.63333 0
M  V30 247 O 23.0255 -1.72768 0.893385 0
M  V30 248 C 23.3085 0.553922 3.55814 0
M  V30 249 C 23.1615 2.0268 4.01548 0
M  V30 250 C 24.4805 -0.0244802 4.40093 0
M  V30 251 H 21.5995 0.138782 0.723815 0
M  V30 252 H 24.2415 1.00835 1.61035 0
M  V30 253 H 22.3915 0.0172398 3.88496 0
M  V30 254 H 24.0635 2.62536 3.79305 0
M  V30 255 H 22.3065 2.5256 3.52698 0
M  V30 256 H 22.9775 2.10087 5.10458 0
M  V30 257 H 25.4535 0.433775 4.13833 0
M  V30 258 H 24.3295 0.128637 5.48749 0
M  V30 259 H 24.5905 -1.11758 4.27741 0
M  V30 260 N 23.6496 -1.47581 0.552962 0
M  V30 261 C 24.5816 -2.27997 -0.234533 0
M  V30 262 C 25.5946 -1.36753 -0.883321 0
M  V30 263 O 26.7836 -1.61612 -0.757889 0
M  V30 264 C 23.8836 -3.10879 -1.34935 0
M  V30 265 C 23.0566 -4.30056 -0.798158 0
M  V30 266 C 22.1156 -4.94567 -1.79694 0
M  V30 267 O 21.1416 -5.53087 -1.34474 0
M  V30 268 N 22.3436 -4.88878 -3.13015 0
M  V30 269 H 25.1086 -2.96222 0.455255 0
M  V30 270 H 22.6696 -1.57163 0.388761 0
M  V30 271 H 24.6616 -3.50903 -2.01616 0
M  V30 272 H 23.2316 -2.44924 -1.94244 0
M  V30 273 H 22.4516 -3.94174 0.0453079 0
M  V30 274 H 23.7396 -5.07152 -0.409173 0
M  V30 275 H 23.1376 -4.42526 -3.52402 0
M  V30 276 H 21.6946 -5.32934 -3.75266 0
M  V30 277 N 25.1277 -0.289203 -1.54924 0
M  V30 278 C 26.4047 0.376032 -1.91951 0
M  V30 279 C 26.7847 1.72622 -1.21511 0
M  V30 280 O 26.1327 2.25853 -0.346767 0
M  V30 281 C 26.3427 0.502378 -3.45365 0
M  V30 282 C 27.6907 0.778741 -4.17398 0
M  V30 283 O 28.7147 0.586647 -3.51336 0
M  V30 284 O 27.5737 1.14698 -5.34328 0
M  V30 285 H 24.6677 0.208167 -0.800372 0
M  V30 286 H 27.2137 -0.336394 -1.66332 0
M  V30 287 H 25.9857 -0.447255 -3.88736 0
M  V30 288 H 25.6087 1.26373 -3.76982 0
M  V30 289 N 26.6058 1.57591 -0.0167156 0
M  V30 290 C 27.8358 1.95292 0.674149 0
M  V30 291 C 28.2438 0.891097 1.66901 0
M  V30 292 O 27.5868 -0.136908 1.83189 0
M  V30 293 C 27.6488 3.29072 1.44747 0
M  V30 294 C 27.3128 4.52879 0.612331 0
M  V30 295 C 28.3098 5.1979 -0.107126 0
M  V30 296 C 25.9948 4.99242 0.553381 0
M  V30 297 C 27.9888 6.31375 -0.874339 0
M  V30 298 C 25.6758 6.10713 -0.217546 0
M  V30 299 C 26.6738 6.76637 -0.930123 0
M  V30 300 O 26.3618 7.85969 -1.68844 0
M  V30 301 H 26.0938 0.648275 0.191615 0
M  V30 302 H 28.6478 2.05284 -0.0690148 0
M  V30 303 H 26.8778 3.15535 2.2355 0
M  V30 304 H 28.5668 3.51764 2.02526 0
M  V30 305 H 29.3328 4.84948 -0.0708392 0
M  V30 306 H 25.2118 4.47744 1.09757 0
M  V30 307 H 28.7558 6.82764 -1.43106 0
M  V30 308 H 24.6528 6.44994 -0.255593 0
M  V30 309 H 25.4208 8.02571 -1.6069 0
M  V30 310 N 28.0839 -0.256276 1.55502 0
M  V30 311 C 29.0339 -1.31981 1.85916 0
M  V30 312 C 30.0179 -1.43927 0.719296 0
M  V30 313 O 31.2099 -1.47326 0.981019 0
M  V30 314 C 28.3389 -2.67703 2.14918 0
M  V30 315 C 27.4249 -2.59801 3.35208 0
M  V30 316 N 27.8159 -2.21524 4.54709 0
M  V30 317 C 26.1139 -2.90832 3.38131 0
M  V30 318 C 26.8149 -2.24024 5.36832 0
M  V30 319 N 25.7909 -2.63158 4.75656 0
M  V30 320 H 29.5929 -1.01423 2.75845 0
M  V30 321 H 27.1069 -0.464911 1.55603 0
M  V30 322 H 29.1039 -3.44445 2.34869 0
M  V30 323 H 27.7639 -2.99137 1.26282 0
M  V30 324 H 28.7749 -1.93223 4.80505 0
M  V30 325 H 25.4519 -3.26867 2.59739 0
M  V30 326 H 26.8419 -1.9685 6.42417 0
M  V30 327 N 29.562 -1.4872 -0.521534 0
M  V30 328 C 30.81 -1.56857 -1.27437 0
M  V30 329 C 31.131 -0.247982 -1.93417 0
M  V30 330 O 30.401 0.731151 -1.81744 0
M  V30 331 H 28.981 -0.577885 -0.473347 0
M  V30 332 H 31.643 -1.85233 -0.606205 0
M  V30 333 H 30.739 -2.35402 -2.0492 0
M  V30 334 N 31.0401 0.771051 -1.3745 0
M  V30 335 C 31.9901 1.87456 -1.29785 0
M  V30 336 C 32.9741 1.59827 -0.185541 0
M  V30 337 O 34.1661 1.71945 -0.419997 0
M  V30 338 C 31.2951 3.24935 -1.1078 0
M  V30 339 C 30.3811 3.58514 -2.26558 0
M  V30 340 N 30.7721 3.6327 -3.5195 0
M  V30 341 C 29.0701 3.88683 -2.18727 0
M  V30 342 C 29.7711 3.93616 -4.283 0
M  V30 343 N 28.7471 4.09551 -3.57448 0
M  V30 344 H 32.5491 1.89386 -2.24745 0
M  V30 345 H 30.0631 0.967531 -1.30432 0
M  V30 346 H 32.0601 4.03881 -1.03374 0
M  V30 347 H 30.7201 3.24268 -0.16738 0
M  V30 348 H 31.7311 3.45458 -3.85848 0
M  V30 349 H 28.4081 3.95834 -1.32746 0
M  V30 350 H 29.7981 4.04066 -5.36824 0
M  V30 351 N 32.5182 1.22032 0.997298 0
M  V30 352 C 33.4652 0.986467 2.08656 0
M  V30 353 C 34.4352 -0.0902671 1.65855 0
M  V30 354 O 35.6202 0.0584294 1.90711 0
M  V30 355 C 32.7602 0.565569 3.40434 0
M  V30 356 C 31.8732 1.71259 3.96604 0
M  V30 357 C 31.0082 1.24011 5.16522 0
M  V30 358 C 30.0472 2.35896 5.64818 0
M  V30 359 N 29.1842 1.89726 6.7598 0
M  V30 360 H 34.0242 1.91892 2.27994 0
M  V30 361 H 31.5612 0.956199 1.11782 0
M  V30 362 H 33.5192 0.302738 4.161 0
M  V30 363 H 32.1492 -0.329879 3.2111 0
M  V30 364 H 31.2012 2.08986 3.17851 0
M  V30 365 H 32.5132 2.55436 4.28432 0
M  V30 366 H 31.6672 0.934395 5.99461 0
M  V30 367 H 30.4062 0.368487 4.86306 0
M  V30 368 H 29.4112 2.67261 4.8047 0
M  V30 369 H 30.6362 3.23567 5.97061 0
M  V30 370 H 28.5822 1.0492 6.47555 0
M  V30 371 H 28.4992 2.67471 7.07103 0
M  V30 372 H 29.7672 1.62211 7.62435 0
M  V30 373 N 33.9963 -1.19345 1.0293 0
M  V30 374 C 35.2453 -1.88363 0.721256 0
M  V30 375 C 35.5583 -1.80514 -0.753254 0
M  V30 376 O 36.7643 -2.44788 -1.17436 0
M  V30 377 C 35.2203 -3.37872 1.23978 0
M  V30 378 C 34.8283 -3.54278 2.74211 0
M  V30 379 C 36.5723 -4.12365 1.00775 0
M  V30 380 C 34.4793 -4.97682 3.19479 0
M  V30 381 H 33.4093 -0.705484 0.266098 0
M  V30 382 H 36.0603 -1.34928 1.24365 0
M  V30 383 H 34.4423 -3.90707 0.6453 0
M  V30 384 H 35.6163 -3.11769 3.39318 0
M  V30 385 H 33.9313 -2.93174 2.95699 0
M  V30 386 H 36.5283 -5.18119 1.32123 0
M  V30 387 H 36.8713 -4.16263 -0.0554308 0
M  V30 388 H 37.4043 -3.65668 1.56625 0
M  V30 389 H 34.1433 -4.98945 4.25128 0
M  V30 390 H 33.6633 -5.4095 2.591 0
M  V30 391 H 35.3423 -5.66337 3.12845 0
M  V30 392 N 35.4744 -0.807222 -1.35358 0
M  V30 393 C 36.7144 -0.393534 -2.00576 0
M  V30 394 C 37.0784 1.0203 -1.62647 0
M  V30 395 O 38.2794 1.53603 -2.20589 0
M  V30 396 C 36.5504 -0.572017 -3.52793 0
M  V30 397 S 38.1094 -0.248845 -4.38094 0
M  V30 398 H 34.9274 -0.149425 -0.695121 0
M  V30 399 H 37.5294 -1.04961 -1.64935 0
M  V30 400 H 36.2334 -1.60097 -3.77885 0
M  V30 401 H 35.7644 0.099359 -3.93275 0
M  V30 402 H 37.7794 0.943253 -4.87152 0
M  V30 403 N 36.9525 1.47285 -0.560781 0
M  V30 404 C 38.2295 1.9558 0.0277798 0
M  V30 405 C 38.6095 1.5034 1.48192 0
M  V30 406 O 37.9575 0.743882 2.16052 0
M  V30 407 C 38.1675 3.48789 -0.121418 0
M  V30 408 C 39.5155 4.24594 0.0220912 0
M  V30 409 O 40.5395 3.56166 -0.0491439 0
M  V30 410 O 39.3985 5.46217 0.175958 0
M  V30 411 H 36.4925 0.824663 0.0621342 0
M  V30 412 H 39.0385 1.5767 -0.627556 0
M  V30 413 H 37.8105 3.74533 -1.13316 0
M  V30 414 H 37.4335 3.93473 0.571366 0
M  V30 415 N 38.4306 0.297415 1.54768 0
M  V30 416 C 39.8416 -0.195947 1.85669 0
M  V30 417 C 40.1926 -1.53707 1.21937 0
M  V30 418 O 39.3176 -2.10164 0.515754 0
M  V30 419 C 39.9126 -0.362318 3.36857 0
M  V30 420 C 38.4716 -0.799901 3.67802 0
M  V30 421 C 37.6186 0.0938578 2.77141 0
M  V30 422 H 40.5696 0.518538 1.4999 0
M  V30 423 H 40.5906 -1.19745 3.61167 0
M  V30 424 H 40.1026 0.613921 3.83214 0
M  V30 425 H 38.2036 -1.78682 3.26961 0
M  V30 426 H 38.3166 -0.621773 4.75048 0
M  V30 427 H 36.6806 -0.426254 2.51108 0
M  V30 428 H 37.4636 1.06639 3.26318 0
M  V30 429 N 39.9087 -1.5758 0.0250728 0
M  V30 430 C 41.1387 -1.95646 -0.663783 0
M  V30 431 C 41.5467 -0.899935 -1.66427 0
M  V30 432 O 40.8897 0.127191 -1.83259 0
M  V30 433 C 40.9517 -3.29835 -1.43 0
M  V30 434 C 40.6157 -4.53197 -0.588305 0
M  V30 435 C 41.6127 -5.19726 0.13469 0
M  V30 436 C 39.2977 -4.99529 -0.526897 0
M  V30 437 C 41.2917 -6.30902 0.90781 0
M  V30 438 C 38.9787 -6.10589 0.24993 0
M  V30 439 C 39.9767 -6.76134 0.965994 0
M  V30 440 O 39.6647 -7.85062 1.7301 0
M  V30 441 H 39.3967 -0.649282 -0.188174 0
M  V30 442 H 41.9507 -2.05245 0.0799006 0
M  V30 443 H 40.1807 -3.16716 -2.21873 0
M  V30 444 H 41.8697 -3.52833 -2.00658 0
M  V30 445 H 42.6357 -4.84904 0.0965562 0
M  V30 446 H 38.5147 -4.48319 -1.07381 0
M  V30 447 H 42.0587 -6.81995 1.46724 0
M  V30 448 H 37.9557 -6.44849 0.289795 0
M  V30 449 H 38.7237 -8.01708 1.64944 0
M  V30 450 N 41.3868 0.248026 -1.55636 0
M  V30 451 C 42.3498 1.29044 -1.89421 0
M  V30 452 C 43.3498 1.41134 -0.770581 0
M  V30 453 O 44.5398 1.39854 -1.03858 0
M  V30 454 C 41.6718 2.66831 -2.12165 0
M  V30 455 H 42.8648 1.00305 -2.82629 0
M  V30 456 H 40.4178 0.487265 -1.48511 0
M  V30 457 H 41.1528 3.00711 -1.21422 0
M  V30 458 H 40.9378 2.59438 -2.93997 0
M  V30 459 H 42.4278 3.42103 -2.3949 0
M  V30 460 N 42.8649 1.48995 0.513639 0
M  V30 461 C 44.1109 1.59053 1.26783 0
M  V30 462 C 44.4659 0.268136 1.90522 0
M  V30 463 O 43.7589 -0.730534 1.77126 0
M  V30 464 C 43.9529 2.67756 2.36731 0
M  V30 465 C 43.7819 4.10437 1.83771 0
M  V30 466 C 42.5519 4.7738 1.65639 0
M  V30 467 C 44.7499 4.9608 1.35681 0
M  V30 468 N 42.7319 6.04419 1.07476 0
M  V30 469 C 44.1029 6.13496 0.895715 0
M  V30 470 C 46.1579 4.82177 1.24136 0
M  V30 471 C 44.8609 7.1854 0.3306 0
M  V30 472 C 46.8869 5.87358 0.690229 0
M  V30 473 C 46.2489 7.03993 0.239292 0
M  V30 474 H 42.3479 0.636463 0.454355 0
M  V30 475 H 44.9319 1.85948 0.577196 0
M  V30 476 H 43.1029 2.42655 3.03271 0
M  V30 477 H 44.8349 2.67406 3.0377 0
M  V30 478 H 41.5899 4.33974 1.8964 0
M  V30 479 H 42.0139 6.72214 0.803579 0
M  V30 480 H 46.6559 3.92329 1.57601 0
M  V30 481 H 44.3739 8.08098 -0.0163435 0
M  V30 482 H 47.9599 5.78658 0.603852 0
M  V30 483 H 46.8399 7.83992 -0.180526 0
M  V30 484 N 44.343 -0.763751 1.37857 0
M  V30 485 C 45.273 -1.89103 1.36975 0
M  V30 486 C 46.254 -1.68439 0.237152 0
M  V30 487 O 47.439 -1.8918 0.438713 0
M  V30 488 C 44.569 -3.26496 1.18395 0
M  V30 489 C 43.523 -3.61741 2.28751 0
M  V30 490 C 42.849 -4.97762 1.95286 0
M  V30 491 C 44.149 -3.67665 3.70972 0
M  V30 492 H 45.843 -1.90099 2.31307 0
M  V30 493 H 43.389 -0.91319 1.11341 0
M  V30 494 H 45.342 -4.05003 1.16406 0
M  V30 495 H 44.066 -3.25955 0.205215 0
M  V30 496 H 42.725 -2.85547 2.29909 0
M  V30 497 H 42.373 -4.93769 0.959221 0
M  V30 498 H 42.073 -5.22313 2.69189 0
M  V30 499 H 43.597 -5.7866 1.94898 0
M  V30 500 H 45.011 -4.36307 3.719 0
M  V30 501 H 43.408 -4.03718 4.43995 0
M  V30 502 H 44.478 -2.68134 4.0402 0
M  V30 503 N 45.8211 -1.22559 -0.990812 0
M  V30 504 C 46.7311 -1.01394 -2.11557 0
M  V30 505 C 47.7471 0.0383962 -1.73958 0
M  V30 506 O 48.9231 -0.154787 -2.00804 0
M  V30 507 C 45.9881 -0.596569 -3.41529 0
M  V30 508 C 45.0491 -1.72276 -3.93217 0
M  V30 509 C 44.2821 -1.32521 -5.16985 0
M  V30 510 O 44.5051 -0.204909 -5.70032 0
M  V30 511 O 43.4391 -2.14247 -5.62478 0
M  V30 512 H 47.2651 -1.95633 -2.32296 0
M  V30 513 H 44.8501 -1.01172 -1.0993 0
M  V30 514 H 46.7321 -0.374263 -4.19735 0
M  V30 515 H 45.4071 0.316939 -3.22145 0
M  V30 516 H 44.3141 -1.99961 -3.16174 0
M  V30 517 H 45.6471 -2.61421 -4.17037 0
M  V30 518 N 47.2992 1.18797 -1.03562 0
M  V30 519 C 48.5762 1.84469 -0.650434 0
M  V30 520 C 48.9562 1.92319 0.870433 0
M  V30 521 O 48.3042 1.44528 1.76986 0
M  V30 522 C 48.5142 3.2306 -1.32036 0
M  V30 523 C 49.8622 3.9915 -1.44792 0
M  V30 524 O 50.8862 3.32481 -1.27806 0
M  V30 525 O 49.7452 5.18587 -1.72423 0
M  V30 526 H 46.8392 0.795251 -0.226946 0
M  V30 527 H 49.3852 1.26231 -1.13419 0
M  V30 528 H 48.1572 3.1222 -2.3587 0
M  V30 529 H 47.7802 3.88949 -0.8249 0
M  V30 530 N 48.7773 0.814389 1.34928 0
M  V30 531 C 50.1883 0.458364 1.80986 0
M  V30 532 C 50.5393 -1.02042 1.67577 0
M  V30 533 O 49.6643 -1.79352 1.21086 0
M  V30 534 C 50.2593 0.825212 3.28597 0
M  V30 535 C 48.8183 0.521677 3.72767 0
M  V30 536 C 47.9653 1.04668 2.56788 0
M  V30 537 H 50.9163 1.00533 1.22795 0
M  V30 538 H 50.9373 0.12571 3.80292 0
M  V30 539 H 50.4493 1.90154 3.38324 0
M  V30 540 H 48.5503 -0.545589 3.68584 0
M  V30 541 H 48.6633 1.05977 4.67232 0
M  V30 542 H 47.0273 0.468622 2.50352 0
M  V30 543 H 47.8103 2.12927 2.6929 0
M  V30 544 N 50.2554 -1.46986 0.568584 0
M  V30 545 C 51.5324 -1.95592 -0.0174074 0
M  V30 546 C 51.9124 -1.51124 -1.47393 0
M  V30 547 O 51.2604 -0.755329 -2.15655 0
M  V30 548 C 51.4704 -3.48719 0.139913 0
M  V30 549 C 52.8184 -4.246 0.000426376 0
M  V30 550 O 53.8424 -3.56135 0.0680316 0
M  V30 551 O 52.7014 -5.46302 -0.146988 0
M  V30 552 H 49.7954 -0.82498 -0.0577599 0
M  V30 553 H 52.3414 -1.57335 0.635909 0
M  V30 554 H 51.1134 -3.73927 1.15301 0
M  V30 555 H 50.7364 -3.93771 -0.550491 0
M  V30 556 N 51.7335 -0.305618 -1.54608 0
M  V30 557 C 52.9585 0.307562 -2.05107 0
M  V30 558 C 53.3835 1.46385 -1.18123 0
M  V30 559 O 52.7415 1.8034 -0.186324 0
M  V30 560 C 52.7895 0.73704 -3.52987 0
M  V30 561 O 51.8935 1.84134 -3.6901 0
M  V30 562 H 51.2345 0.0589143 -0.661381 0
M  V30 563 H 53.7645 -0.448807 -1.99617 0
M  V30 564 H 53.7745 1.02459 -3.94925 0
M  V30 565 H 52.4495 -0.108773 -4.15758 0
M  V30 566 H 51.0265 1.55398 -3.38978 0
M  V30 567 N 53.2116 1.57565 -0.0334293 0
M  V30 568 C 54.1216 2.13943 0.962572 0
M  V30 569 C 55.1376 1.09276 1.35406 0
M  V30 570 O 56.3136 1.41355 1.4346 0
M  V30 571 C 53.3786 2.65887 2.22497 0
M  V30 572 C 52.4396 3.85286 1.8935 0
M  V30 573 C 51.6726 4.34743 3.09571 0
M  V30 574 O 51.8956 3.83352 4.22371 0
M  V30 575 O 50.8296 5.26538 2.91618 0
M  V30 576 H 54.6556 2.99333 0.513169 0
M  V30 577 H 52.2406 1.4822 0.18743 0
M  V30 578 H 54.1226 2.99346 2.96598 0
M  V30 579 H 52.7976 1.83578 2.6661 0
M  V30 580 H 51.7046 3.56746 1.1262 0
M  V30 581 H 53.0376 4.68771 1.5005 0
M  V30 582 N 54.6897 -0.239769 1.55765 0
M  V30 583 C 55.6217 -1.32001 1.87372 0
M  V30 584 C 56.6347 -1.43944 0.760522 0
M  V30 585 O 57.8237 -1.45167 1.0387 0
M  V30 586 C 54.9237 -2.69779 2.05115 0
M  V30 587 C 54.0967 -2.80014 3.36022 0
M  V30 588 C 53.1557 -3.98684 3.4342 0
M  V30 589 O 52.1817 -3.87877 4.16582 0
M  V30 590 N 53.3837 -5.12176 2.73232 0
M  V30 591 H 56.1487 -1.0522 2.80622 0
M  V30 592 H 53.7097 -0.429857 1.56089 0
M  V30 593 H 55.7017 -3.47517 2.07399 0
M  V30 594 H 54.2717 -2.89237 1.18577 0
M  V30 595 H 53.4917 -1.88896 3.45994 0
M  V30 596 H 54.7797 -2.83808 4.22292 0
M  V30 597 H 54.1777 -5.2385 2.13536 0
M  V30 598 H 52.7347 -5.88022 2.81199 0
M  V30 599 N 56.1678 -1.49265 -0.50573 0
M  V30 600 C 57.3958 -1.62215 -1.28429 0
M  V30 601 C 57.8108 -0.291697 -1.86533 0
M  V30 602 O 57.1678 0.722233 -1.67601 0
M  V30 603 C 57.2188 -2.68735 -2.41793 0
M  V30 604 O 56.9398 -3.96619 -1.86078 0
M  V30 605 C 58.4408 -2.92346 -3.3324 0
M  V30 606 H 55.6608 -0.546239 -0.389697 0
M  V30 607 H 58.2048 -1.95265 -0.607609 0
M  V30 608 H 56.3598 -2.38476 -3.053 0
M  V30 609 H 56.7738 -4.55256 -2.60465 0
M  V30 610 H 58.2478 -3.70623 -4.09075 0
M  V30 611 H 58.7248 -2.02081 -3.89948 0
M  V30 612 H 59.3308 -3.24003 -2.75503 0
M  V30 613 N 57.6459 0.756429 -1.3826 0
M  V30 614 C 58.5929 1.87011 -1.35261 0
M  V30 615 C 59.5629 1.64695 -0.215616 0
M  V30 616 O 60.7479 1.864 -0.407399 0
M  V30 617 C 57.8879 3.24275 -1.18068 0
M  V30 618 C 57.0009 3.58442 -2.41129 0
M  V30 619 C 56.1359 4.84994 -2.16689 0
M  V30 620 C 55.1749 5.11939 -3.35537 0
M  V30 621 N 54.3119 6.29685 -3.10549 0
M  V30 622 H 59.1519 1.8891 -2.30472 0
M  V30 623 H 56.6889 0.923373 -1.14509 0
M  V30 624 H 58.6469 4.03479 -1.06116 0
M  V30 625 H 57.2769 3.21711 -0.264973 0
M  V30 626 H 56.3289 2.74103 -2.63764 0
M  V30 627 H 57.6409 3.74283 -3.29717 0
M  V30 628 H 56.7949 5.72135 -2.01857 0
M  V30 629 H 55.5339 4.71286 -1.25462 0
M  V30 630 H 54.5389 4.23268 -3.50891 0
M  V30 631 H 55.7639 5.27546 -4.27635 0
M  V30 632 H 53.7099 6.17306 -2.21967 0
M  V30 633 H 53.6269 6.46014 -3.92686 0
M  V30 634 H 54.8949 7.19722 -2.99367 0
M  V30 635 N 59.124 1.23083 0.984299 0
M  V30 636 C 60.087 1.00979 2.05757 0
M  V30 637 C 61.087 -0.0269573 1.60777 0
M  V30 638 O 62.277 0.212403 1.729 0
M  V30 639 C 59.409 0.527072 3.36801 0
M  V30 640 H 60.602 1.9622 2.26799 0
M  V30 641 H 58.155 1.05072 1.15714 0
M  V30 642 H 58.89 -0.429294 3.21446 0
M  V30 643 H 58.675 1.27515 3.70786 0
M  V30 644 H 60.165 0.392942 4.15747 0
M  V30 645 N 60.6021 -1.18246 1.0419 0
M  V30 646 C 61.8491 -1.88257 0.746017 0
M  V30 647 C 62.1771 -1.80429 -0.726331 0
M  V30 648 O 61.4321 -1.2 -1.54591 0
M  V30 649 C 61.7311 -3.38082 1.15911 0
M  V30 650 C 61.3971 -3.66114 2.63195 0
M  V30 651 C 60.0591 -3.73474 3.03432 0
M  V30 652 C 62.4111 -3.78398 3.5842 0
M  V30 653 C 59.7391 -3.90599 4.37778 0
M  V30 654 C 62.0911 -3.97039 4.92487 0
M  V30 655 C 60.7551 -4.02635 5.32392 0
M  V30 656 H 60.0251 -0.688883 0.272987 0
M  V30 657 H 62.6721 -1.3995 1.30715 0
M  V30 658 H 60.9771 -3.88377 0.516806 0
M  V30 659 H 62.6741 -3.90596 0.907516 0
M  V30 660 H 59.2641 -3.61003 2.3103 0
M  V30 661 H 63.4481 -3.72042 3.28479 0
M  V30 662 H 58.7041 -3.93175 4.68213 0
M  V30 663 H 62.8781 -4.05486 5.66175 0
M  V30 664 H 60.5051 -4.15657 6.36501 0
M  V30 665 N 62.0802 -0.821533 -1.34494 0
M  V30 666 C 63.3262 -0.409552 -1.98622 0
M  V30 667 C 63.6592 1.0244 -1.64984 0
M  V30 668 O 62.9342 1.71325 -0.920758 0
M  V30 669 C 63.2172 -0.610458 -3.54888 0
M  V30 670 C 63.0702 -2.09043 -3.98273 0
M  V30 671 C 64.3892 -0.0455379 -4.40076 0
M  V30 672 H 61.5082 -0.15028 -0.721516 0
M  V30 673 H 64.1502 -1.03384 -1.59411 0
M  V30 674 H 62.3002 -0.079044 -3.8842 0
M  V30 675 H 63.9722 -2.68537 -3.75081 0
M  V30 676 H 62.2152 -2.58139 -3.48635 0
M  V30 677 H 62.8862 -2.18182 -5.07051 0
M  V30 678 H 65.3622 -0.499557 -4.1309 0
M  V30 679 H 64.2382 -0.215922 -5.48475 0
M  V30 680 H 64.4992 1.04939 -4.29465 0
M  V30 681 N 63.5583 1.46682 -0.576371 0
M  V30 682 C 64.4683 2.34032 0.163141 0
M  V30 683 C 65.4843 1.49367 0.892501 0
M  V30 684 O 66.6603 1.82252 0.857106 0
M  V30 685 C 63.7253 3.26435 1.16795 0
M  V30 686 C 62.7863 4.26998 0.443944 0
M  V30 687 C 62.0193 5.14986 1.40088 0
M  V30 688 O 62.2423 5.05785 2.637 0
M  V30 689 O 61.1763 5.94906 0.914917 0
M  V30 690 H 65.0023 2.98607 -0.55388 0
M  V30 691 H 62.5873 1.45554 -0.336821 0
M  V30 692 H 64.4693 3.83459 1.74748 0
M  V30 693 H 63.1443 2.64465 1.86655 0
M  V30 694 H 62.0513 3.7368 -0.177271 0
M  V30 695 H 63.3843 4.91736 -0.213566 0
M  V30 696 N 65.0364 0.313813 1.54444 0
M  V30 697 C 65.9994 -0.54379 2.22656 0
M  V30 698 C 66.9994 -1.05124 1.21678 0
M  V30 699 O 68.1894 -0.945225 1.46325 0
M  V30 700 C 65.3214 -1.75427 2.92298 0
M  V30 701 H 66.5144 0.0523599 2.99854 0
M  V30 702 H 64.0674 0.0647834 1.56166 0
M  V30 703 H 64.8024 -2.38991 2.19211 0
M  V30 704 H 64.5874 -1.39791 3.66334 0
M  V30 705 H 66.0774 -2.36325 3.44297 0
M  V30 706 N 66.5145 -1.57545 0.0417849 0
M  V30 707 C 67.4465 -2.07904 -0.964799 0
M  V30 708 C 68.4595 -1.00497 -1.28079 0
M  V30 709 O 69.6485 -1.28087 -1.24322 0
M  V30 710 C 66.7485 -2.49928 -2.28887 0
M  V30 711 C 65.9215 -3.80562 -2.15619 0
M  V30 712 C 64.9805 -4.08999 -3.31069 0
M  V30 713 O 64.0065 -4.79061 -3.0739 0
M  V30 714 N 65.2085 -3.6017 -4.55256 0
M  V30 715 H 67.9735 -2.94886 -0.535029 0
M  V30 716 H 65.5345 -1.61252 -0.144681 0
M  V30 717 H 67.5265 -2.66034 -3.04972 0
M  V30 718 H 66.0965 -1.68245 -2.63463 0
M  V30 719 H 65.3165 -3.74129 -1.24183 0
M  V30 720 H 66.6045 -4.66126 -2.03971 0
M  V30 721 H 66.0025 -3.03512 -4.77386 0
M  V30 722 H 64.5595 -3.81532 -5.28466 0
M  V30 723 N 67.9926 0.231505 -1.5589 0
M  V30 724 C 68.9406 1.30649 -1.92441 0
M  V30 725 C 69.9346 1.49037 -0.805254 0
M  V30 726 O 71.1406 1.50329 -0.990007 0
M  V30 727 H 67.5156 0.437812 -0.611412 0
M  V30 728 H 69.4866 0.970973 -2.82161 0
M  V30 729 C 68.2356 2.65179 -2.24889 0
M  V30 730 H 67.5586 2.51835 -3.10514 0
M  V30 731 H 68.9986 3.39234 -2.54355 0
M  V30 732 C 67.4576 3.19439 -1.07054 0
M  V30 733 O 67.9876 4.00371 -0.326499 0
M  V30 734 N 66.1936 2.77675 -0.85703 0
M  V30 735 H 65.7406 2.11969 -1.46379 0
M  V30 736 H 65.6986 3.14321 -0.0703223 0
M  V30 737 N 69.4707 1.49531 0.497807 0
M  V30 738 C 70.4177 1.66436 1.59899 0
M  V30 739 C 71.3877 0.505793 1.58212 0
M  V30 740 O 72.5727 0.733202 1.7615 0
M  V30 741 C 69.7127 1.7399 2.98029 0
M  V30 742 C 68.8257 3.01172 3.09708 0
M  V30 743 C 67.9607 2.99686 4.38591 0
M  V30 744 C 66.9997 4.21434 4.43914 0
M  V30 745 N 66.1367 4.1784 5.64229 0
M  V30 746 H 70.9767 2.60459 1.44793 0
M  V30 747 H 68.5137 1.29137 0.704423 0
M  V30 748 H 70.4717 1.76352 3.78095 0
M  V30 749 H 69.1017 0.834301 3.11832 0
M  V30 750 H 68.1537 3.08408 2.22685 0
M  V30 751 H 69.4657 3.91165 3.09502 0
M  V30 752 H 68.6197 3.00628 5.2698 0
M  V30 753 H 67.3587 2.07477 4.41367 0
M  V30 754 H 66.3637 4.20733 3.53926 0
M  V30 755 H 67.5887 5.14839 4.42851 0
M  V30 756 H 65.5347 3.28469 5.67841 0
M  V30 757 H 65.4517 5.01571 5.65652 0
M  V30 758 H 66.7197 4.22889 6.54817 0
M  V30 759 N 70.9488 -0.749086 1.3866 0
M  V30 760 C 72.1978 -1.50371 1.3443 0
M  V30 761 C 72.5108 -1.95503 -0.0616397 0
M  V30 762 O 73.7168 -2.70554 -0.226489 0
M  V30 763 C 72.1728 -2.71644 2.36088 0
M  V30 764 C 71.7808 -2.3352 3.82325 0
M  V30 765 C 73.5248 -3.49518 2.40909 0
M  V30 766 C 71.4318 -3.51431 4.75658 0
M  V30 767 H 70.3618 -0.564628 0.499712 0
M  V30 768 H 73.0128 -0.818449 1.64237 0
M  V30 769 H 71.3948 -3.42175 1.9933 0
M  V30 770 H 72.5688 -1.70627 4.28046 0
M  V30 771 H 70.8838 -1.6877 3.80665 0
M  V30 772 H 73.4808 -4.37197 3.07836 0
M  V30 773 H 73.8238 -3.90992 1.42937 0
M  V30 774 H 74.3568 -2.86005 2.76489 0
M  V30 775 H 71.0958 -3.15019 5.74842 0
M  V30 776 H 70.6158 -4.13352 4.34627 0
M  V30 777 H 72.2948 -4.17953 4.93887 0
M  V30 778 N 72.4269 -1.23603 -0.977757 0
M  V30 779 C 73.6549 -1.09646 -1.75458 0
M  V30 780 C 74.0699 0.351859 -1.85492 0
M  V30 781 O 73.4269 1.24327 -1.336 0
M  V30 782 C 73.4779 -1.71895 -3.18016 0
M  V30 783 O 73.1989 -3.11063 -3.08498 0
M  V30 784 C 74.6999 -1.63415 -4.12081 0
M  V30 785 H 71.9199 -0.38359 -0.550545 0
M  V30 786 H 74.4639 -1.63507 -1.22824 0
M  V30 787 H 72.6189 -1.22061 -3.67668 0
M  V30 788 H 73.0329 -3.41305 -3.9826 0
M  V30 789 H 74.5069 -2.11669 -5.09804 0
M  V30 790 H 74.9839 -0.593462 -4.35172 0
M  V30 791 H 75.5899 -2.12628 -3.68334 0
M  V30 792 N 73.905 1.17692 -1.04816 0
M  V30 793 C 75.151 1.88137 -0.75711 0
M  V30 794 C 75.484 1.80604 0.713841 0
M  V30 795 O 74.759 1.21146 1.52164 0
M  V30 796 C 75.042 3.38318 -1.2334 0
M  V30 797 C 74.895 3.54622 -2.76701 0
M  V30 798 C 76.214 4.32214 -0.829415 0
M  V30 799 H 73.333 0.683163 -0.27651 0
M  V30 800 H 75.975 1.38424 -1.30149 0
M  V30 801 H 74.125 3.80787 -0.770286 0
M  V30 802 H 75.797 3.21194 -3.31107 0
M  V30 803 H 74.04 2.97026 -3.16161 0
M  V30 804 H 74.711 4.60028 -3.05088 0
M  V30 805 H 77.187 3.97565 -1.22805 0
M  V30 806 H 76.063 5.35838 -1.19033 0
M  V30 807 H 76.324 4.41294 0.266891 0
M  V30 808 N 75.3831 0.828654 1.34056 0
M  V30 809 C 76.7941 0.477534 1.8049 0
M  V30 810 C 77.1451 -1.00258 1.6865 0
M  V30 811 O 76.2701 -1.78057 1.22982 0
M  V30 812 C 76.8651 0.860018 3.27703 0
M  V30 813 C 75.4241 0.561185 3.72193 0
M  V30 814 C 74.5711 1.07385 2.55663 0
M  V30 815 H 77.5221 1.0183 1.21722 0
M  V30 816 H 77.5431 0.166038 3.80138 0
M  V30 817 H 77.0551 1.93731 3.36288 0
M  V30 818 H 75.1561 -0.506465 3.69142 0
M  V30 819 H 75.2691 1.10926 4.66082 0
M  V30 820 H 73.6331 0.495149 2.49841 0
M  V30 821 H 74.4161 2.15771 2.67016 0
M  V30 822 N 76.8612 -1.46375 0.584142 0
M  V30 823 C 78.1082 -2.02378 0.0702675 0
M  V30 824 C 78.4362 -1.45545 -1.29023 0
M  V30 825 O 77.6912 -0.610967 -1.85918 0
M  V30 826 C 77.9902 -3.57373 -0.0439342 0
M  V30 827 C 77.6562 -4.33252 1.24915 0
M  V30 828 C 76.3182 -4.53701 1.60341 0
M  V30 829 C 78.6702 -4.7681 2.1048 0
M  V30 830 C 75.9982 -5.1496 2.81128 0
M  V30 831 C 78.3502 -5.39404 3.30494 0
M  V30 832 C 77.0142 -5.5808 3.66201 0
M  V30 833 H 76.2842 -0.740554 0.0257127 0
M  V30 834 H 78.9312 -1.75727 0.761065 0
M  V30 835 H 77.2362 -3.83169 -0.817869 0
M  V30 836 H 78.9332 -3.98384 -0.457318 0
M  V30 837 H 75.5232 -4.17633 0.963364 0
M  V30 838 H 79.7072 -4.60766 1.84414 0
M  V30 839 H 74.9632 -5.27611 3.08928 0
M  V30 840 H 79.1372 -5.72114 3.97063 0
M  V30 841 H 76.7642 -6.05318 4.59885 0
M  V30 842 N 78.3393 -0.321999 -1.54275 0
M  V30 843 C 79.2693 0.537411 -2.27231 0
M  V30 844 C 80.2503 1.12064 -1.27968 0
M  V30 845 O 81.4353 1.14606 -1.56777 0
M  V30 846 C 78.5653 1.69919 -3.02894 0
M  V30 847 C 77.5193 1.24534 -4.09482 0
M  V30 848 C 76.8453 2.49394 -4.72977 0
M  V30 849 C 78.1453 0.361335 -5.21049 0
M  V30 850 H 79.8393 -0.0711406 -2.99315 0
M  V30 851 H 77.3853 -0.0356555 -1.43956 0
M  V30 852 H 79.3383 2.30668 -3.52662 0
M  V30 853 H 78.0623 2.33431 -2.28424 0
M  V30 854 H 76.7213 0.660782 -3.60596 0
M  V30 855 H 76.3693 3.11265 -3.95124 0
M  V30 856 H 76.0693 2.19718 -5.44975 0
M  V30 857 H 77.5933 3.10908 -5.25517 0
M  V30 858 H 79.0073 0.875072 -5.66582 0
M  V30 859 H 77.4043 0.157428 -5.99893 0
M  V30 860 H 78.4743 -0.60822 -4.8107 0
M  V30 861 N 79.8174 1.5752 -0.0501392 0
M  V30 862 C 80.7274 2.14952 0.939827 0
M  V30 863 C 81.7434 1.10706 1.34239 0
M  V30 864 O 82.9194 1.42869 1.41952 0
M  V30 865 C 79.9844 2.68232 2.19665 0
M  V30 866 C 79.0454 3.87272 1.85253 0
M  V30 867 C 78.2784 4.38002 3.04943 0
M  V30 868 O 78.5014 3.87811 4.18281 0
M  V30 869 O 77.4354 5.29602 2.86017 0
M  V30 870 H 81.2614 2.9986 0.481392 0
M  V30 871 H 78.8464 1.4841 0.171699 0
M  V30 872 H 80.7284 3.02475 2.93406 0
M  V30 873 H 79.4034 1.86395 2.64648 0
M  V30 874 H 78.3104 3.5792 1.0883 0
M  V30 875 H 79.6434 4.70336 1.4507 0
M  V30 876 N 81.2955 -0.223234 1.56011 0
M  V30 877 C 82.2275 -1.30006 1.88762 0
M  V30 878 C 83.2405 -1.43129 0.775746 0
M  V30 879 O 84.4295 -1.44057 1.05403 0
M  V30 880 C 81.5295 -2.67589 2.07965 0
M  V30 881 C 80.7025 -2.76434 3.38973 0
M  V30 882 C 79.7615 -3.95019 3.47629 0
M  V30 883 O 78.7875 -3.83436 4.20672 0
M  V30 884 N 79.9895 -5.09249 2.78649 0
M  V30 885 H 82.7545 -1.02238 2.81722 0
M  V30 886 H 80.3155 -0.413278 1.56536 0
M  V30 887 H 82.3075 -3.45297 2.11073 0
M  V30 888 H 80.8775 -2.87964 1.21638 0
M  V30 889 H 80.0975 -1.85216 3.47978 0
M  V30 890 H 81.3855 -2.79313 4.25278 0
M  V30 891 H 80.7835 -5.21556 2.19081 0
M  V30 892 H 79.3405 -5.85007 2.8742 0
M  V30 893 N 82.7736 -1.49793 -0.48987 0
M  V30 894 C 84.0136 -1.61466 -1.25332 0
M  V30 895 C 84.3776 -0.299688 -1.89647 0
M  V30 896 O 85.5786 -0.291687 -2.67213 0
M  V30 897 C 83.8496 -2.74944 -2.28343 0
M  V30 898 S 85.4086 -3.06637 -3.13878 0
M  V30 899 H 82.2266 -0.569411 -0.425784 0
M  V30 900 H 84.8286 -1.875 -0.553541 0
M  V30 901 H 83.5326 -3.68994 -1.79643 0
M  V30 902 H 83.0636 -2.50938 -3.02975 0
M  V30 903 H 85.0786 -2.49015 -4.29192 0
M  V30 904 N 84.2517 0.741722 -1.39055 0
M  V30 905 C 85.6627 1.31966 -1.32068 0
M  V30 906 C 86.0137 1.96192 0.0180797 0
M  V30 907 O 85.1387 1.95861 0.920196 0
M  V30 908 C 85.7337 2.39954 -2.39181 0
M  V30 909 C 84.2927 2.93438 -2.35735 0
M  V30 910 C 83.4397 1.66936 -2.21422 0
M  V30 911 H 86.3907 0.539721 -1.4924 0
M  V30 912 H 86.4117 3.20182 -2.05581 0
M  V30 913 H 85.9237 1.9318 -3.36605 0
M  V30 914 H 84.0247 3.4451 -1.41929 0
M  V30 915 H 84.1377 3.4701 -3.30335 0
M  V30 916 H 82.5017 1.91016 -1.68478 0
M  V30 917 H 83.2847 1.22224 -3.20806 0
M  V30 918 N 85.7298 1.2412 0.971189 0
M  V30 919 C 86.9788 1.07284 1.70801 0
M  V30 920 C 87.2918 -0.388902 1.91695 0
M  V30 921 O 88.4978 -0.677379 2.62914 0
M  V30 922 C 86.9538 1.87145 3.07416 0
M  V30 923 C 86.5618 3.37707 2.94377 0
M  V30 924 C 88.3058 1.78828 3.84995 0
M  V30 925 C 86.2128 4.09925 4.26281 0
M  V30 926 H 85.1428 0.397854 0.64049 0
M  V30 927 H 87.7938 1.4817 1.0825 0
M  V30 928 H 86.1758 1.39071 3.70777 0
M  V30 929 H 87.3498 3.93335 2.4005 0
M  V30 930 H 85.6648 3.46938 2.30267 0
M  V30 931 H 88.2618 2.30089 4.82662 0
M  V30 932 H 88.6048 0.75284 4.09436 0
M  V30 933 H 89.1378 2.24563 3.28354 0
M  V30 934 H 85.8768 5.13813 4.07033 0
M  V30 935 H 85.3968 3.59083 4.80437 0
M  V30 936 H 87.0758 4.1673 4.94919 0
M  V30 937 N 87.2079 -1.17134 1.05439 0
M  V30 938 C 88.6239 -1.39454 0.776201 0
M  V30 939 C 88.8239 -1.91454 -0.628307 0
M  V30 940 O 87.8799 -2.10777 -1.39031 0
M  V30 941 C 89.1929 -2.38305 1.83388 0
M  V30 942 C 90.7409 -2.52006 1.85639 0
M  V30 943 C 91.2159 -3.54133 2.90437 0
M  V30 944 N 92.7069 -3.61653 2.89415 0
M  V30 945 C 93.4419 -4.4044 3.67152 0
M  V30 946 N 92.9379 -5.22721 4.54681 0
M  V30 947 N 94.7309 -4.35337 3.55581 0
M  V30 948 H 86.8819 -0.817134 1.96053 0
M  V30 949 H 89.1449 -0.421626 0.849079 0
M  V30 950 H 88.8509 -2.07173 2.84204 0
M  V30 951 H 88.7249 -3.37841 1.67761 0
M  V30 952 H 91.1119 -2.82447 0.85486 0
M  V30 953 H 91.1929 -1.52537 2.05344 0
M  V30 954 H 90.8369 -3.24431 3.90777 0
M  V30 955 H 90.7669 -4.53313 2.67983 0
M  V30 956 H 93.2579 -3.02909 2.25952 0
M  V30 957 H 93.5709 -5.80027 5.10674 0
M  V30 958 H 91.9159 -5.22093 4.58741 0
M  V30 959 H 95.1069 -3.70112 2.86592 0
M  V30 960 H 95.2799 -4.96494 4.1641 0
M  V30 961 N 88.686 -0.835752 -1.33615 0
M  V30 962 C 89.934 -0.429109 -1.97492 0
M  V30 963 C 90.255 1.01433 -1.66543 0
M  V30 964 O 89.525 1.70611 -0.962744 0
M  V30 965 H 88.105 -0.155686 -0.730596 0
M  V30 966 H 90.767 -1.06802 -1.63031 0
M  V30 967 H 89.863 -0.55861 -3.0706 0
M  V30 968 N 90.1641 1.46063 -0.591896 0
M  V30 969 C 91.0941 2.33172 0.123673 0
M  V30 970 C 92.0751 1.45897 0.87453 0
M  V30 971 O 93.2601 1.74698 0.848181 0
M  V30 972 C 90.3901 3.28336 1.13194 0
M  V30 973 C 89.3441 4.25124 0.495324 0
M  V30 974 C 88.6701 5.09863 1.61071 0
M  V30 975 C 89.9701 5.19143 -0.573425 0
M  V30 976 H 91.6641 2.93252 -0.603646 0
M  V30 977 H 89.2101 1.41014 -0.291741 0
M  V30 978 H 91.1631 3.88137 1.64097 0
M  V30 979 H 89.8871 2.66383 1.88965 0
M  V30 980 H 88.5461 3.66599 0.00729452 0
M  V30 981 H 88.1941 4.44288 2.35832 0
M  V30 982 H 87.8941 5.75417 1.19035 0
M  V30 983 H 89.4181 5.72529 2.12233 0
M  V30 984 H 90.8321 5.73106 -0.1491 0
M  V30 985 H 89.2291 5.93089 -0.914636 0
M  V30 986 H 90.2991 4.62519 -1.45617 0
M  V30 987 N 91.6422 0.330177 1.54103 0
M  V30 988 C 92.8722 -0.271784 2.04805 0
M  V30 989 C 93.2802 -1.45816 1.20559 0
M  V30 990 O 92.6232 -1.82247 0.2306 0
M  V30 991 C 92.6852 -0.763238 3.51305 0
M  V30 992 C 92.3492 0.301705 4.56003 0
M  V30 993 C 93.3462 1.13999 5.07248 0
M  V30 994 C 91.0312 0.451793 5.00264 0
M  V30 995 C 93.0252 2.11402 6.01322 0
M  V30 996 C 90.7122 1.42924 5.94151 0
M  V30 997 C 91.7102 2.25882 6.44567 0
M  V30 998 O 91.3982 3.21965 7.3661 0
M  V30 999 H 91.1302 -0.058693 0.673447 0
M  V30 1000 H 93.6842 0.476395 1.99799 0
M  V30 1001 H 91.9142 -1.56244 3.5373 0
M  V30 1002 H 93.6032 -1.28427 3.85047 0
M  V30 1003 H 94.3692 1.03505 4.73827 0
M  V30 1004 H 90.2482 -0.184044 4.60632 0
M  V30 1005 H 93.7922 2.76192 6.40596 0
M  V30 1006 H 89.6892 1.53479 6.26988 0
M  V30 1007 H 90.4572 3.17281 7.54503 0
M  V30 1008 N 93.1203 -1.57491 0.0584922 0
M  V30 1009 C 94.0673 -2.11958 -0.913376 0
M  V30 1010 C 95.0373 -1.02875 -1.30407 0
M  V30 1011 O 96.2223 -1.30464 -1.39226 0
M  V30 1012 C 93.3623 -2.67497 -2.18035 0
M  V30 1013 C 92.4753 -3.90691 -1.84349 0
M  V30 1014 C 91.6103 -4.3452 -3.05559 0
M  V30 1015 C 90.6493 -5.50395 -2.67827 0
M  V30 1016 N 89.7863 -5.89244 -3.81754 0
M  V30 1017 H 94.6263 -2.94704 -0.442017 0
M  V30 1018 H 92.1633 -1.45643 -0.206545 0
M  V30 1019 H 94.1213 -2.978 -2.92183 0
M  V30 1020 H 92.7513 -1.87537 -2.62735 0
M  V30 1021 H 91.8033 -3.66934 -1.00319 0
M  V30 1022 H 93.1153 -4.7489 -1.5258 0
M  V30 1023 H 92.2693 -4.66414 -3.87998 0
M  V30 1024 H 91.0083 -3.49147 -3.40511 0
M  V30 1025 H 90.0133 -5.18165 -1.83806 0
M  V30 1026 H 91.2383 -6.3749 -2.34059 0
M  V30 1027 H 89.1843 -5.06823 -4.16493 0
M  V30 1028 H 89.1013 -6.68151 -3.53708 0
M  V30 1029 H 90.3693 -6.25756 -4.64811 0
M  V30 1030 N 94.5984 0.214957 -1.56127 0
M  V30 1031 C 95.5084 1.28727 -1.96129 0
M  V30 1032 C 96.5244 1.50916 -0.866044 0
M  V30 1033 O 97.7004 1.63918 -1.17016 0
M  V30 1034 C 94.7654 2.61569 -2.27558 0
M  V30 1035 C 93.8264 2.47625 -3.50685 0
M  V30 1036 C 93.0594 3.74132 -3.80606 0
M  V30 1037 O 93.2824 4.77438 -3.12104 0
M  V30 1038 O 92.2164 3.70849 -4.74083 0
M  V30 1039 H 96.0424 0.977855 -2.87527 0
M  V30 1040 H 93.6274 0.418358 -1.43423 0
M  V30 1041 H 95.5094 3.40012 -2.48938 0
M  V30 1042 H 94.1844 2.92178 -1.39332 0
M  V30 1043 H 93.0914 1.67361 -3.34576 0
M  V30 1044 H 94.4244 2.21954 -4.39315 0
M  V30 1045 N 96.0765 1.50051 0.48192 0
M  V30 1046 C 97.4925 1.37237 0.814756 0
M  V30 1047 C 97.6925 0.420109 1.97072 0
M  V30 1048 O 96.7485 -0.141246 2.52105 0
M  V30 1049 C 98.0615 2.78375 1.13701 0
M  V30 1050 C 99.6095 2.87213 1.2441 0
M  V30 1051 C 100.084 4.29161 1.59954 0
M  V30 1052 N 101.575 4.32061 1.66967 0
M  V30 1053 C 102.31 5.38879 1.95952 0
M  V30 1054 N 101.806 6.55918 2.23031 0
M  V30 1055 N 103.599 5.26312 1.97363 0
M  V30 1056 H 95.7505 2.10546 -0.28005 0
M  V30 1057 H 98.0135 0.945921 -0.0627454 0
M  V30 1058 H 97.7195 3.49845 0.360787 0
M  V30 1059 H 97.5935 3.14941 2.07586 0
M  V30 1060 H 99.9805 2.15969 2.01101 0
M  V30 1061 H 100.061 2.54204 0.285299 0
M  V30 1062 H 99.7055 5.00938 0.838067 0
M  V30 1063 H 99.6355 4.59648 2.56966 0
M  V30 1064 H 102.126 3.47661 1.48123 0
M  V30 1065 H 102.439 7.33139 2.44391 0
M  V30 1066 H 100.784 6.59112 2.20447 0
M  V30 1067 H 103.975 4.33876 1.75697 0
M  V30 1068 H 104.148 6.09649 2.19618 0
M  V30 1069 N 97.5546 -0.734337 1.39446 0
M  V30 1070 C 98.4876 -1.85715 1.32609 0
M  V30 1071 C 99.4656 -1.6137 0.199636 0
M  V30 1072 O 100.65 -1.84626 0.380195 0
M  V30 1073 C 97.7766 -3.21709 1.05929 0
M  V30 1074 C 96.8226 -3.64913 2.20773 0
M  V30 1075 S 97.6556 -3.74203 3.83056 0
M  V30 1076 C 98.8116 -5.12986 3.58603 0
M  V30 1077 H 99.0446 -1.91232 2.27635 0
M  V30 1078 H 96.5776 -0.899263 1.25509 0
M  V30 1079 H 98.5356 -4.00236 0.912203 0
M  V30 1080 H 97.1966 -3.13848 0.125883 0
M  V30 1081 H 96.3896 -4.63606 1.97699 0
M  V30 1082 H 95.9916 -2.93593 2.31688 0
M  V30 1083 H 98.2836 -5.99339 3.15909 0
M  V30 1084 H 99.2266 -5.41088 4.5676 0
M  V30 1085 H 99.6346 -4.82694 2.9269 0
M  V30 1086 N 99.0327 -1.24633 -0.964593 0
M  V30 1087 C 100.261 -1.11501 -1.74285 0
M  V30 1088 C 100.676 0.332165 -1.85855 0
M  V30 1089 O 100.033 1.22903 -1.34911 0
M  V30 1090 C 100.084 -1.75258 -3.16175 0
M  V30 1091 O 99.8047 -3.14318 -3.05182 0
M  V30 1092 C 101.306 -1.67776 -4.10324 0
M  V30 1093 H 98.5257 -0.389407 -0.546446 0
M  V30 1094 H 101.07 -1.64801 -1.21083 0
M  V30 1095 H 99.2247 -1.25954 -3.66353 0
M  V30 1096 H 99.6387 -3.4551 -3.94618 0
M  V30 1097 H 101.113 -2.17064 -5.0753 0
M  V30 1098 H 101.59 -0.639584 -4.34518 0
M  V30 1099 H 102.196 -2.16522 -3.66058 0
M  V30 1100 N 100.511 1.16574 -1.06058 0
M  V30 1101 C 101.421 2.2452 -0.680282 0
M  V30 1102 C 102.437 1.71348 0.302604 0
M  V30 1103 O 103.613 2.00822 0.152513 0
M  V30 1104 C 100.678 3.46629 -0.0700315 0
M  V30 1105 C 99.7388 4.14849 -1.10448 0
M  V30 1106 C 98.9718 5.31129 -0.523256 0
M  V30 1107 O 99.1948 5.66514 0.664709 0
M  V30 1108 O 98.1288 5.88526 -1.26179 0
M  V30 1109 H 101.955 2.59355 -1.58015 0
M  V30 1110 H 99.5398 1.24043 -0.832694 0
M  V30 1111 H 101.422 4.20543 0.268667 0
M  V30 1112 H 100.097 3.13573 0.803353 0
M  V30 1113 H 99.0038 3.42916 -1.49532 0
M  V30 1114 H 100.337 4.51954 -1.94931 0
M  V30 1115 N 101.989 0.842826 1.3317 0
M  V30 1116 C 102.919 0.294028 2.31641 0
M  V30 1117 C 103.9 -0.600401 1.59151 0
M  V30 1118 O 105.085 -0.523124 1.87022 0
M  V30 1119 C 102.215 -0.528416 3.43257 0
M  V30 1120 C 101.169 0.27056 4.27144 0
M  V30 1121 C 100.495 -0.675881 5.30411 0
M  V30 1122 C 101.795 1.48981 5.00602 0
M  V30 1123 H 103.489 1.11681 2.77791 0
M  V30 1124 H 101.035 0.538478 1.33553 0
M  V30 1125 H 102.988 -0.922674 4.11175 0
M  V30 1126 H 101.712 -1.38445 2.95805 0
M  V30 1127 H 100.371 0.646427 3.60856 0
M  V30 1128 H 100.019 -1.52842 4.79216 0
M  V30 1129 H 99.7189 -0.145374 5.8742 0
M  V30 1130 H 101.243 -1.06757 6.01195 0
M  V30 1131 H 102.657 1.16849 5.61266 0
M  V30 1132 H 101.054 1.95739 5.6728 0
M  V30 1133 H 102.124 2.25746 4.29147 0
M  V30 1134 N 103.467 -1.45747 0.599634 0
M  V30 1135 C 104.697 -2.06369 0.0977132 0
M  V30 1136 C 105.105 -1.44624 -1.21985 0
M  V30 1137 O 104.448 -0.551831 -1.75216 0
M  V30 1138 C 104.51 -3.59284 -0.124673 0
M  V30 1139 C 104.174 -4.43318 1.10987 0
M  V30 1140 C 105.171 -4.78796 2.02609 0
M  V30 1141 C 102.856 -4.84194 1.33647 0
M  V30 1142 C 104.85 -5.53997 3.15224 0
M  V30 1143 C 102.537 -5.5915 2.46565 0
M  V30 1144 C 103.535 -5.93968 3.37182 0
M  V30 1145 O 103.223 -6.67405 4.48136 0
M  V30 1146 H 102.955 -0.673122 0.0623153 0
M  V30 1147 H 105.509 -1.88104 0.824981 0
M  V30 1148 H 103.739 -3.75919 -0.906745 0
M  V30 1149 H 105.428 -4.01775 -0.577201 0
M  V30 1150 H 106.194 -4.47781 1.86325 0
M  V30 1151 H 102.073 -4.56534 0.64016 0
M  V30 1152 H 105.617 -5.81091 3.85978 0
M  V30 1153 H 101.514 -5.89579 2.62805 0
M  V30 1154 H 102.282 -6.85847 4.46717 0
M  V30 1155 N 104.945 -0.338344 -1.53925 0
M  V30 1156 C 106.222 0.314774 -1.93051 0
M  V30 1157 C 106.602 1.68669 -1.26941 0
M  V30 1158 O 105.95 2.24636 -0.418445 0
M  V30 1159 C 106.16 0.392249 -3.46789 0
M  V30 1160 C 107.508 0.645554 -4.19664 0
M  V30 1161 O 108.532 0.474575 -3.53024 0
M  V30 1162 O 107.391 0.976408 -5.37707 0
M  V30 1163 H 104.485 0.182598 -0.80659 0
M  V30 1164 H 107.031 -0.389141 -1.65178 0
M  V30 1165 H 105.803 -0.570702 -3.87116 0
M  V30 1166 H 105.426 1.14316 -3.80812 0
M  V30 1167 N 106.423 1.57458 -0.0668435 0
M  V30 1168 C 107.653 1.97337 0.611677 0
M  V30 1169 C 108.061 0.943744 1.63982 0
M  V30 1170 O 107.404 -0.0785584 1.83532 0
M  V30 1171 C 107.466 3.33511 1.34205 0
M  V30 1172 C 107.13 4.54598 0.467941 0
M  V30 1173 C 108.127 5.19186 -0.272439 0
M  V30 1174 C 105.812 5.0075 0.39427 0
M  V30 1175 C 107.806 6.28274 -1.07476 0
M  V30 1176 C 105.493 6.09711 -0.411729 0
M  V30 1177 C 106.491 6.73335 -1.14492 0
M  V30 1178 O 106.179 7.80199 -1.93763 0
M  V30 1179 H 105.911 0.654042 0.170893 0
M  V30 1180 H 108.465 2.04961 -0.134289 0
M  V30 1181 H 106.695 3.22487 2.13398 0
M  V30 1182 H 108.384 3.58029 1.91233 0
M  V30 1183 H 109.15 4.84477 -0.225086 0
M  V30 1184 H 105.029 4.51009 0.954569 0
M  V30 1185 H 108.573 6.77866 -1.64755 0
M  V30 1186 H 104.47 6.43854 -0.460664 0
M  V30 1187 H 105.238 7.97053 -1.86142 0
M  V30 1188 N 107.901 -0.206675 1.56239 0
M  V30 1189 C 109.312 -0.772383 1.69974 0
M  V30 1190 C 109.663 -1.84353 0.671436 0
M  V30 1191 O 108.788 -2.15695 -0.174491 0
M  V30 1192 C 109.383 -1.40779 3.08167 0
M  V30 1193 C 107.942 -1.92072 3.23706 0
M  V30 1194 C 107.089 -0.786347 2.65917 0
M  V30 1195 H 110.04 0.0182223 1.5869 0
M  V30 1196 H 110.061 -2.27696 3.04852 0
M  V30 1197 H 109.573 -0.627958 3.82986 0
M  V30 1198 H 107.674 -2.7281 2.53782 0
M  V30 1199 H 107.787 -2.09046 4.31087 0
M  V30 1200 H 106.151 -1.1976 2.24788 0
M  V30 1201 H 106.934 -0.0189416 3.43295 0
M  V30 1202 N 109.379 -1.50304 -0.473955 0
M  V30 1203 C 110.326 -1.68959 -1.57231 0
M  V30 1204 C 111.296 -0.530899 -1.57387 0
M  V30 1205 O 112.481 -0.761133 -1.74961 0
M  V30 1206 C 109.621 -1.7871 -2.95223 0
M  V30 1207 C 108.734 -3.06061 -3.04878 0
M  V30 1208 C 107.869 -3.06626 -4.33767 0
M  V30 1209 C 106.908 -4.28443 -4.37154 0
M  V30 1210 N 106.045 -4.26763 -5.5751 0
M  V30 1211 H 110.885 -2.6273 -1.40631 0
M  V30 1212 H 108.422 -1.30241 -0.683789 0
M  V30 1213 H 110.38 -1.82344 -3.75242 0
M  V30 1214 H 109.01 -0.883806 -3.10465 0
M  V30 1215 H 108.062 -3.11911 -2.17751 0
M  V30 1216 H 109.374 -3.96039 -3.0324 0
M  V30 1217 H 108.528 -3.08973 -5.22131 0
M  V30 1218 H 107.267 -2.14473 -4.3801 0
M  V30 1219 H 106.272 -4.2631 -3.47188 0
M  V30 1220 H 107.497 -5.2182 -4.34605 0
M  V30 1221 H 105.443 -3.37462 -5.62544 0
M  V30 1222 H 105.36 -5.10507 -5.57601 0
M  V30 1223 H 106.628 -4.33253 -6.48006 0
M  V30 1224 N 110.857 0.726932 -1.39834 0
M  V30 1225 C 112.087 1.51393 -1.40583 0
M  V30 1226 C 112.495 1.892 -0.000740625 0
M  V30 1227 O 111.838 1.55189 0.982951 0
M  V30 1228 C 111.9 2.82588 -2.22226 0
M  V30 1229 C 111.564 2.67169 -3.70769 0
M  V30 1230 C 112.561 2.3518 -4.63666 0
M  V30 1231 C 110.246 2.83788 -4.14451 0
M  V30 1232 C 112.24 2.20002 -5.98229 0
M  V30 1233 C 109.927 2.68229 -5.49087 0
M  V30 1234 C 110.925 2.36382 -6.4079 0
M  V30 1235 O 110.613 2.2093 -7.72946 0
M  V30 1236 H 110.345 0.474168 -0.48181 0
M  V30 1237 H 112.899 0.905247 -1.84376 0
M  V30 1238 H 111.129 3.45746 -1.73195 0
M  V30 1239 H 112.818 3.44247 -2.15055 0
M  V30 1240 H 113.584 2.21984 -4.31217 0
M  V30 1241 H 109.463 3.07566 -3.43401 0
M  V30 1242 H 113.007 1.95067 -6.69772 0
M  V30 1243 H 108.904 2.81006 -5.81125 0
M  V30 1244 H 109.672 2.35937 -7.83757 0
M  V30 1245 N 112.336 1.25143 0.95797 0
M  V30 1246 C 113.561 1.12521 1.74223 0
M  V30 1247 C 113.986 -0.317402 1.85403 0
M  V30 1248 O 113.344 -1.2299 1.33204 0
M  V30 1249 C 113.392 1.78062 3.1357 0
M  V30 1250 O 112.496 1.058 3.98598 0
M  V30 1251 H 111.837 0.39304 0.535178 0
M  V30 1252 H 114.367 1.65641 1.201 0
M  V30 1253 H 114.377 1.84213 3.64046 0
M  V30 1254 H 113.052 2.83021 3.04749 0
M  V30 1255 H 111.629 1.07506 3.57067 0
M  V30 1256 N 113.814 -1.1601 1.06675 0
M  V30 1257 C 115.054 -1.88304 0.795037 0
M  V30 1258 C 115.418 -1.80062 -0.666466 0
M  V30 1259 O 116.619 -2.47319 -1.05293 0
M  V30 1260 C 114.89 -3.33664 1.28076 0
M  V30 1261 S 116.449 -4.23768 1.13868 0
M  V30 1262 H 113.267 -0.649928 0.288296 0
M  V30 1263 H 115.869 -1.4001 1.36445 0
M  V30 1264 H 114.573 -3.37203 2.33927 0
M  V30 1265 H 114.104 -3.87009 0.706253 0
M  V30 1266 H 116.119 -4.96148 0.0719668 0
M  V30 1267 N 115.292 -0.849877 -1.32721 0
M  V30 1268 C 116.242 -0.262892 -2.26479 0
M  V30 1269 C 117.226 0.588493 -1.49752 0
M  V30 1270 O 118.418 0.438659 -1.71478 0
M  V30 1271 C 115.547 0.551818 -3.38836 0
M  V30 1272 C 114.633 -0.311689 -4.22953 0
M  V30 1273 N 115.024 -1.39567 -4.86163 0
M  V30 1274 C 113.322 -0.100611 -4.45887 0
M  V30 1275 C 114.023 -1.92651 -5.48872 0
M  V30 1276 N 112.999 -1.22637 -5.29586 0
M  V30 1277 H 116.801 -1.09166 -2.72873 0
M  V30 1278 H 114.315 -0.695486 -1.46754 0
M  V30 1279 H 116.312 0.988713 -4.05006 0
M  V30 1280 H 114.972 1.37844 -2.93988 0
M  V30 1281 H 115.983 -1.77859 -4.86402 0
M  V30 1282 H 112.66 0.691681 -4.11731 0
M  V30 1283 H 114.05 -2.83487 -6.09167 0
M  V30 1284 N 116.77 1.45427 -0.607355 0
M  V30 1285 C 118.017 2.02241 -0.102455 0
M  V30 1286 C 118.345 1.4758 1.26691 0
M  V30 1287 O 117.6 0.640468 1.84923 0
M  V30 1288 C 117.899 3.57398 -0.0129263 0
M  V30 1289 C 117.565 4.3121 -1.31792 0
M  V30 1290 C 116.227 4.51092 -1.67539 0
M  V30 1291 C 118.579 4.73401 -2.18039 0
M  V30 1292 C 115.907 5.10422 -2.89285 0
M  V30 1293 C 118.259 5.34078 -3.39034 0
M  V30 1294 C 116.923 5.52184 -3.75033 0
M  V30 1295 H 116.193 0.740051 -0.037491 0
M  V30 1296 H 118.84 1.74494 -0.788926 0
M  V30 1297 H 117.145 3.84421 0.756806 0
M  V30 1298 H 118.842 3.99061 0.393881 0
M  V30 1299 H 115.432 4.16047 -1.02968 0
M  V30 1300 H 119.616 4.57774 -1.91721 0
M  V30 1301 H 114.872 5.22629 -3.17283 0
M  V30 1302 H 119.046 5.65724 -4.06115 0
M  V30 1303 H 116.673 5.97925 -4.69457 0
M  V30 1304 N 118.248 0.346503 1.53744 0
M  V30 1305 C 119.195 -0.508914 2.25119 0
M  V30 1306 C 120.165 -1.09315 1.25058 0
M  V30 1307 O 121.35 -1.12921 1.53797 0
M  V30 1308 C 118.49 -1.65246 3.02965 0
M  V30 1309 C 117.603 -1.09525 4.17886 0
M  V30 1310 C 116.738 -2.20634 4.83212 0
M  V30 1311 C 115.777 -1.62279 5.90196 0
M  V30 1312 N 114.914 -2.67143 6.49291 0
M  V30 1313 H 119.754 0.106283 2.9781 0
M  V30 1314 H 117.291 0.0642227 1.4696 0
M  V30 1315 H 119.249 -2.32574 3.4636 0
M  V30 1316 H 117.879 -2.2386 2.32565 0
M  V30 1317 H 116.931 -0.312818 3.79112 0
M  V30 1318 H 118.243 -0.628444 4.94825 0
M  V30 1319 H 117.397 -2.95821 5.29693 0
M  V30 1320 H 116.136 -2.70659 4.05703 0
M  V30 1321 H 115.141 -0.855989 5.43096 0
M  V30 1322 H 116.366 -1.13102 6.69615 0
M  V30 1323 H 114.312 -3.16417 5.74645 0
M  V30 1324 H 114.229 -2.25093 7.21713 0
M  V30 1325 H 115.497 -3.4209 7.00425 0
M  V30 1326 N 119.726 -1.57421 0.075193 0
M  V30 1327 C 120.673 -2.12915 -0.890843 0
M  V30 1328 C 121.643 -1.04252 -1.29309 0
M  V30 1329 O 122.828 -1.31933 -1.37834 0
M  V30 1330 C 119.968 -2.69795 -2.15186 0
M  V30 1331 C 119.081 -3.92624 -1.80194 0
M  V30 1332 C 118.216 -4.37736 -3.00933 0
M  V30 1333 C 117.255 -5.53205 -2.61974 0
M  V30 1334 N 116.392 -5.9326 -3.75483 0
M  V30 1335 H 121.232 -2.95156 -0.410735 0
M  V30 1336 H 118.769 -1.45854 -0.191086 0
M  V30 1337 H 120.727 -3.00883 -2.89008 0
M  V30 1338 H 119.357 -1.90313 -2.60731 0
M  V30 1339 H 118.409 -3.67977 -0.964218 0
M  V30 1340 H 119.721 -4.76482 -1.47534 0
M  V30 1341 H 118.875 -4.70503 -3.8303 0
M  V30 1342 H 117.614 -3.52739 -3.36789 0
M  V30 1343 H 116.619 -5.20086 -1.783 0
M  V30 1344 H 117.844 -6.39936 -2.27284 0
M  V30 1345 H 115.79 -5.11212 -4.11094 0
M  V30 1346 H 115.707 -6.71865 -3.46602 0
M  V30 1347 H 116.975 -6.30651 -4.58148 0
M  V30 1348 N 121.204 0.198386 -1.56346 0
M  V30 1349 C 122.452 0.91747 -1.80075 0
M  V30 1350 C 122.773 1.83929 -0.647692 0
M  V30 1351 O 122.043 1.93029 0.334166 0
M  V30 1352 H 120.623 0.341774 -0.664228 0
M  V30 1353 H 123.285 0.204684 -1.93822 0
M  V30 1354 H 122.381 1.51055 -2.7311 0
M  V30 1355 N 122.682 1.50554 0.465978 0
M  V30 1356 C 123.629 1.6979 1.56333 0
M  V30 1357 C 124.599 0.539239 1.57103 0
M  V30 1358 O 125.784 0.770401 1.74555 0
M  V30 1359 C 122.924 1.80273 2.94271 0
M  V30 1360 C 122.037 3.07674 3.0325 0
M  V30 1361 C 121.172 3.08922 4.32135 0
M  V30 1362 C 120.211 4.30755 4.34875 0
M  V30 1363 N 119.348 4.29714 5.55239 0
M  V30 1364 H 124.188 2.63472 1.39235 0
M  V30 1365 H 121.725 1.30602 0.676873 0
M  V30 1366 H 123.683 1.84332 3.74269 0
M  V30 1367 H 122.313 0.900258 3.09992 0
M  V30 1368 H 121.365 3.13062 2.16094 0
M  V30 1369 H 122.677 3.97642 3.01135 0
M  V30 1370 H 121.831 3.11738 5.20485 0
M  V30 1371 H 120.57 2.16792 4.36866 0
M  V30 1372 H 119.575 4.28146 3.44922 0
M  V30 1373 H 120.8 5.24117 4.31831 0
M  V30 1374 H 118.746 3.4044 5.60746 0
M  V30 1375 H 118.663 5.13456 5.54886 0
M  V30 1376 H 119.931 4.36683 6.457 0
M  V30 1377 N 124.16 -0.719506 1.40217 0
M  V30 1378 C 125.576 -1.02707 1.22161 0
M  V30 1379 C 125.776 -2.0128 0.0940557 0
M  V30 1380 O 124.832 -2.46452 -0.549318 0
M  V30 1381 C 126.145 -1.57454 2.56181 0
M  V30 1382 C 127.693 -1.69458 2.63159 0
M  V30 1383 C 128.168 -2.27611 3.97438 0
M  V30 1384 N 129.659 -2.35002 3.99159 0
M  V30 1385 C 130.394 -2.80972 4.99842 0
M  V30 1386 N 129.89 -3.26723 6.10921 0
M  V30 1387 N 131.683 -2.80321 4.87213 0
M  V30 1388 H 123.834 -0.0660492 2.12297 0
M  V30 1389 H 126.097 -0.0919077 0.943534 0
M  V30 1390 H 125.803 -0.924873 3.39321 0
M  V30 1391 H 125.677 -2.56036 2.76993 0
M  V30 1392 H 128.064 -2.33543 1.80393 0
M  V30 1393 H 128.145 -0.694867 2.46181 0
M  V30 1394 H 127.789 -1.6415 4.80643 0
M  V30 1395 H 127.719 -3.2829 4.11744 0
M  V30 1396 H 130.21 -2.02685 3.18947 0
M  V30 1397 H 130.523 -3.60355 6.8364 0
M  V30 1398 H 128.868 -3.24692 6.14492 0
M  V30 1399 H 132.059 -2.43912 3.9953 0
M  V30 1400 H 132.232 -3.15831 5.65822 0
M  V30 1401 N 125.638 -1.25649 -0.95132 0
M  V30 1402 C 126.868 -1.13179 -1.72841 0
M  V30 1403 C 127.276 0.316827 -1.86528 0
M  V30 1404 O 126.619 1.22948 -1.3649 0
M  V30 1405 C 126.681 -1.71644 -3.15878 0
M  V30 1406 C 126.345 -3.20667 -3.25609 0
M  V30 1407 C 127.342 -4.17616 -3.09666 0
M  V30 1408 C 125.027 -3.6094 -3.49324 0
M  V30 1409 C 127.021 -5.52817 -3.17289 0
M  V30 1410 C 124.708 -4.96278 -3.56584 0
M  V30 1411 C 125.706 -5.92025 -3.40581 0
M  V30 1412 O 125.394 -7.24899 -3.47528 0
M  V30 1413 H 125.126 -0.395389 -0.54831 0
M  V30 1414 H 127.68 -1.66566 -1.20187 0
M  V30 1415 H 125.91 -1.12707 -3.69911 0
M  V30 1416 H 127.599 -1.54225 -3.75459 0
M  V30 1417 H 128.365 -3.87842 -2.91211 0
M  V30 1418 H 124.244 -2.86907 -3.6084 0
M  V30 1419 H 127.788 -6.2753 -3.04716 0
M  V30 1420 H 123.685 -5.25716 -3.74556 0
M  V30 1421 H 124.453 -7.33039 -3.64138 0
M  V30 1422 N 127.117 1.15442 -1.07289 0
M  V30 1423 C 128.364 1.86213 -0.795668 0
M  V30 1424 C 128.692 1.82291 0.678238 0
M  V30 1425 O 127.947 1.24057 1.51355 0
M  V30 1426 C 128.246 3.3489 -1.24834 0
M  V30 1427 C 127.912 3.59007 -2.72809 0
M  V30 1428 C 126.574 3.65298 -3.13227 0
M  V30 1429 C 128.926 3.68762 -3.68326 0
M  V30 1430 C 126.254 3.78854 -4.4798 0
M  V30 1431 C 128.606 3.83842 -5.0284 0
M  V30 1432 C 127.27 3.88378 -5.4288 0
M  V30 1433 H 126.54 0.681403 -0.291155 0
M  V30 1434 H 129.187 1.36435 -1.34379 0
M  V30 1435 H 127.492 3.8687 -0.619595 0
M  V30 1436 H 129.189 3.88052 -1.01076 0
M  V30 1437 H 125.779 3.5475 -2.40521 0
M  V30 1438 H 129.963 3.63202 -3.38227 0
M  V30 1439 H 125.219 3.80623 -4.78472 0
M  V30 1440 H 129.393 3.90332 -5.76727 0
M  V30 1441 H 127.02 3.98635 -6.47298 0
M  V30 1442 N 128.595 0.856903 1.32268 0
M  V30 1443 C 129.825 0.47475 2.01071 0
M  V30 1444 C 130.233 -0.933746 1.64553 0
M  V30 1445 O 129.576 -1.62114 0.863989 0
M  V30 1446 C 129.638 0.536746 3.55471 0
M  V30 1447 C 129.302 1.90453 4.15423 0
M  V30 1448 C 130.299 2.87029 4.33486 0
M  V30 1449 C 127.984 2.20229 4.51447 0
M  V30 1450 C 129.978 4.11532 4.86744 0
M  V30 1451 C 127.665 3.44984 5.0441 0
M  V30 1452 C 128.663 4.40452 5.22007 0
M  V30 1453 O 128.351 5.62998 5.73837 0
M  V30 1454 H 128.083 0.184778 0.650256 0
M  V30 1455 H 130.637 1.15615 1.69771 0
M  V30 1456 H 128.867 -0.20152 3.86175 0
M  V30 1457 H 130.556 0.169875 4.05544 0
M  V30 1458 H 131.322 2.6533 4.05986 0
M  V30 1459 H 127.201 1.46705 4.37034 0
M  V30 1460 H 130.745 4.86056 5.00395 0
M  V30 1461 H 126.642 3.66532 5.31342 0
M  V30 1462 H 127.41 5.64987 5.92226 0
M  V30 1463 N 130.073 -1.45103 0.615059 0
M  V30 1464 C 131.32 -2.02183 0.113179 0
M  V30 1465 C 131.648 -1.48249 -1.25906 0
M  V30 1466 O 130.903 -0.650265 -1.84581 0
M  V30 1467 C 131.202 -3.57386 0.0318797 0
M  V30 1468 C 130.868 -4.30505 1.34077 0
M  V30 1469 C 129.53 -4.50197 1.69929 0
M  V30 1470 C 131.882 -4.72238 2.20546 0
M  V30 1471 C 129.21 -5.08881 2.91988 0
M  V30 1472 C 131.562 -5.32272 3.41861 0
M  V30 1473 C 130.226 -5.50187 3.77956 0
M  V30 1474 H 129.496 -0.739842 0.0414151 0
M  V30 1475 H 132.143 -1.74073 0.798168 0
M  V30 1476 H 130.448 -3.84817 -0.736409 0
M  V30 1477 H 132.145 -3.99264 -0.372712 0
M  V30 1478 H 128.735 -4.15496 1.05173 0
M  V30 1479 H 132.919 -4.56751 1.94146 0
M  V30 1480 H 128.175 -5.20939 3.2005 0
M  V30 1481 H 132.349 -5.63563 4.09109 0
M  V30 1482 H 129.976 -5.95427 4.72622 0
M  V30 1483 N 131.551 -0.354651 -1.53558 0
M  V30 1484 C 132.781 0.239167 -2.05211 0
M  V30 1485 C 133.189 1.43879 -1.22863 0
M  V30 1486 O 132.532 1.81857 -0.259565 0
M  V30 1487 C 132.594 0.707251 -3.52474 0
M  V30 1488 C 132.258 -0.374212 -4.55465 0
M  V30 1489 C 133.255 -1.22054 -5.0537 0
M  V30 1490 C 130.94 -0.531323 -4.99482 0
M  V30 1491 C 132.934 -2.20942 -5.97882 0
M  V30 1492 C 130.621 -1.52358 -5.91802 0
M  V30 1493 C 131.619 -2.36108 -6.40892 0
M  V30 1494 O 131.307 -3.33643 -7.31394 0
M  V30 1495 H 131.039 0.0479716 -0.674296 0
M  V30 1496 H 133.593 -0.508121 -1.99016 0
M  V30 1497 H 131.823 1.50596 -3.56171 0
M  V30 1498 H 133.512 1.22285 -3.87042 0
M  V30 1499 H 134.278 -1.1103 -4.7212 0
M  V30 1500 H 130.157 0.110738 -4.60867 0
M  V30 1501 H 133.701 -2.86348 -6.36121 0
M  V30 1502 H 129.598 -1.63434 -6.24467 0
M  V30 1503 H 130.366 -3.29244 -7.4936 0
M  V30 1504 N 133.029 1.57378 -0.0835403 0
M  V30 1505 C 133.977 2.14602 0.89714 0
M  V30 1506 C 134.971 1.08589 1.30018 0
M  V30 1507 O 136.177 1.26952 1.27606 0
M  V30 1508 H 132.552 0.686346 0.3073 0
M  V30 1509 H 134.523 2.95845 0.38969 0
M  V30 1510 C 133.272 2.73188 2.15089 0
M  V30 1511 H 132.595 3.54442 1.84962 0
M  V30 1512 H 134.035 3.1681 2.81793 0
M  V30 1513 C 132.494 1.68517 2.91725 0
M  V30 1514 O 133.024 1.11718 3.85852 0
M  V30 1515 N 131.23 1.39277 2.55049 0
M  V30 1516 H 130.777 1.85655 1.78577 0
M  V30 1517 H 130.735 0.694791 3.06627 0
M  V30 1518 N 134.507 -0.190092 1.56449 0
M  V30 1519 C 135.735 -0.925772 1.85033 0
M  V30 1520 C 136.15 -1.76638 0.666658 0
M  V30 1521 O 135.507 -1.78822 -0.364565 0
M  V30 1522 C 135.558 -1.81786 3.12468 0
M  V30 1523 O 135.279 -1.01118 4.26271 0
M  V30 1524 C 136.78 -2.6648 3.54265 0
M  V30 1525 H 134 -0.269872 0.614337 0
M  V30 1526 H 136.544 -0.195837 2.0356 0
M  V30 1527 H 134.699 -2.50136 2.95822 0
M  V30 1528 H 135.113 -1.61956 4.98869 0
M  V30 1529 H 136.587 -3.24722 4.46385 0
M  V30 1530 H 137.064 -3.40434 2.77491 0
M  V30 1531 H 137.67 -2.03493 3.73458 0
M  V30 1532 N 135.985 -1.50799 -0.457987 0
M  V30 1533 C 137.233 -1.62121 -1.2067 0
M  V30 1534 C 137.554 -0.329793 -1.92191 0
M  V30 1535 O 136.824 0.653409 -1.84682 0
M  V30 1536 H 135.404 -0.597441 -0.448411 0
M  V30 1537 H 138.066 -1.87637 -0.527096 0
M  V30 1538 H 137.162 -2.43882 -1.94751 0
M  V30 1539 N 137.463 0.71206 -1.40597 0
M  V30 1540 C 138.393 1.83889 -1.43899 0
M  V30 1541 C 139.374 1.67442 -0.299504 0
M  V30 1542 O 140.559 1.87421 -0.508624 0
M  V30 1543 C 137.689 3.21877 -1.30431 0
M  V30 1544 C 136.643 3.53002 -2.42019 0
M  V30 1545 C 135.969 4.90172 -2.13626 0
M  V30 1546 C 137.269 3.53643 -3.84362 0
M  V30 1547 H 138.963 1.81383 -2.38203 0
M  V30 1548 H 136.509 0.871237 -1.14654 0
M  V30 1549 H 138.462 4.00404 -1.31357 0
M  V30 1550 H 137.186 3.24968 -0.326049 0
M  V30 1551 H 135.845 2.76818 -2.40349 0
M  V30 1552 H 135.493 4.89869 -1.14182 0
M  V30 1553 H 135.193 5.11962 -2.88389 0
M  V30 1554 H 136.717 5.71028 -2.1624 0
M  V30 1555 H 138.131 4.22203 -3.87837 0
M  V30 1556 H 136.528 3.86961 -4.58673 0
M  V30 1557 H 137.598 2.52954 -4.13693 0
M  V30 1558 N 138.941 1.26152 0.944643 0
M  V30 1559 C 139.873 1.03199 2.04652 0
M  V30 1560 C 140.886 -0.00642356 1.62799 0
M  V30 1561 O 142.075 0.233263 1.76969 0
M  V30 1562 C 139.175 0.540111 3.34568 0
M  V30 1563 C 138.348 1.64697 4.05208 0
M  V30 1564 C 137.407 1.15374 5.13396 0
M  V30 1565 O 136.433 1.85013 5.38293 0
M  V30 1566 N 137.635 0.00031529 5.805 0
M  V30 1567 H 140.4 1.9808 2.2491 0
M  V30 1568 H 137.961 1.17491 1.11389 0
M  V30 1569 H 139.953 0.194401 4.04233 0
M  V30 1570 H 138.523 -0.315021 3.11009 0
M  V30 1571 H 137.743 2.16379 3.29506 0
M  V30 1572 H 139.031 2.3903 4.49157 0
M  V30 1573 H 138.429 -0.581336 5.62705 0
M  V30 1574 H 136.986 -0.286346 6.51171 0
M  V30 1575 N 140.419 -1.14872 1.07899 0
M  V30 1576 C 141.367 -2.21857 0.698727 0
M  V30 1577 C 142.361 -1.66845 -0.293086 0
M  V30 1578 O 143.567 -1.79321 -0.156204 0
M  V30 1579 H 139.942 -0.722691 0.207899 0
M  V30 1580 H 141.913 -2.51205 1.61054 0
M  V30 1581 C 140.662 -3.47498 0.11858 0
M  V30 1582 H 139.985 -3.90154 0.872914 0
M  V30 1583 H 141.425 -4.23858 -0.109759 0
M  V30 1584 C 139.884 -3.16947 -1.1422 0
M  V30 1585 O 140.414 -3.3426 -2.22785 0
M  V30 1586 N 138.62 -2.70946 -1.05055 0
M  V30 1587 H 138.167 -2.57058 -0.167038 0
M  V30 1588 H 138.125 -2.50879 -1.89491 0
M  V30 1589 N 141.898 -0.863906 -1.31812 0
M  V30 1590 C 142.83 -0.272485 -2.27575 0
M  V30 1591 C 143.843 0.56104 -1.52827 0
M  V30 1592 O 145.032 0.384021 -1.7432 0
M  V30 1593 C 142.132 0.63283 -3.32939 0
M  V30 1594 C 141.305 -0.166902 -4.37081 0
M  V30 1595 C 140.364 0.665608 -5.21973 0
M  V30 1596 O 139.39 0.0958091 -5.69119 0
M  V30 1597 N 140.592 1.9787 -5.45736 0
M  V30 1598 H 143.357 -1.0954 -2.78964 0
M  V30 1599 H 140.918 -0.724791 -1.4477 0
M  V30 1600 H 142.91 1.19532 -3.86645 0
M  V30 1601 H 141.48 1.35642 -2.81638 0
M  V30 1602 H 140.7 -0.910838 -3.83533 0
M  V30 1603 H 141.988 -0.715874 -5.03739 0
M  V30 1604 H 141.386 2.46484 -5.09178 0
M  V30 1605 H 139.943 2.48911 -6.024 0
M  V30 1606 N 143.376 1.44774 -0.622745 0
M  V30 1607 C 144.792 1.56986 -0.287652 0
M  V30 1608 C 144.992 1.61167 1.20944 0
M  V30 1609 O 144.048 1.55015 1.99315 0
M  V30 1610 C 145.361 2.84551 -0.972188 0
M  V30 1611 C 146.909 2.9825 -0.949536 0
M  V30 1612 C 147.384 4.28605 -1.61437 0
M  V30 1613 N 148.875 4.35399 -1.58057 0
M  V30 1614 C 149.61 5.34964 -2.064 0
M  V30 1615 N 149.106 6.40981 -2.62897 0
M  V30 1616 N 150.899 5.26419 -1.97078 0
M  V30 1617 H 143.05 1.40304 -1.59463 0
M  V30 1618 H 145.313 0.671794 -0.668878 0
M  V30 1619 H 145.019 2.87417 -2.02693 0
M  V30 1620 H 144.893 3.73807 -0.504771 0
M  V30 1621 H 147.28 2.94941 0.0967067 0
M  V30 1622 H 147.361 2.10364 -1.45536 0
M  V30 1623 H 147.005 4.32672 -2.66002 0
M  V30 1624 H 146.935 5.15334 -1.08344 0
M  V30 1625 H 149.426 3.59397 -1.16801 0
M  V30 1626 H 149.739 7.13225 -2.97539 0
M  V30 1627 H 148.084 6.4169 -2.66943 0
M  V30 1628 H 151.275 4.42504 -1.52669 0
M  V30 1629 H 151.448 6.03861 -2.35066 0
M  V30 1630 N 144.854 0.36279 1.53368 0
M  V30 1631 C 146.1 -0.228113 2.01513 0
M  V30 1632 C 146.433 -1.48648 1.2497 0
M  V30 1633 O 145.708 -1.91459 0.342616 0
M  V30 1634 C 145.991 -0.522884 3.56284 0
M  V30 1635 C 145.844 0.74892 4.43521 0
M  V30 1636 C 147.163 -1.32461 4.19693 0
M  V30 1637 H 144.282 -0.0814343 0.732487 0
M  V30 1638 H 146.924 0.48713 1.83649 0
M  V30 1639 H 145.074 -1.1322 3.71636 0
M  V30 1640 H 146.746 1.38648 4.39971 0
M  V30 1641 H 144.989 1.36986 4.11603 0
M  V30 1642 H 145.66 0.497667 5.49752 0
M  V30 1643 H 148.136 -0.809203 4.08156 0
M  V30 1644 H 147.012 -1.49961 5.28018 0
M  V30 1645 H 147.273 -2.33232 3.75573 0
M  V30 1646 N 146.332 -1.57332 0.0918853 0
M  V30 1647 C 147.262 -2.16872 -0.865371 0
M  V30 1648 C 148.243 -1.10118 -1.29646 0
M  V30 1649 O 149.428 -1.38242 -1.36392 0
M  V30 1650 C 146.558 -2.74649 -2.12569 0
M  V30 1651 C 145.512 -3.86747 -1.83333 0
M  V30 1652 C 144.838 -4.31212 -3.16166 0
M  V30 1653 C 146.138 -5.10089 -1.1228 0
M  V30 1654 H 147.832 -2.97114 -0.369307 0
M  V30 1655 H 145.378 -1.42918 -0.176194 0
M  V30 1656 H 147.331 -3.14952 -2.7997 0
M  V30 1657 H 146.055 -1.91657 -2.64452 0
M  V30 1658 H 144.714 -3.46978 -1.18331 0
M  V30 1659 H 144.362 -3.45115 -3.6593 0
M  V30 1660 H 144.062 -5.06788 -2.97388 0
M  V30 1661 H 145.586 -4.74146 -3.84731 0
M  V30 1662 H 147 -5.47582 -1.69785 0
M  V30 1663 H 145.397 -5.91073 -1.03693 0
M  V30 1664 H 146.467 -4.84786 -0.105041 0
M  V30 1665 N 147.81 0.181792 -1.56548 0
M  V30 1666 C 149.04 0.914618 -1.85252 0
M  V30 1667 C 149.448 1.76791 -0.673914 0
M  V30 1668 O 148.791 1.80009 0.366416 0
M  V30 1669 C 148.853 1.85019 -3.08234 0
M  V30 1670 C 148.517 1.17754 -4.41569 0
M  V30 1671 C 149.514 0.548035 -5.17003 0
M  V30 1672 C 147.199 1.17742 -4.88305 0
M  V30 1673 C 149.193 -0.0726128 -6.37359 0
M  V30 1674 C 146.88 0.552946 -6.08593 0
M  V30 1675 C 147.878 -0.070978 -6.82963 0
M  V30 1676 O 147.566 -0.685635 -8.00971 0
M  V30 1677 H 147.298 0.271695 -0.618998 0
M  V30 1678 H 149.852 0.189944 -2.0452 0
M  V30 1679 H 148.082 2.61491 -2.84885 0
M  V30 1680 H 149.771 2.45195 -3.23472 0
M  V30 1681 H 150.537 0.540174 -4.81982 0
M  V30 1682 H 146.416 1.65246 -4.30366 0
M  V30 1683 H 149.96 -0.560213 -6.95347 0
M  V30 1684 H 145.857 0.558354 -6.43081 0
M  V30 1685 H 146.625 -0.58385 -8.16415 0
M  V30 1686 N 149.288 1.51039 0.449983 0
M  V30 1687 C 150.534 1.63322 1.20223 0
M  V30 1688 C 150.867 0.34241 1.91158 0
M  V30 1689 O 150.142 -0.657344 1.83055 0
M  V30 1690 C 150.425 2.82801 2.22925 0
M  V30 1691 C 150.278 4.21823 1.56157 0
M  V30 1692 C 151.597 2.97807 3.24035 0
M  V30 1693 H 148.716 0.594407 0.435718 0
M  V30 1694 H 151.358 1.83489 0.493136 0
M  V30 1695 H 149.508 2.65738 2.834 0
M  V30 1696 H 151.18 4.50526 0.991162 0
M  V30 1697 H 149.423 4.25105 0.864172 0
M  V30 1698 H 150.094 5.01391 2.30891 0
M  V30 1699 H 152.57 3.13497 2.73603 0
M  V30 1700 H 151.446 3.82992 3.93202 0
M  V30 1701 H 151.707 2.09328 3.89402 0
M  V30 1702 N 150.766 -0.704594 1.40972 0
M  V30 1703 C 151.698 -1.82974 1.38033 0
M  V30 1704 C 152.711 -1.60305 0.283931 0
M  V30 1705 O 153.9 -1.69975 0.545042 0
M  V30 1706 C 151 -3.19578 1.12795 0
M  V30 1707 C 150.173 -3.69352 2.34302 0
M  V30 1708 C 149.232 -4.84601 2.05058 0
M  V30 1709 O 148.258 -4.96682 2.7802 0
M  V30 1710 N 149.46 -5.71194 1.03528 0
M  V30 1711 H 152.225 -1.85991 2.35005 0
M  V30 1712 H 149.786 -0.886567 1.35468 0
M  V30 1713 H 151.778 -3.9429 0.911987 0
M  V30 1714 H 150.348 -3.11642 0.24452 0
M  V30 1715 H 149.568 -2.85649 2.71659 0
M  V30 1716 H 150.856 -3.99345 3.1528 0
M  V30 1717 H 150.254 -5.64054 0.431217 0
M  V30 1718 H 148.811 -6.45843 0.879205 0
M  V30 1719 N 152.244 -1.26651 -0.937939 0
M  V30 1720 C 153.521 -1.0313 -1.66204 0
M  V30 1721 C 153.901 0.437256 -2.06522 0
M  V30 1722 O 153.249 1.41831 -1.79154 0
M  V30 1723 C 153.459 -1.98314 -2.87181 0
M  V30 1724 C 154.807 -2.27107 -3.58758 0
M  V30 1725 O 155.831 -1.96205 -2.97291 0
M  V30 1726 O 154.69 -2.79736 -4.69479 0
M  V30 1727 H 151.784 -0.392384 -0.727986 0
M  V30 1728 H 154.33 -1.37874 -0.989382 0
M  V30 1729 H 153.102 -2.97399 -2.54302 0
M  V30 1730 H 152.725 -1.64068 -3.6217 0
M  V30 1731 N 153.722 1.14298 -1.08507 0
M  V30 1732 C 154.947 1.8976 -0.837001 0
M  V30 1733 C 155.372 1.78097 0.605228 0
M  V30 1734 O 154.73 1.12188 1.4242 0
M  V30 1735 C 154.778 3.37685 -1.26495 0
M  V30 1736 O 153.882 4.10281 -0.417514 0
M  V30 1737 H 153.223 0.590365 -0.303917 0
M  V30 1738 H 155.753 1.44672 -1.44676 0
M  V30 1739 H 155.763 3.88501 -1.24625 0
M  V30 1740 H 154.438 3.45492 -2.31534 0
M  V30 1741 H 153.015 3.69536 -0.499722 0
M  V30 1742 N 155.201 0.870884 1.31352 0
M  V30 1743 C 156.131 0.343096 2.30966 0
M  V30 1744 C 157.112 -0.566507 1.60389 0
M  V30 1745 O 158.297 -0.483336 1.88089 0
M  V30 1746 C 155.427 -0.455487 3.443 0
M  V30 1747 C 154.381 0.361103 4.26474 0
M  V30 1748 C 153.707 -0.563221 5.31725 0
M  V30 1749 C 155.007 1.59566 4.97329 0
M  V30 1750 H 156.701 1.17548 2.75359 0
M  V30 1751 H 154.247 0.566686 1.32381 0
M  V30 1752 H 156.2 -0.83525 4.13039 0
M  V30 1753 H 154.924 -1.32139 2.98675 0
M  V30 1754 H 153.583 0.722825 3.59403 0
M  V30 1755 H 153.231 -1.42643 4.82351 0
M  V30 1756 H 152.931 -0.0207409 5.87596 0
M  V30 1757 H 154.455 -0.939808 6.03324 0
M  V30 1758 H 155.869 1.28728 5.58661 0
M  V30 1759 H 154.266 2.07728 5.63 0
M  V30 1760 H 155.336 2.34798 4.24262 0
M  V30 1761 N 156.679 -1.44442 0.630414 0
M  V30 1762 C 157.589 -2.34476 -0.0761693 0
M  V30 1763 C 158.605 -1.52576 -0.836449 0
M  V30 1764 O 159.781 -1.85307 -0.788874 0
M  V30 1765 C 156.846 -3.30545 -1.04599 0
M  V30 1766 C 155.907 -4.28352 -0.28516 0
M  V30 1767 C 155.14 -5.19831 -1.20878 0
M  V30 1768 O 155.363 -5.15223 -2.44747 0
M  V30 1769 O 154.297 -5.97892 -0.693491 0
M  V30 1770 H 158.123 -2.96345 0.664324 0
M  V30 1771 H 155.708 -1.44203 0.39061 0
M  V30 1772 H 157.59 -3.89681 -1.60396 0
M  V30 1773 H 156.265 -2.7121 -1.76711 0
M  V30 1774 H 155.172 -3.72764 0.315837 0
M  V30 1775 H 156.505 -4.90605 0.395924 0
M  V30 1776 N 158.157 -0.370918 -1.53173 0
M  V30 1777 C 159.405 0.216673 -2.00935 0
M  V30 1778 C 159.726 1.48845 -1.25977 0
M  V30 1779 O 158.996 1.92286 -0.374551 0
M  V30 1780 H 157.576 0.0830565 -0.742368 0
M  V30 1781 H 160.238 -0.49838 -1.8842 0
M  V30 1782 H 159.334 0.439893 -3.08984 0
M  V30 1783 N 159.635 1.57281 -0.100228 0
M  V30 1784 C 160.545 2.17833 0.870965 0
M  V30 1785 C 161.561 1.14921 1.30649 0
M  V30 1786 O 162.737 1.47313 1.37335 0
M  V30 1787 C 159.802 2.75085 2.1102 0
M  V30 1788 C 158.863 3.9297 1.72838 0
M  V30 1789 C 158.096 4.47482 2.90854 0
M  V30 1790 O 158.319 4.00922 4.05731 0
M  V30 1791 O 157.253 5.38433 2.69023 0
M  V30 1792 H 161.079 3.0124 0.38575 0
M  V30 1793 H 158.664 1.48881 0.124397 0
M  V30 1794 H 160.546 3.11656 2.83634 0
M  V30 1795 H 159.221 1.94721 2.58584 0
M  V30 1796 H 158.128 3.61201 0.973883 0
M  V30 1797 H 159.461 4.74713 1.30033 0
M  V30 1798 N 161.113 -0.173488 1.56642 0
M  V30 1799 C 162.076 -1.19859 1.95362 0
M  V30 1800 C 163.076 -1.37296 0.83704 0
M  V30 1801 O 164.266 -1.34739 1.10413 0
M  V30 1802 C 161.398 -2.56405 2.24654 0
M  V30 1803 H 162.591 -0.867062 2.87092 0
M  V30 1804 H 160.144 -0.415853 1.50666 0
M  V30 1805 H 160.879 -2.94576 1.35631 0
M  V30 1806 H 160.664 -2.45115 3.06041 0
M  V30 1807 H 162.154 -3.30287 2.5554 0
M  V30 1808 N 162.591 -1.51276 -0.441967 0
M  V30 1809 C 164.007 -1.39349 -0.778083 0
M  V30 1810 C 164.207 -0.472212 -1.95889 0
M  V30 1811 O 163.263 0.0743551 -2.5239 0
M  V30 1812 C 164.576 -2.81292 -1.0628 0
M  V30 1813 C 166.124 -2.9041 -1.16751 0
M  V30 1814 C 166.599 -4.33251 -1.48519 0
M  V30 1815 N 168.09 -4.36336 -1.55453 0
M  V30 1816 C 168.825 -5.43885 -1.81596 0
M  V30 1817 N 168.321 -6.61601 -2.05562 0
M  V30 1818 N 170.114 -5.3136 -1.8334 0
M  V30 1819 H 162.265 -2.09729 0.335774 0
M  V30 1820 H 164.528 -0.943925 0.0878028 0
M  V30 1821 H 164.234 -3.50678 -0.267905 0
M  V30 1822 H 164.108 -3.20334 -1.99163 0
M  V30 1823 H 166.495 -2.21225 -1.95304 0
M  V30 1824 H 166.576 -2.54871 -0.217801 0
M  V30 1825 H 166.22 -5.02984 -0.704958 0
M  V30 1826 H 166.15 -4.66299 -2.44689 0
M  V30 1827 H 168.641 -3.51466 -1.38853 0
M  V30 1828 H 168.954 -7.39361 -2.24867 0
M  V30 1829 H 167.299 -6.64725 -2.02894 0
M  V30 1830 H 170.49 -4.38382 -1.64132 0
M  V30 1831 H 170.663 -6.15258 -2.03377 0
M  V30 1832 N 164.069 0.697108 -1.41344 0
M  V30 1833 C 165.315 1.4593 -1.40827 0
M  V30 1834 C 165.648 1.94193 -0.0167098 0
M  V30 1835 O 164.923 1.69425 0.955263 0
M  V30 1836 C 165.206 2.67229 -2.41373 0
M  V30 1837 C 165.059 2.24741 -3.8963 0
M  V30 1838 C 166.378 3.69423 -2.39196 0
M  V30 1839 H 163.497 0.529303 -0.512842 0
M  V30 1840 H 166.139 0.794112 -1.72609 0
M  V30 1841 H 164.289 3.23982 -2.14401 0
M  V30 1842 H 165.961 1.73327 -4.27499 0
M  V30 1843 H 164.204 1.56542 -4.0457 0
M  V30 1844 H 164.875 3.1177 -4.55525 0
M  V30 1845 H 167.351 3.2234 -2.63128 0
M  V30 1846 H 166.227 4.51907 -3.11563 0
M  V30 1847 H 166.488 4.19012 -1.41001 0
M  V30 1848 N 165.547 1.27147 0.931209 0
M  V30 1849 C 166.794 1.13278 1.67852 0
M  V30 1850 C 167.122 -0.32204 1.91815 0
M  V30 1851 O 166.377 -1.25224 1.50391 0
M  V30 1852 C 166.676 1.8579 3.05314 0
M  V30 1853 C 166.342 3.35657 3.01073 0
M  V30 1854 C 165.004 3.76536 2.99623 0
M  V30 1855 C 167.356 4.31299 2.92627 0
M  V30 1856 C 164.684 5.11426 2.87506 0
M  V30 1857 C 167.036 5.66242 2.82051 0
M  V30 1858 C 165.7 6.06418 2.7895 0
M  V30 1859 H 164.97 0.414515 0.614214 0
M  V30 1860 H 167.617 1.57712 1.08624 0
M  V30 1861 H 165.922 1.33854 3.68226 0
M  V30 1862 H 167.619 1.72491 3.62005 0
M  V30 1863 H 164.209 3.03146 3.02986 0
M  V30 1864 H 168.393 4.00692 2.92848 0
M  V30 1865 H 163.649 5.41705 2.83489 0
M  V30 1866 H 167.823 6.40026 2.74481 0
M  V30 1867 H 165.45 7.10895 2.69318 0
M  V30 1868 N 167.025 -1.13721 1.09112 0
M  V30 1869 C 167.955 -2.21148 0.749385 0
M  V30 1870 C 168.936 -1.6792 -0.271475 0
M  V30 1871 O 170.121 -1.93693 -0.140251 0
M  V30 1872 C 167.251 -3.46905 0.165659 0
M  V30 1873 C 166.205 -4.13203 1.11567 0
M  V30 1874 C 165.531 -5.33248 0.393809 0
M  V30 1875 C 166.831 -4.60912 2.45678 0
M  V30 1876 H 168.525 -2.4999 1.64758 0
M  V30 1877 H 166.071 -1.20156 0.793626 0
M  V30 1878 H 168.024 -4.21313 -0.085466 0
M  V30 1879 H 166.748 -3.17449 -0.767714 0
M  V30 1880 H 165.407 -3.40758 1.35202 0
M  V30 1881 H 165.055 -5.00054 -0.543599 0
M  V30 1882 H 164.755 -5.78552 1.02721 0
M  V30 1883 H 166.279 -6.10413 0.150908 0
M  V30 1884 H 167.693 -5.26759 2.26269 0
M  V30 1885 H 166.09 -5.16944 3.04776 0
M  V30 1886 H 167.16 -3.75603 3.06677 0
M  V30 1887 N 168.503 -0.877838 -1.30888 0
M  V30 1888 C 169.78 -0.413052 -1.91189 0
M  V30 1889 C 170.16 1.1056 -1.79832 0
M  V30 1890 O 169.508 1.93771 -1.21099 0
M  V30 1891 C 169.718 -0.903191 -3.3711 0
M  V30 1892 C 171.066 -0.93395 -4.14201 0
M  V30 1893 O 172.09 -0.849373 -3.45925 0
M  V30 1894 O 170.949 -1.05772 -5.36167 0
M  V30 1895 H 168.043 -0.125035 -0.817493 0
M  V30 1896 H 170.589 -0.966269 -1.39504 0
M  V30 1897 H 169.361 -1.94692 -3.39427 0
M  V30 1898 H 168.984 -0.328732 -3.96239 0
M  V30 1899 N 169.982 1.44106 -0.638065 0
M  V30 1900 C 171.393 1.85316 -0.226894 0
M  V30 1901 C 171.744 1.53399 1.22324 0
M  V30 1902 O 170.869 0.975463 1.93167 0
M  V30 1903 C 171.464 3.3637 -0.405013 0
M  V30 1904 C 170.023 3.76369 -0.0482902 0
M  V30 1905 C 169.17 2.67921 -0.715108 0
M  V30 1906 H 172.121 1.34474 -0.842764 0
M  V30 1907 H 172.142 3.7885 0.354 0
M  V30 1908 H 171.654 3.59569 -1.46053 0
M  V30 1909 H 169.755 3.58784 1.00522 0
M  V30 1910 H 169.868 4.76856 -0.463187 0
M  V30 1911 H 168.232 2.54259 -0.149753 0
M  V30 1912 H 169.015 2.93951 -1.77335 0
M  V30 1913 N 171.46 0.379036 1.52974 0
M  V30 1914 C 172.408 -0.476033 2.27677 0
M  V30 1915 C 173.402 -1.0719 1.31174 0
M  V30 1916 O 174.608 -1.01355 1.48752 0
M  V30 1917 H 170.983 -0.172255 0.732006 0
M  V30 1918 H 172.954 0.175615 2.97883 0
M  V30 1919 C 171.703 -1.5967 3.0887 0
M  V30 1920 H 171.026 -1.1475 3.82978 0
M  V30 1921 H 172.466 -2.16943 3.64296 0
M  V30 1922 C 170.925 -2.54682 2.20542 0
M  V30 1923 O 171.455 -3.57836 1.82527 0
M  V30 1924 N 169.661 -2.24183 1.84907 0
M  V30 1925 H 169.208 -1.40333 2.1602 0
M  V30 1926 H 169.166 -2.88006 1.26096 0
M  V30 1927 N 172.938 -1.57226 0.108567 0
M  V30 1928 C 174.187 -1.94008 -0.551703 0
M  V30 1929 C 174.5 -0.993442 -1.68494 0
M  V30 1930 O 175.706 -1.25551 -2.40726 0
M  V30 1931 C 174.162 -3.44763 -1.03279 0
M  V30 1932 C 173.77 -4.47943 0.0714193 0
M  V30 1933 C 175.514 -3.90483 -1.66503 0
M  V30 1934 C 173.421 -5.89865 -0.425779 0
M  V30 1935 H 172.351 -0.724206 -0.209863 0
M  V30 1936 H 175.002 -1.82547 0.186741 0
M  V30 1937 H 173.384 -3.51422 -1.82533 0
M  V30 1938 H 174.558 -4.52942 0.847365 0
M  V30 1939 H 172.873 -4.11913 0.609669 0
M  V30 1940 H 175.47 -4.93925 -2.04798 0
M  V30 1941 H 175.813 -3.29877 -2.53942 0
M  V30 1942 H 176.346 -3.86581 -0.938074 0
M  V30 1943 H 173.085 -6.54202 0.412316 0
M  V30 1944 H 172.605 -5.88309 -1.16843 0
M  V30 1945 H 174.284 -6.40844 -0.890397 0
M  V30 1946 N 174.416 0.165178 -1.56732 0
M  V30 1947 C 175.346 1.20651 -1.99914 0
M  V30 1948 C 176.327 1.45827 -0.875705 0
M  V30 1949 O 177.512 1.57057 -1.14223 0
M  V30 1950 C 174.642 2.54401 -2.36427 0
M  V30 1951 C 173.596 2.43782 -3.51787 0
M  V30 1952 C 172.922 3.82078 -3.7406 0
M  V30 1953 C 174.222 1.93732 -4.85041 0
M  V30 1954 H 175.916 0.847534 -2.87154 0
M  V30 1955 H 173.462 0.40625 -1.38151 0
M  V30 1956 H 175.415 3.27458 -2.65234 0
M  V30 1957 H 174.139 2.92098 -1.46103 0
M  V30 1958 H 172.798 1.73178 -3.23117 0
M  V30 1959 H 172.446 4.17179 -2.81017 0
M  V30 1960 H 172.146 3.7584 -4.51684 0
M  V30 1961 H 173.67 4.56712 -4.05274 0
M  V30 1962 H 175.084 2.56569 -5.12684 0
M  V30 1963 H 173.481 1.98428 -5.66345 0
M  V30 1964 H 174.551 0.891962 -4.76626 0
M  V30 1965 N 175.894 1.51508 0.433938 0
M  V30 1966 C 177.119 1.68443 1.21003 0
M  V30 1967 C 177.544 0.382636 1.84167 0
M  V30 1968 O 176.902 -0.65755 1.68956 0
M  V30 1969 C 176.95 2.80405 2.26727 0
M  V30 1970 O 176.054 2.44245 3.32292 0
M  V30 1971 H 175.395 0.561536 0.354363 0
M  V30 1972 H 177.925 1.9809 0.512024 0
M  V30 1973 H 177.935 3.0459 2.71457 0
M  V30 1974 H 176.61 3.74867 1.80132 0
M  V30 1975 H 175.187 2.30644 2.93015 0
M  V30 1976 N 177.372 -0.689602 1.41712 0
M  V30 1977 C 178.649 -1.44457 1.31877 0
M  V30 1978 C 179.029 -2.11039 -0.0508537 0
M  V30 1979 O 178.377 -2.02138 -1.06547 0
M  V30 1980 C 178.587 -2.45913 2.47645 0
M  V30 1981 C 179.935 -3.10991 2.89084 0
M  V30 1982 O 180.959 -2.56238 2.47428 0
M  V30 1983 O 179.818 -4.10174 3.61137 0
M  V30 1984 H 176.912 -0.64362 0.519309 0
M  V30 1985 H 179.458 -0.719576 1.53689 0
M  V30 1986 H 178.23 -1.95409 3.39015 0
M  V30 1987 H 177.853 -3.25913 2.27742 0
M  V30 1988 N 178.85 -1.27639 -0.924453 0
M  V30 1989 C 180.127 -1.04887 -1.651 0
M  V30 1990 C 180.507 0.415327 -2.06974 0
M  V30 1991 O 179.855 1.39923 -1.80648 0
M  V30 1992 C 180.065 -2.01348 -2.85061 0
M  V30 1993 C 181.413 -2.30899 -3.56329 0
M  V30 1994 O 182.437 -1.99348 -2.95193 0
M  V30 1995 O 181.296 -2.84699 -4.66485 0
M  V30 1996 H 178.39 -0.400083 -0.723784 0
M  V30 1997 H 180.936 -1.38916 -0.974703 0
M  V30 1998 H 179.708 -3.0008 -2.51133 0
M  V30 1999 H 179.331 -1.679 -3.6041 0
M  V30 2000 N 180.328 1.1314 -1.09713 0
M  V30 2001 C 181.576 1.84119 -0.833338 0
M  V30 2002 C 181.897 1.84097 0.642904 0
M  V30 2003 O 181.167 1.29881 1.46655 0
M  V30 2004 H 179.747 0.681766 -0.305293 0
M  V30 2005 H 182.409 1.37038 -1.38588 0
M  V30 2006 H 181.505 2.88543 -1.18951 0
M  V30 2007 N 181.806 0.884767 1.30421 0
M  V30 2008 C 183.034 0.518044 2.0031 0
M  V30 2009 C 183.449 -0.893408 1.66324 0
M  V30 2010 O 182.806 -1.5875 0.900262 0
M  V30 2011 C 182.857 0.682997 3.54989 0
M  V30 2012 O 182.578 2.03888 3.87764 0
M  V30 2013 C 184.079 0.31924 4.42149 0
M  V30 2014 H 181.299 0.200265 0.640418 0
M  V30 2015 H 183.843 1.19001 1.6631 0
M  V30 2016 H 181.998 0.0584052 3.87356 0
M  V30 2017 H 182.412 2.05735 4.82466 0
M  V30 2018 H 183.886 0.485555 5.4986 0
M  V30 2019 H 184.363 -0.742717 4.32875 0
M  V30 2020 H 184.969 0.920147 4.15227 0
M  V30 2021 N 183.284 -1.43765 0.645699 0
M  V30 2022 C 184.53 -2.02197 0.156271 0
M  V30 2023 C 184.863 -1.50776 -1.22393 0
M  V30 2024 O 184.138 -0.697771 -1.81553 0
M  V30 2025 C 184.421 -3.59749 0.158872 0
M  V30 2026 C 184.274 -4.21419 1.57245 0
M  V30 2027 C 185.593 -4.37149 -0.50879 0
M  V30 2028 H 182.712 -0.734694 0.0582602 0
M  V30 2029 H 185.354 -1.71157 0.824951 0
M  V30 2030 H 183.504 -3.86325 -0.410525 0
M  V30 2031 H 185.176 -4.059 2.19186 0
M  V30 2032 H 183.419 -3.78356 2.122 0
M  V30 2033 H 184.09 -5.30482 1.52619 0
M  V30 2034 H 186.566 -4.16093 -0.024412 0
M  V30 2035 H 185.442 -5.4683 -0.476213 0
M  V30 2036 H 185.703 -4.12839 -1.58165 0
M  V30 2037 N 184.763 -0.387143 -1.52771 0
M  V30 2038 C 185.726 0.436939 -2.24997 0
M  V30 2039 C 186.726 0.991991 -1.26555 0
M  V30 2040 O 187.916 0.874335 -1.50669 0
M  V30 2041 C 185.048 1.61281 -3.00335 0
M  V30 2042 H 186.241 -0.195365 -2.99263 0
M  V30 2043 H 183.794 -0.139218 -1.55679 0
M  V30 2044 H 184.529 2.2826 -2.30364 0
M  V30 2045 H 184.314 1.22154 -3.72587 0
M  V30 2046 H 185.804 2.19629 -3.5518 0
M  V30 2047 N 186.241 1.57166 -0.116904 0
M  V30 2048 C 187.171 2.18222 0.830759 0
M  V30 2049 C 188.152 1.12167 1.27877 0
M  V30 2050 O 189.337 1.40394 1.34176 0
M  V30 2051 C 186.467 2.77996 2.08172 0
M  V30 2052 C 185.421 3.89614 1.77157 0
M  V30 2053 C 184.747 4.36187 3.09265 0
M  V30 2054 C 186.047 5.1181 1.04151 0
M  V30 2055 H 187.741 2.97664 0.321992 0
M  V30 2056 H 185.287 1.4318 0.153434 0
M  V30 2057 H 187.24 3.19366 2.74924 0
M  V30 2058 H 185.964 1.9584 2.6137 0
M  V30 2059 H 184.623 3.48816 1.12796 0
M  V30 2060 H 184.271 3.50893 3.60393 0
M  V30 2061 H 183.971 5.11455 2.89288 0
M  V30 2062 H 185.495 4.80207 3.77139 0
M  V30 2063 H 186.909 5.50214 1.61052 0
M  V30 2064 H 185.306 5.92648 0.942762 0
M  V30 2065 H 186.376 4.84892 0.0279022 0
M  V30 2066 N 187.719 -0.156864 1.56817 0
M  V30 2067 C 189.135 -0.50916 1.5126 0
M  V30 2068 C 189.335 -1.83897 0.823658 0
M  V30 2069 O 188.391 -2.49469 0.390055 0
M  V30 2070 C 189.704 -0.52857 2.96018 0
M  V30 2071 C 191.252 -0.614771 3.06903 0
M  V30 2072 C 191.727 -0.664938 4.53147 0
M  V30 2073 N 193.218 -0.727433 4.57452 0
M  V30 2074 C 193.953 -0.787067 5.67973 0
M  V30 2075 N 193.449 -0.806649 6.88088 0
M  V30 2076 N 195.242 -0.827195 5.5598 0
M  V30 2077 H 187.393 0.714935 2.00006 0
M  V30 2078 H 189.656 0.259526 0.911784 0
M  V30 2079 H 189.362 0.380154 3.49639 0
M  V30 2080 H 189.236 -1.36998 3.51442 0
M  V30 2081 H 191.623 -1.51392 2.53307 0
M  V30 2082 H 191.704 0.253597 2.5454 0
M  V30 2083 H 191.348 0.230011 5.07379 0
M  V30 2084 H 191.278 -1.54966 5.03282 0
M  V30 2085 H 193.769 -0.719998 3.70978 0
M  V30 2086 H 194.082 -0.853727 7.6807 0
M  V30 2087 H 192.427 -0.774687 6.90669 0
M  V30 2088 H 195.618 -0.808998 4.61056 0
M  V30 2089 H 195.791 -0.870206 6.4213 0
M  V30 2090 N 189.197 -1.51736 -0.425897 0
M  V30 2091 C 190.445 -1.64644 -1.17204 0
M  V30 2092 C 190.766 -0.370486 -1.91448 0
M  V30 2093 O 190.036 0.614088 -1.86026 0
M  V30 2094 H 188.616 -0.606819 -0.435638 0
M  V30 2095 H 191.278 -1.88713 -0.487177 0
M  V30 2096 H 190.374 -2.47958 -1.89534 0
M  V30 2097 N 190.675 0.682077 -1.42076 0
M  V30 2098 C 191.905 1.46844 -1.45329 0
M  V30 2099 C 192.313 1.89102 -0.0609328 0
M  V30 2100 O 191.656 1.58238 0.933082 0
M  V30 2101 C 191.718 2.75375 -2.31104 0
M  V30 2102 C 191.382 2.55238 -3.79081 0
M  V30 2103 C 192.379 2.20309 -4.70914 0
M  V30 2104 C 190.064 2.70459 -4.2327 0
M  V30 2105 C 192.058 2.00859 -6.04925 0
M  V30 2106 C 189.745 2.50624 -5.57343 0
M  V30 2107 C 190.743 2.15876 -6.47986 0
M  V30 2108 O 190.431 1.96227 -7.79583 0
M  V30 2109 H 190.163 0.4586 -0.496651 0
M  V30 2110 H 192.717 0.846131 -1.87162 0
M  V30 2111 H 190.947 3.40061 -1.84107 0
M  V30 2112 H 192.636 3.37231 -2.25898 0
M  V30 2113 H 193.402 2.08153 -4.38061 0
M  V30 2114 H 189.281 2.96485 -3.53012 0
M  V30 2115 H 192.825 1.7366 -6.75639 0
M  V30 2116 H 188.722 2.62375 -5.89771 0
M  V30 2117 H 189.49 2.10883 -7.90867 0
M  V30 2118 N 192.153 1.28127 0.917671 0
M  V30 2119 C 193.116 1.11744 2.00115 0
M  V30 2120 C 194.116 0.0583052 1.60694 0
M  V30 2121 O 195.306 0.303755 1.71531 0
M  V30 2122 C 192.438 0.704862 3.33533 0
M  V30 2123 H 193.631 2.07966 2.16079 0
M  V30 2124 H 191.184 1.11058 1.09981 0
M  V30 2125 H 191.919 -0.258299 3.2327 0
M  V30 2126 H 191.704 1.4699 3.63505 0
M  V30 2127 H 193.194 0.612768 4.1308 0
M  V30 2128 N 193.631 -1.12557 1.10312 0
M  V30 2129 C 194.878 -1.84038 0.844759 0
M  V30 2130 C 195.206 -1.84026 -0.629668 0
M  V30 2131 O 194.461 -1.28026 -1.48013 0
M  V30 2132 C 194.76 -3.31462 1.33669 0
M  V30 2133 C 194.426 -3.51647 2.82232 0
M  V30 2134 C 193.088 -3.56864 3.22802 0
M  V30 2135 C 195.44 -3.58867 3.77974 0
M  V30 2136 C 192.768 -3.66844 4.57867 0
M  V30 2137 C 195.12 -3.70375 5.1284 0
M  V30 2138 C 193.784 -3.73848 5.52986 0
M  V30 2139 H 193.054 -0.673444 0.309119 0
M  V30 2140 H 195.701 -1.32824 1.37949 0
M  V30 2141 H 194.006 -3.85091 0.721949 0
M  V30 2142 H 195.703 -3.85236 1.11329 0
M  V30 2143 H 192.293 -3.48249 2.49842 0
M  V30 2144 H 196.477 -3.54107 3.47738 0
M  V30 2145 H 191.733 -3.67804 4.88396 0
M  V30 2146 H 195.907 -3.74904 5.86873 0
M  V30 2147 H 193.534 -3.81333 6.57639 0
M  V30 2148 N 195.109 -0.891671 -1.2995 0
M  V30 2149 C 196.334 -0.527932 -2.00568 0
M  V30 2150 C 196.759 0.877969 -1.66353 0
M  V30 2151 O 196.117 1.58301 -0.883762 0
M  V30 2152 C 196.165 -0.717745 -3.53385 0
M  V30 2153 O 195.269 0.233376 -4.11739 0
M  V30 2154 H 194.61 -0.20722 -0.630837 0
M  V30 2155 H 197.14 -1.20105 -1.65638 0
M  V30 2156 H 197.15 -0.619307 -4.03272 0
M  V30 2157 H 195.825 -1.74276 -3.77625 0
M  V30 2158 H 194.402 0.0880706 -3.72796 0
M  V30 2159 N 196.587 1.43421 -0.653314 0
M  V30 2160 C 197.497 2.34568 0.0388565 0
M  V30 2161 C 198.513 1.53888 0.81207 0
M  V30 2162 O 199.689 1.86539 0.759294 0
M  V30 2163 C 196.754 3.32167 0.993269 0
M  V30 2164 C 195.815 4.28751 0.216977 0
M  V30 2165 C 195.048 5.21688 1.12593 0
M  V30 2166 O 195.271 5.19052 2.36519 0
M  V30 2167 O 194.205 5.98919 0.598284 0
M  V30 2168 H 198.031 2.95251 -0.711386 0
M  V30 2169 H 195.616 1.43564 -0.413502 0
M  V30 2170 H 197.498 3.92183 1.54176 0
M  V30 2171 H 196.173 2.73987 1.72374 0
M  V30 2172 H 195.08 3.72215 -0.375101 0
M  V30 2173 H 196.413 4.89913 -0.473924 0
M  V30 2174 N 198.065 0.39524 1.52563 0
M  V30 2175 C 199.342 -0.242908 1.94086 0
M  V30 2176 C 199.722 -1.63841 1.33114 0
M  V30 2177 O 199.07 -2.22928 0.501529 0
M  V30 2178 C 199.28 -0.26327 3.48006 0
M  V30 2179 C 200.628 -0.489354 4.21771 0
M  V30 2180 O 201.652 -0.343226 3.54543 0
M  V30 2181 O 200.511 -0.776169 5.4096 0
M  V30 2182 H 197.605 -0.152536 0.812811 0
M  V30 2183 H 200.151 0.450178 1.6362 0
M  V30 2184 H 198.923 0.713985 3.84731 0
M  V30 2185 H 198.546 -1.00103 3.84792 0
M  V30 2186 N 199.544 -1.57102 0.125237 0
M  V30 2187 C 200.792 -1.95021 -0.530198 0
M  V30 2188 C 201.113 -1.00982 -1.66816 0
M  V30 2189 O 200.383 -0.0672693 -1.95784 0
M  V30 2190 H 198.963 -0.720046 -0.198853 0
M  V30 2191 H 201.625 -1.93916 0.19564 0
M  V30 2192 H 200.721 -2.98211 -0.920681 0
M  V30 2193 N 201.022 0.148545 -1.56898 0
M  V30 2194 C 201.932 1.20293 -2.01412 0
M  V30 2195 C 202.948 1.47107 -0.929273 0
M  V30 2196 O 204.124 1.58807 -1.23863 0
M  V30 2197 C 201.189 2.51682 -2.38447 0
M  V30 2198 C 200.25 2.32529 -3.60872 0
M  V30 2199 C 199.483 3.57653 -3.96132 0
M  V30 2200 O 199.706 4.63771 -3.32073 0
M  V30 2201 O 198.64 3.50408 -4.89385 0
M  V30 2202 H 202.466 0.855025 -2.91416 0
M  V30 2203 H 200.051 0.357151 -1.45068 0
M  V30 2204 H 201.933 3.29147 -2.63135 0
M  V30 2205 H 200.608 2.86006 -1.51599 0
M  V30 2206 H 199.515 1.53019 -3.41373 0
M  V30 2207 H 200.848 2.03121 -4.48333 0
M  V30 2208 N 202.5 1.5196 0.417844 0
M  V30 2209 C 203.73 1.69181 1.18581 0
M  V30 2210 C 204.138 0.397104 1.84986 0
M  V30 2211 O 203.481 -0.636011 1.72339 0
M  V30 2212 C 203.543 2.76497 2.29759 0
M  V30 2213 C 203.207 4.18514 1.83563 0
M  V30 2214 C 204.204 5.02648 1.32821 0
M  V30 2215 C 201.889 4.64708 1.90661 0
M  V30 2216 C 203.883 6.31044 0.897894 0
M  V30 2217 C 201.57 5.93096 1.47241 0
M  V30 2218 C 202.568 6.76093 0.968891 0
M  V30 2219 O 202.256 8.02078 0.540924 0
M  V30 2220 H 201.988 0.570457 0.362705 0
M  V30 2221 H 204.542 1.99249 0.498885 0
M  V30 2222 H 202.772 2.41786 3.01789 0
M  V30 2223 H 204.461 2.82403 2.91553 0
M  V30 2224 H 205.227 4.68154 1.26716 0
M  V30 2225 H 201.106 4.00216 2.28797 0
M  V30 2226 H 204.65 6.95776 0.504192 0
M  V30 2227 H 200.547 6.271 1.53022 0
M  V30 2228 H 201.315 8.15794 0.66502 0
M  V30 2229 N 203.978 -0.674533 1.42435 0
M  V30 2230 C 205.225 -1.43459 1.42919 0
M  V30 2231 C 205.553 -1.94446 0.0457312 0
M  V30 2232 O 204.808 -1.7132 -0.94593 0
M  V30 2233 C 205.107 -2.64767 2.40069 0
M  V30 2234 C 204.773 -2.3232 3.86443 0
M  V30 2235 C 203.435 -2.23182 4.26314 0
M  V30 2236 C 205.787 -2.05977 4.78773 0
M  V30 2237 C 203.115 -1.85827 5.56494 0
M  V30 2238 C 205.467 -1.70125 6.09295 0
M  V30 2239 C 204.131 -1.59498 6.48164 0
M  V30 2240 H 203.401 -0.524952 0.522978 0
M  V30 2241 H 206.048 -0.769097 1.75377 0
M  V30 2242 H 204.353 -3.36349 2.00939 0
M  V30 2243 H 206.05 -3.22949 2.37707 0
M  V30 2244 H 202.64 -2.40334 3.54877 0
M  V30 2245 H 206.824 -2.11969 4.48757 0
M  V30 2246 H 202.08 -1.76168 5.8547 0
M  V30 2247 H 206.254 -1.48767 6.80324 0
M  V30 2248 H 203.881 -1.30322 7.48946 0
M  V30 2249 N 205.456 -1.28612 -0.910864 0
M  V30 2250 C 206.419 -1.12803 -1.9952 0
M  V30 2251 C 207.419 -0.0668264 -1.60661 0
M  V30 2252 O 208.609 -0.312847 -1.71368 0
M  V30 2253 C 205.741 -0.72254 -3.33155 0
M  V30 2254 H 206.934 -2.09109 -2.14973 0
M  V30 2255 H 204.487 -1.11639 -1.09391 0
M  V30 2256 H 205.222 0.241152 -3.23402 0
M  V30 2257 H 205.007 -1.48916 -3.62721 0
M  V30 2258 H 206.497 -0.634666 -4.12749 0
M  V30 2259 N 206.934 1.1197 -1.10907 0
M  V30 2260 C 208.164 1.8713 -0.875553 0
M  V30 2261 C 208.572 1.8016 0.577843 0
M  V30 2262 O 207.915 1.17699 1.41042 0
M  V30 2263 C 207.977 3.37005 -1.2517 0
M  V30 2264 C 207.641 3.67748 -2.71313 0
M  V30 2265 C 208.638 3.65698 -3.69542 0
M  V30 2266 C 206.323 3.96928 -3.07821 0
M  V30 2267 C 208.317 3.92395 -5.023 0
M  V30 2268 C 206.004 4.23284 -4.40765 0
M  V30 2269 C 207.002 4.21005 -5.37814 0
M  V30 2270 O 206.69 4.46704 -6.68364 0
M  V30 2271 H 206.422 0.598786 -0.313737 0
M  V30 2272 H 208.976 1.42568 -1.47863 0
M  V30 2273 H 207.206 3.82146 -0.591741 0
M  V30 2274 H 208.895 3.93519 -0.994877 0
M  V30 2275 H 209.661 3.43211 -3.42682 0
M  V30 2276 H 205.54 3.97841 -2.32902 0
M  V30 2277 H 209.084 3.90531 -5.78041 0
M  V30 2278 H 204.981 4.45246 -4.67361 0
M  V30 2279 H 205.749 4.64299 -6.74069 0
M  V30 2280 N 208.412 0.89855 1.29475 0
M  V30 2281 C 209.66 0.522847 1.9522 0
M  V30 2282 C 209.981 -0.93371 1.71192 0
M  V30 2283 O 209.251 -1.65823 1.04305 0
M  V30 2284 H 207.831 0.190366 0.722336 0
M  V30 2285 H 210.493 1.14459 1.5775 0
M  V30 2286 H 209.589 0.704476 3.04045 0
M  V30 2287 N 209.89 -1.43072 0.660911 0
M  V30 2288 C 210.82 -2.33497 -0.0122829 0
M  V30 2289 C 211.801 -1.49903 -0.803925 0
M  V30 2290 O 212.986 -1.78546 -0.763864 0
M  V30 2291 C 210.116 -3.33363 -0.973994 0
M  V30 2292 C 209.07 -4.27003 -0.291928 0
M  V30 2293 C 208.396 -5.16967 -1.36562 0
M  V30 2294 C 209.696 -5.15816 0.820462 0
M  V30 2295 H 211.39 -2.90038 0.742873 0
M  V30 2296 H 208.936 -1.39461 0.358688 0
M  V30 2297 H 210.889 -3.95524 -1.45392 0
M  V30 2298 H 209.613 -2.75095 -1.7604 0
M  V30 2299 H 208.272 -3.66217 0.167623 0
M  V30 2300 H 207.92 -4.55034 -2.14366 0
M  V30 2301 H 207.62 -5.80441 -0.914454 0
M  V30 2302 H 209.144 -5.82003 -1.84675 0
M  V30 2303 H 210.558 -5.71742 0.422366 0
M  V30 2304 H 208.955 -5.8805 1.19656 0
M  V30 2305 H 210.025 -4.55045 1.67518 0
M  V30 2306 N 211.368 -0.403325 -1.52352 0
M  V30 2307 C 212.593 0.176499 -2.06648 0
M  V30 2308 C 213.018 1.38577 -1.27193 0
M  V30 2309 O 212.376 1.7879 -0.300637 0
M  V30 2310 C 212.424 0.511061 -3.5696 0
M  V30 2311 O 211.528 1.60294 -3.79973 0
M  V30 2312 H 210.869 0.0167337 -0.663789 0
M  V30 2313 H 213.399 -0.574848 -1.96359 0
M  V30 2314 H 213.409 0.771362 -4.00642 0
M  V30 2315 H 212.084 -0.37296 -4.14224 0
M  V30 2316 H 210.661 1.33526 -3.48174 0
M  V30 2317 N 212.846 1.57033 -0.133567 0
M  V30 2318 C 213.809 2.14897 0.796995 0
M  V30 2319 C 214.809 1.0874 1.18458 0
M  V30 2320 O 215.999 1.34446 1.1077 0
M  V30 2321 C 213.131 2.70112 2.07973 0
M  V30 2322 H 214.324 2.98457 0.293873 0
M  V30 2323 H 211.877 1.55871 0.115787 0
M  V30 2324 H 212.612 1.9018 2.62682 0
M  V30 2325 H 212.397 3.47764 1.81115 0
M  V30 2326 H 213.887 3.14738 2.74462 0
M  V30 2327 N 214.325 -0.140222 1.56975 0
M  V30 2328 C 215.55 -0.870414 1.88251 0
M  V30 2329 C 215.975 -1.73637 0.723312 0
M  V30 2330 O 215.333 -1.78329 -0.32689 0
M  V30 2331 C 215.381 -1.69737 3.18154 0
M  V30 2332 O 214.485 -2.80229 3.02565 0
M  V30 2333 H 213.826 -0.242025 0.61832 0
M  V30 2334 H 216.356 -0.128999 2.04193 0
M  V30 2335 H 216.366 -2.09099 3.50345 0
M  V30 2336 H 215.041 -1.06152 4.02125 0
M  V30 2337 H 213.618 -2.44224 2.81796 0
M  V30 2338 N 215.803 -1.52179 -0.40978 0
M  V30 2339 C 217.051 -1.65878 -1.15451 0
M  V30 2340 C 217.372 -0.390771 -1.91044 0
M  V30 2341 O 216.642 0.594323 -1.86667 0
M  V30 2342 H 215.222 -0.611405 -0.429177 0
M  V30 2343 H 217.884 -1.89219 -0.467134 0
M  V30 2344 H 216.98 -2.49954 -1.86894 0
M  V30 2345 N 217.281 0.66697 -1.42791 0
M  V30 2346 C 218.506 1.46004 -1.47301 0
M  V30 2347 C 218.931 1.87894 -0.0880317 0
M  V30 2348 O 218.289 1.56502 0.915253 0
M  V30 2349 C 218.337 2.68031 -2.41229 0
M  V30 2350 O 217.441 3.6659 -1.88906 0
M  V30 2351 H 216.782 0.43832 -0.49877 0
M  V30 2352 H 219.312 0.817391 -1.87563 0
M  V30 2353 H 219.322 3.1601 -2.58073 0
M  V30 2354 H 217.997 2.36883 -3.41847 0
M  V30 2355 H 216.574 3.25661 -1.81656 0
M  V30 2356 N 218.759 1.29093 0.90403 0
M  V30 2357 C 220.036 1.075 1.63411 0
M  V30 2358 C 220.416 -0.382346 2.07609 0
M  V30 2359 O 219.764 -1.37031 1.82851 0
M  V30 2360 C 219.974 2.05858 2.81822 0
M  V30 2361 C 221.322 2.36539 3.52611 0
M  V30 2362 O 222.346 2.04019 2.91984 0
M  V30 2363 O 221.205 2.92085 4.61897 0
M  V30 2364 H 218.299 0.411547 0.717327 0
M  V30 2365 H 220.845 1.40449 0.952479 0
M  V30 2366 H 219.617 3.04037 2.46327 0
M  V30 2367 H 219.24 1.73613 3.57693 0
M  V30 2368 N 220.237 -1.11381 1.11499 0
M  V30 2369 C 221.483 -1.83597 0.875423 0
M  V30 2370 C 221.838 -1.83048 -0.592555 0
M  V30 2371 O 221.131 -1.27304 -1.43193 0
M  V30 2372 C 221.325 -3.30026 1.37177 0
M  V30 2373 C 221.154 -3.44837 2.88647 0
M  V30 2374 C 219.924 -3.57825 3.56776 0
M  V30 2375 C 222.122 -3.3907 3.86699 0
M  V30 2376 N 220.104 -3.61113 4.96458 0
M  V30 2377 C 221.475 -3.48986 5.12454 0
M  V30 2378 C 223.53 -3.22605 3.7925 0
M  V30 2379 C 222.233 -3.44135 6.31636 0
M  V30 2380 C 224.259 -3.19072 4.97943 0
M  V30 2381 C 223.621 -3.29559 6.22551 0
M  V30 2382 H 219.72 -0.687044 0.37349 0
M  V30 2383 H 222.304 -1.33265 1.41946 0
M  V30 2384 H 220.475 -3.78874 0.854919 0
M  V30 2385 H 222.207 -3.90153 1.07529 0
M  V30 2386 H 218.962 -3.60414 3.07244 0
M  V30 2387 H 219.386 -3.66394 5.69284 0
M  V30 2388 H 224.028 -3.13382 2.83816 0
M  V30 2389 H 221.746 -3.52126 7.27347 0
M  V30 2390 H 225.332 -3.07498 4.93899 0
M  V30 2391 H 224.212 -3.26815 7.12855 0
M  V30 2392 N 221.715 -0.905404 -1.28997 0
M  V30 2393 C 222.961 -0.535039 -1.95615 0
M  V30 2394 C 223.294 0.917404 -1.71165 0
M  V30 2395 O 222.569 1.65123 -1.02785 0
M  V30 2396 C 222.852 -0.834918 -3.50287 0
M  V30 2397 C 222.705 -2.33948 -3.84172 0
M  V30 2398 C 224.024 -0.325318 -4.38896 0
M  V30 2399 H 221.143 -0.195861 -0.710498 0
M  V30 2400 H 223.785 -1.13313 -1.52513 0
M  V30 2401 H 221.935 -0.325904 -3.87131 0
M  V30 2402 H 223.607 -2.91847 -3.57243 0
M  V30 2403 H 221.85 -2.79789 -3.31513 0
M  V30 2404 H 222.521 -2.49987 -4.92149 0
M  V30 2405 H 224.997 -0.761256 -4.09077 0
M  V30 2406 H 223.873 -0.564295 -5.45992 0
M  V30 2407 H 224.134 0.774144 -4.35269 0
M  V30 2408 N 223.193 1.4272 -0.668489 0
M  V30 2409 C 224.421 2.05966 -0.196348 0
M  V30 2410 C 224.836 1.50191 1.14403 0
M  V30 2411 O 224.193 0.639208 1.7094 0
M  V30 2412 C 224.244 3.61314 -0.115815 0
M  V30 2413 O 223.965 4.1502 -1.40322 0
M  V30 2414 C 225.466 4.41663 0.380579 0
M  V30 2415 H 222.686 0.663954 -0.0969829 0
M  V30 2416 H 225.23 1.82966 -0.913446 0
M  V30 2417 H 223.385 3.83448 0.551931 0
M  V30 2418 H 223.799 5.08832 -1.27243 0
M  V30 2419 H 225.273 5.5065 0.385848 0
M  V30 2420 H 225.75 4.15792 1.41471 0
M  V30 2421 H 226.356 4.24534 -0.255209 0
M  V30 2422 N 224.671 0.411399 1.52136 0
M  V30 2423 C 225.92 -0.165009 2.01024 0
M  V30 2424 C 226.233 -1.4603 1.30133 0
M  V30 2425 O 227.439 -2.1181 1.69849 0
M  V30 2426 C 225.895 -0.344618 3.58246 0
M  V30 2427 C 225.503 0.938716 4.38055 0
M  V30 2428 C 227.247 -0.876195 4.15359 0
M  V30 2429 C 225.154 0.726172 5.86925 0
M  V30 2430 H 224.084 -0.0654407 0.751155 0
M  V30 2431 H 226.735 0.537192 1.75461 0
M  V30 2432 H 225.117 -1.10921 3.80148 0
M  V30 2433 H 226.291 1.70963 4.27912 0
M  V30 2434 H 224.606 1.39688 3.92271 0
M  V30 2435 H 227.203 -1.05128 5.24263 0
M  V30 2436 H 227.546 -1.85152 3.7286 0
M  V30 2437 H 228.079 -0.170607 3.97434 0
M  V30 2438 H 224.818 1.67312 6.33788 0
M  V30 2439 H 224.338 -0.00540283 5.998 0
M  V30 2440 H 226.017 0.369231 6.45946 0
M  V30 2441 N 226.149 -1.5696 0.141893 0
M  V30 2442 C 227.096 -2.16501 -0.799737 0
M  V30 2443 C 228.066 -1.09643 -1.24771 0
M  V30 2444 O 229.251 -1.3766 -1.32115 0
M  V30 2445 C 226.391 -2.78679 -2.03549 0
M  V30 2446 C 225.504 -3.99914 -1.6338 0
M  V30 2447 C 224.639 -4.50106 -2.82096 0
M  V30 2448 C 223.678 -5.63819 -2.38275 0
M  V30 2449 N 222.815 -6.08651 -3.49983 0
M  V30 2450 H 227.655 -2.96632 -0.285179 0
M  V30 2451 H 225.192 -1.46533 -0.129053 0
M  V30 2452 H 227.15 -3.1287 -2.75986 0
M  V30 2453 H 225.78 -2.012 -2.52425 0
M  V30 2454 H 224.832 -3.71735 -0.807279 0
M  V30 2455 H 226.144 -4.82311 -1.27192 0
M  V30 2456 H 225.298 -4.86325 -3.62729 0
M  V30 2457 H 224.037 -3.66706 -3.21525 0
M  V30 2458 H 223.042 -5.2718 -1.56081 0
M  V30 2459 H 224.267 -6.49 -1.99938 0
M  V30 2460 H 222.213 -5.28188 -3.89042 0
M  V30 2461 H 222.13 -6.85961 -3.17794 0
M  V30 2462 H 223.398 -6.49515 -4.30988 0
M  V30 2463 N 227.627 0.131896 -1.57047 0
M  V30 2464 C 228.874 0.841932 -1.84168 0
M  V30 2465 C 229.202 1.8048 -0.725066 0
M  V30 2466 O 228.457 1.93618 0.284692 0
M  V30 2467 C 228.756 1.63703 -3.17704 0
M  V30 2468 C 228.422 0.81961 -4.43388 0
M  V30 2469 C 227.084 0.594148 -4.77518 0
M  V30 2470 C 229.436 0.248977 -5.20605 0
M  V30 2471 C 226.764 -0.212409 -5.86315 0
M  V30 2472 C 229.116 -0.544701 -6.30251 0
M  V30 2473 C 227.78 -0.780599 -6.6292 0
M  V30 2474 H 227.05 0.308085 -0.673917 0
M  V30 2475 H 229.697 0.104867 -1.91213 0
M  V30 2476 H 228.002 2.44464 -3.06177 0
M  V30 2477 H 229.699 2.19015 -3.35907 0
M  V30 2478 H 226.289 1.00542 -4.16641 0
M  V30 2479 H 230.473 0.410408 -4.946 0
M  V30 2480 H 225.729 -0.404524 -6.1006 0
M  V30 2481 H 229.903 -0.993922 -6.89271 0
M  V30 2482 H 227.53 -1.40742 -7.47058 0
M  V30 2483 N 229.106 1.52395 0.401703 0
M  V30 2484 C 230.039 1.70999 1.51111 0
M  V30 2485 C 231.017 0.55765 1.52738 0
M  V30 2486 O 232.201 0.785912 1.71335 0
M  V30 2487 C 229.328 1.75607 2.8962 0
M  V30 2488 C 228.374 2.97227 3.05873 0
M  V30 2489 S 229.207 4.57439 2.78405 0
M  V30 2490 C 230.363 4.64844 4.19131 0
M  V30 2491 H 230.596 2.6483 1.35102 0
M  V30 2492 H 228.129 1.42527 0.593762 0
M  V30 2493 H 230.087 1.78947 3.69443 0
M  V30 2494 H 228.748 0.828914 3.02965 0
M  V30 2495 H 227.941 2.96955 4.07227 0
M  V30 2496 H 227.543 2.91813 2.33925 0
M  V30 2497 H 229.835 4.42677 5.12877 0
M  V30 2498 H 230.778 5.66807 4.24424 0
M  V30 2499 H 231.186 3.93804 4.04448 0
M  V30 2500 N 230.584 -0.659388 1.43143 0
M  V30 2501 C 231.531 -1.77249 1.47822 0
M  V30 2502 C 232.501 -1.62818 0.328558 0
M  V30 2503 O 233.686 -1.83151 0.534838 0
M  V30 2504 C 230.826 -3.15371 1.40126 0
M  V30 2505 C 229.939 -3.4098 2.65249 0
M  V30 2506 C 229.074 -4.68915 2.49584 0
M  V30 2507 C 228.113 -4.87608 3.70006 0
M  V30 2508 N 227.25 -6.06796 3.53189 0
M  V30 2509 H 232.09 -1.72584 2.42938 0
M  V30 2510 H 229.627 -0.842297 1.20598 0
M  V30 2511 H 231.585 -3.9521 1.33659 0
M  V30 2512 H 230.215 -3.19121 0.485964 0
M  V30 2513 H 229.267 -2.55282 2.8202 0
M  V30 2514 H 230.579 -3.50681 3.54717 0
M  V30 2515 H 229.733 -5.56871 2.4079 0
M  V30 2516 H 228.472 -4.61524 1.5763 0
M  V30 2517 H 227.477 -3.9809 3.79215 0
M  V30 2518 H 228.702 -4.96834 4.62961 0
M  V30 2519 H 226.648 -6.00549 2.63965 0
M  V30 2520 H 226.565 -6.17428 4.36255 0
M  V30 2521 H 227.833 -6.9739 3.48236 0
M  V30 2522 N 232.062 -1.29571 -0.897171 0
M  V30 2523 C 233.308 -1.17863 -1.65034 0
M  V30 2524 C 233.641 0.268729 -1.92332 0
M  V30 2525 O 232.916 1.19378 -1.53555 0
M  V30 2526 C 233.199 -1.995 -2.99786 0
M  V30 2527 C 233.052 -3.5239 -2.79538 0
M  V30 2528 C 234.371 -1.82335 -4.00552 0
M  V30 2529 H 231.49 -0.429528 -0.598895 0
M  V30 2530 H 234.132 -1.59072 -1.03905 0
M  V30 2531 H 232.282 -1.64485 -3.51962 0
M  V30 2532 H 233.954 -3.97401 -2.34244 0
M  V30 2533 H 232.197 -3.77187 -2.14273 0
M  V30 2534 H 232.868 -4.04787 -3.75302 0
M  V30 2535 H 235.344 -2.12924 -3.57495 0
M  V30 2536 H 234.22 -2.41801 -4.92771 0
M  V30 2537 H 234.481 -0.779209 -4.35179 0
M  V30 2538 N 233.54 1.10788 -1.12088 0
M  V30 2539 C 234.817 1.79136 -0.785476 0
M  V30 2540 C 235.197 1.98246 0.725377 0
M  V30 2541 O 234.545 1.57258 1.65778 0
M  V30 2542 C 234.755 3.12375 -1.55636 0
M  V30 2543 C 236.103 3.8731 -1.74001 0
M  V30 2544 O 237.127 3.22085 -1.52117 0
M  V30 2545 O 235.986 5.04369 -2.10415 0
M  V30 2546 H 233.08 0.776226 -0.285311 0
M  V30 2547 H 235.626 1.1747 -1.2247 0
M  V30 2548 H 234.398 2.93863 -2.5838 0
M  V30 2549 H 234.021 3.81758 -1.11114 0
M  V30 2550 N 235.018 0.912232 1.28515 0
M  V30 2551 C 236.266 0.543523 1.94654 0
M  V30 2552 C 236.587 -0.9155 1.72173 0
M  V30 2553 O 235.857 -1.64708 1.06058 0
M  V30 2554 H 234.437 0.198017 0.720277 0
M  V30 2555 H 237.099 1.16126 1.56527 0
M  V30 2556 H 236.195 0.736684 3.03281 0
M  V30 2557 N 236.496 -1.42363 0.676048 0
M  V30 2558 C 237.459 -2.29199 0.00766941 0
M  V30 2559 C 238.459 -1.43389 -0.727745 0
M  V30 2560 O 239.649 -1.64764 -0.56556 0
M  V30 2561 C 236.781 -3.2591 -0.999785 0
M  V30 2562 H 237.974 -2.89794 0.771988 0
M  V30 2563 H 235.527 -1.50024 0.438468 0
M  V30 2564 H 236.262 -2.70256 -1.79255 0
M  V30 2565 H 236.047 -3.89202 -0.475829 0
M  V30 2566 H 237.537 -3.91028 -1.46583 0
M  V30 2567 N 237.974 -0.419461 -1.51915 0
M  V30 2568 C 238.921 0.400927 -2.27291 0
M  V30 2569 C 239.891 1.03224 -1.30131 0
M  V30 2570 O 241.076 1.05455 -1.59009 0
M  V30 2571 C 238.216 1.50603 -3.10504 0
M  V30 2572 C 237.329 0.89462 -4.22635 0
M  V30 2573 C 236.464 1.97328 -4.93189 0
M  V30 2574 C 235.503 1.33935 -5.97267 0
M  V30 2575 N 234.64 2.3586 -6.61298 0
M  V30 2576 H 239.48 -0.248251 -2.96964 0
M  V30 2577 H 237.017 -0.134266 -1.46486 0
M  V30 2578 H 238.975 2.15783 -3.57062 0
M  V30 2579 H 237.605 2.12509 -2.42981 0
M  V30 2580 H 236.657 0.131583 -3.80172 0
M  V30 2581 H 237.969 0.391641 -4.9726 0
M  V30 2582 H 237.123 2.70211 -5.43204 0
M  V30 2583 H 235.862 2.50994 -4.18155 0
M  V30 2584 H 234.867 0.595896 -5.46561 0
M  V30 2585 H 236.092 0.810252 -6.74249 0
M  V30 2586 H 234.038 2.88639 -5.89087 0
M  V30 2587 H 233.955 1.90403 -7.3163 0
M  V30 2588 H 235.223 3.08282 -7.15949 0
M  V30 2589 N 239.452 1.56882 -0.150215 0
M  V30 2590 C 240.362 2.20494 0.801222 0
M  V30 2591 C 241.378 1.19019 1.26927 0
M  V30 2592 O 242.554 1.51607 1.32579 0
M  V30 2593 C 239.619 2.81659 2.02161 0
M  V30 2594 C 238.68 3.9827 1.60249 0
M  V30 2595 C 237.913 4.56508 2.7647 0
M  V30 2596 O 238.136 4.13627 3.92771 0
M  V30 2597 O 237.07 5.46719 2.51757 0
M  V30 2598 H 240.896 3.02315 0.289717 0
M  V30 2599 H 238.481 1.49202 0.0769684 0
M  V30 2600 H 240.363 3.20522 2.73576 0
M  V30 2601 H 239.038 2.02849 2.52258 0
M  V30 2602 H 237.945 3.64117 0.858477 0
M  V30 2603 H 239.278 4.78609 1.14864 0
M  V30 2604 N 240.93 -0.123565 1.57115 0
M  V30 2605 C 241.86 -1.15309 2.03042 0
M  V30 2606 C 242.841 -1.43454 0.914061 0
M  V30 2607 O 244.026 -1.53973 1.18347 0
M  V30 2608 C 241.156 -2.48043 2.43089 0
M  V30 2609 C 240.11 -2.3437 3.58127 0
M  V30 2610 C 239.436 -3.72026 3.84059 0
M  V30 2611 C 240.736 -1.80804 4.90007 0
M  V30 2612 H 242.43 -0.771102 2.893 0
M  V30 2613 H 239.976 -0.369479 1.39179 0
M  V30 2614 H 241.929 -3.20311 2.73823 0
M  V30 2615 H 240.653 -2.88122 1.53796 0
M  V30 2616 H 239.312 -1.64551 3.27595 0
M  V30 2617 H 238.96 -4.09582 2.91979 0
M  V30 2618 H 238.66 -3.63732 4.6149 0
M  V30 2619 H 240.184 -4.45806 4.1724 0
M  V30 2620 H 241.598 -2.42886 5.19307 0
M  V30 2621 H 239.995 -1.83343 5.71407 0
M  V30 2622 H 241.065 -0.76528 4.78823 0
M  V30 2623 N 242.408 -1.52605 -0.393616 0
M  V30 2624 C 243.819 -1.59417 -0.971761 0
M  V30 2625 C 244.17 -0.444173 -1.91106 0
M  V30 2626 O 243.295 0.433382 -2.12016 0
M  V30 2627 C 243.89 -2.88936 -1.76921 0
M  V30 2628 C 242.449 -2.98175 -2.29714 0
M  V30 2629 C 241.596 -2.54491 -1.10135 0
M  V30 2630 H 244.547 -1.57751 -0.173317 0
M  V30 2631 H 244.568 -2.75163 -2.62804 0
M  V30 2632 H 244.08 -3.72616 -1.08532 0
M  V30 2633 H 242.181 -2.19024 -3.01429 0
M  V30 2634 H 242.294 -4.02726 -2.59517 0
M  V30 2635 H 240.658 -2.08702 -1.45999 0
M  V30 2636 H 241.441 -3.4056 -0.432874 0
M  V30 2637 N 243.887 0.651787 -1.4349 0
M  V30 2638 C 245.164 1.40909 -1.35661 0
M  V30 2639 C 245.544 2.11099 -0.00511733 0
M  V30 2640 O 244.892 2.04892 1.0115 0
M  V30 2641 C 245.102 2.3926 -2.54078 0
M  V30 2642 C 246.45 3.03217 -2.97228 0
M  V30 2643 O 247.474 2.49588 -2.54135 0
M  V30 2644 O 246.333 4.00455 -3.71885 0
M  V30 2645 H 243.427 0.629625 -0.536191 0
M  V30 2646 H 245.973 0.678575 -1.55542 0
M  V30 2647 H 244.745 1.86352 -3.44076 0
M  V30 2648 H 244.368 3.1976 -2.36303 0
M  V30 2649 N 245.365 1.30045 0.890287 0
M  V30 2650 C 246.611 1.18737 1.64406 0
M  V30 2651 C 246.944 -0.258525 1.92472 0
M  V30 2652 O 246.219 -1.18562 1.54186 0
M  V30 2653 C 246.502 2.01087 2.98724 0
M  V30 2654 C 246.355 3.53867 2.77665 0
M  V30 2655 C 247.674 1.84457 3.9958 0
M  V30 2656 H 244.793 0.432698 0.596608 0
M  V30 2657 H 247.435 1.5962 1.0306 0
M  V30 2658 H 245.585 1.66349 3.51084 0
M  V30 2659 H 247.257 3.98637 2.32133 0
M  V30 2660 H 245.5 3.78318 2.12269 0
M  V30 2661 H 246.171 4.06772 3.7315 0
M  V30 2662 H 248.647 2.14817 3.56361 0
M  V30 2663 H 247.523 2.44411 4.91482 0
M  V30 2664 H 247.784 0.802276 4.3476 0
M  V30 2665 N 246.843 -1.10192 1.12674 0
M  V30 2666 C 247.773 -2.18652 0.819362 0
M  V30 2667 C 248.754 -1.68698 -0.217915 0
M  V30 2668 O 249.939 -1.94041 -0.0785581 0
M  V30 2669 C 247.069 -3.46202 0.27594 0
M  V30 2670 C 246.023 -4.09444 1.24656 0
M  V30 2671 C 245.349 -5.31725 0.563258 0
M  V30 2672 C 246.649 -4.52863 2.60217 0
M  V30 2673 H 248.343 -2.44622 1.72628 0
M  V30 2674 H 245.889 -1.17571 0.831451 0
M  V30 2675 H 247.842 -4.21372 0.0486149 0
M  V30 2676 H 246.566 -3.1973 -0.666331 0
M  V30 2677 H 245.225 -3.36284 1.45974 0
M  V30 2678 H 244.873 -5.0153 -0.384235 0
M  V30 2679 H 244.573 -5.74991 1.21075 0
M  V30 2680 H 246.097 -6.09624 0.34503 0
M  V30 2681 H 247.511 -5.19294 2.42913 0
M  V30 2682 H 245.908 -5.06986 3.21068 0
M  V30 2683 H 246.978 -3.65656 3.18471 0
M  V30 2684 N 248.321 -0.919034 -1.28029 0
M  V30 2685 C 249.231 -0.416756 -2.30869 0
M  V30 2686 C 250.247 0.498235 -1.66714 0
M  V30 2687 O 251.423 0.383144 -1.97722 0
M  V30 2688 C 248.488 0.330274 -3.45123 0
M  V30 2689 C 247.549 -0.618578 -4.2482 0
M  V30 2690 C 246.782 0.0928959 -5.33619 0
M  V30 2691 O 247.005 1.31375 -5.55065 0
M  V30 2692 O 245.939 -0.574499 -5.99152 0
M  V30 2693 H 249.765 -1.27043 -2.75851 0
M  V30 2694 H 247.35 -0.684052 -1.3282 0
M  V30 2695 H 249.232 0.751972 -4.14636 0
M  V30 2696 H 247.907 1.1597 -3.02213 0
M  V30 2697 H 246.814 -1.08978 -3.57875 0
M  V30 2698 H 248.147 -1.41497 -4.71423 0
M  V30 2699 N 249.799 1.42003 -0.683588 0
M  V30 2700 C 251.215 1.55625 -0.353976 0
M  V30 2701 C 251.415 1.66151 1.14 0
M  V30 2702 O 250.471 1.63329 1.92561 0
M  V30 2703 C 251.784 2.80171 -1.092 0
M  V30 2704 C 253.332 2.93954 -1.07518 0
M  V30 2705 C 253.807 4.21372 -1.79471 0
M  V30 2706 N 255.298 4.28303 -1.76381 0
M  V30 2707 C 256.033 5.25729 -2.28904 0
M  V30 2708 N 255.529 6.29254 -2.89846 0
M  V30 2709 N 257.322 5.17586 -2.19228 0
M  V30 2710 H 249.473 1.33415 -1.6527 0
M  V30 2711 H 251.736 0.64282 -0.696769 0
M  V30 2712 H 251.442 2.78561 -2.14701 0
M  V30 2713 H 251.316 3.7133 -0.662862 0
M  V30 2714 H 253.703 2.95086 -0.028475 0
M  V30 2715 H 253.784 2.04002 -1.54328 0
M  V30 2716 H 253.428 4.21001 -2.84114 0
M  V30 2717 H 253.358 5.10275 -1.30104 0
M  V30 2718 H 255.849 3.54119 -1.31939 0
M  V30 2719 H 256.162 6.99964 -3.27522 0
M  V30 2720 H 254.507 6.29791 -2.93919 0
M  V30 2721 H 257.698 4.35631 -1.71299 0
M  V30 2722 H 257.871 5.93348 -2.60466 0
M  V30 2723 N 251.277 0.427512 1.51691 0
M  V30 2724 C 252.523 -0.142439 2.02299 0
M  V30 2725 C 252.856 -1.43214 1.31162 0
M  V30 2726 O 252.131 -1.89833 0.423511 0
M  V30 2727 C 252.414 -0.371301 3.58181 0
M  V30 2728 C 252.267 0.936358 4.39946 0
M  V30 2729 C 253.586 -1.14542 4.24933 0
M  V30 2730 H 250.705 -0.0502937 0.735282 0
M  V30 2731 H 253.347 0.564584 1.81418 0
M  V30 2732 H 251.497 -0.973559 3.76104 0
M  V30 2733 H 253.169 1.57184 4.33694 0
M  V30 2734 H 251.412 1.5432 4.05423 0
M  V30 2735 H 252.083 0.730388 5.47147 0
M  V30 2736 H 254.559 -0.635362 4.11221 0
M  V30 2737 H 253.435 -1.27431 5.33903 0
M  V30 2738 H 253.696 -2.17093 3.85127 0
M  V30 2739 N 252.755 -1.56801 0.158532 0
M  V30 2740 C 253.702 -2.17337 -0.776729 0
M  V30 2741 C 254.672 -1.1096 -1.23601 0
M  V30 2742 O 255.857 -1.39054 -1.30647 0
M  V30 2743 C 252.997 -2.80822 -2.00582 0
M  V30 2744 C 252.11 -4.01624 -1.59129 0
M  V30 2745 C 251.245 -4.53072 -2.77306 0
M  V30 2746 C 250.284 -5.66314 -2.32282 0
M  V30 2747 N 249.421 -6.12329 -3.43508 0
M  V30 2748 H 254.261 -2.96918 -0.253701 0
M  V30 2749 H 251.798 -1.46661 -0.113504 0
M  V30 2750 H 253.756 -3.15779 -2.72652 0
M  V30 2751 H 252.386 -2.03866 -2.50277 0
M  V30 2752 H 251.438 -3.72571 -0.767806 0
M  V30 2753 H 252.75 -4.83633 -1.2207 0
M  V30 2754 H 251.904 -4.90145 -3.57551 0
M  V30 2755 H 250.643 -3.70095 -3.17617 0
M  V30 2756 H 249.648 -5.28806 -1.5048 0
M  V30 2757 H 250.873 -6.51085 -1.93043 0
M  V30 2758 H 248.819 -5.32284 -3.83418 0
M  V30 2759 H 248.736 -6.89293 -3.105 0
M  V30 2760 H 250.004 -6.5405 -4.24075 0
M  V30 2761 N 254.233 0.115231 -1.57178 0
M  V30 2762 C 255.48 0.822351 -1.8505 0
M  V30 2763 C 255.808 1.79701 -0.744168 0
M  V30 2764 O 255.063 1.93909 0.26414 0
M  V30 2765 C 255.362 1.60324 -3.19423 0
M  V30 2766 C 255.028 0.772536 -4.44233 0
M  V30 2767 C 253.69 0.543468 -4.78121 0
M  V30 2768 C 256.042 0.193746 -5.2084 0
M  V30 2769 C 253.37 -0.274583 -5.86057 0
M  V30 2770 C 255.722 -0.611517 -6.29637 0
M  V30 2771 C 254.386 -0.850867 -6.62055 0
M  V30 2772 H 253.656 0.30092 -0.677147 0
M  V30 2773 H 256.303 0.0845802 -1.91313 0
M  V30 2774 H 254.608 2.41203 -3.08753 0
M  V30 2775 H 256.305 2.1544 -3.38211 0
M  V30 2776 H 252.895 0.96117 -4.17683 0
M  V30 2777 H 257.079 0.357926 -4.95008 0
M  V30 2778 H 252.335 -0.469206 -6.09597 0
M  V30 2779 H 256.509 -1.06697 -6.88178 0
M  V30 2780 H 254.136 -1.48657 -7.45523 0
M  V30 2781 N 255.711 1.52812 0.385517 0
M  V30 2782 C 256.936 1.72207 1.15583 0
M  V30 2783 C 257.361 0.441034 1.82857 0
M  V30 2784 O 256.719 -0.603465 1.70962 0
M  V30 2785 C 256.767 2.87476 2.17692 0
M  V30 2786 O 255.871 2.54693 3.24354 0
M  V30 2787 H 255.212 0.572526 0.336319 0
M  V30 2788 H 257.742 1.99618 0.448744 0
M  V30 2789 H 257.752 3.13072 2.6163 0
M  V30 2790 H 256.427 3.80408 1.68115 0
M  V30 2791 H 255.004 2.3985 2.85529 0
M  V30 2792 N 257.189 -0.644168 1.43834 0
M  V30 2793 C 258.429 -1.41565 1.47441 0
M  V30 2794 C 258.793 -1.91743 0.0992723 0
M  V30 2795 O 259.994 -2.68798 0.0100192 0
M  V30 2796 C 258.265 -2.55902 2.49498 0
M  V30 2797 S 259.824 -3.44287 2.72051 0
M  V30 2798 H 256.642 -0.483118 0.521649 0
M  V30 2799 H 259.244 -0.747008 1.80666 0
M  V30 2800 H 257.948 -2.17327 3.48134 0
M  V30 2801 H 257.479 -3.27607 2.17801 0
M  V30 2802 H 259.494 -4.52927 2.0266 0
M  V30 2803 N 258.668 -1.30515 -0.883378 0
M  V30 2804 C 259.601 -1.11359 -1.99184 0
M  V30 2805 C 260.579 -0.0207858 -1.62587 0
M  V30 2806 O 261.763 -0.174646 -1.87689 0
M  V30 2807 C 258.89 -0.69871 -3.31415 0
M  V30 2808 C 257.936 -1.79261 -3.86998 0
M  V30 2809 S 258.769 -3.39536 -4.14096 0
M  V30 2810 C 259.925 -2.99954 -5.49344 0
M  V30 2811 H 260.158 -2.052 -2.15128 0
M  V30 2812 H 257.691 -1.14847 -1.03196 0
M  V30 2813 H 259.649 -0.466075 -4.07846 0
M  V30 2814 H 258.31 0.220368 -3.13326 0
M  V30 2815 H 257.503 -1.45464 -4.82552 0
M  V30 2816 H 257.105 -1.97961 -3.17313 0
M  V30 2817 H 259.397 -2.48013 -6.30473 0
M  V30 2818 H 260.34 -3.9442 -5.8808 0
M  V30 2819 H 260.748 -2.37775 -5.1198 0
M  V30 2820 N 260.146 1.09593 -1.13257 0
M  V30 2821 C 261.109 2.14359 -0.811358 0
M  V30 2822 C 262.109 1.59808 0.178377 0
M  V30 2823 O 263.299 1.74132 -0.0484911 0
M  V30 2824 C 260.431 3.40269 -0.207276 0
M  V30 2825 H 261.624 2.44284 -1.73969 0
M  V30 2826 H 259.177 1.25102 -0.936973 0
M  V30 2827 H 259.912 3.15969 0.73036 0
M  V30 2828 H 259.697 3.81154 -0.919992 0
M  V30 2829 H 261.187 4.176 0.000667944 0
M  V30 2830 N 261.624 0.925811 1.2754 0
M  V30 2831 C 262.87 0.575575 1.95086 0
M  V30 2832 C 263.225 -0.873246 1.71441 0
M  V30 2833 O 262.518 -1.61443 1.03183 0
M  V30 2834 C 262.712 0.835296 3.47502 0
M  V30 2835 C 262.541 2.30781 3.85967 0
M  V30 2836 C 261.311 2.96017 4.09514 0
M  V30 2837 C 263.509 3.28519 3.95702 0
M  V30 2838 N 261.491 4.3344 4.34744 0
M  V30 2839 C 262.862 4.51146 4.25285 0
M  V30 2840 C 264.917 3.23753 3.7827 0
M  V30 2841 C 263.62 5.69606 4.39251 0
M  V30 2842 C 265.646 4.41523 3.9346 0
M  V30 2843 C 265.008 5.62928 4.23428 0
M  V30 2844 H 261.107 0.260711 0.737261 0
M  V30 2845 H 263.691 1.19204 1.53943 0
M  V30 2846 H 261.862 0.248005 3.87607 0
M  V30 2847 H 263.594 0.447878 4.02214 0
M  V30 2848 H 260.349 2.46695 4.04275 0
M  V30 2849 H 260.773 5.04528 4.5142 0
M  V30 2850 H 265.415 2.3096 3.54143 0
M  V30 2851 H 263.133 6.62866 4.62205 0
M  V30 2852 H 266.719 4.39351 3.81394 0
M  V30 2853 H 265.599 6.52538 4.34929 0
M  V30 2854 N 263.102 -1.41638 0.69111 0
M  V30 2855 C 264.33 -2.05628 0.22909 0
M  V30 2856 C 264.745 -1.51992 -1.11999 0
M  V30 2857 O 264.102 -0.666322 -1.69901 0
M  V30 2858 C 264.153 -3.61084 0.173283 0
M  V30 2859 O 263.874 -4.12735 1.46907 0
M  V30 2860 C 265.375 -4.42213 -0.310266 0
M  V30 2861 H 262.595 -0.662327 0.107534 0
M  V30 2862 H 265.139 -1.81489 0.942438 0
M  V30 2863 H 263.294 -3.84278 -0.490858 0
M  V30 2864 H 263.708 -5.06743 1.35322 0
M  V30 2865 H 265.182 -5.51194 -0.298196 0
M  V30 2866 H 265.659 -4.1799 -1.34838 0
M  V30 2867 H 266.265 -4.24074 0.322716 0
M  V30 2868 N 264.58 -0.43555 -1.51462 0
M  V30 2869 C 265.53 0.394701 -2.24558 0
M  V30 2870 C 266.514 0.99157 -1.26715 0
M  V30 2871 O 267.706 0.910007 -1.51815 0
M  V30 2872 C 264.835 1.4963 -3.08975 0
M  V30 2873 C 263.921 0.908912 -4.14246 0
M  V30 2874 N 264.312 0.0505335 -5.05775 0
M  V30 2875 C 262.61 1.17668 -4.30198 0
M  V30 2876 C 263.311 -0.279161 -5.8103 0
M  V30 2877 N 262.287 0.336767 -5.42556 0
M  V30 2878 H 266.089 -0.267106 -2.92684 0
M  V30 2879 H 263.603 -0.247518 -1.60503 0
M  V30 2880 H 265.6 2.10394 -3.59917 0
M  V30 2881 H 264.26 2.16046 -2.42393 0
M  V30 2882 H 265.271 -0.31577 -5.16936 0
M  V30 2883 H 261.948 1.83847 -3.74842 0
M  V30 2884 H 263.338 -0.977553 -6.64751 0
M  V30 2885 N 266.058 1.56714 -0.166846 0
M  V30 2886 C 267.335 1.88412 0.525373 0
M  V30 2887 C 267.715 1.07602 1.81618 0
M  V30 2888 O 267.063 0.168621 2.27877 0
M  V30 2889 C 267.273 3.40363 0.771613 0
M  V30 2890 C 268.621 4.10007 1.1036 0
M  V30 2891 O 269.645 3.45655 0.860304 0
M  V30 2892 O 268.504 5.2369 1.56239 0
M  V30 2893 H 265.598 0.781587 0.270278 0
M  V30 2894 H 268.144 1.68458 -0.204946 0
M  V30 2895 H 266.916 3.91046 -0.141093 0
M  V30 2896 H 266.539 3.65914 1.55541 0
M  V30 2897 N 267.536 -0.106894 1.57237 0
M  V30 2898 C 268.784 -0.810921 1.85117 0
M  V30 2899 C 269.105 -1.7984 0.753827 0
M  V30 2900 O 268.375 -1.94649 -0.221056 0
M  V30 2901 H 266.955 -0.302466 0.683025 0
M  V30 2902 H 269.617 -0.0913324 1.94686 0
M  V30 2903 H 268.713 -1.34875 2.81452 0
M  V30 2904 N 269.014 -1.53014 -0.377408 0
M  V30 2905 C 269.961 -1.78616 -1.46168 0
M  V30 2906 C 270.931 -0.629917 -1.53692 0
M  V30 2907 O 272.116 -0.870861 -1.69766 0
M  V30 2908 C 269.256 -1.97123 -2.8326 0
M  V30 2909 C 268.369 -3.24831 -2.84796 0
M  V30 2910 C 267.504 -3.33591 -4.13389 0
M  V30 2911 C 266.543 -4.55377 -4.09021 0
M  V30 2912 N 265.68 -4.61355 -5.29241 0
M  V30 2913 H 270.52 -2.71142 -1.23637 0
M  V30 2914 H 268.057 -1.34326 -0.599577 0
M  V30 2915 H 270.015 -2.05839 -3.62886 0
M  V30 2916 H 268.645 -1.07946 -3.04216 0
M  V30 2917 H 267.697 -3.25128 -1.97474 0
M  V30 2918 H 269.009 -4.14523 -2.77439 0
M  V30 2919 H 268.163 -3.41554 -5.01424 0
M  V30 2920 H 266.902 -2.41894 -4.23484 0
M  V30 2921 H 265.907 -4.47527 -3.19373 0
M  V30 2922 H 267.132 -5.48402 -4.00539 0
M  V30 2923 H 265.078 -3.72554 -5.39944 0
M  V30 2924 H 264.995 -5.44935 -5.24006 0
M  V30 2925 H 266.263 -4.73586 -6.19141 0
M  V30 2926 N 270.492 0.636531 -1.44174 0
M  V30 2927 C 271.74 1.39343 -1.46383 0
M  V30 2928 C 272.061 1.94766 -0.0955715 0
M  V30 2929 O 271.331 1.75452 0.871395 0
M  V30 2930 H 269.911 0.517199 -0.538994 0
M  V30 2931 H 272.573 0.74957 -1.7991 0
M  V30 2932 H 271.669 2.22746 -2.18611 0
M  V30 2933 N 271.97 1.30982 0.876444 0
M  V30 2934 C 272.903 1.12414 1.98591 0
M  V30 2935 C 273.881 0.0294078 1.62573 0
M  V30 2936 O 275.065 0.184598 1.87594 0
M  V30 2937 C 272.192 0.716276 3.3104 0
M  V30 2938 C 271.238 1.81311 3.86042 0
M  V30 2939 S 272.071 3.41727 4.1229 0
M  V30 2940 C 273.227 3.02863 5.47745 0
M  V30 2941 H 273.46 2.06338 2.14037 0
M  V30 2942 H 270.993 1.15393 1.02586 0
M  V30 2943 H 272.951 0.487697 4.07593 0
M  V30 2944 H 271.612 -0.203749 3.13438 0
M  V30 2945 H 270.805 1.48021 4.81774 0
M  V30 2946 H 270.407 1.99641 3.16259 0
M  V30 2947 H 272.699 2.51353 6.29148 0
M  V30 2948 H 273.642 3.97533 5.8598 0
M  V30 2949 H 274.05 2.40487 5.10711 0
M  V30 2950 N 273.449 -1.08991 1.13837 0
M  V30 2951 C 274.696 -1.81258 0.902882 0
M  V30 2952 C 275.024 -1.85936 -0.570803 0
M  V30 2953 O 274.279 -1.3267 -1.43865 0
M  V30 2954 C 274.578 -3.27042 1.44147 0
M  V30 2955 C 274.244 -3.4249 2.93276 0
M  V30 2956 C 272.906 -3.46414 3.33992 0
M  V30 2957 C 275.258 -3.4666 3.892 0
M  V30 2958 C 272.586 -3.52091 4.69307 0
M  V30 2959 C 274.938 -3.53872 5.24364 0
M  V30 2960 C 273.602 -3.56066 5.646 0
M  V30 2961 H 272.872 -0.663268 0.330388 0
M  V30 2962 H 275.519 -1.28368 1.42105 0
M  V30 2963 H 273.824 -3.82599 0.844097 0
M  V30 2964 H 275.521 -3.81499 1.23528 0
M  V30 2965 H 272.111 -3.40124 2.60794 0
M  V30 2966 H 276.295 -3.42865 3.58828 0
M  V30 2967 H 271.551 -3.52079 4.9985 0
M  V30 2968 H 275.725 -3.56043 5.98503 0
M  V30 2969 H 273.352 -3.60218 6.69438 0
M  V30 2970 N 274.927 -0.932562 -1.27047 0
M  V30 2971 C 276.157 -0.591173 -1.97961 0
M  V30 2972 C 276.565 0.836219 -1.69717 0
M  V30 2973 O 275.908 1.56801 -0.957036 0
M  V30 2974 C 275.97 -0.743082 -3.51736 0
M  V30 2975 C 275.634 -2.1435 -4.03613 0
M  V30 2976 C 276.631 -3.11815 -4.16014 0
M  V30 2977 C 274.316 -2.46175 -4.37839 0
M  V30 2978 C 276.31 -4.39211 -4.61923 0
M  V30 2979 C 273.997 -3.73806 -4.83438 0
M  V30 2980 C 274.995 -4.70137 -4.95439 0
M  V30 2981 O 274.683 -5.95496 -5.40037 0
M  V30 2982 H 274.415 -0.222375 -0.638377 0
M  V30 2983 H 276.969 -1.25317 -1.62742 0
M  V30 2984 H 275.199 -0.0239739 -3.86693 0
M  V30 2985 H 276.888 -0.40603 -4.03864 0
M  V30 2986 H 277.654 -2.88549 -3.89826 0
M  V30 2987 H 273.533 -1.71936 -4.27737 0
M  V30 2988 H 277.077 -5.14404 -4.71205 0
M  V30 2989 H 272.974 -3.96888 -5.09068 0
M  V30 2990 H 273.742 -5.98554 -5.58279 0
M  V30 2991 N 276.405 1.4127 -0.698611 0
M  V30 2992 C 277.353 2.32588 -0.023855 0
M  V30 2993 C 278.347 1.51128 0.765292 0
M  V30 2994 O 279.553 1.67043 0.670571 0
M  V30 2995 H 275.928 0.751918 0.0110871 0
M  V30 2996 H 277.899 2.87167 -0.811031 0
M  V30 2997 C 276.648 3.35947 0.896369 0
M  V30 2998 H 275.971 3.98684 0.298548 0
M  V30 2999 H 277.411 4.02376 1.33676 0
M  V30 3000 C 275.87 2.70076 2.01396 0
M  V30 3001 O 276.4 2.55093 3.10307 0
M  V30 3002 N 274.606 2.28724 1.79259 0
M  V30 3003 H 274.153 2.4111 0.906841 0
M  V30 3004 H 274.111 1.84986 2.54219 0
M  V30 3005 N 277.883 0.443576 1.51229 0
M  V30 3006 C 279.108 -0.121648 2.07043 0
M  V30 3007 C 279.533 -1.35156 1.30823 0
M  V30 3008 O 278.891 -1.7793 0.347934 0
M  V30 3009 C 278.939 -0.41624 3.5819 0
M  V30 3010 O 278.043 -1.50163 3.8409 0
M  V30 3011 H 277.384 0.000871367 0.663999 0
M  V30 3012 H 279.914 0.626706 1.94765 0
M  V30 3013 H 279.924 -0.664867 4.02546 0
M  V30 3014 H 278.599 0.482653 4.1309 0
M  V30 3015 H 277.176 -1.24248 3.51592 0
M  V30 3016 N 279.361 -1.56624 0.175154 0
M  V30 3017 C 280.591 -2.01082 -0.474283 0
M  V30 3018 C 280.999 -1.05447 -1.57091 0
M  V30 3019 O 280.342 -0.0480595 -1.83637 0
M  V30 3020 C 280.404 -3.41963 -1.10911 0
M  V30 3021 C 280.068 -4.56742 -0.153666 0
M  V30 3022 C 281.065 -5.16076 0.629448 0
M  V30 3023 C 278.75 -5.02277 -0.0483776 0
M  V30 3024 C 280.744 -6.19377 1.50501 0
M  V30 3025 C 278.431 -6.05427 0.830768 0
M  V30 3026 C 279.429 -6.63849 1.60605 0
M  V30 3027 O 279.117 -7.64998 2.47049 0
M  V30 3028 H 278.849 -0.664261 -0.125432 0
M  V30 3029 H 281.403 -2.03549 0.275163 0
M  V30 3030 H 279.633 -3.36422 -1.90676 0
M  V30 3031 H 281.322 -3.70352 -1.66114 0
M  V30 3032 H 282.088 -4.81776 0.558297 0
M  V30 3033 H 277.967 -4.56513 -0.641611 0
M  V30 3034 H 281.511 -6.64906 2.1106 0
M  V30 3035 H 277.408 -6.39151 0.903107 0
M  V30 3036 H 278.176 -7.82336 2.40607 0
M  V30 3037 N 280.839 0.0985539 -1.57292 0
M  V30 3038 C 282.25 0.653457 -1.74891 0
M  V30 3039 C 282.601 1.7929 -0.796838 0
M  V30 3040 O 281.726 2.16385 0.0254886 0
M  V30 3041 C 282.321 1.19216 -3.17133 0
M  V30 3042 C 280.88 1.69316 -3.36168 0
M  V30 3043 C 280.027 0.601294 -2.70702 0
M  V30 3044 H 282.978 -0.127497 -1.58187 0
M  V30 3045 H 282.999 2.06154 -3.19814 0
M  V30 3046 H 282.511 0.362635 -3.86402 0
M  V30 3047 H 280.612 2.5468 -2.71972 0
M  V30 3048 H 280.725 1.78853 -4.44464 0
M  V30 3049 H 279.089 1.0399 -2.32504 0
M  V30 3050 H 279.872 -0.217592 -3.4261 0
M  V30 3051 N 282.317 1.53212 0.369288 0
M  V30 3052 C 283.249 1.75668 1.47219 0
M  V30 3053 C 284.262 0.637387 1.49804 0
M  V30 3054 O 285.451 0.913561 1.5335 0
M  V30 3055 C 282.551 1.81818 2.85999 0
M  V30 3056 C 281.724 3.11409 3.07153 0
M  V30 3057 C 280.783 3.08849 4.26026 0
M  V30 3058 O 279.809 3.82659 4.2138 0
M  V30 3059 N 281.011 2.29409 5.33246 0
M  V30 3060 H 283.776 2.70832 1.28337 0
M  V30 3061 H 281.337 1.51944 0.55898 0
M  V30 3062 H 283.329 1.77588 3.63655 0
M  V30 3063 H 281.899 0.939544 2.98146 0
M  V30 3064 H 281.119 3.28971 2.1719 0
M  V30 3065 H 282.407 3.97059 3.18154 0
M  V30 3066 H 281.805 1.68946 5.39883 0
M  V30 3067 H 280.362 2.31001 6.09493 0
M  V30 3068 N 283.795 -0.628877 1.44509 0
M  V30 3069 C 284.727 -1.754 1.47538 0
M  V30 3070 C 285.74 -1.58575 0.368506 0
M  V30 3071 O 286.929 -1.66847 0.634376 0
M  V30 3072 C 284.029 -3.1315 1.29577 0
M  V30 3073 C 283.202 -3.56413 2.53551 0
M  V30 3074 C 282.261 -4.7305 2.30457 0
M  V30 3075 O 281.287 -4.81247 3.03957 0
M  V30 3076 N 282.489 -5.64903 1.3366 0
M  V30 3077 H 285.254 -1.73272 2.44534 0
M  V30 3078 H 282.815 -0.813512 1.39977 0
M  V30 3079 H 284.807 -3.88902 1.11971 0
M  V30 3080 H 283.377 -3.09908 0.409371 0
M  V30 3081 H 282.597 -2.70847 2.86419 0
M  V30 3082 H 283.885 -3.82071 3.36005 0
M  V30 3083 H 283.283 -5.60975 0.729604 0
M  V30 3084 H 281.84 -6.40275 1.22032 0
M  V30 3085 N 285.273 -1.31445 -0.869486 0
M  V30 3086 C 286.55 -1.11795 -1.60503 0
M  V30 3087 C 286.93 0.327168 -2.08549 0
M  V30 3088 O 286.278 1.32135 -1.8642 0
M  V30 3089 C 286.488 -2.13258 -2.76265 0
M  V30 3090 C 287.836 -2.45805 -3.46215 0
M  V30 3091 O 288.86 -2.11688 -2.86473 0
M  V30 3092 O 287.719 -3.04228 -4.5399 0
M  V30 3093 H 284.813 -0.430421 -0.706163 0
M  V30 3094 H 287.359 -1.42925 -0.914907 0
M  V30 3095 H 286.131 -3.10461 -2.3818 0
M  V30 3096 H 285.754 -1.83035 -3.52964 0
M  V30 3097 N 286.751 1.08385 -1.14413 0
M  V30 3098 C 287.999 1.80419 -0.910679 0
M  V30 3099 C 288.32 1.86658 0.564243 0
M  V30 3100 O 287.59 1.35985 1.41014 0
M  V30 3101 H 286.17 0.668204 -0.333934 0
M  V30 3102 H 288.832 1.31037 -1.44275 0
M  V30 3103 H 287.928 2.83238 -1.31082 0
M  V30 3104 N 288.23 0.939286 1.26551 0
M  V30 3105 C 289.177 0.446088 2.26448 0
M  V30 3106 C 290.147 -0.493234 1.58608 0
M  V30 3107 O 291.332 -0.409857 1.86346 0
M  V30 3108 C 288.472 -0.284375 3.43926 0
M  V30 3109 C 287.585 0.690399 4.26448 0
M  V30 3110 C 286.72 -0.0610712 5.31165 0
M  V30 3111 C 285.759 0.905649 6.05363 0
M  V30 3112 N 284.896 0.186055 7.01853 0
M  V30 3113 H 289.736 1.30291 2.68008 0
M  V30 3114 H 287.273 0.65371 1.31776 0
M  V30 3115 H 289.231 -0.724313 4.10864 0
M  V30 3116 H 287.861 -1.10535 3.03285 0
M  V30 3117 H 286.913 1.24885 3.59316 0
M  V30 3118 H 288.225 1.42873 4.779 0
M  V30 3119 H 287.379 -0.56038 6.04106 0
M  V30 3120 H 286.118 -0.832297 4.80546 0
M  V30 3121 H 285.123 1.4161 5.3125 0
M  V30 3122 H 286.348 1.67685 6.58072 0
M  V30 3123 H 284.294 -0.566714 6.53548 0
M  V30 3124 H 284.211 0.863752 7.51049 0
M  V30 3125 H 285.479 -0.292221 7.78952 0
M  V30 3126 N 289.708 -1.40897 0.706093 0
M  V30 3127 C 290.933 -2.05895 0.249435 0
M  V30 3128 C 291.358 -1.52823 -1.09666 0
M  V30 3129 O 290.716 -0.659589 -1.68876 0
M  V30 3130 C 290.764 -3.59872 0.22904 0
M  V30 3131 O 289.868 -4.04708 -0.792784 0
M  V30 3132 H 289.209 -0.653206 0.119241 0
M  V30 3133 H 291.739 -1.80471 0.96391 0
M  V30 3134 H 291.749 -4.07951 0.0634791 0
M  V30 3135 H 290.424 -3.97866 1.21141 0
M  V30 3136 H 289.001 -3.68111 -0.59572 0
M  V30 3137 N 291.186 -0.45159 -1.50991 0
M  V30 3138 C 292.463 0.170707 -1.94854 0
M  V30 3139 C 292.843 1.58788 -1.39103 0
M  V30 3140 O 292.191 2.20913 -0.583921 0
M  V30 3141 C 292.401 0.133929 -3.48743 0
M  V30 3142 C 293.749 0.33248 -4.23296 0
M  V30 3143 O 294.773 0.211403 -3.55572 0
M  V30 3144 O 293.632 0.57486 -5.43468 0
M  V30 3145 H 290.726 0.122264 -0.817912 0
M  V30 3146 H 293.272 -0.510594 -1.61836 0
M  V30 3147 H 292.044 -0.856283 -3.81816 0
M  V30 3148 H 291.667 0.857529 -3.88242 0
M  V30 3149 N 292.664 1.56529 -0.183458 0
M  V30 3150 C 293.912 1.96855 0.457452 0
M  V30 3151 C 294.233 1.07104 1.62953 0
M  V30 3152 O 293.503 0.139887 1.954 0
M  V30 3153 H 292.083 0.72693 0.171992 0
M  V30 3154 H 294.745 1.93056 -0.267476 0
M  V30 3155 H 293.841 3.01423 0.809368 0
M  V30 3156 N 294.142 -0.090211 1.57342 0
M  V30 3157 C 295.37 -0.806224 1.90546 0
M  V30 3158 C 295.785 -1.72041 0.777644 0
M  V30 3159 O 295.142 -1.80778 -0.250103 0
M  V30 3160 C 295.193 -1.61546 3.23396 0
M  V30 3161 O 294.914 -0.738043 4.31839 0
M  V30 3162 C 296.415 -2.4341 3.70495 0
M  V30 3163 H 293.635 -0.230256 0.630257 0
M  V30 3164 H 296.179 -0.0659843 2.04394 0
M  V30 3165 H 294.334 -2.30816 3.11131 0
M  V30 3166 H 294.748 -1.29901 5.08159 0
M  V30 3167 H 296.222 -2.95676 4.66133 0
M  V30 3168 H 296.699 -3.22098 2.98579 0
M  V30 3169 H 297.305 -1.79331 3.85643 0
M  V30 3170 N 295.62 -1.53406 -0.361157 0
M  V30 3171 C 296.53 -1.83122 -1.4664 0
M  V30 3172 C 297.546 -0.719943 -1.58407 0
M  V30 3173 O 298.722 -1.01046 -1.74218 0
M  V30 3174 C 295.787 -2.01891 -2.81853 0
M  V30 3175 C 294.848 -3.25784 -2.79577 0
M  V30 3176 C 294.081 -3.43648 -4.0834 0
M  V30 3177 O 294.304 -2.65714 -5.0473 0
M  V30 3178 O 293.238 -4.37018 -4.13883 0
M  V30 3179 H 297.064 -2.7703 -1.24451 0
M  V30 3180 H 294.649 -1.38841 -0.551678 0
M  V30 3181 H 296.531 -2.15782 -3.61962 0
M  V30 3182 H 295.206 -1.11173 -3.0401 0
M  V30 3183 H 294.113 -3.17312 -1.98151 0
M  V30 3184 H 295.446 -4.16439 -2.62373 0
M  V30 3185 N 297.098 0.621204 -1.44841 0
M  V30 3186 C 298.326 1.40752 -1.51646 0
M  V30 3187 C 298.741 1.88246 -0.144549 0
M  V30 3188 O 298.098 1.61422 0.851416 0
M  V30 3189 C 298.149 2.62119 -2.4895 0
M  V30 3190 O 297.87 2.16602 -3.80808 0
M  V30 3191 C 299.371 3.55135 -2.65319 0
M  V30 3192 H 296.591 0.431325 -0.514004 0
M  V30 3193 H 299.135 0.758835 -1.899 0
M  V30 3194 H 297.29 3.23058 -2.13805 0
M  V30 3195 H 297.704 2.95358 -4.33433 0
M  V30 3196 H 299.178 4.36874 -3.37409 0
M  V30 3197 H 299.655 4.04592 -1.70886 0
M  V30 3198 H 300.261 3.00058 -3.01405 0
M  V30 3199 N 298.576 1.31904 0.862503 0
M  V30 3200 C 299.801 1.25135 1.65397 0
M  V30 3201 C 300.226 -0.179 1.87246 0
M  V30 3202 O 299.584 -1.1277 1.4196 0
M  V30 3203 C 299.632 2.00832 2.99498 0
M  V30 3204 O 298.736 1.35075 3.89652 0
M  V30 3205 H 298.077 0.431655 0.504549 0
M  V30 3206 H 300.607 1.74094 1.07483 0
M  V30 3207 H 300.617 2.10709 3.49379 0
M  V30 3208 H 299.292 3.04847 2.82916 0
M  V30 3209 H 297.869 1.33696 3.48109 0
M  V30 3210 N 300.054 -1.07777 1.14986 0
M  V30 3211 C 301.282 -1.84018 0.945773 0
M  V30 3212 C 301.697 -1.81897 -0.505863 0
M  V30 3213 O 301.054 -1.22726 -1.35072 0
M  V30 3214 C 301.105 -3.31287 1.44677 0
M  V30 3215 O 300.826 -3.33449 2.84154 0
M  V30 3216 C 302.327 -4.24311 1.28355 0
M  V30 3217 H 299.547 -0.580716 0.336169 0
M  V30 3218 H 302.091 -1.36077 1.52654 0
M  V30 3219 H 300.246 -3.76594 0.908625 0
M  V30 3220 H 300.66 -4.25427 3.06777 0
M  V30 3221 H 302.134 -5.2573 1.68261 0
M  V30 3222 H 302.611 -4.38612 0.227184 0
M  V30 3223 H 303.217 -3.84836 1.81056 0
M  V30 3224 N 301.532 -0.945985 -1.26051 0
M  V30 3225 C 302.48 -0.450259 -2.282 0
M  V30 3226 C 303.474 0.47497 -1.62605 0
M  V30 3227 O 304.68 0.352653 -1.76512 0
M  V30 3228 H 301.055 -0.127081 -0.741184 0
M  V30 3229 H 303.026 -1.32422 -2.67408 0
M  V30 3230 C 301.775 0.26467 -3.46691 0
M  V30 3231 H 301.098 -0.438123 -3.97392 0
M  V30 3232 H 302.538 0.575678 -4.20074 0
M  V30 3233 C 300.997 1.48416 -3.02447 0
M  V30 3234 O 301.527 2.58227 -3.07704 0
M  V30 3235 N 299.733 1.34243 -2.57735 0
M  V30 3236 H 299.28 0.448994 -2.53657 0
M  V30 3237 H 299.238 2.15957 -2.28495 0
M  V30 3238 N 303.011 1.40521 -0.713556 0
M  V30 3239 C 303.941 2.33381 -0.0743864 0
M  V30 3240 C 304.922 1.52784 0.747735 0
M  V30 3241 O 306.107 1.81258 0.697071 0
M  V30 3242 C 303.237 3.36748 0.849598 0
M  V30 3243 C 302.191 4.27793 0.133247 0
M  V30 3244 C 301.517 5.21679 1.17281 0
M  V30 3245 C 302.817 5.12415 -1.01134 0
M  V30 3246 H 304.511 2.87081 -0.850007 0
M  V30 3247 H 302.057 1.38034 -0.410201 0
M  V30 3248 H 304.01 4.00648 1.30612 0
M  V30 3249 H 302.734 2.81439 1.65709 0
M  V30 3250 H 301.393 3.65342 -0.303426 0
M  V30 3251 H 301.041 4.62677 1.9733 0
M  V30 3252 H 300.741 5.83435 0.698397 0
M  V30 3253 H 302.265 5.88456 1.62947 0
M  V30 3254 H 303.679 5.69781 -0.634274 0
M  V30 3255 H 302.076 5.83203 -1.41399 0
M  V30 3256 H 303.146 4.48514 -1.84292 0
M  V30 3257 N 304.489 0.459591 1.5075 0
M  V30 3258 C 305.439 -0.358926 2.25157 0
M  V30 3259 C 306.423 -0.971285 1.28276 0
M  V30 3260 O 307.615 -0.885739 1.53244 0
M  V30 3261 C 304.744 -1.44695 3.11317 0
M  V30 3262 C 303.83 -0.842894 4.15639 0
M  V30 3263 N 304.221 0.0299373 5.05791 0
M  V30 3264 C 302.519 -1.10809 4.32015 0
M  V30 3265 C 303.22 0.371563 5.80512 0
M  V30 3266 N 302.196 -0.250409 5.43023 0
M  V30 3267 H 305.998 0.313636 2.92222 0
M  V30 3268 H 303.512 0.273021 1.60089 0
M  V30 3269 H 305.509 -2.04641 3.63218 0
M  V30 3270 H 304.169 -2.12162 2.45799 0
M  V30 3271 H 305.18 0.39797 5.16369 0
M  V30 3272 H 301.857 -1.7786 3.77719 0
M  V30 3273 H 303.247 1.08319 6.63111 0
M  V30 3274 N 305.967 -1.56429 0.191757 0
M  V30 3275 C 306.899 -2.16154 -0.762245 0
M  V30 3276 C 307.912 -1.12247 -1.17917 0
M  V30 3277 O 309.101 -1.39353 -1.11548 0
M  V30 3278 C 306.201 -2.70606 -2.04024 0
M  V30 3279 C 305.374 -3.99381 -1.78364 0
M  V30 3280 C 304.433 -4.38692 -2.90578 0
M  V30 3281 O 303.459 -5.06179 -2.6033 0
M  V30 3282 N 304.661 -4.01922 -4.18854 0
M  V30 3283 H 307.426 -2.98643 -0.251526 0
M  V30 3284 H 304.987 -1.61897 0.00967373 0
M  V30 3285 H 306.979 -2.93891 -2.78227 0
M  V30 3286 H 305.549 -1.9259 -2.46227 0
M  V30 3287 H 304.769 -3.84262 -0.879581 0
M  V30 3288 H 306.057 -4.83445 -1.58614 0
M  V30 3289 H 305.455 -3.47631 -4.46283 0
M  V30 3290 H 304.012 -4.30165 -4.89695 0
M  V30 3291 N 307.445 0.0818655 -1.57387 0
M  V30 3292 C 308.392 1.09834 -2.0299 0
M  V30 3293 C 309.362 1.39043 -0.908639 0
M  V30 3294 O 310.547 1.50282 -1.17559 0
M  V30 3295 C 307.687 2.40971 -2.47037 0
M  V30 3296 C 306.8 2.18379 -3.7274 0
M  V30 3297 C 305.935 3.43008 -4.0561 0
M  V30 3298 C 304.974 3.15736 -5.24383 0
M  V30 3299 N 304.111 4.32667 -5.52941 0
M  V30 3300 H 308.951 0.702472 -2.89602 0
M  V30 3301 H 306.488 0.33531 -1.43227 0
M  V30 3302 H 308.446 3.1752 -2.70623 0
M  V30 3303 H 307.076 2.78379 -1.63417 0
M  V30 3304 H 306.128 1.32569 -3.56552 0
M  V30 3305 H 307.44 1.94227 -4.59431 0
M  V30 3306 H 306.594 4.27958 -4.30043 0
M  V30 3307 H 305.333 3.70225 -3.17466 0
M  V30 3308 H 304.338 2.2918 -4.99757 0
M  V30 3309 H 305.563 2.8985 -6.14136 0
M  V30 3310 H 303.509 4.59935 -4.67756 0
M  V30 3311 H 303.426 4.11753 -6.34031 0
M  V30 3312 H 304.694 5.18644 -5.81918 0
M  V30 3313 N 308.923 1.53595 0.353017 0
M  V30 3314 C 309.853 1.83902 1.43883 0
M  V30 3315 C 310.834 0.693421 1.55324 0
M  V30 3316 O 312.019 0.944452 1.69687 0
M  V30 3317 C 309.149 2.04016 2.8106 0
M  V30 3318 C 308.103 3.19814 2.84434 0
M  V30 3319 C 307.429 3.25244 4.24406 0
M  V30 3320 C 308.729 4.58133 2.50822 0
M  V30 3321 H 310.423 2.74835 1.1877 0
M  V30 3322 H 307.969 1.32242 0.569917 0
M  V30 3323 H 309.922 2.238 3.57059 0
M  V30 3324 H 308.646 1.09804 3.07588 0
M  V30 3325 H 307.305 2.9987 2.10887 0
M  V30 3326 H 306.953 2.28646 4.48029 0
M  V30 3327 H 306.653 4.03054 4.27576 0
M  V30 3328 H 308.177 3.47228 5.0226 0
M  V30 3329 H 309.591 4.77995 3.16534 0
M  V30 3330 H 307.988 5.38276 2.6529 0
M  V30 3331 H 309.058 4.62387 1.46034 0
M  V30 3332 N 310.401 -0.613514 1.45168 0
M  V30 3333 C 311.631 -1.39743 1.52169 0
M  V30 3334 C 312.039 -1.88596 0.151086 0
M  V30 3335 O 311.382 -1.6251 -0.856521 0
M  V30 3336 C 311.444 -2.64035 2.43979 0
M  V30 3337 C 311.108 -2.36861 3.90827 0
M  V30 3338 C 312.105 -1.97591 4.80889 0
M  V30 3339 C 309.79 -2.49956 4.35692 0
M  V30 3340 C 311.784 -1.71768 6.1382 0
M  V30 3341 C 309.471 -2.23747 5.68665 0
M  V30 3342 C 310.469 -1.84714 6.57548 0
M  V30 3343 O 310.157 -1.58809 7.88058 0
M  V30 3344 H 309.889 -0.434382 0.517966 0
M  V30 3345 H 312.443 -0.75587 1.90986 0
M  V30 3346 H 310.673 -3.3089 2.00122 0
M  V30 3347 H 312.362 -3.26069 2.41731 0
M  V30 3348 H 313.128 -1.87015 4.47493 0
M  V30 3349 H 309.007 -2.79305 3.66756 0
M  V30 3350 H 312.551 -1.41227 6.83155 0
M  V30 3351 H 308.448 -2.33938 6.01617 0
M  V30 3352 H 309.216 -1.7291 8.00028 0
M  V30 3353 N 311.879 -1.3236 -0.855495 0
M  V30 3354 C 313.109 -1.25688 -1.6397 0
M  V30 3355 C 313.517 0.177592 -1.88365 0
M  V30 3356 O 312.86 1.12485 -1.45234 0
M  V30 3357 C 312.922 -1.94602 -3.02275 0
M  V30 3358 C 312.586 -3.43937 -3.00926 0
M  V30 3359 C 313.583 -4.39435 -2.77835 0
M  V30 3360 C 311.268 -3.85858 -3.21588 0
M  V30 3361 C 313.262 -5.74829 -2.75409 0
M  V30 3362 C 310.949 -5.21361 -3.18789 0
M  V30 3363 C 311.947 -6.15658 -2.95727 0
M  V30 3364 O 311.635 -7.48681 -2.928 0
M  V30 3365 H 311.367 -0.434972 -0.51747 0
M  V30 3366 H 313.921 -1.75023 -1.075 0
M  V30 3367 H 312.151 -1.39836 -3.60531 0
M  V30 3368 H 313.84 -1.81651 -3.62985 0
M  V30 3369 H 314.606 -4.08374 -2.6164 0
M  V30 3370 H 310.485 -3.12883 -3.38564 0
M  V30 3371 H 314.029 -6.48404 -2.57328 0
M  V30 3372 H 309.926 -5.52052 -3.34528 0
M  V30 3373 H 310.694 -7.5803 -3.0876 0
M  V30 3374 N 313.357 1.07166 -1.15556 0
M  V30 3375 C 314.307 2.12649 -0.82247 0
M  V30 3376 C 315.291 1.59725 0.194129 0
M  V30 3377 O 316.483 1.76999 -0.00540402 0
M  V30 3378 C 313.612 3.41847 -0.315572 0
M  V30 3379 C 312.698 4.0162 -1.36244 0
M  V30 3380 N 313.089 4.35625 -2.5703 0
M  V30 3381 C 311.387 4.29114 -1.21562 0
M  V30 3382 C 312.088 4.83017 -3.24144 0
M  V30 3383 N 311.064 4.81906 -2.51531 0
M  V30 3384 H 314.866 2.36776 -1.74111 0
M  V30 3385 H 312.38 1.24622 -1.0413 0
M  V30 3386 H 314.377 4.16859 -0.0585855 0
M  V30 3387 H 313.037 3.19163 0.597105 0
M  V30 3388 H 314.048 4.26253 -2.94158 0
M  V30 3389 H 310.725 4.15919 -0.362988 0
M  V30 3390 H 312.115 5.18605 -4.27198 0
M  V30 3391 N 314.835 0.952656 1.25548 0
M  V30 3392 C 316.081 0.607272 1.93494 0
M  V30 3393 C 316.414 -0.853245 1.74452 0
M  V30 3394 O 315.689 -1.61194 1.08843 0
M  V30 3395 C 315.972 0.96435 3.46947 0
M  V30 3396 C 315.825 2.48045 3.75225 0
M  V30 3397 C 317.144 0.487987 4.37386 0
M  V30 3398 H 314.263 0.222096 0.702739 0
M  V30 3399 H 316.905 1.18895 1.48203 0
M  V30 3400 H 315.055 0.469361 3.85654 0
M  V30 3401 H 316.727 3.04905 3.46166 0
M  V30 3402 H 314.97 2.919 3.209 0
M  V30 3403 H 315.641 2.6808 4.82532 0
M  V30 3404 H 318.117 0.912558 4.0597 0
M  V30 3405 H 316.993 0.766547 5.43521 0
M  V30 3406 H 317.254 -0.612063 4.37843 0
M  V30 3407 N 316.313 -1.40141 0.720998 0
M  V30 3408 C 317.243 -2.33339 0.0867621 0
M  V30 3409 C 318.224 -1.53178 -0.739622 0
M  V30 3410 O 319.409 -1.81625 -0.687449 0
M  V30 3411 C 316.539 -3.37194 -0.831728 0
M  V30 3412 C 315.493 -4.27857 -0.110558 0
M  V30 3413 C 314.819 -5.22294 -1.14513 0
M  V30 3414 C 316.119 -5.11872 1.0385 0
M  V30 3415 H 317.813 -2.86626 0.865219 0
M  V30 3416 H 315.359 -1.37814 0.417516 0
M  V30 3417 H 317.312 -4.01335 -1.28485 0
M  V30 3418 H 316.036 -2.82314 -1.64214 0
M  V30 3419 H 314.695 -3.65176 0.322797 0
M  V30 3420 H 314.343 -4.63717 -1.94874 0
M  V30 3421 H 314.043 -5.83797 -0.667446 0
M  V30 3422 H 315.567 -5.89312 -1.59824 0
M  V30 3423 H 316.981 -5.69436 0.664482 0
M  V30 3424 H 315.378 -5.82445 1.4449 0
M  V30 3425 H 316.448 -4.4753 1.86668 0
M  V30 3426 N 317.792 -0.46758 -1.50504 0
M  V30 3427 C 319.04 0.0884469 -2.01906 0
M  V30 3428 C 319.361 1.40532 -1.35188 0
M  V30 3429 O 318.631 1.89515 -0.496079 0
M  V30 3430 H 317.211 0.0356765 -0.746148 0
M  V30 3431 H 319.873 -0.6172 -1.84869 0
M  V30 3432 H 318.969 0.2425 -3.11156 0
M  V30 3433 N 319.27 1.56325 -0.20005 0
M  V30 3434 C 320.498 2.02105 0.442874 0
M  V30 3435 C 320.913 1.08014 1.5485 0
M  V30 3436 O 320.27 0.0858797 1.82298 0
M  V30 3437 C 320.321 3.47549 0.994583 0
M  V30 3438 O 320.042 4.38049 -0.0669322 0
M  V30 3439 C 321.543 4.0887 1.7129 0
M  V30 3440 H 318.763 0.661807 0.110691 0
M  V30 3441 H 321.307 2.02134 -0.310207 0
M  V30 3442 H 319.462 3.48204 1.69803 0
M  V30 3443 H 319.876 5.23368 0.344462 0
M  V30 3444 H 321.35 5.12475 2.05118 0
M  V30 3445 H 321.827 3.52615 2.61838 0
M  V30 3446 H 322.433 4.12002 1.05518 0
M  V30 3447 N 320.748 -0.0735177 1.57428 0
M  V30 3448 C 322.025 -0.805903 1.78226 0
M  V30 3449 C 322.405 -1.95874 0.787189 0
M  V30 3450 O 321.753 -2.2779 -0.180029 0
M  V30 3451 C 321.963 -1.28045 3.24662 0
M  V30 3452 C 323.311 -1.71453 3.88444 0
M  V30 3453 O 324.335 -1.37616 3.28543 0
M  V30 3454 O 323.194 -2.34093 4.93825 0
M  V30 3455 H 320.288 -0.386041 0.73137 0
M  V30 3456 H 322.834 -0.0537269 1.69615 0
M  V30 3457 H 321.606 -0.455476 3.8864 0
M  V30 3458 H 321.229 -2.094 3.37991 0
M  V30 3459 N 322.226 -1.5378 -0.344866 0
M  V30 3460 C 323.158 -1.77988 -1.44406 0
M  V30 3461 C 324.171 -0.661138 -1.48771 0
M  V30 3462 O 325.36 -0.937842 -1.51877 0
M  V30 3463 C 322.46 -1.86345 -2.8307 0
M  V30 3464 C 321.633 -3.16256 -3.0216 0
M  V30 3465 C 320.692 -3.15588 -4.21059 0
M  V30 3466 O 319.718 -3.89314 -4.15239 0
M  V30 3467 N 320.92 -2.37864 -5.29529 0
M  V30 3468 H 323.685 -2.72839 -1.24012 0
M  V30 3469 H 321.246 -1.52814 -0.534737 0
M  V30 3470 H 323.238 -1.83351 -3.60783 0
M  V30 3471 H 321.808 -0.986858 -2.96614 0
M  V30 3472 H 321.028 -3.32385 -2.11929 0
M  V30 3473 H 322.316 -4.0207 -3.11797 0
M  V30 3474 H 321.714 -1.77514 -5.37127 0
M  V30 3475 H 320.271 -2.40668 -6.05741 0
M  V30 3476 N 323.704 0.605807 -1.45491 0
M  V30 3477 C 324.929 1.39625 -1.53361 0
M  V30 3478 C 325.354 1.87351 -0.167645 0
M  V30 3479 O 324.712 1.60243 0.848051 0
M  V30 3480 C 324.76 2.57559 -2.5238 0
M  V30 3481 O 323.864 3.58248 -2.04285 0
M  V30 3482 H 323.205 0.416771 -0.516912 0
M  V30 3483 H 325.735 0.737103 -1.90861 0
M  V30 3484 H 325.745 3.0478 -2.71244 0
M  V30 3485 H 324.42 2.22171 -3.51586 0
M  V30 3486 H 322.997 3.17664 -1.95305 0
M  V30 3487 N 325.182 1.32811 0.848464 0
M  V30 3488 C 326.092 1.24278 1.98978 0
M  V30 3489 C 327.108 0.155176 1.73307 0
M  V30 3490 O 328.284 0.376999 1.9784 0
M  V30 3491 C 325.349 0.972444 3.32783 0
M  V30 3492 C 324.41 2.14911 3.71634 0
M  V30 3493 C 323.643 1.89157 4.99054 0
M  V30 3494 O 323.866 0.837165 5.64223 0
M  V30 3495 O 322.8 2.75433 5.35183 0
M  V30 3496 H 326.626 2.20238 2.09115 0
M  V30 3497 H 324.211 1.12762 0.980052 0
M  V30 3498 H 326.093 0.838432 4.12975 0
M  V30 3499 H 324.768 0.043051 3.23671 0
M  V30 3500 H 323.675 2.33862 2.91992 0
M  V30 3501 H 325.008 3.06151 3.85399 0
M  V30 3502 N 326.66 -1.06551 1.16123 0
M  V30 3503 C 327.937 -1.76097 0.85142 0
M  V30 3504 C 328.317 -2.00802 -0.6513 0
M  V30 3505 O 327.665 -1.63302 -1.59827 0
M  V30 3506 C 327.875 -3.06384 1.67122 0
M  V30 3507 C 329.223 -3.80585 1.88255 0
M  V30 3508 O 330.247 -3.16218 1.63966 0
M  V30 3509 O 329.106 -4.96212 2.2899 0
M  V30 3510 H 326.2 -0.765102 0.313923 0
M  V30 3511 H 328.746 -1.12844 1.26745 0
M  V30 3512 H 327.518 -2.84071 2.69108 0
M  V30 3513 H 327.141 -3.77371 1.25206 0
M  V30 3514 N 328.138 -0.959301 -1.25041 0
M  V30 3515 C 329.387 -0.612254 -1.92183 0
M  V30 3516 C 329.7 0.855347 -1.75907 0
M  V30 3517 O 330.906 1.31256 -2.37664 0
M  V30 3518 C 329.362 -1.04435 -3.44414 0
M  V30 3519 C 328.97 -2.53482 -3.69393 0
M  V30 3520 C 330.714 -0.770055 -4.17457 0
M  V30 3521 C 328.621 -2.90468 -5.15153 0
M  V30 3522 H 327.551 -0.225279 -0.719559 0
M  V30 3523 H 330.202 -1.16438 -1.41825 0
M  V30 3524 H 328.584 -0.4206 -3.9376 0
M  V30 3525 H 329.758 -3.20916 -3.30681 0
M  V30 3526 H 328.073 -2.78432 -3.0962 0
M  V30 3527 H 330.67 -1.02249 -5.24832 0
M  V30 3528 H 331.013 0.293611 -4.15263 0
M  V30 3529 H 331.546 -1.35437 -3.74034 0
M  V30 3530 H 328.285 -3.95871 -5.22462 0
M  V30 3531 H 327.805 -2.27711 -5.54894 0
M  V30 3532 H 329.484 -2.79914 -5.83315 0
M  V30 3533 N 329.616 1.39756 -0.72842 0
M  V30 3534 C 330.546 2.33289 -0.0991354 0
M  V30 3535 C 331.527 1.53568 0.731489 0
M  V30 3536 O 332.712 1.81987 0.677807 0
M  V30 3537 C 329.842 3.3763 0.813834 0
M  V30 3538 C 328.796 4.2791 0.0878663 0
M  V30 3539 C 328.122 5.22894 1.11741 0
M  V30 3540 C 329.422 5.11314 -1.06563 0
M  V30 3541 H 331.116 2.86163 -0.880408 0
M  V30 3542 H 328.662 1.37591 -0.424819 0
M  V30 3543 H 330.615 4.0201 1.26355 0
M  V30 3544 H 329.339 2.83181 1.62715 0
M  V30 3545 H 327.998 3.65 -0.342159 0
M  V30 3546 H 327.646 4.64744 1.92412 0
M  V30 3547 H 327.346 5.84143 0.636477 0
M  V30 3548 H 328.87 5.90151 1.56697 0
M  V30 3549 H 330.284 5.69076 -0.694671 0
M  V30 3550 H 328.681 5.81671 -1.47577 0
M  V30 3551 H 329.751 4.46534 -1.89038 0
M  V30 3552 N 331.094 0.475555 1.50254 0
M  V30 3553 C 332.334 -0.0765802 2.04256 0
M  V30 3554 C 332.698 -1.36587 1.34937 0
M  V30 3555 O 333.899 -2.00066 1.79519 0
M  V30 3556 C 332.17 -0.251668 3.56513 0
M  V30 3557 S 333.729 -0.761716 4.32138 0
M  V30 3558 H 330.547 -0.0138456 0.710865 0
M  V30 3559 H 333.149 0.643714 1.84598 0
M  V30 3560 H 331.853 0.692404 4.04517 0
M  V30 3561 H 331.384 -0.997946 3.80532 0
M  V30 3562 H 333.399 -2.03451 4.52573 0
M  V30 3563 N 332.573 -1.56217 0.208337 0
M  V30 3564 C 333.536 -2.18455 -0.693557 0
M  V30 3565 C 334.536 -1.14268 -1.13135 0
M  V30 3566 O 335.726 -1.39577 -1.0423 0
M  V30 3567 C 332.858 -2.79727 -1.94848 0
M  V30 3568 H 334.051 -2.99519 -0.15114 0
M  V30 3569 H 331.604 -1.56245 -0.041287 0
M  V30 3570 H 332.339 -2.02497 -2.53309 0
M  V30 3571 H 332.124 -3.56009 -1.64316 0
M  V30 3572 H 333.614 -3.27475 -2.59133 0
M  V30 3573 N 334.051 0.0651679 -1.57465 0
M  V30 3574 C 334.961 1.09448 -2.07505 0
M  V30 3575 C 335.977 1.41974 -1.00595 0
M  V30 3576 O 337.153 1.52018 -1.32107 0
M  V30 3577 C 334.218 2.38689 -2.51453 0
M  V30 3578 C 333.279 2.13073 -3.72691 0
M  V30 3579 C 332.512 3.36152 -4.14533 0
M  V30 3580 O 332.735 4.45517 -3.56189 0
M  V30 3581 O 331.669 3.23974 -5.07272 0
M  V30 3582 H 335.495 0.69935 -2.95538 0
M  V30 3583 H 333.08 0.279752 -1.46757 0
M  V30 3584 H 334.962 3.14736 -2.80212 0
M  V30 3585 H 333.637 2.77568 -1.66546 0
M  V30 3586 H 332.544 1.34709 -3.49005 0
M  V30 3587 H 333.877 1.79071 -4.5847 0
M  V30 3588 N 335.529 1.53961 0.336706 0
M  V30 3589 C 336.776 1.71536 1.07618 0
M  V30 3590 C 337.104 0.482125 1.8843 0
M  V30 3591 O 336.359 -0.536142 1.88213 0
M  V30 3592 C 336.658 2.93493 2.03953 0
M  V30 3593 C 336.324 4.28811 1.39399 0
M  V30 3594 C 334.986 4.65602 1.21523 0
M  V30 3595 C 337.338 5.12844 0.929541 0
M  V30 3596 C 334.666 5.84037 0.558312 0
M  V30 3597 C 337.018 6.31951 0.286505 0
M  V30 3598 C 335.682 6.67432 0.0954869 0
M  V30 3599 H 334.952 0.627696 0.393801 0
M  V30 3600 H 337.599 1.88186 0.354715 0
M  V30 3601 H 335.904 2.71475 2.82504 0
M  V30 3602 H 337.601 3.04285 2.61174 0
M  V30 3603 H 334.191 3.99858 1.54311 0
M  V30 3604 H 338.375 4.84947 1.05548 0
M  V30 3605 H 333.631 6.10097 0.398995 0
M  V30 3606 H 337.805 6.96352 -0.0814376 0
M  V30 3607 H 335.432 7.59063 -0.415579 0
M  V30 3608 N 337.007 -0.598083 1.45811 0
M  V30 3609 C 338.418 -1.18011 1.44673 0
M  V30 3610 C 338.769 -1.95378 0.179364 0
M  V30 3611 O 337.894 -2.04124 -0.718509 0
M  V30 3612 C 338.489 -2.14677 2.62105 0
M  V30 3613 C 337.048 -2.68236 2.64057 0
M  V30 3614 C 336.195 -1.43816 2.37091 0
M  V30 3615 H 339.146 -0.38686 1.53913 0
M  V30 3616 H 339.167 -2.97878 2.36746 0
M  V30 3617 H 338.679 -1.5834 3.5433 0
M  V30 3618 H 336.78 -3.28486 1.75864 0
M  V30 3619 H 336.893 -3.12021 3.63566 0
M  V30 3620 H 335.257 -1.731 1.86838 0
M  V30 3621 H 336.04 -0.893333 3.31473 0
M  V30 3622 N 338.485 -1.33259 -0.841409 0
M  V30 3623 C 339.762 -1.15174 -1.58096 0
M  V30 3624 C 340.142 0.282858 -2.09196 0
M  V30 3625 O 339.49 1.28151 -1.89181 0
M  V30 3626 C 339.7 -2.1907 -2.71679 0
M  V30 3627 C 341.048 -2.53093 -3.40924 0
M  V30 3628 O 342.072 -2.17717 -2.81918 0
M  V30 3629 O 340.931 -3.1379 -4.47435 0
M  V30 3630 H 338.025 -0.445303 -0.696875 0
M  V30 3631 H 340.571 -1.44833 -0.884385 0
M  V30 3632 H 339.343 -3.15443 -2.31541 0
M  V30 3633 H 338.966 -1.90481 -3.49002 0
M  V30 3634 N 339.963 1.05934 -1.16686 0
M  V30 3635 C 340.873 2.17014 -0.891183 0
M  V30 3636 C 341.889 1.73453 0.137907 0
M  V30 3637 O 343.065 2.01361 -0.039592 0
M  V30 3638 C 340.13 3.44384 -0.400099 0
M  V30 3639 C 339.191 4.02433 -1.49486 0
M  V30 3640 C 338.424 5.23723 -1.02711 0
M  V30 3641 O 338.647 5.7027 0.121716 0
M  V30 3642 O 337.581 5.7382 -1.81699 0
M  V30 3643 H 341.407 2.43113 -1.82015 0
M  V30 3644 H 338.992 1.15541 -0.947132 0
M  V30 3645 H 340.874 4.21189 -0.133392 0
M  V30 3646 H 339.549 3.19802 0.500817 0
M  V30 3647 H 338.456 3.27102 -1.81535 0
M  V30 3648 H 339.789 4.31317 -2.37121 0
M  V30 3649 N 341.441 0.965919 1.2453 0
M  V30 3650 C 342.852 0.665929 1.7442 0
M  V30 3651 C 343.203 -0.818407 1.78316 0
M  V30 3652 O 342.328 -1.64037 1.41141 0
M  V30 3653 C 342.923 1.20211 3.16757 0
M  V30 3654 C 341.482 0.952059 3.6416 0
M  V30 3655 C 340.629 1.33848 2.42858 0
M  V30 3656 H 343.58 1.14144 1.10258 0
M  V30 3657 H 343.601 0.567544 3.76244 0
M  V30 3658 H 343.113 2.28244 3.13889 0
M  V30 3659 H 341.214 -0.112821 3.72429 0
M  V30 3660 H 341.327 1.59645 4.51719 0
M  V30 3661 H 339.691 0.756864 2.43195 0
M  V30 3662 H 340.474 2.42827 2.42673 0
M  V30 3663 N 342.919 -1.39368 0.735821 0
M  V30 3664 C 343.866 -2.30599 0.0963825 0
M  V30 3665 C 344.836 -1.49257 -0.728794 0
M  V30 3666 O 346.021 -1.77941 -0.688588 0
M  V30 3667 C 343.161 -3.35596 -0.804305 0
M  V30 3668 C 342.274 -4.31987 0.0335761 0
M  V30 3669 C 341.409 -5.24053 -0.868461 0
M  V30 3670 C 340.448 -6.12095 -0.0258776 0
M  V30 3671 N 339.585 -6.96514 -0.883893 0
M  V30 3672 H 344.425 -2.8471 0.880002 0
M  V30 3673 H 341.962 -1.40188 0.445619 0
M  V30 3674 H 343.92 -3.95062 -1.34096 0
M  V30 3675 H 342.55 -2.82938 -1.55389 0
M  V30 3676 H 341.602 -3.74133 0.68766 0
M  V30 3677 H 342.914 -4.94074 0.685036 0
M  V30 3678 H 342.068 -5.88549 -1.47293 0
M  V30 3679 H 340.807 -4.62289 -1.5537 0
M  V30 3680 H 339.812 -5.4661 0.591386 0
M  V30 3681 H 341.037 -6.75923 0.656156 0
M  V30 3682 H 338.983 -6.37318 -1.55441 0
M  V30 3683 H 338.9 -7.55448 -0.288931 0
M  V30 3684 H 340.168 -7.65439 -1.4739 0
M  V30 3685 N 344.397 -0.483516 -1.5 0
M  V30 3686 C 345.643 0.0593261 -2.03313 0
M  V30 3687 C 345.998 1.36288 -1.35806 0
M  V30 3688 O 345.291 1.85519 -0.478897 0
M  V30 3689 C 345.485 0.286226 -3.56252 0
M  V30 3690 C 345.314 -0.993788 -4.38582 0
M  V30 3691 C 344.084 -1.54064 -4.81241 0
M  V30 3692 C 346.282 -1.89249 -4.78215 0
M  V30 3693 N 344.264 -2.76838 -5.47936 0
M  V30 3694 C 345.635 -2.96606 -5.44449 0
M  V30 3695 C 347.69 -1.90138 -4.60165 0
M  V30 3696 C 346.393 -4.04857 -5.94544 0
M  V30 3697 C 348.419 -2.97353 -5.1121 0
M  V30 3698 C 347.781 -4.03429 -5.77429 0
M  V30 3699 H 343.88 -0.0186322 -0.781778 0
M  V30 3700 H 346.464 -0.654489 -1.8337 0
M  V30 3701 H 344.635 0.969086 -3.76116 0
M  V30 3702 H 346.367 0.824515 -3.96212 0
M  V30 3703 H 343.122 -1.08813 -4.6093 0
M  V30 3704 H 343.546 -3.39221 -5.85882 0
M  V30 3705 H 348.188 -1.09441 -4.0839 0
M  V30 3706 H 345.906 -4.86363 -6.4535 0
M  V30 3707 H 349.492 -2.99039 -4.99066 0
M  V30 3708 H 348.372 -4.85025 -6.16214 0
M  V30 3709 N 345.875 1.56104 -0.216619 0
M  V30 3710 C 346.808 2.16026 0.735395 0
M  V30 3711 C 347.786 1.1032 1.1945 0
M  V30 3712 O 348.97 1.38549 1.27814 0
M  V30 3713 C 346.097 2.73656 1.99575 0
M  V30 3714 C 345.143 3.92146 1.67702 0
M  V30 3715 S 345.976 5.29397 0.806145 0
M  V30 3716 C 347.132 5.90463 2.07617 0
M  V30 3717 H 347.365 2.96439 0.226072 0
M  V30 3718 H 344.898 1.544 -0.00136639 0
M  V30 3719 H 346.856 3.075 2.71945 0
M  V30 3720 H 345.517 1.93245 2.47619 0
M  V30 3721 H 344.71 4.30954 2.61332 0
M  V30 3722 H 344.312 3.59423 1.03398 0
M  V30 3723 H 346.604 6.06136 3.02664 0
M  V30 3724 H 347.547 6.86589 1.73207 0
M  V30 3725 H 347.955 5.19252 2.21445 0
M  V30 3726 N 347.353 -0.0568162 1.57498 0
M  V30 3727 C 348.601 -0.751617 1.87604 0
M  V30 3728 C 348.922 -1.77351 0.81066 0
M  V30 3729 O 348.192 -1.95254 -0.159018 0
M  V30 3730 H 346.772 -0.280583 0.692302 0
M  V30 3731 H 349.434 -0.0293483 1.94878 0
M  V30 3732 H 348.53 -1.25852 2.856 0
M  V30 3733 N 348.832 -1.54138 -0.328536 0
M  V30 3734 C 350.08 -1.71765 -1.06496 0
M  V30 3735 C 350.401 -0.49149 -1.88704 0
M  V30 3736 O 349.671 0.494539 -1.89555 0
M  V30 3737 H 348.251 -0.633295 -0.396164 0
M  V30 3738 H 350.913 -1.91429 -0.366176 0
M  V30 3739 H 350.009 -2.5951 -1.73381 0
M  V30 3740 N 350.31 0.590341 -1.46126 0
M  V30 3741 C 351.273 1.68194 -1.55703 0
M  V30 3742 C 352.273 1.54808 -0.434868 0
M  V30 3743 O 353.463 1.59564 -0.698928 0
M  V30 3744 C 350.595 3.07575 -1.47005 0
M  V30 3745 H 351.788 1.61064 -2.52979 0
M  V30 3746 H 349.341 0.807541 -1.33823 0
M  V30 3747 H 350.076 3.20268 -0.509785 0
M  V30 3748 H 349.861 3.187 -2.28414 0
M  V30 3749 H 351.351 3.87055 -1.56776 0
M  V30 3750 N 351.788 1.33704 0.83433 0
M  V30 3751 C 352.698 1.26382 1.97648 0
M  V30 3752 C 353.714 0.173548 1.73132 0
M  V30 3753 O 354.89 0.397962 1.97429 0
M  V30 3754 C 351.955 1.00769 3.31733 0
M  V30 3755 C 351.016 2.1884 3.69334 0
M  V30 3756 C 350.249 1.9444 4.9702 0
M  V30 3757 O 350.472 0.896961 5.63303 0
M  V30 3758 O 349.406 2.81093 5.32231 0
M  V30 3759 H 353.232 2.22444 2.06767 0
M  V30 3760 H 350.817 1.13795 0.968037 0
M  V30 3761 H 352.699 0.882186 4.12062 0
M  V30 3762 H 351.374 0.0773783 3.23608 0
M  V30 3763 H 350.281 2.36946 2.89495 0
M  V30 3764 H 351.614 3.10221 3.82131 0
M  V30 3765 N 353.266 -1.05314 1.17247 0
M  V30 3766 C 354.196 -2.1498 0.911362 0
M  V30 3767 C 355.177 -1.69471 -0.146169 0
M  V30 3768 O 356.362 -1.942 0.003812 0
M  V30 3769 C 353.492 -3.4472 0.422528 0
M  V30 3770 C 352.446 -4.03789 1.4191 0
M  V30 3771 C 351.772 -5.28858 0.788274 0
M  V30 3772 C 353.072 -4.41418 2.7919 0
M  V30 3773 H 354.766 -2.3708 1.82848 0
M  V30 3774 H 352.312 -1.13938 0.880569 0
M  V30 3775 H 354.265 -4.20787 0.227289 0
M  V30 3776 H 352.989 -3.22269 -0.530123 0
M  V30 3777 H 351.648 -3.2979 1.60106 0
M  V30 3778 H 351.296 -5.02709 -0.171173 0
M  V30 3779 H 350.996 -5.69338 1.45353 0
M  V30 3780 H 352.52 -6.07612 0.603282 0
M  V30 3781 H 353.934 -5.08524 2.64719 0
M  V30 3782 H 352.331 -4.92913 3.42282 0
M  V30 3783 H 353.401 -3.51819 3.33693 0
M  V30 3784 N 354.744 -0.972509 -1.24016 0
M  V30 3785 C 355.969 -0.654417 -1.96805 0
M  V30 3786 C 356.394 0.770398 -1.716 0
M  V30 3787 O 355.752 1.52361 -0.982647 0
M  V30 3788 C 355.8 -0.941031 -3.48105 0
M  V30 3789 O 354.904 -0.0289472 -4.1239 0
M  V30 3790 H 354.245 -0.24692 -0.616382 0
M  V30 3791 H 356.775 -1.30396 -1.57664 0
M  V30 3792 H 356.785 -0.87452 -3.98517 0
M  V30 3793 H 355.46 -1.97939 -3.65777 0
M  V30 3794 H 354.037 -0.149192 -3.72601 0
M  V30 3795 N 356.222 1.38976 -0.743202 0
M  V30 3796 C 357.499 1.94351 -0.220705 0
M  V30 3797 C 357.879 1.67935 1.2791 0
M  V30 3798 O 357.227 1.01211 2.04862 0
M  V30 3799 C 357.437 3.44426 -0.563171 0
M  V30 3800 C 358.785 4.2144 -0.517046 0
M  V30 3801 O 359.809 3.52661 -0.500846 0
M  V30 3802 O 358.668 5.44032 -0.518806 0
M  V30 3803 H 355.762 0.825879 -0.043047 0
M  V30 3804 H 358.308 1.48429 -0.822618 0
M  V30 3805 H 357.08 3.5712 -1.59941 0
M  V30 3806 H 356.703 3.97543 0.0672883 0
M  V30 3807 N 357.7 0.491464 1.49741 0
M  V30 3808 C 358.977 -0.118984 1.95238 0
M  V30 3809 C 359.357 -1.55044 1.43264 0
M  V30 3810 O 358.705 -2.19287 0.642287 0
M  V30 3811 C 358.915 -0.0414187 3.48975 0
M  V30 3812 C 360.263 -0.220133 4.24029 0
M  V30 3813 O 361.287 -0.117055 3.56008 0
M  V30 3814 O 360.146 -0.430567 5.44801 0
M  V30 3815 H 357.24 -0.100536 0.820866 0
M  V30 3816 H 359.786 0.553322 1.60426 0
M  V30 3817 H 358.558 0.957214 3.79412 0
M  V30 3818 H 358.181 -0.754292 3.9038 0
M  V30 3819 N 359.178 -1.55987 0.224894 0
M  V30 3820 C 360.426 -1.97998 -0.405099 0
M  V30 3821 C 360.747 -1.11387 -1.60056 0
M  V30 3822 O 360.017 -0.191645 -1.9496 0
M  V30 3823 H 358.597 -0.731235 -0.152658 0
M  V30 3824 H 361.259 -1.92279 0.318567 0
M  V30 3825 H 360.355 -3.03463 -0.729167 0
M  V30 3826 N 360.656 0.0484629 -1.57525 0
M  V30 3827 C 362.072 0.40375 -1.54409 0
M  V30 3828 C 362.272 1.77786 -0.948384 0
M  V30 3829 O 361.328 2.46189 -0.560983 0
M  V30 3830 C 362.641 0.323394 -2.98956 0
M  V30 3831 C 364.189 0.401892 -3.10409 0
M  V30 3832 C 364.664 0.351195 -4.56652 0
M  V30 3833 N 366.155 0.410576 -4.61377 0
M  V30 3834 C 366.89 0.393933 -5.72045 0
M  V30 3835 N 366.386 0.330724 -6.9201 0
M  V30 3836 N 368.179 0.442227 -5.60358 0
M  V30 3837 H 360.33 -0.851016 -1.94606 0
M  V30 3838 H 362.593 -0.321721 -0.89174 0
M  V30 3839 H 362.299 -0.62011 -3.4619 0
M  V30 3840 H 362.173 1.12463 -3.60044 0
M  V30 3841 H 364.56 1.33582 -2.63134 0
M  V30 3842 H 364.641 -0.428342 -2.52188 0
M  V30 3843 H 364.285 -0.578987 -5.04589 0
M  V30 3844 H 364.215 1.19928 -5.12762 0
M  V30 3845 H 366.706 0.462729 -3.75056 0
M  V30 3846 H 367.019 0.322592 -7.72126 0
M  V30 3847 H 365.364 0.29706 -6.94365 0
M  V30 3848 H 368.555 0.489464 -4.65534 0
M  V30 3849 H 368.728 0.425788 -6.466 0
M  V30 3850 N 362.134 1.5431 0.320358 0
M  V30 3851 C 363.364 1.7638 1.07582 0
M  V30 3852 C 363.772 0.513944 1.82086 0
M  V30 3853 O 363.115 -0.525123 1.76035 0
M  V30 3854 C 363.177 2.9055 2.1171 0
M  V30 3855 C 362.841 4.2934 1.56575 0
M  V30 3856 C 363.838 5.10077 1.00586 0
M  V30 3857 C 361.523 4.75893 1.60722 0
M  V30 3858 C 363.517 6.35477 0.494756 0
M  V30 3859 C 361.204 6.0126 1.09224 0
M  V30 3860 C 362.202 6.80886 0.53696 0
M  V30 3861 O 361.89 8.03894 0.0297371 0
M  V30 3862 H 361.622 0.592369 0.325692 0
M  V30 3863 H 364.176 2.02019 0.37116 0
M  V30 3864 H 362.406 2.60489 2.85801 0
M  V30 3865 H 364.095 3.00373 2.73003 0
M  V30 3866 H 364.861 4.75265 0.966869 0
M  V30 3867 H 360.74 4.13957 2.02882 0
M  V30 3868 H 364.284 6.97574 0.0606842 0
M  V30 3869 H 360.181 6.35562 1.12831 0
M  V30 3870 H 360.949 8.18372 0.14486 0
M  V30 3871 N 363.613 -0.582584 1.46437 0
M  V30 3872 C 364.859 -1.34278 1.51978 0
M  V30 3873 C 365.192 -1.93446 0.170973 0
M  V30 3874 O 364.467 -1.76481 -0.817608 0
M  V30 3875 C 364.75 -2.47203 2.61845 0
M  V30 3876 C 364.603 -1.93069 4.06257 0
M  V30 3877 C 365.922 -3.49247 2.67795 0
M  V30 3878 H 363.041 -0.486876 0.553282 0
M  V30 3879 H 365.683 -0.654437 1.78374 0
M  V30 3880 H 363.833 -3.0592 2.39469 0
M  V30 3881 H 365.505 -1.38808 4.3992 0
M  V30 3882 H 363.748 -1.23898 4.1573 0
M  V30 3883 H 364.419 -2.74586 4.7886 0
M  V30 3884 H 366.895 -3.00411 2.8791 0
M  V30 3885 H 365.771 -4.25719 3.46489 0
M  V30 3886 H 366.032 -4.06482 1.73852 0
M  V30 3887 N 365.091 -1.34144 -0.827227 0
M  V30 3888 C 366.021 -1.28005 -1.95287 0
M  V30 3889 C 367.002 -0.158321 -1.69362 0
M  V30 3890 O 368.187 -0.349987 -1.9102 0
M  V30 3891 C 365.317 -1.03036 -3.31664 0
M  V30 3892 C 364.271 -2.11628 -3.72019 0
M  V30 3893 C 363.597 -1.71854 -5.0633 0
M  V30 3894 C 364.897 -3.53417 -3.8457 0
M  V30 3895 H 366.591 -2.22187 -2.00682 0
M  V30 3896 H 364.137 -1.0696 -0.964135 0
M  V30 3897 H 366.09 -0.973863 -4.09993 0
M  V30 3898 H 364.814 -0.0529391 -3.26557 0
M  V30 3899 H 363.473 -2.16339 -2.95961 0
M  V30 3900 H 363.121 -0.727841 -4.97706 0
M  V30 3901 H 362.821 -2.44531 -5.34302 0
M  V30 3902 H 364.345 -1.67692 -5.87122 0
M  V30 3903 H 365.759 -3.51142 -4.5318 0
M  V30 3904 H 364.156 -4.24679 -4.2399 0
M  V30 3905 H 365.226 -3.91072 -2.86689 0
M  V30 3906 N 366.569 1.04691 -1.17803 0
M  V30 3907 C 367.499 2.14494 -0.92275 0
M  V30 3908 C 368.48 1.69546 0.137179 0
M  V30 3909 O 369.665 1.94195 -0.0141108 0
M  V30 3910 C 366.795 3.44491 -0.440803 0
M  V30 3911 C 365.749 4.03031 -1.4405 0
M  V30 3912 C 365.075 5.28432 -0.81631 0
M  V30 3913 C 366.375 4.39932 -2.81527 0
M  V30 3914 H 368.069 2.36107 -1.84103 0
M  V30 3915 H 365.615 1.1347 -0.886599 0
M  V30 3916 H 367.568 4.2066 -0.249602 0
M  V30 3917 H 366.292 3.22546 0.513025 0
M  V30 3918 H 364.951 3.28937 -1.61853 0
M  V30 3919 H 364.599 5.02792 0.144511 0
M  V30 3920 H 364.299 5.68559 -1.48371 0
M  V30 3921 H 365.823 6.07284 -0.635496 0
M  V30 3922 H 367.237 5.07113 -2.67412 0
M  V30 3923 H 365.634 4.9109 -3.44892 0
M  V30 3924 H 366.704 3.50045 -3.35554 0
M  V30 3925 N 368.047 0.979072 1.23499 0
M  V30 3926 C 369.272 0.664845 1.96455 0
M  V30 3927 C 369.697 -0.761287 1.72006 0
M  V30 3928 O 369.055 -1.51837 0.990713 0
M  V30 3929 C 369.103 0.959479 3.47601 0
M  V30 3930 O 368.207 0.0508168 4.12369 0
M  V30 3931 H 367.548 0.250185 0.615064 0
M  V30 3932 H 370.078 1.31231 1.5697 0
M  V30 3933 H 370.088 0.895642 3.98048 0
M  V30 3934 H 368.763 1.99876 3.64723 0
M  V30 3935 H 367.34 0.16895 3.72517 0
M  V30 3936 N 369.525 -1.3858 0.750561 0
M  V30 3937 C 370.774 -1.99424 0.302172 0
M  V30 3938 C 371.087 -1.60254 -1.12152 0
M  V30 3939 O 372.293 -2.14046 -1.67023 0
M  V30 3940 C 370.749 -3.56558 0.489307 0
M  V30 3941 C 370.357 -4.04682 1.92189 0
M  V30 3942 C 372.101 -4.24374 0.103478 0
M  V30 3943 C 370.008 -5.54446 2.05775 0
M  V30 3944 H 368.938 -0.746046 0.10923 0
M  V30 3945 H 371.589 -1.58383 0.92667 0
M  V30 3946 H 369.971 -3.95472 -0.204329 0
M  V30 3947 H 371.145 -3.77065 2.64875 0
M  V30 3948 H 369.46 -3.4958 2.26236 0
M  V30 3949 H 372.057 -5.34384 0.183787 0
M  V30 3950 H 372.4 -4.05468 -0.943481 0
M  V30 3951 H 372.933 -3.90688 0.748854 0
M  V30 3952 H 369.672 -5.78252 3.08714 0
M  V30 3953 H 369.192 -5.83816 1.37546 0
M  V30 3954 H 370.871 -6.20099 1.84626 0
M  V30 3955 N 371.003 -0.499398 -1.49478 0
M  V30 3956 C 372.419 -0.155261 -1.58843 0
M  V30 3957 C 372.619 1.34008 -1.50479 0
M  V30 3958 O 371.675 2.11589 -1.37791 0
M  V30 3959 C 372.988 -0.730636 -2.91689 0
M  V30 3960 C 374.536 -0.696599 -3.0515 0
M  V30 3961 C 375.011 -1.25001 -4.40612 0
M  V30 3962 N 376.502 -1.21064 -4.47099 0
M  V30 3963 C 377.237 -1.60905 -5.50361 0
M  V30 3964 N 376.733 -2.08331 -6.60735 0
M  V30 3965 N 378.526 -1.52331 -5.41065 0
M  V30 3966 H 370.677 -1.47162 -1.53158 0
M  V30 3967 H 372.94 -0.610309 -0.725415 0
M  V30 3968 H 372.646 -1.77928 -3.03372 0
M  V30 3969 H 372.52 -0.190161 -3.7672 0
M  V30 3970 H 374.907 0.343204 -2.93097 0
M  V30 3971 H 374.988 -1.2742 -2.21806 0
M  V30 3972 H 374.632 -2.28859 -4.53416 0
M  V30 3973 H 374.562 -0.64836 -5.22593 0
M  V30 3974 H 377.053 -0.863128 -3.67911 0
M  V30 3975 H 377.366 -2.36805 -7.35624 0
M  V30 3976 H 375.711 -2.12304 -6.6178 0
M  V30 3977 H 378.902 -1.151 -4.53729 0
M  V30 3978 H 379.075 -1.83704 -6.21415 0
M  V30 3979 N 372.481 1.55866 -0.233164 0
M  V30 3980 C 373.391 2.24431 0.683217 0
M  V30 3981 C 374.407 1.2558 1.2044 0
M  V30 3982 O 375.583 1.58422 1.24356 0
M  V30 3983 C 372.648 2.91979 1.86947 0
M  V30 3984 C 371.709 4.06204 1.38912 0
M  V30 3985 C 370.942 4.70522 2.51883 0
M  V30 3986 O 371.165 4.33865 3.70293 0
M  V30 3987 O 370.099 5.59296 2.22423 0
M  V30 3988 H 373.925 3.03426 0.129059 0
M  V30 3989 H 371.51 1.494 -0.0022283 0
M  V30 3990 H 373.392 3.34573 2.56201 0
M  V30 3991 H 372.067 2.15935 2.41151 0
M  V30 3992 H 370.974 3.68155 0.664259 0
M  V30 3993 H 372.307 4.84025 0.893328 0
M  V30 3994 N 373.959 -0.0401083 1.57549 0
M  V30 3995 C 375.207 -0.731677 1.8839 0
M  V30 3996 C 375.528 -1.76481 0.829425 0
M  V30 3997 O 374.798 -1.95411 -0.1383 0
M  V30 3998 H 373.378 -0.273225 0.695239 0
M  V30 3999 H 376.04 -0.00867725 1.94898 0
M  V30 4000 H 375.136 -1.22816 2.86919 0
M  V30 4001 N 375.437 -1.54477 -0.31217 0
M  V30 4002 C 376.677 -1.74958 -1.05684 0
M  V30 4003 C 377.041 -0.518414 -1.84869 0
M  V30 4004 O 378.242 -0.600759 -2.62001 0
M  V30 4005 C 376.513 -2.99656 -1.94785 0
M  V30 4006 S 378.072 -3.4109 -2.76049 0
M  V30 4007 H 374.89 -0.615104 -0.356606 0
M  V30 4008 H 377.492 -1.92669 -0.331514 0
M  V30 4009 H 376.196 -3.87397 -1.35468 0
M  V30 4010 H 375.727 -2.845 -2.71704 0
M  V30 4011 H 377.742 -2.97283 -3.97287 0
M  V30 4012 N 376.915 0.57481 -1.46744 0
M  V30 4013 C 378.192 1.3352 -1.4294 0
M  V30 4014 C 378.572 2.10775 -0.117009 0
M  V30 4015 O 377.92 2.09966 0.901474 0
M  V30 4016 C 378.13 2.25456 -2.66403 0
M  V30 4017 C 379.478 2.87035 -3.12883 0
M  V30 4018 O 380.502 2.35766 -2.67007 0
M  V30 4019 O 379.361 3.80179 -3.92589 0
M  V30 4020 H 376.455 0.600318 -0.568812 0
M  V30 4021 H 379.001 0.595171 -1.58921 0
M  V30 4022 H 377.773 1.67851 -3.53471 0
M  V30 4023 H 377.396 3.06785 -2.52921 0
M  V30 4024 N 378.394 1.34581 0.820102 0
M  V30 4025 C 379.805 1.24298 1.39309 0
M  V30 4026 C 380.156 -0.130351 1.95767 0
M  V30 4027 O 379.281 -1.0308 1.90272 0
M  V30 4028 C 379.876 2.25054 2.53251 0
M  V30 4029 C 378.435 2.18552 3.0645 0
M  V30 4030 C 377.582 2.11503 1.79337 0
M  V30 4031 H 380.533 1.45906 0.624262 0
M  V30 4032 H 380.554 1.86917 3.31425 0
M  V30 4033 H 380.066 3.24996 2.1213 0
M  V30 4034 H 378.167 1.21976 3.52069 0
M  V30 4035 H 378.28 3.0993 3.65349 0
M  V30 4036 H 376.644 1.57268 2.00347 0
M  V30 4037 H 377.427 3.13284 1.40386 0
M  V30 4038 N 379.872 -1.04064 1.18357 0
M  V30 4039 C 381.118 -1.77528 0.980397 0
M  V30 4040 C 381.451 -1.87948 -0.48879 0
M  V30 4041 O 380.726 -1.3876 -1.36293 0
M  V30 4042 C 381.009 -3.20797 1.63588 0
M  V30 4043 C 380.862 -3.1832 3.17793 0
M  V30 4044 C 382.181 -4.18911 1.34914 0
M  V30 4045 H 379.3 -0.644443 0.357578 0
M  V30 4046 H 381.942 -1.2156 1.46024 0
M  V30 4047 H 380.092 -3.68586 1.22788 0
M  V30 4048 H 381.764 -2.78521 3.67728 0
M  V30 4049 H 380.007 -2.56351 3.49952 0
M  V30 4050 H 380.678 -4.19489 3.58794 0
M  V30 4051 H 383.154 -3.7967 1.70265 0
M  V30 4052 H 382.03 -5.17374 1.83346 0
M  V30 4053 H 382.291 -4.41262 0.272027 0
M  V30 4054 N 381.35 -0.985608 -1.22978 0
M  V30 4055 C 382.298 -0.522631 -2.26652 0
M  V30 4056 C 383.292 0.422998 -1.64034 0
M  V30 4057 O 384.498 0.296319 -1.77544 0
M  V30 4058 H 380.873 -0.150597 -0.736766 0
M  V30 4059 H 382.844 -1.40863 -2.63059 0
M  V30 4060 C 381.593 0.154238 -3.47358 0
M  V30 4061 H 380.916 -0.564329 -3.95797 0
M  V30 4062 H 382.356 0.441744 -4.21693 0
M  V30 4063 C 380.815 1.38719 -3.07016 0
M  V30 4064 O 381.345 2.48307 -3.15764 0
M  V30 4065 N 379.551 1.25975 -2.61875 0
M  V30 4066 H 379.098 0.368068 -2.54957 0
M  V30 4067 H 379.056 2.08578 -2.3525 0
M  V30 4068 N 382.828 1.3818 -0.7579 0
M  V30 4069 C 384.244 1.5353 -0.435972 0
M  V30 4070 C 384.444 1.71961 1.05032 0
M  V30 4071 O 383.5 1.73307 1.83633 0
M  V30 4072 C 384.813 2.73989 -1.23898 0
M  V30 4073 C 386.361 2.87841 -1.22949 0
M  V30 4074 C 386.836 4.11266 -2.01554 0
M  V30 4075 N 388.327 4.18352 -1.98837 0
M  V30 4076 C 389.062 5.12856 -2.5645 0
M  V30 4077 N 388.558 6.13005 -3.22794 0
M  V30 4078 N 390.351 5.05238 -2.46356 0
M  V30 4079 H 382.502 1.24467 -1.7211 0
M  V30 4080 H 384.765 0.604982 -0.729864 0
M  V30 4081 H 384.471 2.66789 -2.29165 0
M  V30 4082 H 384.345 3.67294 -0.858764 0
M  V30 4083 H 386.732 2.9452 -0.184854 0
M  V30 4084 H 386.813 1.95534 -1.64924 0
M  V30 4085 H 386.457 4.05349 -3.06031 0
M  V30 4086 H 386.387 5.02661 -1.5697 0
M  V30 4087 H 388.878 3.46628 -1.50524 0
M  V30 4088 H 389.191 6.81619 -3.64165 0
M  V30 4089 H 387.536 6.13325 -3.2689 0
M  V30 4090 H 390.727 4.25938 -1.9415 0
M  V30 4091 H 390.9 5.78707 -2.91552 0
M  V30 4092 N 384.306 0.507319 1.49211 0
M  V30 4093 C 385.236 -0.256939 2.32082 0
M  V30 4094 C 386.217 -0.956609 1.40652 0
M  V30 4095 O 387.402 -0.946788 1.69557 0
M  V30 4096 C 384.532 -1.31802 3.21318 0
M  V30 4097 C 383.486 -0.737855 4.21592 0
M  V30 4098 C 382.812 -1.89992 4.99807 0
M  V30 4099 C 384.112 0.275325 5.21574 0
M  V30 4100 H 385.806 0.434798 2.96226 0
M  V30 4101 H 383.352 0.210546 1.42452 0
M  V30 4102 H 385.305 -1.86045 3.78107 0
M  V30 4103 H 384.029 -2.03903 2.5513 0
M  V30 4104 H 382.688 -0.217126 3.65956 0
M  V30 4105 H 382.336 -2.60877 4.30061 0
M  V30 4106 H 382.036 -1.51777 5.6766 0
M  V30 4107 H 383.56 -2.44657 5.59442 0
M  V30 4108 H 384.974 -0.179193 5.7302 0
M  V30 4109 H 383.371 0.573649 5.97352 0
M  V30 4110 H 384.441 1.18903 4.70096 0
M  V30 4111 N 385.784 -1.5574 0.241426 0
M  V30 4112 C 387.03 -1.99846 -0.378555 0
M  V30 4113 C 387.385 -1.12665 -1.55963 0
M  V30 4114 O 386.678 -0.180966 -1.90743 0
M  V30 4115 C 386.872 -3.47308 -0.843317 0
M  V30 4116 C 386.701 -4.48756 0.291178 0
M  V30 4117 C 385.471 -4.9949 0.764077 0
M  V30 4118 C 387.669 -5.02039 1.11631 0
M  V30 4119 N 385.651 -5.84676 1.87156 0
M  V30 4120 C 387.022 -5.84343 2.07226 0
M  V30 4121 C 389.077 -4.84354 1.15349 0
M  V30 4122 C 387.78 -6.50851 3.06245 0
M  V30 4123 C 389.806 -5.51636 2.13195 0
M  V30 4124 C 389.168 -6.33724 3.07528 0
M  V30 4125 H 385.267 -0.774968 -0.104634 0
M  V30 4126 H 387.851 -1.91385 0.357751 0
M  V30 4127 H 386.022 -3.56178 -1.54893 0
M  V30 4128 H 387.754 -3.78299 -1.43779 0
M  V30 4129 H 384.509 -4.72311 0.349175 0
M  V30 4130 H 384.933 -6.31967 2.42789 0
M  V30 4131 H 389.575 -4.20525 0.438057 0
M  V30 4132 H 387.293 -7.1385 3.78739 0
M  V30 4133 H 390.879 -5.39909 2.16771 0
M  V30 4134 H 389.759 -6.84867 3.82003 0
M  V30 4135 N 387.262 0.0317525 -1.57568 0
M  V30 4136 C 388.492 0.733884 -1.93126 0
M  V30 4137 C 388.9 1.69563 -0.839352 0
M  V30 4138 O 388.243 1.82681 0.193175 0
M  V30 4139 C 388.305 1.54798 -3.24465 0
M  V30 4140 C 387.969 0.751304 -4.50782 0
M  V30 4141 C 388.966 0.0527632 -5.19873 0
M  V30 4142 C 386.651 0.706639 -4.97305 0
M  V30 4143 C 388.645 -0.679774 -6.33765 0
M  V30 4144 C 386.332 -0.0296449 -6.11093 0
M  V30 4145 C 387.33 -0.721614 -6.79177 0
M  V30 4146 O 387.018 -1.44595 -7.90789 0
M  V30 4147 H 386.75 0.211459 -0.642076 0
M  V30 4148 H 389.304 -0.00585615 -2.05399 0
M  V30 4149 H 387.534 2.33147 -3.08512 0
M  V30 4150 H 389.223 2.13247 -3.4537 0
M  V30 4151 H 389.989 0.0783188 -4.84937 0
M  V30 4152 H 385.868 1.23474 -4.44157 0
M  V30 4153 H 389.412 -1.22042 -6.86842 0
M  V30 4154 H 385.309 -0.0571331 -6.45475 0
M  V30 4155 H 386.077 -1.35935 -8.07133 0
M  V30 4156 N 388.74 1.54641 0.303973 0
M  V30 4157 C 389.98 1.75516 1.04755 0
M  V30 4158 C 390.344 0.528211 1.84591 0
M  V30 4159 O 391.545 0.614645 2.61678 0
M  V30 4160 C 389.816 3.00685 1.93193 0
M  V30 4161 S 391.375 3.42549 2.74237 0
M  V30 4162 H 388.193 0.616987 0.353339 0
M  V30 4163 H 390.795 1.92842 0.321292 0
M  V30 4164 H 389.499 3.8811 1.33411 0
M  V30 4165 H 389.03 2.85937 2.70191 0
M  V30 4166 H 391.045 2.99386 3.95705 0
M  V30 4167 N 390.218 -0.567019 1.47046 0
M  V30 4168 C 391.495 -1.3276 1.43646 0
M  V30 4169 C 391.875 -2.1071 0.128186 0
M  V30 4170 O 391.223 -2.10441 -0.890326 0
M  V30 4171 C 391.433 -2.2404 2.67595 0
M  V30 4172 C 392.781 -2.85372 3.14401 0
M  V30 4173 O 393.805 -2.34346 2.68254 0
M  V30 4174 O 392.664 -3.78091 3.946 0
M  V30 4175 H 389.758 -0.597293 0.571988 0
M  V30 4176 H 392.304 -0.586735 1.59234 0
M  V30 4177 H 391.076 -1.65975 3.54356 0
M  V30 4178 H 390.699 -3.05439 2.54544 0
M  V30 4179 N 391.696 -1.35014 -0.812953 0
M  V30 4180 C 392.626 -1.30069 -1.93919 0
M  V30 4181 C 393.607 -0.176275 -1.69184 0
M  V30 4182 O 394.792 -0.370227 -1.90638 0
M  V30 4183 C 391.922 -1.06547 -3.30552 0
M  V30 4184 C 390.876 -2.15561 -3.69753 0
M  V30 4185 C 390.202 -1.77214 -5.04479 0
M  V30 4186 C 391.502 -3.57476 -3.808 0
M  V30 4187 H 393.196 -2.24303 -1.98314 0
M  V30 4188 H 390.742 -1.07977 -0.952736 0
M  V30 4189 H 392.695 -1.01729 -4.08937 0
M  V30 4190 H 391.419 -0.0875719 -3.26483 0
M  V30 4191 H 390.078 -2.19466 -2.9365 0
M  V30 4192 H 389.726 -0.780589 -4.96906 0
M  V30 4193 H 389.426 -2.50184 -5.31678 0
M  V30 4194 H 390.95 -1.7391 -5.8531 0
M  V30 4195 H 392.364 -3.55929 -4.4943 0
M  V30 4196 H 390.761 -4.29152 -4.19462 0
M  V30 4197 H 391.831 -3.94091 -2.82525 0
M  V30 4198 N 393.175 1.03435 -1.18907 0
M  V30 4199 C 394.107 2.1165 -0.879595 0
M  V30 4200 C 395.12 1.62316 0.125439 0
M  V30 4201 O 396.309 1.78201 -0.103245 0
M  V30 4202 C 393.409 3.37622 -0.294042 0
M  V30 4203 C 392.582 4.16166 -1.34629 0
M  V30 4204 C 391.641 5.20457 -0.775274 0
M  V30 4205 O 390.667 5.50379 -1.4516 0
M  V30 4206 N 391.869 5.78949 0.424126 0
M  V30 4207 H 394.634 2.38791 -1.81105 0
M  V30 4208 H 392.195 1.19681 -1.09032 0
M  V30 4209 H 394.187 4.04572 0.101679 0
M  V30 4210 H 392.757 3.07873 0.541575 0
M  V30 4211 H 391.977 3.44444 -1.91707 0
M  V30 4212 H 393.265 4.65432 -2.05549 0
M  V30 4213 H 392.663 5.56948 0.991209 0
M  V30 4214 H 391.22 6.47334 0.761691 0
M  V30 4215 N 394.653 0.992116 1.22453 0
M  V30 4216 C 395.585 0.500024 2.23679 0
M  V30 4217 C 396.598 -0.404463 1.57696 0
M  V30 4218 O 397.787 -0.206722 1.77299 0
M  V30 4219 C 394.887 -0.294711 3.37616 0
M  V30 4220 C 394.06 0.605723 4.33186 0
M  V30 4221 C 393.119 -0.13717 5.26021 0
M  V30 4222 O 392.145 0.477164 5.67196 0
M  V30 4223 N 393.347 -1.4197 5.62872 0
M  V30 4224 H 396.112 1.37045 2.66531 0
M  V30 4225 H 393.673 0.866741 1.36745 0
M  V30 4226 H 395.665 -0.800329 3.96707 0
M  V30 4227 H 394.235 -1.06623 2.93854 0
M  V30 4228 H 393.455 1.29202 3.72425 0
M  V30 4229 H 394.743 1.21896 4.93983 0
M  V30 4230 H 394.141 -1.94015 5.31389 0
M  V30 4231 H 392.698 -1.87052 6.24383 0
M  V30 4232 N 396.131 -1.37776 0.765217 0
M  V30 4233 C 397.041 -2.34135 0.147666 0
M  V30 4234 C 398.057 -1.59854 -0.687215 0
M  V30 4235 O 399.233 -1.91983 -0.608659 0
M  V30 4236 C 396.298 -3.3901 -0.72617 0
M  V30 4237 C 395.359 -4.2912 0.124417 0
M  V30 4238 C 394.592 -5.28986 -0.707807 0
M  V30 4239 O 394.815 -5.36205 -1.94525 0
M  V30 4240 O 393.749 -6.01779 -0.12046 0
M  V30 4241 H 397.575 -2.88664 0.943758 0
M  V30 4242 H 395.16 -1.39824 0.526277 0
M  V30 4243 H 397.042 -4.03195 -1.22524 0
M  V30 4244 H 395.717 -2.86819 -1.50056 0
M  V30 4245 H 394.624 -3.68057 0.669696 0
M  V30 4246 H 395.957 -4.84598 0.861736 0
M  V30 4247 N 397.609 -0.515225 -1.4894 0
M  V30 4248 C 398.834 0.022727 -2.07388 0
M  V30 4249 C 399.259 1.2876 -1.37122 0
M  V30 4250 O 398.617 1.76067 -0.432431 0
M  V30 4251 C 398.665 0.244869 -3.59768 0
M  V30 4252 O 397.769 1.31667 -3.90817 0
M  V30 4253 H 397.11 -0.0325506 -0.663202 0
M  V30 4254 H 399.64 -0.718918 -1.91553 0
M  V30 4255 H 399.65 0.47205 -4.0526 0
M  V30 4256 H 398.325 -0.679194 -4.10317 0
M  V30 4257 H 396.902 1.07331 -3.5712 0
M  V30 4258 N 399.087 1.5561 -0.249682 0
M  V30 4259 C 400.312 2.03865 0.381305 0
M  V30 4260 C 400.737 1.12769 1.50548 0
M  V30 4261 O 400.095 0.121189 1.80895 0
M  V30 4262 C 400.143 3.50101 0.863816 0
M  V30 4263 O 399.247 3.62132 1.97318 0
M  V30 4264 H 398.588 0.658827 0.0827194 0
M  V30 4265 H 401.118 2.01105 -0.376552 0
M  V30 4266 H 401.128 3.90975 1.1663 0
M  V30 4267 H 399.803 4.1588 0.0411816 0
M  V30 4268 H 398.38 3.33155 1.67517 0
M  V30 4269 N 400.565 -0.0233959 1.57583 0
M  V30 4270 C 401.813 -0.711654 1.89156 0
M  V30 4271 C 402.134 -1.75591 0.848096 0
M  V30 4272 O 401.404 -1.95547 -0.117566 0
M  V30 4273 H 399.984 -0.265835 0.698098 0
M  V30 4274 H 402.646 0.0119948 1.94896 0
M  V30 4275 H 401.742 -1.19766 2.88206 0
M  V30 4276 N 402.043 -1.548 -0.295768 0
M  V30 4277 C 403.292 -1.73538 -1.02798 0
M  V30 4278 C 403.605 -0.531159 -1.8825 0
M  V30 4279 O 404.811 -0.600458 -2.64777 0
M  V30 4280 C 403.267 -3.07051 -1.87744 0
M  V30 4281 C 402.875 -4.34968 -1.07269 0
M  V30 4282 C 404.619 -3.35146 -2.60533 0
M  V30 4283 C 402.526 -5.5953 -1.91521 0
M  V30 4284 H 401.456 -0.646794 -0.387522 0
M  V30 4285 H 404.107 -1.81278 -0.284718 0
M  V30 4286 H 402.489 -2.93289 -2.66078 0
M  V30 4287 H 403.663 -4.5958 -0.335117 0
M  V30 4288 H 401.978 -4.13847 -0.460384 0
M  V30 4289 H 404.575 -4.2541 -3.23929 0
M  V30 4290 H 404.918 -2.54255 -3.29636 0
M  V30 4291 H 405.451 -3.49902 -1.89244 0
M  V30 4292 H 402.19 -6.43103 -1.26878 0
M  V30 4293 H 401.71 -5.39096 -2.62937 0
M  V30 4294 H 403.389 -5.96982 -2.49442 0
M  V30 4295 N 403.521 0.559213 -1.47345 0
M  V30 4296 C 404.484 1.64854 -1.59235 0
M  V30 4297 C 405.484 1.53851 -0.467607 0
M  V30 4298 O 406.674 1.58045 -0.732617 0
M  V30 4299 C 403.806 3.04388 -1.53496 0
M  V30 4300 H 404.999 1.55662 -2.56339 0
M  V30 4301 H 402.552 0.778973 -1.35505 0
M  V30 4302 H 403.287 3.19115 -0.577604 0
M  V30 4303 H 403.072 3.13783 -2.35123 0
M  V30 4304 H 404.562 3.83642 -1.6495 0
M  V30 4305 N 404.999 1.35443 0.805782 0
M  V30 4306 C 406.247 1.28507 1.55982 0
M  V30 4307 C 406.568 -0.140046 1.94496 0
M  V30 4308 O 405.838 -1.07666 1.63661 0
M  V30 4309 H 404.418 0.472676 0.578434 0
M  V30 4310 H 407.08 1.69555 0.961098 0
M  V30 4311 H 406.176 1.90148 2.47488 0
M  V30 4312 N 406.477 -1.02803 1.19454 0
M  V30 4313 C 407.726 -1.7562 0.991996 0
M  V30 4314 C 408.039 -1.89672 -0.477901 0
M  V30 4315 O 409.245 -2.59468 -0.799287 0
M  V30 4316 C 407.701 -3.15812 1.72601 0
M  V30 4317 C 407.309 -3.0981 3.23607 0
M  V30 4318 C 409.053 -3.92918 1.60674 0
M  V30 4319 C 406.96 -4.44939 3.89594 0
M  V30 4320 H 405.89 -0.658352 0.367543 0
M  V30 4321 H 408.541 -1.15044 1.42959 0
M  V30 4322 H 406.923 -3.7686 1.21624 0
M  V30 4323 H 408.097 -2.58138 3.81709 0
M  V30 4324 H 406.412 -2.46201 3.35819 0
M  V30 4325 H 409.009 -4.9287 2.07323 0
M  V30 4326 H 409.352 -4.12502 0.561025 0
M  V30 4327 H 409.885 -3.38472 2.09001 0
M  V30 4328 H 406.624 -4.30559 4.94267 0
M  V30 4329 H 406.144 -4.96664 3.36281 0
M  V30 4330 H 407.823 -5.1382 3.93189 0
M  V30 4331 N 407.956 -0.998596 -1.21925 0
M  V30 4332 C 408.886 -0.573688 -2.26343 0
M  V30 4333 C 409.867 0.402296 -1.65274 0
M  V30 4334 O 411.052 0.291683 -1.91997 0
M  V30 4335 C 408.182 0.106839 -3.47136 0
M  V30 4336 C 407.136 -0.788269 -4.20678 0
M  V30 4337 C 406.462 0.0254927 -5.34694 0
M  V30 4338 C 407.762 -2.08784 -4.78755 0
M  V30 4339 H 409.456 -1.44651 -2.62138 0
M  V30 4340 H 407.002 -0.696975 -1.26009 0
M  V30 4341 H 408.955 0.415531 -4.19346 0
M  V30 4342 H 407.679 1.01424 -3.10452 0
M  V30 4343 H 406.338 -1.08069 -3.50309 0
M  V30 4344 H 405.986 0.933989 -4.94253 0
M  V30 4345 H 405.686 -0.570437 -5.84825 0
M  V30 4346 H 407.21 0.328147 -6.09718 0
M  V30 4347 H 408.624 -1.84272 -5.42878 0
M  V30 4348 H 407.021 -2.63307 -5.39249 0
M  V30 4349 H 408.091 -2.76284 -3.98491 0
M  V30 4350 N 409.434 1.37368 -0.772513 0
M  V30 4351 C 410.381 2.30262 -0.157488 0
M  V30 4352 C 411.351 1.51137 0.688965 0
M  V30 4353 O 412.536 1.79704 0.641168 0
M  V30 4354 C 409.676 3.37611 0.715045 0
M  V30 4355 C 408.789 4.31746 -0.148098 0
M  V30 4356 C 407.924 5.26171 0.729213 0
M  V30 4357 C 406.963 6.11948 -0.136418 0
M  V30 4358 N 406.1 6.98613 0.698914 0
M  V30 4359 H 410.94 2.82277 -0.955179 0
M  V30 4360 H 408.477 1.38957 -0.482631 0
M  V30 4361 H 410.435 3.98479 1.23575 0
M  V30 4362 H 409.065 2.86959 1.47833 0
M  V30 4363 H 408.117 3.72178 -0.786613 0
M  V30 4364 H 409.429 4.92084 -0.81579 0
M  V30 4365 H 408.583 5.92247 1.31637 0
M  V30 4366 H 407.322 4.66246 1.43059 0
M  V30 4367 H 406.327 5.4485 -0.736102 0
M  V30 4368 H 407.552 6.73945 -0.835134 0
M  V30 4369 H 405.498 6.41215 1.38489 0
M  V30 4370 H 405.415 7.55948 0.0885358 0
M  V30 4371 H 406.683 7.69077 1.27044 0
M  V30 4372 N 410.912 0.523116 1.48665 0
M  V30 4373 C 412.158 -0.00540031 2.03399 0
M  V30 4374 C 412.513 -1.3264 1.39372 0
M  V30 4375 O 411.806 -1.84184 0.527916 0
M  V30 4376 C 412 -0.191671 3.56886 0
M  V30 4377 C 411.829 1.10972 4.35793 0
M  V30 4378 C 410.599 1.66769 4.76987 0
M  V30 4379 C 412.797 2.01861 4.73029 0
M  V30 4380 N 410.779 2.91268 5.40404 0
M  V30 4381 C 412.15 3.10937 5.36394 0
M  V30 4382 C 414.205 2.02271 4.54962 0
M  V30 4383 C 412.908 4.20478 5.83601 0
M  V30 4384 C 414.934 3.10802 5.03146 0
M  V30 4385 C 414.296 4.18597 5.6653 0
M  V30 4386 H 410.395 0.0393531 0.781009 0
M  V30 4387 H 412.979 0.702876 1.8157 0
M  V30 4388 H 411.15 -0.869025 3.78553 0
M  V30 4389 H 412.882 -0.719177 3.98259 0
M  V30 4390 H 409.637 1.20996 4.57883 0
M  V30 4391 H 410.061 3.54635 5.76683 0
M  V30 4392 H 414.703 1.2023 4.05345 0
M  V30 4393 H 412.421 5.03303 6.32228 0
M  V30 4394 H 416.007 3.12166 4.90962 0
M  V30 4395 H 414.887 5.01193 6.03138 0
M  V30 4396 N 412.39 -1.55475 0.257931 0
M  V30 4397 C 413.636 -1.99502 -0.364266 0
M  V30 4398 C 413.969 -1.146 -1.56782 0
M  V30 4399 O 413.244 -0.211968 -1.93342 0
M  V30 4400 C 413.527 -3.51917 -0.763333 0
M  V30 4401 C 413.38 -4.4758 0.446371 0
M  V30 4402 C 414.699 -4.09742 -1.60623 0
M  V30 4403 H 411.818 -0.725277 -0.130929 0
M  V30 4404 H 414.46 -1.8653 0.361446 0
M  V30 4405 H 412.61 -3.63101 -1.38166 0
M  V30 4406 H 414.282 -4.48362 1.08487 0
M  V30 4407 H 412.525 -4.19947 1.08753 0
M  V30 4408 H 413.196 -5.51862 0.123645 0
M  V30 4409 H 415.672 -4.01727 -1.08418 0
M  V30 4410 H 414.548 -5.16631 -1.85429 0
M  V30 4411 H 414.809 -3.58889 -2.58169 0
M  V30 4412 N 413.868 0.0150385 -1.57593 0
M  V30 4413 C 414.815 1.01126 -2.07466 0
M  V30 4414 C 415.785 1.35064 -0.966794 0
M  V30 4415 O 416.97 1.4516 -1.23827 0
M  V30 4416 C 414.11 2.30276 -2.57035 0
M  V30 4417 C 413.223 2.02373 -3.81666 0
M  V30 4418 C 412.358 3.25496 -4.19793 0
M  V30 4419 C 411.397 2.93211 -5.37303 0
M  V30 4420 N 410.534 4.08826 -5.70794 0
M  V30 4421 H 415.374 0.57901 -2.92321 0
M  V30 4422 H 412.911 0.27426 -1.44521 0
M  V30 4423 H 414.869 3.05757 -2.83846 0
M  V30 4424 H 413.499 2.71197 -1.75077 0
M  V30 4425 H 412.551 1.17327 -3.61854 0
M  V30 4426 H 413.863 1.74567 -4.67256 0
M  V30 4427 H 413.017 4.09333 -4.47807 0
M  V30 4428 H 411.756 3.56428 -3.32882 0
M  V30 4429 H 410.761 2.07777 -5.09027 0
M  V30 4430 H 411.986 2.63542 -6.25877 0
M  V30 4431 H 409.932 4.39682 -4.86842 0
M  V30 4432 H 409.849 3.84491 -6.50924 0
M  V30 4433 H 411.117 4.93496 -6.03392 0
M  V30 4434 N 415.346 1.54954 0.287554 0
M  V30 4435 C 416.276 1.89839 1.35954 0
M  V30 4436 C 417.257 0.758675 1.52244 0
M  V30 4437 O 418.442 1.01557 1.65529 0
M  V30 4438 C 415.572 2.15753 2.72154 0
M  V30 4439 C 414.526 3.3159 2.70614 0
M  V30 4440 C 413.852 3.42952 4.10229 0
M  V30 4441 C 415.152 4.68359 2.31165 0
M  V30 4442 H 416.846 2.79625 1.07007 0
M  V30 4443 H 414.392 1.3454 0.513316 0
M  V30 4444 H 416.345 2.38743 3.47246 0
M  V30 4445 H 415.069 1.22752 3.02654 0
M  V30 4446 H 413.728 3.08545 1.97979 0
M  V30 4447 H 413.376 2.47443 4.37928 0
M  V30 4448 H 413.076 4.20826 4.10097 0
M  V30 4449 H 414.6 3.68218 4.87081 0
M  V30 4450 H 416.014 4.9099 2.95976 0
M  V30 4451 H 414.411 5.49044 2.42221 0
M  V30 4452 H 415.481 4.68165 1.26291 0
M  V30 4453 N 416.824 -0.551391 1.4764 0
M  V30 4454 C 418.073 -1.30467 1.53822 0
M  V30 4455 C 418.386 -1.94495 0.207661 0
M  V30 4456 O 419.592 -2.71099 0.147533 0
M  V30 4457 C 418.048 -2.36616 2.71184 0
M  V30 4458 C 417.656 -1.78754 4.10793 0
M  V30 4459 C 419.4 -3.13088 2.86663 0
M  V30 4460 C 417.307 -2.82717 5.19447 0
M  V30 4461 H 416.237 -0.490584 0.572576 0
M  V30 4462 H 418.888 -0.58494 1.73927 0
M  V30 4463 H 417.27 -3.11529 2.4447 0
M  V30 4464 H 418.444 -1.10173 4.47435 0
M  V30 4465 H 416.759 -1.14846 4.00249 0
M  V30 4466 H 419.356 -3.90736 3.65007 0
M  V30 4467 H 419.699 -3.67635 1.95321 0
M  V30 4468 H 420.232 -2.45288 3.13175 0
M  V30 4469 H 416.971 -2.33018 6.12685 0
M  V30 4470 H 416.491 -3.4969 4.87316 0
M  V30 4471 H 418.17 -3.46102 5.46646 0
M  V30 4472 N 418.302 -1.35869 -0.798587 0
M  V30 4473 C 419.579 -1.20145 -1.54352 0
M  V30 4474 C 419.959 0.216161 -2.0999 0
M  V30 4475 O 419.307 1.22068 -1.93162 0
M  V30 4476 C 419.517 -2.27602 -2.64572 0
M  V30 4477 C 420.865 -2.63811 -3.32699 0
M  V30 4478 O 421.889 -2.26576 -2.74849 0
M  V30 4479 O 420.748 -3.27866 -4.37226 0
M  V30 4480 H 417.842 -0.467248 -0.682355 0
M  V30 4481 H 420.388 -1.47574 -0.837859 0
M  V30 4482 H 419.16 -3.2265 -2.21388 0
M  V30 4483 H 418.783 -2.01488 -3.42766 0
M  V30 4484 N 419.78 1.02168 -1.19998 0
M  V30 4485 C 420.728 2.12717 -0.940967 0
M  V30 4486 C 421.722 1.69069 0.105841 0
M  V30 4487 O 422.928 1.79946 -0.0440583 0
M  V30 4488 H 419.303 0.695108 -0.28693 0
M  V30 4489 H 421.274 2.3175 -1.87975 0
M  V30 4490 C 420.023 3.44027 -0.504049 0
M  V30 4491 H 419.346 3.78036 -1.30112 0
M  V30 4492 H 420.786 4.22452 -0.361991 0
M  V30 4493 C 419.245 3.27678 0.782878 0
M  V30 4494 O 419.775 3.56949 1.84256 0
M  V30 4495 N 417.981 2.80943 0.742921 0
M  V30 4496 H 417.528 2.57322 -0.119687 0
M  V30 4497 H 417.486 2.70385 1.60435 0
M  V30 4498 N 421.258 1.00505 1.21394 0
M  V30 4499 C 422.505 0.687774 1.90462 0
M  V30 4500 C 422.833 -0.78147 1.7811 0
M  V30 4501 O 422.088 -1.58208 1.1519 0
M  V30 4502 C 422.387 1.0546 3.41486 0
M  V30 4503 C 422.053 2.51812 3.74034 0
M  V30 4504 C 420.715 2.91804 3.82628 0
M  V30 4505 C 423.067 3.46614 3.8924 0
M  V30 4506 C 420.395 4.2556 4.03876 0
M  V30 4507 C 422.747 4.80044 4.11995 0
M  V30 4508 C 421.411 5.19759 4.18816 0
M  V30 4509 H 420.681 0.251674 0.696951 0
M  V30 4510 H 423.328 1.26349 1.43903 0
M  V30 4511 H 421.633 0.397133 3.89782 0
M  V30 4512 H 423.33 0.786976 3.93202 0
M  V30 4513 H 419.92 2.1982 3.67936 0
M  V30 4514 H 424.104 3.16883 3.81967 0
M  V30 4515 H 419.36 4.55901 4.07387 0
M  V30 4516 H 423.534 5.53439 4.22704 0
M  V30 4517 H 421.161 6.23418 4.35033 0
M  V30 4518 N 422.737 -1.36956 0.779787 0
M  V30 4519 C 423.647 -2.33965 0.172491 0
M  V30 4520 C 424.663 -1.60574 -0.670222 0
M  V30 4521 O 425.839 -1.92617 -0.588263 0
M  V30 4522 C 422.904 -3.39761 -0.690173 0
M  V30 4523 C 421.965 -4.28964 0.169924 0
M  V30 4524 C 421.198 -5.29707 -0.651662 0
M  V30 4525 O 421.421 -5.38238 -1.88827 0
M  V30 4526 O 420.355 -6.01873 -0.0566264 0
M  V30 4527 H 424.181 -2.87647 0.974321 0
M  V30 4528 H 421.766 -1.39258 0.541078 0
M  V30 4529 H 423.648 -4.04471 -1.1824 0
M  V30 4530 H 422.323 -2.88394 -1.47006 0
M  V30 4531 H 421.23 -3.67326 0.708696 0
M  V30 4532 H 422.563 -4.83656 0.913085 0
M  V30 4533 N 424.215 -0.530993 -1.48385 0
M  V30 4534 C 425.463 0.00273189 -2.021 0
M  V30 4535 C 425.784 1.34672 -1.41027 0
M  V30 4536 O 425.054 1.8724 -0.576012 0
M  V30 4537 H 423.634 0.00399774 -0.746989 0
M  V30 4538 H 426.296 -0.695054 -1.82085 0
M  V30 4539 H 425.392 0.11031 -3.11905 0
M  V30 4540 N 425.693 1.55336 -0.266172 0
M  V30 4541 C 426.603 2.2583 0.635458 0
M  V30 4542 C 427.619 1.28106 1.17749 0
M  V30 4543 O 428.795 1.61024 1.20968 0
M  V30 4544 C 425.86 2.95879 1.80712 0
M  V30 4545 C 424.921 4.09059 1.30265 0
M  V30 4546 C 424.154 4.75759 2.41846 0
M  V30 4547 O 424.377 4.41622 3.61007 0
M  V30 4548 O 423.311 5.63888 2.1051 0
M  V30 4549 H 427.137 3.03631 0.0646693 0
M  V30 4550 H 424.722 1.49361 -0.0339177 0
M  V30 4551 H 426.604 3.39932 2.49047 0
M  V30 4552 H 425.279 2.21002 2.36516 0
M  V30 4553 H 424.186 3.69482 0.586019 0
M  V30 4554 H 425.519 4.85811 0.790458 0
M  V30 4555 N 427.171 -0.0066808 1.57599 0
M  V30 4556 C 428.401 -0.703066 1.94269 0
M  V30 4557 C 428.809 -1.68206 0.866222 0
M  V30 4558 O 428.152 -1.82966 -0.164087 0
M  V30 4559 C 428.214 -1.49616 3.26887 0
M  V30 4560 C 427.878 -0.679494 4.5192 0
M  V30 4561 C 428.875 0.0299508 5.19891 0
M  V30 4562 C 426.56 -0.627433 4.98366 0
M  V30 4563 C 428.554 0.780514 6.32603 0
M  V30 4564 C 426.241 0.126861 6.10968 0
M  V30 4565 C 427.239 0.829574 6.77943 0
M  V30 4566 O 426.927 1.57157 7.88389 0
M  V30 4567 H 426.659 -0.201217 0.645359 0
M  V30 4568 H 429.213 0.0385326 2.05364 0
M  V30 4569 H 427.443 -2.28209 3.12182 0
M  V30 4570 H 429.132 -2.07726 3.48719 0
M  V30 4571 H 429.898 -0.00115963 4.85 0
M  V30 4572 H 425.777 -1.16392 4.46065 0
M  V30 4573 H 429.321 1.32954 6.84813 0
M  V30 4574 H 425.218 0.159815 6.45302 0
M  V30 4575 H 425.986 1.48758 8.04868 0
M  V30 4576 N 428.649 -1.55105 -0.279332 0
M  V30 4577 C 429.926 -1.66119 -1.03267 0
M  V30 4578 C 430.306 -0.523525 -2.04505 0
M  V30 4579 O 429.654 0.477194 -2.23462 0
M  V30 4580 C 429.864 -3.05067 -1.69515 0
M  V30 4581 C 431.212 -3.62606 -2.20912 0
M  V30 4582 O 432.236 -3.07659 -1.79512 0
M  V30 4583 O 431.095 -4.58861 -2.96831 0
M  V30 4584 H 428.189 -0.674429 -0.478618 0
M  V30 4585 H 430.735 -1.67446 -0.275694 0
M  V30 4586 H 429.507 -3.79311 -0.9612 0
M  V30 4587 H 429.13 -3.07611 -2.51915 0
M  V30 4588 N 430.127 0.543554 -1.4793 0
M  V30 4589 C 431.357 1.32324 -1.58663 0
M  V30 4590 C 431.765 1.8766 -0.240896 0
M  V30 4591 O 431.108 1.66411 0.778011 0
M  V30 4592 C 431.17 2.52094 -2.56299 0
M  V30 4593 C 430.834 2.17944 -4.01683 0
M  V30 4594 C 431.831 1.74422 -4.89768 0
M  V30 4595 C 429.516 2.28884 -4.47121 0
M  V30 4596 C 431.51 1.42287 -6.21316 0
M  V30 4597 C 429.197 1.96361 -5.78693 0
M  V30 4598 C 430.195 1.53132 -6.65612 0
M  V30 4599 O 429.883 1.21029 -7.94737 0
M  V30 4600 H 429.615 0.409174 -0.538101 0
M  V30 4601 H 432.169 0.663887 -1.94375 0
M  V30 4602 H 430.399 3.20965 -2.15681 0
M  V30 4603 H 432.088 3.14165 -2.57012 0
M  V30 4604 H 432.854 1.65452 -4.55907 0
M  V30 4605 H 428.733 2.61488 -3.79664 0
M  V30 4606 H 432.277 1.08472 -6.89115 0
M  V30 4607 H 428.174 2.04967 -6.12094 0
M  V30 4608 H 428.942 1.34543 -8.07366 0
M  V30 4609 N 431.605 1.3629 0.791371 0
M  V30 4610 C 432.851 1.30605 1.55146 0
M  V30 4611 C 433.184 -0.115042 1.93859 0
M  V30 4612 O 432.459 -1.06798 1.62556 0
M  V30 4613 C 432.742 2.22692 2.82985 0
M  V30 4614 C 432.595 3.73489 2.50651 0
M  V30 4615 C 433.914 2.13588 3.84796 0
M  V30 4616 H 431.033 0.475761 0.562868 0
M  V30 4617 H 433.675 1.66825 0.909358 0
M  V30 4618 H 431.825 1.91933 3.37778 0
M  V30 4619 H 433.497 4.14758 2.01924 0
M  V30 4620 H 431.74 3.93021 1.83622 0
M  V30 4621 H 432.411 4.3333 3.41949 0
M  V30 4622 H 434.887 2.40659 3.39445 0
M  V30 4623 H 433.763 2.80195 4.71998 0
M  V30 4624 H 434.024 1.12256 4.27611 0
M  V30 4625 N 433.083 -1.0153 1.20538 0
M  V30 4626 C 434.311 -1.78746 1.04199 0
M  V30 4627 C 434.726 -1.84323 -0.408733 0
M  V30 4628 O 434.083 -1.29714 -1.28377 0
M  V30 4629 C 434.134 -3.23152 1.62035 0
M  V30 4630 O 433.855 -3.17918 3.0143 0
M  V30 4631 C 435.356 -4.16911 1.50666 0
M  V30 4632 H 432.576 -0.56208 0.366479 0
M  V30 4633 H 435.12 -1.27794 1.59653 0
M  V30 4634 H 433.275 -3.71248 1.10697 0
M  V30 4635 H 433.689 -4.08567 3.28897 0
M  V30 4636 H 435.163 -5.16072 1.95892 0
M  V30 4637 H 435.64 -4.36791 0.459363 0
M  V30 4638 H 436.246 -3.74698 2.01201 0
M  V30 4639 N 434.561 -1.01147 -1.20859 0
M  V30 4640 C 435.509 -0.57059 -2.25493 0
M  V30 4641 C 436.503 0.388109 -1.64894 0
M  V30 4642 O 437.709 0.258592 -1.78133 0
M  V30 4643 H 434.084 -0.166191 -0.733406 0
M  V30 4644 H 436.055 -1.46411 -2.60012 0
M  V30 4645 C 434.804 0.0805241 -3.47607 0
M  V30 4646 H 434.127 -0.648156 -3.94511 0
M  V30 4647 H 435.567 0.352197 -4.22535 0
M  V30 4648 C 434.026 1.32175 -3.09889 0
M  V30 4649 O 434.556 2.41553 -3.20959 0
M  V30 4650 N 432.762 1.20392 -2.64488 0
M  V30 4651 H 432.309 0.313905 -2.5568 0
M  V30 4652 H 432.267 2.03541 -2.39621 0
M  V30 4653 N 436.039 1.36541 -0.78704 0
M  V30 4654 C 436.949 2.3387 -0.184896 0
M  V30 4655 C 437.965 1.60927 0.661697 0
M  V30 4656 O 439.141 1.92927 0.57804 0
M  V30 4657 C 436.206 3.40122 0.672145 0
M  V30 4658 C 435.267 4.28867 -0.19267 0
M  V30 4659 C 434.5 5.30045 0.623561 0
M  V30 4660 O 434.723 5.39232 1.8597 0
M  V30 4661 O 433.657 6.01895 0.0247068 0
M  V30 4662 H 437.483 2.87126 -0.989562 0
M  V30 4663 H 435.068 1.38969 -0.548455 0
M  V30 4664 H 436.95 4.05093 1.16094 0
M  V30 4665 H 435.625 2.89169 1.45474 0
M  V30 4666 H 434.532 3.66945 -0.728166 0
M  V30 4667 H 435.865 4.83165 -0.938722 0
M  V30 4668 N 437.518 0.538854 1.48102 0
M  V30 4669 C 438.766 0.00798599 2.02098 0
M  V30 4670 C 439.087 -1.33922 1.41739 0
M  V30 4671 O 438.357 -1.86932 0.585934 0
M  V30 4672 H 436.937 -3.62179e-05 0.747 0
M  V30 4673 H 439.599 0.7047 1.81714 0
M  V30 4674 H 438.695 -0.0937672 3.11959 0
M  V30 4675 N 438.996 -1.55193 0.274407 0
M  V30 4676 C 440.224 -2.03987 -0.345943 0
M  V30 4677 C 440.639 -1.15279 -1.4952 0
M  V30 4678 O 439.996 -0.172759 -1.8168 0
M  V30 4679 C 440.047 -3.51898 -0.827631 0
M  V30 4680 O 439.768 -4.37231 0.275855 0
M  V30 4681 C 441.269 -4.16577 -1.51587 0
M  V30 4682 H 438.489 -0.666335 -0.0789892 0
M  V30 4683 H 441.033 -2.00423 0.406294 0
M  V30 4684 H 439.188 -3.55909 -1.52996 0
M  V30 4685 H 439.602 -5.24415 -0.0943638 0
M  V30 4686 H 441.076 -5.21678 -1.80433 0
M  V30 4687 H 441.553 -3.64707 -2.44716 0
M  V30 4688 H 442.159 -4.16568 -0.857409 0
M  V30 4689 N 440.474 -0.00167713 -1.576 0
M  V30 4690 C 441.72 0.683832 -1.90923 0
M  V30 4691 C 442.053 1.7333 -0.875799 0
M  V30 4692 O 441.328 1.94215 0.10525 0
M  V30 4693 C 441.611 1.32543 -3.3482 0
M  V30 4694 C 441.464 0.287387 -4.48881 0
M  V30 4695 C 442.783 2.25114 -3.78169 0
M  V30 4696 H 439.902 0.247125 -0.694333 0
M  V30 4697 H 442.544 -0.0533149 -1.89925 0
M  V30 4698 H 440.694 1.95372 -3.35801 0
M  V30 4699 H 442.366 -0.341346 -4.60035 0
M  V30 4700 H 440.609 -0.39017 -4.32042 0
M  V30 4701 H 441.28 0.775393 -5.46527 0
M  V30 4702 H 443.756 1.723 -3.7875 0
M  V30 4703 H 442.632 2.66971 -4.79602 0
M  V30 4704 H 442.893 3.13092 -3.12131 0
M  V30 4705 N 441.952 1.55251 0.271103 0
M  V30 4706 C 443.199 1.75946 1.00245 0
M  V30 4707 C 443.527 0.561611 1.86215 0
M  V30 4708 O 442.782 -0.455832 1.90317 0
M  V30 4709 C 443.081 3.01879 1.91321 0
M  V30 4710 C 442.747 4.34337 1.21086 0
M  V30 4711 C 441.409 4.70338 1.01666 0
M  V30 4712 C 443.761 5.16325 0.71119 0
M  V30 4713 C 441.089 5.8588 0.310099 0
M  V30 4714 C 443.441 6.32597 0.0182157 0
M  V30 4715 C 442.105 6.67236 -0.18768 0
M  V30 4716 H 441.375 0.643833 0.366824 0
M  V30 4717 H 444.022 1.89521 0.27458 0
M  V30 4718 H 442.327 2.83212 2.70736 0
M  V30 4719 H 444.024 3.15088 2.48033 0
M  V30 4720 H 440.614 4.06043 1.37213 0
M  V30 4721 H 444.798 4.88987 0.848844 0
M  V30 4722 H 440.054 6.1124 0.139873 0
M  V30 4723 H 444.228 6.9538 -0.376711 0
M  V30 4724 H 441.855 7.56618 -0.73715 0
M  V30 4725 N 443.43 -0.535701 1.48216 0
M  V30 4726 C 444.658 -1.31671 1.59594 0
M  V30 4727 C 445.073 -1.87083 0.254056 0
M  V30 4728 O 444.43 -1.66112 -0.755854 0
M  V30 4729 C 444.481 -2.47158 2.63809 0
M  V30 4730 O 444.202 -1.94032 3.92789 0
M  V30 4731 C 445.703 -3.39062 2.85573 0
M  V30 4732 H 442.923 -0.400623 0.538277 0
M  V30 4733 H 445.467 -0.646827 1.94001 0
M  V30 4734 H 443.622 -3.10043 2.32276 0
M  V30 4735 H 444.036 -2.69585 4.49916 0
M  V30 4736 H 445.51 -4.16459 3.62306 0
M  V30 4737 H 445.987 -3.93941 1.94184 0
M  V30 4738 H 446.593 -2.81975 3.18387 0
M  V30 4739 N 444.908 -1.36708 -0.784132 0
M  V30 4740 C 446.155 -1.31231 -1.54222 0
M  V30 4741 C 446.483 0.106864 -1.94206 0
M  V30 4742 O 445.738 1.07734 -1.63376 0
M  V30 4743 C 446.037 -2.18571 -2.82774 0
M  V30 4744 C 445.703 -3.67039 -2.61903 0
M  V30 4745 C 444.365 -4.07503 -2.55919 0
M  V30 4746 C 446.717 -4.61149 -2.4288 0
M  V30 4747 C 444.045 -5.40211 -2.28886 0
M  V30 4748 C 446.397 -5.94081 -2.17373 0
M  V30 4749 C 445.061 -6.33664 -2.09825 0
M  V30 4750 H 444.331 -0.48021 -0.56434 0
M  V30 4751 H 446.978 -1.68807 -0.904233 0
M  V30 4752 H 445.283 -1.73949 -3.51068 0
M  V30 4753 H 446.98 -2.11655 -3.40592 0
M  V30 4754 H 443.57 -3.34941 -2.67418 0
M  V30 4755 H 447.754 -4.30756 -2.46501 0
M  V30 4756 H 443.01 -5.69855 -2.21529 0
M  V30 4757 H 447.184 -6.66566 -2.01649 0
M  V30 4758 H 444.811 -7.36423 -1.88641 0
M  V30 4759 N 446.386 1.0089 -1.21074 0
M  V30 4760 C 447.333 2.09588 -0.966512 0
M  V30 4761 C 448.303 1.65761 0.106089 0
M  V30 4762 O 449.488 1.90758 -0.0402287 0
M  V30 4763 C 446.628 3.40958 -0.533058 0
M  V30 4764 C 445.741 3.9822 -1.67467 0
M  V30 4765 C 444.876 5.17682 -1.19076 0
M  V30 4766 C 443.915 5.67043 -2.30496 0
M  V30 4767 N 443.052 6.77759 -1.83267 0
M  V30 4768 H 447.892 2.29815 -1.89708 0
M  V30 4769 H 445.429 1.12689 -0.945489 0
M  V30 4770 H 447.387 4.1637 -0.263019 0
M  V30 4771 H 446.017 3.20781 0.360505 0
M  V30 4772 H 445.069 3.1983 -2.05944 0
M  V30 4773 H 446.381 4.3085 -2.51336 0
M  V30 4774 H 445.535 6.00326 -0.877151 0
M  V30 4775 H 444.274 4.86635 -0.322066 0
M  V30 4776 H 443.279 4.82999 -2.62664 0
M  V30 4777 H 444.504 6.00121 -3.17855 0
M  V30 4778 H 442.45 6.48527 -0.987356 0
M  V30 4779 H 442.367 7.09624 -2.60711 0
M  V30 4780 H 443.635 7.63949 -1.54928 0
M  V30 4781 N 447.864 1.01787 1.20321 0
M  V30 4782 C 449.092 0.727194 1.937 0
M  V30 4783 C 449.507 -0.712305 1.74848 0
M  V30 4784 O 448.864 -1.48327 1.06327 0
M  V30 4785 C 448.915 1.05497 3.45764 0
M  V30 4786 O 448.636 2.43794 3.64 0
M  V30 4787 C 450.137 0.785534 4.36285 0
M  V30 4788 H 447.357 0.266939 0.615617 0
M  V30 4789 H 449.901 1.35939 1.52777 0
M  V30 4790 H 448.056 0.468158 3.84561 0
M  V30 4791 H 448.47 2.55656 4.57974 0
M  V30 4792 H 449.944 1.06495 5.4163 0
M  V30 4793 H 450.421 -0.280273 4.38305 0
M  V30 4794 H 451.027 1.35456 4.03152 0
M  V30 4795 N 449.342 -1.36122 0.79427 0
M  V30 4796 C 450.29 -2.31871 0.184023 0
M  V30 4797 C 451.284 -1.56041 -0.659365 0
M  V30 4798 O 452.49 -1.71266 -0.553906 0
M  V30 4799 H 448.865 -0.750896 0.0407373 0
M  V30 4800 H 450.836 -2.80898 1.00693 0
M  V30 4801 C 449.585 -3.41324 -0.662813 0
M  V30 4802 H 448.908 -3.99793 -0.0231944 0
M  V30 4803 H 450.348 -4.10629 -1.05639 0
M  V30 4804 C 448.807 -2.83308 -1.82313 0
M  V30 4805 O 449.337 -2.75863 -2.91997 0
M  V30 4806 N 447.543 -2.40529 -1.63077 0
M  V30 4807 H 447.09 -2.46785 -0.738591 0
M  V30 4808 H 447.048 -2.02059 -2.40872 0
M  V30 4809 N 450.82 -0.546701 -1.47814 0
M  V30 4810 C 452.236 -0.205717 -1.58269 0
M  V30 4811 C 452.436 1.29153 -1.54667 0
M  V30 4812 O 451.492 2.07098 -1.44453 0
M  V30 4813 C 452.805 -0.823065 -2.89216 0
M  V30 4814 C 454.353 -0.793328 -3.02779 0
M  V30 4815 C 454.828 -1.38955 -4.36412 0
M  V30 4816 N 456.319 -1.35227 -4.43021 0
M  V30 4817 C 457.054 -1.78333 -5.44963 0
M  V30 4818 N 456.55 -2.29246 -6.53772 0
M  V30 4819 N 458.343 -1.69467 -5.35945 0
M  V30 4820 H 450.494 -1.5196 -1.48398 0
M  V30 4821 H 452.757 -0.633078 -0.705632 0
M  V30 4822 H 452.463 -1.8749 -2.97558 0
M  V30 4823 H 452.337 -0.309915 -3.75925 0
M  V30 4824 H 454.724 0.249784 -2.94041 0
M  V30 4825 H 454.805 -1.34412 -2.17639 0
M  V30 4826 H 454.449 -2.43168 -4.45906 0
M  V30 4827 H 454.379 -0.814291 -5.20266 0
M  V30 4828 H 456.87 -0.979739 -3.64979 0
M  V30 4829 H 457.183 -2.60089 -7.27718 0
M  V30 4830 H 455.528 -2.3325 -6.5469 0
M  V30 4831 H 458.719 -1.29477 -4.49837 0
M  V30 4832 H 458.892 -2.03381 -6.15256 0
M  V30 4833 N 452.299 1.55045 -0.282633 0
M  V30 4834 C 453.231 2.2023 0.634924 0
M  V30 4835 C 454.244 1.18931 1.11172 0
M  V30 4836 O 455.433 1.4562 1.03233 0
M  V30 4837 C 452.533 2.82041 1.87899 0
M  V30 4838 C 451.706 4.091 1.54776 0
M  V30 4839 C 450.765 4.54887 2.64507 0
M  V30 4840 O 449.791 5.20496 2.30375 0
M  V30 4841 N 450.993 4.25659 3.94709 0
M  V30 4842 H 453.758 2.99601 0.0769811 0
M  V30 4843 H 451.319 1.61565 -0.104048 0
M  V30 4844 H 453.311 3.09613 2.60619 0
M  V30 4845 H 451.881 2.06618 2.3458 0
M  V30 4846 H 451.101 3.88736 0.654049 0
M  V30 4847 H 452.389 4.9187 1.30158 0
M  V30 4848 H 451.787 3.7306 4.25256 0
M  V30 4849 H 450.344 4.57984 4.63782 0
M  V30 4850 N 453.777 0.010035 1.57597 0
M  V30 4851 C 455.002 -0.687021 1.95691 0
M  V30 4852 C 455.427 -1.65952 0.885519 0
M  V30 4853 O 454.785 -1.80633 -0.15543 0
M  V30 4854 C 454.833 -1.3864 3.32884 0
M  V30 4855 O 453.937 -2.50115 3.27897 0
M  V30 4856 H 453.278 -0.181989 0.638573 0
M  V30 4857 H 455.808 0.0662122 2.04493 0
M  V30 4858 H 455.818 -1.74754 3.6868 0
M  V30 4859 H 454.493 -0.673411 4.10412 0
M  V30 4860 H 453.07 -2.16253 3.03791 0
M  V30 4861 N 455.255 -1.55392 -0.262866 0
M  V30 4862 C 456.666 -1.67079 -0.833158 0
M  V30 4863 C 457.017 -0.604539 -1.86654 0
M  V30 4864 O 456.142 0.252138 -2.14926 0
M  V30 4865 C 456.737 -3.02891 -1.51797 0
M  V30 4866 C 455.296 -3.16571 -2.03617 0
M  V30 4867 C 454.443 -2.62909 -0.881701 0
M  V30 4868 H 457.394 -1.58652 -0.0389986 0
M  V30 4869 H 457.415 -2.96445 -2.38538 0
M  V30 4870 H 456.927 -3.80473 -0.765619 0
M  V30 4871 H 455.028 -2.43782 -2.81782 0
M  V30 4872 H 455.141 -4.23271 -2.24452 0
M  V30 4873 H 453.505 -2.20324 -1.27786 0
M  V30 4874 H 454.288 -3.43003 -0.14269 0
M  V30 4875 N 456.733 0.527833 -1.48498 0
M  V30 4876 C 457.681 1.65313 -1.63628 0
M  V30 4877 C 458.675 1.6177 -0.502676 0
M  V30 4878 O 459.881 1.66601 -0.681469 0
M  V30 4879 H 456.256 0.547518 -0.515488 0
M  V30 4880 H 458.227 1.49696 -2.58135 0
M  V30 4881 C 456.976 3.03576 -1.6952 0
M  V30 4882 H 456.299 3.06997 -2.56111 0
M  V30 4883 H 457.739 3.81923 -1.84149 0
M  V30 4884 C 456.198 3.34089 -0.43432 0
M  V30 4885 O 456.728 3.99151 0.451852 0
M  V30 4886 N 454.934 2.88991 -0.305368 0
M  V30 4887 H 454.481 2.36222 -1.02747 0
M  V30 4888 H 454.439 3.09776 0.537249 0
M  V30 4889 N 458.211 1.37122 0.776871 0
M  V30 4890 C 459.441 1.35034 1.56363 0
M  V30 4891 C 459.849 -0.0674681 1.8908 0
M  V30 4892 O 459.192 -1.03826 1.51545 0
M  V30 4893 C 459.254 2.11894 2.90415 0
M  V30 4894 C 458.918 3.60897 2.80362 0
M  V30 4895 C 459.915 4.54887 2.51742 0
M  V30 4896 C 457.6 4.03951 2.98545 0
M  V30 4897 C 459.594 5.89909 2.41426 0
M  V30 4898 C 457.281 5.3906 2.87849 0
M  V30 4899 C 458.279 6.31852 2.5933 0
M  V30 4900 O 457.967 7.64479 2.48651 0
M  V30 4901 H 457.699 0.464402 0.49123 0
M  V30 4902 H 460.253 1.80992 0.971127 0
M  V30 4903 H 458.483 1.60618 3.51765 0
M  V30 4904 H 460.172 2.02505 3.51776 0
M  V30 4905 H 460.938 4.22934 2.37385 0
M  V30 4906 H 456.817 3.3209 3.19746 0
M  V30 4907 H 460.361 6.62304 2.19086 0
M  V30 4908 H 456.258 5.70617 3.01773 0
M  V30 4909 H 457.026 7.74742 2.64039 0
M  V30 4910 N 459.689 -1.00246 1.21608 0
M  V30 4911 C 461.105 -1.26435 0.973975 0
M  V30 4912 C 461.305 -1.98642 -0.338143 0
M  V30 4913 O 460.361 -2.29026 -1.06317 0
M  V30 4914 C 461.674 -2.08551 2.16626 0
M  V30 4915 C 463.222 -2.21769 2.20879 0
M  V30 4916 C 463.697 -3.07267 3.39633 0
M  V30 4917 N 465.188 -3.14855 3.39736 0
M  V30 4918 C 465.923 -3.81274 4.28273 0
M  V30 4919 N 465.419 -4.497 5.27012 0
M  V30 4920 N 467.212 -3.7794 4.16074 0
M  V30 4921 H 459.363 -0.518089 2.05984 0
M  V30 4922 H 461.626 -0.291368 0.902113 0
M  V30 4923 H 461.332 -1.62847 3.11727 0
M  V30 4924 H 461.206 -3.09303 2.15897 0
M  V30 4925 H 463.593 -2.66691 1.26332 0
M  V30 4926 H 463.674 -1.20478 2.25652 0
M  V30 4927 H 463.318 -2.63047 4.34475 0
M  V30 4928 H 463.248 -4.08678 3.321 0
M  V30 4929 H 465.739 -2.66147 2.6828 0
M  V30 4930 H 466.052 -4.98092 5.90867 0
M  V30 4931 H 464.397 -4.48479 5.30935 0
M  V30 4932 H 467.588 -3.23638 3.38195 0
M  V30 4933 H 467.761 -4.29424 4.85282 0
M  V30 4934 N 461.167 -1.02423 -1.1978 0
M  V30 4935 C 462.413 -0.719051 -1.89625 0
M  V30 4936 C 462.746 0.750083 -1.7913 0
M  V30 4937 O 462.021 1.54574 -1.18056 0
M  V30 4938 C 462.304 -1.16499 -3.40735 0
M  V30 4939 C 462.157 -2.695 -3.60125 0
M  V30 4940 C 463.476 -0.742166 -4.33797 0
M  V30 4941 H 460.595 -0.26269 -0.688595 0
M  V30 4942 H 463.237 -1.27333 -1.41018 0
M  V30 4943 H 461.387 -0.69341 -3.82262 0
M  V30 4944 H 463.059 -3.24569 -3.278 0
M  V30 4945 H 461.302 -3.10113 -3.03336 0
M  V30 4946 H 461.973 -2.95757 -4.66081 0
M  V30 4947 H 464.449 -1.1477 -3.99959 0
M  V30 4948 H 463.325 -1.08213 -5.38127 0
M  V30 4949 H 463.586 0.355747 -4.40666 0
M  V30 4950 N 462.645 1.35699 -0.801477 0
M  V30 4951 C 463.894 1.98165 -0.375979 0
M  V30 4952 C 464.207 1.64306 1.06127 0
M  V30 4953 O 465.413 2.20097 1.58964 0
M  V30 4954 C 463.869 3.54497 -0.621305 0
M  V30 4955 C 463.477 3.9727 -2.07076 0
M  V30 4956 C 465.221 4.23697 -0.26091 0
M  V30 4957 C 463.128 5.46427 -2.26211 0
M  V30 4958 H 462.058 0.741478 -0.136844 0
M  V30 4959 H 464.709 1.54834 -0.984814 0
M  V30 4960 H 463.091 3.95958 0.0574112 0
M  V30 4961 H 464.265 3.66974 -2.78687 0
M  V30 4962 H 462.58 3.40943 -2.39054 0
M  V30 4963 H 465.177 5.33334 -0.381994 0
M  V30 4964 H 465.52 4.0869 0.792344 0
M  V30 4965 H 466.053 3.87639 -0.893339 0
M  V30 4966 H 462.792 5.66396 -3.29963 0
M  V30 4967 H 462.312 5.78309 -1.59119 0
M  V30 4968 H 463.991 6.12819 -2.07513 0
M  V30 4969 N 464.123 0.554532 1.47522 0
M  V30 4970 C 465.071 -0.207765 2.3167 0
M  V30 4971 C 466.065 -0.911914 1.4276 0
M  V30 4972 O 467.271 -0.833504 1.59539 0
M  V30 4973 H 463.646 -0.0858726 0.747081 0
M  V30 4974 H 465.617 0.521178 2.93813 0
M  V30 4975 C 464.366 -1.2263 3.25357 0
M  V30 4976 H 463.689 -0.693887 3.93732 0
M  V30 4977 H 465.129 -1.73062 3.87073 0
M  V30 4978 C 463.588 -2.27278 2.4869 0
M  V30 4979 O 464.118 -3.34156 2.22941 0
M  V30 4980 N 462.324 -2.01134 2.09746 0
M  V30 4981 H 461.871 -1.14232 2.30887 0
M  V30 4982 H 461.829 -2.71369 1.58765 0
M  V30 4983 N 465.601 -1.54893 0.290851 0
M  V30 4984 C 466.85 -1.99111 -0.322113 0
M  V30 4985 C 467.163 -1.18283 -1.55784 0
M  V30 4986 O 468.369 -1.5272 -2.24475 0
M  V30 4987 C 466.825 -3.54442 -0.624438 0
M  V30 4988 C 466.433 -4.44066 0.592373 0
M  V30 4989 C 468.177 -4.07211 -1.19916 0
M  V30 4990 C 466.084 -5.90812 0.263762 0
M  V30 4991 H 465.014 -0.743712 -0.124133 0
M  V30 4992 H 467.665 -1.79132 0.39797 0
M  V30 4993 H 466.047 -3.70281 -1.40384 0
M  V30 4994 H 467.221 -4.39999 1.36886 0
M  V30 4995 H 465.536 -4.02015 1.08502 0
M  V30 4996 H 468.133 -5.14407 -1.45909 0
M  V30 4997 H 468.476 -3.57196 -2.13815 0
M  V30 4998 H 469.009 -3.94873 -0.481687 0
M  V30 4999 H 465.748 -6.44955 1.17105 0
M  V30 5000 H 465.268 -5.97911 -0.475655 0
M  V30 5001 H 466.947 -6.46852 -0.138354 0
M  V30 5002 N 467.08 -0.0183926 -1.57589 0
M  V30 5003 C 468.357 0.700621 -1.82622 0
M  V30 5004 C 468.737 1.90951 -0.90005 0
M  V30 5005 O 468.085 2.28452 0.0469145 0
M  V30 5006 C 468.295 1.08899 -3.31575 0
M  V30 5007 C 469.643 1.48514 -3.9778 0
M  V30 5008 O 470.667 1.18227 -3.36007 0
M  V30 5009 O 469.526 2.04903 -5.06633 0
M  V30 5010 H 466.62 0.342743 -0.752633 0
M  V30 5011 H 469.166 -0.0452548 -1.6964 0
M  V30 5012 H 467.938 0.228113 -3.90635 0
M  V30 5013 H 467.561 1.89338 -3.49624 0
M  V30 5014 N 468.558 1.5553 0.254621 0
M  V30 5015 C 469.805 1.77 0.983736 0
M  V30 5016 C 470.133 0.58133 1.85609 0
M  V30 5017 O 469.388 -0.435621 1.9079 0
M  V30 5018 C 469.687 3.03891 1.88109 0
M  V30 5019 C 469.353 4.35597 1.16472 0
M  V30 5020 C 468.015 4.7139 0.966714 0
M  V30 5021 C 470.367 5.1705 0.656387 0
M  V30 5022 C 467.695 5.86176 0.247942 0
M  V30 5023 C 470.047 6.32581 -0.0488807 0
M  V30 5024 C 468.711 6.67 -0.258438 0
M  V30 5025 H 467.981 0.647688 0.359974 0
M  V30 5026 H 470.628 1.89802 0.254463 0
M  V30 5027 H 468.933 2.86068 2.67717 0
M  V30 5028 H 470.63 3.17701 2.44677 0
M  V30 5029 H 467.22 4.07475 1.32899 0
M  V30 5030 H 471.404 4.8986 0.796933 0
M  V30 5031 H 466.66 6.11354 0.075035 0
M  V30 5032 H 470.834 6.94942 -0.450444 0
M  V30 5033 H 468.461 7.55793 -0.817358 0
M  V30 5034 N 470.036 -0.519951 1.48776 0
M  V30 5035 C 471.452 -0.849418 1.35119 0
M  V30 5036 C 471.652 -1.98077 0.36982 0
M  V30 5037 O 470.708 -2.51664 -0.205359 0
M  V30 5038 C 472.021 -1.20748 2.75391 0
M  V30 5039 C 473.569 -1.31679 2.83954 0
M  V30 5040 C 474.044 -1.70824 4.24951 0
M  V30 5041 N 475.535 -1.77908 4.27672 0
M  V30 5042 C 476.27 -2.09603 5.33717 0
M  V30 5043 N 475.766 -2.39652 6.5003 0
M  V30 5044 N 477.559 -2.10694 5.21119 0
M  V30 5045 H 469.71 0.226377 2.1119 0
M  V30 5046 H 471.973 0.0386519 0.947212 0
M  V30 5047 H 471.679 -0.449703 3.48813 0
M  V30 5048 H 471.553 -2.15534 3.09556 0
M  V30 5049 H 473.94 -2.06532 2.10781 0
M  V30 5050 H 474.021 -0.3499 2.53396 0
M  V30 5051 H 473.665 -0.965282 4.98643 0
M  V30 5052 H 473.595 -2.6858 4.52959 0
M  V30 5053 H 476.086 -1.56923 3.43779 0
M  V30 5054 H 476.399 -2.6297 7.26682 0
M  V30 5055 H 474.744 -2.37149 6.53288 0
M  V30 5056 H 477.935 -1.86682 4.29264 0
M  V30 5057 H 478.108 -2.35062 6.03863 0
M  V30 5058 N 471.514 -1.37532 -0.769588 0
M  V30 5059 C 472.791 -1.23392 -1.51768 0
M  V30 5060 C 473.171 0.17157 -2.10402 0
M  V30 5061 O 472.519 1.17943 -1.95708 0
M  V30 5062 C 472.729 -2.33163 -2.59685 0
M  V30 5063 C 474.077 -2.70809 -3.27028 0
M  V30 5064 O 475.101 -2.32355 -2.69981 0
M  V30 5065 O 473.96 -3.37066 -4.30173 0
M  V30 5066 H 471.054 -0.481617 -0.67229 0
M  V30 5067 H 473.6 -1.49318 -0.806368 0
M  V30 5068 H 472.372 -3.27273 -2.14494 0
M  V30 5069 H 471.995 -2.08713 -3.38415 0
M  V30 5070 N 472.992 0.995999 -1.22138 0
M  V30 5071 C 474.403 1.54961 -1.04135 0
M  V30 5072 C 474.754 1.92159 0.396147 0
M  V30 5073 O 473.879 1.74435 1.28069 0
M  V30 5074 C 474.474 2.81581 -1.88408 0
M  V30 5075 C 473.033 3.33396 -1.74712 0
M  V30 5076 C 472.18 2.06509 -1.85066 0
M  V30 5077 H 475.131 0.817436 -1.36028 0
M  V30 5078 H 475.152 3.53822 -1.39966 0
M  V30 5079 H 474.664 2.54476 -2.93025 0
M  V30 5080 H 472.765 3.65416 -0.728159 0
M  V30 5081 H 472.878 4.04208 -2.57202 0
M  V30 5082 H 471.242 2.19925 -1.28472 0
M  V30 5083 H 472.025 1.81804 -2.91208 0
M  V30 5084 N 474.47 1.03057 1.19235 0
M  V30 5085 C 475.38 0.622922 2.26179 0
M  V30 5086 C 476.396 -0.346113 1.70523 0
M  V30 5087 O 477.572 -0.203572 2.00369 0
M  V30 5088 C 474.637 -0.0182063 3.46695 0
M  V30 5089 C 473.698 0.998546 4.17526 0
M  V30 5090 C 472.931 0.387917 5.32288 0
M  V30 5091 O 473.154 -0.808668 5.64639 0
M  V30 5092 O 472.088 1.1116 5.91546 0
M  V30 5093 H 475.914 1.51363 2.63292 0
M  V30 5094 H 473.499 0.800856 1.26122 0
M  V30 5095 H 475.381 -0.375606 4.19723 0
M  V30 5096 H 474.056 -0.882895 3.11427 0
M  V30 5097 H 472.963 1.40756 3.4661 0
M  V30 5098 H 474.296 1.83366 4.56769 0
M  V30 5099 N 475.948 -1.35272 0.808662 0
M  V30 5100 C 476.858 -2.33546 0.222079 0
M  V30 5101 C 477.874 -1.6196 -0.636011 0
M  V30 5102 O 479.05 -1.93822 -0.547274 0
M  V30 5103 C 476.115 -3.41148 -0.61795 0
M  V30 5104 C 475.176 -4.28507 0.260875 0
M  V30 5105 C 474.409 -5.3097 -0.539156 0
M  V30 5106 O 474.632 -5.42123 -1.77367 0
M  V30 5107 O 473.566 -6.01858 0.0710526 0
M  V30 5108 H 477.392 -2.85515 1.03512 0
M  V30 5109 H 474.977 -1.38079 0.570495 0
M  V30 5110 H 476.859 -4.06889 -1.09634 0
M  V30 5111 H 475.534 -2.91447 -1.40855 0
M  V30 5112 H 474.441 -3.6574 0.786451 0
M  V30 5113 H 475.774 -4.81611 1.01547 0
M  V30 5114 N 477.426 -0.562348 -1.47226 0
M  V30 5115 C 478.651 -0.0432632 -2.07355 0
M  V30 5116 C 479.076 1.24332 -1.41149 0
M  V30 5117 O 478.434 1.74603 -0.488226 0
M  V30 5118 C 478.482 0.130288 -3.60365 0
M  V30 5119 O 477.586 1.19166 -3.94808 0
M  V30 5120 H 476.927 -0.0536334 -0.66183 0
M  V30 5121 H 479.457 -0.779495 -1.89169 0
M  V30 5122 H 479.467 0.342881 -4.06557 0
M  V30 5123 H 478.142 -0.809389 -4.07948 0
M  V30 5124 H 476.719 0.959153 -3.60354 0
M  V30 5125 N 478.904 1.54736 -0.299062 0
M  V30 5126 C 479.851 2.23448 0.577899 0
M  V30 5127 C 480.821 1.21637 1.13109 0
M  V30 5128 O 482.006 1.50252 1.17597 0
M  V30 5129 C 479.146 2.9774 1.74484 0
M  V30 5130 C 478.259 4.1432 1.22323 0
M  V30 5131 C 477.394 4.76199 2.35388 0
M  V30 5132 C 476.433 5.84927 1.80351 0
M  V30 5133 N 475.57 6.4077 2.86982 0
M  V30 5134 H 480.41 2.97996 -0.0146545 0
M  V30 5135 H 477.947 1.47088 -0.0190013 0
M  V30 5136 H 479.905 3.39045 2.43114 0
M  V30 5137 H 478.535 2.25572 2.30905 0
M  V30 5138 H 477.587 3.7797 0.429249 0
M  V30 5139 H 478.899 4.92659 0.780309 0
M  V30 5140 H 478.053 5.20346 3.11969 0
M  V30 5141 H 476.792 3.97188 2.83006 0
M  V30 5142 H 475.797 5.40207 1.02259 0
M  V30 5143 H 477.022 6.65821 1.3364 0
M  V30 5144 H 474.968 5.64643 3.33938 0
M  V30 5145 H 474.885 7.1445 2.4718 0
M  V30 5146 H 476.153 6.89574 3.63466 0
M  V30 5147 N 480.382 0.0267497 1.57577 0
M  V30 5148 C 481.628 -0.647596 1.92815 0
M  V30 5149 C 481.983 -1.69872 0.903396 0
M  V30 5150 O 481.276 -1.91429 -0.0808881 0
M  V30 5151 C 481.47 -1.30914 3.3256 0
M  V30 5152 C 481.299 -0.323621 4.48534 0
M  V30 5153 C 480.069 0.0756607 5.05243 0
M  V30 5154 C 482.267 0.42112 5.12573 0
M  V30 5155 N 480.249 1.0566 6.04739 0
M  V30 5156 C 481.62 1.25589 6.07147 0
M  V30 5157 C 483.675 0.482077 4.95561 0
M  V30 5158 C 482.378 2.1461 6.86538 0
M  V30 5159 C 484.404 1.35962 5.75559 0
M  V30 5160 C 483.766 2.18217 6.69747 0
M  V30 5161 H 479.865 -0.209357 0.753454 0
M  V30 5162 H 482.449 0.0933695 1.94476 0
M  V30 5163 H 480.62 -2.02026 3.31723 0
M  V30 5164 H 482.352 -1.94033 3.55153 0
M  V30 5165 H 479.107 -0.298294 4.7266 0
M  V30 5166 H 479.531 1.54324 6.59176 0
M  V30 5167 H 484.173 -0.139609 4.22569 0
M  V30 5168 H 481.891 2.77835 7.58837 0
M  V30 5169 H 485.477 1.41105 5.6443 0
M  V30 5170 H 484.357 2.85022 7.3057 0
M  V30 5171 N 481.861 -1.55662 -0.24637 0
M  V30 5172 C 482.808 -1.90361 -1.30504 0
M  V30 5173 C 483.778 -0.757905 -1.47801 0
M  V30 5174 O 484.963 -1.01161 -1.61775 0
M  V30 5175 C 482.103 -2.2042 -2.65535 0
M  V30 5176 C 481.216 -3.47799 -2.56242 0
M  V30 5177 C 480.351 -3.67426 -3.8363 0
M  V30 5178 C 479.39 -4.88403 -3.68956 0
M  V30 5179 N 478.527 -5.04548 -4.88237 0
M  V30 5180 H 483.367 -2.80645 -1.00213 0
M  V30 5181 H 480.904 -1.38924 -0.483577 0
M  V30 5182 H 482.862 -2.35853 -3.44135 0
M  V30 5183 H 481.492 -1.3334 -2.93973 0
M  V30 5184 H 480.544 -3.40694 -1.69208 0
M  V30 5185 H 481.856 -4.36544 -2.4131 0
M  V30 5186 H 481.01 -3.82821 -4.70673 0
M  V30 5187 H 479.749 -2.76914 -4.01459 0
M  V30 5188 H 478.754 -4.72984 -2.80296 0
M  V30 5189 H 479.979 -5.80375 -3.52621 0
M  V30 5190 H 477.925 -4.16974 -5.06427 0
M  V30 5191 H 477.842 -5.87384 -4.75937 0
M  V30 5192 H 479.11 -5.24355 -5.76777 0
M  V30 5193 N 483.339 0.512053 -1.4905 0
M  V30 5194 C 484.585 1.26874 -1.58212 0
M  V30 5195 C 484.918 1.9241 -0.263073 0
M  V30 5196 O 484.193 1.80181 0.732476 0
M  V30 5197 C 484.476 2.34428 -2.73341 0
M  V30 5198 C 484.329 1.73466 -4.15006 0
M  V30 5199 C 485.648 3.36073 -2.84154 0
M  V30 5200 H 482.767 0.459924 -0.575881 0
M  V30 5201 H 485.409 0.568587 -1.81293 0
M  V30 5202 H 483.559 2.94146 -2.53792 0
M  V30 5203 H 485.231 1.17661 -4.46042 0
M  V30 5204 H 483.474 1.03921 -4.21168 0
M  V30 5205 H 484.145 2.51426 -4.91415 0
M  V30 5206 H 486.621 2.86332 -3.01916 0
M  V30 5207 H 485.497 4.08703 -3.66406 0
M  V30 5208 H 485.758 3.97725 -1.93048 0
M  V30 5209 N 484.817 1.37938 0.762283 0
M  V30 5210 C 485.747 1.37176 1.88958 0
M  V30 5211 C 486.728 0.238945 1.68413 0
M  V30 5212 O 487.913 0.440726 1.89133 0
M  V30 5213 C 485.043 1.18742 3.2637 0
M  V30 5214 C 483.997 2.29136 3.61498 0
M  V30 5215 C 483.323 1.95816 4.97554 0
M  V30 5216 C 484.623 3.71363 3.6727 0
M  V30 5217 H 486.317 2.31509 1.89853 0
M  V30 5218 H 483.863 1.11438 0.912005 0
M  V30 5219 H 485.816 1.16837 4.04879 0
M  V30 5220 H 484.54 0.208683 3.25933 0
M  V30 5221 H 483.199 2.30213 2.85303 0
M  V30 5222 H 482.847 0.964475 4.93667 0
M  V30 5223 H 482.547 2.69745 5.22026 0
M  V30 5224 H 484.071 1.95513 5.78452 0
M  V30 5225 H 485.485 3.72364 4.35911 0
M  V30 5226 H 483.882 4.44425 4.03245 0
M  V30 5227 H 484.952 4.04305 2.67704 0
M  V30 5228 N 486.295 -0.989507 1.22664 0
M  V30 5229 C 487.541 -1.7321 1.05481 0
M  V30 5230 C 487.874 -1.89852 -0.408635 0
M  V30 5231 O 487.149 -1.44416 -1.30285 0
M  V30 5232 C 487.432 -3.1357 1.77047 0
M  V30 5233 C 487.285 -3.04555 3.31008 0
M  V30 5234 C 488.604 -4.12812 1.5256 0
M  V30 5235 H 485.723 -0.628697 0.384589 0
M  V30 5236 H 488.365 -1.15258 1.51049 0
M  V30 5237 H 486.515 -3.63046 1.3831 0
M  V30 5238 H 488.187 -2.62674 3.7921 0
M  V30 5239 H 486.43 -2.41278 3.6051 0
M  V30 5240 H 487.101 -4.03894 3.76263 0
M  V30 5241 H 489.577 -3.72106 1.86215 0
M  V30 5242 H 488.453 -5.09132 2.05124 0
M  V30 5243 H 488.714 -4.39711 0.458936 0
M  V30 5244 N 487.773 -1.03688 -1.18687 0
M  V30 5245 C 489.184 -0.766488 -1.70241 0
M  V30 5246 C 489.535 0.713052 -1.82784 0
M  V30 5247 O 488.66 1.55529 -1.50465 0
M  V30 5248 C 489.255 -1.38475 -3.09209 0
M  V30 5249 C 487.814 -1.16276 -3.5799 0
M  V30 5250 C 486.961 -1.4778 -2.34641 0
M  V30 5251 H 489.912 -1.20378 -1.03415 0
M  V30 5252 H 489.933 -0.785939 -3.72295 0
M  V30 5253 H 489.445 -2.46157 -3.00048 0
M  V30 5254 H 487.546 -0.104508 -3.72453 0
M  V30 5255 H 487.659 -1.8571 -4.41643 0
M  V30 5256 H 486.023 -0.897366 -2.38368 0
M  V30 5257 H 486.806 -2.56562 -2.28102 0
M  V30 5258 N 489.251 1.34841 -0.815825 0
M  V30 5259 C 490.161 2.33425 -0.234462 0
M  V30 5260 C 491.177 1.62295 0.627413 0
M  V30 5261 O 492.353 1.94109 0.536987 0
M  V30 5262 C 489.418 3.41471 0.599849 0
M  V30 5263 C 488.479 4.28362 -0.283596 0
M  V30 5264 C 487.712 5.31248 0.51099 0
M  V30 5265 O 487.935 5.43056 1.7449 0
M  V30 5266 O 486.869 6.01812 -0.10297 0
M  V30 5267 H 490.695 2.84962 -1.05024 0
M  V30 5268 H 488.28 1.37774 -0.577809 0
M  V30 5269 H 490.162 4.07464 1.07475 0
M  V30 5270 H 488.837 2.9219 1.39308 0
M  V30 5271 H 487.744 3.65318 -0.805836 0
M  V30 5272 H 489.077 4.81066 -1.041 0
M  V30 5273 N 490.729 0.570148 1.46925 0
M  V30 5274 C 491.679 -0.190921 2.27199 0
M  V30 5275 C 492.663 -0.873457 1.35128 0
M  V30 5276 O 493.855 -0.769627 1.59392 0
M  V30 5277 C 490.984 -1.21204 3.21192 0
M  V30 5278 C 490.07 -0.532261 4.20747 0
M  V30 5279 N 490.461 0.405038 5.04176 0
M  V30 5280 C 488.759 -0.784582 4.39045 0
M  V30 5281 C 489.46 0.801149 5.76157 0
M  V30 5282 N 488.436 0.153082 5.43384 0
M  V30 5283 H 492.238 0.529535 2.8909 0
M  V30 5284 H 489.752 0.391019 1.57622 0
M  V30 5285 H 491.749 -1.77135 3.77398 0
M  V30 5286 H 490.409 -1.93345 2.6086 0
M  V30 5287 H 491.42 0.779903 5.11994 0
M  V30 5288 H 488.097 -1.49352 3.89872 0
M  V30 5289 H 489.487 1.57208 6.5325 0
M  V30 5290 N 492.207 -1.54576 0.307264 0
M  V30 5291 C 493.117 -2.27435 -0.57536 0
M  V30 5292 C 494.133 -1.31183 -1.14311 0
M  V30 5293 O 495.309 -1.64175 -1.16656 0
M  V30 5294 C 492.374 -3.00566 -1.72803 0
M  V30 5295 C 491.435 -4.12369 -1.19373 0
M  V30 5296 C 490.668 -4.82003 -2.29147 0
M  V30 5297 O 490.891 -4.51038 -3.49171 0
M  V30 5298 O 489.825 -5.69271 -1.95485 0
M  V30 5299 H 493.651 -3.03696 0.0158558 0
M  V30 5300 H 491.236 -1.49219 0.0735064 0
M  V30 5301 H 493.118 -3.46416 -2.39946 0
M  V30 5302 H 491.793 -2.27195 -2.30574 0
M  V30 5303 H 490.7 -3.70905 -0.487851 0
M  V30 5304 H 492.033 -4.87736 -0.661376 0
M  V30 5305 N 493.685 -0.035106 -1.57561 0
M  V30 5306 C 494.632 0.94474 -2.10578 0
M  V30 5307 C 495.602 1.3192 -1.00927 0
M  V30 5308 O 496.787 1.41147 -1.28382 0
M  V30 5309 C 493.927 2.21982 -2.64231 0
M  V30 5310 C 493.04 1.90128 -3.87911 0
M  V30 5311 C 492.175 3.11975 -4.29936 0
M  V30 5312 C 491.214 2.75968 -5.46359 0
M  V30 5313 N 490.351 3.90459 -5.83512 0
M  V30 5314 H 495.191 0.485717 -2.94015 0
M  V30 5315 H 492.728 0.228143 -1.4532 0
M  V30 5316 H 494.686 2.96572 -2.9343 0
M  V30 5317 H 493.316 2.6549 -1.83616 0
M  V30 5318 H 492.368 1.05755 -3.65404 0
M  V30 5319 H 493.68 1.59613 -4.72573 0
M  V30 5320 H 492.834 3.9488 -4.60603 0
M  V30 5321 H 491.573 3.45657 -3.44053 0
M  V30 5322 H 490.578 1.91478 -5.1538 0
M  V30 5323 H 491.803 2.43497 -6.33945 0
M  V30 5324 H 489.749 4.23971 -5.00584 0
M  V30 5325 H 489.666 3.63588 -6.62827 0
M  V30 5326 H 490.934 4.7405 -6.18787 0
M  V30 5327 N 495.163 1.55791 0.238111 0
M  V30 5328 C 496.44 1.68798 0.98826 0
M  V30 5329 C 496.82 0.577562 2.03045 0
M  V30 5330 O 496.168 -0.41778 2.24648 0
M  V30 5331 C 496.378 3.09454 1.61367 0
M  V30 5332 C 497.726 3.68335 2.11221 0
M  V30 5333 O 498.75 3.1231 1.71292 0
M  V30 5334 O 497.609 4.6657 2.84561 0
M  V30 5335 H 494.703 0.686881 0.460568 0
M  V30 5336 H 497.249 1.68118 0.231202 0
M  V30 5337 H 496.021 3.81726 0.860295 0
M  V30 5338 H 495.644 3.14182 2.4367 0
M  V30 5339 N 496.642 -0.504142 1.49319 0
M  V30 5340 C 497.888 -1.26033 1.58882 0
M  V30 5341 C 498.221 -1.92268 0.273274 0
M  V30 5342 O 497.496 -1.80567 -0.72291 0
M  V30 5343 C 497.779 -2.32976 2.7458 0
M  V30 5344 C 497.632 -1.71263 4.1592 0
M  V30 5345 C 498.951 -3.34561 2.85932 0
M  V30 5346 H 496.07 -0.456863 0.578312 0
M  V30 5347 H 498.712 -0.558965 1.81592 0
M  V30 5348 H 496.862 -2.92796 2.55348 0
M  V30 5349 H 498.534 -1.15294 4.4666 0
M  V30 5350 H 496.777 -1.01686 4.21714 0
M  V30 5351 H 497.448 -2.48816 4.92742 0
M  V30 5352 H 499.924 -2.84727 3.0343 0
M  V30 5353 H 498.8 -4.06754 3.68568 0
M  V30 5354 H 499.061 -3.96695 1.95154 0
M  V30 5355 N 498.12 -1.38341 -0.754957 0
M  V30 5356 C 499.05 -1.38176 -1.88227 0
M  V30 5357 C 500.031 -0.247873 -1.68284 0
M  V30 5358 O 501.216 -0.45075 -1.88896 0
M  V30 5359 C 498.346 -1.20471 -3.25736 0
M  V30 5360 C 497.3 -2.3105 -3.60278 0
M  V30 5361 C 496.626 -1.98452 -4.96509 0
M  V30 5362 C 497.926 -3.73305 -3.65295 0
M  V30 5363 H 499.62 -2.32512 -1.88622 0
M  V30 5364 H 497.166 -1.1192 -0.906082 0
M  V30 5365 H 499.119 -1.18982 -4.04254 0
M  V30 5366 H 497.843 -0.225965 -3.25817 0
M  V30 5367 H 496.502 -2.31723 -2.84078 0
M  V30 5368 H 496.15 -0.990641 -4.93148 0
M  V30 5369 H 495.85 -2.7251 -5.20588 0
M  V30 5370 H 497.374 -1.98578 -5.77407 0
M  V30 5371 H 498.788 -3.7467 -4.3393 0
M  V30 5372 H 497.185 -4.46557 -4.00883 0
M  V30 5373 H 498.255 -4.05719 -2.65556 0
M  V30 5374 N 499.598 0.982988 -1.23187 0
M  V30 5375 C 500.508 2.10907 -1.02739 0
M  V30 5376 C 501.524 1.73979 0.0273188 0
M  V30 5377 O 502.7 2.00702 -0.16757 0
M  V30 5378 C 499.765 3.41142 -0.618304 0
M  V30 5379 C 498.826 3.92112 -1.74777 0
M  V30 5380 C 498.059 5.16131 -1.3581 0
M  V30 5381 O 498.282 5.6989 -0.241201 0
M  V30 5382 O 497.216 5.61103 -2.17824 0
M  V30 5383 H 501.042 2.31046 -1.97108 0
M  V30 5384 H 498.627 1.09284 -1.01869 0
M  V30 5385 H 500.509 4.19488 -0.400982 0
M  V30 5386 H 499.184 3.2234 0.296421 0
M  V30 5387 H 498.091 3.14895 -2.0197 0
M  V30 5388 H 499.424 4.15364 -2.64071 0
M  V30 5389 N 501.076 1.04316 1.18135 0
M  V30 5390 C 502.322 0.758899 1.88712 0
M  V30 5391 C 502.677 -0.705863 1.78984 0
M  V30 5392 O 501.97 -1.50874 1.18101 0
M  V30 5393 C 502.164 1.16271 3.37958 0
M  V30 5394 C 501.993 2.66518 3.62213 0
M  V30 5395 C 500.763 3.33702 3.79436 0
M  V30 5396 C 502.961 3.64739 3.62588 0
M  V30 5397 N 500.943 4.72904 3.91452 0
M  V30 5398 C 502.314 4.89627 3.80348 0
M  V30 5399 C 504.369 3.58333 3.4569 0
M  V30 5400 C 503.072 6.08879 3.8296 0
M  V30 5401 C 505.098 4.77016 3.49586 0
M  V30 5402 C 504.46 6.00724 3.67845 0
M  V30 5403 H 500.559 0.329795 0.709055 0
M  V30 5404 H 503.143 1.33334 1.4188 0
M  V30 5405 H 501.314 0.616319 3.83479 0
M  V30 5406 H 503.046 0.829205 3.96114 0
M  V30 5407 H 499.801 2.84105 3.78921 0
M  V30 5408 H 500.225 5.45258 4.01277 0
M  V30 5409 H 504.867 2.63663 3.30517 0
M  V30 5410 H 502.585 7.03903 3.96921 0
M  V30 5411 H 506.171 4.73703 3.37782 0
M  V30 5412 H 505.051 6.91022 3.70753 0
M  V30 5413 N 502.554 -1.34406 0.822964 0
M  V30 5414 C 503.803 -1.97542 0.407458 0
M  V30 5415 C 504.116 -1.65973 -1.035 0
M  V30 5416 O 505.322 -2.22598 -1.55442 0
M  V30 5417 C 503.778 -3.53463 0.677623 0
M  V30 5418 C 503.386 -3.93925 2.1337 0
M  V30 5419 C 505.13 -4.23229 0.328284 0
M  V30 5420 C 503.037 -5.42759 2.34876 0
M  V30 5421 H 501.967 -0.739207 0.148623 0
M  V30 5422 H 504.618 -1.53248 1.00932 0
M  V30 5423 H 503 -3.96 0.00558965 0
M  V30 5424 H 504.174 -3.62494 2.8449 0
M  V30 5425 H 502.489 -3.37097 2.44448 0
M  V30 5426 H 505.086 -5.32659 0.466794 0
M  V30 5427 H 505.429 -4.09899 -0.727224 0
M  V30 5428 H 505.962 -3.86169 0.954896 0
M  V30 5429 H 502.701 -5.61075 3.38932 0
M  V30 5430 H 502.221 -5.75704 1.68299 0
M  V30 5431 H 503.9 -6.0944 2.17236 0
M  V30 5432 N 504.032 -0.577932 -1.46621 0
M  V30 5433 C 504.995 0.147805 -2.28723 0
M  V30 5434 C 505.995 0.823325 -1.38123 0
M  V30 5435 O 507.185 0.676011 -1.60548 0
M  V30 5436 C 504.317 1.21853 -3.18378 0
M  V30 5437 H 505.51 -0.573654 -2.94362 0
M  V30 5438 H 503.063 -0.335703 -1.52652 0
M  V30 5439 H 503.798 1.97173 -2.57475 0
M  V30 5440 H 503.583 0.738714 -3.85078 0
M  V30 5441 H 505.073 1.72768 -3.80186 0
M  V30 5442 N 505.51 1.54411 -0.315457 0
M  V30 5443 C 506.75 2.02329 0.290236 0
M  V30 5444 C 507.114 1.19878 1.49977 0
M  V30 5445 O 508.315 1.57562 2.17779 0
M  V30 5446 C 506.586 3.51912 0.623937 0
M  V30 5447 S 508.145 4.21775 1.21044 0
M  V30 5448 H 504.963 0.705499 0.0882739 0
M  V30 5449 H 507.565 1.90328 -0.446694 0
M  V30 5450 H 506.269 4.09546 -0.264624 0
M  V30 5451 H 505.8 3.67977 1.39128 0
M  V30 5452 H 507.815 4.28757 2.49764 0
M  V30 5453 N 506.988 0.0434614 1.5754 0
M  V30 5454 C 508.234 -0.632971 1.92669 0
M  V30 5455 C 508.567 -1.70947 0.921446 0
M  V30 5456 O 507.842 -1.94426 -0.0537202 0
M  V30 5457 C 508.125 -1.23619 3.38216 0
M  V30 5458 C 507.978 -0.168274 4.49485 0
M  V30 5459 C 509.297 -2.15008 3.84005 0
M  V30 5460 H 506.416 -0.228629 0.700641 0
M  V30 5461 H 509.058 0.103651 1.89717 0
M  V30 5462 H 507.208 -1.864 3.40863 0
M  V30 5463 H 508.88 0.463196 4.58969 0
M  V30 5464 H 507.123 0.504581 4.30855 0
M  V30 5465 H 507.794 -0.630218 5.48391 0
M  V30 5466 H 510.27 -1.62198 3.83185 0
M  V30 5467 H 509.146 -2.54161 4.86511 0
M  V30 5468 H 509.407 -3.04707 3.20322 0
M  V30 5469 N 508.466 -1.55915 -0.229846 0
M  V30 5470 C 509.882 -1.48721 -0.579166 0
M  V30 5471 C 510.082 -0.736976 -1.87539 0
M  V30 5472 O 509.138 -0.273258 -2.51017 0
M  V30 5473 C 510.451 -2.9323 -0.666082 0
M  V30 5474 C 511.999 -3.03701 -0.757267 0
M  V30 5475 C 512.474 -4.49552 -0.8756 0
M  V30 5476 N 513.965 -4.53561 -0.940035 0
M  V30 5477 C 514.7 -5.63683 -1.05116 0
M  V30 5478 N 514.196 -6.83576 -1.12675 0
M  V30 5479 N 515.989 -5.51516 -1.08565 0
M  V30 5480 H 508.14 -2.03123 0.620857 0
M  V30 5481 H 510.403 -0.922898 0.21671 0
M  V30 5482 H 510.109 -3.51032 0.21664 0
M  V30 5483 H 509.983 -3.44668 -1.53243 0
M  V30 5484 H 512.37 -2.45969 -1.63043 0
M  V30 5485 H 512.451 -2.55446 0.134583 0
M  V30 5486 H 512.095 -5.079 -0.00692351 0
M  V30 5487 H 512.025 -4.95506 -1.78274 0
M  V30 5488 H 514.516 -3.67215 -0.892269 0
M  V30 5489 H 514.829 -7.63251 -1.21109 0
M  V30 5490 H 513.174 -6.86303 -1.09603 0
M  V30 5491 H 516.365 -4.5678 -1.02319 0
M  V30 5492 H 516.538 -6.37372 -1.1688 0
M  V30 5493 N 509.944 0.496216 -1.49584 0
M  V30 5494 C 511.169 1.27865 -1.63295 0
M  V30 5495 C 511.594 1.85592 -0.306156 0
M  V30 5496 O 510.952 1.66092 0.726851 0
M  V30 5497 C 511 2.38128 -2.7079 0
M  V30 5498 O 510.104 3.42108 -2.30296 0
M  V30 5499 H 509.445 0.377279 -0.546403 0
M  V30 5500 H 511.975 0.593497 -1.95803 0
M  V30 5501 H 511.985 2.8382 -2.93104 0
M  V30 5502 H 510.66 1.95479 -3.67098 0
M  V30 5503 H 509.237 3.02301 -2.18331 0
M  V30 5504 N 511.423 1.38739 0.74761 0
M  V30 5505 C 512.371 1.36573 1.88283 0
M  V30 5506 C 513.365 0.250712 1.67534 0
M  V30 5507 O 514.571 0.420073 1.7503 0
M  V30 5508 H 510.946 0.42619 0.619569 0
M  V30 5509 H 512.917 2.32356 1.87226 0
M  V30 5510 C 511.666 1.21361 3.25832 0
M  V30 5511 H 510.989 2.06424 3.42388 0
M  V30 5512 H 512.429 1.23901 4.05493 0
M  V30 5513 C 510.888 -0.0790099 3.36807 0
M  V30 5514 O 511.418 -1.05385 3.8763 0
M  V30 5515 N 509.624 -0.13785 2.90273 0
M  V30 5516 H 509.171 0.656128 2.49104 0
M  V30 5517 H 509.129 -1.00228 2.97996 0
M  V30 5518 N 512.901 -0.976442 1.23707 0
M  V30 5519 C 514.148 -1.71827 1.07153 0
M  V30 5520 C 514.476 -1.9053 -0.390982 0
M  V30 5521 O 513.731 -1.45779 -1.30564 0
M  V30 5522 C 514.03 -3.11814 1.74662 0
M  V30 5523 C 513.696 -3.12978 3.24585 0
M  V30 5524 C 512.358 -3.13003 3.6549 0
M  V30 5525 C 514.71 -3.07986 4.20469 0
M  V30 5526 C 512.038 -3.05757 5.00729 0
M  V30 5527 C 514.39 -3.02282 5.55705 0
M  V30 5528 C 513.054 -3.00631 5.95968 0
M  V30 5529 H 512.324 -0.628758 0.392102 0
M  V30 5530 H 514.971 -1.14239 1.53693 0
M  V30 5531 H 513.276 -3.72812 1.20492 0
M  V30 5532 H 514.973 -3.67989 1.59328 0
M  V30 5533 H 511.563 -3.13718 2.92026 0
M  V30 5534 H 515.747 -3.07103 3.89874 0
M  V30 5535 H 511.003 -3.02834 5.31132 0
M  V30 5536 H 515.177 -2.97376 6.29714 0
M  V30 5537 H 512.804 -2.94771 7.00724 0
M  V30 5538 N 514.379 -1.04941 -1.1758 0
M  V30 5539 C 515.309 -0.669172 -2.23706 0
M  V30 5540 C 516.29 0.331835 -1.66832 0
M  V30 5541 O 517.475 0.209988 -1.93061 0
M  V30 5542 C 514.605 -0.0404889 -3.47276 0
M  V30 5543 C 513.559 -0.965983 -4.16957 0
M  V30 5544 C 512.885 -0.201312 -5.34321 0
M  V30 5545 C 514.185 -2.28902 -4.69469 0
M  V30 5546 H 515.879 -1.55639 -2.55767 0
M  V30 5547 H 513.425 -0.749793 -1.22939 0
M  V30 5548 H 515.378 0.237298 -4.20731 0
M  V30 5549 H 514.102 0.881658 -3.14475 0
M  V30 5550 H 512.761 -1.22829 -3.45411 0
M  V30 5551 H 512.409 0.723519 -4.97769 0
M  V30 5552 H 512.109 -0.817968 -5.81879 0
M  V30 5553 H 513.633 0.0692499 -6.10561 0
M  V30 5554 H 515.047 -2.07132 -5.34574 0
M  V30 5555 H 513.444 -2.85942 -5.27596 0
M  V30 5556 H 514.514 -2.92937 -3.86414 0
M  V30 5557 N 515.857 1.33968 -0.830081 0
M  V30 5558 C 517.103 1.98357 -0.422191 0
M  V30 5559 C 517.436 1.65633 1.01387 0
M  V30 5560 O 516.711 0.931648 1.70735 0
M  V30 5561 C 516.994 3.54492 -0.633043 0
M  V30 5562 C 516.847 3.96934 -2.11574 0
M  V30 5563 C 518.166 4.40039 -0.0735584 0
M  V30 5564 H 515.285 0.720544 -0.154871 0
M  V30 5565 H 517.927 1.58749 -1.04397 0
M  V30 5566 H 516.077 3.88361 -0.103775 0
M  V30 5567 H 517.749 3.73363 -2.7092 0
M  V30 5568 H 515.992 3.46984 -2.60354 0
M  V30 5569 H 516.663 5.05651 -2.21406 0
M  V30 5570 H 519.139 4.12764 -0.52585 0
M  V30 5571 H 518.015 5.48327 -0.250841 0
M  V30 5572 H 518.276 4.30124 1.02202 0
M  V30 5573 N 517.335 0.585699 1.46312 0
M  V30 5574 C 518.265 -0.133556 2.33118 0
M  V30 5575 C 519.246 -0.880707 1.45525 0
M  V30 5576 O 520.431 -0.855579 1.74337 0
M  V30 5577 C 517.561 -1.14585 3.27853 0
M  V30 5578 C 516.515 -0.513341 4.2491 0
M  V30 5579 C 515.841 -1.63231 5.09175 0
M  V30 5580 C 517.141 0.551413 5.19381 0
M  V30 5581 H 518.835 0.59121 2.93505 0
M  V30 5582 H 516.381 0.285761 1.41136 0
M  V30 5583 H 518.334 -1.65741 3.87438 0
M  V30 5584 H 517.058 -1.90093 2.65579 0
M  V30 5585 H 515.717 -0.0228349 3.66593 0
M  V30 5586 H 515.365 -2.37713 4.43285 0
M  V30 5587 H 515.065 -1.21473 5.74907 0
M  V30 5588 H 516.589 -2.14658 5.71624 0
M  V30 5589 H 518.003 0.124804 5.73164 0
M  V30 5590 H 516.4 0.889486 5.93471 0
M  V30 5591 H 517.47 1.43655 4.63132 0
M  V30 5592 N 518.813 -1.54241 0.323641 0
M  V30 5593 C 520.053 -2.0248 -0.279502 0
M  V30 5594 C 520.417 -1.20672 -1.49339 0
M  V30 5595 O 521.618 -1.58715 -2.1694 0
M  V30 5596 C 519.889 -3.52238 -0.605266 0
M  V30 5597 S 521.448 -4.22411 -1.18805 0
M  V30 5598 H 518.266 -0.705957 -0.0845313 0
M  V30 5599 H 520.868 -1.90089 0.456781 0
M  V30 5600 H 519.572 -4.094 0.286339 0
M  V30 5601 H 519.103 -3.6871 -1.37174 0
M  V30 5602 H 521.118 -4.30075 -2.47487 0
M  V30 5603 N 520.291 -0.0518155 -1.57515 0
M  V30 5604 C 521.521 0.63048 -1.96745 0
M  V30 5605 C 521.929 1.64875 -0.928054 0
M  V30 5606 O 521.272 1.83449 0.0960678 0
M  V30 5607 C 521.334 1.37381 -3.32215 0
M  V30 5608 C 520.998 0.511298 -4.54131 0
M  V30 5609 C 521.995 -0.222884 -5.19422 0
M  V30 5610 C 519.68 0.442035 -5.00351 0
M  V30 5611 C 521.674 -1.01476 -6.2927 0
M  V30 5612 C 519.361 -0.35353 -6.10077 0
M  V30 5613 C 520.359 -1.08062 -6.74397 0
M  V30 5614 O 520.047 -1.8631 -7.82013 0
M  V30 5615 H 519.779 0.177126 -0.652382 0
M  V30 5616 H 522.333 -0.114726 -2.05079 0
M  V30 5617 H 520.563 2.16466 -3.20436 0
M  V30 5618 H 522.252 1.9464 -3.56188 0
M  V30 5619 H 523.018 -0.178846 -4.8467 0
M  V30 5620 H 518.897 0.997562 -4.50077 0
M  V30 5621 H 522.441 -1.58279 -6.79407 0
M  V30 5622 H 518.338 -0.399205 -6.44264 0
M  V30 5623 H 519.106 -1.78528 -7.98793 0
M  V30 5624 N 521.769 1.56035 0.221574 0
M  V30 5625 C 522.699 1.95434 1.2778 0
M  V30 5626 C 523.68 0.822564 1.48889 0
M  V30 5627 O 524.865 1.08486 1.61072 0
M  V30 5628 C 521.995 2.27102 2.62759 0
M  V30 5629 C 520.949 3.4277 2.56306 0
M  V30 5630 C 520.275 3.60043 3.95314 0
M  V30 5631 C 521.575 4.77742 2.11093 0
M  V30 5632 H 523.269 2.83912 0.950504 0
M  V30 5633 H 520.815 1.36596 0.455791 0
M  V30 5634 H 522.768 2.53256 3.36807 0
M  V30 5635 H 521.492 1.35478 2.97176 0
M  V30 5636 H 520.151 3.16664 1.84715 0
M  V30 5637 H 519.799 2.65794 4.27039 0
M  V30 5638 H 519.499 4.37841 3.91879 0
M  V30 5639 H 521.023 3.88545 4.71025 0
M  V30 5640 H 522.437 5.03102 2.74885 0
M  V30 5641 H 520.834 5.58823 2.18716 0
M  V30 5642 H 521.904 4.731 1.06321 0
M  V30 5643 N 523.247 -0.488276 1.49845 0
M  V30 5644 C 524.197 -1.58556 1.63842 0
M  V30 5645 C 525.181 -1.53142 0.493586 0
M  V30 5646 O 526.373 -1.60457 0.747169 0
M  V30 5647 C 523.502 -2.97101 1.72005 0
M  V30 5648 C 522.588 -3.07463 2.92108 0
M  V30 5649 N 522.979 -2.87681 4.16021 0
M  V30 5650 C 521.277 -3.3858 2.90309 0
M  V30 5651 C 521.978 -3.0256 4.96822 0
M  V30 5652 N 520.954 -3.32002 4.30437 0
M  V30 5653 H 524.756 -1.41935 2.57355 0
M  V30 5654 H 522.27 -0.694668 1.46793 0
M  V30 5655 H 524.267 -3.75976 1.80132 0
M  V30 5656 H 522.927 -3.14782 0.796375 0
M  V30 5657 H 523.938 -2.63603 4.45796 0
M  V30 5658 H 520.615 -3.62357 2.07372 0
M  V30 5659 H 522.005 -2.9165 6.05301 0
M  V30 5660 N 524.725 -1.39134 -0.740242 0
M  V30 5661 C 526.002 -1.26584 -1.49117 0
M  V30 5662 C 526.382 0.126902 -2.10718 0
M  V30 5663 O 525.73 1.13765 -1.98166 0
M  V30 5664 C 525.94 -2.38619 -2.54681 0
M  V30 5665 C 527.288 -2.77685 -3.21211 0
M  V30 5666 O 528.312 -2.38029 -2.64991 0
M  V30 5667 O 527.171 -3.46115 -4.22926 0
M  V30 5668 H 524.265 -0.495769 -0.661923 0
M  V30 5669 H 526.811 -1.50995 -0.774514 0
M  V30 5670 H 525.583 -3.3175 -2.07504 0
M  V30 5671 H 525.206 -2.15845 -3.33911 0
M  V30 5672 N 526.204 0.969867 -1.24223 0
M  V30 5673 C 527.45 1.7151 -1.08223 0
M  V30 5674 C 527.783 1.90478 0.37838 0
M  V30 5675 O 527.058 1.4647 1.27971 0
M  V30 5676 C 527.341 3.10714 -1.82013 0
M  V30 5677 C 527.194 2.9925 -3.35811 0
M  V30 5678 C 528.513 4.10332 -1.59108 0
M  V30 5679 H 525.632 0.622499 -0.394543 0
M  V30 5680 H 528.274 1.1284 -1.52863 0
M  V30 5681 H 526.424 3.608 -1.44068 0
M  V30 5682 H 528.096 2.56608 -3.83341 0
M  V30 5683 H 526.339 2.35512 -3.64303 0
M  V30 5684 H 527.01 3.97857 -3.82641 0
M  V30 5685 H 529.486 3.69097 -1.92111 0
M  V30 5686 H 528.362 5.05804 -2.13198 0
M  V30 5687 H 528.623 4.38926 -0.528832 0
M  V30 5688 N 527.682 1.05563 1.17022 0
M  V30 5689 C 528.629 0.659893 2.21165 0
M  V30 5690 C 529.599 -0.339813 1.62587 0
M  V30 5691 O 530.784 -0.230378 1.89404 0
M  V30 5692 C 527.924 0.0447297 3.45071 0
M  V30 5693 C 527.037 1.09372 4.17926 0
M  V30 5694 C 526.172 0.445481 5.29329 0
M  V30 5695 C 525.211 1.47852 5.93975 0
M  V30 5696 N 524.348 0.854172 6.96885 0
M  V30 5697 H 529.188 1.55243 2.54369 0
M  V30 5698 H 526.725 0.776336 1.24946 0
M  V30 5699 H 528.683 -0.329404 4.15898 0
M  V30 5700 H 527.313 -0.811244 3.1244 0
M  V30 5701 H 526.365 1.58564 3.45777 0
M  V30 5702 H 527.677 1.87773 4.62107 0
M  V30 5703 H 526.831 0.0179688 6.06697 0
M  V30 5704 H 525.57 -0.370481 4.86291 0
M  V30 5705 H 524.575 1.91601 5.15334 0
M  V30 5706 H 525.8 2.29645 6.39093 0
M  V30 5707 H 523.746 0.0587882 6.55974 0
M  V30 5708 H 523.663 1.57567 7.39397 0
M  V30 5709 H 524.931 0.451559 7.78191 0
M  V30 5710 N 529.16 -1.33526 0.837174 0
M  V30 5711 C 530.108 -2.31168 0.257698 0
M  V30 5712 C 531.102 -1.5806 -0.609388 0
M  V30 5713 O 532.308 -1.72941 -0.499139 0
M  V30 5714 H 528.683 -0.74922 0.0646058 0
M  V30 5715 H 530.654 -2.77552 1.09578 0
M  V30 5716 C 529.403 -3.4326 -0.553887 0
M  V30 5717 H 528.726 -3.99665 0.104008 0
M  V30 5718 H 530.166 -4.13782 -0.925219 0
M  V30 5719 C 528.625 -2.88965 -1.73207 0
M  V30 5720 O 529.155 -2.85013 -2.83073 0
M  V30 5721 N 527.361 -2.45596 -1.55342 0
M  V30 5722 H 526.908 -2.49009 -0.659705 0
M  V30 5723 H 526.866 -2.0962 -2.34322 0
M  V30 5724 N 530.638 -0.59345 -1.46 0
M  V30 5725 C 531.887 -0.0808084 -2.01538 0
M  V30 5726 C 532.2 1.29112 -1.46934 0
M  V30 5727 O 533.406 1.8957 -1.94359 0
M  V30 5728 C 531.862 -0.0938311 -3.59778 0
M  V30 5729 C 531.47 -1.46474 -4.23379 0
M  V30 5730 C 533.214 0.364306 -4.22934 0
M  V30 5731 C 531.121 -1.4349 -5.73729 0
M  V30 5732 H 530.051 -0.0264407 -0.753536 0
M  V30 5733 H 532.702 -0.746689 -1.67621 0
M  V30 5734 H 531.084 0.638427 -3.9082 0
M  V30 5735 H 532.258 -2.21758 -4.03931 0
M  V30 5736 H 530.573 -1.86379 -3.7236 0
M  V30 5737 H 533.17 0.405584 -5.3316 0
M  V30 5738 H 533.513 1.38409 -3.92618 0
M  V30 5739 H 534.046 -0.31423 -3.96557 0
M  V30 5740 H 530.785 -2.43184 -6.08722 0
M  V30 5741 H 530.305 -0.724431 -5.95409 0
M  V30 5742 H 531.984 -1.15243 -6.36654 0
M  V30 5743 N 532.116 1.54067 -0.331816 0
M  V30 5744 C 533.046 2.27569 0.522932 0
M  V30 5745 C 534.027 1.28679 1.11247 0
M  V30 5746 O 535.212 1.57504 1.13605 0
M  V30 5747 C 532.342 3.0397 1.67987 0
M  V30 5748 C 531.296 4.10267 1.21924 0
M  V30 5749 C 530.622 4.74555 2.46377 0
M  V30 5750 C 531.922 5.21268 0.32815 0
M  V30 5751 H 533.616 2.99264 -0.0901977 0
M  V30 5752 H 531.162 1.4393 -0.044821 0
M  V30 5753 H 533.115 3.54123 2.28418 0
M  V30 5754 H 531.839 2.29906 2.31971 0
M  V30 5755 H 530.498 3.61009 0.637809 0
M  V30 5756 H 530.146 3.97098 3.08743 0
M  V30 5757 H 529.846 5.46363 2.16243 0
M  V30 5758 H 531.37 5.27487 3.07555 0
M  V30 5759 H 532.784 5.67128 0.838978 0
M  V30 5760 H 531.181 5.99982 0.119228 0
M  V30 5761 H 532.251 4.80673 -0.638839 0
M  V30 5762 N 533.594 0.0601682 1.57485 0
M  V30 5763 C 534.526 -0.94047 2.09016 0
M  V30 5764 C 535.539 -1.26897 1.01985 0
M  V30 5765 O 536.728 -1.22819 1.29529 0
M  V30 5766 C 533.828 -2.25955 2.52582 0
M  V30 5767 C 533.001 -2.11163 3.83052 0
M  V30 5768 C 532.06 -3.26273 4.12835 0
M  V30 5769 O 531.086 -3.01779 4.82616 0
M  V30 5770 N 532.288 -4.51022 3.65458 0
M  V30 5771 H 535.053 -0.500578 2.9549 0
M  V30 5772 H 532.614 -0.125852 1.6141 0
M  V30 5773 H 534.606 -3.01846 2.69575 0
M  V30 5774 H 533.176 -2.61481 1.71308 0
M  V30 5775 H 532.396 -1.19808 3.75552 0
M  V30 5776 H 533.684 -1.98517 4.68475 0
M  V30 5777 H 533.082 -4.73811 3.09062 0
M  V30 5778 H 531.639 -5.23978 3.87673 0
M  V30 5779 N 535.072 -1.5615 -0.213296 0
M  V30 5780 C 536.002 -1.96109 -1.26742 0
M  V30 5781 C 536.983 -0.830448 -1.48451 0
M  V30 5782 O 538.168 -1.09339 -1.60495 0
M  V30 5783 C 535.298 -2.28492 -2.61551 0
M  V30 5784 C 534.252 -3.44124 -2.54485 0
M  V30 5785 C 533.578 -3.62134 -3.93399 0
M  V30 5786 C 534.878 -4.78855 -2.08556 0
M  V30 5787 H 536.572 -2.84412 -0.935434 0
M  V30 5788 H 534.118 -1.36836 -0.44854 0
M  V30 5789 H 536.071 -2.55039 -3.3546 0
M  V30 5790 H 534.795 -1.37052 -2.96453 0
M  V30 5791 H 533.454 -3.17639 -1.83033 0
M  V30 5792 H 533.102 -2.68055 -4.25623 0
M  V30 5793 H 532.802 -4.39913 -3.89551 0
M  V30 5794 H 534.326 -3.91038 -4.68958 0
M  V30 5795 H 535.74 -5.04552 -2.72213 0
M  V30 5796 H 534.137 -5.59975 -2.1575 0
M  V30 5797 H 535.207 -4.73657 -1.03811 0
M  V30 5798 N 536.55 0.480323 -1.50102 0
M  V30 5799 C 537.5 1.57685 -1.6468 0
M  V30 5800 C 538.484 1.52878 -0.5017 0
M  V30 5801 O 539.676 1.60058 -0.755668 0
M  V30 5802 C 536.805 2.96185 -1.73578 0
M  V30 5803 C 535.891 3.0591 -2.93734 0
M  V30 5804 N 536.282 2.85471 -4.1754 0
M  V30 5805 C 534.58 3.37036 -2.92101 0
M  V30 5806 C 535.281 2.99921 -4.9842 0
M  V30 5807 N 534.257 3.29715 -4.32191 0
M  V30 5808 H 538.059 1.40568 -2.58104 0
M  V30 5809 H 535.573 0.686874 -1.47159 0
M  V30 5810 H 537.57 3.75015 -1.82124 0
M  V30 5811 H 536.23 3.14356 -0.813057 0
M  V30 5812 H 537.241 2.61235 -4.47188 0
M  V30 5813 H 533.918 3.61253 -2.09291 0
M  V30 5814 H 535.308 2.88436 -6.06839 0
M  V30 5815 N 538.028 1.39524 0.732853 0
M  V30 5816 C 539.305 1.27373 1.48444 0
M  V30 5817 C 539.685 -0.115725 2.10783 0
M  V30 5818 O 539.033 -1.12713 1.98766 0
M  V30 5819 C 539.243 2.39966 2.53412 0
M  V30 5820 C 540.591 2.79384 3.19733 0
M  V30 5821 O 541.615 2.39431 2.63725 0
M  V30 5822 O 540.474 3.48353 4.21085 0
M  V30 5823 H 537.568 0.499272 0.659285 0
M  V30 5824 H 540.114 1.51403 0.766496 0
M  V30 5825 H 538.886 3.32845 2.05742 0
M  V30 5826 H 538.509 2.17612 3.32762 0
M  V30 5827 N 539.506 -0.963266 1.24736 0
M  V30 5828 C 540.436 -2.07628 1.06832 0
M  V30 5829 C 541.417 -1.70088 -0.0200566 0
M  V30 5830 O 542.602 -1.93636 0.147854 0
M  V30 5831 C 539.732 -3.40636 0.677069 0
M  V30 5832 C 538.686 -3.9215 1.71471 0
M  V30 5833 C 538.012 -5.21553 1.1784 0
M  V30 5834 C 539.312 -4.19493 3.11164 0
M  V30 5835 H 541.006 -2.22864 1.9993 0
M  V30 5836 H 538.552 -1.07093 0.96266 0
M  V30 5837 H 540.505 -4.17941 0.538792 0
M  V30 5838 H 539.229 -3.25313 -0.289612 0
M  V30 5839 H 537.888 -3.17005 1.84128 0
M  V30 5840 H 537.536 -5.02593 0.202195 0
M  V30 5841 H 537.236 -5.56988 1.87185 0
M  V30 5842 H 538.76 -6.01463 1.05233 0
M  V30 5843 H 540.174 -4.87487 3.01711 0
M  V30 5844 H 538.571 -4.66165 3.77902 0
M  V30 5845 H 539.641 -3.26097 3.58871 0
M  V30 5846 N 540.985 -1.06182 -1.16461 0
M  V30 5847 C 542.213 -0.798583 -1.90867 0
M  V30 5848 C 542.628 0.646921 -1.77371 0
M  V30 5849 O 541.985 1.44279 -1.11758 0
M  V30 5850 C 542.036 -1.18258 -3.4161 0
M  V30 5851 O 541.757 -2.57135 -3.54701 0
M  V30 5852 C 543.258 -0.946917 -4.33069 0
M  V30 5853 H 540.478 -0.289603 -0.605286 0
M  V30 5854 H 543.022 -1.41515 -1.47627 0
M  V30 5855 H 541.177 -0.610562 -3.82558 0
M  V30 5856 H 541.591 -2.72477 -4.4817 0
M  V30 5857 H 543.065 -1.26523 -5.37304 0
M  V30 5858 H 543.542 0.117406 -4.39043 0
M  V30 5859 H 544.148 -1.50326 -3.97847 0
M  V30 5860 N 542.463 1.3308 -0.844243 0
M  V30 5861 C 543.691 2.01808 -0.456203 0
M  V30 5862 C 544.106 1.63498 0.944131 0
M  V30 5863 O 543.463 0.85102 1.61443 0
M  V30 5864 C 543.514 3.56922 -0.573513 0
M  V30 5865 O 543.235 3.93851 -1.91868 0
M  V30 5866 C 544.736 4.42922 -0.183125 0
M  V30 5867 H 541.956 0.646273 -0.180477 0
M  V30 5868 H 544.5 1.69891 -1.1383 0
M  V30 5869 H 542.655 3.87352 0.0607367 0
M  V30 5870 H 543.069 4.88564 -1.90802 0
M  V30 5871 H 544.543 5.51093 -0.316241 0
M  V30 5872 H 545.02 4.30386 0.875477 0
M  V30 5873 H 545.626 4.1786 -0.792027 0
M  V30 5874 N 543.941 0.601185 1.45683 0
M  V30 5875 C 545.189 0.0936957 2.01883 0
M  V30 5876 C 545.51 -1.2779 1.47291 0
M  V30 5877 O 544.78 -1.84279 0.664691 0
M  V30 5878 H 543.36 0.0316466 0.746329 0
M  V30 5879 H 546.022 0.781137 1.78562 0
M  V30 5880 H 545.118 0.0386297 3.12076 0
M  V30 5881 N 545.419 -1.53889 0.339982 0
M  V30 5882 C 546.382 -2.23547 -0.50592 0
M  V30 5883 C 547.382 -1.23445 -1.03044 0
M  V30 5884 O 548.572 -1.47909 -0.920253 0
M  V30 5885 C 545.704 -2.95234 -1.7044 0
M  V30 5886 H 546.897 -2.99722 0.103247 0
M  V30 5887 H 544.45 -1.56033 0.0912804 0
M  V30 5888 H 545.185 -2.23236 -2.35236 0
M  V30 5889 H 544.97 -3.68654 -1.33553 0
M  V30 5890 H 546.46 -3.48258 -2.30447 0
M  V30 5891 N 546.897 -0.0685191 -1.57451 0
M  V30 5892 C 547.827 0.89747 -2.15564 0
M  V30 5893 C 548.808 1.31266 -1.08181 0
M  V30 5894 O 549.993 1.38429 -1.36202 0
M  V30 5895 C 547.123 2.16623 -2.71463 0
M  V30 5896 C 546.077 1.89054 -3.83982 0
M  V30 5897 C 545.403 3.22532 -4.26471 0
M  V30 5898 C 546.703 1.1984 -5.08366 0
M  V30 5899 H 548.397 0.413373 -2.96533 0
M  V30 5900 H 545.943 0.197391 -1.42641 0
M  V30 5901 H 547.896 2.84614 -3.10761 0
M  V30 5902 H 546.62 2.67269 -1.8771 0
M  V30 5903 H 545.279 1.23469 -3.45183 0
M  V30 5904 H 544.927 3.71013 -3.39644 0
M  V30 5905 H 544.627 3.04879 -5.02317 0
M  V30 5906 H 546.151 3.91727 -4.68383 0
M  V30 5907 H 547.565 1.77896 -5.45001 0
M  V30 5908 H 545.962 1.12456 -5.89469 0
M  V30 5909 H 547.032 0.176996 -4.84577 0
M  V30 5910 N 548.375 1.56261 0.205012 0
M  V30 5911 C 549.305 1.96779 1.257 0
M  V30 5912 C 550.286 0.838309 1.48008 0
M  V30 5913 O 551.471 1.10189 1.59913 0
M  V30 5914 C 548.601 2.29876 2.60335 0
M  V30 5915 C 547.555 3.45469 2.52656 0
M  V30 5916 C 546.881 3.64215 3.91473 0
M  V30 5917 C 548.181 4.79954 2.06014 0
M  V30 5918 H 549.875 2.84904 0.920338 0
M  V30 5919 H 547.421 1.37072 0.441277 0
M  V30 5920 H 549.374 2.56814 3.34102 0
M  V30 5921 H 548.098 1.38622 2.95722 0
M  V30 5922 H 546.757 3.18605 1.81345 0
M  V30 5923 H 546.405 2.70309 4.24196 0
M  V30 5924 H 546.105 4.41973 3.87213 0
M  V30 5925 H 547.629 3.93519 4.66878 0
M  V30 5926 H 549.043 5.05989 2.69533 0
M  V30 5927 H 547.44 5.61111 2.12777 0
M  V30 5928 H 548.51 4.74201 1.01297 0
M  V30 5929 N 549.853 -0.472356 1.50355 0
M  V30 5930 C 550.8 -1.57051 1.69126 0
M  V30 5931 C 551.77 -1.5733 0.532574 0
M  V30 5932 O 552.955 -1.7488 0.762994 0
M  V30 5933 C 550.095 -2.95033 1.79024 0
M  V30 5934 C 549.208 -3.04552 3.06386 0
M  V30 5935 C 548.343 -4.33441 3.07087 0
M  V30 5936 C 547.382 -4.36697 4.28908 0
M  V30 5937 N 546.519 -5.57056 4.27356 0
M  V30 5938 H 551.359 -1.40351 2.62879 0
M  V30 5939 H 548.896 -0.682403 1.30314 0
M  V30 5940 H 550.854 -3.75048 1.82744 0
M  V30 5941 H 549.484 -3.10371 0.887109 0
M  V30 5942 H 548.536 -2.17419 3.12143 0
M  V30 5943 H 549.848 -3.02818 3.96362 0
M  V30 5944 H 549.002 -5.21801 3.09529 0
M  V30 5945 H 547.741 -4.37782 2.14939 0
M  V30 5946 H 546.746 -3.46734 4.2668 0
M  V30 5947 H 547.971 -4.34049 5.22282 0
M  V30 5948 H 545.917 -5.62184 3.3806 0
M  V30 5949 H 545.834 -5.57058 5.111 0
M  V30 5950 H 547.102 -6.47545 4.33942 0
M  V30 5951 N 551.331 -1.39911 -0.725443 0
M  V30 5952 C 552.559 -1.40949 -1.51463 0
M  V30 5953 C 552.974 -0.0065242 -1.88799 0
M  V30 5954 O 552.331 0.967163 -1.54765 0
M  V30 5955 C 552.382 -2.29119 -2.79619 0
M  V30 5956 O 552.103 -3.63952 -2.43866 0
M  V30 5957 C 553.604 -2.38642 -3.73584 0
M  V30 5958 H 550.824 -0.481091 -0.467752 0
M  V30 5959 H 553.368 -1.83843 -0.895651 0
M  V30 5960 H 551.523 -1.89612 -3.37826 0
M  V30 5961 H 551.937 -4.10677 -3.26258 0
M  V30 5962 H 553.411 -3.04563 -4.60375 0
M  V30 5963 H 553.888 -1.40846 -4.16004 0
M  V30 5964 H 554.494 -2.78659 -3.21293 0
M  V30 5965 N 552.809 0.956637 -1.25245 0
M  V30 5966 C 554.056 1.701 -1.09874 0
M  V30 5967 C 554.384 1.91128 0.36062 0
M  V30 5968 O 553.639 1.47837 1.28229 0
M  V30 5969 C 553.938 3.08996 -1.79601 0
M  V30 5970 C 553.604 3.07774 -3.29523 0
M  V30 5971 C 552.266 3.07149 -3.70423 0
M  V30 5972 C 554.618 3.01257 -4.25316 0
M  V30 5973 C 551.946 2.97752 -5.0553 0
M  V30 5974 C 554.298 2.93403 -5.60444 0
M  V30 5975 C 552.962 2.91111 -6.00675 0
M  V30 5976 H 552.232 0.62244 -0.402056 0
M  V30 5977 H 554.879 1.1178 -1.55491 0
M  V30 5978 H 553.184 3.70848 -1.26408 0
M  V30 5979 H 554.881 3.65407 -1.65162 0
M  V30 5980 H 551.471 3.09032 -2.9698 0
M  V30 5981 H 555.655 3.00861 -3.9471 0
M  V30 5982 H 550.911 2.94346 -5.35883 0
M  V30 5983 H 555.085 2.87321 -6.34366 0
M  V30 5984 H 552.712 2.83586 -7.05325 0
M  V30 5985 N 554.287 1.06798 1.15896 0
M  V30 5986 C 555.698 0.811355 1.68149 0
M  V30 5987 C 556.049 -0.664339 1.8461 0
M  V30 5988 O 555.174 -1.51485 1.54535 0
M  V30 5989 C 555.769 1.46624 3.05429 0
M  V30 5990 C 554.328 1.25726 3.54781 0
M  V30 5991 C 553.475 1.53949 2.3064 0
M  V30 5992 H 556.426 1.23078 1.00187 0
M  V30 5993 H 556.447 0.88437 3.7008 0
M  V30 5994 H 555.959 2.54025 2.93416 0
M  V30 5995 H 554.06 0.20322 3.72045 0
M  V30 5996 H 554.173 1.97354 4.36564 0
M  V30 5997 H 552.537 0.96025 2.35905 0
M  V30 5998 H 553.32 2.6252 2.2122 0
M  V30 5999 N 555.766 -1.3263 0.851289 0
M  V30 6000 C 556.696 -2.31449 0.308771 0
M  V30 6001 C 557.677 -1.59531 -0.590255 0
M  V30 6002 O 558.862 -1.87351 -0.511205 0
M  V30 6003 C 555.992 -3.43586 -0.506548 0
M  V30 6004 C 554.946 -4.26963 0.297753 0
M  V30 6005 C 554.272 -5.30831 -0.642094 0
M  V30 6006 C 555.572 -4.99643 1.52166 0
M  V30 6007 H 557.266 -2.77074 1.13447 0
M  V30 6008 H 554.812 -1.33207 0.546971 0
M  V30 6009 H 556.765 -4.11754 -0.896474 0
M  V30 6010 H 555.489 -2.96681 -1.36558 0
M  V30 6011 H 554.148 -3.60437 0.669391 0
M  V30 6012 H 553.796 -4.8018 -1.49788 0
M  V30 6013 H 553.496 -5.87501 -0.107968 0
M  V30 6014 H 555.02 -6.01862 -1.02927 0
M  V30 6015 H 556.434 -5.6051 1.20421 0
M  V30 6016 H 554.831 -5.66022 1.99347 0
M  V30 6017 H 555.901 -4.27701 2.28474 0
M  V30 6018 N 557.244 -0.608902 -1.45362 0
M  V30 6019 C 558.521 -0.0365378 -1.95566 0
M  V30 6020 C 558.901 1.43169 -1.55131 0
M  V30 6021 O 558.249 2.1349 -0.814513 0
M  V30 6022 C 558.459 -0.236026 -3.48201 0
M  V30 6023 C 559.807 -0.117518 -4.24437 0
M  V30 6024 O 560.831 -0.166217 -3.55812 0
M  V30 6025 O 559.69 -0.00372127 -5.465 0
M  V30 6026 H 556.784 0.0349874 -0.82626 0
M  V30 6027 H 559.33 -0.679055 -1.55521 0
M  V30 6028 H 558.102 -1.25569 -3.70605 0
M  V30 6029 H 557.725 0.441691 -3.95139 0
M  V30 6030 N 558.722 1.53707 -0.348139 0
M  V30 6031 C 559.968 2.01286 0.247332 0
M  V30 6032 C 560.301 1.23546 1.49834 0
M  V30 6033 O 559.576 0.324331 1.91777 0
M  V30 6034 C 559.859 3.55768 0.556858 0
M  V30 6035 C 559.712 4.44216 -0.706564 0
M  V30 6036 C 561.031 4.1841 1.3646 0
M  V30 6037 H 558.15 0.731677 0.0884201 0
M  V30 6038 H 560.792 1.84106 -0.469584 0
M  V30 6039 H 558.942 3.70539 1.16761 0
M  V30 6040 H 560.614 4.41274 -1.34444 0
M  V30 6041 H 558.857 4.12892 -1.33052 0
M  V30 6042 H 559.528 5.50202 -0.445186 0
M  V30 6043 H 562.004 4.07365 0.848113 0
M  V30 6044 H 560.88 5.26563 1.54992 0
M  V30 6045 H 561.141 3.7333 2.36805 0
M  V30 6046 N 560.2 0.0768682 1.57412 0
M  V30 6047 C 561.448 -0.589918 1.93299 0
M  V30 6048 C 561.769 -1.69842 0.958049 0
M  V30 6049 O 561.039 -1.95899 0.00703261 0
M  V30 6050 H 559.619 -0.220901 0.713591 0
M  V30 6051 H 562.281 0.135917 1.94425 0
M  V30 6052 H 561.377 -1.01195 2.95239 0
M  V30 6053 N 561.678 -1.56367 -0.196722 0
M  V30 6054 C 562.903 -1.84991 -0.937714 0
M  V30 6055 C 563.328 -0.660244 -1.76132 0
M  V30 6056 O 562.686 0.390967 -1.77034 0
M  V30 6057 C 562.734 -3.11828 -1.81096 0
M  V30 6058 O 561.838 -2.92266 -2.90955 0
M  V30 6059 H 561.179 -0.609193 -0.264159 0
M  V30 6060 H 563.709 -2.03595 -0.202529 0
M  V30 6061 H 563.719 -3.42579 -2.21594 0
M  V30 6062 H 562.394 -3.98037 -1.2058 0
M  V30 6063 H 560.971 -2.72809 -2.54224 0
M  V30 6064 N 563.156 0.464375 -1.50603 0
M  V30 6065 C 564.405 1.21277 -1.61167 0
M  V30 6066 C 564.718 1.92953 -0.320704 0
M  V30 6067 O 565.924 2.69778 -0.30534 0
M  V30 6068 C 564.38 2.20403 -2.84518 0
M  V30 6069 C 563.988 1.54499 -4.20516 0
M  V30 6070 C 565.732 2.95843 -3.0443 0
M  V30 6071 C 563.639 2.51951 -5.35047 0
M  V30 6072 H 562.569 0.456367 -0.600204 0
M  V30 6073 H 565.22 0.48254 -1.77042 0
M  V30 6074 H 563.602 2.96746 -2.62217 0
M  V30 6075 H 564.776 0.83899 -4.53098 0
M  V30 6076 H 563.091 0.913152 -4.06264 0
M  V30 6077 H 565.688 3.6879 -3.87167 0
M  V30 6078 H 566.031 3.55622 -2.16423 0
M  V30 6079 H 566.564 2.26611 -3.26944 0
M  V30 6080 H 563.303 1.96901 -6.25228 0
M  V30 6081 H 562.823 3.20683 -5.06875 0
M  V30 6082 H 564.502 3.13643 -5.65895 0
M  V30 6083 N 564.634 1.40294 0.718013 0
M  V30 6084 C 565.88 1.38645 1.48005 0
M  V30 6085 C 566.213 -0.0121202 1.94196 0
M  V30 6086 O 565.488 -0.980309 1.67989 0
M  V30 6087 C 565.771 2.37379 2.70782 0
M  V30 6088 C 565.624 3.8625 2.30501 0
M  V30 6089 C 566.943 2.33685 3.72933 0
M  V30 6090 H 564.062 0.504928 0.536858 0
M  V30 6091 H 566.704 1.71411 0.819649 0
M  V30 6092 H 564.854 2.09568 3.27129 0
M  V30 6093 H 566.526 4.24879 1.79655 0
M  V30 6094 H 564.769 4.02202 1.6253 0
M  V30 6095 H 565.44 4.50847 3.18498 0
M  V30 6096 H 567.916 2.58314 3.2621 0
M  V30 6097 H 566.792 3.0482 4.56482 0
M  V30 6098 H 567.053 1.34765 4.21059 0
M  V30 6099 N 566.112 -0.949982 1.2575 0
M  V30 6100 C 567.36 -1.6918 1.10555 0
M  V30 6101 C 567.681 -1.91773 -0.353298 0
M  V30 6102 O 566.951 -1.50814 -1.25027 0
M  V30 6103 H 565.531 -0.626952 0.406129 0
M  V30 6104 H 568.193 -1.1419 1.57945 0
M  V30 6105 H 567.289 -2.66915 1.61749 0
M  V30 6106 N 567.59 -1.07411 -1.15328 0
M  V30 6107 C 568.82 -0.817595 -1.89734 0
M  V30 6108 C 569.228 0.63297 -1.78298 0
M  V30 6109 O 568.571 1.44594 -1.13306 0
M  V30 6110 C 568.633 -1.14748 -3.40695 0
M  V30 6111 C 568.297 -2.59876 -3.75917 0
M  V30 6112 C 569.294 -3.58122 -3.76888 0
M  V30 6113 C 566.979 -2.95469 -4.06206 0
M  V30 6114 C 568.973 -4.89996 -4.07655 0
M  V30 6115 C 566.66 -4.2754 -4.36638 0
M  V30 6116 C 567.658 -5.24614 -4.37344 0
M  V30 6117 O 567.346 -6.54312 -4.67045 0
M  V30 6118 H 567.078 -0.295175 -0.608151 0
M  V30 6119 H 569.632 -1.43409 -1.47048 0
M  V30 6120 H 567.862 -0.47395 -3.83785 0
M  V30 6121 H 569.551 -0.873397 -3.96392 0
M  V30 6122 H 570.317 -3.31966 -3.53587 0
M  V30 6123 H 566.196 -2.20558 -4.04815 0
M  V30 6124 H 569.74 -5.65759 -4.08121 0
M  V30 6125 H 565.637 -4.53449 -4.59407 0
M  V30 6126 H 566.405 -6.59473 -4.84807 0
M  V30 6127 N 569.068 1.32177 -0.85831 0
M  V30 6128 C 570.293 2.01847 -0.476718 0
M  V30 6129 C 570.718 1.64065 0.920021 0
M  V30 6130 O 570.076 0.843189 1.60499 0
M  V30 6131 C 570.124 3.55097 -0.627578 0
M  V30 6132 O 569.228 4.11012 0.338086 0
M  V30 6133 H 568.569 0.635907 -0.191099 0
M  V30 6134 H 571.099 1.68641 -1.15851 0
M  V30 6135 H 571.109 4.04718 -0.516476 0
M  V30 6136 H 569.784 3.81938 -1.64609 0
M  V30 6137 H 568.361 3.72451 0.182917 0
M  V30 6138 N 570.547 0.616602 1.45037 0
M  V30 6139 C 571.795 0.115103 2.01772 0
M  V30 6140 C 572.116 -1.2622 1.48639 0
M  V30 6141 O 571.386 -1.83563 0.684199 0
M  V30 6142 H 569.966 0.0395607 0.745952 0
M  V30 6143 H 572.628 0.800032 1.77723 0
M  V30 6144 H 571.724 0.0717274 3.12018 0
M  V30 6145 N 572.025 -1.5352 0.356285 0
M  V30 6146 C 572.957 -2.23009 -0.529127 0
M  V30 6147 C 573.97 -1.241 -1.05371 0
M  V30 6148 O 575.159 -1.50379 -0.961679 0
M  V30 6149 C 572.259 -2.90685 -1.74229 0
M  V30 6150 C 571.432 -4.16019 -1.35081 0
M  V30 6151 C 570.491 -4.66989 -2.42502 0
M  V30 6152 O 569.517 -5.30895 -2.05279 0
M  V30 6153 N 570.719 -4.44006 -3.7395 0
M  V30 6154 H 573.484 -2.99627 0.0660501 0
M  V30 6155 H 571.045 -1.60885 0.181014 0
M  V30 6156 H 573.037 -3.21695 -2.4555 0
M  V30 6157 H 571.607 -2.17575 -2.24454 0
M  V30 6158 H 570.827 -3.91414 -0.467833 0
M  V30 6159 H 572.115 -4.9752 -1.06542 0
M  V30 6160 H 571.513 -3.92924 -4.06973 0
M  V30 6161 H 570.07 -4.7959 -4.41403 0
M  V30 6162 N 573.503 -0.0852151 -1.57369 0
M  V30 6163 C 574.45 0.877268 -2.13478 0
M  V30 6164 C 575.42 1.28642 -1.05073 0
M  V30 6165 O 576.605 1.36992 -1.32808 0
M  V30 6166 C 573.745 2.13464 -2.71159 0
M  V30 6167 C 572.858 1.77691 -3.93764 0
M  V30 6168 C 571.993 2.98139 -4.39643 0
M  V30 6169 C 571.032 2.58447 -5.54862 0
M  V30 6170 N 570.169 3.71698 -5.95639 0
M  V30 6171 H 575.009 0.391933 -2.95411 0
M  V30 6172 H 572.546 0.181796 -1.45972 0
M  V30 6173 H 574.504 2.87086 -3.02717 0
M  V30 6174 H 573.134 2.59514 -1.91969 0
M  V30 6175 H 572.186 0.940768 -3.68583 0
M  V30 6176 H 573.498 1.44497 -4.77412 0
M  V30 6177 H 572.652 3.80026 -4.72933 0
M  V30 6178 H 571.391 3.34536 -3.54876 0
M  V30 6179 H 570.396 1.74984 -5.21211 0
M  V30 6180 H 571.621 2.23205 -6.41371 0
M  V30 6181 H 569.567 4.07831 -5.13819 0
M  V30 6182 H 569.484 3.42317 -6.74059 0
M  V30 6183 H 570.752 4.54123 -6.33555 0
M  V30 6184 N 574.981 1.5647 0.188427 0
M  V30 6185 C 575.928 1.95073 1.23349 0
M  V30 6186 C 576.898 0.812238 1.44886 0
M  V30 6187 O 578.083 1.07095 1.57909 0
M  V30 6188 C 575.223 2.30124 2.57171 0
M  V30 6189 C 574.336 3.57069 2.43157 0
M  V30 6190 C 573.471 3.81411 3.69729 0
M  V30 6191 C 572.51 5.0176 3.50575 0
M  V30 6192 N 571.647 5.22321 4.69175 0
M  V30 6193 H 576.487 2.84171 0.89728 0
M  V30 6194 H 574.024 1.40623 0.431683 0
M  V30 6195 H 575.982 2.48463 3.35145 0
M  V30 6196 H 574.612 1.44159 2.88822 0
M  V30 6197 H 573.664 3.4674 1.56447 0
M  V30 6198 H 574.976 4.452 2.24942 0
M  V30 6199 H 574.13 4.00026 4.56141 0
M  V30 6200 H 572.869 2.91624 3.90905 0
M  V30 6201 H 571.874 4.83061 2.62549 0
M  V30 6202 H 573.099 5.93063 3.30837 0
M  V30 6203 H 571.045 4.35483 4.90602 0
M  V30 6204 H 570.962 6.04643 4.53809 0
M  V30 6205 H 572.23 5.45401 5.56919 0
M  V30 6206 N 576.459 -0.456382 1.50847 0
M  V30 6207 C 577.736 -1.21739 1.53098 0
M  V30 6208 C 578.116 -2.09179 0.284132 0
M  V30 6209 O 577.464 -2.16466 -0.731773 0
M  V30 6210 C 577.674 -2.03573 2.83477 0
M  V30 6211 C 579.022 -2.61264 3.34703 0
M  V30 6212 O 580.046 -2.13802 2.84898 0
M  V30 6213 O 578.905 -3.47779 4.21559 0
M  V30 6214 H 575.999 -0.553219 0.614718 0
M  V30 6215 H 578.545 -0.467003 1.63148 0
M  V30 6216 H 577.317 -1.39232 3.65691 0
M  V30 6217 H 576.94 -2.85716 2.76499 0
M  V30 6218 N 577.937 -1.40673 -0.710563 0
M  V30 6219 C 579.165 -1.42547 -1.4996 0
M  V30 6220 C 579.58 -0.0265485 -1.88781 0
M  V30 6221 O 578.937 0.950694 -1.55782 0
M  V30 6222 C 578.988 -2.32071 -2.77173 0
M  V30 6223 O 578.709 -3.66518 -2.39992 0
M  V30 6224 C 580.21 -2.42591 -3.71032 0
M  V30 6225 H 577.43 -0.486025 -0.462623 0
M  V30 6226 H 579.974 -1.84783 -0.876102 0
M  V30 6227 H 578.129 -1.93184 -3.35795 0
M  V30 6228 H 578.543 -4.14115 -3.21884 0
M  V30 6229 H 580.017 -3.09429 -4.57119 0
M  V30 6230 H 580.494 -1.4525 -4.14486 0
M  V30 6231 H 581.1 -2.82051 -3.18319 0
M  V30 6232 N 579.415 0.9433 -1.26252 0
M  V30 6233 C 580.325 2.07532 -1.09397 0
M  V30 6234 C 581.341 1.73977 -0.0280449 0
M  V30 6235 O 582.517 2.00067 -0.231337 0
M  V30 6236 C 579.582 3.39002 -0.726523 0
M  V30 6237 C 578.643 3.86353 -1.87163 0
M  V30 6238 C 577.876 5.11549 -1.52162 0
M  V30 6239 O 578.099 5.68834 -0.422385 0
M  V30 6240 O 577.033 5.53889 -2.35565 0
M  V30 6241 H 580.859 2.24658 -2.04359 0
M  V30 6242 H 578.444 1.05988 -1.05295 0
M  V30 6243 H 580.326 4.18 -0.534236 0
M  V30 6244 H 579.001 3.2312 0.193721 0
M  V30 6245 H 577.908 3.0831 -2.11886 0
M  V30 6246 H 579.241 4.06752 -2.77152 0
M  V30 6247 N 580.893 1.08022 1.14757 0
M  V30 6248 C 582.142 0.802468 1.8505 0
M  V30 6249 C 582.455 -0.674061 1.83619 0
M  V30 6250 O 583.661 -1.06683 2.49662 0
M  V30 6251 C 582.117 1.38551 3.32162 0
M  V30 6252 C 581.725 2.89354 3.42021 0
M  V30 6253 C 583.469 1.18608 4.07594 0
M  V30 6254 C 581.376 3.40815 4.83321 0
M  V30 6255 H 580.306 0.296518 0.693248 0
M  V30 6256 H 582.957 1.30114 1.29393 0
M  V30 6257 H 581.339 0.814556 3.87532 0
M  V30 6258 H 582.513 3.52552 2.96722 0
M  V30 6259 H 580.828 3.08165 2.80041 0
M  V30 6260 H 583.425 1.54525 5.11885 0
M  V30 6261 H 583.768 0.125599 4.1611 0
M  V30 6262 H 584.301 1.72375 3.58513 0
M  V30 6263 H 581.04 4.46418 4.79991 0
M  V30 6264 H 580.56 2.82374 5.29174 0
M  V30 6265 H 582.239 3.37171 5.522 0
M  V30 6266 N 582.371 -1.3172 0.865308 0
M  V30 6267 C 583.618 -1.96876 0.473931 0
M  V30 6268 C 583.946 -1.68425 -0.972786 0
M  V30 6269 O 583.201 -0.970742 -1.69927 0
M  V30 6270 C 583.5 -3.5102 0.672283 0
M  V30 6271 C 583.166 -3.9948 2.09108 0
M  V30 6272 C 581.828 -4.12425 2.4791 0
M  V30 6273 C 584.18 -4.2503 3.0166 0
M  V30 6274 C 581.508 -4.48267 3.78515 0
M  V30 6275 C 583.86 -4.62335 4.31774 0
M  V30 6276 C 582.524 -4.73486 4.70497 0
M  V30 6277 H 581.794 -0.72042 0.173424 0
M  V30 6278 H 584.441 -1.56937 1.0974 0
M  V30 6279 H 582.746 -3.91785 -0.034356 0
M  V30 6280 H 584.443 -3.99475 0.349353 0
M  V30 6281 H 581.033 -3.89898 1.77981 0
M  V30 6282 H 585.217 -4.14529 2.7291 0
M  V30 6283 H 580.473 -4.55097 4.08285 0
M  V30 6284 H 584.647 -4.81058 5.03543 0
M  V30 6285 H 582.274 -5.01016 5.71741 0
M  V30 6286 N 583.85 -0.624285 -1.44708 0
M  V30 6287 C 585.08 -0.132726 -2.06173 0
M  V30 6288 C 585.488 1.19513 -1.46674 0
M  V30 6289 O 584.831 1.74254 -0.581491 0
M  V30 6290 C 584.893 0.0636732 -3.59444 0
M  V30 6291 C 584.557 -1.18496 -4.4137 0
M  V30 6292 C 585.553 -2.10706 -4.75288 0
M  V30 6293 C 583.239 -1.41846 -4.81856 0
M  V30 6294 C 585.233 -3.24582 -5.48567 0
M  V30 6295 C 582.92 -2.5602 -5.54885 0
M  V30 6296 C 583.918 -3.47215 -5.88159 0
M  V30 6297 O 583.606 -4.59399 -6.59703 0
M  V30 6298 H 583.338 -0.0737313 -0.671967 0
M  V30 6299 H 585.892 -0.856789 -1.86677 0
M  V30 6300 H 584.122 0.842809 -3.77404 0
M  V30 6301 H 585.811 0.508924 -4.02697 0
M  V30 6302 H 586.577 -1.93898 -4.44554 0
M  V30 6303 H 582.456 -0.717556 -4.55381 0
M  V30 6304 H 586 -3.95785 -5.74456 0
M  V30 6305 H 581.897 -2.72774 -5.85034 0
M  V30 6306 H 582.665 -4.58293 -6.78166 0
M  V30 6307 N 585.328 1.53329 -0.364422 0
M  V30 6308 C 586.26 2.23286 0.517293 0
M  V30 6309 C 587.273 1.24657 1.04711 0
M  V30 6310 O 588.462 1.50887 0.95369 0
M  V30 6311 C 585.562 2.91604 1.72685 0
M  V30 6312 C 584.735 4.1673 1.32873 0
M  V30 6313 C 583.794 4.68269 2.40022 0
M  V30 6314 O 582.82 5.31976 2.02461 0
M  V30 6315 N 584.022 4.45983 3.7159 0
M  V30 6316 H 586.787 2.99588 -0.0819391 0
M  V30 6317 H 584.348 1.60787 -0.189544 0
M  V30 6318 H 586.34 3.22992 2.4384 0
M  V30 6319 H 584.91 2.18763 2.23297 0
M  V30 6320 H 584.13 3.91657 0.447069 0
M  V30 6321 H 585.418 4.98078 1.03902 0
M  V30 6322 H 584.816 3.95077 4.04883 0
M  V30 6323 H 583.373 4.81924 4.38854 0
M  V30 6324 N 586.806 0.0935595 1.57322 0
M  V30 6325 C 588.053 -0.570509 1.94297 0
M  V30 6326 C 588.381 -1.68286 0.97519 0
M  V30 6327 O 587.636 -1.95699 -0.00548655 0
M  V30 6328 C 587.935 -1.16692 3.37813 0
M  V30 6329 C 587.601 -0.178509 4.50547 0
M  V30 6330 C 586.263 0.0933475 4.81109 0
M  V30 6331 C 588.615 0.496472 5.1883 0
M  V30 6332 C 585.943 1.0469 5.77284 0
M  V30 6333 C 588.295 1.43849 6.16028 0
M  V30 6334 C 586.959 1.71859 6.44997 0
M  V30 6335 H 586.229 -0.208764 0.710984 0
M  V30 6336 H 588.876 0.169066 1.90752 0
M  V30 6337 H 587.181 -1.98271 3.37929 0
M  V30 6338 H 588.878 -1.6884 3.63722 0
M  V30 6339 H 585.468 -0.400584 4.26724 0
M  V30 6340 H 589.652 0.299584 4.95395 0
M  V30 6341 H 584.908 1.27094 5.98044 0
M  V30 6342 H 589.082 1.96734 6.68034 0
M  V30 6343 H 586.709 2.45906 7.19329 0
M  V30 6344 N 588.284 -1.56567 -0.180126 0
M  V30 6345 C 589.512 -1.85618 -0.913972 0
M  V30 6346 C 589.927 -0.677892 -1.7621 0
M  V30 6347 O 589.284 0.353171 -1.7905 0
M  V30 6348 C 589.335 -3.13619 -1.79793 0
M  V30 6349 O 589.056 -4.26906 -0.98402 0
M  V30 6350 C 590.557 -3.55954 -2.64219 0
M  V30 6351 H 587.777 -0.616043 -0.265954 0
M  V30 6352 H 590.321 -2.03681 -0.182872 0
M  V30 6353 H 588.476 -2.97409 -2.48247 0
M  V30 6354 H 588.89 -4.9989 -1.58776 0
M  V30 6355 H 590.364 -4.48444 -3.21873 0
M  V30 6356 H 590.841 -2.79653 -3.38661 0
M  V30 6357 H 591.447 -3.74746 -2.01111 0
M  V30 6358 N 589.762 0.448376 -1.51087 0
M  V30 6359 C 590.987 1.22605 -1.6728 0
M  V30 6360 C 591.412 1.84524 -0.365045 0
M  V30 6361 O 590.77 1.6832 0.673642 0
M  V30 6362 C 590.818 2.29393 -2.78229 0
M  V30 6363 O 589.922 3.34608 -2.41063 0
M  V30 6364 H 589.263 0.359705 -0.558129 0
M  V30 6365 H 591.793 0.530903 -1.97592 0
M  V30 6366 H 591.803 2.74352 -3.01986 0
M  V30 6367 H 590.478 1.83701 -3.73131 0
M  V30 6368 H 589.055 2.95202 -2.27838 0
M  V30 6369 N 591.24 1.41047 0.703093 0
M  V30 6370 C 592.487 1.4 1.46309 0
M  V30 6371 C 592.815 0.00654574 1.94499 0
M  V30 6372 O 592.07 -0.980255 1.6938 0
M  V30 6373 C 592.369 2.34686 2.6955 0
M  V30 6374 C 592.035 3.81684 2.40058 0
M  V30 6375 C 590.697 4.21731 2.31725 0
M  V30 6376 C 593.049 4.74525 2.15581 0
M  V30 6377 C 590.377 5.52637 1.97001 0
M  V30 6378 C 592.729 6.05744 1.82366 0
M  V30 6379 C 591.393 6.44819 1.72524 0
M  V30 6380 H 590.663 0.512295 0.535382 0
M  V30 6381 H 593.31 1.73792 0.804275 0
M  V30 6382 H 591.615 1.94122 3.40329 0
M  V30 6383 H 593.312 2.31152 3.27673 0
M  V30 6384 H 589.902 3.49963 2.47435 0
M  V30 6385 H 594.086 4.44395 2.20968 0
M  V30 6386 H 589.342 5.81802 1.87928 0
M  V30 6387 H 593.516 6.77189 1.62444 0
M  V30 6388 H 591.143 7.46168 1.45385 0
M  V30 6389 N 592.718 -0.936591 1.26751 0
M  V30 6390 C 593.648 -2.05315 1.11212 0
M  V30 6391 C 594.629 -1.70092 0.0160262 0
M  V30 6392 O 595.814 -1.93279 0.188894 0
M  V30 6393 C 592.944 -3.39123 0.749171 0
M  V30 6394 C 591.898 -3.88425 1.79751 0
M  V30 6395 C 591.224 -5.18936 1.28876 0
M  V30 6396 C 592.524 -4.12798 3.19992 0
M  V30 6397 H 594.218 -2.18573 2.04613 0
M  V30 6398 H 591.764 -1.05027 0.985159 0
M  V30 6399 H 593.717 -4.16704 0.627323 0
M  V30 6400 H 592.441 -3.25855 -0.220543 0
M  V30 6401 H 591.1 -3.13028 1.90811 0
M  V30 6402 H 590.748 -5.02051 0.308757 0
M  V30 6403 H 590.448 -5.52892 1.98958 0
M  V30 6404 H 591.972 -5.99096 1.17967 0
M  V30 6405 H 593.386 -4.80977 3.11983 0
M  V30 6406 H 591.783 -4.58044 3.87705 0
M  V30 6407 H 592.853 -3.18412 3.65707 0
M  V30 6408 N 594.196 -1.08629 -1.14182 0
M  V30 6409 C 595.421 -0.83902 -1.89671 0
M  V30 6410 C 595.846 0.603332 -1.78161 0
M  V30 6411 O 595.204 1.42301 -1.12339 0
M  V30 6412 C 595.252 -1.26854 -3.37551 0
M  V30 6413 O 594.356 -0.42188 -4.10236 0
M  V30 6414 H 593.697 -0.304545 -0.590041 0
M  V30 6415 H 596.227 -1.4483 -1.44518 0
M  V30 6416 H 596.237 -1.25038 -3.88368 0
M  V30 6417 H 594.912 -2.31901 -3.45246 0
M  V30 6418 H 593.489 -0.503654 -3.69483 0
M  V30 6419 N 595.674 1.31259 -0.872281 0
M  V30 6420 C 597.085 1.78822 -0.536617 0
M  V30 6421 C 597.436 1.71855 0.946594 0
M  V30 6422 O 596.561 1.28769 1.73918 0
M  V30 6423 C 597.156 3.24698 -0.967294 0
M  V30 6424 C 595.715 3.70147 -0.683251 0
M  V30 6425 C 594.862 2.51994 -1.15733 0
M  V30 6426 H 597.813 1.18308 -1.05777 0
M  V30 6427 H 597.834 3.79386 -0.290929 0
M  V30 6428 H 597.346 3.29737 -2.04683 0
M  V30 6429 H 595.447 3.70607 0.384825 0
M  V30 6430 H 595.56 4.62183 -1.2619 0
M  V30 6431 H 593.924 2.48078 -0.577024 0
M  V30 6432 H 594.707 2.59778 -2.24434 0
M  V30 6433 N 597.152 0.631951 1.44375 0
M  V30 6434 C 598.4 0.136497 2.01639 0
M  V30 6435 C 598.721 -1.24637 1.49969 0
M  V30 6436 O 597.991 -1.82827 0.70363 0
M  V30 6437 H 596.571 0.0474703 0.74549 0
M  V30 6438 H 599.233 0.818837 1.76865 0
M  V30 6439 H 598.329 0.104817 3.11924 0
M  V30 6440 N 598.631 -1.53133 0.372548 0
M  V30 6441 C 599.88 -2.00539 -0.216115 0
M  V30 6442 C 600.193 -1.26374 -1.49295 0
M  V30 6443 O 601.399 -1.64404 -2.16064 0
M  V30 6444 C 599.855 -3.57253 -0.435678 0
M  V30 6445 C 599.463 -4.40302 0.82693 0
M  V30 6446 C 601.207 -4.12995 -0.981618 0
M  V30 6447 C 599.114 -5.88583 0.576567 0
M  V30 6448 H 598.044 -0.749246 -0.084536 0
M  V30 6449 H 600.695 -1.76771 0.492364 0
M  V30 6450 H 599.077 -3.77202 -1.20559 0
M  V30 6451 H 600.251 -4.32124 1.60017 0
M  V30 6452 H 598.566 -3.95699 1.29659 0
M  V30 6453 H 601.163 -5.21418 -1.18436 0
M  V30 6454 H 601.506 -3.68027 -1.94581 0
M  V30 6455 H 602.039 -3.96871 -0.271696 0
M  V30 6456 H 598.778 -6.37841 1.51128 0
M  V30 6457 H 598.298 -5.99592 -0.158047 0
M  V30 6458 H 599.977 -6.46676 0.204722 0
M  V30 6459 N 600.109 -0.101901 -1.5727 0
M  V30 6460 C 601.358 0.559922 -1.93772 0
M  V30 6461 C 601.671 1.68913 -0.98629 0
M  V30 6462 O 602.877 2.41256 -1.24529 0
M  V30 6463 C 601.333 1.04739 -3.44322 0
M  V30 6464 C 600.941 -0.05243 -4.47969 0
M  V30 6465 C 602.685 1.68157 -3.89774 0
M  V30 6466 C 600.592 0.450781 -5.8968 0
M  V30 6467 H 599.522 0.212931 -0.723309 0
M  V30 6468 H 602.173 -0.179001 -1.82625 0
M  V30 6469 H 600.555 1.84021 -3.50645 0
M  V30 6470 H 601.729 -0.828157 -4.53297 0
M  V30 6471 H 600.044 -0.592202 -4.12167 0
M  V30 6472 H 602.641 2.0689 -4.93052 0
M  V30 6473 H 602.984 2.55338 -3.28798 0
M  V30 6474 H 603.517 0.954453 -3.8618 0
M  V30 6475 H 600.256 -0.38458 -6.54371 0
M  V30 6476 H 599.776 1.19336 -5.87809 0
M  V30 6477 H 601.455 0.917555 -6.40461 0
M  V30 6478 N 601.587 1.56661 0.17182 0
M  V30 6479 C 602.817 1.85831 0.902804 0
M  V30 6480 C 603.225 0.685157 1.76358 0
M  V30 6481 O 602.568 -0.354947 1.80238 0
M  V30 6482 C 602.63 3.09406 1.83053 0
M  V30 6483 C 602.294 4.4231 1.1494 0
M  V30 6484 C 603.291 5.17342 0.515104 0
M  V30 6485 C 600.976 4.89045 1.14631 0
M  V30 6486 C 602.97 6.37299 -0.113194 0
M  V30 6487 C 600.657 6.08933 0.514184 0
M  V30 6488 C 601.655 6.82904 -0.114463 0
M  V30 6489 O 601.343 8.00518 -0.736622 0
M  V30 6490 H 601.075 0.620715 0.267748 0
M  V30 6491 H 603.629 2.04637 0.176918 0
M  V30 6492 H 601.859 2.86544 2.59672 0
M  V30 6493 H 603.548 3.25027 2.4313 0
M  V30 6494 H 604.314 4.82317 0.509474 0
M  V30 6495 H 600.193 4.31409 1.62502 0
M  V30 6496 H 603.737 6.94976 -0.604477 0
M  V30 6497 H 599.634 6.43423 0.517395 0
M  V30 6498 H 600.402 8.16027 -0.635822 0
M  V30 6499 N 603.065 -0.440357 1.51323 0
M  V30 6500 C 604.015 -1.53263 1.68803 0
M  V30 6501 C 604.999 -1.51494 0.542057 0
M  V30 6502 O 606.191 -1.57999 0.797839 0
M  V30 6503 C 603.32 -2.91479 1.8137 0
M  V30 6504 C 602.406 -2.98015 3.01742 0
M  V30 6505 N 602.797 -2.743 4.24962 0
M  V30 6506 C 601.095 -3.29173 3.00934 0
M  V30 6507 C 601.796 -2.86601 5.06197 0
M  V30 6508 N 600.772 -3.1814 4.40781 0
M  V30 6509 H 604.574 -1.33675 2.61741 0
M  V30 6510 H 602.088 -0.647616 1.48929 0
M  V30 6511 H 604.085 -3.70055 1.92002 0
M  V30 6512 H 602.745 -3.12089 0.896117 0
M  V30 6513 H 603.756 -2.49287 4.53957 0
M  V30 6514 H 600.433 -3.55577 2.18796 0
M  V30 6515 H 601.823 -2.72246 6.14274 0
M  V30 6516 N 604.543 -1.41418 -0.695603 0
M  V30 6517 C 605.783 -1.42241 -1.46788 0
M  V30 6518 C 606.147 -0.0300827 -1.91976 0
M  V30 6519 O 607.348 0.0868914 -2.6866 0
M  V30 6520 C 605.619 -2.4011 -2.6473 0
M  V30 6521 S 607.178 -2.59462 -3.53871 0
M  V30 6522 H 603.996 -0.503893 -0.50161 0
M  V30 6523 H 606.598 -1.77855 -0.811654 0
M  V30 6524 H 605.302 -3.40073 -2.29736 0
M  V30 6525 H 604.833 -2.05849 -3.35246 0
M  V30 6526 H 606.848 -1.862 -4.59939 0
M  V30 6527 N 606.021 0.929856 -1.27246 0
M  V30 6528 C 607.298 1.65544 -1.04186 0
M  V30 6529 C 607.678 2.06796 0.424097 0
M  V30 6530 O 607.026 1.80053 1.40688 0
M  V30 6531 C 607.236 2.85912 -2.00138 0
M  V30 6532 C 608.584 3.57305 -2.29387 0
M  V30 6533 O 609.608 2.96036 -1.98094 0
M  V30 6534 O 608.467 4.67688 -2.82719 0
M  V30 6535 H 605.561 0.725473 -0.397011 0
M  V30 6536 H 608.107 0.980583 -1.38501 0
M  V30 6537 H 606.879 2.52403 -2.99013 0
M  V30 6538 H 606.502 3.61118 -1.66371 0
M  V30 6539 N 607.499 1.09233 1.13605 0
M  V30 6540 C 608.429 0.751738 2.21068 0
M  V30 6541 C 609.41 -0.269688 1.67948 0
M  V30 6542 O 610.595 -0.13819 1.93708 0
M  V30 6543 C 607.725 0.16935 3.46887 0
M  V30 6544 C 606.679 1.12007 4.13084 0
M  V30 6545 C 606.005 0.399483 5.33206 0
M  V30 6546 C 607.305 2.46168 4.6065 0
M  V30 6547 H 608.999 1.65024 2.49815 0
M  V30 6548 H 606.545 0.794905 1.20072 0
M  V30 6549 H 608.498 -0.0809824 4.21322 0
M  V30 6550 H 607.222 -0.764335 3.1753 0
M  V30 6551 H 605.881 1.35564 3.40614 0
M  V30 6552 H 605.529 -0.538277 5.00112 0
M  V30 6553 H 605.229 1.03337 5.78442 0
M  V30 6554 H 606.753 0.157403 6.10397 0
M  V30 6555 H 608.167 2.26829 5.26518 0
M  V30 6556 H 606.564 3.05326 5.1662 0
M  V30 6557 H 607.634 3.07076 3.75276 0
M  V30 6558 N 608.977 -1.30795 0.87923 0
M  V30 6559 C 610.205 -2.00527 0.509548 0
M  V30 6560 C 610.62 -1.65944 -0.90045 0
M  V30 6561 O 609.977 -0.893525 -1.5913 0
M  V30 6562 C 610.028 -3.55276 0.667943 0
M  V30 6563 O 609.749 -3.88625 2.02242 0
M  V30 6564 C 611.25 -4.4228 0.300494 0
M  V30 6565 H 608.47 -0.641261 0.197549 0
M  V30 6566 H 611.014 -1.66813 1.18295 0
M  V30 6567 H 609.169 -3.87377 0.0419843 0
M  V30 6568 H 609.583 -4.83334 2.03688 0
M  V30 6569 H 611.057 -5.50061 0.462242 0
M  V30 6570 H 611.534 -4.32556 -0.76106 0
M  V30 6571 H 612.14 -4.15613 0.902536 0
M  V30 6572 N 610.455 -0.639598 -1.44038 0
M  V30 6573 C 611.402 0.0602458 -2.30721 0
M  V30 6574 C 612.372 0.828352 -1.43971 0
M  V30 6575 O 613.557 0.807693 -1.72861 0
M  V30 6576 C 610.697 1.03008 -3.29368 0
M  V30 6577 C 609.81 0.259502 -4.3122 0
M  V30 6578 C 608.945 1.22191 -5.16955 0
M  V30 6579 C 607.984 0.440978 -6.10509 0
M  V30 6580 N 607.121 1.35428 -6.88915 0
M  V30 6581 H 611.961 -0.684867 -2.90023 0
M  V30 6582 H 609.498 -0.349509 -1.42888 0
M  V30 6583 H 611.456 1.60583 -3.85057 0
M  V30 6584 H 610.086 1.74222 -2.71747 0
M  V30 6585 H 609.138 -0.432317 -3.77935 0
M  V30 6586 H 610.45 -0.348347 -4.97582 0
M  V30 6587 H 609.604 1.86873 -5.77203 0
M  V30 6588 H 608.343 1.86367 -4.50687 0
M  V30 6589 H 607.348 -0.219279 -5.49363 0
M  V30 6590 H 608.573 -0.196192 -6.78817 0
M  V30 6591 H 606.519 1.9831 -6.25307 0
M  V30 6592 H 606.436 0.800657 -7.51748 0
M  V30 6593 H 607.704 1.98967 -7.53679 0
M  V30 6594 N 611.933 1.52934 -0.380664 0
M  V30 6595 C 612.843 2.29921 0.466192 0
M  V30 6596 C 613.859 1.36488 1.07922 0
M  V30 6597 O 615.035 1.69553 1.0869 0
M  V30 6598 C 612.1 3.08468 1.58266 0
M  V30 6599 C 611.161 4.17595 0.995627 0
M  V30 6600 C 610.394 4.92387 2.05889 0
M  V30 6601 O 610.617 4.67184 3.27254 0
M  V30 6602 O 609.551 5.77949 1.68102 0
M  V30 6603 H 613.377 3.03274 -0.160735 0
M  V30 6604 H 610.962 1.48698 -0.144617 0
M  V30 6605 H 612.844 3.57469 2.23145 0
M  V30 6606 H 611.519 2.37937 2.19471 0
M  V30 6607 H 610.426 3.72811 0.310332 0
M  V30 6608 H 611.759 4.90336 0.427918 0
M  V30 6609 N 613.412 0.11024 1.57214 0
M  V30 6610 C 614.322 -0.857077 2.18383 0
M  V30 6611 C 615.338 -1.29915 1.1575 0
M  V30 6612 O 616.514 -1.36394 1.48184 0
M  V30 6613 C 613.579 -2.09264 2.76423 0
M  V30 6614 C 612.64 -1.70333 3.94063 0
M  V30 6615 C 611.873 -2.87999 4.49324 0
M  V30 6616 O 612.096 -4.0317 4.03497 0
M  V30 6617 O 611.03 -2.6559 5.40135 0
M  V30 6618 H 614.856 -0.366561 3.0148 0
M  V30 6619 H 612.441 -0.114914 1.48957 0
M  V30 6620 H 614.323 -2.81644 3.13456 0
M  V30 6621 H 612.998 -2.57339 1.96363 0
M  V30 6622 H 611.905 -0.950864 3.61814 0
M  V30 6623 H 613.238 -1.27007 4.75531 0
M  V30 6624 N 614.89 -1.56749 -0.16351 0
M  V30 6625 C 615.82 -2.00042 -1.20438 0
M  V30 6626 C 616.801 -0.877256 -1.45733 0
M  V30 6627 O 617.986 -1.1439 -1.56935 0
M  V30 6628 C 615.116 -2.36697 -2.54149 0
M  V30 6629 C 614.07 -3.52046 -2.43408 0
M  V30 6630 C 613.396 -3.74466 -3.81679 0
M  V30 6631 C 614.696 -4.85247 -1.93216 0
M  V30 6632 H 616.39 -2.87244 -0.844477 0
M  V30 6633 H 613.936 -1.38194 -0.40478 0
M  V30 6634 H 615.889 -2.65582 -3.27176 0
M  V30 6635 H 614.613 -1.46414 -2.91943 0
M  V30 6636 H 613.272 -3.23301 -1.72834 0
M  V30 6637 H 612.92 -2.81461 -4.1688 0
M  V30 6638 H 612.62 -4.52084 -3.75359 0
M  V30 6639 H 614.144 -4.0576 -4.5628 0
M  V30 6640 H 615.558 -5.12957 -2.56023 0
M  V30 6641 H 613.955 -5.66556 -1.97825 0
M  V30 6642 H 615.025 -4.7672 -0.88689 0
M  V30 6643 N 616.368 0.432326 -1.51554 0
M  V30 6644 C 617.278 1.55023 -1.76082 0
M  V30 6645 C 618.294 1.61593 -0.645265 0
M  V30 6646 O 619.47 1.78742 -0.928086 0
M  V30 6647 C 616.535 2.90964 -1.88523 0
M  V30 6648 C 615.596 2.9447 -3.12388 0
M  V30 6649 C 614.829 4.23926 -3.24225 0
M  V30 6650 O 615.052 5.16576 -2.4188 0
M  V30 6651 O 613.986 4.33818 -4.17235 0
M  V30 6652 H 617.812 1.37238 -2.70923 0
M  V30 6653 H 615.397 0.615845 -1.36117 0
M  V30 6654 H 617.279 3.71633 -1.98662 0
M  V30 6655 H 615.954 3.08865 -0.9687 0
M  V30 6656 H 614.861 2.12737 -3.07723 0
M  V30 6657 H 616.194 2.81514 -4.03746 0
M  V30 6658 N 617.846 1.41785 0.688094 0
M  V30 6659 C 619.257 1.3701 1.26828 0
M  V30 6660 C 619.608 0.056835 1.96118 0
M  V30 6661 O 618.733 -0.84475 1.99231 0
M  V30 6662 C 619.328 2.48168 2.30648 0
M  V30 6663 C 617.887 2.46766 2.84224 0
M  V30 6664 C 617.034 2.27633 1.58361 0
M  V30 6665 H 619.985 1.51192 0.482351 0
M  V30 6666 H 620.006 2.17655 3.121 0
M  V30 6667 H 619.518 3.43735 1.80188 0
M  V30 6668 H 617.619 1.54978 3.3884 0
M  V30 6669 H 617.732 3.43342 3.34145 0
M  V30 6670 H 616.096 1.75648 1.84445 0
M  V30 6671 H 616.879 3.25238 1.09887 0
M  V30 6672 N 619.324 -0.923095 1.27737 0
M  V30 6673 C 620.74 -1.19985 1.05241 0
M  V30 6674 C 620.94 -2.00391 -0.21113 0
M  V30 6675 O 619.996 -2.35324 -0.915366 0
M  V30 6676 C 621.309 -1.94352 2.29451 0
M  V30 6677 C 622.857 -2.07273 2.34536 0
M  V30 6678 C 623.332 -2.85046 3.58487 0
M  V30 6679 N 624.823 -2.92612 3.59072 0
M  V30 6680 C 625.558 -3.53266 4.51654 0
M  V30 6681 N 625.054 -4.15274 5.54545 0
M  V30 6682 N 626.847 -3.50714 4.39268 0
M  V30 6683 H 618.998 -0.386042 2.08862 0
M  V30 6684 H 621.261 -0.233407 0.918817 0
M  V30 6685 H 620.967 -1.42692 3.21453 0
M  V30 6686 H 620.841 -2.94947 2.3513 0
M  V30 6687 H 623.228 -2.58117 1.43037 0
M  V30 6688 H 623.309 -1.05884 2.32857 0
M  V30 6689 H 622.953 -2.34884 4.50324 0
M  V30 6690 H 622.883 -3.8673 3.57418 0
M  V30 6691 H 625.374 -2.48547 2.84663 0
M  V30 6692 H 625.687 -4.59507 6.21348 0
M  V30 6693 H 624.032 -4.13806 5.58382 0
M  V30 6694 H 627.223 -3.01475 3.58093 0
M  V30 6695 H 627.396 -3.97693 5.1161 0
M  V30 6696 N 620.802 -1.09834 -1.13024 0
M  V30 6697 C 622.048 -0.83819 -1.84668 0
M  V30 6698 C 622.381 0.634645 -1.83537 0
M  V30 6699 O 621.656 1.46753 -1.27647 0
M  V30 6700 C 621.939 -1.37933 -3.32636 0
M  V30 6701 C 621.792 -2.91857 -3.42257 0
M  V30 6702 C 623.111 -1.01654 -4.28199 0
M  V30 6703 H 620.23 -0.30595 -0.670495 0
M  V30 6704 H 622.872 -1.36044 -1.32635 0
M  V30 6705 H 621.022 -0.935111 -3.77078 0
M  V30 6706 H 622.694 -3.44759 -3.06495 0
M  V30 6707 H 620.937 -3.28776 -2.83 0
M  V30 6708 H 621.608 -3.24799 -4.46329 0
M  V30 6709 H 624.084 -1.39973 -3.9185 0
M  V30 6710 H 622.96 -1.42217 -5.30156 0
M  V30 6711 H 623.221 0.0747794 -4.42037 0
M  V30 6712 N 622.28 1.30327 -0.886154 0
M  V30 6713 C 623.527 1.96097 -0.505192 0
M  V30 6714 C 623.855 1.69952 0.945868 0
M  V30 6715 O 623.11 0.997653 1.68361 0
M  V30 6716 C 623.409 3.49906 -0.728042 0
M  V30 6717 C 623.075 3.96103 -2.15437 0
M  V30 6718 C 621.737 4.08428 -2.5444 0
M  V30 6719 C 624.089 4.20177 -3.08384 0
M  V30 6720 C 621.417 4.42189 -3.85598 0
M  V30 6721 C 623.769 4.55407 -4.39075 0
M  V30 6722 C 622.433 4.65941 -4.7797 0
M  V30 6723 H 621.703 0.71757 -0.184863 0
M  V30 6724 H 624.35 1.55171 -1.12223 0
M  V30 6725 H 622.655 3.9179 -0.027978 0
M  V30 6726 H 624.352 3.98869 -0.412862 0
M  V30 6727 H 620.942 3.87017 -1.84162 0
M  V30 6728 H 625.126 4.10134 -2.7947 0
M  V30 6729 H 620.382 4.48544 -4.15473 0
M  V30 6730 H 624.556 4.72986 -5.11133 0
M  V30 6731 H 622.183 4.91856 -5.79639 0
M  V30 6732 N 623.758 0.647228 1.43697 0
M  V30 6733 C 625.174 0.314256 1.56476 0
M  V30 6734 C 625.374 -1.18191 1.63196 0
M  V30 6735 O 624.43 -1.96655 1.58376 0
M  V30 6736 C 625.743 1.02034 2.82859 0
M  V30 6737 C 627.291 1.00002 2.96595 0
M  V30 6738 C 627.766 1.68689 4.25803 0
M  V30 6739 N 629.257 1.65424 4.32654 0
M  V30 6740 C 629.992 2.1545 5.31384 0
M  V30 6741 N 629.488 2.73738 6.36427 0
M  V30 6742 N 631.281 2.05985 5.22998 0
M  V30 6743 H 623.432 1.61821 1.37578 0
M  V30 6744 H 625.695 0.680184 0.660344 0
M  V30 6745 H 625.401 2.07542 2.83935 0
M  V30 6746 H 625.275 0.568146 3.72897 0
M  V30 6747 H 627.662 -0.0466319 2.95063 0
M  V30 6748 H 627.743 1.49086 2.07863 0
M  V30 6749 H 627.387 2.73308 4.28095 0
M  V30 6750 H 627.317 1.17076 5.13421 0
M  V30 6751 H 629.808 1.22884 3.57363 0
M  V30 6752 H 630.121 3.09602 7.08072 0
M  V30 6753 H 628.466 2.77796 6.37067 0
M  V30 6754 H 631.657 1.60157 4.39849 0
M  V30 6755 H 631.83 2.45281 5.99784 0
M  V30 6756 N 625.236 -1.5273 0.388769 0
M  V30 6757 C 626.146 -2.30165 -0.453993 0
M  V30 6758 C 627.162 -1.37058 -1.07197 0
M  V30 6759 O 628.338 -1.70127 -1.0779 0
M  V30 6760 C 625.403 -3.09303 -1.56628 0
M  V30 6761 C 624.464 -4.18117 -0.973467 0
M  V30 6762 C 623.697 -4.93472 -2.03275 0
M  V30 6763 O 623.92 -4.68913 -3.24772 0
M  V30 6764 O 622.854 -5.78833 -1.65034 0
M  V30 6765 H 626.68 -3.03185 0.176816 0
M  V30 6766 H 624.265 -1.4862 0.152501 0
M  V30 6767 H 626.147 -3.58648 -2.21246 0
M  V30 6768 H 624.822 -2.39098 -2.18206 0
M  V30 6769 H 623.729 -3.7297 -0.290556 0
M  V30 6770 H 625.062 -4.90556 -0.401908 0
M  V30 6771 N 626.714 -0.118576 -1.57153 0
M  V30 6772 C 627.96 0.540326 -1.95469 0
M  V30 6773 C 628.293 1.66356 -1.00196 0
M  V30 6774 O 627.568 1.94461 -0.039104 0
M  V30 6775 C 627.851 1.07342 -3.43729 0
M  V30 6776 C 627.704 -0.0463732 -4.49776 0
M  V30 6777 C 629.023 1.96442 -3.93826 0
M  V30 6778 H 626.142 0.19494 -0.710751 0
M  V30 6779 H 628.784 -0.19405 -1.89006 0
M  V30 6780 H 626.934 1.69925 -3.49368 0
M  V30 6781 H 628.606 -0.681648 -4.56236 0
M  V30 6782 H 626.849 -0.709574 -4.27957 0
M  V30 6783 H 627.52 0.367856 -5.50773 0
M  V30 6784 H 629.996 1.43731 -3.90488 0
M  V30 6785 H 628.872 2.3066 -4.98084 0
M  V30 6786 H 629.133 2.89077 -3.34495 0
M  V30 6787 N 628.193 1.56834 0.155195 0
M  V30 6788 C 629.421 1.87049 0.884326 0
M  V30 6789 C 629.836 0.705839 1.7511 0
M  V30 6790 O 629.193 -0.324641 1.79589 0
M  V30 6791 C 629.244 3.1644 1.74781 0
M  V30 6792 O 628.965 4.28417 0.915978 0
M  V30 6793 C 630.466 3.60113 2.58522 0
M  V30 6794 H 627.686 0.620196 0.25612 0
M  V30 6795 H 630.23 2.03946 0.150445 0
M  V30 6796 H 628.385 3.01321 2.43484 0
M  V30 6797 H 628.799 5.02353 1.50803 0
M  V30 6798 H 630.273 4.53508 3.14698 0
M  V30 6799 H 630.75 2.85005 3.34169 0
M  V30 6800 H 631.356 3.77898 1.95124 0
M  V30 6801 N 629.671 -0.424282 1.51781 0
M  V30 6802 C 630.917 -1.17434 1.6534 0
M  V30 6803 C 631.25 -1.90549 0.374806 0
M  V30 6804 O 630.525 -1.84145 -0.626179 0
M  V30 6805 C 630.808 -2.18093 2.86544 0
M  V30 6806 C 630.661 -1.48975 4.24413 0
M  V30 6807 C 631.98 -3.18934 3.03264 0
M  V30 6808 H 629.099 -0.425566 0.601716 0
M  V30 6809 H 631.741 -0.461921 1.84299 0
M  V30 6810 H 629.891 -2.78849 2.7051 0
M  V30 6811 H 631.563 -0.914551 4.52143 0
M  V30 6812 H 629.806 -0.791893 4.26511 0
M  V30 6813 H 630.477 -2.22347 5.05238 0
M  V30 6814 H 632.953 -2.68243 3.18096 0
M  V30 6815 H 631.829 -3.86645 3.89611 0
M  V30 6816 H 632.09 -3.85793 2.15908 0
M  V30 6817 N 631.149 -1.42148 -0.680565 0
M  V30 6818 C 632.096 -1.45175 -1.79424 0
M  V30 6819 C 633.066 -0.304352 -1.63288 0
M  V30 6820 O 634.251 -0.507591 -1.83924 0
M  V30 6821 C 631.391 -1.35429 -3.17416 0
M  V30 6822 C 630.504 -2.60158 -3.4488 0
M  V30 6823 C 629.639 -2.42596 -4.72568 0
M  V30 6824 C 628.678 -3.62727 -4.93047 0
M  V30 6825 N 627.815 -3.44143 -6.11973 0
M  V30 6826 H 632.655 -2.40349 -1.76172 0
M  V30 6827 H 630.192 -1.19334 -0.860107 0
M  V30 6828 H 632.15 -1.27777 -3.97151 0
M  V30 6829 H 630.78 -0.438536 -3.19807 0
M  V30 6830 H 629.832 -2.78199 -2.5944 0
M  V30 6831 H 631.144 -3.49473 -3.55908 0
M  V30 6832 H 630.298 -2.32497 -5.60384 0
M  V30 6833 H 629.037 -1.50761 -4.63813 0
M  V30 6834 H 628.042 -3.73264 -4.03676 0
M  V30 6835 H 629.267 -4.55534 -5.03652 0
M  V30 6836 H 627.213 -2.5502 -6.04401 0
M  V30 6837 H 627.13 -4.27041 -6.23836 0
M  V30 6838 H 628.398 -3.37845 -7.02482 0
M  V30 6839 N 632.627 0.916307 -1.28225 0
M  V30 6840 C 633.875 1.6619 -1.15002 0
M  V30 6841 C 634.196 1.92642 0.302329 0
M  V30 6842 O 633.466 1.54076 1.20985 0
M  V30 6843 H 632.046 0.615964 -0.422608 0
M  V30 6844 H 634.708 1.09963 -1.60917 0
M  V30 6845 H 633.804 2.62533 -1.68769 0
M  V30 6846 N 634.105 1.10431 1.1244 0
M  V30 6847 C 635.354 0.841539 1.83306 0
M  V30 6848 C 635.667 -0.634961 1.85007 0
M  V30 6849 O 636.873 -1.01363 2.51869 0
M  V30 6850 C 635.329 1.45565 3.29149 0
M  V30 6851 C 634.937 2.96544 3.35806 0
M  V30 6852 C 636.681 1.27227 4.04986 0
M  V30 6853 C 634.588 3.5099 4.75983 0
M  V30 6854 H 633.518 0.311156 0.686803 0
M  V30 6855 H 636.169 1.32829 1.26604 0
M  V30 6856 H 634.551 0.896574 3.85717 0
M  V30 6857 H 635.725 3.58766 2.89177 0
M  V30 6858 H 634.04 3.14036 2.73442 0
M  V30 6859 H 636.637 1.65348 5.08492 0
M  V30 6860 H 636.98 0.213834 4.1575 0
M  V30 6861 H 637.513 1.79941 3.54776 0
M  V30 6862 H 634.252 4.56499 4.70413 0
M  V30 6863 H 633.772 2.93535 5.23065 0
M  V30 6864 H 635.451 3.48808 5.44924 0
M  V30 6865 N 635.583 -1.29855 0.893053 0
M  V30 6866 C 636.86 -1.90694 0.435336 0
M  V30 6867 C 637.24 -1.8111 -1.08454 0
M  V30 6868 O 636.588 -1.23352 -1.92345 0
M  V30 6869 C 636.798 -3.36033 0.942472 0
M  V30 6870 C 638.146 -4.13083 0.982226 0
M  V30 6871 O 639.17 -3.4491 0.889686 0
M  V30 6872 O 638.029 -5.34896 1.12022 0
M  V30 6873 H 635.123 -0.815978 0.134567 0
M  V30 6874 H 637.669 -1.38367 0.982484 0
M  V30 6875 H 636.441 -3.37132 1.9864 0
M  V30 6876 H 636.064 -3.95828 0.374952 0
M  V30 6877 N 637.061 -0.65484 -1.43351 0
M  V30 6878 C 638.024 0.0263562 -2.29185 0
M  V30 6879 C 639.024 0.748951 -1.42293 0
M  V30 6880 O 640.214 0.589957 -1.63906 0
M  V30 6881 C 637.346 1.04806 -3.2439 0
M  V30 6882 H 638.539 -0.728883 -2.90908 0
M  V30 6883 H 636.092 -0.416149 -1.50658 0
M  V30 6884 H 636.827 1.83247 -2.67565 0
M  V30 6885 H 636.612 0.533554 -3.88453 0
M  V30 6886 H 638.102 1.52372 -3.88809 0
M  V30 6887 N 638.539 1.52521 -0.396863 0
M  V30 6888 C 639.764 2.06571 0.185258 0
M  V30 6889 C 640.189 1.26605 1.39115 0
M  V30 6890 O 639.547 0.293055 1.78916 0
M  V30 6891 C 639.595 3.5674 0.526189 0
M  V30 6892 O 638.699 3.7929 1.61903 0
M  V30 6893 H 638.04 0.663712 0.0195474 0
M  V30 6894 H 640.57 1.966 -0.566519 0
M  V30 6895 H 640.58 4.00311 0.788338 0
M  V30 6896 H 639.255 4.14379 -0.355397 0
M  V30 6897 H 637.832 3.47605 1.35 0
M  V30 6898 N 640.017 0.126909 1.57088 0
M  V30 6899 C 641.294 -0.573152 1.87014 0
M  V30 6900 C 641.674 -1.84297 1.02945 0
M  V30 6901 O 641.022 -2.28232 0.110573 0
M  V30 6902 C 641.232 -0.857984 3.38289 0
M  V30 6903 C 642.58 -1.20759 4.07066 0
M  V30 6904 O 643.604 -0.947992 3.43353 0
M  V30 6905 O 642.463 -1.69516 5.19545 0
M  V30 6906 H 639.557 -0.290082 0.774456 0
M  V30 6907 H 642.103 0.162008 1.68925 0
M  V30 6908 H 640.875 0.0415286 3.91278 0
M  V30 6909 H 640.498 -1.64803 3.61837 0
M  V30 6910 N 641.495 -1.56914 -0.146875 0
M  V30 6911 C 642.725 -1.87243 -0.873126 0
M  V30 6912 C 643.133 -0.713127 -1.75246 0
M  V30 6913 O 642.476 0.326228 -1.8078 0
M  V30 6914 C 642.538 -3.12279 -1.78107 0
M  V30 6915 C 642.202 -4.44082 -1.07889 0
M  V30 6916 C 643.199 -5.18096 -0.432734 0
M  V30 6917 C 640.884 -4.90807 -1.06836 0
M  V30 6918 C 642.878 -6.37039 0.214569 0
M  V30 6919 C 640.565 -6.09674 -0.417243 0
M  V30 6920 C 641.563 -6.82636 0.223093 0
M  V30 6921 O 641.251 -7.99245 0.863884 0
M  V30 6922 H 640.983 -0.624896 -0.257839 0
M  V30 6923 H 643.537 -2.04892 -0.14434 0
M  V30 6924 H 641.767 -2.90639 -2.5508 0
M  V30 6925 H 643.456 -3.28854 -2.37929 0
M  V30 6926 H 644.222 -4.83066 -0.432677 0
M  V30 6927 H 640.101 -4.3394 -1.55618 0
M  V30 6928 H 643.645 -6.93927 0.714965 0
M  V30 6929 H 639.542 -6.44165 -0.414967 0
M  V30 6930 H 640.31 -8.14912 0.765564 0
M  V30 6931 N 642.974 0.416227 -1.52004 0
M  V30 6932 C 643.906 1.52552 -1.71058 0
M  V30 6933 C 644.919 1.51693 -0.59102 0
M  V30 6934 O 646.108 1.56087 -0.865973 0
M  V30 6935 C 643.208 2.91455 -1.72937 0
M  V30 6936 C 642.381 3.16584 -3.01816 0
M  V30 6937 C 641.44 4.35322 -2.95603 0
M  V30 6938 O 640.466 4.32947 -3.6952 0
M  V30 6939 N 641.668 5.40049 -2.12903 0
M  V30 6940 H 644.433 1.36604 -2.66757 0
M  V30 6941 H 641.994 0.60544 -1.50153 0
M  V30 6942 H 643.986 3.68944 -1.66321 0
M  V30 6943 H 642.556 3.00895 -0.847418 0
M  V30 6944 H 641.776 2.27203 -3.22137 0
M  V30 6945 H 643.064 3.30213 -3.87088 0
M  V30 6946 H 642.462 5.44823 -1.52265 0
M  V30 6947 H 641.019 6.16308 -2.1215 0
M  V30 6948 N 644.452 1.42507 0.673017 0
M  V30 6949 C 645.68 1.46473 1.46128 0
M  V30 6950 C 646.095 0.0765912 1.88645 0
M  V30 6951 O 645.452 -0.909057 1.58248 0
M  V30 6952 C 645.503 2.39339 2.70923 0
M  V30 6953 O 645.224 3.72752 2.3019 0
M  V30 6954 C 646.725 2.52343 3.64469 0
M  V30 6955 H 643.945 0.49812 0.449575 0
M  V30 6956 H 646.489 1.87041 0.826802 0
M  V30 6957 H 644.644 2.02019 3.30556 0
M  V30 6958 H 645.058 4.22503 3.10791 0
M  V30 6959 H 646.532 3.2144 4.48754 0
M  V30 6960 H 647.009 1.56189 4.1049 0
M  V30 6961 H 647.615 2.90392 3.10729 0
M  V30 6962 N 645.93 -0.909495 1.28709 0
M  V30 6963 C 647.176 -1.66151 1.16283 0
M  V30 6964 C 647.509 -1.92067 -0.287069 0
M  V30 6965 O 646.784 -1.52409 -1.20837 0
M  V30 6966 C 647.067 -3.01676 1.9663 0
M  V30 6967 C 646.92 -2.82888 3.49707 0
M  V30 6968 C 648.239 -4.02274 1.78504 0
M  V30 6969 H 645.358 -0.602966 0.423793 0
M  V30 6970 H 648 -1.05418 1.58073 0
M  V30 6971 H 646.15 -3.53515 1.61119 0
M  V30 6972 H 647.822 -2.38026 3.95147 0
M  V30 6973 H 646.065 -2.17862 3.75125 0
M  V30 6974 H 646.736 -3.79147 4.01187 0
M  V30 6975 H 649.212 -3.59511 2.09503 0
M  V30 6976 H 648.088 -4.95056 2.37088 0
M  V30 6977 H 648.349 -4.35903 0.737647 0
M  V30 6978 N 647.408 -1.11026 -1.11852 0
M  V30 6979 C 648.34 -0.72249 -2.17515 0
M  V30 6980 C 649.353 0.243782 -1.60964 0
M  V30 6981 O 650.542 0.0273252 -1.78479 0
M  V30 6982 C 647.642 -0.0463979 -3.38868 0
M  V30 6983 C 646.815 -1.0384 -4.24895 0
M  V30 6984 C 645.874 -0.392659 -5.24733 0
M  V30 6985 O 644.9 -1.0453 -5.5952 0
M  V30 6986 N 646.102 0.846296 -5.74298 0
M  V30 6987 H 648.867 -1.63161 -2.51393 0
M  V30 6988 H 646.428 -0.999899 -1.27333 0
M  V30 6989 H 648.42 0.397215 -4.02746 0
M  V30 6990 H 646.99 0.765231 -3.03089 0
M  V30 6991 H 646.21 -1.6601 -3.57539 0
M  V30 6992 H 647.498 -1.70968 -4.79215 0
M  V30 6993 H 646.896 1.39578 -5.4821 0
M  V30 6994 H 645.453 1.23296 -6.40032 0
M  V30 6995 N 648.886 1.2938 -0.899927 0
M  V30 6996 C 650.135 1.9483 -0.521937 0
M  V30 6997 C 650.448 1.71725 0.936473 0
M  V30 6998 O 651.654 2.31282 1.42199 0
M  V30 6999 C 650.11 3.48911 -0.88255 0
M  V30 7000 C 649.718 3.80815 -2.35974 0
M  V30 7001 C 651.462 4.20595 -0.57448 0
M  V30 7002 C 649.369 5.28142 -2.66121 0
M  V30 7003 H 648.299 0.729285 -0.191468 0
M  V30 7004 H 650.95 1.47103 -1.09695 0
M  V30 7005 H 649.332 3.95293 -0.236459 0
M  V30 7006 H 650.506 3.45291 -3.05141 0
M  V30 7007 H 648.821 3.22271 -2.63686 0
M  V30 7008 H 651.418 5.29031 -0.776556 0
M  V30 7009 H 651.761 4.13442 0.487005 0
M  V30 7010 H 652.294 3.79945 -1.17842 0
M  V30 7011 H 649.033 5.4036 -3.71068 0
M  V30 7012 H 648.553 5.64913 -2.01578 0
M  V30 7013 H 650.232 5.95738 -2.52399 0
M  V30 7014 N 650.364 0.662433 1.43002 0
M  V30 7015 C 651.611 0.179591 2.01702 0
M  V30 7016 C 651.939 -1.20964 1.52309 0
M  V30 7017 O 651.194 -1.82343 0.7106 0
M  V30 7018 C 651.493 0.149363 3.57088 0
M  V30 7019 C 651.159 1.48158 4.25864 0
M  V30 7020 C 649.821 1.84638 4.44367 0
M  V30 7021 C 652.173 2.35953 4.64732 0
M  V30 7022 C 649.501 3.08561 4.99006 0
M  V30 7023 C 651.853 3.59176 5.20745 0
M  V30 7024 C 650.517 3.95841 5.37463 0
M  V30 7025 H 649.787 0.0657172 0.73808 0
M  V30 7026 H 652.434 0.854968 1.71355 0
M  V30 7027 H 650.739 -0.609491 3.8703 0
M  V30 7028 H 652.436 -0.241241 4.00274 0
M  V30 7029 H 649.026 1.18777 4.11813 0
M  V30 7030 H 653.21 2.09058 4.50121 0
M  V30 7031 H 648.466 3.37005 5.10135 0
M  V30 7032 H 652.64 4.27417 5.49807 0
M  V30 7033 H 650.267 4.91942 5.79566 0
M  V30 7034 N 651.842 -1.52309 0.404946 0
M  V30 7035 C 653.072 -2.05886 -0.171569 0
M  V30 7036 C 653.48 -1.27527 -1.39762 0
M  V30 7037 O 652.823 -0.319215 -1.80905 0
M  V30 7038 C 652.885 -3.54609 -0.590983 0
M  V30 7039 C 652.549 -4.53989 0.523757 0
M  V30 7040 C 653.546 -5.01084 1.38604 0
M  V30 7041 C 651.231 -4.97465 0.695255 0
M  V30 7042 C 653.225 -5.90295 2.4048 0
M  V30 7043 C 650.912 -5.86473 1.71733 0
M  V30 7044 C 651.91 -6.32782 2.57051 0
M  V30 7045 O 651.598 -7.20029 3.57509 0
M  V30 7046 H 651.33 -0.675508 -0.0257763 0
M  V30 7047 H 653.884 -1.97238 0.573278 0
M  V30 7048 H 652.114 -3.60929 -1.38805 0
M  V30 7049 H 653.803 -3.90853 -1.09494 0
M  V30 7050 H 654.569 -4.68214 1.26492 0
M  V30 7051 H 650.448 -4.60982 0.0408447 0
M  V30 7052 H 653.992 -6.26363 3.07108 0
M  V30 7053 H 649.889 -6.18756 1.83877 0
M  V30 7054 H 650.657 -7.3813 3.53703 0
M  V30 7055 N 653.32 -0.135238 -1.57019 0
M  V30 7056 C 654.731 0.387521 -1.82634 0
M  V30 7057 C 655.082 1.65528 -1.05332 0
M  V30 7058 O 654.207 2.14381 -0.294926 0
M  V30 7059 C 654.802 0.709852 -3.3128 0
M  V30 7060 C 653.361 1.17718 -3.57518 0
M  V30 7061 C 652.508 0.194183 -2.76619 0
M  V30 7062 H 655.459 -0.360126 -1.5456 0
M  V30 7063 H 655.48 1.5657 -3.46794 0
M  V30 7064 H 654.992 -0.213024 -3.87515 0
M  V30 7065 H 653.093 2.1164 -3.06658 0
M  V30 7066 H 653.206 1.11128 -4.66034 0
M  V30 7067 H 651.57 0.684478 -2.4533 0
M  V30 7068 H 652.353 -0.722076 -3.3562 0
M  V30 7069 N 654.798 1.5699 0.138552 0
M  V30 7070 C 656.023 1.88344 0.86841 0
M  V30 7071 C 656.448 0.725159 1.7356 0
M  V30 7072 O 655.806 -0.324992 1.78363 0
M  V30 7073 C 655.854 3.18334 1.69398 0
M  V30 7074 O 654.958 3.02863 2.79907 0
M  V30 7075 H 654.299 0.618577 0.241367 0
M  V30 7076 H 656.829 2.04207 0.126826 0
M  V30 7077 H 656.839 3.50567 2.08726 0
M  V30 7078 H 655.514 4.02238 1.05725 0
M  V30 7079 H 654.091 2.82056 2.43924 0
M  V30 7080 N 656.276 -0.40816 1.52223 0
M  V30 7081 C 657.223 -1.49737 1.75635 0
M  V30 7082 C 658.193 -1.5493 0.598824 0
M  V30 7083 O 659.378 -1.71487 0.83648 0
M  V30 7084 C 656.518 -2.87174 1.91376 0
M  V30 7085 C 655.631 -2.91283 3.19027 0
M  V30 7086 C 654.766 -4.20026 3.25195 0
M  V30 7087 C 653.805 -4.18113 4.47044 0
M  V30 7088 N 652.942 -5.38429 4.50598 0
M  V30 7089 H 657.782 -1.29075 2.68596 0
M  V30 7090 H 655.319 -0.626518 1.33091 0
M  V30 7091 H 657.277 -3.66959 1.98486 0
M  V30 7092 H 655.907 -3.06329 1.01795 0
M  V30 7093 H 654.959 -2.03984 3.21084 0
M  V30 7094 H 656.271 -2.85734 4.08849 0
M  V30 7095 H 655.425 -5.08204 3.31382 0
M  V30 7096 H 654.164 -4.28271 2.33313 0
M  V30 7097 H 653.169 -3.28325 4.41002 0
M  V30 7098 H 654.394 -4.11507 5.40221 0
M  V30 7099 H 652.34 -5.4734 3.616 0
M  V30 7100 H 652.257 -5.34879 5.34266 0
M  V30 7101 H 653.525 -6.28557 4.61016 0
M  V30 7102 N 657.755 -1.42862 -0.66545 0
M  V30 7103 C 659.032 -1.3431 -1.42197 0
M  V30 7104 C 659.412 0.0150265 -2.11095 0
M  V30 7105 O 658.76 1.03101 -2.03918 0
M  V30 7106 C 658.97 -2.51783 -2.41674 0
M  V30 7107 C 660.318 -2.94321 -3.0604 0
M  V30 7108 O 661.342 -2.51741 -2.52001 0
M  V30 7109 O 660.201 -3.68047 -4.03985 0
M  V30 7110 H 657.295 -0.530159 -0.634713 0
M  V30 7111 H 659.841 -1.54888 -0.693386 0
M  V30 7112 H 658.613 -3.42282 -1.89627 0
M  V30 7113 H 658.236 -2.33241 -3.22001 0
M  V30 7114 N 659.233 0.902656 -1.29189 0
M  V30 7115 C 660.481 1.6496 -1.16758 0
M  V30 7116 C 660.802 1.92952 0.28188 0
M  V30 7117 O 660.072 1.55351 1.19344 0
M  V30 7118 H 658.652 0.611447 -0.429118 0
M  V30 7119 H 661.314 1.0825 -1.62074 0
M  V30 7120 H 660.41 2.60728 -1.71544 0
M  V30 7121 N 660.711 1.11618 1.11262 0
M  V30 7122 C 661.939 0.888739 1.8684 0
M  V30 7123 C 662.354 -0.561558 1.80255 0
M  V30 7124 O 661.711 -1.38782 1.18515 0
M  V30 7125 C 661.762 1.34422 3.35579 0
M  V30 7126 O 661.483 2.73766 3.42029 0
M  V30 7127 C 662.984 1.15246 4.28058 0
M  V30 7128 H 660.204 0.318152 0.590779 0
M  V30 7129 H 662.748 1.48398 1.40707 0
M  V30 7130 H 660.903 0.79239 3.7921 0
M  V30 7131 H 661.317 2.9355 4.34659 0
M  V30 7132 H 662.791 1.52015 5.30656 0
M  V30 7133 H 663.268 0.0922007 4.39103 0
M  V30 7134 H 663.874 1.69136 3.90222 0
M  V30 7135 N 662.189 -1.289 0.906776 0
M  V30 7136 C 663.136 -2.2751 0.388313 0
M  V30 7137 C 664.106 -1.57301 -0.533439 0
M  V30 7138 O 665.291 -1.85243 -0.457148 0
M  V30 7139 C 662.431 -3.43091 -0.37181 0
M  V30 7140 C 661.544 -4.28066 0.581647 0
M  V30 7141 C 660.679 -5.30837 -0.19623 0
M  V30 7142 C 659.718 -6.07472 0.751294 0
M  V30 7143 N 658.855 -7.021 0.00737727 0
M  V30 7144 H 663.695 -2.71237 1.23428 0
M  V30 7145 H 661.232 -1.33397 0.619962 0
M  V30 7146 H 663.19 -4.08888 -0.828641 0
M  V30 7147 H 661.82 -3.00374 -1.18218 0
M  V30 7148 H 660.872 -3.62378 1.157 0
M  V30 7149 H 662.184 -4.81382 1.30665 0
M  V30 7150 H 661.338 -6.02485 -0.71394 0
M  V30 7151 H 660.077 -4.78272 -0.954324 0
M  V30 7152 H 659.082 -5.34682 1.28044 0
M  V30 7153 H 660.307 -6.62126 1.50883 0
M  V30 7154 H 658.253 -6.51894 -0.732854 0
M  V30 7155 H 658.17 -7.53004 0.672334 0
M  V30 7156 H 659.438 -7.77956 -0.490365 0
M  V30 7157 N 663.667 -0.670007 -1.42649 0
M  V30 7158 C 664.916 -0.187526 -2.00826 0
M  V30 7159 C 665.229 1.21142 -1.53571 0
M  V30 7160 O 666.435 1.79001 -2.04134 0
M  V30 7161 C 664.891 -0.284409 -3.58774 0
M  V30 7162 C 664.499 -1.6871 -4.15019 0
M  V30 7163 C 666.243 0.139605 -4.2427 0
M  V30 7164 C 664.15 -1.73701 -5.65316 0
M  V30 7165 H 663.08 -0.0663468 -0.751075 0
M  V30 7166 H 665.731 -0.834492 -1.63427 0
M  V30 7167 H 664.113 0.430364 -3.93655 0
M  V30 7168 H 665.287 -2.42857 -3.91608 0
M  V30 7169 H 663.602 -2.05855 -3.61957 0
M  V30 7170 H 666.199 0.122398 -5.3456 0
M  V30 7171 H 666.542 1.17403 -3.99402 0
M  V30 7172 H 667.075 -0.523995 -3.94334 0
M  V30 7173 H 663.814 -2.75109 -5.94975 0
M  V30 7174 H 663.334 -1.03903 -5.90732 0
M  V30 7175 H 665.013 -1.48829 -6.2965 0
M  V30 7176 N 665.145 1.52092 -0.413018 0
M  V30 7177 C 666.556 1.86617 0.0556967 0
M  V30 7178 C 666.907 1.33156 1.44097 0
M  V30 7179 O 666.032 0.672417 2.05688 0
M  V30 7180 C 666.627 3.38628 0.107844 0
M  V30 7181 C 665.186 3.72778 0.520904 0
M  V30 7182 C 664.333 2.75649 -0.302109 0
M  V30 7183 H 667.284 1.45663 -0.629919 0
M  V30 7184 H 667.305 3.69152 0.922324 0
M  V30 7185 H 666.817 3.77508 -0.900506 0
M  V30 7186 H 664.918 3.39478 1.53575 0
M  V30 7187 H 665.031 4.7838 0.262591 0
M  V30 7188 H 663.395 2.53603 0.236115 0
M  V30 7189 H 664.178 3.17369 -1.30888 0
M  V30 7190 N 666.623 0.143563 1.56945 0
M  V30 7191 C 667.556 -0.835367 2.1236 0
M  V30 7192 C 668.534 -1.24466 1.04627 0
M  V30 7193 O 669.718 -1.34138 1.32436 0
M  V30 7194 C 666.845 -2.12123 2.64048 0
M  V30 7195 C 665.891 -1.85812 3.83896 0
M  V30 7196 S 666.724 -1.05222 5.25061 0
M  V30 7197 C 667.88 -2.34935 5.80135 0
M  V30 7198 H 668.113 -0.364109 2.95062 0
M  V30 7199 H 665.646 -0.0706601 1.54238 0
M  V30 7200 H 667.604 -2.85993 2.94479 0
M  V30 7201 H 666.265 -2.56364 1.81483 0
M  V30 7202 H 665.458 -2.81151 4.18294 0
M  V30 7203 H 665.06 -1.20052 3.54208 0
M  V30 7204 H 667.352 -3.3061 5.91357 0
M  V30 7205 H 668.295 -2.05046 6.77762 0
M  V30 7206 H 668.703 -2.45426 5.08356 0
M  V30 7207 N 668.101 -1.57061 -0.130224 0
M  V30 7208 C 669.348 -1.84257 -0.839972 0
M  V30 7209 C 669.676 -0.726986 -1.80403 0
M  V30 7210 O 668.931 0.282632 -1.93648 0
M  V30 7211 C 669.23 -3.17878 -1.63365 0
M  V30 7212 C 668.896 -4.43475 -0.814891 0
M  V30 7213 C 667.558 -4.77581 -0.589066 0
M  V30 7214 C 669.91 -5.20631 -0.243437 0
M  V30 7215 C 667.238 -5.86292 0.218648 0
M  V30 7216 C 669.59 -6.30192 0.551408 0
M  V30 7217 C 668.254 -6.62837 0.787653 0
M  V30 7218 H 667.524 -0.674245 -0.307367 0
M  V30 7219 H 670.171 -1.91224 -0.102832 0
M  V30 7220 H 668.476 -3.06437 -2.44138 0
M  V30 7221 H 670.173 -3.3614 -2.18658 0
M  V30 7222 H 666.763 -4.16747 -1.00098 0
M  V30 7223 H 670.947 -4.94644 -0.405145 0
M  V30 7224 H 666.203 -6.10017 0.411016 0
M  V30 7225 H 670.377 -6.89165 1.00126 0
M  V30 7226 H 668.004 -7.46908 1.41537 0
M  V30 7227 N 669.579 0.400081 -1.52437 0
M  V30 7228 C 670.828 1.14332 -1.66166 0
M  V30 7229 C 671.141 1.91419 -0.402253 0
M  V30 7230 O 672.347 2.6824 -0.419487 0
M  V30 7231 C 670.803 2.08137 -2.9361 0
M  V30 7232 C 670.411 1.36524 -4.26691 0
M  V30 7233 C 672.155 2.82664 -3.16703 0
M  V30 7234 C 670.062 2.29031 -5.45251 0
M  V30 7235 H 668.992 0.430499 -0.61902 0
M  V30 7236 H 671.643 0.407017 -1.78929 0
M  V30 7237 H 670.025 2.85358 -2.74567 0
M  V30 7238 H 671.199 0.646061 -4.56249 0
M  V30 7239 H 669.514 0.74002 -4.09771 0
M  V30 7240 H 672.111 3.52037 -4.0246 0
M  V30 7241 H 672.454 3.46122 -2.31312 0
M  V30 7242 H 672.987 2.12541 -3.36261 0
M  V30 7243 H 669.726 1.70206 -6.33017 0
M  V30 7244 H 669.246 2.98896 -5.2002 0
M  V30 7245 H 670.925 2.89359 -5.78689 0
M  V30 7246 N 671.057 1.43213 0.657864 0
M  V30 7247 C 672.303 1.44798 1.41991 0
M  V30 7248 C 672.636 0.070256 1.94073 0
M  V30 7249 O 671.911 -0.908177 1.71995 0
M  V30 7250 C 672.194 2.4865 2.60471 0
M  V30 7251 C 672.047 3.95679 2.13911 0
M  V30 7252 C 673.366 2.49292 3.62686 0
M  V30 7253 H 670.485 0.527244 0.514959 0
M  V30 7254 H 673.127 1.74733 0.74621 0
M  V30 7255 H 671.277 2.23254 3.17946 0
M  V30 7256 H 672.949 4.32116 1.61472 0
M  V30 7257 H 671.192 4.08733 1.45325 0
M  V30 7258 H 671.863 4.6395 2.99089 0
M  V30 7259 H 674.339 2.71917 3.14961 0
M  V30 7260 H 673.215 3.23907 4.43143 0
M  V30 7261 H 673.476 1.52502 4.14964 0
M  V30 7262 N 672.536 -0.895792 1.29666 0
M  V30 7263 C 673.486 -1.98736 1.1175 0
M  V30 7264 C 674.47 -1.6086 0.0357834 0
M  V30 7265 O 675.662 -1.75111 0.257926 0
M  V30 7266 C 672.791 -3.33845 0.800156 0
M  V30 7267 C 671.877 -3.78068 1.9216 0
M  V30 7268 N 672.268 -3.94489 3.16563 0
M  V30 7269 C 670.566 -4.07376 1.81552 0
M  V30 7270 C 671.267 -4.31819 3.89753 0
M  V30 7271 N 670.243 -4.41081 3.17724 0
M  V30 7272 H 674.045 -2.09507 2.06117 0
M  V30 7273 H 671.559 -1.08488 1.20848 0
M  V30 7274 H 673.556 -4.11757 0.652841 0
M  V30 7275 H 672.216 -3.24417 -0.135551 0
M  V30 7276 H 673.227 -3.79914 3.51974 0
M  V30 7277 H 669.904 -4.06483 0.952787 0
M  V30 7278 H 671.294 -4.52337 4.96831 0
M  V30 7279 N 674.014 -1.12206 -1.10668 0
M  V30 7280 C 674.961 -0.787716 -2.16942 0
M  V30 7281 C 675.931 0.244442 -1.64291 0
M  V30 7282 O 677.116 0.119558 -1.90425 0
M  V30 7283 C 674.256 -0.24584 -3.44223 0
M  V30 7284 C 673.369 -1.33552 -4.10838 0
M  V30 7285 C 672.504 -0.753337 -5.25831 0
M  V30 7286 C 671.543 -1.82231 -5.84344 0
M  V30 7287 N 670.68 -1.25902 -6.90719 0
M  V30 7288 H 675.52 -1.69809 -2.44885 0
M  V30 7289 H 673.057 -0.847862 -1.20207 0
M  V30 7290 H 675.015 0.0863639 -4.17111 0
M  V30 7291 H 673.645 0.627702 -3.16638 0
M  V30 7292 H 672.697 -1.78454 -3.35944 0
M  V30 7293 H 674.009 -2.14396 -4.50373 0
M  V30 7294 H 673.163 -0.37166 -6.05561 0
M  V30 7295 H 671.902 0.0863297 -4.87624 0
M  V30 7296 H 670.907 -2.2132 -5.03287 0
M  V30 7297 H 672.132 -2.66515 -6.24617 0
M  V30 7298 H 670.078 -0.44114 -6.54515 0
M  V30 7299 H 669.995 -2.00408 -7.28953 0
M  V30 7300 H 671.263 -0.904498 -7.74235 0
M  V30 7301 N 675.492 1.28418 -0.913599 0
M  V30 7302 C 676.439 2.27301 -0.400373 0
M  V30 7303 C 677.409 1.57582 0.52509 0
M  V30 7304 O 678.594 1.85482 0.447318 0
M  V30 7305 C 675.734 3.43284 0.35361 0
M  V30 7306 C 674.847 4.27752 -0.604341 0
M  V30 7307 C 673.982 5.30934 0.168075 0
M  V30 7308 C 673.021 6.07065 -0.783499 0
M  V30 7309 N 672.158 7.02086 -0.0446112 0
M  V30 7310 H 676.998 2.70579 -1.24865 0
M  V30 7311 H 674.535 1.33067 -0.627028 0
M  V30 7312 H 676.493 4.09322 0.806945 0
M  V30 7313 H 675.123 3.00997 1.16623 0
M  V30 7314 H 674.175 3.61759 -1.17621 0
M  V30 7315 H 675.487 4.80682 -1.33216 0
M  V30 7316 H 674.641 6.02855 0.681979 0
M  V30 7317 H 673.38 4.78771 0.928947 0
M  V30 7318 H 672.385 5.33995 -1.30878 0
M  V30 7319 H 673.61 6.61317 -1.54392 0
M  V30 7320 H 671.556 6.52273 0.698272 0
M  V30 7321 H 671.473 7.52637 -0.712258 0
M  V30 7322 H 672.741 7.78205 0.449102 0
M  V30 7323 N 676.97 0.677563 1.42291 0
M  V30 7324 C 678.218 0.200578 2.01102 0
M  V30 7325 C 678.539 -1.19803 1.53858 0
M  V30 7326 O 677.809 -1.80496 0.761439 0
M  V30 7327 H 676.389 0.0711634 0.743603 0
M  V30 7328 H 679.051 0.874691 1.7417 0
M  V30 7329 H 678.147 0.204 3.11433 0
M  V30 7330 N 678.448 -1.51871 0.421078 0
M  V30 7331 C 679.697 -2.01125 -0.152206 0
M  V30 7332 C 680.01 -1.3106 -1.45199 0
M  V30 7333 O 681.216 -1.71195 -2.10724 0
M  V30 7334 C 679.672 -3.58458 -0.3218 0
M  V30 7335 C 679.28 -4.37448 0.96659 0
M  V30 7336 C 681.024 -4.15908 -0.84973 0
M  V30 7337 C 678.931 -5.86451 0.763529 0
M  V30 7338 H 677.861 -0.751556 -0.0606565 0
M  V30 7339 H 680.512 -1.75115 0.548354 0
M  V30 7340 H 678.894 -3.80847 -1.08498 0
M  V30 7341 H 680.068 -4.26814 1.73684 0
M  V30 7342 H 678.383 -3.91373 1.42183 0
M  V30 7343 H 680.98 -5.24922 -1.01788 0
M  V30 7344 H 681.323 -3.74031 -1.82774 0
M  V30 7345 H 681.856 -3.97535 -0.145297 0
M  V30 7346 H 678.595 -6.3271 1.71344 0
M  V30 7347 H 678.115 -5.99791 0.0327889 0
M  V30 7348 H 679.794 -6.45697 0.410354 0
M  V30 7349 N 679.926 -0.151884 -1.56866 0
M  V30 7350 C 680.873 0.785936 -2.17006 0
M  V30 7351 C 681.843 1.2407 -1.10435 0
M  V30 7352 O 683.028 1.31235 -1.38499 0
M  V30 7353 C 680.168 2.01771 -2.79969 0
M  V30 7354 C 679.281 1.6083 -4.00946 0
M  V30 7355 C 678.416 2.79224 -4.51893 0
M  V30 7356 C 677.455 2.3468 -5.65324 0
M  V30 7357 N 676.592 3.461 -6.10867 0
M  V30 7358 H 681.432 0.266286 -2.96808 0
M  V30 7359 H 678.969 0.11972 -1.46612 0
M  V30 7360 H 680.927 2.73989 -3.14621 0
M  V30 7361 H 679.557 2.51139 -2.02803 0
M  V30 7362 H 678.609 0.783592 -3.72242 0
M  V30 7363 H 679.921 1.24119 -4.83111 0
M  V30 7364 H 679.075 3.59625 -4.88625 0
M  V30 7365 H 677.814 3.19183 -3.68746 0
M  V30 7366 H 676.819 1.52721 -5.28163 0
M  V30 7367 H 678.044 1.95801 -6.5026 0
M  V30 7368 H 675.99 3.85671 -5.30654 0
M  V30 7369 H 675.907 3.1342 -6.87971 0
M  V30 7370 H 677.175 4.26844 -6.52246 0
M  V30 7371 N 681.404 1.57128 0.121893 0
M  V30 7372 C 682.334 2.03165 1.15092 0
M  V30 7373 C 683.315 0.915587 1.43356 0
M  V30 7374 O 684.5 1.1851 1.53847 0
M  V30 7375 C 681.63 2.43352 2.47784 0
M  V30 7376 C 680.584 3.58376 2.33989 0
M  V30 7377 C 679.91 3.84454 3.71617 0
M  V30 7378 C 681.21 4.90199 1.80283 0
M  V30 7379 H 682.904 2.89382 0.768023 0
M  V30 7380 H 680.45 1.39218 0.367998 0
M  V30 7381 H 682.403 2.74163 3.20019 0
M  V30 7382 H 681.127 1.54103 2.87958 0
M  V30 7383 H 679.786 3.2777 1.64202 0
M  V30 7384 H 679.434 2.92414 4.09271 0
M  V30 7385 H 679.134 4.61877 3.6324 0
M  V30 7386 H 680.658 4.17714 4.45362 0
M  V30 7387 H 682.072 5.19565 2.42333 0
M  V30 7388 H 680.469 5.71601 1.82735 0
M  V30 7389 H 681.539 4.78904 0.760184 0
M  V30 7390 N 682.882 -0.391992 1.52647 0
M  V30 7391 C 684.159 -1.15136 1.58123 0
M  V30 7392 C 684.539 -2.07786 0.372597 0
M  V30 7393 O 683.887 -2.19374 -0.639304 0
M  V30 7394 C 684.097 -1.91367 2.91856 0
M  V30 7395 C 685.445 -2.46833 3.45483 0
M  V30 7396 O 686.469 -2.01527 2.9371 0
M  V30 7397 O 685.328 -3.29587 4.3593 0
M  V30 7398 H 682.422 -0.526649 0.637629 0
M  V30 7399 H 684.968 -0.397386 1.64982 0
M  V30 7400 H 683.74 -1.23597 3.71268 0
M  V30 7401 H 683.363 -2.73732 2.88369 0
M  V30 7402 N 684.36 -1.4356 -0.65026 0
M  V30 7403 C 685.608 -1.45046 -1.40734 0
M  V30 7404 C 685.929 -0.0769822 -1.94848 0
M  V30 7405 O 685.199 0.888098 -1.74613 0
M  V30 7406 H 683.779 -0.534034 -0.522318 0
M  V30 7407 H 686.441 -1.79186 -0.766703 0
M  V30 7408 H 685.537 -2.16476 -2.24822 0
M  V30 7409 N 685.838 0.888903 -1.30139 0
M  V30 7410 C 687.063 1.67884 -1.21777 0
M  V30 7411 C 687.488 1.86848 0.216689 0
M  V30 7412 O 686.846 1.39659 1.15608 0
M  V30 7413 C 686.894 3.03483 -1.94757 0
M  V30 7414 O 685.998 3.92294 -1.27198 0
M  V30 7415 H 685.339 0.513144 -0.421402 0
M  V30 7416 H 687.869 1.10968 -1.71893 0
M  V30 7417 H 687.879 3.53553 -2.03627 0
M  V30 7418 H 686.554 2.89 -2.99085 0
M  V30 7419 H 685.131 3.50732 -1.26655 0
M  V30 7420 N 687.317 1.12792 1.10072 0
M  V30 7421 C 688.267 0.768086 2.14673 0
M  V30 7422 C 689.251 -0.234716 1.59179 0
M  V30 7423 O 690.443 -0.039643 1.76956 0
M  V30 7424 C 687.572 0.228472 3.42539 0
M  V30 7425 C 686.658 1.25979 4.04957 0
M  V30 7426 N 687.049 2.4586 4.42025 0
M  V30 7427 C 685.347 1.10602 4.32069 0
M  V30 7428 C 686.048 3.11747 4.9111 0
M  V30 7429 N 685.024 2.39185 4.88151 0
M  V30 7430 H 688.826 1.68029 2.4113 0
M  V30 7431 H 686.34 1.00925 1.27232 0
M  V30 7432 H 688.337 -0.0475216 4.16873 0
M  V30 7433 H 686.997 -0.678136 3.1754 0
M  V30 7434 H 688.008 2.83215 4.33601 0
M  V30 7435 H 684.685 0.257021 4.16708 0
M  V30 7436 H 686.075 4.13862 5.29309 0
M  V30 7437 N 688.795 -1.27931 0.920396 0
M  V30 7438 C 690.206 -1.76707 0.602616 0
M  V30 7439 C 690.557 -1.75249 -0.882159 0
M  V30 7440 O 689.682 -1.35135 -1.69019 0
M  V30 7441 C 690.277 -3.20884 1.08714 0
M  V30 7442 C 688.836 -3.67356 0.820157 0
M  V30 7443 C 687.983 -2.47525 1.25006 0
M  V30 7444 H 690.934 -1.14301 1.10095 0
M  V30 7445 H 690.955 -3.78045 0.431535 0
M  V30 7446 H 690.467 -3.21913 2.1678 0
M  V30 7447 H 688.568 -3.7178 -0.247012 0
M  V30 7448 H 688.681 -4.57181 1.43257 0
M  V30 7449 H 687.045 -2.45765 0.668698 0
M  V30 7450 H 687.828 -2.51269 2.3392 0
M  V30 7451 N 690.273 -0.685099 -1.4193 0
M  V30 7452 C 691.236 -0.0222632 -2.29189 0
M  V30 7453 C 692.236 0.7186 -1.4385 0
M  V30 7454 O 693.426 0.555058 -1.6512 0
M  V30 7455 C 690.558 0.979013 -3.2654 0
M  V30 7456 H 691.751 -0.790424 -2.89296 0
M  V30 7457 H 689.304 -0.448012 -1.49742 0
M  V30 7458 H 690.039 1.77531 -2.71392 0
M  V30 7459 H 689.824 0.451037 -3.89497 0
M  V30 7460 H 691.314 1.44091 -3.91954 0
M  V30 7461 N 691.751 1.51645 -0.429126 0
M  V30 7462 C 692.998 2.02015 0.140079 0
M  V30 7463 C 693.326 1.31374 1.43427 0
M  V30 7464 O 692.581 0.414779 1.91254 0
M  V30 7465 C 692.88 3.54989 0.414472 0
M  V30 7466 C 692.546 4.43874 -0.792911 0
M  V30 7467 C 691.208 4.67887 -1.12404 0
M  V30 7468 C 693.56 4.96074 -1.59875 0
M  V30 7469 C 690.888 5.41348 -2.26184 0
M  V30 7470 C 693.24 5.70782 -2.72747 0
M  V30 7471 C 691.904 5.93062 -3.06324 0
M  V30 7472 H 691.174 0.739225 0.0512585 0
M  V30 7473 H 693.821 1.82675 -0.574641 0
M  V30 7474 H 692.126 3.72615 1.21099 0
M  V30 7475 H 693.823 3.91489 0.868173 0
M  V30 7476 H 690.413 4.25374 -0.524871 0
M  V30 7477 H 694.597 4.77412 -1.35614 0
M  V30 7478 H 689.853 5.56815 -2.52522 0
M  V30 7479 H 694.027 6.10221 -3.35564 0
M  V30 7480 H 691.654 6.49764 -3.94602 0
M  V30 7481 N 693.229 0.160201 1.56784 0
M  V30 7482 C 694.159 -0.770264 2.2043 0
M  V30 7483 C 695.14 -1.24736 1.15651 0
M  V30 7484 O 696.325 -1.30253 1.44041 0
M  V30 7485 C 693.455 -2.00427 2.83631 0
M  V30 7486 C 692.409 -1.66345 3.94352 0
M  V30 7487 C 691.735 -2.97119 4.4455 0
M  V30 7488 C 693.035 -0.899972 5.14488 0
M  V30 7489 H 694.729 -0.239783 2.98438 0
M  V30 7490 H 692.275 -0.113891 1.43549 0
M  V30 7491 H 694.228 -2.66012 3.26827 0
M  V30 7492 H 692.952 -2.5587 2.02973 0
M  V30 7493 H 691.611 -1.03133 3.51794 0
M  V30 7494 H 691.259 -3.5058 3.60698 0
M  V30 7495 H 690.959 -2.75073 5.19238 0
M  V30 7496 H 692.483 -3.63753 4.90425 0
M  V30 7497 H 693.897 -1.45818 5.54446 0
M  V30 7498 H 692.294 -0.778968 5.95023 0
M  V30 7499 H 693.364 0.105827 4.84785 0
M  V30 7500 N 694.707 -1.5719 -0.113559 0
M  V30 7501 C 695.937 -1.89053 -0.833212 0
M  V30 7502 C 696.345 -0.750139 -1.73694 0
M  V30 7503 O 695.688 0.287808 -1.81431 0
M  V30 7504 C 695.75 -3.15986 -1.71443 0
M  V30 7505 C 695.414 -4.46271 -0.984449 0
M  V30 7506 C 696.411 -5.18897 -0.322741 0
M  V30 7507 C 694.096 -4.92963 -0.964011 0
M  V30 7508 C 696.09 -6.3644 0.349646 0
M  V30 7509 C 693.777 -6.10422 -0.287828 0
M  V30 7510 C 694.775 -6.82009 0.36784 0
M  V30 7511 O 694.463 -7.97233 1.03322 0
M  V30 7512 H 694.195 -0.630225 -0.244526 0
M  V30 7513 H 696.749 -2.05152 -0.100847 0
M  V30 7514 H 694.979 -2.95984 -2.48858 0
M  V30 7515 H 696.668 -3.33826 -2.309 0
M  V30 7516 H 697.434 -4.83875 -0.330114 0
M  V30 7517 H 693.313 -4.37143 -1.46379 0
M  V30 7518 H 696.857 -6.92254 0.861996 0
M  V30 7519 H 692.754 -6.449 -0.278237 0
M  V30 7520 H 693.522 -8.13105 0.938247 0
M  V30 7521 N 696.185 0.383891 -1.52853 0
M  V30 7522 C 697.433 1.12619 -1.67814 0
M  V30 7523 C 697.754 1.90354 -0.423141 0
M  V30 7524 O 697.024 1.87649 0.562554 0
M  V30 7525 H 695.604 0.418738 -0.618601 0
M  V30 7526 H 698.266 0.43495 -1.89985 0
M  V30 7527 H 697.362 1.82624 -2.5309 0
M  V30 7528 N 697.663 1.43903 0.642637 0
M  V30 7529 C 698.893 1.49323 1.4278 0
M  V30 7530 C 699.301 0.113058 1.88862 0
M  V30 7531 O 698.644 -0.889089 1.60751 0
M  V30 7532 C 698.706 2.3861 2.68897 0
M  V30 7533 C 698.37 3.85976 2.44687 0
M  V30 7534 C 699.367 4.7681 2.07239 0
M  V30 7535 C 697.052 4.30567 2.58683 0
M  V30 7536 C 699.046 6.10234 1.841 0
M  V30 7537 C 696.733 5.64042 2.35159 0
M  V30 7538 C 697.731 6.53693 1.97925 0
M  V30 7539 O 697.419 7.84698 1.74654 0
M  V30 7540 H 697.151 0.509109 0.444729 0
M  V30 7541 H 699.705 1.89425 0.794195 0
M  V30 7542 H 697.935 1.93415 3.34855 0
M  V30 7543 H 699.624 2.35112 3.30873 0
M  V30 7544 H 700.39 4.43635 1.95993 0
M  V30 7545 H 696.269 3.61054 2.86637 0
M  V30 7546 H 699.813 6.80171 1.54962 0
M  V30 7547 H 695.71 5.96782 2.46011 0
M  V30 7548 H 696.478 7.96382 1.88993 0
M  V30 7549 N 699.141 -0.881989 1.30609 0
M  V30 7550 C 700.389 -1.63082 1.19368 0
M  V30 7551 C 700.71 -1.93376 -0.251147 0
M  V30 7552 O 699.98 -1.5723 -1.16857 0
M  V30 7553 H 698.56 -0.604542 0.438791 0
M  V30 7554 H 701.222 -1.05658 1.63776 0
M  V30 7555 H 700.318 -2.57966 1.7567 0
M  V30 7556 N 700.619 -1.13374 -1.09472 0
M  V30 7557 C 701.867 -0.893422 -1.8128 0
M  V30 7558 C 702.188 0.582029 -1.86111 0
M  V30 7559 O 701.458 1.42305 -1.34633 0
M  V30 7560 H 700.038 -0.327543 -0.67136 0
M  V30 7561 H 702.7 -1.43018 -1.32408 0
M  V30 7562 H 701.796 -1.28374 -2.84476 0
M  V30 7563 N 702.098 1.27442 -0.927168 0
M  V30 7564 C 703.345 1.94391 -0.567324 0
M  V30 7565 C 703.673 1.72875 0.891321 0
M  V30 7566 O 702.928 1.05071 1.65102 0
M  V30 7567 C 703.227 3.47413 -0.838994 0
M  V30 7568 C 702.893 3.89049 -2.2793 0
M  V30 7569 C 701.555 4.00127 -2.67305 0
M  V30 7570 C 703.907 4.10154 -3.21595 0
M  V30 7571 C 701.235 4.29697 -3.99471 0
M  V30 7572 C 703.587 4.41208 -4.53341 0
M  V30 7573 C 702.251 4.50499 -4.92551 0
M  V30 7574 H 701.521 0.711325 -0.207598 0
M  V30 7575 H 704.168 1.51523 -1.17103 0
M  V30 7576 H 702.473 3.91503 -0.152609 0
M  V30 7577 H 704.17 3.97354 -0.53955 0
M  V30 7578 H 700.76 3.80962 -1.96381 0
M  V30 7579 H 704.944 4.01036 -2.92377 0
M  V30 7580 H 700.2 4.35099 -4.29533 0
M  V30 7581 H 704.374 4.56486 -5.25922 0
M  V30 7582 H 702.001 4.73167 -5.94994 0
M  V30 7583 N 703.576 0.692616 1.41565 0
M  V30 7584 C 704.524 0.0139952 2.32596 0
M  V30 7585 C 705.518 -0.771691 1.50802 0
M  V30 7586 O 706.724 -0.677646 1.66757 0
M  V30 7587 H 703.099 -0.0142745 0.751865 0
M  V30 7588 H 705.07 0.798851 2.87508 0
M  V30 7589 C 703.819 -0.910602 3.35564 0
M  V30 7590 H 703.142 -0.315446 3.98554 0
M  V30 7591 H 704.582 -1.3538 4.01806 0
M  V30 7592 C 703.041 -2.02539 2.6922 0
M  V30 7593 O 703.571 -3.11386 2.53775 0
M  V30 7594 N 701.777 -1.80227 2.27962 0
M  V30 7595 H 701.324 -0.917054 2.40724 0
M  V30 7596 H 701.282 -2.55001 1.83907 0
M  V30 7597 N 705.054 -1.51416 0.437162 0
M  V30 7598 C 706.303 -2.01275 -0.130865 0
M  V30 7599 C 706.616 -1.32593 -1.438 0
M  V30 7600 O 707.822 -1.7342 -2.08897 0
M  V30 7601 C 706.278 -3.5878 -0.283763 0
M  V30 7602 C 705.886 -4.36399 1.01293 0
M  V30 7603 C 707.63 -4.16786 -0.805569 0
M  V30 7604 C 705.537 -5.85608 0.825687 0
M  V30 7605 H 704.467 -0.752157 -0.0526818 0
M  V30 7606 H 707.118 -1.74524 0.566896 0
M  V30 7607 H 705.5 -3.81976 -1.04452 0
M  V30 7608 H 706.674 -4.24948 1.78201 0
M  V30 7609 H 704.989 -3.89843 1.46326 0
M  V30 7610 H 707.586 -5.25972 -0.962146 0
M  V30 7611 H 707.929 -3.75949 -1.78796 0
M  V30 7612 H 708.462 -3.97666 -0.103125 0
M  V30 7613 H 705.201 -6.30857 1.78045 0
M  V30 7614 H 704.721 -5.99723 0.0964029 0
M  V30 7615 H 706.4 -6.45226 0.478815 0
M  V30 7616 N 706.532 -0.168513 -1.56696 0
M  V30 7617 C 707.757 0.486688 -2.01609 0
M  V30 7618 C 708.182 1.56203 -1.04796 0
M  V30 7619 O 707.54 1.8128 -0.0270596 0
M  V30 7620 C 707.588 1.04451 -3.45141 0
M  V30 7621 O 706.692 2.15862 -3.51393 0
M  V30 7622 H 706.033 0.116831 -0.653641 0
M  V30 7623 H 708.563 -0.271579 -2.0279 0
M  V30 7624 H 708.573 1.36782 -3.84389 0
M  V30 7625 H 707.248 0.257155 -4.15104 0
M  V30 7626 H 705.825 1.84597 -3.24004 0
M  V30 7627 N 708.01 1.57248 0.105221 0
M  V30 7628 C 709.259 1.84756 0.809198 0
M  V30 7629 C 709.572 0.756262 1.80389 0
M  V30 7630 O 710.778 0.918158 2.55504 0
M  V30 7631 C 709.234 3.27613 1.48989 0
M  V30 7632 C 708.842 4.44788 0.535484 0
M  V30 7633 C 710.586 3.64356 2.17819 0
M  V30 7634 C 708.493 5.78676 1.22019 0
M  V30 7635 H 707.423 0.689139 0.305946 0
M  V30 7636 H 710.074 1.83395 0.0620371 0
M  V30 7637 H 708.456 3.23485 2.28415 0
M  V30 7638 H 709.63 4.60243 -0.226557 0
M  V30 7639 H 707.945 4.16374 -0.0465769 0
M  V30 7640 H 710.542 4.61663 2.69761 0
M  V30 7641 H 710.885 2.92474 2.96251 0
M  V30 7642 H 711.418 3.70328 1.45264 0
M  V30 7643 H 708.157 6.53763 0.476875 0
M  V30 7644 H 707.677 5.67083 1.9539 0
M  V30 7645 H 709.356 6.22897 1.74952 0
M  V30 7646 N 709.488 -0.375779 1.53054 0
M  V30 7647 C 710.716 -1.14036 1.72637 0
M  V30 7648 C 711.131 -1.83342 0.450687 0
M  V30 7649 O 710.488 -1.7318 -0.575749 0
M  V30 7650 C 710.539 -2.17841 2.88492 0
M  V30 7651 O 710.26 -1.51358 4.11123 0
M  V30 7652 C 711.761 -3.06924 3.19863 0
M  V30 7653 H 708.981 -0.341386 0.577665 0
M  V30 7654 H 711.525 -0.437809 1.99759 0
M  V30 7655 H 709.68 -2.8371 2.63794 0
M  V30 7656 H 710.094 -2.20439 4.75928 0
M  V30 7657 H 711.568 -3.75763 4.04359 0
M  V30 7658 H 712.045 -3.71169 2.34798 0
M  V30 7659 H 712.651 -2.46684 3.46449 0
M  V30 7660 N 710.966 -1.44241 -0.634997 0
M  V30 7661 C 712.377 -1.41622 -1.21655 0
M  V30 7662 C 712.728 -0.129584 -1.95772 0
M  V30 7663 O 711.853 0.770225 -2.02229 0
M  V30 7664 C 712.448 -2.56557 -2.21278 0
M  V30 7665 C 711.007 -2.57145 -2.7487 0
M  V30 7666 C 710.154 -2.33354 -1.49804 0
M  V30 7667 H 713.105 -1.52878 -0.425905 0
M  V30 7668 H 713.126 -2.29089 -3.03807 0
M  V30 7669 H 712.638 -3.50186 -1.67306 0
M  V30 7670 H 710.739 -1.67447 -3.32855 0
M  V30 7671 H 710.852 -3.55507 -3.21172 0
M  V30 7672 H 709.216 -1.82372 -1.77799 0
M  V30 7673 H 709.999 -3.29092 -0.977402 0
M  V30 7674 N 712.444 0.87505 -1.31075 0
M  V30 7675 C 713.392 2.00317 -1.18219 0
M  V30 7676 C 714.386 1.69152 -0.0916872 0
M  V30 7677 O 715.592 1.7821 -0.253229 0
M  V30 7678 H 711.967 0.656981 -0.365895 0
M  V30 7679 H 713.938 2.08293 -2.13674 0
M  V30 7680 C 712.687 3.35821 -0.901095 0
M  V30 7681 H 712.01 3.6032 -1.73233 0
M  V30 7682 H 713.45 4.15366 -0.851295 0
M  V30 7683 C 711.909 3.34563 0.396114 0
M  V30 7684 O 712.439 3.75971 1.41452 0
M  V30 7685 N 710.645 2.87681 0.410832 0
M  V30 7686 H 710.192 2.54179 -0.418415 0
M  V30 7687 H 710.15 2.87223 1.27869 0
M  V30 7688 N 713.922 1.13953 1.08869 0
M  V30 7689 C 715.152 0.926825 1.84644 0
M  V30 7690 C 715.56 -0.527941 1.81685 0
M  V30 7691 O 714.903 -1.37742 1.21543 0
M  V30 7692 C 714.965 1.34416 3.33426 0
M  V30 7693 C 714.629 2.81351 3.60126 0
M  V30 7694 C 715.626 3.79486 3.55368 0
M  V30 7695 C 713.311 3.1865 3.88288 0
M  V30 7696 C 715.305 5.1293 3.78393 0
M  V30 7697 C 712.992 4.5227 4.10968 0
M  V30 7698 C 713.99 5.4922 4.06013 0
M  V30 7699 O 713.678 6.80429 4.28102 0
M  V30 7700 H 713.41 0.33013 0.589907 0
M  V30 7701 H 715.964 1.51738 1.38436 0
M  V30 7702 H 714.194 0.696901 3.80368 0
M  V30 7703 H 715.883 1.10302 3.90626 0
M  V30 7704 H 716.649 3.52017 3.3363 0
M  V30 7705 H 712.528 2.43785 3.91267 0
M  V30 7706 H 716.072 5.88591 3.74442 0
M  V30 7707 H 711.969 4.79462 4.32188 0
M  V30 7708 H 712.737 6.86617 4.45533 0
M  V30 7709 N 715.4 -1.26948 0.933913 0
M  V30 7710 C 716.625 -1.98724 0.593589 0
M  V30 7711 C 717.05 -1.6915 -0.822801 0
M  V30 7712 O 716.408 -0.93533 -1.5531 0
M  V30 7713 C 716.456 -3.50834 0.833542 0
M  V30 7714 O 715.56 -4.12284 -0.0978788 0
M  V30 7715 H 714.901 -0.623683 0.227849 0
M  V30 7716 H 717.431 -1.61599 1.25486 0
M  V30 7717 H 717.441 -4.01018 0.75156 0
M  V30 7718 H 716.116 -3.71691 1.86597 0
M  V30 7719 H 714.693 -3.72884 0.0345443 0
M  V30 7720 N 716.879 -0.700114 -1.41195 0
M  V30 7721 C 718.125 -0.233351 -2.01453 0
M  V30 7722 C 718.458 1.16548 -1.55339 0
M  V30 7723 O 717.733 1.78756 -0.766575 0
M  V30 7724 C 718.016 -0.2961 -3.58881 0
M  V30 7725 C 717.869 -1.7322 -4.15108 0
M  V30 7726 C 719.188 0.341525 -4.38773 0
M  V30 7727 H 716.307 -0.0862667 -0.731934 0
M  V30 7728 H 718.949 -0.889693 -1.67882 0
M  V30 7729 H 717.099 0.262736 -3.87611 0
M  V30 7730 H 718.771 -2.34523 -3.97236 0
M  V30 7731 H 717.014 -2.2649 -3.69979 0
M  V30 7732 H 717.685 -1.7276 -5.24269 0
M  V30 7733 H 720.161 -0.134461 -4.15883 0
M  V30 7734 H 719.037 0.267098 -5.4825 0
M  V30 7735 H 719.298 1.42289 -4.18577 0
M  V30 7736 N 718.357 1.51182 -0.445186 0
M  V30 7737 C 719.582 2.07056 0.119445 0
M  V30 7738 C 720.007 1.30966 1.35016 0
M  V30 7739 O 719.365 0.349827 1.77893 0
M  V30 7740 C 719.413 3.58234 0.412428 0
M  V30 7741 O 718.517 3.84249 1.49754 0
M  V30 7742 H 717.858 0.663998 -0.00157797 0
M  V30 7743 H 720.388 1.94699 -0.628779 0
M  V30 7744 H 720.398 4.02617 0.660583 0
M  V30 7745 H 719.073 4.13038 -0.487049 0
M  V30 7746 H 717.65 3.51724 1.23873 0
M  V30 7747 N 719.835 0.176821 1.56605 0
M  V30 7748 C 721.251 -0.179278 1.5859 0
M  V30 7749 C 721.451 -1.62433 1.19238 0
M  V30 7750 O 720.507 -2.35665 0.906552 0
M  V30 7751 C 721.82 0.106524 3.00511 0
M  V30 7752 C 723.368 0.0451731 3.12967 0
M  V30 7753 C 723.843 0.304038 4.5699 0
M  V30 7754 N 725.334 0.252008 4.62514 0
M  V30 7755 C 726.069 0.426404 5.71812 0
M  V30 7756 N 725.565 0.660155 6.89648 0
M  V30 7757 N 727.358 0.361926 5.60934 0
M  V30 7758 H 719.509 1.12001 1.8047 0
M  V30 7759 H 721.772 0.445679 0.836704 0
M  V30 7760 H 721.478 1.10778 3.33798 0
M  V30 7761 H 721.352 -0.599337 3.72408 0
M  V30 7762 H 723.739 -0.946662 2.79504 0
M  V30 7763 H 723.82 0.78383 2.43495 0
M  V30 7764 H 723.464 1.29311 4.91163 0
M  V30 7765 H 723.394 -0.455294 5.24628 0
M  V30 7766 H 725.885 0.0772102 3.77821 0
M  V30 7767 H 726.198 0.782529 7.68828 0
M  V30 7768 H 724.543 0.696835 6.91498 0
M  V30 7769 H 727.734 0.17986 4.67754 0
M  V30 7770 H 727.907 0.501263 6.46058 0
M  V30 7771 N 721.313 -1.57302 -0.09688 0
M  V30 7772 C 722.243 -2.0497 -1.11846 0
M  V30 7773 C 723.224 -0.938278 -1.41882 0
M  V30 7774 O 724.409 -1.20943 -1.51942 0
M  V30 7775 C 721.539 -2.47264 -2.43881 0
M  V30 7776 C 720.493 -3.62053 -2.28257 0
M  V30 7777 C 719.819 -3.90318 -3.65453 0
M  V30 7778 C 721.119 -4.93005 -1.72461 0
M  V30 7779 H 722.813 -2.90567 -0.721888 0
M  V30 7780 H 720.359 -1.39786 -0.345803 0
M  V30 7781 H 722.312 -2.7922 -3.15617 0
M  V30 7782 H 721.036 -1.58664 -2.8547 0
M  V30 7783 H 719.695 -3.30341 -1.58967 0
M  V30 7784 H 719.343 -2.98889 -4.04567 0
M  V30 7785 H 719.043 -4.67597 -3.55846 0
M  V30 7786 H 720.567 -4.24747 -4.3866 0
M  V30 7787 H 721.981 -5.23354 -2.34036 0
M  V30 7788 H 720.378 -5.74436 -1.73618 0
M  V30 7789 H 721.448 -4.80053 -0.683898 0
M  V30 7790 N 722.791 0.367657 -1.53252 0
M  V30 7791 C 724.04 1.10782 -1.68554 0
M  V30 7792 C 724.353 1.90523 -0.442765 0
M  V30 7793 O 725.559 2.6729 -0.47629 0
M  V30 7794 C 724.015 2.01863 -2.97959 0
M  V30 7795 C 723.623 1.27443 -4.29491 0
M  V30 7796 C 725.367 2.75883 -3.22628 0
M  V30 7797 C 723.274 2.17414 -5.49987 0
M  V30 7798 H 722.204 0.417272 -0.628013 0
M  V30 7799 H 724.855 0.368971 -1.79752 0
M  V30 7800 H 723.237 2.7947 -2.80558 0
M  V30 7801 H 724.411 0.549138 -4.57516 0
M  V30 7802 H 722.726 0.652935 -4.11249 0
M  V30 7803 H 725.323 3.43421 -4.09837 0
M  V30 7804 H 725.666 3.41138 -2.38601 0
M  V30 7805 H 726.199 2.0536 -3.40693 0
M  V30 7806 H 722.938 1.5674 -6.36485 0
M  V30 7807 H 722.458 2.87799 -5.26243 0
M  V30 7808 H 724.137 2.77019 -5.84696 0
M  V30 7809 N 724.269 1.44576 0.627338 0
M  V30 7810 C 725.516 1.47558 1.38682 0
M  V30 7811 C 725.844 0.109636 1.94191 0
M  V30 7812 O 725.099 -0.889092 1.74338 0
M  V30 7813 C 725.398 2.48644 2.56731 0
M  V30 7814 C 725.064 3.93873 2.19489 0
M  V30 7815 C 723.726 4.33421 2.09045 0
M  V30 7816 C 726.078 4.85286 1.90124 0
M  V30 7817 C 723.406 5.62303 1.6743 0
M  V30 7818 C 725.758 6.14559 1.50001 0
M  V30 7819 C 724.422 6.53058 1.38101 0
M  V30 7820 H 723.692 0.539955 0.507474 0
M  V30 7821 H 726.339 1.77811 0.711021 0
M  V30 7822 H 724.644 2.11889 3.29561 0
M  V30 7823 H 726.341 2.48197 3.14959 0
M  V30 7824 H 722.931 3.62587 2.28537 0
M  V30 7825 H 727.115 4.55483 1.971 0
M  V30 7826 H 722.371 5.90945 1.56823 0
M  V30 7827 H 726.545 6.84848 1.26319 0
M  V30 7828 H 724.172 7.52826 1.05628 0
M  V30 7829 N 725.747 -0.868086 1.31537 0
M  V30 7830 C 726.993 -1.62367 1.2151 0
M  V30 7831 C 727.326 -1.92883 -0.225819 0
M  V30 7832 O 726.601 -1.56176 -1.15927 0
M  V30 7833 C 726.884 -2.95268 2.06129 0
M  V30 7834 C 726.737 -2.71619 3.58529 0
M  V30 7835 C 728.056 -3.96391 1.91212 0
M  V30 7836 H 725.175 -0.589178 0.442762 0
M  V30 7837 H 727.817 -1.00336 1.61347 0
M  V30 7838 H 725.967 -3.4821 1.72284 0
M  V30 7839 H 727.639 -2.25334 4.0252 0
M  V30 7840 H 725.882 -2.05817 3.81866 0
M  V30 7841 H 726.553 -3.66192 4.13047 0
M  V30 7842 H 729.029 -3.52663 2.20834 0
M  V30 7843 H 727.905 -4.87263 2.52718 0
M  V30 7844 H 728.166 -4.33335 0.875953 0
M  V30 7845 N 727.225 -1.14528 -1.08264 0
M  V30 7846 C 728.641 -0.885976 -1.3275 0
M  V30 7847 C 728.841 0.472096 -1.95892 0
M  V30 7848 O 727.897 1.21606 -2.21288 0
M  V30 7849 C 729.21 -2.01982 -2.22764 0
M  V30 7850 C 730.758 -2.05329 -2.36239 0
M  V30 7851 C 731.233 -3.1801 -3.29596 0
M  V30 7852 N 732.724 -3.17598 -3.37173 0
M  V30 7853 C 733.459 -4.01426 -4.09444 0
M  V30 7854 N 732.955 -4.95297 -4.8441 0
M  V30 7855 N 734.748 -3.89482 -4.0529 0
M  V30 7856 H 726.899 -2.01996 -0.656607 0
M  V30 7857 H 729.162 -0.880274 -0.351884 0
M  V30 7858 H 728.868 -2.99964 -1.83615 0
M  V30 7859 H 728.742 -1.94421 -3.23234 0
M  V30 7860 H 731.129 -1.07953 -2.74646 0
M  V30 7861 H 731.21 -2.1696 -1.35506 0
M  V30 7862 H 730.854 -4.15633 -2.9191 0
M  V30 7863 H 730.784 -3.03616 -4.30261 0
M  V30 7864 H 733.275 -2.4961 -2.83731 0
M  V30 7865 H 733.588 -5.55723 -5.37021 0
M  V30 7866 H 731.933 -4.99293 -4.83457 0
M  V30 7867 H 735.124 -3.15465 -3.45832 0
M  V30 7868 H 735.297 -4.55039 -4.6135 0
M  V30 7869 N 728.703 1.26451 -0.940633 0
M  V30 7870 C 729.653 2.24086 -0.420669 0
M  V30 7871 C 730.637 1.53501 0.482301 0
M  V30 7872 O 731.829 1.74127 0.317636 0
M  V30 7873 C 728.958 3.41866 0.313452 0
M  V30 7874 C 728.044 4.19737 -0.606779 0
M  V30 7875 N 728.435 4.7521 -1.73232 0
M  V30 7876 C 726.733 4.44091 -0.41226 0
M  V30 7877 C 727.434 5.34052 -2.30572 0
M  V30 7878 N 726.41 5.1971 -1.59381 0
M  V30 7879 H 730.212 2.64569 -1.27986 0
M  V30 7880 H 727.726 1.4153 -0.796436 0
M  V30 7881 H 729.723 4.1093 0.702991 0
M  V30 7882 H 728.383 3.0291 1.16942 0
M  V30 7883 H 729.394 4.72769 -2.11447 0
M  V30 7884 H 726.071 4.1556 0.401984 0
M  V30 7885 H 727.461 5.87845 -3.25404 0
M  V30 7886 N 730.181 0.707592 1.40822 0
M  V30 7887 C 731.114 -0.000859377 2.282 0
M  V30 7888 C 732.092 -0.7758 1.42899 0
M  V30 7889 O 733.276 -0.76411 1.72318 0
M  V30 7890 C 730.403 -1.00861 3.23334 0
M  V30 7891 C 729.449 -0.32543 4.25257 0
M  V30 7892 S 730.282 0.940908 5.27169 0
M  V30 7893 C 731.438 -0.0649459 6.25866 0
M  V30 7894 H 731.671 0.740207 2.87938 0
M  V30 7895 H 729.204 0.498311 1.46138 0
M  V30 7896 H 731.162 -1.58485 3.78672 0
M  V30 7897 H 729.823 -1.72233 2.62668 0
M  V30 7898 H 729.016 -1.08697 4.92139 0
M  V30 7899 H 728.618 0.178044 3.73576 0
M  V30 7900 H 730.91 -0.914377 6.71301 0
M  V30 7901 H 731.853 0.570276 7.058 0
M  V30 7902 H 732.261 -0.425098 5.62897 0
M  V30 7903 N 731.66 -1.50943 0.453197 0
M  V30 7904 C 732.908 -2.01813 -0.107709 0
M  V30 7905 C 733.229 -1.33841 -1.41816 0
M  V30 7906 O 732.499 -0.477973 -1.8998 0
M  V30 7907 H 731.079 -0.745773 -0.0427948 0
M  V30 7908 H 733.741 -1.8545 0.599531 0
M  V30 7909 H 732.837 -3.10911 -0.27218 0
M  V30 7910 N 733.138 -0.185124 -1.56509 0
M  V30 7911 C 734.386 0.455357 -1.96903 0
M  V30 7912 C 734.707 1.62839 -1.07277 0
M  V30 7913 O 733.977 1.95385 -0.141966 0
M  V30 7914 H 732.557 0.171218 -0.727113 0
M  V30 7915 H 735.219 -0.26953 -1.93027 0
M  V30 7916 H 734.315 0.80616 -3.01509 0
M  V30 7917 N 734.616 1.57351 0.0885366 0
M  V30 7918 C 735.865 1.85604 0.789556 0
M  V30 7919 C 736.178 0.775352 1.79576 0
M  V30 7920 O 737.384 0.945206 2.54515 0
M  V30 7921 C 735.84 3.29175 1.45506 0
M  V30 7922 C 735.448 4.45331 0.488278 0
M  V30 7923 C 737.192 3.66646 2.13942 0
M  V30 7924 C 735.099 5.79937 1.15874 0
M  V30 7925 H 734.029 0.692346 0.298619 0
M  V30 7926 H 736.68 1.83451 0.0425821 0
M  V30 7927 H 735.062 3.25889 2.24972 0
M  V30 7928 H 736.236 4.59977 -0.275359 0
M  V30 7929 H 734.551 4.16301 -0.0907363 0
M  V30 7930 H 737.148 4.64498 2.6485 0
M  V30 7931 H 737.491 2.956 2.93132 0
M  V30 7932 H 738.024 3.71848 1.41328 0
M  V30 7933 H 734.763 6.54232 0.407508 0
M  V30 7934 H 734.283 5.69123 1.89364 0
M  V30 7935 H 735.962 6.24718 1.68336 0
M  V30 7936 N 736.094 -0.359525 1.53444 0
M  V30 7937 C 737.024 -1.44662 1.8329 0
M  V30 7938 C 738.005 -1.55617 0.68683 0
M  V30 7939 O 739.19 -1.70086 0.93725 0
M  V30 7940 C 736.32 -2.81923 2.02822 0
M  V30 7941 C 735.274 -2.85787 3.18606 0
M  V30 7942 C 734.6 -4.25781 3.23442 0
M  V30 7943 C 735.9 -2.52762 4.57065 0
M  V30 7944 H 737.594 -1.19934 2.74329 0
M  V30 7945 H 735.14 -0.575517 1.31999 0
M  V30 7946 H 737.093 -3.58005 2.22285 0
M  V30 7947 H 735.817 -3.08051 1.085 0
M  V30 7948 H 734.476 -2.12157 2.98973 0
M  V30 7949 H 734.124 -4.48994 2.26745 0
M  V30 7950 H 733.824 -4.29281 4.01238 0
M  V30 7951 H 735.348 -5.03727 3.45096 0
M  V30 7952 H 736.762 -3.18557 4.76649 0
M  V30 7953 H 735.159 -2.67569 5.37147 0
M  V30 7954 H 736.229 -1.47993 4.61764 0
M  V30 7955 N 737.572 -1.44907 -0.619662 0
M  V30 7956 C 738.535 -1.52282 -1.71297 0
M  V30 7957 C 739.535 -0.40359 -1.55653 0
M  V30 7958 O 740.725 -0.666638 -1.6094 0
M  V30 7959 C 737.857 -1.40778 -3.10474 0
M  V30 7960 H 739.05 -2.49683 -1.66128 0
M  V30 7961 H 736.603 -1.32168 -0.834339 0
M  V30 7962 H 737.338 -0.445156 -3.2123 0
M  V30 7963 H 737.123 -2.21947 -3.23237 0
M  V30 7964 H 738.613 -1.48946 -3.90135 0
M  V30 7965 N 739.05 0.861098 -1.31996 0
M  V30 7966 C 740.296 1.61721 -1.22369 0
M  V30 7967 C 740.629 1.93 0.215587 0
M  V30 7968 O 739.904 1.56789 1.15098 0
M  V30 7969 C 740.187 2.9417 -2.07691 0
M  V30 7970 C 740.04 2.69714 -3.59965 0
M  V30 7971 C 741.359 3.95372 -1.93312 0
M  V30 7972 H 738.478 0.586822 -0.44588 0
M  V30 7973 H 741.12 0.994788 -1.61876 0
M  V30 7974 H 739.27 3.47292 -1.74128 0
M  V30 7975 H 740.942 2.23196 -4.03709 0
M  V30 7976 H 739.185 2.03789 -3.82952 0
M  V30 7977 H 739.856 3.63996 -4.14983 0
M  V30 7978 H 742.332 3.51487 -2.22701 0
M  V30 7979 H 741.208 4.85916 -2.55298 0
M  V30 7980 H 741.469 4.32865 -0.898922 0
M  V30 7981 N 740.528 1.15101 1.07655 0
M  V30 7982 C 741.491 0.847625 2.12951 0
M  V30 7983 C 742.491 -0.151227 1.60087 0
M  V30 7984 O 743.681 0.0780399 1.74025 0
M  V30 7985 C 740.813 0.265 3.39868 0
M  V30 7986 H 742.006 1.7809 2.41296 0
M  V30 7987 H 739.559 0.958072 1.23494 0
M  V30 7988 H 740.294 -0.676625 3.17163 0
M  V30 7989 H 740.079 0.984554 3.79538 0
M  V30 7990 H 741.569 0.0702121 4.17541 0
M  V30 7991 N 742.006 -1.2595 0.947325 0
M  V30 7992 C 742.954 -2.28152 0.452687 0
M  V30 7993 C 743.948 -1.62655 -0.473239 0
M  V30 7994 O 745.154 -1.76549 -0.350774 0
M  V30 7995 H 741.529 -0.741049 0.12787 0
M  V30 7996 H 743.5 -2.67267 1.32707 0
M  V30 7997 C 742.249 -3.46719 -0.26098 0
M  V30 7998 H 741.572 -3.97345 0.442352 0
M  V30 7999 H 743.012 -4.20135 -0.571208 0
M  V30 8000 C 741.471 -3.02605 -1.48094 0
M  V30 8001 O 742.001 -3.07979 -2.57899 0
M  V30 8002 N 740.207 -2.57877 -1.33969 0
M  V30 8003 H 739.754 -2.53704 -0.446295 0
M  V30 8004 H 739.712 -2.28725 -2.15713 0
M  V30 8005 N 743.484 -0.715051 -1.40445 0
M  V30 8006 C 744.733 -0.251322 -2.00128 0
M  V30 8007 C 745.046 1.16194 -1.57347 0
M  V30 8008 O 746.252 1.72416 -2.09726 0
M  V30 8009 C 744.708 -0.398407 -3.57688 0
M  V30 8010 C 744.316 -1.81828 -4.09442 0
M  V30 8011 C 746.06 0.00455625 -4.245 0
M  V30 8012 C 743.967 -1.91598 -5.59503 0
M  V30 8013 H 742.897 -0.0902081 -0.748584 0
M  V30 8014 H 745.548 -0.886062 -1.6069 0
M  V30 8015 H 743.93 0.304908 -3.94824 0
M  V30 8016 H 745.104 -2.55193 -3.83684 0
M  V30 8017 H 743.419 -2.17266 -3.55225 0
M  V30 8018 H 746.016 -0.0477303 -5.34679 0
M  V30 8019 H 746.359 1.04636 -4.02935 0
M  V30 8020 H 746.892 -0.649184 -3.92467 0
M  V30 8021 H 743.631 -2.93898 -5.85922 0
M  V30 8022 H 743.151 -1.22644 -5.87127 0
M  V30 8023 H 744.83 -1.68785 -6.24596 0
M  V30 8024 N 744.962 1.50701 -0.461195 0
M  V30 8025 C 746.378 1.59187 -0.114786 0
M  V30 8026 C 746.578 1.4702 1.37794 0
M  V30 8027 O 745.634 1.32361 2.15027 0
M  V30 8028 C 746.947 2.93453 -0.656167 0
M  V30 8029 C 748.495 3.06824 -0.618715 0
M  V30 8030 C 748.97 4.4365 -1.13747 0
M  V30 8031 N 750.461 4.50035 -1.09646 0
M  V30 8032 C 751.196 5.54278 -1.46846 0
M  V30 8033 N 750.692 6.65822 -1.91448 0
M  V30 8034 N 752.485 5.44767 -1.38512 0
M  V30 8035 H 744.636 1.56853 -1.43216 0
M  V30 8036 H 746.899 0.740712 -0.59165 0
M  V30 8037 H 746.605 3.07802 -1.7015 0
M  V30 8038 H 746.479 3.77082 -0.0942261 0
M  V30 8039 H 748.866 2.92129 0.417685 0
M  V30 8040 H 748.947 2.24976 -1.21734 0
M  V30 8041 H 748.591 4.59093 -2.17245 0
M  V30 8042 H 748.521 5.24074 -0.515153 0
M  V30 8043 H 751.012 3.69988 -0.769217 0
M  V30 8044 H 751.325 7.41413 -2.18007 0
M  V30 8045 H 749.67 6.66968 -1.95393 0
M  V30 8046 H 752.861 4.56511 -1.03516 0
M  V30 8047 H 753.034 6.25889 -1.6783 0
M  V30 8048 N 746.441 0.193421 1.56409 0
M  V30 8049 C 747.689 -0.444908 1.97142 0
M  V30 8050 C 748.01 -1.62268 1.08139 0
M  V30 8051 O 747.28 -1.95307 0.152326 0
M  V30 8052 H 745.86 -0.16736 0.728011 0
M  V30 8053 H 748.522 0.279763 1.92882 0
M  V30 8054 H 747.618 -0.790159 3.01932 0
M  V30 8055 N 747.919 -1.57396 -0.0801906 0
M  V30 8056 C 749.167 -1.86467 -0.779384 0
M  V30 8057 C 749.488 -0.784243 -1.78535 0
M  V30 8058 O 748.758 0.187986 -1.94996 0
M  V30 8059 H 747.338 -0.68806 -0.29083 0
M  V30 8060 H 750 -1.94813 -0.0582749 0
M  V30 8061 H 749.096 -2.83701 -1.30078 0
M  V30 8062 N 749.397 0.351382 -1.53633 0
M  V30 8063 C 750.645 1.09034 -1.70165 0
M  V30 8064 C 750.966 1.89413 -0.463422 0
M  V30 8065 O 750.236 1.888 0.522624 0
M  V30 8066 H 748.816 0.405522 -0.627344 0
M  V30 8067 H 751.478 0.394554 -1.90865 0
M  V30 8068 H 750.574 1.77215 -2.56907 0
M  V30 8069 N 750.875 1.45233 0.611969 0
M  V30 8070 C 751.785 1.56098 1.7513 0
M  V30 8071 C 752.801 0.445646 1.68196 0
M  V30 8072 O 753.977 0.705718 1.88631 0
M  V30 8073 C 751.042 1.52052 3.11579 0
M  V30 8074 C 750.103 2.74589 3.29999 0
M  V30 8075 C 749.336 2.70726 4.59938 0
M  V30 8076 O 749.559 1.77806 5.41979 0
M  V30 8077 O 748.493 3.61864 4.80976 0
M  V30 8078 H 752.319 2.52392 1.68914 0
M  V30 8079 H 749.904 1.27695 0.775528 0
M  V30 8080 H 751.786 1.52387 3.92882 0
M  V30 8081 H 750.461 0.589085 3.18295 0
M  V30 8082 H 749.368 2.79817 2.48301 0
M  V30 8083 H 750.701 3.66843 3.28157 0
M  V30 8084 N 752.353 -0.854086 1.3245 0
M  V30 8085 C 753.583 -1.63836 1.25862 0
M  V30 8086 C 753.991 -1.88383 -0.175588 0
M  V30 8087 O 753.334 -1.45353 -1.1233 0
M  V30 8088 C 753.396 -3.02068 1.94923 0
M  V30 8089 C 753.06 -3.0056 3.44257 0
M  V30 8090 C 754.057 -2.77368 4.39731 0
M  V30 8091 C 751.742 -3.21177 3.862 0
M  V30 8092 C 753.736 -2.74797 5.75122 0
M  V30 8093 C 751.423 -3.18234 5.217 0
M  V30 8094 C 752.421 -2.95072 6.15972 0
M  V30 8095 O 752.109 -2.92003 7.48992 0
M  V30 8096 H 751.841 -0.517007 0.435523 0
M  V30 8097 H 754.395 -1.07314 1.75137 0
M  V30 8098 H 752.625 -3.60382 1.40219 0
M  V30 8099 H 754.314 -3.62791 1.82037 0
M  V30 8100 H 755.08 -2.61205 4.08653 0
M  V30 8101 H 750.959 -3.38231 3.13243 0
M  V30 8102 H 754.503 -2.56638 6.48678 0
M  V30 8103 H 750.4 -3.33941 5.52407 0
M  V30 8104 H 751.168 -3.07953 7.58358 0
M  V30 8105 N 753.831 -1.1567 -1.07043 0
M  V30 8106 C 755.079 -0.931673 -1.79344 0
M  V30 8107 C 755.4 0.542421 -1.87304 0
M  V30 8108 O 754.67 1.39418 -1.37621 0
M  V30 8109 H 753.25 -0.34171 -0.664262 0
M  V30 8110 H 755.912 -1.45795 -1.29344 0
M  V30 8111 H 755.008 -1.34379 -2.81689 0
M  V30 8112 N 755.309 1.25446 -0.953992 0
M  V30 8113 C 756.219 2.29632 -0.480264 0
M  V30 8114 C 757.235 1.68025 0.452071 0
M  V30 8115 O 758.411 1.98703 0.328472 0
M  V30 8116 C 755.476 3.45903 0.234974 0
M  V30 8117 C 754.537 4.22953 -0.735495 0
M  V30 8118 C 753.77 5.33672 -0.0542957 0
M  V30 8119 O 753.993 5.58477 1.16018 0
M  V30 8120 O 752.927 5.9734 -0.739509 0
M  V30 8121 H 756.753 2.72242 -1.34602 0
M  V30 8122 H 754.338 1.30883 -0.720419 0
M  V30 8123 H 756.22 4.16552 0.637341 0
M  V30 8124 H 754.895 3.05296 1.07592 0
M  V30 8125 H 753.802 3.54734 -1.18806 0
M  V30 8126 H 755.135 4.67341 -1.54444 0
M  V30 8127 N 756.787 0.722489 1.40064 0
M  V30 8128 C 758.015 0.274838 2.05066 0
M  V30 8129 C 758.43 -1.08586 1.54449 0
M  V30 8130 O 757.787 -1.68375 0.704003 0
M  V30 8131 C 757.838 0.253673 3.60609 0
M  V30 8132 O 757.559 1.56064 4.0936 0
M  V30 8133 C 759.06 -0.211684 4.42794 0
M  V30 8134 H 756.28 0.12226 0.659768 0
M  V30 8135 H 758.824 0.982632 1.79345 0
M  V30 8136 H 756.979 -0.405137 3.85276 0
M  V30 8137 H 757.393 1.46576 5.03603 0
M  V30 8138 H 758.867 -0.175341 5.51721 0
M  V30 8139 H 759.344 -1.25493 4.2089 0
M  V30 8140 H 759.95 0.4171 4.2325 0
M  V30 8141 N 758.265 -1.50454 0.469181 0
M  V30 8142 C 759.511 -2.03248 -0.0787241 0
M  V30 8143 C 759.866 -1.34499 -1.37578 0
M  V30 8144 O 759.159 -0.461173 -1.85967 0
M  V30 8145 C 759.353 -3.55963 -0.320207 0
M  V30 8146 C 759.182 -4.3951 0.951893 0
M  V30 8147 C 757.952 -4.82689 1.49465 0
M  V30 8148 C 760.15 -4.79999 1.84677 0
M  V30 8149 N 758.132 -5.50553 2.71597 0
M  V30 8150 C 759.503 -5.47254 2.91398 0
M  V30 8151 C 761.558 -4.61959 1.85738 0
M  V30 8152 C 760.261 -5.98381 3.99166 0
M  V30 8153 C 762.287 -5.14024 2.92461 0
M  V30 8154 C 761.649 -5.81253 3.97901 0
M  V30 8155 H 757.748 -0.78192 0.0111715 0
M  V30 8156 H 760.332 -1.83986 0.636961 0
M  V30 8157 H 758.503 -3.75174 -1.00493 0
M  V30 8158 H 760.235 -3.95407 -0.862285 0
M  V30 8159 H 756.99 -4.61948 1.0441 0
M  V30 8160 H 757.414 -5.89093 3.33615 0
M  V30 8161 H 762.056 -4.09416 1.05539 0
M  V30 8162 H 759.774 -6.49961 4.80183 0
M  V30 8163 H 763.36 -5.01897 2.94263 0
M  V30 8164 H 762.24 -6.20814 4.79123 0
M  V30 8165 N 759.743 -0.201713 -1.56304 0
M  V30 8166 C 760.693 0.729444 -2.16016 0
M  V30 8167 C 761.677 1.17164 -1.10279 0
M  V30 8168 O 762.869 1.12893 -1.36324 0
M  V30 8169 C 759.998 1.94594 -2.82822 0
M  V30 8170 C 759.084 1.52434 -3.95758 0
M  V30 8171 N 759.475 0.814106 -4.99205 0
M  V30 8172 C 757.773 1.81314 -4.07481 0
M  V30 8173 C 758.474 0.601896 -5.78578 0
M  V30 8174 N 757.45 1.15263 -5.3124 0
M  V30 8175 H 761.252 0.178163 -2.93359 0
M  V30 8176 H 758.766 -0.00218038 -1.624 0
M  V30 8177 H 760.763 2.62357 -3.23998 0
M  V30 8178 H 759.423 2.50188 -2.06969 0
M  V30 8179 H 760.434 0.468872 -5.15773 0
M  V30 8180 H 757.111 2.3837 -3.42762 0
M  V30 8181 H 758.501 0.0380119 -6.71889 0
M  V30 8182 N 761.222 1.57436 0.0718424 0
M  V30 8183 C 762.169 2.03686 1.08539 0
M  V30 8184 C 763.139 0.917474 1.38462 0
M  V30 8185 O 764.324 1.18513 1.4953 0
M  V30 8186 C 761.464 2.48566 2.39393 0
M  V30 8187 C 760.577 3.74122 2.16001 0
M  V30 8188 C 759.712 4.07786 3.40418 0
M  V30 8189 C 758.751 5.26383 3.1239 0
M  V30 8190 N 757.888 5.55685 4.29138 0
M  V30 8191 H 762.728 2.90043 0.684018 0
M  V30 8192 H 760.265 1.43438 0.326183 0
M  V30 8193 H 762.223 2.72639 3.15791 0
M  V30 8194 H 760.853 1.65186 2.77333 0
M  V30 8195 H 759.905 3.57389 1.30296 0
M  V30 8196 H 761.217 4.60659 1.91298 0
M  V30 8197 H 760.371 4.32759 4.25211 0
M  V30 8198 H 759.11 3.19817 3.68197 0
M  V30 8199 H 758.115 5.01206 2.25993 0
M  V30 8200 H 759.34 6.1597 2.85934 0
M  V30 8201 H 757.286 4.70675 4.56948 0
M  V30 8202 H 757.203 6.3664 4.07708 0
M  V30 8203 H 758.471 5.85209 5.14928 0
M  V30 8204 N 762.7 -0.34323 1.53817 0
M  V30 8205 C 763.948 -1.0813 1.70741 0
M  V30 8206 C 764.269 -1.89165 0.473461 0
M  V30 8207 O 763.539 -1.89075 -0.512605 0
M  V30 8208 H 762.119 -0.40219 0.629486 0
M  V30 8209 H 764.781 -0.384426 1.91071 0
M  V30 8210 H 763.877 -1.7585 2.57843 0
M  V30 8211 N 764.178 -1.45556 -0.604258 0
M  V30 8212 C 765.426 -1.4945 -1.36048 0
M  V30 8213 C 765.747 -0.138933 -1.94504 0
M  V30 8214 O 765.017 0.832097 -1.7735 0
M  V30 8215 H 763.597 -0.550381 -0.505064 0
M  V30 8216 H 766.259 -1.81535 -0.709308 0
M  V30 8217 H 765.355 -2.23519 -2.17821 0
M  V30 8218 N 765.656 0.84705 -1.32902 0
M  V30 8219 C 766.905 1.59667 -1.23245 0
M  V30 8220 C 767.218 1.94551 0.202349 0
M  V30 8221 O 768.424 2.68218 0.420847 0
M  V30 8222 C 766.88 2.8795 -2.15901 0
M  V30 8223 C 766.488 2.60461 -3.64505 0
M  V30 8224 C 768.232 3.65968 -2.15098 0
M  V30 8225 C 766.139 3.84791 -4.49099 0
M  V30 8226 H 765.069 0.599167 -0.457728 0
M  V30 8227 H 767.72 0.934662 -1.57912 0
M  V30 8228 H 766.102 3.55648 -1.74157 0
M  V30 8229 H 767.276 2.01026 -4.14639 0
M  V30 8230 H 765.591 1.9576 -3.67515 0
M  V30 8231 H 768.188 4.58241 -2.75534 0
M  V30 8232 H 768.531 4.00275 -1.14392 0
M  V30 8233 H 769.064 3.05184 -2.55162 0
M  V30 8234 H 765.803 3.55621 -5.50649 0
M  V30 8235 H 765.323 4.43594 -4.03713 0
M  V30 8236 H 767.002 4.52454 -4.62487 0
M  V30 8237 N 767.134 1.16236 1.06428 0
M  V30 8238 C 768.064 0.890807 2.1584 0
M  V30 8239 C 769.045 -0.162333 1.69324 0
M  V30 8240 O 770.23 -0.0147191 1.94194 0
M  V30 8241 C 767.36 0.389615 3.45108 0
M  V30 8242 C 766.314 1.38051 4.05125 0
M  V30 8243 C 765.64 0.737773 5.29586 0
M  V30 8244 C 766.94 2.74965 4.44062 0
M  V30 8245 H 768.634 1.80577 2.38814 0
M  V30 8246 H 766.18 0.869657 1.14774 0
M  V30 8247 H 768.133 0.187127 4.20984 0
M  V30 8248 H 766.857 -0.560851 3.21748 0
M  V30 8249 H 765.516 1.56952 3.31303 0
M  V30 8250 H 765.164 -0.219135 5.02522 0
M  V30 8251 H 764.864 1.39914 5.70699 0
M  V30 8252 H 766.388 0.545275 6.0816 0
M  V30 8253 H 767.802 2.59855 5.11027 0
M  V30 8254 H 766.199 3.37563 4.96156 0
M  V30 8255 H 767.269 3.30321 3.54987 0
M  V30 8256 N 768.612 -1.24939 0.960631 0
M  V30 8257 C 769.575 -2.239 0.49006 0
M  V30 8258 C 770.575 -1.55497 -0.409535 0
M  V30 8259 O 771.765 -1.72978 -0.205984 0
M  V30 8260 C 768.897 -3.39654 -0.291193 0
M  V30 8261 H 770.09 -2.67044 1.36482 0
M  V30 8262 H 767.643 -1.37429 0.744505 0
M  V30 8263 H 768.378 -3.01939 -1.18336 0
M  V30 8264 H 768.163 -3.90496 0.354276 0
M  V30 8265 H 769.653 -4.13125 -0.609693 0
M  V30 8266 N 770.09 -0.729906 -1.39679 0
M  V30 8267 C 771.038 -0.0756589 -2.32477 0
M  V30 8268 C 772.032 0.731438 -1.52795 0
M  V30 8269 O 773.238 0.633195 -1.68495 0
M  V30 8270 H 769.613 -0.00566492 -0.751979 0
M  V30 8271 H 771.584 -0.874797 -2.85289 0
M  V30 8272 C 770.333 0.821313 -3.37861 0
M  V30 8273 H 769.656 0.209666 -3.9925 0
M  V30 8274 H 771.096 1.24679 -4.05254 0
M  V30 8275 C 769.555 1.9533 -2.74495 0
M  V30 8276 O 770.085 3.04548 -2.61942 0
M  V30 8277 N 768.291 1.74119 -2.3266 0
M  V30 8278 H 767.838 0.852908 -2.4307 0
M  V30 8279 H 767.796 2.50036 -1.90603 0
M  V30 8280 N 771.568 1.50203 -0.477153 0
M  V30 8281 C 772.515 2.28656 0.31386 0
M  V30 8282 C 773.485 1.33977 0.981802 0
M  V30 8283 O 774.67 1.62919 0.993072 0
M  V30 8284 C 771.81 3.16027 1.38639 0
M  V30 8285 C 770.923 4.25743 0.732615 0
M  V30 8286 C 770.058 5.00363 1.78355 0
M  V30 8287 C 769.097 6.01945 1.11035 0
M  V30 8288 N 768.234 6.6982 2.10441 0
M  V30 8289 H 773.074 2.958 -0.361445 0
M  V30 8290 H 770.611 1.45867 -0.190093 0
M  V30 8291 H 772.569 3.6504 2.01994 0
M  V30 8292 H 771.199 2.50917 2.03077 0
M  V30 8293 H 770.251 3.80398 -0.0136546 0
M  V30 8294 H 771.563 4.98393 0.201513 0
M  V30 8295 H 770.717 5.53124 2.49276 0
M  V30 8296 H 769.456 4.27432 2.34847 0
M  V30 8297 H 768.461 5.48438 0.386797 0
M  V30 8298 H 769.686 6.76851 0.552248 0
M  V30 8299 H 767.632 5.99677 2.65939 0
M  V30 8300 H 767.549 7.38366 1.62332 0
M  V30 8301 H 768.817 7.27196 2.80724 0
M  V30 8302 N 773.046 0.209999 1.56195 0
M  V30 8303 C 773.978 -0.736967 2.17029 0
M  V30 8304 C 774.991 -1.16599 1.13616 0
M  V30 8305 O 776.18 -1.09914 1.40646 0
M  V30 8306 C 773.28 -2.00852 2.72969 0
M  V30 8307 C 772.453 -1.73691 4.01435 0
M  V30 8308 C 771.512 -2.85439 4.42053 0
M  V30 8309 O 770.538 -2.54405 5.09183 0
M  V30 8310 N 771.74 -4.14135 4.06783 0
M  V30 8311 H 774.505 -0.216656 2.98916 0
M  V30 8312 H 772.066 0.0285672 1.61875 0
M  V30 8313 H 774.058 -2.74778 2.97118 0
M  V30 8314 H 772.628 -2.43963 1.95451 0
M  V30 8315 H 771.848 -0.834676 3.85262 0
M  V30 8316 H 773.136 -1.52961 4.85263 0
M  V30 8317 H 772.534 -4.42196 3.52816 0
M  V30 8318 H 771.091 -4.84642 4.35851 0
M  V30 8319 N 774.524 -1.57472 -0.0634922 0
M  V30 8320 C 775.472 -2.05307 -1.09323 0
M  V30 8321 C 776.466 -0.959995 -1.39572 0
M  V30 8322 O 777.672 -1.14507 -1.38882 0
M  V30 8323 H 774.047 -0.65472 -0.369927 0
M  V30 8324 H 776.018 -2.90925 -0.663707 0
M  V30 8325 C 774.767 -2.51954 -2.39613 0
M  V30 8326 H 774.09 -3.35662 -2.1719 0
M  V30 8327 H 775.53 -2.89169 -3.10092 0
M  V30 8328 C 773.989 -1.40596 -3.06161 0
M  V30 8329 O 774.519 -0.752722 -3.94585 0
M  V30 8330 N 772.725 -1.14902 -2.66919 0
M  V30 8331 H 772.272 -1.68205 -1.95102 0
M  V30 8332 H 772.23 -0.406006 -3.11767 0
M  V30 8333 N 776.003 0.335068 -1.53997 0
M  V30 8334 C 777.243 1.0827 -1.7337 0
M  V30 8335 C 777.607 1.85618 -0.490913 0
M  V30 8336 O 778.808 2.62864 -0.561799 0
M  V30 8337 C 777.079 1.99212 -2.96731 0
M  V30 8338 S 778.638 2.81083 -3.36954 0
M  V30 8339 H 775.456 0.365698 -0.609743 0
M  V30 8340 H 778.058 0.360079 -1.92155 0
M  V30 8341 H 776.762 1.41204 -3.85344 0
M  V30 8342 H 776.293 2.75898 -2.80436 0
M  V30 8343 H 778.308 4.01657 -2.91352 0
M  V30 8344 N 777.481 1.45874 0.596531 0
M  V30 8345 C 778.728 1.50467 1.35521 0
M  V30 8346 C 779.056 0.150802 1.93915 0
M  V30 8347 O 778.311 -0.851913 1.76184 0
M  V30 8348 C 778.61 2.54034 2.51399 0
M  V30 8349 C 778.276 3.9844 2.11085 0
M  V30 8350 C 776.938 4.37758 1.99804 0
M  V30 8351 C 779.29 4.89209 1.79788 0
M  V30 8352 C 776.618 5.65727 1.55465 0
M  V30 8353 C 778.97 6.17602 1.36931 0
M  V30 8354 C 777.634 6.5584 1.24218 0
M  V30 8355 H 776.904 0.550597 0.495907 0
M  V30 8356 H 779.551 1.79279 0.673145 0
M  V30 8357 H 777.856 2.18832 3.24992 0
M  V30 8358 H 779.553 2.54822 3.09624 0
M  V30 8359 H 776.143 3.67353 2.20794 0
M  V30 8360 H 780.327 4.59562 1.87395 0
M  V30 8361 H 775.583 5.94139 1.44253 0
M  V30 8362 H 779.757 6.87373 1.11764 0
M  V30 8363 H 777.384 7.54897 0.896353 0
M  V30 8364 N 778.959 -0.83999 1.33349 0
M  V30 8365 C 780.236 -1.57973 1.15342 0
M  V30 8366 C 780.616 -2.09226 -0.280632 0
M  V30 8367 O 779.964 -1.89317 -1.2795 0
M  V30 8368 C 780.174 -2.71446 2.19359 0
M  V30 8369 C 781.522 -3.40654 2.53456 0
M  V30 8370 O 782.546 -2.81686 2.18017 0
M  V30 8371 O 781.405 -4.47101 3.14266 0
M  V30 8372 H 778.499 -0.6964 0.446044 0
M  V30 8373 H 781.045 -0.882843 1.44927 0
M  V30 8374 H 779.817 -2.31205 3.1569 0
M  V30 8375 H 779.44 -3.488 1.90852 0
M  V30 8376 N 780.437 -1.16799 -1.0581 0
M  V30 8377 C 781.714 -0.862616 -1.75551 0
M  V30 8378 C 782.094 0.6385 -2.01212 0
M  V30 8379 O 781.442 1.58784 -1.64317 0
M  V30 8380 C 781.652 -1.6907 -3.05314 0
M  V30 8381 C 783 -1.90675 -3.79379 0
M  V30 8382 O 784.024 -1.65976 -3.15167 0
M  V30 8383 O 782.883 -2.32145 -4.94743 0
M  V30 8384 H 779.977 -0.318789 -0.763088 0
M  V30 8385 H 782.523 -1.27461 -1.12034 0
M  V30 8386 H 781.295 -2.70912 -2.82352 0
M  V30 8387 H 780.918 -1.27606 -3.76567 0
M  V30 8388 N 781.915 1.24427 -0.967243 0
M  V30 8389 C 783.162 1.92487 -0.62888 0
M  V30 8390 C 783.49 1.75623 0.835871 0
M  V30 8391 O 782.745 1.1027 1.61675 0
M  V30 8392 C 783.044 3.44568 -0.949096 0
M  V30 8393 C 782.71 3.816 -2.40192 0
M  V30 8394 C 781.372 3.9142 -2.799 0
M  V30 8395 C 783.724 3.99715 -3.34481 0
M  V30 8396 C 781.052 4.16771 -4.12939 0
M  V30 8397 C 783.404 4.26562 -4.67148 0
M  V30 8398 C 782.068 4.34601 -5.06634 0
M  V30 8399 H 781.338 0.704361 -0.230124 0
M  V30 8400 H 783.985 1.4772 -1.21864 0
M  V30 8401 H 782.29 3.90819 -0.277085 0
M  V30 8402 H 783.987 3.95436 -0.665692 0
M  V30 8403 H 780.577 3.74522 -2.08402 0
M  V30 8404 H 784.761 3.91531 -3.04987 0
M  V30 8405 H 780.017 4.21214 -4.43158 0
M  V30 8406 H 784.191 4.39523 -5.40178 0
M  V30 8407 H 781.818 4.53998 -6.09746 0
M  V30 8408 N 783.393 0.737304 1.3929 0
M  V30 8409 C 784.325 0.0592106 2.29124 0
M  V30 8410 C 785.338 -0.701026 1.46934 0
M  V30 8411 O 786.527 -0.544808 1.69983 0
M  V30 8412 C 783.627 -0.940358 3.25592 0
M  V30 8413 C 782.8 -0.241163 4.36735 0
M  V30 8414 C 781.859 -1.14916 5.13498 0
M  V30 8415 O 780.885 -0.625783 5.6575 0
M  V30 8416 N 782.087 -2.47869 5.2492 0
M  V30 8417 H 784.852 0.830647 2.87959 0
M  V30 8418 H 782.413 0.586718 1.50895 0
M  V30 8419 H 784.405 -1.55046 3.73822 0
M  V30 8420 H 782.975 -1.61299 2.67771 0
M  V30 8421 H 782.195 0.549441 3.90352 0
M  V30 8422 H 783.483 0.243299 5.08218 0
M  V30 8423 H 782.881 -2.92864 4.83991 0
M  V30 8424 H 781.438 -3.03969 5.76581 0
M  V30 8425 N 784.871 -1.49948 0.485112 0
M  V30 8426 C 786.111 -2.04301 -0.0635728 0
M  V30 8427 C 786.475 -1.35804 -1.35725 0
M  V30 8428 O 787.676 -1.80789 -1.98919 0
M  V30 8429 C 785.947 -3.56666 -0.228962 0
M  V30 8430 S 787.506 -4.32614 -0.734185 0
M  V30 8431 H 784.324 -0.710939 -0.00931895 0
M  V30 8432 H 786.926 -1.84185 0.655455 0
M  V30 8433 H 785.63 -4.04068 0.718148 0
M  V30 8434 H 785.161 -3.8116 -0.973696 0
M  V30 8435 H 787.176 -4.53859 -2.00565 0
M  V30 8436 N 786.349 -0.21828 -1.56081 0
M  V30 8437 C 787.312 0.679633 -2.18892 0
M  V30 8438 C 788.312 1.12405 -1.14986 0
M  V30 8439 O 789.502 1.03339 -1.40238 0
M  V30 8440 C 786.634 1.93063 -2.80962 0
M  V30 8441 H 787.827 0.132066 -2.99609 0
M  V30 8442 H 785.38 0.0313374 -1.56269 0
M  V30 8443 H 786.115 2.52015 -2.04106 0
M  V30 8444 H 785.9 1.62046 -3.57048 0
M  V30 8445 H 787.39 2.57043 -3.29118 0
M  V30 8446 N 787.827 1.57504 0.0551401 0
M  V30 8447 C 788.79 2.03826 1.04821 0
M  V30 8448 C 789.79 0.937968 1.30609 0
M  V30 8449 O 790.98 1.20237 1.2605 0
M  V30 8450 C 788.112 2.43309 2.38775 0
M  V30 8451 H 789.305 2.92802 0.6486 0
M  V30 8452 H 786.858 1.53368 0.301315 0
M  V30 8453 H 787.593 1.5741 2.83536 0
M  V30 8454 H 787.378 3.23615 2.21395 0
M  V30 8455 H 788.868 2.79666 3.10124 0
M  V30 8456 N 789.305 -0.326896 1.54172 0
M  V30 8457 C 790.215 -1.42525 1.86343 0
M  V30 8458 C 791.231 -1.56764 0.75505 0
M  V30 8459 O 792.407 -1.71924 1.04901 0
M  V30 8460 C 789.472 -2.77286 2.08119 0
M  V30 8461 C 788.533 -2.7225 3.31931 0
M  V30 8462 C 787.766 -4.00584 3.52659 0
M  V30 8463 O 787.989 -4.98686 2.76891 0
M  V30 8464 O 786.923 -4.04045 4.46129 0
M  V30 8465 H 790.749 -1.18249 2.79734 0
M  V30 8466 H 788.334 -0.520614 1.40036 0
M  V30 8467 H 790.216 -3.57065 2.23791 0
M  V30 8468 H 788.891 -3.01459 1.17917 0
M  V30 8469 H 787.798 -1.91033 3.21647 0
M  V30 8470 H 789.131 -2.53032 4.2218 0
M  V30 8471 N 790.784 -1.46188 -0.588786 0
M  V30 8472 C 792.014 -1.54519 -1.3714 0
M  V30 8473 C 792.422 -0.183075 -1.88312 0
M  V30 8474 O 791.765 0.828815 -1.6394 0
M  V30 8475 C 791.827 -2.48426 -2.59856 0
M  V30 8476 C 791.491 -3.94791 -2.30193 0
M  V30 8477 C 792.488 -4.84173 -1.894 0
M  V30 8478 C 790.173 -4.39872 -2.42525 0
M  V30 8479 C 792.167 -6.16647 -1.61325 0
M  V30 8480 C 789.854 -5.72381 -2.14063 0
M  V30 8481 C 790.852 -6.60589 -1.73527 0
M  V30 8482 O 790.54 -7.9064 -1.4541 0
M  V30 8483 H 790.272 -0.525264 -0.425527 0
M  V30 8484 H 792.826 -1.92242 -0.723344 0
M  V30 8485 H 791.056 -2.05709 -3.27446 0
M  V30 8486 H 792.745 -2.4723 -3.21919 0
M  V30 8487 H 793.511 -4.50603 -1.79393 0
M  V30 8488 H 789.39 -3.71444 -2.7304 0
M  V30 8489 H 792.934 -6.85454 -1.29611 0
M  V30 8490 H 788.831 -6.05501 -2.23693 0
M  V30 8491 H 789.599 -8.02847 -1.59306 0
M  V30 8492 N 792.262 0.832906 -1.33792 0
M  V30 8493 C 793.192 1.95828 -1.27176 0
M  V30 8494 C 794.173 1.69427 -0.15114 0
M  V30 8495 O 795.358 1.91167 -0.341886 0
M  V30 8496 C 792.488 3.32098 -1.01629 0
M  V30 8497 C 791.442 3.72912 -2.10049 0
M  V30 8498 C 790.768 5.07054 -1.69706 0
M  V30 8499 C 792.068 3.86064 -3.51783 0
M  V30 8500 H 793.762 2.01622 -2.21334 0
M  V30 8501 H 791.308 0.96866 -1.0655 0
M  V30 8502 H 793.261 4.10402 -0.956474 0
M  V30 8503 H 791.985 3.26577 -0.0390956 0
M  V30 8504 H 790.644 2.96876 -2.15082 0
M  V30 8505 H 790.292 4.9801 -0.706737 0
M  V30 8506 H 789.992 5.35333 -2.42264 0
M  V30 8507 H 791.516 5.87827 -1.65202 0
M  V30 8508 H 792.93 4.54665 -3.49218 0
M  V30 8509 H 791.327 4.25787 -4.22878 0
M  V30 8510 H 792.397 2.88344 -3.89854 0
M  V30 8511 N 793.74 1.17359 1.05189 0
M  V30 8512 C 794.989 0.956412 1.77583 0
M  V30 8513 C 795.302 -0.516018 1.88671 0
M  V30 8514 O 796.508 -0.851401 2.57805 0
M  V30 8515 C 794.964 1.66203 3.19225 0
M  V30 8516 C 794.572 3.17299 3.16267 0
M  V30 8517 C 796.316 1.52725 3.96075 0
M  V30 8518 C 794.223 3.8055 4.52698 0
M  V30 8519 H 793.153 0.354204 0.665624 0
M  V30 8520 H 795.804 1.40612 1.17901 0
M  V30 8521 H 794.186 1.14006 3.79234 0
M  V30 8522 H 795.36 3.76431 2.65776 0
M  V30 8523 H 793.675 3.3079 2.52917 0
M  V30 8524 H 796.272 1.97351 4.96947 0
M  V30 8525 H 796.615 0.477803 4.13549 0
M  V30 8526 H 797.148 2.02139 3.42614 0
M  V30 8527 H 793.887 4.85492 4.4043 0
M  V30 8528 H 793.407 3.26206 5.03339 0
M  V30 8529 H 795.086 3.82757 5.21638 0
M  V30 8530 N 795.218 -1.23913 0.973828 0
M  V30 8531 C 796.165 -2.25132 0.508366 0
M  V30 8532 C 797.135 -1.59908 -0.449307 0
M  V30 8533 O 798.32 -1.87405 -0.358313 0
M  V30 8534 C 795.46 -3.4458 -0.189422 0
M  V30 8535 C 794.573 -4.24381 0.807738 0
M  V30 8536 C 793.708 -5.31131 0.0854315 0
M  V30 8537 C 792.747 -6.02635 1.07225 0
M  V30 8538 N 791.884 -7.01073 0.379535 0
M  V30 8539 H 796.724 -2.64313 1.37632 0
M  V30 8540 H 794.261 -1.29924 0.689802 0
M  V30 8541 H 796.219 -4.12706 -0.610733 0
M  V30 8542 H 794.849 -3.06218 -1.02129 0
M  V30 8543 H 793.901 -3.55735 1.34747 0
M  V30 8544 H 795.213 -4.73778 1.55998 0
M  V30 8545 H 794.367 -6.05422 -0.393572 0
M  V30 8546 H 793.106 -4.82658 -0.699461 0
M  V30 8547 H 792.111 -5.27143 1.56207 0
M  V30 8548 H 793.336 -6.53197 1.85769 0
M  V30 8549 H 791.282 -6.54862 -0.386269 0
M  V30 8550 H 791.199 -7.48382 1.07054 0
M  V30 8551 H 792.467 -7.79462 -0.0772984 0
M  V30 8552 N 796.696 -0.74468 -1.38897 0
M  V30 8553 C 797.606 -0.112892 -2.34328 0
M  V30 8554 C 798.622 0.71087 -1.58816 0
M  V30 8555 O 799.798 0.637092 -1.91058 0
M  V30 8556 C 796.863 0.776417 -3.37894 0
M  V30 8557 C 795.924 -0.0606999 -4.29257 0
M  V30 8558 C 795.157 0.786258 -5.27877 0
M  V30 8559 O 795.38 2.02463 -5.33259 0
M  V30 8560 O 794.314 0.209781 -6.01534 0
M  V30 8561 H 798.14 -0.900801 -2.90033 0
M  V30 8562 H 795.725 -0.505462 -1.4059 0
M  V30 8563 H 797.607 1.28496 -4.01331 0
M  V30 8564 H 796.282 1.54297 -2.84559 0
M  V30 8565 H 795.189 -0.614984 -3.69011 0
M  V30 8566 H 796.522 -0.789702 -4.85824 0
M  V30 8567 N 798.174 1.49689 -0.493057 0
M  V30 8568 C 799.422 2.02027 0.0541642 0
M  V30 8569 C 799.743 1.37554 1.38217 0
M  V30 8570 O 799.013 0.528174 1.88646 0
M  V30 8571 H 797.593 0.746646 0.0230069 0
M  V30 8572 H 800.255 1.83795 -0.648489 0
M  V30 8573 H 799.351 3.11523 0.189652 0
M  V30 8574 N 799.652 0.226554 1.55963 0
M  V30 8575 C 800.882 -0.407915 2.02533 0
M  V30 8576 C 801.29 -1.53539 1.10554 0
M  V30 8577 O 800.633 -1.8338 0.108409 0
M  V30 8578 C 800.695 -0.996081 3.45425 0
M  V30 8579 C 800.359 -0.00341651 4.57 0
M  V30 8580 C 801.356 0.798782 5.13727 0
M  V30 8581 C 799.041 0.116786 5.02164 0
M  V30 8582 C 801.035 1.70784 6.14094 0
M  V30 8583 C 798.722 1.02937 6.02368 0
M  V30 8584 C 799.72 1.82344 6.5821 0
M  V30 8585 O 799.408 2.72067 7.56462 0
M  V30 8586 H 799.14 -0.103524 0.668026 0
M  V30 8587 H 801.694 0.341937 2.02534 0
M  V30 8588 H 799.924 -1.79512 3.42509 0
M  V30 8589 H 801.613 -1.53848 3.75614 0
M  V30 8590 H 802.379 0.716393 4.7968 0
M  V30 8591 H 798.258 -0.491172 4.58376 0
M  V30 8592 H 801.802 2.32807 6.57607 0
M  V30 8593 H 797.699 1.11276 6.35836 0
M  V30 8594 H 798.467 2.66199 7.74003 0
M  V30 8595 N 801.13 -1.57531 -0.0467866 0
M  V30 8596 C 802.358 -1.92696 -0.753371 0
M  V30 8597 C 802.773 -0.824792 -1.69831 0
M  V30 8598 O 802.13 0.200155 -1.81399 0
M  V30 8599 C 802.181 -3.27728 -1.52566 0
M  V30 8600 O 801.902 -4.3371 -0.618674 0
M  V30 8601 C 803.403 -3.77066 -2.33101 0
M  V30 8602 H 800.623 -0.636367 -0.212788 0
M  V30 8603 H 803.167 -2.04498 -0.00959361 0
M  V30 8604 H 801.322 -3.17378 -2.22148 0
M  V30 8605 H 801.736 -5.11548 -1.15839 0
M  V30 8606 H 803.21 -4.74109 -2.82709 0
M  V30 8607 H 803.687 -3.07348 -3.13741 0
M  V30 8608 H 804.293 -3.90442 -1.68628 0
M  V30 8609 N 802.608 0.318715 -1.54344 0
M  V30 8610 C 803.833 1.07987 -1.77069 0
M  V30 8611 C 804.258 1.80766 -0.520117 0
M  V30 8612 O 803.616 1.73424 0.528566 0
M  V30 8613 C 803.664 2.04987 -2.96669 0
M  V30 8614 O 802.768 3.12974 -2.68554 0
M  V30 8615 H 802.109 0.311109 -0.586606 0
M  V30 8616 H 804.639 0.361533 -2.0138 0
M  V30 8617 H 804.649 2.47771 -3.2415 0
M  V30 8618 H 803.324 1.51417 -3.87357 0
M  V30 8619 H 801.901 2.74831 -2.52037 0
M  V30 8620 N 804.086 1.46499 0.581025 0
M  V30 8621 C 805.497 1.4604 1.16315 0
M  V30 8622 C 805.848 0.202154 1.95156 0
M  V30 8623 O 804.973 -0.694638 2.04948 0
M  V30 8624 C 805.568 2.64593 2.11604 0
M  V30 8625 C 804.127 2.6717 2.65136 0
M  V30 8626 C 803.274 2.38753 1.4104 0
M  V30 8627 H 806.225 1.54354 0.368871 0
M  V30 8628 H 806.246 2.40207 2.95095 0
M  V30 8629 H 805.758 3.56154 1.54194 0
M  V30 8630 H 803.859 1.79685 3.26411 0
M  V30 8631 H 803.972 3.67182 3.07757 0
M  V30 8632 H 802.336 1.88845 1.70908 0
M  V30 8633 H 803.119 3.32493 0.854588 0
M  V30 8634 N 805.565 -0.825799 1.34232 0
M  V30 8635 C 806.512 -1.93651 1.2557 0
M  V30 8636 C 807.482 -1.65578 0.131536 0
M  V30 8637 O 808.667 -1.88231 0.312027 0
M  V30 8638 C 805.807 -3.29862 1.01415 0
M  V30 8639 C 804.92 -3.70247 2.22579 0
M  V30 8640 C 804.055 -4.95392 1.91731 0
M  V30 8641 C 803.094 -5.28349 3.09053 0
M  V30 8642 N 802.231 -6.44671 2.78107 0
M  V30 8643 H 807.071 -2.00392 2.20561 0
M  V30 8644 H 804.608 -0.980441 1.09662 0
M  V30 8645 H 806.566 -4.08356 0.854485 0
M  V30 8646 H 805.196 -3.22642 0.100936 0
M  V30 8647 H 804.248 -2.87169 2.49476 0
M  V30 8648 H 805.56 -3.90575 3.10246 0
M  V30 8649 H 804.714 -5.81665 1.72484 0
M  V30 8650 H 803.453 -4.77059 1.0132 0
M  V30 8651 H 802.458 -4.40574 3.289 0
M  V30 8652 H 803.683 -5.48622 4.00239 0
M  V30 8653 H 801.629 -6.278 1.9027 0
M  V30 8654 H 801.546 -6.65158 3.59306 0
M  V30 8655 H 802.814 -7.34022 2.62358 0
M  V30 8656 N 807.043 -1.17915 -1.04565 0
M  V30 8657 C 808.459 -0.927761 -1.29864 0
M  V30 8658 C 808.659 0.409536 -1.97294 0
M  V30 8659 O 807.715 1.14505 -2.25044 0
M  V30 8660 C 809.028 -2.08967 -2.16225 0
M  V30 8661 C 810.576 -2.12741 -2.29587 0
M  V30 8662 C 811.051 -3.28335 -3.19312 0
M  V30 8663 N 812.542 -3.28164 -3.26898 0
M  V30 8664 C 813.277 -4.14249 -3.96466 0
M  V30 8665 N 812.773 -5.10457 -4.68407 0
M  V30 8666 N 814.566 -4.02179 -3.92694 0
M  V30 8667 H 806.717 -2.03983 -0.592011 0
M  V30 8668 H 808.98 -0.891023 -0.323701 0
M  V30 8669 H 808.686 -3.05654 -1.73979 0
M  V30 8670 H 808.56 -2.04606 -3.16885 0
M  V30 8671 H 810.947 -1.16636 -2.71072 0
M  V30 8672 H 811.028 -2.21162 -1.28535 0
M  V30 8673 H 810.672 -4.2471 -2.78539 0
M  V30 8674 H 810.602 -3.17151 -4.20384 0
M  V30 8675 H 813.093 -2.58511 -2.75646 0
M  V30 8676 H 813.406 -5.72526 -5.1907 0
M  V30 8677 H 811.751 -5.14422 -4.67328 0
M  V30 8678 H 814.942 -3.26308 -3.3562 0
M  V30 8679 H 815.115 -4.69486 -4.4664 0
M  V30 8680 N 808.521 1.23394 -0.980386 0
M  V30 8681 C 809.451 2.2717 -0.540024 0
M  V30 8682 C 810.432 1.64659 0.426787 0
M  V30 8683 O 811.617 1.91543 0.320153 0
M  V30 8684 C 808.747 3.46939 0.15836 0
M  V30 8685 C 807.701 4.21802 -0.725732 0
M  V30 8686 C 807.027 5.34597 0.104866 0
M  V30 8687 C 808.327 4.81802 -2.01654 0
M  V30 8688 H 810.021 2.64257 -1.40743 0
M  V30 8689 H 807.567 1.2703 -0.678193 0
M  V30 8690 H 809.52 4.18683 0.477737 0
M  V30 8691 H 808.244 3.08912 1.06022 0
M  V30 8692 H 806.903 3.51875 -1.02857 0
M  V30 8693 H 806.551 4.92812 1.00726 0
M  V30 8694 H 806.251 5.85607 -0.483557 0
M  V30 8695 H 807.775 6.09163 0.418624 0
M  V30 8696 H 809.189 5.45554 -1.76193 0
M  V30 8697 H 807.586 5.43098 -2.55273 0
M  V30 8698 H 808.656 4.02549 -2.70338 0
M  V30 8699 N 809.999 0.752036 1.385 0
M  V30 8700 C 811.227 0.318274 2.04437 0
M  V30 8701 C 811.642 -1.05285 1.56718 0
M  V30 8702 O 810.999 -1.66844 0.73956 0
M  V30 8703 C 811.05 0.330106 3.5999 0
M  V30 8704 O 810.771 1.64712 4.05957 0
M  V30 8705 C 812.272 -0.117713 4.43144 0
M  V30 8706 H 809.492 0.136228 0.657026 0
M  V30 8707 H 812.036 1.02045 1.7722 0
M  V30 8708 H 810.191 -0.323323 3.86048 0
M  V30 8709 H 810.605 1.57225 5.0038 0
M  V30 8710 H 812.079 -0.0582735 5.51969 0
M  V30 8711 H 812.556 -1.16538 4.23457 0
M  V30 8712 H 813.162 0.506784 4.2227 0
M  V30 8713 N 811.477 -1.49425 0.500989 0
M  V30 8714 C 812.726 -2.01649 -0.04538 0
M  V30 8715 C 813.039 -1.38572 -1.38047 0
M  V30 8716 O 814.245 -1.82124 -2.01353 0
M  V30 8717 C 812.701 -3.5966 -0.131337 0
M  V30 8718 C 812.309 -4.3171 1.19711 0
M  V30 8719 C 814.053 -4.19828 -0.628071 0
M  V30 8720 C 811.96 -5.81579 1.07332 0
M  V30 8721 H 810.89 -0.753715 -0.0207329 0
M  V30 8722 H 813.541 -1.71962 0.640407 0
M  V30 8723 H 811.923 -3.86063 -0.881574 0
M  V30 8724 H 813.097 -4.17008 1.96064 0
M  V30 8725 H 811.412 -3.83286 1.62729 0
M  V30 8726 H 814.009 -5.2958 -0.738198 0
M  V30 8727 H 814.352 -3.83194 -1.6269 0
M  V30 8728 H 814.885 -3.97746 0.0656314 0
M  V30 8729 H 811.624 -6.22738 2.04642 0
M  V30 8730 H 811.144 -5.98774 0.350679 0
M  V30 8731 H 812.823 -6.42614 0.752047 0
M  V30 8732 N 812.955 -0.234822 -1.55841 0
M  V30 8733 C 813.903 0.686145 -2.22249 0
M  V30 8734 C 814.897 1.18948 -1.20614 0
M  V30 8735 O 816.103 1.14777 -1.38659 0
M  V30 8736 H 812.478 0.239724 -0.712767 0
M  V30 8737 H 814.449 0.102762 -2.98223 0
M  V30 8738 C 813.198 1.8776 -2.92646 0
M  V30 8739 H 812.521 1.49943 -3.70617 0
M  V30 8740 H 813.961 2.4995 -3.42493 0
M  V30 8741 C 812.42 2.74127 -1.95847 0
M  V30 8742 O 812.95 3.7329 -1.48384 0
M  V30 8743 N 811.156 2.4044 -1.63209 0
M  V30 8744 H 810.703 1.59854 -2.02001 0
M  V30 8745 H 810.661 2.98504 -0.987063 0
M  V30 8746 N 814.433 1.57553 0.0384317 0
M  V30 8747 C 815.681 1.88468 0.729672 0
M  V30 8748 C 816.002 0.831302 1.76393 0
M  V30 8749 O 815.272 -0.13622 1.95426 0
M  V30 8750 H 813.852 0.695529 0.272485 0
M  V30 8751 H 816.514 1.94899 0.0066032 0
M  V30 8752 H 815.61 2.8705 1.22511 0
M  V30 8753 N 815.911 -0.310526 1.54511 0
M  V30 8754 C 817.159 -1.04484 1.72996 0
M  V30 8755 C 817.48 -1.88118 0.513479 0
M  V30 8756 O 816.75 -1.90119 -0.472384 0
M  V30 8757 H 815.33 -0.388747 0.637875 0
M  V30 8758 H 817.992 -0.343811 1.91844 0
M  V30 8759 H 817.088 -1.70341 2.61515 0
M  V30 8760 N 817.389 -1.46805 -0.573248 0
M  V30 8761 C 818.614 -1.56433 -1.36175 0
M  V30 8762 C 819.039 -0.209336 -1.86932 0
M  V30 8763 O 818.397 0.812146 -1.62092 0
M  V30 8764 C 818.445 -2.58055 -2.51873 0
M  V30 8765 O 817.549 -2.12214 -3.53609 0
M  V30 8766 H 816.89 -0.526068 -0.405153 0
M  V30 8767 H 819.42 -1.92456 -0.694405 0
M  V30 8768 H 819.43 -2.77966 -2.98662 0
M  V30 8769 H 818.105 -3.56448 -2.14284 0
M  V30 8770 H 816.682 -2.02333 -3.13234 0
M  V30 8771 N 818.867 0.818669 -1.34668 0
M  V30 8772 C 819.815 1.95123 -1.26609 0
M  V30 8773 C 820.809 1.68611 -0.163348 0
M  V30 8774 O 822.015 1.76975 -0.328586 0
M  V30 8775 H 818.39 0.640871 -0.393431 0
M  V30 8776 H 820.361 1.99043 -2.22316 0
M  V30 8777 C 819.11 3.31697 -1.04272 0
M  V30 8778 H 818.433 3.52648 -1.8836 0
M  V30 8779 H 819.873 4.11382 -1.0267 0
M  V30 8780 C 818.332 3.35942 0.253858 0
M  V30 8781 O 818.862 3.81632 1.25378 0
M  V30 8782 N 817.068 2.89165 0.288447 0
M  V30 8783 H 816.615 2.52176 -0.525845 0
M  V30 8784 H 816.573 2.92387 1.15572 0
M  V30 8785 N 820.346 1.18468 1.03938 0
M  V30 8786 C 821.594 0.978895 1.76811 0
M  V30 8787 C 821.915 -0.49257 1.88676 0
M  V30 8788 O 821.185 -1.3572 1.41269 0
M  V30 8789 H 819.765 0.359201 0.654968 0
M  V30 8790 H 822.427 1.49173 1.25433 0
M  V30 8791 H 821.523 1.418 2.78027 0
M  V30 8792 N 821.824 -1.22873 0.986916 0
M  V30 8793 C 823.072 -1.91084 0.658121 0
M  V30 8794 C 823.393 -1.77304 -0.811675 0
M  V30 8795 O 822.663 -1.15649 -1.58121 0
M  V30 8796 H 821.243 -0.707251 0.240427 0
M  V30 8797 H 823.905 -1.49357 1.25213 0
M  V30 8798 H 823.001 -2.98373 0.915428 0
M  V30 8799 N 823.302 -0.75937 -1.38099 0
M  V30 8800 C 824.232 -0.151077 -2.33011 0
M  V30 8801 C 825.213 0.697099 -1.5516 0
M  V30 8802 O 826.398 0.637101 -1.83452 0
M  V30 8803 C 823.528 0.738423 -3.39359 0
M  V30 8804 C 822.482 -0.0074741 -4.27999 0
M  V30 8805 C 821.808 1.00066 -5.25253 0
M  V30 8806 C 823.108 -1.17926 -5.08813 0
M  V30 8807 H 824.802 -0.943933 -2.84131 0
M  V30 8808 H 822.348 -0.455362 -1.36611 0
M  V30 8809 H 824.301 1.17369 -4.04725 0
M  V30 8810 H 823.025 1.56366 -2.86735 0
M  V30 8811 H 821.684 -0.423379 -3.64147 0
M  V30 8812 H 821.332 1.82012 -4.68914 0
M  V30 8813 H 821.032 0.506199 -5.85416 0
M  V30 8814 H 822.556 1.43512 -5.93495 0
M  V30 8815 H 823.97 -0.821262 -5.67387 0
M  V30 8816 H 822.367 -1.60497 -5.78239 0
M  V30 8817 H 823.437 -1.98938 -4.42212 0
M  V30 8818 N 824.78 1.49157 -0.508906 0
M  V30 8819 C 825.71 2.32109 0.254469 0
M  V30 8820 C 826.691 1.40754 0.955111 0
M  V30 8821 O 827.876 1.69658 0.944983 0
M  V30 8822 C 825.006 3.21458 1.3146 0
M  V30 8823 C 823.96 4.2167 0.733368 0
M  V30 8824 C 823.286 5.00009 1.8946 0
M  V30 8825 C 824.586 5.21544 -0.280875 0
M  V30 8826 H 826.28 2.9618 -0.43795 0
M  V30 8827 H 823.826 1.4243 -0.212062 0
M  V30 8828 H 825.779 3.78305 1.85643 0
M  V30 8829 H 824.503 2.55346 2.03632 0
M  V30 8830 H 823.162 3.65979 0.213231 0
M  V30 8831 H 822.81 4.30338 2.60419 0
M  V30 8832 H 822.51 5.67821 1.51173 0
M  V30 8833 H 824.034 5.59702 2.44061 0
M  V30 8834 H 825.448 5.73039 0.173095 0
M  V30 8835 H 823.845 5.97291 -0.580006 0
M  V30 8836 H 824.915 4.69969 -1.19404 0
M  V30 8837 N 826.258 0.243083 1.55714 0
M  V30 8838 C 827.504 -0.383287 1.99145 0
M  V30 8839 C 827.837 -1.57868 1.13098 0
M  V30 8840 O 827.112 -1.93535 0.193509 0
M  V30 8841 C 827.395 -0.796879 3.51172 0
M  V30 8842 C 827.248 0.403642 4.47985 0
M  V30 8843 C 828.567 -1.64525 4.08191 0
M  V30 8844 H 825.686 -0.137843 0.723995 0
M  V30 8845 H 828.328 0.343631 1.86867 0
M  V30 8846 H 826.478 -1.41625 3.61766 0
M  V30 8847 H 828.15 1.04204 4.49376 0
M  V30 8848 H 826.393 1.04741 4.20965 0
M  V30 8849 H 827.064 0.0709794 5.51954 0
M  V30 8850 H 829.54 -1.12246 4.00674 0
M  V30 8851 H 828.416 -1.9035 5.14838 0
M  V30 8852 H 828.677 -2.61582 3.56409 0
M  V30 8853 N 827.736 -1.57571 -0.0300757 0
M  V30 8854 C 828.699 -2.05468 -1.01565 0
M  V30 8855 C 829.699 -0.958628 -1.29101 0
M  V30 8856 O 830.889 -1.22228 -1.24121 0
M  V30 8857 C 828.021 -2.47077 -2.34874 0
M  V30 8858 H 829.214 -2.93797 -0.601936 0
M  V30 8859 H 826.767 -1.53828 -0.276878 0
M  V30 8860 H 827.502 -1.61901 -2.80996 0
M  V30 8861 H 827.287 -3.27097 -2.16218 0
M  V30 8862 H 828.777 -2.84564 -3.05635 0
M  V30 8863 N 829.214 0.302327 -1.54673 0
M  V30 8864 C 830.177 1.35592 -1.8479 0
M  V30 8865 C 831.177 1.43743 -0.72073 0
M  V30 8866 O 832.367 1.43402 -0.989017 0
M  V30 8867 C 829.499 2.74091 -2.02699 0
M  V30 8868 H 830.692 1.10132 -2.78946 0
M  V30 8869 H 828.245 0.538926 -1.46715 0
M  V30 8870 H 828.98 3.04775 -1.10826 0
M  V30 8871 H 828.765 2.69565 -2.8474 0
M  V30 8872 H 830.255 3.50272 -2.27374 0
M  V30 8873 N 830.692 1.47107 0.565454 0
M  V30 8874 C 831.932 1.5488 1.33385 0
M  V30 8875 C 832.296 0.202804 1.90926 0
M  V30 8876 O 833.497 0.155345 2.68351 0
M  V30 8877 C 831.768 2.62969 2.42037 0
M  V30 8878 S 833.327 2.90269 3.29074 0
M  V30 8879 H 830.145 0.547008 0.454206 0
M  V30 8880 H 832.747 1.8444 0.648228 0
M  V30 8881 H 831.451 3.59376 1.98185 0
M  V30 8882 H 830.982 2.35197 3.15351 0
M  V30 8883 H 832.997 2.26854 4.41307 0
M  V30 8884 N 832.17 -0.811516 1.35101 0
M  V30 8885 C 833.133 -1.90467 1.27495 0
M  V30 8886 C 834.133 -1.59703 0.187516 0
M  V30 8887 O 835.323 -1.68528 0.440896 0
M  V30 8888 C 832.455 -3.26774 0.971154 0
M  V30 8889 H 833.648 -1.98631 2.2469 0
M  V30 8890 H 831.201 -1.00681 1.19553 0
M  V30 8891 H 831.936 -3.243 0.0028557 0
M  V30 8892 H 831.721 -3.50488 1.75785 0
M  V30 8893 H 833.211 -4.06804 0.943414 0
M  V30 8894 N 833.648 -1.19017 -1.03309 0
M  V30 8895 C 834.596 -0.920627 -2.13605 0
M  V30 8896 C 835.59 0.121969 -1.6896 0
M  V30 8897 O 836.796 -0.0268854 -1.7998 0
M  V30 8898 H 833.171 -0.280284 -0.697814 0
M  V30 8899 H 835.142 -1.85755 -2.33533 0
M  V30 8900 C 833.891 -0.471198 -3.44492 0
M  V30 8901 H 833.214 -1.26499 -3.7926 0
M  V30 8902 H 834.654 -0.321663 -4.22778 0
M  V30 8903 C 833.113 0.81411 -3.26916 0
M  V30 8904 O 833.643 1.87654 -3.55175 0
M  V30 8905 N 831.849 0.769695 -2.80221 0
M  V30 8906 H 831.396 -0.0951278 -2.57424 0
M  V30 8907 H 831.354 1.63008 -2.68842 0
M  V30 8908 N 835.127 1.22348 -0.993418 0
M  V30 8909 C 836.059 2.23626 -0.502404 0
M  V30 8910 C 837.072 1.57739 0.402784 0
M  V30 8911 O 838.261 1.77321 0.204835 0
M  V30 8912 C 835.361 3.37647 0.291118 0
M  V30 8913 C 834.534 4.33121 -0.610332 0
M  V30 8914 C 833.593 5.26035 0.131572 0
M  V30 8915 O 832.619 5.67145 -0.483199 0
M  V30 8916 N 833.821 5.63023 1.41371 0
M  V30 8917 H 836.586 2.66385 -1.37329 0
M  V30 8918 H 834.147 1.36653 -0.868196 0
M  V30 8919 H 836.139 3.96792 0.796107 0
M  V30 8920 H 834.709 2.93967 1.0631 0
M  V30 8921 H 833.929 3.72287 -1.29598 0
M  V30 8922 H 835.217 4.93853 -1.22422 0
M  V30 8923 H 834.615 5.31596 1.93449 0
M  V30 8924 H 833.172 6.24582 1.86388 0
M  V30 8925 N 836.605 0.766683 1.37694 0
M  V30 8926 C 838.021 0.445739 1.53249 0
M  V30 8927 C 838.221 -1.03935 1.72626 0
M  V30 8928 O 837.277 -1.82525 1.74473 0
M  V30 8929 C 838.59 1.2564 2.73194 0
M  V30 8930 C 840.138 1.24779 2.87053 0
M  V30 8931 C 840.613 2.04169 4.09974 0
M  V30 8932 N 842.104 2.01497 4.17077 0
M  V30 8933 C 842.839 2.5971 5.11212 0
M  V30 8934 N 842.335 3.26691 6.10938 0
M  V30 8935 N 844.128 2.49568 5.03659 0
M  V30 8936 H 836.279 1.72899 1.23368 0
M  V30 8937 H 838.542 0.733701 0.600322 0
M  V30 8938 H 838.248 2.30859 2.65324 0
M  V30 8939 H 838.122 0.882133 3.6674 0
M  V30 8940 H 840.509 0.203603 2.94397 0
M  V30 8941 H 840.59 1.66166 1.9448 0
M  V30 8942 H 840.234 3.08606 4.03392 0
M  V30 8943 H 840.164 1.60167 5.01651 0
M  V30 8944 H 842.655 1.52728 3.45662 0
M  V30 8945 H 842.968 3.68497 6.79286 0
M  V30 8946 H 841.313 3.30789 6.11231 0
M  V30 8947 H 844.504 1.96859 4.24693 0
M  V30 8948 H 844.677 2.95231 5.76839 0
M  V30 8949 N 838.083 -1.48885 0.516809 0
M  V30 8950 C 839.494 -1.86557 0.0729921 0
M  V30 8951 C 839.845 -1.42767 -1.34581 0
M  V30 8952 O 838.97 -0.812514 -2.00567 0
M  V30 8953 C 839.565 -3.38567 0.125686 0
M  V30 8954 C 838.124 -3.75481 -0.262867 0
M  V30 8955 C 837.271 -2.72913 0.491281 0
M  V30 8956 H 840.222 -1.40978 0.728767 0
M  V30 8957 H 840.243 -3.74629 -0.665831 0
M  V30 8958 H 839.755 -3.70408 1.15842 0
M  V30 8959 H 837.856 -3.49251 -1.29824 0
M  V30 8960 H 837.969 -4.79052 0.067579 0
M  V30 8961 H 836.333 -2.54627 -0.0608525 0
M  V30 8962 H 837.116 -3.07599 1.5244 0
M  V30 8963 N 839.561 -0.251338 -1.55583 0
M  V30 8964 C 840.838 0.422729 -1.90977 0
M  V30 8965 C 841.218 1.75534 -1.17265 0
M  V30 8966 O 840.566 2.26632 -0.291588 0
M  V30 8967 C 840.776 0.586448 -3.44037 0
M  V30 8968 C 842.124 0.880294 -4.15375 0
M  V30 8969 O 843.148 0.672148 -3.49801 0
M  V30 8970 O 842.007 1.27694 -5.31372 0
M  V30 8971 H 839.101 0.227622 -0.795058 0
M  V30 8972 H 841.647 -0.295733 -1.67103 0
M  V30 8973 H 840.419 -0.352327 -3.89711 0
M  V30 8974 H 840.042 1.35528 -3.73789 0
M  V30 8975 N 841.039 1.57585 0.0217189 0
M  V30 8976 C 841.969 2.10073 1.01939 0
M  V30 8977 C 842.95 1.0049 1.37243 0
M  V30 8978 O 844.135 1.28055 1.45999 0
M  V30 8979 C 841.265 2.58618 2.31806 0
M  V30 8980 C 840.219 3.72531 2.10724 0
M  V30 8981 C 839.545 4.07309 3.46415 0
M  V30 8982 C 840.845 5.00672 1.48743 0
M  V30 8983 H 842.539 2.9368 0.582432 0
M  V30 8984 H 840.085 1.41277 0.278715 0
M  V30 8985 H 842.038 2.9396 3.01936 0
M  V30 8986 H 840.762 1.72104 2.77575 0
M  V30 8987 H 839.421 3.37549 1.43025 0
M  V30 8988 H 839.069 3.17851 3.89846 0
M  V30 8989 H 838.769 4.84042 3.33132 0
M  V30 8990 H 840.293 4.45192 4.17895 0
M  V30 8991 H 841.707 5.33925 2.088 0
M  V30 8992 H 840.104 5.82065 1.46013 0
M  V30 8993 H 841.174 4.82769 0.45408 0
M  V30 8994 N 842.517 -0.29412 1.54831 0
M  V30 8995 C 843.764 -1.02846 1.74439 0
M  V30 8996 C 844.092 -1.87029 0.533905 0
M  V30 8997 O 843.347 -1.8962 -0.484035 0
M  V30 8998 C 843.646 -1.95782 2.99006 0
M  V30 8999 C 843.312 -1.2752 4.32492 0
M  V30 9000 C 841.974 -1.08637 4.68777 0
M  V30 9001 C 844.326 -0.787761 5.15212 0
M  V30 9002 C 841.654 -0.39704 5.85355 0
M  V30 9003 C 844.006 -0.112123 6.32501 0
M  V30 9004 C 842.67 0.0886071 6.67441 0
M  V30 9005 H 841.94 -0.376341 0.638317 0
M  V30 9006 H 844.587 -0.302684 1.89093 0
M  V30 9007 H 842.892 -2.74911 2.79162 0
M  V30 9008 H 844.589 -2.52684 3.11371 0
M  V30 9009 H 841.179 -1.43226 4.03961 0
M  V30 9010 H 845.363 -0.921341 4.87673 0
M  V30 9011 H 840.619 -0.230597 6.10965 0
M  V30 9012 H 844.793 0.27344 6.95863 0
M  V30 9013 H 842.42 0.624748 7.57628 0
M  V30 9014 N 843.995 -1.47404 -0.557645 0
M  V30 9015 C 845.243 -1.53703 -1.31224 0
M  V30 9016 C 845.564 -0.200742 -1.93964 0
M  V30 9017 O 844.834 0.775253 -1.79907 0
M  V30 9018 H 843.414 -0.566171 -0.487299 0
M  V30 9019 H 846.076 -1.83699 -0.651195 0
M  V30 9020 H 845.172 -2.30335 -2.10599 0
M  V30 9021 N 845.473 0.80434 -1.35529 0
M  V30 9022 C 846.713 1.57489 -1.30295 0
M  V30 9023 C 847.077 1.91621 0.120528 0
M  V30 9024 O 848.278 2.67151 0.297265 0
M  V30 9025 C 846.549 2.82741 -2.18615 0
M  V30 9026 S 848.108 3.73125 -2.30918 0
M  V30 9027 H 844.926 0.539573 -0.463014 0
M  V30 9028 H 847.528 0.948601 -1.70944 0
M  V30 9029 H 846.232 2.55692 -3.21014 0
M  V30 9030 H 845.763 3.50353 -1.78931 0
M  V30 9031 H 847.778 4.73122 -1.49566 0
M  V30 9032 N 846.951 1.19563 1.02676 0
M  V30 9033 C 848.197 1.00105 1.76371 0
M  V30 9034 C 848.53 -0.466823 1.88506 0
M  V30 9035 O 847.805 -1.34665 1.40341 0
M  V30 9036 C 848.088 1.67321 3.18866 0
M  V30 9037 C 847.941 3.21486 3.1459 0
M  V30 9038 C 849.26 1.39794 4.17308 0
M  V30 9039 H 846.379 0.365075 0.640226 0
M  V30 9040 H 849.021 1.47433 1.19848 0
M  V30 9041 H 847.171 1.27081 3.67128 0
M  V30 9042 H 848.843 3.70953 2.7421 0
M  V30 9043 H 847.086 3.5292 2.52249 0
M  V30 9044 H 847.757 3.63665 4.15273 0
M  V30 9045 H 850.233 1.74685 3.77657 0
M  V30 9046 H 849.109 1.89371 5.15199 0
M  V30 9047 H 849.37 0.323505 4.40915 0
M  V30 9048 N 848.429 -1.21819 0.999893 0
M  V30 9049 C 849.678 -1.90066 0.675108 0
M  V30 9050 C 849.991 -1.78624 -0.79705 0
M  V30 9051 O 851.197 -2.41851 -1.23371 0
M  V30 9052 C 849.653 -3.40795 1.15702 0
M  V30 9053 C 849.261 -3.60859 2.6549 0
M  V30 9054 C 851.005 -4.147 0.906889 0
M  V30 9055 C 848.912 -5.05324 3.07248 0
M  V30 9056 H 847.842 -0.711763 0.248815 0
M  V30 9057 H 850.493 -1.3792 1.21038 0
M  V30 9058 H 848.875 -3.92164 0.549832 0
M  V30 9059 H 850.049 -3.19951 3.31614 0
M  V30 9060 H 848.364 -3.00298 2.88461 0
M  V30 9061 H 850.961 -5.21187 1.1945 0
M  V30 9062 H 851.304 -4.16004 -0.156923 0
M  V30 9063 H 851.837 -3.69379 1.47662 0
M  V30 9064 H 848.576 -5.09164 4.12834 0
M  V30 9065 H 848.096 -5.47108 2.45832 0
M  V30 9066 H 849.775 -5.73797 2.98941 0
M  V30 9067 N 849.908 -0.773975 -1.37286 0
M  V30 9068 C 850.871 -0.167974 -2.28584 0
M  V30 9069 C 851.871 0.625662 -1.48129 0
M  V30 9070 O 853.061 0.448924 -1.68316 0
M  V30 9071 C 850.193 0.769364 -3.32105 0
M  V30 9072 H 851.386 -0.972806 -2.83684 0
M  V30 9073 H 848.939 -0.542335 -1.46589 0
M  V30 9074 H 849.674 1.59912 -2.82132 0
M  V30 9075 H 849.459 0.202419 -3.91577 0
M  V30 9076 H 850.949 1.18872 -4.00324 0
M  V30 9077 N 851.386 1.48609 -0.524698 0
M  V30 9078 C 852.318 2.27508 0.278 0
M  V30 9079 C 853.331 1.35042 0.909258 0
M  V30 9080 O 854.52 1.60136 0.788592 0
M  V30 9081 C 851.62 3.08247 1.40843 0
M  V30 9082 C 850.793 4.28455 0.880083 0
M  V30 9083 C 849.852 4.91048 1.891 0
M  V30 9084 O 848.878 5.5042 1.45005 0
M  V30 9085 N 850.08 4.82816 3.22288 0
M  V30 9086 H 852.845 2.97037 -0.398642 0
M  V30 9087 H 850.406 1.57876 -0.358698 0
M  V30 9088 H 852.398 3.46992 2.08276 0
M  V30 9089 H 850.968 2.41173 1.98883 0
M  V30 9090 H 850.188 3.94189 0.0299228 0
M  V30 9091 H 851.476 5.06279 0.505881 0
M  V30 9092 H 850.874 4.3572 3.60783 0
M  V30 9093 H 849.431 5.25676 3.85368 0
M  V30 9094 N 852.864 0.259585 1.55447 0
M  V30 9095 C 854.11 -0.362143 1.9954 0
M  V30 9096 C 854.443 -1.5666 1.14767 0
M  V30 9097 O 853.718 -1.93319 0.214025 0
M  V30 9098 C 854.001 -0.759588 3.51998 0
M  V30 9099 C 853.854 0.451134 4.47532 0
M  V30 9100 C 855.173 -1.60186 4.09913 0
M  V30 9101 H 852.292 -0.130157 0.725416 0
M  V30 9102 H 854.934 0.363431 1.86492 0
M  V30 9103 H 853.084 -1.3778 3.63248 0
M  V30 9104 H 854.756 1.08965 4.48246 0
M  V30 9105 H 852.999 1.092 4.19831 0
M  V30 9106 H 853.67 0.129518 5.51848 0
M  V30 9107 H 856.146 -1.0799 4.01842 0
M  V30 9108 H 855.022 -1.84879 5.16828 0
M  V30 9109 H 855.283 -2.57787 3.59163 0
M  V30 9110 N 854.342 -1.57594 -0.0133615 0
M  V30 9111 C 855.59 -1.89605 -0.699596 0
M  V30 9112 C 855.911 -0.85926 -1.75048 0
M  V30 9113 O 855.181 0.105112 -1.95618 0
M  V30 9114 H 853.761 -0.699776 -0.261385 0
M  V30 9115 H 856.423 -1.94885 0.0244044 0
M  V30 9116 H 855.519 -2.88962 -1.17928 0
M  V30 9117 N 855.82 0.285905 -1.54985 0
M  V30 9118 C 857.066 1.02071 -1.75241 0
M  V30 9119 C 857.399 1.864 -0.544842 0
M  V30 9120 O 856.674 1.89034 0.457844 0
M  V30 9121 C 856.957 1.91409 -3.05016 0
M  V30 9122 C 856.81 1.10158 -4.36102 0
M  V30 9123 C 858.129 2.90335 -3.30747 0
M  V30 9124 H 855.248 0.369663 -0.637588 0
M  V30 9125 H 857.89 0.294114 -1.8771 0
M  V30 9126 H 856.04 2.53362 -2.94517 0
M  V30 9127 H 857.712 0.503756 -4.58541 0
M  V30 9128 H 855.955 0.404675 -4.31908 0
M  V30 9129 H 856.626 1.75956 -5.23205 0
M  V30 9130 H 859.102 2.38514 -3.40955 0
M  V30 9131 H 857.978 3.49997 -4.2284 0
M  V30 9132 H 858.239 3.64787 -2.49765 0
M  V30 9133 N 857.298 1.47698 0.54982 0
M  V30 9134 C 858.231 1.55288 1.67215 0
M  V30 9135 C 859.209 0.404533 1.57487 0
M  V30 9136 O 860.393 0.613372 1.78241 0
M  V30 9137 C 857.52 1.46233 3.05505 0
M  V30 9138 C 856.566 2.65662 3.33655 0
M  V30 9139 S 857.399 4.278 3.22098 0
M  V30 9140 C 858.555 4.21311 4.62869 0
M  V30 9141 H 858.788 2.50238 1.60524 0
M  V30 9142 H 856.321 1.35987 0.731227 0
M  V30 9143 H 858.279 1.41696 3.85269 0
M  V30 9144 H 856.94 0.526543 3.09655 0
M  V30 9145 H 856.133 2.55411 4.3449 0
M  V30 9146 H 855.735 2.67359 2.61524 0
M  V30 9147 H 858.027 3.90021 5.53977 0
M  V30 9148 H 858.97 5.22257 4.78177 0
M  V30 9149 H 859.378 3.52063 4.41262 0
M  V30 9150 N 858.776 -0.797141 1.35954 0
M  V30 9151 C 860.053 -1.54224 1.2031 0
M  V30 9152 C 860.433 -2.10013 -0.213926 0
M  V30 9153 O 859.781 -1.93292 -1.21862 0
M  V30 9154 C 859.991 -2.6433 2.27883 0
M  V30 9155 C 861.339 -3.32418 2.64165 0
M  V30 9156 O 862.363 -2.74607 2.26868 0
M  V30 9157 O 861.222 -4.36876 3.28331 0
M  V30 9158 H 858.316 -0.681857 0.467974 0
M  V30 9159 H 860.862 -0.836288 1.47663 0
M  V30 9160 H 859.634 -2.21044 3.22885 0
M  V30 9161 H 859.257 -3.42551 2.01853 0
M  V30 9162 N 860.254 -1.20106 -1.0204 0
M  V30 9163 C 861.187 -0.889795 -2.10138 0
M  V30 9164 C 862.165 0.156595 -1.61844 0
M  V30 9165 O 863.349 0.0310192 -1.88474 0
M  V30 9166 C 860.476 -0.333227 -3.37057 0
M  V30 9167 C 859.522 -1.36001 -4.04235 0
M  V30 9168 S 860.355 -2.92366 -4.48645 0
M  V30 9169 C 861.511 -2.38274 -5.78771 0
M  V30 9170 H 861.744 -1.80523 -2.36217 0
M  V30 9171 H 859.277 -1.02912 -1.15102 0
M  V30 9172 H 861.235 -0.0186507 -4.10496 0
M  V30 9173 H 859.896 0.560652 -3.09056 0
M  V30 9174 H 859.089 -0.919874 -4.95534 0
M  V30 9175 H 858.691 -1.62186 -3.37004 0
M  V30 9176 H 860.983 -1.77799 -6.53754 0
M  V30 9177 H 861.926 -3.27955 -6.27576 0
M  V30 9178 H 862.334 -1.8054 -5.34851 0
M  V30 9179 N 861.732 1.21287 -1.00634 0
M  V30 9180 C 862.662 2.25973 -0.588089 0
M  V30 9181 C 863.643 1.65527 0.391764 0
M  V30 9182 O 864.828 1.92179 0.279452 0
M  V30 9183 C 861.958 3.47197 0.0847336 0
M  V30 9184 C 860.912 4.20168 -0.815039 0
M  V30 9185 C 860.238 5.34699 -0.00855393 0
M  V30 9186 C 861.538 4.77416 -2.11828 0
M  V30 9187 H 863.232 2.61212 -1.46317 0
M  V30 9188 H 860.778 1.25563 -0.704985 0
M  V30 9189 H 862.731 4.19602 0.388821 0
M  V30 9190 H 861.455 3.11092 0.994456 0
M  V30 9191 H 860.114 3.49614 -1.10297 0
M  V30 9192 H 859.762 4.94837 0.902499 0
M  V30 9193 H 859.462 5.84449 -0.607664 0
M  V30 9194 H 860.986 6.09914 0.289317 0
M  V30 9195 H 862.4 5.41694 -1.87725 0
M  V30 9196 H 860.797 5.37561 -2.66736 0
M  V30 9197 H 861.867 3.96724 -2.78816 0
M  V30 9198 N 863.21 0.781244 1.36873 0
M  V30 9199 C 864.157 0.172146 2.30157 0
M  V30 9200 C 865.127 -0.679328 1.51573 0
M  V30 9201 O 866.312 -0.629713 1.80109 0
M  V30 9202 C 863.452 -0.693534 3.38059 0
M  V30 9203 C 862.565 0.175586 4.31643 0
M  V30 9204 C 861.7 -0.695695 5.26625 0
M  V30 9205 C 860.739 0.17538 6.11849 0
M  V30 9206 N 859.876 -0.654416 6.99043 0
M  V30 9207 H 864.716 0.973133 2.81663 0
M  V30 9208 H 862.253 0.491469 1.38647 0
M  V30 9209 H 864.211 -1.21035 3.99257 0
M  V30 9210 H 862.841 -1.46003 2.87894 0
M  V30 9211 H 861.893 0.810295 3.7167 0
M  V30 9212 H 863.205 0.847107 4.91554 0
M  V30 9213 H 862.359 -1.27863 5.93073 0
M  V30 9214 H 861.098 -1.40087 4.67148 0
M  V30 9215 H 860.103 0.77078 5.4437 0
M  V30 9216 H 861.328 0.87803 6.734 0
M  V30 9217 H 859.274 -1.34403 6.42084 0
M  V30 9218 H 859.191 -0.0403998 7.55989 0
M  V30 9219 H 860.459 -1.22144 7.69871 0
M  V30 9220 N 864.689 -1.48329 0.532571 0
M  V30 9221 C 865.936 -2.025 -0.000582356 0
M  V30 9222 C 866.264 -1.40942 -1.34036 0
M  V30 9223 O 865.519 -0.545545 -1.87942 0
M  V30 9224 C 865.818 -3.57 -0.168943 0
M  V30 9225 C 865.484 -4.37357 1.0968 0
M  V30 9226 C 864.146 -4.59033 1.44369 0
M  V30 9227 C 866.498 -4.83882 1.93669 0
M  V30 9228 C 863.826 -5.24481 2.62939 0
M  V30 9229 C 866.178 -5.50637 3.11419 0
M  V30 9230 C 864.842 -5.70551 3.46451 0
M  V30 9231 H 864.112 -0.741 -0.000213099 0
M  V30 9232 H 866.759 -1.78282 0.699117 0
M  V30 9233 H 865.064 -3.80072 -0.951429 0
M  V30 9234 H 866.761 -3.9654 -0.596422 0
M  V30 9235 H 863.351 -4.20748 0.816655 0
M  V30 9236 H 867.535 -4.66936 1.6818 0
M  V30 9237 H 862.791 -5.38096 2.9028 0
M  V30 9238 H 866.965 -5.85655 3.76803 0
M  V30 9239 H 864.592 -6.21037 4.38425 0
M  V30 9240 N 866.167 -0.267825 -1.55308 0
M  V30 9241 C 867.117 0.637168 -2.18916 0
M  V30 9242 C 868.101 1.12381 -1.15149 0
M  V30 9243 O 869.293 1.0701 -1.40989 0
M  V30 9244 C 866.422 1.82423 -2.90821 0
M  V30 9245 C 865.508 1.35512 -4.01867 0
M  V30 9246 N 865.899 0.601644 -5.02209 0
M  V30 9247 C 864.197 1.63868 -4.14805 0
M  V30 9248 C 864.898 0.35596 -5.8061 0
M  V30 9249 N 863.874 0.926271 -5.3565 0
M  V30 9250 H 867.676 0.0535787 -2.93851 0
M  V30 9251 H 865.19 -0.0710577 -1.62244 0
M  V30 9252 H 867.187 2.48379 -3.34834 0
M  V30 9253 H 865.847 2.41185 -2.17394 0
M  V30 9254 H 866.858 0.249693 -5.17298 0
M  V30 9255 H 863.535 2.23618 -3.52564 0
M  V30 9256 H 864.925 -0.246994 -6.71446 0
M  V30 9257 N 867.645 1.57599 0.00500368 0
M  V30 9258 C 868.592 2.08106 0.998025 0
M  V30 9259 C 869.562 0.975374 1.34446 0
M  V30 9260 O 870.747 1.24749 1.44369 0
M  V30 9261 C 867.887 2.58496 2.28635 0
M  V30 9262 C 867 3.82947 1.99939 0
M  V30 9263 C 866.135 4.21857 3.22816 0
M  V30 9264 C 865.174 5.39159 2.89783 0
M  V30 9265 N 864.311 5.73386 4.05183 0
M  V30 9266 H 869.151 2.92684 0.560385 0
M  V30 9267 H 866.688 1.44692 0.265053 0
M  V30 9268 H 868.646 2.85787 3.03943 0
M  V30 9269 H 867.276 1.768 2.70077 0
M  V30 9270 H 866.328 3.62594 1.1502 0
M  V30 9271 H 867.64 4.68358 1.71588 0
M  V30 9272 H 866.794 4.50404 4.06474 0
M  V30 9273 H 865.533 3.35145 3.54301 0
M  V30 9274 H 864.538 5.1034 2.04532 0
M  V30 9275 H 865.763 6.27543 2.59551 0
M  V30 9276 H 863.709 4.89632 4.36574 0
M  V30 9277 H 863.626 6.53359 3.80339 0
M  V30 9278 H 864.894 6.06522 4.89644 0
M  V30 9279 N 869.123 -0.277682 1.55134 0
M  V30 9280 C 870.353 -1.02677 1.79279 0
M  V30 9281 C 870.761 -1.80599 0.563962 0
M  V30 9282 O 870.104 -1.77416 -0.476378 0
M  V30 9283 C 870.166 -2.03617 2.96277 0
M  V30 9284 C 869.83 -1.44676 4.33495 0
M  V30 9285 C 870.827 -0.864811 5.12657 0
M  V30 9286 C 868.512 -1.47537 4.80144 0
M  V30 9287 C 870.506 -0.319322 6.366 0
M  V30 9288 C 868.193 -0.926016 6.04043 0
M  V30 9289 C 869.191 -0.348988 6.82108 0
M  V30 9290 O 868.879 0.191964 8.03671 0
M  V30 9291 H 868.611 -0.309232 0.601125 0
M  V30 9292 H 871.165 -0.315308 2.02965 0
M  V30 9293 H 869.395 -2.78509 2.68272 0
M  V30 9294 H 871.084 -2.64616 3.07788 0
M  V30 9295 H 871.85 -0.835438 4.7775 0
M  V30 9296 H 867.729 -1.91389 4.19394 0
M  V30 9297 H 871.273 0.131709 6.97476 0
M  V30 9298 H 867.17 -0.952613 6.38432 0
M  V30 9299 H 867.938 0.0808779 8.1846 0
M  V30 9300 N 870.601 -1.47988 -0.541979 0
M  V30 9301 C 871.829 -1.59034 -1.32347 0
M  V30 9302 C 872.244 -0.246123 -1.87189 0
M  V30 9303 O 871.601 0.762889 -1.6579 0
M  V30 9304 C 871.652 -2.62759 -2.48274 0
M  V30 9305 O 871.373 -3.91963 -1.95695 0
M  V30 9306 C 872.874 -2.84133 -3.4027 0
M  V30 9307 H 870.094 -0.536574 -0.402901 0
M  V30 9308 H 872.638 -1.93725 -0.655045 0
M  V30 9309 H 870.793 -2.3096 -3.11025 0
M  V30 9310 H 871.207 -4.48769 -2.7149 0
M  V30 9311 H 872.681 -3.60538 -4.17991 0
M  V30 9312 H 873.158 -1.92512 -3.9476 0
M  V30 9313 H 873.764 -3.17188 -2.83322 0
M  V30 9314 N 872.079 0.78992 -1.36375 0
M  V30 9315 C 873.328 1.54296 -1.29906 0
M  V30 9316 C 873.641 1.95234 0.119651 0
M  V30 9317 O 874.847 2.69762 0.306708 0
M  V30 9318 C 873.303 2.78533 -2.27919 0
M  V30 9319 C 872.911 2.44767 -3.75224 0
M  V30 9320 C 874.655 3.56516 -2.30427 0
M  V30 9321 C 872.562 3.65397 -4.65015 0
M  V30 9322 H 871.492 0.579214 -0.482729 0
M  V30 9323 H 874.143 0.866845 -1.61735 0
M  V30 9324 H 872.525 3.47941 -1.89084 0
M  V30 9325 H 873.699 1.83259 -4.22792 0
M  V30 9326 H 872.014 1.79996 -3.75487 0
M  V30 9327 H 874.611 4.46143 -2.94722 0
M  V30 9328 H 874.954 3.95063 -1.31266 0
M  V30 9329 H 875.487 2.94087 -2.67876 0
M  V30 9330 H 872.226 3.31946 -5.65236 0
M  V30 9331 H 871.746 4.26072 -4.22164 0
M  V30 9332 H 873.425 4.32431 -4.81261 0
M  V30 9333 N 873.557 1.20646 1.01402 0
M  V30 9334 C 874.805 1.01618 1.74695 0
M  V30 9335 C 875.126 -0.452438 1.89679 0
M  V30 9336 O 874.396 -1.32693 1.44116 0
M  V30 9337 H 872.976 0.373013 0.647202 0
M  V30 9338 H 875.638 1.518 1.22241 0
M  V30 9339 H 874.734 1.47666 2.74957 0
M  V30 9340 N 875.035 -1.20752 1.01276 0
M  V30 9341 C 875.985 -2.21252 0.550602 0
M  V30 9342 C 876.969 -1.56052 -0.391985 0
M  V30 9343 O 878.161 -1.75682 -0.215575 0
M  V30 9344 C 875.29 -3.43112 -0.113601 0
M  V30 9345 C 874.376 -4.15485 0.850465 0
M  V30 9346 N 874.767 -4.64301 2.00643 0
M  V30 9347 C 873.065 -4.40932 0.670476 0
M  V30 9348 C 873.766 -5.197 2.61317 0
M  V30 9349 N 872.742 -5.09534 1.8941 0
M  V30 9350 H 876.544 -2.56657 1.43194 0
M  V30 9351 H 874.058 -1.36646 0.877597 0
M  V30 9352 H 876.055 -4.1433 -0.462211 0
M  V30 9353 H 874.715 -3.09213 -0.990825 0
M  V30 9354 H 875.726 -4.59637 2.38651 0
M  V30 9355 H 872.403 -4.17197 -0.159016 0
M  V30 9356 H 873.793 -5.67873 3.59123 0
M  V30 9357 N 876.513 -0.788492 -1.36457 0
M  V30 9358 C 877.476 -0.192209 -2.28393 0
M  V30 9359 C 878.476 0.609916 -1.48784 0
M  V30 9360 O 879.666 0.431046 -1.68783 0
M  V30 9361 C 876.798 0.734096 -3.32902 0
M  V30 9362 H 877.991 -1.00284 -2.82636 0
M  V30 9363 H 875.544 -0.557852 -1.46006 0
M  V30 9364 H 876.279 1.5691 -2.83813 0
M  V30 9365 H 876.064 0.160875 -3.9177 0
M  V30 9366 H 877.554 1.1462 -4.01562 0
M  V30 9367 N 877.991 1.48044 -0.54043 0
M  V30 9368 C 879.237 2.03392 -0.0183377 0
M  V30 9369 C 879.592 1.4091 1.31004 0
M  V30 9370 O 878.885 0.549375 1.83555 0
M  V30 9371 C 879.079 3.57085 0.150008 0
M  V30 9372 C 878.908 4.34468 -1.1605 0
M  V30 9373 C 877.678 4.75008 -1.72324 0
M  V30 9374 C 879.876 4.70641 -2.07368 0
M  V30 9375 N 877.858 5.36968 -2.97555 0
M  V30 9376 C 879.229 5.32728 -3.17176 0
M  V30 9377 C 881.284 4.52571 -2.07567 0
M  V30 9378 C 879.987 5.78654 -4.27261 0
M  V30 9379 C 882.013 4.99485 -3.16653 0
M  V30 9380 C 881.375 5.61606 -4.2518 0
M  V30 9381 H 877.474 0.780497 -0.0484652 0
M  V30 9382 H 880.058 1.80738 -0.724018 0
M  V30 9383 H 878.229 3.79542 0.824787 0
M  V30 9384 H 879.961 3.99071 0.672649 0
M  V30 9385 H 876.716 4.5644 -1.26331 0
M  V30 9386 H 877.14 5.72505 -3.61341 0
M  V30 9387 H 881.782 4.03914 -1.24952 0
M  V30 9388 H 879.5 6.26311 -5.10647 0
M  V30 9389 H 883.086 4.87286 -3.17874 0
M  V30 9390 H 881.966 5.97248 -5.08197 0
M  V30 9391 N 879.47 0.276058 1.55163 0
M  V30 9392 C 880.698 -0.343772 2.04024 0
M  V30 9393 C 881.113 -1.49397 1.15438 0
M  V30 9394 O 880.47 -1.81662 0.174692 0
M  V30 9395 C 880.521 -0.823885 3.51986 0
M  V30 9396 O 880.242 0.280507 4.37201 0
M  V30 9397 C 881.743 -1.51143 4.16738 0
M  V30 9398 H 878.963 -0.07828 0.666418 0
M  V30 9399 H 881.507 0.408427 2.0038 0
M  V30 9400 H 879.662 -1.52617 3.56071 0
M  V30 9401 H 880.076 -0.0887831 5.24425 0
M  V30 9402 H 881.55 -1.79878 5.2187 0
M  V30 9403 H 882.027 -2.44327 3.64967 0
M  V30 9404 H 882.633 -0.852975 4.16659 0
M  V30 9405 N 880.948 -1.576 0.00335426 0
M  V30 9406 C 882.176 -1.94996 -0.691685 0
M  V30 9407 C 882.591 -0.878405 -1.67121 0
M  V30 9408 O 881.948 0.142343 -1.81944 0
M  V30 9409 C 881.999 -3.32416 -1.42063 0
M  V30 9410 O 881.72 -4.35458 -0.48038 0
M  V30 9411 C 883.221 -3.84291 -2.20987 0
M  V30 9412 H 880.441 -0.642814 -0.192434 0
M  V30 9413 H 882.985 -2.04425 0.0554706 0
M  V30 9414 H 881.14 -3.24285 -2.11939 0
M  V30 9415 H 881.554 -5.14975 -0.995054 0
M  V30 9416 H 883.028 -4.82863 -2.67483 0
M  V30 9417 H 883.505 -3.17174 -3.03805 0
M  V30 9418 H 884.111 -3.95609 -1.56121 0
M  V30 9419 N 882.426 0.269451 -1.5528 0
M  V30 9420 C 883.703 1.02207 -1.66773 0
M  V30 9421 C 884.083 2.04168 -0.536536 0
M  V30 9422 O 883.431 2.23761 0.462956 0
M  V30 9423 C 883.641 1.67569 -3.0614 0
M  V30 9424 C 884.989 2.18599 -3.64005 0
M  V30 9425 O 886.013 1.7755 -3.08795 0
M  V30 9426 O 884.872 2.93903 -4.60742 0
M  V30 9427 H 881.966 0.474314 -0.677462 0
M  V30 9428 H 884.512 0.265026 -1.67618 0
M  V30 9429 H 883.284 0.937029 -3.79915 0
M  V30 9430 H 882.907 2.49951 -3.09209 0
M  V30 9431 N 883.904 1.48273 0.534124 0
M  V30 9432 C 885.134 1.59503 1.31311 0
M  V30 9433 C 885.542 0.25284 1.87503 0
M  V30 9434 O 884.885 -0.767399 1.66903 0
M  V30 9435 C 884.947 2.57899 2.50456 0
M  V30 9436 C 884.611 4.03063 2.15382 0
M  V30 9437 C 885.608 4.90869 1.713 0
M  V30 9438 C 883.293 4.4857 2.26032 0
M  V30 9439 C 885.287 6.22209 1.38328 0
M  V30 9440 C 882.974 5.79932 1.92672 0
M  V30 9441 C 883.972 6.66574 1.4889 0
M  V30 9442 O 883.66 7.95492 1.15966 0
M  V30 9443 H 883.392 0.540695 0.405739 0
M  V30 9444 H 885.946 1.94794 0.651497 0
M  V30 9445 H 884.176 2.1772 3.19585 0
M  V30 9446 H 885.865 2.59008 3.12522 0
M  V30 9447 H 886.631 4.56951 1.62545 0
M  V30 9448 H 882.51 3.81321 2.59066 0
M  V30 9449 H 886.054 6.89792 1.04082 0
M  V30 9450 H 881.951 6.13386 2.01066 0
M  V30 9451 H 882.719 8.08207 1.29399 0
M  V30 9452 N 885.382 -0.782676 1.36792 0
M  V30 9453 C 886.63 -1.53778 1.31136 0
M  V30 9454 C 886.951 -1.94706 -0.107014 0
M  V30 9455 O 886.221 -1.65465 -1.04872 0
M  V30 9456 H 884.801 -0.570328 0.482426 0
M  V30 9457 H 887.463 -0.932181 1.71162 0
M  V30 9458 H 886.559 -2.44224 1.94321 0
M  V30 9459 N 886.86 -1.21182 -1.00761 0
M  V30 9460 C 888.1 -1.03886 -1.76031 0
M  V30 9461 C 888.464 0.420593 -1.87337 0
M  V30 9462 O 889.665 0.713994 -2.59144 0
M  V30 9463 C 887.936 -1.71394 -3.13622 0
M  V30 9464 S 889.495 -1.69319 -4.04816 0
M  V30 9465 H 886.313 -0.372327 -0.605717 0
M  V30 9466 H 888.915 -1.53885 -1.20581 0
M  V30 9467 H 887.619 -2.76773 -3.03026 0
M  V30 9468 H 887.15 -1.21564 -3.74147 0
M  V30 9469 H 889.165 -0.732434 -4.90765 0
M  V30 9470 N 888.338 1.20213 -1.01915 0
M  V30 9471 C 889.563 1.94163 -0.729076 0
M  V30 9472 C 889.988 1.74416 0.704323 0
M  V30 9473 O 889.346 1.0401 1.48498 0
M  V30 9474 C 889.394 3.44258 -1.07324 0
M  V30 9475 O 888.498 4.11979 -0.186367 0
M  V30 9476 H 887.839 0.606506 -0.270272 0
M  V30 9477 H 890.369 1.52571 -1.3632 0
M  V30 9478 H 890.379 3.94888 -1.02603 0
M  V30 9479 H 889.054 3.57954 -2.11759 0
M  V30 9480 H 887.631 3.7176 -0.291334 0
M  V30 9481 N 889.816 0.795718 1.36037 0
M  V30 9482 C 891.093 0.294743 1.93367 0
M  V30 9483 C 891.473 -1.21406 1.72696 0
M  V30 9484 O 890.821 -2.00849 1.08959 0
M  V30 9485 C 891.031 0.694254 3.42025 0
M  V30 9486 C 892.379 0.677566 4.19159 0
M  V30 9487 O 893.403 0.635119 3.50492 0
M  V30 9488 O 892.262 0.726127 5.41655 0
M  V30 9489 H 889.356 0.0745459 0.823633 0
M  V30 9490 H 891.902 0.878685 1.4518 0
M  V30 9491 H 890.674 1.73458 3.50753 0
M  V30 9492 H 890.297 0.0845338 3.9751 0
M  V30 9493 N 891.294 -1.47756 0.548274 0
M  V30 9494 C 892.519 -2.07387 0.023475 0
M  V30 9495 C 892.944 -1.39956 -1.25674 0
M  V30 9496 O 892.302 -0.471543 -1.7506 0
M  V30 9497 C 892.35 -3.60224 -0.164669 0
M  V30 9498 O 891.454 -3.93653 -1.22928 0
M  V30 9499 H 890.795 -0.662312 0.0473156 0
M  V30 9500 H 893.325 -1.89905 0.761409 0
M  V30 9501 H 893.335 -4.06211 -0.38166 0
M  V30 9502 H 892.01 -4.08702 0.770425 0
M  V30 9503 H 890.587 -3.59422 -0.993495 0
M  V30 9504 N 892.772 -0.284283 -1.55015 0
M  V30 9505 C 893.719 0.599194 -2.22886 0
M  V30 9506 C 894.689 1.14264 -1.20553 0
M  V30 9507 O 895.874 1.19025 -1.49123 0
M  V30 9508 C 893.014 1.77317 -2.96062 0
M  V30 9509 C 892.127 1.26271 -4.13134 0
M  V30 9510 C 891.262 2.39922 -4.73931 0
M  V30 9511 C 890.301 1.85925 -5.8318 0
M  V30 9512 N 889.438 2.93084 -6.38002 0
M  V30 9513 H 894.278 0.0137816 -2.97997 0
M  V30 9514 H 891.815 -0.00496503 -1.47099 0
M  V30 9515 H 893.773 2.46339 -3.36709 0
M  V30 9516 H 892.403 2.33047 -2.23358 0
M  V30 9517 H 891.455 0.465296 -3.77544 0
M  V30 9518 H 892.767 0.827284 -4.91892 0
M  V30 9519 H 891.921 3.1692 -5.17346 0
M  V30 9520 H 890.66 2.86784 -3.9447 0
M  V30 9521 H 889.665 1.07409 -5.39206 0
M  V30 9522 H 890.89 1.39987 -6.64515 0
M  V30 9523 H 888.836 3.3931 -5.61431 0
M  V30 9524 H 888.753 2.53986 -7.12058 0
M  V30 9525 H 890.021 3.7003 -6.86075 0
M  V30 9526 N 894.251 1.57596 -0.0117121 0
M  V30 9527 C 895.183 2.06025 1.0043 0
M  V30 9528 C 896.196 0.980348 1.29973 0
M  V30 9529 O 897.385 1.25691 1.26744 0
M  V30 9530 C 894.485 2.45514 2.33615 0
M  V30 9531 C 893.658 3.76378 2.22842 0
M  V30 9532 C 892.717 4.02606 3.38814 0
M  V30 9533 O 891.743 4.73108 3.16477 0
M  V30 9534 N 892.945 3.51416 4.62047 0
M  V30 9535 H 895.71 2.93811 0.591206 0
M  V30 9536 H 893.271 1.60947 0.175427 0
M  V30 9537 H 895.263 2.60166 3.09993 0
M  V30 9538 H 893.833 1.63186 2.66625 0
M  V30 9539 H 893.053 3.71691 1.313 0
M  V30 9540 H 894.341 4.62149 2.12829 0
M  V30 9541 H 893.739 2.94346 4.83091 0
M  V30 9542 H 892.296 3.71377 5.35651 0
M  V30 9543 N 895.729 -0.261212 1.5542 0
M  V30 9544 C 896.679 -1.32571 1.85496 0
M  V30 9545 C 897.663 -1.44155 0.714722 0
M  V30 9546 O 898.855 -1.47637 0.976336 0
M  V30 9547 C 895.984 -2.68384 2.14067 0
M  V30 9548 C 895.07 -2.60864 3.34381 0
M  V30 9549 N 895.461 -2.22967 4.54004 0
M  V30 9550 C 893.759 -2.91904 3.37206 0
M  V30 9551 C 894.46 -2.25727 5.36118 0
M  V30 9552 N 893.436 -2.64667 4.74818 0
M  V30 9553 H 897.238 -1.02298 2.75522 0
M  V30 9554 H 894.752 -0.469849 1.55455 0
M  V30 9555 H 896.749 -3.45189 2.33774 0
M  V30 9556 H 895.409 -2.99536 1.25332 0
M  V30 9557 H 896.42 -1.94748 4.79889 0
M  V30 9558 H 893.097 -3.2769 2.587 0
M  V30 9559 H 894.487 -1.98889 6.41789 0
M  V30 9560 N 897.207 -1.48554 -0.526253 0
M  V30 9561 C 898.454 -1.56761 -1.28188 0
M  V30 9562 C 898.782 -0.24315 -1.92974 0
M  V30 9563 O 898.037 0.766883 -1.80048 0
M  V30 9564 C 898.336 -2.65739 -2.38993 0
M  V30 9565 C 898.002 -4.08057 -1.91834 0
M  V30 9566 C 896.664 -4.46792 -1.78691 0
M  V30 9567 C 899.016 -4.9723 -1.56242 0
M  V30 9568 C 896.344 -5.72501 -1.28296 0
M  V30 9569 C 898.696 -6.23432 -1.07309 0
M  V30 9570 C 897.36 -6.6102 -0.927853 0
M  V30 9571 H 896.63 -0.573631 -0.469072 0
M  V30 9572 H 899.277 -1.82287 -0.586842 0
M  V30 9573 H 897.582 -2.34088 -3.14181 0
M  V30 9574 H 899.279 -2.69304 -2.97113 0
M  V30 9575 H 895.869 -3.77469 -2.03016 0
M  V30 9576 H 900.053 -4.67979 -1.65255 0
M  V30 9577 H 895.309 -6.00345 -1.15742 0
M  V30 9578 H 899.483 -6.91923 -0.788412 0
M  V30 9579 H 897.11 -7.58314 -0.535162 0
M  V30 9580 N 898.685 0.775411 -1.37205 0
M  V30 9581 C 899.595 1.91967 -1.34855 0
M  V30 9582 C 900.611 1.72214 -0.248656 0
M  V30 9583 O 901.787 1.95512 -0.483421 0
M  V30 9584 C 898.852 3.27038 -1.15096 0
M  V30 9585 C 897.913 3.5947 -2.34691 0
M  V30 9586 C 897.146 4.88097 -2.15865 0
M  V30 9587 O 897.369 5.58871 -1.14102 0
M  V30 9588 O 896.303 5.19507 -3.03967 0
M  V30 9589 H 900.129 1.969 -2.31223 0
M  V30 9590 H 897.714 0.917647 -1.17897 0
M  V30 9591 H 899.596 4.07837 -1.0605 0
M  V30 9592 H 898.271 3.22965 -0.217999 0
M  V30 9593 H 897.178 2.7892 -2.49308 0
M  V30 9594 H 898.511 3.68282 -3.26541 0
M  V30 9595 N 900.163 1.21714 1.00117 0
M  V30 9596 C 901.409 1.04829 1.74306 0
M  V30 9597 C 901.764 -0.413387 1.87907 0
M  V30 9598 O 901.057 -1.30258 1.40512 0
M  V30 9599 C 901.251 1.68345 3.15269 0
M  V30 9600 C 901.08 3.20537 3.15414 0
M  V30 9601 C 899.85 3.896 3.21776 0
M  V30 9602 C 902.048 4.17576 3.00224 0
M  V30 9603 N 900.03 5.28949 3.11587 0
M  V30 9604 C 901.401 5.43701 2.97974 0
M  V30 9605 C 903.456 4.08575 2.84554 0
M  V30 9606 C 902.159 6.61861 2.8166 0
M  V30 9607 C 904.185 5.26375 2.69598 0
M  V30 9608 C 903.547 6.51414 2.68028 0
M  V30 9609 H 899.646 0.437964 0.647852 0
M  V30 9610 H 902.23 1.54128 1.18965 0
M  V30 9611 H 900.401 1.21607 3.68872 0
M  V30 9612 H 902.133 1.44629 3.77974 0
M  V30 9613 H 898.888 3.40548 3.29126 0
M  V30 9614 H 899.312 6.01945 3.09825 0
M  V30 9615 H 903.954 3.12696 2.84571 0
M  V30 9616 H 901.672 7.57896 2.8039 0
M  V30 9617 H 905.258 5.21235 2.58468 0
M  V30 9618 H 904.138 7.41033 2.56593 0
M  V30 9619 N 901.641 -1.19671 1.02551 0
M  V30 9620 C 902.571 -2.25009 0.623965 0
M  V30 9621 C 903.552 -1.66129 -0.36538 0
M  V30 9622 O 904.737 -1.92599 -0.248842 0
M  V30 9623 C 901.867 -3.47287 -0.0294869 0
M  V30 9624 C 900.821 -4.18818 0.881781 0
M  V30 9625 C 900.147 -5.34618 0.0936189 0
M  V30 9626 C 901.447 -4.73986 2.19396 0
M  V30 9627 H 903.141 -2.58851 1.50454 0
M  V30 9628 H 900.687 -1.24425 0.724872 0
M  V30 9629 H 902.64 -4.20168 -0.322016 0
M  V30 9630 H 901.364 -3.12635 -0.944838 0
M  V30 9631 H 900.023 -3.47815 1.15845 0
M  V30 9632 H 899.671 -4.9621 -0.823661 0
M  V30 9633 H 899.371 -5.83409 0.700568 0
M  V30 9634 H 900.895 -6.10297 -0.192249 0
M  V30 9635 H 902.309 -5.38639 1.96319 0
M  V30 9636 H 900.706 -5.3325 2.75254 0
M  V30 9637 H 901.776 -3.92238 2.85092 0
M  V30 9638 N 903.119 -0.802921 -1.35613 0
M  V30 9639 C 904.365 -0.382141 -1.99167 0
M  V30 9640 C 904.698 1.04704 -1.63556 0
M  V30 9641 O 903.973 1.72578 -0.89706 0
M  V30 9642 C 904.256 -0.561493 -3.55695 0
M  V30 9643 C 904.109 -2.03534 -4.01116 0
M  V30 9644 C 905.428 0.0151135 -4.40097 0
M  V30 9645 H 902.547 -0.140322 -0.723518 0
M  V30 9646 H 905.189 -1.01177 -1.6082 0
M  V30 9647 H 903.339 -0.0255083 -3.88492 0
M  V30 9648 H 905.011 -2.63343 -3.78746 0
M  V30 9649 H 903.254 -2.5331 -3.52159 0
M  V30 9650 H 903.925 -2.11173 -5.1001 0
M  V30 9651 H 906.401 -0.442582 -4.1374 0
M  V30 9652 H 905.277 -0.140316 -5.48721 0
M  V30 9653 H 905.538 1.10848 -4.27978 0
M  V30 9654 N 904.597 1.47463 -0.556102 0
M  V30 9655 C 905.544 2.29998 0.192213 0
M  V30 9656 C 906.514 1.38993 0.909403 0
M  V30 9657 O 907.699 1.67954 0.905316 0
M  V30 9658 C 904.839 3.22932 1.21692 0
M  V30 9659 C 903.952 4.29027 0.505908 0
M  V30 9660 C 903.087 5.09114 1.51581 0
M  V30 9661 C 902.126 6.06984 0.789714 0
M  V30 9662 N 901.263 6.80033 1.74639 0
M  V30 9663 H 906.103 2.93468 -0.517734 0
M  V30 9664 H 903.64 1.44654 -0.267147 0
M  V30 9665 H 905.598 3.75234 1.8236 0
M  V30 9666 H 904.228 2.61329 1.89491 0
M  V30 9667 H 903.28 3.7979 -0.215276 0
M  V30 9668 H 904.592 4.9876 -0.062958 0
M  V30 9669 H 903.746 5.6556 2.19606 0
M  V30 9670 H 902.485 4.3928 2.11859 0
M  V30 9671 H 901.49 5.49717 0.0955382 0
M  V30 9672 H 902.715 6.78827 0.192688 0
M  V30 9673 H 900.661 6.12931 2.33777 0
M  V30 9674 H 900.578 7.45933 1.22965 0
M  V30 9675 H 901.846 7.41054 2.41782 0
M  V30 9676 N 906.075 0.2925 1.54862 0
M  V30 9677 C 907.305 -0.321646 2.04081 0
M  V30 9678 C 907.713 -1.48712 1.16967 0
M  V30 9679 O 907.056 -1.82755 0.18609 0
M  V30 9680 C 907.118 -0.848678 3.49339 0
M  V30 9681 C 906.782 0.190416 4.56603 0
M  V30 9682 C 907.779 1.01595 5.09877 0
M  V30 9683 C 905.464 0.329666 5.01217 0
M  V30 9684 C 907.458 1.96676 6.06298 0
M  V30 9685 C 905.145 1.28393 5.9746 0
M  V30 9686 C 906.143 2.10097 6.49883 0
M  V30 9687 O 905.831 3.03907 7.44242 0
M  V30 9688 H 905.563 -0.075098 0.671816 0
M  V30 9689 H 908.117 0.427531 2.00901 0
M  V30 9690 H 906.347 -1.64823 3.49815 0
M  V30 9691 H 908.036 -1.37779 3.81801 0
M  V30 9692 H 908.802 0.919197 4.7621 0
M  V30 9693 H 904.681 -0.296317 4.60047 0
M  V30 9694 H 908.225 2.60488 6.47141 0
M  V30 9695 H 904.122 1.38144 6.30545 0
M  V30 9696 H 904.89 2.98787 7.62016 0
M  V30 9697 N 907.553 -1.57587 0.0200696 0
M  V30 9698 C 908.778 -1.96124 -0.674547 0
M  V30 9699 C 909.203 -0.896068 -1.65385 0
M  V30 9700 O 908.561 0.143925 -1.80728 0
M  V30 9701 C 908.609 -3.3376 -1.36517 0
M  V30 9702 O 907.713 -3.29483 -2.48022 0
M  V30 9703 H 907.054 -0.639719 -0.177919 0
M  V30 9704 H 909.584 -2.04447 0.0792317 0
M  V30 9705 H 909.594 -3.69785 -1.72403 0
M  V30 9706 H 908.269 -4.10832 -0.647265 0
M  V30 9707 H 906.846 -3.05162 -2.14314 0
M  V30 9708 N 909.032 0.252966 -1.55557 0
M  V30 9709 C 910.443 0.822503 -1.67606 0
M  V30 9710 C 910.794 1.86265 -0.616411 0
M  V30 9711 O 909.919 2.15082 0.238447 0
M  V30 9712 C 910.514 1.49866 -3.03852 0
M  V30 9713 C 909.073 2.01597 -3.17861 0
M  V30 9714 C 908.22 0.864943 -2.63465 0
M  V30 9715 H 911.171 0.0288958 -1.58674 0
M  V30 9716 H 911.192 2.36646 -2.97958 0
M  V30 9717 H 910.704 0.741378 -3.80953 0
M  V30 9718 H 908.805 2.80224 -2.45571 0
M  V30 9719 H 908.918 2.21752 -4.24692 0
M  V30 9720 H 907.282 1.2638 -2.21134 0
M  V30 9721 H 908.065 0.120847 -3.43087 0
M  V30 9722 N 910.51 1.48831 0.518367 0
M  V30 9723 C 911.44 1.67119 1.63075 0
M  V30 9724 C 912.421 0.519948 1.61958 0
M  V30 9725 O 913.606 0.753824 1.78972 0
M  V30 9726 C 910.736 1.72158 3.01627 0
M  V30 9727 C 909.69 2.86898 3.17606 0
M  V30 9728 C 909.016 2.77035 4.57335 0
M  V30 9729 C 910.316 4.28057 2.99274 0
M  V30 9730 H 912.01 2.60248 1.48025 0
M  V30 9731 H 909.556 1.2524 0.710694 0
M  V30 9732 H 911.509 1.83539 3.7933 0
M  V30 9733 H 910.233 0.756157 3.17726 0
M  V30 9734 H 908.892 2.75091 2.42323 0
M  V30 9735 H 908.54 1.78438 4.70286 0
M  V30 9736 H 908.24 3.54036 4.6897 0
M  V30 9737 H 909.764 2.904 5.37122 0
M  V30 9738 H 911.178 4.40636 3.6676 0
M  V30 9739 H 909.575 5.06145 3.22393 0
M  V30 9740 H 910.645 4.4371 1.95574 0
M  V30 9741 N 911.988 -0.768124 1.37614 0
M  V30 9742 C 912.938 -1.8718 1.30184 0
M  V30 9743 C 913.922 -1.59787 0.188943 0
M  V30 9744 O 915.114 -1.71855 0.423656 0
M  V30 9745 C 912.243 -3.24698 1.11471 0
M  V30 9746 C 911.329 -3.58031 2.27321 0
M  V30 9747 N 911.72 -3.6252 3.52722 0
M  V30 9748 C 910.018 -3.88216 2.19554 0
M  V30 9749 C 910.719 -3.92704 4.29137 0
M  V30 9750 N 909.695 -4.08789 3.58319 0
M  V30 9751 H 913.497 -1.88907 2.25147 0
M  V30 9752 H 911.011 -0.964753 1.30638 0
M  V30 9753 H 913.008 -4.0366 1.04233 0
M  V30 9754 H 911.668 -3.24232 0.174281 0
M  V30 9755 H 912.679 -3.44636 3.86583 0
M  V30 9756 H 909.356 -3.95551 1.33588 0
M  V30 9757 H 910.746 -4.02922 5.37683 0
M  V30 9758 N 913.466 -1.22244 -0.994698 0
M  V30 9759 C 914.414 -0.988118 -2.10568 0
M  V30 9760 C 915.408 0.0681541 -1.69263 0
M  V30 9761 O 916.614 -0.0841311 -1.79803 0
M  V30 9762 H 912.989 -0.302343 -0.688544 0
M  V30 9763 H 914.96 -1.93091 -2.27505 0
M  V30 9764 C 913.709 -0.580557 -3.42819 0
M  V30 9765 H 913.032 -1.385 -3.75044 0
M  V30 9766 H 914.472 -0.456004 -4.21541 0
M  V30 9767 C 912.931 0.709692 -3.2934 0
M  V30 9768 O 913.461 1.76259 -3.60965 0
M  V30 9769 N 911.667 0.680155 -2.82528 0
M  V30 9770 H 911.214 -0.176977 -2.56991 0
M  V30 9771 H 911.172 1.54372 -2.73892 0
M  V30 9772 N 914.944 1.19125 -1.03184 0
M  V30 9773 C 916.19 1.89163 -0.731111 0
M  V30 9774 C 916.523 1.79604 0.738662 0
M  V30 9775 O 915.798 1.19037 1.53819 0
M  V30 9776 C 916.081 3.39986 -1.18666 0
M  V30 9777 C 915.934 3.58401 -2.71788 0
M  V30 9778 C 917.253 4.33316 -0.769772 0
M  V30 9779 H 914.372 0.686908 -0.267069 0
M  V30 9780 H 917.014 1.40205 -1.28229 0
M  V30 9781 H 915.164 3.81813 -0.717736 0
M  V30 9782 H 916.836 3.25727 -3.26649 0
M  V30 9783 H 915.079 3.01355 -3.12038 0
M  V30 9784 H 915.75 4.64189 -2.98719 0
M  V30 9785 H 918.226 3.9922 -1.17314 0
M  V30 9786 H 917.102 5.37427 -1.11637 0
M  V30 9787 H 917.363 4.40884 0.327681 0
M  V30 9788 N 916.422 0.810101 1.35185 0
M  V30 9789 C 917.369 0.220927 2.2974 0
M  V30 9790 C 918.339 -0.647024 1.5298 0
M  V30 9791 O 919.524 -0.591367 1.81404 0
M  V30 9792 C 916.664 -0.62167 3.39454 0
M  V30 9793 C 915.777 0.267104 4.31173 0
M  V30 9794 C 914.912 -0.583833 5.27982 0
M  V30 9795 C 913.951 0.305123 6.11339 0
M  V30 9796 N 913.088 -0.505992 7.00274 0
M  V30 9797 H 917.928 1.03266 2.79536 0
M  V30 9798 H 915.465 0.520768 1.37573 0
M  V30 9799 H 917.423 -1.12539 4.01735 0
M  V30 9800 H 916.053 -1.39863 2.90926 0
M  V30 9801 H 915.105 0.88895 3.69867 0
M  V30 9802 H 916.417 0.951182 4.89647 0
M  V30 9803 H 915.571 -1.15254 5.95652 0
M  V30 9804 H 914.31 -1.30146 4.70014 0
M  V30 9805 H 913.315 0.886075 5.42613 0
M  V30 9806 H 914.54 1.02067 6.71386 0
M  V30 9807 H 912.486 -1.20753 6.4479 0
M  V30 9808 H 912.403 0.119966 7.55905 0
M  V30 9809 H 913.671 -1.05787 7.72288 0
M  V30 9810 N 917.9 -1.47166 0.563914 0
M  V30 9811 C 918.83 -2.32894 -0.168148 0
M  V30 9812 C 919.811 -1.44202 -0.902214 0
M  V30 9813 O 920.996 -1.73048 -0.881365 0
M  V30 9814 C 918.126 -3.26116 -1.19439 0
M  V30 9815 C 917.08 -4.24101 -0.576363 0
M  V30 9816 C 916.406 -5.06696 -1.70772 0
M  V30 9817 C 917.706 -5.20142 0.47425 0
M  V30 9818 H 919.4 -2.9435 0.547573 0
M  V30 9819 H 916.946 -1.41545 0.264778 0
M  V30 9820 H 918.899 -3.84935 -1.71474 0
M  V30 9821 H 917.623 -2.62728 -1.94014 0
M  V30 9822 H 916.282 -3.66519 -0.0772534 0
M  V30 9823 H 915.93 -4.39707 -2.44268 0
M  V30 9824 H 915.63 -5.7304 -1.29994 0
M  V30 9825 H 917.154 -5.68375 -2.2312 0
M  V30 9826 H 918.568 -5.73286 0.0397035 0
M  V30 9827 H 916.965 -5.94726 0.801287 0
M  V30 9828 H 918.035 -4.65214 1.36764 0
M  V30 9829 N 919.378 -0.300708 -1.54705 0
M  V30 9830 C 920.789 0.191995 -1.8571 0
M  V30 9831 C 921.14 1.53447 -1.22264 0
M  V30 9832 O 920.265 2.10054 -0.520226 0
M  V30 9833 C 920.86 0.355148 -3.36933 0
M  V30 9834 C 919.419 0.792071 -3.67972 0
M  V30 9835 C 918.566 -0.099756 -2.77121 0
M  V30 9836 H 921.517 -0.521729 -1.49879 0
M  V30 9837 H 921.538 1.18977 -3.61421 0
M  V30 9838 H 921.05 -0.622075 -3.83082 0
M  V30 9839 H 919.151 1.77986 -3.27341 0
M  V30 9840 H 919.264 0.611661 -4.75179 0
M  V30 9841 H 917.628 0.420909 -2.51198 0
M  V30 9842 H 918.411 -1.07333 -3.2609 0
M  V30 9843 N 920.856 1.57574 -0.0284266 0
M  V30 9844 C 921.766 2.13637 0.96936 0
M  V30 9845 C 922.782 1.08845 1.35752 0
M  V30 9846 O 923.958 1.40899 1.43908 0
M  V30 9847 C 921.023 2.65179 2.2334 0
M  V30 9848 C 920.084 3.84683 1.90572 0
M  V30 9849 C 919.317 4.33758 3.1095 0
M  V30 9850 O 919.54 3.82009 4.23586 0
M  V30 9851 O 918.474 5.2561 2.93288 0
M  V30 9852 H 922.3 2.99169 0.52267 0
M  V30 9853 H 919.885 1.48159 0.192135 0
M  V30 9854 H 921.767 2.98402 2.97547 0
M  V30 9855 H 920.442 1.82731 2.67191 0
M  V30 9856 H 919.349 3.56386 1.13753 0
M  V30 9857 H 920.682 4.68292 1.51538 0
M  V30 9858 N 922.334 -0.244713 1.55689 0
M  V30 9859 C 923.297 -1.2864 1.89695 0
M  V30 9860 C 924.297 -1.40969 0.773583 0
M  V30 9861 O 925.487 -1.39632 1.04156 0
M  V30 9862 C 922.619 -2.66379 2.12732 0
M  V30 9863 H 923.812 -0.997033 2.82841 0
M  V30 9864 H 921.365 -0.484103 1.48614 0
M  V30 9865 H 922.1 -3.00452 1.22062 0
M  V30 9866 H 921.885 -2.58812 2.94549 0
M  V30 9867 H 923.375 -3.41592 2.40218 0
M  V30 9868 N 923.813 -1.49104 -0.510467 0
M  V30 9869 C 925.09 -1.48609 -1.27179 0
M  V30 9870 C 925.47 -0.208537 -2.10067 0
M  V30 9871 O 924.818 0.809335 -2.13687 0
M  V30 9872 C 925.028 -2.75953 -2.1366 0
M  V30 9873 C 926.376 -3.25067 -2.73161 0
M  V30 9874 O 927.4 -2.77005 -2.23934 0
M  V30 9875 O 926.259 -4.08747 -3.62751 0
M  V30 9876 H 923.353 -0.594374 -0.57502 0
M  V30 9877 H 925.899 -1.61358 -0.525515 0
M  V30 9878 H 924.671 -3.60434 -1.52325 0
M  V30 9879 H 924.294 -2.66019 -2.95499 0
M  V30 9880 N 925.291 0.760815 -1.38019 0
M  V30 9881 C 926.568 1.5098 -1.24356 0
M  V30 9882 C 926.948 2.10507 0.158169 0
M  V30 9883 O 926.296 1.96455 1.16695 0
M  V30 9884 C 926.506 2.58195 -2.34811 0
M  V30 9885 C 927.854 3.25297 -2.72886 0
M  V30 9886 O 928.878 2.68496 -2.34069 0
M  V30 9887 O 927.737 4.28018 -3.39799 0
M  V30 9888 H 924.831 0.66921 -0.485888 0
M  V30 9889 H 927.377 0.796844 -1.49828 0
M  V30 9890 H 926.149 2.12406 -3.28633 0
M  V30 9891 H 925.772 3.37079 -2.10864 0
M  V30 9892 N 926.769 1.22769 0.988202 0
M  V30 9893 C 928.018 1.0492 1.72263 0
M  V30 9894 C 928.331 -0.415282 1.91141 0
M  V30 9895 O 929.537 -0.713547 2.61956 0
M  V30 9896 C 927.993 1.82891 3.09966 0
M  V30 9897 C 927.601 3.33618 2.99003 0
M  V30 9898 C 929.345 1.73505 3.87423 0
M  V30 9899 C 927.252 4.04012 4.3189 0
M  V30 9900 H 926.182 0.38899 0.645912 0
M  V30 9901 H 928.833 1.46664 1.10281 0
M  V30 9902 H 927.215 1.33948 3.72658 0
M  V30 9903 H 928.389 3.8999 2.45448 0
M  V30 9904 H 926.704 3.43732 2.35027 0
M  V30 9905 H 929.301 2.23416 4.85787 0
M  V30 9906 H 929.644 0.696344 4.10435 0
M  V30 9907 H 930.177 2.20016 3.31418 0
M  V30 9908 H 926.916 5.08155 4.14075 0
M  V30 9909 H 926.436 3.52428 4.8534 0
M  V30 9910 H 928.115 4.0987 5.00615 0
M  V30 9911 N 928.247 -1.18576 1.03814 0
M  V30 9912 C 929.179 -2.21607 0.585055 0
M  V30 9913 C 930.192 -1.59125 -0.343963 0
M  V30 9914 O 931.381 -1.77959 -0.138882 0
M  V30 9915 C 928.481 -3.38495 -0.165602 0
M  V30 9916 C 927.654 -4.30557 0.770662 0
M  V30 9917 C 926.713 -5.26161 0.0637534 0
M  V30 9918 O 925.739 -5.64961 0.693359 0
M  V30 9919 N 926.941 -5.67882 -1.20377 0
M  V30 9920 H 929.706 -2.61104 1.47121 0
M  V30 9921 H 927.267 -1.33336 0.918316 0
M  V30 9922 H 929.259 -3.99474 -0.648292 0
M  V30 9923 H 927.829 -2.97711 -0.953268 0
M  V30 9924 H 927.049 -3.67221 1.43326 0
M  V30 9925 H 928.337 -4.88969 1.40667 0
M  V30 9926 H 927.735 -5.38409 -1.73586 0
M  V30 9927 H 926.292 -6.31069 -1.63079 0
M  V30 9928 N 929.725 -0.817259 -1.34754 0
M  V30 9929 C 930.955 -0.414849 -2.02392 0
M  V30 9930 C 931.363 0.982186 -1.61709 0
M  V30 9931 O 930.706 1.64607 -0.815481 0
M  V30 9932 C 930.768 -0.430981 -3.56907 0
M  V30 9933 C 930.432 -1.78037 -4.20894 0
M  V30 9934 C 931.429 -2.74034 -4.41816 0
M  V30 9935 C 929.114 -2.0673 -4.57786 0
M  V30 9936 C 931.108 -3.96901 -4.98747 0
M  V30 9937 C 928.795 -3.29858 -5.14429 0
M  V30 9938 C 929.793 -4.24761 -5.34853 0
M  V30 9939 O 929.481 -5.45714 -5.90298 0
M  V30 9940 H 929.213 -0.165392 -0.655455 0
M  V30 9941 H 931.767 -1.10524 -1.73129 0
M  V30 9942 H 929.997 0.316074 -3.85406 0
M  V30 9943 H 931.686 -0.0494067 -4.0587 0
M  V30 9944 H 932.452 -2.53161 -4.13684 0
M  V30 9945 H 928.331 -1.33666 -4.41197 0
M  V30 9946 H 931.875 -4.70987 -5.14604 0
M  V30 9947 H 927.772 -3.50597 -5.41989 0
M  V30 9948 H 928.54 -5.47157 -6.08738 0
M  V30 9949 N 931.203 1.46865 -0.571711 0
M  V30 9950 C 932.614 1.86158 -0.142181 0
M  V30 9951 C 932.965 1.47663 1.2919 0
M  V30 9952 O 932.09 0.886393 1.97413 0
M  V30 9953 C 932.685 3.37867 -0.251256 0
M  V30 9954 C 931.244 3.76198 0.123329 0
M  V30 9955 C 930.391 2.70902 -0.592232 0
M  V30 9956 H 933.342 1.38176 -0.780587 0
M  V30 9957 H 933.363 3.76842 0.526331 0
M  V30 9958 H 932.875 3.65853 -1.2951 0
M  V30 9959 H 930.976 3.53829 1.16773 0
M  V30 9960 H 931.089 4.78471 -0.24533 0
M  V30 9961 H 929.453 2.54678 -0.0336927 0
M  V30 9962 H 930.236 3.01729 -1.63751 0
M  V30 9963 N 932.681 0.308908 1.54543 0
M  V30 9964 C 933.906 -0.303196 2.05172 0
M  V30 9965 C 934.331 -1.46133 1.18434 0
M  V30 9966 O 933.689 -1.803 0.190162 0
M  V30 9967 C 933.737 -0.729526 3.53143 0
M  V30 9968 O 932.841 -1.83348 3.69401 0
M  V30 9969 H 932.182 -0.0575066 0.661505 0
M  V30 9970 H 934.712 0.453055 1.99521 0
M  V30 9971 H 934.722 -1.01619 3.95143 0
M  V30 9972 H 933.397 0.117622 4.15734 0
M  V30 9973 H 931.974 -1.54676 3.39308 0
M  V30 9974 N 934.159 -1.57557 0.0367827 0
M  V30 9975 C 935.092 -2.06205 -0.977479 0
M  V30 9976 C 936.07 -0.959444 -1.31276 0
M  V30 9977 O 937.254 -1.23033 -1.42811 0
M  V30 9978 C 934.381 -2.49053 -2.29544 0
M  V30 9979 C 933.427 -3.70409 -2.11423 0
M  V30 9980 S 934.26 -5.16715 -1.40593 0
M  V30 9981 C 935.416 -5.62864 -2.73742 0
M  V30 9982 H 935.649 -2.91913 -0.5634 0
M  V30 9983 H 933.182 -1.53404 -0.175111 0
M  V30 9984 H 935.14 -2.74403 -3.05308 0
M  V30 9985 H 933.801 -1.63677 -2.68083 0
M  V30 9986 H 932.994 -3.98262 -3.08875 0
M  V30 9987 H 932.596 -3.4525 -1.438 0
M  V30 9988 H 934.888 -5.67571 -3.69958 0
M  V30 9989 H 935.831 -6.62294 -2.50544 0
M  V30 9990 H 936.239 -4.90539 -2.79341 0
M  V30 9991 N 935.637 0.236453 -1.55816 0
M  V30 9992 C 936.567 1.29639 -1.94206 0
M  V30 9993 C 937.548 1.49667 -0.808319 0
M  V30 9994 O 938.733 1.621 -1.06945 0
M  V30 9995 C 935.863 2.64914 -2.24584 0
M  V30 9996 C 934.817 2.59565 -3.40308 0
M  V30 9997 C 934.143 3.98732 -3.56254 0
M  V30 9998 C 935.443 2.15642 -4.75706 0
M  V30 9999 H 937.137 0.977552 -2.82992 0
M  V30 10000 H 934.683 0.468804 -1.36155 0
M  V30 10001 H 936.636 3.39209 -2.50031 0
M  V30 10002 H 935.36 2.98455 -1.32636 0
M  V30 10003 H 934.019 1.87728 -3.14887 0
M  V30 10004 H 933.667 4.29556 -2.61707 0
M  V30 10005 H 933.367 3.96039 -4.34082 0
M  V30 10006 H 934.891 4.74711 -3.84033 0
M  V30 10007 H 936.305 2.79673 -5.00456 0
M  V30 10008 H 934.702 2.24039 -5.56711 0
M  V30 10009 H 935.772 1.10831 -4.72064 0
M  V30 10010 N 937.115 1.49373 0.502552 0
M  V30 10011 C 938.045 1.68839 1.61294 0
M  V30 10012 C 939.026 0.537096 1.61398 0
M  V30 10013 O 940.211 0.772764 1.78163 0
M  V30 10014 C 937.341 1.75347 2.99784 0
M  V30 10015 C 936.295 2.90251 3.14545 0
M  V30 10016 C 935.621 2.8187 4.54371 0
M  V30 10017 C 936.921 4.31207 2.94717 0
M  V30 10018 H 938.615 2.61803 1.45257 0
M  V30 10019 H 936.161 1.25987 0.697371 0
M  V30 10020 H 938.114 1.87552 3.77362 0
M  V30 10021 H 936.838 0.789814 3.16906 0
M  V30 10022 H 935.497 2.77646 2.39392 0
M  V30 10023 H 935.145 1.83416 4.68367 0
M  V30 10024 H 934.845 3.5899 4.65188 0
M  V30 10025 H 936.369 2.96081 5.34012 0
M  V30 10026 H 937.783 4.44501 3.62065 0
M  V30 10027 H 936.18 5.09536 3.17007 0
M  V30 10028 H 937.25 4.45759 1.90857 0
M  V30 10029 N 938.594 -0.753485 1.38421 0
M  V30 10030 C 939.524 -1.8808 1.38377 0
M  V30 10031 C 940.505 -1.68258 0.249664 0
M  V30 10032 O 941.69 -1.88848 0.45276 0
M  V30 10033 C 938.82 -3.25608 1.20818 0
M  V30 10034 C 937.774 -3.60032 2.31433 0
M  V30 10035 C 937.1 -4.96297 1.9898 0
M  V30 10036 C 938.4 -3.64898 3.73694 0
M  V30 10037 H 940.094 -1.88375 2.32713 0
M  V30 10038 H 937.64 -0.90489 1.12017 0
M  V30 10039 H 939.593 -4.04127 1.19412 0
M  V30 10040 H 938.317 -3.25793 0.229433 0
M  V30 10041 H 936.976 -2.83831 2.32025 0
M  V30 10042 H 936.624 -4.93043 0.995889 0
M  V30 10043 H 936.324 -5.20298 2.73063 0
M  V30 10044 H 937.848 -5.77196 1.99193 0
M  V30 10045 H 939.262 -4.33531 3.75132 0
M  V30 10046 H 937.659 -4.00407 4.46983 0
M  V30 10047 H 938.729 -2.65124 4.06002 0
M  V30 10048 N 940.072 -1.23292 -0.981677 0
M  V30 10049 C 941.3 -1.09088 -1.75805 0
M  V30 10050 C 941.715 0.357746 -1.8538 0
M  V30 10051 O 941.072 1.24751 -1.33205 0
M  V30 10052 C 941.123 -1.70885 -3.1856 0
M  V30 10053 O 940.844 -3.10082 -3.09484 0
M  V30 10054 C 942.345 -1.62106 -4.12597 0
M  V30 10055 H 939.565 -0.38184 -0.55176 0
M  V30 10056 H 942.109 -1.63116 -1.23342 0
M  V30 10057 H 940.264 -1.20893 -3.68054 0
M  V30 10058 H 940.678 -3.40039 -3.99342 0
M  V30 10059 H 942.152 -2.10049 -5.10474 0
M  V30 10060 H 942.629 -0.579642 -4.35358 0
M  V30 10061 H 943.235 -2.11457 -3.69007 0
M  V30 10062 N 941.55 1.18024 -1.04442 0
M  V30 10063 C 942.513 2.19992 -0.643136 0
M  V30 10064 C 943.513 1.57949 0.301444 0
M  V30 10065 O 944.703 1.73986 0.0863341 0
M  V30 10066 C 941.835 3.40853 0.0565208 0
M  V30 10067 H 943.028 2.57008 -1.54554 0
M  V30 10068 H 940.581 1.31974 -0.837408 0
M  V30 10069 H 941.316 3.09373 0.972553 0
M  V30 10070 H 941.101 3.87128 -0.622439 0
M  V30 10071 H 942.591 4.16344 0.323652 0
M  V30 10072 N 943.028 0.824394 1.34319 0
M  V30 10073 C 944.305 0.335692 1.92698 0
M  V30 10074 C 944.685 -1.17715 1.75232 0
M  V30 10075 O 944.033 -1.98493 1.13194 0
M  V30 10076 C 944.243 0.766647 3.40475 0
M  V30 10077 C 945.591 0.766323 4.17627 0
M  V30 10078 O 946.615 0.709321 3.49066 0
M  V30 10079 O 945.474 0.840856 5.39992 0
M  V30 10080 H 942.568 0.0919996 0.821867 0
M  V30 10081 H 945.114 0.909282 1.43283 0
M  V30 10082 H 943.886 1.80859 3.46995 0
M  V30 10083 H 943.509 0.168833 3.97241 0
M  V30 10084 N 944.506 -1.46559 0.579492 0
M  V30 10085 C 945.456 -2.27316 -0.17645 0
M  V30 10086 C 946.44 -1.35681 -0.864835 0
M  V30 10087 O 947.632 -1.59879 -0.759462 0
M  V30 10088 C 944.761 -3.21957 -1.19157 0
M  V30 10089 C 943.847 -4.21077 -0.505459 0
M  V30 10090 N 944.238 -5.03908 0.437133 0
M  V30 10091 C 942.536 -4.39535 -0.75661 0
M  V30 10092 C 943.237 -5.75635 0.837819 0
M  V30 10093 N 942.213 -5.43276 0.187679 0
M  V30 10094 H 946.015 -2.88747 0.547932 0
M  V30 10095 H 943.529 -1.5737 0.401048 0
M  V30 10096 H 945.526 -3.78518 -1.74728 0
M  V30 10097 H 944.186 -2.62085 -1.9168 0
M  V30 10098 H 945.197 -5.11487 0.812488 0
M  V30 10099 H 941.874 -3.90815 -1.46867 0
M  V30 10100 H 943.264 -6.52235 1.61364 0
M  V30 10101 N 945.984 -0.3171 -1.54377 0
M  V30 10102 C 947.261 0.341348 -1.92598 0
M  V30 10103 C 947.641 1.70402 -1.24605 0
M  V30 10104 O 946.989 2.25191 -0.387448 0
M  V30 10105 C 947.199 0.440003 -3.46215 0
M  V30 10106 C 948.547 0.703327 -4.18734 0
M  V30 10107 O 949.571 0.523181 -3.52337 0
M  V30 10108 O 948.43 1.05042 -5.3631 0
M  V30 10109 H 945.524 0.193696 -0.803997 0
M  V30 10110 H 948.07 -0.366341 -1.65699 0
M  V30 10111 H 946.842 -0.517299 -3.87866 0
M  V30 10112 H 946.465 1.19553 -3.792 0
M  V30 10113 N 947.462 1.57535 -0.0451378 0
M  V30 10114 C 948.739 1.83785 0.669523 0
M  V30 10115 C 949.119 0.932331 1.89396 0
M  V30 10116 O 948.467 -0.00813229 2.28499 0
M  V30 10117 C 948.677 3.33376 1.03255 0
M  V30 10118 C 950.025 4.00243 1.41741 0
M  V30 10119 O 951.049 3.37965 1.12507 0
M  V30 10120 O 949.908 5.10038 1.96275 0
M  V30 10121 H 947.002 0.758342 0.329919 0
M  V30 10122 H 949.548 1.69538 -0.0740415 0
M  V30 10123 H 948.32 3.90965 0.161777 0
M  V30 10124 H 947.943 3.52787 1.83376 0
M  V30 10125 N 948.94 -0.228186 1.55939 0
M  V30 10126 C 950.356 -0.577583 1.48782 0
M  V30 10127 C 950.556 -1.87461 0.738972 0
M  V30 10128 O 949.612 -2.50988 0.275929 0
M  V30 10129 C 950.925 -0.662961 2.93301 0
M  V30 10130 C 952.473 -0.754035 3.03782 0
M  V30 10131 C 952.948 -0.870815 4.49645 0
M  V30 10132 N 954.439 -0.935208 4.53661 0
M  V30 10133 C 955.174 -1.04516 5.63794 0
M  V30 10134 N 954.67 -1.11948 6.83696 0
M  V30 10135 N 956.463 -1.07978 5.51631 0
M  V30 10136 H 948.614 0.623018 2.03057 0
M  V30 10137 H 950.877 0.217692 0.922667 0
M  V30 10138 H 950.583 0.220375 3.51009 0
M  V30 10139 H 950.457 -1.52876 3.44831 0
M  V30 10140 H 952.844 -1.62782 2.46143 0
M  V30 10141 H 952.925 0.137301 2.55431 0
M  V30 10142 H 952.569 -0.0015186 5.079 0
M  V30 10143 H 952.499 -1.77747 4.95695 0
M  V30 10144 H 954.99 -0.88836 3.6731 0
M  V30 10145 H 955.303 -1.20297 7.6338 0
M  V30 10146 H 953.648 -1.08873 6.8642 0
M  V30 10147 H 956.839 -1.01833 4.56889 0
M  V30 10148 H 957.012 -1.16202 6.37496 0
M  V30 10149 N 950.418 -1.49637 -0.494624 0
M  V30 10150 C 951.664 -1.59681 -1.25019 0
M  V30 10151 C 951.997 -0.285511 -1.9209 0
M  V30 10152 O 951.272 0.711398 -1.81023 0
M  V30 10153 C 951.555 -2.76058 -2.31222 0
M  V30 10154 C 951.408 -4.17002 -1.68611 0
M  V30 10155 C 952.727 -2.88056 -3.32734 0
M  V30 10156 H 949.846 -0.581209 -0.453172 0
M  V30 10157 H 952.488 -1.81944 -0.547391 0
M  V30 10158 H 950.638 -2.57207 -2.91164 0
M  V30 10159 H 952.31 -4.47385 -1.12447 0
M  V30 10160 H 950.553 -4.22352 -0.989991 0
M  V30 10161 H 951.224 -4.94316 -2.45674 0
M  V30 10162 H 953.7 -3.05237 -2.82789 0
M  V30 10163 H 952.576 -3.71151 -4.04399 0
M  V30 10164 H 952.837 -1.97676 -3.95445 0
M  V30 10165 N 951.896 0.746133 -1.38819 0
M  V30 10166 C 953.142 1.50768 -1.35635 0
M  V30 10167 C 953.475 1.94132 0.0512435 0
M  V30 10168 O 952.75 1.65979 1.01396 0
M  V30 10169 C 953.033 2.7551 -2.31875 0
M  V30 10170 C 952.886 2.38236 -3.81528 0
M  V30 10171 C 954.205 3.77566 -2.26124 0
M  V30 10172 H 951.324 0.546922 -0.494009 0
M  V30 10173 H 953.966 0.854017 -1.69725 0
M  V30 10174 H 952.116 3.31285 -2.02935 0
M  V30 10175 H 953.788 1.88178 -4.21173 0
M  V30 10176 H 952.031 1.70601 -3.98846 0
M  V30 10177 H 952.702 3.27517 -4.44339 0
M  V30 10178 H 955.178 3.31349 -2.51689 0
M  V30 10179 H 954.054 4.62531 -2.95561 0
M  V30 10180 H 954.315 4.23689 -1.26254 0
M  V30 10181 N 953.375 1.23811 0.975125 0
M  V30 10182 C 954.786 1.0675 1.53171 0
M  V30 10183 C 955.137 -0.363475 1.92804 0
M  V30 10184 O 954.262 -1.25089 1.76583 0
M  V30 10185 C 954.857 1.93161 2.78342 0
M  V30 10186 C 953.416 1.80346 3.30382 0
M  V30 10187 C 952.563 1.88544 2.03338 0
M  V30 10188 H 955.514 1.37396 0.79423 0
M  V30 10189 H 955.535 1.45951 3.51395 0
M  V30 10190 H 955.047 2.97302 2.49465 0
M  V30 10191 H 953.148 0.790077 3.64127 0
M  V30 10192 H 953.261 2.64026 3.99784 0
M  V30 10193 H 951.625 1.32186 2.17713 0
M  V30 10194 H 952.408 2.94252 1.76836 0
M  V30 10195 N 954.853 -1.17469 1.05066 0
M  V30 10196 C 955.783 -2.23635 0.671552 0
M  V30 10197 C 956.764 -1.66867 -0.33006 0
M  V30 10198 O 957.949 -1.93084 -0.207933 0
M  V30 10199 C 955.079 -3.47272 0.0441845 0
M  V30 10200 C 954.033 -4.16854 0.97042 0
M  V30 10201 C 953.359 -5.34299 0.206998 0
M  V30 10202 C 954.659 -4.69225 2.29401 0
M  V30 10203 H 956.353 -2.55602 1.55911 0
M  V30 10204 H 953.899 -1.2286 0.751101 0
M  V30 10205 H 955.852 -4.20756 -0.23282 0
M  V30 10206 H 954.576 -3.14568 -0.878311 0
M  V30 10207 H 953.235 -3.4528 1.23197 0
M  V30 10208 H 952.883 -4.97846 -0.718222 0
M  V30 10209 H 952.583 -5.81792 0.82416 0
M  V30 10210 H 954.107 -6.10568 -0.0627525 0
M  V30 10211 H 955.521 -5.34353 2.077 0
M  V30 10212 H 953.918 -5.27291 2.86503 0
M  V30 10213 H 954.988 -3.86102 2.93348 0
M  V30 10214 N 956.331 -0.831506 -1.3388 0
M  V30 10215 C 957.281 -0.231656 -2.2682 0
M  V30 10216 C 958.265 0.609075 -1.48926 0
M  V30 10217 O 959.457 0.462249 -1.70857 0
M  V30 10218 C 956.586 0.59846 -3.38043 0
M  V30 10219 C 955.672 -0.253372 -4.23342 0
M  V30 10220 N 956.063 -1.32854 -4.8804 0
M  V30 10221 C 954.361 -0.0391537 -4.45983 0
M  V30 10222 C 955.062 -1.85069 -5.51475 0
M  V30 10223 N 954.038 -1.15327 -5.31226 0
M  V30 10224 H 957.84 -1.05396 -2.74352 0
M  V30 10225 H 955.354 -0.675195 -1.47699 0
M  V30 10226 H 957.351 1.04443 -4.03605 0
M  V30 10227 H 956.011 1.41882 -2.92061 0
M  V30 10228 H 957.022 -1.71139 -4.88806 0
M  V30 10229 H 953.699 0.748356 -4.10738 0
M  V30 10230 H 955.089 -2.75065 -6.13016 0
M  V30 10231 N 957.809 1.4625 -0.587256 0
M  V30 10232 C 959.034 2.07252 -0.0784517 0
M  V30 10233 C 959.459 1.43239 1.21919 0
M  V30 10234 O 958.817 0.517791 1.73749 0
M  V30 10235 C 958.865 3.60534 0.0691037 0
M  V30 10236 O 957.969 3.96773 1.12448 0
M  V30 10237 H 957.31 0.660825 -0.064859 0
M  V30 10238 H 959.84 1.87819 -0.811491 0
M  V30 10239 H 959.85 4.0708 0.273826 0
M  V30 10240 H 958.525 4.06516 -0.878514 0
M  V30 10241 H 957.102 3.6193 0.897852 0
M  V30 10242 N 959.287 0.325282 1.54207 0
M  V30 10243 C 960.217 -0.532574 2.27345 0
M  V30 10244 C 961.198 -1.11791 1.28206 0
M  V30 10245 O 962.383 -1.14272 1.57021 0
M  V30 10246 C 959.513 -1.69274 3.03255 0
M  V30 10247 C 958.467 -1.23662 4.09746 0
M  V30 10248 C 957.793 -2.48386 4.73506 0
M  V30 10249 C 959.093 -0.350244 5.21124 0
M  V30 10250 H 960.787 0.0775108 2.993 0
M  V30 10251 H 958.333 0.0387193 1.43948 0
M  V30 10252 H 960.286 -2.29917 3.53152 0
M  V30 10253 H 959.01 -2.32944 2.28921 0
M  V30 10254 H 957.669 -0.653106 3.60735 0
M  V30 10255 H 957.317 -3.10424 3.95786 0
M  V30 10256 H 957.017 -2.18558 5.45441 0
M  V30 10257 H 958.541 -3.09789 5.26178 0
M  V30 10258 H 959.955 -0.863011 5.66767 0
M  V30 10259 H 958.352 -0.14466 5.99926 0
M  V30 10260 H 959.422 0.618457 4.8094 0
M  V30 10261 N 960.765 -1.57509 0.0534917 0
M  V30 10262 C 961.712 -2.11667 -0.920101 0
M  V30 10263 C 962.682 -1.0246 -1.30733 0
M  V30 10264 O 963.867 -1.30021 -1.39639 0
M  V30 10265 C 961.007 -2.66803 -2.18883 0
M  V30 10266 C 960.12 -3.90104 -1.85588 0
M  V30 10267 C 959.255 -4.33547 -3.06937 0
M  V30 10268 C 958.294 -5.49542 -2.69573 0
M  V30 10269 N 957.431 -5.88029 -3.83623 0
M  V30 10270 H 962.271 -2.94562 -0.451371 0
M  V30 10271 H 959.808 -1.45576 -0.211168 0
M  V30 10272 H 961.766 -2.96871 -2.93127 0
M  V30 10273 H 960.396 -1.86702 -2.63329 0
M  V30 10274 H 959.448 -3.66613 -1.01484 0
M  V30 10275 H 960.76 -4.74404 -1.54087 0
M  V30 10276 H 959.914 -4.6518 -3.89477 0
M  V30 10277 H 958.653 -3.48064 -3.41618 0
M  V30 10278 H 957.658 -5.17579 -1.8545 0
M  V30 10279 H 958.883 -6.36743 -2.36082 0
M  V30 10280 H 956.829 -5.05498 -4.181 0
M  V30 10281 H 956.746 -6.67025 -3.55828 0
M  V30 10282 H 958.014 -6.24277 -4.66796 0
M  V30 10283 N 962.243 0.219913 -1.56058 0
M  V30 10284 C 963.49 0.944064 -1.79147 0
M  V30 10285 C 963.818 1.84268 -0.622531 0
M  V30 10286 O 963.073 1.91713 0.393013 0
M  V30 10287 C 963.372 1.81293 -3.08006 0
M  V30 10288 C 963.038 1.0674 -4.38084 0
M  V30 10289 C 961.7 0.86147 -4.73426 0
M  V30 10290 C 964.052 0.541049 -5.18384 0
M  V30 10291 C 961.38 0.117307 -5.86583 0
M  V30 10292 C 963.732 -0.189779 -6.32315 0
M  V30 10293 C 962.396 -0.406951 -6.66258 0
M  V30 10294 H 961.666 0.345458 -0.655546 0
M  V30 10295 H 964.313 0.212121 -1.90322 0
M  V30 10296 H 962.618 2.61278 -2.9196 0
M  V30 10297 H 964.315 2.3754 -3.23072 0
M  V30 10298 H 960.905 1.23789 -4.10334 0
M  V30 10299 H 965.089 0.687617 -4.91514 0
M  V30 10300 H 960.345 -0.0611651 -6.11369 0
M  V30 10301 H 964.519 -0.605134 -6.93766 0
M  V30 10302 H 962.146 -0.985511 -7.53785 0
M  V30 10303 N 963.721 1.49897 0.486681 0
M  V30 10304 C 964.97 1.59349 1.23656 0
M  V30 10305 C 965.283 0.292024 1.93408 0
M  V30 10306 O 966.489 0.265258 2.70201 0
M  V30 10307 C 964.945 2.81215 2.24602 0
M  V30 10308 C 964.553 4.18177 1.60725 0
M  V30 10309 C 966.297 3.00004 3.00329 0
M  V30 10310 C 964.204 5.31247 2.59866 0
M  V30 10311 H 963.134 0.593363 0.465227 0
M  V30 10312 H 965.785 1.76306 0.508769 0
M  V30 10313 H 964.167 2.57783 3.00606 0
M  V30 10314 H 965.341 4.51802 0.90616 0
M  V30 10315 H 963.656 4.04864 0.973362 0
M  V30 10316 H 966.253 3.81649 3.74497 0
M  V30 10317 H 966.596 2.1112 3.58795 0
M  V30 10318 H 967.129 3.23544 2.3144 0
M  V30 10319 H 963.868 6.22236 2.06161 0
M  V30 10320 H 963.388 5.02059 3.28172 0
M  V30 10321 H 965.067 5.61177 3.22009 0
M  V30 10322 N 965.199 -0.738761 1.39212 0
M  V30 10323 C 966.162 -1.83441 1.37412 0
M  V30 10324 C 967.162 -1.58484 0.271908 0
M  V30 10325 O 968.352 -1.65954 0.529609 0
M  V30 10326 C 965.484 -3.21167 1.143 0
M  V30 10327 H 966.677 -1.86441 2.34904 0
M  V30 10328 H 964.23 -0.942023 1.24722 0
M  V30 10329 H 964.965 -3.23829 0.174756 0
M  V30 10330 H 964.75 -3.40678 1.94116 0
M  V30 10331 H 966.24 -4.01231 1.15773 0
M  V30 10332 N 966.677 -1.24326 -0.968545 0
M  V30 10333 C 967.905 -1.10947 -1.74638 0
M  V30 10334 C 968.32 0.338064 -1.85749 0
M  V30 10335 O 967.677 1.23331 -1.3452 0
M  V30 10336 C 967.728 -1.74254 -3.1673 0
M  V30 10337 O 967.449 -3.13347 -3.06178 0
M  V30 10338 C 968.95 -1.66473 -4.10855 0
M  V30 10339 H 966.17 -0.38767 -0.547679 0
M  V30 10340 H 968.714 -1.64415 -1.21605 0
M  V30 10341 H 966.869 -1.2479 -3.66751 0
M  V30 10342 H 967.283 -3.44255 -3.95713 0
M  V30 10343 H 968.757 -2.15452 -5.08217 0
M  V30 10344 H 969.234 -0.625785 -4.34719 0
M  V30 10345 H 969.84 -2.15359 -3.66743 0
M  V30 10346 N 968.156 1.1691 -1.05688 0
M  V30 10347 C 969.086 2.23275 -0.683402 0
M  V30 10348 C 970.067 1.6704 0.321206 0
M  V30 10349 O 971.252 1.93191 0.197691 0
M  V30 10350 C 968.382 3.47244 -0.0626006 0
M  V30 10351 C 967.336 4.16333 -0.992513 0
M  V30 10352 C 966.662 5.34182 -0.23533 0
M  V30 10353 C 967.962 4.68002 -2.31886 0
M  V30 10354 H 969.656 2.54771 -1.57264 0
M  V30 10355 H 967.202 1.2246 -0.757606 0
M  V30 10356 H 969.155 4.20874 0.210503 0
M  V30 10357 H 967.879 3.1503 0.861616 0
M  V30 10358 H 966.538 3.44622 -1.25026 0
M  V30 10359 H 966.186 4.9822 0.69181 0
M  V30 10360 H 965.886 5.81346 -0.855002 0
M  V30 10361 H 967.41 6.10592 0.0303717 0
M  V30 10362 H 968.824 5.33244 -2.10531 0
M  V30 10363 H 967.221 5.25764 -2.89296 0
M  V30 10364 H 968.291 3.84541 -2.95391 0
M  V30 10365 N 969.634 0.838594 1.33437 0
M  V30 10366 C 970.566 0.229006 2.28053 0
M  V30 10367 C 971.579 -0.590103 1.51729 0
M  V30 10368 O 972.768 -0.417218 1.73556 0
M  V30 10369 C 969.868 -0.696251 3.31671 0
M  V30 10370 C 969.041 0.0834606 4.3732 0
M  V30 10371 C 968.1 -0.765097 5.20608 0
M  V30 10372 O 967.126 -0.2044 5.68833 0
M  V30 10373 N 968.328 -2.08249 5.4186 0
M  V30 10374 H 971.093 1.04196 2.81004 0
M  V30 10375 H 968.654 0.697031 1.46127 0
M  V30 10376 H 970.646 -1.26889 3.84293 0
M  V30 10377 H 969.216 -1.40992 2.78998 0
M  V30 10378 H 968.436 0.837481 3.85201 0
M  V30 10379 H 969.724 0.619613 5.05013 0
M  V30 10380 H 969.122 -2.56156 5.04381 0
M  V30 10381 H 967.679 -2.60362 5.97541 0
M  V30 10382 N 971.112 -1.45937 0.595003 0
M  V30 10383 C 972.342 -2.06399 0.0911607 0
M  V30 10384 C 972.75 -1.44236 -1.22444 0
M  V30 10385 O 972.093 -0.546265 -1.7539 0
M  V30 10386 C 972.155 -3.59242 -0.136079 0
M  V30 10387 C 971.819 -4.43668 1.09579 0
M  V30 10388 C 972.816 -4.79437 2.01088 0
M  V30 10389 C 970.501 -4.84616 1.32109 0
M  V30 10390 C 972.495 -5.54995 3.13464 0
M  V30 10391 C 970.182 -5.5993 2.44788 0
M  V30 10392 C 971.18 -5.95035 3.35294 0
M  V30 10393 O 970.868 -6.68825 4.46014 0
M  V30 10394 H 970.6 -0.673316 0.0601779 0
M  V30 10395 H 973.154 -1.88365 0.819005 0
M  V30 10396 H 971.384 -3.75629 -0.918676 0
M  V30 10397 H 973.073 -4.0159 -0.589954 0
M  V30 10398 H 973.839 -4.48371 1.84902 0
M  V30 10399 H 969.718 -4.56735 0.625662 0
M  V30 10400 H 973.262 -5.82314 3.84131 0
M  V30 10401 H 969.159 -5.90411 2.60931 0
M  V30 10402 H 969.927 -6.87262 4.44537 0
M  V30 10403 N 972.59 -0.333456 -1.54032 0
M  V30 10404 C 973.839 0.267081 -1.99924 0
M  V30 10405 C 974.152 1.52463 -1.22534 0
M  V30 10406 O 975.358 2.20178 -1.58852 0
M  V30 10407 C 973.814 0.526456 -3.56029 0
M  V30 10408 C 973.422 -0.714607 -4.42264 0
M  V30 10409 C 975.166 1.0864 -4.10363 0
M  V30 10410 C 973.073 -0.42659 -5.89859 0
M  V30 10411 H 972.003 0.103577 -0.746852 0
M  V30 10412 H 974.654 -0.447218 -1.77967 0
M  V30 10413 H 973.036 1.3012 -3.74012 0
M  V30 10414 H 974.21 -1.48968 -4.36056 0
M  V30 10415 H 972.525 -1.19547 -3.9887 0
M  V30 10416 H 975.122 1.31668 -5.18235 0
M  V30 10417 H 975.465 2.03884 -3.62956 0
M  V30 10418 H 975.998 0.37261 -3.96051 0
M  V30 10419 H 972.737 -1.34847 -6.4148 0
M  V30 10420 H 972.257 0.310588 -5.98995 0
M  V30 10421 H 973.936 -0.0400807 -6.46988 0
M  V30 10422 N 974.068 1.57479 -0.061844 0
M  V30 10423 C 975.314 1.93395 0.610443 0
M  V30 10424 C 975.647 0.941334 1.6986 0
M  V30 10425 O 974.922 -0.0310262 1.94475 0
M  V30 10426 C 975.205 3.39636 1.19664 0
M  V30 10427 C 975.058 4.49651 0.115805 0
M  V30 10428 C 976.377 3.86488 2.10512 0
M  V30 10429 H 973.496 0.703262 0.220436 0
M  V30 10430 H 976.138 1.89583 -0.125785 0
M  V30 10431 H 974.288 3.43015 1.82409 0
M  V30 10432 H 975.96 4.58397 -0.516728 0
M  V30 10433 H 974.203 4.30237 -0.55483 0
M  V30 10434 H 974.874 5.49089 0.566176 0
M  V30 10435 H 977.35 3.85052 1.57715 0
M  V30 10436 H 976.226 4.89444 2.48466 0
M  V30 10437 H 976.487 3.23856 3.00948 0
M  V30 10438 N 975.546 -0.211634 1.56173 0
M  V30 10439 C 976.794 -0.932704 1.7929 0
M  V30 10440 C 977.115 -1.84472 0.632076 0
M  V30 10441 O 976.385 -1.92739 -0.350519 0
M  V30 10442 H 974.965 -0.347393 0.661307 0
M  V30 10443 H 977.627 -0.22111 1.93642 0
M  V30 10444 H 976.723 -1.53365 2.71819 0
M  V30 10445 N 977.024 -1.50153 -0.478725 0
M  V30 10446 C 978.44 -1.3741 -0.811833 0
M  V30 10447 C 978.64 -0.424303 -1.96982 0
M  V30 10448 O 977.696 0.13588 -2.52134 0
M  V30 10449 C 979.009 -2.78616 -1.13108 0
M  V30 10450 C 980.557 -2.87477 -1.23798 0
M  V30 10451 C 981.032 -4.295 -1.5904 0
M  V30 10452 N 982.523 -4.32415 -1.66047 0
M  V30 10453 C 983.258 -5.39295 -1.94805 0
M  V30 10454 N 982.754 -6.56392 -2.21635 0
M  V30 10455 N 984.547 -5.26731 -1.96243 0
M  V30 10456 H 976.698 -2.10486 0.284531 0
M  V30 10457 H 978.961 -0.945786 0.0647585 0
M  V30 10458 H 978.667 -3.49921 -0.35334 0
M  V30 10459 H 978.541 -3.15382 -2.06915 0
M  V30 10460 H 980.928 -2.16396 -2.00641 0
M  V30 10461 H 981.009 -2.54264 -0.279888 0
M  V30 10462 H 980.653 -5.01115 -0.827404 0
M  V30 10463 H 980.583 -4.60194 -2.55987 0
M  V30 10464 H 983.074 -3.47975 -1.47383 0
M  V30 10465 H 983.387 -7.33658 -2.4283 0
M  V30 10466 H 981.732 -6.59579 -2.19043 0
M  V30 10467 H 984.923 -4.34249 -1.74773 0
M  V30 10468 H 985.096 -6.10115 -2.1832 0
M  V30 10469 N 978.502 0.731368 -1.39602 0
M  V30 10470 C 979.727 1.52567 -1.40492 0
M  V30 10471 C 980.152 1.881 -0.00228828 0
M  V30 10472 O 979.51 1.52167 0.985643 0
M  V30 10473 C 979.558 2.78749 -2.2876 0
M  V30 10474 O 978.662 3.7482 -1.71999 0
M  V30 10475 H 978.003 0.460601 -0.478271 0
M  V30 10476 H 980.533 0.902042 -1.83642 0
M  V30 10477 H 980.543 3.27446 -2.43399 0
M  V30 10478 H 979.218 2.5222 -3.30693 0
M  V30 10479 H 977.795 3.33604 -1.66622 0
M  V30 10480 N 979.98 1.24838 0.961938 0
M  V30 10481 C 981.396 1.01502 1.23165 0
M  V30 10482 C 981.596 -0.272651 1.99647 0
M  V30 10483 O 980.652 -0.987297 2.32398 0
M  V30 10484 C 981.965 2.23366 2.01316 0
M  V30 10485 C 983.513 2.28051 2.14387 0
M  V30 10486 C 983.988 3.49552 2.95935 0
M  V30 10487 N 985.479 3.49904 3.03515 0
M  V30 10488 C 986.214 4.40577 3.66987 0
M  V30 10489 N 985.71 5.41512 4.3213 0
M  V30 10490 N 987.503 4.28275 3.64056 0
M  V30 10491 H 979.654 2.07576 0.450086 0
M  V30 10492 H 981.917 0.911205 0.261551 0
M  V30 10493 H 981.623 3.16913 1.5251 0
M  V30 10494 H 981.497 2.25949 3.02038 0
M  V30 10495 H 983.884 1.35032 2.62393 0
M  V30 10496 H 983.965 2.29491 1.12994 0
M  V30 10497 H 983.609 4.42889 2.4862 0
M  V30 10498 H 983.539 3.45357 3.97538 0
M  V30 10499 H 986.03 2.76885 2.57183 0
M  V30 10500 H 986.343 6.06924 4.78396 0
M  V30 10501 H 984.688 5.45393 4.3078 0
M  V30 10502 H 987.879 3.48653 3.12344 0
M  V30 10503 H 988.052 4.99138 4.13237 0
M  V30 10504 N 981.458 -1.16348 1.06306 0
M  V30 10505 C 982.405 -2.20741 0.673962 0
M  V30 10506 C 983.375 -1.628 -0.329454 0
M  V30 10507 O 984.56 -1.89547 -0.218313 0
M  V30 10508 C 981.7 -3.45036 0.0667008 0
M  V30 10509 C 980.813 -4.17221 1.12031 0
M  V30 10510 C 979.948 -5.29034 0.479176 0
M  V30 10511 C 978.987 -5.93021 1.51631 0
M  V30 10512 N 978.124 -6.96327 0.898528 0
M  V30 10513 H 982.964 -2.53376 1.56859 0
M  V30 10514 H 980.501 -1.24449 0.784276 0
M  V30 10515 H 982.459 -4.16099 -0.302916 0
M  V30 10516 H 981.089 -3.1295 -0.791333 0
M  V30 10517 H 980.141 -3.4476 1.60763 0
M  V30 10518 H 981.453 -4.60902 1.90712 0
M  V30 10519 H 980.607 -6.06674 0.0565993 0
M  V30 10520 H 979.346 -4.86517 -0.33951 0
M  V30 10521 H 978.351 -5.14104 1.94878 0
M  V30 10522 H 979.576 -6.37618 2.3371 0
M  V30 10523 H 977.522 -6.55923 0.100555 0
M  V30 10524 H 977.439 -7.38379 1.62272 0
M  V30 10525 H 978.707 -7.77888 0.5011 0
M  V30 10526 N 982.937 -0.845659 -1.3299 0
M  V30 10527 C 983.869 -0.241097 -2.27928 0
M  V30 10528 C 984.882 0.582048 -1.5204 0
M  V30 10529 O 986.071 0.408008 -1.73774 0
M  V30 10530 C 983.171 0.678652 -3.32035 0
M  V30 10531 C 982.344 -0.106652 -4.3727 0
M  V30 10532 C 981.403 0.737478 -5.21006 0
M  V30 10533 O 980.429 0.174231 -5.68933 0
M  V30 10534 N 981.631 2.05372 -5.42957 0
M  V30 10535 H 984.396 -1.05685 -2.80448 0
M  V30 10536 H 981.957 -0.704771 -1.45755 0
M  V30 10537 H 983.949 1.24849 -3.84961 0
M  V30 10538 H 982.519 1.3951 -2.79742 0
M  V30 10539 H 981.739 -0.857897 -3.84752 0
M  V30 10540 H 983.027 -0.646386 -5.04677 0
M  V30 10541 H 982.425 2.53478 -5.05733 0
M  V30 10542 H 980.982 2.5719 -5.98913 0
M  V30 10543 N 984.415 1.45619 -0.602734 0
M  V30 10544 C 985.64 2.07157 -0.100429 0
M  V30 10545 C 986.065 1.44524 1.20393 0
M  V30 10546 O 985.423 0.536191 1.7319 0
M  V30 10547 C 985.471 3.60587 0.0308604 0
M  V30 10548 O 984.575 3.97944 1.08234 0
M  V30 10549 H 983.916 0.6601 -0.0718643 0
M  V30 10550 H 986.446 1.86948 -0.831366 0
M  V30 10551 H 986.456 4.07348 0.230634 0
M  V30 10552 H 985.131 4.05561 -0.921581 0
M  V30 10553 H 983.708 3.62862 0.859414 0
M  V30 10554 N 985.893 0.34162 1.53853 0
M  V30 10555 C 986.841 -0.531412 2.26448 0
M  V30 10556 C 987.835 -1.10357 1.28521 0
M  V30 10557 O 989.041 -1.04953 1.46236 0
M  V30 10558 H 985.416 -0.190054 0.727588 0
M  V30 10559 H 987.387 0.102922 2.98222 0
M  V30 10560 C 986.136 -1.67154 3.04885 0
M  V30 10561 H 985.459 -1.24055 3.80066 0
M  V30 10562 H 986.899 -2.25762 3.58898 0
M  V30 10563 C 985.358 -2.59984 2.14266 0
M  V30 10564 O 985.888 -3.62181 1.73746 0
M  V30 10565 N 984.094 -2.28625 1.79385 0
M  V30 10566 H 983.641 -1.45559 2.12533 0
M  V30 10567 H 983.599 -2.90995 1.19035 0
M  V30 10568 N 987.371 -1.57444 0.0701946 0
M  V30 10569 C 988.782 -1.80875 -0.462709 0
M  V30 10570 C 989.133 -0.983975 -1.69742 0
M  V30 10571 O 988.258 -0.206027 -2.15417 0
M  V30 10572 C 988.853 -3.28062 -0.84623 0
M  V30 10573 C 987.412 -3.52345 -1.32401 0
M  V30 10574 C 986.559 -2.7558 -0.308399 0
M  V30 10575 H 989.51 -1.55917 0.295907 0
M  V30 10576 H 989.531 -3.40023 -1.70776 0
M  V30 10577 H 989.043 -3.88064 0.0526033 0
M  V30 10578 H 987.144 -2.97645 -2.24139 0
M  V30 10579 H 987.257 -4.6104 -1.30304 0
M  V30 10580 H 985.621 -2.4229 -0.785337 0
M  V30 10581 H 986.404 -3.38319 0.582679 0
M  V30 10582 N 988.849 0.203349 -1.56283 0
M  V30 10583 C 989.779 1.2549 -1.96912 0
M  V30 10584 C 990.76 1.47919 -0.839884 0
M  V30 10585 O 991.945 1.59795 -1.10359 0
M  V30 10586 C 989.075 2.6009 -2.30153 0
M  V30 10587 C 988.029 2.52289 -3.45738 0
M  V30 10588 C 987.355 3.91086 -3.64632 0
M  V30 10589 C 988.655 2.05503 -4.80173 0
M  V30 10590 H 990.349 0.917306 -2.85002 0
M  V30 10591 H 987.895 0.439818 -1.37119 0
M  V30 10592 H 989.848 3.33829 -2.5717 0
M  V30 10593 H 988.572 2.95574 -1.38937 0
M  V30 10594 H 987.231 1.81006 -3.18798 0
M  V30 10595 H 986.879 4.23908 -2.7076 0
M  V30 10596 H 986.579 3.86742 -4.42385 0
M  V30 10597 H 988.103 4.66459 -3.94016 0
M  V30 10598 H 989.517 2.68995 -5.06275 0
M  V30 10599 H 987.914 2.1218 -5.61337 0
M  V30 10600 H 988.984 1.00793 -4.74309 0
M  V30 10601 N 990.327 1.50405 0.470755 0
M  V30 10602 C 991.257 1.72222 1.57676 0
M  V30 10603 C 992.238 0.57121 1.60222 0
M  V30 10604 O 993.423 0.810381 1.76484 0
M  V30 10605 C 990.553 1.81666 2.95998 0
M  V30 10606 C 989.507 2.96857 3.08318 0
M  V30 10607 C 988.833 2.91445 4.4829 0
M  V30 10608 C 990.133 4.37361 2.85504 0
M  V30 10609 H 991.827 2.64825 1.39671 0
M  V30 10610 H 989.373 1.27438 0.67049 0
M  V30 10611 H 991.326 1.95514 3.73299 0
M  V30 10612 H 990.05 0.856856 3.1516 0
M  V30 10613 H 988.709 2.82661 2.33449 0
M  V30 10614 H 988.357 1.93309 4.64371 0
M  V30 10615 H 988.057 3.68776 4.57469 0
M  V30 10616 H 989.581 3.07341 5.27611 0
M  V30 10617 H 990.995 4.52081 3.52555 0
M  V30 10618 H 989.392 5.16145 3.06127 0
M  V30 10619 H 990.462 4.49708 1.81359 0
M  V30 10620 N 991.805 -0.723954 1.39988 0
M  V30 10621 C 993.054 -1.47922 1.3712 0
M  V30 10622 C 993.367 -1.95582 -0.0263665 0
M  V30 10623 O 994.573 -2.70918 -0.177652 0
M  V30 10624 C 993.029 -2.67342 2.40949 0
M  V30 10625 C 992.637 -2.26586 3.86475 0
M  V30 10626 C 994.381 -3.45116 2.47174 0
M  V30 10627 C 992.288 -3.42794 4.81919 0
M  V30 10628 H 991.218 -0.555522 0.509815 0
M  V30 10629 H 993.869 -0.788692 1.65686 0
M  V30 10630 H 992.251 -3.38524 2.0547 0
M  V30 10631 H 993.425 -1.62878 4.31054 0
M  V30 10632 H 991.74 -1.61876 3.83647 0
M  V30 10633 H 994.337 -4.31573 3.15672 0
M  V30 10634 H 994.68 -3.8835 1.49966 0
M  V30 10635 H 995.213 -2.80971 2.81602 0
M  V30 10636 H 991.952 -3.046 5.8043 0
M  V30 10637 H 991.472 -4.05445 4.42012 0
M  V30 10638 H 993.151 -4.08977 5.01345 0
M  V30 10639 N 993.283 -1.25346 -0.955304 0
M  V30 10640 C 994.233 -1.02358 -2.03732 0
M  V30 10641 C 995.217 0.0392941 -1.60852 0
M  V30 10642 O 996.409 -0.175959 -1.76123 0
M  V30 10643 C 993.538 -0.643552 -3.37214 0
M  V30 10644 C 992.624 -1.74315 -3.8662 0
M  V30 10645 N 993.015 -2.97816 -4.08827 0
M  V30 10646 C 991.313 -1.62351 -4.15401 0
M  V30 10647 C 992.014 -3.69185 -4.4953 0
M  V30 10648 N 990.99 -2.96803 -4.55422 0
M  V30 10649 H 994.792 -1.96119 -2.18894 0
M  V30 10650 H 992.306 -1.15655 -1.14007 0
M  V30 10651 H 994.303 -0.460053 -4.14354 0
M  V30 10652 H 992.963 0.286738 -3.23431 0
M  V30 10653 H 993.974 -3.33868 -3.95919 0
M  V30 10654 H 990.651 -0.762133 -4.10485 0
M  V30 10655 H 992.041 -4.7519 -4.7502 0
M  V30 10656 N 994.761 1.15782 -1.06922 0
M  V30 10657 C 996.007 1.86741 -0.790922 0
M  V30 10658 C 996.34 1.81863 0.681149 0
M  V30 10659 O 995.615 1.23871 1.49954 0
M  V30 10660 C 995.898 3.36038 -1.29422 0
M  V30 10661 C 995.751 3.49573 -2.83052 0
M  V30 10662 C 997.07 4.30647 -0.907239 0
M  V30 10663 H 994.189 0.678064 -0.288787 0
M  V30 10664 H 996.831 1.36054 -1.32624 0
M  V30 10665 H 994.981 3.79336 -0.838843 0
M  V30 10666 H 996.653 3.1517 -3.36847 0
M  V30 10667 H 994.896 2.91275 -3.21467 0
M  V30 10668 H 995.567 4.5445 -3.13335 0
M  V30 10669 H 998.043 3.95286 -1.29956 0
M  V30 10670 H 996.919 5.33604 -1.28679 0
M  V30 10671 H 997.18 4.41703 0.187251 0
M  V30 10672 N 996.239 0.8527 1.3254 0
M  V30 10673 C 997.516 0.376491 1.91942 0
M  V30 10674 C 997.896 -1.13972 1.7769 0
M  V30 10675 O 997.244 -1.96047 1.17379 0
M  V30 10676 C 997.454 0.838694 3.38773 0
M  V30 10677 C 998.802 0.854736 4.15908 0
M  V30 10678 O 999.826 0.783203 3.47483 0
M  V30 10679 O 998.685 0.955207 5.38087 0
M  V30 10680 H 995.779 0.109412 0.81973 0
M  V30 10681 H 998.325 0.93947 1.41322 0
M  V30 10682 H 997.097 1.88179 3.43081 0
M  V30 10683 H 996.72 0.253055 3.96794 0
M  V30 10684 N 997.718 -1.45297 0.610449 0
M  V30 10685 C 998.946 -2.0659 0.113211 0
M  V30 10686 C 999.361 -1.4546 -1.20361 0
M  V30 10687 O 998.718 -0.569823 -1.73376 0
M  V30 10688 C 998.769 -3.61488 -0.0298411 0
M  V30 10689 O 998.49 -4.20336 1.23488 0
M  V30 10690 C 999.991 -4.39772 -0.558202 0
M  V30 10691 H 997.211 -0.667322 0.0701555 0
M  V30 10692 H 999.755 -1.86497 0.838993 0
M  V30 10693 H 997.91 -3.80913 -0.705963 0
M  V30 10694 H 998.324 -5.13545 1.0664 0
M  V30 10695 H 999.798 -5.48648 -0.607375 0
M  V30 10696 H 1000.27 -4.09755 -1.58107 0
M  V30 10697 H 1000.88 -4.25217 0.0839704 0
M  V30 10698 N 999.196 -0.349774 -1.5367 0
M  V30 10699 C 1000.14 0.504121 -2.25227 0
M  V30 10700 C 1001.11 1.09048 -1.2529 0
M  V30 10701 O 1002.3 1.12594 -1.54037 0
M  V30 10702 C 999.438 1.64601 -3.03316 0
M  V30 10703 C 998.551 1.08635 -4.18118 0
M  V30 10704 C 997.686 2.19605 -4.83681 0
M  V30 10705 C 996.725 1.61023 -5.90541 0
M  V30 10706 N 995.862 2.6576 -6.49858 0
M  V30 10707 H 1000.7 -0.112621 -2.97787 0
M  V30 10708 H 998.239 -0.0673503 -1.46946 0
M  V30 10709 H 1000.2 2.31836 -3.46854 0
M  V30 10710 H 998.827 2.23364 -2.33041 0
M  V30 10711 H 997.879 0.304748 -3.79177 0
M  V30 10712 H 999.191 0.617911 -4.94958 0
M  V30 10713 H 998.345 2.94693 -5.30322 0
M  V30 10714 H 997.084 2.69795 -4.06278 0
M  V30 10715 H 996.089 0.844428 -5.43277 0
M  V30 10716 H 997.314 1.11677 -6.69855 0
M  V30 10717 H 995.26 3.15193 -5.75317 0
M  V30 10718 H 995.177 2.23557 -7.2219 0
M  V30 10719 H 996.445 3.40598 -7.01151 0
M  V30 10720 N 1000.67 1.57404 -0.0785433 0
M  V30 10721 C 1001.64 2.11977 0.871693 0
M  V30 10722 C 1002.64 1.04529 1.2219 0
M  V30 10723 O 1003.83 1.30488 1.15406 0
M  V30 10724 C 1000.96 2.6267 2.17296 0
M  V30 10725 H 1002.15 2.97246 0.398115 0
M  V30 10726 H 999.705 1.5537 0.170251 0
M  V30 10727 H 1000.44 1.80873 2.69175 0
M  V30 10728 H 1000.22 3.41214 1.93171 0
M  V30 10729 H 1001.71 3.04943 2.85306 0
M  V30 10730 N 1002.15 -0.195058 1.56388 0
M  V30 10731 C 1003.4 -0.913636 1.8027 0
M  V30 10732 C 1003.72 -1.83791 0.651606 0
M  V30 10733 O 1002.99 -1.931 -0.330057 0
M  V30 10734 H 1001.57 -0.34036 0.664954 0
M  V30 10735 H 1004.23 -0.200559 1.93865 0
M  V30 10736 H 1003.33 -1.50473 2.7343 0
M  V30 10737 N 1003.63 -1.50653 -0.462772 0
M  V30 10738 C 1004.58 -1.66509 -1.55752 0
M  V30 10739 C 1005.56 -0.519508 -1.52282 0
M  V30 10740 O 1006.76 -0.774296 -1.59166 0
M  V30 10741 C 1003.88 -1.77023 -2.94139 0
M  V30 10742 C 1002.97 -2.97284 -3.02461 0
M  V30 10743 N 1003.36 -4.20843 -2.80579 0
M  V30 10744 C 1001.66 -2.96014 -3.33604 0
M  V30 10745 C 1002.36 -5.01886 -2.94084 0
M  V30 10746 N 1001.34 -4.3601 -3.24648 0
M  V30 10747 H 1005.14 -2.59727 -1.37546 0
M  V30 10748 H 1002.65 -1.47951 -0.669653 0
M  V30 10749 H 1004.65 -1.86488 -3.72864 0
M  V30 10750 H 1003.31 -0.849688 -3.13385 0
M  V30 10751 H 1004.32 -4.50206 -2.55998 0
M  V30 10752 H 1001 -2.13493 -3.58786 0
M  V30 10753 H 1002.39 -6.10164 -2.81334 0
M  V30 10754 N 1005.11 0.71652 -1.4037 0
M  V30 10755 C 1006.36 1.47347 -1.38324 0
M  V30 10756 C 1006.68 1.94995 0.0139949 0
M  V30 10757 O 1005.95 1.7028 0.968585 0
M  V30 10758 H 1004.53 0.546662 -0.509087 0
M  V30 10759 H 1007.19 0.849455 -1.75415 0
M  V30 10760 H 1006.29 2.34675 -2.05752 0
M  V30 10761 N 1006.59 1.25851 0.948643 0
M  V30 10762 C 1007.55 1.0683 2.0278 0
M  V30 10763 C 1008.55 0.0191016 1.60789 0
M  V30 10764 O 1009.74 0.261836 1.72221 0
M  V30 10765 C 1006.87 0.623318 3.35153 0
M  V30 10766 H 1008.06 2.02635 2.21086 0
M  V30 10767 H 1005.62 1.08343 1.12657 0
M  V30 10768 H 1006.35 -0.337053 3.22544 0
M  V30 10769 H 1006.14 1.38082 3.66982 0
M  V30 10770 H 1007.63 0.511854 4.14451 0
M  V30 10771 N 1008.06 -1.15214 1.07534 0
M  V30 10772 C 1009.31 -1.85676 0.79805 0
M  V30 10773 C 1009.63 -1.82837 -0.677919 0
M  V30 10774 O 1008.9 -1.27059 -1.49107 0
M  V30 10775 H 1007.48 -0.687468 0.292227 0
M  V30 10776 H 1010.15 -1.39658 1.35947 0
M  V30 10777 H 1009.24 -2.9076 1.13423 0
M  V30 10778 N 1009.54 -0.859717 -1.32086 0
M  V30 10779 C 1010.49 -0.306042 -2.28762 0
M  V30 10780 C 1011.46 0.589801 -1.55276 0
M  V30 10781 O 1012.64 0.523633 -1.83474 0
M  V30 10782 C 1009.78 0.495256 -3.41528 0
M  V30 10783 C 1008.9 -0.426947 -4.29885 0
M  V30 10784 C 1008.03 0.387474 -5.29785 0
M  V30 10785 C 1007.07 -0.531807 -6.09785 0
M  V30 10786 N 1006.21 0.245741 -7.0167 0
M  V30 10787 H 1011.05 -1.1357 -2.7551 0
M  V30 10788 H 1008.59 -0.571468 -1.35546 0
M  V30 10789 H 1010.54 0.97551 -4.05635 0
M  V30 10790 H 1009.17 1.28969 -2.95917 0
M  V30 10791 H 1008.23 -1.02561 -3.66313 0
M  V30 10792 H 1009.54 -1.13226 -4.85779 0
M  V30 10793 H 1008.69 0.930677 -5.99519 0
M  V30 10794 H 1007.43 1.12612 -4.74521 0
M  V30 10795 H 1006.44 -1.08685 -5.3895 0
M  V30 10796 H 1007.66 -1.26915 -6.67135 0
M  V30 10797 H 1005.61 0.967391 -6.48828 0
M  V30 10798 H 1005.52 -0.400432 -7.54939 0
M  V30 10799 H 1006.79 0.770507 -7.75683 0
M  V30 10800 N 1011.02 1.44971 -0.618145 0
M  V30 10801 C 1012.43 1.85611 -0.201334 0
M  V30 10802 C 1012.78 1.51698 1.24427 0
M  V30 10803 O 1011.91 0.94875 1.94493 0
M  V30 10804 C 1012.5 3.36897 -0.358619 0
M  V30 10805 C 1011.06 3.764 0.00358196 0
M  V30 10806 C 1010.21 2.68881 -0.678118 0
M  V30 10807 H 1013.16 1.35622 -0.824152 0
M  V30 10808 H 1013.18 3.78326 0.406176 0
M  V30 10809 H 1012.69 3.61548 -1.41084 0
M  V30 10810 H 1010.79 3.57365 1.05457 0
M  V30 10811 H 1010.91 4.77449 -0.397427 0
M  V30 10812 H 1009.27 2.54442 -0.114699 0
M  V30 10813 H 1010.05 2.96367 -1.73268 0
M  V30 10814 N 1012.5 0.357919 1.53482 0
M  V30 10815 C 1013.73 -0.23514 2.05559 0
M  V30 10816 C 1014.14 -1.43068 1.23195 0
M  V30 10817 O 1013.5 -1.80481 0.270741 0
M  V30 10818 C 1013.55 -0.636147 3.55859 0
M  V30 10819 O 1013.27 0.511864 4.35099 0
M  V30 10820 C 1014.77 -1.28841 4.24164 0
M  V30 10821 H 1011.99 -0.0428446 0.669631 0
M  V30 10822 H 1014.54 0.51407 1.97933 0
M  V30 10823 H 1012.69 -1.33528 3.63661 0
M  V30 10824 H 1013.1 0.189328 5.24158 0
M  V30 10825 H 1014.58 -1.51962 5.30671 0
M  V30 10826 H 1015.06 -2.24638 3.77405 0
M  V30 10827 H 1015.66 -0.630914 4.20594 0
M  V30 10828 N 1013.98 -1.5736 0.0868897 0
M  V30 10829 C 1014.94 -2.12436 -0.860439 0
M  V30 10830 C 1015.94 -1.05175 -1.21634 0
M  V30 10831 O 1017.13 -1.31098 -1.14713 0
M  V30 10832 C 1014.26 -2.63818 -2.159 0
M  V30 10833 H 1015.45 -2.97453 -0.382346 0
M  V30 10834 H 1013.01 -1.55458 -0.162009 0
M  V30 10835 H 1013.74 -1.82298 -2.68212 0
M  V30 10836 H 1013.53 -3.42234 -1.91359 0
M  V30 10837 H 1015.02 -3.06452 -2.83685 0
M  V30 10838 N 1015.45 0.186762 -1.56489 0
M  V30 10839 C 1016.4 1.23141 -1.95205 0
M  V30 10840 C 1017.37 1.44799 -0.81378 0
M  V30 10841 O 1018.56 1.57795 -1.07263 0
M  V30 10842 C 1015.7 2.56926 -2.30397 0
M  V30 10843 C 1014.81 2.42777 -3.57328 0
M  V30 10844 C 1013.94 3.69323 -3.81804 0
M  V30 10845 C 1012.98 3.50041 -5.02133 0
M  V30 10846 N 1012.12 4.68619 -5.2282 0
M  V30 10847 H 1016.96 0.894256 -2.84266 0
M  V30 10848 H 1014.5 0.430187 -1.40669 0
M  V30 10849 H 1016.46 3.3488 -2.4882 0
M  V30 10850 H 1015.09 2.88668 -1.44466 0
M  V30 10851 H 1014.14 1.56078 -3.46906 0
M  V30 10852 H 1015.45 2.24468 -4.45439 0
M  V30 10853 H 1014.6 4.55715 -4.00511 0
M  V30 10854 H 1013.34 3.90595 -2.92039 0
M  V30 10855 H 1012.35 2.62034 -4.8334 0
M  V30 10856 H 1013.57 3.30206 -5.93414 0
M  V30 10857 H 1011.52 4.90139 -4.36005 0
M  V30 10858 H 1011.44 4.53165 -6.05126 0
M  V30 10859 H 1012.7 5.56338 -5.45993 0
M  V30 10860 N 1016.93 1.50896 0.454776 0
M  V30 10861 C 1018.18 1.6294 1.20741 0
M  V30 10862 C 1018.51 0.336339 1.91265 0
M  V30 10863 O 1017.79 -0.663153 1.82846 0
M  V30 10864 C 1018.07 2.82092 2.23822 0
M  V30 10865 C 1017.92 4.21326 1.57495 0
M  V30 10866 C 1019.24 2.96777 3.24979 0
M  V30 10867 H 1016.36 0.59302 0.437603 0
M  V30 10868 H 1019 1.83331 0.498959 0
M  V30 10869 H 1017.15 2.64837 2.84243 0
M  V30 10870 H 1018.82 4.50209 1.00546 0
M  V30 10871 H 1017.07 4.24829 0.877664 0
M  V30 10872 H 1017.74 5.00656 2.32482 0
M  V30 10873 H 1020.21 3.12627 2.74597 0
M  V30 10874 H 1019.09 3.81742 3.94416 0
M  V30 10875 H 1019.35 2.08091 3.90065 0
M  V30 10876 N 1018.41 -0.709066 1.40748 0
M  V30 10877 C 1019.66 -1.4646 1.38681 0
M  V30 10878 C 1019.97 -1.95599 -0.0056209 0
M  V30 10879 O 1021.18 -2.71091 -0.148907 0
M  V30 10880 C 1019.63 -2.64771 2.43771 0
M  V30 10881 C 1019.24 -2.22474 3.88856 0
M  V30 10882 C 1020.99 -3.42475 2.50821 0
M  V30 10883 C 1018.89 -3.37663 4.85528 0
M  V30 10884 H 1017.82 -0.550084 0.515678 0
M  V30 10885 H 1020.47 -0.771074 1.66513 0
M  V30 10886 H 1018.86 -3.36325 2.09048 0
M  V30 10887 H 1020.03 -1.58297 4.32757 0
M  V30 10888 H 1018.35 -1.57798 3.85342 0
M  V30 10889 H 1020.94 -4.28201 3.20232 0
M  V30 10890 H 1021.29 -3.86738 1.54076 0
M  V30 10891 H 1021.82 -2.77969 2.84567 0
M  V30 10892 H 1018.56 -2.98426 5.83628 0
M  V30 10893 H 1018.08 -4.00734 4.46287 0
M  V30 10894 H 1019.76 -4.03636 5.05655 0
M  V30 10895 N 1019.89 -1.26353 -0.941956 0
M  V30 10896 C 1020.8 -1.09618 -2.07415 0
M  V30 10897 C 1021.82 -0.0298963 -1.73974 0
M  V30 10898 O 1022.99 -0.233466 -2.00042 0
M  V30 10899 C 1020.06 -0.73013 -3.38925 0
M  V30 10900 C 1019.12 -1.87574 -3.86153 0
M  V30 10901 C 1018.35 -1.52706 -5.11387 0
M  V30 10902 O 1018.57 -0.428438 -5.68789 0
M  V30 10903 O 1017.51 -2.36154 -5.53638 0
M  V30 10904 H 1021.33 -2.04598 -2.2444 0
M  V30 10905 H 1018.92 -1.05407 -1.05876 0
M  V30 10906 H 1020.8 -0.538684 -4.17943 0
M  V30 10907 H 1019.48 0.190282 -3.2314 0
M  V30 10908 H 1018.38 -2.12214 -3.08084 0
M  V30 10909 H 1019.72 -2.77585 -4.06457 0
M  V30 10910 N 1021.37 1.14642 -1.08144 0
M  V30 10911 C 1022.28 2.23257 -0.720668 0
M  V30 10912 C 1023.29 1.71866 0.271648 0
M  V30 10913 O 1024.47 2.01064 0.116266 0
M  V30 10914 C 1021.53 3.46447 -0.132542 0
M  V30 10915 C 1020.6 4.12789 -1.17913 0
M  V30 10916 C 1019.83 5.30099 -0.618971 0
M  V30 10917 O 1020.05 5.6762 0.562418 0
M  V30 10918 O 1018.99 5.86154 -1.36774 0
M  V30 10919 H 1022.81 2.56463 -1.62667 0
M  V30 10920 H 1020.4 1.22521 -0.854932 0
M  V30 10921 H 1022.28 4.20959 0.19277 0
M  V30 10922 H 1020.95 3.14971 0.746662 0
M  V30 10923 H 1019.86 3.40163 -1.55693 0
M  V30 10924 H 1021.19 4.48365 -2.03051 0
M  V30 10925 N 1022.85 0.866709 1.31628 0
M  V30 10926 C 1024.09 0.476731 1.97117 0
M  V30 10927 C 1024.42 -0.967813 1.68366 0
M  V30 10928 O 1023.7 -1.68101 0.978377 0
M  V30 10929 C 1023.98 0.730561 3.52611 0
M  V30 10930 C 1023.84 2.2244 3.90948 0
M  V30 10931 C 1025.15 0.19488 4.39668 0
M  V30 10932 H 1022.27 0.174682 0.715999 0
M  V30 10933 H 1024.92 1.08735 1.5581 0
M  V30 10934 H 1023.07 0.210834 3.87927 0
M  V30 10935 H 1024.74 2.81113 3.6575 0
M  V30 10936 H 1022.98 2.69824 3.39673 0
M  V30 10937 H 1023.65 2.35266 4.99353 0
M  V30 10938 H 1026.13 0.639478 4.11157 0
M  V30 10939 H 1025 0.401958 5.47426 0
M  V30 10940 H 1025.26 -0.90302 4.32779 0
M  V30 10941 N 1024.32 -1.44642 0.625825 0
M  V30 10942 C 1025.55 -2.06971 0.133373 0
M  V30 10943 C 1025.97 -1.46421 -1.18078 0
M  V30 10944 O 1025.33 -0.563676 -1.72315 0
M  V30 10945 C 1025.38 -3.6059 0.0265097 0
M  V30 10946 O 1024.48 -3.99615 -1.01889 0
M  V30 10947 H 1023.82 -0.658873 0.0823568 0
M  V30 10948 H 1026.35 -1.85601 0.861002 0
M  V30 10949 H 1026.36 -4.07663 -0.1658 0
M  V30 10950 H 1025.04 -4.04043 0.985986 0
M  V30 10951 H 1023.62 -3.64183 -0.801577 0
M  V30 10952 N 1025.8 -0.366053 -1.5329 0
M  V30 10953 C 1027.08 0.279902 -1.93587 0
M  V30 10954 C 1027.46 1.66352 -1.29963 0
M  V30 10955 O 1026.81 2.23845 -0.458895 0
M  V30 10956 C 1027.02 0.329634 -3.4744 0
M  V30 10957 C 1028.36 0.569754 -4.2076 0
M  V30 10958 O 1029.39 0.410823 -3.53823 0
M  V30 10959 O 1028.25 0.879262 -5.3938 0
M  V30 10960 H 1025.34 0.16802 -0.809752 0
M  V30 10961 H 1027.89 -0.418871 -1.64449 0
M  V30 10962 H 1026.66 -0.640434 -3.86023 0
M  V30 10963 H 1026.28 1.07428 -3.82812 0
M  V30 10964 N 1027.28 1.57312 -0.0952337 0
M  V30 10965 C 1028.21 2.09691 0.900274 0
M  V30 10966 C 1029.19 1.0075 1.27625 0
M  V30 10967 O 1030.37 1.28249 1.38147 0
M  V30 10968 C 1027.5 2.574 2.20142 0
M  V30 10969 C 1026.55 3.78 1.9753 0
M  V30 10970 S 1027.38 5.21577 1.21318 0
M  V30 10971 C 1028.54 5.72636 2.52663 0
M  V30 10972 H 1028.77 2.93803 0.45467 0
M  V30 10973 H 1026.3 1.53948 0.118056 0
M  V30 10974 H 1028.26 2.85546 2.94914 0
M  V30 10975 H 1026.92 1.73514 2.61824 0
M  V30 10976 H 1026.11 4.09451 2.93881 0
M  V30 10977 H 1025.72 3.50349 1.30888 0
M  V30 10978 H 1028.01 5.80911 3.48638 0
M  V30 10979 H 1028.95 6.71136 2.25791 0
M  V30 10980 H 1029.36 5.00569 2.60943 0
M  V30 10981 N 1028.76 -0.17846 1.56586 0
M  V30 10982 C 1030 -0.896235 1.81587 0
M  V30 10983 C 1030.33 -1.82553 0.671168 0
M  V30 10984 O 1029.59 -1.92688 -0.342046 0
M  V30 10985 C 1029.89 -1.73063 3.12704 0
M  V30 10986 C 1029.55 -0.950877 4.4076 0
M  V30 10987 C 1028.21 -0.735647 4.75544 0
M  V30 10988 C 1030.57 -0.403419 5.19636 0
M  V30 10989 C 1027.89 0.0382562 5.86688 0
M  V30 10990 C 1030.25 0.357359 6.3159 0
M  V30 10991 C 1028.91 0.583455 6.64945 0
M  V30 10992 H 1028.18 -0.327956 0.664474 0
M  V30 10993 H 1030.83 -0.161586 1.90817 0
M  V30 10994 H 1029.13 -2.53446 2.98785 0
M  V30 10995 H 1030.83 -2.28891 3.29257 0
M  V30 10996 H 1027.42 -1.12866 4.13472 0
M  V30 10997 H 1031.6 -0.557059 4.93164 0
M  V30 10998 H 1026.86 0.223237 6.10992 0
M  V30 10999 H 1031.03 0.788861 6.91918 0
M  V30 11000 H 1028.66 1.18502 7.50907 0
M  V30 11001 N 1030.24 -1.51135 -0.446768 0
M  V30 11002 C 1031.2 -1.71187 -1.52406 0
M  V30 11003 C 1032.2 -0.582037 -1.49897 0
M  V30 11004 O 1033.39 -0.849452 -1.52085 0
M  V30 11005 C 1030.52 -1.75962 -2.91976 0
M  V30 11006 H 1031.71 -2.67324 -1.35934 0
M  V30 11007 H 1029.27 -1.40982 -0.674813 0
M  V30 11008 H 1030 -0.816065 -3.13864 0
M  V30 11009 H 1029.79 -2.58065 -2.95203 0
M  V30 11010 H 1031.28 -1.93347 -3.70144 0
M  V30 11011 N 1031.71 0.701592 -1.41122 0
M  V30 11012 C 1032.96 1.4616 -1.40155 0
M  V30 11013 C 1033.29 1.94498 -0.00861553 0
M  V30 11014 O 1032.54 1.69484 0.978452 0
M  V30 11015 C 1032.84 2.693 -2.34973 0
M  V30 11016 C 1032.51 2.39652 -3.81939 0
M  V30 11017 C 1031.17 2.31277 -4.21977 0
M  V30 11018 C 1033.52 2.15076 -4.74755 0
M  V30 11019 C 1030.85 1.96413 -5.52846 0
M  V30 11020 C 1033.2 1.81722 -6.05937 0
M  V30 11021 C 1031.87 1.71838 -6.45002 0
M  V30 11022 H 1031.14 0.534837 -0.512865 0
M  V30 11023 H 1033.78 0.802425 -1.73878 0
M  V30 11024 H 1032.09 3.40123 -1.94484 0
M  V30 11025 H 1033.79 3.27427 -2.31501 0
M  V30 11026 H 1030.38 2.47063 -3.50226 0
M  V30 11027 H 1034.56 2.20495 -4.4463 0
M  V30 11028 H 1029.82 1.87308 -5.82001 0
M  V30 11029 H 1033.99 1.61723 -6.77362 0
M  V30 11030 H 1031.62 1.44591 -7.46323 0
M  V30 11031 N 1033.19 1.2685 0.935242 0
M  V30 11032 C 1034.44 1.12132 1.67658 0
M  V30 11033 C 1034.75 -0.333839 1.9273 0
M  V30 11034 O 1035.96 -0.601801 2.64746 0
M  V30 11035 C 1034.42 1.95873 3.0193 0
M  V30 11036 C 1034.02 3.46 2.84584 0
M  V30 11037 C 1035.77 1.89781 3.79715 0
M  V30 11038 C 1033.67 4.21966 4.14365 0
M  V30 11039 H 1032.6 0.416035 0.628833 0
M  V30 11040 H 1035.26 1.51209 1.03962 0
M  V30 11041 H 1033.64 1.49633 3.66641 0
M  V30 11042 H 1034.81 4.00049 2.28687 0
M  V30 11043 H 1033.13 3.53391 2.20236 0
M  V30 11044 H 1035.72 2.43819 4.75875 0
M  V30 11045 H 1036.07 0.869797 4.07112 0
M  V30 11046 H 1036.6 2.33875 3.21788 0
M  V30 11047 H 1033.34 5.2526 3.9215 0
M  V30 11048 H 1032.86 3.72696 4.69955 0
M  V30 11049 H 1034.54 4.30734 4.82781 0
M  V30 11050 N 1034.67 -1.14067 1.0875 0
M  V30 11051 C 1035.63 -2.17453 0.724341 0
M  V30 11052 C 1036.63 -1.58959 -0.242614 0
M  V30 11053 O 1037.82 -1.74186 -0.0217008 0
M  V30 11054 C 1034.96 -3.40828 0.0700236 0
M  V30 11055 H 1036.15 -2.51094 1.63987 0
M  V30 11056 H 1033.7 -1.28775 0.885813 0
M  V30 11057 H 1034.44 -3.1277 -0.857061 0
M  V30 11058 H 1034.22 -3.84551 0.76569 0
M  V30 11059 H 1035.71 -4.17258 -0.168905 0
M  V30 11060 N 1036.15 -0.873678 -1.31166 0
M  V30 11061 C 1037.56 -0.566109 -1.49223 0
M  V30 11062 C 1037.76 0.898889 -1.80339 0
M  V30 11063 O 1036.82 1.68084 -1.88425 0
M  V30 11064 C 1038.13 -1.46952 -2.62346 0
M  V30 11065 C 1039.68 -1.47195 -2.76229 0
M  V30 11066 C 1040.16 -2.36102 -3.92454 0
M  V30 11067 N 1041.65 -2.34003 -3.99746 0
M  V30 11068 C 1042.38 -2.99513 -4.88958 0
M  V30 11069 N 1041.88 -3.74206 -5.83045 0
M  V30 11070 N 1043.67 -2.88802 -4.82234 0
M  V30 11071 H 1035.82 -1.82156 -1.09239 0
M  V30 11072 H 1038.09 -0.779086 -0.54012 0
M  V30 11073 H 1037.79 -2.51213 -2.4614 0
M  V30 11074 H 1037.67 -1.17077 -3.5857 0
M  V30 11075 H 1040.05 -0.436902 -2.91848 0
M  V30 11076 H 1040.13 -1.81095 -1.80661 0
M  V30 11077 H 1039.78 -3.39685 -3.77593 0
M  V30 11078 H 1039.71 -1.99524 -4.87337 0
M  V30 11079 H 1042.2 -1.79713 -3.32433 0
M  V30 11080 H 1042.51 -4.21312 -6.47855 0
M  V30 11081 H 1040.86 -3.78314 -5.83012 0
M  V30 11082 H 1044.05 -2.29984 -4.07707 0
M  V30 11083 H 1044.22 -3.40136 -5.51554 0
M  V30 11084 N 1037.63 1.44308 -0.633487 0
M  V30 11085 C 1038.87 2.03904 -0.14226 0
M  V30 11086 C 1039.23 1.48768 1.21376 0
M  V30 11087 O 1040.43 1.99882 1.79724 0
M  V30 11088 C 1038.7 3.5716 -0.130975 0
M  V30 11089 S 1040.26 4.37805 0.295287 0
M  V30 11090 H 1037.08 0.70827 -0.0622429 0
M  V30 11091 H 1039.68 1.76657 -0.837405 0
M  V30 11092 H 1038.39 3.94794 -1.12096 0
M  V30 11093 H 1037.92 3.89021 0.585342 0
M  V30 11094 H 1039.93 4.71732 1.53894 0
M  V30 11095 N 1039.1 0.374177 1.53094 0
M  V30 11096 C 1040.03 -0.459976 2.28925 0
M  V30 11097 C 1041.02 -1.07656 1.31698 0
M  V30 11098 O 1042.2 -1.09219 1.60577 0
M  V30 11099 C 1039.33 -1.5954 3.08487 0
M  V30 11100 C 1038.28 -1.10563 4.13473 0
M  V30 11101 C 1037.61 -2.33196 4.81169 0
M  V30 11102 C 1038.91 -0.184275 5.21975 0
M  V30 11103 H 1040.6 0.172692 2.98902 0
M  V30 11104 H 1038.15 0.0844956 1.43752 0
M  V30 11105 H 1040.1 -2.18565 3.60288 0
M  V30 11106 H 1038.83 -2.25543 2.36216 0
M  V30 11107 H 1037.49 -0.53801 3.62631 0
M  V30 11108 H 1037.13 -2.97675 4.05461 0
M  V30 11109 H 1036.83 -2.01094 5.52119 0
M  V30 11110 H 1038.36 -2.92892 5.35767 0
M  V30 11111 H 1039.77 -0.682262 5.69226 0
M  V30 11112 H 1038.17 0.0462746 6.00082 0
M  V30 11113 H 1039.24 0.771152 4.78729 0
M  V30 11114 N 1040.58 -1.57259 0.103575 0
M  V30 11115 C 1041.53 -2.15727 -0.869739 0
M  V30 11116 C 1042.52 -1.10236 -1.28625 0
M  V30 11117 O 1043.73 -1.28567 -1.25979 0
M  V30 11118 H 1040.11 -0.690204 -0.298535 0
M  V30 11119 H 1042.08 -2.96317 -0.351984 0
M  V30 11120 C 1040.83 -2.75905 -2.11593 0
M  V30 11121 H 1040.15 -3.56768 -1.80434 0
M  V30 11122 H 1041.59 -3.20373 -2.77736 0
M  V30 11123 C 1040.05 -1.72218 -2.89556 0
M  V30 11124 O 1040.58 -1.16623 -3.84398 0
M  V30 11125 N 1038.78 -1.42514 -2.53255 0
M  V30 11126 H 1038.33 -1.87914 -1.76198 0
M  V30 11127 H 1038.29 -0.733782 -3.05717 0
M  V30 11128 N 1042.06 0.170153 -1.56679 0
M  V30 11129 C 1043.31 0.887906 -1.8233 0
M  V30 11130 C 1043.64 1.81845 -0.681608 0
M  V30 11131 O 1042.91 1.9191 0.316362 0
M  V30 11132 C 1043.2 1.68256 -3.18374 0
M  V30 11133 C 1043.05 0.775059 -4.43072 0
M  V30 11134 C 1044.37 2.65001 -3.51372 0
M  V30 11135 H 1041.49 0.32135 -0.663252 0
M  V30 11136 H 1044.13 0.154065 -1.89374 0
M  V30 11137 H 1042.28 2.30817 -3.12499 0
M  V30 11138 H 1043.95 0.162234 -4.61015 0
M  V30 11139 H 1042.2 0.0831809 -4.3372 0
M  V30 11140 H 1042.87 1.36661 -5.34816 0
M  V30 11141 H 1045.34 2.12566 -3.57708 0
M  V30 11142 H 1044.22 3.17667 -4.47637 0
M  V30 11143 H 1044.48 3.45255 -2.76136 0
M  V30 11144 N 1043.54 1.5137 0.438746 0
M  V30 11145 C 1044.82 1.54508 1.19944 0
M  V30 11146 C 1045.2 0.308525 2.08833 0
M  V30 11147 O 1044.54 -0.706461 2.17305 0
M  V30 11148 C 1044.75 2.85833 2.00251 0
M  V30 11149 C 1046.1 3.37729 2.5734 0
M  V30 11150 O 1047.13 2.87374 2.10463 0
M  V30 11151 O 1045.98 4.25589 3.42836 0
M  V30 11152 H 1043.08 0.621132 0.546007 0
M  V30 11153 H 1045.62 1.63682 0.447931 0
M  V30 11154 H 1044.4 3.67291 1.34955 0
M  V30 11155 H 1044.02 2.79815 2.8247 0
M  V30 11156 N 1045.02 -0.694098 1.41492 0
M  V30 11157 C 1046.26 -1.45493 1.42138 0
M  V30 11158 C 1046.62 -1.92376 0.0302688 0
M  V30 11159 O 1045.91 -1.66723 -0.944142 0
M  V30 11160 C 1046.1 -2.6805 2.36398 0
M  V30 11161 C 1045.93 -2.33157 3.84536 0
M  V30 11162 C 1044.7 -2.2345 4.53209 0
M  V30 11163 C 1046.9 -1.96037 4.75473 0
M  V30 11164 N 1044.88 -1.81457 5.8647 0
M  V30 11165 C 1046.25 -1.64814 5.97693 0
M  V30 11166 C 1048.31 -1.8286 4.63106 0
M  V30 11167 C 1047.01 -1.21738 7.08923 0
M  V30 11168 C 1049.04 -1.41188 5.74299 0
M  V30 11169 C 1048.4 -1.10877 6.95619 0
M  V30 11170 H 1044.5 -0.529635 0.575335 0
M  V30 11171 H 1047.08 -0.802901 1.77374 0
M  V30 11172 H 1045.25 -3.30972 2.03254 0
M  V30 11173 H 1046.99 -3.34531 2.27753 0
M  V30 11174 H 1043.74 -2.41894 4.07166 0
M  V30 11175 H 1044.17 -1.62938 6.571 0
M  V30 11176 H 1048.81 -2.04947 3.69806 0
M  V30 11177 H 1046.53 -0.983947 8.02087 0
M  V30 11178 H 1050.11 -1.3154 5.66735 0
M  V30 11179 H 1048.99 -0.791191 7.80199 0
M  V30 11180 N 1046.49 -1.27344 -0.928501 0
M  V30 11181 C 1047.74 -1.13019 -1.67061 0
M  V30 11182 C 1048.06 0.323614 -1.92904 0
M  V30 11183 O 1049.26 0.587752 -2.65062 0
M  V30 11184 C 1047.72 -1.97471 -3.00887 0
M  V30 11185 C 1047.33 -3.47504 -2.82746 0
M  V30 11186 C 1049.07 -1.91792 -3.78703 0
M  V30 11187 C 1046.98 -4.24158 -4.12122 0
M  V30 11188 H 1045.91 -0.419364 -0.626618 0
M  V30 11189 H 1048.56 -1.51759 -1.03158 0
M  V30 11190 H 1046.94 -1.51576 -3.65843 0
M  V30 11191 H 1048.11 -4.01256 -2.26562 0
M  V30 11192 H 1046.43 -3.54554 -2.18359 0
M  V30 11193 H 1049.03 -2.46339 -4.74575 0
M  V30 11194 H 1049.37 -0.891375 -4.06645 0
M  V30 11195 H 1049.9 -2.35578 -3.20543 0
M  V30 11196 H 1046.64 -5.27333 -3.89359 0
M  V30 11197 H 1046.16 -3.75183 -4.67972 0
M  V30 11198 H 1047.84 -4.33288 -4.80489 0
M  V30 11199 N 1047.97 1.13488 -1.09353 0
M  V30 11200 C 1049.38 1.66299 -0.848609 0
M  V30 11201 C 1049.73 1.86044 0.623051 0
M  V30 11202 O 1048.86 1.57871 1.48005 0
M  V30 11203 C 1049.45 3.02087 -1.53391 0
M  V30 11204 C 1048.01 3.51893 -1.33598 0
M  V30 11205 C 1047.16 2.27154 -1.59048 0
M  V30 11206 H 1050.11 0.974208 -1.25279 0
M  V30 11207 H 1050.13 3.68018 -0.966587 0
M  V30 11208 H 1049.64 2.87684 -2.60498 0
M  V30 11209 H 1047.75 3.715 -0.286045 0
M  V30 11210 H 1047.86 4.32059 -2.0703 0
M  V30 11211 H 1046.22 2.33708 -1.01256 0
M  V30 11212 H 1047.01 2.15317 -2.67383 0
M  V30 11213 O 1049.49 1.01379 1.25716 0
M  V30 11214 H 1050.18 0.672632 1.81646 0
M  V30 END ATOM
M  V30 BEGIN BOND
M  V30 END BOND
M  V30 END CTAB
M  END
$$$$
