drugbank_target|P0C0X8 Cytochrome c2 (DB04147)
 OpenBabel12092120483D

  0  0  0     0  0            999 V3000
M  V30 BEGIN CTAB
M  V30 COUNTS 1867 1887 0 0 0
M  V30 BEGIN ATOM
M  V30 1 H -0.908 1.98254 -0.117106 0
M  V30 2 N 0 1.576 0 0
M  V30 3 C 0.932 2.05273 1.01958 0
M  V30 4 C 1.945 0.970662 1.30698 0
M  V30 5 O 3.134 1.24746 1.27674 0
M  V30 6 C 0.234 2.43771 2.35433 0
M  V30 7 C -0.593 3.74711 2.25633 0
M  V30 8 C -1.534 4.00077 3.41796 0
M  V30 9 O -2.508 4.70743 3.19984 0
M  V30 10 N -1.306 3.47973 4.64645 0
M  V30 11 H 1.459 2.93363 0.613025 0
M  V30 12 H -0.98 1.60812 0.187383 0
M  V30 13 H 1.012 2.57855 3.11918 0
M  V30 14 H -0.418 1.612 2.67831 0
M  V30 15 H -1.198 3.70705 1.34059 0
M  V30 16 H 0.09 4.60554 2.16258 0
M  V30 17 H -0.512 2.90748 4.85265 0
M  V30 18 H -1.955 3.67386 5.38396 0
M  V30 19 N 1.4781 -0.272755 1.55222 0
M  V30 20 C 2.3881 -1.35918 1.91216 0
M  V30 21 C 3.4041 -1.54026 0.809436 0
M  V30 22 O 4.5801 -1.68148 1.10852 0
M  V30 23 C 1.6451 -2.69834 2.17693 0
M  V30 24 C 0.7061 -2.6047 3.41253 0
M  V30 25 C -0.0609 -3.88 3.66458 0
M  V30 26 O 0.1621 -4.88693 2.94169 0
M  V30 27 O -0.9039 -3.88189 4.59992 0
M  V30 28 H 2.9221 -1.0839 2.83699 0
M  V30 29 H 0.5071 -0.471301 1.41771 0
M  V30 30 H 2.3891 -3.49017 2.36147 0
M  V30 31 H 1.0641 -2.97148 1.28392 0
M  V30 32 H -0.0289 -1.79663 3.28134 0
M  V30 33 H 1.3041 -2.38106 4.30774 0
M  V30 34 N 2.9562 -1.48159 -0.537278 0
M  V30 35 C 4.2042 -1.55497 -1.29094 0
M  V30 36 C 4.5252 -0.227454 -1.93669 0
M  V30 37 O 3.7952 0.750386 -1.80959 0
M  V30 38 H 2.3752 -0.572832 -0.47945 0
M  V30 39 H 5.0372 -1.84579 -0.625818 0
M  V30 40 H 4.1332 -2.33216 -2.07405 0
M  V30 41 N 4.4343 0.785586 -1.36625 0
M  V30 42 C 5.7113 1.53198 -1.21613 0
M  V30 43 C 6.0913 2.10187 0.196113 0
M  V30 44 O 5.4393 1.94318 1.20219 0
M  V30 45 C 5.6493 2.62388 -2.30116 0
M  V30 46 C 6.9973 3.30167 -2.66974 0
M  V30 47 O 8.0213 2.72674 -2.29188 0
M  V30 48 O 6.8803 4.34077 -3.32023 0
M  V30 49 H 3.9743 0.677865 -0.473738 0
M  V30 50 H 6.5203 0.823739 -1.48367 0
M  V30 51 H 5.2923 2.18299 -3.24748 0
M  V30 52 H 4.9153 3.40827 -2.0475 0
M  V30 53 N 5.9124 1.20967 1.01018 0
M  V30 54 C 7.3234 1.02319 1.56165 0
M  V30 55 C 7.6744 -0.418546 1.91684 0
M  V30 56 O 6.7994 -1.30096 1.72928 0
M  V30 57 C 7.3944 1.85109 2.8376 0
M  V30 58 C 5.9534 1.70809 3.35412 0
M  V30 59 C 5.1004 1.82643 2.08655 0
M  V30 60 H 8.0514 1.35065 0.833255 0
M  V30 61 H 8.0724 1.35827 3.55431 0
M  V30 62 H 7.5844 2.90035 2.57878 0
M  V30 63 H 5.6854 0.685464 3.66241 0
M  V30 64 H 5.7984 2.52467 4.07182 0
M  V30 65 H 4.1624 1.25896 2.21409 0
M  V30 66 H 4.9454 2.89066 1.85191 0
M  V30 67 N 7.3905 -1.2043 1.01659 0
M  V30 68 C 8.3005 -2.2689 0.596484 0
M  V30 69 C 9.3165 -1.70107 -0.36599 0
M  V30 70 O 10.4925 -2.00117 -0.226942 0
M  V30 71 C 7.5575 -3.4665 -0.0586659 0
M  V30 72 C 6.6185 -4.18662 0.949751 0
M  V30 73 C 5.8515 -5.32705 0.32577 0
M  V30 74 O 6.0745 -5.63656 -0.874509 0
M  V30 75 O 5.0085 -5.92803 1.04249 0
M  V30 76 H 8.8345 -2.65041 1.4828 0
M  V30 77 H 6.4195 -1.27048 0.786082 0
M  V30 78 H 8.3015 -4.19256 -0.424564 0
M  V30 79 H 6.9765 -3.10375 -0.91918 0
M  V30 80 H 5.8835 -3.48229 1.36702 0
M  V30 81 H 7.2165 -4.58878 1.78023 0
M  V30 82 N 8.8686 -0.792821 -1.36206 0
M  V30 83 C 9.8316 -0.199459 -2.2833 0
M  V30 84 C 10.8316 0.605189 -1.48977 0
M  V30 85 O 12.0216 0.425685 -1.68919 0
M  V30 86 C 9.1536 0.723523 -3.33134 0
M  V30 87 H 10.3466 -1.01181 -2.82316 0
M  V30 88 H 7.8996 -0.562485 -1.45828 0
M  V30 89 H 8.6346 1.56008 -2.84309 0
M  V30 90 H 8.4196 0.148436 -3.91819 0
M  V30 91 H 9.9096 1.13344 -4.01924 0
M  V30 92 N 10.3467 1.47872 -0.545128 0
M  V30 93 C 11.5947 2.02093 -0.016553 0
M  V30 94 C 11.9157 1.42305 1.3332 0
M  V30 95 O 11.1857 0.593853 1.86682 0
M  V30 96 H 9.7657 0.746993 -0.00313038 0
M  V30 97 H 12.4277 1.81414 -0.712397 0
M  V30 98 H 11.5237 3.11996 0.0805422 0
M  V30 99 N 11.8248 0.280983 1.55075 0
M  V30 100 C 12.7878 -0.590896 2.21452 0
M  V30 101 C 13.7878 -1.07682 1.19421 0
M  V30 102 O 14.9778 -0.97605 1.44288 0
M  V30 103 C 12.1098 -1.81587 2.88511 0
M  V30 104 H 13.3028 -0.0112554 2.99898 0
M  V30 105 H 10.8558 0.0316438 1.56268 0
M  V30 106 H 11.5908 -2.43587 2.14093 0
M  V30 107 H 11.3758 -1.4753 3.63287 0
M  V30 108 H 12.8658 -2.43575 3.39206 0
M  V30 109 N 13.3029 -1.57598 0.00835791 0
M  V30 110 C 14.2499 -2.08945 -0.980346 0
M  V30 111 C 15.2199 -0.986738 -1.33614 0
M  V30 112 O 16.4049 -1.25968 -1.43306 0
M  V30 113 C 13.5449 -2.60425 -2.26435 0
M  V30 114 C 12.6579 -3.84628 -1.96685 0
M  V30 115 C 11.7929 -4.24579 -3.19228 0
M  V30 116 C 10.8319 -5.41596 -2.85202 0
M  V30 117 N 9.9689 -5.768 -4.00307 0
M  V30 118 H 14.8089 -2.93148 -0.535551 0
M  V30 119 H 12.3459 -1.44912 -0.252776 0
M  V30 120 H 14.3039 -2.88354 -3.01509 0
M  V30 121 H 12.9339 -1.79083 -2.68568 0
M  V30 122 H 11.9859 -3.63556 -1.11942 0
M  V30 123 H 13.2979 -4.69796 -1.67611 0
M  V30 124 H 12.4519 -4.53834 -4.02641 0
M  V30 125 H 11.1909 -3.38137 -3.51447 0
M  V30 126 H 10.1959 -5.12056 -2.00198 0
M  V30 127 H 11.4209 -6.29721 -2.54222 0
M  V30 128 H 9.3669 -4.93316 -4.32407 0
M  V30 129 H 9.2839 -6.5656 -3.74786 0
M  V30 130 H 10.5519 -6.10652 -4.84484 0
M  V30 131 N 14.781 0.264519 -1.55364 0
M  V30 132 C 15.744 1.31046 -1.88042 0
M  V30 133 C 16.744 1.41943 -0.755569 0
M  V30 134 O 17.934 1.40947 -1.02369 0
M  V30 135 C 15.066 2.69067 -2.09323 0
M  V30 136 H 16.259 1.03297 -2.81549 0
M  V30 137 H 13.812 0.502989 -1.47986 0
M  V30 138 H 14.547 3.01982 -1.18226 0
M  V30 139 H 14.332 2.62542 -2.91229 0
M  V30 140 H 15.822 3.44623 -2.35848 0
M  V30 141 N 16.2591 1.48442 0.529413 0
M  V30 142 C 17.5061 1.56488 1.28521 0
M  V30 143 C 17.8341 0.239042 1.93025 0
M  V30 144 O 17.0891 -0.770713 1.79885 0
M  V30 145 C 17.3881 2.6523 2.39558 0
M  V30 146 C 17.0541 4.07648 1.92702 0
M  V30 147 C 15.7161 4.46411 1.79641 0
M  V30 148 C 18.0681 4.96896 1.573 0
M  V30 149 C 15.3961 5.72226 1.29514 0
M  V30 150 C 17.7481 6.23202 1.08636 0
M  V30 151 C 16.4121 6.60821 0.941919 0
M  V30 152 H 15.6821 0.572631 0.470292 0
M  V30 153 H 18.3291 1.82161 0.59072 0
M  V30 154 H 16.6341 2.33419 3.14679 0
M  V30 155 H 18.3311 2.68671 2.97686 0
M  V30 156 H 14.9211 3.77036 2.03819 0
M  V30 157 H 19.1051 4.67626 1.66251 0
M  V30 158 H 14.3611 6.00097 1.17019 0
M  V30 159 H 18.5351 6.91753 0.803136 0
M  V30 160 H 16.1621 7.58198 0.5513 0
M  V30 161 N 17.7372 -0.778329 1.37039 0
M  V30 162 C 18.6852 -1.91278 1.32345 0
M  V30 163 C 19.6792 -1.68051 0.213331 0
M  V30 164 O 20.8852 -1.75922 0.38098 0
M  V30 165 H 17.2602 -0.628909 0.412283 0
M  V30 166 H 19.2312 -1.92355 2.28127 0
M  V30 167 C 17.9802 -3.28455 1.14073 0
M  V30 168 H 17.3032 -3.46901 1.98746 0
M  V30 169 H 18.7432 -4.08152 1.14837 0
M  V30 170 C 17.2022 -3.36548 -0.154015 0
M  V30 171 O 17.7322 -3.85186 -1.13993 0
M  V30 172 N 15.9382 -2.89894 -0.202475 0
M  V30 173 H 15.4852 -2.50504 0.600476 0
M  V30 174 H 15.4432 -2.9569 -1.06841 0
M  V30 175 N 19.2153 -1.21501 -1.00376 0
M  V30 176 C 20.1473 -0.933174 -2.09343 0
M  V30 177 C 21.1603 0.0840896 -1.62583 0
M  V30 178 O 22.3493 -0.148563 -1.77881 0
M  V30 179 C 19.4493 -0.379869 -3.36764 0
M  V30 180 C 18.6223 -1.45176 -4.12605 0
M  V30 181 C 17.6813 -0.907476 -5.18316 0
M  V30 182 O 16.7073 -1.5912 -5.46507 0
M  V30 183 N 17.9093 0.276649 -5.7984 0
M  V30 184 H 20.6743 -1.87124 -2.34104 0
M  V30 185 H 18.2353 -1.12043 -1.16867 0
M  V30 186 H 20.2273 -0.00131488 -4.047 0
M  V30 187 H 18.7973 0.463048 -3.09151 0
M  V30 188 H 18.0173 -2.00411 -3.39454 0
M  V30 189 H 19.3053 -2.17328 -4.6005 0
M  V30 190 H 18.7033 0.849147 -5.59291 0
M  V30 191 H 17.2603 0.596702 -6.49063 0
M  V30 192 N 20.6934 1.19889 -1.02296 0
M  V30 193 C 21.9334 1.91125 -0.724602 0
M  V30 194 C 22.2974 1.77464 0.732835 0
M  V30 195 O 23.4984 2.43241 1.144 0
M  V30 196 C 21.7694 3.38187 -1.15604 0
M  V30 197 S 23.3284 4.27702 -0.980621 0
M  V30 198 H 20.1464 0.66018 -0.263976 0
M  V30 199 H 22.7484 1.44978 -1.31155 0
M  V30 200 H 21.4524 3.45653 -2.21251 0
M  V30 201 H 20.9834 3.89363 -0.562131 0
M  V30 202 H 22.9984 4.96073 0.112225 0
M  V30 203 N 22.1715 0.800033 1.35784 0
M  V30 204 C 23.1035 0.163596 2.28615 0
M  V30 205 C 24.1165 -0.633317 1.49976 0
M  V30 206 O 25.3055 -0.466754 1.72289 0
M  V30 207 C 22.4055 -0.790958 3.29541 0
M  V30 208 C 21.5785 -0.0418255 4.3738 0
M  V30 209 C 20.6375 -0.91389 5.18203 0
M  V30 210 O 19.6635 -0.367234 5.68014 0
M  V30 211 N 20.8655 -2.23682 5.35674 0
M  V30 212 H 23.6305 0.96105 2.83873 0
M  V30 213 H 21.1915 0.654894 1.48063 0
M  V30 214 H 23.1835 -1.37844 3.80501 0
M  V30 215 H 21.7535 -1.48925 2.74846 0
M  V30 216 H 20.9735 0.726813 3.87442 0
M  V30 217 H 22.2615 0.474719 5.06581 0
M  V30 218 H 21.6595 -2.70497 4.96838 0
M  V30 219 H 20.2165 -2.77369 5.89839 0
M  V30 220 N 23.6496 -1.47581 0.552962 0
M  V30 221 C 24.8776 -2.06875 0.0320556 0
M  V30 222 C 25.2926 -1.40625 -1.25976 0
M  V30 223 O 24.6496 -0.501349 -1.75479 0
M  V30 224 C 24.7006 -3.61092 -0.17167 0
M  V30 225 O 24.4216 -4.24858 1.06899 0
M  V30 226 C 25.9226 -4.37242 -0.730344 0
M  V30 227 H 23.1426 -0.669561 0.043915 0
M  V30 228 H 25.6866 -1.89646 0.765163 0
M  V30 229 H 23.8416 -3.7785 -0.854894 0
M  V30 230 H 24.2556 -5.17334 0.864059 0
M  V30 231 H 25.7296 -5.45842 -0.822203 0
M  V30 232 H 26.2066 -4.03235 -1.74064 0
M  V30 233 H 26.8126 -4.25219 -0.0829543 0
M  V30 234 N 25.1277 -0.289203 -1.54924 0
M  V30 235 C 26.3677 0.324536 -2.01807 0
M  V30 236 C 26.7317 1.5199 -1.17316 0
M  V30 237 O 27.9327 2.20422 -1.53843 0
M  V30 238 C 26.2037 0.683578 -3.50802 0
M  V30 239 S 27.7627 1.28185 -4.19659 0
M  V30 240 H 24.5807 0.100236 -0.703899 0
M  V30 241 H 27.1827 -0.414325 -1.91059 0
M  V30 242 H 25.8867 -0.195073 -4.09936 0
M  V30 243 H 25.4177 1.45354 -3.65562 0
M  V30 244 H 27.4327 2.57006 -4.24456 0
M  V30 245 N 26.6058 1.57591 -0.0167156 0
M  V30 246 C 27.5558 2.05953 0.978137 0
M  V30 247 C 28.5398 0.957532 1.29306 0
M  V30 248 O 29.7318 1.22119 1.28125 0
M  V30 249 C 26.8608 2.58006 2.26468 0
M  V30 250 C 25.9468 3.75113 1.97867 0
M  V30 251 N 26.3378 4.86187 1.39486 0
M  V30 252 C 24.6358 3.83363 2.27924 0
M  V30 253 C 25.3368 5.67502 1.27735 0
M  V30 254 N 24.3128 5.14023 1.76866 0
M  V30 255 H 28.1148 2.89236 0.521522 0
M  V30 256 H 25.6288 1.61301 0.188596 0
M  V30 257 H 27.6258 2.90937 2.98599 0
M  V30 258 H 26.2858 1.76148 2.72767 0
M  V30 259 H 27.2968 5.06695 1.07147 0
M  V30 260 H 23.9738 3.1239 2.76982 0
M  V30 261 H 25.3638 6.66791 0.826978 0
M  V30 262 N 28.0839 -0.256276 1.55502 0
M  V30 263 C 29.3299 -0.987079 1.77157 0
M  V30 264 C 29.6629 -1.85327 0.580315 0
M  V30 265 O 28.9379 -1.89874 -0.421686 0
M  V30 266 C 29.2209 -1.85553 3.08613 0
M  V30 267 C 29.0739 -1.01816 4.38125 0
M  V30 268 C 30.3929 -2.8397 3.36228 0
M  V30 269 H 27.5119 -0.357428 0.644526 0
M  V30 270 H 30.1539 -0.258239 1.88237 0
M  V30 271 H 28.3039 -2.47695 2.99298 0
M  V30 272 H 29.9759 -0.416159 4.59419 0
M  V30 273 H 28.2189 -0.322178 4.32602 0
M  V30 274 H 28.8899 -1.65939 5.26468 0
M  V30 275 H 31.3659 -2.31964 3.45445 0
M  V30 276 H 30.2419 -3.41864 4.29442 0
M  V30 277 H 30.5029 -3.59955 2.56681 0
M  V30 278 N 29.562 -1.4872 -0.521534 0
M  V30 279 C 30.811 -1.56419 -1.27341 0
M  V30 280 C 31.124 -0.246805 -1.94037 0
M  V30 281 O 32.33 -0.202122 -2.70747 0
M  V30 282 C 30.786 -2.75896 -2.31105 0
M  V30 283 C 30.394 -4.14311 -1.70441 0
M  V30 284 C 32.138 -2.92913 -3.07249 0
M  V30 285 C 30.045 -5.25038 -2.72194 0
M  V30 286 H 28.975 -0.582344 -0.478949 0
M  V30 287 H 31.626 -1.75071 -0.549779 0
M  V30 288 H 30.008 -2.50697 -3.06541 0
M  V30 289 H 31.182 -4.49564 -1.01136 0
M  V30 290 H 29.497 -4.02482 -1.06759 0
M  V30 291 H 32.094 -3.72805 -3.83302 0
M  V30 292 H 32.437 -2.02689 -3.63625 0
M  V30 293 H 32.97 -3.18054 -2.38928 0
M  V30 294 H 29.709 -6.17255 -2.20627 0
M  V30 295 H 29.229 -4.94263 -3.39801 0
M  V30 296 H 30.908 -5.53508 -3.35019 0
M  V30 297 N 31.0401 0.771051 -1.3745 0
M  V30 298 C 32.2861 1.5319 -1.32894 0
M  V30 299 C 32.6191 1.94008 0.0862511 0
M  V30 300 O 31.8941 1.64124 1.04373 0
M  V30 301 C 32.1771 2.79648 -2.26868 0
M  V30 302 C 32.0301 2.45079 -3.77169 0
M  V30 303 C 33.3491 3.81583 -2.19277 0
M  V30 304 H 30.4681 0.555744 -0.484064 0
M  V30 305 H 33.1101 0.884492 -1.68157 0
M  V30 306 H 31.2601 3.34891 -1.96926 0
M  V30 307 H 32.9321 1.95745 -4.1771 0
M  V30 308 H 31.1751 1.77767 -3.95704 0
M  V30 309 H 31.8461 3.35478 -4.38359 0
M  V30 310 H 34.3221 3.35835 -2.45671 0
M  V30 311 H 33.1981 4.67787 -2.87171 0
M  V30 312 H 33.4591 4.25897 -1.18592 0
M  V30 313 N 32.5182 1.22032 0.997298 0
M  V30 314 C 33.7952 0.950823 1.70935 0
M  V30 315 C 34.1752 -0.535292 2.042 0
M  V30 316 O 33.5232 -1.50217 1.72183 0
M  V30 317 C 33.7332 1.84386 2.96315 0
M  V30 318 C 35.0812 2.09732 3.69185 0
M  V30 319 O 36.1052 1.81798 3.06314 0
M  V30 320 O 34.9642 2.57018 4.82291 0
M  V30 321 H 32.0582 0.357204 0.745878 0
M  V30 322 H 34.6042 1.32997 1.05404 0
M  V30 323 H 33.3762 2.84928 2.68201 0
M  V30 324 H 32.9992 1.46602 3.69586 0
M  V30 325 N 33.9963 -1.19345 1.0293 0
M  V30 326 C 35.2733 -1.84811 0.640642 0
M  V30 327 C 35.6533 -1.91855 -0.88062 0
M  V30 328 O 35.0013 -1.43587 -1.7775 0
M  V30 329 C 35.2113 -3.23755 1.30321 0
M  V30 330 C 36.5593 -3.99912 1.42673 0
M  V30 331 O 37.5833 -3.33155 1.26041 0
M  V30 332 O 36.4423 -5.19494 1.6967 0
M  V30 333 H 33.5363 -0.796443 0.222726 0
M  V30 334 H 36.0823 -1.26831 1.12748 0
M  V30 335 H 34.8543 -3.13466 2.34211 0
M  V30 336 H 34.4773 -3.89381 0.804261 0
M  V30 337 N 35.4744 -0.807222 -1.35358 0
M  V30 338 C 36.6994 -0.399309 -2.0352 0
M  V30 339 C 37.1244 0.981986 -1.60433 0
M  V30 340 O 36.4824 1.63601 -0.781299 0
M  V30 341 C 36.5304 -0.491552 -3.57234 0
M  V30 342 O 35.6344 0.494754 -4.09421 0
M  V30 343 H 34.9754 -0.166682 -0.642739 0
M  V30 344 H 37.5054 -1.09328 -1.72941 0
M  V30 345 H 37.5154 -0.361588 -4.06395 0
M  V30 346 H 36.1904 -1.49907 -3.87944 0
M  V30 347 H 34.7674 0.324977 -3.71481 0
M  V30 348 N 36.9525 1.47285 -0.560781 0
M  V30 349 C 38.2005 2.02064 -0.0379868 0
M  V30 350 C 38.5215 1.43711 1.31803 0
M  V30 351 O 37.7915 0.61362 1.86042 0
M  V30 352 H 36.3715 0.746918 -0.0110531 0
M  V30 353 H 39.0335 1.80648 -0.731598 0
M  V30 354 H 38.1295 3.12064 0.0474463 0
M  V30 355 N 38.4306 0.297415 1.54768 0
M  V30 356 C 39.6586 -0.315623 2.04478 0
M  V30 357 C 40.0736 -1.47792 1.17486 0
M  V30 358 O 39.4306 -1.81404 0.19971 0
M  V30 359 C 39.4816 -0.7753 3.53088 0
M  V30 360 O 39.2026 0.340732 4.36773 0
M  V30 361 C 40.7036 -1.45386 4.18781 0
M  V30 362 H 37.9236 -0.0690887 0.667434 0
M  V30 363 H 40.4676 0.436003 1.99798 0
M  V30 364 H 38.6226 -1.47696 3.58141 0
M  V30 365 H 39.0366 -0.0165035 5.24497 0
M  V30 366 H 40.5106 -1.72669 5.24299 0
M  V30 367 H 40.9876 -2.39275 3.68299 0
M  V30 368 H 41.5936 -0.795475 4.17795 0
M  V30 369 N 39.9087 -1.5758 0.0250728 0
M  V30 370 C 41.1367 -1.9593 -0.664747 0
M  V30 371 C 41.5517 -0.901352 -1.65895 0
M  V30 372 O 40.9087 0.117255 -1.82123 0
M  V30 373 C 40.9597 -3.34342 -1.37468 0
M  V30 374 O 40.6807 -4.36079 -0.420324 0
M  V30 375 C 42.1817 -3.873 -2.1567 0
M  V30 376 H 39.4017 -0.645405 -0.183557 0
M  V30 377 H 41.9457 -2.04329 0.0836372 0
M  V30 378 H 40.1007 -3.27175 -2.0745 0
M  V30 379 H 40.5147 -5.16297 -0.923991 0
M  V30 380 H 41.9887 -4.86504 -2.60803 0
M  V30 381 H 42.4657 -3.21331 -2.99405 0
M  V30 382 H 43.0717 -3.97723 -1.50654 0
M  V30 383 N 41.3868 0.248026 -1.55636 0
M  V30 384 C 42.6358 0.974134 -1.76617 0
M  V30 385 C 42.9488 1.86528 -0.588796 0
M  V30 386 O 44.1548 2.62805 -0.681594 0
M  V30 387 C 42.6108 1.78213 -3.12679 0
M  V30 388 C 42.2188 0.93843 -4.38061 0
M  V30 389 C 43.9628 2.50104 -3.42999 0
M  V30 390 C 41.8698 1.74225 -5.65155 0
M  V30 391 H 40.7998 0.36745 -0.658405 0
M  V30 392 H 43.4508 0.22884 -1.82067 0
M  V30 393 H 41.8328 2.56933 -3.01333 0
M  V30 394 H 43.0068 0.193635 -4.60393 0
M  V30 395 H 41.3218 0.332905 -4.15067 0
M  V30 396 H 43.9188 3.10694 -4.3517 0
M  V30 397 H 44.2618 3.21662 -2.64271 0
M  V30 398 H 44.7948 1.78395 -3.55556 0
M  V30 399 H 41.5338 1.07043 -6.46701 0
M  V30 400 H 41.0538 2.46235 -5.46926 0
M  V30 401 H 42.7328 2.30967 -6.0437 0
M  V30 402 N 42.8649 1.48995 0.513639 0
M  V30 403 C 43.8279 1.64229 1.59879 0
M  V30 404 C 44.8279 0.514696 1.5234 0
M  V30 405 O 46.0179 0.78087 1.55718 0
M  V30 406 C 43.1499 1.62783 2.99524 0
M  V30 407 H 44.3429 2.61004 1.47705 0
M  V30 408 H 41.8959 1.37837 0.736936 0
M  V30 409 H 42.6309 0.675461 3.17188 0
M  V30 410 H 42.4159 2.4466 3.06404 0
M  V30 411 H 43.9059 1.76669 3.78388 0
M  V30 412 N 44.343 -0.763751 1.37857 0
M  V30 413 C 45.591 -1.51957 1.33243 0
M  V30 414 C 45.912 -1.94835 -0.0801709 0
M  V30 415 O 45.182 -1.66894 -1.02582 0
M  V30 416 H 43.762 -0.563626 0.49024 0
M  V30 417 H 46.424 -0.908504 1.7243 0
M  V30 418 H 45.52 -2.41523 1.97669 0
M  V30 419 N 45.8211 -1.22559 -0.990812 0
M  V30 420 C 47.2371 -0.985996 -1.255 0
M  V30 421 C 47.4371 0.319173 -1.98956 0
M  V30 422 O 46.4931 1.04127 -2.3003 0
M  V30 423 C 47.8061 -2.18607 -2.06474 0
M  V30 424 C 49.3541 -2.22985 -2.19651 0
M  V30 425 C 49.8291 -3.4255 -3.04012 0
M  V30 426 N 51.3201 -3.42725 -3.11599 0
M  V30 427 C 52.0551 -4.31892 -3.7717 0
M  V30 428 N 51.5511 -5.31279 -4.44651 0
M  V30 429 N 53.3441 -4.19662 -3.73952 0
M  V30 430 H 45.4951 -2.06469 -0.49841 0
M  V30 431 H 47.7581 -0.904853 -0.282747 0
M  V30 432 H 47.4641 -3.13267 -1.59865 0
M  V30 433 H 47.3381 -2.18838 -3.07229 0
M  V30 434 H 49.7251 -1.28871 -2.65474 0
M  V30 435 H 49.8061 -2.26791 -1.18319 0
M  V30 436 H 49.4501 -4.36965 -2.58889 0
M  V30 437 H 49.3801 -3.35984 -4.0549 0
M  V30 438 H 51.8711 -2.70807 -2.63575 0
M  V30 439 H 52.1841 -5.95593 -4.92431 0
M  V30 440 H 50.5291 -5.3519 -4.43392 0
M  V30 441 H 53.7201 -3.41268 -3.20396 0
M  V30 442 H 53.8931 -4.89358 -4.24774 0
M  V30 443 N 47.2992 1.18797 -1.03562 0
M  V30 444 C 48.2472 2.24297 -0.615905 0
M  V30 445 C 49.2412 1.65643 0.354808 0
M  V30 446 O 50.4472 1.78618 0.22265 0
M  V30 447 H 46.8222 0.729909 -0.180934 0
M  V30 448 H 48.7932 2.5701 -1.5162 0
M  V30 449 C 47.5422 3.47698 0.0104735 0
M  V30 450 H 46.8652 3.93125 -0.727509 0
M  V30 451 H 48.3052 4.23159 0.266995 0
M  V30 452 C 46.7642 3.12489 1.25905 0
M  V30 453 O 47.2942 3.25761 2.35038 0
M  V30 454 N 45.5002 2.6686 1.15039 0
M  V30 455 H 45.0472 2.56261 0.262328 0
M  V30 456 H 45.0052 2.43674 1.98672 0
M  V30 457 N 48.7773 0.814389 1.34928 0
M  V30 458 C 49.7403 0.235759 2.27984 0
M  V30 459 C 50.7403 -0.581412 1.49921 0
M  V30 460 O 51.9303 -0.398758 1.69575 0
M  V30 461 C 49.0623 -0.670433 3.34242 0
M  V30 462 H 50.2553 1.05659 2.80671 0
M  V30 463 H 47.8083 0.585614 1.44915 0
M  V30 464 H 48.5433 -1.51466 2.86755 0
M  V30 465 H 48.3283 -0.0860822 3.92005 0
M  V30 466 H 49.8183 -1.06935 4.03676 0
M  V30 467 N 50.2554 -1.46986 0.568584 0
M  V30 468 C 51.2024 -2.30153 -0.172707 0
M  V30 469 C 52.1724 -1.39759 -0.897586 0
M  V30 470 O 53.3574 -1.68716 -0.891044 0
M  V30 471 C 50.4974 -3.23952 -1.1895 0
M  V30 472 C 49.6104 -4.29441 -0.469517 0
M  V30 473 C 48.7454 -5.1038 -1.47259 0
M  V30 474 C 47.7844 -6.07632 -0.738225 0
M  V30 475 N 46.9214 -6.8149 -1.68868 0
M  V30 476 H 51.7614 -2.93019 0.542596 0
M  V30 477 H 49.2984 -1.44422 0.279401 0
M  V30 478 H 51.2564 -3.76767 -1.79173 0
M  V30 479 H 49.8864 -2.62926 -1.87269 0
M  V30 480 H 48.9384 -3.79594 0.247467 0
M  V30 481 H 50.2504 -4.98689 0.105241 0
M  V30 482 H 49.4044 -5.67402 -2.14803 0
M  V30 483 H 48.1434 -4.4106 -2.08128 0
M  V30 484 H 47.1484 -5.49778 -0.0489293 0
M  V30 485 H 48.3734 -6.78966 -0.135129 0
M  V30 486 H 46.3194 -6.14891 -2.28573 0
M  V30 487 H 46.2364 -7.46948 -1.16636 0
M  V30 488 H 47.5044 -7.43078 -2.3549 0
M  V30 489 N 51.7335 -0.305618 -1.54608 0
M  V30 490 C 52.9615 0.304775 -2.04643 0
M  V30 491 C 53.3765 1.47167 -1.18268 0
M  V30 492 O 52.7335 1.81296 -0.209328 0
M  V30 493 C 52.7845 0.756564 -3.53495 0
M  V30 494 O 52.5055 -0.36389 -4.36586 0
M  V30 495 C 54.0065 1.43163 -4.19546 0
M  V30 496 H 51.2265 0.0655481 -0.667791 0
M  V30 497 H 53.7705 -0.446592 -1.99564 0
M  V30 498 H 51.9255 1.45794 -3.58919 0
M  V30 499 H 52.3395 -0.0113121 -5.24499 0
M  V30 500 H 53.8135 1.69886 -5.25207 0
M  V30 501 H 54.2905 2.37318 -3.69563 0
M  V30 502 H 54.8965 0.773307 -4.18211 0
M  V30 503 N 53.2116 1.57565 -0.0334293 0
M  V30 504 C 54.4596 1.91598 0.642999 0
M  V30 505 C 54.7806 0.910847 1.7242 0
M  V30 506 O 54.0506 -0.0469931 1.95844 0
M  V30 507 H 52.6306 0.707228 0.240496 0
M  V30 508 H 55.2926 1.94726 -0.0822488 0
M  V30 509 H 54.3886 2.92336 1.09298 0
M  V30 510 N 54.6897 -0.239769 1.55765 0
M  V30 511 C 56.1007 -0.808263 1.68297 0
M  V30 512 C 56.4517 -1.85736 0.632181 0
M  V30 513 O 55.5767 -2.15277 -0.220204 0
M  V30 514 C 56.1717 -1.47284 3.05111 0
M  V30 515 C 54.7307 -1.98895 3.19559 0
M  V30 516 C 53.8777 -0.842575 2.64189 0
M  V30 517 H 56.8287 -0.0154422 1.58692 0
M  V30 518 H 56.8497 -2.34111 2.99954 0
M  V30 519 H 56.3617 -0.709053 3.81568 0
M  V30 520 H 54.4627 -2.78132 2.47938 0
M  V30 521 H 54.5757 -2.18143 4.26556 0
M  V30 522 H 52.9397 -1.24501 2.22197 0
M  V30 523 H 53.7227 -0.0917552 3.43177 0
M  V30 524 N 56.1678 -1.49265 -0.50573 0
M  V30 525 C 57.1158 -1.66065 -1.62866 0
M  V30 526 C 58.1098 -0.526636 -1.61006 0
M  V30 527 O 59.3158 -0.706126 -1.65571 0
M  V30 528 H 55.6908 -0.52356 -0.539805 0
M  V30 529 H 57.6618 -2.60329 -1.45848 0
M  V30 530 C 56.4108 -1.74008 -3.01026 0
M  V30 531 H 55.7338 -2.6064 -3.03161 0
M  V30 532 H 57.1738 -1.89798 -3.79147 0
M  V30 533 C 55.6328 -0.483868 -3.33407 0
M  V30 534 O 56.1628 0.392548 -3.99777 0
M  V30 535 N 54.3688 -0.348236 -2.88506 0
M  V30 536 H 53.9158 -1.06242 -2.34671 0
M  V30 537 H 53.8738 0.491204 -3.10539 0
M  V30 538 N 57.6459 0.756429 -1.3826 0
M  V30 539 C 58.5759 1.88374 -1.37976 0
M  V30 540 C 59.5569 1.68311 -0.246082 0
M  V30 541 O 60.7419 1.88944 -0.44874 0
M  V30 542 C 57.8719 3.25864 -1.20125 0
M  V30 543 C 56.8259 3.60523 -2.30666 0
M  V30 544 C 56.1519 4.9672 -1.97923 0
M  V30 545 C 57.4519 3.65692 -3.72916 0
M  V30 546 H 59.1459 1.88869 -2.32312 0
M  V30 547 H 56.6919 0.907272 -1.11824 0
M  V30 548 H 58.6449 4.0438 -1.18552 0
M  V30 549 H 57.3689 3.25841 -0.222498 0
M  V30 550 H 56.0279 2.84324 -2.3142 0
M  V30 551 H 55.6759 4.93253 -0.985393 0
M  V30 552 H 55.3759 5.20878 -2.71955 0
M  V30 553 H 56.8999 5.77618 -1.97964 0
M  V30 554 H 58.3139 4.34328 -3.74208 0
M  V30 555 H 56.7109 4.01358 -4.4613 0
M  V30 556 H 57.7809 2.65987 -4.05436 0
M  V30 557 N 59.124 1.23083 0.984299 0
M  V30 558 C 60.354 1.08556 1.75781 0
M  V30 559 C 60.762 -0.366171 1.85623 0
M  V30 560 O 60.105 -1.26524 1.33182 0
M  V30 561 C 60.167 1.63208 3.20318 0
M  V30 562 C 59.831 3.11922 3.33997 0
M  V30 563 C 60.828 4.09259 3.2063 0
M  V30 564 C 58.513 3.51552 3.58771 0
M  V30 565 C 60.507 5.4421 3.31835 0
M  V30 566 C 58.194 4.86649 3.69616 0
M  V30 567 C 59.192 5.82787 3.56157 0
M  V30 568 O 58.88 7.15431 3.66626 0
M  V30 569 H 58.612 0.380713 0.5586 0
M  V30 570 H 61.166 1.63321 1.2456 0
M  V30 571 H 59.396 1.0286 3.72769 0
M  V30 572 H 61.085 1.44216 3.79416 0
M  V30 573 H 61.851 3.79984 3.01392 0
M  V30 574 H 57.73 2.77239 3.6832 0
M  V30 575 H 61.274 6.1923 3.21247 0
M  V30 576 H 57.171 5.15601 3.88363 0
M  V30 577 H 57.939 7.23127 3.83445 0
M  V30 578 N 60.6021 -1.18246 1.0419 0
M  V30 579 C 61.8501 -1.87886 0.744543 0
M  V30 580 C 62.1711 -1.8082 -0.730006 0
M  V30 581 O 61.4411 -1.22736 -1.52685 0
M  V30 582 H 60.0211 -0.695556 0.272417 0
M  V30 583 H 62.6831 -1.43494 1.31892 0
M  V30 584 H 61.7791 -2.9389 1.05049 0
M  V30 585 N 62.0802 -0.821533 -1.34494 0
M  V30 586 C 63.3262 -0.409552 -1.98622 0
M  V30 587 C 63.6592 1.0244 -1.64984 0
M  V30 588 O 62.9342 1.71325 -0.920758 0
M  V30 589 C 63.2172 -0.610458 -3.54888 0
M  V30 590 C 63.0702 -2.09043 -3.98273 0
M  V30 591 C 64.3892 -0.0455379 -4.40076 0
M  V30 592 H 61.5082 -0.15028 -0.721516 0
M  V30 593 H 64.1502 -1.03384 -1.59411 0
M  V30 594 H 62.3002 -0.079044 -3.8842 0
M  V30 595 H 63.9722 -2.68537 -3.75081 0
M  V30 596 H 62.2152 -2.58139 -3.48635 0
M  V30 597 H 62.8862 -2.18182 -5.07051 0
M  V30 598 H 65.3622 -0.499557 -4.1309 0
M  V30 599 H 64.2382 -0.215922 -5.48475 0
M  V30 600 H 64.4992 1.04939 -4.29465 0
M  V30 601 N 63.5583 1.46682 -0.576371 0
M  V30 602 C 64.8043 2.02712 -0.0596221 0
M  V30 603 C 65.1373 1.44765 1.29448 0
M  V30 604 O 64.4123 0.610355 1.84675 0
M  V30 605 C 64.6953 3.60098 0.0129503 0
M  V30 606 C 64.5483 4.28441 -1.3696 0
M  V30 607 C 65.8673 4.34224 0.71678 0
M  V30 608 H 62.9863 0.736637 -0.0231407 0
M  V30 609 H 65.6283 1.74898 -0.742351 0
M  V30 610 H 63.7783 3.83926 0.594378 0
M  V30 611 H 65.4503 4.15896 -1.9957 0
M  V30 612 H 63.6933 3.8805 -1.93907 0
M  V30 613 H 64.3643 5.3716 -1.27135 0
M  V30 614 H 66.8403 4.15503 0.222908 0
M  V30 615 H 65.7163 5.43936 0.73657 0
M  V30 616 H 65.9773 4.04823 1.77682 0
M  V30 617 N 65.0364 0.313813 1.54444 0
M  V30 618 C 66.2844 -0.291099 1.99993 0
M  V30 619 C 66.6054 -1.53418 1.20366 0
M  V30 620 O 65.8754 -1.93544 0.302927 0
M  V30 621 H 64.4554 -0.110552 0.738774 0
M  V30 622 H 67.1174 0.428106 1.9014 0
M  V30 623 H 66.2134 -0.554268 3.07139 0
M  V30 624 N 66.5145 -1.57545 0.0417849 0
M  V30 625 C 67.9305 -1.56467 -0.314704 0
M  V30 626 C 68.1305 -1.04859 -1.72066 0
M  V30 627 O 67.1865 -0.700983 -2.42575 0
M  V30 628 C 68.4995 -3.00317 -0.15174 0
M  V30 629 C 70.0475 -3.12201 -0.223553 0
M  V30 630 C 70.5225 -4.57913 -0.0892295 0
M  V30 631 N 72.0135 -4.6297 -0.145808 0
M  V30 632 C 72.7485 -5.73362 -0.0658459 0
M  V30 633 N 72.2445 -6.92769 0.0659282 0
M  V30 634 N 74.0375 -5.6197 -0.12075 0
M  V30 635 H 66.1885 -1.89416 0.961014 0
M  V30 636 H 68.4515 -0.871862 0.372237 0
M  V30 637 H 68.1575 -3.42073 0.817254 0
M  V30 638 H 68.0315 -3.65892 -0.916692 0
M  V30 639 H 70.4185 -2.70349 -1.18301 0
M  V30 640 H 70.4995 -2.49323 0.571994 0
M  V30 641 H 70.1435 -5.00448 0.866867 0
M  V30 642 H 70.0735 -5.18786 -0.903802 0
M  V30 643 H 72.5645 -3.7709 -0.247286 0
M  V30 644 H 72.8775 -7.72707 0.119905 0
M  V30 645 H 71.2225 -6.94927 0.100885 0
M  V30 646 H 74.4135 -4.67572 -0.222187 0
M  V30 647 H 74.5865 -6.47977 -0.0549735 0
M  V30 648 N 67.9926 0.231505 -1.5589 0
M  V30 649 C 69.2206 0.974505 -1.82513 0
M  V30 650 C 69.6356 1.78344 -0.619591 0
M  V30 651 O 68.9926 1.77792 0.411848 0
M  V30 652 C 69.0436 1.90007 -3.07538 0
M  V30 653 O 68.7646 1.12385 -4.2344 0
M  V30 654 C 70.2656 2.75779 -3.47075 0
M  V30 655 H 67.4856 0.286065 -0.606966 0
M  V30 656 H 70.0296 0.249739 -2.02969 0
M  V30 657 H 68.1846 2.57891 -2.89086 0
M  V30 658 H 68.5986 1.75125 -4.944 0
M  V30 659 H 70.0726 3.36443 -4.37619 0
M  V30 660 H 70.5496 3.47672 -2.68367 0
M  V30 661 H 71.1556 2.13323 -3.67931 0
M  V30 662 N 69.4707 1.49531 0.497807 0
M  V30 663 C 70.4337 1.65916 1.58128 0
M  V30 664 C 71.4337 0.530825 1.51786 0
M  V30 665 O 72.6237 0.797342 1.54881 0
M  V30 666 C 69.7557 1.65951 2.9778 0
M  V30 667 H 70.9487 2.62556 1.44929 0
M  V30 668 H 68.5017 1.38611 0.722275 0
M  V30 669 H 69.2367 0.709065 3.16453 0
M  V30 670 H 69.0217 2.47897 3.03792 0
M  V30 671 H 70.5117 1.80673 3.76493 0
M  V30 672 N 70.9488 -0.749086 1.3866 0
M  V30 673 C 72.1968 -1.50535 1.34847 0
M  V30 674 C 72.5178 -1.94909 -0.0595016 0
M  V30 675 O 71.7878 -1.67973 -1.00806 0
M  V30 676 H 70.3678 -0.558395 0.49619 0
M  V30 677 H 73.0298 -0.890165 1.73384 0
M  V30 678 H 72.1258 -2.39413 2.00219 0
M  V30 679 N 72.4269 -1.23603 -0.977757 0
M  V30 680 C 73.6549 -1.09646 -1.75458 0
M  V30 681 C 74.0699 0.351859 -1.85492 0
M  V30 682 O 73.4269 1.24327 -1.336 0
M  V30 683 C 73.4779 -1.71895 -3.18016 0
M  V30 684 O 73.1989 -3.11063 -3.08498 0
M  V30 685 C 74.6999 -1.63415 -4.12081 0
M  V30 686 H 71.9199 -0.38359 -0.550545 0
M  V30 687 H 74.4639 -1.63507 -1.22824 0
M  V30 688 H 72.6189 -1.22061 -3.67668 0
M  V30 689 H 73.0329 -3.41305 -3.9826 0
M  V30 690 H 74.5069 -2.11669 -5.09804 0
M  V30 691 H 74.9839 -0.593462 -4.35172 0
M  V30 692 H 75.5899 -2.12628 -3.68334 0
M  V30 693 N 73.905 1.17692 -1.04816 0
M  V30 694 C 74.837 2.21103 -0.603822 0
M  V30 695 C 75.85 1.59411 0.33046 0
M  V30 696 O 77.039 1.7807 0.12379 0
M  V30 697 C 74.139 3.38623 0.136898 0
M  V30 698 C 73.312 4.29888 -0.807137 0
M  V30 699 C 72.371 5.26088 -0.10836 0
M  V30 700 O 71.397 5.64353 -0.741232 0
M  V30 701 N 72.599 5.68882 1.15558 0
M  V30 702 H 75.364 2.59848 -1.49329 0
M  V30 703 H 72.925 1.32553 -0.929587 0
M  V30 704 H 74.917 4.00009 0.614401 0
M  V30 705 H 73.487 2.98508 0.927993 0
M  V30 706 H 72.707 3.65993 -1.46434 0
M  V30 707 H 73.995 4.87759 -1.44807 0
M  V30 708 H 73.393 5.39861 1.69015 0
M  V30 709 H 71.95 6.32429 1.57722 0
M  V30 710 N 75.3831 0.828654 1.34056 0
M  V30 711 C 76.3461 0.259927 2.27721 0
M  V30 712 C 77.3461 -0.565478 1.50529 0
M  V30 713 O 78.5361 -0.38075 1.69988 0
M  V30 714 C 75.6681 -0.634944 3.34935 0
M  V30 715 H 76.8611 1.0863 2.79534 0
M  V30 716 H 74.4141 0.600951 1.44285 0
M  V30 717 H 75.1491 -1.48416 2.88346 0
M  V30 718 H 74.9341 -0.0444999 3.92075 0
M  V30 719 H 76.4241 -1.02648 4.04788 0
M  V30 720 N 76.8612 -1.46375 0.584142 0
M  V30 721 C 78.1382 -1.956 0.0033388 0
M  V30 722 C 78.5182 -1.52679 -1.45782 0
M  V30 723 O 77.8662 -0.77816 -2.14842 0
M  V30 724 C 78.0762 -3.48551 0.176891 0
M  V30 725 C 79.4242 -4.24576 0.0454609 0
M  V30 726 O 80.4482 -3.56043 0.105801 0
M  V30 727 O 79.3072 -5.46427 -0.0890376 0
M  V30 728 H 76.4012 -0.825547 -0.0490066 0
M  V30 729 H 78.9472 -1.56652 0.65256 0
M  V30 730 H 77.7192 -3.72683 1.1926 0
M  V30 731 H 77.3422 -3.94332 -0.508695 0
M  V30 732 N 78.3393 -0.321999 -1.54275 0
M  V30 733 C 79.5863 0.281044 -2.0054 0
M  V30 734 C 79.9143 1.52265 -1.21019 0
M  V30 735 O 79.1693 1.93687 -0.279982 0
M  V30 736 C 79.4683 0.661769 -3.5122 0
M  V30 737 C 79.1343 -0.480482 -4.48333 0
M  V30 738 C 77.7963 -0.794005 -4.74604 0
M  V30 739 C 80.1483 -1.24783 -5.06042 0
M  V30 740 C 77.4763 -1.87763 -5.55844 0
M  V30 741 C 79.8283 -2.32153 -5.88462 0
M  V30 742 C 78.4923 -2.64089 -6.13036 0
M  V30 743 H 77.7623 0.102841 -0.733829 0
M  V30 744 H 80.4093 -0.445453 -1.86247 0
M  V30 745 H 78.7143 1.46867 -3.63232 0
M  V30 746 H 80.4113 1.13989 -3.84457 0
M  V30 747 H 77.0013 -0.226039 -4.28004 0
M  V30 748 H 81.1853 -1.01887 -4.85729 0
M  V30 749 H 76.4413 -2.12954 -5.73115 0
M  V30 750 H 80.6153 -2.92057 -6.32199 0
M  V30 751 H 78.2423 -3.48185 -6.75775 0
M  V30 752 N 79.8174 1.5752 -0.0501392 0
M  V30 753 C 80.7644 2.1147 0.924603 0
M  V30 754 C 81.7344 1.02182 1.30951 0
M  V30 755 O 82.9194 1.29723 1.39916 0
M  V30 756 C 80.0594 2.66337 2.19451 0
M  V30 757 C 79.1724 3.89708 1.86418 0
M  V30 758 C 78.3074 4.32893 3.07859 0
M  V30 759 C 77.3464 5.48967 2.70742 0
M  V30 760 N 76.4834 5.87211 3.84874 0
M  V30 761 H 81.3234 2.94465 0.457639 0
M  V30 762 H 78.8604 1.45531 0.214266 0
M  V30 763 H 80.8184 2.96247 2.93758 0
M  V30 764 H 79.4484 1.86141 2.63726 0
M  V30 765 H 78.5004 3.66396 1.02264 0
M  V30 766 H 79.8124 4.74074 1.55096 0
M  V30 767 H 78.9664 4.6435 3.90466 0
M  V30 768 H 77.7054 3.47336 3.42358 0
M  V30 769 H 76.7104 5.17183 1.86551 0
M  V30 770 H 77.9354 6.3624 2.37436 0
M  V30 771 H 75.8814 5.04607 4.19175 0
M  V30 772 H 75.7984 6.66266 3.57247 0
M  V30 773 H 77.0664 6.23282 4.68123 0
M  V30 774 N 81.2955 -0.223234 1.56011 0
M  V30 775 C 82.5435 -0.946003 1.78592 0
M  V30 776 C 82.8645 -1.84936 0.618349 0
M  V30 777 O 82.1345 -1.92473 -0.364833 0
M  V30 778 H 80.7145 -0.352298 0.658707 0
M  V30 779 H 83.3765 -0.235494 1.93472 0
M  V30 780 H 82.4725 -1.55381 2.70672 0
M  V30 781 N 82.7736 -1.49793 -0.48987 0
M  V30 782 C 84.0036 -1.6333 -1.26518 0
M  V30 783 C 84.4116 -0.308392 -1.8667 0
M  V30 784 O 83.7546 0.717512 -1.69108 0
M  V30 785 C 83.8166 -2.6522 -2.4269 0
M  V30 786 C 83.4806 -4.09279 -2.03321 0
M  V30 787 C 84.4776 -4.95738 -1.56652 0
M  V30 788 C 82.1626 -4.55082 -2.12616 0
M  V30 789 C 84.1566 -6.26041 -1.19795 0
M  V30 790 C 81.8436 -5.85396 -1.75371 0
M  V30 791 C 82.8416 -6.707 -1.29036 0
M  V30 792 O 82.5296 -7.98584 -0.92299 0
M  V30 793 H 82.2616 -0.552502 -0.389509 0
M  V30 794 H 84.8156 -1.96642 -0.593381 0
M  V30 795 H 83.0456 -2.27112 -3.12981 0
M  V30 796 H 84.7346 -2.68171 -3.04695 0
M  V30 797 H 85.5006 -4.61575 -1.48908 0
M  V30 798 H 81.3796 -3.88844 -2.47631 0
M  V30 799 H 84.9236 -6.92578 -0.835582 0
M  V30 800 H 80.8206 -6.19085 -1.82768 0
M  V30 801 H 81.5886 -8.11692 -1.05349 0
M  V30 802 N 84.2517 0.741722 -1.39055 0
M  V30 803 C 85.4997 1.49818 -1.35643 0
M  V30 804 C 85.8207 1.94938 0.0491642 0
M  V30 805 O 85.0907 1.68505 0.999141 0
M  V30 806 H 83.6707 0.555755 -0.499144 0
M  V30 807 H 86.3327 0.880957 -1.73854 0
M  V30 808 H 85.4287 2.38348 -2.01486 0
M  V30 809 N 85.7298 1.2412 0.971189 0
M  V30 810 C 86.6398 1.04747 2.09917 0
M  V30 811 C 87.6558 -0.0107162 1.73997 0
M  V30 812 O 88.8318 0.186714 2.00533 0
M  V30 813 C 85.8968 0.650828 3.40537 0
M  V30 814 C 84.9578 1.7851 3.90426 0
M  V30 815 C 84.1908 1.40729 5.14812 0
M  V30 816 O 84.4138 0.29557 5.69634 0
M  V30 817 O 83.3478 2.23168 5.58999 0
M  V30 818 H 87.1738 1.99304 2.29154 0
M  V30 819 H 84.7588 1.02908 1.08307 0
M  V30 820 H 86.6408 0.440992 4.19086 0
M  V30 821 H 85.3158 -0.265649 3.22608 0
M  V30 822 H 84.2228 2.04966 3.12953 0
M  V30 823 H 85.5558 2.68023 4.12825 0
M  V30 824 N 87.2079 -1.17134 1.05439 0
M  V30 825 C 88.4559 -1.87085 0.764429 0
M  V30 826 C 88.7769 -1.81584 -0.710787 0
M  V30 827 O 88.0469 -1.24349 -1.51374 0
M  V30 828 H 86.6269 -0.692627 0.279779 0
M  V30 829 H 89.2889 -1.42087 1.33406 0
M  V30 830 H 88.3849 -2.92759 1.0816 0
M  V30 831 N 88.686 -0.835752 -1.33615 0
M  V30 832 C 89.619 -0.211815 -2.27215 0
M  V30 833 C 90.597 0.639249 -1.49507 0
M  V30 834 O 91.781 0.600193 -1.78689 0
M  V30 835 C 88.908 0.702893 -3.31326 0
M  V30 836 C 87.954 -0.0723049 -4.26439 0
M  V30 837 S 88.787 -1.42811 -5.16106 0
M  V30 838 C 89.943 -0.518613 -6.23748 0
M  V30 839 H 90.176 -1.00533 -2.79786 0
M  V30 840 H 87.709 -0.632336 -1.40858 0
M  V30 841 H 89.667 1.22505 -3.91794 0
M  V30 842 H 88.328 1.47004 -2.77576 0
M  V30 843 H 87.521 0.62359 -5.00127 0
M  V30 844 H 87.123 -0.525424 -3.70291 0
M  V30 845 H 89.415 0.284778 -6.76901 0
M  V30 846 H 90.358 -1.22556 -6.97413 0
M  V30 847 H 90.766 -0.101344 -5.64409 0
M  V30 848 N 90.1641 1.46063 -0.591896 0
M  V30 849 C 91.1111 2.30399 0.136069 0
M  V30 850 C 92.0811 1.41169 0.875238 0
M  V30 851 O 93.2661 1.70112 0.86409 0
M  V30 852 C 90.4061 3.25804 1.13781 0
M  V30 853 C 89.5191 4.30134 0.401137 0
M  V30 854 C 88.6541 5.12659 1.39121 0
M  V30 855 C 87.6931 6.0873 0.641462 0
M  V30 856 N 86.8301 6.8409 1.58004 0
M  V30 857 H 91.6701 2.92118 -0.589144 0
M  V30 858 H 89.2071 1.43959 -0.302342 0
M  V30 859 H 91.1651 3.79569 1.73156 0
M  V30 860 H 89.7951 2.65872 1.83062 0
M  V30 861 H 88.8471 3.79152 -0.307826 0
M  V30 862 H 90.1591 4.98458 -0.184565 0
M  V30 863 H 89.3131 5.70747 2.05749 0
M  V30 864 H 88.0521 4.44316 2.01084 0
M  V30 865 H 87.0571 5.49786 -0.0385419 0
M  V30 866 H 88.2821 6.79095 0.0270945 0
M  V30 867 H 86.2281 6.18449 2.18761 0
M  V30 868 H 86.1451 7.48709 1.04738 0
M  V30 869 H 87.4131 7.4673 2.23639 0
M  V30 870 N 91.6422 0.330177 1.54103 0
M  V30 871 C 92.5522 -0.541534 2.28264 0
M  V30 872 C 93.5682 -1.12351 1.32866 0
M  V30 873 O 94.7442 -1.14206 1.65888 0
M  V30 874 C 91.8092 -1.68322 3.03098 0
M  V30 875 C 90.8702 -1.13238 4.14096 0
M  V30 876 C 90.1032 -2.21966 4.85352 0
M  V30 877 O 90.3262 -3.42437 4.56172 0
M  V30 878 O 89.2602 -1.87013 5.7211 0
M  V30 879 H 93.0862 0.060938 3.03639 0
M  V30 880 H 90.6712 0.09565 1.49093 0
M  V30 881 H 92.5532 -2.34777 3.49939 0
M  V30 882 H 91.2282 -2.27176 2.30593 0
M  V30 883 H 90.1352 -0.432736 3.71589 0
M  V30 884 H 91.4682 -0.588898 4.88664 0
M  V30 885 N 93.1203 -1.57491 0.0584922 0
M  V30 886 C 94.0833 -2.1085 -0.898617 0
M  V30 887 C 95.0833 -1.02964 -1.23511 0
M  V30 888 O 96.2733 -1.29007 -1.17059 0
M  V30 889 C 93.4053 -2.59881 -2.20623 0
M  V30 890 H 94.5983 -2.96715 -0.435936 0
M  V30 891 H 92.1513 -1.55141 -0.190023 0
M  V30 892 H 92.8863 -1.77431 -2.71457 0
M  V30 893 H 92.6713 -3.38727 -1.97501 0
M  V30 894 H 94.1613 -3.01285 -2.89166 0
M  V30 895 N 94.5984 0.214957 -1.56127 0
M  V30 896 C 95.8464 0.936518 -1.79091 0
M  V30 897 C 96.1674 1.84606 -0.628148 0
M  V30 898 O 95.4374 1.92664 0.35462 0
M  V30 899 H 94.0174 0.3488 -0.660566 0
M  V30 900 H 96.6794 0.22523 -1.93594 0
M  V30 901 H 95.7754 1.53943 -2.71492 0
M  V30 902 N 96.0765 1.50051 0.48192 0
M  V30 903 C 97.0395 1.67584 1.5636 0
M  V30 904 C 98.0395 0.546894 1.51214 0
M  V30 905 O 99.2295 0.813725 1.54026 0
M  V30 906 C 96.3615 1.691 2.96003 0
M  V30 907 H 97.5545 2.64078 1.42136 0
M  V30 908 H 95.1075 1.39369 0.707533 0
M  V30 909 H 95.8425 0.742589 3.15684 0
M  V30 910 H 95.6275 2.51105 3.01146 0
M  V30 911 H 97.1175 1.84656 3.74556 0
M  V30 912 N 97.5546 -0.734337 1.39446 0
M  V30 913 C 98.5016 -1.84835 1.38219 0
M  V30 914 C 99.4716 -1.64331 0.24179 0
M  V30 915 O 100.657 -1.85728 0.437002 0
M  V30 916 C 97.7966 -3.22355 1.23212 0
M  V30 917 C 96.9096 -3.5456 2.46801 0
M  V30 918 C 96.0446 -4.81485 2.24377 0
M  V30 919 C 95.0836 -5.06536 3.43639 0
M  V30 920 N 94.2206 -6.24665 3.20528 0
M  V30 921 H 99.0606 -1.85219 2.33448 0
M  V30 922 H 96.5976 -0.905039 1.15963 0
M  V30 923 H 98.5556 -4.0174 1.12522 0
M  V30 924 H 97.1856 -3.21248 0.316121 0
M  V30 925 H 96.2376 -2.69872 2.68092 0
M  V30 926 H 97.5496 -3.6899 3.3563 0
M  V30 927 H 96.7036 -5.68852 2.10933 0
M  V30 928 H 95.4426 -4.6923 1.32944 0
M  V30 929 H 94.4476 -4.17632 3.5758 0
M  V30 930 H 95.6726 -5.20676 4.35974 0
M  V30 931 H 93.6186 -6.13696 2.3176 0
M  V30 932 H 93.5356 -6.39685 4.02913 0
M  V30 933 H 94.8036 -7.14868 3.10779 0
M  V30 934 N 99.0327 -1.24633 -0.964593 0
M  V30 935 C 100.281 -1.08573 -1.70459 0
M  V30 936 C 100.602 0.375655 -1.91347 0
M  V30 937 O 99.8717 1.26779 -1.49345 0
M  V30 938 H 98.4517 -0.398784 -0.631649 0
M  V30 939 H 101.114 -1.56601 -1.16026 0
M  V30 940 H 100.21 -1.58623 -2.68785 0
M  V30 941 N 100.511 1.16574 -1.06058 0
M  V30 942 C 101.441 2.23057 -0.690488 0
M  V30 943 C 102.422 1.67141 0.315901 0
M  V30 944 O 103.607 1.93253 0.191556 0
M  V30 945 C 100.737 3.47222 -0.073625 0
M  V30 946 C 99.6908 4.16016 -1.00573 0
M  V30 947 C 99.0168 5.34104 -0.252289 0
M  V30 948 C 100.317 4.67264 -2.33371 0
M  V30 949 H 102.011 2.54271 -1.58072 0
M  V30 950 H 99.5568 1.22218 -0.76149 0
M  V30 951 H 101.51 4.20939 0.19714 0
M  V30 952 H 100.234 3.15302 0.85161 0
M  V30 953 H 98.8928 3.44223 -1.2612 0
M  V30 954 H 98.5408 4.98437 0.675988 0
M  V30 955 H 98.2408 5.81072 -0.873455 0
M  V30 956 H 99.7648 6.10599 0.0109857 0
M  V30 957 H 101.179 5.32573 -2.12223 0
M  V30 958 H 99.5758 5.24843 -2.90963 0
M  V30 959 H 100.646 3.83602 -2.96611 0
M  V30 960 N 101.989 0.842826 1.3317 0
M  V30 961 C 102.952 0.284065 2.27433 0
M  V30 962 C 103.952 -0.54948 1.5112 0
M  V30 963 O 105.142 -0.362699 1.70382 0
M  V30 964 C 102.274 -0.599384 3.35589 0
M  V30 965 H 103.467 1.11589 2.78366 0
M  V30 966 H 101.02 0.616221 1.4364 0
M  V30 967 H 101.755 -1.45349 2.89904 0
M  V30 968 H 101.54 -0.00291266 3.921 0
M  V30 969 H 103.03 -0.983488 4.05854 0
M  V30 970 N 103.467 -1.45747 0.599634 0
M  V30 971 C 104.713 -2.03153 0.100263 0
M  V30 972 C 105.068 -1.46073 -1.25221 0
M  V30 973 O 104.361 -0.622878 -1.81193 0
M  V30 974 C 104.555 -3.57399 -0.00602758 0
M  V30 975 C 104.384 -4.2944 1.3346 0
M  V30 976 C 103.154 -4.6768 1.91321 0
M  V30 977 C 105.352 -4.61905 2.2616 0
M  V30 978 N 103.334 -5.24544 3.18946 0
M  V30 979 C 104.705 -5.19518 3.3838 0
M  V30 980 C 106.76 -4.43841 2.25631 0
M  V30 981 C 105.463 -5.60972 4.50226 0
M  V30 982 C 107.489 -4.86322 3.36518 0
M  V30 983 C 106.851 -5.44021 4.4746 0
M  V30 984 H 102.95 -0.777911 0.0798696 0
M  V30 985 H 105.534 -1.77674 0.796244 0
M  V30 986 H 103.705 -3.82556 -0.671212 0
M  V30 987 H 105.437 -4.01457 -0.51133 0
M  V30 988 H 102.192 -4.5098 1.44617 0
M  V30 989 H 102.616 -5.57483 3.84112 0
M  V30 990 H 107.258 -3.98552 1.41123 0
M  V30 991 H 104.976 -6.0523 5.35464 0
M  V30 992 H 108.562 -4.74084 3.37247 0
M  V30 993 H 107.442 -5.76289 5.31846 0
M  V30 994 N 104.945 -0.338344 -1.53925 0
M  V30 995 C 106.222 0.314774 -1.93051 0
M  V30 996 C 106.602 1.68669 -1.26941 0
M  V30 997 O 105.95 2.24636 -0.418445 0
M  V30 998 C 106.16 0.392249 -3.46789 0
M  V30 999 C 107.508 0.645554 -4.19664 0
M  V30 1000 O 108.532 0.474575 -3.53024 0
M  V30 1001 O 107.391 0.976408 -5.37707 0
M  V30 1002 H 104.485 0.182598 -0.80659 0
M  V30 1003 H 107.031 -0.389141 -1.65178 0
M  V30 1004 H 105.803 -0.570702 -3.87116 0
M  V30 1005 H 105.426 1.14316 -3.80812 0
M  V30 1006 N 106.423 1.57458 -0.0668435 0
M  V30 1007 C 107.333 2.15937 0.916975 0
M  V30 1008 C 108.349 1.12123 1.33058 0
M  V30 1009 O 109.525 1.44366 1.40429 0
M  V30 1010 C 106.59 2.70547 2.16807 0
M  V30 1011 C 105.651 3.89215 1.81135 0
M  V30 1012 C 104.884 4.41211 3.0028 0
M  V30 1013 O 105.107 3.92225 4.14144 0
M  V30 1014 O 104.041 5.32605 2.80384 0
M  V30 1015 H 107.867 3.00354 0.449561 0
M  V30 1016 H 105.452 1.48584 0.155949 0
M  V30 1017 H 107.334 3.0557 2.90181 0
M  V30 1018 H 106.009 1.89192 2.62656 0
M  V30 1019 H 104.916 3.59054 1.05028 0
M  V30 1020 H 106.249 4.71848 1.40073 0
M  V30 1021 N 107.901 -0.206675 1.56239 0
M  V30 1022 C 108.811 -1.27686 1.96808 0
M  V30 1023 C 109.827 -1.50455 0.874035 0
M  V30 1024 O 111.003 -1.63295 1.17884 0
M  V30 1025 C 108.068 -2.60358 2.28942 0
M  V30 1026 C 107.129 -2.45762 3.51994 0
M  V30 1027 C 106.362 -3.72108 3.82585 0
M  V30 1028 O 106.585 -4.75776 3.14631 0
M  V30 1029 O 105.519 -3.6833 4.76043 0
M  V30 1030 H 109.345 -0.962593 2.88041 0
M  V30 1031 H 106.93 -0.410746 1.43643 0
M  V30 1032 H 108.812 -3.38687 2.50737 0
M  V30 1033 H 107.487 -2.91435 1.4088 0
M  V30 1034 H 106.394 -1.65584 3.35459 0
M  V30 1035 H 107.727 -2.19621 4.40486 0
M  V30 1036 N 109.379 -1.50304 -0.473955 0
M  V30 1037 C 110.329 -1.65347 -1.56985 0
M  V30 1038 C 111.313 -0.508176 -1.52664 0
M  V30 1039 O 112.505 -0.762446 -1.59737 0
M  V30 1040 C 109.634 -1.74832 -2.95447 0
M  V30 1041 C 108.72 -2.95028 -3.04662 0
M  V30 1042 N 109.111 -4.18747 -2.83698 0
M  V30 1043 C 107.409 -2.93527 -3.35795 0
M  V30 1044 C 108.11 -4.99687 -2.97805 0
M  V30 1045 N 107.086 -4.33585 -3.2788 0
M  V30 1046 H 110.888 -2.58698 -1.39472 0
M  V30 1047 H 108.402 -1.47449 -0.680629 0
M  V30 1048 H 110.399 -1.83712 -3.7424 0
M  V30 1049 H 109.059 -0.826376 -3.14008 0
M  V30 1050 H 110.07 -4.48291 -2.59337 0
M  V30 1051 H 106.747 -2.10821 -3.60362 0
M  V30 1052 H 108.137 -6.08057 -2.85861 0
M  V30 1053 N 110.857 0.726932 -1.39834 0
M  V30 1054 C 112.104 1.48664 -1.37496 0
M  V30 1055 C 112.432 1.94482 0.0264678 0
M  V30 1056 O 111.687 1.67692 1.00886 0
M  V30 1057 C 111.986 2.73495 -2.30077 0
M  V30 1058 C 111.652 2.46502 -3.77555 0
M  V30 1059 C 110.314 2.3885 -4.17737 0
M  V30 1060 C 112.666 2.23604 -4.70798 0
M  V30 1061 C 109.994 2.06352 -5.49214 0
M  V30 1062 C 112.346 1.92622 -6.02561 0
M  V30 1063 C 111.01 1.83444 -6.41798 0
M  V30 1064 H 110.28 0.544001 -0.503135 0
M  V30 1065 H 112.927 0.833657 -1.72402 0
M  V30 1066 H 111.232 3.43575 -1.88317 0
M  V30 1067 H 112.929 3.31549 -2.25558 0
M  V30 1068 H 109.519 2.5334 -3.45712 0
M  V30 1069 H 113.703 2.28479 -4.40581 0
M  V30 1070 H 108.959 1.97776 -5.78528 0
M  V30 1071 H 113.133 1.73914 -6.74334 0
M  V30 1072 H 110.76 1.58029 -7.43593 0
M  V30 1073 N 112.336 1.25143 0.95797 0
M  V30 1074 C 113.582 1.09855 1.70469 0
M  V30 1075 C 113.915 -0.360187 1.90831 0
M  V30 1076 O 113.19 -1.26568 1.47685 0
M  V30 1077 C 113.473 1.8497 3.08963 0
M  V30 1078 C 113.326 3.38652 2.96032 0
M  V30 1079 C 114.645 1.63016 4.08795 0
M  V30 1080 H 111.764 0.400465 0.618706 0
M  V30 1081 H 114.406 1.53933 1.11376 0
M  V30 1082 H 112.556 1.47505 3.59409 0
M  V30 1083 H 114.228 3.85772 2.52938 0
M  V30 1084 H 112.471 3.66534 2.32025 0
M  V30 1085 H 113.142 3.8642 3.94187 0
M  V30 1086 H 115.618 1.95625 3.67247 0
M  V30 1087 H 114.494 2.18015 5.03747 0
M  V30 1088 H 114.755 0.570692 4.38401 0
M  V30 1089 N 113.814 -1.1601 1.06675 0
M  V30 1090 C 114.746 -2.20115 0.638921 0
M  V30 1091 C 115.759 -1.59916 -0.305057 0
M  V30 1092 O 116.948 -1.78245 -0.0954446 0
M  V30 1093 C 114.048 -3.38798 -0.0830083 0
M  V30 1094 C 113.221 -4.2855 0.875426 0
M  V30 1095 C 112.28 -5.25849 0.192042 0
M  V30 1096 O 111.306 -5.63102 0.830921 0
M  V30 1097 N 112.508 -5.70648 -1.06493 0
M  V30 1098 H 115.273 -2.57439 1.53444 0
M  V30 1099 H 112.834 -1.31057 0.950557 0
M  V30 1100 H 114.826 -4.00936 -0.550685 0
M  V30 1101 H 113.396 -2.99947 -0.880386 0
M  V30 1102 H 112.616 -3.63617 1.52238 0
M  V30 1103 H 113.904 -4.85393 1.52548 0
M  V30 1104 H 113.302 -5.42482 -1.60405 0
M  V30 1105 H 111.859 -6.34859 -1.47641 0
M  V30 1106 N 115.292 -0.849877 -1.32721 0
M  V30 1107 C 116.522 -0.46408 -2.0132 0
M  V30 1108 C 116.93 0.94246 -1.64056 0
M  V30 1109 O 116.273 1.6257 -0.855379 0
M  V30 1110 C 116.335 -0.517887 -3.5575 0
M  V30 1111 C 115.999 -1.88248 -4.16427 0
M  V30 1112 C 116.996 -2.84726 -4.35002 0
M  V30 1113 C 114.681 -2.17832 -4.52609 0
M  V30 1114 C 116.675 -4.08945 -4.8892 0
M  V30 1115 C 114.362 -3.42304 -5.06232 0
M  V30 1116 C 115.36 -4.37677 -5.24335 0
M  V30 1117 O 115.048 -5.59946 -5.76815 0
M  V30 1118 H 114.78 -0.181327 -0.651227 0
M  V30 1119 H 117.334 -1.14713 -1.70382 0
M  V30 1120 H 115.564 0.221997 -3.86062 0
M  V30 1121 H 117.253 -0.148366 -4.05629 0
M  V30 1122 H 118.019 -2.63174 -4.07388 0
M  V30 1123 H 113.898 -1.44385 -4.37806 0
M  V30 1124 H 117.442 -4.83396 -5.02966 0
M  V30 1125 H 113.339 -3.63709 -5.33278 0
M  V30 1126 H 114.107 -5.61838 -5.95214 0
M  V30 1127 N 116.77 1.45427 -0.607355 0
M  V30 1128 C 118.016 2.0254 -0.102607 0
M  V30 1129 C 118.349 1.47478 1.26348 0
M  V30 1130 O 117.624 0.64939 1.83339 0
M  V30 1131 C 117.907 3.60044 -0.0634347 0
M  V30 1132 C 117.76 4.2544 -1.46017 0
M  V30 1133 C 119.079 4.35646 0.624514 0
M  V30 1134 H 116.198 0.73598 -0.0387607 0
M  V30 1135 H 118.84 1.73284 -0.779282 0
M  V30 1136 H 116.99 3.85101 0.512808 0
M  V30 1137 H 118.662 4.11569 -2.08347 0
M  V30 1138 H 116.905 3.83849 -2.02094 0
M  V30 1139 H 117.576 5.34342 -1.385 0
M  V30 1140 H 120.052 4.15882 0.134723 0
M  V30 1141 H 118.928 5.45376 0.621028 0
M  V30 1142 H 119.189 4.08501 1.69055 0
M  V30 1143 N 118.248 0.346503 1.53744 0
M  V30 1144 C 119.18 -0.543316 2.22667 0
M  V30 1145 C 120.193 -1.06159 1.23427 0
M  V30 1146 O 121.382 -0.971235 1.49764 0
M  V30 1147 C 118.482 -1.76076 2.89569 0
M  V30 1148 C 117.655 -1.37727 4.15151 0
M  V30 1149 C 116.714 -2.45471 4.65436 0
M  V30 1150 O 115.74 -2.08655 5.29577 0
M  V30 1151 N 116.942 -3.7677 4.41616 0
M  V30 1152 H 119.707 0.0469703 2.99663 0
M  V30 1153 H 117.268 0.170766 1.60997 0
M  V30 1154 H 119.26 -2.47593 3.20125 0
M  V30 1155 H 117.83 -2.25835 2.16142 0
M  V30 1156 H 117.05 -0.492746 3.91108 0
M  V30 1157 H 118.338 -1.09708 4.96832 0
M  V30 1158 H 117.736 -4.09467 3.90325 0
M  V30 1159 H 116.293 -4.44448 4.7677 0
M  V30 1160 N 119.726 -1.57421 0.075193 0
M  V30 1161 C 121.003 -1.85029 -0.634329 0
M  V30 1162 C 121.383 -0.968305 -1.87582 0
M  V30 1163 O 120.731 -0.0354749 -2.28472 0
M  V30 1164 C 120.941 -3.35286 -0.968742 0
M  V30 1165 C 122.289 -4.02875 -1.34077 0
M  V30 1166 O 123.313 -3.40051 -1.06037 0
M  V30 1167 O 122.172 -5.13691 -1.86506 0
M  V30 1168 H 119.266 -0.7645 -0.315387 0
M  V30 1169 H 121.812 -1.69366 0.106382 0
M  V30 1170 H 120.584 -3.91203 -0.0871376 0
M  V30 1171 H 120.207 -3.56223 -1.7661 0
M  V30 1172 N 121.204 0.198386 -1.56346 0
M  V30 1173 C 122.615 0.763358 -1.70381 0
M  V30 1174 C 122.966 1.83995 -0.681203 0
M  V30 1175 O 122.091 2.15785 0.16305 0
M  V30 1176 C 122.686 1.39143 -3.08909 0
M  V30 1177 C 121.245 1.90352 -3.2472 0
M  V30 1178 C 120.392 0.772233 -2.6633 0
M  V30 1179 H 123.343 -0.0266377 -1.58678 0
M  V30 1180 H 123.364 2.26076 -3.06055 0
M  V30 1181 H 122.876 0.607638 -3.83314 0
M  V30 1182 H 120.977 2.71461 -2.55225 0
M  V30 1183 H 121.09 2.06757 -4.3219 0
M  V30 1184 H 119.454 1.18566 -2.2542 0
M  V30 1185 H 120.237 0.00073556 -3.433 0
M  V30 1186 N 122.682 1.50554 0.465978 0
M  V30 1187 C 123.91 1.65563 1.24083 0
M  V30 1188 C 124.325 0.341051 1.85694 0
M  V30 1189 O 123.682 -0.677543 1.69457 0
M  V30 1190 C 123.733 2.75051 2.34583 0
M  V30 1191 O 123.454 4.01413 1.75497 0
M  V30 1192 C 124.955 3.01078 3.25372 0
M  V30 1193 H 122.175 0.55638 0.375077 0
M  V30 1194 H 124.719 1.96807 0.555624 0
M  V30 1195 H 122.874 2.46486 2.9887 0
M  V30 1196 H 123.288 4.62002 2.48303 0
M  V30 1197 H 124.762 3.81339 3.99105 0
M  V30 1198 H 125.239 2.12349 3.84453 0
M  V30 1199 H 125.845 3.31194 2.66816 0
M  V30 1200 N 124.16 -0.719506 1.40217 0
M  V30 1201 C 125.107 -1.83359 1.40172 0
M  V30 1202 C 126.077 -1.64065 0.259206 0
M  V30 1203 O 127.262 -1.85254 0.456677 0
M  V30 1204 C 124.402 -3.2103 1.26624 0
M  V30 1205 C 123.515 -3.51923 2.50548 0
M  V30 1206 C 122.65 -4.79079 2.29471 0
M  V30 1207 C 121.689 -5.02863 3.48992 0
M  V30 1208 N 120.826 -6.2123 3.27135 0
M  V30 1209 H 125.666 -1.82733 2.35399 0
M  V30 1210 H 123.203 -0.892688 1.16917 0
M  V30 1211 H 125.161 -4.00524 1.16776 0
M  V30 1212 H 123.791 -3.20895 0.350176 0
M  V30 1213 H 122.843 -2.67014 2.70939 0
M  V30 1214 H 124.155 -3.6541 3.39525 0
M  V30 1215 H 123.309 -5.66582 2.16955 0
M  V30 1216 H 122.048 -4.67794 1.37913 0
M  V30 1217 H 121.053 -4.13816 3.6199 0
M  V30 1218 H 122.278 -5.16023 4.41472 0
M  V30 1219 H 120.224 -6.11204 2.38256 0
M  V30 1220 H 120.141 -6.35375 4.09675 0
M  V30 1221 H 121.409 -7.11532 3.18344 0
M  V30 1222 N 125.638 -1.25649 -0.95132 0
M  V30 1223 C 126.885 -1.10594 -1.69633 0
M  V30 1224 C 127.213 0.352515 -1.91279 0
M  V30 1225 O 126.468 1.27601 -1.4838 0
M  V30 1226 C 126.767 -1.80909 -3.08231 0
M  V30 1227 C 126.433 -3.30825 -3.06375 0
M  V30 1228 C 125.095 -3.71722 -3.05576 0
M  V30 1229 C 127.447 -4.26589 -2.99452 0
M  V30 1230 C 124.775 -5.06788 -2.95606 0
M  V30 1231 C 127.127 -5.61683 -2.91024 0
M  V30 1232 C 125.791 -6.01904 -2.88562 0
M  V30 1233 H 125.061 -0.404691 -0.620731 0
M  V30 1234 H 127.708 -1.55964 -1.11119 0
M  V30 1235 H 126.013 -1.27979 -3.70309 0
M  V30 1236 H 127.71 -1.6671 -3.64704 0
M  V30 1237 H 124.3 -2.98287 -3.07771 0
M  V30 1238 H 128.484 -3.95982 -2.99185 0
M  V30 1239 H 123.74 -5.37126 -2.92071 0
M  V30 1240 H 127.914 -6.35578 -2.84629 0
M  V30 1241 H 125.541 -7.06521 -2.80593 0
M  V30 1242 N 127.117 1.15442 -1.07289 0
M  V30 1243 C 128.047 2.22312 -0.714107 0
M  V30 1244 C 129.028 1.67467 0.298155 0
M  V30 1245 O 130.213 1.93445 0.171048 0
M  V30 1246 C 127.343 3.47124 -0.110448 0
M  V30 1247 C 126.297 4.14926 -1.04979 0
M  V30 1248 C 125.623 5.33807 -0.308924 0
M  V30 1249 C 126.923 4.64762 -2.38314 0
M  V30 1250 H 128.617 2.5258 -1.6076 0
M  V30 1251 H 126.163 1.21404 -0.77441 0
M  V30 1252 H 128.116 4.21124 0.152482 0
M  V30 1253 H 126.84 3.16187 0.81812 0
M  V30 1254 H 125.499 3.42866 -1.29764 0
M  V30 1255 H 125.147 4.99126 0.623084 0
M  V30 1256 H 124.847 5.80113 -0.935036 0
M  V30 1257 H 126.371 6.10576 -0.0537771 0
M  V30 1258 H 127.785 5.30292 -2.1786 0
M  V30 1259 H 126.182 5.21728 -2.96514 0
M  V30 1260 H 127.252 3.80434 -3.00663 0
M  V30 1261 N 128.595 0.856903 1.32268 0
M  V30 1262 C 129.542 0.301172 2.28827 0
M  V30 1263 C 130.512 -0.593104 1.5515 0
M  V30 1264 O 131.697 -0.527537 1.83362 0
M  V30 1265 C 128.837 -0.502523 3.41422 0
M  V30 1266 C 127.95 0.417797 4.29975 0
M  V30 1267 C 127.085 -0.398749 5.29701 0
M  V30 1268 C 126.124 0.518827 6.09897 0
M  V30 1269 N 125.261 -0.260674 7.01616 0
M  V30 1270 H 130.101 1.12983 2.75751 0
M  V30 1271 H 127.638 0.568582 1.35667 0
M  V30 1272 H 129.596 -0.984141 4.05426 0
M  V30 1273 H 128.226 -1.29599 2.95642 0
M  V30 1274 H 127.278 1.01781 3.66531 0
M  V30 1275 H 128.59 1.12191 4.86019 0
M  V30 1276 H 127.744 -0.943435 5.9932 0
M  V30 1277 H 126.483 -1.13622 4.7428 0
M  V30 1278 H 125.488 1.07538 5.39181 0
M  V30 1279 H 126.713 1.25495 6.67404 0
M  V30 1280 H 124.659 -0.981198 6.4862 0
M  V30 1281 H 124.576 0.384364 7.55022 0
M  V30 1282 H 125.844 -0.787014 7.75517 0
M  V30 1283 N 130.073 -1.45103 0.615059 0
M  V30 1284 C 130.983 -2.34382 -0.101034 0
M  V30 1285 C 131.999 -1.51681 -0.852585 0
M  V30 1286 O 133.175 -1.8446 -0.808484 0
M  V30 1287 C 130.24 -3.29417 -1.08099 0
M  V30 1288 C 129.301 -4.28025 -0.330577 0
M  V30 1289 C 128.534 -5.1852 -1.26385 0
M  V30 1290 O 128.757 -5.12598 -2.50198 0
M  V30 1291 O 127.691 -5.97122 -0.756866 0
M  V30 1292 H 131.517 -2.97033 0.632855 0
M  V30 1293 H 129.102 -1.4461 0.375293 0
M  V30 1294 H 130.984 -3.87958 -1.6452 0
M  V30 1295 H 129.659 -2.69321 -1.79577 0
M  V30 1296 H 128.566 -3.73078 0.276283 0
M  V30 1297 H 129.899 -4.90997 0.343866 0
M  V30 1298 N 131.551 -0.354651 -1.53558 0
M  V30 1299 C 132.781 0.239167 -2.05211 0
M  V30 1300 C 133.189 1.43879 -1.22863 0
M  V30 1301 O 132.532 1.81857 -0.259565 0
M  V30 1302 C 132.594 0.707251 -3.52474 0
M  V30 1303 C 132.258 -0.374212 -4.55465 0
M  V30 1304 C 133.255 -1.22054 -5.0537 0
M  V30 1305 C 130.94 -0.531323 -4.99482 0
M  V30 1306 C 132.934 -2.20942 -5.97882 0
M  V30 1307 C 130.621 -1.52358 -5.91802 0
M  V30 1308 C 131.619 -2.36108 -6.40892 0
M  V30 1309 O 131.307 -3.33643 -7.31394 0
M  V30 1310 H 131.039 0.0479716 -0.674296 0
M  V30 1311 H 133.593 -0.508121 -1.99016 0
M  V30 1312 H 131.823 1.50596 -3.56171 0
M  V30 1313 H 133.512 1.22285 -3.87042 0
M  V30 1314 H 134.278 -1.1103 -4.7212 0
M  V30 1315 H 130.157 0.110738 -4.60867 0
M  V30 1316 H 133.701 -2.86348 -6.36121 0
M  V30 1317 H 129.598 -1.63434 -6.24467 0
M  V30 1318 H 130.366 -3.29244 -7.4936 0
M  V30 1319 N 133.029 1.57378 -0.0835403 0
M  V30 1320 C 134.257 1.98263 0.59157 0
M  V30 1321 C 134.672 0.962302 1.62435 0
M  V30 1322 O 134.029 -0.049581 1.82433 0
M  V30 1323 C 134.08 3.39214 1.24965 0
M  V30 1324 O 133.801 4.37339 0.258186 0
M  V30 1325 C 135.302 3.95038 2.01147 0
M  V30 1326 H 132.522 0.651773 0.159477 0
M  V30 1327 H 135.066 2.03878 -0.159415 0
M  V30 1328 H 133.221 3.34649 1.95164 0
M  V30 1329 H 133.635 5.19371 0.731734 0
M  V30 1330 H 135.109 4.95848 2.42567 0
M  V30 1331 H 135.586 3.32222 2.87272 0
M  V30 1332 H 136.192 4.0304 1.35789 0
M  V30 1333 N 134.507 -0.190092 1.56449 0
M  V30 1334 C 135.755 -0.907908 1.80559 0
M  V30 1335 C 136.076 -1.83583 0.657438 0
M  V30 1336 O 135.346 -1.93203 -0.323924 0
M  V30 1337 H 133.926 -0.338247 0.666032 0
M  V30 1338 H 136.588 -0.194403 1.93928 0
M  V30 1339 H 135.684 -1.49604 2.73907 0
M  V30 1340 N 135.985 -1.50799 -0.457987 0
M  V30 1341 C 137.262 -1.52968 -1.21902 0
M  V30 1342 C 137.642 -0.281906 -2.09209 0
M  V30 1343 O 136.99 0.734076 -2.16388 0
M  V30 1344 C 137.2 -2.8326 -2.03875 0
M  V30 1345 C 138.548 -3.34425 -2.6162 0
M  V30 1346 O 139.572 -2.8467 -2.14106 0
M  V30 1347 O 138.431 -4.21188 -3.48228 0
M  V30 1348 H 135.525 -0.614129 -0.553873 0
M  V30 1349 H 138.071 -1.63098 -0.468739 0
M  V30 1350 H 136.843 -3.65543 -1.39621 0
M  V30 1351 H 136.466 -2.76195 -2.8601 0
M  V30 1352 N 137.463 0.71206 -1.40597 0
M  V30 1353 C 138.426 1.80785 -1.40888 0
M  V30 1354 C 139.426 1.57937 -0.302103 0
M  V30 1355 O 140.616 1.64913 -0.561182 0
M  V30 1356 C 137.748 3.18927 -1.20409 0
M  V30 1357 H 138.941 1.81924 -2.38419 0
M  V30 1358 H 136.494 0.91805 -1.26497 0
M  V30 1359 H 137.229 3.23436 -0.236522 0
M  V30 1360 H 137.014 3.36911 -2.00582 0
M  V30 1361 H 138.504 3.98949 -1.23408 0
M  V30 1362 N 138.941 1.26152 0.944643 0
M  V30 1363 C 139.888 1.07408 2.04285 0
M  V30 1364 C 140.858 -0.0198413 1.66088 0
M  V30 1365 O 142.043 0.139264 1.90291 0
M  V30 1366 C 139.183 0.70945 3.37729 0
M  V30 1367 C 138.296 1.87926 3.88983 0
M  V30 1368 C 137.431 1.45807 5.10797 0
M  V30 1369 C 136.47 2.5964 5.54305 0
M  V30 1370 N 135.607 2.18226 6.67324 0
M  V30 1371 H 140.447 2.01389 2.1965 0
M  V30 1372 H 137.984 1.00275 1.07626 0
M  V30 1373 H 139.942 0.478948 4.14442 0
M  V30 1374 H 138.572 -0.193389 3.2222 0
M  V30 1375 H 137.624 2.22279 3.08701 0
M  V30 1376 H 138.936 2.73377 4.17213 0
M  V30 1377 H 138.09 1.18781 5.94959 0
M  V30 1378 H 136.829 0.574414 4.84305 0
M  V30 1379 H 135.834 2.87399 4.68702 0
M  V30 1380 H 137.059 3.48599 5.828 0
M  V30 1381 H 135.005 1.3229 6.42523 0
M  V30 1382 H 134.922 2.97221 6.95123 0
M  V30 1383 H 136.19 1.94403 7.54869 0
M  V30 1384 N 140.419 -1.14872 1.07899 0
M  V30 1385 C 141.382 -2.17986 0.708161 0
M  V30 1386 C 142.382 -1.58775 -0.25442 0
M  V30 1387 O 143.572 -1.74166 -0.034645 0
M  V30 1388 C 140.704 -3.40871 0.0446929 0
M  V30 1389 H 141.897 -2.52306 1.62116 0
M  V30 1390 H 139.45 -1.2943 0.876218 0
M  V30 1391 H 140.185 -3.12124 -0.880281 0
M  V30 1392 H 139.97 -3.8511 0.737091 0
M  V30 1393 H 141.46 -4.17121 -0.19991 0
M  V30 1394 N 141.898 -0.863906 -1.31812 0
M  V30 1395 C 142.845 -0.313303 -2.28664 0
M  V30 1396 C 143.815 0.584868 -1.55462 0
M  V30 1397 O 145 0.517805 -1.83639 0
M  V30 1398 C 142.14 0.48441 -3.41683 0
M  V30 1399 C 141.253 -0.440594 -4.29747 0
M  V30 1400 C 140.388 0.370652 -5.29905 0
M  V30 1401 C 139.427 -0.551164 -6.09613 0
M  V30 1402 N 138.564 0.223462 -7.01744 0
M  V30 1403 H 143.404 -1.14444 -2.75148 0
M  V30 1404 H 140.941 -0.575769 -1.35364 0
M  V30 1405 H 142.899 0.962627 -4.05943 0
M  V30 1406 H 141.529 1.28029 -2.96325 0
M  V30 1407 H 140.581 -1.03724 -3.65986 0
M  V30 1408 H 141.893 -1.14767 -4.85417 0
M  V30 1409 H 141.047 0.911638 -5.99812 0
M  V30 1410 H 139.786 1.11105 -4.74876 0
M  V30 1411 H 138.791 -1.10396 -5.38603 0
M  V30 1412 H 140.016 -1.29032 -6.66729 0
M  V30 1413 H 137.962 0.946787 -6.49132 0
M  V30 1414 H 137.879 -0.424399 -7.54808 0
M  V30 1415 H 139.147 0.745876 -7.75923 0
M  V30 1416 N 143.376 1.44774 -0.622745 0
M  V30 1417 C 144.624 2.01721 -0.123655 0
M  V30 1418 C 144.945 1.49172 1.25589 0
M  V30 1419 O 144.215 0.691974 1.83272 0
M  V30 1420 H 142.795 0.745777 -0.0427225 0
M  V30 1421 H 145.457 1.77382 -0.807559 0
M  V30 1422 H 144.553 3.11984 -0.0849534 0
M  V30 1423 N 144.854 0.36279 1.53368 0
M  V30 1424 C 145.801 -0.485008 2.25646 0
M  V30 1425 C 146.771 -1.07982 1.2621 0
M  V30 1426 O 147.956 -1.11284 1.54986 0
M  V30 1427 C 145.096 -1.62023 3.04701 0
M  V30 1428 C 144.209 -1.05086 4.19024 0
M  V30 1429 C 143.344 -2.15496 4.85525 0
M  V30 1430 C 142.383 -1.5601 5.91884 0
M  V30 1431 N 141.52 -2.60241 6.52088 0
M  V30 1432 H 146.36 0.137864 2.97681 0
M  V30 1433 H 143.897 0.0798061 1.46883 0
M  V30 1434 H 145.855 -2.28887 3.48807 0
M  V30 1435 H 144.485 -2.2138 2.34927 0
M  V30 1436 H 143.537 -0.27259 3.79422 0
M  V30 1437 H 144.849 -0.575926 4.95464 0
M  V30 1438 H 144.003 -2.90186 5.32801 0
M  V30 1439 H 142.742 -2.66341 4.08551 0
M  V30 1440 H 141.747 -0.798338 5.43973 0
M  V30 1441 H 142.972 -1.05994 6.70777 0
M  V30 1442 H 140.918 -3.10304 5.77968 0
M  V30 1443 H 140.835 -2.17426 7.24059 0
M  V30 1444 H 142.103 -3.34641 7.04014 0
M  V30 1445 N 146.332 -1.57332 0.0918853 0
M  V30 1446 C 147.265 -2.09499 -0.904735 0
M  V30 1447 C 148.243 -1.00479 -1.27839 0
M  V30 1448 O 149.427 -1.27954 -1.38419 0
M  V30 1449 C 146.554 -2.56931 -2.2069 0
M  V30 1450 C 145.6 -3.77579 -1.98334 0
M  V30 1451 S 146.433 -5.21317 -1.22428 0
M  V30 1452 C 147.589 -5.72097 -2.53882 0
M  V30 1453 H 147.822 -2.93705 -0.460922 0
M  V30 1454 H 145.355 -1.53923 -0.121332 0
M  V30 1455 H 147.313 -2.84917 -2.95521 0
M  V30 1456 H 145.974 -1.72956 -2.62192 0
M  V30 1457 H 145.167 -4.08824 -2.94752 0
M  V30 1458 H 144.769 -3.5007 -1.31633 0
M  V30 1459 H 147.061 -5.80168 -3.49874 0
M  V30 1460 H 148.004 -6.70654 -2.27219 0
M  V30 1461 H 148.412 -5.00012 -2.62007 0
M  V30 1462 N 147.81 0.181792 -1.56548 0
M  V30 1463 C 149.038 0.915947 -1.85521 0
M  V30 1464 C 149.453 1.76282 -0.676016 0
M  V30 1465 O 148.81 1.79012 0.355077 0
M  V30 1466 C 148.861 1.80126 -3.13427 0
M  V30 1467 O 148.582 0.988562 -4.26801 0
M  V30 1468 C 150.083 2.64597 -3.55673 0
M  V30 1469 H 147.303 0.26661 -0.61576 0
M  V30 1470 H 149.847 0.185039 -2.03661 0
M  V30 1471 H 148.002 2.48563 -2.97145 0
M  V30 1472 H 148.416 1.59308 -4.99721 0
M  V30 1473 H 149.89 3.2235 -4.48101 0
M  V30 1474 H 150.367 3.38958 -2.79292 0
M  V30 1475 H 150.973 2.0151 -3.74532 0
M  V30 1476 N 149.288 1.51039 0.449983 0
M  V30 1477 C 150.535 1.63081 1.20045 0
M  V30 1478 C 150.863 0.341024 1.91487 0
M  V30 1479 O 150.118 -0.674276 1.83717 0
M  V30 1480 C 150.417 2.77556 2.25161 0
M  V30 1481 C 150.083 4.17289 1.70823 0
M  V30 1482 C 148.745 4.55305 1.55725 0
M  V30 1483 C 151.097 5.04536 1.3074 0
M  V30 1484 C 148.425 5.78287 0.989999 0
M  V30 1485 C 150.777 6.28085 0.754482 0
M  V30 1486 C 149.441 6.64885 0.590308 0
M  V30 1487 H 148.711 0.596755 0.439277 0
M  V30 1488 H 151.358 1.85037 0.49333 0
M  V30 1489 H 149.663 2.49771 3.01863 0
M  V30 1490 H 151.36 2.84073 2.83026 0
M  V30 1491 H 147.95 3.8731 1.83546 0
M  V30 1492 H 152.134 4.75782 1.41229 0
M  V30 1493 H 147.39 6.05456 0.850451 0
M  V30 1494 H 151.564 6.95038 0.435324 0
M  V30 1495 H 149.191 7.60055 0.14862 0
M  V30 1496 N 150.766 -0.704594 1.40972 0
M  V30 1497 C 151.713 -1.81862 1.42109 0
M  V30 1498 C 152.683 -1.63781 0.276593 0
M  V30 1499 O 153.868 -1.84759 0.4763 0
M  V30 1500 C 151.008 -3.19669 1.30022 0
M  V30 1501 C 150.121 -3.49246 2.54267 0
M  V30 1502 C 149.256 -4.76618 2.3454 0
M  V30 1503 C 148.295 -4.99133 3.54306 0
M  V30 1504 N 147.432 -6.17726 3.33706 0
M  V30 1505 H 152.272 -1.80226 2.37324 0
M  V30 1506 H 149.809 -0.880238 1.17857 0
M  V30 1507 H 151.767 -3.99263 1.21018 0
M  V30 1508 H 150.397 -3.20506 0.384192 0
M  V30 1509 H 149.449 -2.64125 2.73756 0
M  V30 1510 H 150.761 -3.61788 3.43381 0
M  V30 1511 H 149.915 -5.64249 2.22952 0
M  V30 1512 H 148.654 -4.66305 1.42867 0
M  V30 1513 H 147.659 -4.09953 3.66359 0
M  V30 1514 H 148.884 -5.11311 4.4692 0
M  V30 1515 H 146.83 -6.08642 2.44725 0
M  V30 1516 H 146.747 -6.30995 4.16391 0
M  V30 1517 H 148.015 -7.08115 3.25873 0
M  V30 1518 N 152.244 -1.26651 -0.937939 0
M  V30 1519 C 153.174 -1.10993 -2.05433 0
M  V30 1520 C 154.155 -0.0142161 -1.70094 0
M  V30 1521 O 155.34 -0.186837 -1.93299 0
M  V30 1522 C 152.47 -0.745561 -3.39203 0
M  V30 1523 C 151.424 -1.79337 -3.88616 0
M  V30 1524 C 150.75 -1.28324 -5.19073 0
M  V30 1525 C 152.05 -3.19553 -4.13138 0
M  V30 1526 H 153.744 -2.0438 -2.1879 0
M  V30 1527 H 151.29 -0.984041 -1.05131 0
M  V30 1528 H 153.243 -0.622888 -4.16771 0
M  V30 1529 H 151.967 0.22401 -3.25831 0
M  V30 1530 H 150.626 -1.90477 -3.13231 0
M  V30 1531 H 150.274 -0.303414 -5.02084 0
M  V30 1532 H 149.974 -1.98369 -5.53103 0
M  V30 1533 H 151.498 -1.1733 -5.99221 0
M  V30 1534 H 152.912 -3.11471 -4.81309 0
M  V30 1535 H 151.309 -3.87218 -4.58457 0
M  V30 1536 H 152.379 -3.65368 -3.18801 0
M  V30 1537 N 153.722 1.14298 -1.08507 0
M  V30 1538 C 154.669 2.19414 -0.715965 0
M  V30 1539 C 155.639 1.63399 0.298326 0
M  V30 1540 O 156.824 1.89929 0.182101 0
M  V30 1541 C 153.964 3.44845 -0.132534 0
M  V30 1542 C 153.077 4.15007 -1.19973 0
M  V30 1543 C 152.212 5.28024 -0.580048 0
M  V30 1544 C 151.251 5.9002 -1.62921 0
M  V30 1545 N 150.388 6.94485 -1.03125 0
M  V30 1546 H 155.228 2.50336 -1.61666 0
M  V30 1547 H 152.765 1.2293 -0.807882 0
M  V30 1548 H 154.723 4.16601 0.223454 0
M  V30 1549 H 153.353 3.14403 0.731467 0
M  V30 1550 H 152.405 3.41629 -1.67313 0
M  V30 1551 H 153.717 4.57178 -1.99473 0
M  V30 1552 H 152.871 6.06455 -0.172364 0
M  V30 1553 H 151.61 4.87076 0.246603 0
M  V30 1554 H 150.615 5.10291 -2.04654 0
M  V30 1555 H 151.84 6.33042 -2.45835 0
M  V30 1556 H 149.786 6.55612 -0.225711 0
M  V30 1557 H 149.703 7.35148 -1.76334 0
M  V30 1558 H 150.971 7.7679 -0.649458 0
M  V30 1559 N 155.201 0.870884 1.31352 0
M  V30 1560 C 156.148 0.325425 2.28494 0
M  V30 1561 C 157.118 -0.576615 1.5577 0
M  V30 1562 O 158.303 -0.508059 1.83911 0
M  V30 1563 C 155.443 -0.466283 3.41935 0
M  V30 1564 C 154.556 0.463378 4.29508 0
M  V30 1565 C 153.691 -0.342544 5.30094 0
M  V30 1566 C 152.73 0.583486 6.09313 0
M  V30 1567 N 151.867 -0.186244 7.01853 0
M  V30 1568 H 156.707 1.15901 2.74538 0
M  V30 1569 H 154.244 0.58294 1.35056 0
M  V30 1570 H 156.202 -0.941085 4.06447 0
M  V30 1571 H 154.832 -1.26456 2.97 0
M  V30 1572 H 153.884 1.05663 3.65431 0
M  V30 1573 H 155.196 1.1734 4.84802 0
M  V30 1574 H 154.35 -0.879816 6.00287 0
M  V30 1575 H 153.089 -1.08585 4.75458 0
M  V30 1576 H 152.094 1.13251 5.3801 0
M  V30 1577 H 153.319 1.32566 6.66035 0
M  V30 1578 H 151.265 -0.912348 6.49625 0
M  V30 1579 H 151.182 0.464422 7.54572 0
M  V30 1580 H 152.45 -0.704716 7.76308 0
M  V30 1581 N 156.679 -1.44442 0.630414 0
M  V30 1582 C 157.589 -2.34476 -0.0761693 0
M  V30 1583 C 158.605 -1.52576 -0.836449 0
M  V30 1584 O 159.781 -1.85307 -0.788874 0
M  V30 1585 C 156.846 -3.30545 -1.04599 0
M  V30 1586 C 155.907 -4.28352 -0.28516 0
M  V30 1587 C 155.14 -5.19831 -1.20878 0
M  V30 1588 O 155.363 -5.15223 -2.44747 0
M  V30 1589 O 154.297 -5.97892 -0.693491 0
M  V30 1590 H 158.123 -2.96345 0.664324 0
M  V30 1591 H 155.708 -1.44203 0.39061 0
M  V30 1592 H 157.59 -3.89681 -1.60396 0
M  V30 1593 H 156.265 -2.7121 -1.76711 0
M  V30 1594 H 155.172 -3.72764 0.315837 0
M  V30 1595 H 156.505 -4.90605 0.395924 0
M  V30 1596 N 158.157 -0.370918 -1.53173 0
M  V30 1597 C 159.12 0.460778 -2.24521 0
M  V30 1598 C 160.12 1.00536 -1.25496 0
M  V30 1599 O 161.31 0.890266 -1.49733 0
M  V30 1600 C 158.442 1.64457 -2.98608 0
M  V30 1601 H 159.635 -0.163613 -2.99453 0
M  V30 1602 H 157.188 -0.122699 -1.55818 0
M  V30 1603 H 157.923 2.30691 -2.2793 0
M  V30 1604 H 157.708 1.26099 -3.7127 0
M  V30 1605 H 159.198 2.23384 -3.5283 0
M  V30 1606 N 159.635 1.57281 -0.100228 0
M  V30 1607 C 160.912 1.86014 0.604812 0
M  V30 1608 C 161.292 0.998025 1.86018 0
M  V30 1609 O 160.64 0.0718184 2.28387 0
M  V30 1610 C 160.85 3.36784 0.915278 0
M  V30 1611 C 162.198 4.04957 1.27651 0
M  V30 1612 O 163.222 3.41695 1.00613 0
M  V30 1613 O 162.081 5.16593 1.7831 0
M  V30 1614 H 159.175 0.76942 0.303185 0
M  V30 1615 H 161.721 1.69176 -0.133313 0
M  V30 1616 H 160.493 3.91292 0.0248896 0
M  V30 1617 H 160.116 3.58987 1.70921 0
M  V30 1618 N 161.113 -0.173488 1.56642 0
M  V30 1619 C 162.076 -1.19859 1.95362 0
M  V30 1620 C 163.076 -1.37296 0.83704 0
M  V30 1621 O 164.266 -1.34739 1.10413 0
M  V30 1622 C 161.398 -2.56405 2.24654 0
M  V30 1623 H 162.591 -0.867062 2.87092 0
M  V30 1624 H 160.144 -0.415853 1.50666 0
M  V30 1625 H 160.879 -2.94576 1.35631 0
M  V30 1626 H 160.664 -2.45115 3.06041 0
M  V30 1627 H 162.154 -3.30287 2.5554 0
M  V30 1628 N 162.591 -1.51276 -0.441967 0
M  V30 1629 C 163.541 -1.6864 -1.53442 0
M  V30 1630 C 164.525 -0.540444 -1.51552 0
M  V30 1631 O 165.717 -0.796157 -1.58083 0
M  V30 1632 C 162.846 -1.8106 -2.91672 0
M  V30 1633 C 161.932 -3.01424 -2.98336 0
M  V30 1634 N 162.323 -4.2467 -2.74752 0
M  V30 1635 C 160.621 -3.00584 -3.29493 0
M  V30 1636 C 161.322 -5.05891 -2.87139 0
M  V30 1637 N 160.298 -4.40442 -3.18609 0
M  V30 1638 H 164.1 -2.61598 -1.33954 0
M  V30 1639 H 161.614 -1.4886 -0.6492 0
M  V30 1640 H 163.611 -1.91609 -3.70259 0
M  V30 1641 H 162.271 -0.892795 -3.12185 0
M  V30 1642 H 163.282 -4.53691 -2.49769 0
M  V30 1643 H 159.959 -2.18417 -3.55809 0
M  V30 1644 H 161.349 -6.13983 -2.72899 0
M  V30 1645 N 164.069 0.697108 -1.41344 0
M  V30 1646 C 165.017 1.83237 -1.43272 0
M  V30 1647 C 166.011 1.66522 -0.310947 0
M  V30 1648 O 167.217 1.73402 -0.482899 0
M  V30 1649 H 163.592 0.603802 -0.448249 0
M  V30 1650 H 165.563 1.78727 -2.38954 0
M  V30 1651 C 164.312 3.21245 -1.33029 0
M  V30 1652 H 163.635 3.34723 -2.18633 0
M  V30 1653 H 165.075 4.00763 -1.38439 0
M  V30 1654 C 163.534 3.36873 -0.0424635 0
M  V30 1655 O 164.064 3.91177 0.913421 0
M  V30 1656 N 162.27 2.90581 0.0331145 0
M  V30 1657 H 161.817 2.46577 -0.745506 0
M  V30 1658 H 161.775 3.01416 0.894199 0
M  V30 1659 N 165.547 1.27147 0.931209 0
M  V30 1660 C 166.796 1.12664 1.67302 0
M  V30 1661 C 167.109 -0.327718 1.92835 0
M  V30 1662 O 168.315 -0.593392 2.64936 0
M  V30 1663 C 166.771 1.9683 3.01307 0
M  V30 1664 C 166.379 3.46901 2.83485 0
M  V30 1665 C 168.123 1.90985 3.79111 0
M  V30 1666 C 166.03 4.23279 4.13024 0
M  V30 1667 H 164.96 0.41803 0.627509 0
M  V30 1668 H 167.611 1.51539 1.03481 0
M  V30 1669 H 165.993 1.50797 3.66164 0
M  V30 1670 H 167.167 4.00773 2.27415 0
M  V30 1671 H 165.482 3.54088 2.19113 0
M  V30 1672 H 168.079 2.45328 4.75098 0
M  V30 1673 H 168.422 0.882718 4.06834 0
M  V30 1674 H 168.955 2.34895 3.21044 0
M  V30 1675 H 165.694 5.26503 3.90481 0
M  V30 1676 H 165.214 3.74186 4.6877 0
M  V30 1677 H 166.893 4.32265 4.81411 0
M  V30 1678 N 167.025 -1.13721 1.09112 0
M  V30 1679 C 168.271 -1.85413 0.836283 0
M  V30 1680 C 168.626 -1.8175 -0.631249 0
M  V30 1681 O 167.919 -1.24238 -1.45861 0
M  V30 1682 C 168.113 -3.32861 1.30146 0
M  V30 1683 C 167.942 -3.50882 2.81268 0
M  V30 1684 C 166.712 -3.65312 3.49106 0
M  V30 1685 C 168.91 -3.47196 3.7942 0
M  V30 1686 N 166.892 -3.71563 4.88686 0
M  V30 1687 C 168.263 -3.59777 5.04936 0
M  V30 1688 C 170.318 -3.30577 3.72321 0
M  V30 1689 C 169.021 -3.57455 6.24194 0
M  V30 1690 C 171.047 -3.29562 4.91063 0
M  V30 1691 C 170.409 -3.42691 6.15421 0
M  V30 1692 H 166.508 -0.694812 0.358832 0
M  V30 1693 H 169.092 -1.36246 1.39087 0
M  V30 1694 H 167.263 -3.80602 0.774361 0
M  V30 1695 H 168.995 -3.92346 0.99229 0
M  V30 1696 H 165.75 -3.6685 2.9953 0
M  V30 1697 H 166.174 -3.78387 5.61384 0
M  V30 1698 H 170.816 -3.19332 2.77105 0
M  V30 1699 H 168.534 -3.67475 7.19714 0
M  V30 1700 H 172.12 -3.17905 4.87266 0
M  V30 1701 H 171 -3.41862 7.05762 0
M  V30 1702 N 168.503 -0.877838 -1.30888 0
M  V30 1703 C 169.466 -0.344265 -2.266 0
M  V30 1704 C 170.466 0.50922 -1.52524 0
M  V30 1705 O 171.656 0.317398 -1.71284 0
M  V30 1706 C 168.788 0.510198 -3.37061 0
M  V30 1707 H 169.981 -1.1893 -2.7531 0
M  V30 1708 H 167.534 -0.654088 -1.41956 0
M  V30 1709 H 168.269 1.37612 -2.93655 0
M  V30 1710 H 168.054 -0.101047 -3.9197 0
M  V30 1711 H 169.544 0.875537 -4.08319 0
M  V30 1712 N 169.982 1.44106 -0.638065 0
M  V30 1713 C 171.212 2.06037 -0.152394 0
M  V30 1714 C 171.62 1.47808 1.18108 0
M  V30 1715 O 170.963 0.598092 1.73691 0
M  V30 1716 C 171.025 3.59488 0.0293714 0
M  V30 1717 C 170.689 4.4022 -1.22702 0
M  V30 1718 C 171.686 4.73256 -2.15232 0
M  V30 1719 C 169.371 4.8048 -1.46437 0
M  V30 1720 C 171.365 5.45444 -3.29802 0
M  V30 1721 C 169.052 5.52417 -2.61303 0
M  V30 1722 C 170.05 5.84819 -3.52811 0
M  V30 1723 O 169.738 6.55289 -4.65673 0
M  V30 1724 H 169.47 0.671233 -0.0801401 0
M  V30 1725 H 172.024 1.85851 -0.874563 0
M  V30 1726 H 170.254 3.78191 0.806758 0
M  V30 1727 H 171.943 4.03164 0.470475 0
M  V30 1728 H 172.709 4.42684 -1.98131 0
M  V30 1729 H 168.588 4.54676 -0.760977 0
M  V30 1730 H 172.132 5.70653 -4.01249 0
M  V30 1731 H 168.029 5.82404 -2.78344 0
M  V30 1732 H 168.797 6.73762 -4.64744 0
M  V30 1733 N 171.46 0.379036 1.52974 0
M  V30 1734 C 172.39 -0.452706 2.29069 0
M  V30 1735 C 173.371 -1.07237 1.32039 0
M  V30 1736 O 174.556 -1.08708 1.60923 0
M  V30 1737 C 171.686 -1.5856 3.08992 0
M  V30 1738 C 170.64 -1.0925 4.13822 0
M  V30 1739 C 169.966 -2.31668 4.81907 0
M  V30 1740 C 171.266 -0.167702 5.22031 0
M  V30 1741 H 172.96 0.182181 2.98845 0
M  V30 1742 H 170.506 0.0890592 1.43724 0
M  V30 1743 H 172.459 -2.1742 3.6098 0
M  V30 1744 H 171.183 -2.24792 2.36931 0
M  V30 1745 H 169.842 -0.526494 3.628 0
M  V30 1746 H 169.49 -2.96386 4.06404 0
M  V30 1747 H 169.19 -1.9934 5.52754 0
M  V30 1748 H 170.714 -2.91189 5.36695 0
M  V30 1749 H 172.128 -0.664186 5.6944 0
M  V30 1750 H 170.525 0.0653265 6.00064 0
M  V30 1751 H 171.595 0.786347 4.78482 0
M  V30 1752 N 172.938 -1.57226 0.108567 0
M  V30 1753 C 173.87 -2.11809 -0.875752 0
M  V30 1754 C 174.883 -1.05839 -1.23701 0
M  V30 1755 O 176.072 -1.33245 -1.18778 0
M  V30 1756 C 173.172 -2.59411 -2.18081 0
M  V30 1757 C 172.345 -3.89364 -1.99284 0
M  V30 1758 C 171.404 -4.22672 -3.13424 0
M  V30 1759 O 170.43 -4.91668 -2.86795 0
M  V30 1760 N 171.632 -3.79154 -4.3957 0
M  V30 1761 H 174.397 -2.9689 -0.409477 0
M  V30 1762 H 171.958 -1.61721 -0.076158 0
M  V30 1763 H 173.95 -2.7873 -2.93414 0
M  V30 1764 H 172.52 -1.79268 -2.5609 0
M  V30 1765 H 171.74 -3.79059 -1.08203 0
M  V30 1766 H 173.028 -4.74358 -1.84017 0
M  V30 1767 H 172.426 -3.23486 -4.64083 0
M  V30 1768 H 170.983 -4.03602 -5.11809 0
M  V30 1769 N 174.416 0.165178 -1.56732 0
M  V30 1770 C 175.348 1.22911 -1.93457 0
M  V30 1771 C 176.361 1.40152 -0.828333 0
M  V30 1772 O 177.55 1.40046 -1.10677 0
M  V30 1773 C 174.65 2.59686 -2.17753 0
M  V30 1774 C 173.823 2.63663 -3.48999 0
M  V30 1775 C 172.882 3.81845 -3.62051 0
M  V30 1776 O 171.908 3.67559 -4.34613 0
M  V30 1777 N 173.11 4.98557 -2.97357 0
M  V30 1778 H 175.875 0.917118 -2.85323 0
M  V30 1779 H 173.436 0.354895 -1.57962 0
M  V30 1780 H 175.428 3.37225 -2.23743 0
M  V30 1781 H 173.998 2.83251 -1.32242 0
M  V30 1782 H 173.218 1.72173 -3.54612 0
M  V30 1783 H 174.506 2.63336 -4.35352 0
M  V30 1784 H 173.904 5.13065 -2.38287 0
M  V30 1785 H 172.461 5.73936 -3.08934 0
M  V30 1786 N 175.894 1.51508 0.433938 0
M  V30 1787 C 177.14 1.64588 1.18484 0
M  V30 1788 C 177.473 0.362666 1.90784 0
M  V30 1789 O 176.748 -0.637892 1.83742 0
M  V30 1790 C 177.031 2.85149 2.19913 0
M  V30 1791 C 176.884 4.23456 1.51674 0
M  V30 1792 C 178.203 3.01227 3.20858 0
M  V30 1793 H 175.322 0.598994 0.429389 0
M  V30 1794 H 177.964 1.84002 0.473647 0
M  V30 1795 H 176.114 2.68729 2.80566 0
M  V30 1796 H 177.786 4.51552 0.943322 0
M  V30 1797 H 176.029 4.25998 0.819035 0
M  V30 1798 H 176.7 5.03812 2.2556 0
M  V30 1799 H 179.176 3.16382 2.70263 0
M  V30 1800 H 178.052 3.87141 3.89118 0
M  V30 1801 H 178.313 2.13447 3.8716 0
M  V30 1802 N 177.372 -0.689602 1.41712 0
M  V30 1803 C 178.335 -1.78521 1.43746 0
M  V30 1804 C 179.335 -1.57436 0.327191 0
M  V30 1805 O 180.525 -1.64 0.587348 0
M  V30 1806 C 177.657 -3.16971 1.25467 0
M  V30 1807 H 178.85 -1.78108 2.41283 0
M  V30 1808 H 176.403 -0.89781 1.27942 0
M  V30 1809 H 177.138 -3.23019 0.287948 0
M  V30 1810 H 176.923 -3.33678 2.05917 0
M  V30 1811 H 178.413 -3.96935 1.2974 0
M  V30 1812 N 178.85 -1.27639 -0.924453 0
M  V30 1813 C 180.096 -1.14336 -1.67497 0
M  V30 1814 C 180.429 0.309465 -1.91718 0
M  V30 1815 O 179.704 1.22608 -1.50989 0
M  V30 1816 C 179.987 -1.93096 -3.0395 0
M  V30 1817 C 179.84 -3.46381 -2.8695 0
M  V30 1818 C 181.159 -1.73798 -4.0433 0
M  V30 1819 H 178.278 -0.416728 -0.607871 0
M  V30 1820 H 180.92 -1.56832 -1.07256 0
M  V30 1821 H 179.07 -1.56982 -3.55372 0
M  V30 1822 H 180.742 -3.92343 -2.42621 0
M  V30 1823 H 178.985 -3.72557 -2.22225 0
M  V30 1824 H 179.656 -3.96735 -3.83804 0
M  V30 1825 H 182.132 -2.05293 -3.61931 0
M  V30 1826 H 181.008 -2.31294 -4.97789 0
M  V30 1827 H 181.269 -0.686725 -4.36734 0
M  V30 1828 N 180.328 1.1314 -1.09713 0
M  V30 1829 C 181.744 1.36477 -0.827423 0
M  V30 1830 C 181.944 1.93654 0.556817 0
M  V30 1831 O 181 2.15791 1.31112 0
M  V30 1832 C 182.313 2.31334 -1.92106 0
M  V30 1833 C 183.861 2.44943 -1.94864 0
M  V30 1834 C 184.336 3.4311 -3.0338 0
M  V30 1835 N 185.827 3.50662 -3.02639 0
M  V30 1836 C 186.562 4.2651 -3.83246 0
M  V30 1837 N 186.058 5.05485 -4.73768 0
M  V30 1838 N 187.851 4.2184 -3.71493 0
M  V30 1839 H 180.002 0.743807 -1.9895 0
M  V30 1840 H 182.265 0.389823 -0.864143 0
M  V30 1841 H 181.971 1.96483 -2.91698 0
M  V30 1842 H 181.845 3.31381 -1.80184 0
M  V30 1843 H 184.232 2.79079 -0.959099 0
M  V30 1844 H 184.313 1.4481 -2.10864 0
M  V30 1845 H 183.957 3.09704 -4.02549 0
M  V30 1846 H 183.887 4.43055 -2.84622 0
M  V30 1847 H 186.378 2.94315 -2.37039 0
M  V30 1848 H 186.691 5.60675 -5.3185 0
M  V30 1849 H 185.036 5.04708 -4.77802 0
M  V30 1850 H 188.227 3.5922 -3.00131 0
M  V30 1851 H 188.4 4.80697 -4.3455 0
M  V30 1852 N 181.806 0.884767 1.30421 0
M  V30 1853 C 183.217 0.553656 1.78302 0
M  V30 1854 C 183.568 -0.930153 1.7275 0
M  V30 1855 O 182.693 -1.72681 1.30423 0
M  V30 1856 C 183.288 0.998234 3.2376 0
M  V30 1857 C 181.847 0.71854 3.69478 0
M  V30 1858 C 180.994 1.18132 2.50879 0
M  V30 1859 H 183.945 1.06901 1.17294 0
M  V30 1860 H 183.966 0.327118 3.79091 0
M  V30 1861 H 183.478 2.0782 3.27769 0
M  V30 1862 H 181.579 -0.349444 3.70958 0
M  V30 1863 H 181.692 1.30595 4.60958 0
M  V30 1864 H 180.056 0.600669 2.47516 0
M  V30 1865 H 180.839 2.26902 2.57624 0
M  V30 1866 O 183.323 -1.41116 0.785407 0
M  V30 1867 H 184.014 -1.90435 0.354159 0
M  V30 END ATOM
M  V30 BEGIN BOND
M  V30 END BOND
M  V30 END CTAB
M  END
$$$$
