drugbank_target|Q5JXX5 Glycine receptor subunit alpha-4 (DB01043)
 OpenBabel12092121193D

  0  0  0     0  0            999 V3000
M  V30 BEGIN CTAB
M  V30 COUNTS 6739 6818 0 0 0
M  V30 BEGIN ATOM
M  V30 1 H -0.908 1.98254 -0.117106 0
M  V30 2 N 0 1.576 0 0
M  V30 3 C 0.933 2.03868 1.02534 0
M  V30 4 C 1.911 0.928543 1.3348 0
M  V30 5 O 3.095 1.19667 1.45644 0
M  V30 6 C 0.222 2.43627 2.35294 0
M  V30 7 C -0.732 3.65373 2.2001 0
M  V30 8 S 0.101 5.13292 1.52614 0
M  V30 9 C 1.257 5.56322 2.86805 0
M  V30 10 H 1.49 2.90518 0.631377 0
M  V30 11 H -0.977 1.52953 0.210867 0
M  V30 12 H 0.981 2.67203 3.11629 0
M  V30 13 H -0.358 1.57376 2.7183 0
M  V30 14 H -1.165 3.90944 3.18086 0
M  V30 15 H -1.563 3.418 1.51819 0
M  V30 16 H 0.729 5.58782 3.83104 0
M  V30 17 H 1.672 6.56266 2.65933 0
M  V30 18 H 2.08 4.83886 2.90714 0
M  V30 19 N 1.4781 -0.272755 1.55222 0
M  V30 20 C 2.7061 -1.02255 1.79865 0
M  V30 21 C 3.1211 -1.79924 0.572088 0
M  V30 22 O 2.4781 -1.76638 -0.458842 0
M  V30 23 C 2.5291 -1.98094 3.02392 0
M  V30 24 O 2.2501 -1.23572 4.20311 0
M  V30 25 C 3.7511 -2.84884 3.39641 0
M  V30 26 H 0.9711 -0.302057 0.599168 0
M  V30 27 H 3.5151 -0.303465 2.02236 0
M  V30 28 H 1.6701 -2.65465 2.82147 0
M  V30 29 H 2.0841 -1.88172 4.89583 0
M  V30 30 H 3.5581 -3.47927 4.28545 0
M  V30 31 H 4.0351 -3.54665 2.59055 0
M  V30 32 H 4.6411 -2.23003 3.62146 0
M  V30 33 N 2.9562 -1.48159 -0.537278 0
M  V30 34 C 4.1842 -1.59454 -1.31841 0
M  V30 35 C 4.5992 -0.252065 -1.8711 0
M  V30 36 O 3.9562 0.757621 -1.66031 0
M  V30 37 C 4.0072 -2.63546 -2.47439 0
M  V30 38 O 3.7282 -3.92583 -1.94449 0
M  V30 39 C 5.2292 -2.85212 -3.39366 0
M  V30 40 H 2.4492 -0.53785 -0.401196 0
M  V30 41 H 4.9932 -1.93932 -0.648891 0
M  V30 42 H 3.1482 -2.31946 -3.1029 0
M  V30 43 H 3.5622 -4.49629 -2.70063 0
M  V30 44 H 5.0362 -3.61863 -4.16844 0
M  V30 45 H 5.5132 -1.93765 -3.94147 0
M  V30 46 H 6.1192 -3.18086 -2.82314 0
M  V30 47 N 4.4343 0.785586 -1.36625 0
M  V30 48 C 5.3643 1.91259 -1.33949 0
M  V30 49 C 6.3453 1.68795 -0.210325 0
M  V30 50 O 7.5303 1.89854 -0.408561 0
M  V30 51 C 4.6603 3.28339 -1.13186 0
M  V30 52 C 3.6143 3.65335 -2.22967 0
M  V30 53 C 2.9403 5.00806 -1.87342 0
M  V30 54 C 4.2403 3.7352 -3.65075 0
M  V30 55 H 5.9343 1.93755 -2.28253 0
M  V30 56 H 3.4803 0.930788 -1.09874 0
M  V30 57 H 5.4333 4.06804 -1.09948 0
M  V30 58 H 4.1573 3.2624 -0.153332 0
M  V30 59 H 2.8163 2.89169 -2.25337 0
M  V30 60 H 2.4643 4.95233 -0.880545 0
M  V30 61 H 2.1643 5.26529 -2.60846 0
M  V30 62 H 3.6883 5.81687 -1.85667 0
M  V30 63 H 5.1023 4.42168 -3.64911 0
M  V30 64 H 3.4993 4.10731 -4.37516 0
M  V30 65 H 4.5693 2.74527 -3.99703 0
M  V30 66 N 5.9124 1.20967 1.01018 0
M  V30 67 C 7.1584 1.02526 1.74975 0
M  V30 68 C 7.4914 -0.4408 1.89131 0
M  V30 69 O 6.7664 -1.32718 1.42184 0
M  V30 70 C 7.0494 1.71699 3.1653 0
M  V30 71 C 6.9024 3.25791 3.10129 0
M  V30 72 C 8.2214 1.45531 4.15342 0
M  V30 73 H 5.3404 0.373863 0.635134 0
M  V30 74 H 7.9824 1.49071 1.17805 0
M  V30 75 H 6.1324 1.32128 3.65341 0
M  V30 76 H 7.8044 3.74697 2.69072 0
M  V30 77 H 6.0474 3.56363 2.47362 0
M  V30 78 H 6.7184 3.69353 4.10222 0
M  V30 79 H 9.1944 1.79872 3.75213 0
M  V30 80 H 8.0704 1.96453 5.1254 0
M  V30 81 H 8.3314 0.384237 4.40427 0
M  V30 82 N 7.3905 -1.2043 1.01659 0
M  V30 83 C 8.8015 -1.71517 0.737482 0
M  V30 84 C 9.1525 -1.81547 -0.743973 0
M  V30 85 O 8.2775 -1.47803 -1.58061 0
M  V30 86 C 8.8725 -3.11515 1.33206 0
M  V30 87 C 7.4315 -3.59912 1.10183 0
M  V30 88 C 6.5785 -2.37116 1.43776 0
M  V30 89 H 9.5295 -1.05444 1.18606 0
M  V30 90 H 9.5505 -3.73575 0.722636 0
M  V30 91 H 9.0625 -3.04182 2.41028 0
M  V30 92 H 7.1635 -3.72577 0.0412756 0
M  V30 93 H 7.2765 -4.44731 1.78188 0
M  V30 94 H 5.6405 -2.39857 0.856778 0
M  V30 95 H 6.4235 -2.32424 2.52654 0
M  V30 96 N 8.8686 -0.792821 -1.36206 0
M  V30 97 C 9.8316 -0.199459 -2.2833 0
M  V30 98 C 10.8316 0.605189 -1.48977 0
M  V30 99 O 12.0216 0.425685 -1.68919 0
M  V30 100 C 9.1536 0.723523 -3.33134 0
M  V30 101 H 10.3466 -1.01181 -2.82316 0
M  V30 102 H 7.8996 -0.562485 -1.45828 0
M  V30 103 H 8.6346 1.56008 -2.84309 0
M  V30 104 H 8.4196 0.148436 -3.91819 0
M  V30 105 H 9.9096 1.13344 -4.01924 0
M  V30 106 N 10.3467 1.47872 -0.545128 0
M  V30 107 C 11.5747 2.06889 -0.021084 0
M  V30 108 C 11.9897 1.39955 1.2672 0
M  V30 109 O 11.3467 0.492036 1.75742 0
M  V30 110 C 11.3977 3.60996 0.190817 0
M  V30 111 O 11.1187 4.25419 -1.04644 0
M  V30 112 C 12.6197 4.36849 0.753521 0
M  V30 113 H 9.8397 0.669785 -0.0403635 0
M  V30 114 H 12.3837 1.90049 -0.755095 0
M  V30 115 H 10.5387 3.77391 0.87492 0
M  V30 116 H 10.9527 5.17785 -0.836611 0
M  V30 117 H 12.4267 5.45399 0.851139 0
M  V30 118 H 12.9037 4.02306 1.762 0
M  V30 119 H 13.5097 4.25169 0.105503 0
M  V30 120 N 11.8248 0.280983 1.55075 0
M  V30 121 C 12.7548 -0.597469 2.25727 0
M  V30 122 C 13.7358 -1.15417 1.24952 0
M  V30 123 O 14.9208 -1.18722 1.53684 0
M  V30 124 C 12.0508 -1.7789 2.98283 0
M  V30 125 C 11.0048 -1.35347 4.06036 0
M  V30 126 C 10.3308 -2.61846 4.66198 0
M  V30 127 C 11.6308 -0.499354 5.19907 0
M  V30 128 H 13.3248 -0.00824265 2.99399 0
M  V30 129 H 10.8708 -0.0025244 1.44 0
M  V30 130 H 12.8238 -2.39937 3.46422 0
M  V30 131 H 11.5478 -2.39405 2.22155 0
M  V30 132 H 10.2068 -0.756156 3.58717 0
M  V30 133 H 9.8548 -3.21632 3.86732 0
M  V30 134 H 9.5548 -2.3409 5.38958 0
M  V30 135 H 11.0788 -3.24732 5.1709 0
M  V30 136 H 12.4928 -1.02498 5.64063 0
M  V30 137 H 10.8898 -0.316424 5.99265 0
M  V30 138 H 11.9598 0.480459 4.82514 0
M  V30 139 N 13.3029 -1.57598 0.00835791 0
M  V30 140 C 14.5279 -1.95617 -0.689103 0
M  V30 141 C 14.9529 -0.883753 -1.66046 0
M  V30 142 O 14.3109 0.157352 -1.80616 0
M  V30 143 C 14.3589 -3.32736 -1.38994 0
M  V30 144 O 13.4629 -3.27631 -2.50463 0
M  V30 145 H 12.8039 -0.638379 -0.182668 0
M  V30 146 H 15.3339 -2.045 0.064036 0
M  V30 147 H 15.3439 -3.68494 -1.75147 0
M  V30 148 H 14.0189 -4.1034 -0.677778 0
M  V30 149 H 12.5959 -3.03561 -2.16576 0
M  V30 150 N 14.781 0.264519 -1.55364 0
M  V30 151 C 16.028 0.994986 -1.7637 0
M  V30 152 C 16.356 1.85976 -0.5695 0
M  V30 153 O 15.611 1.90509 0.44776 0
M  V30 154 C 15.91 1.9004 -3.02687 0
M  V30 155 C 15.576 1.19243 -4.34847 0
M  V30 156 C 14.238 0.996709 -4.70764 0
M  V30 157 C 16.59 0.689296 -5.16622 0
M  V30 158 C 13.918 0.285261 -5.86006 0
M  V30 159 C 16.27 -0.00860079 -6.32599 0
M  V30 160 C 14.934 -0.215963 -6.67151 0
M  V30 161 H 14.204 0.364091 -0.645383 0
M  V30 162 H 16.851 0.266543 -1.89636 0
M  V30 163 H 15.156 2.69533 -2.84357 0
M  V30 164 H 16.853 2.46695 -3.16137 0
M  V30 165 H 13.443 1.3549 -4.06621 0
M  V30 166 H 17.627 0.828108 -4.89342 0
M  V30 167 H 12.883 0.113961 -6.11294 0
M  V30 168 H 17.057 -0.406186 -6.95214 0
M  V30 169 H 14.684 -0.769217 -7.56298 0
M  V30 170 N 16.2591 1.48442 0.529413 0
M  V30 171 C 17.1891 1.65902 1.64313 0
M  V30 172 C 18.1701 0.507897 1.6234 0
M  V30 173 O 19.3551 0.740503 1.79528 0
M  V30 174 C 16.4851 1.69911 3.02898 0
M  V30 175 C 15.4391 2.8453 3.19729 0
M  V30 176 C 14.7651 2.73629 4.59381 0
M  V30 177 C 16.0651 4.25821 3.02447 0
M  V30 178 H 17.7591 2.5914 1.49955 0
M  V30 179 H 15.3051 1.24709 0.719982 0
M  V30 180 H 17.2581 1.80715 3.80684 0
M  V30 181 H 15.9821 0.732524 3.18279 0
M  V30 182 H 14.6411 2.73283 2.44361 0
M  V30 183 H 14.2891 1.74938 4.71599 0
M  V30 184 H 13.9891 3.50541 4.71588 0
M  V30 185 H 15.5131 2.86401 5.39265 0
M  V30 186 H 16.9271 4.37898 3.70024 0
M  V30 187 H 15.3241 5.03735 3.26146 0
M  V30 188 H 16.3941 4.42244 1.98867 0
M  V30 189 N 17.7372 -0.778329 1.37039 0
M  V30 190 C 18.6672 -1.90546 1.34962 0
M  V30 191 C 19.6482 -1.68681 0.219274 0
M  V30 192 O 20.8332 -1.89634 0.418624 0
M  V30 193 C 17.9632 -3.27734 1.14925 0
M  V30 194 C 16.9172 -3.64147 2.24902 0
M  V30 195 C 16.2432 -4.99806 1.89996 0
M  V30 196 C 17.5432 -3.71579 3.67051 0
M  V30 197 H 19.2372 -1.92541 2.29277 0
M  V30 198 H 16.7832 -0.924948 1.10366 0
M  V30 199 H 18.7362 -4.06215 1.12104 0
M  V30 200 H 17.4602 -3.26154 0.170631 0
M  V30 201 H 16.1192 -2.8797 2.26868 0
M  V30 202 H 15.7672 -4.94759 0.906796 0
M  V30 203 H 15.4672 -5.25139 2.63634 0
M  V30 204 H 16.9912 -5.80694 1.88749 0
M  V30 205 H 18.4052 -4.40227 3.67251 0
M  V30 206 H 16.8022 -4.08405 4.39688 0
M  V30 207 H 17.8722 -2.72404 4.01154 0
M  V30 208 N 19.2153 -1.21501 -1.00376 0
M  V30 209 C 20.1453 -0.999478 -2.11028 0
M  V30 210 C 21.1263 0.0759671 -1.6993 0
M  V30 211 O 22.3113 -0.0841106 -1.94018 0
M  V30 212 C 19.4413 -0.564709 -3.42678 0
M  V30 213 C 18.3953 -1.58486 -3.97576 0
M  V30 214 C 17.7213 -1.00628 -5.25146 0
M  V30 215 C 19.0213 -2.97204 -4.29496 0
M  V30 216 H 20.7153 -1.92495 -2.29317 0
M  V30 217 H 18.2613 -0.92693 -1.102 0
M  V30 218 H 20.2143 -0.401091 -4.19487 0
M  V30 219 H 18.9383 0.396411 -3.24185 0
M  V30 220 H 17.5973 -1.73606 -3.22888 0
M  V30 221 H 17.2453 -0.0368439 -5.02987 0
M  V30 222 H 16.9453 -1.68771 -5.62841 0
M  V30 223 H 18.4693 -0.854015 -6.04598 0
M  V30 224 H 19.8833 -2.8552 -4.97143 0
M  V30 225 H 18.2803 -3.62372 -4.78338 0
M  V30 226 H 19.3503 -3.47956 -3.3772 0
M  V30 227 N 20.6934 1.19889 -1.02296 0
M  V30 228 C 21.9394 1.89973 -0.726759 0
M  V30 229 C 22.2944 1.7776 0.73614 0
M  V30 230 O 21.5874 1.15523 1.52856 0
M  V30 231 C 21.7814 3.39883 -1.10518 0
M  V30 232 C 21.6104 3.66684 -2.60332 0
M  V30 233 C 20.3804 3.85045 -3.27213 0
M  V30 234 C 22.5784 3.68727 -3.58532 0
M  V30 235 N 20.5604 3.99422 -4.66192 0
M  V30 236 C 21.9314 3.88604 -4.83101 0
M  V30 237 C 23.9864 3.51722 -3.52414 0
M  V30 238 C 22.6894 3.9324 -6.02292 0
M  V30 239 C 24.7154 3.57632 -4.71013 0
M  V30 240 C 24.0774 3.77988 -5.94394 0
M  V30 241 H 20.1764 0.714551 -0.317712 0
M  V30 242 H 22.7604 1.44123 -1.30907 0
M  V30 243 H 20.9314 3.8447 -0.551142 0
M  V30 244 H 22.6634 3.97464 -0.761853 0
M  V30 245 H 19.4184 3.83689 -2.77632 0
M  V30 246 H 19.8424 4.10473 -5.38368 0
M  V30 247 H 24.4844 3.34945 -2.58015 0
M  V30 248 H 22.2024 4.08811 -6.97065 0
M  V30 249 H 25.7884 3.45773 -4.67902 0
M  V30 250 H 24.6684 3.82428 -6.8463 0
M  V30 251 N 22.1715 0.800033 1.35784 0
M  V30 252 C 23.3995 0.389606 2.03199 0
M  V30 253 C 23.8145 -0.997375 1.60306 0
M  V30 254 O 23.1715 -1.64154 0.797481 0
M  V30 255 C 23.2225 0.455855 3.58614 0
M  V30 256 O 22.9435 1.78815 3.99946 0
M  V30 257 C 24.4445 0.0374032 4.43284 0
M  V30 258 H 21.6645 0.159132 0.651857 0
M  V30 259 H 24.2085 1.08183 1.73541 0
M  V30 260 H 22.3635 -0.188057 3.86943 0
M  V30 261 H 22.7775 1.74636 4.94573 0
M  V30 262 H 24.2515 0.134882 5.51835 0
M  V30 263 H 24.7285 -1.01651 4.27275 0
M  V30 264 H 25.3345 0.654215 4.20238 0
M  V30 265 N 23.6496 -1.47581 0.552962 0
M  V30 266 C 24.5796 -2.32762 -0.185451 0
M  V30 267 C 25.5606 -1.43527 -0.912905 0
M  V30 268 O 26.7456 -1.72388 -0.894201 0
M  V30 269 C 23.8756 -3.25219 -1.21859 0
M  V30 270 C 22.8296 -4.23661 -0.607864 0
M  V30 271 C 22.1556 -5.05413 -1.74533 0
M  V30 272 C 23.4556 -5.20481 0.435582 0
M  V30 273 H 25.1496 -2.94749 0.525684 0
M  V30 274 H 22.6956 -1.41738 0.254251 0
M  V30 275 H 24.6486 -3.8365 -1.7433 0
M  V30 276 H 23.3726 -2.61279 -1.95961 0
M  V30 277 H 22.0316 -3.66451 -0.104489 0
M  V30 278 H 21.6796 -4.3788 -2.47529 0
M  V30 279 H 21.3796 -5.72059 -1.34249 0
M  V30 280 H 22.9036 -5.66701 -2.27338 0
M  V30 281 H 24.3176 -5.733 -0.00290157 0
M  V30 282 H 22.7146 -5.95305 0.757067 0
M  V30 283 H 23.7846 -4.66217 1.33303 0
M  V30 284 N 25.1277 -0.289203 -1.54924 0
M  V30 285 C 26.5387 0.205791 -1.85562 0
M  V30 286 C 26.8897 1.54351 -1.2112 0
M  V30 287 O 26.0147 2.10435 -0.504601 0
M  V30 288 C 26.6097 0.380177 -3.3666 0
M  V30 289 C 25.1687 0.819395 -3.67373 0
M  V30 290 C 24.3157 -0.079159 -2.77187 0
M  V30 291 H 27.2667 -0.510577 -1.50262 0
M  V30 292 H 27.2877 1.21659 -3.60526 0
M  V30 293 H 26.7997 -0.593589 -3.83534 0
M  V30 294 H 24.9007 1.80413 -3.26009 0
M  V30 295 H 25.0137 0.646957 -4.74712 0
M  V30 296 H 23.3777 0.439565 -2.50878 0
M  V30 297 H 24.1607 -1.04906 -3.26878 0
M  V30 298 N 26.6058 1.57591 -0.0167156 0
M  V30 299 C 27.8538 1.90906 0.663285 0
M  V30 300 C 28.1748 0.892509 1.73376 0
M  V30 301 O 27.4448 -0.0677623 1.95783 0
M  V30 302 H 26.0248 0.704637 0.247983 0
M  V30 303 H 28.6868 1.94803 -0.0615909 0
M  V30 304 H 27.7828 2.9116 1.12393 0
M  V30 305 N 28.0839 -0.256276 1.55502 0
M  V30 306 C 29.0159 -1.33981 1.85962 0
M  V30 307 C 30.0289 -1.44743 0.745212 0
M  V30 308 O 31.2179 -1.4626 1.02324 0
M  V30 309 C 28.3179 -2.7194 2.02242 0
M  V30 310 C 27.4909 -2.83562 3.33033 0
M  V30 311 C 26.5499 -4.02304 3.39172 0
M  V30 312 O 25.5759 -3.92273 4.12444 0
M  V30 313 N 26.7779 -5.15045 2.67784 0
M  V30 314 H 29.5429 -1.08191 2.7949 0
M  V30 315 H 27.1039 -0.446388 1.55624 0
M  V30 316 H 29.0959 -3.49697 2.03701 0
M  V30 317 H 27.6659 -2.90479 1.15502 0
M  V30 318 H 26.8859 -1.92555 3.43971 0
M  V30 319 H 28.1739 -2.88271 4.19258 0
M  V30 320 H 27.5719 -5.26085 2.07968 0
M  V30 321 H 26.1289 -5.90972 2.74947 0
M  V30 322 N 29.562 -1.4872 -0.521534 0
M  V30 323 C 30.808 -1.574 -1.27879 0
M  V30 324 C 31.141 -0.250817 -1.92573 0
M  V30 325 O 30.416 0.743934 -1.79711 0
M  V30 326 C 30.699 -2.71843 -2.36164 0
M  V30 327 C 30.552 -4.13893 -1.76105 0
M  V30 328 C 31.871 -2.82008 -3.37875 0
M  V30 329 H 28.99 -0.572941 -0.463581 0
M  V30 330 H 31.632 -1.80927 -0.580119 0
M  V30 331 H 29.782 -2.51914 -2.95756 0
M  V30 332 H 31.454 -4.45284 -1.20499 0
M  V30 333 H 29.697 -4.20498 -1.06601 0
M  V30 334 H 30.368 -4.89804 -2.5455 0
M  V30 335 H 32.844 -3.00086 -2.88249 0
M  V30 336 H 31.72 -3.63796 -4.11028 0
M  V30 337 H 31.981 -1.90511 -3.98946 0
M  V30 338 N 31.0401 0.771051 -1.3745 0
M  V30 339 C 31.9701 1.89827 -1.3597 0
M  V30 340 C 32.9511 1.68562 -0.228216 0
M  V30 341 O 34.1361 1.8941 -0.428675 0
M  V30 342 C 31.2661 3.2712 -1.16662 0
M  V30 343 C 30.2201 3.6295 -2.2683 0
M  V30 344 C 29.5461 4.98791 -1.92644 0
M  V30 345 C 30.8461 3.69627 -3.69017 0
M  V30 346 H 32.5401 1.91323 -2.30295 0
M  V30 347 H 30.0861 0.919082 -1.10855 0
M  V30 348 H 32.0391 4.05615 -1.14256 0
M  V30 349 H 30.7631 3.26059 -0.187926 0
M  V30 350 H 29.4221 2.86763 -2.28392 0
M  V30 351 H 29.0701 4.94271 -0.933021 0
M  V30 352 H 28.7701 5.23733 -2.66416 0
M  V30 353 H 30.2941 5.79685 -1.91826 0
M  V30 354 H 31.7081 4.38273 -3.69581 0
M  V30 355 H 30.1051 4.06067 -4.41848 0
M  V30 356 H 31.1751 2.70273 -4.02592 0
M  V30 357 N 32.5182 1.22032 0.997298 0
M  V30 358 C 33.4482 1.01065 2.10495 0
M  V30 359 C 34.4292 -0.0669542 1.69968 0
M  V30 360 O 35.6142 0.0943987 1.9397 0
M  V30 361 C 32.7442 0.582874 3.42374 0
M  V30 362 C 31.6982 1.60592 3.96729 0
M  V30 363 C 31.0242 1.03412 5.24605 0
M  V30 364 C 32.3242 2.99478 4.27914 0
M  V30 365 H 34.0182 1.93708 2.28292 0
M  V30 366 H 31.5642 0.932761 1.09707 0
M  V30 367 H 33.5172 0.423332 4.19268 0
M  V30 368 H 32.2412 -0.379213 3.24391 0
M  V30 369 H 30.9002 1.75316 3.21963 0
M  V30 370 H 30.5482 0.063518 5.0296 0
M  V30 371 H 30.2482 1.71754 5.61938 0
M  V30 372 H 31.7722 0.886066 6.04137 0
M  V30 373 H 33.1862 2.88153 4.95622 0
M  V30 374 H 31.5832 3.64903 4.76409 0
M  V30 375 H 32.6532 3.49742 3.3587 0
M  V30 376 N 33.9963 -1.19345 1.0293 0
M  V30 377 C 35.4123 -1.41069 0.746446 0
M  V30 378 C 35.6123 -1.90078 -0.668776 0
M  V30 379 O 34.6683 -2.0778 -1.4347 0
M  V30 380 C 35.9813 -2.42141 1.78292 0
M  V30 381 C 37.5293 -2.55887 1.80252 0
M  V30 382 C 38.0043 -3.60214 2.8286 0
M  V30 383 N 39.4953 -3.67711 2.81679 0
M  V30 384 C 40.2303 -4.48128 3.57727 0
M  V30 385 N 39.7263 -5.32248 4.43491 0
M  V30 386 N 41.5193 -4.42782 3.46267 0
M  V30 387 H 33.6703 -0.858536 1.94275 0
M  V30 388 H 35.9333 -0.439541 0.839945 0
M  V30 389 H 35.6393 -2.13155 2.79746 0
M  V30 390 H 35.5133 -3.41323 1.60557 0
M  V30 391 H 37.9003 -2.84196 0.794757 0
M  V30 392 H 37.9813 -1.56858 2.02062 0
M  V30 393 H 37.6253 -3.32647 3.83807 0
M  V30 394 H 37.5553 -4.58895 2.58307 0
M  V30 395 H 40.0463 -3.07634 2.19476 0
M  V30 396 H 40.3593 -5.90729 4.98256 0
M  V30 397 H 38.7043 -5.31707 4.47564 0
M  V30 398 H 41.8953 -3.76107 2.78677 0
M  V30 399 H 42.0683 -5.05215 4.05785 0
M  V30 400 N 35.4744 -0.807222 -1.35358 0
M  V30 401 C 36.7204 -0.388463 -1.99045 0
M  V30 402 C 37.0534 1.04184 -1.63888 0
M  V30 403 O 36.3284 1.72292 -0.902535 0
M  V30 404 C 36.6114 -0.572783 -3.55515 0
M  V30 405 C 36.4644 -2.04807 -4.00468 0
M  V30 406 C 37.7834 0.00114064 -4.401 0
M  V30 407 H 34.9024 -0.142619 -0.723069 0
M  V30 408 H 37.5444 -1.01687 -1.60498 0
M  V30 409 H 35.6944 -0.0378425 -3.88482 0
M  V30 410 H 37.3664 -2.64544 -3.77908 0
M  V30 411 H 35.6094 -2.54427 -3.51353 0
M  V30 412 H 36.2804 -2.12792 -5.09337 0
M  V30 413 H 38.7564 -0.455716 -4.13597 0
M  V30 414 H 37.6324 -0.157737 -5.48673 0
M  V30 415 H 37.8934 1.09488 -4.28328 0
M  V30 416 N 36.9525 1.47285 -0.560781 0
M  V30 417 C 37.9155 2.28535 0.174488 0
M  V30 418 C 38.9155 1.37153 0.839388 0
M  V30 419 O 40.1055 1.59748 0.694702 0
M  V30 420 C 37.2375 3.16934 1.25561 0
M  V30 421 H 38.4305 2.95012 -0.539262 0
M  V30 422 H 35.9835 1.53034 -0.317865 0
M  V30 423 H 36.7185 2.55157 2.00164 0
M  V30 424 H 36.5035 3.8419 0.783604 0
M  V30 425 H 37.9935 3.78143 1.77193 0
M  V30 426 N 38.4306 0.297415 1.54768 0
M  V30 427 C 39.3606 -0.573494 2.26348 0
M  V30 428 C 40.3416 -1.14085 1.26169 0
M  V30 429 O 41.5266 -1.17086 1.54934 0
M  V30 430 C 38.6566 -1.74716 3.00153 0
M  V30 431 C 37.6106 -1.31032 4.07449 0
M  V30 432 C 36.9366 -2.56887 4.68949 0
M  V30 433 C 38.2366 -0.444183 5.20408 0
M  V30 434 H 39.9306 0.0235131 2.99391 0
M  V30 435 H 37.4766 0.0127488 1.43994 0
M  V30 436 H 39.4296 -2.3625 3.48947 0
M  V30 437 H 38.1536 -2.37035 2.24682 0
M  V30 438 H 36.8126 -0.718066 3.59499 0
M  V30 439 H 36.4606 -3.17512 3.90122 0
M  V30 440 H 36.1606 -2.2836 5.41411 0
M  V30 441 H 37.6846 -3.19229 5.20505 0
M  V30 442 H 39.0986 -0.9651 5.65118 0
M  V30 443 H 37.4956 -0.252846 5.99567 0
M  V30 444 H 38.5656 0.531609 4.81977 0
M  V30 445 N 39.9087 -1.5758 0.0250728 0
M  V30 446 C 40.8717 -2.08896 -0.943139 0
M  V30 447 C 41.8717 -1.00321 -1.25668 0
M  V30 448 O 43.0617 -1.26495 -1.19769 0
M  V30 449 C 40.1937 -2.55143 -2.26086 0
M  V30 450 H 41.3867 -2.95723 -0.498775 0
M  V30 451 H 38.9397 -1.54703 -0.222888 0
M  V30 452 H 39.6747 -1.71633 -2.75159 0
M  V30 453 H 39.4597 -3.34461 -2.04641 0
M  V30 454 H 40.9497 -2.95083 -2.95492 0
M  V30 455 N 41.3868 0.248026 -1.55636 0
M  V30 456 C 42.3338 1.30707 -1.90222 0
M  V30 457 C 43.3038 1.47881 -0.756332 0
M  V30 458 O 44.4888 1.61883 -1.00988 0
M  V30 459 C 41.6288 2.65769 -2.20138 0
M  V30 460 C 40.7418 2.56612 -3.47526 0
M  V30 461 C 39.8768 3.8402 -3.67017 0
M  V30 462 C 38.9158 3.69476 -4.8801 0
M  V30 463 N 38.0528 4.88774 -5.04029 0
M  V30 464 H 42.8928 1.00512 -2.80538 0
M  V30 465 H 40.4298 0.485055 -1.38873 0
M  V30 466 H 42.3878 3.44386 -2.35487 0
M  V30 467 H 41.0178 2.94115 -1.33027 0
M  V30 468 H 40.0698 1.69571 -3.40514 0
M  V30 469 H 41.3818 2.41774 -4.36287 0
M  V30 470 H 40.5358 4.7108 -3.8232 0
M  V30 471 H 39.2748 4.01754 -2.76487 0
M  V30 472 H 38.2798 2.80799 -4.72686 0
M  V30 473 H 39.5048 3.53238 -5.8 0
M  V30 474 H 37.4508 5.0687 -4.16435 0
M  V30 475 H 37.3678 4.76562 -5.86877 0
M  V30 476 H 38.6358 5.77335 -5.23741 0
M  V30 477 N 42.8649 1.48995 0.513639 0
M  V30 478 C 43.7749 1.67443 1.64317 0
M  V30 479 C 44.7909 0.556947 1.64846 0
M  V30 480 O 45.9669 0.830082 1.83498 0
M  V30 481 C 43.0319 1.72515 3.00732 0
M  V30 482 C 42.0929 2.96009 3.1093 0
M  V30 483 C 41.3259 3.00829 4.40837 0
M  V30 484 O 41.5489 2.13594 5.28898 0
M  V30 485 O 40.4829 3.93168 4.55744 0
M  V30 486 H 44.3089 2.63106 1.51687 0
M  V30 487 H 41.8939 1.32588 0.688543 0
M  V30 488 H 43.7759 1.78277 3.81831 0
M  V30 489 H 42.4509 0.800278 3.13651 0
M  V30 490 H 41.3579 2.9577 2.29065 0
M  V30 491 H 42.6909 3.87934 3.02933 0
M  V30 492 N 44.343 -0.763751 1.37857 0
M  V30 493 C 45.253 -1.90817 1.36478 0
M  V30 494 C 46.269 -1.71997 0.263248 0
M  V30 495 O 47.445 -1.95095 0.499979 0
M  V30 496 C 44.51 -3.2605 1.17864 0
M  V30 497 C 43.571 -3.57467 2.3773 0
M  V30 498 C 42.804 -4.86249 2.19995 0
M  V30 499 O 43.027 -5.57884 1.18836 0
M  V30 500 O 41.961 -5.16911 3.08361 0
M  V30 501 H 45.787 -1.94933 2.32884 0
M  V30 502 H 43.372 -0.907619 1.1867 0
M  V30 503 H 45.254 -4.06924 1.09504 0
M  V30 504 H 43.929 -3.22769 0.245372 0
M  V30 505 H 42.836 -2.76796 2.51664 0
M  V30 506 H 44.169 -3.655 3.29652 0
M  V30 507 N 45.8211 -1.22559 -0.990812 0
M  V30 508 C 47.0671 -1.05297 -1.73322 0
M  V30 509 C 47.4001 0.410655 -1.89808 0
M  V30 510 O 46.6751 1.30439 -1.44277 0
M  V30 511 C 46.9581 -1.76713 -3.13759 0
M  V30 512 C 46.8111 -3.30684 -3.04907 0
M  V30 513 C 48.1301 -1.52121 -4.12974 0
M  V30 514 H 45.2491 -0.38392 -0.629106 0
M  V30 515 H 47.8911 -1.50926 -1.15418 0
M  V30 516 H 46.0411 -1.37924 -3.63193 0
M  V30 517 H 47.7131 -3.7893 -2.63077 0
M  V30 518 H 45.9561 -3.60253 -2.41661 0
M  V30 519 H 46.6271 -3.75833 -4.04294 0
M  V30 520 H 49.1031 -1.85819 -3.72304 0
M  V30 521 H 47.9791 -2.04582 -5.0935 0
M  V30 522 H 48.2401 -0.454257 -4.3976 0
M  V30 523 N 47.2992 1.18797 -1.03562 0
M  V30 524 C 48.2462 2.22253 -0.622259 0
M  V30 525 C 49.2162 1.61987 0.36736 0
M  V30 526 O 50.4012 1.88986 0.262492 0
M  V30 527 C 47.5412 3.45097 0.0138462 0
M  V30 528 C 46.6542 4.19722 -1.02263 0
M  V30 529 C 45.7892 5.30009 -0.355573 0
M  V30 530 C 44.8282 5.96399 -1.37749 0
M  V30 531 N 43.9652 6.98234 -0.735766 0
M  V30 532 H 48.8052 2.56968 -1.50903 0
M  V30 533 H 46.3422 1.26245 -0.755017 0
M  V30 534 H 48.3002 4.15279 0.399948 0
M  V30 535 H 46.9302 3.11018 0.864158 0
M  V30 536 H 45.9822 3.48418 -1.52673 0
M  V30 537 H 47.2942 4.65227 -1.79903 0
M  V30 538 H 46.4482 6.0664 0.0850095 0
M  V30 539 H 45.1872 4.85592 0.452967 0
M  V30 540 H 44.1922 5.18512 -1.82826 0
M  V30 541 H 45.4172 6.42899 -2.18764 0
M  V30 542 H 43.3632 6.55979 0.0525597 0
M  V30 543 H 43.2802 7.41965 -1.44995 0
M  V30 544 H 44.5482 7.78845 -0.31941 0
M  V30 545 N 48.7773 0.814389 1.34928 0
M  V30 546 C 50.0023 0.410097 2.03305 0
M  V30 547 C 50.4273 -0.973464 1.60951 0
M  V30 548 O 49.7853 -1.63185 0.789964 0
M  V30 549 C 49.8333 0.51049 3.56968 0
M  V30 550 O 48.9373 -0.473035 4.09678 0
M  V30 551 H 48.2783 0.170088 0.641846 0
M  V30 552 H 50.8083 1.10244 1.72358 0
M  V30 553 H 50.8183 0.383135 4.06197 0
M  V30 554 H 49.4933 1.51963 3.87144 0
M  V30 555 H 48.0703 -0.305272 3.71648 0
M  V30 556 N 50.2554 -1.46986 0.568584 0
M  V30 557 C 51.5034 -2.02041 0.0487022 0
M  V30 558 C 51.8244 -1.44408 -1.31039 0
M  V30 559 O 51.0944 -0.623477 -1.85714 0
M  V30 560 H 49.6744 -0.746849 0.015014 0
M  V30 561 H 52.3364 -1.80257 0.741168 0
M  V30 562 H 51.4324 -3.12085 -0.0308961 0
M  V30 563 N 51.7335 -0.305618 -1.54608 0
M  V30 564 C 52.9615 0.304775 -2.04643 0
M  V30 565 C 53.3765 1.47167 -1.18268 0
M  V30 566 O 52.7335 1.81296 -0.209328 0
M  V30 567 C 52.7845 0.756564 -3.53495 0
M  V30 568 O 52.5055 -0.36389 -4.36586 0
M  V30 569 C 54.0065 1.43163 -4.19546 0
M  V30 570 H 51.2265 0.0655481 -0.667791 0
M  V30 571 H 53.7705 -0.446592 -1.99564 0
M  V30 572 H 51.9255 1.45794 -3.58919 0
M  V30 573 H 52.3395 -0.0113121 -5.24499 0
M  V30 574 H 53.8135 1.69886 -5.25207 0
M  V30 575 H 54.2905 2.37318 -3.69563 0
M  V30 576 H 54.8965 0.773307 -4.18211 0
M  V30 577 N 53.2116 1.57565 -0.0334293 0
M  V30 578 C 54.1586 2.10478 0.946981 0
M  V30 579 C 55.1286 1.00787 1.32027 0
M  V30 580 O 56.3136 1.28232 1.41284 0
M  V30 581 C 53.4536 2.63994 2.22263 0
M  V30 582 C 52.5666 3.87709 1.90541 0
M  V30 583 C 51.7016 4.29604 3.12433 0
M  V30 584 C 50.7406 5.46065 2.76549 0
M  V30 585 N 49.8776 5.83096 3.9108 0
M  V30 586 H 54.7176 2.93963 0.488846 0
M  V30 587 H 52.2546 1.45296 0.22969 0
M  V30 588 H 54.2126 2.93114 2.96884 0
M  V30 589 H 52.8426 1.83333 2.65685 0
M  V30 590 H 51.8946 3.65291 1.06144 0
M  V30 591 H 53.2066 4.72403 1.60116 0
M  V30 592 H 52.3606 4.60182 3.9537 0
M  V30 593 H 51.0996 3.43685 3.46023 0
M  V30 594 H 50.1046 5.15176 1.92026 0
M  V30 595 H 51.3296 6.33685 2.44171 0
M  V30 596 H 49.2756 5.00132 4.24504 0
M  V30 597 H 49.1926 6.6244 3.64293 0
M  V30 598 H 50.4606 6.18282 4.74708 0
M  V30 599 N 54.6897 -0.239769 1.55765 0
M  V30 600 C 55.9377 -0.964892 1.77579 0
M  V30 601 C 56.2587 -1.85582 0.598699 0
M  V30 602 O 55.5287 -1.92075 -0.385226 0
M  V30 603 H 54.1087 -0.359265 0.654933 0
M  V30 604 H 56.7707 -0.256001 1.93211 0
M  V30 605 H 55.8667 -1.58243 2.69009 0
M  V30 606 N 56.1678 -1.49265 -0.50573 0
M  V30 607 C 57.3928 -1.62478 -1.28902 0
M  V30 608 C 57.8178 -0.294332 -1.85783 0
M  V30 609 O 57.1758 0.737412 -1.65626 0
M  V30 610 C 57.2238 -2.69268 -2.39848 0
M  V30 611 O 56.3278 -2.28113 -3.43567 0
M  V30 612 H 55.6688 -0.54399 -0.380751 0
M  V30 613 H 58.1988 -1.95421 -0.605952 0
M  V30 614 H 58.2088 -2.91291 -2.85681 0
M  V30 615 H 56.8838 -3.65846 -1.97812 0
M  V30 616 H 55.4608 -2.16401 -3.03685 0
M  V30 617 N 57.6459 0.756429 -1.3826 0
M  V30 618 C 58.5779 1.87971 -1.31147 0
M  V30 619 C 59.5909 1.61248 -0.224239 0
M  V30 620 O 60.7799 1.71881 -0.481581 0
M  V30 621 C 57.8799 3.23545 -1.00857 0
M  V30 622 C 57.0529 3.77794 -2.20432 0
M  V30 623 C 56.1119 4.91877 -1.86931 0
M  V30 624 O 55.1379 5.06659 -2.59395 0
M  V30 625 N 56.3399 5.74643 -0.822568 0
M  V30 626 H 59.1049 1.94585 -2.2794 0
M  V30 627 H 56.6659 0.936234 -1.32084 0
M  V30 628 H 58.6579 3.97403 -0.765021 0
M  V30 629 H 57.2279 3.12335 -0.128687 0
M  V30 630 H 56.4479 2.95534 -2.6087 0
M  V30 631 H 57.7359 4.10771 -3.00241 0
M  V30 632 H 57.1339 5.65266 -0.221575 0
M  V30 633 H 55.6909 6.48661 -0.638899 0
M  V30 634 N 59.124 1.23083 0.984299 0
M  V30 635 C 60.535 1.05609 1.5396 0
M  V30 636 C 60.886 -0.377793 1.92528 0
M  V30 637 O 60.011 -1.26398 1.75649 0
M  V30 638 C 60.606 1.91087 2.7977 0
M  V30 639 C 59.165 1.77885 3.31713 0
M  V30 640 C 58.312 1.87028 2.04733 0
M  V30 641 H 61.263 1.36802 0.804419 0
M  V30 642 H 61.284 1.43336 3.5247 0
M  V30 643 H 60.796 2.9544 2.51668 0
M  V30 644 H 58.897 0.762995 3.64704 0
M  V30 645 H 59.01 2.61047 4.01735 0
M  V30 646 H 57.374 1.30565 2.18689 0
M  V30 647 H 58.157 2.92929 1.79017 0
M  V30 648 N 60.6021 -1.18246 1.0419 0
M  V30 649 C 61.5351 -2.20746 0.578474 0
M  V30 650 C 62.5131 -1.57912 -0.387624 0
M  V30 651 O 63.6971 -1.86071 -0.301634 0
M  V30 652 C 60.8241 -3.38346 -0.154762 0
M  V30 653 C 59.8701 -4.19587 0.764782 0
M  V30 654 S 60.7031 -4.86014 2.24835 0
M  V30 655 C 61.8591 -6.07012 1.526 0
M  V30 656 H 62.0921 -2.59715 1.44691 0
M  V30 657 H 59.6251 -1.287 0.85297 0
M  V30 658 H 61.5831 -4.065 -0.571641 0
M  V30 659 H 60.2441 -2.97786 -0.999105 0
M  V30 660 H 59.4371 -5.03611 0.197976 0
M  V30 661 H 59.0391 -3.56818 1.12057 0
M  V30 662 H 61.3311 -6.72523 0.819733 0
M  V30 663 H 62.2741 -6.68202 2.34333 0
M  V30 664 H 62.6821 -5.55249 1.01779 0
M  V30 665 N 62.0802 -0.821533 -1.34494 0
M  V30 666 C 63.3052 -0.420873 -2.03085 0
M  V30 667 C 63.7302 0.964915 -1.61465 0
M  V30 668 O 63.0882 1.62763 -0.798607 0
M  V30 669 C 63.1362 -0.529414 -3.56693 0
M  V30 670 O 62.2402 0.451302 -4.09923 0
M  V30 671 H 61.5812 -0.173489 -0.640935 0
M  V30 672 H 64.1112 -1.11157 -1.71771 0
M  V30 673 H 64.1212 -0.404671 -4.05988 0
M  V30 674 H 62.7962 -1.54014 -3.86332 0
M  V30 675 H 61.3732 0.285558 -3.71805 0
M  V30 676 N 63.5583 1.46682 -0.576371 0
M  V30 677 C 64.9693 1.86112 -0.148091 0
M  V30 678 C 65.3203 1.48073 1.2872 0
M  V30 679 O 64.4453 0.892656 1.97131 0
M  V30 680 C 65.0403 3.37786 -0.261982 0
M  V30 681 C 63.5993 3.76235 0.111384 0
M  V30 682 C 62.7463 2.70713 -0.60083 0
M  V30 683 H 65.6973 1.37927 -0.78497 0
M  V30 684 H 65.7183 3.77007 0.514364 0
M  V30 685 H 65.2303 3.6544 -1.30671 0
M  V30 686 H 63.3313 3.54198 1.15649 0
M  V30 687 H 63.4443 4.78391 -0.26052 0
M  V30 688 H 61.8083 2.54666 -0.0417783 0
M  V30 689 H 62.5913 3.01208 -1.64708 0
M  V30 690 N 65.0364 0.313813 1.54444 0
M  V30 691 C 66.2614 -0.296681 2.05267 0
M  V30 692 C 66.6864 -1.45757 1.18897 0
M  V30 693 O 66.0444 -1.80239 0.195886 0
M  V30 694 C 66.0924 -0.71831 3.53373 0
M  V30 695 O 65.1964 -1.82175 3.69981 0
M  V30 696 H 64.5374 -0.0554061 0.661684 0
M  V30 697 H 67.0674 0.459387 1.99376 0
M  V30 698 H 67.0774 -1.00364 3.95463 0
M  V30 699 H 65.7524 0.130821 4.15694 0
M  V30 700 H 64.3294 -1.53598 3.39797 0
M  V30 701 N 66.5145 -1.57545 0.0417849 0
M  V30 702 C 67.7915 -1.83642 -0.673433 0
M  V30 703 C 68.1715 -0.928298 -1.89594 0
M  V30 704 O 67.5195 0.0129955 -2.28496 0
M  V30 705 C 67.7295 -3.33155 -1.03964 0
M  V30 706 C 69.0775 -3.99941 -1.42592 0
M  V30 707 O 70.1015 -3.37725 -1.13226 0
M  V30 708 O 68.9605 -5.09619 -1.9736 0
M  V30 709 H 66.0545 -0.757638 -0.331533 0
M  V30 710 H 68.6005 -1.69554 0.070433 0
M  V30 711 H 67.3725 -3.9093 -0.170098 0
M  V30 712 H 66.9955 -3.52396 -1.84126 0
M  V30 713 N 67.9926 0.231505 -1.5589 0
M  V30 714 C 69.2396 0.957352 -1.78441 0
M  V30 715 C 69.5676 1.84726 -0.60882 0
M  V30 716 O 68.8226 1.91416 0.40725 0
M  V30 717 C 69.1216 1.83577 -3.0665 0
M  V30 718 C 68.7876 1.09993 -4.37278 0
M  V30 719 C 67.4496 0.896629 -4.72773 0
M  V30 720 C 69.8016 0.579558 -5.17968 0
M  V30 721 C 67.1296 0.160896 -5.86479 0
M  V30 722 C 69.4816 -0.142783 -6.32439 0
M  V30 723 C 68.1456 -0.357427 -6.66542 0
M  V30 724 H 67.4156 0.35032 -0.65296 0
M  V30 725 H 70.0626 0.226259 -1.90159 0
M  V30 726 H 68.3676 2.63441 -2.90011 0
M  V30 727 H 70.0646 2.39934 -3.21298 0
M  V30 728 H 66.6546 1.26835 -4.09403 0
M  V30 729 H 70.8386 0.724125 -4.90989 0
M  V30 730 H 66.0946 -0.0157293 -6.11398 0
M  V30 731 H 70.2686 -0.553559 -6.94196 0
M  V30 732 H 67.8956 -0.929466 -7.54497 0
M  V30 733 N 69.4707 1.49531 0.497807 0
M  V30 734 C 70.4007 1.6935 1.60757 0
M  V30 735 C 71.3817 0.542218 1.61227 0
M  V30 736 O 72.5667 0.778417 1.77917 0
M  V30 737 C 69.6967 1.76298 2.99226 0
M  V30 738 C 68.6507 2.91248 3.13622 0
M  V30 739 C 67.9767 2.83312 4.53474 0
M  V30 740 C 69.2767 4.3214 2.93346 0
M  V30 741 H 70.9707 2.62263 1.44425 0
M  V30 742 H 68.5167 1.26208 0.693367 0
M  V30 743 H 70.4697 1.88749 3.76765 0
M  V30 744 H 69.1937 0.799871 3.16654 0
M  V30 745 H 67.8527 2.78404 2.38509 0
M  V30 746 H 67.5007 1.84902 4.67782 0
M  V30 747 H 67.2007 3.60465 4.64046 0
M  V30 748 H 68.7247 2.97775 5.33069 0
M  V30 749 H 70.1387 4.45649 3.60652 0
M  V30 750 H 68.5357 5.1054 3.15387 0
M  V30 751 H 69.6057 4.46363 1.89441 0
M  V30 752 N 70.9488 -0.749086 1.3866 0
M  V30 753 C 72.2258 -1.4992 1.25632 0
M  V30 754 C 72.6058 -2.10633 -0.140317 0
M  V30 755 O 71.9538 -1.97437 -1.15025 0
M  V30 756 C 72.1638 -2.56195 2.36992 0
M  V30 757 C 73.5118 -3.22972 2.75634 0
M  V30 758 O 74.5358 -2.66502 2.36337 0
M  V30 759 O 73.3948 -4.25122 3.43415 0
M  V30 760 H 70.4888 -0.665067 0.491544 0
M  V30 761 H 73.0348 -0.784113 1.50498 0
M  V30 762 H 71.8068 -2.09612 3.30422 0
M  V30 763 H 71.4298 -3.35279 2.13714 0
M  V30 764 N 72.4269 -1.23603 -0.977757 0
M  V30 765 C 73.3739 -1.01954 -2.07061 0
M  V30 766 C 74.3439 0.0638697 -1.65977 0
M  V30 767 O 75.5289 -0.0887624 -1.90593 0
M  V30 768 C 72.6689 -0.619658 -3.39491 0
M  V30 769 C 71.7819 -1.77547 -3.93829 0
M  V30 770 C 70.9169 -1.32212 -5.14484 0
M  V30 771 C 69.9559 -2.44852 -5.60994 0
M  V30 772 N 69.0929 -2.00456 -6.72876 0
M  V30 773 H 73.9329 -1.95495 -2.24913 0
M  V30 774 H 71.4699 -0.973861 -1.10247 0
M  V30 775 H 73.4279 -0.368898 -4.15566 0
M  V30 776 H 72.0579 0.278752 -3.21594 0
M  V30 777 H 71.1099 -2.14016 -3.14486 0
M  V30 778 H 72.4219 -2.62219 -4.24314 0
M  V30 779 H 71.5759 -1.02965 -5.97899 0
M  V30 780 H 70.3149 -0.445808 -4.85658 0
M  V30 781 H 69.3199 -2.74871 -4.76157 0
M  V30 782 H 70.5449 -3.33024 -5.91837 0
M  V30 783 H 68.4909 -1.15208 -6.45804 0
M  V30 784 H 68.4079 -2.78687 -7.02759 0
M  V30 785 H 69.6759 -1.7432 -7.59758 0
M  V30 786 N 73.905 1.17692 -1.04816 0
M  V30 787 C 74.835 2.23777 -0.666791 0
M  V30 788 C 75.816 1.66796 0.33361 0
M  V30 789 O 77.001 1.93039 0.212042 0
M  V30 790 C 74.131 3.47281 -0.0367933 0
M  V30 791 C 73.085 4.17059 -0.961546 0
M  V30 792 C 72.411 5.34342 -0.195626 0
M  V30 793 C 73.711 4.69713 -2.28402 0
M  V30 794 H 75.405 2.55933 -1.55367 0
M  V30 795 H 72.951 1.23019 -0.748484 0
M  V30 796 H 74.904 4.20706 0.241775 0
M  V30 797 H 73.628 3.14381 0.885004 0
M  V30 798 H 72.287 3.45541 -1.22462 0
M  V30 799 H 71.935 4.97692 0.728816 0
M  V30 800 H 71.635 5.81966 -0.811775 0
M  V30 801 H 73.159 6.10553 0.0757473 0
M  V30 802 H 74.573 5.34794 -2.06563 0
M  V30 803 H 72.97 5.279 -2.8538 0
M  V30 804 H 74.04 3.86726 -2.92525 0
M  V30 805 N 75.3831 0.828654 1.34056 0
M  V30 806 C 76.3161 0.199763 2.27324 0
M  V30 807 C 77.2941 -0.647168 1.49166 0
M  V30 808 O 78.4781 -0.609661 1.78369 0
M  V30 809 C 75.6051 -0.720455 3.30949 0
M  V30 810 C 74.6511 0.0496888 4.26471 0
M  V30 811 S 75.4841 1.40072 5.16856 0
M  V30 812 C 76.6401 0.485527 6.24014 0
M  V30 813 H 76.8731 0.990478 2.80316 0
M  V30 814 H 74.4061 0.624857 1.41191 0
M  V30 815 H 76.3641 -1.24581 3.91139 0
M  V30 816 H 75.0251 -1.48474 2.76793 0
M  V30 817 H 74.2181 -0.650104 4.9979 0
M  V30 818 H 73.8201 0.505779 3.70564 0
M  V30 819 H 76.1121 -0.320672 6.76741 0
M  V30 820 H 77.0551 1.18856 6.98054 0
M  V30 821 H 77.4631 0.0714109 5.64455 0
M  V30 822 N 76.8612 -1.46375 0.584142 0
M  V30 823 C 78.1092 -2.01978 0.0701287 0
M  V30 824 C 78.4302 -1.4579 -1.295 0
M  V30 825 O 77.7002 -0.64314 -1.85042 0
M  V30 826 H 76.2802 -0.746648 0.0229345 0
M  V30 827 H 78.9422 -1.79461 0.760245 0
M  V30 828 H 78.0382 -3.121 0.0022064 0
M  V30 829 N 78.3393 -0.321999 -1.54275 0
M  V30 830 C 79.7553 0.0306999 -1.5957 0
M  V30 831 C 79.9553 1.50614 -1.33857 0
M  V30 832 O 79.0113 2.2619 -1.12223 0
M  V30 833 C 80.3243 -0.386122 -2.98211 0
M  V30 834 C 81.8723 -0.336647 -3.11184 0
M  V30 835 C 82.3473 -0.728607 -4.52167 0
M  V30 836 N 83.8383 -0.681952 -4.58152 0
M  V30 837 C 84.5733 -0.957449 -5.6535 0
M  V30 838 N 84.0693 -1.3 -6.80494 0
M  V30 839 N 85.8623 -0.883113 -5.55119 0
M  V30 840 H 78.0133 -1.28332 -1.69247 0
M  V30 841 H 80.2763 -0.521716 -0.791528 0
M  V30 842 H 79.9823 -1.41404 -3.22022 0
M  V30 843 H 79.8563 0.249662 -3.76373 0
M  V30 844 H 82.2433 0.682058 -2.8711 0
M  V30 845 H 82.3243 -1.00734 -2.3513 0
M  V30 846 H 81.9683 -1.74522 -4.76974 0
M  V30 847 H 81.8983 -0.0356152 -5.26588 0
M  V30 848 H 84.3893 -0.428985 -3.75457 0
M  V30 849 H 84.7023 -1.49563 -7.58189 0
M  V30 850 H 83.0473 -1.33824 -6.81994 0
M  V30 851 H 86.2383 -0.615001 -4.64042 0
M  V30 852 H 86.4113 -1.10118 -6.38575 0
M  V30 853 N 79.8174 1.5752 -0.0501392 0
M  V30 854 C 81.0454 1.96963 0.633492 0
M  V30 855 C 81.4604 0.927631 1.6444 0
M  V30 856 O 80.8174 -0.0882665 1.82286 0
M  V30 857 C 80.8684 3.36487 1.32132 0
M  V30 858 O 80.5894 4.36693 0.350894 0
M  V30 859 C 82.0904 3.90682 2.09481 0
M  V30 860 H 79.3104 0.648244 0.173266 0
M  V30 861 H 81.8544 2.0417 -0.116134 0
M  V30 862 H 80.0094 3.30434 2.02218 0
M  V30 863 H 80.4234 5.17702 0.841735 0
M  V30 864 H 81.8974 4.90591 2.5303 0
M  V30 865 H 82.3744 3.26053 2.94255 0
M  V30 866 H 82.9804 4.00069 1.44307 0
M  V30 867 N 81.2955 -0.223234 1.56011 0
M  V30 868 C 82.5205 -0.968978 1.83373 0
M  V30 869 C 82.9455 -1.77227 0.630254 0
M  V30 870 O 82.3035 -1.76345 -0.420959 0
M  V30 871 C 82.3515 -1.86363 3.08709 0
M  V30 872 O 81.4555 -2.95873 2.87285 0
M  V30 873 H 80.7965 -0.274461 0.604622 0
M  V30 874 H 83.3265 -0.237056 2.03222 0
M  V30 875 H 83.3365 -2.27376 3.38768 0
M  V30 876 H 82.0115 -1.27319 3.95933 0
M  V30 877 H 80.5885 -2.58818 2.68454 0
M  V30 878 N 82.7736 -1.49793 -0.48987 0
M  V30 879 C 84.0216 -1.59525 -1.24081 0
M  V30 880 C 84.3426 -0.288953 -1.92847 0
M  V30 881 O 83.6126 0.692436 -1.83254 0
M  V30 882 H 82.1926 -0.587796 -0.460983 0
M  V30 883 H 84.8546 -1.86477 -0.566778 0
M  V30 884 H 83.9506 -2.39696 -1.99881 0
M  V30 885 N 84.2517 0.741722 -1.39055 0
M  V30 886 C 85.4817 1.52876 -1.3897 0
M  V30 887 C 85.8897 1.8919 0.0193266 0
M  V30 888 O 85.2327 1.54138 0.999356 0
M  V30 889 C 85.2947 2.84929 -2.19216 0
M  V30 890 C 84.9587 2.71086 -3.67915 0
M  V30 891 C 85.9557 2.40084 -4.61146 0
M  V30 892 C 83.6407 2.88168 -4.11418 0
M  V30 893 C 85.6347 2.26335 -5.95862 0
M  V30 894 C 83.3217 2.74037 -5.46211 0
M  V30 895 C 84.3197 2.43166 -6.38247 0
M  V30 896 O 84.0077 2.29115 -7.70559 0
M  V30 897 H 83.7397 0.479252 -0.476753 0
M  V30 898 H 86.2937 0.924751 -1.83405 0
M  V30 899 H 84.5237 3.47564 -1.69518 0
M  V30 900 H 86.2127 3.46509 -2.11392 0
M  V30 901 H 86.9787 2.26545 -4.28838 0
M  V30 902 H 82.8577 3.11191 -3.40119 0
M  V30 903 H 86.4017 2.0216 -6.67665 0
M  V30 904 H 82.2987 2.87153 -5.78112 0
M  V30 905 H 83.0667 2.44237 -7.81211 0
M  V30 906 N 85.7298 1.2412 0.971189 0
M  V30 907 C 87.0068 0.986867 1.6888 0
M  V30 908 C 87.3868 -0.491857 2.0529 0
M  V30 909 O 86.7348 -1.46531 1.75331 0
M  V30 910 C 86.9448 1.9063 2.92338 0
M  V30 911 C 88.2928 2.17515 3.64654 0
M  V30 912 O 89.3168 1.88254 3.02388 0
M  V30 913 O 88.1758 2.6719 4.7673 0
M  V30 914 H 85.2698 0.372944 0.738134 0
M  V30 915 H 87.8158 1.35203 1.02559 0
M  V30 916 H 86.5878 2.90552 2.62097 0
M  V30 917 H 86.2108 1.54408 3.66393 0
M  V30 918 N 87.2079 -1.17134 1.05439 0
M  V30 919 C 88.1709 -2.19439 0.661764 0
M  V30 920 C 89.1709 -1.58199 -0.288042 0
M  V30 921 O 90.3609 -1.74053 -0.0715803 0
M  V30 922 C 87.4929 -3.40889 -0.0276209 0
M  V30 923 H 88.6859 -2.55688 1.56728 0
M  V30 924 H 86.2389 -1.31259 0.848567 0
M  V30 925 H 86.9739 -3.10187 -0.94629 0
M  V30 926 H 86.7589 -3.86586 0.655238 0
M  V30 927 H 88.2489 -4.16603 -0.288342 0
M  V30 928 N 88.686 -0.835752 -1.33615 0
M  V30 929 C 90.102 -0.523139 -1.50783 0
M  V30 930 C 90.302 0.950171 -1.77691 0
M  V30 931 O 89.358 1.73411 -1.83534 0
M  V30 932 C 90.671 -1.39378 -2.66448 0
M  V30 933 C 92.219 -1.39223 -2.80332 0
M  V30 934 C 92.694 -2.24765 -3.99055 0
M  V30 935 N 94.185 -2.22458 -4.06284 0
M  V30 936 C 94.92 -2.85386 -4.97336 0
M  V30 937 N 94.416 -3.57354 -5.93523 0
M  V30 938 N 96.209 -2.74872 -4.90308 0
M  V30 939 H 88.36 -1.78952 -1.14411 0
M  V30 940 H 90.623 -0.763297 -0.562212 0
M  V30 941 H 90.329 -2.44061 -2.53234 0
M  V30 942 H 90.203 -1.0676 -3.61776 0
M  V30 943 H 92.59 -0.353136 -2.92979 0
M  V30 944 H 92.671 -1.75846 -1.85773 0
M  V30 945 H 92.315 -3.28732 -3.87167 0
M  V30 946 H 92.245 -1.85485 -4.92852 0
M  V30 947 H 94.736 -1.70119 -3.37443 0
M  V30 948 H 95.049 -4.02584 -6.59656 0
M  V30 949 H 93.394 -3.61461 -5.93608 0
M  V30 950 H 96.585 -2.18213 -4.14126 0
M  V30 951 H 96.758 -3.24199 -5.61069 0
M  V30 952 N 90.1641 1.46063 -0.591896 0
M  V30 953 C 91.4131 2.01547 -0.0786637 0
M  V30 954 C 91.7261 1.46796 1.29268 0
M  V30 955 O 92.9321 1.94157 1.89777 0
M  V30 956 C 91.3881 3.59787 -0.0900024 0
M  V30 957 C 90.9961 4.23534 -1.46023 0
M  V30 958 C 92.7401 4.22895 0.368806 0
M  V30 959 C 90.6471 5.73881 -1.4288 0
M  V30 960 H 89.5771 0.753564 -0.0256388 0
M  V30 961 H 92.2281 1.677 -0.744905 0
M  V30 962 H 90.6101 3.90752 0.642586 0
M  V30 963 H 91.7841 4.04167 -2.21328 0
M  V30 964 H 90.0991 3.72558 -1.85982 0
M  V30 965 H 92.6961 5.33116 0.411258 0
M  V30 966 H 93.0391 3.9247 1.38827 0
M  V30 967 H 93.5721 3.9659 -0.31001 0
M  V30 968 H 90.3111 6.0898 -2.42536 0
M  V30 969 H 89.8311 5.95486 -0.718095 0
M  V30 970 H 91.5101 6.36776 -1.14565 0
M  V30 971 N 91.6422 0.330177 1.54103 0
M  V30 972 C 93.0582 -0.0222371 1.59585 0
M  V30 973 C 93.2582 -1.49902 1.34654 0
M  V30 974 O 92.3142 -2.25592 1.13421 0
M  V30 975 C 93.6272 0.401932 2.98002 0
M  V30 976 C 95.1752 0.353145 3.11001 0
M  V30 977 C 95.6502 0.752576 4.51775 0
M  V30 978 N 97.1412 0.706239 4.57784 0
M  V30 979 C 97.8762 0.987417 5.64834 0
M  V30 980 N 97.3722 1.33607 6.79795 0
M  V30 981 N 99.1652 0.91254 5.54643 0
M  V30 982 H 91.3162 1.29228 1.68564 0
M  V30 983 H 93.5792 0.525906 0.78875 0
M  V30 984 H 93.2852 1.4311 3.21267 0
M  V30 985 H 93.1592 -0.229699 3.765 0
M  V30 986 H 95.5462 -0.666822 2.87467 0
M  V30 987 H 95.6272 1.0198 2.34593 0
M  V30 988 H 95.2712 1.77049 4.76042 0
M  V30 989 H 95.2012 0.0635409 5.26562 0
M  V30 990 H 97.6922 0.44889 3.75224 0
M  V30 991 H 98.0052 1.53582 7.57385 0
M  V30 992 H 96.3502 1.37439 6.81275 0
M  V30 993 H 99.5412 0.639601 4.6371 0
M  V30 994 H 99.7142 1.13503 6.37982 0
M  V30 995 N 93.1203 -1.57491 0.0584922 0
M  V30 996 C 94.5313 -1.80526 -0.476138 0
M  V30 997 C 94.8823 -0.971334 -1.70469 0
M  V30 998 O 94.0073 -0.190012 -2.15564 0
M  V30 999 C 94.6023 -3.27424 -0.870587 0
M  V30 1000 C 93.1613 -3.51351 -1.35015 0
M  V30 1001 C 92.3083 -2.75343 -0.32887 0
M  V30 1002 H 95.2593 -1.56133 0.284312 0
M  V30 1003 H 95.2803 -3.38745 -1.73299 0
M  V30 1004 H 94.7923 -3.88093 0.0237627 0
M  V30 1005 H 92.8933 -2.95971 -2.26345 0
M  V30 1006 H 93.0063 -4.60059 -1.33726 0
M  V30 1007 H 91.3703 -2.417 -0.803321 0
M  V30 1008 H 92.1533 -3.38743 0.557521 0
M  V30 1009 N 94.5984 0.214957 -1.56127 0
M  V30 1010 C 95.5464 1.28601 -1.93816 0
M  V30 1011 C 96.5404 1.48175 -0.821016 0
M  V30 1012 O 97.7464 1.49271 -1.0059 0
M  V30 1013 H 94.1214 0.431302 -0.616022 0
M  V30 1014 H 96.0924 0.940991 -2.83175 0
M  V30 1015 C 94.8414 2.62779 -2.27689 0
M  V30 1016 H 94.1644 2.48527 -3.13168 0
M  V30 1017 H 95.6044 3.36517 -2.57939 0
M  V30 1018 C 94.0634 3.18285 -1.10436 0
M  V30 1019 O 94.5934 4.00002 -0.368945 0
M  V30 1020 N 92.7994 2.7675 -0.886433 0
M  V30 1021 H 92.3464 2.10404 -1.48619 0
M  V30 1022 H 92.3044 3.14229 -0.103656 0
M  V30 1023 N 96.0765 1.50051 0.48192 0
M  V30 1024 C 97.3235 1.60498 1.23477 0
M  V30 1025 C 97.6515 0.300331 1.92167 0
M  V30 1026 O 96.9065 -0.713094 1.82246 0
M  V30 1027 C 97.2055 2.72717 2.30998 0
M  V30 1028 C 96.8715 4.13572 1.79636 0
M  V30 1029 C 95.5335 4.519 1.65348 0
M  V30 1030 C 97.8855 5.01649 1.41412 0
M  V30 1031 C 95.2135 5.76057 1.11244 0
M  V30 1032 C 97.5655 6.26343 0.887538 0
M  V30 1033 C 96.2295 6.63483 0.731207 0
M  V30 1034 H 95.4995 0.587303 0.451836 0
M  V30 1035 H 98.1465 1.83948 0.532468 0
M  V30 1036 H 96.4515 2.43312 3.07094 0
M  V30 1037 H 98.1485 2.78006 2.88988 0
M  V30 1038 H 94.7385 3.83329 1.91721 0
M  V30 1039 H 98.9225 4.72679 1.51289 0
M  V30 1040 H 94.1785 6.03516 0.978686 0
M  V30 1041 H 98.3525 6.93958 0.582654 0
M  V30 1042 H 95.9795 7.59568 0.309806 0
M  V30 1043 N 97.5546 -0.734337 1.39446 0
M  V30 1044 C 98.5016 -1.84835 1.38219 0
M  V30 1045 C 99.4716 -1.64331 0.24179 0
M  V30 1046 O 100.657 -1.85728 0.437002 0
M  V30 1047 C 97.7966 -3.22355 1.23212 0
M  V30 1048 C 96.9096 -3.5456 2.46801 0
M  V30 1049 C 96.0446 -4.81485 2.24377 0
M  V30 1050 C 95.0836 -5.06536 3.43639 0
M  V30 1051 N 94.2206 -6.24665 3.20528 0
M  V30 1052 H 99.0606 -1.85219 2.33448 0
M  V30 1053 H 96.5976 -0.905039 1.15963 0
M  V30 1054 H 98.5556 -4.0174 1.12522 0
M  V30 1055 H 97.1856 -3.21248 0.316121 0
M  V30 1056 H 96.2376 -2.69872 2.68092 0
M  V30 1057 H 97.5496 -3.6899 3.3563 0
M  V30 1058 H 96.7036 -5.68852 2.10933 0
M  V30 1059 H 95.4426 -4.6923 1.32944 0
M  V30 1060 H 94.4476 -4.17632 3.5758 0
M  V30 1061 H 95.6726 -5.20676 4.35974 0
M  V30 1062 H 93.6186 -6.13696 2.3176 0
M  V30 1063 H 93.5356 -6.39685 4.02913 0
M  V30 1064 H 94.8036 -7.14868 3.10779 0
M  V30 1065 N 99.0327 -1.24633 -0.964593 0
M  V30 1066 C 100.281 -1.08573 -1.70459 0
M  V30 1067 C 100.602 0.375655 -1.91347 0
M  V30 1068 O 99.8717 1.26779 -1.49345 0
M  V30 1069 H 98.4517 -0.398784 -0.631649 0
M  V30 1070 H 101.114 -1.56601 -1.16026 0
M  V30 1071 H 100.21 -1.58623 -2.68785 0
M  V30 1072 N 100.511 1.16574 -1.06058 0
M  V30 1073 C 101.922 1.68662 -0.800632 0
M  V30 1074 C 102.273 1.84184 0.67608 0
M  V30 1075 O 101.398 1.53568 1.52466 0
M  V30 1076 C 101.993 3.06356 -1.44676 0
M  V30 1077 C 100.552 3.55575 -1.23465 0
M  V30 1078 C 99.6988 2.31616 -1.52477 0
M  V30 1079 H 102.65 1.00969 -1.22438 0
M  V30 1080 H 102.671 3.70636 -0.860788 0
M  V30 1081 H 102.183 2.95027 -2.52152 0
M  V30 1082 H 100.284 3.72167 -0.179527 0
M  V30 1083 H 100.397 4.37812 -1.94571 0
M  V30 1084 H 98.7608 2.36512 -0.945209 0
M  V30 1085 H 99.5438 2.22887 -2.61106 0
M  V30 1086 N 101.989 0.842826 1.3317 0
M  V30 1087 C 103.4 0.496651 1.79973 0
M  V30 1088 C 103.751 -0.984641 1.69703 0
M  V30 1089 O 102.876 -1.76743 1.24863 0
M  V30 1090 C 103.471 0.894727 3.26772 0
M  V30 1091 C 102.03 0.600629 3.71577 0
M  V30 1092 C 101.177 1.10091 2.5451 0
M  V30 1093 H 104.128 1.03116 1.20635 0
M  V30 1094 H 104.149 0.206347 3.7994 0
M  V30 1095 H 103.661 1.97287 3.34215 0
M  V30 1096 H 101.762 -0.467284 3.69658 0
M  V30 1097 H 101.875 1.15863 4.64879 0
M  V30 1098 H 100.239 0.52162 2.49301 0
M  V30 1099 H 101.022 2.18591 2.64713 0
M  V30 1100 N 103.467 -1.45747 0.599634 0
M  V30 1101 C 104.713 -2.02592 0.0918643 0
M  V30 1102 C 105.046 -1.46806 -1.27128 0
M  V30 1103 O 104.321 -0.639658 -1.83681 0
M  V30 1104 C 104.604 -3.60073 0.0443398 0
M  V30 1105 C 104.457 -4.26208 1.43759 0
M  V30 1106 C 105.776 -4.35309 -0.647608 0
M  V30 1107 H 102.895 -0.736175 0.034857 0
M  V30 1108 H 105.537 -1.73694 0.770081 0
M  V30 1109 H 103.687 -3.84823 -0.533224 0
M  V30 1110 H 105.359 -4.12668 2.06162 0
M  V30 1111 H 103.602 -3.84916 2.00056 0
M  V30 1112 H 104.273 -5.35069 1.35665 0
M  V30 1113 H 106.749 -4.15805 -0.156776 0
M  V30 1114 H 105.625 -5.45038 -0.649942 0
M  V30 1115 H 105.886 -4.07598 -1.71219 0
M  V30 1116 N 104.945 -0.338344 -1.53925 0
M  V30 1117 C 105.893 0.536231 -2.26335 0
M  V30 1118 C 106.887 1.1063 -1.28286 0
M  V30 1119 O 108.093 1.05264 -1.46012 0
M  V30 1120 H 104.468 0.191602 -0.727181 0
M  V30 1121 H 106.439 -0.0965747 -2.98244 0
M  V30 1122 C 105.188 1.67803 -3.04528 0
M  V30 1123 H 104.511 1.24864 -3.79801 0
M  V30 1124 H 105.951 2.26526 -3.58416 0
M  V30 1125 C 104.41 2.60439 -2.13712 0
M  V30 1126 O 104.94 3.6255 -1.72975 0
M  V30 1127 N 103.146 2.29006 -1.78898 0
M  V30 1128 H 102.693 1.46011 -2.12223 0
M  V30 1129 H 102.651 2.91248 -1.18416 0
M  V30 1130 N 106.423 1.57458 -0.0668435 0
M  V30 1131 C 107.669 1.93587 0.6043 0
M  V30 1132 C 108.002 0.946722 1.69561 0
M  V30 1133 O 107.277 -0.0248516 1.94484 0
M  V30 1134 C 107.56 3.40014 1.18585 0
M  V30 1135 C 107.413 4.49685 0.101529 0
M  V30 1136 C 108.732 3.87154 2.09284 0
M  V30 1137 H 105.851 0.703958 0.218202 0
M  V30 1138 H 108.493 1.89542 -0.131804 0
M  V30 1139 H 106.643 3.43592 1.81319 0
M  V30 1140 H 108.315 4.5823 -0.531279 0
M  V30 1141 H 106.558 4.30059 -0.568487 0
M  V30 1142 H 107.229 5.49266 0.54874 0
M  V30 1143 H 109.705 3.85551 1.56491 0
M  V30 1144 H 108.581 4.90231 2.46911 0
M  V30 1145 H 108.842 3.2481 2.99918 0
M  V30 1146 N 107.901 -0.206675 1.56239 0
M  V30 1147 C 109.129 -0.945345 1.8404 0
M  V30 1148 C 109.544 -1.77336 0.647885 0
M  V30 1149 O 108.901 -1.78425 -0.383511 0
M  V30 1150 C 108.952 -1.8509 3.10522 0
M  V30 1151 O 108.673 -1.05634 4.25174 0
M  V30 1152 C 110.174 -2.70222 3.51418 0
M  V30 1153 H 107.394 -0.276372 0.61144 0
M  V30 1154 H 109.938 -0.217417 2.03341 0
M  V30 1155 H 108.093 -2.53259 2.93153 0
M  V30 1156 H 108.507 -1.67238 4.97124 0
M  V30 1157 H 109.981 -3.29438 4.42916 0
M  V30 1158 H 110.458 -3.43358 2.73864 0
M  V30 1159 H 111.064 -2.07443 3.71278 0
M  V30 1160 N 109.379 -1.50304 -0.473955 0
M  V30 1161 C 110.619 -1.62786 -1.23612 0
M  V30 1162 C 110.983 -0.319786 -1.89318 0
M  V30 1163 O 112.184 -0.320012 -2.66888 0
M  V30 1164 C 110.455 -2.77351 -2.25414 0
M  V30 1165 S 112.014 -3.09948 -3.10608 0
M  V30 1166 H 108.832 -0.573895 -0.419721 0
M  V30 1167 H 111.434 -1.88076 -0.533623 0
M  V30 1168 H 110.138 -3.70879 -1.75719 0
M  V30 1169 H 109.669 -2.54137 -3.00296 0
M  V30 1170 H 111.684 -2.53553 -4.26527 0
M  V30 1171 N 110.857 0.726932 -1.39834 0
M  V30 1172 C 111.805 1.86235 -1.39353 0
M  V30 1173 C 112.799 1.67144 -0.275555 0
M  V30 1174 O 114.005 1.74387 -0.44601 0
M  V30 1175 H 110.38 0.613174 -0.43534 0
M  V30 1176 H 112.351 1.83756 -2.35109 0
M  V30 1177 C 111.1 3.23995 -1.26185 0
M  V30 1178 H 110.423 3.39285 -2.11484 0
M  V30 1179 H 111.863 4.03609 -1.29907 0
M  V30 1180 C 110.322 3.36888 0.0290018 0
M  V30 1181 O 110.852 3.89152 0.99619 0
M  V30 1182 N 109.058 2.90446 0.0947437 0
M  V30 1183 H 108.605 2.48102 -0.693035 0
M  V30 1184 H 108.563 2.99451 0.957932 0
M  V30 1185 N 112.336 1.25143 0.95797 0
M  V30 1186 C 113.585 1.0909 1.69654 0
M  V30 1187 C 113.898 -0.368548 1.92097 0
M  V30 1188 O 115.104 -0.649455 2.63618 0
M  V30 1189 C 113.56 1.90395 3.05414 0
M  V30 1190 C 113.168 3.4081 2.90779 0
M  V30 1191 C 114.912 1.82901 3.83076 0
M  V30 1192 C 112.819 4.14423 4.21909 0
M  V30 1193 H 111.749 0.404625 0.636235 0
M  V30 1194 H 114.4 1.4931 1.06672 0
M  V30 1195 H 112.782 1.42996 3.69281 0
M  V30 1196 H 113.956 3.95859 2.35865 0
M  V30 1197 H 112.271 3.49361 2.26575 0
M  V30 1198 H 114.868 2.35196 4.80195 0
M  V30 1199 H 115.211 0.796224 4.08615 0
M  V30 1200 H 115.744 2.28033 3.25954 0
M  V30 1201 H 112.483 5.18102 4.01561 0
M  V30 1202 H 112.003 3.64159 4.76601 0
M  V30 1203 H 113.682 4.21956 4.90471 0
M  V30 1204 N 113.814 -1.1601 1.06675 0
M  V30 1205 C 115.061 -1.86633 0.785781 0
M  V30 1206 C 115.389 -1.81929 -0.687896 0
M  V30 1207 O 114.644 -1.23253 -1.52011 0
M  V30 1208 C 114.943 -3.35547 1.23057 0
M  V30 1209 C 114.609 -3.60448 2.70902 0
M  V30 1210 C 113.271 -3.66954 3.11285 0
M  V30 1211 C 115.623 -3.7071 3.66365 0
M  V30 1212 C 112.951 -3.81225 4.45965 0
M  V30 1213 C 115.303 -3.86503 5.00797 0
M  V30 1214 C 113.967 -3.91252 5.40813 0
M  V30 1215 H 113.237 -0.682937 0.287538 0
M  V30 1216 H 115.884 -1.37146 1.33654 0
M  V30 1217 H 114.189 -3.87193 0.59907 0
M  V30 1218 H 115.886 -3.88583 0.990163 0
M  V30 1219 H 112.476 -3.56021 2.38636 0
M  V30 1220 H 116.66 -3.64991 3.36296 0
M  V30 1221 H 111.916 -3.83155 4.76447 0
M  V30 1222 H 116.09 -3.93385 5.74649 0
M  V30 1223 H 113.717 -4.02062 6.45174 0
M  V30 1224 N 115.292 -0.849877 -1.32721 0
M  V30 1225 C 116.541 -0.447175 -1.96681 0
M  V30 1226 C 116.854 1.00135 -1.68025 0
M  V30 1227 O 118.06 1.50926 -2.25685 0
M  V30 1228 C 116.516 -0.7487 -3.52026 0
M  V30 1229 C 116.124 -2.21264 -3.89546 0
M  V30 1230 C 117.868 -0.413487 -4.22481 0
M  V30 1231 C 115.775 -2.45763 -5.37917 0
M  V30 1232 H 114.705 -0.163486 -0.736063 0
M  V30 1233 H 117.356 -1.03999 -1.51183 0
M  V30 1234 H 115.738 -0.0853727 -3.95908 0
M  V30 1235 H 116.912 -2.91736 -3.56689 0
M  V30 1236 H 115.227 -2.5119 -3.32103 0
M  V30 1237 H 117.824 -0.574017 -5.3161 0
M  V30 1238 H 118.167 0.644492 -4.11281 0
M  V30 1239 H 118.7 -1.03251 -3.84167 0
M  V30 1240 H 115.439 -3.50168 -5.54132 0
M  V30 1241 H 114.959 -1.79864 -5.72197 0
M  V30 1242 H 116.638 -2.29471 -6.0494 0
M  V30 1243 N 116.77 1.45427 -0.607355 0
M  V30 1244 C 117.718 2.32269 0.12411 0
M  V30 1245 C 118.712 1.45955 0.859854 0
M  V30 1246 O 119.918 1.6244 0.775447 0
M  V30 1247 H 116.293 0.749691 0.0588839 0
M  V30 1248 H 118.264 2.91743 -0.626762 0
M  V30 1249 C 117.013 3.29567 1.1082 0
M  V30 1250 H 116.336 3.95978 0.551492 0
M  V30 1251 H 117.776 3.93061 1.58995 0
M  V30 1252 C 116.235 2.56722 2.18164 0
M  V30 1253 O 116.765 2.34842 3.25902 0
M  V30 1254 N 114.971 2.16861 1.93442 0
M  V30 1255 H 114.518 2.34855 1.05834 0
M  V30 1256 H 114.476 1.68444 2.65469 0
M  V30 1257 N 118.248 0.346503 1.53744 0
M  V30 1258 C 119.473 -0.253074 2.0585 0
M  V30 1259 C 119.898 -1.43202 1.21962 0
M  V30 1260 O 119.256 -1.79783 0.234073 0
M  V30 1261 C 119.304 -0.643193 3.54817 0
M  V30 1262 O 118.408 -1.74286 3.73762 0
M  V30 1263 H 117.749 -0.0413583 0.662711 0
M  V30 1264 H 120.279 0.501574 1.98357 0
M  V30 1265 H 120.289 -0.919526 3.97503 0
M  V30 1266 H 118.964 0.218966 4.15323 0
M  V30 1267 H 117.541 -1.46356 3.42979 0
M  V30 1268 N 119.726 -1.57421 0.075193 0
M  V30 1269 C 120.973 -1.93618 -0.593146 0
M  V30 1270 C 121.301 -0.955484 -1.69413 0
M  V30 1271 O 120.556 0.0283251 -1.9568 0
M  V30 1272 C 120.855 -3.36428 -1.20626 0
M  V30 1273 C 120.521 -4.50307 -0.231078 0
M  V30 1274 C 119.183 -4.81186 0.0371936 0
M  V30 1275 C 121.535 -5.19374 0.435888 0
M  V30 1276 C 118.863 -5.78466 0.979461 0
M  V30 1277 C 121.215 -6.17665 1.3665 0
M  V30 1278 C 119.879 -6.46958 1.6432 0
M  V30 1279 H 119.149 -0.708499 -0.217047 0
M  V30 1280 H 121.796 -1.90937 0.146793 0
M  V30 1281 H 120.101 -3.35592 -2.02201 0
M  V30 1282 H 121.798 -3.61727 -1.73073 0
M  V30 1283 H 118.388 -4.26227 -0.450357 0
M  V30 1284 H 122.572 -4.95711 0.241748 0
M  V30 1285 H 117.828 -5.99487 1.20106 0
M  V30 1286 H 122.002 -6.70284 1.88924 0
M  V30 1287 H 119.629 -7.2215 2.37494 0
M  V30 1288 N 121.204 0.198386 -1.56346 0
M  V30 1289 C 122.429 0.939682 -1.84891 0
M  V30 1290 C 122.854 1.76202 -0.658369 0
M  V30 1291 O 122.212 1.76993 0.392851 0
M  V30 1292 C 122.26 1.81428 -3.11635 0
M  V30 1293 O 121.364 2.91265 -2.91956 0
M  V30 1294 H 120.705 0.264807 -0.608912 0
M  V30 1295 H 123.235 0.204695 -2.03573 0
M  V30 1296 H 123.245 2.21958 -3.42343 0
M  V30 1297 H 121.92 1.21004 -3.97908 0
M  V30 1298 H 120.497 2.54514 -2.72538 0
M  V30 1299 N 122.682 1.50554 0.465978 0
M  V30 1300 C 123.907 1.65838 1.24549 0
M  V30 1301 C 124.332 0.343486 1.84937 0
M  V30 1302 O 123.69 -0.69324 1.67523 0
M  V30 1303 C 123.738 2.75533 2.32624 0
M  V30 1304 O 122.842 2.37142 3.37398 0
M  V30 1305 H 122.183 0.553893 0.366194 0
M  V30 1306 H 124.713 1.96959 0.553927 0
M  V30 1307 H 124.723 2.98763 2.77857 0
M  V30 1308 H 123.398 3.70962 1.88043 0
M  V30 1309 H 121.975 2.24377 2.97841 0
M  V30 1310 N 124.16 -0.719506 1.40217 0
M  V30 1311 C 125.409 -1.47486 1.37589 0
M  V30 1312 C 125.722 -1.9559 -0.0201568 0
M  V30 1313 O 126.928 -2.70973 -0.169049 0
M  V30 1314 C 125.384 -2.66575 2.41796 0
M  V30 1315 C 124.992 -2.25358 3.87192 0
M  V30 1316 C 126.736 -3.4433 2.48269 0
M  V30 1317 C 124.643 -3.41262 4.83005 0
M  V30 1318 H 123.573 -0.553901 0.511576 0
M  V30 1319 H 126.224 -0.783427 1.65936 0
M  V30 1320 H 124.606 -3.3787 2.06543 0
M  V30 1321 H 125.78 -1.61509 4.31569 0
M  V30 1322 H 124.095 -1.60657 3.84159 0
M  V30 1323 H 126.692 -4.30569 3.17041 0
M  V30 1324 H 127.035 -3.87872 1.51198 0
M  V30 1325 H 127.568 -2.80076 2.82493 0
M  V30 1326 H 124.307 -3.02755 5.81394 0
M  V30 1327 H 123.827 -4.0404 4.43297 0
M  V30 1328 H 125.506 -4.07383 5.02641 0
M  V30 1329 N 125.638 -1.25649 -0.95132 0
M  V30 1330 C 126.866 -1.13343 -1.73092 0
M  V30 1331 C 127.281 0.312434 -1.86197 0
M  V30 1332 O 126.638 1.21465 -1.36207 0
M  V30 1333 C 126.689 -1.78602 -3.14299 0
M  V30 1334 O 126.41 -3.17537 -3.01831 0
M  V30 1335 C 127.911 -1.72119 -4.08522 0
M  V30 1336 H 125.131 -0.395181 -0.542285 0
M  V30 1337 H 127.675 -1.66076 -1.19328 0
M  V30 1338 H 125.83 -1.29832 -3.64996 0
M  V30 1339 H 126.244 -3.49676 -3.90931 0
M  V30 1340 H 127.718 -2.22435 -5.052 0
M  V30 1341 H 128.195 -0.685635 -4.33815 0
M  V30 1342 H 128.801 -2.20393 -3.63741 0
M  V30 1343 N 127.117 1.15442 -1.07289 0
M  V30 1344 C 128.064 2.20161 -0.692653 0
M  V30 1345 C 129.034 1.63073 0.31564 0
M  V30 1346 O 130.219 1.89725 0.202235 0
M  V30 1347 C 127.359 3.44967 -0.0959509 0
M  V30 1348 C 126.472 4.16256 -1.15564 0
M  V30 1349 C 125.607 5.28609 -0.524011 0
M  V30 1350 C 124.646 5.91715 -1.56653 0
M  V30 1351 N 123.783 6.9554 -0.957531 0
M  V30 1352 H 128.623 2.52037 -1.59002 0
M  V30 1353 H 126.16 1.2378 -0.794798 0
M  V30 1354 H 128.118 4.16341 0.267628 0
M  V30 1355 H 126.748 3.1361 0.764772 0
M  V30 1356 H 125.8 3.43385 -1.6368 0
M  V30 1357 H 127.112 4.59268 -1.94613 0
M  V30 1358 H 126.266 6.06604 -0.108032 0
M  V30 1359 H 125.005 4.86787 0.29825 0
M  V30 1360 H 124.01 5.12433 -1.9923 0
M  V30 1361 H 125.235 6.35614 -2.39107 0
M  V30 1362 H 123.181 6.55814 -0.156162 0
M  V30 1363 H 123.098 7.36977 -1.68526 0
M  V30 1364 H 124.366 7.77435 -0.567032 0
M  V30 1365 N 128.595 0.856903 1.32268 0
M  V30 1366 C 129.823 0.475439 2.01363 0
M  V30 1367 C 130.238 -0.928486 1.64392 0
M  V30 1368 O 129.595 -1.60624 0.866387 0
M  V30 1369 C 129.646 0.607545 3.56358 0
M  V30 1370 O 129.367 1.95617 3.92002 0
M  V30 1371 C 130.868 0.225382 4.42727 0
M  V30 1372 H 128.088 0.186636 0.644521 0
M  V30 1373 H 130.632 1.15446 1.68797 0
M  V30 1374 H 128.787 -0.0237719 3.87393 0
M  V30 1375 H 129.201 1.95455 4.86721 0
M  V30 1376 H 130.675 0.368813 5.50767 0
M  V30 1377 H 131.152 -0.834369 4.31202 0
M  V30 1378 H 131.758 0.831864 4.17085 0
M  V30 1379 N 130.073 -1.45103 0.615059 0
M  V30 1380 C 131.301 -2.06553 0.11977 0
M  V30 1381 C 131.716 -1.45842 -1.19898 0
M  V30 1382 O 131.073 -0.575325 -1.73194 0
M  V30 1383 C 131.124 -3.61495 -0.018364 0
M  V30 1384 O 130.845 -4.19942 1.24822 0
M  V30 1385 C 132.346 -4.39947 -0.544237 0
M  V30 1386 H 129.566 -0.667096 0.0722739 0
M  V30 1387 H 132.11 -1.8623 0.84491 0
M  V30 1388 H 130.265 -3.81135 -0.693865 0
M  V30 1389 H 130.679 -5.13204 1.0827 0
M  V30 1390 H 132.153 -5.48838 -0.589953 0
M  V30 1391 H 132.63 -4.10255 -1.56805 0
M  V30 1392 H 133.236 -4.25188 0.0974703 0
M  V30 1393 N 131.551 -0.354651 -1.53558 0
M  V30 1394 C 132.484 0.540273 -2.21712 0
M  V30 1395 C 133.462 1.09161 -1.2051 0
M  V30 1396 O 134.646 1.14979 -1.49372 0
M  V30 1397 C 131.773 1.74435 -2.90328 0
M  V30 1398 C 130.819 1.32146 -4.05512 0
M  V30 1399 S 131.652 0.331924 -5.3447 0
M  V30 1400 C 132.808 1.54258 -6.06593 0
M  V30 1401 H 133.041 -0.0385776 -2.97275 0
M  V30 1402 H 130.574 -0.138736 -1.53775 0
M  V30 1403 H 132.532 2.43507 -3.30476 0
M  V30 1404 H 131.193 2.29444 -2.1451 0
M  V30 1405 H 130.386 2.21952 -4.52497 0
M  V30 1406 H 129.988 0.710091 -3.67197 0
M  V30 1407 H 132.28 2.47534 -6.30661 0
M  V30 1408 H 133.223 1.11431 -6.99277 0
M  V30 1409 H 133.631 1.74367 -5.36895 0
M  V30 1410 N 133.029 1.57378 -0.0835403 0
M  V30 1411 C 134.306 1.85363 0.624507 0
M  V30 1412 C 134.686 0.978239 1.87066 0
M  V30 1413 O 134.034 0.0475908 2.2845 0
M  V30 1414 C 134.244 3.35795 0.950947 0
M  V30 1415 C 135.592 4.03581 1.31939 0
M  V30 1416 O 136.616 3.40609 1.04232 0
M  V30 1417 O 135.475 5.14672 1.83779 0
M  V30 1418 H 132.569 0.766162 0.311329 0
M  V30 1419 H 135.115 1.69307 -0.115362 0
M  V30 1420 H 133.887 3.91244 0.0663899 0
M  V30 1421 H 133.51 3.57154 1.74719 0
M  V30 1422 N 134.507 -0.190092 1.56449 0
M  V30 1423 C 135.737 -0.92443 1.84764 0
M  V30 1424 C 136.145 -1.77146 0.664529 0
M  V30 1425 O 135.488 -1.79812 -0.375957 0
M  V30 1426 C 135.55 -1.86651 3.07248 0
M  V30 1427 C 135.214 -1.20094 4.40938 0
M  V30 1428 C 136.211 -0.575445 5.16706 0
M  V30 1429 C 133.896 -1.2033 4.87674 0
M  V30 1430 C 135.89 0.0388111 6.37388 0
M  V30 1431 C 133.577 -0.585214 6.08291 0
M  V30 1432 C 134.575 0.0347578 6.82991 0
M  V30 1433 O 134.263 0.643147 8.01323 0
M  V30 1434 H 133.995 -0.274974 0.617548 0
M  V30 1435 H 136.549 -0.200788 2.04416 0
M  V30 1436 H 134.779 -2.62998 2.83494 0
M  V30 1437 H 136.468 -2.46907 3.22167 0
M  V30 1438 H 137.234 -0.565728 4.81689 0
M  V30 1439 H 133.113 -1.67526 4.29484 0
M  V30 1440 H 136.657 0.523329 6.95634 0
M  V30 1441 H 132.554 -0.592451 6.42775 0
M  V30 1442 H 133.322 0.540545 8.16713 0
M  V30 1443 N 135.985 -1.50799 -0.457987 0
M  V30 1444 C 137.401 -1.38515 -0.792819 0
M  V30 1445 C 137.601 -0.451409 -1.96379 0
M  V30 1446 O 136.657 0.10112 -2.52297 0
M  V30 1447 C 137.97 -2.80149 -1.09258 0
M  V30 1448 C 139.518 -2.89156 -1.19825 0
M  V30 1449 C 139.993 -4.31651 -1.53106 0
M  V30 1450 N 141.484 -4.34662 -1.60072 0
M  V30 1451 C 142.219 -5.41928 -1.87354 0
M  V30 1452 N 141.715 -6.59384 -2.12568 0
M  V30 1453 N 143.508 -5.29385 -1.88965 0
M  V30 1454 H 135.659 -2.10073 0.313511 0
M  V30 1455 H 137.922 -0.944803 0.0777862 0
M  V30 1456 H 137.628 -3.50374 -0.305084 0
M  V30 1457 H 137.502 -3.18204 -2.02549 0
M  V30 1458 H 139.889 -2.19141 -1.97639 0
M  V30 1459 H 139.97 -2.54626 -0.244821 0
M  V30 1460 H 139.614 -5.02208 -0.758266 0
M  V30 1461 H 139.544 -4.63678 -2.49621 0
M  V30 1462 H 142.035 -3.49973 -1.42573 0
M  V30 1463 H 142.348 -7.36934 -2.32696 0
M  V30 1464 H 140.693 -6.62535 -2.09933 0
M  V30 1465 H 143.884 -4.36616 -1.68772 0
M  V30 1466 H 144.057 -6.13066 -2.09891 0
M  V30 1467 N 137.463 0.71206 -1.40597 0
M  V30 1468 C 138.709 1.47416 -1.39271 0
M  V30 1469 C 139.042 1.942 0.00388791 0
M  V30 1470 O 138.317 1.68403 0.973179 0
M  V30 1471 C 138.6 2.69774 -2.38525 0
M  V30 1472 C 138.453 2.28861 -3.87224 0
M  V30 1473 C 139.772 3.71939 -2.35264 0
M  V30 1474 H 136.891 0.534713 -0.5072 0
M  V30 1475 H 139.533 0.812375 -1.71757 0
M  V30 1476 H 137.683 3.26238 -2.10953 0
M  V30 1477 H 139.355 1.77852 -4.25636 0
M  V30 1478 H 137.598 1.60824 -4.02887 0
M  V30 1479 H 138.269 3.16584 -4.52193 0
M  V30 1480 H 140.745 3.25113 -2.59694 0
M  V30 1481 H 139.621 4.55186 -3.06753 0
M  V30 1482 H 139.882 4.20484 -1.36549 0
M  V30 1483 N 138.941 1.26152 0.944643 0
M  V30 1484 C 139.889 1.07215 2.06417 0
M  V30 1485 C 140.883 9.2007e-05 1.694 0
M  V30 1486 O 142.089 0.1565 1.79318 0
M  V30 1487 H 138.464 0.329837 0.675805 0
M  V30 1488 H 140.435 2.02099 2.19541 0
M  V30 1489 C 139.184 0.718197 3.40202 0
M  V30 1490 H 138.507 1.53497 3.69159 0
M  V30 1491 H 139.947 0.625459 4.19361 0
M  V30 1492 C 138.406 -0.576435 3.31932 0
M  V30 1493 O 138.936 -1.61574 3.67773 0
M  V30 1494 N 137.142 -0.565781 2.85039 0
M  V30 1495 H 136.689 0.280367 2.5607 0
M  V30 1496 H 136.647 -1.43213 2.79888 0
M  V30 1497 N 140.419 -1.14872 1.07899 0
M  V30 1498 C 141.665 -1.86064 0.806725 0
M  V30 1499 C 141.998 -1.82434 -0.665706 0
M  V30 1500 O 141.273 -1.25138 -1.48899 0
M  V30 1501 C 141.556 -3.34929 1.32267 0
M  V30 1502 C 141.409 -3.47161 2.86006 0
M  V30 1503 C 142.728 -4.29863 0.943717 0
M  V30 1504 H 139.847 -0.675591 0.294526 0
M  V30 1505 H 142.489 -1.34925 1.33773 0
M  V30 1506 H 140.639 -3.78611 0.870974 0
M  V30 1507 H 142.311 -3.12302 3.39507 0
M  V30 1508 H 140.554 -2.88539 3.23925 0
M  V30 1509 H 141.225 -4.51777 3.17177 0
M  V30 1510 H 143.701 -3.9417 1.33302 0
M  V30 1511 H 142.577 -5.32494 1.33198 0
M  V30 1512 H 142.838 -4.41846 -0.149796 0
M  V30 1513 N 141.898 -0.863906 -1.31812 0
M  V30 1514 C 143.145 -0.471836 -1.96926 0
M  V30 1515 C 143.473 0.974578 -1.68322 0
M  V30 1516 O 142.728 1.7003 -0.968933 0
M  V30 1517 C 143.027 -0.668547 -3.51091 0
M  V30 1518 C 142.693 -2.08683 -3.99703 0
M  V30 1519 C 141.355 -2.47471 -4.12688 0
M  V30 1520 C 143.707 -3.01207 -4.25351 0
M  V30 1521 C 141.035 -3.78037 -4.4867 0
M  V30 1522 C 143.387 -4.31282 -4.62794 0
M  V30 1523 C 142.051 -4.69992 -4.73987 0
M  V30 1524 H 141.321 -0.172657 -0.720604 0
M  V30 1525 H 143.968 -1.09573 -1.57054 0
M  V30 1526 H 142.273 0.0385252 -3.91781 0
M  V30 1527 H 143.97 -0.345102 -3.99512 0
M  V30 1528 H 140.56 -1.77566 -3.90087 0
M  V30 1529 H 144.744 -2.72469 -4.14819 0
M  V30 1530 H 140 -4.078 -4.55532 0
M  V30 1531 H 144.174 -5.03031 -4.81594 0
M  V30 1532 H 141.801 -5.71207 -5.01624 0
M  V30 1533 N 143.376 1.44774 -0.622745 0
M  V30 1534 C 144.306 2.33382 0.0741861 0
M  V30 1535 C 145.287 1.47719 0.843387 0
M  V30 1536 O 146.472 1.76458 0.810934 0
M  V30 1537 C 143.602 3.30663 1.06204 0
M  V30 1538 C 142.556 4.26079 0.405037 0
M  V30 1539 C 141.882 5.13165 1.5022 0
M  V30 1540 C 143.182 5.1781 -0.683414 0
M  V30 1541 H 144.876 2.91905 -0.665713 0
M  V30 1542 H 142.422 1.40363 -0.321587 0
M  V30 1543 H 144.375 3.9153 1.55827 0
M  V30 1544 H 143.099 2.70331 1.83272 0
M  V30 1545 H 141.758 3.66532 -0.0704683 0
M  V30 1546 H 141.406 4.49191 2.26355 0
M  V30 1547 H 141.106 5.77812 1.06803 0
M  V30 1548 H 142.63 5.76902 2.00041 0
M  V30 1549 H 144.044 5.72661 -0.270631 0
M  V30 1550 H 142.441 5.91015 -1.04023 0
M  V30 1551 H 143.511 4.59326 -1.55395 0
M  V30 1552 N 144.854 0.36279 1.53368 0
M  V30 1553 C 146.27 0.0116182 1.59596 0
M  V30 1554 C 146.47 -1.47012 1.37803 0
M  V30 1555 O 145.526 -2.23136 1.18181 0
M  V30 1556 C 146.839 0.465052 2.97082 0
M  V30 1557 C 148.387 0.419033 3.10182 0
M  V30 1558 C 148.862 0.848235 4.50077 0
M  V30 1559 N 150.353 0.803183 4.56183 0
M  V30 1560 C 151.088 1.107 5.62613 0
M  V30 1561 N 150.584 1.47996 6.76808 0
M  V30 1562 N 152.377 1.02998 5.52583 0
M  V30 1563 H 144.528 1.32775 1.65785 0
M  V30 1564 H 146.791 0.542518 0.777417 0
M  V30 1565 H 146.497 1.49892 3.18159 0
M  V30 1566 H 146.371 -0.149786 3.76902 0
M  V30 1567 H 148.758 -0.605696 2.88817 0
M  V30 1568 H 148.839 1.06933 2.32377 0
M  V30 1569 H 148.483 1.87107 4.7218 0
M  V30 1570 H 148.413 0.175218 5.26308 0
M  V30 1571 H 150.904 0.52838 3.74188 0
M  V30 1572 H 151.217 1.69613 7.53957 0
M  V30 1573 H 149.562 1.51859 6.78206 0
M  V30 1574 H 152.753 0.737817 4.62249 0
M  V30 1575 H 152.926 1.2701 6.35431 0
M  V30 1576 N 146.332 -1.57332 0.0918853 0
M  V30 1577 C 147.264 -2.10869 -0.898168 0
M  V30 1578 C 148.277 -1.04521 -1.24817 0
M  V30 1579 O 149.466 -1.31977 -1.20184 0
M  V30 1580 C 146.566 -2.57083 -2.2082 0
M  V30 1581 C 145.739 -3.87229 -2.03402 0
M  V30 1582 C 144.798 -4.19324 -3.17889 0
M  V30 1583 O 143.824 -4.88598 -2.91994 0
M  V30 1584 N 145.026 -3.74471 -4.43567 0
M  V30 1585 H 147.791 -2.96439 -0.440943 0
M  V30 1586 H 145.352 -1.61631 -0.0933064 0
M  V30 1587 H 147.344 -2.75602 -2.96354 0
M  V30 1588 H 145.914 -1.76541 -2.57977 0
M  V30 1589 H 145.134 -3.7789 -1.12218 0
M  V30 1590 H 146.422 -4.72379 -1.89038 0
M  V30 1591 H 145.82 -3.18546 -4.67488 0
M  V30 1592 H 144.377 -3.98151 -5.16061 0
M  V30 1593 N 147.81 0.181792 -1.56548 0
M  V30 1594 C 148.742 1.24956 -1.92142 0
M  V30 1595 C 149.755 1.41022 -0.813422 0
M  V30 1596 O 150.944 1.41212 -1.09186 0
M  V30 1597 C 148.044 2.61981 -2.14987 0
M  V30 1598 C 147.217 2.6735 -3.46183 0
M  V30 1599 C 146.276 3.85664 -3.5798 0
M  V30 1600 O 145.302 3.72148 -4.30691 0
M  V30 1601 N 146.504 5.01683 -2.92053 0
M  V30 1602 H 149.269 0.947329 -2.84334 0
M  V30 1603 H 146.83 0.371629 -1.57577 0
M  V30 1604 H 148.822 3.3958 -2.20154 0
M  V30 1605 H 147.392 2.84637 -1.2923 0
M  V30 1606 H 146.612 1.75925 -3.52766 0
M  V30 1607 H 147.9 2.67939 -4.32534 0
M  V30 1608 H 147.298 5.15564 -2.32832 0
M  V30 1609 H 145.855 5.77181 -3.0283 0
M  V30 1610 N 149.288 1.51039 0.449983 0
M  V30 1611 C 150.534 1.64287 1.19923 0
M  V30 1612 C 150.889 0.348701 1.89214 0
M  V30 1613 O 150.182 -0.654751 1.80065 0
M  V30 1614 C 150.376 2.77556 2.25161 0
M  V30 1615 C 150.205 4.17862 1.66198 0
M  V30 1616 C 148.975 4.83976 1.45243 0
M  V30 1617 C 151.173 5.01388 1.14519 0
M  V30 1618 N 149.155 6.08433 0.817437 0
M  V30 1619 C 150.526 6.16743 0.634705 0
M  V30 1620 C 152.581 4.87008 1.03574 0
M  V30 1621 C 151.284 7.19295 0.0255452 0
M  V30 1622 C 153.31 5.89757 0.440489 0
M  V30 1623 C 152.672 7.04375 -0.0595112 0
M  V30 1624 H 148.771 0.655161 0.426952 0
M  V30 1625 H 151.355 1.88228 0.49781 0
M  V30 1626 H 149.526 2.553 2.92706 0
M  V30 1627 H 151.258 2.80049 2.92155 0
M  V30 1628 H 148.013 4.41627 1.71063 0
M  V30 1629 H 148.437 6.75017 0.517747 0
M  V30 1630 H 153.079 3.9866 1.4082 0
M  V30 1631 H 150.797 8.07302 -0.359071 0
M  V30 1632 H 154.383 5.80698 0.35788 0
M  V30 1633 H 153.263 7.82521 -0.512882 0
M  V30 1634 N 150.766 -0.704594 1.40972 0
M  V30 1635 C 151.714 -1.83994 1.42299 0
M  V30 1636 C 152.708 -1.66684 0.302111 0
M  V30 1637 O 153.914 -1.73655 0.473697 0
M  V30 1638 H 150.289 -0.606171 0.44504 0
M  V30 1639 H 152.26 -1.79992 2.38003 0
M  V30 1640 C 151.009 -3.21946 1.31323 0
M  V30 1641 H 150.332 -3.35878 2.16855 0
M  V30 1642 H 151.772 -4.01491 1.36311 0
M  V30 1643 C 150.231 -3.36891 0.0245977 0
M  V30 1644 O 150.761 -3.90687 -0.934153 0
M  V30 1645 N 148.967 -2.90559 -0.0485243 0
M  V30 1646 H 148.514 -2.46968 0.732419 0
M  V30 1647 H 148.472 -3.00937 -0.910171 0
M  V30 1648 N 152.244 -1.26651 -0.937939 0
M  V30 1649 C 153.521 -1.0313 -1.66204 0
M  V30 1650 C 153.901 0.437256 -2.06522 0
M  V30 1651 O 153.249 1.41831 -1.79154 0
M  V30 1652 C 153.459 -1.98314 -2.87181 0
M  V30 1653 C 154.807 -2.27107 -3.58758 0
M  V30 1654 O 155.831 -1.96205 -2.97291 0
M  V30 1655 O 154.69 -2.79736 -4.69479 0
M  V30 1656 H 151.784 -0.392384 -0.727986 0
M  V30 1657 H 154.33 -1.37874 -0.989382 0
M  V30 1658 H 153.102 -2.97399 -2.54302 0
M  V30 1659 H 152.725 -1.64068 -3.6217 0
M  V30 1660 N 153.722 1.14298 -1.08507 0
M  V30 1661 C 155.133 1.66926 -0.836227 0
M  V30 1662 C 155.484 1.85576 0.63686 0
M  V30 1663 O 154.609 1.56767 1.49175 0
M  V30 1664 C 155.204 3.03219 -1.51142 0
M  V30 1665 C 153.763 3.52876 -1.30979 0
M  V30 1666 C 152.91 2.2833 -1.57356 0
M  V30 1667 H 155.861 0.983491 -1.24552 0
M  V30 1668 H 155.882 3.68726 -0.939211 0
M  V30 1669 H 155.394 2.89612 -2.58353 0
M  V30 1670 H 153.495 3.71703 -0.258429 0
M  V30 1671 H 153.608 4.33586 -2.03814 0
M  V30 1672 H 151.972 2.34454 -0.995164 0
M  V30 1673 H 152.755 2.17298 -2.65775 0
M  V30 1674 N 155.201 0.870884 1.31352 0
M  V30 1675 C 156.617 0.562932 1.49343 0
M  V30 1676 C 156.817 -0.902725 1.80148 0
M  V30 1677 O 155.873 -1.68484 1.88067 0
M  V30 1678 C 157.186 1.46393 2.62659 0
M  V30 1679 C 158.734 1.46607 2.76542 0
M  V30 1680 C 159.209 2.35266 3.92955 0
M  V30 1681 N 160.7 2.33151 4.00243 0
M  V30 1682 C 161.435 2.98471 4.89594 0
M  V30 1683 N 160.931 3.72964 5.8384 0
M  V30 1684 N 162.724 2.87775 4.82848 0
M  V30 1685 H 154.875 1.81923 1.09626 0
M  V30 1686 H 157.138 0.777934 0.541777 0
M  V30 1687 H 156.844 2.50689 2.46674 0
M  V30 1688 H 156.718 1.16314 3.58819 0
M  V30 1689 H 159.105 0.43069 2.9194 0
M  V30 1690 H 159.186 1.8071 1.81046 0
M  V30 1691 H 158.83 3.38881 3.78315 0
M  V30 1692 H 158.76 1.98487 4.87761 0
M  V30 1693 H 161.251 1.79006 3.32814 0
M  V30 1694 H 161.564 4.19932 6.4875 0
M  V30 1695 H 159.909 3.77073 5.83816 0
M  V30 1696 H 163.1 2.29116 4.08195 0
M  V30 1697 H 163.273 3.38961 5.52277 0
M  V30 1698 N 156.679 -1.44442 0.630414 0
M  V30 1699 C 157.609 -2.33418 -0.0618083 0
M  V30 1700 C 158.59 -1.48165 -0.835541 0
M  V30 1701 O 159.775 -1.76886 -0.801564 0
M  V30 1702 C 156.905 -3.31222 -1.04449 0
M  V30 1703 C 155.859 -4.26288 -0.382436 0
M  V30 1704 C 155.185 -5.13954 -1.47497 0
M  V30 1705 C 156.485 -5.1744 0.710865 0
M  V30 1706 H 158.179 -2.91548 0.681184 0
M  V30 1707 H 155.725 -1.40191 0.329026 0
M  V30 1708 H 157.678 -3.92351 -1.53748 0
M  V30 1709 H 156.402 -2.71299 -1.81836 0
M  V30 1710 H 155.061 -3.6649 0.0899054 0
M  V30 1711 H 154.709 -4.50385 -2.2397 0
M  V30 1712 H 154.409 -5.7837 -1.03737 0
M  V30 1713 H 155.933 -5.77955 -1.96979 0
M  V30 1714 H 157.347 -5.72509 0.300996 0
M  V30 1715 H 155.744 -5.90455 1.07156 0
M  V30 1716 H 156.814 -4.58496 1.57829 0
M  V30 1717 N 158.157 -0.370918 -1.53173 0
M  V30 1718 C 159.382 0.220293 -2.06227 0
M  V30 1719 C 159.807 1.41243 -1.24225 0
M  V30 1720 O 159.165 1.79387 -0.262645 0
M  V30 1721 C 159.213 0.586663 -3.55796 0
M  V30 1722 O 158.317 1.68317 -3.76488 0
M  V30 1723 H 157.658 0.0308099 -0.663285 0
M  V30 1724 H 160.188 -0.533068 -1.97534 0
M  V30 1725 H 160.198 0.85617 -3.98916 0
M  V30 1726 H 158.873 -0.285013 -4.14922 0
M  V30 1727 H 157.45 1.40881 -3.45264 0
M  V30 1728 N 159.635 1.57281 -0.100228 0
M  V30 1729 C 160.865 1.98591 0.569681 0
M  V30 1730 C 161.273 0.978315 1.61943 0
M  V30 1731 O 160.616 -0.0396108 1.83657 0
M  V30 1732 C 160.678 3.36282 1.271 0
M  V30 1733 C 160.342 4.55488 0.371409 0
M  V30 1734 C 161.339 5.18491 -0.382504 0
M  V30 1735 C 159.024 5.01474 0.287965 0
M  V30 1736 C 161.018 6.25852 -1.20779 0
M  V30 1737 C 158.705 6.08701 -0.540965 0
M  V30 1738 C 159.703 6.70755 -1.28749 0
M  V30 1739 O 159.391 7.75914 -2.10269 0
M  V30 1740 H 159.123 0.65752 0.156982 0
M  V30 1741 H 161.677 2.0463 -0.177734 0
M  V30 1742 H 159.907 3.26941 2.0651 0
M  V30 1743 H 161.596 3.62005 1.83595 0
M  V30 1744 H 162.362 4.83891 -0.3278 0
M  V30 1745 H 158.241 4.52932 0.858689 0
M  V30 1746 H 161.785 6.74218 -1.79096 0
M  V30 1747 H 157.682 6.42732 -0.597131 0
M  V30 1748 H 158.45 7.92925 -2.03007 0
M  V30 1749 N 161.113 -0.173488 1.56642 0
M  V30 1750 C 162.529 -0.525174 1.50712 0
M  V30 1751 C 162.729 -1.8476 0.804107 0
M  V30 1752 O 161.785 -2.49869 0.363574 0
M  V30 1753 C 163.098 -0.559937 2.95441 0
M  V30 1754 C 164.646 -0.647288 3.06234 0
M  V30 1755 C 165.121 -0.712963 4.52417 0
M  V30 1756 N 166.612 -0.775911 4.56655 0
M  V30 1757 C 167.347 -0.847264 5.67106 0
M  V30 1758 N 166.843 -0.879585 6.87194 0
M  V30 1759 N 168.636 -0.886117 5.55071 0
M  V30 1760 H 160.787 0.693681 2.00753 0
M  V30 1761 H 163.05 0.249841 0.914485 0
M  V30 1762 H 162.756 0.343049 3.50023 0
M  V30 1763 H 162.63 -1.40718 3.49969 0
M  V30 1764 H 165.017 -1.5407 2.51687 0
M  V30 1765 H 165.098 0.226586 2.54794 0
M  V30 1766 H 164.742 0.176183 5.07594 0
M  V30 1767 H 164.672 -1.60295 5.0161 0
M  V30 1768 H 167.163 -0.759304 3.70193 0
M  V30 1769 H 167.476 -0.935144 7.67121 0
M  V30 1770 H 165.821 -0.847898 6.89808 0
M  V30 1771 H 169.012 -0.857853 4.60172 0
M  V30 1772 H 169.185 -0.938263 6.41171 0
M  V30 1773 N 162.591 -1.51276 -0.441967 0
M  V30 1774 C 163.501 -1.75092 -1.56141 0
M  V30 1775 C 164.517 -0.634963 -1.62001 0
M  V30 1776 O 165.693 -0.916686 -1.79329 0
M  V30 1777 C 162.758 -1.86666 -2.92158 0
M  V30 1778 C 161.819 -3.10506 -2.96453 0
M  V30 1779 C 161.052 -3.21519 -4.25982 0
M  V30 1780 O 161.275 -2.38586 -5.18105 0
M  V30 1781 O 160.209 -4.14465 -4.36466 0
M  V30 1782 H 164.035 -2.70044 -1.38961 0
M  V30 1783 H 161.62 -1.35722 -0.624499 0
M  V30 1784 H 163.502 -1.96292 -3.72891 0
M  V30 1785 H 162.177 -0.949014 -3.09476 0
M  V30 1786 H 161.084 -3.06363 -2.14692 0
M  V30 1787 H 162.417 -4.01945 -2.84079 0
M  V30 1788 N 164.069 0.697108 -1.41344 0
M  V30 1789 C 165.299 1.48377 -1.43763 0
M  V30 1790 C 165.707 1.89156 -0.0408726 0
M  V30 1791 O 165.05 1.57239 0.949812 0
M  V30 1792 C 165.112 2.7781 -2.2817 0
M  V30 1793 C 164.776 2.59244 -3.76353 0
M  V30 1794 C 165.773 2.25292 -4.68551 0
M  V30 1795 C 163.458 2.74933 -4.20378 0
M  V30 1796 C 165.452 2.07264 -6.02761 0
M  V30 1797 C 163.139 2.56521 -5.54653 0
M  V30 1798 C 164.137 2.22737 -6.4566 0
M  V30 1799 O 163.825 2.04485 -7.77458 0
M  V30 1800 H 163.557 0.463842 -0.491759 0
M  V30 1801 H 166.111 0.865934 -1.86255 0
M  V30 1802 H 164.341 3.41995 -1.8049 0
M  V30 1803 H 166.03 3.39608 -2.22309 0
M  V30 1804 H 166.796 2.12787 -4.35829 0
M  V30 1805 H 162.675 3.00213 -3.49848 0
M  V30 1806 H 166.219 1.80817 -6.73759 0
M  V30 1807 H 162.116 2.68616 -5.86955 0
M  V30 1808 H 162.884 2.1926 -7.88586 0
M  V30 1809 N 165.547 1.27147 0.931209 0
M  V30 1810 C 166.958 1.12044 1.49342 0
M  V30 1811 C 167.309 -0.295795 1.93957 0
M  V30 1812 O 166.434 -1.18835 1.80852 0
M  V30 1813 C 167.029 2.02781 2.71414 0
M  V30 1814 C 165.588 1.91794 3.2387 0
M  V30 1815 C 164.735 1.95543 1.96617 0
M  V30 1816 H 167.686 1.40091 0.745672 0
M  V30 1817 H 167.707 1.58156 3.46074 0
M  V30 1818 H 167.219 3.05848 2.38911 0
M  V30 1819 H 165.32 0.916992 3.6114 0
M  V30 1820 H 165.433 2.77852 3.90302 0
M  V30 1821 H 163.797 1.39722 2.12955 0
M  V30 1822 H 164.58 3.00259 1.66432 0
M  V30 1823 N 167.025 -1.13721 1.09112 0
M  V30 1824 C 168.302 -1.81155 0.737706 0
M  V30 1825 C 168.682 -1.96253 -0.777683 0
M  V30 1826 O 168.03 -1.52807 -1.69889 0
M  V30 1827 C 168.24 -3.16392 1.47299 0
M  V30 1828 C 169.588 -3.91787 1.63671 0
M  V30 1829 O 170.612 -3.26005 1.43524 0
M  V30 1830 O 169.471 -5.0977 1.96969 0
M  V30 1831 H 166.565 -0.783518 0.26463 0
M  V30 1832 H 169.111 -1.20676 1.19312 0
M  V30 1833 H 167.883 -3.0061 2.50498 0
M  V30 1834 H 167.506 -3.8457 1.00953 0
M  V30 1835 N 168.503 -0.877838 -1.30888 0
M  V30 1836 C 169.78 -0.413052 -1.91189 0
M  V30 1837 C 170.16 1.1056 -1.79832 0
M  V30 1838 O 169.508 1.93771 -1.21099 0
M  V30 1839 C 169.718 -0.903191 -3.3711 0
M  V30 1840 C 171.066 -0.93395 -4.14201 0
M  V30 1841 O 172.09 -0.849373 -3.45925 0
M  V30 1842 O 170.949 -1.05772 -5.36167 0
M  V30 1843 H 168.043 -0.125035 -0.817493 0
M  V30 1844 H 170.589 -0.966269 -1.39504 0
M  V30 1845 H 169.361 -1.94692 -3.39427 0
M  V30 1846 H 168.984 -0.328732 -3.96239 0
M  V30 1847 N 169.982 1.44106 -0.638065 0
M  V30 1848 C 171.207 2.0685 -0.150916 0
M  V30 1849 C 171.632 1.47417 1.16833 0
M  V30 1850 O 170.99 0.578264 1.71831 0
M  V30 1851 C 171.038 3.60555 -0.05708 0
M  V30 1852 O 170.142 4.00465 0.984972 0
M  V30 1853 H 169.483 0.658151 -0.0879399 0
M  V30 1854 H 172.013 1.84865 -0.876707 0
M  V30 1855 H 172.023 4.07789 0.131232 0
M  V30 1856 H 170.698 4.03193 -1.02021 0
M  V30 1857 H 169.275 3.64849 0.770672 0
M  V30 1858 N 171.46 0.379036 1.52974 0
M  V30 1859 C 172.39 -0.452706 2.29069 0
M  V30 1860 C 173.371 -1.07237 1.32039 0
M  V30 1861 O 174.556 -1.08708 1.60923 0
M  V30 1862 C 171.686 -1.5856 3.08992 0
M  V30 1863 C 170.64 -1.0925 4.13822 0
M  V30 1864 C 169.966 -2.31668 4.81907 0
M  V30 1865 C 171.266 -0.167702 5.22031 0
M  V30 1866 H 172.96 0.182181 2.98845 0
M  V30 1867 H 170.506 0.0890592 1.43724 0
M  V30 1868 H 172.459 -2.1742 3.6098 0
M  V30 1869 H 171.183 -2.24792 2.36931 0
M  V30 1870 H 169.842 -0.526494 3.628 0
M  V30 1871 H 169.49 -2.96386 4.06404 0
M  V30 1872 H 169.19 -1.9934 5.52754 0
M  V30 1873 H 170.714 -2.91189 5.36695 0
M  V30 1874 H 172.128 -0.664186 5.6944 0
M  V30 1875 H 170.525 0.0653265 6.00064 0
M  V30 1876 H 171.595 0.786347 4.78482 0
M  V30 1877 N 172.938 -1.57226 0.108567 0
M  V30 1878 C 174.215 -1.86333 -0.594939 0
M  V30 1879 C 174.595 -1.00788 -1.85486 0
M  V30 1880 O 173.943 -0.0839293 -2.28346 0
M  V30 1881 C 174.153 -3.37265 -0.897405 0
M  V30 1882 C 175.501 -4.05629 -1.25501 0
M  V30 1883 O 176.525 -3.42224 -0.987998 0
M  V30 1884 O 175.384 -5.17531 -1.75567 0
M  V30 1885 H 172.478 -0.771018 -0.2991 0
M  V30 1886 H 175.024 -1.69102 0.142283 0
M  V30 1887 H 173.796 -3.913 -0.00413806 0
M  V30 1888 H 173.419 -3.59889 -1.69014 0
M  V30 1889 N 174.416 0.165178 -1.56732 0
M  V30 1890 C 175.346 1.20651 -1.99914 0
M  V30 1891 C 176.327 1.45827 -0.875705 0
M  V30 1892 O 177.512 1.57057 -1.14223 0
M  V30 1893 C 174.642 2.54401 -2.36427 0
M  V30 1894 C 173.596 2.43782 -3.51787 0
M  V30 1895 C 172.922 3.82078 -3.7406 0
M  V30 1896 C 174.222 1.93732 -4.85041 0
M  V30 1897 H 175.916 0.847534 -2.87154 0
M  V30 1898 H 173.462 0.40625 -1.38151 0
M  V30 1899 H 175.415 3.27458 -2.65234 0
M  V30 1900 H 174.139 2.92098 -1.46103 0
M  V30 1901 H 172.798 1.73178 -3.23117 0
M  V30 1902 H 172.446 4.17179 -2.81017 0
M  V30 1903 H 172.146 3.7584 -4.51684 0
M  V30 1904 H 173.67 4.56712 -4.05274 0
M  V30 1905 H 175.084 2.56569 -5.12684 0
M  V30 1906 H 173.481 1.98428 -5.66345 0
M  V30 1907 H 174.551 0.891962 -4.76626 0
M  V30 1908 N 175.894 1.51508 0.433938 0
M  V30 1909 C 177.171 1.54888 1.19453 0
M  V30 1910 C 177.551 0.315154 2.08734 0
M  V30 1911 O 176.899 -0.699558 2.17528 0
M  V30 1912 C 177.109 2.86467 1.99342 0
M  V30 1913 C 178.457 3.38545 2.56267 0
M  V30 1914 O 179.481 2.88041 2.0955 0
M  V30 1915 O 178.34 4.26675 3.41483 0
M  V30 1916 H 175.434 0.622863 0.544032 0
M  V30 1917 H 177.98 1.63823 0.442732 0
M  V30 1918 H 176.752 3.67718 1.33788 0
M  V30 1919 H 176.375 2.8071 2.8158 0
M  V30 1920 N 177.372 -0.689602 1.41712 0
M  V30 1921 C 178.783 -1.26973 1.36875 0
M  V30 1922 C 179.134 -1.96124 0.054748 0
M  V30 1923 O 178.259 -1.99141 -0.84687 0
M  V30 1924 C 178.854 -2.30912 2.47922 0
M  V30 1925 C 177.413 -2.84486 2.46464 0
M  V30 1926 C 176.56 -1.58603 2.27465 0
M  V30 1927 H 179.511 -0.48396 1.51141 0
M  V30 1928 H 179.532 -3.12331 2.17323 0
M  V30 1929 H 179.044 -1.80554 3.43543 0
M  V30 1930 H 177.145 -3.39005 1.54617 0
M  V30 1931 H 177.258 -3.34511 3.42986 0
M  V30 1932 H 175.622 -1.84632 1.75451 0
M  V30 1933 H 176.405 -1.10233 3.25121 0
M  V30 1934 N 178.85 -1.27639 -0.924453 0
M  V30 1935 C 180.075 -1.17101 -1.71179 0
M  V30 1936 C 180.5 0.268134 -1.86179 0
M  V30 1937 O 179.858 1.19415 -1.36418 0
M  V30 1938 C 179.906 -1.86313 -3.08739 0
M  V30 1939 O 179.01 -1.16331 -3.95652 0
M  V30 1940 H 178.351 -0.407091 -0.524569 0
M  V30 1941 H 180.881 -1.68767 -1.15666 0
M  V30 1942 H 180.891 -1.938 -3.59034 0
M  V30 1943 H 179.566 -2.91001 -2.97138 0
M  V30 1944 H 178.143 -1.16935 -3.54091 0
M  V30 1945 N 180.328 1.1314 -1.09713 0
M  V30 1946 C 181.261 2.17735 -0.683137 0
M  V30 1947 C 182.239 1.59582 0.311841 0
M  V30 1948 O 183.423 1.87298 0.212514 0
M  V30 1949 C 180.55 3.38699 -0.00684324 0
M  V30 1950 C 179.596 4.1546 -0.964102 0
M  V30 1951 S 180.429 4.74733 -2.47767 0
M  V30 1952 C 181.585 5.9904 -1.81387 0
M  V30 1953 H 181.818 2.52515 -1.56918 0
M  V30 1954 H 179.351 1.24484 -0.913404 0
M  V30 1955 H 181.309 4.08765 0.377044 0
M  V30 1956 H 179.97 3.02214 0.85589 0
M  V30 1957 H 179.163 5.02093 -0.43803 0
M  V30 1958 H 178.765 3.51066 -1.28953 0
M  V30 1959 H 181.057 6.67846 -1.13967 0
M  V30 1960 H 182 6.56261 -2.65947 0
M  V30 1961 H 182.408 5.4976 -1.28155 0
M  V30 1962 N 181.806 0.884767 1.30421 0
M  V30 1963 C 182.736 0.367574 2.30589 0
M  V30 1964 C 183.717 -0.549464 1.60981 0
M  V30 1965 O 184.902 -0.46336 1.88591 0
M  V30 1966 C 182.032 -0.418944 3.44764 0
M  V30 1967 C 180.986 0.406316 4.26067 0
M  V30 1968 C 180.312 -0.506793 5.32293 0
M  V30 1969 C 181.612 1.64832 4.95608 0
M  V30 1970 H 183.306 1.20462 2.74097 0
M  V30 1971 H 180.852 0.580695 1.31772 0
M  V30 1972 H 182.805 -0.791395 4.13902 0
M  V30 1973 H 181.529 -1.28964 3.0006 0
M  V30 1974 H 180.188 0.760903 3.58617 0
M  V30 1975 H 179.836 -1.37519 4.83836 0
M  V30 1976 H 179.536 0.0415828 5.87585 0
M  V30 1977 H 181.06 -0.875764 6.04287 0
M  V30 1978 H 182.474 1.34646 5.57264 0
M  V30 1979 H 180.871 2.13688 5.60765 0
M  V30 1980 H 181.941 2.39284 4.21748 0
M  V30 1981 N 183.284 -1.43765 0.645699 0
M  V30 1982 C 184.561 -1.9541 0.0862963 0
M  V30 1983 C 184.941 -1.58725 -1.39175 0
M  V30 1984 O 184.289 -0.868581 -2.11348 0
M  V30 1985 C 184.499 -3.47488 0.324565 0
M  V30 1986 C 185.847 -4.24001 0.225497 0
M  V30 1987 O 186.871 -3.55274 0.256715 0
M  V30 1988 O 185.73 -5.46313 0.142801 0
M  V30 1989 H 182.824 -0.826882 -0.0139483 0
M  V30 1990 H 185.37 -1.53743 0.718415 0
M  V30 1991 H 184.142 -3.67289 1.3496 0
M  V30 1992 H 183.765 -3.96135 -0.340987 0
M  V30 1993 N 184.763 -0.387143 -1.52771 0
M  V30 1994 C 185.988 0.198407 -2.06449 0
M  V30 1995 C 186.413 1.39918 -1.25716 0
M  V30 1996 O 185.771 1.79099 -0.281657 0
M  V30 1997 C 185.819 0.548893 -3.56398 0
M  V30 1998 O 184.923 1.64315 -3.78252 0
M  V30 1999 H 184.264 0.0237731 -0.663574 0
M  V30 2000 H 186.794 -0.553989 -1.96957 0
M  V30 2001 H 186.804 0.813812 -3.99801 0
M  V30 2002 H 185.479 -0.329005 -4.14597 0
M  V30 2003 H 184.056 1.37211 -3.46738 0
M  V30 2004 N 186.241 1.57166 -0.116904 0
M  V30 2005 C 187.49 1.94298 0.541407 0
M  V30 2006 C 187.803 1.00236 1.67964 0
M  V30 2007 O 189.009 1.26826 2.40057 0
M  V30 2008 C 187.465 3.45306 1.01449 0
M  V30 2009 C 187.073 4.47899 -0.0951738 0
M  V30 2010 C 188.817 3.91361 1.6443 0
M  V30 2011 C 186.724 5.90083 0.394491 0
M  V30 2012 H 185.654 0.725308 0.206019 0
M  V30 2013 H 188.305 1.82446 -0.196419 0
M  V30 2014 H 186.687 3.52385 1.80667 0
M  V30 2015 H 187.861 4.52486 -0.871374 0
M  V30 2016 H 186.176 4.11583 -0.631505 0
M  V30 2017 H 188.773 4.95004 2.02176 0
M  V30 2018 H 189.116 3.3122 2.52189 0
M  V30 2019 H 189.649 3.87073 0.917559 0
M  V30 2020 H 186.388 6.53974 -0.447004 0
M  V30 2021 H 185.908 5.88921 1.13722 0
M  V30 2022 H 187.587 6.41307 0.856399 0
M  V30 2023 N 187.719 -0.156864 1.56817 0
M  V30 2024 C 188.965 -0.867645 1.83966 0
M  V30 2025 C 189.32 -1.79233 0.699511 0
M  V30 2026 O 188.613 -1.89186 -0.303176 0
M  V30 2027 C 188.807 -1.68737 3.1506 0
M  V30 2028 C 188.636 -0.843548 4.41718 0
M  V30 2029 C 187.406 -0.512994 5.02689 0
M  V30 2030 C 189.604 -0.178416 5.1399 0
M  V30 2031 N 187.586 0.345456 6.12927 0
M  V30 2032 C 188.957 0.540586 6.17639 0
M  V30 2033 C 191.012 -0.0980696 4.97803 0
M  V30 2034 C 189.715 1.33233 7.06853 0
M  V30 2035 C 191.741 0.680387 5.87473 0
M  V30 2036 C 191.103 1.3877 6.90596 0
M  V30 2037 H 187.202 -0.295642 0.723961 0
M  V30 2038 H 189.786 -0.13365 1.94241 0
M  V30 2039 H 187.957 -2.39268 3.0595 0
M  V30 2040 H 189.689 -2.34056 3.30151 0
M  V30 2041 H 186.444 -0.846476 4.65974 0
M  V30 2042 H 186.868 0.765415 6.72659 0
M  V30 2043 H 191.51 -0.630562 4.18071 0
M  V30 2044 H 189.228 1.87612 7.8602 0
M  V30 2045 H 192.814 0.744415 5.77018 0
M  V30 2046 H 191.694 1.9804 7.58782 0
M  V30 2047 N 189.197 -1.51736 -0.425897 0
M  V30 2048 C 190.144 -1.73875 -1.51776 0
M  V30 2049 C 191.114 -0.580702 -1.55618 0
M  V30 2050 O 192.299 -0.81641 -1.72451 0
M  V30 2051 C 189.439 -1.88012 -2.89388 0
M  V30 2052 C 188.552 -3.15606 -2.94986 0
M  V30 2053 C 187.687 -3.20271 -4.23793 0
M  V30 2054 C 186.726 -4.42134 -4.23302 0
M  V30 2055 N 185.863 -4.44284 -5.43651 0
M  V30 2056 H 190.703 -2.67071 -1.32201 0
M  V30 2057 H 188.24 -1.32351 -0.642008 0
M  V30 2058 H 190.198 -1.9419 -3.69251 0
M  V30 2059 H 188.828 -0.98213 -3.07496 0
M  V30 2060 H 187.88 -3.18681 -2.07717 0
M  V30 2061 H 189.192 -4.05486 -2.90486 0
M  V30 2062 H 188.346 -3.25428 -5.12036 0
M  V30 2063 H 187.085 -2.28299 -4.30965 0
M  V30 2064 H 186.09 -4.3714 -3.3345 0
M  V30 2065 H 187.315 -5.35382 -4.17783 0
M  V30 2066 H 185.261 -3.55188 -5.51523 0
M  V30 2067 H 185.178 -5.27988 -5.41078 0
M  V30 2068 H 186.446 -4.53649 -6.33895 0
M  V30 2069 N 190.675 0.682077 -1.42076 0
M  V30 2070 C 192.086 1.26246 -1.37546 0
M  V30 2071 C 192.437 1.96092 -0.0651481 0
M  V30 2072 O 191.562 1.99587 0.836297 0
M  V30 2073 C 192.157 2.29594 -2.49143 0
M  V30 2074 C 190.716 2.83175 -2.47969 0
M  V30 2075 C 189.863 1.57395 -2.28303 0
M  V30 2076 H 192.814 0.475937 -1.51395 0
M  V30 2077 H 192.835 3.11175 -2.18976 0
M  V30 2078 H 192.347 1.78729 -3.44496 0
M  V30 2079 H 190.448 3.3818 -1.56413 0
M  V30 2080 H 190.561 3.32687 -3.44755 0
M  V30 2081 H 188.925 1.83699 -1.76428 0
M  V30 2082 H 189.708 1.08507 -3.25701 0
M  V30 2083 N 192.153 1.28127 0.917671 0
M  V30 2084 C 193.43 1.05761 1.64542 0
M  V30 2085 C 193.81 -0.404344 2.07191 0
M  V30 2086 O 193.158 -1.38963 1.81388 0
M  V30 2087 C 193.368 2.02857 2.83989 0
M  V30 2088 C 194.716 2.32786 3.551 0
M  V30 2089 O 195.74 2.0091 2.94132 0
M  V30 2090 O 194.599 2.87169 4.64969 0
M  V30 2091 H 191.693 0.403916 0.721652 0
M  V30 2092 H 194.239 1.39431 0.967322 0
M  V30 2093 H 193.011 3.01407 2.49538 0
M  V30 2094 H 192.634 1.69809 3.59514 0
M  V30 2095 N 193.631 -1.12557 1.10312 0
M  V30 2096 C 194.561 -2.20341 0.772798 0
M  V30 2097 C 195.542 -1.68198 -0.25365 0
M  V30 2098 O 196.727 -1.93831 -0.119699 0
M  V30 2099 C 193.857 -3.46709 0.202443 0
M  V30 2100 C 192.811 -4.11996 1.15943 0
M  V30 2101 C 192.137 -5.328 0.450345 0
M  V30 2102 C 193.437 -4.5828 2.50552 0
M  V30 2103 H 195.131 -2.48229 1.674 0
M  V30 2104 H 192.677 -1.19308 0.806326 0
M  V30 2105 H 194.63 -4.2138 -0.0407752 0
M  V30 2106 H 193.354 -3.18245 -0.734001 0
M  V30 2107 H 192.013 -3.39305 1.38808 0
M  V30 2108 H 191.661 -5.00602 -0.490531 0
M  V30 2109 H 191.361 -5.7743 1.08851 0
M  V30 2110 H 192.885 -6.10219 0.215642 0
M  V30 2111 H 194.299 -5.2433 2.31843 0
M  V30 2112 H 192.696 -5.13683 3.10242 0
M  V30 2113 H 193.766 -3.72329 3.10643 0
M  V30 2114 N 195.109 -0.891671 -1.2995 0
M  V30 2115 C 196.356 -0.513501 -1.95881 0
M  V30 2116 C 196.684 0.938655 -1.70351 0
M  V30 2117 O 195.939 1.67936 -1.00478 0
M  V30 2118 C 196.238 -0.742868 -3.49594 0
M  V30 2119 C 195.904 -2.17114 -3.95186 0
M  V30 2120 C 194.566 -2.56169 -4.07346 0
M  V30 2121 C 196.918 -3.10162 -4.18866 0
M  V30 2122 C 194.246 -3.87469 -4.4055 0
M  V30 2123 C 196.598 -4.41001 -4.53542 0
M  V30 2124 C 195.262 -4.79941 -4.63911 0
M  V30 2125 H 194.532 -0.187903 -0.71678 0
M  V30 2126 H 197.179 -1.1288 -1.54694 0
M  V30 2127 H 195.484 -0.044586 -3.91775 0
M  V30 2128 H 197.181 -0.429767 -3.9869 0
M  V30 2129 H 193.771 -1.85801 -3.86233 0
M  V30 2130 H 197.955 -2.81206 -4.08946 0
M  V30 2131 H 193.211 -4.17371 -4.46779 0
M  V30 2132 H 197.385 -5.13133 -4.70815 0
M  V30 2133 H 195.012 -5.81719 -4.89395 0
M  V30 2134 N 196.587 1.43421 -0.653314 0
M  V30 2135 C 197.834 2.01812 -0.166745 0
M  V30 2136 C 198.162 1.51535 1.21931 0
M  V30 2137 O 197.417 0.698975 1.82792 0
M  V30 2138 C 197.716 3.57176 -0.126623 0
M  V30 2139 C 197.382 4.26798 -1.45444 0
M  V30 2140 C 196.044 4.45534 -1.81805 0
M  V30 2141 C 198.396 4.66225 -2.32989 0
M  V30 2142 C 195.724 5.00961 -3.05377 0
M  V30 2143 C 198.076 5.23021 -3.55853 0
M  V30 2144 C 196.74 5.39973 -3.9241 0
M  V30 2145 H 196.01 0.738484 -0.0610162 0
M  V30 2146 H 198.657 1.71896 -0.84404 0
M  V30 2147 H 196.962 3.86634 0.634123 0
M  V30 2148 H 198.659 4.00112 0.266723 0
M  V30 2149 H 195.249 4.12561 -1.16153 0
M  V30 2150 H 199.433 4.51443 -2.06187 0
M  V30 2151 H 194.689 5.12271 -3.3375 0
M  V30 2152 H 198.863 5.52518 -4.23907 0
M  V30 2153 H 196.49 5.82687 -4.88242 0
M  V30 2154 N 198.065 0.39524 1.52563 0
M  V30 2155 C 199.028 -0.425001 2.25225 0
M  V30 2156 C 200.028 -0.985266 1.27079 0
M  V30 2157 O 201.218 -0.866332 1.5113 0
M  V30 2158 C 198.35 -1.59686 3.01186 0
M  V30 2159 H 199.543 0.211233 2.99155 0
M  V30 2160 H 197.096 0.147472 1.55603 0
M  V30 2161 H 197.831 -2.27035 2.31572 0
M  V30 2162 H 197.616 -1.20176 3.73229 0
M  V30 2163 H 199.106 -2.17743 3.5634 0
M  V30 2164 N 199.544 -1.57102 0.125237 0
M  V30 2165 C 200.492 -2.16905 -0.839927 0
M  V30 2166 C 201.486 -1.11998 -1.27094 0
M  V30 2167 O 202.692 -1.3029 -1.24195 0
M  V30 2168 H 199.067 -0.694252 -0.288995 0
M  V30 2169 H 201.038 -2.96774 -0.311115 0
M  V30 2170 C 199.787 -2.78795 -2.07771 0
M  V30 2171 H 199.11 -3.59221 -1.755 0
M  V30 2172 H 200.55 -3.2417 -2.73295 0
M  V30 2173 C 199.009 -1.76193 -2.87155 0
M  V30 2174 O 199.539 -1.21909 -3.82755 0
M  V30 2175 N 197.745 -1.45991 -2.51267 0
M  V30 2176 H 197.292 -1.90325 -1.73592 0
M  V30 2177 H 197.25 -0.775844 -3.04677 0
M  V30 2178 N 201.022 0.148545 -1.56898 0
M  V30 2179 C 201.932 1.20293 -2.01412 0
M  V30 2180 C 202.948 1.47107 -0.929273 0
M  V30 2181 O 204.124 1.58807 -1.23863 0
M  V30 2182 C 201.189 2.51682 -2.38447 0
M  V30 2183 C 200.25 2.32529 -3.60872 0
M  V30 2184 C 199.483 3.57653 -3.96132 0
M  V30 2185 O 199.706 4.63771 -3.32073 0
M  V30 2186 O 198.64 3.50408 -4.89385 0
M  V30 2187 H 202.466 0.855025 -2.91416 0
M  V30 2188 H 200.051 0.357151 -1.45068 0
M  V30 2189 H 201.933 3.29147 -2.63135 0
M  V30 2190 H 200.608 2.86006 -1.51599 0
M  V30 2191 H 199.515 1.53019 -3.41373 0
M  V30 2192 H 200.848 2.03121 -4.48333 0
M  V30 2193 N 202.5 1.5196 0.417844 0
M  V30 2194 C 203.447 1.74678 1.50852 0
M  V30 2195 C 204.417 0.588947 1.55308 0
M  V30 2196 O 205.602 0.825544 1.72016 0
M  V30 2197 C 202.742 1.89544 2.88387 0
M  V30 2198 C 201.855 3.17166 2.93309 0
M  V30 2199 C 200.99 3.22513 4.22088 0
M  V30 2200 C 200.029 4.44372 4.20951 0
M  V30 2201 N 199.166 4.47161 5.41287 0
M  V30 2202 H 204.006 2.67768 1.30783 0
M  V30 2203 H 201.543 1.32689 0.63498 0
M  V30 2204 H 203.501 1.96146 3.68216 0
M  V30 2205 H 202.131 0.998424 3.06971 0
M  V30 2206 H 201.183 3.19778 2.06024 0
M  V30 2207 H 202.495 4.07021 2.88332 0
M  V30 2208 H 201.649 3.28139 5.10303 0
M  V30 2209 H 200.388 2.30581 4.29748 0
M  V30 2210 H 199.393 4.38902 3.31127 0
M  V30 2211 H 200.618 5.3759 4.14938 0
M  V30 2212 H 198.564 3.58108 5.49632 0
M  V30 2213 H 198.481 5.3085 5.3827 0
M  V30 2214 H 199.749 4.57005 6.3148 0
M  V30 2215 N 203.978 -0.674533 1.42435 0
M  V30 2216 C 205.226 -1.43175 1.42637 0
M  V30 2217 C 205.547 -1.94951 0.0438992 0
M  V30 2218 O 204.817 -1.7308 -0.917607 0
M  V30 2219 H 203.397 -0.531307 0.525092 0
M  V30 2220 H 206.059 -0.797006 1.77859 0
M  V30 2221 H 205.155 -2.28463 2.12629 0
M  V30 2222 N 205.456 -1.28612 -0.910864 0
M  V30 2223 C 206.419 -1.12803 -1.9952 0
M  V30 2224 C 207.419 -0.0668264 -1.60661 0
M  V30 2225 O 208.609 -0.312847 -1.71368 0
M  V30 2226 C 205.741 -0.72254 -3.33155 0
M  V30 2227 H 206.934 -2.09109 -2.14973 0
M  V30 2228 H 204.487 -1.11639 -1.09391 0
M  V30 2229 H 205.222 0.241152 -3.23402 0
M  V30 2230 H 205.007 -1.48916 -3.62721 0
M  V30 2231 H 206.497 -0.634666 -4.12749 0
M  V30 2232 N 206.934 1.1197 -1.10907 0
M  V30 2233 C 207.882 2.19927 -0.757303 0
M  V30 2234 C 208.876 1.67564 0.248747 0
M  V30 2235 O 210.082 1.79672 0.108605 0
M  V30 2236 H 206.457 0.716925 -0.226987 0
M  V30 2237 H 208.428 2.46847 -1.67658 0
M  V30 2238 C 207.177 3.47061 -0.210671 0
M  V30 2239 H 206.5 3.87703 -0.976049 0
M  V30 2240 H 207.94 4.24 -0.0026584 0
M  V30 2241 C 206.399 3.19864 1.05777 0
M  V30 2242 O 206.929 3.40049 2.13845 0
M  V30 2243 N 205.135 2.73636 0.978349 0
M  V30 2244 H 204.682 2.5741 0.0988246 0
M  V30 2245 H 204.64 2.55815 1.82773 0
M  V30 2246 N 208.412 0.89855 1.29475 0
M  V30 2247 C 209.659 0.523882 1.95606 0
M  V30 2248 C 209.987 -0.929608 1.70847 0
M  V30 2249 O 209.242 -1.67401 1.01367 0
M  V30 2250 C 209.541 0.761398 3.49195 0
M  V30 2251 C 209.207 2.19207 3.94029 0
M  V30 2252 C 207.869 2.58326 4.05982 0
M  V30 2253 C 210.221 3.12379 4.17216 0
M  V30 2254 C 207.549 3.898 4.38489 0
M  V30 2255 C 209.901 4.43401 4.51197 0
M  V30 2256 C 208.565 4.82394 4.61359 0
M  V30 2257 H 207.835 0.191702 0.715773 0
M  V30 2258 H 210.482 1.13699 1.54094 0
M  V30 2259 H 208.787 0.0653622 3.91745 0
M  V30 2260 H 210.484 0.450904 3.98457 0
M  V30 2261 H 207.074 1.87846 3.85242 0
M  V30 2262 H 211.258 2.83371 4.07449 0
M  V30 2263 H 206.514 4.19734 4.44559 0
M  V30 2264 H 210.688 5.15623 4.68087 0
M  V30 2265 H 208.315 5.84306 4.86303 0
M  V30 2266 N 209.89 -1.43072 0.660911 0
M  V30 2267 C 210.84 -2.27948 -0.04847 0
M  V30 2268 C 211.824 -1.40325 -0.787246 0
M  V30 2269 O 213.016 -1.63893 -0.668446 0
M  V30 2270 C 210.145 -3.28143 -1.00881 0
M  V30 2271 C 209.231 -4.23252 -0.268108 0
M  V30 2272 N 209.622 -5.00656 0.719528 0
M  V30 2273 C 207.92 -4.43092 -0.508493 0
M  V30 2274 C 208.621 -5.70019 1.15988 0
M  V30 2275 N 207.597 -5.41364 0.492584 0
M  V30 2276 H 211.399 -2.85213 0.709279 0
M  V30 2277 H 208.913 -1.54869 0.488822 0
M  V30 2278 H 210.91 -3.87736 -1.53188 0
M  V30 2279 H 209.57 -2.7244 -1.76654 0
M  V30 2280 H 210.581 -5.06115 1.09855 0
M  V30 2281 H 207.258 -3.98449 -1.24679 0
M  V30 2282 H 208.648 -6.4214 1.97751 0
M  V30 2283 N 211.368 -0.403325 -1.52352 0
M  V30 2284 C 212.278 0.432009 -2.30588 0
M  V30 2285 C 213.294 1.05884 -1.38075 0
M  V30 2286 O 214.47 1.06161 -1.71148 0
M  V30 2287 C 211.535 1.53669 -3.10784 0
M  V30 2288 C 210.596 0.933525 -4.19027 0
M  V30 2289 C 209.829 1.98557 -4.9539 0
M  V30 2290 O 210.052 3.20283 -4.71991 0
M  V30 2291 O 208.986 1.59504 -5.80381 0
M  V30 2292 H 212.812 -0.205739 -3.03002 0
M  V30 2293 H 210.397 -0.166675 -1.48467 0
M  V30 2294 H 212.279 2.17814 -3.60742 0
M  V30 2295 H 210.954 2.15915 -2.41169 0
M  V30 2296 H 209.861 0.254954 -3.7323 0
M  V30 2297 H 211.194 0.35508 -4.90918 0
M  V30 2298 N 212.846 1.57033 -0.133567 0
M  V30 2299 C 214.092 1.95976 0.521649 0
M  V30 2300 C 214.425 1.01779 1.65393 0
M  V30 2301 O 213.7 0.0576581 1.94415 0
M  V30 2302 C 213.983 3.44738 1.04057 0
M  V30 2303 C 213.836 4.49711 -0.0892897 0
M  V30 2304 C 215.155 3.95682 1.92675 0
M  V30 2305 H 212.274 0.712579 0.188149 0
M  V30 2306 H 214.916 1.88813 -0.212076 0
M  V30 2307 H 213.066 3.50973 1.66583 0
M  V30 2308 H 214.738 4.55565 -0.725152 0
M  V30 2309 H 212.981 4.27261 -0.750378 0
M  V30 2310 H 213.652 5.51099 0.315284 0
M  V30 2311 H 216.128 3.91841 1.39998 0
M  V30 2312 H 215.004 5.00262 2.25897 0
M  V30 2313 H 215.265 3.37239 2.85872 0
M  V30 2314 N 214.325 -0.140222 1.56975 0
M  V30 2315 C 215.553 -0.866437 1.87884 0
M  V30 2316 C 215.968 -1.74428 0.722517 0
M  V30 2317 O 215.325 -1.79891 -0.30749 0
M  V30 2318 C 215.376 -1.71753 3.18093 0
M  V30 2319 O 215.097 -0.875056 4.29272 0
M  V30 2320 C 216.598 -2.55074 3.62563 0
M  V30 2321 H 213.818 -0.25019 0.622612 0
M  V30 2322 H 216.362 -0.130977 2.0408 0
M  V30 2323 H 214.517 -2.40598 3.03631 0
M  V30 2324 H 214.931 -1.46002 5.03769 0
M  V30 2325 H 216.405 -3.10356 4.5649 0
M  V30 2326 H 216.882 -3.31434 2.88181 0
M  V30 2327 H 217.488 -1.91509 3.79743 0
M  V30 2328 N 215.803 -1.52179 -0.40978 0
M  V30 2329 C 217.031 -1.70054 -1.17853 0
M  V30 2330 C 217.446 -0.409735 -1.843 0
M  V30 2331 O 216.803 0.614183 -1.71855 0
M  V30 2332 C 216.854 -2.83568 -2.24213 0
M  V30 2333 O 216.575 -4.0765 -1.60478 0
M  V30 2334 C 218.076 -3.12947 -3.13973 0
M  V30 2335 H 215.296 -0.569917 -0.354169 0
M  V30 2336 H 217.84 -1.98734 -0.482198 0
M  V30 2337 H 215.995 -2.57409 -2.89516 0
M  V30 2338 H 216.409 -4.70899 -2.30986 0
M  V30 2339 H 217.883 -3.95889 -3.84677 0
M  V30 2340 H 218.36 -2.26472 -3.76307 0
M  V30 2341 H 218.966 -3.40868 -2.5434 0
M  V30 2342 N 217.281 0.66697 -1.42791 0
M  V30 2343 C 218.558 1.4234 -1.34159 0
M  V30 2344 C 218.938 2.11093 0.0172729 0
M  V30 2345 O 218.286 2.03808 1.03318 0
M  V30 2346 C 218.496 2.41942 -2.51526 0
M  V30 2347 C 219.844 3.06353 -2.93995 0
M  V30 2348 O 220.868 2.52269 -2.51473 0
M  V30 2349 O 219.727 4.04376 -3.67617 0
M  V30 2350 H 216.821 0.635277 -0.529483 0
M  V30 2351 H 219.367 0.695034 -1.54814 0
M  V30 2352 H 218.139 1.89991 -3.42081 0
M  V30 2353 H 217.762 3.22249 -2.32898 0
M  V30 2354 N 218.759 1.29093 0.90403 0
M  V30 2355 C 219.707 1.13727 2.02901 0
M  V30 2356 C 220.701 0.0539853 1.69314 0
M  V30 2357 O 221.907 0.213469 1.7873 0
M  V30 2358 H 218.282 0.35117 0.664969 0
M  V30 2359 H 220.253 2.08982 2.13001 0
M  V30 2360 C 219.002 0.826066 3.37745 0
M  V30 2361 H 218.325 1.65164 3.64089 0
M  V30 2362 H 219.765 0.758559 4.17159 0
M  V30 2363 C 218.224 -0.470541 3.33598 0
M  V30 2364 O 218.754 -1.49792 3.72727 0
M  V30 2365 N 216.96 -0.474812 2.86695 0
M  V30 2366 H 216.507 0.361692 2.55048 0
M  V30 2367 H 216.465 -1.34236 2.84303 0
M  V30 2368 N 220.237 -1.11381 1.11499 0
M  V30 2369 C 221.184 -2.17439 0.773887 0
M  V30 2370 C 222.154 -1.64132 -0.254899 0
M  V30 2371 O 223.339 -1.90345 -0.13168 0
M  V30 2372 C 220.479 -3.44373 0.223917 0
M  V30 2373 C 219.592 -4.1168 1.30934 0
M  V30 2374 C 218.727 -5.263 0.71984 0
M  V30 2375 C 217.766 -5.85493 1.78507 0
M  V30 2376 N 216.903 -6.91507 1.21502 0
M  V30 2377 H 221.743 -2.45962 1.68246 0
M  V30 2378 H 219.28 -1.20744 0.840191 0
M  V30 2379 H 221.238 -4.17047 -0.112921 0
M  V30 2380 H 219.868 -3.16232 -0.647851 0
M  V30 2381 H 218.92 -3.37073 1.76312 0
M  V30 2382 H 220.232 -4.51729 2.11524 0
M  V30 2383 H 219.386 -6.05785 0.333094 0
M  V30 2384 H 218.125 -4.87559 -0.117377 0
M  V30 2385 H 217.13 -5.04686 2.18111 0
M  V30 2386 H 218.355 -6.26301 2.62533 0
M  V30 2387 H 216.301 -6.54783 0.399455 0
M  V30 2388 H 216.218 -7.30214 1.95763 0
M  V30 2389 H 217.486 -7.74795 0.855181 0
M  V30 2390 N 221.715 -0.905404 -1.28997 0
M  V30 2391 C 222.645 -0.404212 -2.29975 0
M  V30 2392 C 223.626 0.523784 -1.61835 0
M  V30 2393 O 224.811 0.433298 -1.89304 0
M  V30 2394 C 221.941 0.364042 -3.45387 0
M  V30 2395 C 220.895 -0.474048 -4.25367 0
M  V30 2396 C 220.221 0.422045 -5.33032 0
M  V30 2397 C 221.521 -1.72696 -4.92923 0
M  V30 2398 H 223.215 -1.24807 -2.72146 0
M  V30 2399 H 220.761 -0.601585 -1.30832 0
M  V30 2400 H 222.714 0.725447 -4.15109 0
M  V30 2401 H 221.438 1.24174 -3.02074 0
M  V30 2402 H 220.097 -0.81786 -3.57361 0
M  V30 2403 H 219.745 1.29804 -4.85963 0
M  V30 2404 H 219.445 -0.135057 -5.87445 0
M  V30 2405 H 220.969 0.779517 -6.05604 0
M  V30 2406 H 222.383 -1.43495 -5.55051 0
M  V30 2407 H 220.78 -2.22582 -5.57295 0
M  V30 2408 H 221.85 -2.45964 -4.17887 0
M  V30 2409 N 223.193 1.4272 -0.668489 0
M  V30 2410 C 224.123 2.335 -0.000100175 0
M  V30 2411 C 225.104 1.50328 0.795964 0
M  V30 2412 O 226.289 1.78949 0.754385 0
M  V30 2413 C 223.419 3.33874 0.956302 0
M  V30 2414 C 222.373 4.27152 0.269278 0
M  V30 2415 C 221.699 5.17684 1.33818 0
M  V30 2416 C 222.999 5.15373 -0.847805 0
M  V30 2417 H 224.693 2.89639 -0.758244 0
M  V30 2418 H 222.239 1.39269 -0.366079 0
M  V30 2419 H 224.192 3.9629 1.43292 0
M  V30 2420 H 222.916 2.76025 1.74579 0
M  V30 2421 H 221.575 3.66123 -0.187042 0
M  V30 2422 H 221.223 4.56165 2.1195 0
M  V30 2423 H 220.923 5.80918 0.883659 0
M  V30 2424 H 222.447 5.82974 1.81586 0
M  V30 2425 H 223.861 5.7151 -0.452681 0
M  V30 2426 H 222.258 5.87407 -1.22773 0
M  V30 2427 H 223.328 4.5415 -1.69929 0
M  V30 2428 N 224.671 0.411399 1.52136 0
M  V30 2429 C 226.087 0.0623865 1.59478 0
M  V30 2430 C 226.287 -1.42554 1.4241 0
M  V30 2431 O 225.343 -2.19263 1.2522 0
M  V30 2432 C 226.656 0.559331 2.95452 0
M  V30 2433 C 228.204 0.517503 3.08692 0
M  V30 2434 C 228.679 0.990994 4.4715 0
M  V30 2435 N 230.17 0.947908 4.53397 0
M  V30 2436 C 230.905 1.28544 5.58806 0
M  V30 2437 N 230.401 1.69454 6.71757 0
M  V30 2438 N 232.194 1.20526 5.49026 0
M  V30 2439 H 224.345 1.37982 1.61477 0
M  V30 2440 H 226.608 0.566977 0.759764 0
M  V30 2441 H 226.314 1.59938 3.1323 0
M  V30 2442 H 226.188 -0.0298014 3.77188 0
M  V30 2443 H 228.575 -0.513505 2.90598 0
M  V30 2444 H 228.656 1.14272 2.28857 0
M  V30 2445 H 228.3 2.02034 4.65988 0
M  V30 2446 H 228.23 0.34257 5.25485 0
M  V30 2447 H 230.721 0.647157 3.72317 0
M  V30 2448 H 231.034 1.93513 7.48179 0
M  V30 2449 H 229.379 1.73359 6.73032 0
M  V30 2450 H 232.57 0.884505 4.59667 0
M  V30 2451 H 232.743 1.47161 6.31069 0
M  V30 2452 N 226.149 -1.5696 0.141893 0
M  V30 2453 C 227.398 -1.95135 -0.510427 0
M  V30 2454 C 227.711 -1.02896 -1.66348 0
M  V30 2455 O 228.917 -1.30629 -2.38009 0
M  V30 2456 C 227.373 -3.46876 -0.959427 0
M  V30 2457 C 226.981 -4.47691 0.166419 0
M  V30 2458 C 228.725 -3.93927 -1.58183 0
M  V30 2459 C 226.632 -5.90636 -0.300565 0
M  V30 2460 H 225.562 -0.728494 -0.194454 0
M  V30 2461 H 228.213 -1.8211 0.22542 0
M  V30 2462 H 226.595 -3.55215 -1.75038 0
M  V30 2463 H 227.769 -4.51043 0.94325 0
M  V30 2464 H 226.084 -4.10527 0.696905 0
M  V30 2465 H 228.681 -4.98158 -1.94275 0
M  V30 2466 H 229.024 -3.3519 -2.46888 0
M  V30 2467 H 229.557 -3.88484 -0.855863 0
M  V30 2468 H 226.296 -6.5318 0.550989 0
M  V30 2469 H 225.816 -5.90655 -1.04338 0
M  V30 2470 H 227.495 -6.42588 -0.754265 0
M  V30 2471 N 227.627 0.131896 -1.57047 0
M  V30 2472 C 228.874 0.841932 -1.84168 0
M  V30 2473 C 229.202 1.8048 -0.725066 0
M  V30 2474 O 228.457 1.93618 0.284692 0
M  V30 2475 C 228.756 1.63703 -3.17704 0
M  V30 2476 C 228.422 0.81961 -4.43388 0
M  V30 2477 C 227.084 0.594148 -4.77518 0
M  V30 2478 C 229.436 0.248977 -5.20605 0
M  V30 2479 C 226.764 -0.212409 -5.86315 0
M  V30 2480 C 229.116 -0.544701 -6.30251 0
M  V30 2481 C 227.78 -0.780599 -6.6292 0
M  V30 2482 H 227.05 0.308085 -0.673917 0
M  V30 2483 H 229.697 0.104867 -1.91213 0
M  V30 2484 H 228.002 2.44464 -3.06177 0
M  V30 2485 H 229.699 2.19015 -3.35907 0
M  V30 2486 H 226.289 1.00542 -4.16641 0
M  V30 2487 H 230.473 0.410408 -4.946 0
M  V30 2488 H 225.729 -0.404524 -6.1006 0
M  V30 2489 H 229.903 -0.993922 -6.89271 0
M  V30 2490 H 227.53 -1.40742 -7.47058 0
M  V30 2491 N 229.106 1.52395 0.401703 0
M  V30 2492 C 230.053 1.76268 1.48991 0
M  V30 2493 C 231.023 0.605386 1.54675 0
M  V30 2494 O 232.208 0.843742 1.7113 0
M  V30 2495 C 229.348 1.92592 2.86361 0
M  V30 2496 C 228.461 3.20259 2.89928 0
M  V30 2497 C 227.596 3.26972 4.18644 0
M  V30 2498 C 226.635 4.48812 4.16214 0
M  V30 2499 N 225.772 4.52877 5.36514 0
M  V30 2500 H 230.612 2.6914 1.27935 0
M  V30 2501 H 228.149 1.33355 0.620871 0
M  V30 2502 H 230.107 2.0004 3.66115 0
M  V30 2503 H 228.737 1.03093 3.05895 0
M  V30 2504 H 227.789 3.21945 2.02621 0
M  V30 2505 H 229.101 4.10056 2.83999 0
M  V30 2506 H 228.255 3.33533 5.06794 0
M  V30 2507 H 226.994 2.35126 4.27278 0
M  V30 2508 H 225.999 4.4239 3.26453 0
M  V30 2509 H 227.224 5.41961 4.09213 0
M  V30 2510 H 225.17 3.63917 5.45802 0
M  V30 2511 H 225.087 5.36529 5.32609 0
M  V30 2512 H 226.355 4.63676 6.26597 0
M  V30 2513 N 230.584 -0.659388 1.43143 0
M  V30 2514 C 231.532 -1.79374 1.4808 0
M  V30 2515 C 232.526 -1.65639 0.354988 0
M  V30 2516 O 233.732 -1.7206 0.528704 0
M  V30 2517 H 230.107 -0.591705 0.4641 0
M  V30 2518 H 232.078 -1.72329 2.43609 0
M  V30 2519 C 230.827 -3.17606 1.41499 0
M  V30 2520 H 230.15 -3.28809 2.27431 0
M  V30 2521 H 231.59 -3.96951 1.49015 0
M  V30 2522 C 230.049 -3.36642 0.131765 0
M  V30 2523 O 230.579 -3.93461 -0.809386 0
M  V30 2524 N 228.785 -2.90567 0.0439396 0
M  V30 2525 H 228.332 -2.44513 0.810619 0
M  V30 2526 H 228.29 -3.03681 -0.813969 0
M  V30 2527 N 232.062 -1.29571 -0.897171 0
M  V30 2528 C 233.31 -1.17456 -1.64464 0
M  V30 2529 C 233.631 0.273698 -1.9307 0
M  V30 2530 O 232.901 1.18684 -1.55855 0
M  V30 2531 H 231.481 -0.431706 -0.609622 0
M  V30 2532 H 234.143 -1.62531 -1.07562 0
M  V30 2533 H 233.239 -1.72648 -2.59998 0
M  V30 2534 N 233.54 1.10788 -1.12088 0
M  V30 2535 C 234.488 2.19111 -0.780587 0
M  V30 2536 C 235.482 1.67818 0.230961 0
M  V30 2537 O 236.688 1.79777 0.0895427 0
M  V30 2538 H 233.063 0.714477 -0.234578 0
M  V30 2539 H 235.034 2.45055 -1.70266 0
M  V30 2540 C 233.783 3.46818 -0.24747 0
M  V30 2541 H 233.106 3.86646 -1.01712 0
M  V30 2542 H 234.546 4.23973 -0.0476291 0
M  V30 2543 C 233.005 3.20968 1.02378 0
M  V30 2544 O 233.535 3.42298 2.10226 0
M  V30 2545 N 231.741 2.74658 0.949271 0
M  V30 2546 H 231.288 2.57501 0.0715173 0
M  V30 2547 H 231.246 2.57739 1.80049 0
M  V30 2548 N 235.018 0.912232 1.28515 0
M  V30 2549 C 236.264 0.545405 1.95328 0
M  V30 2550 C 236.597 -0.908313 1.71649 0
M  V30 2551 O 235.872 -1.64575 1.03659 0
M  V30 2552 C 236.155 0.853483 3.4984 0
M  V30 2553 C 236.008 2.35982 3.82926 0
M  V30 2554 C 237.327 0.348589 4.38717 0
M  V30 2555 H 234.446 0.199626 0.709449 0
M  V30 2556 H 237.088 1.1412 1.5191 0
M  V30 2557 H 235.238 0.34643 3.86952 0
M  V30 2558 H 236.91 2.93738 3.55691 0
M  V30 2559 H 235.153 2.81543 3.30024 0
M  V30 2560 H 235.824 2.52593 4.90816 0
M  V30 2561 H 238.3 0.78294 4.08668 0
M  V30 2562 H 237.176 0.593242 5.45685 0
M  V30 2563 H 237.437 -0.751049 4.35674 0
M  V30 2564 N 236.496 -1.42363 0.676048 0
M  V30 2565 C 237.426 -2.33497 0.0124832 0
M  V30 2566 C 238.407 -1.50748 -0.787981 0
M  V30 2567 O 239.592 -1.79346 -0.744884 0
M  V30 2568 C 236.722 -3.34377 -0.938582 0
M  V30 2569 C 235.676 -4.27289 -0.246622 0
M  V30 2570 C 235.002 -5.18386 -1.31071 0
M  V30 2571 C 236.302 -5.14916 0.875125 0
M  V30 2572 H 237.996 -2.89233 0.773593 0
M  V30 2573 H 235.542 -1.39073 0.37346 0
M  V30 2574 H 237.495 -3.97044 -1.41188 0
M  V30 2575 H 236.219 -2.76947 -1.73113 0
M  V30 2576 H 234.878 -3.66018 0.206456 0
M  V30 2577 H 234.526 -4.57282 -2.09528 0
M  V30 2578 H 234.226 -5.81378 -0.852839 0
M  V30 2579 H 235.75 -5.83929 -1.78492 0
M  V30 2580 H 237.164 -5.71262 0.482983 0
M  V30 2581 H 235.561 -5.86747 1.25887 0
M  V30 2582 H 236.631 -4.53242 1.72335 0
M  V30 2583 N 237.974 -0.419461 -1.51915 0
M  V30 2584 C 239.204 0.151915 -2.06041 0
M  V30 2585 C 239.612 1.38539 -1.28855 0
M  V30 2586 O 238.955 1.80592 -0.336463 0
M  V30 2587 C 239.017 0.557119 -3.55157 0
M  V30 2588 C 238.681 -0.567054 -4.53468 0
M  V30 2589 C 239.678 -1.43379 -4.99738 0
M  V30 2590 C 237.363 -0.742693 -4.96779 0
M  V30 2591 C 239.357 -2.46102 -5.87973 0
M  V30 2592 C 237.044 -1.77322 -5.84808 0
M  V30 2593 C 238.042 -2.63078 -6.30301 0
M  V30 2594 O 237.73 -3.64364 -7.16585 0
M  V30 2595 H 237.462 0.0193293 -0.675724 0
M  V30 2596 H 240.016 -0.592073 -1.96682 0
M  V30 2597 H 238.246 1.35355 -3.62238 0
M  V30 2598 H 239.935 1.05759 -3.9188 0
M  V30 2599 H 240.701 -1.30954 -4.66986 0
M  V30 2600 H 236.58 -0.0848307 -4.60922 0
M  V30 2601 H 240.124 -3.13071 -6.23404 0
M  V30 2602 H 236.021 -1.89773 -6.16974 0
M  V30 2603 H 236.789 -3.60731 -7.34721 0
M  V30 2604 N 239.452 1.56882 -0.150215 0
M  V30 2605 C 240.677 2.01027 0.510184 0
M  V30 2606 C 241.102 1.02966 1.57415 0
M  V30 2607 O 240.46 0.00590158 1.81299 0
M  V30 2608 C 240.508 3.43899 1.08472 0
M  V30 2609 O 239.612 3.4885 2.19948 0
M  V30 2610 H 238.953 0.652233 0.124451 0
M  V30 2611 H 241.483 2.03093 -0.247894 0
M  V30 2612 H 241.493 3.82766 1.41259 0
M  V30 2613 H 240.168 4.14776 0.305582 0
M  V30 2614 H 238.745 3.21827 1.88366 0
M  V30 2615 N 240.93 -0.123565 1.57115 0
M  V30 2616 C 242.179 -0.830704 1.83799 0
M  V30 2617 C 242.492 -1.81259 0.735158 0
M  V30 2618 O 243.698 -2.56558 0.888278 0
M  V30 2619 C 242.154 -1.52802 3.25852 0
M  V30 2620 C 241.762 -0.587356 4.44133 0
M  V30 2621 C 243.506 -2.22056 3.61789 0
M  V30 2622 C 241.413 -1.28764 5.77212 0
M  V30 2623 H 240.343 -0.313967 0.685522 0
M  V30 2624 H 242.994 -0.0834359 1.8331 0
M  V30 2625 H 241.376 -2.32175 3.20797 0
M  V30 2626 H 242.55 0.172829 4.60476 0
M  V30 2627 H 240.865 -0.00201892 4.164 0
M  V30 2628 H 243.462 -2.75131 4.58483 0
M  V30 2629 H 243.805 -2.99644 2.88997 0
M  V30 2630 H 244.338 -1.49576 3.68608 0
M  V30 2631 H 241.077 -0.55314 6.53162 0
M  V30 2632 H 240.597 -2.01995 5.64764 0
M  V30 2633 H 242.276 -1.8221 6.20813 0
M  V30 2634 N 242.408 -1.52605 -0.393616 0
M  V30 2635 C 243.824 -1.41753 -0.733357 0
M  V30 2636 C 244.024 -0.534293 -1.94287 0
M  V30 2637 O 243.08 -0.0059787 -2.52499 0
M  V30 2638 C 244.393 -2.84531 -0.972772 0
M  V30 2639 C 245.941 -2.93978 -1.07453 0
M  V30 2640 C 246.416 -4.37756 -1.3466 0
M  V30 2641 N 247.907 -4.4106 -1.41492 0
M  V30 2642 C 248.642 -5.49387 -1.642 0
M  V30 2643 N 248.138 -6.67806 -1.8441 0
M  V30 2644 N 249.931 -5.36923 -1.66342 0
M  V30 2645 H 242.082 -2.08555 0.402328 0
M  V30 2646 H 244.345 -0.940654 0.117789 0
M  V30 2647 H 244.051 -3.51353 -0.156204 0
M  V30 2648 H 243.925 -3.26508 -1.88871 0
M  V30 2649 H 246.312 -2.27326 -1.88167 0
M  V30 2650 H 246.393 -2.55435 -0.136605 0
M  V30 2651 H 246.037 -5.04972 -0.544581 0
M  V30 2652 H 245.967 -4.73848 -2.2973 0
M  V30 2653 H 248.458 -3.55705 -1.27601 0
M  V30 2654 H 248.771 -7.46141 -2.01231 0
M  V30 2655 H 247.116 -6.70843 -1.81644 0
M  V30 2656 H 250.307 -4.43381 -1.50102 0
M  V30 2657 H 250.48 -6.21416 -1.837 0
M  V30 2658 N 243.887 0.651787 -1.4349 0
M  V30 2659 C 244.817 1.77621 -1.51569 0
M  V30 2660 C 245.798 1.66022 -0.370253 0
M  V30 2661 O 246.983 1.85095 -0.587658 0
M  V30 2662 C 244.113 3.16056 -1.43966 0
M  V30 2663 C 243.067 3.4242 -2.56774 0
M  V30 2664 C 242.393 4.8067 -2.34223 0
M  V30 2665 C 243.693 3.37023 -3.99015 0
M  V30 2666 H 245.387 1.71117 -2.45681 0
M  V30 2667 H 242.933 0.821825 -1.18246 0
M  V30 2668 H 244.886 3.94472 -1.48221 0
M  V30 2669 H 243.61 3.23293 -0.463586 0
M  V30 2670 H 242.269 2.66375 -2.51873 0
M  V30 2671 H 241.917 4.84585 -1.34856 0
M  V30 2672 H 241.617 4.9927 -3.09844 0
M  V30 2673 H 243.141 5.61342 -2.40265 0
M  V30 2674 H 244.555 4.05374 -4.05395 0
M  V30 2675 H 242.952 3.67159 -4.74673 0
M  V30 2676 H 244.022 2.3518 -4.2405 0
M  V30 2677 N 245.365 1.30045 0.890287 0
M  V30 2678 C 246.593 1.21472 1.67487 0
M  V30 2679 C 247.008 -0.223241 1.87476 0
M  V30 2680 O 246.365 -1.14828 1.41847 0
M  V30 2681 C 246.416 1.93394 3.05419 0
M  V30 2682 O 246.137 3.31576 2.86337 0
M  V30 2683 C 247.638 1.91414 3.99844 0
M  V30 2684 H 244.858 0.420604 0.522813 0
M  V30 2685 H 247.402 1.7158 1.11268 0
M  V30 2686 H 245.557 1.47099 3.58386 0
M  V30 2687 H 245.971 3.67929 3.73802 0
M  V30 2688 H 247.445 2.46285 4.94012 0
M  V30 2689 H 247.922 0.891833 4.3005 0
M  V30 2690 H 248.528 2.37496 3.52811 0
M  V30 2691 N 246.843 -1.10192 1.12674 0
M  V30 2692 C 247.773 -2.18652 0.819362 0
M  V30 2693 C 248.754 -1.68698 -0.217915 0
M  V30 2694 O 249.939 -1.94041 -0.0785581 0
M  V30 2695 C 247.069 -3.46202 0.27594 0
M  V30 2696 C 246.023 -4.09444 1.24656 0
M  V30 2697 C 245.349 -5.31725 0.563258 0
M  V30 2698 C 246.649 -4.52863 2.60217 0
M  V30 2699 H 248.343 -2.44622 1.72628 0
M  V30 2700 H 245.889 -1.17571 0.831451 0
M  V30 2701 H 247.842 -4.21372 0.0486149 0
M  V30 2702 H 246.566 -3.1973 -0.666331 0
M  V30 2703 H 245.225 -3.36284 1.45974 0
M  V30 2704 H 244.873 -5.0153 -0.384235 0
M  V30 2705 H 244.573 -5.74991 1.21075 0
M  V30 2706 H 246.097 -6.09624 0.34503 0
M  V30 2707 H 247.511 -5.19294 2.42913 0
M  V30 2708 H 245.908 -5.06986 3.21068 0
M  V30 2709 H 246.978 -3.65656 3.18471 0
M  V30 2710 N 248.321 -0.919034 -1.28029 0
M  V30 2711 C 249.57 -0.550802 -1.94034 0
M  V30 2712 C 249.883 0.910877 -1.73096 0
M  V30 2713 O 251.089 1.3875 -2.33368 0
M  V30 2714 C 249.545 -0.934249 -3.47563 0
M  V30 2715 C 249.153 -2.41602 -3.7727 0
M  V30 2716 C 250.897 -0.636854 -4.19696 0
M  V30 2717 C 248.804 -2.73932 -5.24133 0
M  V30 2718 H 247.734 -0.202273 -0.726362 0
M  V30 2719 H 250.385 -1.11867 -1.45458 0
M  V30 2720 H 248.767 -0.295115 -3.94899 0
M  V30 2721 H 249.941 -3.10233 -3.40723 0
M  V30 2722 H 248.256 -2.68441 -3.18321 0
M  V30 2723 H 250.853 -0.855005 -5.2782 0
M  V30 2724 H 251.196 0.425575 -4.14119 0
M  V30 2725 H 251.729 -1.23469 -3.78154 0
M  V30 2726 H 248.468 -3.79049 -5.34792 0
M  V30 2727 H 247.988 -2.09942 -5.61858 0
M  V30 2728 H 249.667 -2.61215 -5.91925 0
M  V30 2729 N 249.799 1.42003 -0.683588 0
M  V30 2730 C 250.729 2.33487 -0.024866 0
M  V30 2731 C 251.71 1.51163 0.779975 0
M  V30 2732 O 252.895 1.79739 0.735362 0
M  V30 2733 C 250.025 3.3487 0.920836 0
M  V30 2734 C 248.979 4.27414 0.223958 0
M  V30 2735 C 248.305 5.19074 1.2832 0
M  V30 2736 C 249.605 5.14445 -0.90242 0
M  V30 2737 H 251.299 2.88819 -0.788921 0
M  V30 2738 H 248.845 1.38873 -0.38083 0
M  V30 2739 H 250.798 3.97787 1.39081 0
M  V30 2740 H 249.522 2.77861 1.71642 0
M  V30 2741 H 248.181 3.65904 -0.225864 0
M  V30 2742 H 247.829 4.58387 2.071 0
M  V30 2743 H 247.529 5.81822 0.821995 0
M  V30 2744 H 249.053 5.84867 1.75392 0
M  V30 2745 H 250.467 5.70998 -0.513272 0
M  V30 2746 H 248.864 5.86072 -1.28997 0
M  V30 2747 H 249.934 4.52322 -1.74737 0
M  V30 2748 N 251.277 0.427512 1.51691 0
M  V30 2749 C 252.502 -0.143601 2.06902 0
M  V30 2750 C 252.927 -1.36536 1.29382 0
M  V30 2751 O 252.285 -1.78289 0.329043 0
M  V30 2752 C 252.333 -0.454207 3.57728 0
M  V30 2753 O 251.437 -1.54228 3.82475 0
M  V30 2754 H 250.778 -0.00617128 0.663971 0
M  V30 2755 H 253.308 0.606014 1.95419 0
M  V30 2756 H 253.318 -0.707525 4.01818 0
M  V30 2757 H 251.993 0.438812 4.13579 0
M  V30 2758 H 250.57 -1.2797 3.50254 0
M  V30 2759 N 252.755 -1.56801 0.158532 0
M  V30 2760 C 253.995 -1.98383 -0.49229 0
M  V30 2761 C 254.359 -1.04184 -1.61275 0
M  V30 2762 O 255.56 -1.34856 -2.32524 0
M  V30 2763 C 253.831 -3.4385 -0.974766 0
M  V30 2764 S 255.39 -4.07459 -1.62857 0
M  V30 2765 H 252.208 -0.693041 -0.158794 0
M  V30 2766 H 254.81 -1.93856 0.252974 0
M  V30 2767 H 253.514 -4.10131 -0.148688 0
M  V30 2768 H 253.045 -3.52115 -1.75438 0
M  V30 2769 H 255.06 -4.01458 -2.91627 0
M  V30 2770 N 254.233 0.115231 -1.57178 0
M  V30 2771 C 255.163 1.1423 -2.03651 0
M  V30 2772 C 256.144 1.42967 -0.921655 0
M  V30 2773 O 257.329 1.53343 -1.19162 0
M  V30 2774 C 254.459 2.4675 -2.44401 0
M  V30 2775 C 253.413 2.32467 -3.59365 0
M  V30 2776 C 252.739 3.69984 -3.86026 0
M  V30 2777 C 254.039 1.78203 -4.90959 0
M  V30 2778 H 255.733 0.755749 -2.89705 0
M  V30 2779 H 253.279 0.362093 -1.39373 0
M  V30 2780 H 255.232 3.18854 -2.75517 0
M  V30 2781 H 253.956 2.87302 -1.55322 0
M  V30 2782 H 252.615 1.62811 -3.28463 0
M  V30 2783 H 252.263 4.08028 -2.94147 0
M  V30 2784 H 251.963 3.61279 -4.63412 0
M  V30 2785 H 253.487 4.43587 -4.19599 0
M  V30 2786 H 254.901 2.40128 -5.20587 0
M  V30 2787 H 253.298 1.8031 -5.72371 0
M  V30 2788 H 254.368 0.739876 -4.79222 0
M  V30 2789 N 255.711 1.52812 0.385517 0
M  V30 2790 C 256.644 1.72592 1.49289 0
M  V30 2791 C 257.622 0.573819 1.52138 0
M  V30 2792 O 258.806 0.80404 1.70492 0
M  V30 2793 C 255.933 1.78669 2.87741 0
M  V30 2794 C 254.979 3.00455 3.02703 0
M  V30 2795 S 255.812 4.60366 2.73538 0
M  V30 2796 C 256.968 4.69263 4.14177 0
M  V30 2797 H 257.201 2.66248 1.32285 0
M  V30 2798 H 254.734 1.43148 0.578611 0
M  V30 2799 H 256.692 1.82855 3.67524 0
M  V30 2800 H 255.353 0.861 3.02069 0
M  V30 2801 H 254.546 3.01258 4.04054 0
M  V30 2802 H 254.148 2.94278 2.30817 0
M  V30 2803 H 256.44 4.48092 5.08153 0
M  V30 2804 H 257.383 5.71276 4.18388 0
M  V30 2805 H 257.791 3.98072 4.00249 0
M  V30 2806 N 257.189 -0.644168 1.43834 0
M  V30 2807 C 258.466 -1.40188 1.36406 0
M  V30 2808 C 258.846 -2.11094 0.0163124 0
M  V30 2809 O 258.194 -2.05426 -1.00062 0
M  V30 2810 C 258.404 -2.3791 2.55343 0
M  V30 2811 C 259.752 -3.01637 2.98832 0
M  V30 2812 O 260.776 -2.48237 2.55455 0
M  V30 2813 O 259.635 -3.98477 3.74003 0
M  V30 2814 H 256.729 -0.626773 0.539523 0
M  V30 2815 H 259.275 -0.670317 1.559 0
M  V30 2816 H 258.047 -1.84525 3.4506 0
M  V30 2817 H 257.67 -3.18503 2.37995 0
M  V30 2818 N 258.668 -1.30515 -0.883378 0
M  V30 2819 C 259.598 -1.19607 -2.00541 0
M  V30 2820 C 260.579 -0.086346 -1.69881 0
M  V30 2821 O 261.764 -0.268654 -1.92333 0
M  V30 2822 C 258.894 -0.888758 -3.35736 0
M  V30 2823 C 257.848 -1.95659 -3.8066 0
M  V30 2824 C 257.174 -1.50224 -5.13164 0
M  V30 2825 C 258.474 -3.36788 -3.99213 0
M  V30 2826 H 260.168 -2.13476 -2.09925 0
M  V30 2827 H 257.714 -1.02775 -1.00863 0
M  V30 2828 H 259.667 -0.799094 -4.13754 0
M  V30 2829 H 258.391 0.0856125 -3.26488 0
M  V30 2830 H 257.05 -2.03591 -3.04871 0
M  V30 2831 H 256.698 -0.516092 -5.00345 0
M  V30 2832 H 256.398 -2.2165 -5.44192 0
M  V30 2833 H 257.922 -1.42639 -5.93706 0
M  V30 2834 H 259.336 -3.31605 -4.67665 0
M  V30 2835 H 257.733 -4.06314 -4.41621 0
M  V30 2836 H 258.803 -3.78561 -3.03017 0
M  V30 2837 N 260.146 1.09593 -1.13257 0
M  V30 2838 C 261.093 2.1618 -0.808381 0
M  V30 2839 C 262.063 1.64517 0.228754 0
M  V30 2840 O 263.248 1.9053 0.101381 0
M  V30 2841 C 260.388 3.43973 -0.278675 0
M  V30 2842 C 259.501 4.09545 -1.37466 0
M  V30 2843 C 258.636 5.25088 -0.803479 0
M  V30 2844 C 257.675 5.82579 -1.87799 0
M  V30 2845 N 256.812 6.89486 -1.32488 0
M  V30 2846 H 261.652 2.43254 -1.72138 0
M  V30 2847 H 259.189 1.19392 -0.859294 0
M  V30 2848 H 261.147 4.17174 0.0465583 0
M  V30 2849 H 259.777 3.17223 0.597459 0
M  V30 2850 H 258.829 3.34226 -1.81652 0
M  V30 2851 H 260.141 4.48307 -2.18684 0
M  V30 2852 H 259.295 6.05178 -0.429427 0
M  V30 2853 H 258.034 4.87684 0.0397956 0
M  V30 2854 H 257.039 5.01152 -2.26113 0
M  V30 2855 H 258.264 6.22045 -2.72463 0
M  V30 2856 H 256.21 6.54064 -0.503575 0
M  V30 2857 H 256.127 7.27007 -2.07355 0
M  V30 2858 H 257.395 7.73336 -0.978336 0
M  V30 2859 N 261.624 0.925811 1.2754 0
M  V30 2860 C 262.572 0.413897 2.28888 0
M  V30 2861 C 263.566 -0.500779 1.61829 0
M  V30 2862 O 264.772 -0.38069 1.75928 0
M  V30 2863 H 261.147 0.115274 0.743112 0
M  V30 2864 H 263.118 1.28151 2.69481 0
M  V30 2865 C 261.867 -0.319792 3.46226 0
M  V30 2866 H 261.19 0.374846 3.98039 0
M  V30 2867 H 262.63 -0.642435 4.19105 0
M  V30 2868 C 261.089 -1.53209 3.00048 0
M  V30 2869 O 261.619 -2.6309 3.03557 0
M  V30 2870 N 259.825 -1.38326 2.55566 0
M  V30 2871 H 259.372 -0.489292 2.5291 0
M  V30 2872 H 259.33 -2.19564 2.25031 0
M  V30 2873 N 263.102 -1.41638 0.69111 0
M  V30 2874 C 264.349 -2.01299 0.220193 0
M  V30 2875 C 264.677 -1.54715 -1.17871 0
M  V30 2876 O 263.932 -0.747193 -1.80874 0
M  V30 2877 C 264.231 -3.56714 0.221277 0
M  V30 2878 C 263.897 -4.22792 1.56709 0
M  V30 2879 C 262.559 -4.40557 1.93554 0
M  V30 2880 C 264.911 -4.59883 2.45268 0
M  V30 2881 C 262.239 -4.92688 3.18552 0
M  V30 2882 C 264.591 -5.13403 3.69595 0
M  V30 2883 C 263.255 -5.29379 4.06589 0
M  V30 2884 H 262.525 -0.736606 0.0805743 0
M  V30 2885 H 265.172 -1.69598 0.889319 0
M  V30 2886 H 263.477 -3.8818 -0.531391 0
M  V30 2887 H 265.174 -4.00678 -0.160547 0
M  V30 2888 H 261.764 -4.09336 1.2705 0
M  V30 2889 H 265.948 -4.45817 2.18084 0
M  V30 2890 H 261.204 -5.03242 3.47214 0
M  V30 2891 H 265.378 -5.41084 4.38407 0
M  V30 2892 H 263.005 -5.69537 5.03519 0
M  V30 2893 N 264.58 -0.43555 -1.51462 0
M  V30 2894 C 265.991 0.0279871 -1.86679 0
M  V30 2895 C 266.342 1.42104 -1.35281 0
M  V30 2896 O 265.467 2.04667 -0.702878 0
M  V30 2897 C 266.062 0.0575626 -3.38751 0
M  V30 2898 C 264.621 0.465507 -3.7351 0
M  V30 2899 C 263.768 -0.342996 -2.75171 0
M  V30 2900 H 266.719 -0.651473 -1.44712 0
M  V30 2901 H 266.74 0.867421 -3.70481 0
M  V30 2902 H 266.252 -0.956448 -3.7613 0
M  V30 2903 H 264.353 1.48519 -3.41721 0
M  V30 2904 H 264.466 0.191546 -4.78717 0
M  V30 2905 H 262.83 0.198442 -2.53926 0
M  V30 2906 H 263.613 -1.35585 -3.15391 0
M  V30 2907 N 266.058 1.56714 -0.166846 0
M  V30 2908 C 266.991 2.13577 0.80375 0
M  V30 2909 C 267.969 1.06464 1.22899 0
M  V30 2910 O 269.153 1.34413 1.32157 0
M  V30 2911 C 266.28 2.67168 2.0818 0
M  V30 2912 C 265.326 3.86612 1.80093 0
M  V30 2913 S 266.159 5.26565 0.97416 0
M  V30 2914 C 267.315 5.83558 2.26297 0
M  V30 2915 H 267.548 2.9557 0.320267 0
M  V30 2916 H 265.081 1.54326 0.0477555 0
M  V30 2917 H 267.039 2.98692 2.8159 0
M  V30 2918 H 265.7 1.85269 2.53642 0
M  V30 2919 H 264.893 4.22422 2.7491 0
M  V30 2920 H 264.495 3.55951 1.14781 0
M  V30 2921 H 266.787 5.962 3.21795 0
M  V30 2922 H 267.73 6.80731 1.94962 0
M  V30 2923 H 268.138 5.11944 2.37853 0
M  V30 2924 N 267.536 -0.106894 1.57237 0
M  V30 2925 C 268.813 -0.843526 1.76477 0
M  V30 2926 C 269.193 -1.97499 0.745464 0
M  V30 2927 O 268.541 -2.27357 -0.228306 0
M  V30 2928 C 268.751 -1.34903 3.21873 0
M  V30 2929 C 270.099 -1.79654 3.8472 0
M  V30 2930 O 271.123 -1.44554 3.2555 0
M  V30 2931 O 269.982 -2.44515 4.88748 0
M  V30 2932 H 267.076 -0.401468 0.723016 0
M  V30 2933 H 269.622 -0.0896927 1.69463 0
M  V30 2934 H 268.394 -0.53781 3.87586 0
M  V30 2935 H 268.017 -2.16522 3.33473 0
M  V30 2936 N 269.014 -1.53014 -0.377408 0
M  V30 2937 C 270.263 -1.67845 -1.11853 0
M  V30 2938 C 270.576 -0.430625 -1.90801 0
M  V30 2939 O 271.782 -0.459261 -2.67587 0
M  V30 2940 C 270.238 -2.96668 -2.03756 0
M  V30 2941 C 269.846 -4.28671 -1.30175 0
M  V30 2942 C 271.59 -3.20865 -2.77932 0
M  V30 2943 C 269.497 -5.48591 -2.20911 0
M  V30 2944 H 268.427 -0.625343 -0.421263 0
M  V30 2945 H 271.078 -1.79514 -0.380409 0
M  V30 2946 H 269.46 -2.78773 -2.8125 0
M  V30 2947 H 270.634 -4.57157 -0.578259 0
M  V30 2948 H 268.949 -4.10825 -0.679108 0
M  V30 2949 H 271.546 -4.07642 -3.46024 0
M  V30 2950 H 271.889 -2.36424 -3.4265 0
M  V30 2951 H 272.422 -3.39379 -2.07525 0
M  V30 2952 H 269.161 -6.35474 -1.6079 0
M  V30 2953 H 268.681 -5.244 -2.91144 0
M  V30 2954 H 270.36 -5.8292 -2.80736 0
M  V30 2955 N 270.492 0.636531 -1.44174 0
M  V30 2956 C 271.424 1.7618 -1.46606 0
M  V30 2957 C 272.437 1.58768 -0.360091 0
M  V30 2958 O 273.626 1.67181 -0.625518 0
M  V30 2959 C 270.726 3.13833 -1.27915 0
M  V30 2960 C 269.899 3.57753 -2.51658 0
M  V30 2961 C 268.958 4.74265 -2.27945 0
M  V30 2962 O 267.984 4.82852 -3.01401 0
M  V30 2963 N 269.186 5.65604 -1.30662 0
M  V30 2964 H 271.951 1.74567 -2.43612 0
M  V30 2965 H 269.512 0.820924 -1.39544 0
M  V30 2966 H 271.504 3.8949 -1.09907 0
M  V30 2967 H 270.074 3.10121 -0.39293 0
M  V30 2968 H 269.294 2.72362 -2.84978 0
M  V30 2969 H 270.582 3.83847 -3.33974 0
M  V30 2970 H 269.98 5.61354 -0.699844 0
M  V30 2971 H 268.537 6.40913 -1.18634 0
M  V30 2972 N 271.97 1.30982 0.876444 0
M  V30 2973 C 273.198 1.23242 1.6619 0
M  V30 2974 C 273.613 -0.203345 1.87702 0
M  V30 2975 O 272.97 -1.13317 1.43057 0
M  V30 2976 C 273.021 1.96623 3.03351 0
M  V30 2977 O 272.742 3.34594 2.82804 0
M  V30 2978 C 274.243 1.95644 3.97792 0
M  V30 2979 H 271.463 0.426126 0.518322 0
M  V30 2980 H 274.007 1.7275 1.09442 0
M  V30 2981 H 272.162 1.50892 3.56806 0
M  V30 2982 H 272.576 3.71873 3.69879 0
M  V30 2983 H 274.05 2.51511 4.91372 0
M  V30 2984 H 274.527 0.937395 4.2908 0
M  V30 2985 H 275.133 2.41225 3.50272 0
M  V30 2986 N 273.449 -1.08991 1.13837 0
M  V30 2987 C 274.689 -1.82867 0.913183 0
M  V30 2988 C 275.053 -1.83936 -0.550604 0
M  V30 2989 O 276.254 -2.53515 -0.893515 0
M  V30 2990 C 274.525 -3.24843 1.49036 0
M  V30 2991 S 276.084 -4.15669 1.40588 0
M  V30 2992 H 272.902 -0.630278 0.329046 0
M  V30 2993 H 275.504 -1.31049 1.45073 0
M  V30 2994 H 274.208 -3.21644 2.54899 0
M  V30 2995 H 273.739 -3.81734 0.950947 0
M  V30 2996 H 275.754 -4.94686 0.387353 0
M  V30 2997 N 274.927 -0.932562 -1.27047 0
M  V30 2998 C 276.155 -0.592031 -1.98249 0
M  V30 2999 C 276.57 0.831062 -1.69525 0
M  V30 3000 O 275.927 1.55299 -0.958561 0
M  V30 3001 C 275.978 -0.814279 -3.5221 0
M  V30 3002 O 275.699 -2.18139 -3.7993 0
M  V30 3003 C 277.2 -0.483121 -4.4066 0
M  V30 3004 H 274.42 -0.223896 -0.632544 0
M  V30 3005 H 276.964 -1.25091 -1.61779 0
M  V30 3006 H 275.119 -0.20213 -3.86872 0
M  V30 3007 H 275.533 -2.235 -4.74498 0
M  V30 3008 H 277.007 -0.689298 -5.47679 0
M  V30 3009 H 277.484 0.581546 -4.35333 0
M  V30 3010 H 278.09 -1.07362 -4.11526 0
M  V30 3011 N 276.405 1.4127 -0.698611 0
M  V30 3012 C 277.338 2.28195 0.0153898 0
M  V30 3013 C 278.316 1.42402 0.784883 0
M  V30 3014 O 279.5 1.71828 0.775067 0
M  V30 3015 C 276.627 3.22685 1.02918 0
M  V30 3016 C 275.673 4.25041 0.352501 0
M  V30 3017 S 276.506 5.27757 -0.907322 0
M  V30 3018 C 277.662 6.25812 0.104796 0
M  V30 3019 H 277.895 2.88403 -0.721858 0
M  V30 3020 H 275.428 1.46452 -0.488996 0
M  V30 3021 H 277.386 3.77655 1.60893 0
M  V30 3022 H 276.047 2.61566 1.73902 0
M  V30 3023 H 275.24 4.91437 1.11828 0
M  V30 3024 H 274.842 3.73682 -0.154254 0
M  V30 3025 H 277.134 6.70705 0.957103 0
M  V30 3026 H 278.077 7.06149 -0.525323 0
M  V30 3027 H 278.485 5.62615 0.460931 0
M  V30 3028 N 277.883 0.443576 1.51229 0
M  V30 3029 C 278.815 -0.400608 2.25672 0
M  V30 3030 C 279.828 -0.980945 1.29928 0
M  V30 3031 O 281.017 -0.874024 1.55638 0
M  V30 3032 C 278.117 -1.57304 3.00181 0
M  V30 3033 C 277.29 -1.11046 4.23069 0
M  V30 3034 C 276.349 -2.15374 4.80105 0
M  V30 3035 O 275.375 -1.74554 5.41774 0
M  V30 3036 N 276.577 -3.47922 4.64683 0
M  V30 3037 H 279.342 0.23745 2.98758 0
M  V30 3038 H 276.903 0.272809 1.59585 0
M  V30 3039 H 278.895 -2.26733 3.35223 0
M  V30 3040 H 277.465 -2.11632 2.30066 0
M  V30 3041 H 276.685 -0.243019 3.9345 0
M  V30 3042 H 277.973 -0.778888 5.02803 0
M  V30 3043 H 277.371 -3.83815 4.15575 0
M  V30 3044 H 275.928 -4.13228 5.0407 0
M  V30 3045 N 279.361 -1.56624 0.175154 0
M  V30 3046 C 280.291 -2.21155 -0.749195 0
M  V30 3047 C 281.272 -1.16836 -1.23626 0
M  V30 3048 O 282.457 -1.45277 -1.28873 0
M  V30 3049 C 279.587 -2.8553 -1.97711 0
M  V30 3050 C 278.541 -3.95921 -1.62575 0
M  V30 3051 C 277.867 -4.47365 -2.92864 0
M  V30 3052 C 279.167 -5.15323 -0.850838 0
M  V30 3053 H 280.861 -2.98653 -0.211295 0
M  V30 3054 H 278.407 -1.43651 -0.100188 0
M  V30 3055 H 280.36 -3.2935 -2.62881 0
M  V30 3056 H 279.084 -2.05406 -2.53921 0
M  V30 3057 H 277.743 -3.52762 -0.997719 0
M  V30 3058 H 277.391 -3.64027 -3.47122 0
M  V30 3059 H 277.091 -5.21839 -2.70106 0
M  V30 3060 H 278.615 -4.93873 -3.59056 0
M  V30 3061 H 280.029 -5.55812 -1.40521 0
M  V30 3062 H 278.426 -5.95739 -0.722154 0
M  V30 3063 H 279.496 -4.84661 0.152082 0
M  V30 3064 N 280.839 0.0985539 -1.57292 0
M  V30 3065 C 281.749 1.13824 -2.05137 0
M  V30 3066 C 282.765 1.44076 -0.975604 0
M  V30 3067 O 283.941 1.54786 -1.28853 0
M  V30 3068 C 281.006 2.43969 -2.46333 0
M  V30 3069 C 280.067 2.2093 -3.68087 0
M  V30 3070 C 279.3 3.44869 -4.0731 0
M  V30 3071 O 279.523 4.52972 -3.46659 0
M  V30 3072 O 278.457 3.34661 -5.00285 0
M  V30 3073 H 282.283 0.761881 -2.93988 0
M  V30 3074 H 279.868 0.310818 -1.46131 0
M  V30 3075 H 281.75 3.20609 -2.73473 0
M  V30 3076 H 280.425 2.81038 -1.60621 0
M  V30 3077 H 279.332 1.42081 -3.46069 0
M  V30 3078 H 280.665 1.88755 -4.54568 0
M  V30 3079 N 282.317 1.53212 0.369288 0
M  V30 3080 C 283.542 1.73423 1.1375 0
M  V30 3081 C 283.967 0.460404 1.82378 0
M  V30 3082 O 283.325 -0.585298 1.71592 0
M  V30 3083 C 283.373 2.89769 2.1463 0
M  V30 3084 O 282.477 2.58119 3.21634 0
M  V30 3085 H 281.818 0.576061 0.330227 0
M  V30 3086 H 284.348 2.00083 0.427547 0
M  V30 3087 H 284.358 3.15829 2.58294 0
M  V30 3088 H 283.033 3.8217 1.64071 0
M  V30 3089 H 281.61 2.42864 2.82969 0
M  V30 3090 N 283.795 -0.628877 1.44509 0
M  V30 3091 C 285.042 -1.38839 1.47411 0
M  V30 3092 C 285.37 -1.94202 0.10757 0
M  V30 3093 O 284.625 -1.74243 -0.890947 0
M  V30 3094 C 284.924 -2.56995 2.48371 0
M  V30 3095 C 284.59 -2.19908 3.93639 0
M  V30 3096 C 283.252 -2.09506 4.33198 0
M  V30 3097 C 285.604 -1.9064 4.85083 0
M  V30 3098 C 282.932 -1.68028 5.62124 0
M  V30 3099 C 285.284 -1.50655 6.14399 0
M  V30 3100 C 283.948 -1.38796 6.5291 0
M  V30 3101 H 283.218 -0.508048 0.539414 0
M  V30 3102 H 285.865 -0.712913 1.77735 0
M  V30 3103 H 284.17 -3.29786 2.11538 0
M  V30 3104 H 285.867 -3.15223 2.47861 0
M  V30 3105 H 282.457 -2.28922 3.62343 0
M  V30 3106 H 286.641 -1.97585 4.55273 0
M  V30 3107 H 281.897 -1.57452 5.90778 0
M  V30 3108 H 286.071 -1.27048 6.84713 0
M  V30 3109 H 283.698 -1.06429 7.52713 0
M  V30 3110 N 285.273 -1.31445 -0.869486 0
M  V30 3111 C 286.521 -1.20918 -1.61936 0
M  V30 3112 C 286.842 0.232683 -1.93607 0
M  V30 3113 O 286.112 1.15352 -1.58338 0
M  V30 3114 H 284.692 -0.44454 -0.600328 0
M  V30 3115 H 287.354 -1.64776 -1.0409 0
M  V30 3116 H 286.45 -1.78124 -2.56278 0
M  V30 3117 N 286.751 1.08385 -1.14413 0
M  V30 3118 C 287.981 1.8425 -0.934644 0
M  V30 3119 C 288.389 1.81907 0.520234 0
M  V30 3120 O 287.732 1.22126 1.37226 0
M  V30 3121 C 287.794 3.32853 -1.35828 0
M  V30 3122 C 287.458 3.5893 -2.82875 0
M  V30 3123 C 288.455 3.53756 -3.80989 0
M  V30 3124 C 286.14 3.86934 -3.20293 0
M  V30 3125 C 288.134 3.76216 -5.14529 0
M  V30 3126 C 285.821 4.09047 -4.54008 0
M  V30 3127 C 286.819 4.03682 -5.50936 0
M  V30 3128 O 286.507 4.25214 -6.82238 0
M  V30 3129 H 286.239 0.588502 -0.332628 0
M  V30 3130 H 288.793 1.37792 -1.52324 0
M  V30 3131 H 287.023 3.8007 -0.713019 0
M  V30 3132 H 288.712 3.90154 -1.11957 0
M  V30 3133 H 289.478 3.32135 -3.53428 0
M  V30 3134 H 285.357 3.9023 -2.45442 0
M  V30 3135 H 288.901 3.71943 -5.90173 0
M  V30 3136 H 284.798 4.30151 -4.8129 0
M  V30 3137 H 285.566 4.42619 -6.88499 0
M  V30 3138 N 288.23 0.939286 1.26551 0
M  V30 3139 C 289.458 0.602536 1.97932 0
M  V30 3140 C 289.873 -0.82206 1.69964 0
M  V30 3141 O 289.23 -1.54789 0.966784 0
M  V30 3142 C 289.281 0.832946 3.51773 0
M  V30 3143 O 289.002 2.20151 3.78768 0
M  V30 3144 C 290.503 0.506483 4.40397 0
M  V30 3145 H 287.723 0.227248 0.631347 0
M  V30 3146 H 290.267 1.25948 1.61113 0
M  V30 3147 H 288.422 0.222644 3.8676 0
M  V30 3148 H 288.836 2.26013 4.73306 0
M  V30 3149 H 290.31 0.718333 5.47306 0
M  V30 3150 H 290.787 -0.558451 4.35635 0
M  V30 3151 H 291.393 1.09543 4.10951 0
M  V30 3152 N 289.708 -1.40897 0.706093 0
M  V30 3153 C 290.641 -2.282 -0.00328781 0
M  V30 3154 C 291.619 -1.42816 -0.77732 0
M  V30 3155 O 292.803 -1.72237 -0.765944 0
M  V30 3156 C 289.93 -3.23226 -1.01205 0
M  V30 3157 C 288.976 -4.25222 -0.329955 0
M  V30 3158 S 289.809 -5.27269 0.935298 0
M  V30 3159 C 290.965 -6.25859 -0.0716061 0
M  V30 3160 H 291.198 -2.88016 0.737143 0
M  V30 3161 H 288.731 -1.46191 0.496756 0
M  V30 3162 H 290.689 -3.78503 -1.58888 0
M  V30 3163 H 289.35 -2.62485 -1.72513 0
M  V30 3164 H 288.543 -4.92023 -1.09221 0
M  V30 3165 H 288.145 -3.73595 0.174069 0
M  V30 3166 H 290.437 -6.71204 -0.921521 0
M  V30 3167 H 291.38 -7.0586 0.562765 0
M  V30 3168 H 291.788 -5.62852 -0.431088 0
M  V30 3169 N 291.186 -0.45159 -1.50991 0
M  V30 3170 C 292.133 0.352625 -2.2809 0
M  V30 3171 C 293.103 1.0044 -1.32291 0
M  V30 3172 O 294.288 1.02058 -1.6121 0
M  V30 3173 C 291.428 1.43983 -3.13629 0
M  V30 3174 C 290.541 0.804772 -4.24438 0
M  V30 3175 C 289.676 1.86822 -4.97263 0
M  V30 3176 C 288.715 1.21236 -5.99973 0
M  V30 3177 N 287.852 2.2178 -6.66152 0
M  V30 3178 H 292.692 -0.311186 -2.96371 0
M  V30 3179 H 290.229 -0.165308 -1.46168 0
M  V30 3180 H 292.187 2.08161 -3.61559 0
M  V30 3181 H 290.817 2.07307 -2.47434 0
M  V30 3182 H 289.869 0.0509129 -3.80366 0
M  V30 3183 H 291.181 0.286076 -4.97979 0
M  V30 3184 H 290.335 2.58628 -5.48813 0
M  V30 3185 H 289.074 2.42068 -4.23385 0
M  V30 3186 H 288.079 0.479828 -5.47702 0
M  V30 3187 H 289.304 0.667051 -6.75816 0
M  V30 3188 H 287.25 2.76079 -5.95077 0
M  V30 3189 H 287.167 1.74841 -7.35504 0
M  V30 3190 H 288.435 2.93026 -7.22327 0
M  V30 3191 N 292.664 1.56529 -0.183458 0
M  V30 3192 C 293.941 1.88959 0.50536 0
M  V30 3193 C 294.321 1.09523 1.80466 0
M  V30 3194 O 293.669 0.19278 2.27685 0
M  V30 3195 C 293.879 3.41162 0.73547 0
M  V30 3196 C 295.227 4.11155 1.06005 0
M  V30 3197 O 296.251 3.46548 0.823594 0
M  V30 3198 O 295.11 5.25318 1.50675 0
M  V30 3199 H 292.204 0.78441 0.261973 0
M  V30 3200 H 294.75 1.68231 -0.222802 0
M  V30 3201 H 293.522 3.90874 -0.182561 0
M  V30 3202 H 293.145 3.67543 1.51651 0
M  V30 3203 N 294.142 -0.090211 1.57342 0
M  V30 3204 C 295.072 -1.10976 2.05443 0
M  V30 3205 C 296.053 -1.41482 0.944284 0
M  V30 3206 O 297.238 -1.51428 1.21586 0
M  V30 3207 C 294.368 -2.42831 2.48295 0
M  V30 3208 C 293.322 -2.26721 3.63018 0
M  V30 3209 C 292.648 -3.63796 3.91863 0
M  V30 3210 C 293.948 -1.7037 4.93732 0
M  V30 3211 H 295.642 -0.709564 2.9087 0
M  V30 3212 H 293.188 -0.339874 1.39932 0
M  V30 3213 H 295.141 -3.14431 2.80555 0
M  V30 3214 H 293.865 -2.84795 1.59873 0
M  V30 3215 H 292.524 -1.57565 3.31012 0
M  V30 3216 H 292.172 -4.03297 3.00601 0
M  V30 3217 H 291.872 -3.53861 4.69101 0
M  V30 3218 H 293.396 -4.36855 4.26603 0
M  V30 3219 H 294.81 -2.31816 5.24342 0
M  V30 3220 H 293.207 -1.71181 5.75167 0
M  V30 3221 H 294.277 -0.663542 4.80339 0
M  V30 3222 N 295.62 -1.53406 -0.361157 0
M  V30 3223 C 296.866 -1.70054 -1.10496 0
M  V30 3224 C 297.199 -0.453278 -1.88836 0
M  V30 3225 O 296.474 0.5495 -1.86576 0
M  V30 3226 C 296.757 -2.95317 -2.06058 0
M  V30 3227 C 296.61 -4.3021 -1.31298 0
M  V30 3228 C 297.929 -3.16193 -3.06121 0
M  V30 3229 H 295.048 -0.618799 -0.400321 0
M  V30 3230 H 297.69 -1.86052 -0.385318 0
M  V30 3231 H 295.84 -2.81809 -2.67425 0
M  V30 3232 H 297.512 -4.55538 -0.726807 0
M  V30 3233 H 295.755 -4.29421 -0.614853 0
M  V30 3234 H 296.426 -5.14 -2.01265 0
M  V30 3235 H 298.902 -3.28916 -2.5486 0
M  V30 3236 H 297.778 -4.05266 -3.70204 0
M  V30 3237 H 298.039 -2.31676 -3.76535 0
M  V30 3238 N 297.098 0.621204 -1.44841 0
M  V30 3239 C 298.345 1.38055 -1.48145 0
M  V30 3240 C 298.673 1.94143 -0.117867 0
M  V30 3241 O 297.928 1.74713 0.881694 0
M  V30 3242 C 298.227 2.55675 -2.4973 0
M  V30 3243 C 297.893 2.17817 -3.94799 0
M  V30 3244 C 296.555 2.07205 -4.34303 0
M  V30 3245 C 298.907 1.88065 -4.86087 0
M  V30 3246 C 296.235 1.65045 -5.63007 0
M  V30 3247 C 298.587 1.47394 -6.15189 0
M  V30 3248 C 297.251 1.35331 -6.53637 0
M  V30 3249 H 296.521 0.505181 -0.542101 0
M  V30 3250 H 299.168 0.703477 -1.78111 0
M  V30 3251 H 297.473 3.2866 -2.13284 0
M  V30 3252 H 299.17 3.13904 -2.4953 0
M  V30 3253 H 295.76 2.26998 -3.63552 0
M  V30 3254 H 299.944 1.95168 -4.56315 0
M  V30 3255 H 295.2 1.54317 -5.91605 0
M  V30 3256 H 299.374 1.23415 -6.85377 0
M  V30 3257 H 297.001 1.02435 -7.53267 0
M  V30 3258 N 298.576 1.31904 0.862503 0
M  V30 3259 C 299.486 1.22161 2.00285 0
M  V30 3260 C 300.502 0.136785 1.73462 0
M  V30 3261 O 301.678 0.355994 1.98229 0
M  V30 3262 C 298.743 0.937093 3.33796 0
M  V30 3263 C 297.804 2.10957 3.73893 0
M  V30 3264 C 297.037 1.83853 5.01033 0
M  V30 3265 O 297.26 0.777274 5.65079 0
M  V30 3266 O 296.194 2.69741 5.38074 0
M  V30 3267 H 300.02 2.18008 2.11439 0
M  V30 3268 H 297.605 1.11716 0.991957 0
M  V30 3269 H 299.487 0.794583 4.13841 0
M  V30 3270 H 298.162 0.00871894 3.23699 0
M  V30 3271 H 297.069 2.30752 2.94456 0
M  V30 3272 H 298.402 3.02046 3.88625 0
M  V30 3273 N 300.054 -1.07777 1.14986 0
M  V30 3274 C 301.3 -1.80719 0.93339 0
M  V30 3275 C 301.655 -1.8484 -0.534019 0
M  V30 3276 O 300.948 -1.31795 -1.3907 0
M  V30 3277 C 301.142 -3.25495 1.47608 0
M  V30 3278 C 300.971 -3.3548 2.99472 0
M  V30 3279 C 299.741 -3.46293 3.6798 0
M  V30 3280 C 301.939 -3.26596 3.97291 0
M  V30 3281 N 299.921 -3.45136 5.07695 0
M  V30 3282 C 301.292 -3.32506 5.23297 0
M  V30 3283 C 303.347 -3.10376 3.89321 0
M  V30 3284 C 302.05 -3.23866 6.42264 0
M  V30 3285 C 304.076 -3.03069 5.07842 0
M  V30 3286 C 303.438 -3.09587 6.32721 0
M  V30 3287 H 299.537 -0.674814 0.395158 0
M  V30 3288 H 302.121 -1.28681 1.46114 0
M  V30 3289 H 300.292 -3.75963 0.975022 0
M  V30 3290 H 302.024 -3.86535 1.19887 0
M  V30 3291 H 298.779 -3.50456 3.18555 0
M  V30 3292 H 299.203 -3.48097 5.80653 0
M  V30 3293 H 303.845 -3.04194 2.93642 0
M  V30 3294 H 301.563 -3.28807 7.38181 0
M  V30 3295 H 305.149 -2.91629 5.03432 0
M  V30 3296 H 304.029 -3.0397 7.22891 0
M  V30 3297 N 301.532 -0.945985 -1.26051 0
M  V30 3298 C 302.462 -0.477172 -2.28572 0
M  V30 3299 C 303.443 0.472032 -1.63419 0
M  V30 3300 O 304.628 0.372853 -1.90587 0
M  V30 3301 C 301.758 0.253975 -3.4637 0
M  V30 3302 C 300.712 -0.609135 -4.23643 0
M  V30 3303 C 300.038 0.252252 -5.34105 0
M  V30 3304 C 301.338 -1.8829 -4.8718 0
M  V30 3305 H 303.032 -1.33402 -2.68038 0
M  V30 3306 H 300.578 -0.642904 -1.28852 0
M  V30 3307 H 302.531 0.593016 -4.17207 0
M  V30 3308 H 301.255 1.145 -3.05871 0
M  V30 3309 H 299.914 -0.931138 -3.54578 0
M  V30 3310 H 299.562 1.14278 -4.89846 0
M  V30 3311 H 299.262 -0.32188 -5.86718 0
M  V30 3312 H 300.786 0.586454 -6.07777 0
M  V30 3313 H 302.2 -1.61081 -5.50205 0
M  V30 3314 H 300.597 -2.40199 -5.49931 0
M  V30 3315 H 301.667 -2.59134 -4.09851 0
M  V30 3316 N 303.011 1.40521 -0.713556 0
M  V30 3317 C 303.921 2.34522 -0.0606667 0
M  V30 3318 C 304.937 1.57193 0.74607 0
M  V30 3319 O 306.113 1.89591 0.679493 0
M  V30 3320 C 303.178 3.36081 0.851491 0
M  V30 3321 C 302.239 4.29286 0.0349339 0
M  V30 3322 C 301.472 5.25994 0.903649 0
M  V30 3323 O 301.695 5.28616 2.14292 0
M  V30 3324 O 300.629 6.00918 0.343723 0
M  V30 3325 H 304.455 2.91968 -0.835972 0
M  V30 3326 H 302.04 1.41681 -0.47402 0
M  V30 3327 H 303.922 3.98369 1.37404 0
M  V30 3328 H 302.597 2.81052 1.60598 0
M  V30 3329 H 301.504 3.70289 -0.532633 0
M  V30 3330 H 302.837 4.87462 -0.681287 0
M  V30 3331 N 304.489 0.459591 1.5075 0
M  V30 3332 C 305.766 -0.160371 1.94941 0
M  V30 3333 C 306.146 -1.58048 1.39943 0
M  V30 3334 O 305.494 -2.206 0.595629 0
M  V30 3335 C 305.704 -0.115432 3.48809 0
M  V30 3336 C 307.052 -0.310026 4.23467 0
M  V30 3337 O 308.076 -0.192543 3.55679 0
M  V30 3338 O 306.935 -0.546031 5.43765 0
M  V30 3339 H 304.029 -0.117925 0.818549 0
M  V30 3340 H 306.575 0.519169 1.61563 0
M  V30 3341 H 305.347 0.87652 3.81357 0
M  V30 3342 H 304.97 -0.836928 3.88692 0
M  V30 3343 N 305.967 -1.56429 0.191757 0
M  V30 3344 C 306.93 -2.17707 -0.716688 0
M  V30 3345 C 307.93 -1.13061 -1.14341 0
M  V30 3346 O 309.12 -1.38464 -1.05704 0
M  V30 3347 C 306.252 -2.77644 -1.97804 0
M  V30 3348 H 307.445 -2.99342 -0.1829 0
M  V30 3349 H 304.998 -1.56193 -0.0578566 0
M  V30 3350 H 305.733 -1.99799 -2.55443 0
M  V30 3351 H 305.518 -3.54246 -1.68083 0
M  V30 3352 H 307.008 -3.24708 -2.62592 0
M  V30 3353 N 307.445 0.0818655 -1.57387 0
M  V30 3354 C 308.856 0.634871 -1.75574 0
M  V30 3355 C 309.207 1.78435 -0.815809 0
M  V30 3356 O 308.332 2.164 0.0025366 0
M  V30 3357 C 308.927 1.15845 -3.18379 0
M  V30 3358 C 307.486 1.65741 -3.37945 0
M  V30 3359 C 306.633 0.572549 -2.71325 0
M  V30 3360 H 309.584 -0.144268 -1.58043 0
M  V30 3361 H 309.605 2.02751 -3.21982 0
M  V30 3362 H 309.117 0.321631 -3.86765 0
M  V30 3363 H 307.218 2.51781 -2.74658 0
M  V30 3364 H 307.331 1.74129 -4.46336 0
M  V30 3365 H 305.695 1.01518 -2.33594 0
M  V30 3366 H 306.478 -0.253918 -3.4236 0
M  V30 3367 N 308.923 1.53595 0.353017 0
M  V30 3368 C 309.886 1.80232 1.41594 0
M  V30 3369 C 310.886 0.673081 1.46035 0
M  V30 3370 O 312.076 0.941335 1.46576 0
M  V30 3371 C 309.208 1.93578 2.80607 0
M  V30 3372 H 310.401 2.75174 1.19244 0
M  V30 3373 H 307.954 1.44864 0.586872 0
M  V30 3374 H 308.689 1.00746 3.08254 0
M  V30 3375 H 308.474 2.75724 2.78781 0
M  V30 3376 H 309.964 2.15735 3.57558 0
M  V30 3377 N 310.401 -0.613514 1.45168 0
M  V30 3378 C 311.647 -1.37471 1.49096 0
M  V30 3379 C 311.98 -1.93765 0.129901 0
M  V30 3380 O 311.255 -1.74707 -0.854858 0
M  V30 3381 C 311.538 -2.52701 2.56542 0
M  V30 3382 C 311.391 -2.01643 4.0207 0
M  V30 3383 C 312.71 -3.54849 2.60327 0
M  V30 3384 H 309.829 -0.498502 0.54283 0
M  V30 3385 H 312.471 -0.692125 1.76945 0
M  V30 3386 H 310.621 -3.10931 2.32926 0
M  V30 3387 H 312.293 -1.48108 4.36877 0
M  V30 3388 H 310.536 -1.32688 4.13009 0
M  V30 3389 H 311.207 -2.84681 4.72928 0
M  V30 3390 H 313.683 -3.0645 2.81474 0
M  V30 3391 H 312.559 -4.32973 3.37381 0
M  V30 3392 H 312.82 -4.10079 1.6519 0
M  V30 3393 N 311.879 -1.3236 -0.855495 0
M  V30 3394 C 312.811 -1.17052 -1.97057 0
M  V30 3395 C 313.824 -0.10574 -1.62456 0
M  V30 3396 O 315.013 -0.354619 -1.74942 0
M  V30 3397 C 312.113 -0.769305 -3.30053 0
M  V30 3398 C 311.286 -1.9222 -3.929 0
M  V30 3399 C 310.345 -1.50466 -5.04228 0
M  V30 3400 O 309.371 -2.21655 -5.24269 0
M  V30 3401 N 310.573 -0.400209 -5.79119 0
M  V30 3402 H 313.338 -2.13103 -2.1073 0
M  V30 3403 H 310.899 -1.24885 -1.0303 0
M  V30 3404 H 312.891 -0.472407 -4.01933 0
M  V30 3405 H 311.461 0.100025 -3.1244 0
M  V30 3406 H 310.681 -2.38563 -3.13817 0
M  V30 3407 H 311.969 -2.69403 -4.31624 0
M  V30 3408 H 311.367 0.192319 -5.65373 0
M  V30 3409 H 309.924 -0.162912 -6.51596 0
M  V30 3410 N 313.357 1.07166 -1.15556 0
M  V30 3411 C 314.603 1.80065 -0.932984 0
M  V30 3412 C 314.936 1.86586 0.53845 0
M  V30 3413 O 314.211 1.35098 1.39924 0
M  V30 3414 C 314.494 3.25022 -1.55025 0
M  V30 3415 C 314.347 3.26634 -3.09242 0
M  V30 3416 C 315.666 4.22341 -1.2376 0
M  V30 3417 H 312.785 0.653697 -0.340366 0
M  V30 3418 H 315.427 1.25389 -1.4275 0
M  V30 3419 H 313.577 3.71712 -1.12972 0
M  V30 3420 H 315.249 2.88173 -3.60214 0
M  V30 3421 H 313.492 2.65539 -3.43033 0
M  V30 3422 H 314.163 4.28854 -3.47546 0
M  V30 3423 H 316.639 3.8405 -1.60139 0
M  V30 3424 H 315.515 5.22053 -1.69564 0
M  V30 3425 H 315.776 4.41828 -0.154938 0
M  V30 3426 N 314.835 0.952656 1.25548 0
M  V30 3427 C 315.798 0.475794 2.24207 0
M  V30 3428 C 316.798 -0.419428 1.55234 0
M  V30 3429 O 317.988 -0.216994 1.72843 0
M  V30 3430 C 315.12 -0.312814 3.39462 0
M  V30 3431 H 316.313 1.34779 2.67908 0
M  V30 3432 H 313.866 0.735739 1.37901 0
M  V30 3433 H 314.601 -1.20257 3.01179 0
M  V30 3434 H 314.386 0.329404 3.90714 0
M  V30 3435 H 315.876 -0.635986 4.12729 0
M  V30 3436 N 316.313 -1.40141 0.720998 0
M  V30 3437 C 317.223 -2.34486 0.0731031 0
M  V30 3438 C 318.239 -1.57587 -0.737723 0
M  V30 3439 O 319.415 -1.89949 -0.669429 0
M  V30 3440 C 316.48 -3.36528 -0.833656 0
M  V30 3441 C 315.541 -4.29298 -0.0121673 0
M  V30 3442 C 314.774 -5.26466 -0.875742 0
M  V30 3443 O 314.997 -5.29745 -2.11485 0
M  V30 3444 O 313.931 -6.01092 -0.31185 0
M  V30 3445 H 317.757 -2.9152 0.851444 0
M  V30 3446 H 315.342 -1.41427 0.481527 0
M  V30 3447 H 317.224 -3.99093 -1.35289 0
M  V30 3448 H 315.899 -2.81899 -1.59105 0
M  V30 3449 H 314.806 -3.70001 0.552262 0
M  V30 3450 H 316.139 -4.87094 0.707129 0
M  V30 3451 N 317.792 -0.46758 -1.50504 0
M  V30 3452 C 319.04 0.0884469 -2.01906 0
M  V30 3453 C 319.361 1.40532 -1.35188 0
M  V30 3454 O 318.631 1.89515 -0.496079 0
M  V30 3455 H 317.211 0.0356765 -0.746148 0
M  V30 3456 H 319.873 -0.6172 -1.84869 0
M  V30 3457 H 318.969 0.2425 -3.11156 0
M  V30 3458 N 319.27 1.56325 -0.20005 0
M  V30 3459 C 320.2 2.22318 0.713916 0
M  V30 3460 C 321.181 1.18788 1.21752 0
M  V30 3461 O 322.366 1.47309 1.26545 0
M  V30 3462 C 319.496 2.88639 1.93144 0
M  V30 3463 C 318.45 3.98457 1.56255 0
M  V30 3464 C 317.776 4.51967 2.85709 0
M  V30 3465 C 319.076 5.16612 0.768747 0
M  V30 3466 H 320.77 2.98952 0.163755 0
M  V30 3467 H 318.316 1.43792 0.0773219 0
M  V30 3468 H 320.269 3.33491 2.57608 0
M  V30 3469 H 318.993 2.09419 2.50621 0
M  V30 3470 H 317.652 3.54305 0.941471 0
M  V30 3471 H 317.3 3.69503 3.41287 0
M  V30 3472 H 317 5.26071 2.6177 0
M  V30 3473 H 318.524 4.99523 3.51154 0
M  V30 3474 H 319.938 5.57977 1.3166 0
M  V30 3475 H 318.335 5.96812 0.627286 0
M  V30 3476 H 319.405 4.84358 -0.229168 0
M  V30 3477 N 320.748 -0.0735177 1.57428 0
M  V30 3478 C 321.976 -0.785969 1.9139 0
M  V30 3479 C 322.391 -1.71207 0.795847 0
M  V30 3480 O 321.748 -1.81033 -0.230915 0
M  V30 3481 C 321.799 -1.58107 3.25091 0
M  V30 3482 O 321.52 -0.6922 4.32597 0
M  V30 3483 C 323.021 -2.39467 3.73055 0
M  V30 3484 H 320.241 -0.223558 0.632663 0
M  V30 3485 H 322.785 -0.044302 2.04452 0
M  V30 3486 H 320.94 -2.27503 3.13562 0
M  V30 3487 H 321.354 -1.24504 5.09508 0
M  V30 3488 H 322.828 -2.90716 4.69242 0
M  V30 3489 H 323.305 -3.18913 3.01979 0
M  V30 3490 H 323.911 -1.7523 3.87523 0
M  V30 3491 N 322.226 -1.5378 -0.344866 0
M  V30 3492 C 323.156 -1.84662 -1.42906 0
M  V30 3493 C 324.137 -0.701648 -1.54955 0
M  V30 3494 O 325.322 -0.953438 -1.69184 0
M  V30 3495 C 322.452 -2.05503 -2.79974 0
M  V30 3496 C 321.406 -3.21318 -2.82734 0
M  V30 3497 C 320.732 -3.2749 -4.22675 0
M  V30 3498 C 322.032 -4.59456 -2.48389 0
M  V30 3499 H 323.726 -2.75461 -1.17311 0
M  V30 3500 H 321.272 -1.32542 -0.562896 0
M  V30 3501 H 323.225 -2.25691 -3.55867 0
M  V30 3502 H 321.949 -1.11434 -3.07002 0
M  V30 3503 H 320.608 -3.00984 -2.09294 0
M  V30 3504 H 320.256 -2.31019 -4.4681 0
M  V30 3505 H 319.956 -4.05316 -4.25433 0
M  V30 3506 H 321.48 -3.49887 -5.00412 0
M  V30 3507 H 322.894 -4.79667 -3.13995 0
M  V30 3508 H 321.291 -5.39675 -2.62432 0
M  V30 3509 H 322.361 -4.63155 -1.4358 0
M  V30 3510 N 323.704 0.605807 -1.45491 0
M  V30 3511 C 325.115 1.18777 -1.44045 0
M  V30 3512 C 325.466 1.95471 -0.169001 0
M  V30 3513 O 324.591 2.0374 0.729324 0
M  V30 3514 C 325.186 2.16064 -2.60963 0
M  V30 3515 C 323.745 2.69633 -2.62631 0
M  V30 3516 C 322.892 1.45072 -2.36325 0
M  V30 3517 H 325.843 0.395017 -1.53705 0
M  V30 3518 H 325.864 2.9913 -2.35163 0
M  V30 3519 H 325.376 1.60217 -3.53486 0
M  V30 3520 H 323.477 3.29414 -1.74119 0
M  V30 3521 H 323.59 3.13944 -3.61906 0
M  V30 3522 H 321.954 1.74089 -1.85917 0
M  V30 3523 H 322.737 0.910899 -3.30995 0
M  V30 3524 N 325.182 1.32811 0.848464 0
M  V30 3525 C 326.114 1.18095 1.96433 0
M  V30 3526 C 327.127 0.114354 1.62398 0
M  V30 3527 O 328.316 0.363892 1.74751 0
M  V30 3528 C 325.416 0.786798 3.2964 0
M  V30 3529 C 324.589 1.943 3.91875 0
M  V30 3530 C 323.648 1.53138 5.03423 0
M  V30 3531 O 322.674 2.24432 5.23086 0
M  V30 3532 N 323.876 0.430915 5.78898 0
M  V30 3533 H 326.641 2.14218 2.09597 0
M  V30 3534 H 324.202 1.2543 1.02367 0
M  V30 3535 H 326.194 0.493715 4.01677 0
M  V30 3536 H 324.764 -0.0834541 3.12489 0
M  V30 3537 H 323.984 2.40224 3.12547 0
M  V30 3538 H 325.272 2.71689 4.30189 0
M  V30 3539 H 324.67 -0.162333 5.65467 0
M  V30 3540 H 323.227 0.197466 6.51501 0
M  V30 3541 N 326.66 -1.06551 1.16123 0
M  V30 3542 C 327.907 -1.79302 0.941126 0
M  V30 3543 C 328.235 -1.87105 -0.531235 0
M  V30 3544 O 327.49 -1.35692 -1.41018 0
M  V30 3545 C 327.789 -3.23911 1.51052 0
M  V30 3546 C 327.455 -3.36193 3.00475 0
M  V30 3547 C 326.117 -3.39252 3.41265 0
M  V30 3548 C 328.469 -3.38326 3.96465 0
M  V30 3549 C 325.797 -3.42057 4.76669 0
M  V30 3550 C 328.149 -3.4267 5.31752 0
M  V30 3551 C 326.813 -3.4401 5.72026 0
M  V30 3552 H 326.083 -0.656111 0.344382 0
M  V30 3553 H 328.73 -1.25325 1.44796 0
M  V30 3554 H 327.035 -3.80723 0.925063 0
M  V30 3555 H 328.732 -3.78793 1.31593 0
M  V30 3556 H 325.322 -3.34516 2.6795 0
M  V30 3557 H 329.506 -3.35176 3.6602 0
M  V30 3558 H 324.762 -3.41398 5.07206 0
M  V30 3559 H 328.936 -3.43268 6.05921 0
M  V30 3560 H 326.563 -3.45937 6.76928 0
M  V30 3561 N 328.138 -0.959301 -1.25041 0
M  V30 3562 C 329.387 -0.612254 -1.92183 0
M  V30 3563 C 329.7 0.855347 -1.75907 0
M  V30 3564 O 330.906 1.31256 -2.37664 0
M  V30 3565 C 329.362 -1.04435 -3.44414 0
M  V30 3566 C 328.97 -2.53482 -3.69393 0
M  V30 3567 C 330.714 -0.770055 -4.17457 0
M  V30 3568 C 328.621 -2.90468 -5.15153 0
M  V30 3569 H 327.551 -0.225279 -0.719559 0
M  V30 3570 H 330.202 -1.16438 -1.41825 0
M  V30 3571 H 328.584 -0.4206 -3.9376 0
M  V30 3572 H 329.758 -3.20916 -3.30681 0
M  V30 3573 H 328.073 -2.78432 -3.0962 0
M  V30 3574 H 330.67 -1.02249 -5.24832 0
M  V30 3575 H 331.013 0.293611 -4.15263 0
M  V30 3576 H 331.546 -1.35437 -3.74034 0
M  V30 3577 H 328.285 -3.95871 -5.22462 0
M  V30 3578 H 327.805 -2.27711 -5.54894 0
M  V30 3579 H 329.484 -2.79914 -5.83315 0
M  V30 3580 N 329.616 1.39756 -0.72842 0
M  V30 3581 C 330.546 2.33289 -0.0991354 0
M  V30 3582 C 331.527 1.53568 0.731489 0
M  V30 3583 O 332.712 1.81987 0.677807 0
M  V30 3584 C 329.842 3.3763 0.813834 0
M  V30 3585 C 328.796 4.2791 0.0878663 0
M  V30 3586 C 328.122 5.22894 1.11741 0
M  V30 3587 C 329.422 5.11314 -1.06563 0
M  V30 3588 H 331.116 2.86163 -0.880408 0
M  V30 3589 H 328.662 1.37591 -0.424819 0
M  V30 3590 H 330.615 4.0201 1.26355 0
M  V30 3591 H 329.339 2.83181 1.62715 0
M  V30 3592 H 327.998 3.65 -0.342159 0
M  V30 3593 H 327.646 4.64744 1.92412 0
M  V30 3594 H 327.346 5.84143 0.636477 0
M  V30 3595 H 328.87 5.90151 1.56697 0
M  V30 3596 H 330.284 5.69076 -0.694671 0
M  V30 3597 H 328.681 5.81671 -1.47577 0
M  V30 3598 H 329.751 4.46534 -1.89038 0
M  V30 3599 N 331.094 0.475555 1.50254 0
M  V30 3600 C 332.51 0.12997 1.5907 0
M  V30 3601 C 332.71 -1.36385 1.48328 0
M  V30 3602 O 331.766 -2.13754 1.34407 0
M  V30 3603 C 333.079 0.684139 2.92814 0
M  V30 3604 C 334.627 0.647965 3.0622 0
M  V30 3605 C 335.102 1.17975 4.42545 0
M  V30 3606 N 336.593 1.13936 4.48969 0
M  V30 3607 C 337.328 1.52129 5.52851 0
M  V30 3608 N 336.824 1.97793 6.63965 0
M  V30 3609 N 338.617 1.43704 5.4342 0
M  V30 3610 H 330.768 1.44706 1.55479 0
M  V30 3611 H 333.031 0.598691 0.735033 0
M  V30 3612 H 332.737 1.73079 3.06164 0
M  V30 3613 H 332.611 0.130204 3.76975 0
M  V30 3614 H 334.998 -0.38979 2.92514 0
M  V30 3615 H 335.079 1.23876 2.23805 0
M  V30 3616 H 334.723 2.21616 4.57 0
M  V30 3617 H 334.653 0.565138 5.23559 0
M  V30 3618 H 337.144 0.804488 3.69238 0
M  V30 3619 H 337.457 2.25072 7.39299 0
M  V30 3620 H 335.802 2.01749 6.65073 0
M  V30 3621 H 338.993 1.07867 4.55502 0
M  V30 3622 H 339.166 1.73794 6.24259 0
M  V30 3623 N 332.573 -1.56217 0.208337 0
M  V30 3624 C 333.85 -1.89739 -0.475234 0
M  V30 3625 C 334.23 -1.1238 -1.78701 0
M  V30 3626 O 333.578 -0.228979 -2.2735 0
M  V30 3627 C 333.788 -3.42289 -0.681101 0
M  V30 3628 C 335.136 -4.12789 -0.994507 0
M  V30 3629 O 336.16 -3.47814 -0.768357 0
M  V30 3630 O 335.019 -5.27649 -1.42299 0
M  V30 3631 H 332.113 -0.788478 -0.249461 0
M  V30 3632 H 334.659 -1.67855 0.249538 0
M  V30 3633 H 333.431 -3.90534 0.244722 0
M  V30 3634 H 333.054 -3.69909 -1.45785 0
M  V30 3635 N 334.051 0.0651679 -1.57465 0
M  V30 3636 C 334.961 1.09448 -2.07505 0
M  V30 3637 C 335.977 1.41974 -1.00595 0
M  V30 3638 O 337.153 1.52018 -1.32107 0
M  V30 3639 C 334.218 2.38689 -2.51453 0
M  V30 3640 C 333.279 2.13073 -3.72691 0
M  V30 3641 C 332.512 3.36152 -4.14533 0
M  V30 3642 O 332.735 4.45517 -3.56189 0
M  V30 3643 O 331.669 3.23974 -5.07272 0
M  V30 3644 H 335.495 0.69935 -2.95538 0
M  V30 3645 H 333.08 0.279752 -1.46757 0
M  V30 3646 H 334.962 3.14736 -2.80212 0
M  V30 3647 H 333.637 2.77568 -1.66546 0
M  V30 3648 H 332.544 1.34709 -3.49005 0
M  V30 3649 H 333.877 1.79071 -4.5847 0
M  V30 3650 N 335.529 1.53961 0.336706 0
M  V30 3651 C 336.476 1.82428 1.41381 0
M  V30 3652 C 337.446 0.670444 1.51968 0
M  V30 3653 O 338.631 0.915565 1.67398 0
M  V30 3654 C 335.771 2.04564 2.77934 0
M  V30 3655 C 334.884 3.32267 2.76084 0
M  V30 3656 C 334.019 3.44434 4.04399 0
M  V30 3657 C 333.058 4.66061 3.96804 0
M  V30 3658 N 332.195 4.75224 5.16823 0
M  V30 3659 H 337.035 2.74324 1.16405 0
M  V30 3660 H 334.572 1.35869 0.563752 0
M  V30 3661 H 336.53 2.15388 3.57301 0
M  V30 3662 H 335.16 1.15974 3.01247 0
M  V30 3663 H 334.212 3.3025 1.88784 0
M  V30 3664 H 335.524 4.21733 2.66351 0
M  V30 3665 H 334.678 3.54728 4.92192 0
M  V30 3666 H 333.417 2.53037 4.16921 0
M  V30 3667 H 332.422 4.55838 3.07396 0
M  V30 3668 H 333.647 5.58829 3.85858 0
M  V30 3669 H 331.593 3.86739 5.29876 0
M  V30 3670 H 331.51 5.58636 5.09374 0
M  V30 3671 H 332.778 4.89835 6.06367 0
M  V30 3672 N 337.007 -0.598083 1.45811 0
M  V30 3673 C 338.284 -1.35777 1.40797 0
M  V30 3674 C 338.664 -2.10935 0.083462 0
M  V30 3675 O 338.012 -2.08505 -0.934763 0
M  V30 3676 C 338.222 -2.29666 2.62783 0
M  V30 3677 C 339.57 -2.91977 3.08277 0
M  V30 3678 O 340.594 -2.39984 2.63223 0
M  V30 3679 O 339.453 -3.86376 3.86491 0
M  V30 3680 H 336.547 -0.609291 0.55919 0
M  V30 3681 H 339.093 -0.620379 1.57954 0
M  V30 3682 H 337.865 -1.73454 3.50756 0
M  V30 3683 H 337.488 -3.1077 2.48008 0
M  V30 3684 N 338.485 -1.33259 -0.841409 0
M  V30 3685 C 339.415 -1.25926 -1.96634 0
M  V30 3686 C 340.396 -0.140349 -1.6952 0
M  V30 3687 O 341.581 -0.329707 -1.91381 0
M  V30 3688 C 338.711 -0.99512 -3.32738 0
M  V30 3689 C 337.665 -2.0767 -3.74242 0
M  V30 3690 C 336.991 -1.66474 -5.08125 0
M  V30 3691 C 338.291 -3.49318 -3.88297 0
M  V30 3692 H 339.985 -2.20046 -2.03027 0
M  V30 3693 H 337.531 -1.05931 -0.975425 0
M  V30 3694 H 339.484 -0.930323 -4.11002 0
M  V30 3695 H 338.208 -0.0183004 -3.26595 0
M  V30 3696 H 336.867 -2.13187 -2.98239 0
M  V30 3697 H 336.515 -0.675012 -4.9845 0
M  V30 3698 H 336.215 -2.3885 -5.36865 0
M  V30 3699 H 337.739 -1.61455 -5.88867 0
M  V30 3700 H 339.153 -3.46316 -4.56879 0
M  V30 3701 H 337.55 -4.20158 -4.28471 0
M  V30 3702 H 338.62 -3.8801 -2.9082 0
M  V30 3703 N 339.963 1.05934 -1.16686 0
M  V30 3704 C 341.211 1.78447 -0.948744 0
M  V30 3705 C 341.532 1.87813 0.524523 0
M  V30 3706 O 340.802 1.38945 1.38098 0
M  V30 3707 H 339.382 0.660971 -0.348033 0
M  V30 3708 H 342.044 1.27947 -1.47022 0
M  V30 3709 H 341.14 2.80394 -1.37061 0
M  V30 3710 N 341.441 0.965919 1.2453 0
M  V30 3711 C 342.681 0.634656 1.94297 0
M  V30 3712 C 343.045 -0.814822 1.73852 0
M  V30 3713 O 344.246 -1.25622 2.3764 0
M  V30 3714 C 342.517 0.99702 3.43212 0
M  V30 3715 S 344.076 0.780038 4.31811 0
M  V30 3716 H 340.894 0.232893 0.671775 0
M  V30 3717 H 343.496 1.24249 1.50938 0
M  V30 3718 H 342.2 2.04886 3.55598 0
M  V30 3719 H 341.731 0.379888 3.91562 0
M  V30 3720 H 343.746 -0.343512 4.9501 0
M  V30 3721 N 342.919 -1.39368 0.735821 0
M  V30 3722 C 344.159 -2.02349 0.288813 0
M  V30 3723 C 344.523 -1.57127 -1.10341 0
M  V30 3724 O 345.724 -2.12312 -1.64854 0
M  V30 3725 C 343.995 -3.55288 0.387986 0
M  V30 3726 S 345.554 -4.38795 0.0209408 0
M  V30 3727 H 342.372 -0.701944 0.113115 0
M  V30 3728 H 344.974 -1.70164 0.962518 0
M  V30 3729 H 343.678 -3.85691 1.40252 0
M  V30 3730 H 343.209 -3.92227 -0.303512 0
M  V30 3731 H 345.224 -4.81595 -1.19503 0
M  V30 3732 N 344.397 -0.483516 -1.5 0
M  V30 3733 C 345.625 0.0644831 -2.06799 0
M  V30 3734 C 346.04 1.32399 -1.34596 0
M  V30 3735 O 345.397 1.77626 -0.418946 0
M  V30 3736 C 345.448 0.339927 -3.59898 0
M  V30 3737 O 345.169 -0.869635 -4.29382 0
M  V30 3738 C 346.67 0.933515 -4.33359 0
M  V30 3739 H 343.89 -0.0126333 -0.670881 0
M  V30 3740 H 346.434 -0.675864 -1.93009 0
M  V30 3741 H 344.589 1.03022 -3.7345 0
M  V30 3742 H 345.003 -0.62179 -5.20801 0
M  V30 3743 H 346.477 1.07593 -5.41413 0
M  V30 3744 H 346.954 1.92685 -3.94676 0
M  V30 3745 H 347.56 0.281221 -4.24369 0
M  V30 3746 N 345.875 1.56104 -0.216619 0
M  V30 3747 C 346.822 2.2007 0.695531 0
M  V30 3748 C 347.792 1.15471 1.19397 0
M  V30 3749 O 348.977 1.43807 1.25396 0
M  V30 3750 C 346.117 2.88073 1.90021 0
M  V30 3751 C 345.23 4.07253 1.44113 0
M  V30 3752 C 344.365 4.63052 2.603 0
M  V30 3753 C 343.404 5.74545 2.11103 0
M  V30 3754 N 342.541 6.24656 3.20545 0
M  V30 3755 H 347.381 2.97655 0.143327 0
M  V30 3756 H 344.918 1.46982 0.0589934 0
M  V30 3757 H 346.876 3.25681 2.60745 0
M  V30 3758 H 345.506 2.13015 2.42538 0
M  V30 3759 H 344.558 3.75164 0.628999 0
M  V30 3760 H 345.87 4.8783 1.04036 0
M  V30 3761 H 345.024 5.03078 3.39113 0
M  V30 3762 H 343.763 3.81628 3.03663 0
M  V30 3763 H 342.768 5.34027 1.3075 0
M  V30 3764 H 343.993 6.57801 1.68746 0
M  V30 3765 H 341.939 5.46148 3.63399 0
M  V30 3766 H 341.856 7.00343 2.84704 0
M  V30 3767 H 343.124 6.69338 3.99508 0
M  V30 3768 N 347.353 -0.0568162 1.57498 0
M  V30 3769 C 348.303 -1.07315 2.01166 0
M  V30 3770 C 349.287 -1.33632 0.896171 0
M  V30 3771 O 350.479 -1.33682 1.16009 0
M  V30 3772 C 347.608 -2.38257 2.47161 0
M  V30 3773 C 346.694 -2.1515 3.65474 0
M  V30 3774 N 347.085 -1.62014 4.7915 0
M  V30 3775 C 345.383 -2.45559 3.72313 0
M  V30 3776 C 346.084 -1.54069 5.60926 0
M  V30 3777 N 345.06 -2.00652 5.05213 0
M  V30 3778 H 348.862 -0.655878 2.86488 0
M  V30 3779 H 346.376 -0.263635 1.60246 0
M  V30 3780 H 348.373 -3.11845 2.76691 0
M  V30 3781 H 347.033 -2.80687 1.63232 0
M  V30 3782 H 348.044 -1.30667 5.01145 0
M  V30 3783 H 344.721 -2.91253 2.99129 0
M  V30 3784 H 346.111 -1.13712 6.62208 0
M  V30 3785 N 348.832 -1.54138 -0.328536 0
M  V30 3786 C 350.062 -1.75807 -1.08516 0
M  V30 3787 C 350.47 -0.50428 -1.82356 0
M  V30 3788 O 349.813 0.534451 -1.75754 0
M  V30 3789 C 349.875 -2.89423 -2.13248 0
M  V30 3790 C 349.539 -4.28504 -1.5885 0
M  V30 3791 C 350.536 -5.09536 -1.03289 0
M  V30 3792 C 348.221 -4.75034 -1.63243 0
M  V30 3793 C 350.215 -6.35206 -0.52845 0
M  V30 3794 C 347.902 -6.00672 -1.12411 0
M  V30 3795 C 348.9 -6.80592 -0.573062 0
M  V30 3796 O 348.588 -8.03867 -0.0723692 0
M  V30 3797 H 348.32 -0.590633 -0.328829 0
M  V30 3798 H 350.874 -2.01819 -0.381868 0
M  V30 3799 H 349.104 -2.5897 -2.87178 0
M  V30 3800 H 350.793 -2.98921 -2.74592 0
M  V30 3801 H 351.559 -4.74745 -0.99206 0
M  V30 3802 H 347.438 -4.12875 -2.05074 0
M  V30 3803 H 350.982 -6.97532 -0.0976774 0
M  V30 3804 H 346.879 -6.34955 -1.162 0
M  V30 3805 H 347.647 -8.18283 -0.188258 0
M  V30 3806 N 350.31 0.590341 -1.46126 0
M  V30 3807 C 351.258 1.72105 -1.5647 0
M  V30 3808 C 352.252 1.63756 -0.433612 0
M  V30 3809 O 353.458 1.69342 -0.610194 0
M  V30 3810 H 349.833 0.568889 -0.491802 0
M  V30 3811 H 351.804 1.6051 -2.51553 0
M  V30 3812 C 350.553 3.10493 -1.56491 0
M  V30 3813 H 349.876 3.17583 -2.4286 0
M  V30 3814 H 351.316 3.8939 -1.67785 0
M  V30 3815 C 349.775 3.3563 -0.292231 0
M  V30 3816 O 350.305 3.96875 0.620739 0
M  V30 3817 N 348.511 2.90026 -0.182523 0
M  V30 3818 H 348.058 2.40367 -0.926356 0
M  V30 3819 H 348.016 3.07218 0.668152 0
M  V30 3820 N 351.788 1.33704 0.83433 0
M  V30 3821 C 353.016 1.28467 1.62185 0
M  V30 3822 C 353.431 -0.143526 1.88254 0
M  V30 3823 O 352.788 -1.08709 1.4659 0
M  V30 3824 C 352.839 2.06174 2.96942 0
M  V30 3825 O 352.56 3.43422 2.72016 0
M  V30 3826 C 354.061 2.08201 3.91366 0
M  V30 3827 H 351.281 0.4424 0.504503 0
M  V30 3828 H 353.825 1.76145 1.03891 0
M  V30 3829 H 351.98 1.62167 3.51825 0
M  V30 3830 H 352.394 3.83453 3.57861 0
M  V30 3831 H 353.868 2.67017 4.83121 0
M  V30 3832 H 354.345 1.07343 4.2588 0
M  V30 3833 H 354.951 2.52246 3.42421 0
M  V30 3834 N 353.266 -1.05314 1.17247 0
M  V30 3835 C 354.514 -1.77941 0.958194 0
M  V30 3836 C 354.835 -1.88089 -0.514556 0
M  V30 3837 O 354.105 -1.39676 -1.37359 0
M  V30 3838 H 352.685 -0.659116 0.351533 0
M  V30 3839 H 355.347 -1.27166 1.47699 0
M  V30 3840 H 354.443 -2.79663 1.38546 0
M  V30 3841 N 354.744 -0.972509 -1.24016 0
M  V30 3842 C 355.691 -0.505969 -2.25186 0
M  V30 3843 C 356.661 0.451009 -1.5986 0
M  V30 3844 O 357.846 0.360307 -1.87367 0
M  V30 3845 C 354.986 0.193089 -3.44559 0
M  V30 3846 C 354.099 -0.803222 -4.24467 0
M  V30 3847 C 353.234 -0.0797793 -5.3114 0
M  V30 3848 C 352.273 -1.06583 -6.02749 0
M  V30 3849 N 351.41 -0.372074 -7.01113 0
M  V30 3850 H 356.25 -1.37351 -2.64459 0
M  V30 3851 H 353.787 -0.688419 -1.29997 0
M  V30 3852 H 355.745 0.615125 -4.1264 0
M  V30 3853 H 354.375 1.02455 -3.06109 0
M  V30 3854 H 353.427 -1.34368 -3.55878 0
M  V30 3855 H 354.739 -1.55494 -4.73944 0
M  V30 3856 H 353.893 0.400015 -6.0538 0
M  V30 3857 H 352.632 0.704597 -4.82583 0
M  V30 3858 H 351.637 -1.55645 -5.27309 0
M  V30 3859 H 352.862 -1.85074 -6.53395 0
M  V30 3860 H 350.808 0.393238 -6.5482 0
M  V30 3861 H 350.725 -1.06258 -7.48495 0
M  V30 3862 H 351.993 0.0855932 -7.79453 0
M  V30 3863 N 356.222 1.38976 -0.743202 0
M  V30 3864 C 357.469 2.00343 -0.294752 0
M  V30 3865 C 357.797 1.58983 1.12047 0
M  V30 3866 O 357.052 0.813809 1.77977 0
M  V30 3867 C 357.351 3.55647 -0.353517 0
M  V30 3868 C 357.017 4.16685 -1.72292 0
M  V30 3869 C 355.679 4.3307 -2.09771 0
M  V30 3870 C 358.031 4.50464 -2.62168 0
M  V30 3871 C 355.359 4.80526 -3.36618 0
M  V30 3872 C 357.711 4.99332 -3.88395 0
M  V30 3873 C 356.375 5.13924 -4.25956 0
M  V30 3874 H 355.645 0.733108 -0.107857 0
M  V30 3875 H 358.292 1.6618 -0.951651 0
M  V30 3876 H 356.597 3.89884 0.386954 0
M  V30 3877 H 358.294 4.00998 0.0117269 0
M  V30 3878 H 354.884 4.04339 -1.42155 0
M  V30 3879 H 359.068 4.37416 -2.3448 0
M  V30 3880 H 354.324 4.90008 -3.65653 0
M  V30 3881 H 358.498 5.2444 -4.58187 0
M  V30 3882 H 356.125 5.50457 -5.2431 0
M  V30 3883 N 357.7 0.491464 1.49741 0
M  V30 3884 C 358.928 -0.0535151 2.06831 0
M  V30 3885 C 359.343 -1.31683 1.35296 0
M  V30 3886 O 358.7 -1.77402 0.42836 0
M  V30 3887 C 358.751 -0.320835 3.60073 0
M  V30 3888 O 358.472 0.892394 4.28915 0
M  V30 3889 C 359.973 -0.910519 4.33848 0
M  V30 3890 H 357.193 0.0161909 0.670805 0
M  V30 3891 H 359.737 0.68609 1.92647 0
M  V30 3892 H 357.892 -1.0104 3.73991 0
M  V30 3893 H 358.306 0.649401 5.20464 0
M  V30 3894 H 359.78 -1.04721 5.41976 0
M  V30 3895 H 360.257 -1.90589 3.95692 0
M  V30 3896 H 360.863 -0.258712 4.24512 0
M  V30 3897 N 359.178 -1.55987 0.224894 0
M  V30 3898 C 360.418 -2.00293 -0.407706 0
M  V30 3899 C 360.782 -1.1093 -1.56711 0
M  V30 3900 O 361.983 -1.44597 -2.26595 0
M  V30 3901 C 360.254 -3.47675 -0.82805 0
M  V30 3902 S 361.813 -4.14 -1.45429 0
M  V30 3903 H 358.631 -0.699152 -0.129256 0
M  V30 3904 H 361.233 -1.92609 0.334967 0
M  V30 3905 H 359.937 -4.10392 0.0253964 0
M  V30 3906 H 359.468 -3.59239 -1.60345 0
M  V30 3907 H 361.483 -4.13465 -2.74337 0
M  V30 3908 N 360.656 0.0484629 -1.57525 0
M  V30 3909 C 361.905 0.742065 -1.87553 0
M  V30 3910 C 362.218 1.77545 -0.820802 0
M  V30 3911 O 363.424 2.52027 -1.00967 0
M  V30 3912 C 361.88 1.37081 -3.32771 0
M  V30 3913 C 361.488 0.374786 -4.4643 0
M  V30 3914 C 363.232 2.04542 -3.71972 0
M  V30 3915 C 361.139 1.01077 -5.82698 0
M  V30 3916 H 360.069 0.280903 -0.699721 0
M  V30 3917 H 362.72 -0.00411877 -1.835 0
M  V30 3918 H 361.102 2.16605 -3.31509 0
M  V30 3919 H 362.276 -0.392331 -4.59127 0
M  V30 3920 H 360.591 -0.196653 -4.15935 0
M  V30 3921 H 363.188 2.52943 -4.71088 0
M  V30 3922 H 363.531 2.85515 -3.02964 0
M  V30 3923 H 364.064 1.31819 -3.75325 0
M  V30 3924 H 360.803 0.240878 -6.55057 0
M  V30 3925 H 360.323 1.74819 -5.73758 0
M  V30 3926 H 362.002 1.52383 -6.28799 0
M  V30 3927 N 362.134 1.5431 0.320358 0
M  V30 3928 C 363.044 1.86946 1.41734 0
M  V30 3929 C 364.06 0.761689 1.56443 0
M  V30 3930 O 365.236 1.05629 1.71477 0
M  V30 3931 C 362.301 2.09293 2.76401 0
M  V30 3932 C 361.362 3.33082 2.70841 0
M  V30 3933 C 360.595 3.54353 3.99086 0
M  V30 3934 O 360.818 2.79002 4.97508 0
M  V30 3935 O 359.752 4.47838 4.0215 0
M  V30 3936 H 363.578 2.80232 1.17062 0
M  V30 3937 H 361.163 1.40255 0.514673 0
M  V30 3938 H 363.045 2.25303 3.56113 0
M  V30 3939 H 361.72 1.19194 3.00956 0
M  V30 3940 H 360.627 3.22454 1.89668 0
M  V30 3941 H 361.96 4.23249 2.5124 0
M  V30 3942 N 363.613 -0.582584 1.46437 0
M  V30 3943 C 364.859 -1.34278 1.51978 0
M  V30 3944 C 365.192 -1.93446 0.170973 0
M  V30 3945 O 364.467 -1.76481 -0.817608 0
M  V30 3946 C 364.75 -2.47203 2.61845 0
M  V30 3947 C 364.603 -1.93069 4.06257 0
M  V30 3948 C 365.922 -3.49247 2.67795 0
M  V30 3949 H 363.041 -0.486876 0.553282 0
M  V30 3950 H 365.683 -0.654437 1.78374 0
M  V30 3951 H 363.833 -3.0592 2.39469 0
M  V30 3952 H 365.505 -1.38808 4.3992 0
M  V30 3953 H 363.748 -1.23898 4.1573 0
M  V30 3954 H 364.419 -2.74586 4.7886 0
M  V30 3955 H 366.895 -3.00411 2.8791 0
M  V30 3956 H 365.771 -4.25719 3.46489 0
M  V30 3957 H 366.032 -4.06482 1.73852 0
M  V30 3958 N 365.091 -1.34144 -0.827227 0
M  V30 3959 C 366.038 -1.25364 -1.93785 0
M  V30 3960 C 367.008 -0.129774 -1.65592 0
M  V30 3961 O 368.193 -0.310024 -1.88264 0
M  V30 3962 C 365.333 -1.01064 -3.2997 0
M  V30 3963 C 364.446 -2.22185 -3.70484 0
M  V30 3964 C 363.581 -1.91203 -4.95595 0
M  V30 3965 C 362.62 -3.08491 -5.28677 0
M  V30 3966 N 361.757 -2.77421 -6.44967 0
M  V30 3967 H 366.597 -2.20347 -2.00627 0
M  V30 3968 H 364.134 -1.09558 -0.981608 0
M  V30 3969 H 366.092 -0.850139 -4.08446 0
M  V30 3970 H 364.722 -0.0975026 -3.22653 0
M  V30 3971 H 363.774 -2.4917 -2.87434 0
M  V30 3972 H 365.086 -3.0983 -3.90905 0
M  V30 3973 H 364.24 -1.71864 -5.81848 0
M  V30 3974 H 362.979 -1.00812 -4.77167 0
M  V30 3975 H 361.984 -3.28431 -4.40923 0
M  V30 3976 H 363.209 -3.99655 -5.49047 0
M  V30 3977 H 361.155 -1.89601 -6.28003 0
M  V30 3978 H 361.072 -3.58598 -6.6554 0
M  V30 3979 H 362.34 -2.61577 -7.34301 0
M  V30 3980 N 366.569 1.04691 -1.17803 0
M  V30 3981 C 367.816 1.77782 -0.969532 0
M  V30 3982 C 368.144 1.87926 0.501401 0
M  V30 3983 O 367.399 1.37918 1.38842 0
M  V30 3984 C 367.698 3.21467 -1.56186 0
M  V30 3985 C 367.364 3.3137 -3.05786 0
M  V30 3986 C 366.026 3.3378 -3.46619 0
M  V30 3987 C 368.378 3.31976 -4.01797 0
M  V30 3988 C 365.706 3.34431 -4.82051 0
M  V30 3989 C 368.058 3.34167 -5.37136 0
M  V30 3990 C 366.722 3.34866 -5.77426 0
M  V30 3991 H 365.992 0.650549 -0.354777 0
M  V30 3992 H 368.639 1.23006 -1.46772 0
M  V30 3993 H 366.944 3.79203 -0.985515 0
M  V30 3994 H 368.641 3.76652 -1.37602 0
M  V30 3995 H 365.231 3.3021 -2.73238 0
M  V30 3996 H 369.415 3.29311 -3.71306 0
M  V30 3997 H 364.671 3.33285 -5.12573 0
M  V30 3998 H 368.845 3.33585 -6.11305 0
M  V30 3999 H 366.472 3.35124 -6.82346 0
M  V30 4000 N 368.047 0.979072 1.23499 0
M  V30 4001 C 368.997 0.489378 2.22686 0
M  V30 4002 C 369.981 -0.434871 1.54912 0
M  V30 4003 O 371.173 -0.263941 1.75021 0
M  V30 4004 C 368.302 -0.208178 3.42668 0
M  V30 4005 C 367.388 0.735563 4.17672 0
M  V30 4006 N 367.779 1.87763 4.69658 0
M  V30 4007 C 366.077 0.548625 4.42613 0
M  V30 4008 C 366.778 2.46886 5.26709 0
M  V30 4009 N 365.754 1.75287 5.14563 0
M  V30 4010 H 369.556 1.36062 2.60508 0
M  V30 4011 H 367.07 0.83958 1.39014 0
M  V30 4012 H 369.067 -0.576295 4.12898 0
M  V30 4013 H 367.727 -1.07572 3.06363 0
M  V30 4014 H 368.738 2.25885 4.66043 0
M  V30 4015 H 365.415 -0.274006 4.166 0
M  V30 4016 H 366.805 3.43326 5.77561 0
M  V30 4017 N 369.525 -1.3858 0.750561 0
M  V30 4018 C 370.455 -2.33102 0.136237 0
M  V30 4019 C 371.436 -1.54713 -0.706965 0
M  V30 4020 O 372.621 -1.83043 -0.648769 0
M  V30 4021 C 369.751 -3.38882 -0.760017 0
M  V30 4022 C 368.705 -4.27995 -0.0197785 0
M  V30 4023 C 368.031 -5.24605 -1.03408 0
M  V30 4024 C 369.331 -5.09554 1.14684 0
M  V30 4025 H 371.025 -2.84726 0.925822 0
M  V30 4026 H 368.571 -1.36898 0.446654 0
M  V30 4027 H 370.524 -4.0397 -1.19943 0
M  V30 4028 H 369.248 -2.85734 -1.58189 0
M  V30 4029 H 367.907 -3.64409 0.400184 0
M  V30 4030 H 367.555 -4.67746 -1.84994 0
M  V30 4031 H 367.255 -5.85081 -0.543464 0
M  V30 4032 H 368.779 -5.9257 -1.47288 0
M  V30 4033 H 370.193 -5.67899 0.785118 0
M  V30 4034 H 368.59 -5.7925 1.56812 0
M  V30 4035 H 369.66 -4.4347 1.96118 0
M  V30 4036 N 371.003 -0.499398 -1.49478 0
M  V30 4037 C 371.913 0.284489 -2.32869 0
M  V30 4038 C 372.929 0.968885 -1.44529 0
M  V30 4039 O 374.105 0.95062 -1.77553 0
M  V30 4040 C 371.17 1.33594 -3.19928 0
M  V30 4041 C 370.231 0.665149 -4.24116 0
M  V30 4042 C 369.464 1.6665 -5.07014 0
M  V30 4043 O 369.687 2.89618 -4.91404 0
M  V30 4044 O 368.621 1.22271 -5.8935 0
M  V30 4045 H 372.447 -0.39802 -3.01081 0
M  V30 4046 H 370.032 -0.260758 -1.47107 0
M  V30 4047 H 371.914 1.94431 -3.73864 0
M  V30 4048 H 370.589 2.0014 -2.54412 0
M  V30 4049 H 369.496 0.0170769 -3.74096 0
M  V30 4050 H 370.829 0.0421555 -4.92182 0
M  V30 4051 N 372.481 1.55866 -0.233164 0
M  V30 4052 C 373.897 1.59133 0.121988 0
M  V30 4053 C 374.097 1.25016 1.58029 0
M  V30 4054 O 373.153 0.990922 2.32243 0
M  V30 4055 C 374.466 2.99932 -0.214792 0
M  V30 4056 C 376.014 3.12601 -0.157971 0
M  V30 4057 C 376.489 4.55597 -0.46859 0
M  V30 4058 N 377.98 4.61305 -0.418585 0
M  V30 4059 C 378.715 5.69903 -0.63227 0
M  V30 4060 N 378.211 6.86819 -0.90835 0
M  V30 4061 N 380.004 5.59264 -0.563913 0
M  V30 4062 H 372.155 1.76315 -1.18434 0
M  V30 4063 H 374.418 0.820093 -0.475553 0
M  V30 4064 H 374.124 3.29588 -1.22739 0
M  V30 4065 H 373.998 3.74327 0.464691 0
M  V30 4066 H 376.385 2.82735 0.845283 0
M  V30 4067 H 376.466 2.40511 -0.871102 0
M  V30 4068 H 376.11 4.86182 -1.46934 0
M  V30 4069 H 376.04 5.25928 0.265865 0
M  V30 4070 H 378.531 3.77297 -0.213368 0
M  V30 4071 H 378.844 7.65507 -1.05919 0
M  V30 4072 H 377.189 6.88536 -0.945673 0
M  V30 4073 H 380.38 4.66802 -0.348372 0
M  V30 4074 H 380.553 6.43831 -0.733847 0
M  V30 4075 N 373.959 -0.0401083 1.57549 0
M  V30 4076 C 374.891 -1.07149 2.02612 0
M  V30 4077 C 375.904 -1.33126 0.937085 0
M  V30 4078 O 377.093 -1.30808 1.21456 0
M  V30 4079 C 374.193 -2.41561 2.37701 0
M  V30 4080 C 373.366 -2.35096 3.68848 0
M  V30 4081 C 372.425 -3.51867 3.91249 0
M  V30 4082 O 371.451 -3.3186 4.62447 0
M  V30 4083 N 372.653 -4.73351 3.36035 0
M  V30 4084 H 375.418 -0.687485 2.91708 0
M  V30 4085 H 372.979 -0.228248 1.60283 0
M  V30 4086 H 374.971 -3.18379 2.49833 0
M  V30 4087 H 373.541 -2.71846 1.54332 0
M  V30 4088 H 372.761 -1.4345 3.67173 0
M  V30 4089 H 374.049 -2.27908 4.54901 0
M  V30 4090 H 373.447 -4.92507 2.78304 0
M  V30 4091 H 372.004 -5.47572 3.53565 0
M  V30 4092 N 375.437 -1.54477 -0.31217 0
M  V30 4093 C 376.37 -1.79519 -1.40884 0
M  V30 4094 C 377.348 -0.645753 -1.49227 0
M  V30 4095 O 378.532 -0.884468 -1.66461 0
M  V30 4096 C 375.659 -1.92194 -2.78889 0
M  V30 4097 C 374.705 -3.14555 -2.88023 0
M  V30 4098 S 375.538 -4.72893 -2.51262 0
M  V30 4099 C 376.694 -4.8849 -3.91317 0
M  V30 4100 H 376.927 -2.72256 -1.19432 0
M  V30 4101 H 374.46 -1.45746 -0.509654 0
M  V30 4102 H 376.418 -2.00182 -3.58382 0
M  V30 4103 H 375.079 -1.00414 -2.97617 0
M  V30 4104 H 374.272 -3.20193 -3.89221 0
M  V30 4105 H 373.874 -3.04955 -2.16514 0
M  V30 4106 H 376.166 -4.71826 -4.86196 0
M  V30 4107 H 377.109 -5.90588 -3.90656 0
M  V30 4108 H 377.517 -4.16715 -3.80801 0
M  V30 4109 N 376.915 0.57481 -1.46744 0
M  V30 4110 C 378.163 1.33009 -1.52161 0
M  V30 4111 C 378.484 1.94185 -0.178092 0
M  V30 4112 O 377.754 1.7899 0.796196 0
M  V30 4113 H 376.334 0.493873 -0.560445 0
M  V30 4114 H 378.996 0.672589 -1.82927 0
M  V30 4115 H 378.092 2.13273 -2.27862 0
M  V30 4116 N 378.394 1.34581 0.820102 0
M  V30 4117 C 379.624 1.29991 1.6058 0
M  V30 4118 C 380.032 -0.127588 1.88769 0
M  V30 4119 O 379.375 -1.08595 1.48165 0
M  V30 4120 C 379.437 2.02548 2.9701 0
M  V30 4121 C 379.101 3.51794 2.91701 0
M  V30 4122 C 380.098 4.46647 2.66087 0
M  V30 4123 C 377.783 3.94249 3.11245 0
M  V30 4124 C 379.777 5.81929 2.60071 0
M  V30 4125 C 377.464 5.2963 3.04853 0
M  V30 4126 C 378.462 6.23282 2.793 0
M  V30 4127 O 378.15 7.56181 2.72847 0
M  V30 4128 H 377.882 0.448539 0.505756 0
M  V30 4129 H 380.436 1.77811 1.02822 0
M  V30 4130 H 378.666 1.49345 3.56697 0
M  V30 4131 H 380.355 1.91211 3.58041 0
M  V30 4132 H 381.121 4.15168 2.5072 0
M  V30 4133 H 377 3.21749 3.30149 0
M  V30 4134 H 380.544 6.54999 2.40046 0
M  V30 4135 H 376.441 5.60727 3.19774 0
M  V30 4136 H 377.209 7.6595 2.88553 0
M  V30 4137 N 379.872 -1.04064 1.18357 0
M  V30 4138 C 381.102 -1.80654 1.00238 0
M  V30 4139 C 381.51 -1.83713 -0.452362 0
M  V30 4140 O 380.853 -1.27135 -1.32599 0
M  V30 4141 C 380.915 -3.27582 1.48088 0
M  V30 4142 C 380.579 -3.48184 2.96002 0
M  V30 4143 C 381.576 -3.39372 3.93856 0
M  V30 4144 C 379.261 -3.7478 3.34433 0
M  V30 4145 C 381.255 -3.5686 5.28138 0
M  V30 4146 C 378.942 -3.91915 4.68877 0
M  V30 4147 C 379.94 -3.82956 5.65539 0
M  V30 4148 O 379.628 -3.996 6.97549 0
M  V30 4149 H 379.36 -0.575751 0.354241 0
M  V30 4150 H 381.914 -1.32044 1.57333 0
M  V30 4151 H 380.144 -3.77161 0.853588 0
M  V30 4152 H 381.833 -3.8573 1.2636 0
M  V30 4153 H 382.599 -3.18789 3.65511 0
M  V30 4154 H 378.478 -3.80852 2.59756 0
M  V30 4155 H 382.022 -3.49783 6.03571 0
M  V30 4156 H 377.919 -4.11992 4.96923 0
M  V30 4157 H 378.687 -4.1676 7.04452 0
M  V30 4158 N 381.35 -0.985608 -1.22978 0
M  V30 4159 C 382.28 -0.549649 -2.26939 0
M  V30 4160 C 383.261 0.419803 -1.64838 0
M  V30 4161 O 384.446 0.31203 -1.91677 0
M  V30 4162 C 381.576 0.143652 -3.47003 0
M  V30 4163 C 380.53 -0.743606 -4.21491 0
M  V30 4164 C 379.856 0.0822027 -5.34637 0
M  V30 4165 C 381.156 -2.03694 -4.80943 0
M  V30 4166 H 382.85 -1.41862 -2.63658 0
M  V30 4167 H 380.396 -0.683571 -1.26741 0
M  V30 4168 H 382.349 0.459985 -4.18882 0
M  V30 4169 H 381.073 1.04711 -3.09359 0
M  V30 4170 H 379.732 -1.04347 -3.51436 0
M  V30 4171 H 379.38 0.986359 -4.93234 0
M  V30 4172 H 379.08 -0.508377 -5.85397 0
M  V30 4173 H 380.604 0.392797 -6.09335 0
M  V30 4174 H 382.018 -1.78504 -5.44802 0
M  V30 4175 H 380.415 -2.57573 -5.42011 0
M  V30 4176 H 381.485 -2.72042 -4.01399 0
M  V30 4177 N 382.828 1.3818 -0.7579 0
M  V30 4178 C 384.077 1.99261 -0.312744 0
M  V30 4179 C 384.39 1.60846 1.11301 0
M  V30 4180 O 385.596 2.14929 1.65885 0
M  V30 4181 C 384.052 3.56294 -0.50821 0
M  V30 4182 C 383.66 4.03657 -1.94333 0
M  V30 4183 C 385.404 4.24313 -0.125982 0
M  V30 4184 C 383.311 5.53347 -2.08712 0
M  V30 4185 H 382.241 0.745456 -0.113185 0
M  V30 4186 H 384.892 1.57889 -0.935056 0
M  V30 4187 H 383.274 3.95575 0.183353 0
M  V30 4188 H 384.448 3.75655 -2.66871 0
M  V30 4189 H 382.763 3.48376 -2.28086 0
M  V30 4190 H 385.36 5.34279 -0.212125 0
M  V30 4191 H 385.703 4.05962 0.921964 0
M  V30 4192 H 386.236 3.90285 -0.769563 0
M  V30 4193 H 382.975 5.76607 -3.11777 0
M  V30 4194 H 382.495 5.83078 -1.4064 0
M  V30 4195 H 384.174 6.19111 -1.87912 0
M  V30 4196 N 384.306 0.507319 1.49211 0
M  V30 4197 C 385.238 -0.304532 2.27168 0
M  V30 4198 C 386.251 -0.924956 1.33972 0
M  V30 4199 O 387.44 -0.807227 1.59205 0
M  V30 4200 C 384.54 -1.44431 3.06583 0
M  V30 4201 C 383.713 -0.930026 4.27398 0
M  V30 4202 C 382.772 -1.94817 4.88807 0
M  V30 4203 O 381.798 -1.51418 5.4869 0
M  V30 4204 N 383 -3.279 4.79022 0
M  V30 4205 H 385.765 0.36395 2.97482 0
M  V30 4206 H 383.326 0.340249 1.58284 0
M  V30 4207 H 385.318 -2.12311 3.44537 0
M  V30 4208 H 383.888 -2.01684 2.38835 0
M  V30 4209 H 383.108 -0.0759244 3.94127 0
M  V30 4210 H 384.396 -0.564932 5.05654 0
M  V30 4211 H 383.794 -3.65843 4.3148 0
M  V30 4212 H 382.351 -3.91476 5.21142 0
M  V30 4213 N 385.784 -1.5574 0.241426 0
M  V30 4214 C 386.717 -2.17168 -0.700935 0
M  V30 4215 C 387.695 -1.12206 -1.1768 0
M  V30 4216 O 388.879 -1.40565 -1.25593 0
M  V30 4217 C 386.006 -2.76796 -1.95196 0
M  V30 4218 C 385.052 -3.94764 -1.61442 0
M  V30 4219 S 385.885 -5.30613 -0.72182 0
M  V30 4220 C 387.041 -5.93691 -1.98197 0
M  V30 4221 H 387.274 -2.96761 -0.178882 0
M  V30 4222 H 384.807 -1.54378 0.0259299 0
M  V30 4223 H 386.765 -3.11787 -2.67019 0
M  V30 4224 H 385.426 -1.9716 -2.44514 0
M  V30 4225 H 384.619 -4.35057 -2.54443 0
M  V30 4226 H 384.221 -3.61022 -0.976672 0
M  V30 4227 H 386.513 -6.10874 -2.92983 0
M  V30 4228 H 387.456 -6.89258 -1.62262 0
M  V30 4229 H 387.864 -5.22709 -2.13156 0
M  V30 4230 N 387.262 0.0317525 -1.57568 0
M  V30 4231 C 388.492 0.733884 -1.93126 0
M  V30 4232 C 388.9 1.69563 -0.839352 0
M  V30 4233 O 388.243 1.82681 0.193175 0
M  V30 4234 C 388.305 1.54798 -3.24465 0
M  V30 4235 C 387.969 0.751304 -4.50782 0
M  V30 4236 C 388.966 0.0527632 -5.19873 0
M  V30 4237 C 386.651 0.706639 -4.97305 0
M  V30 4238 C 388.645 -0.679774 -6.33765 0
M  V30 4239 C 386.332 -0.0296449 -6.11093 0
M  V30 4240 C 387.33 -0.721614 -6.79177 0
M  V30 4241 O 387.018 -1.44595 -7.90789 0
M  V30 4242 H 386.75 0.211459 -0.642076 0
M  V30 4243 H 389.304 -0.00585615 -2.05399 0
M  V30 4244 H 387.534 2.33147 -3.08512 0
M  V30 4245 H 389.223 2.13247 -3.4537 0
M  V30 4246 H 389.989 0.0783188 -4.84937 0
M  V30 4247 H 385.868 1.23474 -4.44157 0
M  V30 4248 H 389.412 -1.22042 -6.86842 0
M  V30 4249 H 385.309 -0.0571331 -6.45475 0
M  V30 4250 H 386.077 -1.35935 -8.07133 0
M  V30 4251 N 388.74 1.54641 0.303973 0
M  V30 4252 C 389.989 1.7299 1.03717 0
M  V30 4253 C 390.302 0.521168 1.88529 0
M  V30 4254 O 391.508 0.586408 2.65092 0
M  V30 4255 C 389.964 3.06051 1.89369 0
M  V30 4256 C 389.572 4.34393 1.09574 0
M  V30 4257 C 391.316 3.3376 2.62306 0
M  V30 4258 C 389.223 5.58506 1.94486 0
M  V30 4259 H 388.153 0.64473 0.390947 0
M  V30 4260 H 390.804 1.81124 0.294328 0
M  V30 4261 H 389.186 2.91874 2.67629 0
M  V30 4262 H 390.36 4.59396 0.359485 0
M  V30 4263 H 388.675 4.13597 0.482324 0
M  V30 4264 H 391.272 4.23687 3.26181 0
M  V30 4265 H 391.615 2.52503 3.3098 0
M  V30 4266 H 392.148 3.48894 1.91097 0
M  V30 4267 H 388.887 6.42422 1.30287 0
M  V30 4268 H 388.407 5.37694 2.65792 0
M  V30 4269 H 390.086 5.95651 2.52605 0
M  V30 4270 N 390.218 -0.567019 1.47046 0
M  V30 4271 C 391.629 -1.14916 1.47143 0
M  V30 4272 C 391.98 -1.94954 0.220767 0
M  V30 4273 O 391.105 -2.05602 -0.67505 0
M  V30 4274 C 391.7 -2.09069 2.666 0
M  V30 4275 C 390.259 -2.62575 2.69687 0
M  V30 4276 C 389.406 -1.38755 2.40088 0
M  V30 4277 H 392.357 -0.354126 1.54699 0
M  V30 4278 H 392.378 -2.92789 2.43011 0
M  V30 4279 H 391.89 -1.50789 3.57609 0
M  V30 4280 H 389.991 -3.24681 1.82792 0
M  V30 4281 H 390.104 -3.04239 3.70102 0
M  V30 4282 H 388.468 -1.69098 1.90468 0
M  V30 4283 H 389.251 -0.822822 3.33293 0
M  V30 4284 N 391.696 -1.35014 -0.812953 0
M  V30 4285 C 392.921 -1.31187 -1.60639 0
M  V30 4286 C 393.346 0.109382 -1.87782 0
M  V30 4287 O 392.704 1.07424 -1.46047 0
M  V30 4288 C 392.752 -2.11809 -2.91838 0
M  V30 4289 O 391.856 -1.49444 -3.8437 0
M  V30 4290 H 391.197 -0.450084 -0.488181 0
M  V30 4291 H 393.727 -1.77963 -1.00947 0
M  V30 4292 H 393.737 -2.23531 -3.41318 0
M  V30 4293 H 392.412 -3.15137 -2.71407 0
M  V30 4294 H 390.989 -1.46524 -3.42907 0
M  V30 4295 N 393.175 1.03435 -1.18907 0
M  V30 4296 C 394.105 2.13503 -0.945448 0
M  V30 4297 C 395.086 1.69682 0.119189 0
M  V30 4298 O 396.271 1.94169 -0.034707 0
M  V30 4299 C 393.401 3.44004 -0.477316 0
M  V30 4300 C 392.355 4.0148 -1.48316 0
M  V30 4301 C 391.681 5.27537 -0.872311 0
M  V30 4302 C 392.981 4.36921 -2.86177 0
M  V30 4303 H 394.675 2.34141 -1.86597 0
M  V30 4304 H 392.221 1.12523 -0.898584 0
M  V30 4305 H 394.174 4.20372 -0.294204 0
M  V30 4306 H 392.898 3.23072 0.478786 0
M  V30 4307 H 391.557 3.27201 -1.65332 0
M  V30 4308 H 391.205 5.02917 0.0911752 0
M  V30 4309 H 390.905 5.66954 -1.54393 0
M  V30 4310 H 392.429 6.06576 -0.699871 0
M  V30 4311 H 393.843 5.04248 -2.72776 0
M  V30 4312 H 392.24 4.87405 -3.50081 0
M  V30 4313 H 393.31 3.46466 -3.39248 0
M  V30 4314 N 394.653 0.992116 1.22453 0
M  V30 4315 C 395.583 0.561677 2.26644 0
M  V30 4316 C 396.564 -0.411055 1.65059 0
M  V30 4317 O 397.749 -0.301861 1.9184 0
M  V30 4318 C 394.879 -0.125247 3.47074 0
M  V30 4319 C 393.833 0.765948 4.21091 0
M  V30 4320 C 393.159 -0.0538484 5.34673 0
M  V30 4321 C 394.459 2.06242 4.79856 0
M  V30 4322 H 396.153 1.43259 2.62902 0
M  V30 4323 H 393.699 0.690283 1.26377 0
M  V30 4324 H 395.652 -0.437764 4.1912 0
M  V30 4325 H 394.376 -1.03069 3.0991 0
M  V30 4326 H 393.035 1.0621 3.50878 0
M  V30 4327 H 392.683 -0.960188 4.9375 0
M  V30 4328 H 392.383 0.539415 5.85119 0
M  V30 4329 H 393.907 -0.360477 6.09535 0
M  V30 4330 H 395.321 1.8139 5.43848 0
M  V30 4331 H 393.718 2.60444 5.40638 0
M  V30 4332 H 394.788 2.74167 3.99951 0
M  V30 4333 N 396.131 -1.37776 0.765217 0
M  V30 4334 C 397.38 -1.99092 0.323307 0
M  V30 4335 C 397.693 -1.61434 -1.10446 0
M  V30 4336 O 398.899 -2.15805 -1.64743 0
M  V30 4337 C 397.355 -3.56019 0.527098 0
M  V30 4338 C 396.963 -4.0262 1.96471 0
M  V30 4339 C 398.707 -4.2424 0.148483 0
M  V30 4340 C 396.614 -5.52233 2.11644 0
M  V30 4341 H 395.544 -0.744846 0.117137 0
M  V30 4342 H 398.195 -1.57391 0.943417 0
M  V30 4343 H 396.577 -3.95667 -0.162372 0
M  V30 4344 H 397.751 -3.74234 2.68859 0
M  V30 4345 H 396.066 -3.47161 2.29931 0
M  V30 4346 H 398.663 -5.34159 0.240456 0
M  V30 4347 H 399.006 -4.06446 -0.900422 0
M  V30 4348 H 399.539 -3.89872 0.79025 0
M  V30 4349 H 396.278 -5.74945 3.1483 0
M  V30 4350 H 395.798 -5.82324 1.4373 0
M  V30 4351 H 397.477 -6.18106 1.91193 0
M  V30 4352 N 397.609 -0.515225 -1.4894 0
M  V30 4353 C 398.855 0.0242508 -2.02785 0
M  V30 4354 C 399.188 1.35323 -1.39289 0
M  V30 4355 O 398.463 1.87041 -0.533469 0
M  V30 4356 C 398.746 0.16184 -3.59736 0
M  V30 4357 C 398.599 -1.19127 -4.33738 0
M  V30 4358 C 399.918 0.895719 -4.30888 0
M  V30 4359 H 397.037 0.00733914 -0.736963 0
M  V30 4360 H 399.679 -0.669395 -1.77818 0
M  V30 4361 H 397.829 0.752624 -3.8114 0
M  V30 4362 H 399.501 -1.82202 -4.23792 0
M  V30 4363 H 397.744 -1.77695 -3.95736 0
M  V30 4364 H 398.415 -1.04815 -5.41957 0
M  V30 4365 H 400.891 0.394528 -4.14225 0
M  V30 4366 H 399.767 0.960859 -5.40425 0
M  V30 4367 H 400.028 1.9427 -3.97129 0
M  V30 4368 N 399.087 1.5561 -0.249682 0
M  V30 4369 C 400.336 1.98187 0.37479 0
M  V30 4370 C 400.649 1.14111 1.58865 0
M  V30 4371 O 401.855 1.46714 2.28445 0
M  V30 4372 C 400.311 3.52661 0.718192 0
M  V30 4373 C 399.919 4.45481 -0.474428 0
M  V30 4374 C 401.663 4.03888 1.3067 0
M  V30 4375 C 399.57 5.91303 -0.107026 0
M  V30 4376 H 398.5 0.740159 0.143808 0
M  V30 4377 H 401.151 1.80125 -0.350336 0
M  V30 4378 H 399.533 3.66429 1.50152 0
M  V30 4379 H 400.707 4.43473 -1.25172 0
M  V30 4380 H 399.022 4.04751 -0.978052 0
M  V30 4381 H 401.619 5.10358 1.59496 0
M  V30 4382 H 401.962 3.51401 2.23211 0
M  V30 4383 H 402.495 3.93457 0.586211 0
M  V30 4384 H 399.234 6.47833 -0.999642 0
M  V30 4385 H 398.754 5.9644 0.634013 0
M  V30 4386 H 400.433 6.46258 0.309807 0
M  V30 4387 N 400.565 -0.0233959 1.57583 0
M  V30 4388 C 401.495 -1.02162 2.09965 0
M  V30 4389 C 402.476 -1.3735 1.00344 0
M  V30 4390 O 403.661 -1.46135 1.27899 0
M  V30 4391 C 400.791 -2.32081 2.58371 0
M  V30 4392 C 399.745 -2.1112 3.72307 0
M  V30 4393 C 399.071 -3.46848 4.06941 0
M  V30 4394 C 400.371 -1.49276 5.00514 0
M  V30 4395 H 402.065 -0.585557 2.93618 0
M  V30 4396 H 399.611 -0.280218 1.41247 0
M  V30 4397 H 401.564 -3.02249 2.93639 0
M  V30 4398 H 400.288 -2.77758 1.71808 0
M  V30 4399 H 398.947 -1.43384 3.37397 0
M  V30 4400 H 398.595 -3.90184 3.17436 0
M  V30 4401 H 398.295 -3.33646 4.83688 0
M  V30 4402 H 399.819 -4.18369 4.44747 0
M  V30 4403 H 401.233 -2.09368 5.33702 0
M  V30 4404 H 399.63 -1.46632 5.8191 0
M  V30 4405 H 400.7 -0.459217 4.82721 0
M  V30 4406 N 402.043 -1.548 -0.295768 0
M  V30 4407 C 403.268 -1.78653 -1.05346 0
M  V30 4408 C 403.693 -0.546894 -1.79974 0
M  V30 4409 O 403.051 0.502763 -1.7419 0
M  V30 4410 C 403.099 -2.99679 -2.00561 0
M  V30 4411 O 402.203 -2.7317 -3.08953 0
M  V30 4412 H 401.544 -0.59116 -0.302367 0
M  V30 4413 H 404.074 -2.01895 -0.331598 0
M  V30 4414 H 404.084 -3.27793 -2.42932 0
M  V30 4415 H 402.759 -3.89562 -1.4565 0
M  V30 4416 H 401.336 -2.56089 -2.71059 0
M  V30 4417 N 403.521 0.559213 -1.47345 0
M  V30 4418 C 404.767 1.31614 -1.55079 0
M  V30 4419 C 405.122 1.91257 -0.209422 0
M  V30 4420 O 404.415 1.74796 0.784656 0
M  V30 4421 C 404.609 2.44853 -2.6035 0
M  V30 4422 C 404.438 1.96305 -4.04591 0
M  V30 4423 C 403.208 1.8024 -4.72061 0
M  V30 4424 C 405.406 1.50872 -4.91673 0
M  V30 4425 N 403.388 1.26011 -6.00828 0
M  V30 4426 C 404.759 1.08395 -6.10451 0
M  V30 4427 C 406.814 1.38905 -4.78132 0
M  V30 4428 C 405.517 0.551399 -7.17183 0
M  V30 4429 C 407.543 0.870518 -5.84958 0
M  V30 4430 C 406.905 0.455661 -7.02925 0
M  V30 4431 H 403.004 0.473712 -0.62219 0
M  V30 4432 H 405.588 0.634103 -1.84085 0
M  V30 4433 H 403.759 3.10589 -2.33215 0
M  V30 4434 H 405.491 3.11849 -2.57938 0
M  V30 4435 H 402.246 2.02895 -4.27937 0
M  V30 4436 H 402.67 1.00991 -6.69425 0
M  V30 4437 H 407.312 1.69591 -3.87297 0
M  V30 4438 H 405.03 0.232159 -8.07766 0
M  V30 4439 H 408.616 0.781507 -5.76527 0
M  V30 4440 H 407.496 0.0606414 -7.84177 0
M  V30 4441 N 404.999 1.35443 0.805782 0
M  V30 4442 C 406.245 1.28952 1.56522 0
M  V30 4443 C 406.578 -0.135597 1.93726 0
M  V30 4444 O 405.853 -1.08516 1.61414 0
M  V30 4445 C 406.136 2.19678 2.85331 0
M  V30 4446 C 405.989 3.7081 2.54598 0
M  V30 4447 C 407.308 2.09495 3.8704 0
M  V30 4448 H 404.427 0.469764 0.567883 0
M  V30 4449 H 407.069 1.65851 0.927001 0
M  V30 4450 H 405.219 1.8834 3.39795 0
M  V30 4451 H 406.891 4.12593 2.06312 0
M  V30 4452 H 405.134 3.91051 1.8778 0
M  V30 4453 H 405.805 4.29679 3.46525 0
M  V30 4454 H 408.281 2.37045 3.41978 0
M  V30 4455 H 407.157 2.75173 4.74943 0
M  V30 4456 H 407.418 1.07714 4.28777 0
M  V30 4457 N 406.477 -1.02803 1.19454 0
M  V30 4458 C 407.702 -1.80378 1.02364 0
M  V30 4459 C 408.127 -1.83282 -0.423007 0
M  V30 4460 O 407.485 -1.25945 -1.30413 0
M  V30 4461 C 407.533 -3.23248 1.59821 0
M  V30 4462 O 406.637 -4.04 0.828105 0
M  V30 4463 H 405.978 -0.556799 0.361761 0
M  V30 4464 H 408.508 -1.29385 1.58495 0
M  V30 4465 H 408.518 -3.73994 1.63073 0
M  V30 4466 H 407.193 -3.2045 2.65113 0
M  V30 4467 H 405.77 -3.62635 0.86891 0
M  V30 4468 N 407.956 -0.998596 -1.21925 0
M  V30 4469 C 409.203 -0.677663 -1.90824 0
M  V30 4470 C 409.531 0.790905 -1.77693 0
M  V30 4471 O 408.786 1.58817 -1.14349 0
M  V30 4472 C 409.085 -1.03648 -3.42041 0
M  V30 4473 C 408.751 -2.49825 -3.75364 0
M  V30 4474 C 407.413 -2.8977 -3.8417 0
M  V30 4475 C 409.765 -3.44545 -3.91073 0
M  V30 4476 C 407.093 -4.23412 -4.06127 0
M  V30 4477 C 409.445 -4.77853 -4.14535 0
M  V30 4478 C 408.109 -5.17531 -4.21566 0
M  V30 4479 H 407.379 -0.247975 -0.698276 0
M  V30 4480 H 410.026 -1.25584 -1.44571 0
M  V30 4481 H 408.331 -0.376457 -3.89987 0
M  V30 4482 H 410.028 -0.766113 -3.93614 0
M  V30 4483 H 406.618 -2.17866 -3.69097 0
M  V30 4484 H 410.802 -3.14853 -3.83642 0
M  V30 4485 H 406.058 -4.53734 -4.09799 0
M  V30 4486 H 410.232 -5.51189 -4.25633 0
M  V30 4487 H 407.859 -6.21102 -4.38333 0
M  V30 4488 N 409.434 1.37368 -0.772513 0
M  V30 4489 C 410.68 2.00423 -0.3467 0
M  V30 4490 C 411.035 1.60224 1.06518 0
M  V30 4491 O 410.328 0.838712 1.72268 0
M  V30 4492 C 410.522 3.54817 -0.428876 0
M  V30 4493 C 410.351 4.10011 -1.84719 0
M  V30 4494 C 409.121 4.40927 -2.46803 0
M  V30 4495 C 411.319 4.30955 -2.80681 0
M  V30 4496 N 409.301 4.8184 -3.80399 0
M  V30 4497 C 410.672 4.74486 -3.99078 0
M  V30 4498 C 412.727 4.1309 -2.77958 0
M  V30 4499 C 411.43 5.02023 -5.15136 0
M  V30 4500 C 413.456 4.41764 -3.9319 0
M  V30 4501 C 412.818 4.85535 -5.10328 0
M  V30 4502 H 408.917 0.762413 -0.173927 0
M  V30 4503 H 411.501 1.66666 -1.00651 0
M  V30 4504 H 409.672 3.87881 0.200757 0
M  V30 4505 H 411.404 4.04696 0.0190668 0
M  V30 4506 H 408.159 4.30033 -1.98415 0
M  V30 4507 H 408.583 5.06604 -4.49089 0
M  V30 4508 H 413.225 3.7842 -1.88568 0
M  V30 4509 H 410.943 5.35582 -6.05126 0
M  V30 4510 H 414.529 4.29528 -3.92425 0
M  V30 4511 H 413.409 5.07296 -5.98013 0
M  V30 4512 N 410.912 0.523116 1.48665 0
M  V30 4513 C 412.161 -0.01544 2.01694 0
M  V30 4514 C 412.474 -1.35975 1.40606 0
M  V30 4515 O 413.68 -1.98627 1.85093 0
M  V30 4516 C 412.136 -0.0779303 3.59816 0
M  V30 4517 C 411.744 1.26107 4.29885 0
M  V30 4518 C 413.488 -0.565678 4.20714 0
M  V30 4519 C 411.395 1.15954 5.79921 0
M  V30 4520 H 410.325 -0.00954163 0.75394 0
M  V30 4521 H 412.976 0.665865 1.70993 0
M  V30 4522 H 411.358 -0.824165 3.87329 0
M  V30 4523 H 412.532 2.02233 4.14051 0
M  V30 4524 H 410.847 1.68401 3.80828 0
M  V30 4525 H 413.444 -0.6595 5.30617 0
M  V30 4526 H 413.787 -1.56984 3.85567 0
M  V30 4527 H 414.32 0.12467 3.97605 0
M  V30 4528 H 411.059 2.13864 6.19631 0
M  V30 4529 H 410.579 0.439529 5.98187 0
M  V30 4530 H 412.258 0.847361 6.41427 0
M  V30 4531 N 412.39 -1.55475 0.257931 0
M  V30 4532 C 413.338 -2.23244 -0.653076 0
M  V30 4533 C 414.332 -1.22366 -1.17144 0
M  V30 4534 O 415.538 -1.40347 -1.12706 0
M  V30 4535 H 411.913 -0.716247 -0.229117 0
M  V30 4536 H 413.884 -2.98343 -0.0584788 0
M  V30 4537 C 412.633 -2.95401 -1.83395 0
M  V30 4538 H 411.956 -3.72802 -1.44424 0
M  V30 4539 H 413.396 -3.46165 -2.44838 0
M  V30 4540 C 411.855 -1.99895 -2.71189 0
M  V30 4541 O 412.385 -1.53909 -3.71046 0
M  V30 4542 N 410.591 -1.6676 -2.3799 0
M  V30 4543 H 410.138 -2.04352 -1.56837 0
M  V30 4544 H 410.096 -1.03127 -2.97005 0
M  V30 4545 N 413.868 0.0150385 -1.57593 0
M  V30 4546 C 414.801 1.04475 -2.0288 0
M  V30 4547 C 415.779 1.3436 -0.915764 0
M  V30 4548 O 416.963 1.46779 -1.18271 0
M  V30 4549 C 414.09 2.37608 -2.41371 0
M  V30 4550 C 413.136 2.23487 -3.63257 0
M  V30 4551 S 413.969 1.57505 -5.11813 0
M  V30 4552 C 415.125 2.921 -5.5356 0
M  V30 4553 H 415.358 0.65907 -2.89903 0
M  V30 4554 H 412.891 0.225452 -1.52745 0
M  V30 4555 H 414.849 3.14165 -2.64217 0
M  V30 4556 H 413.51 2.7332 -1.54775 0
M  V30 4557 H 412.703 3.21802 -3.87891 0
M  V30 4558 H 412.305 1.55074 -3.40335 0
M  V30 4559 H 414.597 3.88419 -5.55101 0
M  V30 4560 H 415.54 2.72184 -6.53698 0
M  V30 4561 H 415.948 2.95318 -4.8109 0
M  V30 4562 N 415.346 1.54954 0.287554 0
M  V30 4563 C 416.623 1.65569 1.04146 0
M  V30 4564 C 417.003 0.512672 2.0478 0
M  V30 4565 O 416.351 -0.489038 2.23205 0
M  V30 4566 C 416.561 3.04163 1.71131 0
M  V30 4567 C 417.909 3.61429 2.22832 0
M  V30 4568 O 418.933 3.06702 1.81141 0
M  V30 4569 O 417.792 4.57281 2.9926 0
M  V30 4570 H 414.886 0.671881 0.482188 0
M  V30 4571 H 417.432 1.67297 0.28457 0
M  V30 4572 H 416.204 3.78796 0.981303 0
M  V30 4573 H 415.827 3.06271 2.53543 0
M  V30 4574 N 416.824 -0.551391 1.4764 0
M  V30 4575 C 417.787 -1.64007 1.60107 0
M  V30 4576 C 418.787 -1.53601 0.47576 0
M  V30 4577 O 419.977 -1.57655 0.740988 0
M  V30 4578 C 417.109 -3.03569 1.55108 0
M  V30 4579 H 418.302 -1.543 2.57161 0
M  V30 4580 H 415.855 -0.771776 1.35917 0
M  V30 4581 H 416.59 -3.18804 0.594519 0
M  V30 4582 H 416.375 -3.12532 2.36783 0
M  V30 4583 H 417.865 -3.82762 1.66982 0
M  V30 4584 N 418.302 -1.35869 -0.798587 0
M  V30 4585 C 419.265 -1.29307 -1.89242 0
M  V30 4586 C 420.265 -0.202747 -1.59517 0
M  V30 4587 O 421.455 -0.456957 -1.681 0
M  V30 4588 C 418.587 -1.00229 -3.25833 0
M  V30 4589 H 419.78 -2.26576 -1.96478 0
M  V30 4590 H 417.333 -1.20509 -0.995358 0
M  V30 4591 H 418.068 -0.033801 -3.24282 0
M  V30 4592 H 417.853 -1.79121 -3.48795 0
M  V30 4593 H 419.343 -0.98219 -4.05885 0
M  V30 4594 N 419.78 1.02168 -1.19998 0
M  V30 4595 C 421.191 1.57135 -1.00825 0
M  V30 4596 C 421.542 1.91276 0.436818 0
M  V30 4597 O 420.667 1.71679 1.3174 0
M  V30 4598 C 421.262 2.85514 -1.82393 0
M  V30 4599 C 419.821 3.37027 -1.67601 0
M  V30 4600 C 418.968 2.10388 -1.80644 0
M  V30 4601 H 421.919 0.846106 -1.34264 0
M  V30 4602 H 421.94 3.56711 -1.32429 0
M  V30 4603 H 421.452 2.60634 -2.87561 0
M  V30 4604 H 419.553 3.66878 -0.650485 0
M  V30 4605 H 419.666 4.09572 -2.4857 0
M  V30 4606 H 418.03 2.22601 -1.23778 0
M  V30 4607 H 418.813 1.8794 -2.87286 0
M  V30 4608 N 421.258 1.00505 1.21394 0
M  V30 4609 C 422.221 0.570459 2.21987 0
M  V30 4610 C 423.221 -0.353211 1.56873 0
M  V30 4611 O 424.411 -0.14349 1.73608 0
M  V30 4612 C 421.543 -0.168555 3.40483 0
M  V30 4613 H 422.736 1.46021 2.6195 0
M  V30 4614 H 420.289 0.793565 1.34656 0
M  V30 4615 H 421.024 -1.07374 3.06009 0
M  V30 4616 H 420.809 0.494823 3.88965 0
M  V30 4617 H 422.299 -0.460362 4.15055 0
M  V30 4618 N 422.737 -1.36956 0.779787 0
M  V30 4619 C 424.153 -1.52817 0.460342 0
M  V30 4620 C 424.353 -1.7361 -1.02283 0
M  V30 4621 O 423.409 -1.76207 -1.80852 0
M  V30 4622 C 424.722 -2.71983 1.28241 0
M  V30 4623 C 426.27 -2.85849 1.27512 0
M  V30 4624 C 426.745 -4.08008 2.08072 0
M  V30 4625 N 428.236 -4.15135 2.05467 0
M  V30 4626 C 428.971 -5.08711 2.64577 0
M  V30 4627 N 428.467 -6.07792 3.32506 0
M  V30 4628 N 430.26 -5.01254 2.54363 0
M  V30 4629 H 422.411 -1.21713 1.74068 0
M  V30 4630 H 424.674 -0.593294 0.739396 0
M  V30 4631 H 424.38 -2.63109 2.33381 0
M  V30 4632 H 424.254 -3.65882 0.917088 0
M  V30 4633 H 426.641 -2.94189 0.231686 0
M  V30 4634 H 426.722 -1.92886 1.68014 0
M  V30 4635 H 426.366 -4.00429 3.12441 0
M  V30 4636 H 426.296 -5.001 1.64947 0
M  V30 4637 H 428.787 -3.44189 1.5602 0
M  V30 4638 H 429.1 -6.75739 3.74963 0
M  V30 4639 H 427.445 -6.08047 3.36606 0
M  V30 4640 H 430.636 -4.22795 2.00902 0
M  V30 4641 H 430.809 -5.73995 3.00722 0
M  V30 4642 N 424.215 -0.530993 -1.48385 0
M  V30 4643 C 425.461 0.00274135 -2.028 0
M  V30 4644 C 425.794 1.33838 -1.40716 0
M  V30 4645 O 425.069 1.86465 -0.553277 0
M  V30 4646 C 425.352 0.123676 -3.59888 0
M  V30 4647 C 425.205 -1.2372 -4.3245 0
M  V30 4648 C 426.524 0.849967 -4.31814 0
M  V30 4649 H 423.643 -0.000477758 -0.737 0
M  V30 4650 H 426.285 -0.688217 -1.77098 0
M  V30 4651 H 424.435 0.712157 -3.81917 0
M  V30 4652 H 426.107 -1.86687 -4.21836 0
M  V30 4653 H 424.35 -1.81882 -3.93829 0
M  V30 4654 H 425.021 -1.10557 -5.40815 0
M  V30 4655 H 427.497 0.350572 -4.14621 0
M  V30 4656 H 426.373 0.903486 -5.41413 0
M  V30 4657 H 426.634 1.90047 -3.99167 0
M  V30 4658 N 425.693 1.55336 -0.266172 0
M  V30 4659 C 426.941 1.99003 0.35246 0
M  V30 4660 C 427.262 1.15591 1.57047 0
M  V30 4661 O 426.532 0.243268 1.94384 0
M  V30 4662 H 425.112 0.735025 0.133217 0
M  V30 4663 H 427.774 1.91367 -0.369434 0
M  V30 4664 H 426.87 3.05289 0.648453 0
M  V30 4665 N 427.171 -0.0066808 1.57599 0
M  V30 4666 C 428.101 -0.999296 2.11036 0
M  V30 4667 C 429.082 -1.36278 1.01795 0
M  V30 4668 O 430.267 -1.4477 1.29442 0
M  V30 4669 C 427.397 -2.29328 2.60818 0
M  V30 4670 C 426.351 -2.07159 3.74525 0
M  V30 4671 C 425.677 -3.42512 4.10596 0
M  V30 4672 C 426.977 -1.43959 5.02069 0
M  V30 4673 H 428.671 -0.554382 2.94223 0
M  V30 4674 H 426.217 -0.265221 1.41536 0
M  V30 4675 H 428.17 -2.99117 2.96828 0
M  V30 4676 H 426.894 -2.7592 1.74745 0
M  V30 4677 H 425.553 -1.39797 3.38899 0
M  V30 4678 H 425.201 -3.86795 3.21556 0
M  V30 4679 H 424.901 -3.28498 4.87199 0
M  V30 4680 H 426.425 -4.13628 4.4916 0
M  V30 4681 H 427.839 -2.03696 5.35893 0
M  V30 4682 H 426.236 -1.40452 5.83432 0
M  V30 4683 H 427.306 -0.407992 4.83181 0
M  V30 4684 N 428.649 -1.55105 -0.279332 0
M  V30 4685 C 429.897 -1.75066 -1.00977 0
M  V30 4686 C 430.218 -0.551276 -1.87045 0
M  V30 4687 O 429.488 0.433984 -1.91032 0
M  V30 4688 H 428.068 -0.645578 -0.375816 0
M  V30 4689 H 430.73 -1.92497 -0.305089 0
M  V30 4690 H 429.826 -2.64894 -1.65038 0
M  V30 4691 N 430.127 0.543554 -1.4793 0
M  V30 4692 C 431.376 1.29649 -1.54512 0
M  V30 4693 C 431.689 1.94382 -0.217973 0
M  V30 4694 O 432.895 2.71017 -0.161908 0
M  V30 4695 C 431.351 2.35175 -2.72435 0
M  V30 4696 C 430.959 1.76572 -4.11736 0
M  V30 4697 C 432.703 3.11564 -2.8832 0
M  V30 4698 C 430.61 2.79958 -5.20939 0
M  V30 4699 H 429.54 0.487541 -0.57517 0
M  V30 4700 H 432.191 0.575708 -1.74235 0
M  V30 4701 H 430.573 3.10229 -2.46118 0
M  V30 4702 H 431.747 1.07799 -4.48013 0
M  V30 4703 H 430.062 1.12722 -4.00852 0
M  V30 4704 H 432.659 3.88794 -3.67074 0
M  V30 4705 H 433.002 3.66594 -1.97268 0
M  V30 4706 H 433.535 2.43623 -3.14472 0
M  V30 4707 H 430.274 2.29766 -6.13912 0
M  V30 4708 H 429.794 3.47101 -4.89164 0
M  V30 4709 H 431.473 3.43198 -5.48474 0
M  V30 4710 N 431.605 1.3629 0.791371 0
M  V30 4711 C 432.833 1.33562 1.58016 0
M  V30 4712 C 433.248 -0.0835616 1.88615 0
M  V30 4713 O 432.605 -1.0399 1.49974 0
M  V30 4714 C 432.656 2.15517 2.90232 0
M  V30 4715 O 432.377 3.51902 2.60953 0
M  V30 4716 C 433.878 2.20546 3.84544 0
M  V30 4717 H 431.098 0.458226 0.490173 0
M  V30 4718 H 433.642 1.79361 0.982345 0
M  V30 4719 H 431.797 1.73278 3.46487 0
M  V30 4720 H 432.211 3.94644 3.4548 0
M  V30 4721 H 433.685 2.82252 4.74382 0
M  V30 4722 H 434.162 1.20838 4.2225 0
M  V30 4723 H 434.768 2.63013 3.34222 0
M  V30 4724 N 433.083 -1.0153 1.20538 0
M  V30 4725 C 434.311 -1.78746 1.04199 0
M  V30 4726 C 434.726 -1.84323 -0.408733 0
M  V30 4727 O 434.083 -1.29714 -1.28377 0
M  V30 4728 C 434.134 -3.23152 1.62035 0
M  V30 4729 O 433.855 -3.17918 3.0143 0
M  V30 4730 C 435.356 -4.16911 1.50666 0
M  V30 4731 H 432.576 -0.56208 0.366479 0
M  V30 4732 H 435.12 -1.27794 1.59653 0
M  V30 4733 H 433.275 -3.71248 1.10697 0
M  V30 4734 H 433.689 -4.08567 3.28897 0
M  V30 4735 H 435.163 -5.16072 1.95892 0
M  V30 4736 H 435.64 -4.36791 0.459363 0
M  V30 4737 H 436.246 -3.74698 2.01201 0
M  V30 4738 N 434.561 -1.01147 -1.20859 0
M  V30 4739 C 435.807 -0.698899 -1.90377 0
M  V30 4740 C 436.14 0.76904 -1.78324 0
M  V30 4741 O 435.415 1.55817 -1.16409 0
M  V30 4742 C 435.698 -1.12878 -3.41951 0
M  V30 4743 C 435.551 -2.65665 -3.62963 0
M  V30 4744 C 436.87 -0.696114 -4.3456 0
M  V30 4745 H 433.989 -0.255372 -0.691342 0
M  V30 4746 H 436.631 -1.25831 -1.42361 0
M  V30 4747 H 434.781 -0.652827 -3.82976 0
M  V30 4748 H 436.453 -3.21074 -3.31224 0
M  V30 4749 H 434.696 -3.06878 -3.06608 0
M  V30 4750 H 435.367 -2.90797 -4.69192 0
M  V30 4751 H 437.843 -1.10521 -4.01154 0
M  V30 4752 H 436.719 -1.025 -5.39245 0
M  V30 4753 H 436.98 0.402465 -4.40264 0
M  V30 4754 N 436.039 1.36541 -0.78704 0
M  V30 4755 C 436.969 2.32659 -0.197992 0
M  V30 4756 C 437.95 1.56533 0.665697 0
M  V30 4757 O 439.135 1.84698 0.60001 0
M  V30 4758 C 436.265 3.40778 0.669901 0
M  V30 4759 C 435.219 4.27897 -0.0937039 0
M  V30 4760 C 434.545 5.27163 0.894629 0
M  V30 4761 C 435.845 5.06334 -1.28154 0
M  V30 4762 H 437.539 2.82171 -1.00099 0
M  V30 4763 H 435.085 1.35665 -0.482793 0
M  V30 4764 H 437.038 4.07008 1.09191 0
M  V30 4765 H 435.762 2.89827 1.50558 0
M  V30 4766 H 434.421 3.6322 -0.49666 0
M  V30 4767 H 434.069 4.72486 1.72527 0
M  V30 4768 H 433.769 5.86317 0.388149 0
M  V30 4769 H 435.293 5.96266 1.31525 0
M  V30 4770 H 436.707 5.65617 -0.93541 0
M  V30 4771 H 435.104 5.74888 -1.72115 0
M  V30 4772 H 436.174 4.38114 -2.07807 0
M  V30 4773 N 437.518 0.538854 1.48102 0
M  V30 4774 C 438.746 0.0123136 2.06896 0
M  V30 4775 C 439.161 -1.27312 1.39417 0
M  V30 4776 O 438.518 -1.75949 0.484582 0
M  V30 4777 C 438.569 -0.206118 3.60912 0
M  V30 4778 O 438.29 1.0284 4.25859 0
M  V30 4779 C 439.791 -0.772033 4.36526 0
M  V30 4780 H 437.011 0.0375239 0.66995 0
M  V30 4781 H 439.555 0.747032 1.90367 0
M  V30 4782 H 437.71 -0.89091 3.77017 0
M  V30 4783 H 438.124 0.814654 5.18135 0
M  V30 4784 H 439.598 -0.874251 5.45033 0
M  V30 4785 H 440.075 -1.77904 4.01555 0
M  V30 4786 H 440.681 -0.123526 4.25121 0
M  V30 4787 N 438.996 -1.55193 0.274407 0
M  V30 4788 C 439.929 -2.18606 -0.654712 0
M  V30 4789 C 440.907 -1.14677 -1.15273 0
M  V30 4790 O 442.091 -1.43198 -1.22583 0
M  V30 4791 C 439.218 -2.80875 -1.89281 0
M  V30 4792 C 438.264 -3.981 -1.53032 0
M  V30 4793 S 439.097 -5.32025 -0.609107 0
M  V30 4794 C 440.253 -5.97761 -1.85559 0
M  V30 4795 H 440.486 -2.97074 -0.115894 0
M  V30 4796 H 438.019 -1.54288 0.05867 0
M  V30 4797 H 439.977 -3.17381 -2.60345 0
M  V30 4798 H 438.638 -2.02302 -2.40277 0
M  V30 4799 H 437.831 -4.40356 -2.45158 0
M  V30 4800 H 437.433 -3.63013 -0.899874 0
M  V30 4801 H 439.725 -6.16951 -2.7996 0
M  V30 4802 H 440.668 -6.92545 -1.47605 0
M  V30 4803 H 441.076 -5.27113 -2.02021 0
M  V30 4804 N 440.474 -0.00167713 -1.576 0
M  V30 4805 C 441.702 0.693759 -1.94922 0
M  V30 4806 C 442.117 1.67215 -0.876626 0
M  V30 4807 O 441.474 1.81929 0.144279 0
M  V30 4808 C 441.525 1.42416 -3.32265 0
M  V30 4809 O 441.246 0.485014 -4.35407 0
M  V30 4810 C 442.747 2.21395 -3.84056 0
M  V30 4811 H 439.967 0.193118 -0.642609 0
M  V30 4812 H 442.511 -0.0532952 -2.04431 0
M  V30 4813 H 440.666 2.12284 -3.24059 0
M  V30 4814 H 441.08 1.00053 -5.14868 0
M  V30 4815 H 442.554 2.67996 -4.82578 0
M  V30 4816 H 443.031 3.04142 -3.16851 0
M  V30 4817 H 443.637 1.56542 -3.95443 0
M  V30 4818 N 441.952 1.55251 0.271103 0
M  V30 4819 C 443.18 1.79974 1.02064 0
M  V30 4820 C 443.595 0.574003 1.79863 0
M  V30 4821 O 442.952 -0.456962 1.76686 0
M  V30 4822 C 443.003 3.02603 1.97772 0
M  V30 4823 O 442.724 4.20443 1.23124 0
M  V30 4824 C 444.225 3.39944 2.84522 0
M  V30 4825 H 441.445 0.599489 0.301419 0
M  V30 4826 H 443.989 2.02268 0.301313 0
M  V30 4827 H 442.144 2.8243 2.65165 0
M  V30 4828 H 442.558 4.89783 1.87651 0
M  V30 4829 H 444.032 4.28915 3.47471 0
M  V30 4830 H 444.509 2.59432 3.54389 0
M  V30 4831 H 445.115 3.62383 2.22618 0
M  V30 4832 N 443.43 -0.535701 1.48216 0
M  V30 4833 C 444.362 -1.65662 1.58394 0
M  V30 4834 C 445.375 -1.5591 0.468607 0
M  V30 4835 O 446.564 -1.62475 0.7392 0
M  V30 4836 C 443.664 -3.04276 1.4923 0
M  V30 4837 C 442.837 -3.39567 2.75705 0
M  V30 4838 C 441.896 -4.57436 2.60075 0
M  V30 4839 O 440.922 -4.60942 3.33948 0
M  V30 4840 N 442.124 -5.55259 1.69315 0
M  V30 4841 H 444.889 -1.5737 2.55058 0
M  V30 4842 H 442.45 -0.722845 1.44867 0
M  V30 4843 H 444.442 -3.80994 1.36477 0
M  V30 4844 H 443.012 -3.06677 0.605632 0
M  V30 4845 H 442.232 -2.52083 3.03064 0
M  V30 4846 H 443.52 -3.59929 3.59623 0
M  V30 4847 H 442.918 -5.552 1.08489 0
M  V30 4848 H 441.475 -6.31218 1.62504 0
M  V30 4849 N 444.908 -1.36708 -0.784132 0
M  V30 4850 C 446.133 -1.34565 -1.5782 0
M  V30 4851 C 446.558 0.0695257 -1.87971 0
M  V30 4852 O 445.916 1.04302 -1.48293 0
M  V30 4853 C 445.964 -2.17952 -2.87279 0
M  V30 4854 O 445.068 -1.57563 -3.81114 0
M  V30 4855 H 444.409 -0.460337 -0.478524 0
M  V30 4856 H 446.939 -1.80064 -0.971495 0
M  V30 4857 H 446.949 -2.30721 -3.365 0
M  V30 4858 H 445.624 -3.20823 -2.64661 0
M  V30 4859 H 444.201 -1.53764 -3.39722 0
M  V30 4860 N 446.386 1.0089 -1.21074 0
M  V30 4861 C 447.611 1.78727 -1.05221 0
M  V30 4862 C 448.036 1.83932 0.393795 0
M  V30 4863 O 447.394 1.28004 1.28393 0
M  V30 4864 C 447.442 3.20665 -1.64944 0
M  V30 4865 O 446.546 4.02632 -0.892273 0
M  V30 4866 H 445.887 0.550973 -0.370574 0
M  V30 4867 H 448.417 1.26847 -1.60534 0
M  V30 4868 H 448.427 3.71352 -1.69002 0
M  V30 4869 H 447.102 3.16191 -2.70177 0
M  V30 4870 H 445.679 3.61207 -0.926492 0
M  V30 4871 N 447.864 1.01787 1.20321 0
M  V30 4872 C 449.112 0.706538 1.89347 0
M  V30 4873 C 449.433 -0.766289 1.79313 0
M  V30 4874 O 448.703 -1.55126 1.19635 0
M  V30 4875 H 447.283 0.258348 0.700903 0
M  V30 4876 H 449.945 1.28974 1.46122 0
M  V30 4877 H 449.041 0.991066 2.95946 0
M  V30 4878 N 449.342 -1.36122 0.79427 0
M  V30 4879 C 450.567 -2.03891 0.379871 0
M  V30 4880 C 450.992 -1.59488 -0.997251 0
M  V30 4881 O 450.35 -0.765652 -1.64339 0
M  V30 4882 C 450.398 -3.57687 0.457442 0
M  V30 4883 O 449.502 -4.08931 -0.5338 0
M  V30 4884 H 448.843 -0.6443 0.160541 0
M  V30 4885 H 451.373 -1.73976 1.07673 0
M  V30 4886 H 451.383 -4.06721 0.322792 0
M  V30 4887 H 450.058 -3.89357 1.46199 0
M  V30 4888 H 448.635 -3.71154 -0.360409 0
M  V30 4889 N 450.82 -0.546701 -1.47814 0
M  V30 4890 C 452.236 -0.205717 -1.58269 0
M  V30 4891 C 452.436 1.29153 -1.54667 0
M  V30 4892 O 451.492 2.07098 -1.44453 0
M  V30 4893 C 452.805 -0.823065 -2.89216 0
M  V30 4894 C 454.353 -0.793328 -3.02779 0
M  V30 4895 C 454.828 -1.38955 -4.36412 0
M  V30 4896 N 456.319 -1.35227 -4.43021 0
M  V30 4897 C 457.054 -1.78333 -5.44963 0
M  V30 4898 N 456.55 -2.29246 -6.53772 0
M  V30 4899 N 458.343 -1.69467 -5.35945 0
M  V30 4900 H 450.494 -1.5196 -1.48398 0
M  V30 4901 H 452.757 -0.633078 -0.705632 0
M  V30 4902 H 452.463 -1.8749 -2.97558 0
M  V30 4903 H 452.337 -0.309915 -3.75925 0
M  V30 4904 H 454.724 0.249784 -2.94041 0
M  V30 4905 H 454.805 -1.34412 -2.17639 0
M  V30 4906 H 454.449 -2.43168 -4.45906 0
M  V30 4907 H 454.379 -0.814291 -5.20266 0
M  V30 4908 H 456.87 -0.979739 -3.64979 0
M  V30 4909 H 457.183 -2.60089 -7.27718 0
M  V30 4910 H 455.528 -2.3325 -6.5469 0
M  V30 4911 H 458.719 -1.29477 -4.49837 0
M  V30 4912 H 458.892 -2.03381 -6.15256 0
M  V30 4913 N 452.299 1.55045 -0.282633 0
M  V30 4914 C 453.262 2.21515 0.588539 0
M  V30 4915 C 454.262 1.19535 1.07554 0
M  V30 4916 O 455.452 1.44391 0.974514 0
M  V30 4917 C 452.584 2.88704 1.8128 0
M  V30 4918 H 453.777 2.99899 0.00806397 0
M  V30 4919 H 451.33 1.56265 -0.0333067 0
M  V30 4920 H 452.065 2.14352 2.43359 0
M  V30 4921 H 451.85 3.63443 1.47144 0
M  V30 4922 H 453.34 3.39465 2.43214 0
M  V30 4923 N 453.777 0.010035 1.57597 0
M  V30 4924 C 455.002 -0.687021 1.95691 0
M  V30 4925 C 455.427 -1.65952 0.885519 0
M  V30 4926 O 454.785 -1.80633 -0.15543 0
M  V30 4927 C 454.833 -1.3864 3.32884 0
M  V30 4928 O 453.937 -2.50115 3.27897 0
M  V30 4929 H 453.278 -0.181989 0.638573 0
M  V30 4930 H 455.808 0.0662122 2.04493 0
M  V30 4931 H 455.818 -1.74754 3.6868 0
M  V30 4932 H 454.493 -0.673411 4.10412 0
M  V30 4933 H 453.07 -2.16253 3.03791 0
M  V30 4934 N 455.255 -1.55392 -0.262866 0
M  V30 4935 C 456.185 -1.91978 -1.32917 0
M  V30 4936 C 457.166 -0.7828 -1.51017 0
M  V30 4937 O 458.351 -1.04178 -1.63892 0
M  V30 4938 C 455.481 -2.20055 -2.68687 0
M  V30 4939 C 454.435 -3.35854 -2.65304 0
M  V30 4940 C 453.761 -3.49435 -4.04721 0
M  V30 4941 C 455.061 -4.71977 -2.23685 0
M  V30 4942 H 456.755 -2.81292 -1.02544 0
M  V30 4943 H 454.301 -1.3534 -0.491846 0
M  V30 4944 H 456.254 -2.44237 -3.43404 0
M  V30 4945 H 454.978 -1.27551 -3.00663 0
M  V30 4946 H 453.637 -3.11655 -1.93045 0
M  V30 4947 H 453.285 -2.54379 -4.33936 0
M  V30 4948 H 452.985 -4.27297 -4.0335 0
M  V30 4949 H 454.509 -3.7592 -4.81161 0
M  V30 4950 H 455.923 -4.95637 -2.88127 0
M  V30 4951 H 454.32 -5.52828 -2.33456 0
M  V30 4952 H 455.39 -4.70115 -1.18827 0
M  V30 4953 N 456.733 0.527833 -1.48498 0
M  V30 4954 C 458.144 1.10975 -1.50138 0
M  V30 4955 C 458.495 1.943 -0.272378 0
M  V30 4956 O 457.62 2.07319 0.620301 0
M  V30 4957 C 458.215 2.01927 -2.72049 0
M  V30 4958 C 456.774 2.55332 -2.76554 0
M  V30 4959 C 455.921 1.32341 -2.43683 0
M  V30 4960 H 458.872 0.312986 -1.55583 0
M  V30 4961 H 458.893 2.86244 -2.50689 0
M  V30 4962 H 458.405 1.41254 -3.61481 0
M  V30 4963 H 456.506 3.19721 -1.91336 0
M  V30 4964 H 456.619 2.94319 -3.78038 0
M  V30 4965 H 454.983 1.63989 -1.94884 0
M  V30 4966 H 455.766 0.734165 -3.35358 0
M  V30 4967 N 458.211 1.37122 0.776871 0
M  V30 4968 C 459.158 1.3247 1.88998 0
M  V30 4969 C 460.128 0.191143 1.64997 0
M  V30 4970 O 461.313 0.379683 1.86984 0
M  V30 4971 C 458.453 1.13241 3.25992 0
M  V30 4972 C 457.566 2.35782 3.61982 0
M  V30 4973 C 456.701 2.09465 4.88158 0
M  V30 4974 C 455.74 3.279 5.16864 0
M  V30 4975 N 454.877 3.01167 6.34226 0
M  V30 4976 H 459.717 2.27642 1.9231 0
M  V30 4977 H 457.254 1.13125 0.94027 0
M  V30 4978 H 459.212 1.00115 4.0501 0
M  V30 4979 H 457.842 0.217186 3.22069 0
M  V30 4980 H 456.894 2.59666 2.77989 0
M  V30 4981 H 458.206 3.24125 3.79137 0
M  V30 4982 H 457.36 1.93341 5.75069 0
M  V30 4983 H 456.099 1.18452 4.73097 0
M  V30 4984 H 455.104 3.44569 4.2843 0
M  V30 4985 H 456.329 4.19757 5.33836 0
M  V30 4986 H 454.275 2.12779 6.20533 0
M  V30 4987 H 454.192 3.83052 6.51772 0
M  V30 4988 H 455.46 2.88649 7.24087 0
M  V30 4989 N 459.689 -1.00246 1.21608 0
M  V30 4990 C 460.935 -1.74319 1.03638 0
M  V30 4991 C 461.268 -1.89408 -0.428749 0
M  V30 4992 O 460.543 -1.43026 -1.3181 0
M  V30 4993 C 460.826 -3.15431 1.73711 0
M  V30 4994 C 460.679 -3.08049 3.27759 0
M  V30 4995 C 461.998 -4.14407 1.48173 0
M  V30 4996 H 459.117 -0.632741 0.377899 0
M  V30 4997 H 461.759 -1.16853 1.49818 0
M  V30 4998 H 459.909 -3.64493 1.34452 0
M  V30 4999 H 461.581 -2.66681 3.76403 0
M  V30 5000 H 459.824 -2.45088 3.57931 0
M  V30 5001 H 460.495 -4.07862 3.71958 0
M  V30 5002 H 462.971 -3.74061 1.82258 0
M  V30 5003 H 461.847 -5.11279 1.99713 0
M  V30 5004 H 462.108 -4.40174 0.412273 0
M  V30 5005 N 461.167 -1.02423 -1.1978 0
M  V30 5006 C 462.392 -0.7373 -1.93852 0
M  V30 5007 C 462.817 0.696923 -1.74713 0
M  V30 5008 O 462.175 1.48056 -1.04638 0
M  V30 5009 C 462.223 -1.08783 -3.438 0
M  V30 5010 O 461.327 -0.20383 -4.11896 0
M  V30 5011 H 460.668 -0.27284 -0.605355 0
M  V30 5012 H 463.198 -1.36966 -1.51992 0
M  V30 5013 H 463.208 -1.04276 -3.9445 0
M  V30 5014 H 461.883 -2.13274 -3.57053 0
M  V30 5015 H 460.46 -0.307091 -3.71633 0
M  V30 5016 N 462.645 1.35699 -0.801477 0
M  V30 5017 C 463.875 2.02862 -0.3912 0
M  V30 5018 C 464.283 1.60552 1.00099 0
M  V30 5019 O 463.626 0.796215 1.65548 0
M  V30 5020 C 463.688 3.57386 -0.389299 0
M  V30 5021 C 463.352 4.22943 -1.73113 0
M  V30 5022 C 464.349 4.44984 -2.68859 0
M  V30 5023 C 462.034 4.60167 -2.01373 0
M  V30 5024 C 464.028 5.03345 -3.91053 0
M  V30 5025 C 461.715 5.18243 -3.23832 0
M  V30 5026 C 462.713 5.39773 -4.1849 0
M  V30 5027 O 462.401 5.96626 -5.38788 0
M  V30 5028 H 462.133 0.657341 -0.157732 0
M  V30 5029 H 464.687 1.74407 -1.08496 0
M  V30 5030 H 462.917 3.85011 0.361031 0
M  V30 5031 H 464.606 4.059 -0.0020365 0
M  V30 5032 H 465.372 4.1661 -2.48316 0
M  V30 5033 H 461.251 4.42726 -1.28508 0
M  V30 5034 H 464.795 5.20065 -4.64949 0
M  V30 5035 H 460.692 5.46044 -3.44248 0
M  V30 5036 H 461.46 6.15082 -5.40015 0
M  V30 5037 N 464.123 0.554532 1.47522 0
M  V30 5038 C 465.369 0.0295227 2.02779 0
M  V30 5039 C 465.702 -1.31582 1.42828 0
M  V30 5040 O 464.977 -1.85561 0.582872 0
M  V30 5041 C 465.26 -0.0664057 3.60039 0
M  V30 5042 C 465.113 1.30585 4.30427 0
M  V30 5043 C 466.432 -0.781162 4.33112 0
M  V30 5044 H 463.551 0.0122027 0.736899 0
M  V30 5045 H 466.193 0.716305 1.7598 0
M  V30 5046 H 464.343 -0.651307 3.83002 0
M  V30 5047 H 466.015 1.93374 4.18813 0
M  V30 5048 H 464.258 1.88125 3.90886 0
M  V30 5049 H 464.929 1.19147 5.38988 0
M  V30 5050 H 467.405 -0.284565 4.15126 0
M  V30 5051 H 466.281 -0.817237 5.42782 0
M  V30 5052 H 466.542 -1.83672 4.0214 0
M  V30 5053 N 465.601 -1.54893 0.290851 0
M  V30 5054 C 466.548 -2.23138 -0.58974 0
M  V30 5055 C 467.518 -1.21036 -1.13752 0
M  V30 5056 O 468.703 -1.49626 -1.18392 0
M  V30 5057 C 465.843 -2.96811 -1.76061 0
M  V30 5058 C 464.956 -4.13665 -1.24519 0
M  V30 5059 C 464.091 -4.74944 -2.3791 0
M  V30 5060 C 463.13 -5.83963 -1.83451 0
M  V30 5061 N 462.267 -6.39239 -2.90376 0
M  V30 5062 H 467.107 -2.98 -0.00114915 0
M  V30 5063 H 464.644 -1.47096 0.0112006 0
M  V30 5064 H 466.602 -3.37751 -2.44909 0
M  V30 5065 H 465.232 -2.24344 -2.32098 0
M  V30 5066 H 464.284 -3.77737 -0.449288 0
M  V30 5067 H 465.596 -4.92238 -0.806424 0
M  V30 5068 H 464.75 -5.18684 -3.14724 0
M  V30 5069 H 463.489 -3.95682 -2.85109 0
M  V30 5070 H 462.494 -5.39657 -1.05122 0
M  V30 5071 H 463.719 -6.65103 -1.37169 0
M  V30 5072 H 461.665 -5.62864 -3.36927 0
M  V30 5073 H 461.582 -7.13129 -2.50965 0
M  V30 5074 H 462.85 -6.87637 -3.67118 0
M  V30 5075 N 467.08 -0.0183926 -1.57589 0
M  V30 5076 C 468.043 0.951986 -2.08494 0
M  V30 5077 C 469.043 1.26092 -0.997874 0
M  V30 5078 O 470.233 1.20304 -1.25987 0
M  V30 5079 C 467.365 2.27165 -2.54182 0
M  V30 5080 H 468.558 0.511307 -2.95509 0
M  V30 5081 H 466.111 0.229444 -1.54607 0
M  V30 5082 H 466.846 2.75884 -1.70465 0
M  V30 5083 H 466.631 2.06057 -3.33591 0
M  V30 5084 H 468.121 2.9674 -2.93828 0
M  V30 5085 N 468.558 1.5553 0.254621 0
M  V30 5086 C 469.807 1.76202 0.981612 0
M  V30 5087 C 470.12 0.580883 1.86776 0
M  V30 5088 O 471.326 0.670448 2.63092 0
M  V30 5089 C 469.782 3.11921 1.79537 0
M  V30 5090 C 469.39 4.37659 0.956991 0
M  V30 5091 C 471.134 3.41936 2.51555 0
M  V30 5092 C 469.041 5.64411 1.76619 0
M  V30 5093 H 467.971 0.656841 0.370237 0
M  V30 5094 H 470.622 1.81969 0.236556 0
M  V30 5095 H 469.004 3.00241 2.58208 0
M  V30 5096 H 470.178 4.60307 0.21315 0
M  V30 5097 H 468.493 4.14922 0.350497 0
M  V30 5098 H 471.09 4.33849 3.12536 0
M  V30 5099 H 471.433 2.62905 3.22779 0
M  V30 5100 H 471.966 3.54797 1.799 0
M  V30 5101 H 468.705 6.46241 1.09783 0
M  V30 5102 H 468.225 5.45877 2.48551 0
M  V30 5103 H 469.904 6.03386 2.33527 0
M  V30 5104 N 470.036 -0.519951 1.48776 0
M  V30 5105 C 471.313 -1.28123 1.47797 0
M  V30 5106 C 471.693 -2.10196 0.195157 0
M  V30 5107 O 471.041 -2.13167 -0.822925 0
M  V30 5108 C 471.251 -2.15413 2.74587 0
M  V30 5109 C 472.599 -2.75225 3.23321 0
M  V30 5110 O 473.623 -2.25694 2.75574 0
M  V30 5111 O 472.482 -3.65346 4.06429 0
M  V30 5112 H 469.576 -0.578793 0.590701 0
M  V30 5113 H 472.122 -0.535779 1.6102 0
M  V30 5114 H 470.894 -1.54617 3.59457 0
M  V30 5115 H 470.517 -2.97186 2.64132 0
M  V30 5116 N 471.514 -1.37532 -0.769588 0
M  V30 5117 C 472.763 -1.32183 -1.5235 0
M  V30 5118 C 473.076 0.0906555 -1.9539 0
M  V30 5119 O 474.282 0.266628 -2.70188 0
M  V30 5120 C 472.738 -2.32029 -2.75119 0
M  V30 5121 C 472.346 -3.78816 -2.3917 0
M  V30 5122 C 474.09 -2.35694 -3.53056 0
M  V30 5123 C 471.997 -4.70388 -3.58453 0
M  V30 5124 H 470.927 -0.491275 -0.571984 0
M  V30 5125 H 473.578 -1.63004 -0.842739 0
M  V30 5126 H 471.96 -1.94229 -3.45096 0
M  V30 5127 H 473.134 -4.25466 -1.76962 0
M  V30 5128 H 471.449 -3.78117 -1.74402 0
M  V30 5129 H 474.046 -3.01312 -4.41718 0
M  V30 5130 H 474.389 -1.37117 -3.93071 0
M  V30 5131 H 474.922 -2.72212 -2.90078 0
M  V30 5132 H 471.661 -5.70102 -3.23518 0
M  V30 5133 H 471.181 -4.28442 -4.19758 0
M  V30 5134 H 472.86 -4.87628 -4.25239 0
M  V30 5135 N 472.992 0.995999 -1.22138 0
M  V30 5136 C 474.238 1.7386 -1.05567 0
M  V30 5137 C 474.593 1.8808 0.405418 0
M  V30 5138 O 473.886 1.41062 1.29661 0
M  V30 5139 C 474.08 3.14553 -1.6968 0
M  V30 5140 C 473.909 3.14053 -3.21871 0
M  V30 5141 C 472.679 3.20121 -3.90961 0
M  V30 5142 C 474.877 2.98451 -4.18845 0
M  V30 5143 N 472.859 3.09342 -5.30265 0
M  V30 5144 C 474.23 2.95667 -5.4496 0
M  V30 5145 C 476.285 2.8282 -4.09777 0
M  V30 5146 C 474.988 2.78852 -6.63049 0
M  V30 5147 C 477.014 2.67364 -5.27513 0
M  V30 5148 C 476.376 2.65264 -6.52544 0
M  V30 5149 H 472.475 0.645989 -0.440706 0
M  V30 5150 H 475.059 1.1831 -1.54631 0
M  V30 5151 H 473.23 3.68353 -1.2317 0
M  V30 5152 H 474.962 3.77358 -1.4623 0
M  V30 5153 H 471.717 3.27679 -3.4194 0
M  V30 5154 H 472.141 3.0727 -6.03253 0
M  V30 5155 H 476.783 2.83243 -3.139 0
M  V30 5156 H 474.501 2.77175 -7.59078 0
M  V30 5157 H 478.087 2.56256 -5.22326 0
M  V30 5158 H 476.967 2.5345 -7.42114 0
M  V30 5159 N 474.47 1.03057 1.19235 0
M  V30 5160 C 475.403 0.557384 2.21288 0
M  V30 5161 C 476.381 -0.402675 1.57535 0
M  V30 5162 O 477.565 -0.319376 1.85775 0
M  V30 5163 C 474.692 -0.187041 3.38183 0
M  V30 5164 C 473.738 0.72471 4.20298 0
M  V30 5165 S 474.571 2.20187 4.88137 0
M  V30 5166 C 475.727 1.46801 6.08441 0
M  V30 5167 H 475.96 1.42207 2.61083 0
M  V30 5168 H 473.493 0.840651 1.29508 0
M  V30 5169 H 475.451 -0.610405 4.05936 0
M  V30 5170 H 474.112 -1.02748 2.96819 0
M  V30 5171 H 473.305 0.149911 5.03777 0
M  V30 5172 H 472.907 1.08647 3.57871 0
M  V30 5173 H 475.199 0.755522 6.73274 0
M  V30 5174 H 476.142 2.27946 6.70407 0
M  V30 5175 H 476.55 0.964762 5.56195 0
M  V30 5176 N 475.948 -1.35272 0.808662 0
M  V30 5177 C 476.911 -2.28082 0.226093 0
M  V30 5178 C 477.911 -1.49673 -0.587762 0
M  V30 5179 O 479.101 -1.69404 -0.405943 0
M  V30 5180 C 476.233 -3.33955 -0.684596 0
M  V30 5181 H 477.426 -2.81116 1.04469 0
M  V30 5182 H 474.979 -1.45162 0.579466 0
M  V30 5183 H 475.714 -2.86111 -1.5268 0
M  V30 5184 H 475.499 -3.91965 -0.102699 0
M  V30 5185 H 476.989 -4.03219 -1.08646 0
M  V30 5186 N 477.426 -0.562348 -1.47226 0
M  V30 5187 C 478.672 -0.0402761 -2.0276 0
M  V30 5188 C 479.005 1.30823 -1.43523 0
M  V30 5189 O 478.28 1.85249 -0.592705 0
M  V30 5190 C 478.563 0.047311 -3.60069 0
M  V30 5191 C 478.416 -1.32865 -4.29729 0
M  V30 5192 C 479.735 0.758182 -4.3352 0
M  V30 5193 H 476.854 -0.0161105 -0.736824 0
M  V30 5194 H 479.496 -0.725628 -1.75598 0
M  V30 5195 H 477.646 0.630986 -3.83342 0
M  V30 5196 H 479.318 -1.95593 -4.17781 0
M  V30 5197 H 477.561 -1.90195 -3.89882 0
M  V30 5198 H 478.232 -1.22004 -5.38349 0
M  V30 5199 H 480.708 0.262546 -4.15271 0
M  V30 5200 H 479.584 0.78844 -5.43208 0
M  V30 5201 H 479.845 1.81537 -4.03109 0
M  V30 5202 N 478.904 1.54736 -0.299062 0
M  V30 5203 C 480.144 2.0201 0.31168 0
M  V30 5204 C 480.508 1.18281 1.5124 0
M  V30 5205 O 481.709 1.55243 2.19438 0
M  V30 5206 C 479.98 3.5123 0.661227 0
M  V30 5207 S 481.539 4.20467 1.2551 0
M  V30 5208 H 478.357 0.704523 0.0957517 0
M  V30 5209 H 480.959 1.90791 -0.426482 0
M  V30 5210 H 479.663 4.09804 -0.221171 0
M  V30 5211 H 479.194 3.66481 1.43023 0
M  V30 5212 H 481.209 4.26083 2.54298 0
M  V30 5213 N 480.382 0.0267497 1.57577 0
M  V30 5214 C 481.312 -0.954308 2.13108 0
M  V30 5215 C 482.293 -1.34088 1.04663 0
M  V30 5216 O 483.478 -1.41992 1.32484 0
M  V30 5217 C 480.608 -2.23744 2.65624 0
M  V30 5218 C 479.562 -1.99168 3.78835 0
M  V30 5219 C 478.888 -3.33726 4.17769 0
M  V30 5220 C 480.188 -1.33277 5.0501 0
M  V30 5221 H 481.882 -0.491848 2.95332 0
M  V30 5222 H 479.428 -0.23514 1.42067 0
M  V30 5223 H 481.381 -2.92754 3.03106 0
M  V30 5224 H 480.105 -2.72151 1.80558 0
M  V30 5225 H 478.764 -1.32577 3.41788 0
M  V30 5226 H 478.412 -3.79888 3.29688 0
M  V30 5227 H 478.112 -3.18089 4.94058 0
M  V30 5228 H 479.636 -4.04008 4.57832 0
M  V30 5229 H 481.05 -1.92283 5.40093 0
M  V30 5230 H 479.447 -1.28045 5.8628 0
M  V30 5231 H 480.517 -0.305411 4.83937 0
M  V30 5232 N 481.861 -1.55662 -0.24637 0
M  V30 5233 C 482.791 -1.93377 -1.30873 0
M  V30 5234 C 483.772 -0.798773 -1.50179 0
M  V30 5235 O 484.957 -1.0591 -1.62778 0
M  V30 5236 C 482.087 -2.22893 -2.66338 0
M  V30 5237 C 481.041 -3.38649 -2.61727 0
M  V30 5238 C 480.367 -3.53708 -4.00992 0
M  V30 5239 C 481.667 -4.74323 -2.18666 0
M  V30 5240 H 483.361 -2.82363 -0.995552 0
M  V30 5241 H 480.907 -1.35854 -0.477464 0
M  V30 5242 H 482.86 -2.47866 -3.40794 0
M  V30 5243 H 481.584 -1.30733 -2.99293 0
M  V30 5244 H 480.243 -3.13685 -1.89729 0
M  V30 5245 H 479.891 -2.58967 -4.31214 0
M  V30 5246 H 479.591 -4.31551 -3.98795 0
M  V30 5247 H 481.115 -3.81003 -4.77147 0
M  V30 5248 H 482.529 -4.98665 -2.82854 0
M  V30 5249 H 480.926 -5.55273 -2.27579 0
M  V30 5250 H 481.996 -4.71349 -1.13834 0
M  V30 5251 N 483.339 0.512053 -1.4905 0
M  V30 5252 C 484.586 1.26686 -1.57978 0
M  V30 5253 C 484.914 1.92733 -0.261553 0
M  V30 5254 O 484.169 1.80772 0.749667 0
M  V30 5255 C 484.468 2.36446 -2.68008 0
M  V30 5256 C 484.134 1.87932 -4.09869 0
M  V30 5257 C 482.796 1.74419 -4.48477 0
M  V30 5258 C 485.148 1.5149 -4.98698 0
M  V30 5259 C 482.476 1.22827 -5.73699 0
M  V30 5260 C 484.828 1.01355 -6.24428 0
M  V30 5261 C 483.492 0.864735 -6.61875 0
M  V30 5262 H 482.762 0.463577 -0.578081 0
M  V30 5263 H 485.409 0.569421 -1.82838 0
M  V30 5264 H 483.714 3.11933 -2.37076 0
M  V30 5265 H 485.411 2.9453 -2.72127 0
M  V30 5266 H 482.001 1.99405 -3.79389 0
M  V30 5267 H 486.185 1.60782 -4.69535 0
M  V30 5268 H 481.441 1.10008 -6.01422 0
M  V30 5269 H 485.615 0.722351 -6.92644 0
M  V30 5270 H 483.242 0.462777 -7.5879 0
M  V30 5271 N 484.817 1.37938 0.762283 0
M  V30 5272 C 486.063 1.33866 1.52341 0
M  V30 5273 C 486.396 -0.0738961 1.94059 0
M  V30 5274 O 485.671 -1.03326 1.64785 0
M  V30 5275 C 485.954 2.28644 2.78197 0
M  V30 5276 C 485.807 3.78722 2.42672 0
M  V30 5277 C 487.126 2.21702 3.80179 0
M  V30 5278 H 484.245 0.487593 0.55265 0
M  V30 5279 H 486.887 1.68717 0.873767 0
M  V30 5280 H 485.037 1.99055 3.33631 0
M  V30 5281 H 486.709 4.18948 1.93081 0
M  V30 5282 H 484.952 3.96827 1.75244 0
M  V30 5283 H 485.623 4.40486 3.3268 0
M  V30 5284 H 488.099 2.47805 3.34263 0
M  V30 5285 H 486.975 2.90143 4.65949 0
M  V30 5286 H 487.236 1.21301 4.25133 0
M  V30 5287 N 486.295 -0.989507 1.22664 0
M  V30 5288 C 487.542 -1.72953 1.05325 0
M  V30 5289 C 487.87 -1.90104 -0.411168 0
M  V30 5290 O 487.125 -1.44386 -1.32103 0
M  V30 5291 C 487.424 -3.13649 1.71345 0
M  V30 5292 C 487.09 -3.16403 3.21248 0
M  V30 5293 C 485.752 -3.16862 3.62149 0
M  V30 5294 C 488.104 -3.12428 4.17179 0
M  V30 5295 C 485.432 -3.11051 4.97458 0
M  V30 5296 C 487.784 -3.08159 5.52468 0
M  V30 5297 C 486.448 -3.06935 5.92746 0
M  V30 5298 H 485.718 -0.632881 0.385412 0
M  V30 5299 H 488.365 -1.15863 1.52473 0
M  V30 5300 H 486.67 -3.74069 1.16532 0
M  V30 5301 H 488.367 -3.69658 1.55416 0
M  V30 5302 H 484.957 -3.16798 2.88682 0
M  V30 5303 H 489.141 -3.11221 3.86595 0
M  V30 5304 H 484.397 -3.0845 5.27891 0
M  V30 5305 H 488.571 -3.04039 6.26525 0
M  V30 5306 H 486.198 -3.02186 6.97558 0
M  V30 5307 N 487.773 -1.03688 -1.18687 0
M  V30 5308 C 488.736 -0.629115 -2.20397 0
M  V30 5309 C 489.736 0.311495 -1.57754 0
M  V30 5310 O 490.926 0.0974107 -1.73927 0
M  V30 5311 C 488.058 0.0782231 -3.4081 0
M  V30 5312 H 489.251 -1.52915 -2.57987 0
M  V30 5313 H 486.804 -0.828988 -1.32505 0
M  V30 5314 H 487.539 0.992233 -3.08748 0
M  V30 5315 H 487.324 -0.597776 -3.87517 0
M  V30 5316 H 488.814 0.350156 -4.16129 0
M  V30 5317 N 489.251 1.34841 -0.815825 0
M  V30 5318 C 490.214 2.27959 -0.238185 0
M  V30 5319 C 491.214 1.49983 0.579816 0
M  V30 5320 O 492.404 1.69617 0.396953 0
M  V30 5321 C 489.536 3.34314 0.666876 0
M  V30 5322 H 490.729 2.80558 -1.05958 0
M  V30 5323 H 488.282 1.44852 -0.587156 0
M  V30 5324 H 489.017 2.86916 1.5116 0
M  V30 5325 H 488.802 3.92014 0.0819106 0
M  V30 5326 H 490.292 4.0379 1.06506 0
M  V30 5327 N 490.729 0.570148 1.46925 0
M  V30 5328 C 491.659 -0.158274 2.32963 0
M  V30 5329 C 492.64 -0.896093 1.44583 0
M  V30 5330 O 493.825 -0.874022 1.7342 0
M  V30 5331 C 490.955 -1.18055 3.26619 0
M  V30 5332 C 489.909 -0.558379 4.24342 0
M  V30 5333 C 489.235 -1.68623 5.07415 0
M  V30 5334 C 490.535 0.496295 5.19937 0
M  V30 5335 H 492.229 0.560046 2.94115 0
M  V30 5336 H 489.775 0.270775 1.41431 0
M  V30 5337 H 491.728 -1.69841 3.85658 0
M  V30 5338 H 490.452 -1.92899 2.63548 0
M  V30 5339 H 489.111 -0.0617157 3.66548 0
M  V30 5340 H 488.759 -2.42402 4.40738 0
M  V30 5341 H 488.459 -1.27564 5.73586 0
M  V30 5342 H 489.983 -2.20709 5.69315 0
M  V30 5343 H 491.397 0.0640052 5.73264 0
M  V30 5344 H 489.794 0.82649 5.94381 0
M  V30 5345 H 490.864 1.38735 4.6463 0
M  V30 5346 N 492.207 -1.54576 0.307264 0
M  V30 5347 C 493.137 -2.26708 -0.55907 0
M  V30 5348 C 494.118 -1.26893 -1.1328 0
M  V30 5349 O 495.303 -1.55677 -1.16097 0
M  V30 5350 C 492.433 -3.01259 -1.72801 0
M  V30 5351 C 491.387 -4.08275 -1.28435 0
M  V30 5352 C 490.713 -4.70575 -2.53895 0
M  V30 5353 C 492.013 -5.2068 -0.411038 0
M  V30 5354 H 493.707 -2.9937 0.042576 0
M  V30 5355 H 491.253 -1.43983 0.0219173 0
M  V30 5356 H 493.206 -3.50444 -2.34023 0
M  V30 5357 H 491.93 -2.26187 -2.356 0
M  V30 5358 H 490.589 -3.59949 -0.695161 0
M  V30 5359 H 490.237 -3.92136 -3.15021 0
M  V30 5360 H 489.937 -5.42854 -2.24908 0
M  V30 5361 H 491.461 -5.22527 -3.15908 0
M  V30 5362 H 492.875 -5.65721 -0.929097 0
M  V30 5363 H 491.272 -5.99716 -0.214664 0
M  V30 5364 H 492.342 -4.81629 0.562287 0
M  V30 5365 N 493.685 -0.035106 -1.57561 0
M  V30 5366 C 494.595 0.960295 -2.14046 0
M  V30 5367 C 495.611 1.3529 -1.0942 0
M  V30 5368 O 496.787 1.43309 -1.41508 0
M  V30 5369 C 493.852 2.22214 -2.66124 0
M  V30 5370 C 492.913 1.8894 -3.85487 0
M  V30 5371 C 492.146 3.09109 -4.35072 0
M  V30 5372 O 492.369 4.21963 -3.83802 0
M  V30 5373 O 491.303 2.91058 -5.26848 0
M  V30 5374 H 495.129 0.509983 -2.99387 0
M  V30 5375 H 492.714 0.185853 -1.48239 0
M  V30 5376 H 494.596 2.96279 -2.99661 0
M  V30 5377 H 493.271 2.66414 -1.83862 0
M  V30 5378 H 492.178 1.12241 -3.56865 0
M  V30 5379 H 493.511 1.49551 -4.6893 0
M  V30 5380 N 495.163 1.55791 0.238111 0
M  V30 5381 C 496.393 1.81834 0.980809 0
M  V30 5382 C 496.801 0.609741 1.79106 0
M  V30 5383 O 496.144 -0.431073 1.78571 0
M  V30 5384 C 496.206 3.01363 1.96011 0
M  V30 5385 C 495.87 4.37037 1.33597 0
M  V30 5386 C 496.867 5.14692 0.734063 0
M  V30 5387 C 494.552 4.83743 1.3527 0
M  V30 5388 C 496.546 6.37206 0.157208 0
M  V30 5389 C 494.233 6.06204 0.77199 0
M  V30 5390 C 495.231 6.82775 0.175282 0
M  V30 5391 O 494.919 8.02922 -0.396432 0
M  V30 5392 H 494.651 0.6088 0.293834 0
M  V30 5393 H 497.205 2.03702 0.263552 0
M  V30 5394 H 495.435 2.75273 2.71591 0
M  V30 5395 H 497.124 3.14422 2.56697 0
M  V30 5396 H 497.89 4.79722 0.713582 0
M  V30 5397 H 493.769 4.24129 1.80653 0
M  V30 5398 H 497.313 6.96915 -0.30917 0
M  V30 5399 H 493.21 6.4065 0.789828 0
M  V30 5400 H 493.978 8.17989 -0.289145 0
M  V30 5401 N 496.642 -0.504142 1.49319 0
M  V30 5402 C 497.605 -1.5883 1.65244 0
M  V30 5403 C 498.605 -1.52009 0.524386 0
M  V30 5404 O 499.795 -1.55218 0.79077 0
M  V30 5405 C 496.927 -2.98481 1.64687 0
M  V30 5406 H 498.12 -1.4604 2.61939 0
M  V30 5407 H 495.673 -0.728144 1.38303 0
M  V30 5408 H 496.408 -3.16751 0.695644 0
M  V30 5409 H 496.193 -3.0484 2.46607 0
M  V30 5410 H 497.683 -3.77256 1.79075 0
M  V30 5411 N 498.12 -1.38341 -0.754957 0
M  V30 5412 C 499.083 -1.35262 -1.85032 0
M  V30 5413 C 500.083 -0.253393 -1.58791 0
M  V30 5414 O 501.273 -0.510205 -1.66561 0
M  V30 5415 C 498.405 -1.10544 -3.22479 0
M  V30 5416 H 499.598 -2.32712 -1.8917 0
M  V30 5417 H 497.151 -1.23614 -0.956515 0
M  V30 5418 H 497.886 -0.136952 -3.24011 0
M  V30 5419 H 497.671 -1.90127 -3.4292 0
M  V30 5420 H 499.161 -1.11082 -4.02555 0
M  V30 5421 N 499.598 0.982988 -1.23187 0
M  V30 5422 C 500.847 1.71817 -1.05649 0
M  V30 5423 C 501.16 1.91315 0.407176 0
M  V30 5424 O 502.366 2.62256 0.702436 0
M  V30 5425 C 500.822 3.09188 -1.84203 0
M  V30 5426 C 500.43 2.97586 -3.34882 0
M  V30 5427 C 502.174 3.86684 -1.75146 0
M  V30 5428 C 500.081 4.30173 -4.05839 0
M  V30 5429 H 499.011 0.644258 -0.391724 0
M  V30 5430 H 501.662 1.09659 -1.4713 0
M  V30 5431 H 500.044 3.72087 -1.35527 0
M  V30 5432 H 501.218 2.43793 -3.91026 0
M  V30 5433 H 499.533 2.33567 -3.44725 0
M  V30 5434 H 502.13 4.84836 -2.25473 0
M  V30 5435 H 502.473 4.10136 -0.713737 0
M  V30 5436 H 503.006 3.30482 -2.21419 0
M  V30 5437 H 499.745 4.11918 -5.09906 0
M  V30 5438 H 499.265 4.83841 -3.54482 0
M  V30 5439 H 500.944 4.98873 -4.11989 0
M  V30 5440 N 501.076 1.04316 1.18135 0
M  V30 5441 C 502.024 0.630175 2.23901 0
M  V30 5442 C 503.018 -0.344254 1.65865 0
M  V30 5443 O 504.224 -0.211273 1.78756 0
M  V30 5444 H 500.599 0.185578 0.728742 0
M  V30 5445 H 502.57 1.53253 2.56039 0
M  V30 5446 C 501.319 0.011666 3.47698 0
M  V30 5447 H 500.642 0.752526 3.92654 0
M  V30 5448 H 502.082 -0.240046 4.2332 0
M  V30 5449 C 500.541 -1.23913 3.13285 0
M  V30 5450 O 501.071 -2.32959 3.27251 0
M  V30 5451 N 499.277 -1.13338 2.67587 0
M  V30 5452 H 498.824 -0.246006 2.56423 0
M  V30 5453 H 498.782 -1.97116 2.44934 0
M  V30 5454 N 502.554 -1.34406 0.822964 0
M  V30 5455 C 503.801 -1.98284 0.411057 0
M  V30 5456 C 504.129 -1.65245 -1.02588 0
M  V30 5457 O 503.384 -0.91619 -1.72929 0
M  V30 5458 C 503.683 -3.52981 0.560268 0
M  V30 5459 C 503.349 -4.05931 1.96293 0
M  V30 5460 C 502.011 -4.20103 2.34664 0
M  V30 5461 C 504.363 -4.34412 2.87985 0
M  V30 5462 C 501.691 -4.60082 3.64062 0
M  V30 5463 C 504.043 -4.75838 4.16847 0
M  V30 5464 C 502.707 -4.88215 4.55195 0
M  V30 5465 H 501.977 -0.725573 0.150416 0
M  V30 5466 H 504.624 -1.60349 1.04692 0
M  V30 5467 H 502.929 -3.91477 -0.158982 0
M  V30 5468 H 504.626 -4.00385 0.222087 0
M  V30 5469 H 501.216 -3.95363 1.65487 0
M  V30 5470 H 505.4 -4.23001 2.59584 0
M  V30 5471 H 500.656 -4.67856 3.93599 0
M  V30 5472 H 504.83 -4.96834 4.87984 0
M  V30 5473 H 502.457 -5.18952 5.55512 0
M  V30 5474 N 504.032 -0.577932 -1.46621 0
M  V30 5475 C 505.278 -0.0617793 -2.02706 0
M  V30 5476 C 505.611 1.29294 -1.44903 0
M  V30 5477 O 504.886 1.8461 -0.61232 0
M  V30 5478 C 505.169 0.00911824 -3.60099 0
M  V30 5479 C 505.022 -1.37416 -4.28295 0
M  V30 5480 C 506.341 0.712159 -4.343 0
M  V30 5481 H 503.46 -0.0239246 -0.736612 0
M  V30 5482 H 506.102 -0.744211 -1.74818 0
M  V30 5483 H 504.252 0.590292 -3.83989 0
M  V30 5484 H 505.924 -2.00013 -4.15683 0
M  V30 5485 H 504.167 -1.94319 -3.87843 0
M  V30 5486 H 504.838 -1.27707 -5.37024 0
M  V30 5487 H 507.314 0.218486 -4.15526 0
M  V30 5488 H 506.19 0.730782 -5.44014 0
M  V30 5489 H 506.451 1.77251 -4.05012 0
M  V30 5490 N 505.51 1.54411 -0.315457 0
M  V30 5491 C 506.735 2.05299 0.294496 0
M  V30 5492 C 507.16 1.19052 1.4563 0
M  V30 5493 O 506.518 0.197804 1.80218 0
M  V30 5494 C 506.566 3.5345 0.714549 0
M  V30 5495 O 505.67 3.70175 1.81781 0
M  V30 5496 H 505.011 0.661743 0.0547019 0
M  V30 5497 H 507.541 1.99327 -0.461508 0
M  V30 5498 H 507.551 3.9557 0.999426 0
M  V30 5499 H 506.226 4.1568 -0.135244 0
M  V30 5500 H 504.803 3.3996 1.53236 0
M  V30 5501 N 506.988 0.0434614 1.5754 0
M  V30 5502 C 508.404 -0.313039 1.565 0
M  V30 5503 C 508.604 -1.71954 1.05043 0
M  V30 5504 O 507.66 -2.425 0.703564 0
M  V30 5505 C 508.973 -0.148544 3.00333 0
M  V30 5506 C 510.521 -0.220231 3.12224 0
M  V30 5507 C 510.996 -0.0843565 4.57922 0
M  V30 5508 N 512.487 -0.140881 4.62986 0
M  V30 5509 C 513.222 -0.0597443 5.73369 0
M  V30 5510 N 512.718 0.0733004 6.92761 0
M  V30 5511 N 514.511 -0.11477 5.61983 0
M  V30 5512 H 506.662 0.96303 1.89313 0
M  V30 5513 H 508.925 0.373164 0.871466 0
M  V30 5514 H 508.631 0.820894 3.41986 0
M  V30 5515 H 508.505 -0.912798 3.65989 0
M  V30 5516 H 510.892 -1.18014 2.70475 0
M  V30 5517 H 510.973 0.574646 2.49262 0
M  V30 5518 H 510.617 0.872192 5.00355 0
M  V30 5519 H 510.547 -0.898281 5.18882 0
M  V30 5520 H 513.038 -0.243273 3.77116 0
M  V30 5521 H 513.351 0.128128 7.72694 0
M  V30 5522 H 511.696 0.10828 6.94916 0
M  V30 5523 H 514.887 -0.217212 4.67596 0
M  V30 5524 H 515.06 -0.0480779 6.47982 0
M  V30 5525 N 508.466 -1.55915 -0.229846 0
M  V30 5526 C 509.398 -1.88209 -1.30805 0
M  V30 5527 C 510.411 -0.769672 -1.43457 0
M  V30 5528 O 511.6 -1.04792 -1.44502 0
M  V30 5529 C 508.7 -2.06829 -2.68468 0
M  V30 5530 C 507.873 -3.37798 -2.77869 0
M  V30 5531 C 506.932 -3.45952 -3.96489 0
M  V30 5532 O 505.958 -4.19043 -3.85216 0
M  V30 5533 N 507.16 -2.76488 -5.10426 0
M  V30 5534 H 509.925 -2.81286 -1.03431 0
M  V30 5535 H 507.486 -1.5636 -0.41991 0
M  V30 5536 H 509.478 -2.09608 -3.46189 0
M  V30 5537 H 508.048 -1.20416 -2.88477 0
M  V30 5538 H 507.268 -3.4719 -1.86689 0
M  V30 5539 H 508.556 -4.24091 -2.81113 0
M  V30 5540 H 507.954 -2.16868 -5.2248 0
M  V30 5541 H 506.511 -2.84938 -5.8622 0
M  V30 5542 N 509.944 0.496216 -1.49584 0
M  V30 5543 C 510.894 1.59422 -1.62999 0
M  V30 5544 C 511.878 1.53402 -0.485457 0
M  V30 5545 O 513.07 1.60851 -0.738649 0
M  V30 5546 C 510.199 2.98009 -1.70427 0
M  V30 5547 C 509.285 3.09008 -2.90473 0
M  V30 5548 N 509.676 2.89884 -4.14489 0
M  V30 5549 C 507.974 3.40115 -2.8851 0
M  V30 5550 C 508.675 3.0519 -4.95211 0
M  V30 5551 N 507.651 3.3428 -4.2867 0
M  V30 5552 H 511.453 1.43297 -2.56599 0
M  V30 5553 H 508.967 0.702443 -1.46422 0
M  V30 5554 H 510.964 3.76926 -1.78136 0
M  V30 5555 H 509.624 3.152 -0.77967 0
M  V30 5556 H 510.635 2.65963 -4.44392 0
M  V30 5557 H 507.312 3.63452 -2.05448 0
M  V30 5558 H 508.702 2.94856 -6.03746 0
M  V30 5559 N 511.423 1.38739 0.74761 0
M  V30 5560 C 512.37 1.36449 1.86146 0
M  V30 5561 C 513.34 0.226098 1.64554 0
M  V30 5562 O 514.525 0.41926 1.86137 0
M  V30 5563 C 511.665 1.2013 3.23516 0
M  V30 5564 C 510.778 2.43407 3.56899 0
M  V30 5565 C 509.913 2.19773 4.83605 0
M  V30 5566 C 508.952 3.3879 5.09792 0
M  V30 5567 N 508.089 3.14553 6.27695 0
M  V30 5568 H 512.929 2.3167 1.87438 0
M  V30 5569 H 510.466 1.15094 0.916063 0
M  V30 5570 H 512.424 1.08683 4.02795 0
M  V30 5571 H 511.054 0.285453 3.21535 0
M  V30 5572 H 510.106 2.65504 2.72418 0
M  V30 5573 H 511.418 3.32094 3.72176 0
M  V30 5574 H 510.572 2.05496 5.70838 0
M  V30 5575 H 509.311 1.28461 4.70478 0
M  V30 5576 H 508.316 3.53579 4.21025 0
M  V30 5577 H 509.541 4.30986 5.24812 0
M  V30 5578 H 507.487 2.25893 6.1588 0
M  V30 5579 H 507.404 3.96791 6.435 0
M  V30 5580 H 508.672 3.03943 7.17801 0
M  V30 5581 N 512.901 -0.976442 1.23707 0
M  V30 5582 C 513.811 -2.10359 1.03856 0
M  V30 5583 C 514.827 -1.73991 -0.0180919 0
M  V30 5584 O 516.003 -2.0061 0.178211 0
M  V30 5585 C 513.068 -3.40809 0.636387 0
M  V30 5586 C 512.129 -3.91179 1.76854 0
M  V30 5587 C 511.362 -5.15404 1.38546 0
M  V30 5588 O 511.585 -5.69754 0.27142 0
M  V30 5589 O 510.519 -5.5994 2.20797 0
M  V30 5590 H 514.345 -2.29997 1.98331 0
M  V30 5591 H 511.93 -1.08742 1.02448 0
M  V30 5592 H 513.812 -4.19269 0.423223 0
M  V30 5593 H 512.487 -3.22493 -0.279322 0
M  V30 5594 H 511.394 -3.13819 2.03638 0
M  V30 5595 H 512.727 -4.13958 2.6627 0
M  V30 5596 N 514.379 -1.04941 -1.1758 0
M  V30 5597 C 515.626 -0.757989 -1.87779 0
M  V30 5598 C 515.954 0.714827 -1.80888 0
M  V30 5599 O 515.209 1.53824 -1.20982 0
M  V30 5600 C 515.508 -1.18062 -3.37337 0
M  V30 5601 C 515.174 -2.65521 -3.6443 0
M  V30 5602 C 513.836 -3.05804 -3.71534 0
M  V30 5603 C 516.188 -3.60822 -3.76108 0
M  V30 5604 C 513.516 -4.40256 -3.87803 0
M  V30 5605 C 515.868 -4.95005 -3.93895 0
M  V30 5606 C 514.532 -5.34945 -3.99237 0
M  V30 5607 H 513.802 -0.277368 -0.68713 0
M  V30 5608 H 516.449 -1.31603 -1.39115 0
M  V30 5609 H 514.754 -0.541525 -3.8804 0
M  V30 5610 H 516.451 -0.932368 -3.9001 0
M  V30 5611 H 513.041 -2.33324 -3.59524 0
M  V30 5612 H 517.225 -3.30841 -3.69943 0
M  V30 5613 H 512.481 -4.70707 -3.90186 0
M  V30 5614 H 516.655 -5.68746 -4.01872 0
M  V30 5615 H 514.282 -6.39135 -4.11596 0
M  V30 5616 N 515.857 1.33968 -0.830081 0
M  V30 5617 C 517.106 1.97323 -0.417928 0
M  V30 5618 C 517.419 1.6652 1.02618 0
M  V30 5619 O 518.625 2.2342 1.54259 0
M  V30 5620 C 517.081 3.53099 -0.696359 0
M  V30 5621 C 516.689 3.92788 -2.15457 0
M  V30 5622 C 518.433 4.23049 -0.350724 0
M  V30 5623 C 516.34 5.41506 -2.37751 0
M  V30 5624 H 515.27 0.738409 -0.152541 0
M  V30 5625 H 517.921 1.52711 -1.01744 0
M  V30 5626 H 516.303 3.95991 -0.0265904 0
M  V30 5627 H 517.477 3.6098 -2.86408 0
M  V30 5628 H 515.792 3.35795 -2.46232 0
M  V30 5629 H 518.389 5.32403 -0.495036 0
M  V30 5630 H 518.732 4.10279 0.705476 0
M  V30 5631 H 519.265 3.85657 -0.975362 0
M  V30 5632 H 516.004 5.5927 -3.41903 0
M  V30 5633 H 515.524 5.74804 -1.7135 0
M  V30 5634 H 517.203 6.0828 -2.20465 0
M  V30 5635 N 517.335 0.585699 1.46312 0
M  V30 5636 C 518.751 0.247607 1.57668 0
M  V30 5637 C 518.951 -1.25007 1.58037 0
M  V30 5638 O 518.007 -2.03196 1.49893 0
M  V30 5639 C 519.32 0.899456 2.86933 0
M  V30 5640 C 520.868 0.873326 3.00569 0
M  V30 5641 C 521.343 1.50477 4.32574 0
M  V30 5642 N 522.834 1.46925 4.3928 0
M  V30 5643 C 523.569 1.92719 5.40044 0
M  V30 5644 N 523.065 2.46499 6.47464 0
M  V30 5645 N 524.858 1.83617 5.31264 0
M  V30 5646 H 517.009 1.55841 1.44317 0
M  V30 5647 H 519.272 0.651564 0.688599 0
M  V30 5648 H 518.978 1.95313 2.92482 0
M  V30 5649 H 518.852 0.409476 3.74971 0
M  V30 5650 H 521.239 -0.171736 2.946 0
M  V30 5651 H 521.32 1.40136 2.13999 0
M  V30 5652 H 520.964 2.54905 4.39302 0
M  V30 5653 H 520.894 0.951944 5.17924 0
M  V30 5654 H 523.385 1.07616 3.62253 0
M  V30 5655 H 523.698 2.79291 7.20567 0
M  V30 5656 H 522.043 2.50526 6.48276 0
M  V30 5657 H 525.234 1.41358 4.46246 0
M  V30 5658 H 525.407 2.19622 6.09648 0
M  V30 5659 N 518.813 -1.54241 0.323641 0
M  V30 5660 C 519.743 -2.27289 -0.534993 0
M  V30 5661 C 520.724 -1.28087 -1.11927 0
M  V30 5662 O 521.909 -1.56899 -1.14439 0
M  V30 5663 C 519.039 -3.03075 -1.69596 0
M  V30 5664 C 517.993 -4.09614 -1.24098 0
M  V30 5665 C 517.319 -4.73242 -2.4889 0
M  V30 5666 C 518.619 -5.21087 -0.355789 0
M  V30 5667 H 520.313 -2.99308 0.0743257 0
M  V30 5668 H 517.859 -1.43952 0.0371874 0
M  V30 5669 H 519.812 -3.52907 -2.30293 0
M  V30 5670 H 518.536 -2.28673 -2.33187 0
M  V30 5671 H 517.195 -3.60666 -0.656945 0
M  V30 5672 H 516.843 -3.95455 -3.10845 0
M  V30 5673 H 516.543 -5.45209 -2.19138 0
M  V30 5674 H 518.067 -5.25848 -3.10348 0
M  V30 5675 H 519.481 -5.66675 -0.869042 0
M  V30 5676 H 517.878 -5.9991 -0.151045 0
M  V30 5677 H 518.948 -4.81005 0.613339 0
M  V30 5678 N 520.291 -0.0518155 -1.57515 0
M  V30 5679 C 521.707 0.304735 -1.56664 0
M  V30 5680 C 521.907 1.71395 -1.05953 0
M  V30 5681 O 520.963 2.42123 -0.716414 0
M  V30 5682 C 522.276 0.132614 -3.00407 0
M  V30 5683 C 523.824 0.20367 -3.12337 0
M  V30 5684 C 524.299 0.0600706 -4.57961 0
M  V30 5685 N 525.79 0.116326 -4.63054 0
M  V30 5686 C 526.525 0.0293363 -5.73392 0
M  V30 5687 N 526.021 -0.110038 -6.92713 0
M  V30 5688 N 527.814 0.0849651 -5.62036 0
M  V30 5689 H 519.965 -0.973056 -1.888 0
M  V30 5690 H 522.228 -0.377781 -0.869474 0
M  V30 5691 H 521.934 -0.839019 -3.41546 0
M  V30 5692 H 521.808 0.893376 -3.66468 0
M  V30 5693 H 524.195 1.16578 -2.71097 0
M  V30 5694 H 524.276 -0.587857 -2.48954 0
M  V30 5695 H 523.92 -0.898715 -4.99886 0
M  V30 5696 H 523.85 0.87075 -5.19351 0
M  V30 5697 H 526.341 0.22327 -3.7724 0
M  V30 5698 H 526.654 -0.169104 -7.72615 0
M  V30 5699 H 524.999 -0.145132 -6.94848 0
M  V30 5700 H 528.19 0.192411 -4.67704 0
M  V30 5701 H 528.363 0.0137131 -6.47999 0
M  V30 5702 N 521.769 1.56035 0.221574 0
M  V30 5703 C 523.185 1.49026 0.571271 0
M  V30 5704 C 523.385 0.746912 1.87146 0
M  V30 5705 O 522.441 0.286566 2.50869 0
M  V30 5706 C 523.754 2.93579 0.650522 0
M  V30 5707 C 525.302 3.04099 0.741151 0
M  V30 5708 C 525.777 4.5001 0.851747 0
M  V30 5709 N 527.268 4.54053 0.915968 0
M  V30 5710 C 528.003 5.64232 1.02125 0
M  V30 5711 N 527.499 6.84164 1.09049 0
M  V30 5712 N 529.292 5.52084 1.05639 0
M  V30 5713 H 521.443 2.02791 -0.63162 0
M  V30 5714 H 523.706 0.921736 -0.221602 0
M  V30 5715 H 523.412 3.50912 -0.235253 0
M  V30 5716 H 523.286 3.45476 1.51413 0
M  V30 5717 H 525.673 2.4683 1.61737 0
M  V30 5718 H 525.754 2.55371 -0.148128 0
M  V30 5719 H 525.398 5.07896 -0.0200117 0
M  V30 5720 H 525.328 4.96444 1.75644 0
M  V30 5721 H 527.819 3.67683 0.872782 0
M  V30 5722 H 528.132 7.63883 1.1706 0
M  V30 5723 H 526.477 6.86875 1.05962 0
M  V30 5724 H 529.668 4.57317 0.998953 0
M  V30 5725 H 529.841 6.37983 1.13498 0
M  V30 5726 N 523.247 -0.488276 1.49845 0
M  V30 5727 C 524.663 -0.820566 1.3689 0
M  V30 5728 C 524.863 -1.97248 0.411752 0
M  V30 5729 O 523.919 -2.52042 -0.151931 0
M  V30 5730 C 525.232 -1.1488 2.77891 0
M  V30 5731 C 526.78 -1.25626 2.86683 0
M  V30 5732 C 527.255 -1.61772 4.28479 0
M  V30 5733 N 528.746 -1.68797 4.31349 0
M  V30 5734 C 529.481 -1.98235 5.38043 0
M  V30 5735 N 528.977 -2.2581 6.54967 0
M  V30 5736 N 530.77 -1.99593 5.2547 0
M  V30 5737 H 522.921 0.271123 2.10662 0
M  V30 5738 H 525.184 0.058735 0.946179 0
M  V30 5739 H 524.89 -0.375614 3.49688 0
M  V30 5740 H 524.764 -2.08919 3.14058 0
M  V30 5741 H 527.151 -2.02014 2.15114 0
M  V30 5742 H 527.232 -0.296072 2.54081 0
M  V30 5743 H 526.876 -0.859295 5.00578 0
M  V30 5744 H 526.806 -2.58912 4.58554 0
M  V30 5745 H 529.297 -1.49595 3.4703 0
M  V30 5746 H 529.61 -2.47497 7.32096 0
M  V30 5747 H 527.955 -2.23239 6.58171 0
M  V30 5748 H 531.146 -1.77535 4.33127 0
M  V30 5749 H 531.319 -2.222 6.08713 0
M  V30 5750 N 524.725 -1.39134 -0.740242 0
M  V30 5751 C 525.657 -1.33332 -1.86428 0
M  V30 5752 C 526.67 -0.243042 -1.60976 0
M  V30 5753 O 527.859 -0.501608 -1.71307 0
M  V30 5754 C 524.959 -1.04626 -3.22346 0
M  V30 5755 C 524.132 -2.24826 -3.75196 0
M  V30 5756 C 523.191 -1.92659 -4.89662 0
M  V30 5757 O 522.217 -2.6529 -5.03597 0
M  V30 5758 N 523.419 -0.889575 -5.73643 0
M  V30 5759 H 526.184 -2.30196 -1.91911 0
M  V30 5760 H 523.745 -1.33168 -0.920756 0
M  V30 5761 H 525.737 -0.811347 -3.96484 0
M  V30 5762 H 524.307 -0.165129 -3.12164 0
M  V30 5763 H 523.527 -2.64301 -2.9247 0
M  V30 5764 H 524.815 -3.05015 -4.07239 0
M  V30 5765 H 524.213 -0.287529 -5.64969 0
M  V30 5766 H 522.77 -0.714557 -6.47871 0
M  V30 5767 N 526.204 0.969867 -1.24223 0
M  V30 5768 C 527.62 1.23809 -1.00716 0
M  V30 5769 C 527.82 1.99469 0.285358 0
M  V30 5770 O 526.876 2.31764 1.00207 0
M  V30 5771 C 528.189 2.02734 -2.2208 0
M  V30 5772 C 529.737 2.15834 -2.26681 0
M  V30 5773 C 530.212 2.98154 -3.47661 0
M  V30 5774 N 531.703 3.05737 -3.47964 0
M  V30 5775 C 532.438 3.69785 -4.38231 0
M  V30 5776 N 531.934 4.35569 -5.3875 0
M  V30 5777 N 533.727 3.66775 -4.25949 0
M  V30 5778 H 525.878 0.463294 -2.07286 0
M  V30 5779 H 528.141 0.267348 -0.909521 0
M  V30 5780 H 527.847 1.54524 -3.15935 0
M  V30 5781 H 527.721 3.0347 -2.24021 0
M  V30 5782 H 530.108 2.63248 -1.33359 0
M  V30 5783 H 530.189 1.14453 -2.28767 0
M  V30 5784 H 529.833 2.51435 -4.41297 0
M  V30 5785 H 529.763 3.99729 -3.42818 0
M  V30 5786 H 532.254 2.58941 -2.75242 0
M  V30 5787 H 532.567 4.82251 -6.03866 0
M  V30 5788 H 530.912 4.34244 -5.42639 0
M  V30 5789 H 534.103 3.14558 -3.46657 0
M  V30 5790 H 534.276 4.16407 -4.96497 0
M  V30 5791 N 527.682 1.05563 1.17022 0
M  V30 5792 C 529.098 0.777684 1.39371 0
M  V30 5793 C 529.298 -0.626269 1.91521 0
M  V30 5794 O 528.354 -1.38806 2.10924 0
M  V30 5795 C 529.667 1.83642 2.3811 0
M  V30 5796 C 531.215 1.85907 2.51809 0
M  V30 5797 C 531.69 2.90813 3.53824 0
M  V30 5798 N 533.181 2.898 3.61345 0
M  V30 5799 C 533.916 3.6762 4.40049 0
M  V30 5800 N 533.412 4.55237 5.22237 0
M  V30 5801 N 535.205 3.56044 4.34959 0
M  V30 5802 H 527.356 1.9614 0.815047 0
M  V30 5803 H 529.619 0.849527 0.420722 0
M  V30 5804 H 529.325 2.84425 2.06871 0
M  V30 5805 H 529.199 1.6812 3.37662 0
M  V30 5806 H 531.586 0.857865 2.82356 0
M  V30 5807 H 531.667 2.05506 1.52318 0
M  V30 5808 H 531.311 3.91122 3.24015 0
M  V30 5809 H 531.241 2.68465 4.53028 0
M  V30 5810 H 533.732 2.26274 3.02669 0
M  V30 5811 H 534.045 5.11291 5.79484 0
M  V30 5812 H 532.39 4.59296 5.21605 0
M  V30 5813 H 535.581 2.86986 3.69806 0
M  V30 5814 H 535.754 4.16938 4.96051 0
M  V30 5815 N 529.16 -1.33526 0.837174 0
M  V30 5816 C 530.092 -2.28077 0.226579 0
M  V30 5817 C 531.105 -1.51666 -0.591717 0
M  V30 5818 O 532.294 -1.73511 -0.419064 0
M  V30 5819 C 529.394 -3.31597 -0.69978 0
M  V30 5820 C 528.567 -4.37329 0.0788067 0
M  V30 5821 C 527.626 -5.20526 -0.770637 0
M  V30 5822 O 526.652 -5.68811 -0.210453 0
M  V30 5823 N 527.854 -5.41639 -2.08825 0
M  V30 5824 H 530.619 -2.81115 1.03897 0
M  V30 5825 H 528.18 -1.46201 0.695476 0
M  V30 5826 H 530.172 -3.84158 -1.27298 0
M  V30 5827 H 528.742 -2.78848 -1.41288 0
M  V30 5828 H 527.962 -3.8529 0.833381 0
M  V30 5829 H 529.25 -5.05079 0.614238 0
M  V30 5830 H 528.648 -5.04108 -2.56693 0
M  V30 5831 H 527.205 -5.97263 -2.60998 0
M  V30 5832 N 530.638 -0.59345 -1.46 0
M  V30 5833 C 532.054 -0.255965 -1.57534 0
M  V30 5834 C 532.254 1.24167 -1.58697 0
M  V30 5835 O 531.31 2.02398 -1.50968 0
M  V30 5836 C 532.623 -0.91466 -2.86451 0
M  V30 5837 C 534.171 -0.889253 -3.00102 0
M  V30 5838 C 534.646 -1.52769 -4.3177 0
M  V30 5839 N 536.137 -1.49253 -4.38495 0
M  V30 5840 C 536.872 -1.9558 -5.39014 0
M  V30 5841 N 536.368 -2.49929 -6.46148 0
M  V30 5842 N 538.161 -1.86432 -5.30282 0
M  V30 5843 H 530.312 -1.56604 -1.43489 0
M  V30 5844 H 532.575 -0.655207 -0.685133 0
M  V30 5845 H 532.281 -1.96861 -2.91442 0
M  V30 5846 H 532.155 -0.429356 -3.74748 0
M  V30 5847 H 534.542 0.156111 -2.94687 0
M  V30 5848 H 534.623 -1.41268 -2.13253 0
M  V30 5849 H 534.267 -2.57231 -4.37944 0
M  V30 5850 H 534.197 -0.979398 -5.17412 0
M  V30 5851 H 536.688 -1.09536 -3.61677 0
M  V30 5852 H 537.001 -2.83109 -7.19075 0
M  V30 5853 H 535.346 -2.53961 -6.46938 0
M  V30 5854 H 538.537 -1.43722 -4.4549 0
M  V30 5855 H 538.71 -2.22852 -6.08474 0
M  V30 5856 N 532.116 1.54067 -0.331816 0
M  V30 5857 C 533.046 2.27569 0.522932 0
M  V30 5858 C 534.027 1.28679 1.11247 0
M  V30 5859 O 535.212 1.57504 1.13605 0
M  V30 5860 C 532.342 3.0397 1.67987 0
M  V30 5861 C 531.296 4.10267 1.21924 0
M  V30 5862 C 530.622 4.74555 2.46377 0
M  V30 5863 C 531.922 5.21268 0.32815 0
M  V30 5864 H 533.616 2.99264 -0.0901977 0
M  V30 5865 H 531.162 1.4393 -0.044821 0
M  V30 5866 H 533.115 3.54123 2.28418 0
M  V30 5867 H 531.839 2.29906 2.31971 0
M  V30 5868 H 530.498 3.61009 0.637809 0
M  V30 5869 H 530.146 3.97098 3.08743 0
M  V30 5870 H 529.846 5.46363 2.16243 0
M  V30 5871 H 531.37 5.27487 3.07555 0
M  V30 5872 H 532.784 5.67128 0.838978 0
M  V30 5873 H 531.181 5.99982 0.119228 0
M  V30 5874 H 532.251 4.80673 -0.638839 0
M  V30 5875 N 533.594 0.0601682 1.57485 0
M  V30 5876 C 534.504 -0.926121 2.15546 0
M  V30 5877 C 535.52 -1.33532 1.11558 0
M  V30 5878 O 536.696 -1.4104 1.4377 0
M  V30 5879 C 533.761 -2.17952 2.69625 0
M  V30 5880 C 532.822 -1.82783 3.88444 0
M  V30 5881 C 532.055 -3.02148 4.39935 0
M  V30 5882 O 532.278 -4.15803 3.90466 0
M  V30 5883 O 531.212 -2.82639 5.31412 0
M  V30 5884 H 535.038 -0.462289 3.00161 0
M  V30 5885 H 532.623 -0.162246 1.48516 0
M  V30 5886 H 534.505 -2.91474 3.04337 0
M  V30 5887 H 533.18 -2.63456 1.88077 0
M  V30 5888 H 532.087 -1.06549 3.58606 0
M  V30 5889 H 533.42 -1.42072 4.7125 0
M  V30 5890 N 535.072 -1.5615 -0.213296 0
M  V30 5891 C 535.982 -1.96265 -1.28519 0
M  V30 5892 C 536.998 -0.86765 -1.50824 0
M  V30 5893 O 538.174 -1.17191 -1.63793 0
M  V30 5894 C 535.239 -2.27836 -2.61327 0
M  V30 5895 C 534.3 -3.50949 -2.47252 0
M  V30 5896 C 533.533 -3.81004 -3.73727 0
M  V30 5897 O 533.756 -3.12612 -4.77106 0
M  V30 5898 O 532.69 -4.74477 -3.70344 0
M  V30 5899 H 536.516 -2.87631 -0.974795 0
M  V30 5900 H 534.101 -1.43467 -0.416832 0
M  V30 5901 H 535.983 -2.49299 -3.39747 0
M  V30 5902 H 534.658 -1.39643 -2.9203 0
M  V30 5903 H 533.565 -3.34754 -1.67004 0
M  V30 5904 H 534.898 -4.39551 -2.21486 0
M  V30 5905 N 536.55 0.480323 -1.50102 0
M  V30 5906 C 537.827 1.24159 -1.51142 0
M  V30 5907 C 538.207 2.09605 -0.250818 0
M  V30 5908 O 537.555 2.15274 0.766118 0
M  V30 5909 C 537.765 2.08057 -2.80202 0
M  V30 5910 C 539.113 2.66556 -3.30504 0
M  V30 5911 O 540.137 2.18308 -2.81461 0
M  V30 5912 O 538.996 3.54442 -4.15973 0
M  V30 5913 H 536.09 0.562928 -0.605839 0
M  V30 5914 H 538.636 0.492899 -1.62384 0
M  V30 5915 H 537.408 1.45032 -3.6343 0
M  V30 5916 H 537.031 2.90079 -2.71919 0
M  V30 5917 N 538.028 1.39524 0.732853 0
M  V30 5918 C 539.277 1.36175 1.48792 0
M  V30 5919 C 539.59 -0.0388195 1.95561 0
M  V30 5920 O 540.796 -0.194899 2.708 0
M  V30 5921 C 539.252 2.39242 2.68871 0
M  V30 5922 C 538.86 3.85024 2.29042 0
M  V30 5923 C 540.604 2.44972 3.46683 0
M  V30 5924 C 538.511 4.79727 3.45856 0
M  V30 5925 H 537.441 0.506267 0.558757 0
M  V30 5926 H 540.092 1.65181 0.799226 0
M  V30 5927 H 538.474 2.0331 3.39825 0
M  V30 5928 H 539.648 4.30008 1.6562 0
M  V30 5929 H 537.963 3.82609 1.64316 0
M  V30 5930 H 540.56 3.12918 4.33574 0
M  V30 5931 H 540.903 1.4749 3.89297 0
M  V30 5932 H 541.436 2.79808 2.82759 0
M  V30 5933 H 538.175 5.78479 3.08289 0
M  V30 5934 H 537.695 4.39421 4.08251 0
M  V30 5935 H 539.374 4.98731 4.12161 0
M  V30 5936 N 539.506 -0.963266 1.24736 0
M  V30 5937 C 540.755 -1.70115 1.08369 0
M  V30 5938 C 541.068 -1.91939 -0.376688 0
M  V30 5939 O 542.274 -2.6334 -0.660624 0
M  V30 5940 C 540.73 -3.06218 1.89099 0
M  V30 5941 C 540.338 -2.92221 3.39574 0
M  V30 5942 C 542.082 -3.83848 1.81275 0
M  V30 5943 C 539.989 -4.23662 4.12631 0
M  V30 5944 H 538.919 -0.637944 0.401924 0
M  V30 5945 H 541.57 -1.07304 1.48856 0
M  V30 5946 H 539.952 -3.69884 1.41429 0
M  V30 5947 H 541.126 -2.37541 3.94856 0
M  V30 5948 H 539.441 -2.28054 3.48397 0
M  V30 5949 H 542.038 -4.81188 2.33158 0
M  V30 5950 H 542.381 -4.08949 0.778895 0
M  V30 5951 H 542.914 -3.26918 2.26649 0
M  V30 5952 H 539.653 -4.03753 5.16395 0
M  V30 5953 H 539.173 -4.78141 3.62135 0
M  V30 5954 H 540.852 -4.92256 4.19873 0
M  V30 5955 N 540.985 -1.06182 -1.16461 0
M  V30 5956 C 541.917 -0.629584 -2.20383 0
M  V30 5957 C 542.93 0.311834 -1.59786 0
M  V30 5958 O 544.119 0.103 -1.78203 0
M  V30 5959 C 541.219 0.0973695 -3.3876 0
M  V30 5960 C 540.392 -0.857252 -4.28917 0
M  V30 5961 C 539.451 -0.169749 -5.25926 0
M  V30 5962 O 538.477 -0.807044 -5.6345 0
M  V30 5963 N 539.679 1.08911 -5.70192 0
M  V30 5964 H 542.444 -1.52352 -2.58087 0
M  V30 5965 H 540.005 -0.944993 -1.31459 0
M  V30 5966 H 541.997 0.567676 -4.00699 0
M  V30 5967 H 540.567 0.893093 -2.99571 0
M  V30 5968 H 539.787 -1.50696 -3.64259 0
M  V30 5969 H 541.075 -1.50489 -4.86035 0
M  V30 5970 H 540.473 1.62703 -5.41797 0
M  V30 5971 H 539.03 1.50331 -6.34227 0
M  V30 5972 N 542.463 1.3308 -0.844243 0
M  V30 5973 C 543.373 2.32876 -0.283922 0
M  V30 5974 C 544.389 1.63589 0.592846 0
M  V30 5975 O 545.565 1.95205 0.495693 0
M  V30 5976 C 542.63 3.42667 0.527283 0
M  V30 5977 C 541.691 4.27664 -0.374394 0
M  V30 5978 C 540.924 5.32212 0.39819 0
M  V30 5979 O 541.147 5.46635 1.62932 0
M  V30 5980 O 540.081 6.01458 -0.2306 0
M  V30 5981 H 543.907 2.82671 -1.11045 0
M  V30 5982 H 541.492 1.36518 -0.606903 0
M  V30 5983 H 543.374 4.09652 0.988078 0
M  V30 5984 H 542.049 2.95079 1.33078 0
M  V30 5985 H 540.956 3.63526 -0.883144 0
M  V30 5986 H 542.289 4.78749 -1.1428 0
M  V30 5987 N 543.941 0.601185 1.45683 0
M  V30 5988 C 545.166 0.0982245 2.07167 0
M  V30 5989 C 545.591 -1.20546 1.44396 0
M  V30 5990 O 544.949 -1.73247 0.534347 0
M  V30 5991 C 544.997 -0.0346976 3.60583 0
M  V30 5992 O 544.101 -1.08657 3.97828 0
M  V30 5993 H 543.442 0.0711618 0.660176 0
M  V30 5994 H 545.972 0.829376 1.87036 0
M  V30 5995 H 545.982 -0.234969 4.07323 0
M  V30 5996 H 544.657 0.917265 4.05659 0
M  V30 5997 H 543.234 -0.863275 3.6277 0
M  V30 5998 N 545.419 -1.53889 0.339982 0
M  V30 5999 C 546.835 -1.59595 -0.0120752 0
M  V30 6000 C 547.035 -1.35605 -1.49042 0
M  V30 6001 O 546.091 -1.14856 -2.24865 0
M  V30 6002 C 547.404 -2.9774 0.420898 0
M  V30 6003 C 548.952 -3.1077 0.37294 0
M  V30 6004 C 549.427 -4.51286 0.781327 0
M  V30 6005 N 550.918 -4.57325 0.735374 0
M  V30 6006 C 551.653 -5.64194 1.02336 0
M  V30 6007 N 551.149 -6.7893 1.37933 0
M  V30 6008 N 552.942 -5.54051 0.947838 0
M  V30 6009 H 545.093 -1.67738 1.30299 0
M  V30 6010 H 547.356 -0.785385 0.530918 0
M  V30 6011 H 547.062 -3.20349 1.45152 0
M  V30 6012 H 546.936 -3.76639 -0.205721 0
M  V30 6013 H 549.323 -2.87886 -0.648505 0
M  V30 6014 H 549.404 -2.33939 1.03472 0
M  V30 6015 H 549.048 -4.74905 1.80077 0
M  V30 6016 H 548.978 -5.26511 0.0970679 0
M  V30 6017 H 551.469 -3.74931 0.472773 0
M  V30 6018 H 551.782 -7.56392 1.58402 0
M  V30 6019 H 550.127 -6.80386 1.41774 0
M  V30 6020 H 553.318 -4.63293 0.669115 0
M  V30 6021 H 553.491 -6.37246 1.17563 0
M  V30 6022 N 546.897 -0.0685191 -1.57451 0
M  V30 6023 C 548.144 0.601348 -1.93365 0
M  V30 6024 C 548.472 1.69816 -0.948294 0
M  V30 6025 O 547.727 1.95666 0.0366199 0
M  V30 6026 C 548.026 1.22051 -3.35914 0
M  V30 6027 C 547.692 0.250165 -4.50205 0
M  V30 6028 C 546.354 -0.0167954 -4.81197 0
M  V30 6029 C 548.706 -0.413867 -5.19554 0
M  V30 6030 C 546.034 -0.95493 -5.78876 0
M  V30 6031 C 548.386 -1.3403 -6.18238 0
M  V30 6032 C 547.05 -1.61576 -6.47649 0
M  V30 6033 H 546.32 0.220049 -0.707573 0
M  V30 6034 H 548.967 -0.138697 -1.90997 0
M  V30 6035 H 547.272 2.03622 -3.34732 0
M  V30 6036 H 548.969 1.74605 -3.6099 0
M  V30 6037 H 545.559 0.468421 -4.26033 0
M  V30 6038 H 549.743 -0.220733 -4.95809 0
M  V30 6039 H 544.999 -1.17563 -5.99991 0
M  V30 6040 H 549.173 -1.86081 -6.71079 0
M  V30 6041 H 546.8 -2.34431 -7.2315 0
M  V30 6042 N 548.375 1.56261 0.205012 0
M  V30 6043 C 549.605 1.83874 0.942018 0
M  V30 6044 C 550.013 0.647595 1.77772 0
M  V30 6045 O 549.356 -0.393098 1.79445 0
M  V30 6046 C 549.418 3.05453 1.89575 0
M  V30 6047 C 549.082 4.39772 1.24296 0
M  V30 6048 C 550.079 5.16133 0.624724 0
M  V30 6049 C 547.764 4.86504 1.24978 0
M  V30 6050 C 549.758 6.37396 0.0220117 0
M  V30 6051 C 547.445 6.07705 0.643232 0
M  V30 6052 C 548.443 6.82993 0.0304164 0
M  V30 6053 O 548.131 8.019 -0.566654 0
M  V30 6054 H 547.863 0.614896 0.280854 0
M  V30 6055 H 550.417 2.04215 0.220285 0
M  V30 6056 H 548.647 2.80972 2.65691 0
M  V30 6057 H 550.336 3.19797 2.4997 0
M  V30 6058 H 551.102 4.81127 0.611666 0
M  V30 6059 H 546.981 4.27865 1.71616 0
M  V30 6060 H 550.525 6.96102 -0.456926 0
M  V30 6061 H 546.422 6.42181 0.653759 0
M  V30 6062 H 547.19 8.17192 -0.462588 0
M  V30 6063 N 549.853 -0.472356 1.50355 0
M  V30 6064 C 551.1 -1.22453 1.61281 0
M  V30 6065 C 551.428 -1.91972 0.31256 0
M  V30 6066 O 550.683 -1.82696 -0.701475 0
M  V30 6067 C 550.982 -2.29257 2.74182 0
M  V30 6068 C 550.648 -1.76999 4.14708 0
M  V30 6069 C 549.31 -1.62467 4.52944 0
M  V30 6070 C 551.662 -1.38215 5.0254 0
M  V30 6071 C 548.99 -1.07574 5.76754 0
M  V30 6072 C 551.342 -0.847638 6.26895 0
M  V30 6073 C 550.006 -0.688946 6.63935 0
M  V30 6074 H 549.276 -0.448087 0.590168 0
M  V30 6075 H 551.923 -0.520744 1.84284 0
M  V30 6076 H 550.228 -3.05538 2.45263 0
M  V30 6077 H 551.925 -2.87212 2.7984 0
M  V30 6078 H 548.515 -1.89276 3.84542 0
M  V30 6079 H 552.699 -1.48276 4.73633 0
M  V30 6080 H 547.955 -0.940237 6.04127 0
M  V30 6081 H 552.129 -0.538455 6.94315 0
M  V30 6082 H 549.756 -0.261435 7.5975 0
M  V30 6083 N 551.331 -1.39911 -0.725443 0
M  V30 6084 C 552.747 -1.21725 -1.03224 0
M  V30 6085 C 552.947 -0.0855224 -2.01318 0
M  V30 6086 O 552.003 0.55976 -2.46217 0
M  V30 6087 C 553.316 -2.55511 -1.58539 0
M  V30 6088 C 554.864 -2.62439 -1.70572 0
M  V30 6089 C 555.339 -3.9647 -2.29294 0
M  V30 6090 N 556.83 -3.98159 -2.36692 0
M  V30 6091 C 557.565 -4.98647 -2.83088 0
M  V30 6092 N 557.061 -6.0953 -3.2931 0
M  V30 6093 N 558.854 -4.8602 -2.82384 0
M  V30 6094 H 551.005 -2.12267 -0.075048 0
M  V30 6095 H 553.268 -0.943136 -0.0959066 0
M  V30 6096 H 552.974 -3.38926 -0.939249 0
M  V30 6097 H 552.848 -2.75905 -2.57208 0
M  V30 6098 H 555.235 -1.79401 -2.34306 0
M  V30 6099 H 555.316 -2.45885 -0.705297 0
M  V30 6100 H 554.96 -4.79942 -1.66186 0
M  V30 6101 H 554.89 -4.10349 -3.30032 0
M  V30 6102 H 557.381 -3.18085 -2.04035 0
M  V30 6103 H 557.694 -6.82106 -3.6325 0
M  V30 6104 H 556.039 -6.1311 -3.27294 0
M  V30 6105 H 559.23 -3.98493 -2.45603 0
M  V30 6106 H 559.403 -5.64478 -3.18226 0
M  V30 6107 N 552.809 0.956637 -1.25245 0
M  V30 6108 C 554.057 1.69764 -1.09657 0
M  V30 6109 C 554.378 1.91583 0.363464 0
M  V30 6110 O 553.648 1.50149 1.25825 0
M  V30 6111 H 552.228 0.629097 -0.402798 0
M  V30 6112 H 554.89 1.15026 -1.57337 0
M  V30 6113 H 553.986 2.67769 -1.60331 0
M  V30 6114 N 554.287 1.06798 1.15896 0
M  V30 6115 C 555.517 0.807522 1.90165 0
M  V30 6116 C 555.925 -0.642417 1.7796 0
M  V30 6117 O 555.268 -1.45193 1.12537 0
M  V30 6118 C 555.33 1.12939 3.41299 0
M  V30 6119 C 554.994 2.57879 3.7729 0
M  V30 6120 C 555.991 3.56118 3.78782 0
M  V30 6121 C 553.676 2.93311 4.07767 0
M  V30 6122 C 555.67 4.87827 4.10248 0
M  V30 6123 C 553.357 4.25219 4.38899 0
M  V30 6124 C 554.355 5.22287 4.4012 0
M  V30 6125 O 554.043 6.51826 4.70508 0
M  V30 6126 H 553.775 0.291946 0.609708 0
M  V30 6127 H 556.329 1.42627 1.47806 0
M  V30 6128 H 554.559 0.45359 3.84031 0
M  V30 6129 H 556.248 0.852363 3.9685 0
M  V30 6130 H 557.014 3.30086 3.55342 0
M  V30 6131 H 552.893 2.18409 4.05979 0
M  V30 6132 H 556.437 5.63586 4.11116 0
M  V30 6133 H 552.334 4.51006 4.61805 0
M  V30 6134 H 553.102 6.56893 4.88298 0
M  V30 6135 N 555.766 -1.3263 0.851289 0
M  V30 6136 C 557.014 -1.96978 0.452128 0
M  V30 6137 C 557.335 -1.67715 -0.99482 0
M  V30 6138 O 556.605 -0.98259 -1.69476 0
M  V30 6139 H 555.185 -0.72873 0.164202 0
M  V30 6140 H 557.847 -1.61774 1.08698 0
M  V30 6141 H 556.943 -3.06387 0.594407 0
M  V30 6142 N 557.244 -0.608902 -1.45362 0
M  V30 6143 C 558.174 0.0964526 -2.33301 0
M  V30 6144 C 559.155 0.857444 -1.46908 0
M  V30 6145 O 560.34 0.827735 -1.75676 0
M  V30 6146 C 557.47 1.09354 -3.29635 0
M  V30 6147 C 556.424 0.445676 -4.25673 0
M  V30 6148 C 555.75 1.5511 -5.11708 0
M  V30 6149 C 557.05 -0.633972 -5.18438 0
M  V30 6150 H 558.744 -0.637829 -2.92527 0
M  V30 6151 H 556.29 -0.308178 -1.40664 0
M  V30 6152 H 558.243 1.59556 -3.90025 0
M  V30 6153 H 556.967 1.85843 -2.6857 0
M  V30 6154 H 555.626 -0.0354897 -3.66583 0
M  V30 6155 H 555.274 2.30631 -4.4701 0
M  V30 6156 H 554.974 1.12311 -5.76767 0
M  V30 6157 H 556.498 2.05537 -5.74967 0
M  V30 6158 H 557.912 -0.215974 -5.72893 0
M  V30 6159 H 556.309 -0.983789 -5.91981 0
M  V30 6160 H 557.379 -1.51005 -4.60788 0
M  V30 6161 N 558.722 1.53707 -0.348139 0
M  V30 6162 C 559.97 2.00591 0.246478 0
M  V30 6163 C 560.291 1.23753 1.50699 0
M  V30 6164 O 559.561 0.345964 1.92821 0
M  V30 6165 H 558.141 0.741053 0.0940679 0
M  V30 6166 H 560.803 1.89139 -0.470354 0
M  V30 6167 H 559.899 3.08297 0.485714 0
M  V30 6168 N 560.2 0.0768682 1.57412 0
M  V30 6169 C 561.15 -0.898795 2.09537 0
M  V30 6170 C 562.134 -1.25556 1.0062 0
M  V30 6171 O 563.326 -1.23369 1.26921 0
M  V30 6172 C 560.455 -2.16453 2.66464 0
M  V30 6173 C 559.541 -1.83401 3.82393 0
M  V30 6174 N 559.932 -1.20823 4.91157 0
M  V30 6175 C 558.23 -2.13121 3.91785 0
M  V30 6176 C 558.931 -1.05976 5.71965 0
M  V30 6177 N 557.907 -1.57113 5.204 0
M  V30 6178 H 561.709 -0.410718 2.91016 0
M  V30 6179 H 559.223 -0.126878 1.61904 0
M  V30 6180 H 561.22 -2.87274 3.02125 0
M  V30 6181 H 559.88 -2.65844 1.86433 0
M  V30 6182 H 560.891 -0.877249 5.10416 0
M  V30 6183 H 557.568 -2.64854 3.22736 0
M  V30 6184 H 558.958 -0.571809 6.69462 0
M  V30 6185 N 561.678 -1.56367 -0.196722 0
M  V30 6186 C 562.918 -1.82315 -0.92415 0
M  V30 6187 C 563.282 -0.654117 -1.80514 0
M  V30 6188 O 564.483 -0.79345 -2.56823 0
M  V30 6189 C 562.754 -3.13279 -1.72021 0
M  V30 6190 S 564.313 -3.60627 -2.49988 0
M  V30 6191 H 561.131 -0.639862 -0.309997 0
M  V30 6192 H 563.733 -1.94597 -0.187684 0
M  V30 6193 H 562.437 -3.96379 -1.06358 0
M  V30 6194 H 561.968 -3.03871 -2.49852 0
M  V30 6195 H 563.983 -3.25934 -3.74141 0
M  V30 6196 N 563.156 0.464375 -1.50603 0
M  V30 6197 C 564.086 1.56944 -1.72889 0
M  V30 6198 C 565.067 1.59979 -0.577997 0
M  V30 6199 O 566.252 1.76138 -0.817855 0
M  V30 6200 C 563.382 2.95225 -1.8292 0
M  V30 6201 C 562.336 3.07056 -2.98162 0
M  V30 6202 C 561.662 4.47051 -2.93343 0
M  V30 6203 C 562.962 2.83648 -4.38567 0
M  V30 6204 H 564.656 1.38547 -2.65415 0
M  V30 6205 H 562.202 0.665082 -1.27721 0
M  V30 6206 H 564.155 3.72467 -1.97095 0
M  V30 6207 H 562.879 3.14793 -0.870209 0
M  V30 6208 H 561.538 2.32248 -2.83648 0
M  V30 6209 H 561.186 4.63547 -1.95276 0
M  V30 6210 H 560.886 4.55902 -3.70712 0
M  V30 6211 H 562.41 5.26304 -3.09575 0
M  V30 6212 H 563.824 3.50636 -4.53572 0
M  V30 6213 H 562.221 3.03937 -5.17438 0
M  V30 6214 H 563.291 1.79451 -4.50472 0
M  V30 6215 N 564.634 1.40294 0.718013 0
M  V30 6216 C 565.566 1.36281 1.84283 0
M  V30 6217 C 566.579 0.268621 1.60569 0
M  V30 6218 O 567.768 0.528798 1.70487 0
M  V30 6219 C 564.868 1.09741 3.2064 0
M  V30 6220 C 564.041 2.30767 3.71571 0
M  V30 6221 C 563.1 2.00424 4.86535 0
M  V30 6222 O 562.126 2.73268 4.99313 0
M  V30 6223 N 563.328 0.980724 5.72156 0
M  V30 6224 H 566.093 2.3322 1.88225 0
M  V30 6225 H 563.654 1.34616 0.899453 0
M  V30 6226 H 565.646 0.874322 3.95143 0
M  V30 6227 H 564.216 0.214771 3.11861 0
M  V30 6228 H 563.436 2.68921 2.88228 0
M  V30 6229 H 564.724 3.11455 4.02335 0
M  V30 6230 H 564.122 0.377375 5.6444 0
M  V30 6231 H 562.679 0.817538 6.46653 0
M  V30 6232 N 566.112 -0.949982 1.2575 0
M  V30 6233 C 567.075 -2.02894 1.06615 0
M  V30 6234 C 568.075 -1.60791 0.0173905 0
M  V30 6235 O 569.265 -1.72249 0.260003 0
M  V30 6236 C 566.397 -3.35219 0.619751 0
M  V30 6237 H 567.59 -2.21302 2.02399 0
M  V30 6238 H 565.143 -1.12772 1.08223 0
M  V30 6239 H 565.878 -3.22508 -0.340486 0
M  V30 6240 H 565.663 -3.67129 1.37692 0
M  V30 6241 H 567.153 -4.14505 0.507443 0
M  V30 6242 N 567.59 -1.07411 -1.15328 0
M  V30 6243 C 569.006 -0.799759 -1.38116 0
M  V30 6244 C 569.206 0.59572 -1.92493 0
M  V30 6245 O 568.262 1.35433 -2.13106 0
M  V30 6246 C 569.575 -1.87407 -2.35158 0
M  V30 6247 C 571.123 -1.89889 -2.48819 0
M  V30 6248 C 571.598 -2.96406 -3.49153 0
M  V30 6249 N 573.089 -2.95512 -3.56689 0
M  V30 6250 C 573.824 -3.74575 -4.34144 0
M  V30 6251 N 573.32 -4.63488 -5.14928 0
M  V30 6252 N 575.113 -3.62919 -4.29239 0
M  V30 6253 H 567.264 -1.97411 -0.78374 0
M  V30 6254 H 569.527 -0.856113 -0.407154 0
M  V30 6255 H 569.233 -2.8768 -2.0232 0
M  V30 6256 H 569.107 -1.73471 -3.34944 0
M  V30 6257 H 571.494 -0.902677 -2.80955 0
M  V30 6258 H 571.575 -2.07904 -1.49029 0
M  V30 6259 H 571.219 -3.96227 -3.17752 0
M  V30 6260 H 571.149 -2.75638 -4.48699 0
M  V30 6261 H 573.64 -2.31061 -2.99031 0
M  V30 6262 H 573.953 -5.20445 -5.71276 0
M  V30 6263 H 572.298 -4.67537 -5.14232 0
M  V30 6264 H 575.489 -2.92833 -3.65194 0
M  V30 6265 H 575.662 -4.24777 -4.89355 0
M  V30 6266 N 569.068 1.32177 -0.85831 0
M  V30 6267 C 570.345 1.91781 -0.384624 0
M  V30 6268 C 570.725 1.78171 1.13217 0
M  V30 6269 O 570.073 1.18209 1.95548 0
M  V30 6270 C 570.283 3.38414 -0.853047 0
M  V30 6271 C 571.631 4.15542 -0.872359 0
M  V30 6272 O 572.655 3.47148 -0.797926 0
M  V30 6273 O 571.514 5.37678 -0.978009 0
M  V30 6274 H 568.608 0.819259 -0.112886 0
M  V30 6275 H 571.154 1.40923 -0.945453 0
M  V30 6276 H 569.926 3.4228 -1.89632 0
M  V30 6277 H 569.549 3.96683 -0.269874 0
M  V30 6278 N 570.547 0.616602 1.45037 0
M  V30 6279 C 571.795 0.115103 2.01772 0
M  V30 6280 C 572.116 -1.2622 1.48639 0
M  V30 6281 O 571.386 -1.83563 0.684199 0
M  V30 6282 H 569.966 0.0395607 0.745952 0
M  V30 6283 H 572.628 0.800032 1.77723 0
M  V30 6284 H 571.724 0.0717274 3.12018 0
M  V30 6285 N 572.025 -1.5352 0.356285 0
M  V30 6286 C 573.273 -2.00719 -0.235837 0
M  V30 6287 C 573.594 -1.24551 -1.5004 0
M  V30 6288 O 572.864 -0.356185 -1.92635 0
M  V30 6289 H 571.444 -0.741542 -0.0901366 0
M  V30 6290 H 574.106 -1.88887 0.480378 0
M  V30 6291 H 573.202 -3.08551 -0.469357 0
M  V30 6292 N 573.503 -0.0852151 -1.57369 0
M  V30 6293 C 574.914 0.445428 -1.81309 0
M  V30 6294 C 575.265 1.68795 -1.00013 0
M  V30 6295 O 574.39 2.15211 -0.226573 0
M  V30 6296 C 574.985 0.814887 -3.28854 0
M  V30 6297 C 573.544 1.29032 -3.53592 0
M  V30 6298 C 572.691 0.282089 -2.75861 0
M  V30 6299 H 575.642 -0.310771 -1.55627 0
M  V30 6300 H 575.663 1.67524 -3.41637 0
M  V30 6301 H 575.175 -0.0896309 -3.87996 0
M  V30 6302 H 573.276 2.21289 -2.9977 0
M  V30 6303 H 573.389 1.25898 -4.62262 0
M  V30 6304 H 571.753 0.762182 -2.43029 0
M  V30 6305 H 572.536 -0.614936 -3.37748 0
M  V30 6306 N 574.981 1.5647 0.188427 0
M  V30 6307 C 575.914 1.90146 1.26173 0
M  V30 6308 C 576.892 0.762294 1.43624 0
M  V30 6309 O 578.076 1.01395 1.58907 0
M  V30 6310 C 575.203 2.13748 2.62735 0
M  V30 6311 C 574.249 3.36448 2.62116 0
M  V30 6312 S 575.082 4.91364 2.12889 0
M  V30 6313 C 576.238 5.18041 3.51261 0
M  V30 6314 H 576.471 2.80886 0.974192 0
M  V30 6315 H 574.004 1.49335 0.392226 0
M  V30 6316 H 575.962 2.28028 3.41341 0
M  V30 6317 H 574.623 1.23747 2.88696 0
M  V30 6318 H 573.816 3.50109 3.62546 0
M  V30 6319 H 573.418 3.21196 1.91596 0
M  V30 6320 H 575.71 5.0897 4.47164 0
M  V30 6321 H 576.653 6.19764 3.42489 0
M  V30 6322 H 577.061 4.45657 3.46482 0
M  V30 6323 N 576.459 -0.456382 1.50847 0
M  V30 6324 C 577.369 -1.57805 1.73594 0
M  V30 6325 C 578.385 -1.62599 0.619476 0
M  V30 6326 O 579.561 -1.80195 0.899532 0
M  V30 6327 C 576.626 -2.93926 1.8387 0
M  V30 6328 C 575.687 -2.99402 3.07663 0
M  V30 6329 C 574.92 -4.29031 3.1744 0
M  V30 6330 O 575.143 -5.20358 2.33631 0
M  V30 6331 O 574.077 -4.40401 4.10281 0
M  V30 6332 H 577.903 -1.41531 2.68705 0
M  V30 6333 H 575.488 -0.637422 1.3512 0
M  V30 6334 H 577.37 -3.74747 1.92725 0
M  V30 6335 H 576.045 -3.10368 0.91944 0
M  V30 6336 H 574.952 -2.17606 3.043 0
M  V30 6337 H 576.285 -2.87901 3.99216 0
M  V30 6338 N 577.937 -1.40673 -0.710563 0
M  V30 6339 C 579.185 -1.38947 -1.46759 0
M  V30 6340 C 579.506 0.00572879 -1.94999 0
M  V30 6341 O 578.776 0.961358 -1.70689 0
M  V30 6342 H 577.356 -0.5114 -0.544499 0
M  V30 6343 H 580.018 -1.75773 -0.842012 0
M  V30 6344 H 579.114 -2.06745 -2.33801 0
M  V30 6345 N 579.415 0.9433 -1.26252 0
M  V30 6346 C 580.64 1.72898 -1.14547 0
M  V30 6347 C 581.065 1.85761 0.295743 0
M  V30 6348 O 580.423 1.3463 1.21427 0
M  V30 6349 C 580.471 3.11471 -1.8171 0
M  V30 6350 O 579.575 3.97336 -1.10445 0
M  V30 6351 H 578.916 0.530555 -0.399259 0
M  V30 6352 H 581.446 1.18159 -1.67032 0
M  V30 6353 H 581.456 3.61872 -1.88449 0
M  V30 6354 H 580.131 3.01425 -2.86558 0
M  V30 6355 H 578.708 3.55788 -1.11666 0
M  V30 6356 N 580.893 1.08022 1.14757 0
M  V30 6357 C 582.141 0.805913 1.85336 0
M  V30 6358 C 582.462 -0.670162 1.83122 0
M  V30 6359 O 581.732 -1.48567 1.2769 0
M  V30 6360 H 580.312 0.295138 0.686223 0
M  V30 6361 H 582.974 1.36538 1.3908 0
M  V30 6362 H 582.07 1.14655 2.90277 0
M  V30 6363 N 582.371 -1.3172 0.865308 0
M  V30 6364 C 583.62 -1.96145 0.470098 0
M  V30 6365 C 583.933 -1.69182 -0.981674 0
M  V30 6366 O 585.139 -2.27431 -1.48281 0
M  V30 6367 C 583.595 -3.51129 0.789732 0
M  V30 6368 C 583.203 -3.86938 2.25795 0
M  V30 6369 C 584.947 -4.2197 0.462765 0
M  V30 6370 C 582.854 -5.35012 2.52024 0
M  V30 6371 H 581.784 -0.734105 0.172065 0
M  V30 6372 H 584.435 -1.49959 1.05757 0
M  V30 6373 H 582.817 -3.95781 0.131571 0
M  V30 6374 H 583.991 -3.5326 2.95879 0
M  V30 6375 H 582.306 -3.29149 2.55049 0
M  V30 6376 H 584.903 -5.30904 0.636019 0
M  V30 6377 H 585.246 -4.12005 -0.59645 0
M  V30 6378 H 585.779 -3.82936 1.07727 0
M  V30 6379 H 582.518 -5.50008 3.56611 0
M  V30 6380 H 582.038 -5.70058 1.8653 0
M  V30 6381 H 583.717 -6.0222 2.36515 0
M  V30 6382 N 583.85 -0.624285 -1.44708 0
M  V30 6383 C 585.08 -0.132726 -2.06173 0
M  V30 6384 C 585.488 1.19513 -1.46674 0
M  V30 6385 O 584.831 1.74254 -0.581491 0
M  V30 6386 C 584.893 0.0636732 -3.59444 0
M  V30 6387 C 584.557 -1.18496 -4.4137 0
M  V30 6388 C 585.553 -2.10706 -4.75288 0
M  V30 6389 C 583.239 -1.41846 -4.81856 0
M  V30 6390 C 585.233 -3.24582 -5.48567 0
M  V30 6391 C 582.92 -2.5602 -5.54885 0
M  V30 6392 C 583.918 -3.47215 -5.88159 0
M  V30 6393 O 583.606 -4.59399 -6.59703 0
M  V30 6394 H 583.338 -0.0737313 -0.671967 0
M  V30 6395 H 585.892 -0.856789 -1.86677 0
M  V30 6396 H 584.122 0.842809 -3.77404 0
M  V30 6397 H 585.811 0.508924 -4.02697 0
M  V30 6398 H 586.577 -1.93898 -4.44554 0
M  V30 6399 H 582.456 -0.717556 -4.55381 0
M  V30 6400 H 586 -3.95785 -5.74456 0
M  V30 6401 H 581.897 -2.72774 -5.85034 0
M  V30 6402 H 582.665 -4.58293 -6.78166 0
M  V30 6403 N 585.328 1.53329 -0.364422 0
M  V30 6404 C 586.553 2.06132 0.229033 0
M  V30 6405 C 586.978 1.23625 1.41769 0
M  V30 6406 O 586.336 0.255038 1.79497 0
M  V30 6407 C 586.384 3.55544 0.60174 0
M  V30 6408 O 585.488 3.75771 1.69912 0
M  V30 6409 H 584.829 0.663148 0.0336213 0
M  V30 6410 H 587.359 1.97758 -0.524689 0
M  V30 6411 H 587.369 3.98549 0.873073 0
M  V30 6412 H 586.044 4.15039 -0.267421 0
M  V30 6413 H 584.621 3.44663 1.42343 0
M  V30 6414 N 586.806 0.0935595 1.57322 0
M  V30 6415 C 588.217 -0.435807 1.81542 0
M  V30 6416 C 588.568 -1.68263 1.00907 0
M  V30 6417 O 587.693 -2.15087 0.237983 0
M  V30 6418 C 588.288 -0.797436 3.29282 0
M  V30 6419 C 586.847 -1.27155 3.54272 0
M  V30 6420 C 585.994 -0.267455 2.76007 0
M  V30 6421 H 588.945 0.31902 1.5546 0
M  V30 6422 H 588.966 -1.6571 3.42521 0
M  V30 6423 H 588.478 0.110206 3.87943 0
M  V30 6424 H 586.579 -2.19696 3.00939 0
M  V30 6425 H 586.692 -1.23445 4.62923 0
M  V30 6426 H 585.056 -0.749282 2.43429 0
M  V30 6427 H 585.839 0.632839 3.37417 0
M  V30 6428 N 588.284 -1.56567 -0.180126 0
M  V30 6429 C 589.216 -1.92275 -1.24751 0
M  V30 6430 C 590.229 -0.814922 -1.40936 0
M  V30 6431 O 591.418 -1.09336 -1.41095 0
M  V30 6432 C 588.518 -2.15265 -2.61752 0
M  V30 6433 C 587.691 -3.46467 -2.66981 0
M  V30 6434 C 586.75 -3.58391 -3.85283 0
M  V30 6435 O 585.776 -4.31086 -3.7169 0
M  V30 6436 N 586.978 -2.92587 -5.01371 0
M  V30 6437 H 589.743 -2.84435 -0.944302 0
M  V30 6438 H 587.304 -1.57617 -0.369952 0
M  V30 6439 H 589.296 -2.20515 -3.39345 0
M  V30 6440 H 587.866 -1.29533 -2.845 0
M  V30 6441 H 587.086 -3.52953 -1.75549 0
M  V30 6442 H 588.374 -4.32819 -2.67479 0
M  V30 6443 H 587.772 -2.3338 -5.15316 0
M  V30 6444 H 586.329 -3.03444 -5.76858 0
M  V30 6445 N 589.762 0.448376 -1.51087 0
M  V30 6446 C 591.173 1.0286 -1.5581 0
M  V30 6447 C 591.524 1.92583 -0.374989 0
M  V30 6448 O 590.649 2.10316 0.509533 0
M  V30 6449 C 591.244 1.87223 -2.8237 0
M  V30 6450 C 589.803 2.40314 -2.897 0
M  V30 6451 C 588.95 1.19238 -2.50355 0
M  V30 6452 H 591.901 0.230075 -1.57023 0
M  V30 6453 H 591.922 2.72553 -2.6551 0
M  V30 6454 H 591.434 1.21894 -3.68461 0
M  V30 6455 H 589.535 3.09129 -2.08014 0
M  V30 6456 H 589.648 2.73866 -3.93108 0
M  V30 6457 H 588.012 1.53428 -2.03303 0
M  V30 6458 H 588.795 0.555367 -3.38778 0
M  V30 6459 N 591.24 1.41047 0.703093 0
M  V30 6460 C 592.651 1.35657 1.28274 0
M  V30 6461 C 593.002 0.0360309 1.96167 0
M  V30 6462 O 592.127 -0.865833 1.98324 0
M  V30 6463 C 592.722 2.45707 2.33267 0
M  V30 6464 C 591.281 2.43738 2.86825 0
M  V30 6465 C 590.428 2.25941 1.60767 0
M  V30 6466 H 593.379 1.50672 0.49836 0
M  V30 6467 H 593.4 2.14333 3.14391 0
M  V30 6468 H 592.912 3.41805 1.83824 0
M  V30 6469 H 591.013 1.51375 3.40465 0
M  V30 6470 H 591.126 3.39779 3.37768 0
M  V30 6471 H 589.49 1.73681 1.86298 0
M  V30 6472 H 590.273 3.24054 1.1333 0
M  V30 6473 N 592.718 -0.936591 1.26751 0
M  V30 6474 C 593.681 -2.01752 1.08761 0
M  V30 6475 C 594.681 -1.60763 0.0344435 0
M  V30 6476 O 595.871 -1.71963 0.278258 0
M  V30 6477 C 593.003 -3.34543 0.655271 0
M  V30 6478 H 594.196 -2.19143 2.04735 0
M  V30 6479 H 591.749 -1.11618 1.09413 0
M  V30 6480 H 592.484 -3.22851 -0.30626 0
M  V30 6481 H 592.269 -3.65647 1.41578 0
M  V30 6482 H 593.759 -4.13944 0.551378 0
M  V30 6483 N 594.196 -1.08629 -1.14182 0
M  V30 6484 C 595.607 -0.838003 -1.66836 0
M  V30 6485 C 595.958 0.634885 -1.85644 0
M  V30 6486 O 595.083 1.49008 -1.56926 0
M  V30 6487 C 595.678 -1.51465 -3.03058 0
M  V30 6488 C 594.237 -1.31355 -3.52736 0
M  V30 6489 C 593.384 -1.57599 -2.28162 0
M  V30 6490 H 596.335 -1.24656 -0.982165 0
M  V30 6491 H 596.356 -0.943134 -3.68626 0
M  V30 6492 H 595.868 -2.58661 -2.89337 0
M  V30 6493 H 593.969 -0.262384 -3.71675 0
M  V30 6494 H 594.082 -2.04275 -4.33369 0
M  V30 6495 H 592.446 -0.997659 -2.34348 0
M  V30 6496 H 593.229 -2.66006 -2.17015 0
M  V30 6497 N 595.674 1.31259 -0.872281 0
M  V30 6498 C 596.604 2.30929 -0.345554 0
M  V30 6499 C 597.585 1.60449 0.5648 0
M  V30 6500 O 598.77 1.8814 0.481335 0
M  V30 6501 C 595.9 3.44348 0.451823 0
M  V30 6502 C 594.854 4.26435 -0.365641 0
M  V30 6503 C 594.18 5.31785 0.557562 0
M  V30 6504 C 595.48 4.97159 -1.60095 0
M  V30 6505 H 597.174 2.75234 -1.17841 0
M  V30 6506 H 594.72 1.3232 -0.568094 0
M  V30 6507 H 596.673 4.13128 0.830854 0
M  V30 6508 H 595.397 2.98816 1.31821 0
M  V30 6509 H 594.056 3.59326 -0.726649 0
M  V30 6510 H 593.704 4.82502 1.4213 0
M  V30 6511 H 593.404 5.87598 0.0144878 0
M  V30 6512 H 594.928 6.03424 0.933387 0
M  V30 6513 H 596.342 5.58523 -1.29323 0
M  V30 6514 H 594.739 5.62779 -2.08327 0
M  V30 6515 H 595.809 4.24012 -2.35249 0
M  V30 6516 N 597.152 0.631951 1.44375 0
M  V30 6517 C 598.082 -0.0593243 2.33425 0
M  V30 6518 C 599.063 -0.833964 1.48253 0
M  V30 6519 O 600.248 -0.799682 1.76971 0
M  V30 6520 C 597.378 -1.04096 3.31333 0
M  V30 6521 C 596.332 -0.377899 4.26328 0
M  V30 6522 C 595.658 -1.4695 5.14111 0
M  V30 6523 C 596.958 0.716371 5.17364 0
M  V30 6524 H 598.652 0.684287 2.91475 0
M  V30 6525 H 596.198 0.330518 1.40156 0
M  V30 6526 H 598.151 -1.53331 3.92514 0
M  V30 6527 H 596.875 -1.81547 2.71493 0
M  V30 6528 H 595.534 0.0938054 3.6648 0
M  V30 6529 H 595.182 -2.2349 4.50623 0
M  V30 6530 H 594.882 -1.03121 5.78481 0
M  V30 6531 H 596.406 -1.96363 5.78164 0
M  V30 6532 H 597.82 0.307089 5.72477 0
M  V30 6533 H 596.217 1.07784 5.90341 0
M  V30 6534 H 597.287 1.58316 4.58327 0
M  V30 6535 N 598.631 -1.53133 0.372548 0
M  V30 6536 C 600.047 -1.59585 0.02178 0
M  V30 6537 C 600.247 -1.38736 -1.46132 0
M  V30 6538 O 599.303 -1.19599 -2.22379 0
M  V30 6539 C 600.616 -2.9678 0.483959 0
M  V30 6540 C 602.164 -3.09909 0.438775 0
M  V30 6541 C 602.639 -4.49527 0.876876 0
M  V30 6542 N 604.13 -4.55663 0.832214 0
M  V30 6543 C 604.865 -5.61896 1.14281 0
M  V30 6544 N 604.361 -6.75852 1.52303 0
M  V30 6545 N 606.154 -5.51916 1.06515 0
M  V30 6546 H 598.305 -1.64936 1.33827 0
M  V30 6547 H 600.568 -0.773947 0.547458 0
M  V30 6548 H 600.274 -3.17198 1.51915 0
M  V30 6549 H 600.148 -3.7699 -0.125784 0
M  V30 6550 H 602.535 -2.89197 -0.587294 0
M  V30 6551 H 602.616 -2.31691 1.0841 0
M  V30 6552 H 602.26 -4.70979 1.90109 0
M  V30 6553 H 602.19 -5.26186 0.208727 0
M  V30 6554 H 604.681 -3.73844 0.552195 0
M  V30 6555 H 604.994 -7.52862 1.7441 0
M  V30 6556 H 603.339 -6.77226 1.56175 0
M  V30 6557 H 606.53 -4.6177 0.767235 0
M  V30 6558 H 606.703 -6.34609 1.31053 0
M  V30 6559 N 600.109 -0.101901 -1.5727 0
M  V30 6560 C 601.019 0.868647 -2.17926 0
M  V30 6561 C 602.035 1.30527 -1.1506 0
M  V30 6562 O 603.211 1.37178 -1.47459 0
M  V30 6563 C 600.276 2.10727 -2.75309 0
M  V30 6564 C 599.337 1.7242 -3.93154 0
M  V30 6565 C 598.57 2.90377 -4.47791 0
M  V30 6566 O 598.793 4.05305 -4.01353 0
M  V30 6567 O 597.727 2.6845 -5.38719 0
M  V30 6568 H 601.553 0.382544 -3.01281 0
M  V30 6569 H 599.138 0.122812 -1.48894 0
M  V30 6570 H 601.02 2.83303 -3.11958 0
M  V30 6571 H 599.695 2.58376 -1.94996 0
M  V30 6572 H 598.602 0.970039 -3.61305 0
M  V30 6573 H 599.935 1.29528 -4.74851 0
M  V30 6574 N 601.587 1.56661 0.17182 0
M  V30 6575 C 602.835 1.81606 0.886774 0
M  V30 6576 C 603.156 0.678818 1.82803 0
M  V30 6577 O 602.426 -0.301354 1.93568 0
M  V30 6578 H 601.006 0.669934 0.330451 0
M  V30 6579 H 603.668 1.94142 0.171757 0
M  V30 6580 H 602.764 2.75634 1.46398 0
M  V30 6581 N 603.065 -0.440357 1.51323 0
M  V30 6582 C 603.975 -1.55955 1.75258 0
M  V30 6583 C 604.991 -1.61933 0.636687 0
M  V30 6584 O 606.167 -1.79231 0.918593 0
M  V30 6585 C 603.232 -2.9196 1.86977 0
M  V30 6586 C 602.293 -2.96122 3.10822 0
M  V30 6587 C 601.526 -4.2564 3.21973 0
M  V30 6588 O 601.749 -5.17851 2.39137 0
M  V30 6589 O 600.683 -4.36025 4.14929 0
M  V30 6590 H 604.509 -1.38673 2.70191 0
M  V30 6591 H 602.094 -0.623055 1.35788 0
M  V30 6592 H 603.976 -3.72682 1.96688 0
M  V30 6593 H 602.651 -3.09375 0.952307 0
M  V30 6594 H 601.558 -2.14366 3.06591 0
M  V30 6595 H 602.891 -2.83651 4.02247 0
M  V30 6596 N 604.543 -1.41418 -0.695603 0
M  V30 6597 C 605.771 -1.4413 -1.48439 0
M  V30 6598 C 606.186 -0.0465698 -1.88743 0
M  V30 6599 O 605.543 0.934117 -1.56782 0
M  V30 6600 C 605.594 -2.34998 -2.74696 0
M  V30 6601 O 605.315 -3.69043 -2.36091 0
M  V30 6602 C 606.816 -2.46513 -3.68438 0
M  V30 6603 H 604.036 -0.490905 -0.457442 0
M  V30 6604 H 606.58 -1.85702 -0.856454 0
M  V30 6605 H 604.735 -1.96735 -3.33728 0
M  V30 6606 H 605.149 -4.17505 -3.17474 0
M  V30 6607 H 606.623 -3.1426 -4.53811 0
M  V30 6608 H 607.1 -1.49638 -4.12922 0
M  V30 6609 H 607.706 -2.85412 -3.1531 0
M  V30 6610 N 606.021 0.929856 -1.27246 0
M  V30 6611 C 607.249 1.71144 -1.16265 0
M  V30 6612 C 607.664 1.867 0.280786 0
M  V30 6613 O 607.021 1.38249 1.19136 0
M  V30 6614 C 607.072 3.11222 -1.83911 0
M  V30 6615 O 606.793 2.96398 -3.22614 0
M  V30 6616 C 608.294 4.05541 -1.79028 0
M  V30 6617 H 605.514 0.535499 -0.404328 0
M  V30 6618 H 608.058 1.16492 -1.68077 0
M  V30 6619 H 606.213 3.6274 -1.36009 0
M  V30 6620 H 606.627 3.8494 -3.56261 0
M  V30 6621 H 608.101 5.01351 -2.30978 0
M  V30 6622 H 608.578 4.32589 -0.759168 0
M  V30 6623 H 609.184 3.59947 -2.26535 0
M  V30 6624 N 607.499 1.09233 1.13605 0
M  V30 6625 C 608.915 0.82163 1.36826 0
M  V30 6626 C 609.115 -0.565021 1.93416 0
M  V30 6627 O 608.171 -1.32026 2.15234 0
M  V30 6628 C 609.484 1.91124 2.32147 0
M  V30 6629 C 611.032 1.93824 2.45767 0
M  V30 6630 C 611.507 3.01923 3.44393 0
M  V30 6631 N 612.998 3.01149 3.51942 0
M  V30 6632 C 613.733 3.81434 4.2813 0
M  V30 6633 N 613.229 4.71621 5.07489 0
M  V30 6634 N 615.022 3.69702 4.23411 0
M  V30 6635 H 607.173 1.98633 0.752234 0
M  V30 6636 H 609.436 0.862482 0.393482 0
M  V30 6637 H 609.142 2.90862 1.97717 0
M  V30 6638 H 609.016 1.78777 3.32142 0
M  V30 6639 H 611.403 0.94726 2.79483 0
M  V30 6640 H 611.484 2.10248 1.45703 0
M  V30 6641 H 611.128 4.01232 3.11408 0
M  V30 6642 H 611.058 2.82742 4.44257 0
M  V30 6643 H 613.549 2.35789 2.95317 0
M  V30 6644 H 613.862 5.29468 5.62924 0
M  V30 6645 H 612.207 4.75658 5.06729 0
M  V30 6646 H 615.398 2.98606 3.60489 0
M  V30 6647 H 615.571 4.32509 4.82535 0
M  V30 6648 N 608.977 -1.30795 0.87923 0
M  V30 6649 C 609.924 -2.28282 0.339968 0
M  V30 6650 C 610.894 -1.56134 -0.566685 0
M  V30 6651 O 612.079 -1.84231 -0.496338 0
M  V30 6652 C 609.219 -3.42225 -0.444501 0
M  V30 6653 C 608.332 -4.29204 0.490717 0
M  V30 6654 C 607.467 -5.30302 -0.308784 0
M  V30 6655 C 606.506 -6.08929 0.622272 0
M  V30 6656 N 605.643 -7.01957 -0.14155 0
M  V30 6657 H 610.483 -2.73794 1.17647 0
M  V30 6658 H 608.02 -1.34682 0.591527 0
M  V30 6659 H 609.978 -4.07038 -0.915186 0
M  V30 6660 H 608.608 -2.97799 -1.24562 0
M  V30 6661 H 607.66 -3.6475 1.07988 0
M  V30 6662 H 608.972 -4.84045 1.20425 0
M  V30 6663 H 608.126 -6.00835 -0.841575 0
M  V30 6664 H 606.865 -4.7614 -1.05556 0
M  V30 6665 H 605.87 -5.37278 1.16674 0
M  V30 6666 H 607.095 -6.65178 1.36804 0
M  V30 6667 H 605.041 -6.50192 -0.870966 0
M  V30 6668 H 604.958 -7.54261 0.51246 0
M  V30 6669 H 606.226 -7.76741 -0.655271 0
M  V30 6670 N 610.455 -0.639598 -1.44038 0
M  V30 6671 C 611.385 0.0469443 -2.33453 0
M  V30 6672 C 612.366 0.82609 -1.48694 0
M  V30 6673 O 613.551 0.790285 -1.77393 0
M  V30 6674 C 610.681 1.02338 -3.3188 0
M  V30 6675 C 609.635 0.355284 -4.26523 0
M  V30 6676 C 608.961 1.44221 -5.14883 0
M  V30 6677 C 610.261 -0.743798 -5.16977 0
M  V30 6678 H 611.955 -0.699735 -2.91108 0
M  V30 6679 H 609.501 -0.337946 -1.39978 0
M  V30 6680 H 611.454 1.51247 -3.93322 0
M  V30 6681 H 610.178 1.80105 -2.72451 0
M  V30 6682 H 608.837 -0.113239 -3.66425 0
M  V30 6683 H 608.485 2.21097 -4.51802 0
M  V30 6684 H 608.185 1.00052 -5.79019 0
M  V30 6685 H 609.709 1.93295 -5.79197 0
M  V30 6686 H 611.123 -0.337444 -5.72306 0
M  V30 6687 H 609.52 -1.10914 -5.89761 0
M  V30 6688 H 610.59 -1.60745 -4.57481 0
M  V30 6689 N 611.933 1.52934 -0.380664 0
M  V30 6690 C 613.163 2.05587 0.204302 0
M  V30 6691 C 613.571 1.25288 1.41773 0
M  V30 6692 O 612.914 0.290394 1.8139 0
M  V30 6693 C 612.976 3.53624 0.647324 0
M  V30 6694 C 612.64 4.54765 -0.451465 0
M  V30 6695 C 613.637 5.03226 -1.30614 0
M  V30 6696 C 611.322 4.98508 -0.616025 0
M  V30 6697 C 613.316 5.94046 -2.31058 0
M  V30 6698 C 611.003 5.89131 -1.62381 0
M  V30 6699 C 612.001 6.36792 -2.46952 0
M  V30 6700 O 611.689 7.25626 -3.46009 0
M  V30 6701 H 611.421 0.675013 0.0365198 0
M  V30 6702 H 613.975 1.98125 -0.541827 0
M  V30 6703 H 612.205 3.58676 1.44529 0
M  V30 6704 H 613.894 3.89061 1.15698 0
M  V30 6705 H 614.66 4.70167 -1.19027 0
M  V30 6706 H 610.539 4.60989 0.0324987 0
M  V30 6707 H 614.083 6.3117 -2.97104 0
M  V30 6708 H 609.98 6.21603 -1.7401 0
M  V30 6709 H 610.748 7.43664 -3.41916 0
M  V30 6710 N 613.412 0.11024 1.57214 0
M  V30 6711 C 614.658 -0.550684 1.9518 0
M  V30 6712 C 614.991 -1.66885 0.993122 0
M  V30 6713 O 614.266 -1.94479 0.0287907 0
M  V30 6714 C 614.549 -1.09163 3.43155 0
M  V30 6715 C 614.402 0.0225198 4.49794 0
M  V30 6716 C 615.721 -1.98527 3.92778 0
M  V30 6717 H 612.84 -0.198706 0.709708 0
M  V30 6718 H 615.482 0.184024 1.89107 0
M  V30 6719 H 613.632 -1.71775 3.48462 0
M  V30 6720 H 615.304 0.657443 4.56591 0
M  V30 6721 H 613.547 0.686868 4.28328 0
M  V30 6722 H 614.218 -0.39706 5.5057 0
M  V30 6723 H 616.694 -1.458 3.8972 0
M  V30 6724 H 615.57 -2.33298 4.96853 0
M  V30 6725 H 615.831 -2.90846 3.32958 0
M  V30 6726 N 614.89 -1.56749 -0.16351 0
M  V30 6727 C 616.167 -1.73321 -0.906599 0
M  V30 6728 C 616.547 -0.673779 -2.00059 0
M  V30 6729 O 615.895 0.310121 -2.26386 0
M  V30 6730 C 616.105 -3.168 -1.46419 0
M  V30 6731 C 617.453 -3.77993 -1.93407 0
M  V30 6732 O 618.477 -3.20127 -1.56196 0
M  V30 6733 O 617.336 -4.79615 -2.61976 0
M  V30 6734 H 614.43 -0.708073 -0.427272 0
M  V30 6735 H 616.976 -1.69029 -0.150727 0
M  V30 6736 H 615.748 -3.85396 -0.677189 0
M  V30 6737 H 615.371 -3.2545 -2.28403 0
M  V30 6738 O 616.407 0.308401 -1.58528 0
M  V30 6739 H 617.098 0.955962 -1.68467 0
M  V30 END ATOM
M  V30 BEGIN BOND
M  V30 END BOND
M  V30 END CTAB
M  END
$$$$
