drugbank_target|Q15788 Nuclear receptor coactivator 1 (DB01645; DB04652; DB06832; DB06875; DB06908; DB06927; DB07009; DB07080; DB07119; DB07150; DB07198; DB07215; DB07230; DB07236; DB07530; DB07557; DB07724; DB08220; DB08231; DB08742; DB08915)
 OpenBabel12092120373D

  0  0  0     0  0            999 V3000
M  V30 BEGIN CTAB
M  V30 COUNTS 21721 21929 0 0 0
M  V30 BEGIN ATOM
M  V30 1 H -0.908 1.98254 -0.117106 0
M  V30 2 N 0 1.576 0 0
M  V30 3 C 0.933 2.03868 1.02534 0
M  V30 4 C 1.911 0.928543 1.3348 0
M  V30 5 O 3.095 1.19667 1.45644 0
M  V30 6 C 0.222 2.43627 2.35294 0
M  V30 7 C -0.732 3.65373 2.2001 0
M  V30 8 S 0.101 5.13292 1.52614 0
M  V30 9 C 1.257 5.56322 2.86805 0
M  V30 10 H 1.49 2.90518 0.631377 0
M  V30 11 H -0.977 1.52953 0.210867 0
M  V30 12 H 0.981 2.67203 3.11629 0
M  V30 13 H -0.358 1.57376 2.7183 0
M  V30 14 H -1.165 3.90944 3.18086 0
M  V30 15 H -1.563 3.418 1.51819 0
M  V30 16 H 0.729 5.58782 3.83104 0
M  V30 17 H 1.672 6.56266 2.65933 0
M  V30 18 H 2.08 4.83886 2.90714 0
M  V30 19 N 1.4781 -0.272755 1.55222 0
M  V30 20 C 2.7031 -1.02683 1.80197 0
M  V30 21 C 3.1281 -1.79142 0.573551 0
M  V30 22 O 2.4861 -1.74917 -0.476849 0
M  V30 23 C 2.5341 -1.9609 3.02624 0
M  V30 24 O 1.6381 -3.04863 2.77727 0
M  V30 25 H 0.9791 -0.293557 0.595584 0
M  V30 26 H 3.5091 -0.30159 2.02365 0
M  V30 27 H 3.5191 -2.38039 3.31363 0
M  V30 28 H 2.1941 -1.39851 3.91682 0
M  V30 29 H 0.7711 -2.67228 2.60084 0
M  V30 30 N 2.9562 -1.48159 -0.537278 0
M  V30 31 C 4.2042 -1.55497 -1.29094 0
M  V30 32 C 4.5252 -0.227454 -1.93669 0
M  V30 33 O 3.7952 0.750386 -1.80959 0
M  V30 34 H 2.3752 -0.572832 -0.47945 0
M  V30 35 H 5.0372 -1.84579 -0.625818 0
M  V30 36 H 4.1332 -2.33216 -2.07405 0
M  V30 37 N 4.4343 0.785586 -1.36625 0
M  V30 38 C 5.3643 1.91259 -1.33949 0
M  V30 39 C 6.3453 1.68795 -0.210325 0
M  V30 40 O 7.5303 1.89854 -0.408561 0
M  V30 41 C 4.6603 3.28339 -1.13186 0
M  V30 42 C 3.6143 3.65335 -2.22967 0
M  V30 43 C 2.9403 5.00806 -1.87342 0
M  V30 44 C 4.2403 3.7352 -3.65075 0
M  V30 45 H 5.9343 1.93755 -2.28253 0
M  V30 46 H 3.4803 0.930788 -1.09874 0
M  V30 47 H 5.4333 4.06804 -1.09948 0
M  V30 48 H 4.1573 3.2624 -0.153332 0
M  V30 49 H 2.8163 2.89169 -2.25337 0
M  V30 50 H 2.4643 4.95233 -0.880545 0
M  V30 51 H 2.1643 5.26529 -2.60846 0
M  V30 52 H 3.6883 5.81687 -1.85667 0
M  V30 53 H 5.1023 4.42168 -3.64911 0
M  V30 54 H 3.4993 4.10731 -4.37516 0
M  V30 55 H 4.5693 2.74527 -3.99703 0
M  V30 56 N 5.9124 1.20967 1.01018 0
M  V30 57 C 7.1604 1.02172 1.74371 0
M  V30 58 C 7.4814 -0.446414 1.89821 0
M  V30 59 O 6.7514 -1.32234 1.44537 0
M  V30 60 H 5.3314 0.375066 0.646014 0
M  V30 61 H 7.9934 1.52187 1.21758 0
M  V30 62 H 7.0894 1.48538 2.74487 0
M  V30 63 N 7.3905 -1.2043 1.01659 0
M  V30 64 C 8.6675 -1.8548 0.621004 0
M  V30 65 C 9.0475 -1.9091 -0.900919 0
M  V30 66 O 8.3955 -1.41694 -1.79263 0
M  V30 67 C 8.6055 -3.25119 1.2688 0
M  V30 68 C 9.9535 -4.01403 1.38423 0
M  V30 69 O 10.9775 -3.34473 1.22501 0
M  V30 70 O 9.8365 -5.21265 1.64151 0
M  V30 71 H 6.9305 -0.798761 0.214266 0
M  V30 72 H 9.4765 -1.28019 1.11396 0
M  V30 73 H 8.2485 -3.15932 2.30873 0
M  V30 74 H 7.8715 -3.90212 0.762917 0
M  V30 75 N 8.8686 -0.792821 -1.36206 0
M  V30 76 C 10.0936 -0.377701 -2.03932 0
M  V30 77 C 10.5186 0.998947 -1.59382 0
M  V30 78 O 9.8766 1.64421 -0.763903 0
M  V30 79 C 9.9246 -0.453635 -3.57735 0
M  V30 80 O 9.0286 0.538151 -4.08874 0
M  V30 81 H 8.3696 -0.159855 -0.644471 0
M  V30 82 H 10.8996 -1.07488 -1.7409 0
M  V30 83 H 10.9096 -0.318464 -4.06755 0
M  V30 84 H 9.5846 -1.45784 -3.89512 0
M  V30 85 H 8.1616 0.364359 -3.71116 0
M  V30 86 N 10.3467 1.47872 -0.545128 0
M  V30 87 C 11.5717 2.07391 -0.0190611 0
M  V30 88 C 11.9967 1.39688 1.25971 0
M  V30 89 O 11.3547 0.467816 1.7516 0
M  V30 90 C 11.4027 3.60188 0.172335 0
M  V30 91 O 10.5067 3.9339 1.23766 0
M  V30 92 H 9.8477 0.662411 -0.0459059 0
M  V30 93 H 12.3777 1.90066 -0.757365 0
M  V30 94 H 12.3877 4.06129 0.390305 0
M  V30 95 H 11.0627 4.08865 -0.761725 0
M  V30 96 H 9.6397 3.5921 1.00114 0
M  V30 97 N 11.8248 0.280983 1.55075 0
M  V30 98 C 13.0498 -0.340154 2.04592 0
M  V30 99 C 13.4748 -1.48246 1.15779 0
M  V30 100 O 12.8328 -1.80614 0.15761 0
M  V30 101 C 12.8808 -0.793104 3.5177 0
M  V30 102 O 11.9848 -1.89981 3.66034 0
M  V30 103 H 11.3258 -0.0694289 0.66036 0
M  V30 104 H 13.8558 0.416993 2.00306 0
M  V30 105 H 13.8658 -1.08729 3.93245 0
M  V30 106 H 12.5408 0.0426163 4.15878 0
M  V30 107 H 11.1178 -1.60771 3.36463 0
M  V30 108 N 13.3029 -1.57598 0.00835791 0
M  V30 109 C 14.5799 -1.82172 -0.712235 0
M  V30 110 C 14.9599 -0.887873 -1.9152 0
M  V30 111 O 14.3079 0.06146 -2.28417 0
M  V30 112 C 14.5179 -3.30875 -1.11008 0
M  V30 113 C 15.8659 -3.96826 -1.51044 0
M  V30 114 O 16.8899 -3.35248 -1.20364 0
M  V30 115 O 15.7489 -5.05318 -2.08125 0
M  V30 116 H 12.8429 -0.750435 -0.347529 0
M  V30 117 H 15.3889 -1.69665 0.0344523 0
M  V30 118 H 14.1609 -3.90481 -0.252982 0
M  V30 119 H 13.7839 -3.48412 -1.9156 0
M  V30 120 N 14.781 0.264519 -1.55364 0
M  V30 121 C 16.192 0.834936 -1.6699 0
M  V30 122 C 16.543 1.86718 -0.602552 0
M  V30 123 O 15.668 2.14899 0.254425 0
M  V30 124 C 16.263 1.5212 -3.02729 0
M  V30 125 C 14.822 2.03954 -3.16354 0
M  V30 126 C 13.969 0.884498 -2.62815 0
M  V30 127 H 16.92 0.0406869 -1.58648 0
M  V30 128 H 16.941 2.38853 -2.96191 0
M  V30 129 H 16.453 0.769668 -3.80392 0
M  V30 130 H 14.554 2.82041 -2.43482 0
M  V30 131 H 14.667 2.24902 -4.23032 0
M  V30 132 H 13.031 1.2802 -2.20188 0
M  V30 133 H 13.814 0.14634 -3.42988 0
M  V30 134 N 16.2591 1.48442 0.529413 0
M  V30 135 C 17.2221 1.62524 1.61612 0
M  V30 136 C 18.2221 0.498509 1.52877 0
M  V30 137 O 19.4121 0.76431 1.56537 0
M  V30 138 C 16.5441 1.59597 3.01233 0
M  V30 139 H 17.7371 2.59423 1.50465 0
M  V30 140 H 15.2901 1.37047 0.751514 0
M  V30 141 H 16.0251 0.641781 3.17886 0
M  V30 142 H 15.8101 2.41397 3.08982 0
M  V30 143 H 17.3001 1.72646 3.80241 0
M  V30 144 N 17.7372 -0.778329 1.37039 0
M  V30 145 C 18.6852 -1.91278 1.32345 0
M  V30 146 C 19.6792 -1.68051 0.213331 0
M  V30 147 O 20.8852 -1.75922 0.38098 0
M  V30 148 H 17.2602 -0.628909 0.412283 0
M  V30 149 H 19.2312 -1.92355 2.28127 0
M  V30 150 C 17.9802 -3.28455 1.14073 0
M  V30 151 H 17.3032 -3.46901 1.98746 0
M  V30 152 H 18.7432 -4.08152 1.14837 0
M  V30 153 C 17.2022 -3.36548 -0.154015 0
M  V30 154 O 17.7322 -3.85186 -1.13993 0
M  V30 155 N 15.9382 -2.89894 -0.202475 0
M  V30 156 H 15.4852 -2.50504 0.600476 0
M  V30 157 H 15.4432 -2.9569 -1.06841 0
M  V30 158 N 19.2153 -1.21501 -1.00376 0
M  V30 159 C 20.6263 -1.03146 -1.55621 0
M  V30 160 C 20.9773 0.408375 -1.91903 0
M  V30 161 O 20.1023 1.29177 -1.73616 0
M  V30 162 C 20.6973 -1.86612 -2.82775 0
M  V30 163 C 19.2563 -1.72586 -3.34501 0
M  V30 164 C 18.4033 -1.83747 -2.07683 0
M  V30 165 H 21.3543 -1.35505 -0.826081 0
M  V30 166 H 21.3753 -1.3771 -3.54706 0
M  V30 167 H 20.8873 -2.91399 -2.56336 0
M  V30 168 H 18.9883 -0.704877 -3.65872 0
M  V30 169 H 19.1013 -2.54623 -4.05837 0
M  V30 170 H 17.4653 -1.27069 -2.20739 0
M  V30 171 H 18.2483 -2.90044 -1.83655 0
M  V30 172 N 20.6934 1.19889 -1.02296 0
M  V30 173 C 21.9704 1.85148 -0.630832 0
M  V30 174 C 22.3504 1.91385 0.890782 0
M  V30 175 O 21.6984 1.42642 1.78509 0
M  V30 176 C 21.9084 3.24442 -1.28602 0
M  V30 177 C 23.2564 4.00663 -1.4055 0
M  V30 178 O 24.2804 3.33818 -1.24273 0
M  V30 179 O 23.1394 5.20387 -1.66913 0
M  V30 180 H 20.2334 0.797613 -0.218499 0
M  V30 181 H 22.7794 1.27427 -1.12074 0
M  V30 182 H 21.5514 3.14704 -2.32545 0
M  V30 183 H 21.1744 3.89802 -0.7836 0
M  V30 184 N 22.1715 0.800033 1.35784 0
M  V30 185 C 23.3965 0.388511 2.03729 0
M  V30 186 C 23.8215 -0.990481 1.5991 0
M  V30 187 O 23.1795 -1.64013 0.772612 0
M  V30 188 C 23.2275 0.4726 3.5749 0
M  V30 189 O 22.3315 -0.51646 4.09153 0
M  V30 190 H 21.6725 0.163271 0.643614 0
M  V30 191 H 24.2025 1.0841 1.73518 0
M  V30 192 H 24.2125 0.34003 4.06581 0
M  V30 193 H 22.8875 1.47848 3.88734 0
M  V30 194 H 21.4645 -0.344673 3.71304 0
M  V30 195 N 23.6496 -1.47581 0.552962 0
M  V30 196 C 24.5996 -2.26961 -0.217423 0
M  V30 197 C 25.5836 -1.34099 -0.889168 0
M  V30 198 O 26.7756 -1.58483 -0.788176 0
M  V30 199 C 23.9046 -3.19756 -1.24944 0
M  V30 200 C 22.9906 -4.20097 -0.581327 0
M  V30 201 N 23.3816 -5.04614 0.346171 0
M  V30 202 C 21.6796 -4.38099 -0.835767 0
M  V30 203 C 22.3806 -5.77052 0.733854 0
M  V30 204 N 21.3566 -5.43526 0.0896567 0
M  V30 205 H 25.1586 -2.89688 0.495761 0
M  V30 206 H 22.6726 -1.58068 0.372597 0
M  V30 207 H 24.6696 -3.75305 -1.81527 0
M  V30 208 H 23.3296 -2.58585 -1.96376 0
M  V30 209 H 24.3406 -5.12869 0.720098 0
M  V30 210 H 21.0176 -3.88102 -1.53892 0
M  V30 211 H 22.4076 -6.5504 1.49574 0
M  V30 212 N 25.1277 -0.289203 -1.54924 0
M  V30 213 C 26.0747 0.592115 -2.23075 0
M  V30 214 C 27.0447 1.13881 -1.20915 0
M  V30 215 O 28.2297 1.18551 -1.495 0
M  V30 216 C 25.3697 1.76376 -2.96623 0
M  V30 217 C 24.4827 1.24959 -4.13533 0
M  V30 218 C 23.6177 2.38416 -4.74691 0
M  V30 219 C 22.6567 1.84072 -5.83767 0
M  V30 220 N 21.7937 2.91057 -6.38929 0
M  V30 221 H 26.6337 0.00432038 -2.98 0
M  V30 222 H 24.1707 -0.00963529 -1.47097 0
M  V30 223 H 26.1287 2.45268 -3.3749 0
M  V30 224 H 24.7587 2.32337 -2.24097 0
M  V30 225 H 23.8107 0.453307 -3.77689 0
M  V30 226 H 25.1227 0.811662 -4.92152 0
M  V30 227 H 24.2767 3.15276 -5.18349 0
M  V30 228 H 23.0157 2.8553 -3.95378 0
M  V30 229 H 22.0207 1.05697 -5.39545 0
M  V30 230 H 23.2457 1.37877 -6.64956 0
M  V30 231 H 21.1917 3.37526 -5.62505 0
M  V30 232 H 21.1087 2.51724 -7.12861 0
M  V30 233 H 22.3767 3.6785 -6.87246 0
M  V30 234 N 26.6058 1.57591 -0.0167156 0
M  V30 235 C 28.0218 1.55946 0.339557 0
M  V30 236 C 28.2218 1.02109 1.73713 0
M  V30 237 O 27.2778 0.662303 2.43659 0
M  V30 238 C 28.5908 3.00037 0.199499 0
M  V30 239 C 30.1388 3.11805 0.273193 0
M  V30 240 C 30.6138 4.57713 0.162068 0
M  V30 241 N 32.1048 4.6268 0.219444 0
M  V30 242 C 32.8398 5.73185 0.157054 0
M  V30 243 N 32.3358 6.92786 0.0442936 0
M  V30 244 N 34.1288 5.61707 0.21014 0
M  V30 245 H 26.2798 1.90921 -0.930758 0
M  V30 246 H 28.5428 0.877674 -0.358319 0
M  V30 247 H 28.2488 3.4333 -0.76273 0
M  V30 248 H 28.1228 3.64387 0.974786 0
M  V30 249 H 30.5098 2.68433 1.22587 0
M  V30 250 H 30.5908 2.50201 -0.532256 0
M  V30 251 H 30.2348 5.01763 -0.78714 0
M  V30 252 H 30.1648 5.17283 0.986222 0
M  V30 253 H 32.6558 3.76649 0.307246 0
M  V30 254 H 32.9688 7.728 0.00304069 0
M  V30 255 H 31.3138 6.94999 0.00968457 0
M  V30 256 H 34.5048 4.6716 0.296546 0
M  V30 257 H 34.6778 6.47807 0.158054 0
M  V30 258 N 28.0839 -0.256276 1.55502 0
M  V30 259 C 29.0309 -1.31714 1.89526 0
M  V30 260 C 30.0009 -1.4828 0.748479 0
M  V30 261 O 31.1859 -1.62416 1.00128 0
M  V30 262 C 28.3259 -2.66933 2.18725 0
M  V30 263 C 27.4389 -2.58452 3.4616 0
M  V30 264 C 26.5739 -3.85961 3.64976 0
M  V30 265 C 25.6129 -3.72059 4.86044 0
M  V30 266 N 24.7499 -4.9144 5.01429 0
M  V30 267 H 29.5899 -1.01998 2.80001 0
M  V30 268 H 27.1269 -0.492413 1.38613 0
M  V30 269 H 29.0849 -3.4563 2.33657 0
M  V30 270 H 27.7149 -2.94816 1.31466 0
M  V30 271 H 26.7669 -1.71374 3.3961 0
M  V30 272 H 28.0789 -2.44085 4.34999 0
M  V30 273 H 27.2329 -4.73101 3.79816 0
M  V30 274 H 25.9719 -4.03215 2.74353 0
M  V30 275 H 24.9769 -2.83302 4.7119 0
M  V30 276 H 26.2019 -3.56309 5.78118 0
M  V30 277 H 24.1479 -5.09072 4.13741 0
M  V30 278 H 24.0649 -4.79668 5.84341 0
M  V30 279 H 25.3329 -5.80104 5.20672 0
M  V30 280 N 29.562 -1.4872 -0.521534 0
M  V30 281 C 30.81 -1.56857 -1.27437 0
M  V30 282 C 31.131 -0.247982 -1.93417 0
M  V30 283 O 30.401 0.731151 -1.81744 0
M  V30 284 H 28.981 -0.577885 -0.473347 0
M  V30 285 H 31.643 -1.85233 -0.606205 0
M  V30 286 H 30.739 -2.35402 -2.0492 0
M  V30 287 N 31.0401 0.771051 -1.3745 0
M  V30 288 C 32.2651 1.56529 -1.36065 0
M  V30 289 C 32.6901 1.88029 0.0515859 0
M  V30 290 O 32.0481 1.49282 1.02882 0
M  V30 291 C 32.0961 2.85187 -2.20683 0
M  V30 292 O 31.2001 3.79593 -1.61193 0
M  V30 293 H 30.5411 0.47411 -0.464883 0
M  V30 294 H 33.0711 0.954269 -1.80983 0
M  V30 295 H 33.0811 3.34283 -2.33921 0
M  V30 296 H 31.7561 2.61588 -3.23334 0
M  V30 297 H 30.3331 3.38239 -1.56999 0
M  V30 298 N 32.5182 1.22032 0.997298 0
M  V30 299 C 33.9292 1.0397 1.55071 0
M  V30 300 C 34.2802 -0.398192 1.92117 0
M  V30 301 O 33.4052 -1.28254 1.74298 0
M  V30 302 C 34.0002 1.88109 2.81781 0
M  V30 303 C 32.5592 1.74357 3.33581 0
M  V30 304 C 31.7062 1.84846 2.06706 0
M  V30 305 H 34.6572 1.35941 0.818883 0
M  V30 306 H 34.6782 1.39589 3.53971 0
M  V30 307 H 34.1902 2.92754 2.54787 0
M  V30 308 H 32.2912 0.72427 3.65493 0
M  V30 309 H 32.4042 2.56772 4.04481 0
M  V30 310 H 30.7682 1.28238 2.20062 0
M  V30 311 H 31.5512 2.91014 1.82114 0
M  V30 312 N 33.9963 -1.19345 1.0293 0
M  V30 313 C 35.2363 -1.90738 0.734727 0
M  V30 314 C 35.6003 -1.7785 -0.723414 0
M  V30 315 O 36.8013 -2.43844 -1.13108 0
M  V30 316 C 35.0723 -3.37569 1.17396 0
M  V30 317 S 36.6313 -4.27176 1.00329 0
M  V30 318 H 33.4493 -0.658771 0.267474 0
M  V30 319 H 36.0513 -1.4428 1.31922 0
M  V30 320 H 34.7553 -3.44475 2.23081 0
M  V30 321 H 34.2863 -3.8906 0.582772 0
M  V30 322 H 36.3013 -4.96126 -0.0859152 0
M  V30 323 N 35.4744 -0.807222 -1.35358 0
M  V30 324 C 36.7514 -0.311126 -1.9311 0
M  V30 325 C 37.1314 1.19937 -1.73719 0
M  V30 326 O 36.4794 1.99918 -1.10657 0
M  V30 327 C 36.6894 -0.723226 -3.41424 0
M  V30 328 C 38.0374 -0.713078 -4.18569 0
M  V30 329 O 39.0614 -0.664811 -3.49941 0
M  V30 330 O 37.9204 -0.772022 -5.41019 0
M  V30 331 H 35.0144 -0.081526 -0.822972 0
M  V30 332 H 37.5604 -0.890962 -1.4443 0
M  V30 333 H 36.3324 -1.76426 -3.4927 0
M  V30 334 H 35.9554 -0.118232 -3.97424 0
M  V30 335 N 36.9525 1.47285 -0.560781 0
M  V30 336 C 38.1805 2.06855 -0.0430262 0
M  V30 337 C 38.5955 1.41291 1.25229 0
M  V30 338 O 37.9525 0.510648 1.7521 0
M  V30 339 C 38.0035 3.61178 0.152518 0
M  V30 340 O 37.7245 4.24285 -1.0915 0
M  V30 341 C 39.2255 4.37624 0.707145 0
M  V30 342 H 36.4455 0.669319 -0.0474652 0
M  V30 343 H 38.9895 1.89237 -0.77521 0
M  V30 344 H 37.1445 3.78298 0.834843 0
M  V30 345 H 37.5585 5.16868 -0.891482 0
M  V30 346 H 39.0325 5.46271 0.793244 0
M  V30 347 H 39.5095 4.04152 1.71923 0
M  V30 348 H 40.1155 4.25257 0.0604027 0
M  V30 349 N 38.4306 0.297415 1.54768 0
M  V30 350 C 39.3606 -0.573494 2.26348 0
M  V30 351 C 40.3416 -1.14085 1.26169 0
M  V30 352 O 41.5266 -1.17086 1.54934 0
M  V30 353 C 38.6566 -1.74716 3.00153 0
M  V30 354 C 37.6106 -1.31032 4.07449 0
M  V30 355 C 36.9366 -2.56887 4.68949 0
M  V30 356 C 38.2366 -0.444183 5.20408 0
M  V30 357 H 39.9306 0.0235131 2.99391 0
M  V30 358 H 37.4766 0.0127488 1.43994 0
M  V30 359 H 39.4296 -2.3625 3.48947 0
M  V30 360 H 38.1536 -2.37035 2.24682 0
M  V30 361 H 36.8126 -0.718066 3.59499 0
M  V30 362 H 36.4606 -3.17512 3.90122 0
M  V30 363 H 36.1606 -2.2836 5.41411 0
M  V30 364 H 37.6846 -3.19229 5.20505 0
M  V30 365 H 39.0986 -0.9651 5.65118 0
M  V30 366 H 37.4956 -0.252846 5.99567 0
M  V30 367 H 38.5656 0.531609 4.81977 0
M  V30 368 N 39.9087 -1.5758 0.0250728 0
M  V30 369 C 40.8717 -2.08896 -0.943139 0
M  V30 370 C 41.8717 -1.00321 -1.25668 0
M  V30 371 O 43.0617 -1.26495 -1.19769 0
M  V30 372 C 40.1937 -2.55143 -2.26086 0
M  V30 373 H 41.3867 -2.95723 -0.498775 0
M  V30 374 H 38.9397 -1.54703 -0.222888 0
M  V30 375 H 39.6747 -1.71633 -2.75159 0
M  V30 376 H 39.4597 -3.34461 -2.04641 0
M  V30 377 H 40.9497 -2.95083 -2.95492 0
M  V30 378 N 41.3868 0.248026 -1.55636 0
M  V30 379 C 42.6118 0.998028 -1.81808 0
M  V30 380 C 43.0368 1.78207 -0.601979 0
M  V30 381 O 42.3948 1.75653 0.448961 0
M  V30 382 C 42.4428 1.9125 -3.05705 0
M  V30 383 O 41.5468 3.00406 -2.82542 0
M  V30 384 H 40.8878 0.284045 -0.600179 0
M  V30 385 H 43.4178 0.269357 -2.02819 0
M  V30 386 H 43.4278 2.32737 -3.35108 0
M  V30 387 H 42.1028 1.33602 -3.93857 0
M  V30 388 H 40.6798 2.63056 -2.64303 0
M  V30 389 N 42.8649 1.48995 0.513639 0
M  V30 390 C 44.0899 1.61792 1.29762 0
M  V30 391 C 44.5149 0.284475 1.85936 0
M  V30 392 O 43.8729 -0.746185 1.65232 0
M  V30 393 C 43.9209 2.67993 2.41272 0
M  V30 394 O 43.0249 2.26287 3.44772 0
M  V30 395 H 42.3659 0.541963 0.38363 0
M  V30 396 H 44.8959 1.95097 0.616307 0
M  V30 397 H 44.9059 2.89772 2.87221 0
M  V30 398 H 43.5809 3.64791 1.9975 0
M  V30 399 H 42.1579 2.14788 3.04829 0
M  V30 400 N 44.343 -0.763751 1.37857 0
M  V30 401 C 45.571 -1.55293 1.36718 0
M  V30 402 C 45.986 -1.88745 -0.0455434 0
M  V30 403 O 45.343 -1.52039 -1.00947 0
M  V30 404 C 45.394 -2.85831 2.2132 0
M  V30 405 O 45.115 -2.5381 3.57089 0
M  V30 406 C 46.616 -3.80023 2.28249 0
M  V30 407 H 43.836 -0.480841 0.468009 0
M  V30 408 H 46.38 -0.946009 1.81303 0
M  V30 409 H 44.535 -3.42926 1.80223 0
M  V30 410 H 44.949 -3.37459 4.01524 0
M  V30 411 H 46.423 -4.68599 2.91752 0
M  V30 412 H 46.9 -4.1973 1.2932 0
M  V30 413 H 47.506 -3.28855 2.69693 0
M  V30 414 N 45.8211 -1.22559 -0.990812 0
M  V30 415 C 46.7311 -1.01394 -2.11557 0
M  V30 416 C 47.7471 0.0383962 -1.73958 0
M  V30 417 O 48.9231 -0.154787 -2.00804 0
M  V30 418 C 45.9881 -0.596569 -3.41529 0
M  V30 419 C 45.0491 -1.72276 -3.93217 0
M  V30 420 C 44.2821 -1.32521 -5.16985 0
M  V30 421 O 44.5051 -0.204909 -5.70032 0
M  V30 422 O 43.4391 -2.14247 -5.62478 0
M  V30 423 H 47.2651 -1.95633 -2.32296 0
M  V30 424 H 44.8501 -1.01172 -1.0993 0
M  V30 425 H 46.7321 -0.374263 -4.19735 0
M  V30 426 H 45.4071 0.316939 -3.22145 0
M  V30 427 H 44.3141 -1.99961 -3.16174 0
M  V30 428 H 45.6471 -2.61421 -4.17037 0
M  V30 429 N 47.2992 1.18797 -1.03562 0
M  V30 430 C 48.2462 2.22253 -0.622259 0
M  V30 431 C 49.2162 1.61987 0.36736 0
M  V30 432 O 50.4012 1.88986 0.262492 0
M  V30 433 C 47.5412 3.45097 0.0138462 0
M  V30 434 C 46.6542 4.19722 -1.02263 0
M  V30 435 C 45.7892 5.30009 -0.355573 0
M  V30 436 C 44.8282 5.96399 -1.37749 0
M  V30 437 N 43.9652 6.98234 -0.735766 0
M  V30 438 H 48.8052 2.56968 -1.50903 0
M  V30 439 H 46.3422 1.26245 -0.755017 0
M  V30 440 H 48.3002 4.15279 0.399948 0
M  V30 441 H 46.9302 3.11018 0.864158 0
M  V30 442 H 45.9822 3.48418 -1.52673 0
M  V30 443 H 47.2942 4.65227 -1.79903 0
M  V30 444 H 46.4482 6.0664 0.0850095 0
M  V30 445 H 45.1872 4.85592 0.452967 0
M  V30 446 H 44.1922 5.18512 -1.82826 0
M  V30 447 H 45.4172 6.42899 -2.18764 0
M  V30 448 H 43.3632 6.55979 0.0525597 0
M  V30 449 H 43.2802 7.41965 -1.44995 0
M  V30 450 H 44.5482 7.78845 -0.31941 0
M  V30 451 N 48.7773 0.814389 1.34928 0
M  V30 452 C 50.1933 0.499084 1.51596 0
M  V30 453 C 50.3933 -0.978319 1.76157 0
M  V30 454 O 49.4493 -1.76309 1.80752 0
M  V30 455 C 50.7623 1.35121 2.68631 0
M  V30 456 C 52.3103 1.34746 2.82511 0
M  V30 457 C 52.7853 2.18388 4.0258 0
M  V30 458 N 54.2763 2.15966 4.09772 0
M  V30 459 C 55.0113 2.77437 5.01813 0
M  V30 460 N 54.5073 3.47866 5.99134 0
M  V30 461 N 56.3003 2.67037 4.94619 0
M  V30 462 H 48.4513 1.7711 1.17243 0
M  V30 463 H 50.7143 0.754256 0.574284 0
M  V30 464 H 50.4203 2.40001 2.57085 0
M  V30 465 H 50.2943 1.00991 3.63429 0
M  V30 466 H 52.6813 0.30648 2.93504 0
M  V30 467 H 52.7623 1.72869 1.88547 0
M  V30 468 H 52.4063 3.2253 3.92347 0
M  V30 469 H 52.3363 1.77621 4.9574 0
M  V30 470 H 54.8273 1.64729 3.40107 0
M  V30 471 H 55.1403 3.92038 6.65977 0
M  V30 472 H 53.4853 3.51972 5.99284 0
M  V30 473 H 56.6763 2.11597 4.17546 0
M  V30 474 H 56.8493 3.15232 5.66156 0
M  V30 475 N 50.2554 -1.46986 0.568584 0
M  V30 476 C 51.6714 -1.57946 0.229189 0
M  V30 477 C 51.8714 -1.56567 -1.26843 0
M  V30 478 O 50.9274 -1.47511 -2.04931 0
M  V30 479 C 52.2404 -2.87963 0.865909 0
M  V30 480 C 53.7884 -3.01568 0.838188 0
M  V30 481 C 54.2634 -4.34301 1.45419 0
M  V30 482 N 55.7544 -4.40965 1.41788 0
M  V30 483 C 56.4894 -5.42256 1.86403 0
M  V30 484 N 55.9854 -6.50297 2.38926 0
M  V30 485 N 57.7784 -5.3337 1.77405 0
M  V30 486 H 49.9294 -1.46126 1.54146 0
M  V30 487 H 52.1924 -0.696156 0.643484 0
M  V30 488 H 51.8984 -2.94742 1.91886 0
M  V30 489 H 51.7724 -3.75423 0.365687 0
M  V30 490 H 54.1594 -2.94379 -0.206106 0
M  V30 491 H 54.2404 -2.1562 1.37629 0
M  V30 492 H 53.8844 -4.42247 2.49761 0
M  V30 493 H 53.8144 -5.19 0.891435 0
M  V30 494 H 56.3054 -3.63484 1.03381 0
M  V30 495 H 56.6184 -7.23777 2.70863 0
M  V30 496 H 54.9634 -6.51155 2.42944 0
M  V30 497 H 58.1544 -4.47865 1.3614 0
M  V30 498 H 58.3274 -6.12169 2.12492 0
M  V30 499 N 51.7335 -0.305618 -1.54608 0
M  V30 500 C 53.1495 0.0476228 -1.59529 0
M  V30 501 C 53.3495 1.52025 -1.32252 0
M  V30 502 O 52.4055 2.27368 -1.09818 0
M  V30 503 C 53.7185 -0.354471 -2.98603 0
M  V30 504 C 55.2665 -0.303622 -3.11524 0
M  V30 505 C 55.7415 -0.680608 -4.52915 0
M  V30 506 N 57.2325 -0.63332 -4.5885 0
M  V30 507 C 57.9675 -0.897432 -5.66334 0
M  V30 508 N 57.4635 -1.22775 -6.81834 0
M  V30 509 N 59.2565 -0.824186 -5.56025 0
M  V30 510 H 51.4075 -1.2653 -1.70599 0
M  V30 511 H 53.6705 -0.513291 -0.797017 0
M  V30 512 H 53.3765 -1.3798 -3.23503 0
M  V30 513 H 53.2505 0.289568 -3.76087 0
M  V30 514 H 55.6375 0.712472 -2.8637 0
M  V30 515 H 55.7185 -0.982348 -2.36185 0
M  V30 516 H 55.3625 -1.69453 -4.78799 0
M  V30 517 H 55.2925 0.0202385 -5.26596 0
M  V30 518 H 57.7835 -0.389138 -3.75891 0
M  V30 519 H 58.0965 -1.41513 -7.59733 0
M  V30 520 H 56.4415 -1.26583 -6.83375 0
M  V30 521 H 59.6325 -0.565748 -4.64669 0
M  V30 522 H 59.8055 -1.03338 -6.39707 0
M  V30 523 N 53.2116 1.57565 -0.0334293 0
M  V30 524 C 54.1216 2.13943 0.962572 0
M  V30 525 C 55.1376 1.09276 1.35406 0
M  V30 526 O 56.3136 1.41355 1.4346 0
M  V30 527 C 53.3786 2.65887 2.22497 0
M  V30 528 C 52.4396 3.85286 1.8935 0
M  V30 529 C 51.6726 4.34743 3.09571 0
M  V30 530 O 51.8956 3.83352 4.22371 0
M  V30 531 O 50.8296 5.26538 2.91618 0
M  V30 532 H 54.6556 2.99333 0.513169 0
M  V30 533 H 52.2406 1.4822 0.18743 0
M  V30 534 H 54.1226 2.99346 2.96598 0
M  V30 535 H 52.7976 1.83578 2.6661 0
M  V30 536 H 51.7046 3.56746 1.1262 0
M  V30 537 H 53.0376 4.68771 1.5005 0
M  V30 538 N 54.6897 -0.239769 1.55765 0
M  V30 539 C 55.6217 -1.32001 1.87372 0
M  V30 540 C 56.6347 -1.43944 0.760522 0
M  V30 541 O 57.8237 -1.45167 1.0387 0
M  V30 542 C 54.9237 -2.69779 2.05115 0
M  V30 543 C 54.0967 -2.80014 3.36022 0
M  V30 544 C 53.1557 -3.98684 3.4342 0
M  V30 545 O 52.1817 -3.87877 4.16582 0
M  V30 546 N 53.3837 -5.12176 2.73232 0
M  V30 547 H 56.1487 -1.0522 2.80622 0
M  V30 548 H 53.7097 -0.429857 1.56089 0
M  V30 549 H 55.7017 -3.47517 2.07399 0
M  V30 550 H 54.2717 -2.89237 1.18577 0
M  V30 551 H 53.4917 -1.88896 3.45994 0
M  V30 552 H 54.7797 -2.83808 4.22292 0
M  V30 553 H 54.1777 -5.2385 2.13536 0
M  V30 554 H 52.7347 -5.88022 2.81199 0
M  V30 555 N 56.1678 -1.49265 -0.50573 0
M  V30 556 C 57.0778 -1.68312 -1.63427 0
M  V30 557 C 58.0938 -0.565682 -1.64548 0
M  V30 558 O 59.2698 -0.839801 -1.83055 0
M  V30 559 C 56.3348 -1.74107 -2.99813 0
M  V30 560 C 55.3958 -2.97653 -3.09356 0
M  V30 561 C 54.6288 -3.03163 -4.39236 0
M  V30 562 O 54.8518 -2.16396 -5.27758 0
M  V30 563 O 53.7858 -3.9558 -4.53652 0
M  V30 564 H 57.6118 -2.63907 -1.50289 0
M  V30 565 H 55.1968 -1.32951 -0.681502 0
M  V30 566 H 57.0788 -1.803 -3.80881 0
M  V30 567 H 55.7538 -0.816901 -3.13223 0
M  V30 568 H 54.6608 -2.96981 -2.27493 0
M  V30 569 H 55.9938 -3.89535 -3.00871 0
M  V30 570 N 57.6459 0.756429 -1.3826 0
M  V30 571 C 58.5939 1.89149 -1.35372 0
M  V30 572 C 59.5879 1.67691 -0.24004 0
M  V30 573 O 60.7939 1.75294 -0.408919 0
M  V30 574 H 57.1689 0.622271 -0.422236 0
M  V30 575 H 59.1399 1.88701 -2.31159 0
M  V30 576 C 57.8889 3.26599 -1.19284 0
M  V30 577 H 57.2119 3.43695 -2.0424 0
M  V30 578 H 58.6519 4.06274 -1.21316 0
M  V30 579 C 57.1109 3.3675 0.100454 0
M  V30 580 O 57.6409 3.86951 1.07851 0
M  V30 581 N 55.8469 2.90179 0.15633 0
M  V30 582 H 55.3939 2.49517 -0.640253 0
M  V30 583 H 55.3519 2.97352 1.02123 0
M  V30 584 N 59.124 1.23083 0.984299 0
M  V30 585 C 60.071 1.00854 2.07598 0
M  V30 586 C 61.041 -0.0726709 1.65941 0
M  V30 587 O 62.226 0.0786535 1.90638 0
M  V30 588 C 59.366 0.601645 3.39815 0
M  V30 589 C 58.479 1.75456 3.94765 0
M  V30 590 C 57.614 1.29482 5.15177 0
M  V30 591 C 56.653 2.41873 5.62284 0
M  V30 592 N 55.79 1.96885 6.73929 0
M  V30 593 H 60.63 1.943 2.25946 0
M  V30 594 H 58.167 0.968001 1.10762 0
M  V30 595 H 60.125 0.346854 4.15756 0
M  V30 596 H 58.755 -0.295803 3.21442 0
M  V30 597 H 57.807 2.12346 3.15616 0
M  V30 598 H 59.119 2.59965 4.25699 0
M  V30 599 H 58.273 0.997923 5.98437 0
M  V30 600 H 57.012 0.420046 4.85888 0
M  V30 601 H 56.017 2.72342 4.77608 0
M  V30 602 H 57.242 3.29881 5.93595 0
M  V30 603 H 55.188 1.11782 6.46406 0
M  V30 604 H 55.105 2.74956 7.04227 0
M  V30 605 H 56.373 1.70289 7.60672 0
M  V30 606 N 60.6021 -1.18246 1.0419 0
M  V30 607 C 61.8321 -1.91916 0.764961 0
M  V30 608 C 62.2401 -1.76485 -0.681898 0
M  V30 609 O 61.5831 -1.09275 -1.47664 0
M  V30 610 C 61.6451 -3.4373 1.05309 0
M  V30 611 C 61.3091 -3.8294 2.4941 0
M  V30 612 C 62.3061 -3.86621 3.47592 0
M  V30 613 C 59.9911 -4.142 2.84155 0
M  V30 614 C 61.9851 -4.21013 4.78568 0
M  V30 615 C 59.6721 -4.48262 4.15337 0
M  V30 616 C 60.6701 -4.51645 5.12353 0
M  V30 617 O 60.3581 -4.84911 6.41183 0
M  V30 618 H 60.0901 -0.61606 0.278292 0
M  V30 619 H 62.6441 -1.50947 1.39299 0
M  V30 620 H 60.8741 -3.84946 0.367933 0
M  V30 621 H 62.5631 -3.9865 0.763752 0
M  V30 622 H 63.3291 -3.62607 3.22089 0
M  V30 623 H 59.2081 -4.10743 2.09311 0
M  V30 624 H 62.7521 -4.23568 5.54289 0
M  V30 625 H 58.6491 -4.71737 4.40607 0
M  V30 626 H 59.4171 -5.02809 6.45852 0
M  V30 627 N 62.0802 -0.821533 -1.34494 0
M  V30 628 C 63.0102 -0.257138 -2.3208 0
M  V30 629 C 63.9912 0.625645 -1.58176 0
M  V30 630 O 65.1762 0.552811 -1.86166 0
M  V30 631 C 62.3062 0.582958 -3.42372 0
M  V30 632 C 61.2602 -0.202571 -4.2752 0
M  V30 633 C 60.5862 0.760179 -5.29269 0
M  V30 634 C 61.8862 -1.40998 -5.02908 0
M  V30 635 H 63.5802 -1.07247 -2.79532 0
M  V30 636 H 61.1262 -0.517163 -1.34393 0
M  V30 637 H 63.0792 0.987972 -4.09655 0
M  V30 638 H 61.8032 1.43133 -2.93565 0
M  V30 639 H 60.4622 -0.588936 -3.61838 0
M  V30 640 H 60.1102 1.60447 -4.76724 0
M  V30 641 H 59.8102 0.238809 -5.87115 0
M  V30 642 H 61.3342 1.16308 -5.9942 0
M  V30 643 H 62.7482 -1.07905 -5.63054 0
M  V30 644 H 61.1452 -1.86689 -5.70322 0
M  V30 645 H 62.2152 -2.1889 -4.32684 0
M  V30 646 N 63.5583 1.46682 -0.576371 0
M  V30 647 C 64.4683 2.34032 0.163141 0
M  V30 648 C 65.4843 1.49367 0.892501 0
M  V30 649 O 66.6603 1.82252 0.857106 0
M  V30 650 C 63.7253 3.26435 1.16795 0
M  V30 651 C 62.7863 4.26998 0.443944 0
M  V30 652 C 62.0193 5.14986 1.40088 0
M  V30 653 O 62.2423 5.05785 2.637 0
M  V30 654 O 61.1763 5.94906 0.914917 0
M  V30 655 H 65.0023 2.98607 -0.55388 0
M  V30 656 H 62.5873 1.45554 -0.336821 0
M  V30 657 H 64.4693 3.83459 1.74748 0
M  V30 658 H 63.1443 2.64465 1.86655 0
M  V30 659 H 62.0513 3.7368 -0.177271 0
M  V30 660 H 63.3843 4.91736 -0.213566 0
M  V30 661 N 65.0364 0.313813 1.54444 0
M  V30 662 C 65.9464 -0.565714 2.27677 0
M  V30 663 C 66.9624 -1.13754 1.31666 0
M  V30 664 O 68.1384 -1.15959 1.64668 0
M  V30 665 C 65.2034 -1.71528 3.01296 0
M  V30 666 C 64.2644 -1.17624 4.12872 0
M  V30 667 C 63.4974 -2.27102 4.8297 0
M  V30 668 O 63.7204 -3.47256 4.52514 0
M  V30 669 O 62.6544 -1.9307 5.70094 0
M  V30 670 H 66.4804 0.0287296 3.03686 0
M  V30 671 H 64.0654 0.0798312 1.49187 0
M  V30 672 H 65.9474 -2.38476 3.4743 0
M  V30 673 H 64.6224 -2.29608 2.2817 0
M  V30 674 H 63.5294 -0.472124 3.71109 0
M  V30 675 H 64.8624 -0.640695 4.88012 0
M  V30 676 N 66.5145 -1.57545 0.0417849 0
M  V30 677 C 67.4445 -2.14009 -0.933929 0
M  V30 678 C 68.4255 -1.05938 -1.33083 0
M  V30 679 O 69.6105 -1.33833 -1.40721 0
M  V30 680 C 66.7405 -2.67747 -2.21199 0
M  V30 681 C 65.6945 -3.80718 -1.95544 0
M  V30 682 C 65.0205 -4.20935 -3.29724 0
M  V30 683 C 66.3205 -5.06258 -1.28452 0
M  V30 684 H 68.0145 -2.95788 -0.463645 0
M  V30 685 H 65.5605 -1.42285 -0.221573 0
M  V30 686 H 67.5135 -3.05886 -2.89848 0
M  V30 687 H 66.2375 -1.83147 -2.70416 0
M  V30 688 H 64.8965 -3.43037 -1.2931 0
M  V30 689 H 64.5445 -3.33298 -3.76724 0
M  V30 690 H 64.2445 -4.9707 -3.13361 0
M  V30 691 H 65.7685 -4.61666 -3.9962 0
M  V30 692 H 67.1825 -5.41903 -1.8712 0
M  V30 693 H 65.5795 -5.87475 -1.22445 0
M  V30 694 H 66.6495 -4.84207 -0.259219 0
M  V30 695 N 67.9926 0.231505 -1.5589 0
M  V30 696 C 68.9556 1.27028 -1.90779 0
M  V30 697 C 69.9556 1.40308 -0.785507 0
M  V30 698 O 71.1456 1.38744 -1.05336 0
M  V30 699 C 68.2776 2.64566 -2.14983 0
M  V30 700 H 69.4706 0.973017 -2.83677 0
M  V30 701 H 67.0236 0.471486 -1.49019 0
M  V30 702 H 67.7586 2.99406 -1.24604 0
M  V30 703 H 67.5436 2.56305 -2.96732 0
M  V30 704 H 69.0336 3.39543 -2.43105 0
M  V30 705 N 69.4707 1.49531 0.497807 0
M  V30 706 C 70.3807 1.69176 1.62532 0
M  V30 707 C 71.3967 0.5744 1.64246 0
M  V30 708 O 72.5727 0.849497 1.82608 0
M  V30 709 C 69.6377 1.75695 2.98885 0
M  V30 710 C 68.6987 2.9929 3.07773 0
M  V30 711 C 67.9317 3.05488 4.37622 0
M  V30 712 O 68.1547 2.19192 5.26603 0
M  V30 713 O 67.0887 3.9798 4.51548 0
M  V30 714 H 70.9147 2.647 1.48887 0
M  V30 715 H 68.4997 1.3331 0.674441 0
M  V30 716 H 70.3817 1.82317 3.79919 0
M  V30 717 H 69.0567 0.8335 3.12785 0
M  V30 718 H 67.9637 2.98183 2.25915 0
M  V30 719 H 69.2967 3.91125 2.98801 0
M  V30 720 N 70.9488 -0.749086 1.3866 0
M  V30 721 C 71.8788 -1.8764 1.38973 0
M  V30 722 C 72.8598 -1.68178 0.255004 0
M  V30 723 O 74.0448 -1.88704 0.458754 0
M  V30 724 C 71.1748 -3.25222 1.21851 0
M  V30 725 C 70.1288 -3.59295 2.32575 0
M  V30 726 C 69.4548 -4.95663 2.00555 0
M  V30 727 C 70.7548 -3.63709 3.7485 0
M  V30 728 H 72.4488 -1.87635 2.3331 0
M  V30 729 H 69.9948 -0.901329 1.12303 0
M  V30 730 H 71.9478 -4.03746 1.20695 0
M  V30 731 H 70.6718 -3.25719 0.239775 0
M  V30 732 H 69.3308 -2.83093 2.32925 0
M  V30 733 H 68.9788 -4.92724 1.01154 0
M  V30 734 H 68.6788 -5.19429 2.74714 0
M  V30 735 H 70.2028 -5.7656 2.01024 0
M  V30 736 H 71.6168 -4.32338 3.76506 0
M  V30 737 H 70.0138 -3.98986 4.48252 0
M  V30 738 H 71.0838 -2.63834 4.06841 0
M  V30 739 N 72.4269 -1.23603 -0.977757 0
M  V30 740 C 73.3569 -1.04401 -2.0886 0
M  V30 741 C 74.3379 0.0399052 -1.70053 0
M  V30 742 O 75.5229 -0.125246 -1.93796 0
M  V30 743 C 72.6529 -0.637269 -3.41403 0
M  V30 744 C 71.6069 -1.66883 -3.94124 0
M  V30 745 C 70.9329 -1.11745 -5.22893 0
M  V30 746 C 72.2329 -3.06247 -4.23096 0
M  V30 747 H 73.9269 -1.97316 -2.25182 0
M  V30 748 H 71.4729 -0.950096 -1.08209 0
M  V30 749 H 73.4259 -0.48998 -4.18542 0
M  V30 750 H 72.1499 0.327557 -3.24953 0
M  V30 751 H 70.8089 -1.80416 -3.19133 0
M  V30 752 H 70.4569 -0.143527 -5.02795 0
M  V30 753 H 70.1569 -1.80672 -5.59134 0
M  V30 754 H 71.6809 -0.982067 -6.02651 0
M  V30 755 H 73.0949 -2.96001 -4.90975 0
M  V30 756 H 71.4919 -3.72436 -4.70544 0
M  V30 757 H 72.5619 -3.55041 -3.30263 0
M  V30 758 N 73.905 1.17692 -1.04816 0
M  V30 759 C 75.13 1.92327 -0.776207 0
M  V30 760 C 75.555 1.76082 0.661581 0
M  V30 761 O 74.913 1.076 1.45917 0
M  V30 762 C 74.961 3.41539 -1.15687 0
M  V30 763 O 74.065 4.11402 -0.286775 0
M  V30 764 H 73.406 0.599735 -0.284981 0
M  V30 765 H 75.936 1.49201 -1.4 0
M  V30 766 H 75.946 3.92269 -1.12202 0
M  V30 767 H 74.621 3.52684 -2.20425 0
M  V30 768 H 73.198 3.70939 -0.381903 0
M  V30 769 N 75.3831 0.828654 1.34056 0
M  V30 770 C 76.3461 0.259927 2.27721 0
M  V30 771 C 77.3461 -0.565478 1.50529 0
M  V30 772 O 78.5361 -0.38075 1.69988 0
M  V30 773 C 75.6681 -0.634944 3.34935 0
M  V30 774 H 76.8611 1.0863 2.79534 0
M  V30 775 H 74.4141 0.600951 1.44285 0
M  V30 776 H 75.1491 -1.48416 2.88346 0
M  V30 777 H 74.9341 -0.0444999 3.92075 0
M  V30 778 H 76.4241 -1.02648 4.04788 0
M  V30 779 N 76.8612 -1.46375 0.584142 0
M  V30 780 C 77.8092 -2.32042 -0.161047 0
M  V30 781 C 78.8032 -1.44569 -0.882966 0
M  V30 782 O 80.0092 -1.61186 -0.801191 0
M  V30 783 H 76.3842 -0.748659 -0.0708033 0
M  V30 784 H 78.3552 -2.92704 0.580269 0
M  V30 785 C 77.1042 -3.27762 -1.1605 0
M  V30 786 H 76.4272 -3.95051 -0.614419 0
M  V30 787 H 77.8672 -3.90481 -1.65228 0
M  V30 788 C 76.3262 -2.53218 -2.22221 0
M  V30 789 O 76.8562 -2.29628 -3.29597 0
M  V30 790 N 75.0622 -2.13756 -1.96868 0
M  V30 791 H 74.6092 -2.33142 -1.09557 0
M  V30 792 H 74.5672 -1.642 -2.68115 0
M  V30 793 N 78.3393 -0.321999 -1.54275 0
M  V30 794 C 79.5883 0.281931 -1.9972 0
M  V30 795 C 79.9013 1.53369 -1.21397 0
M  V30 796 O 81.1073 2.21352 -1.57211 0
M  V30 797 C 79.5633 0.5529 -3.55628 0
M  V30 798 C 79.1713 -0.681721 -4.42783 0
M  V30 799 C 80.9153 1.11687 -4.09544 0
M  V30 800 C 78.8223 -0.382742 -5.9016 0
M  V30 801 H 77.7523 0.109124 -0.746062 0
M  V30 802 H 80.4033 -0.43398 -1.78294 0
M  V30 803 H 78.7853 1.32896 -3.73035 0
M  V30 804 H 79.9593 -1.45723 -4.37151 0
M  V30 805 H 78.2743 -1.1658 -3.99748 0
M  V30 806 H 80.8713 1.35515 -5.17242 0
M  V30 807 H 81.2143 2.06575 -3.61431 0
M  V30 808 H 81.7473 0.402032 -3.95763 0
M  V30 809 H 78.4863 -1.30076 -6.42464 0
M  V30 810 H 78.0063 0.355094 -5.98748 0
M  V30 811 H 79.6853 0.00800157 -6.47 0
M  V30 812 N 79.8174 1.5752 -0.0501392 0
M  V30 813 C 81.0424 1.97376 0.636997 0
M  V30 814 C 81.4674 0.927466 1.63645 0
M  V30 815 O 80.8254 -0.10941 1.8097 0
M  V30 816 C 80.8734 3.36304 1.30123 0
M  V30 817 O 79.9774 3.34156 2.41689 0
M  V30 818 H 79.3184 0.642998 0.165679 0
M  V30 819 H 81.8484 2.04258 -0.118233 0
M  V30 820 H 81.8584 3.73008 1.65315 0
M  V30 821 H 80.5334 4.11993 0.568746 0
M  V30 822 H 79.1104 3.09196 2.08451 0
M  V30 823 N 81.2955 -0.223234 1.56011 0
M  V30 824 C 82.5725 -0.972108 1.69733 0
M  V30 825 C 82.9525 -2.02485 0.59691 0
M  V30 826 O 82.3005 -2.25037 -0.396324 0
M  V30 827 C 82.5105 -1.58407 3.10979 0
M  V30 828 C 83.8585 -2.07696 3.70334 0
M  V30 829 O 84.8825 -1.68304 3.1393 0
M  V30 830 O 83.7415 -2.80096 4.69264 0
M  V30 831 H 80.8355 -0.453993 0.691245 0
M  V30 832 H 83.3815 -0.215149 1.68331 0
M  V30 833 H 82.1535 -0.823831 3.82529 0
M  V30 834 H 81.7765 -2.40661 3.16493 0
M  V30 835 N 82.7736 -1.49793 -0.48987 0
M  V30 836 C 84.0226 -1.59085 -1.23995 0
M  V30 837 C 84.3356 -0.287907 -1.9347 0
M  V30 838 O 85.5416 -0.259506 -2.70257 0
M  V30 839 C 83.9976 -2.80736 -2.252 0
M  V30 840 C 83.6056 -4.17833 -1.61614 0
M  V30 841 C 85.3496 -2.99364 -3.00967 0
M  V30 842 C 83.2566 -5.30693 -2.60996 0
M  V30 843 H 82.1866 -0.592372 -0.466488 0
M  V30 844 H 84.8376 -1.76197 -0.51252 0
M  V30 845 H 83.2196 -2.57142 -3.01154 0
M  V30 846 H 84.3936 -4.51608 -0.915774 0
M  V30 847 H 82.7086 -4.04656 -0.981977 0
M  V30 848 H 85.3056 -3.80851 -3.75308 0
M  V30 849 H 85.6486 -2.10356 -3.59244 0
M  V30 850 H 86.1816 -3.2305 -2.32128 0
M  V30 851 H 82.9206 -6.21796 -2.07485 0
M  V30 852 H 82.4406 -5.01359 -3.2924 0
M  V30 853 H 84.1196 -5.6049 -3.23202 0
M  V30 854 N 84.2517 0.741722 -1.39055 0
M  V30 855 C 85.5287 1.49252 -1.26425 0
M  V30 856 C 85.9087 2.10705 0.129144 0
M  V30 857 O 85.2567 1.98045 1.13976 0
M  V30 858 C 85.4667 2.54934 -2.38347 0
M  V30 859 C 86.8147 3.21506 -2.77343 0
M  V30 860 O 87.8387 2.65245 -2.37747 0
M  V30 861 O 86.6977 4.23294 -3.45665 0
M  V30 862 H 83.7917 0.662451 -0.495064 0
M  V30 863 H 86.3377 0.776121 -1.50912 0
M  V30 864 H 85.1097 2.07857 -3.31529 0
M  V30 865 H 84.7327 3.34141 -2.15489 0
M  V30 866 N 85.7298 1.2412 0.971189 0
M  V30 867 C 86.9548 1.10667 1.75407 0
M  V30 868 C 87.3798 -0.337048 1.85056 0
M  V30 869 O 86.7378 -1.24396 1.31892 0
M  V30 870 C 86.7858 1.74726 3.15441 0
M  V30 871 O 85.8898 1.01566 3.99697 0
M  V30 872 H 85.2308 0.387341 0.539317 0
M  V30 873 H 87.7608 1.64358 1.2185 0
M  V30 874 H 87.7708 1.80341 3.6598 0
M  V30 875 H 86.4458 2.79773 3.07734 0
M  V30 876 H 85.0228 1.03713 3.58187 0
M  V30 877 N 87.2079 -1.17134 1.05439 0
M  V30 878 C 88.1379 -2.2342 0.678649 0
M  V30 879 C 89.1189 -1.66971 -0.32476 0
M  V30 880 O 90.3039 -1.93149 -0.201802 0
M  V30 881 C 87.4339 -3.47256 0.0552099 0
M  V30 882 C 86.3879 -4.16543 0.98365 0
M  V30 883 C 85.7139 -5.34231 0.223961 0
M  V30 884 C 87.0139 -4.68495 2.3089 0
M  V30 885 H 88.7079 -2.55105 1.56722 0
M  V30 886 H 86.2539 -1.2262 0.754998 0
M  V30 887 H 88.2069 -4.20828 -0.21946 0
M  V30 888 H 86.9309 -3.14846 -0.868319 0
M  V30 889 H 85.5899 -3.44887 1.24293 0
M  V30 890 H 85.2379 -4.98071 -0.702412 0
M  V30 891 H 84.9379 -5.81527 0.842627 0
M  V30 892 H 86.4619 -6.10585 -0.0433671 0
M  V30 893 H 87.8759 -5.33691 2.09396 0
M  V30 894 H 86.2729 -5.26379 2.88176 0
M  V30 895 H 87.3429 -3.85169 2.94572 0
M  V30 896 N 88.686 -0.835752 -1.33615 0
M  V30 897 C 89.911 -0.442389 -2.02627 0
M  V30 898 C 90.336 0.947735 -1.62479 0
M  V30 899 O 89.694 1.61907 -0.815826 0
M  V30 900 C 89.742 -0.567216 -3.56111 0
M  V30 901 O 88.846 0.407799 -4.10379 0
M  V30 902 H 88.187 -0.180278 -0.639059 0
M  V30 903 H 90.717 -1.12972 -1.70583 0
M  V30 904 H 90.727 -0.447708 -4.05536 0
M  V30 905 H 89.402 -1.58103 -3.84677 0
M  V30 906 H 87.979 0.246107 -3.72087 0
M  V30 907 N 90.1641 1.46063 -0.591896 0
M  V30 908 C 91.4101 2.02638 -0.0811191 0
M  V30 909 C 91.7431 1.4613 1.27905 0
M  V30 910 O 91.0181 0.629908 1.84017 0
M  V30 911 C 91.3011 3.60091 -0.0252436 0
M  V30 912 C 91.1541 4.26965 -1.41496 0
M  V30 913 C 92.4731 4.3496 0.670685 0
M  V30 914 H 89.5921 0.73635 -0.0309524 0
M  V30 915 H 92.2341 1.741 -0.760859 0
M  V30 916 H 90.3841 3.84535 0.553624 0
M  V30 917 H 92.0561 4.13756 -2.0397 0
M  V30 918 H 90.2991 3.85971 -1.98011 0
M  V30 919 H 90.9701 5.35781 -1.32825 0
M  V30 920 H 93.4461 4.15716 0.178825 0
M  V30 921 H 92.3221 5.44686 0.678837 0
M  V30 922 H 92.5831 4.06685 1.73379 0
M  V30 923 N 91.6422 0.330177 1.54103 0
M  V30 924 C 92.5892 -0.532762 2.24567 0
M  V30 925 C 93.5592 -1.10635 1.23892 0
M  V30 926 O 94.7442 -1.14546 1.5259 0
M  V30 927 C 91.8842 -1.6845 3.01195 0
M  V30 928 C 90.9972 -1.13951 4.167 0
M  V30 929 C 90.1322 -2.25746 4.80845 0
M  V30 930 C 89.1712 -1.6853 5.88442 0
M  V30 931 N 88.3082 -2.74014 6.46421 0
M  V30 932 H 93.1482 0.0746905 2.97906 0
M  V30 933 H 90.6852 0.048632 1.4702 0
M  V30 934 H 92.6432 -2.36234 3.43874 0
M  V30 935 H 91.2732 -2.26314 2.30178 0
M  V30 936 H 90.3252 -0.35301 3.78758 0
M  V30 937 H 91.6372 -0.680892 4.94131 0
M  V30 938 H 90.7912 -3.01422 5.26526 0
M  V30 939 H 89.5302 -2.74947 4.0281 0
M  V30 940 H 88.5352 -0.913543 5.42157 0
M  V30 941 H 89.7602 -1.20198 6.68378 0
M  V30 942 H 87.7062 -3.22494 5.71256 0
M  V30 943 H 87.6232 -2.32735 7.19285 0
M  V30 944 H 88.8912 -3.49499 6.96757 0
M  V30 945 N 93.1203 -1.57491 0.0584922 0
M  V30 946 C 94.5313 -1.80526 -0.476138 0
M  V30 947 C 94.8823 -0.971334 -1.70469 0
M  V30 948 O 94.0073 -0.190012 -2.15564 0
M  V30 949 C 94.6023 -3.27424 -0.870587 0
M  V30 950 C 93.1613 -3.51351 -1.35015 0
M  V30 951 C 92.3083 -2.75343 -0.32887 0
M  V30 952 H 95.2593 -1.56133 0.284312 0
M  V30 953 H 95.2803 -3.38745 -1.73299 0
M  V30 954 H 94.7923 -3.88093 0.0237627 0
M  V30 955 H 92.8933 -2.95971 -2.26345 0
M  V30 956 H 93.0063 -4.60059 -1.33726 0
M  V30 957 H 91.3703 -2.417 -0.803321 0
M  V30 958 H 92.1533 -3.38743 0.557521 0
M  V30 959 N 94.5984 0.214957 -1.56127 0
M  V30 960 C 95.8754 0.963093 -1.70247 0
M  V30 961 C 96.2554 2.02166 -0.60764 0
M  V30 962 O 95.6034 2.25244 0.384385 0
M  V30 963 C 95.8134 1.56756 -3.11815 0
M  V30 964 C 97.1614 2.0573 -3.7143 0
M  V30 965 O 98.1854 1.66637 -3.14818 0
M  V30 966 O 97.0444 2.77603 -4.70743 0
M  V30 967 H 94.1384 0.450321 -0.693643 0
M  V30 968 H 96.6844 0.206219 -1.68442 0
M  V30 969 H 95.4564 0.803533 -3.82961 0
M  V30 970 H 95.0794 2.3898 -3.17765 0
M  V30 971 N 96.0765 1.50051 0.48192 0
M  V30 972 C 97.0235 1.68122 1.58125 0
M  V30 973 C 97.9935 0.522545 1.57666 0
M  V30 974 O 99.1785 0.751844 1.75362 0
M  V30 975 C 96.3185 1.77142 2.96167 0
M  V30 976 C 95.4315 3.0444 3.06497 0
M  V30 977 C 94.5665 3.04321 4.35387 0
M  V30 978 C 93.6055 4.26118 4.3942 0
M  V30 979 N 92.7425 4.238 5.59766 0
M  V30 980 H 97.5825 2.6198 1.42022 0
M  V30 981 H 95.1195 1.29877 0.690687 0
M  V30 982 H 97.0775 1.80352 3.76203 0
M  V30 983 H 95.7075 0.867329 3.1093 0
M  V30 984 H 94.7595 3.10752 2.19402 0
M  V30 985 H 96.0715 3.94426 3.05336 0
M  V30 986 H 95.2255 3.062 5.23762 0
M  V30 987 H 93.9645 2.12147 4.39141 0
M  V30 988 H 92.9695 4.24463 3.49444 0
M  V30 989 H 94.1945 5.19507 4.37366 0
M  V30 990 H 92.1405 3.34474 5.64326 0
M  V30 991 H 92.0575 5.07542 5.60301 0
M  V30 992 H 93.3255 4.2981 6.50295 0
M  V30 993 N 97.5546 -0.734337 1.39446 0
M  V30 994 C 98.7946 -1.50655 1.38139 0
M  V30 995 C 99.1586 -1.91986 -0.0228701 0
M  V30 996 O 100.36 -2.68318 -0.160947 0
M  V30 997 C 98.6306 -2.71251 2.32718 0
M  V30 998 S 100.19 -3.60892 2.49605 0
M  V30 999 H 97.0076 -0.515315 0.489869 0
M  V30 1000 H 99.6096 -0.860392 1.75549 0
M  V30 1001 H 98.3136 -2.39027 3.33608 0
M  V30 1002 H 97.8446 -3.40795 1.96526 0
M  V30 1003 H 99.8596 -4.64899 1.73446 0
M  V30 1004 N 99.0327 -1.24633 -0.964593 0
M  V30 1005 C 99.9797 -1.04144 -2.05968 0
M  V30 1006 C 100.95 0.046262 -1.66036 0
M  V30 1007 O 102.135 -0.108972 -1.90489 0
M  V30 1008 C 99.2747 -0.65563 -3.38815 0
M  V30 1009 C 98.3877 -1.81714 -3.91923 0
M  V30 1010 C 97.5227 -1.37662 -5.13052 0
M  V30 1011 C 96.5617 -2.50788 -5.58365 0
M  V30 1012 N 95.6987 -2.07582 -6.70712 0
M  V30 1013 H 100.539 -1.9787 -2.22827 0
M  V30 1014 H 98.0757 -0.9855 -1.09208 0
M  V30 1015 H 100.034 -0.412954 -4.15151 0
M  V30 1016 H 98.6637 0.244627 -3.21872 0
M  V30 1017 H 97.7157 -2.1734 -3.12198 0
M  V30 1018 H 99.0277 -2.66705 -4.21509 0
M  V30 1019 H 98.1817 -1.093 -5.96773 0
M  V30 1020 H 96.9207 -0.497293 -4.85158 0
M  V30 1021 H 95.9257 -2.79906 -4.73215 0
M  V30 1022 H 97.1507 -3.39283 -5.88272 0
M  V30 1023 H 95.0967 -1.22051 -6.44546 0
M  V30 1024 H 95.0137 -2.86125 -6.99763 0
M  V30 1025 H 96.2817 -1.82369 -7.57867 0
M  V30 1026 N 100.511 1.16574 -1.06058 0
M  V30 1027 C 101.76 1.86385 -0.770944 0
M  V30 1028 C 102.073 1.82448 0.705129 0
M  V30 1029 O 103.279 2.47815 1.10905 0
M  V30 1030 C 101.735 3.34466 -1.32893 0
M  V30 1031 C 101.343 3.46883 -2.83507 0
M  V30 1032 C 103.087 4.09548 -1.11672 0
M  V30 1033 C 100.994 4.89036 -3.32562 0
M  V30 1034 H 99.9238 0.698181 -0.284709 0
M  V30 1035 H 102.575 1.31583 -1.27899 0
M  V30 1036 H 100.957 3.88859 -0.748662 0
M  V30 1037 H 102.131 3.02663 -3.47465 0
M  V30 1038 H 100.446 2.85232 -3.03368 0
M  V30 1039 H 103.043 5.14434 -1.45814 0
M  V30 1040 H 103.386 4.16264 -0.0549535 0
M  V30 1041 H 103.919 3.61387 -1.66265 0
M  V30 1042 H 100.658 4.87499 -4.38207 0
M  V30 1043 H 100.178 5.3389 -2.73351 0
M  V30 1044 H 101.857 5.57843 -3.2775 0
M  V30 1045 N 101.989 0.842826 1.3317 0
M  V30 1046 C 102.919 0.294028 2.31641 0
M  V30 1047 C 103.9 -0.600401 1.59151 0
M  V30 1048 O 105.085 -0.523124 1.87022 0
M  V30 1049 C 102.215 -0.528416 3.43257 0
M  V30 1050 C 101.169 0.27056 4.27144 0
M  V30 1051 C 100.495 -0.675881 5.30411 0
M  V30 1052 C 101.795 1.48981 5.00602 0
M  V30 1053 H 103.489 1.11681 2.77791 0
M  V30 1054 H 101.035 0.538478 1.33553 0
M  V30 1055 H 102.988 -0.922674 4.11175 0
M  V30 1056 H 101.712 -1.38445 2.95805 0
M  V30 1057 H 100.371 0.646427 3.60856 0
M  V30 1058 H 100.019 -1.52842 4.79216 0
M  V30 1059 H 99.7189 -0.145374 5.8742 0
M  V30 1060 H 101.243 -1.06757 6.01195 0
M  V30 1061 H 102.657 1.16849 5.61266 0
M  V30 1062 H 101.054 1.95739 5.6728 0
M  V30 1063 H 102.124 2.25746 4.29147 0
M  V30 1064 N 103.467 -1.45747 0.599634 0
M  V30 1065 C 104.414 -2.30467 -0.123849 0
M  V30 1066 C 105.384 -1.41632 -0.86774 0
M  V30 1067 O 106.569 -1.70568 -0.855056 0
M  V30 1068 C 103.709 -3.26402 -1.12051 0
M  V30 1069 C 102.822 -4.3034 -0.37832 0
M  V30 1070 C 101.957 -5.13389 -1.364 0
M  V30 1071 C 100.996 -6.09061 -0.609171 0
M  V30 1072 N 100.133 -6.84918 -1.54374 0
M  V30 1073 H 104.973 -2.91802 0.604627 0
M  V30 1074 H 102.51 -1.43797 0.309972 0
M  V30 1075 H 104.468 -3.80482 -1.7114 0
M  V30 1076 H 103.098 -2.66839 -1.8165 0
M  V30 1077 H 102.15 -3.78984 0.327929 0
M  V30 1078 H 103.462 -4.98354 0.210997 0
M  V30 1079 H 102.616 -5.7183 -2.02719 0
M  V30 1080 H 101.355 -4.45376 -1.98725 0
M  V30 1081 H 100.36 -5.49758 0.0676979 0
M  V30 1082 H 101.585 -6.79099 0.00891991 0
M  V30 1083 H 99.531 -6.19601 -2.15478 0
M  V30 1084 H 99.448 -7.49254 -1.00766 0
M  V30 1085 H 100.716 -7.47906 -2.19676 0
M  V30 1086 N 104.945 -0.338344 -1.53925 0
M  V30 1087 C 105.892 0.520845 -2.24846 0
M  V30 1088 C 106.862 1.09976 -1.24477 0
M  V30 1089 O 108.047 1.13735 -1.53196 0
M  V30 1090 C 105.187 1.6685 -3.02084 0
M  V30 1091 C 104.3 1.11739 -4.17299 0
M  V30 1092 C 103.435 2.23193 -4.82036 0
M  V30 1093 C 102.474 1.65407 -5.89328 0
M  V30 1094 N 101.611 2.70582 -6.47866 0
M  V30 1095 H 106.451 -0.0904881 -2.97863 0
M  V30 1096 H 103.988 -0.0564282 -1.46992 0
M  V30 1097 H 105.946 2.34407 -3.45122 0
M  V30 1098 H 104.576 2.2509 -2.31375 0
M  V30 1099 H 103.628 0.332919 -3.7894 0
M  V30 1100 H 104.94 0.654677 -4.94485 0
M  V30 1101 H 104.094 2.98626 -5.28117 0
M  V30 1102 H 102.833 2.72807 -4.04262 0
M  V30 1103 H 101.838 0.884779 -5.42634 0
M  V30 1104 H 103.063 1.16652 -6.69006 0
M  V30 1105 H 101.009 3.1946 -5.72959 0
M  V30 1106 H 100.926 2.28917 -7.20509 0
M  V30 1107 H 102.194 3.45799 -6.98601 0
M  V30 1108 N 106.423 1.57458 -0.0668435 0
M  V30 1109 C 107.651 1.97624 0.612565 0
M  V30 1110 C 108.066 0.94502 1.63447 0
M  V30 1111 O 107.423 -0.0689276 1.8237 0
M  V30 1112 C 107.474 3.37869 1.28555 0
M  V30 1113 O 107.195 4.3704 0.304557 0
M  V30 1114 C 108.696 3.92882 2.05325 0
M  V30 1115 H 105.916 0.650045 0.166381 0
M  V30 1116 H 108.46 2.04035 -0.137782 0
M  V30 1117 H 106.615 3.3256 1.98702 0
M  V30 1118 H 107.029 5.18565 0.786779 0
M  V30 1119 H 108.503 4.93247 2.47812 0
M  V30 1120 H 108.98 3.29156 2.9078 0
M  V30 1121 H 109.586 4.01577 1.40056 0
M  V30 1122 N 107.901 -0.206675 1.56239 0
M  V30 1123 C 109.147 -0.930218 1.80208 0
M  V30 1124 C 109.48 -1.83387 0.638981 0
M  V30 1125 O 108.755 -1.91119 -0.361066 0
M  V30 1126 C 109.038 -1.75641 3.1436 0
M  V30 1127 C 108.891 -0.878257 4.41142 0
M  V30 1128 C 110.21 -2.73129 3.45092 0
M  V30 1129 H 107.329 -0.336742 0.655571 0
M  V30 1130 H 109.971 -0.198222 1.88963 0
M  V30 1131 H 108.121 -2.38048 3.07027 0
M  V30 1132 H 109.793 -0.269787 4.6051 0
M  V30 1133 H 108.036 -0.184385 4.33408 0
M  V30 1134 H 108.707 -1.49106 5.3148 0
M  V30 1135 H 111.183 -2.20856 3.52649 0
M  V30 1136 H 110.059 -3.28028 4.40101 0
M  V30 1137 H 110.32 -3.51606 2.68003 0
M  V30 1138 N 109.379 -1.50304 -0.473955 0
M  V30 1139 C 110.656 -1.51667 -1.23518 0
M  V30 1140 C 111.036 -0.259701 -2.09496 0
M  V30 1141 O 110.384 0.756986 -2.15597 0
M  V30 1142 C 110.594 -2.81082 -2.06868 0
M  V30 1143 C 111.942 -3.31631 -2.65153 0
M  V30 1144 O 112.966 -2.82384 -2.17113 0
M  V30 1145 O 111.825 -4.17471 -3.52675 0
M  V30 1146 H 108.919 -0.60822 -0.560355 0
M  V30 1147 H 111.465 -1.62592 -0.486011 0
M  V30 1148 H 110.237 -3.64041 -1.4349 0
M  V30 1149 H 109.86 -2.73146 -2.88924 0
M  V30 1150 N 110.857 0.726932 -1.39834 0
M  V30 1151 C 111.789 1.85147 -1.35104 0
M  V30 1152 C 112.802 1.60736 -0.258392 0
M  V30 1153 O 113.991 1.70821 -0.517931 0
M  V30 1154 C 111.091 3.21332 -1.07697 0
M  V30 1155 C 110.264 3.73033 -2.28396 0
M  V30 1156 C 109.323 4.87802 -1.97322 0
M  V30 1157 O 108.349 5.01043 -2.70083 0
M  V30 1158 N 109.551 5.72768 -0.944273 0
M  V30 1159 H 112.316 1.89706 -2.32017 0
M  V30 1160 H 109.877 0.908006 -1.3404 0
M  V30 1161 H 111.869 3.95691 -0.849144 0
M  V30 1162 H 110.439 3.11992 -0.194909 0
M  V30 1163 H 109.659 2.89934 -2.6708 0
M  V30 1164 H 110.947 4.0431 -3.08887 0
M  V30 1165 H 110.345 5.64669 -0.341427 0
M  V30 1166 H 108.902 6.4716 -0.776346 0
M  V30 1167 N 112.336 1.25143 0.95797 0
M  V30 1168 C 113.585 1.0909 1.69654 0
M  V30 1169 C 113.898 -0.368548 1.92097 0
M  V30 1170 O 115.104 -0.649455 2.63618 0
M  V30 1171 C 113.56 1.90395 3.05414 0
M  V30 1172 C 113.168 3.4081 2.90779 0
M  V30 1173 C 114.912 1.82901 3.83076 0
M  V30 1174 C 112.819 4.14423 4.21909 0
M  V30 1175 H 111.749 0.404625 0.636235 0
M  V30 1176 H 114.4 1.4931 1.06672 0
M  V30 1177 H 112.782 1.42996 3.69281 0
M  V30 1178 H 113.956 3.95859 2.35865 0
M  V30 1179 H 112.271 3.49361 2.26575 0
M  V30 1180 H 114.868 2.35196 4.80195 0
M  V30 1181 H 115.211 0.796224 4.08615 0
M  V30 1182 H 115.744 2.28033 3.25954 0
M  V30 1183 H 112.483 5.18102 4.01561 0
M  V30 1184 H 112.003 3.64159 4.76601 0
M  V30 1185 H 113.682 4.21956 4.90471 0
M  V30 1186 N 113.814 -1.1601 1.06675 0
M  V30 1187 C 114.746 -2.20115 0.638921 0
M  V30 1188 C 115.759 -1.59916 -0.305057 0
M  V30 1189 O 116.948 -1.78245 -0.0954446 0
M  V30 1190 C 114.048 -3.38798 -0.0830083 0
M  V30 1191 C 113.221 -4.2855 0.875426 0
M  V30 1192 C 112.28 -5.25849 0.192042 0
M  V30 1193 O 111.306 -5.63102 0.830921 0
M  V30 1194 N 112.508 -5.70648 -1.06493 0
M  V30 1195 H 115.273 -2.57439 1.53444 0
M  V30 1196 H 112.834 -1.31057 0.950557 0
M  V30 1197 H 114.826 -4.00936 -0.550685 0
M  V30 1198 H 113.396 -2.99947 -0.880386 0
M  V30 1199 H 112.616 -3.63617 1.52238 0
M  V30 1200 H 113.904 -4.85393 1.52548 0
M  V30 1201 H 113.302 -5.42482 -1.60405 0
M  V30 1202 H 111.859 -6.34859 -1.47641 0
M  V30 1203 N 115.292 -0.849877 -1.32721 0
M  V30 1204 C 116.222 -0.306308 -2.31482 0
M  V30 1205 C 117.203 0.591952 -1.59468 0
M  V30 1206 O 118.388 0.513199 -1.87296 0
M  V30 1207 C 115.518 0.510204 -3.43532 0
M  V30 1208 C 114.472 -0.293209 -4.26994 0
M  V30 1209 C 113.798 0.647743 -5.30762 0
M  V30 1210 C 115.098 -1.51634 -4.99804 0
M  V30 1211 H 116.792 -1.13153 -2.77195 0
M  V30 1212 H 114.338 -0.545553 -1.33266 0
M  V30 1213 H 116.291 0.900856 -4.11658 0
M  V30 1214 H 115.015 1.36874 -2.96535 0
M  V30 1215 H 113.674 -0.665555 -3.60508 0
M  V30 1216 H 113.322 1.50299 -4.8002 0
M  V30 1217 H 113.022 0.11422 -5.87489 0
M  V30 1218 H 114.546 1.03567 -6.01753 0
M  V30 1219 H 115.96 -1.19824 -5.60638 0
M  V30 1220 H 114.357 -1.98745 -5.66234 0
M  V30 1221 H 115.427 -2.28018 -4.27943 0
M  V30 1222 N 116.77 1.45427 -0.607355 0
M  V30 1223 C 117.703 2.27635 0.160482 0
M  V30 1224 C 118.681 1.37122 0.873857 0
M  V30 1225 O 119.865 1.66551 0.882775 0
M  V30 1226 C 116.992 3.15486 1.23231 0
M  V30 1227 C 116.038 4.21939 0.622097 0
M  V30 1228 S 116.871 5.32459 -0.569852 0
M  V30 1229 C 118.027 6.23879 0.502577 0
M  V30 1230 H 118.26 2.9241 -0.536983 0
M  V30 1231 H 115.793 1.49265 -0.394868 0
M  V30 1232 H 117.751 3.66659 1.84585 0
M  V30 1233 H 116.412 2.49977 1.90185 0
M  V30 1234 H 115.605 4.8333 1.42856 0
M  V30 1235 H 115.207 3.73906 0.0837063 0
M  V30 1236 H 117.499 6.63261 1.38171 0
M  V30 1237 H 118.442 7.0806 -0.0751759 0
M  V30 1238 H 118.85 5.58545 0.8178 0
M  V30 1239 N 118.248 0.346503 1.53744 0
M  V30 1240 C 119.195 -0.508914 2.25119 0
M  V30 1241 C 120.165 -1.09315 1.25058 0
M  V30 1242 O 121.35 -1.12921 1.53797 0
M  V30 1243 C 118.49 -1.65246 3.02965 0
M  V30 1244 C 117.603 -1.09525 4.17886 0
M  V30 1245 C 116.738 -2.20634 4.83212 0
M  V30 1246 C 115.777 -1.62279 5.90196 0
M  V30 1247 N 114.914 -2.67143 6.49291 0
M  V30 1248 H 119.754 0.106283 2.9781 0
M  V30 1249 H 117.291 0.0642227 1.4696 0
M  V30 1250 H 119.249 -2.32574 3.4636 0
M  V30 1251 H 117.879 -2.2386 2.32565 0
M  V30 1252 H 116.931 -0.312818 3.79112 0
M  V30 1253 H 118.243 -0.628444 4.94825 0
M  V30 1254 H 117.397 -2.95821 5.29693 0
M  V30 1255 H 116.136 -2.70659 4.05703 0
M  V30 1256 H 115.141 -0.855989 5.43096 0
M  V30 1257 H 116.366 -1.13102 6.69615 0
M  V30 1258 H 114.312 -3.16417 5.74645 0
M  V30 1259 H 114.229 -2.25093 7.21713 0
M  V30 1260 H 115.497 -3.4209 7.00425 0
M  V30 1261 N 119.726 -1.57421 0.075193 0
M  V30 1262 C 121.142 -1.57099 -0.281444 0
M  V30 1263 C 121.342 -1.08486 -1.69803 0
M  V30 1264 O 120.398 -0.752279 -2.41033 0
M  V30 1265 C 121.711 -3.00571 -0.0880041 0
M  V30 1266 C 123.259 -3.12605 -0.157281 0
M  V30 1267 C 123.734 -4.57999 0.0079207 0
M  V30 1268 N 125.225 -4.63176 -0.0475725 0
M  V30 1269 C 125.96 -5.73373 0.0557876 0
M  V30 1270 N 125.456 -6.92473 0.21286 0
M  V30 1271 N 127.249 -5.621 -0.00152098 0
M  V30 1272 H 119.4 -1.87335 1.00098 0
M  V30 1273 H 121.663 -0.86377 0.390646 0
M  V30 1274 H 121.369 -3.40262 0.889629 0
M  V30 1275 H 121.243 -3.67754 -0.838875 0
M  V30 1276 H 123.63 -2.72798 -1.1254 0
M  V30 1277 H 123.711 -2.48053 0.62475 0
M  V30 1278 H 123.355 -4.98496 0.972824 0
M  V30 1279 H 123.285 -5.20586 -0.793556 0
M  V30 1280 H 125.776 -3.7753 -0.167244 0
M  V30 1281 H 126.089 -7.72279 0.283781 0
M  V30 1282 H 124.434 -6.94556 0.248267 0
M  V30 1283 H 127.625 -4.67938 -0.122958 0
M  V30 1284 H 127.798 -6.47948 0.0824844 0
M  V30 1285 N 121.204 0.198386 -1.56346 0
M  V30 1286 C 122.137 1.27381 -1.89339 0
M  V30 1287 C 123.115 1.44106 -0.753134 0
M  V30 1288 O 124.299 1.59549 -1.00381 0
M  V30 1289 C 121.426 2.6409 -2.12071 0
M  V30 1290 C 120.472 2.64253 -3.34772 0
M  V30 1291 S 121.305 2.16013 -4.89999 0
M  V30 1292 C 122.461 3.54553 -5.15794 0
M  V30 1293 H 122.694 0.992058 -2.8026 0
M  V30 1294 H 120.227 0.401726 -1.49082 0
M  V30 1295 H 122.185 3.42786 -2.2585 0
M  V30 1296 H 120.846 2.89478 -1.21906 0
M  V30 1297 H 120.039 3.64768 -3.47794 0
M  V30 1298 H 119.641 1.93637 -3.1997 0
M  V30 1299 H 121.933 4.50396 -5.06112 0
M  V30 1300 H 122.876 3.46428 -6.1757 0
M  V30 1301 H 123.284 3.49313 -4.43442 0
M  V30 1302 N 122.682 1.50554 0.465978 0
M  V30 1303 C 123.592 1.72585 1.58907 0
M  V30 1304 C 124.608 0.60911 1.6299 0
M  V30 1305 O 125.784 0.88804 1.80765 0
M  V30 1306 C 122.849 1.81995 2.95091 0
M  V30 1307 C 121.91 3.05751 3.01355 0
M  V30 1308 C 121.143 3.14702 4.31043 0
M  V30 1309 O 121.366 2.30313 5.21835 0
M  V30 1310 O 120.3 4.07468 4.43005 0
M  V30 1311 H 124.126 2.67799 1.43239 0
M  V30 1312 H 121.711 1.34711 0.646013 0
M  V30 1313 H 123.593 1.90335 3.75966 0
M  V30 1314 H 122.268 0.899659 3.10947 0
M  V30 1315 H 121.175 3.02908 2.19539 0
M  V30 1316 H 122.508 3.97375 2.90437 0
M  V30 1317 N 124.16 -0.719506 1.40217 0
M  V30 1318 C 125.092 -1.84428 1.36084 0
M  V30 1319 C 126.105 -1.60597 0.266913 0
M  V30 1320 O 127.294 -1.70544 0.526983 0
M  V30 1321 C 124.394 -3.20757 1.094 0
M  V30 1322 C 123.567 -3.71817 2.30372 0
M  V30 1323 C 122.626 -4.86748 1.99907 0
M  V30 1324 O 121.652 -4.99603 2.72737 0
M  V30 1325 N 122.854 -5.7226 0.974635 0
M  V30 1326 H 125.619 -1.88473 2.33019 0
M  V30 1327 H 123.18 -0.900885 1.3452 0
M  V30 1328 H 125.172 -3.95235 0.870116 0
M  V30 1329 H 123.742 -3.11884 0.211452 0
M  V30 1330 H 122.962 -2.88514 2.68614 0
M  V30 1331 H 124.25 -4.02666 3.11026 0
M  V30 1332 H 123.648 -5.6448 0.371368 0
M  V30 1333 H 122.205 -6.46739 0.810656 0
M  V30 1334 N 125.638 -1.25649 -0.95132 0
M  V30 1335 C 126.548 -1.08073 -2.08224 0
M  V30 1336 C 127.564 -0.0169666 -1.73992 0
M  V30 1337 O 128.74 -0.218593 -2.0021 0
M  V30 1338 C 125.805 -0.704922 -3.39458 0
M  V30 1339 C 124.866 -1.84699 -3.87537 0
M  V30 1340 C 124.099 -1.48902 -5.12508 0
M  V30 1341 O 124.322 -0.386156 -5.69091 0
M  V30 1342 O 123.256 -2.32033 -5.55378 0
M  V30 1343 H 127.082 -2.02924 -2.25954 0
M  V30 1344 H 124.667 -1.04618 -1.06656 0
M  V30 1345 H 126.549 -0.507609 -4.18332 0
M  V30 1346 H 125.224 0.214291 -3.2299 0
M  V30 1347 H 124.131 -2.09919 -3.09653 0
M  V30 1348 H 125.464 -2.74557 -4.08509 0
M  V30 1349 N 127.117 1.15442 -1.07289 0
M  V30 1350 C 128.064 2.20161 -0.692653 0
M  V30 1351 C 129.034 1.63073 0.31564 0
M  V30 1352 O 130.219 1.89725 0.202235 0
M  V30 1353 C 127.359 3.44967 -0.0959509 0
M  V30 1354 C 126.472 4.16256 -1.15564 0
M  V30 1355 C 125.607 5.28609 -0.524011 0
M  V30 1356 C 124.646 5.91715 -1.56653 0
M  V30 1357 N 123.783 6.9554 -0.957531 0
M  V30 1358 H 128.623 2.52037 -1.59002 0
M  V30 1359 H 126.16 1.2378 -0.794798 0
M  V30 1360 H 128.118 4.16341 0.267628 0
M  V30 1361 H 126.748 3.1361 0.764772 0
M  V30 1362 H 125.8 3.43385 -1.6368 0
M  V30 1363 H 127.112 4.59268 -1.94613 0
M  V30 1364 H 126.266 6.06604 -0.108032 0
M  V30 1365 H 125.005 4.86787 0.29825 0
M  V30 1366 H 124.01 5.12433 -1.9923 0
M  V30 1367 H 125.235 6.35614 -2.39107 0
M  V30 1368 H 123.181 6.55814 -0.156162 0
M  V30 1369 H 123.098 7.36977 -1.68526 0
M  V30 1370 H 124.366 7.77435 -0.567032 0
M  V30 1371 N 128.595 0.856903 1.32268 0
M  V30 1372 C 129.82 0.474569 2.01897 0
M  V30 1373 C 130.245 -0.921766 1.63967 0
M  V30 1374 O 129.603 -1.60589 0.84148 0
M  V30 1375 C 129.651 0.623799 3.55164 0
M  V30 1376 O 128.755 -0.342459 4.10976 0
M  V30 1377 H 128.096 0.190422 0.63611 0
M  V30 1378 H 130.626 1.15672 1.68764 0
M  V30 1379 H 130.636 0.512169 4.04773 0
M  V30 1380 H 129.311 1.64202 3.82113 0
M  V30 1381 H 127.888 -0.18688 3.72431 0
M  V30 1382 N 130.073 -1.45103 0.615059 0
M  V30 1383 C 131.301 -2.06553 0.11977 0
M  V30 1384 C 131.716 -1.45842 -1.19898 0
M  V30 1385 O 131.073 -0.575325 -1.73194 0
M  V30 1386 C 131.124 -3.61495 -0.018364 0
M  V30 1387 O 130.845 -4.19942 1.24822 0
M  V30 1388 C 132.346 -4.39947 -0.544237 0
M  V30 1389 H 129.566 -0.667096 0.0722739 0
M  V30 1390 H 132.11 -1.8623 0.84491 0
M  V30 1391 H 130.265 -3.81135 -0.693865 0
M  V30 1392 H 130.679 -5.13204 1.0827 0
M  V30 1393 H 132.153 -5.48838 -0.589953 0
M  V30 1394 H 132.63 -4.10255 -1.56805 0
M  V30 1395 H 133.236 -4.25188 0.0974703 0
M  V30 1396 N 131.551 -0.354651 -1.53558 0
M  V30 1397 C 132.779 0.239515 -2.05509 0
M  V30 1398 C 133.194 1.4333 -1.2289 0
M  V30 1399 O 132.551 1.80538 -0.266899 0
M  V30 1400 C 132.602 0.643719 -3.55723 0
M  V30 1401 O 132.323 -0.502602 -4.35207 0
M  V30 1402 C 133.824 1.29743 -4.23889 0
M  V30 1403 H 131.044 0.0442697 -0.669538 0
M  V30 1404 H 133.588 -0.509856 -1.98042 0
M  V30 1405 H 131.743 1.34302 -3.63376 0
M  V30 1406 H 132.157 -0.178172 -5.24197 0
M  V30 1407 H 133.631 1.53091 -5.30346 0
M  V30 1408 H 134.108 2.25441 -3.76926 0
M  V30 1409 H 134.714 0.639865 -4.20459 0
M  V30 1410 N 133.029 1.57378 -0.0835403 0
M  V30 1411 C 134.306 1.85363 0.624507 0
M  V30 1412 C 134.686 0.978239 1.87066 0
M  V30 1413 O 134.034 0.0475908 2.2845 0
M  V30 1414 C 134.244 3.35795 0.950947 0
M  V30 1415 C 135.592 4.03581 1.31939 0
M  V30 1416 O 136.616 3.40609 1.04232 0
M  V30 1417 O 135.475 5.14672 1.83779 0
M  V30 1418 H 132.569 0.766162 0.311329 0
M  V30 1419 H 135.115 1.69307 -0.115362 0
M  V30 1420 H 133.887 3.91244 0.0663899 0
M  V30 1421 H 133.51 3.57154 1.74719 0
M  V30 1422 N 134.507 -0.190092 1.56449 0
M  V30 1423 C 135.784 -0.935886 1.71757 0
M  V30 1424 C 136.164 -2.01173 0.639726 0
M  V30 1425 O 135.512 -2.25827 -0.348502 0
M  V30 1426 C 135.722 -1.51775 3.1427 0
M  V30 1427 C 137.07 -1.99794 3.74656 0
M  V30 1428 O 138.094 -1.61607 3.1743 0
M  V30 1429 O 136.953 -2.70079 4.751 0
M  V30 1430 H 134.047 -0.439229 0.700719 0
M  V30 1431 H 136.593 -0.179395 1.68749 0
M  V30 1432 H 135.365 -0.742505 3.84191 0
M  V30 1433 H 134.988 -2.33894 3.21527 0
M  V30 1434 N 135.985 -1.50799 -0.457987 0
M  V30 1435 C 137.262 -1.52968 -1.21902 0
M  V30 1436 C 137.642 -0.281906 -2.09209 0
M  V30 1437 O 136.99 0.734076 -2.16388 0
M  V30 1438 C 137.2 -2.8326 -2.03875 0
M  V30 1439 C 138.548 -3.34425 -2.6162 0
M  V30 1440 O 139.572 -2.8467 -2.14106 0
M  V30 1441 O 138.431 -4.21188 -3.48228 0
M  V30 1442 H 135.525 -0.614129 -0.553873 0
M  V30 1443 H 138.071 -1.63098 -0.468739 0
M  V30 1444 H 136.843 -3.65543 -1.39621 0
M  V30 1445 H 136.466 -2.76195 -2.8601 0
M  V30 1446 N 137.463 0.71206 -1.40597 0
M  V30 1447 C 138.709 1.47416 -1.39271 0
M  V30 1448 C 139.042 1.942 0.00388791 0
M  V30 1449 O 138.317 1.68403 0.973179 0
M  V30 1450 C 138.6 2.69774 -2.38525 0
M  V30 1451 C 138.453 2.28861 -3.87224 0
M  V30 1452 C 139.772 3.71939 -2.35264 0
M  V30 1453 H 136.891 0.534713 -0.5072 0
M  V30 1454 H 139.533 0.812375 -1.71757 0
M  V30 1455 H 137.683 3.26238 -2.10953 0
M  V30 1456 H 139.355 1.77852 -4.25636 0
M  V30 1457 H 137.598 1.60824 -4.02887 0
M  V30 1458 H 138.269 3.16584 -4.52193 0
M  V30 1459 H 140.745 3.25113 -2.59694 0
M  V30 1460 H 139.621 4.55186 -3.06753 0
M  V30 1461 H 139.882 4.20484 -1.36549 0
M  V30 1462 N 138.941 1.26152 0.944643 0
M  V30 1463 C 139.873 1.03199 2.04652 0
M  V30 1464 C 140.886 -0.00642356 1.62799 0
M  V30 1465 O 142.075 0.233263 1.76969 0
M  V30 1466 C 139.175 0.540111 3.34568 0
M  V30 1467 C 138.348 1.64697 4.05208 0
M  V30 1468 C 137.407 1.15374 5.13396 0
M  V30 1469 O 136.433 1.85013 5.38293 0
M  V30 1470 N 137.635 0.00031529 5.805 0
M  V30 1471 H 140.4 1.9808 2.2491 0
M  V30 1472 H 137.961 1.17491 1.11389 0
M  V30 1473 H 139.953 0.194401 4.04233 0
M  V30 1474 H 138.523 -0.315021 3.11009 0
M  V30 1475 H 137.743 2.16379 3.29506 0
M  V30 1476 H 139.031 2.3903 4.49157 0
M  V30 1477 H 138.429 -0.581336 5.62705 0
M  V30 1478 H 136.986 -0.286346 6.51171 0
M  V30 1479 N 140.419 -1.14872 1.07899 0
M  V30 1480 C 141.366 -2.19791 0.704319 0
M  V30 1481 C 142.336 -1.63238 -0.306987 0
M  V30 1482 O 143.521 -1.8983 -0.192171 0
M  V30 1483 C 140.661 -3.44911 0.114244 0
M  V30 1484 C 139.774 -4.15637 1.1777 0
M  V30 1485 C 138.909 -5.28324 0.552037 0
M  V30 1486 C 137.948 -5.90875 1.59789 0
M  V30 1487 N 137.085 -6.95022 0.994404 0
M  V30 1488 H 141.925 -2.5119 1.60336 0
M  V30 1489 H 139.462 -1.23356 0.801352 0
M  V30 1490 H 141.42 -4.16477 -0.245544 0
M  V30 1491 H 140.05 -3.14011 -0.74813 0
M  V30 1492 H 139.102 -3.42512 1.65499 0
M  V30 1493 H 140.414 -4.5823 1.97046 0
M  V30 1494 H 139.568 -6.06538 0.1402 0
M  V30 1495 H 138.307 -4.86939 -0.272431 0
M  V30 1496 H 137.312 -5.11369 2.01945 0
M  V30 1497 H 138.537 -6.34337 2.42474 0
M  V30 1498 H 136.483 -6.55722 0.190939 0
M  V30 1499 H 136.4 -7.36073 1.72432 0
M  V30 1500 H 137.668 -7.77123 0.608253 0
M  V30 1501 N 141.898 -0.863906 -1.31812 0
M  V30 1502 C 143.123 -0.48527 -2.01643 0
M  V30 1503 C 143.548 0.913058 -1.64453 0
M  V30 1504 O 142.906 1.6014 -0.849985 0
M  V30 1505 C 142.954 -0.642625 -3.54828 0
M  V30 1506 O 142.058 0.320659 -4.11151 0
M  V30 1507 H 141.399 -0.193793 -0.635091 0
M  V30 1508 H 143.929 -1.16565 -1.68148 0
M  V30 1509 H 143.939 -0.533628 -4.04495 0
M  V30 1510 H 142.614 -1.66227 -3.81237 0
M  V30 1511 H 141.191 0.167126 -3.72525 0
M  V30 1512 N 143.376 1.44774 -0.622745 0
M  V30 1513 C 144.653 1.95522 -0.0551974 0
M  V30 1514 C 145.033 1.5649 1.41683 0
M  V30 1515 O 144.381 0.834848 2.12703 0
M  V30 1516 C 144.591 3.4796 -0.269242 0
M  V30 1517 C 145.939 4.24306 -0.158014 0
M  V30 1518 O 146.963 3.55637 -0.200162 0
M  V30 1519 O 145.822 5.46471 -0.0558693 0
M  V30 1520 H 142.916 0.826556 0.0271015 0
M  V30 1521 H 145.462 1.54866 -0.693864 0
M  V30 1522 H 144.234 3.6939 -1.29099 0
M  V30 1523 H 143.857 3.95543 0.403966 0
M  V30 1524 N 144.854 0.36279 1.53368 0
M  V30 1525 C 146.103 -0.22888 2.00397 0
M  V30 1526 C 146.416 -1.50096 1.25421 0
M  V30 1527 O 147.622 -2.17106 1.63025 0
M  V30 1528 C 146.078 -0.458417 3.56969 0
M  V30 1529 C 145.686 0.798877 4.4082 0
M  V30 1530 C 147.43 -1.00789 4.12361 0
M  V30 1531 C 145.337 0.539078 5.88938 0
M  V30 1532 H 144.267 -0.089305 0.748693 0
M  V30 1533 H 146.918 0.481099 1.77081 0
M  V30 1534 H 145.3 -1.22959 3.76427 0
M  V30 1535 H 146.474 1.57262 4.33134 0
M  V30 1536 H 144.789 1.27137 3.96516 0
M  V30 1537 H 147.386 -1.21754 5.20653 0
M  V30 1538 H 147.729 -1.9692 3.66781 0
M  V30 1539 H 148.262 -0.296961 3.9669 0
M  V30 1540 H 145.001 1.47064 6.3879 0
M  V30 1541 H 144.521 -0.196222 5.99479 0
M  V30 1542 H 146.2 0.163542 6.46793 0
M  V30 1543 N 146.332 -1.57332 0.0918853 0
M  V30 1544 C 147.557 -1.98995 -0.584442 0
M  V30 1545 C 147.982 -0.970528 -1.61128 0
M  V30 1546 O 147.34 0.0613904 -1.81196 0
M  V30 1547 C 147.388 -3.39636 -1.21161 0
M  V30 1548 O 146.492 -3.40447 -2.32744 0
M  V30 1549 H 145.833 -0.647165 -0.148572 0
M  V30 1550 H 148.363 -2.03873 0.172347 0
M  V30 1551 H 148.373 -3.7726 -1.55367 0
M  V30 1552 H 147.048 -4.13356 -0.459313 0
M  V30 1553 H 145.625 -3.14614 -2.0018 0
M  V30 1554 N 147.81 0.181792 -1.56548 0
M  V30 1555 C 149.035 0.920019 -1.85877 0
M  V30 1556 C 149.46 1.75494 -0.677021 0
M  V30 1557 O 148.818 1.77399 0.374056 0
M  V30 1558 C 148.866 1.78112 -3.13542 0
M  V30 1559 O 147.97 2.88152 -2.95029 0
M  V30 1560 H 147.311 0.258334 -0.611686 0
M  V30 1561 H 149.841 0.183092 -2.03779 0
M  V30 1562 H 149.851 2.18314 -3.44678 0
M  V30 1563 H 148.526 1.16777 -3.99169 0
M  V30 1564 H 147.103 2.51609 -2.75222 0
M  V30 1565 N 149.288 1.51039 0.449983 0
M  V30 1566 C 150.513 1.6715 1.22783 0
M  V30 1567 C 150.938 0.363081 1.84563 0
M  V30 1568 O 150.296 -0.675433 1.68249 0
M  V30 1569 C 150.344 2.77985 2.29689 0
M  V30 1570 O 149.448 2.40707 3.34864 0
M  V30 1571 H 148.789 0.557746 0.360299 0
M  V30 1572 H 151.319 1.97535 0.533005 0
M  V30 1573 H 151.329 3.01693 2.74673 0
M  V30 1574 H 150.004 3.72935 1.84098 0
M  V30 1575 H 148.581 2.27523 2.95445 0
M  V30 1576 N 150.766 -0.704594 1.40972 0
M  V30 1577 C 151.991 -1.49858 1.43378 0
M  V30 1578 C 152.416 -1.88061 0.038184 0
M  V30 1579 O 151.774 -1.5402 -0.956425 0
M  V30 1580 C 151.822 -2.74333 2.34038 0
M  V30 1581 O 150.926 -3.7147 1.7912 0
M  V30 1582 H 150.267 -0.45139 0.486974 0
M  V30 1583 H 152.797 -0.866832 1.8533 0
M  V30 1584 H 152.807 -3.22741 2.49604 0
M  V30 1585 H 151.482 -2.45863 3.35446 0
M  V30 1586 H 150.059 -3.30363 1.72958 0
M  V30 1587 N 152.244 -1.26651 -0.937939 0
M  V30 1588 C 153.176 -1.04283 -2.04102 0
M  V30 1589 C 154.189 -0.00221014 -1.628 0
M  V30 1590 O 155.378 -0.242645 -1.76843 0
M  V30 1591 C 152.478 -0.557846 -3.34277 0
M  V30 1592 C 151.651 -1.66843 -4.04329 0
M  V30 1593 C 150.71 -1.18095 -5.12777 0
M  V30 1594 O 149.736 -1.87865 -5.37304 0
M  V30 1595 N 150.938 -0.0311006 -5.80492 0
M  V30 1596 H 153.703 -1.9927 -2.23856 0
M  V30 1597 H 151.264 -1.1808 -1.10764 0
M  V30 1598 H 153.256 -0.215836 -4.04124 0
M  V30 1599 H 151.826 0.298523 -3.11171 0
M  V30 1600 H 151.046 -2.18123 -3.28353 0
M  V30 1601 H 152.334 -2.41408 -4.47883 0
M  V30 1602 H 151.732 0.551486 -5.63005 0
M  V30 1603 H 150.289 0.251809 -6.51313 0
M  V30 1604 N 153.722 1.14298 -1.08507 0
M  V30 1605 C 154.97 1.84993 -0.813763 0
M  V30 1606 C 155.291 1.83405 0.662393 0
M  V30 1607 O 154.561 1.28319 1.48024 0
M  V30 1608 H 153.141 0.684966 -0.298045 0
M  V30 1609 H 155.803 1.385 -1.37126 0
M  V30 1610 H 154.899 2.89788 -1.15884 0
M  V30 1611 N 155.201 0.870884 1.31352 0
M  V30 1612 C 156.447 0.482987 1.96965 0
M  V30 1613 C 156.78 -0.962462 1.68672 0
M  V30 1614 O 156.055 -1.6779 0.98371 0
M  V30 1615 C 156.338 0.741752 3.52378 0
M  V30 1616 C 156.191 2.2368 3.9024 0
M  V30 1617 C 157.51 0.208838 4.39604 0
M  V30 1618 H 154.629 0.176955 0.715441 0
M  V30 1619 H 157.271 1.09229 1.55464 0
M  V30 1620 H 155.421 0.223149 3.87859 0
M  V30 1621 H 157.093 2.82273 3.64856 0
M  V30 1622 H 155.336 2.70901 3.38814 0
M  V30 1623 H 156.007 2.3685 4.98604 0
M  V30 1624 H 158.483 0.652529 4.10952 0
M  V30 1625 H 157.359 0.419336 5.47296 0
M  V30 1626 H 157.62 -0.889275 4.33064 0
M  V30 1627 N 156.679 -1.44442 0.630414 0
M  V30 1628 C 157.928 -2.01267 0.132073 0
M  V30 1629 C 158.241 -1.50172 -1.25331 0
M  V30 1630 O 159.447 -1.9912 -1.84562 0
M  V30 1631 C 157.903 -3.59422 0.185362 0
M  V30 1632 C 157.511 -4.19514 1.57201 0
M  V30 1633 C 159.255 -4.23724 -0.256553 0
M  V30 1634 C 157.162 -5.69891 1.58045 0
M  V30 1635 H 156.092 -0.752619 0.0456092 0
M  V30 1636 H 158.743 -1.65666 0.789106 0
M  V30 1637 H 157.125 -3.92318 -0.538759 0
M  V30 1638 H 158.299 -3.98156 2.31966 0
M  V30 1639 H 156.614 -3.67496 1.95795 0
M  V30 1640 H 159.211 -5.34019 -0.269767 0
M  V30 1641 H 159.554 -3.96013 -1.28372 0
M  V30 1642 H 160.087 -3.95629 0.41505 0
M  V30 1643 H 156.826 -6.02336 2.58597 0
M  V30 1644 H 156.346 -5.93373 0.875725 0
M  V30 1645 H 158.025 -6.33515 1.31408 0
M  V30 1646 N 158.157 -0.370918 -1.53173 0
M  V30 1647 C 159.067 0.480823 -2.2962 0
M  V30 1648 C 160.083 1.08789 -1.35798 0
M  V30 1649 O 161.259 1.09768 -1.68858 0
M  V30 1650 C 158.324 1.60227 -3.07454 0
M  V30 1651 C 157.385 1.0222 -4.16953 0
M  V30 1652 C 156.618 2.0902 -4.91066 0
M  V30 1653 O 156.841 3.30222 -4.65091 0
M  V30 1654 O 155.775 1.71778 -5.76867 0
M  V30 1655 H 159.601 -0.141421 -3.03371 0
M  V30 1656 H 157.186 -0.135146 -1.48787 0
M  V30 1657 H 159.068 2.25417 -3.56041 0
M  V30 1658 H 157.743 2.20982 -2.36535 0
M  V30 1659 H 156.65 0.334064 -3.72605 0
M  V30 1660 H 157.983 0.459131 -4.90054 0
M  V30 1661 N 159.635 1.57281 -0.100228 0
M  V30 1662 C 160.582 2.14305 0.856858 0
M  V30 1663 C 161.552 1.06296 1.27634 0
M  V30 1664 O 162.737 1.34109 1.35718 0
M  V30 1665 C 159.877 2.73184 2.10866 0
M  V30 1666 C 158.99 3.95442 1.73925 0
M  V30 1667 C 158.125 4.42468 2.93931 0
M  V30 1668 C 157.164 5.57303 2.5314 0
M  V30 1669 N 156.301 5.99158 3.65997 0
M  V30 1670 H 161.141 2.95772 0.363726 0
M  V30 1671 H 158.678 1.46139 0.167858 0
M  V30 1672 H 160.636 3.05442 2.84185 0
M  V30 1673 H 159.266 1.94437 2.57671 0
M  V30 1674 H 158.318 3.69464 0.905554 0
M  V30 1675 H 159.63 4.78769 1.39935 0
M  V30 1676 H 158.784 4.76537 3.75496 0
M  V30 1677 H 157.523 3.58052 3.31134 0
M  V30 1678 H 156.528 5.22857 1.70003 0
M  V30 1679 H 157.753 6.43471 2.17075 0
M  V30 1680 H 155.699 5.17687 4.02909 0
M  V30 1681 H 155.616 6.77295 3.35869 0
M  V30 1682 H 156.884 6.3786 4.48057 0
M  V30 1683 N 161.113 -0.173488 1.56642 0
M  V30 1684 C 162.023 -1.23482 1.99473 0
M  V30 1685 C 163.039 -1.48567 0.905752 0
M  V30 1686 O 164.215 -1.60758 1.21321 0
M  V30 1687 C 161.28 -2.55444 2.34413 0
M  V30 1688 C 160.341 -2.38241 3.57127 0
M  V30 1689 C 159.574 -3.63909 3.90392 0
M  V30 1690 O 159.797 -4.68996 3.24653 0
M  V30 1691 O 158.731 -3.58149 4.83749 0
M  V30 1692 H 162.557 -0.901279 2.90018 0
M  V30 1693 H 160.142 -0.380185 1.44482 0
M  V30 1694 H 162.024 -3.33292 2.57865 0
M  V30 1695 H 160.699 -2.88382 1.4703 0
M  V30 1696 H 159.606 -1.58431 3.38896 0
M  V30 1697 H 160.939 -2.10228 4.45045 0
M  V30 1698 N 162.591 -1.51276 -0.441967 0
M  V30 1699 C 163.816 -1.67799 -1.21895 0
M  V30 1700 C 164.241 -0.372864 -1.84367 0
M  V30 1701 O 163.599 0.666501 -1.68604 0
M  V30 1702 C 163.647 -2.79199 -2.28211 0
M  V30 1703 O 162.751 -2.42479 -3.33583 0
M  V30 1704 H 162.092 -0.559649 -0.357336 0
M  V30 1705 H 164.622 -1.97815 -0.522522 0
M  V30 1706 H 164.632 -3.03146 -2.73069 0
M  V30 1707 H 163.307 -3.73906 -1.82118 0
M  V30 1708 H 161.884 -2.29087 -2.94234 0
M  V30 1709 N 164.069 0.697108 -1.41344 0
M  V30 1710 C 164.999 1.82353 -1.45841 0
M  V30 1711 C 165.98 1.67115 -0.317247 0
M  V30 1712 O 167.165 1.86871 -0.528474 0
M  V30 1713 C 164.295 3.20476 -1.33838 0
M  V30 1714 C 163.249 3.50415 -2.4575 0
M  V30 1715 C 162.575 4.87878 -2.18813 0
M  V30 1716 C 163.875 3.49546 -3.88091 0
M  V30 1717 H 165.569 1.78846 -2.40113 0
M  V30 1718 H 163.115 0.859028 -1.15571 0
M  V30 1719 H 165.068 3.98988 -1.35596 0
M  V30 1720 H 163.792 3.24604 -0.360498 0
M  V30 1721 H 162.451 2.74253 -2.43271 0
M  V30 1722 H 162.099 4.8863 -1.19371 0
M  V30 1723 H 161.799 5.08875 -2.93803 0
M  V30 1724 H 163.323 5.68702 -2.22284 0
M  V30 1725 H 164.737 4.18066 -3.92293 0
M  V30 1726 H 163.134 3.82075 -4.62751 0
M  V30 1727 H 164.204 2.48552 -4.16353 0
M  V30 1728 N 165.547 1.27147 0.931209 0
M  V30 1729 C 166.795 1.13055 1.6752 0
M  V30 1730 C 167.116 -0.324791 1.92276 0
M  V30 1731 O 166.386 -1.22775 1.52654 0
M  V30 1732 H 164.966 0.415391 0.620854 0
M  V30 1733 H 167.628 1.59623 1.11833 0
M  V30 1734 H 166.724 1.65694 2.64485 0
M  V30 1735 N 167.025 -1.13721 1.09112 0
M  V30 1736 C 168.436 -1.6648 0.845068 0
M  V30 1737 C 168.787 -1.85911 -0.62701 0
M  V30 1738 O 167.912 -1.57556 -1.48341 0
M  V30 1739 C 168.507 -3.02413 1.52748 0
M  V30 1740 C 167.066 -3.52176 1.32849 0
M  V30 1741 C 166.213 -2.27492 1.58564 0
M  V30 1742 H 169.164 -0.976872 1.25072 0
M  V30 1743 H 169.185 -3.68223 0.958752 0
M  V30 1744 H 168.697 -2.88238 2.59885 0
M  V30 1745 H 166.798 -3.7156 0.278137 0
M  V30 1746 H 166.911 -4.32499 2.0611 0
M  V30 1747 H 165.275 -2.33923 1.00758 0
M  V30 1748 H 166.058 -2.15886 2.66924 0
M  V30 1749 N 168.503 -0.877838 -1.30888 0
M  V30 1750 C 169.433 -0.35534 -2.3078 0
M  V30 1751 C 170.414 0.557994 -1.60687 0
M  V30 1752 O 171.599 0.473355 -1.88343 0
M  V30 1753 C 168.729 0.437221 -3.44537 0
M  V30 1754 C 167.683 -0.383715 -4.26276 0
M  V30 1755 C 167.009 0.535014 -5.32017 0
M  V30 1756 C 168.309 -1.62201 -4.96476 0
M  V30 1757 H 170.003 -1.19007 -2.74732 0
M  V30 1758 H 167.549 -0.573698 -1.32078 0
M  V30 1759 H 169.502 0.813334 -4.13477 0
M  V30 1760 H 168.226 1.30553 -2.99372 0
M  V30 1761 H 166.885 -0.741874 -3.59015 0
M  V30 1762 H 166.533 1.40083 -4.831 0
M  V30 1763 H 166.233 -0.0104211 -5.87599 0
M  V30 1764 H 167.757 0.907799 -6.03814 0
M  V30 1765 H 169.171 -1.31689 -5.5797 0
M  V30 1766 H 167.568 -2.10711 -5.61891 0
M  V30 1767 H 168.638 -2.37044 -4.23011 0
M  V30 1768 N 169.982 1.44106 -0.638065 0
M  V30 1769 C 170.912 2.33448 0.0494287 0
M  V30 1770 C 171.893 1.48606 0.827672 0
M  V30 1771 O 173.078 1.77308 0.792173 0
M  V30 1772 C 170.208 3.31771 1.02691 0
M  V30 1773 C 169.162 4.26485 0.359823 0
M  V30 1774 C 168.488 5.14729 1.44769 0
M  V30 1775 C 169.788 5.17056 -0.738296 0
M  V30 1776 H 171.482 2.91183 -0.696636 0
M  V30 1777 H 169.028 1.40014 -0.336456 0
M  V30 1778 H 170.981 3.93161 1.51666 0
M  V30 1779 H 169.705 2.7226 1.80395 0
M  V30 1780 H 168.364 3.66437 -0.10934 0
M  V30 1781 H 168.012 4.51566 2.21578 0
M  V30 1782 H 167.712 5.78913 1.00668 0
M  V30 1783 H 169.236 5.78991 1.93911 0
M  V30 1784 H 170.65 5.72342 -0.331354 0
M  V30 1785 H 169.047 5.89879 -1.10286 0
M  V30 1786 H 170.117 4.57652 -1.60258 0
M  V30 1787 N 171.46 0.379036 1.52974 0
M  V30 1788 C 172.39 -0.452706 2.29069 0
M  V30 1789 C 173.371 -1.07237 1.32039 0
M  V30 1790 O 174.556 -1.08708 1.60923 0
M  V30 1791 C 171.686 -1.5856 3.08992 0
M  V30 1792 C 170.64 -1.0925 4.13822 0
M  V30 1793 C 169.966 -2.31668 4.81907 0
M  V30 1794 C 171.266 -0.167702 5.22031 0
M  V30 1795 H 172.96 0.182181 2.98845 0
M  V30 1796 H 170.506 0.0890592 1.43724 0
M  V30 1797 H 172.459 -2.1742 3.6098 0
M  V30 1798 H 171.183 -2.24792 2.36931 0
M  V30 1799 H 169.842 -0.526494 3.628 0
M  V30 1800 H 169.49 -2.96386 4.06404 0
M  V30 1801 H 169.19 -1.9934 5.52754 0
M  V30 1802 H 170.714 -2.91189 5.36695 0
M  V30 1803 H 172.128 -0.664186 5.6944 0
M  V30 1804 H 170.525 0.0653265 6.00064 0
M  V30 1805 H 171.595 0.786347 4.78482 0
M  V30 1806 N 172.938 -1.57226 0.108567 0
M  V30 1807 C 173.848 -2.18292 -0.859401 0
M  V30 1808 C 174.864 -1.15612 -1.30038 0
M  V30 1809 O 176.04 -1.48039 -1.36552 0
M  V30 1810 C 173.105 -2.762 -2.09558 0
M  V30 1811 C 172.166 -3.93881 -1.70752 0
M  V30 1812 C 171.399 -4.49018 -2.88477 0
M  V30 1813 O 171.622 -4.03068 -4.036 0
M  V30 1814 O 170.556 -5.39852 -2.66164 0
M  V30 1815 H 174.382 -3.01441 -0.369769 0
M  V30 1816 H 171.967 -1.48945 -0.1165 0
M  V30 1817 H 173.849 -3.13156 -2.81978 0
M  V30 1818 H 172.524 -1.96089 -2.57548 0
M  V30 1819 H 171.431 -3.61713 -0.954714 0
M  V30 1820 H 172.764 -4.75396 -1.27513 0
M  V30 1821 N 174.416 0.165178 -1.56732 0
M  V30 1822 C 175.379 1.18822 -1.95995 0
M  V30 1823 C 176.379 1.3685 -0.84431 0
M  V30 1824 O 177.569 1.34152 -1.11126 0
M  V30 1825 C 174.701 2.5521 -2.26011 0
M  V30 1826 H 175.894 0.851825 -2.87548 0
M  V30 1827 H 173.447 0.407857 -1.50885 0
M  V30 1828 H 174.182 2.93852 -1.37191 0
M  V30 1829 H 173.967 2.43489 -3.07336 0
M  V30 1830 H 175.457 3.28927 -2.57288 0
M  V30 1831 N 175.894 1.51508 0.433938 0
M  V30 1832 C 176.824 1.76016 1.53429 0
M  V30 1833 C 177.805 0.610112 1.58782 0
M  V30 1834 O 178.99 0.853177 1.74455 0
M  V30 1835 C 176.12 1.88831 2.9148 0
M  V30 1836 C 175.074 3.04288 3.00987 0
M  V30 1837 C 174.4 3.0229 4.4105 0
M  V30 1838 C 175.7 4.44193 2.74754 0
M  V30 1839 H 177.394 2.68152 1.33171 0
M  V30 1840 H 174.94 1.29035 0.639214 0
M  V30 1841 H 176.893 2.04559 3.6842 0
M  V30 1842 H 175.617 0.933455 3.12976 0
M  V30 1843 H 174.276 2.8827 2.26486 0
M  V30 1844 H 173.924 2.04576 4.59519 0
M  V30 1845 H 173.624 3.79822 4.4834 0
M  V30 1846 H 175.148 3.20116 5.1996 0
M  V30 1847 H 176.562 4.60544 3.41426 0
M  V30 1848 H 174.959 5.23457 2.9345 0
M  V30 1849 H 176.029 4.53996 1.70339 0
M  V30 1850 N 177.372 -0.689602 1.41712 0
M  V30 1851 C 178.649 -1.44457 1.31877 0
M  V30 1852 C 179.029 -2.11039 -0.0508537 0
M  V30 1853 O 178.377 -2.02138 -1.06547 0
M  V30 1854 C 178.587 -2.45913 2.47645 0
M  V30 1855 C 179.935 -3.10991 2.89084 0
M  V30 1856 O 180.959 -2.56238 2.47428 0
M  V30 1857 O 179.818 -4.10174 3.61137 0
M  V30 1858 H 176.912 -0.64362 0.519309 0
M  V30 1859 H 179.458 -0.719576 1.53689 0
M  V30 1860 H 178.23 -1.95409 3.39015 0
M  V30 1861 H 177.853 -3.25913 2.27742 0
M  V30 1862 N 178.85 -1.27639 -0.924453 0
M  V30 1863 C 180.098 -1.13941 -1.66918 0
M  V30 1864 C 180.419 0.314589 -1.92446 0
M  V30 1865 O 179.689 1.21964 -1.53303 0
M  V30 1866 H 178.269 -0.418678 -0.618642 0
M  V30 1867 H 180.931 -1.60213 -1.10985 0
M  V30 1868 H 180.027 -1.67094 -2.63602 0
M  V30 1869 N 180.328 1.1314 -1.09713 0
M  V30 1870 C 181.575 1.84484 -0.834987 0
M  V30 1871 C 181.903 1.83689 0.639418 0
M  V30 1872 O 181.158 1.2724 1.4869 0
M  V30 1873 C 181.457 3.32167 -1.3191 0
M  V30 1874 C 181.123 3.53139 -2.80363 0
M  V30 1875 C 179.785 3.58571 -3.20905 0
M  V30 1876 C 182.137 3.60866 -3.76065 0
M  V30 1877 C 179.465 3.69267 -4.55916 0
M  V30 1878 C 181.817 3.73089 -5.10869 0
M  V30 1879 C 180.481 3.76775 -5.50996 0
M  V30 1880 H 179.751 0.675073 -0.305544 0
M  V30 1881 H 182.398 1.33554 -1.37243 0
M  V30 1882 H 180.703 3.85469 -0.701517 0
M  V30 1883 H 182.4 3.85821 -1.09284 0
M  V30 1884 H 178.99 3.49569 -2.47991 0
M  V30 1885 H 183.174 3.55946 -3.45855 0
M  V30 1886 H 178.43 3.70388 -4.86438 0
M  V30 1887 H 182.604 3.78011 -5.84877 0
M  V30 1888 H 180.231 3.84815 -6.55608 0
M  V30 1889 N 181.806 0.884767 1.30421 0
M  V30 1890 C 183.053 0.503105 1.96151 0
M  V30 1891 C 183.381 -0.947676 1.69851 0
M  V30 1892 O 182.636 -1.68467 0.995861 0
M  V30 1893 C 182.935 0.724318 3.49983 0
M  V30 1894 C 182.601 2.15015 3.96332 0
M  V30 1895 C 181.263 2.54005 4.08699 0
M  V30 1896 C 183.615 3.07936 4.20505 0
M  V30 1897 C 180.943 3.85128 4.42599 0
M  V30 1898 C 183.295 4.3859 4.55874 0
M  V30 1899 C 181.959 4.77474 4.66449 0
M  V30 1900 H 181.229 0.184099 0.717766 0
M  V30 1901 H 183.876 1.12058 1.55291 0
M  V30 1902 H 182.181 0.0238086 3.91793 0
M  V30 1903 H 183.878 0.408617 3.98913 0
M  V30 1904 H 180.468 1.8375 3.87213 0
M  V30 1905 H 184.652 2.79033 4.10431 0
M  V30 1906 H 179.908 4.14996 4.48986 0
M  V30 1907 H 184.082 5.10629 4.7353 0
M  V30 1908 H 181.709 5.79115 4.92473 0
M  V30 1909 N 183.284 -1.43765 0.645699 0
M  V30 1910 C 184.531 -2.01898 0.15604 0
M  V30 1911 C 184.859 -1.50887 -1.22733 0
M  V30 1912 O 184.114 -0.689271 -1.8316 0
M  V30 1913 C 184.413 -3.57238 0.107679 0
M  V30 1914 C 184.079 -4.27564 1.43178 0
M  V30 1915 C 182.741 -4.46492 1.7944 0
M  V30 1916 C 185.093 -4.67454 2.30513 0
M  V30 1917 C 182.421 -5.02573 3.02716 0
M  V30 1918 C 184.773 -5.24901 3.53074 0
M  V30 1919 C 183.437 -5.42046 3.89541 0
M  V30 1920 H 182.707 -0.738797 0.057099 0
M  V30 1921 H 185.354 -1.72341 0.834912 0
M  V30 1922 H 183.659 -3.86293 -0.654618 0
M  V30 1923 H 185.356 -3.99965 -0.287938 0
M  V30 1924 H 181.946 -4.13171 1.13963 0
M  V30 1925 H 186.13 -4.5253 2.0379 0
M  V30 1926 H 181.386 -5.14033 3.31028 0
M  V30 1927 H 185.56 -5.54758 4.20971 0
M  V30 1928 H 183.187 -5.85268 4.85145 0
M  V30 1929 N 184.763 -0.387143 -1.52771 0
M  V30 1930 C 186.009 0.196025 -2.0185 0
M  V30 1931 C 186.342 1.46641 -1.27319 0
M  V30 1932 O 185.617 1.90889 -0.373032 0
M  V30 1933 C 185.9 0.466136 -3.5707 0
M  V30 1934 C 185.753 -0.819385 -4.42274 0
M  V30 1935 C 187.072 1.25768 -4.21747 0
M  V30 1936 H 184.191 0.0697708 -0.73369 0
M  V30 1937 H 186.833 -0.516286 -1.82851 0
M  V30 1938 H 184.983 1.07293 -3.7339 0
M  V30 1939 H 186.655 -1.4563 -4.37709 0
M  V30 1940 H 184.898 -1.43517 -4.09372 0
M  V30 1941 H 185.569 -0.585065 -5.48891 0
M  V30 1942 H 188.045 0.744167 -4.09391 0
M  V30 1943 H 186.921 1.41541 -5.30337 0
M  V30 1944 H 187.182 2.27228 -3.79236 0
M  V30 1945 N 186.241 1.57166 -0.116904 0
M  V30 1946 C 187.487 1.95412 0.542405 0
M  V30 1947 C 187.82 1.00019 1.66463 0
M  V30 1948 O 187.095 0.0370346 1.94465 0
M  V30 1949 C 187.378 3.43615 1.07708 0
M  V30 1950 C 187.231 4.49781 -0.0415868 0
M  V30 1951 C 188.55 3.93616 1.96861 0
M  V30 1952 H 185.669 0.710543 0.195696 0
M  V30 1953 H 188.311 1.89027 -0.192038 0
M  V30 1954 H 186.461 3.49187 1.70296 0
M  V30 1955 H 188.133 4.56308 -0.676793 0
M  V30 1956 H 186.376 4.28033 -0.705019 0
M  V30 1957 H 187.047 5.50733 0.373717 0
M  V30 1958 H 189.523 3.90335 1.44146 0
M  V30 1959 H 188.399 4.97838 2.3119 0
M  V30 1960 H 188.66 3.34188 2.89432 0
M  V30 1961 N 187.719 -0.156864 1.56817 0
M  V30 1962 C 188.667 -1.21319 1.98455 0
M  V30 1963 C 189.661 -1.45025 0.875444 0
M  V30 1964 O 190.867 -1.45435 1.0606 0
M  V30 1965 H 187.242 -0.408142 0.631605 0
M  V30 1966 H 189.213 -0.835244 2.86472 0
M  V30 1967 C 187.962 -2.54148 2.37285 0
M  V30 1968 H 187.285 -2.36733 3.22176 0
M  V30 1969 H 188.725 -3.26712 2.70251 0
M  V30 1970 C 187.184 -3.13967 1.22173 0
M  V30 1971 O 187.714 -3.98357 0.517149 0
M  V30 1972 N 185.92 -2.7327 0.988536 0
M  V30 1973 H 185.467 -2.04744 1.56326 0
M  V30 1974 H 185.425 -3.13628 0.220209 0
M  V30 1975 N 189.197 -1.51736 -0.425897 0
M  V30 1976 C 190.437 -1.66636 -1.18371 0
M  V30 1977 C 190.801 -0.379854 -1.88205 0
M  V30 1978 O 192.002 -0.404758 -2.65735 0
M  V30 1979 C 190.273 -2.84382 -2.16476 0
M  V30 1980 S 191.832 -3.19673 -3.0059 0
M  V30 1981 H 188.65 -0.586957 -0.40125 0
M  V30 1982 H 191.252 -1.89679 -0.473518 0
M  V30 1983 H 189.956 -3.76281 -1.63831 0
M  V30 1984 H 189.487 -2.63562 -2.92059 0
M  V30 1985 H 191.502 -2.66994 -4.18245 0
M  V30 1986 N 190.675 0.682077 -1.42076 0
M  V30 1987 C 191.585 1.82535 -1.47371 0
M  V30 1988 C 192.601 1.7017 -0.363079 0
M  V30 1989 O 193.777 1.91848 -0.612875 0
M  V30 1990 C 190.842 3.18624 -1.36674 0
M  V30 1991 C 189.903 3.42999 -2.58167 0
M  V30 1992 C 189.136 4.72595 -2.4797 0
M  V30 1993 O 189.359 5.50006 -1.5116 0
M  V30 1994 O 188.293 4.98054 -3.37974 0
M  V30 1995 H 192.119 1.81023 -2.43853 0
M  V30 1996 H 189.704 0.836887 -1.2376 0
M  V30 1997 H 191.586 3.99847 -1.33043 0
M  V30 1998 H 190.261 3.20789 -0.433138 0
M  V30 1999 H 189.168 2.61653 -2.67373 0
M  V30 2000 H 190.501 3.45659 -3.50401 0
M  V30 2001 N 192.153 1.28127 0.917671 0
M  V30 2002 C 193.401 1.14825 1.66312 0
M  V30 2003 C 193.722 -0.304379 1.9261 0
M  V30 2004 O 192.992 -1.21149 1.53947 0
M  V30 2005 H 191.572 0.421953 0.616413 0
M  V30 2006 H 194.234 1.608 1.10134 0
M  V30 2007 H 193.33 1.68489 2.62712 0
M  V30 2008 N 193.631 -1.12557 1.10312 0
M  V30 2009 C 195.047 -1.36036 0.834649 0
M  V30 2010 C 195.247 -1.93946 -0.546539 0
M  V30 2011 O 194.303 -2.16484 -1.29966 0
M  V30 2012 C 195.616 -2.30312 1.9333 0
M  V30 2013 C 197.164 -2.43906 1.9616 0
M  V30 2014 C 197.639 -3.41496 3.05195 0
M  V30 2015 N 199.13 -3.49053 3.04494 0
M  V30 2016 C 199.865 -4.24471 3.85502 0
M  V30 2017 N 199.361 -5.02966 4.76442 0
M  V30 2018 N 201.154 -4.19864 3.73725 0
M  V30 2019 H 193.305 -0.733246 1.99342 0
M  V30 2020 H 195.568 -0.385234 0.866198 0
M  V30 2021 H 195.274 -1.94933 2.92735 0
M  V30 2022 H 195.148 -3.30421 1.81939 0
M  V30 2023 H 197.535 -2.78567 0.973886 0
M  V30 2024 H 197.616 -1.4369 2.11629 0
M  V30 2025 H 197.26 -3.07565 4.04186 0
M  V30 2026 H 197.19 -4.41539 2.86968 0
M  V30 2027 H 199.681 -2.93053 2.38596 0
M  V30 2028 H 199.994 -5.57846 5.34815 0
M  V30 2029 H 198.339 -5.02167 4.80472 0
M  V30 2030 H 201.53 -3.57623 3.02032 0
M  V30 2031 H 201.703 -4.78386 4.37093 0
M  V30 2032 N 195.109 -0.891671 -1.2995 0
M  V30 2033 C 196.358 -0.509521 -1.95158 0
M  V30 2034 C 196.671 0.947388 -1.71125 0
M  V30 2035 O 197.877 1.43669 -2.30372 0
M  V30 2036 C 196.333 -0.860315 -3.49466 0
M  V30 2037 C 195.941 -2.33545 -3.8231 0
M  V30 2038 C 197.685 -0.547687 -4.20952 0
M  V30 2039 C 195.592 -2.62752 -5.29826 0
M  V30 2040 H 194.522 -0.18682 -0.730489 0
M  V30 2041 H 197.173 -1.08756 -1.47798 0
M  V30 2042 H 195.555 -0.211285 -3.95436 0
M  V30 2043 H 196.729 -3.02936 -3.47227 0
M  V30 2044 H 195.044 -2.61629 -3.23944 0
M  V30 2045 H 197.641 -0.742854 -5.29515 0
M  V30 2046 H 197.984 0.51332 -4.13123 0
M  V30 2047 H 198.517 -1.1542 -3.80688 0
M  V30 2048 H 195.256 -3.6762 -5.42712 0
M  V30 2049 H 194.776 -1.97977 -5.66185 0
M  V30 2050 H 196.455 -2.48601 -5.97333 0
M  V30 2051 N 196.587 1.43421 -0.653314 0
M  V30 2052 C 197.833 2.02111 -0.166992 0
M  V30 2053 C 198.166 1.51423 1.21592 0
M  V30 2054 O 197.441 0.707389 1.8118 0
M  V30 2055 C 197.724 3.5966 -0.177948 0
M  V30 2056 C 197.577 4.20579 -1.59478 0
M  V30 2057 C 198.896 4.37413 0.4856 0
M  V30 2058 H 196.015 0.734374 -0.0621557 0
M  V30 2059 H 198.657 1.70717 -0.834016 0
M  V30 2060 H 196.807 3.86537 0.390032 0
M  V30 2061 H 198.479 4.04732 -2.21336 0
M  V30 2062 H 196.722 3.77226 -2.14204 0
M  V30 2063 H 197.393 5.29665 -1.5543 0
M  V30 2064 H 199.869 4.161 0.00234528 0
M  V30 2065 H 198.745 5.47075 0.447207 0
M  V30 2066 H 199.006 4.13672 1.55974 0
M  V30 2067 N 198.065 0.39524 1.52563 0
M  V30 2068 C 199.312 -0.185044 2.01653 0
M  V30 2069 C 199.64 -1.46317 1.28146 0
M  V30 2070 O 198.895 -1.9213 0.372074 0
M  V30 2071 C 199.194 -0.493444 3.53977 0
M  V30 2072 C 198.86 0.69384 4.4553 0
M  V30 2073 C 197.522 1.01954 4.70275 0
M  V30 2074 C 199.874 1.48785 4.99512 0
M  V30 2075 C 197.202 2.14069 5.46252 0
M  V30 2076 C 199.554 2.59965 5.76716 0
M  V30 2077 C 198.218 2.93037 5.99738 0
M  V30 2078 H 197.488 -0.0677123 0.7379 0
M  V30 2079 H 200.135 0.533807 1.8391 0
M  V30 2080 H 198.44 -1.29369 3.69825 0
M  V30 2081 H 200.137 -0.955163 3.89458 0
M  V30 2082 H 196.727 0.429987 4.26438 0
M  V30 2083 H 200.911 1.24946 4.80315 0
M  V30 2084 H 196.167 2.40056 5.62302 0
M  V30 2085 H 200.341 3.21887 6.17545 0
M  V30 2086 H 197.968 3.8003 6.58393 0
M  V30 2087 N 199.544 -1.57102 0.125237 0
M  V30 2088 C 200.79 -1.95697 -0.532035 0
M  V30 2089 C 201.123 -1.009 -1.6593 0
M  V30 2090 O 200.398 -0.047347 -1.94442 0
M  V30 2091 C 200.681 -3.44181 -1.05884 0
M  V30 2092 C 200.534 -4.49752 0.0654392 0
M  V30 2093 C 201.853 -3.94655 -1.9477 0
M  V30 2094 H 198.972 -0.711571 -0.191925 0
M  V30 2095 H 201.614 -1.88923 0.20206 0
M  V30 2096 H 199.764 -3.50085 -1.68442 0
M  V30 2097 H 201.436 -4.55943 0.700982 0
M  V30 2098 H 199.679 -4.27653 0.727709 0
M  V30 2099 H 200.35 -5.50924 -0.344505 0
M  V30 2100 H 202.826 -3.91094 -1.42074 0
M  V30 2101 H 201.702 -4.99057 -2.28546 0
M  V30 2102 H 201.963 -3.35718 -2.87656 0
M  V30 2103 N 201.022 0.148545 -1.56898 0
M  V30 2104 C 202.247 0.880385 -1.87787 0
M  V30 2105 C 202.672 1.74018 -0.714093 0
M  V30 2106 O 202.03 1.78153 0.336343 0
M  V30 2107 C 202.078 1.71422 -3.17249 0
M  V30 2108 O 201.182 2.8183 -3.01074 0
M  V30 2109 H 200.523 0.245301 -0.617028 0
M  V30 2110 H 203.053 0.139826 -2.04122 0
M  V30 2111 H 203.063 2.10954 -3.49231 0
M  V30 2112 H 201.738 1.08284 -4.01556 0
M  V30 2113 H 200.315 2.45715 -2.80497 0
M  V30 2114 N 202.5 1.5196 0.417844 0
M  V30 2115 C 203.41 1.77554 1.53336 0
M  V30 2116 C 204.426 0.660655 1.6097 0
M  V30 2117 O 205.602 0.945099 1.77848 0
M  V30 2118 C 202.667 1.91291 2.89152 0
M  V30 2119 C 201.728 3.15183 2.91475 0
M  V30 2120 C 200.961 3.28256 4.20813 0
M  V30 2121 O 201.184 2.46798 5.14244 0
M  V30 2122 O 200.118 4.21356 4.29817 0
M  V30 2123 H 203.944 2.7222 1.34647 0
M  V30 2124 H 201.529 1.36698 0.602828 0
M  V30 2125 H 203.411 2.02199 3.69721 0
M  V30 2126 H 202.086 0.998129 3.07927 0
M  V30 2127 H 200.993 3.09739 2.09791 0
M  V30 2128 H 202.326 4.06414 2.77648 0
M  V30 2129 N 203.978 -0.674533 1.42435 0
M  V30 2130 C 204.926 -1.80934 1.46169 0
M  V30 2131 C 205.92 -1.66006 0.3374 0
M  V30 2132 O 207.126 -1.72611 0.510425 0
M  V30 2133 H 203.501 -0.596594 0.457798 0
M  V30 2134 H 205.472 -1.74903 2.41767 0
M  V30 2135 C 204.221 -3.19088 1.38123 0
M  V30 2136 H 203.544 -3.31203 2.23931 0
M  V30 2137 H 204.984 -3.9851 1.44797 0
M  V30 2138 C 203.443 -3.36763 0.0960517 0
M  V30 2139 O 203.973 -3.92581 -0.851073 0
M  V30 2140 N 202.179 -2.90597 0.0131186 0
M  V30 2141 H 201.726 -2.45359 0.784639 0
M  V30 2142 H 201.684 -3.028 -0.846133 0
M  V30 2143 N 205.456 -1.28612 -0.910864 0
M  V30 2144 C 206.702 -1.16106 -1.66274 0
M  V30 2145 C 207.035 0.289113 -1.92036 0
M  V30 2146 O 206.31 1.21 -1.52281 0
M  V30 2147 C 206.593 -1.96309 -3.01885 0
M  V30 2148 C 206.446 -3.49405 -2.8326 0
M  V30 2149 C 207.765 -1.78076 -4.02463 0
M  V30 2150 H 204.884 -0.423152 -0.603417 0
M  V30 2151 H 207.526 -1.57961 -1.05586 0
M  V30 2152 H 205.676 -1.60742 -3.53687 0
M  V30 2153 H 207.348 -3.94894 -2.38446 0
M  V30 2154 H 205.591 -3.74893 -2.18261 0
M  V30 2155 H 206.262 -4.00784 -3.79574 0
M  V30 2156 H 208.738 -2.0912 -3.59733 0
M  V30 2157 H 207.614 -2.36561 -4.95308 0
M  V30 2158 H 207.875 -0.733008 -4.35981 0
M  V30 2159 N 206.934 1.1197 -1.10907 0
M  V30 2160 C 208.162 1.87402 -0.876824 0
M  V30 2161 C 208.577 1.79894 0.573025 0
M  V30 2162 O 207.934 1.17629 1.39534 0
M  V30 2163 C 207.985 3.36428 -1.32282 0
M  V30 2164 O 207.706 3.43765 -2.71582 0
M  V30 2165 C 209.207 4.28783 -1.12518 0
M  V30 2166 H 206.427 0.592793 -0.314384 0
M  V30 2167 H 208.971 1.41649 -1.47499 0
M  V30 2168 H 207.126 3.79706 -0.768229 0
M  V30 2169 H 207.54 4.3652 -2.90776 0
M  V30 2170 H 209.014 5.31613 -1.48633 0
M  V30 2171 H 209.491 4.39153 -0.0642394 0
M  V30 2172 H 210.097 3.91291 -1.66648 0
M  V30 2173 N 208.412 0.89855 1.29475 0
M  V30 2174 C 209.637 0.538561 2.00285 0
M  V30 2175 C 210.062 -0.869135 1.66816 0
M  V30 2176 O 209.42 -1.57831 0.892145 0
M  V30 2177 C 209.468 0.736475 3.52999 0
M  V30 2178 O 208.572 -0.211537 4.11857 0
M  V30 2179 H 207.913 0.210563 0.62973 0
M  V30 2180 H 210.443 1.20982 1.64998 0
M  V30 2181 H 210.453 0.640685 4.02938 0
M  V30 2182 H 209.128 1.76276 3.76696 0
M  V30 2183 H 207.705 -0.0682991 3.72837 0
M  V30 2184 N 209.89 -1.43072 0.660911 0
M  V30 2185 C 211.12 -2.05769 0.185153 0
M  V30 2186 C 211.528 -1.49668 -1.15742 0
M  V30 2187 O 210.871 -0.625649 -1.72717 0
M  V30 2188 C 210.933 -3.59489 0.0278237 0
M  V30 2189 C 210.597 -4.38212 1.2969 0
M  V30 2190 C 211.594 -4.69772 2.22734 0
M  V30 2191 C 209.279 -4.7809 1.54063 0
M  V30 2192 C 211.273 -5.40129 3.38437 0
M  V30 2193 C 208.96 -5.4819 2.70058 0
M  V30 2194 C 209.958 -5.79132 3.62071 0
M  V30 2195 O 209.646 -6.47798 4.76039 0
M  V30 2196 H 209.378 -0.669873 0.0908086 0
M  V30 2197 H 211.932 -1.84436 0.90402 0
M  V30 2198 H 210.162 -3.79426 -0.746489 0
M  V30 2199 H 211.851 -4.03862 -0.406275 0
M  V30 2200 H 212.617 -4.39476 2.05149 0
M  V30 2201 H 208.496 -4.53408 0.833215 0
M  V30 2202 H 212.04 -5.64198 4.10277 0
M  V30 2203 H 207.937 -5.77902 2.87574 0
M  V30 2204 H 208.705 -6.66283 4.75404 0
M  V30 2205 N 211.368 -0.403325 -1.52352 0
M  V30 2206 C 212.298 0.416205 -2.29761 0
M  V30 2207 C 213.279 1.05123 -1.33728 0
M  V30 2208 O 214.464 1.06134 -1.62632 0
M  V30 2209 C 211.594 1.53624 -3.11475 0
M  V30 2210 C 210.548 1.02653 -4.15507 0
M  V30 2211 C 209.874 2.23971 -4.85532 0
M  V30 2212 C 211.174 0.08463 -5.22231 0
M  V30 2213 H 212.868 -0.229701 -2.98518 0
M  V30 2214 H 210.414 -0.111913 -1.43564 0
M  V30 2215 H 212.367 2.1165 -3.64393 0
M  V30 2216 H 211.091 2.20994 -2.40477 0
M  V30 2217 H 209.75 0.46871 -3.63591 0
M  V30 2218 H 209.398 2.89883 -4.11068 0
M  V30 2219 H 209.098 1.90521 -5.55856 0
M  V30 2220 H 210.622 2.82614 -5.41259 0
M  V30 2221 H 212.036 0.573509 -5.70424 0
M  V30 2222 H 210.433 -0.160783 -5.99885 0
M  V30 2223 H 211.503 -0.86237 -4.7717 0
M  V30 2224 N 212.846 1.57033 -0.133567 0
M  V30 2225 C 214.094 1.953 0.519848 0
M  V30 2226 C 214.415 1.01866 1.66278 0
M  V30 2227 O 213.685 0.0776513 1.95746 0
M  V30 2228 H 212.265 0.721091 0.195032 0
M  V30 2229 H 214.927 1.93809 -0.205921 0
M  V30 2230 H 214.023 2.98695 0.904854 0
M  V30 2231 N 214.325 -0.140222 1.56975 0
M  V30 2232 C 215.555 -0.865181 1.87612 0
M  V30 2233 C 215.963 -1.74942 0.72055 0
M  V30 2234 O 215.306 -1.80917 -0.318561 0
M  V30 2235 C 215.368 -1.76782 3.13031 0
M  V30 2236 C 215.032 -1.06005 4.44536 0
M  V30 2237 C 216.029 -0.410768 5.18275 0
M  V30 2238 C 213.714 -1.04754 4.91255 0
M  V30 2239 C 215.708 0.241572 6.36942 0
M  V30 2240 C 213.395 -0.391394 6.09845 0
M  V30 2241 C 214.393 0.252029 6.82535 0
M  V30 2242 O 214.081 0.897757 7.98871 0
M  V30 2243 H 213.813 -0.255188 0.625983 0
M  V30 2244 H 216.367 -0.135653 2.04952 0
M  V30 2245 H 214.597 -2.53846 2.91718 0
M  V30 2246 H 216.286 -2.36533 3.29859 0
M  V30 2247 H 217.052 -0.412195 4.83245 0
M  V30 2248 H 212.931 -1.53777 4.34596 0
M  V30 2249 H 216.475 0.744375 6.93617 0
M  V30 2250 H 212.372 -0.387656 6.44335 0
M  V30 2251 H 213.14 0.800102 8.1458 0
M  V30 2252 N 215.803 -1.52179 -0.40978 0
M  V30 2253 C 216.751 -1.76086 -1.51975 0
M  V30 2254 C 217.745 -0.627964 -1.57331 0
M  V30 2255 O 218.951 -0.809993 -1.60745 0
M  V30 2256 H 215.326 -0.556829 -0.505416 0
M  V30 2257 H 217.297 -2.69077 -1.28996 0
M  V30 2258 C 216.046 -1.92799 -2.8935 0
M  V30 2259 H 215.369 -2.79392 -2.85972 0
M  V30 2260 H 216.809 -2.13527 -3.66309 0
M  V30 2261 C 215.268 -0.694923 -3.29655 0
M  V30 2262 O 215.798 0.13751 -4.01465 0
M  V30 2263 N 214.004 -0.53101 -2.85707 0
M  V30 2264 H 213.551 -1.20952 -2.27439 0
M  V30 2265 H 213.509 0.292718 -3.13034 0
M  V30 2266 N 217.281 0.66697 -1.42791 0
M  V30 2267 C 218.213 1.7925 -1.42836 0
M  V30 2268 C 219.226 1.59496 -0.326333 0
M  V30 2269 O 220.415 1.6847 -0.589916 0
M  V30 2270 C 217.515 3.16476 -1.21229 0
M  V30 2271 C 216.688 3.63011 -2.44013 0
M  V30 2272 C 215.747 4.78993 -2.17834 0
M  V30 2273 O 214.773 4.89137 -2.91091 0
M  V30 2274 N 215.975 5.68248 -1.18635 0
M  V30 2275 H 218.74 1.79695 -2.39854 0
M  V30 2276 H 216.301 0.850338 -1.37771 0
M  V30 2277 H 218.293 3.91734 -1.01621 0
M  V30 2278 H 216.863 3.10884 -0.32706 0
M  V30 2279 H 216.083 2.78346 -2.79137 0
M  V30 2280 H 217.371 3.90845 -3.25757 0
M  V30 2281 H 216.769 5.62712 -0.580615 0
M  V30 2282 H 215.326 6.43285 -1.05013 0
M  V30 2283 N 218.759 1.29093 0.90403 0
M  V30 2284 C 219.669 1.15727 2.0407 0
M  V30 2285 C 220.685 0.0815308 1.73809 0
M  V30 2286 O 221.861 0.292749 1.99261 0
M  V30 2287 C 218.926 0.830424 3.36608 0
M  V30 2288 C 217.987 1.98955 3.80415 0
M  V30 2289 C 217.22 1.6782 5.06628 0
M  V30 2290 O 217.443 0.597105 5.67266 0
M  V30 2291 O 216.377 2.52486 5.46383 0
M  V30 2292 H 220.203 2.11171 2.18267 0
M  V30 2293 H 217.788 1.08504 1.027 0
M  V30 2294 H 219.67 0.662521 4.16159 0
M  V30 2295 H 218.345 -0.0942678 3.23563 0
M  V30 2296 H 217.252 2.21267 3.01648 0
M  V30 2297 H 218.585 2.89529 3.98037 0
M  V30 2298 N 220.237 -1.11381 1.11499 0
M  V30 2299 C 221.147 -2.21019 0.786628 0
M  V30 2300 C 222.163 -1.72597 -0.220507 0
M  V30 2301 O 223.339 -2.01321 -0.0565251 0
M  V30 2302 C 220.404 -3.459 0.235333 0
M  V30 2303 C 219.465 -4.09107 1.30115 0
M  V30 2304 C 218.698 -5.28027 0.776068 0
M  V30 2305 O 218.921 -5.6904 -0.393661 0
M  V30 2306 O 217.855 -5.81835 1.54114 0
M  V30 2307 H 221.681 -2.51521 1.70209 0
M  V30 2308 H 219.266 -1.19928 0.890928 0
M  V30 2309 H 221.148 -4.21346 -0.067715 0
M  V30 2310 H 219.823 -3.17049 -0.652828 0
M  V30 2311 H 218.73 -3.35391 1.65722 0
M  V30 2312 H 220.063 -4.42139 2.16273 0
M  V30 2313 N 221.715 -0.905404 -1.28997 0
M  V30 2314 C 222.645 -0.404212 -2.29975 0
M  V30 2315 C 223.626 0.523784 -1.61835 0
M  V30 2316 O 224.811 0.433298 -1.89304 0
M  V30 2317 C 221.941 0.364042 -3.45387 0
M  V30 2318 C 220.895 -0.474048 -4.25367 0
M  V30 2319 C 220.221 0.422045 -5.33032 0
M  V30 2320 C 221.521 -1.72696 -4.92923 0
M  V30 2321 H 223.215 -1.24807 -2.72146 0
M  V30 2322 H 220.761 -0.601585 -1.30832 0
M  V30 2323 H 222.714 0.725447 -4.15109 0
M  V30 2324 H 221.438 1.24174 -3.02074 0
M  V30 2325 H 220.097 -0.81786 -3.57361 0
M  V30 2326 H 219.745 1.29804 -4.85963 0
M  V30 2327 H 219.445 -0.135057 -5.87445 0
M  V30 2328 H 220.969 0.779517 -6.05604 0
M  V30 2329 H 222.383 -1.43495 -5.55051 0
M  V30 2330 H 220.78 -2.22582 -5.57295 0
M  V30 2331 H 221.85 -2.45964 -4.17887 0
M  V30 2332 N 223.193 1.4272 -0.668489 0
M  V30 2333 C 224.126 2.28111 0.0637898 0
M  V30 2334 C 225.104 1.40705 0.814912 0
M  V30 2335 O 226.288 1.70146 0.81134 0
M  V30 2336 C 223.415 3.20429 1.0974 0
M  V30 2337 C 222.461 4.24197 0.442579 0
M  V30 2338 S 223.294 5.29563 -0.795173 0
M  V30 2339 C 224.45 6.25449 0.237516 0
M  V30 2340 H 224.683 2.8987 -0.660521 0
M  V30 2341 H 222.216 1.47456 -0.457821 0
M  V30 2342 H 224.174 3.74158 1.68868 0
M  V30 2343 H 222.835 2.57818 1.79411 0
M  V30 2344 H 222.028 4.88954 1.22227 0
M  V30 2345 H 221.63 3.73925 -0.0749554 0
M  V30 2346 H 223.922 6.68524 1.09915 0
M  V30 2347 H 224.865 7.07104 -0.375421 0
M  V30 2348 H 225.273 5.61511 0.580167 0
M  V30 2349 N 224.671 0.411399 1.52136 0
M  V30 2350 C 225.619 -0.427633 2.28635 0
M  V30 2351 C 226.613 -1.04383 1.33419 0
M  V30 2352 O 227.819 -0.981772 1.50868 0
M  V30 2353 H 224.194 -0.156689 0.735495 0
M  V30 2354 H 226.165 0.238761 2.97443 0
M  V30 2355 C 224.914 -1.53082 3.12188 0
M  V30 2356 H 224.237 -1.06601 3.85326 0
M  V30 2357 H 225.677 -2.09167 3.68816 0
M  V30 2358 C 224.136 -2.49946 2.25895 0
M  V30 2359 O 224.666 -3.53884 1.90076 0
M  V30 2360 N 222.872 -2.2021 1.8962 0
M  V30 2361 H 222.419 -1.35719 2.18948 0
M  V30 2362 H 222.377 -2.85266 1.32176 0
M  V30 2363 N 226.149 -1.5696 0.141893 0
M  V30 2364 C 227.377 -2.00322 -0.517579 0
M  V30 2365 C 227.792 -1.02193 -1.58752 0
M  V30 2366 O 227.149 -0.0181619 -1.82491 0
M  V30 2367 C 227.2 -3.43618 -1.12289 0
M  V30 2368 O 226.921 -4.37995 -0.0956929 0
M  V30 2369 C 228.422 -4.02231 -1.86347 0
M  V30 2370 H 225.642 -0.657243 -0.135177 0
M  V30 2371 H 228.186 -2.03146 0.234973 0
M  V30 2372 H 226.341 -3.41662 -1.82609 0
M  V30 2373 H 226.755 -5.21729 -0.538469 0
M  V30 2374 H 228.229 -5.04509 -2.23997 0
M  V30 2375 H 228.706 -3.42655 -2.74744 0
M  V30 2376 H 229.312 -4.07802 -1.20737 0
M  V30 2377 N 227.627 0.131896 -1.57047 0
M  V30 2378 C 228.852 0.860418 -1.8871 0
M  V30 2379 C 229.277 1.73251 -0.73251 0
M  V30 2380 O 228.635 1.785 0.317429 0
M  V30 2381 C 228.683 1.68047 -3.19049 0
M  V30 2382 O 227.787 2.7862 -3.04047 0
M  V30 2383 H 227.128 0.238743 -0.619595 0
M  V30 2384 H 229.658 0.118169 -2.04258 0
M  V30 2385 H 229.668 2.07238 -3.51449 0
M  V30 2386 H 228.343 1.04018 -4.02682 0
M  V30 2387 H 226.92 2.42726 -2.83088 0
M  V30 2388 N 229.106 1.52395 0.401703 0
M  V30 2389 C 230.352 1.67065 1.14966 0
M  V30 2390 C 230.685 0.403052 1.89971 0
M  V30 2391 O 229.96 -0.598774 1.85054 0
M  V30 2392 C 230.243 2.8975 2.13815 0
M  V30 2393 C 230.096 4.26578 1.42658 0
M  V30 2394 C 231.415 3.07965 3.14397 0
M  V30 2395 H 228.534 0.607968 0.416587 0
M  V30 2396 H 231.176 1.84965 0.434511 0
M  V30 2397 H 229.326 2.74619 2.74803 0
M  V30 2398 H 230.998 4.53451 0.847329 0
M  V30 2399 H 229.241 4.27639 0.72849 0
M  V30 2400 H 229.912 5.08483 2.14823 0
M  V30 2401 H 232.388 3.22043 2.63491 0
M  V30 2402 H 231.264 3.95308 3.80819 0
M  V30 2403 H 231.525 2.21611 3.82545 0
M  V30 2404 N 230.584 -0.659388 1.43143 0
M  V30 2405 C 231.814 -1.44513 1.47646 0
M  V30 2406 C 232.222 -1.88981 0.0910095 0
M  V30 2407 O 231.565 -1.59702 -0.907789 0
M  V30 2408 C 231.627 -2.71663 2.35456 0
M  V30 2409 C 231.291 -2.49175 3.83094 0
M  V30 2410 C 232.288 -2.1279 4.74359 0
M  V30 2411 C 229.973 -2.63691 4.27519 0
M  V30 2412 C 231.967 -1.9121 6.08044 0
M  V30 2413 C 229.654 -2.41726 5.61259 0
M  V30 2414 C 230.652 -2.0554 6.51339 0
M  V30 2415 O 230.34 -1.838 7.82606 0
M  V30 2416 H 230.072 -0.45064 0.503884 0
M  V30 2417 H 232.626 -0.816248 1.88485 0
M  V30 2418 H 230.856 -3.37089 1.89493 0
M  V30 2419 H 232.545 -3.33595 2.31235 0
M  V30 2420 H 233.311 -2.01157 4.41317 0
M  V30 2421 H 229.19 -2.90832 3.57684 0
M  V30 2422 H 232.734 -1.62889 6.78316 0
M  V30 2423 H 228.631 -2.52959 5.9387 0
M  V30 2424 H 229.399 -1.98275 7.94122 0
M  V30 2425 N 232.062 -1.29571 -0.897171 0
M  V30 2426 C 233.287 -1.20705 -1.68656 0
M  V30 2427 C 233.712 0.228582 -1.86706 0
M  V30 2428 O 233.07 1.16494 -1.3892 0
M  V30 2429 C 233.118 -1.9282 -3.04717 0
M  V30 2430 O 232.222 -1.24697 -3.93096 0
M  V30 2431 H 231.563 -0.418126 -0.515816 0
M  V30 2432 H 234.093 -1.71183 -1.12061 0
M  V30 2433 H 234.103 -2.01372 -3.54843 0
M  V30 2434 H 232.778 -2.97239 -2.90899 0
M  V30 2435 H 231.355 -1.2442 -3.51531 0
M  V30 2436 N 233.54 1.10788 -1.12088 0
M  V30 2437 C 234.789 1.82036 -0.868659 0
M  V30 2438 C 235.102 1.85929 0.607426 0
M  V30 2439 O 236.308 2.53346 0.97613 0
M  V30 2440 C 234.764 3.26951 -1.50435 0
M  V30 2441 C 234.372 3.31367 -3.01496 0
M  V30 2442 C 236.116 4.03053 -1.33225 0
M  V30 2443 C 234.023 4.7072 -3.58017 0
M  V30 2444 H 232.953 0.682108 -0.321318 0
M  V30 2445 H 235.604 1.24618 -1.34694 0
M  V30 2446 H 233.986 3.84343 -0.953735 0
M  V30 2447 H 235.16 2.83819 -3.6302 0
M  V30 2448 H 233.475 2.6875 -3.18061 0
M  V30 2449 H 236.072 5.05981 -1.72878 0
M  V30 2450 H 236.415 4.15387 -0.275529 0
M  V30 2451 H 236.948 3.52066 -1.85188 0
M  V30 2452 H 233.687 4.63585 -4.63432 0
M  V30 2453 H 233.207 5.1865 -3.01268 0
M  V30 2454 H 234.886 5.39685 -3.56859 0
M  V30 2455 N 235.018 0.912232 1.28515 0
M  V30 2456 C 235.948 0.416403 2.29757 0
M  V30 2457 C 236.929 -0.515194 1.6211 0
M  V30 2458 O 238.114 -0.423253 1.89532 0
M  V30 2459 C 235.244 -0.34572 3.45575 0
M  V30 2460 C 234.198 0.496599 4.25109 0
M  V30 2461 C 233.524 -0.393771 5.33248 0
M  V30 2462 C 234.824 1.75307 4.92001 0
M  V30 2463 H 236.518 1.26249 2.7148 0
M  V30 2464 H 234.064 0.608515 1.30511 0
M  V30 2465 H 236.017 -0.703422 4.15488 0
M  V30 2466 H 234.741 -1.2257 3.02728 0
M  V30 2467 H 233.4 0.8368 3.56922 0
M  V30 2468 H 233.048 -1.27225 4.86644 0
M  V30 2469 H 232.748 0.166209 5.87365 0
M  V30 2470 H 234.272 -0.747389 6.06009 0
M  V30 2471 H 235.686 1.46437 5.54283 0
M  V30 2472 H 234.083 2.25534 5.56106 0
M  V30 2473 H 235.153 2.48176 4.16577 0
M  V30 2474 N 236.496 -1.42363 0.676048 0
M  V30 2475 C 237.446 -2.27987 -0.0242903 0
M  V30 2476 C 238.43 -1.41153 -0.772319 0
M  V30 2477 O 239.622 -1.64592 -0.651025 0
M  V30 2478 C 236.751 -3.29195 -0.973953 0
M  V30 2479 C 235.837 -4.23512 -0.223202 0
M  V30 2480 N 236.228 -4.99865 0.772589 0
M  V30 2481 C 234.526 -4.43606 -0.461469 0
M  V30 2482 C 235.227 -5.68757 1.22027 0
M  V30 2483 N 234.203 -5.40811 0.549975 0
M  V30 2484 H 238.005 -2.84445 0.73949 0
M  V30 2485 H 235.519 -1.54341 0.50522 0
M  V30 2486 H 237.516 -3.89339 -1.49067 0
M  V30 2487 H 236.176 -2.74298 -1.73755 0
M  V30 2488 H 237.187 -5.04921 1.15217 0
M  V30 2489 H 233.864 -3.99749 -1.20446 0
M  V30 2490 H 235.254 -6.40007 2.0455 0
M  V30 2491 N 237.974 -0.419461 -1.51915 0
M  V30 2492 C 239.22 0.153166 -2.02221 0
M  V30 2493 C 239.553 1.43907 -1.30401 0
M  V30 2494 O 238.828 1.90055 -0.413438 0
M  V30 2495 C 239.111 0.390291 -3.57979 0
M  V30 2496 C 238.964 -0.913014 -4.40436 0
M  V30 2497 C 240.283 1.16794 -4.2432 0
M  V30 2498 H 237.402 0.0541924 -0.735005 0
M  V30 2499 H 240.044 -0.554955 -1.81715 0
M  V30 2500 H 238.194 0.993491 -3.75582 0
M  V30 2501 H 239.866 -1.54882 -4.34522 0
M  V30 2502 H 238.109 -1.52168 -4.06236 0
M  V30 2503 H 238.78 -0.701361 -5.47526 0
M  V30 2504 H 241.256 0.657161 -4.10878 0
M  V30 2505 H 240.132 1.3026 -5.3322 0
M  V30 2506 H 240.393 2.19132 -3.83971 0
M  V30 2507 N 239.452 1.56882 -0.150215 0
M  V30 2508 C 240.7 1.9584 0.499105 0
M  V30 2509 C 241.021 1.03623 1.65188 0
M  V30 2510 O 240.291 0.0984084 1.95653 0
M  V30 2511 H 238.871 0.723119 0.187373 0
M  V30 2512 H 241.533 1.9358 -0.226466 0
M  V30 2513 H 240.629 2.99638 0.873122 0
M  V30 2514 N 240.93 -0.123565 1.57115 0
M  V30 2515 C 242.207 -0.862196 1.75572 0
M  V30 2516 C 242.587 -1.98279 0.724475 0
M  V30 2517 O 241.935 -2.27102 -0.252407 0
M  V30 2518 C 242.145 -1.38309 3.20424 0
M  V30 2519 C 243.493 -1.83724 3.82793 0
M  V30 2520 O 244.517 -1.47999 3.23998 0
M  V30 2521 O 243.376 -2.49685 4.86127 0
M  V30 2522 H 240.47 -0.409113 0.718718 0
M  V30 2523 H 243.016 -0.107661 1.69358 0
M  V30 2524 H 241.788 -0.578889 3.86994 0
M  V30 2525 H 241.411 -2.20046 3.31158 0
M  V30 2526 N 242.408 -1.52605 -0.393616 0
M  V30 2527 C 243.358 -1.73436 -1.48 0
M  V30 2528 C 244.342 -0.588386 -1.49756 0
M  V30 2529 O 245.534 -0.846047 -1.5547 0
M  V30 2530 C 242.663 -1.90247 -2.85764 0
M  V30 2531 C 241.749 -3.10763 -2.88595 0
M  V30 2532 N 242.14 -4.33196 -2.61103 0
M  V30 2533 C 240.438 -3.10914 -3.19763 0
M  V30 2534 C 241.139 -5.1477 -2.70899 0
M  V30 2535 N 240.115 -4.50356 -3.04435 0
M  V30 2536 H 243.917 -2.65727 -1.25563 0
M  V30 2537 H 241.431 -1.5085 -0.601513 0
M  V30 2538 H 243.428 -2.03291 -3.63976 0
M  V30 2539 H 242.088 -0.991663 -3.09186 0
M  V30 2540 H 243.099 -4.61408 -2.35209 0
M  V30 2541 H 239.776 -2.29626 -3.4868 0
M  V30 2542 H 241.166 -6.22355 -2.53227 0
M  V30 2543 N 243.887 0.651787 -1.4349 0
M  V30 2544 C 244.85 1.74647 -1.48429 0
M  V30 2545 C 245.85 1.56513 -0.368817 0
M  V30 2546 O 247.04 1.62385 -0.630623 0
M  V30 2547 C 244.172 3.13533 -1.33827 0
M  V30 2548 H 245.365 1.71649 -2.4592 0
M  V30 2549 H 242.918 0.863573 -1.30277 0
M  V30 2550 H 243.653 3.22142 -0.37349 0
M  V30 2551 H 243.438 3.28101 -2.14691 0
M  V30 2552 H 244.928 3.93356 -1.40218 0
M  V30 2553 N 245.365 1.30045 0.890287 0
M  V30 2554 C 246.275 1.17885 2.02831 0
M  V30 2555 C 247.291 0.0999609 1.73713 0
M  V30 2556 O 248.467 0.313867 1.98939 0
M  V30 2557 C 245.532 0.866079 3.35708 0
M  V30 2558 C 244.593 2.02979 3.78283 0
M  V30 2559 C 243.826 1.73184 5.0482 0
M  V30 2560 O 244.049 0.657237 5.66601 0
M  V30 2561 O 242.983 2.58267 5.43674 0
M  V30 2562 H 246.809 2.13474 2.16015 0
M  V30 2563 H 244.394 1.09587 1.01543 0
M  V30 2564 H 246.276 0.706623 4.15433 0
M  V30 2565 H 244.951 -0.0599443 3.23644 0
M  V30 2566 H 243.858 2.24454 2.99285 0
M  V30 2567 H 245.191 2.93734 3.94944 0
M  V30 2568 N 246.843 -1.10192 1.12674 0
M  V30 2569 C 248.09 -1.82205 0.883606 0
M  V30 2570 C 248.418 -1.8532 -0.590492 0
M  V30 2571 O 247.673 -1.31137 -1.45264 0
M  V30 2572 C 247.972 -3.28552 1.4067 0
M  V30 2573 C 247.638 -3.45582 2.89627 0
M  V30 2574 C 246.3 -3.49937 3.30299 0
M  V30 2575 C 248.652 -3.50768 3.85501 0
M  V30 2576 C 245.98 -3.57049 4.65546 0
M  V30 2577 C 248.332 -3.59414 5.20581 0
M  V30 2578 C 246.996 -3.62034 5.60792 0
M  V30 2579 H 246.266 -0.666735 0.323334 0
M  V30 2580 H 248.913 -1.29868 1.40736 0
M  V30 2581 H 247.218 -3.83473 0.80347 0
M  V30 2582 H 248.915 -3.82788 1.19475 0
M  V30 2583 H 245.505 -3.42871 2.57172 0
M  V30 2584 H 249.689 -3.46651 3.55171 0
M  V30 2585 H 244.945 -3.57361 4.96088 0
M  V30 2586 H 249.119 -3.62371 5.94693 0
M  V30 2587 H 246.746 -3.67298 6.6558 0
M  V30 2588 N 248.321 -0.919034 -1.28029 0
M  V30 2589 C 249.567 -0.555757 -1.95036 0
M  V30 2590 C 249.9 0.899198 -1.72128 0
M  V30 2591 O 249.175 1.64023 -1.04531 0
M  V30 2592 C 249.458 -0.872024 -3.49382 0
M  V30 2593 C 249.311 -2.3801 -3.81669 0
M  V30 2594 C 250.63 -0.37185 -4.38526 0
M  V30 2595 H 247.749 -0.203386 -0.708381 0
M  V30 2596 H 250.391 -1.14924 -1.51303 0
M  V30 2597 H 248.541 -0.366946 -3.86763 0
M  V30 2598 H 250.213 -2.9562 -3.54128 0
M  V30 2599 H 248.456 -2.83289 -3.28526 0
M  V30 2600 H 249.127 -2.55192 -4.8947 0
M  V30 2601 H 251.603 -0.804602 -4.08247 0
M  V30 2602 H 250.479 -0.622173 -5.45362 0
M  V30 2603 H 250.74 0.727934 -4.36066 0
M  V30 2604 N 249.799 1.42003 -0.683588 0
M  V30 2605 C 250.746 2.30798 -0.0107309 0
M  V30 2606 C 251.716 1.4645 0.783688 0
M  V30 2607 O 252.901 1.75263 0.754156 0
M  V30 2608 C 250.041 3.3238 0.928306 0
M  V30 2609 C 249.154 4.31814 0.126776 0
M  V30 2610 C 248.289 5.20468 1.06236 0
M  V30 2611 C 247.328 6.11577 0.253035 0
M  V30 2612 N 246.465 6.92754 1.14179 0
M  V30 2613 H 251.305 2.8778 -0.773727 0
M  V30 2614 H 248.842 1.41745 -0.393283 0
M  V30 2615 H 250.8 3.89813 1.48666 0
M  V30 2616 H 249.43 2.76976 1.65783 0
M  V30 2617 H 248.482 3.76427 -0.54833 0
M  V30 2618 H 249.794 4.96276 -0.501192 0
M  V30 2619 H 248.948 5.82677 1.69035 0
M  V30 2620 H 247.687 4.56204 1.7242 0
M  V30 2621 H 246.692 5.48428 -0.388108 0
M  V30 2622 H 247.917 6.77892 -0.404839 0
M  V30 2623 H 245.863 6.3111 1.78987 0
M  V30 2624 H 245.78 7.53855 0.569111 0
M  V30 2625 H 247.048 7.59441 1.75697 0
M  V30 2626 N 251.277 0.427512 1.51691 0
M  V30 2627 C 252.225 -0.403359 2.29076 0
M  V30 2628 C 253.219 -1.02962 1.34518 0
M  V30 2629 O 254.425 -0.965715 1.51901 0
M  V30 2630 H 250.8 -0.148879 0.737115 0
M  V30 2631 H 252.771 0.270295 2.97173 0
M  V30 2632 C 251.52 -1.49763 3.13794 0
M  V30 2633 H 250.843 -1.02508 3.86435 0
M  V30 2634 H 252.283 -2.05244 3.71014 0
M  V30 2635 C 250.742 -2.47536 2.28533 0
M  V30 2636 O 251.272 -3.51848 1.93819 0
M  V30 2637 N 249.478 -2.18187 1.91945 0
M  V30 2638 H 249.025 -1.33389 2.20375 0
M  V30 2639 H 248.983 -2.83848 1.35195 0
M  V30 2640 N 252.755 -1.56801 0.158532 0
M  V30 2641 C 253.685 -2.20347 -0.772609 0
M  V30 2642 C 254.666 -1.15518 -1.24859 0
M  V30 2643 O 255.851 -1.43902 -1.30406 0
M  V30 2644 C 252.981 -2.83417 -2.00729 0
M  V30 2645 C 251.935 -3.94174 -1.66765 0
M  V30 2646 C 251.261 -4.44233 -2.97592 0
M  V30 2647 C 252.561 -5.14392 -0.905447 0
M  V30 2648 H 254.255 -2.98413 -0.242959 0
M  V30 2649 H 251.801 -1.43537 -0.115419 0
M  V30 2650 H 253.754 -3.26543 -2.6636 0
M  V30 2651 H 252.478 -2.02701 -2.56086 0
M  V30 2652 H 251.137 -3.51684 -1.03508 0
M  V30 2653 H 250.785 -3.60325 -3.50963 0
M  V30 2654 H 250.485 -5.18945 -2.75626 0
M  V30 2655 H 252.009 -4.90037 -3.64274 0
M  V30 2656 H 253.423 -5.5429 -1.46408 0
M  V30 2657 H 251.82 -5.9494 -0.7853 0
M  V30 2658 H 252.89 -4.84795 0.100668 0
M  V30 2659 N 254.233 0.115231 -1.57178 0
M  V30 2660 C 255.163 1.1423 -2.03651 0
M  V30 2661 C 256.144 1.42967 -0.921655 0
M  V30 2662 O 257.329 1.53343 -1.19162 0
M  V30 2663 C 254.459 2.4675 -2.44401 0
M  V30 2664 C 253.413 2.32467 -3.59365 0
M  V30 2665 C 252.739 3.69984 -3.86026 0
M  V30 2666 C 254.039 1.78203 -4.90959 0
M  V30 2667 H 255.733 0.755749 -2.89705 0
M  V30 2668 H 253.279 0.362093 -1.39373 0
M  V30 2669 H 255.232 3.18854 -2.75517 0
M  V30 2670 H 253.956 2.87302 -1.55322 0
M  V30 2671 H 252.615 1.62811 -3.28463 0
M  V30 2672 H 252.263 4.08028 -2.94147 0
M  V30 2673 H 251.963 3.61279 -4.63412 0
M  V30 2674 H 253.487 4.43587 -4.19599 0
M  V30 2675 H 254.901 2.40128 -5.20587 0
M  V30 2676 H 253.298 1.8031 -5.72371 0
M  V30 2677 H 254.368 0.739876 -4.79222 0
M  V30 2678 N 255.711 1.52812 0.385517 0
M  V30 2679 C 257.122 1.5993 0.963293 0
M  V30 2680 C 257.473 0.454302 1.90868 0
M  V30 2681 O 256.598 -0.422132 2.12243 0
M  V30 2682 C 257.193 2.89871 1.75387 0
M  V30 2683 C 255.752 2.99389 2.28129 0
M  V30 2684 C 254.899 2.55071 1.08783 0
M  V30 2685 H 257.85 1.5784 0.164948 0
M  V30 2686 H 257.871 2.76553 2.61341 0
M  V30 2687 H 257.383 3.73186 1.06554 0
M  V30 2688 H 255.484 2.20619 3.00263 0
M  V30 2689 H 255.597 4.04096 2.57377 0
M  V30 2690 H 253.961 2.09473 1.4489 0
M  V30 2691 H 254.744 3.40785 0.414807 0
M  V30 2692 N 257.189 -0.644168 1.43834 0
M  V30 2693 C 258.136 -1.75671 1.49694 0
M  V30 2694 C 259.106 -1.6246 0.345809 0
M  V30 2695 O 260.291 -1.82573 0.554234 0
M  V30 2696 C 257.431 -3.13867 1.43463 0
M  V30 2697 C 256.544 -3.38147 2.6885 0
M  V30 2698 C 255.679 -4.66241 2.54544 0
M  V30 2699 C 254.718 -4.83657 3.75157 0
M  V30 2700 N 253.855 -6.03016 3.59605 0
M  V30 2701 H 258.695 -1.69998 2.44754 0
M  V30 2702 H 256.232 -0.829458 1.21484 0
M  V30 2703 H 258.19 -3.9377 1.37843 0
M  V30 2704 H 256.82 -3.18588 0.519783 0
M  V30 2705 H 255.872 -2.52276 2.84712 0
M  V30 2706 H 257.184 -3.46899 3.58417 0
M  V30 2707 H 256.338 -5.54285 2.46683 0
M  V30 2708 H 255.077 -4.59826 1.62516 0
M  V30 2709 H 254.082 -3.94046 3.83416 0
M  V30 2710 H 255.307 -4.91896 4.68204 0
M  V30 2711 H 253.253 -5.97715 2.7032 0
M  V30 2712 H 253.17 -6.12766 4.42779 0
M  V30 2713 H 254.438 -6.93657 3.55613 0
M  V30 2714 N 258.668 -1.30515 -0.883378 0
M  V30 2715 C 259.893 -1.22487 -1.67367 0
M  V30 2716 C 260.318 0.208767 -1.86938 0
M  V30 2717 O 259.676 1.15015 -1.40148 0
M  V30 2718 C 259.724 -1.96041 -3.02655 0
M  V30 2719 O 258.828 -1.28859 -3.91751 0
M  V30 2720 H 258.169 -0.423573 -0.511353 0
M  V30 2721 H 260.699 -1.72362 -1.10239 0
M  V30 2722 H 260.709 -2.05124 -3.52687 0
M  V30 2723 H 259.384 -3.00307 -2.8773 0
M  V30 2724 H 257.961 -1.28141 -3.50192 0
M  V30 2725 N 260.146 1.09593 -1.13257 0
M  V30 2726 C 261.076 2.18214 -0.830946 0
M  V30 2727 C 262.057 1.68812 0.208966 0
M  V30 2728 O 263.242 1.9408 0.0682666 0
M  V30 2729 C 260.372 3.46051 -0.294296 0
M  V30 2730 C 259.326 4.08778 -1.26826 0
M  V30 2731 C 258.652 5.31419 -0.591449 0
M  V30 2732 C 259.952 4.51476 -2.62615 0
M  V30 2733 H 261.646 2.43703 -1.73923 0
M  V30 2734 H 259.192 1.17128 -0.837675 0
M  V30 2735 H 261.145 4.2134 -0.0709606 0
M  V30 2736 H 259.869 3.20079 0.649366 0
M  V30 2737 H 258.528 3.35505 -1.47756 0
M  V30 2738 H 258.176 5.01727 0.357633 0
M  V30 2739 H 257.876 5.74341 -1.24123 0
M  V30 2740 H 259.4 6.09433 -0.377355 0
M  V30 2741 H 260.814 5.17999 -2.45663 0
M  V30 2742 H 259.211 5.05277 -3.23752 0
M  V30 2743 H 260.281 3.63962 -3.20406 0
M  V30 2744 N 261.624 0.925811 1.2754 0
M  V30 2745 C 262.87 0.566092 1.94739 0
M  V30 2746 C 263.203 -0.890057 1.72603 0
M  V30 2747 O 262.478 -1.63467 1.05399 0
M  V30 2748 C 262.761 0.89054 3.48915 0
M  V30 2749 C 262.614 2.4003 3.80402 0
M  V30 2750 C 263.933 0.395101 4.38323 0
M  V30 2751 H 261.052 0.20714 0.707292 0
M  V30 2752 H 263.694 1.15725 1.50691 0
M  V30 2753 H 261.844 0.387452 3.86563 0
M  V30 2754 H 263.516 2.97494 3.52555 0
M  V30 2755 H 261.759 2.85028 3.2702 0
M  V30 2756 H 262.43 2.57785 4.8811 0
M  V30 2757 H 264.906 0.826241 4.07814 0
M  V30 2758 H 263.782 0.651086 5.45025 0
M  V30 2759 H 264.043 -0.704798 4.36446 0
M  V30 2760 N 263.102 -1.41638 0.69111 0
M  V30 2761 C 264.05 -2.32597 0.0115199 0
M  V30 2762 C 265.044 -1.5072 -0.773296 0
M  V30 2763 O 266.25 -1.66685 -0.67942 0
M  V30 2764 H 262.625 -0.751849 -0.0150746 0
M  V30 2765 H 264.596 -2.87593 0.795791 0
M  V30 2766 C 263.345 -3.35467 -0.914172 0
M  V30 2767 H 262.668 -3.9852 -0.319687 0
M  V30 2768 H 264.108 -4.01662 -1.35808 0
M  V30 2769 C 262.567 -2.69004 -2.02826 0
M  V30 2770 O 263.097 -2.53444 -3.11655 0
M  V30 2771 N 261.303 -2.2777 -1.80469 0
M  V30 2772 H 260.85 -2.40626 -0.919615 0
M  V30 2773 H 260.808 -1.83635 -2.55197 0
M  V30 2774 N 264.58 -0.43555 -1.51462 0
M  V30 2775 C 265.828 0.131254 -2.01673 0
M  V30 2776 C 266.149 1.43368 -1.32177 0
M  V30 2777 O 265.419 1.90524 -0.455769 0
M  V30 2778 H 263.999 0.0514954 -0.745223 0
M  V30 2779 H 266.661 -0.577847 -1.86137 0
M  V30 2780 H 265.757 0.308446 -3.10572 0
M  V30 2781 N 266.058 1.56714 -0.166846 0
M  V30 2782 C 267.304 1.97039 0.479962 0
M  V30 2783 C 267.637 1.05264 1.63197 0
M  V30 2784 O 266.912 0.0988833 1.94248 0
M  V30 2785 C 267.195 3.46867 0.967212 0
M  V30 2786 C 267.048 4.49421 -0.18466 0
M  V30 2787 C 268.367 3.9968 1.84238 0
M  V30 2788 H 265.486 0.71641 0.172992 0
M  V30 2789 H 268.128 1.8832 -0.252079 0
M  V30 2790 H 266.278 3.54428 1.59101 0
M  V30 2791 H 267.95 4.53924 -0.821621 0
M  V30 2792 H 266.193 4.25573 -0.840837 0
M  V30 2793 H 266.864 5.51644 0.198317 0
M  V30 2794 H 269.34 3.94723 1.31655 0
M  V30 2795 H 268.216 5.04941 2.15234 0
M  V30 2796 H 268.477 3.43226 2.78654 0
M  V30 2797 N 267.536 -0.106894 1.57237 0
M  V30 2798 C 268.947 -0.662723 1.74542 0
M  V30 2799 C 269.298 -1.7971 0.787319 0
M  V30 2800 O 268.423 -2.16368 -0.0369636 0
M  V30 2801 C 269.018 -1.20896 3.16496 0
M  V30 2802 C 267.577 -1.71096 3.35266 0
M  V30 2803 C 266.724 -0.615642 2.7038 0
M  V30 2804 H 269.675 0.119106 1.58252 0
M  V30 2805 H 269.696 -2.07847 3.18716 0
M  V30 2806 H 269.208 -0.383122 3.86204 0
M  V30 2807 H 267.309 -2.56119 2.70618 0
M  V30 2808 H 267.422 -1.81208 4.43509 0
M  V30 2809 H 265.786 -1.05222 2.31949 0
M  V30 2810 H 266.569 0.199419 3.4272 0
M  V30 2811 N 269.014 -1.53014 -0.377408 0
M  V30 2812 C 270.26 -1.69821 -1.11948 0
M  V30 2813 C 270.615 -0.438581 -1.87335 0
M  V30 2814 O 269.908 0.568094 -1.82984 0
M  V30 2815 C 270.102 -2.87982 -2.11663 0
M  V30 2816 C 269.931 -4.25315 -1.46072 0
M  V30 2817 C 268.701 -4.90354 -1.21986 0
M  V30 2818 C 270.899 -5.06281 -0.904664 0
M  V30 2819 N 268.881 -6.11641 -0.526215 0
M  V30 2820 C 270.252 -6.19069 -0.339726 0
M  V30 2821 C 272.307 -4.91395 -0.8022 0
M  V30 2822 C 271.01 -7.18598 0.317669 0
M  V30 2823 C 273.036 -5.91187 -0.158606 0
M  V30 2824 C 272.398 -7.03289 0.39551 0
M  V30 2825 H 268.497 -0.674785 -0.395207 0
M  V30 2826 H 271.081 -1.90389 -0.407437 0
M  V30 2827 H 269.252 -2.68974 -2.80192 0
M  V30 2828 H 270.984 -2.93669 -2.78461 0
M  V30 2829 H 267.739 -4.49286 -1.49798 0
M  V30 2830 H 268.163 -6.76719 -0.195098 0
M  V30 2831 H 272.805 -4.04925 -1.21639 0
M  V30 2832 H 270.523 -8.04669 0.743836 0
M  V30 2833 H 274.109 -5.81744 -0.0804138 0
M  V30 2834 H 272.989 -7.79183 0.885648 0
M  V30 2835 N 270.492 0.636531 -1.44174 0
M  V30 2836 C 271.903 1.21806 -1.41493 0
M  V30 2837 C 272.254 1.95785 -0.1275 0
M  V30 2838 O 271.379 2.02147 0.772376 0
M  V30 2839 C 271.974 2.21551 -2.56321 0
M  V30 2840 C 270.533 2.75143 -2.56853 0
M  V30 2841 C 269.68 1.50052 -2.33195 0
M  V30 2842 H 272.631 0.427531 -1.52833 0
M  V30 2843 H 272.652 3.0405 -2.28765 0
M  V30 2844 H 272.164 1.67679 -3.50008 0
M  V30 2845 H 270.265 3.33033 -1.67093 0
M  V30 2846 H 270.378 3.2155 -3.55165 0
M  V30 2847 H 268.742 1.77993 -1.82183 0
M  V30 2848 H 269.525 0.980903 -3.28988 0
M  V30 2849 N 271.97 1.30982 0.876444 0
M  V30 2850 C 272.902 1.13902 1.98894 0
M  V30 2851 C 273.915 0.0798815 1.62604 0
M  V30 2852 O 275.104 0.326743 1.75484 0
M  V30 2853 C 272.204 0.716699 3.31235 0
M  V30 2854 C 271.377 1.85945 3.95908 0
M  V30 2855 C 270.436 1.42426 5.06558 0
M  V30 2856 O 269.462 2.13287 5.27729 0
M  V30 2857 N 270.664 0.308025 5.79682 0
M  V30 2858 H 273.429 2.09724 2.14094 0
M  V30 2859 H 270.99 1.2323 1.05004 0
M  V30 2860 H 272.982 0.408403 4.02634 0
M  V30 2861 H 271.552 -0.149719 3.12241 0
M  V30 2862 H 270.772 2.33541 3.17573 0
M  V30 2863 H 272.06 2.62503 4.35855 0
M  V30 2864 H 271.458 -0.282241 5.64995 0
M  V30 2865 H 270.015 0.0592282 6.51773 0
M  V30 2866 N 273.449 -1.08991 1.13837 0
M  V30 2867 C 274.359 -2.19301 0.833333 0
M  V30 2868 C 275.375 -1.73026 -0.183847 0
M  V30 2869 O 276.551 -2.01395 -0.0138092 0
M  V30 2870 C 273.616 -3.45323 0.308651 0
M  V30 2871 C 272.677 -4.06255 1.38764 0
M  V30 2872 C 271.91 -5.26262 0.887896 0
M  V30 2873 O 272.133 -5.69747 -0.27287 0
M  V30 2874 O 271.067 -5.78435 1.66421 0
M  V30 2875 H 274.893 -2.47854 1.75506 0
M  V30 2876 H 272.478 -1.18012 0.916166 0
M  V30 2877 H 274.36 -4.21394 0.0216739 0
M  V30 2878 H 273.035 -3.18362 -0.585431 0
M  V30 2879 H 271.942 -3.318 1.72799 0
M  V30 2880 H 273.275 -4.37452 2.25602 0
M  V30 2881 N 274.927 -0.932562 -1.27047 0
M  V30 2882 C 275.89 -0.440064 -2.24936 0
M  V30 2883 C 276.89 0.444071 -1.54547 0
M  V30 2884 O 278.08 0.244465 -1.72476 0
M  V30 2885 C 275.212 0.36678 -3.38921 0
M  V30 2886 H 276.405 -1.305 -2.70018 0
M  V30 2887 H 273.958 -0.713707 -1.39054 0
M  V30 2888 H 274.693 1.25033 -2.99228 0
M  V30 2889 H 274.478 -0.267204 -3.91188 0
M  V30 2890 H 275.968 0.701567 -4.11665 0
M  V30 2891 N 276.405 1.4127 -0.698611 0
M  V30 2892 C 277.633 2.05503 -0.239992 0
M  V30 2893 C 278.048 1.52584 1.11191 0
M  V30 2894 O 277.405 0.675323 1.69545 0
M  V30 2895 C 277.456 3.60987 -0.192429 0
M  V30 2896 O 277.177 4.1195 -1.49094 0
M  V30 2897 C 278.678 4.42371 0.28681 0
M  V30 2898 H 275.898 0.661748 -0.111045 0
M  V30 2899 H 278.442 1.80987 -0.95205 0
M  V30 2900 H 276.597 3.84533 0.470472 0
M  V30 2901 H 277.011 5.06018 -1.38007 0
M  V30 2902 H 278.485 5.51344 0.26896 0
M  V30 2903 H 278.962 4.18699 1.32619 0
M  V30 2904 H 279.568 4.23897 -0.345201 0
M  V30 2905 N 277.883 0.443576 1.51229 0
M  V30 2906 C 279.299 0.0962001 1.5931 0
M  V30 2907 C 279.499 -1.39501 1.45402 0
M  V30 2908 O 278.555 -2.16557 1.29843 0
M  V30 2909 C 279.868 0.621875 2.94199 0
M  V30 2910 C 281.416 0.582865 3.07525 0
M  V30 2911 C 281.891 1.08562 4.44948 0
M  V30 2912 N 283.382 1.04387 4.51284 0
M  V30 2913 C 284.117 1.40368 5.55954 0
M  V30 2914 N 283.613 1.83664 6.68011 0
M  V30 2915 N 285.406 1.32145 5.46346 0
M  V30 2916 H 277.557 1.41376 1.58514 0
M  V30 2917 H 279.82 0.582965 0.747567 0
M  V30 2918 H 279.526 1.66546 3.09767 0
M  V30 2919 H 279.4 0.0502125 3.77167 0
M  V30 2920 H 281.787 -0.451749 2.91622 0
M  V30 2921 H 281.868 1.191 2.26382 0
M  V30 2922 H 281.512 2.11873 4.61598 0
M  V30 2923 H 281.442 0.453956 5.2464 0
M  V30 2924 H 283.933 0.725986 3.70861 0
M  V30 2925 H 284.246 2.0934 7.43906 0
M  V30 2926 H 282.591 1.87596 6.69203 0
M  V30 2927 H 285.782 0.981808 4.57688 0
M  V30 2928 H 285.955 1.60514 6.27805 0
M  V30 2929 N 279.361 -1.56624 0.175154 0
M  V30 2930 C 280.777 -1.58571 -0.180966 0
M  V30 2931 C 280.977 -1.19065 -1.6256 0
M  V30 2932 O 280.033 -0.904044 -2.35761 0
M  V30 2933 C 281.346 -3.00522 0.103326 0
M  V30 2934 C 282.894 -3.12972 0.0418426 0
M  V30 2935 C 283.369 -4.57022 0.299175 0
M  V30 2936 N 284.86 -4.62541 0.247086 0
M  V30 2937 C 285.595 -5.71857 0.420318 0
M  V30 2938 N 285.091 -6.89717 0.652816 0
M  V30 2939 N 286.884 -5.60972 0.355957 0
M  V30 2940 H 279.035 -1.80589 1.11809 0
M  V30 2941 H 281.298 -0.837178 0.444788 0
M  V30 2942 H 281.004 -3.33916 1.10422 0
M  V30 2943 H 280.878 -3.72344 -0.603299 0
M  V30 2944 H 283.265 -2.79403 -0.949636 0
M  V30 2945 H 283.346 -2.43578 0.781238 0
M  V30 2946 H 282.99 -4.913 1.28788 0
M  V30 2947 H 282.92 -5.24579 -0.460876 0
M  V30 2948 H 285.411 -3.77829 0.0731895 0
M  V30 2949 H 285.724 -7.68911 0.774347 0
M  V30 2950 H 284.069 -6.91572 0.689476 0
M  V30 2951 H 287.26 -4.67773 0.174882 0
M  V30 2952 H 287.433 -6.46111 0.494388 0
M  V30 2953 N 280.839 0.0985539 -1.57292 0
M  V30 2954 C 281.787 1.1387 -2.02821 0
M  V30 2955 C 282.781 1.41676 -0.928666 0
M  V30 2956 O 283.987 1.41398 -1.11385 0
M  V30 2957 H 280.362 0.384419 -0.646317 0
M  V30 2958 H 282.333 0.728347 -2.89375 0
M  V30 2959 C 281.082 2.45166 -2.46554 0
M  V30 2960 H 280.405 2.24613 -3.3074 0
M  V30 2961 H 281.845 3.16456 -2.8219 0
M  V30 2962 C 280.304 3.09216 -1.33742 0
M  V30 2963 O 280.834 3.96163 -0.66464 0
M  V30 2964 N 279.04 2.69413 -1.08928 0
M  V30 2965 H 278.587 1.98801 -1.63817 0
M  V30 2966 H 278.545 3.12594 -0.336458 0
M  V30 2967 N 282.317 1.53212 0.369288 0
M  V30 2968 C 283.542 1.73423 1.1375 0
M  V30 2969 C 283.967 0.460404 1.82378 0
M  V30 2970 O 283.325 -0.585298 1.71592 0
M  V30 2971 C 283.373 2.89769 2.1463 0
M  V30 2972 O 282.477 2.58119 3.21634 0
M  V30 2973 H 281.818 0.576061 0.330227 0
M  V30 2974 H 284.348 2.00083 0.427547 0
M  V30 2975 H 284.358 3.15829 2.58294 0
M  V30 2976 H 283.033 3.8217 1.64071 0
M  V30 2977 H 281.61 2.42864 2.82969 0
M  V30 2978 N 283.795 -0.628877 1.44509 0
M  V30 2979 C 284.745 -1.7345 1.47983 0
M  V30 2980 C 285.729 -1.5715 0.345373 0
M  V30 2981 O 286.921 -1.66848 0.590829 0
M  V30 2982 C 284.05 -3.12143 1.42904 0
M  V30 2983 C 283.136 -3.33906 2.61472 0
M  V30 2984 N 283.527 -3.26024 3.86706 0
M  V30 2985 C 281.825 -3.64709 2.56716 0
M  V30 2986 C 282.526 -3.48536 4.65722 0
M  V30 2987 N 281.502 -3.71517 3.96832 0
M  V30 2988 H 285.304 -1.65818 2.42655 0
M  V30 2989 H 282.818 -0.831419 1.39503 0
M  V30 2990 H 284.815 -3.91433 1.43476 0
M  V30 2991 H 283.475 -3.2094 0.492717 0
M  V30 2992 H 284.486 -3.04893 4.18641 0
M  V30 2993 H 281.163 -3.80473 1.71891 0
M  V30 2994 H 282.553 -3.48016 5.74747 0
M  V30 2995 N 285.273 -1.31445 -0.869486 0
M  V30 2996 C 286.501 -1.24122 -1.65534 0
M  V30 2997 C 286.916 0.193387 -1.87807 0
M  V30 2998 O 286.273 1.12557 -1.43656 0
M  V30 2999 C 286.324 -1.98229 -3.02304 0
M  V30 3000 O 286.045 -3.3609 -2.81026 0
M  V30 3001 C 287.546 -1.97751 -3.96749 0
M  V30 3002 H 284.766 -0.428868 -0.516055 0
M  V30 3003 H 287.31 -1.73328 -1.08525 0
M  V30 3004 H 285.465 -1.52782 -3.56001 0
M  V30 3005 H 285.879 -3.7383 -3.67902 0
M  V30 3006 H 287.353 -2.54114 -4.90031 0
M  V30 3007 H 287.83 -0.960137 -4.28577 0
M  V30 3008 H 288.436 -2.43079 -3.48988 0
M  V30 3009 N 286.751 1.08385 -1.14413 0
M  V30 3010 C 287.998 1.80776 -0.912482 0
M  V30 3011 C 288.326 1.86236 0.560934 0
M  V30 3012 O 287.581 1.33431 1.43159 0
M  V30 3013 C 287.88 3.26273 -1.45879 0
M  V30 3014 C 287.546 3.4093 -2.95089 0
M  V30 3015 C 286.208 3.44638 -3.35824 0
M  V30 3016 C 288.56 3.44591 -3.91033 0
M  V30 3017 C 285.888 3.49597 -4.71167 0
M  V30 3018 C 288.24 3.51086 -5.26233 0
M  V30 3019 C 286.904 3.53067 -5.6648 0
M  V30 3020 H 286.174 0.661507 -0.333901 0
M  V30 3021 H 288.821 1.27613 -1.42784 0
M  V30 3022 H 287.126 3.82146 -0.864376 0
M  V30 3023 H 288.823 3.80839 -1.2555 0
M  V30 3024 H 285.413 3.38736 -2.62594 0
M  V30 3025 H 289.597 3.40957 -3.60641 0
M  V30 3026 H 284.853 3.49424 -5.0171 0
M  V30 3027 H 289.027 3.52864 -6.00383 0
M  V30 3028 H 286.654 3.56662 -6.71339 0
M  V30 3029 N 288.23 0.939286 1.26551 0
M  V30 3030 C 289.178 0.43815 2.28436 0
M  V30 3031 C 290.172 -0.483587 1.62351 0
M  V30 3032 O 291.378 -0.362009 1.76322 0
M  V30 3033 H 287.753 0.123149 0.741848 0
M  V30 3034 H 289.724 1.31002 2.68106 0
M  V30 3035 C 288.473 -0.283052 3.46546 0
M  V30 3036 H 287.796 0.417043 3.97619 0
M  V30 3037 H 289.236 -0.597948 4.19763 0
M  V30 3038 C 287.695 -1.50018 3.01656 0
M  V30 3039 O 288.225 -2.59855 3.0633 0
M  V30 3040 N 286.431 -1.35608 2.57019 0
M  V30 3041 H 285.978 -0.46244 2.53415 0
M  V30 3042 H 285.936 -2.17165 2.27347 0
M  V30 3043 N 289.708 -1.40897 0.706093 0
M  V30 3044 C 290.948 -2.02916 0.245827 0
M  V30 3045 C 291.312 -1.54751 -1.13649 0
M  V30 3046 O 292.513 -2.08768 -1.69321 0
M  V30 3047 C 290.784 -3.56031 0.312537 0
M  V30 3048 S 292.343 -4.38741 -0.0721388 0
M  V30 3049 H 289.161 -0.704186 0.0982007 0
M  V30 3050 H 291.763 -1.72168 0.926207 0
M  V30 3051 H 290.467 -3.88579 1.32039 0
M  V30 3052 H 289.998 -3.91495 -0.386641 0
M  V30 3053 H 292.013 -4.78952 -1.29692 0
M  V30 3054 N 291.186 -0.45159 -1.50991 0
M  V30 3055 C 292.602 -0.104647 -1.59257 0
M  V30 3056 C 292.802 1.38728 -1.4614 0
M  V30 3057 O 291.858 2.15866 -1.30989 0
M  V30 3058 C 293.171 -0.637468 -2.93865 0
M  V30 3059 C 294.719 -0.599166 -3.07212 0
M  V30 3060 C 295.194 -1.1092 -4.44366 0
M  V30 3061 N 296.685 -1.06778 -4.50725 0
M  V30 3062 C 297.42 -1.43314 -5.55201 0
M  V30 3063 N 296.916 -1.87204 -6.67028 0
M  V30 3064 N 298.709 -1.3504 -5.45638 0
M  V30 3065 H 290.86 -1.42214 -1.57762 0
M  V30 3066 H 293.123 -0.586921 -0.744465 0
M  V30 3067 H 292.829 -1.68187 -3.08879 0
M  V30 3068 H 292.703 -0.0702139 -3.77135 0
M  V30 3069 H 295.09 0.436277 -2.91857 0
M  V30 3070 H 295.171 -1.20299 -2.25747 0
M  V30 3071 H 294.815 -2.14318 -4.60467 0
M  V30 3072 H 294.745 -0.481773 -5.24392 0
M  V30 3073 H 297.236 -0.745643 -3.70471 0
M  V30 3074 H 297.549 -2.13282 -7.42786 0
M  V30 3075 H 295.894 -1.91142 -6.68199 0
M  V30 3076 H 299.085 -1.00607 -4.57161 0
M  V30 3077 H 299.258 -1.63841 -6.26945 0
M  V30 3078 N 292.664 1.56529 -0.183458 0
M  V30 3079 C 293.597 2.14417 0.781052 0
M  V30 3080 C 294.575 1.07761 1.21763 0
M  V30 3081 O 295.759 1.35807 1.30724 0
M  V30 3082 C 292.886 2.69361 2.05335 0
M  V30 3083 C 291.932 3.885 1.75982 0
M  V30 3084 S 292.765 5.27568 0.918256 0
M  V30 3085 C 293.921 5.85926 2.20095 0
M  V30 3086 H 294.154 2.95893 0.2889 0
M  V30 3087 H 291.687 1.54368 0.0313844 0
M  V30 3088 H 293.645 3.01662 2.78406 0
M  V30 3089 H 292.306 1.87949 2.51663 0
M  V30 3090 H 291.499 4.25314 2.70415 0
M  V30 3091 H 291.101 3.57149 1.10999 0
M  V30 3092 H 293.393 5.99579 3.15453 0
M  V30 3093 H 294.336 6.82761 1.87731 0
M  V30 3094 H 294.744 5.14438 2.32409 0
M  V30 3095 N 294.142 -0.090211 1.57342 0
M  V30 3096 C 295.072 -1.10976 2.05443 0
M  V30 3097 C 296.053 -1.41482 0.944284 0
M  V30 3098 O 297.238 -1.51428 1.21586 0
M  V30 3099 C 294.368 -2.42831 2.48295 0
M  V30 3100 C 293.322 -2.26721 3.63018 0
M  V30 3101 C 292.648 -3.63796 3.91863 0
M  V30 3102 C 293.948 -1.7037 4.93732 0
M  V30 3103 H 295.642 -0.709564 2.9087 0
M  V30 3104 H 293.188 -0.339874 1.39932 0
M  V30 3105 H 295.141 -3.14431 2.80555 0
M  V30 3106 H 293.865 -2.84795 1.59873 0
M  V30 3107 H 292.524 -1.57565 3.31012 0
M  V30 3108 H 292.172 -4.03297 3.00601 0
M  V30 3109 H 291.872 -3.53861 4.69101 0
M  V30 3110 H 293.396 -4.36855 4.26603 0
M  V30 3111 H 294.81 -2.31816 5.24342 0
M  V30 3112 H 293.207 -1.71181 5.75167 0
M  V30 3113 H 294.277 -0.663542 4.80339 0
M  V30 3114 N 295.62 -1.53406 -0.361157 0
M  V30 3115 C 296.869 -1.69022 -1.10066 0
M  V30 3116 C 297.182 -0.450838 -1.90333 0
M  V30 3117 O 298.388 -0.487617 -2.67085 0
M  V30 3118 C 296.844 -2.98812 -2.00598 0
M  V30 3119 C 296.452 -4.30027 -1.25621 0
M  V30 3120 C 298.196 -3.23795 -2.74513 0
M  V30 3121 C 296.103 -5.50903 -2.1508 0
M  V30 3122 H 295.033 -0.629776 -0.414606 0
M  V30 3123 H 297.684 -1.79907 -0.361348 0
M  V30 3124 H 296.066 -2.8174 -2.78278 0
M  V30 3125 H 297.24 -4.57745 -0.529739 0
M  V30 3126 H 295.555 -4.11522 -0.635496 0
M  V30 3127 H 298.152 -4.11289 -3.41681 0
M  V30 3128 H 298.495 -2.40045 -3.40123 0
M  V30 3129 H 299.028 -3.41561 -2.03914 0
M  V30 3130 H 295.767 -6.37143 -1.54041 0
M  V30 3131 H 295.287 -5.27459 -2.85565 0
M  V30 3132 H 296.966 -5.85865 -2.74538 0
M  V30 3133 N 297.098 0.621204 -1.44841 0
M  V30 3134 C 298.048 1.72663 -1.48901 0
M  V30 3135 C 299.032 1.56964 -0.353702 0
M  V30 3136 O 300.224 1.66532 -0.599669 0
M  V30 3137 C 297.353 3.11381 -1.44557 0
M  V30 3138 C 296.439 3.32514 -2.6324 0
M  V30 3139 N 296.83 3.23969 -3.8843 0
M  V30 3140 C 295.128 3.63343 -2.58647 0
M  V30 3141 C 295.829 3.46062 -4.67564 0
M  V30 3142 N 294.805 3.69407 -3.98797 0
M  V30 3143 H 298.607 1.64529 -2.43531 0
M  V30 3144 H 296.121 0.82401 -1.39942 0
M  V30 3145 H 298.118 3.90667 -1.4555 0
M  V30 3146 H 296.778 3.20674 -0.509731 0
M  V30 3147 H 297.789 3.02669 -4.20252 0
M  V30 3148 H 294.466 3.79556 -1.73906 0
M  V30 3149 H 295.856 3.44963 -5.76585 0
M  V30 3150 N 298.576 1.31904 0.862503 0
M  V30 3151 C 299.987 1.19803 1.43193 0
M  V30 3152 C 300.338 -0.192567 1.95253 0
M  V30 3153 O 299.463 -1.09081 1.86896 0
M  V30 3154 C 300.058 2.16883 2.60283 0
M  V30 3155 C 298.617 2.08692 3.13248 0
M  V30 3156 C 297.764 2.05691 1.85975 0
M  V30 3157 H 300.715 1.43846 0.670365 0
M  V30 3158 H 300.736 1.76278 3.37204 0
M  V30 3159 H 300.248 3.18083 2.22363 0
M  V30 3160 H 298.349 1.10713 3.55771 0
M  V30 3161 H 298.462 2.9815 3.75025 0
M  V30 3162 H 296.826 1.50814 2.05249 0
M  V30 3163 H 297.609 3.08659 1.50282 0
M  V30 3164 N 300.054 -1.07777 1.14986 0
M  V30 3165 C 301.465 -1.61766 0.932127 0
M  V30 3166 C 301.816 -1.88974 -0.527581 0
M  V30 3167 O 300.941 -1.65198 -1.39781 0
M  V30 3168 C 301.536 -2.93891 1.68563 0
M  V30 3169 C 300.095 -3.44639 1.5133 0
M  V30 3170 C 299.242 -2.18767 1.704 0
M  V30 3171 H 302.193 -0.909201 1.30074 0
M  V30 3172 H 302.214 -3.62623 1.15259 0
M  V30 3173 H 301.726 -2.74057 2.74799 0
M  V30 3174 H 299.827 -3.69564 0.474702 0
M  V30 3175 H 299.94 -4.20966 2.28746 0
M  V30 3176 H 298.304 -2.28253 1.13016 0
M  V30 3177 H 299.087 -2.01433 2.77992 0
M  V30 3178 N 301.532 -0.945985 -1.26051 0
M  V30 3179 C 302.809 -0.513816 -1.88731 0
M  V30 3180 C 303.189 1.00872 -1.8544 0
M  V30 3181 O 302.537 1.8708 -1.312 0
M  V30 3182 C 302.747 -1.08062 -3.31849 0
M  V30 3183 C 304.095 -1.1522 -4.08668 0
M  V30 3184 O 305.119 -1.03155 -3.40936 0
M  V30 3185 O 303.978 -1.34044 -5.29806 0
M  V30 3186 H 301.072 -0.168193 -0.809716 0
M  V30 3187 H 303.618 -1.03886 -1.34186 0
M  V30 3188 H 302.39 -2.1241 -3.2863 0
M  V30 3189 H 302.013 -0.538307 -3.93939 0
M  V30 3190 N 303.011 1.40521 -0.713556 0
M  V30 3191 C 303.921 2.34522 -0.0606667 0
M  V30 3192 C 304.937 1.57193 0.74607 0
M  V30 3193 O 306.113 1.89591 0.679493 0
M  V30 3194 C 303.178 3.36081 0.851491 0
M  V30 3195 C 302.239 4.29286 0.0349339 0
M  V30 3196 C 301.472 5.25994 0.903649 0
M  V30 3197 O 301.695 5.28616 2.14292 0
M  V30 3198 O 300.629 6.00918 0.343723 0
M  V30 3199 H 304.455 2.91968 -0.835972 0
M  V30 3200 H 302.04 1.41681 -0.47402 0
M  V30 3201 H 303.922 3.98369 1.37404 0
M  V30 3202 H 302.597 2.81052 1.60598 0
M  V30 3203 H 301.504 3.70289 -0.532633 0
M  V30 3204 H 302.837 4.87462 -0.681287 0
M  V30 3205 N 304.489 0.459591 1.5075 0
M  V30 3206 C 305.9 0.00171547 1.867 0
M  V30 3207 C 306.251 -1.39934 1.37525 0
M  V30 3208 O 305.376 -2.03523 0.735349 0
M  V30 3209 C 305.971 -0.00366298 3.388 0
M  V30 3210 C 304.53 -0.406026 3.74204 0
M  V30 3211 C 303.677 0.38673 2.7459 0
M  V30 3212 H 306.628 0.674413 1.43657 0
M  V30 3213 H 306.649 -0.808371 3.71814 0
M  V30 3214 H 306.161 1.01617 3.74561 0
M  V30 3215 H 304.262 -1.43063 3.4404 0
M  V30 3216 H 304.375 -0.115362 4.78961 0
M  V30 3217 H 302.739 -0.158019 2.54209 0
M  V30 3218 H 303.522 1.40585 3.13194 0
M  V30 3219 N 305.967 -1.56429 0.191757 0
M  V30 3220 C 307.215 -1.97095 -0.447006 0
M  V30 3221 C 307.536 -1.07967 -1.62383 0
M  V30 3222 O 306.806 -0.150248 -1.95323 0
M  V30 3223 H 305.386 -0.727832 -0.168135 0
M  V30 3224 H 308.048 -1.92911 0.27771 0
M  V30 3225 H 307.144 -3.01848 -0.793371 0
M  V30 3226 N 307.445 0.0818655 -1.57387 0
M  V30 3227 C 308.673 0.796108 -1.9097 0
M  V30 3228 C 309.088 1.71626 -0.786757 0
M  V30 3229 O 308.445 1.80908 0.240513 0
M  V30 3230 C 308.496 1.59829 -3.24248 0
M  V30 3231 O 308.217 0.715131 -4.32224 0
M  V30 3232 C 309.718 2.41442 -3.7178 0
M  V30 3233 H 306.938 0.22691 -0.631469 0
M  V30 3234 H 309.482 0.0551439 -2.04426 0
M  V30 3235 H 307.637 2.29163 -3.12351 0
M  V30 3236 H 308.051 1.27205 -5.08841 0
M  V30 3237 H 309.525 2.932 -4.67694 0
M  V30 3238 H 310.002 3.2051 -3.00283 0
M  V30 3239 H 310.608 1.77283 -3.86589 0
M  V30 3240 N 308.923 1.53595 0.353017 0
M  V30 3241 C 309.833 1.83897 1.45667 0
M  V30 3242 C 310.849 0.728334 1.58023 0
M  V30 3243 O 312.025 1.01968 1.73679 0
M  V30 3244 C 309.09 2.03383 2.80778 0
M  V30 3245 C 308.151 3.27262 2.77845 0
M  V30 3246 C 307.384 3.45809 4.06512 0
M  V30 3247 O 307.607 2.68387 5.03314 0
M  V30 3248 O 306.541 4.39207 4.11559 0
M  V30 3249 H 310.367 2.77686 1.2298 0
M  V30 3250 H 307.952 1.39132 0.544308 0
M  V30 3251 H 309.834 2.17698 3.60812 0
M  V30 3252 H 308.509 1.12783 3.03417 0
M  V30 3253 H 307.416 3.18359 1.96465 0
M  V30 3254 H 308.749 4.17824 2.60161 0
M  V30 3255 N 310.401 -0.613514 1.45168 0
M  V30 3256 C 311.349 -1.74572 1.53712 0
M  V30 3257 C 312.343 -1.64426 0.407505 0
M  V30 3258 O 313.549 -1.70291 0.583176 0
M  V30 3259 H 309.924 -0.576641 0.48269 0
M  V30 3260 H 311.895 -1.64492 2.48968 0
M  V30 3261 C 310.644 -3.12943 1.51532 0
M  V30 3262 H 309.967 -3.21407 2.37776 0
M  V30 3263 H 311.407 -3.9201 1.61569 0
M  V30 3264 C 309.866 -3.36053 0.238798 0
M  V30 3265 O 310.396 -3.95837 -0.6838 0
M  V30 3266 N 308.602 -2.9028 0.136359 0
M  V30 3267 H 308.149 -2.41811 0.887999 0
M  V30 3268 H 308.107 -3.06116 -0.716944 0
M  V30 3269 N 311.879 -1.3236 -0.855495 0
M  V30 3270 C 312.811 -1.17052 -1.97057 0
M  V30 3271 C 313.824 -0.10574 -1.62456 0
M  V30 3272 O 315.013 -0.354619 -1.74942 0
M  V30 3273 C 312.113 -0.769305 -3.30053 0
M  V30 3274 C 311.286 -1.9222 -3.929 0
M  V30 3275 C 310.345 -1.50466 -5.04228 0
M  V30 3276 O 309.371 -2.21655 -5.24269 0
M  V30 3277 N 310.573 -0.400209 -5.79119 0
M  V30 3278 H 313.338 -2.13103 -2.1073 0
M  V30 3279 H 310.899 -1.24885 -1.0303 0
M  V30 3280 H 312.891 -0.472407 -4.01933 0
M  V30 3281 H 311.461 0.100025 -3.1244 0
M  V30 3282 H 310.681 -2.38563 -3.13817 0
M  V30 3283 H 311.969 -2.69403 -4.31624 0
M  V30 3284 H 311.367 0.192319 -5.65373 0
M  V30 3285 H 309.924 -0.162912 -6.51596 0
M  V30 3286 N 313.357 1.07166 -1.15556 0
M  V30 3287 C 314.267 2.17947 -0.868116 0
M  V30 3288 C 315.283 1.73297 0.156297 0
M  V30 3289 O 316.459 2.01392 -0.0182327 0
M  V30 3290 C 313.524 3.44789 -0.36355 0
M  V30 3291 C 312.585 4.03996 -1.45209 0
M  V30 3292 C 311.818 5.24783 -0.971508 0
M  V30 3293 O 312.041 5.70109 0.182194 0
M  V30 3294 O 310.975 5.75715 -1.75603 0
M  V30 3295 H 314.801 2.4503 -1.79427 0
M  V30 3296 H 312.386 1.16539 -0.934824 0
M  V30 3297 H 314.268 4.21307 -0.0887113 0
M  V30 3298 H 312.943 3.19253 0.534708 0
M  V30 3299 H 311.85 3.29009 -1.78056 0
M  V30 3300 H 313.183 4.33808 -2.32533 0
M  V30 3301 N 314.835 0.952656 1.25548 0
M  V30 3302 C 315.798 0.475794 2.24207 0
M  V30 3303 C 316.798 -0.419428 1.55234 0
M  V30 3304 O 317.988 -0.216994 1.72843 0
M  V30 3305 C 315.12 -0.312814 3.39462 0
M  V30 3306 H 316.313 1.34779 2.67908 0
M  V30 3307 H 313.866 0.735739 1.37901 0
M  V30 3308 H 314.601 -1.20257 3.01179 0
M  V30 3309 H 314.386 0.329404 3.90714 0
M  V30 3310 H 315.876 -0.635986 4.12729 0
M  V30 3311 N 316.313 -1.40141 0.720998 0
M  V30 3312 C 317.553 -2.02644 0.267335 0
M  V30 3313 C 317.917 -1.55948 -1.12001 0
M  V30 3314 O 319.118 -2.10552 -1.67097 0
M  V30 3315 C 317.389 -3.55679 0.350281 0
M  V30 3316 S 318.948 -4.38793 -0.0256004 0
M  V30 3317 H 315.766 -0.703105 0.105664 0
M  V30 3318 H 318.368 -1.71175 0.944416 0
M  V30 3319 H 317.072 -3.87157 1.36153 0
M  V30 3320 H 316.603 -3.91883 -0.345096 0
M  V30 3321 H 318.618 -4.803 -1.24604 0
M  V30 3322 N 317.792 -0.46758 -1.50504 0
M  V30 3323 C 318.724 0.364655 -2.26281 0
M  V30 3324 C 319.737 0.960151 -1.31472 0
M  V30 3325 O 320.926 0.849153 -1.57008 0
M  V30 3326 C 318.026 1.52509 -3.02645 0
M  V30 3327 C 317.199 1.04302 -4.24782 0
M  V30 3328 C 316.258 2.07709 -4.8347 0
M  V30 3329 O 315.284 1.65913 -5.44483 0
M  V30 3330 N 316.486 3.40485 -4.70159 0
M  V30 3331 H 319.251 -0.28495 -2.98342 0
M  V30 3332 H 316.812 -0.298163 -1.59131 0
M  V30 3333 H 318.804 2.21371 -3.38787 0
M  V30 3334 H 317.374 2.07945 -2.33404 0
M  V30 3335 H 316.594 0.180393 -3.93787 0
M  V30 3336 H 317.882 0.698798 -5.03978 0
M  V30 3337 H 317.28 3.77155 -4.21629 0
M  V30 3338 H 315.837 4.05156 -5.1058 0
M  V30 3339 N 319.27 1.56325 -0.20005 0
M  V30 3340 C 320.686 1.58839 0.155716 0
M  V30 3341 C 320.886 1.21636 1.60645 0
M  V30 3342 O 319.942 0.941437 2.34293 0
M  V30 3343 C 321.255 3.0032 -0.151124 0
M  V30 3344 C 322.803 3.12866 -0.0916284 0
M  V30 3345 C 323.278 4.56488 -0.371845 0
M  V30 3346 N 324.769 4.62089 -0.320641 0
M  V30 3347 C 325.504 5.71116 -0.511243 0
M  V30 3348 N 325 6.88592 -0.762461 0
M  V30 3349 N 326.793 5.60335 -0.445157 0
M  V30 3350 H 318.944 1.78788 -1.14668 0
M  V30 3351 H 321.207 0.829996 -0.458051 0
M  V30 3352 H 320.913 3.32117 -1.15721 0
M  V30 3353 H 320.787 3.73257 0.543986 0
M  V30 3354 H 323.174 2.80878 0.905065 0
M  V30 3355 H 323.255 2.42304 -0.81989 0
M  V30 3356 H 322.899 4.89189 -1.36588 0
M  V30 3357 H 322.829 5.25246 0.377362 0
M  V30 3358 H 325.32 3.77665 -0.13329 0
M  V30 3359 H 325.633 7.67581 -0.896576 0
M  V30 3360 H 323.978 6.90387 -0.799412 0
M  V30 3361 H 327.169 4.67436 -0.249278 0
M  V30 3362 H 327.342 6.45243 -0.597116 0
M  V30 3363 N 320.748 -0.0735177 1.57428 0
M  V30 3364 C 321.978 -0.78483 1.91112 0
M  V30 3365 C 322.386 -1.71729 0.7941 0
M  V30 3366 O 321.729 -1.82105 -0.241542 0
M  V30 3367 C 321.791 -1.63346 3.20247 0
M  V30 3368 C 321.455 -0.870557 4.48632 0
M  V30 3369 C 322.452 -0.19058 5.19551 0
M  V30 3370 C 320.137 -0.838242 4.95256 0
M  V30 3371 C 322.131 0.511503 6.35344 0
M  V30 3372 C 319.818 -0.132386 6.10957 0
M  V30 3373 C 320.816 0.541288 6.80852 0
M  V30 3374 O 320.504 1.23578 7.94345 0
M  V30 3375 H 320.236 -0.228408 0.636244 0
M  V30 3376 H 322.79 -0.0486039 2.05342 0
M  V30 3377 H 321.02 -2.41245 3.02222 0
M  V30 3378 H 322.709 -2.22329 3.39595 0
M  V30 3379 H 323.475 -0.206864 4.84559 0
M  V30 3380 H 319.354 -1.35206 4.40727 0
M  V30 3381 H 322.898 1.03789 6.89836 0
M  V30 3382 H 318.795 -0.114023 6.45399 0
M  V30 3383 H 319.563 1.14487 8.10454 0
M  V30 3384 N 322.226 -1.5378 -0.344866 0
M  V30 3385 C 323.136 -1.84667 -1.4469 0
M  V30 3386 C 324.152 -0.736704 -1.57635 0
M  V30 3387 O 325.328 -1.02888 -1.73136 0
M  V30 3388 C 322.393 -2.04869 -2.79696 0
M  V30 3389 C 321.454 -3.28731 -2.76106 0
M  V30 3390 C 320.687 -3.4796 -4.04673 0
M  V30 3391 O 320.91 -2.71052 -5.01883 0
M  V30 3392 O 319.844 -4.41383 -4.09224 0
M  V30 3393 H 323.67 -2.78334 -1.21506 0
M  V30 3394 H 321.255 -1.39418 -0.536921 0
M  V30 3395 H 323.137 -2.19609 -3.59652 0
M  V30 3396 H 321.812 -1.14391 -3.02814 0
M  V30 3397 H 320.719 -3.19396 -1.94774 0
M  V30 3398 H 322.052 -4.19198 -2.57941 0
M  V30 3399 N 323.704 0.605807 -1.45491 0
M  V30 3400 C 324.95 1.36679 -1.49823 0
M  V30 3401 C 325.283 1.93693 -0.140175 0
M  V30 3402 O 324.558 1.75158 0.845581 0
M  V30 3403 C 324.841 2.51337 -2.57879 0
M  V30 3404 C 324.694 1.99508 -4.03134 0
M  V30 3405 C 326.013 3.53463 -2.62205 0
M  V30 3406 H 323.132 0.495617 -0.545466 0
M  V30 3407 H 325.774 0.682732 -1.7731 0
M  V30 3408 H 323.924 3.09691 -2.34571 0
M  V30 3409 H 325.596 1.45789 -4.37656 0
M  V30 3410 H 323.839 1.30496 -4.13707 0
M  V30 3411 H 324.51 2.82169 -4.74431 0
M  V30 3412 H 326.986 3.04953 -2.83095 0
M  V30 3413 H 325.862 4.31178 -3.39672 0
M  V30 3414 H 326.123 4.09197 -1.67363 0
M  V30 3415 N 325.182 1.32811 0.848464 0
M  V30 3416 C 326.115 1.16601 1.96162 0
M  V30 3417 C 327.093 0.0638855 1.62474 0
M  V30 3418 O 328.277 0.224348 1.8716 0
M  V30 3419 C 325.404 0.786333 3.29446 0
M  V30 3420 C 324.45 1.89459 3.8211 0
M  V30 3421 S 325.283 3.50395 4.04949 0
M  V30 3422 C 326.439 3.14413 5.41198 0
M  V30 3423 H 326.672 2.10832 2.09612 0
M  V30 3424 H 324.205 1.17543 1.00115 0
M  V30 3425 H 326.163 0.574044 4.06466 0
M  V30 3426 H 324.824 -0.137218 3.138 0
M  V30 3427 H 324.017 1.58207 4.78526 0
M  V30 3428 H 323.619 2.06304 3.11953 0
M  V30 3429 H 325.911 2.64642 6.23675 0
M  V30 3430 H 326.854 4.09874 5.77416 0
M  V30 3431 H 327.262 2.51266 5.05495 0
M  V30 3432 N 326.66 -1.06551 1.16123 0
M  V30 3433 C 327.592 -2.13908 0.823171 0
M  V30 3434 C 328.605 -1.61926 -0.16843 0
M  V30 3435 O 329.794 -1.78412 0.055962 0
M  V30 3436 C 326.894 -3.38283 0.204424 0
M  V30 3437 C 326.067 -4.19589 1.23548 0
M  V30 3438 C 325.126 -5.2233 0.637011 0
M  V30 3439 O 324.152 -5.54034 1.30516 0
M  V30 3440 N 325.354 -5.77621 -0.577474 0
M  V30 3441 H 328.119 -2.43508 1.74711 0
M  V30 3442 H 325.68 -1.2253 1.05821 0
M  V30 3443 H 327.672 -4.0416 -0.208909 0
M  V30 3444 H 326.242 -3.06329 -0.623012 0
M  V30 3445 H 325.462 -3.49406 1.82507 0
M  V30 3446 H 326.75 -4.70718 1.93137 0
M  V30 3447 H 326.148 -5.54125 -1.13853 0
M  V30 3448 H 324.705 -6.45087 -0.933053 0
M  V30 3449 N 328.138 -0.959301 -1.25041 0
M  V30 3450 C 329.378 -0.624343 -1.94631 0
M  V30 3451 C 329.742 0.82403 -1.73418 0
M  V30 3452 O 330.943 1.26881 -2.3697 0
M  V30 3453 C 329.214 -0.978805 -3.43736 0
M  V30 3454 S 330.773 -0.757127 -4.32219 0
M  V30 3455 H 327.591 -0.229327 -0.673001 0
M  V30 3456 H 330.193 -1.23447 -1.51595 0
M  V30 3457 H 328.897 -2.02997 -3.56679 0
M  V30 3458 H 328.428 -0.359117 -3.91757 0
M  V30 3459 H 330.443 0.369759 -4.9482 0
M  V30 3460 N 329.616 1.39756 -0.72842 0
M  V30 3461 C 330.863 2.00645 -0.273487 0
M  V30 3462 C 331.191 1.57786 1.13727 0
M  V30 3463 O 330.446 0.794886 1.7883 0
M  V30 3464 C 330.745 3.56002 -0.315776 0
M  V30 3465 C 330.411 4.18489 -1.67863 0
M  V30 3466 C 329.073 4.3527 -2.05166 0
M  V30 3467 C 331.425 4.53219 -2.57375 0
M  V30 3468 C 328.753 4.84069 -3.31503 0
M  V30 3469 C 331.105 5.03423 -3.83077 0
M  V30 3470 C 329.769 5.18413 -4.20481 0
M  V30 3471 H 329.039 0.734211 -0.100076 0
M  V30 3472 H 331.686 1.6718 -0.933972 0
M  V30 3473 H 329.991 3.89452 0.428285 0
M  V30 3474 H 331.688 4.00963 0.0542575 0
M  V30 3475 H 328.278 4.05824 -1.37858 0
M  V30 3476 H 332.462 4.39878 -2.29827 0
M  V30 3477 H 327.718 4.93859 -3.60435 0
M  V30 3478 H 331.892 5.2927 -4.52599 0
M  V30 3479 H 329.519 5.55987 -5.18443 0
M  V30 3480 N 331.094 0.475555 1.50254 0
M  V30 3481 C 332.322 -0.0754493 2.06762 0
M  V30 3482 C 332.737 -1.33111 1.33891 0
M  V30 3483 O 332.094 -1.77846 0.40952 0
M  V30 3484 C 332.145 -0.359008 3.59713 0
M  V30 3485 O 331.866 0.846851 4.29837 0
M  V30 3486 C 333.367 -0.956484 4.32858 0
M  V30 3487 H 330.587 0.00907525 0.670939 0
M  V30 3488 H 333.131 0.665618 1.93364 0
M  V30 3489 H 331.286 -1.05001 3.72899 0
M  V30 3490 H 331.7 0.594162 5.21124 0
M  V30 3491 H 333.174 -1.10463 5.40834 0
M  V30 3492 H 333.651 -1.94775 3.93649 0
M  V30 3493 H 334.257 -0.303723 4.24214 0
M  V30 3494 N 332.573 -1.56217 0.208337 0
M  V30 3495 C 333.819 -1.98242 -0.427552 0
M  V30 3496 C 334.152 -1.09554 -1.60348 0
M  V30 3497 O 333.427 -0.15035 -1.93918 0
M  V30 3498 C 333.71 -3.4931 -0.874907 0
M  V30 3499 C 333.563 -4.48773 0.303751 0
M  V30 3500 C 334.882 -4.04424 -1.73577 0
M  V30 3501 H 332.001 -0.720744 -0.153936 0
M  V30 3502 H 334.643 -1.87586 0.30192 0
M  V30 3503 H 332.793 -3.58522 -1.49648 0
M  V30 3504 H 334.465 -4.51586 0.941682 0
M  V30 3505 H 332.708 -4.23194 0.953375 0
M  V30 3506 H 333.379 -5.51976 -0.0519883 0
M  V30 3507 H 335.855 -3.98075 -1.21143 0
M  V30 3508 H 334.731 -5.1047 -2.01771 0
M  V30 3509 H 334.992 -3.50494 -2.69456 0
M  V30 3510 N 334.051 0.0651679 -1.57465 0
M  V30 3511 C 335.276 0.779605 -1.9219 0
M  V30 3512 C 335.701 1.69988 -0.805333 0
M  V30 3513 O 335.059 1.79685 0.241435 0
M  V30 3514 C 335.107 1.54364 -3.2589 0
M  V30 3515 O 334.211 2.65474 -3.1559 0
M  V30 3516 H 333.552 0.212249 -0.629163 0
M  V30 3517 H 336.082 0.0314294 -2.04576 0
M  V30 3518 H 336.092 1.92146 -3.59922 0
M  V30 3519 H 334.767 0.868457 -4.06732 0
M  V30 3520 H 333.344 2.30501 -2.93128 0
M  V30 3521 N 335.529 1.53961 0.336706 0
M  V30 3522 C 336.461 1.78751 1.4346 0
M  V30 3523 C 337.474 0.669019 1.48418 0
M  V30 3524 O 338.663 0.945884 1.51378 0
M  V30 3525 C 335.763 1.87844 2.82078 0
M  V30 3526 C 334.936 3.17854 3.00479 0
M  V30 3527 C 333.995 3.17816 4.19379 0
M  V30 3528 O 333.021 3.91511 4.13168 0
M  V30 3529 N 334.223 2.40669 5.2826 0
M  V30 3530 H 336.988 2.73493 1.22563 0
M  V30 3531 H 334.549 1.53096 0.526625 0
M  V30 3532 H 336.541 1.85261 3.59806 0
M  V30 3533 H 335.111 1.00257 2.96086 0
M  V30 3534 H 334.331 3.33504 2.10163 0
M  V30 3535 H 335.619 4.03718 3.0966 0
M  V30 3536 H 335.017 1.8036 5.36178 0
M  V30 3537 H 333.574 2.43877 6.04456 0
M  V30 3538 N 337.007 -0.598083 1.45811 0
M  V30 3539 C 338.418 -1.18011 1.44673 0
M  V30 3540 C 338.769 -1.95378 0.179364 0
M  V30 3541 O 337.894 -2.04124 -0.718509 0
M  V30 3542 C 338.489 -2.14677 2.62105 0
M  V30 3543 C 337.048 -2.68236 2.64057 0
M  V30 3544 C 336.195 -1.43816 2.37091 0
M  V30 3545 H 339.146 -0.38686 1.53913 0
M  V30 3546 H 339.167 -2.97878 2.36746 0
M  V30 3547 H 338.679 -1.5834 3.5433 0
M  V30 3548 H 336.78 -3.28486 1.75864 0
M  V30 3549 H 336.893 -3.12021 3.63566 0
M  V30 3550 H 335.257 -1.731 1.86838 0
M  V30 3551 H 336.04 -0.893333 3.31473 0
M  V30 3552 N 338.485 -1.33259 -0.841409 0
M  V30 3553 C 339.432 -1.23302 -1.95103 0
M  V30 3554 C 340.402 -0.112204 -1.65721 0
M  V30 3555 O 341.587 -0.290038 -1.88583 0
M  V30 3556 C 338.727 -0.975583 -3.31023 0
M  V30 3557 C 337.84 -2.18243 -3.72819 0
M  V30 3558 C 336.975 -1.85936 -4.97595 0
M  V30 3559 C 336.014 -3.02866 -5.3192 0
M  V30 3560 N 335.151 -2.70565 -6.47873 0
M  V30 3561 H 339.991 -2.18207 -2.02952 0
M  V30 3562 H 337.528 -1.0851 -0.993173 0
M  V30 3563 H 339.486 -0.80677 -4.09325 0
M  V30 3564 H 338.116 -0.0632755 -3.22738 0
M  V30 3565 H 337.168 -2.46107 -2.90061 0
M  V30 3566 H 338.48 -3.05666 -3.94169 0
M  V30 3567 H 337.634 -1.65684 -5.83638 0
M  V30 3568 H 336.373 -0.957452 -4.78209 0
M  V30 3569 H 335.378 -3.23736 -4.44382 0
M  V30 3570 H 336.603 -3.93809 -5.53255 0
M  V30 3571 H 334.549 -1.8293 -6.29978 0
M  V30 3572 H 334.466 -3.51519 -6.69306 0
M  V30 3573 H 335.734 -2.53774 -7.37034 0
M  V30 3574 N 339.963 1.05934 -1.16686 0
M  V30 3575 C 341.188 1.83029 -0.975455 0
M  V30 3576 C 341.613 1.82096 0.471452 0
M  V30 3577 O 340.971 1.22443 1.33706 0
M  V30 3578 C 341.019 3.27372 -1.51195 0
M  V30 3579 O 340.123 4.06054 -0.720701 0
M  V30 3580 H 339.464 0.566194 -0.346872 0
M  V30 3581 H 341.994 1.33541 -1.55009 0
M  V30 3582 H 342.004 3.78186 -1.53099 0
M  V30 3583 H 340.679 3.27366 -2.56523 0
M  V30 3584 H 339.256 3.64812 -0.772458 0
M  V30 3585 N 341.441 0.965919 1.2453 0
M  V30 3586 C 342.69 0.622437 1.91856 0
M  V30 3587 C 343.003 -0.846006 1.76358 0
M  V30 3588 O 344.209 -1.29993 2.38357 0
M  V30 3589 C 342.665 1.0626 3.43856 0
M  V30 3590 C 342.273 2.55437 3.68043 0
M  V30 3591 C 344.017 0.792183 4.17043 0
M  V30 3592 C 341.924 2.93196 5.13605 0
M  V30 3593 H 340.854 0.229092 0.718354 0
M  V30 3594 H 343.505 1.17189 1.41206 0
M  V30 3595 H 341.887 0.441476 3.93531 0
M  V30 3596 H 343.061 3.22665 3.28974 0
M  V30 3597 H 341.376 2.8007 3.08139 0
M  V30 3598 H 343.973 1.05031 5.24283 0
M  V30 3599 H 344.316 -0.271584 4.15413 0
M  V30 3600 H 344.849 1.37419 3.73311 0
M  V30 3601 H 341.588 3.98636 5.20355 0
M  V30 3602 H 341.108 2.30651 5.53679 0
M  V30 3603 H 342.787 2.83004 5.81823 0
M  V30 3604 N 342.919 -1.39368 0.735821 0
M  V30 3605 C 343.851 -2.2913 0.0567723 0
M  V30 3606 C 344.864 -1.46859 -0.702589 0
M  V30 3607 O 346.053 -1.69925 -0.546616 0
M  V30 3608 C 343.153 -3.25492 -0.943823 0
M  V30 3609 C 342.326 -4.36709 -0.24581 0
M  V30 3610 C 341.385 -5.13376 -1.15463 0
M  V30 3611 O 340.411 -5.65683 -0.631803 0
M  V30 3612 N 341.613 -5.24656 -2.48427 0
M  V30 3613 H 344.378 -2.88047 0.827582 0
M  V30 3614 H 341.939 -1.50957 0.585112 0
M  V30 3615 H 343.931 -3.73657 -1.55443 0
M  V30 3616 H 342.501 -2.676 -1.61583 0
M  V30 3617 H 341.721 -3.9041 0.545286 0
M  V30 3618 H 343.009 -5.08244 0.237891 0
M  V30 3619 H 342.407 -4.83679 -2.93379 0
M  V30 3620 H 340.964 -5.76258 -3.04582 0
M  V30 3621 N 344.397 -0.483516 -1.5 0
M  V30 3622 C 345.307 0.309172 -2.32554 0
M  V30 3623 C 346.323 0.984159 -1.43493 0
M  V30 3624 O 347.499 0.969399 -1.76535 0
M  V30 3625 C 344.564 1.36979 -3.18493 0
M  V30 3626 C 343.625 0.710095 -4.23387 0
M  V30 3627 C 342.858 1.72018 -5.05218 0
M  V30 3628 O 343.081 2.94813 -4.88305 0
M  V30 3629 O 342.015 1.28515 -5.8802 0
M  V30 3630 H 345.841 -0.366064 -3.01486 0
M  V30 3631 H 343.426 -0.24514 -1.47375 0
M  V30 3632 H 345.308 1.98385 -3.71781 0
M  V30 3633 H 343.983 2.02828 -2.52275 0
M  V30 3634 H 342.89 0.0567539 -3.74057 0
M  V30 3635 H 344.223 0.0943557 -4.9211 0
M  V30 3636 N 345.875 1.56104 -0.216619 0
M  V30 3637 C 347.152 1.89988 0.465165 0
M  V30 3638 C 347.532 1.13326 1.78102 0
M  V30 3639 O 346.88 0.241033 2.27225 0
M  V30 3640 C 347.09 3.42646 0.662939 0
M  V30 3641 C 348.438 4.13311 0.972602 0
M  V30 3642 O 349.462 3.48217 0.749901 0
M  V30 3643 O 348.321 5.28396 1.39499 0
M  V30 3644 H 345.415 0.78979 0.245276 0
M  V30 3645 H 347.961 1.67721 -0.258436 0
M  V30 3646 H 346.733 3.90399 -0.26543 0
M  V30 3647 H 346.356 3.70677 1.43821 0
M  V30 3648 N 347.353 -0.0568162 1.57498 0
M  V30 3649 C 348.601 -0.751617 1.87604 0
M  V30 3650 C 348.922 -1.77351 0.81066 0
M  V30 3651 O 348.192 -1.95254 -0.159018 0
M  V30 3652 H 346.772 -0.280583 0.692302 0
M  V30 3653 H 349.434 -0.0293483 1.94878 0
M  V30 3654 H 348.53 -1.25852 2.856 0
M  V30 3655 N 348.832 -1.54138 -0.328536 0
M  V30 3656 C 349.742 -1.86192 -1.42723 0
M  V30 3657 C 350.758 -0.753382 -1.56844 0
M  V30 3658 O 351.934 -1.04718 -1.72035 0
M  V30 3659 C 348.999 -2.07824 -2.77507 0
M  V30 3660 C 348.06 -3.31641 -2.72603 0
M  V30 3661 C 347.293 -3.52232 -4.00959 0
M  V30 3662 O 347.516 -2.7636 -4.9898 0
M  V30 3663 O 346.45 -4.45699 -4.0452 0
M  V30 3664 H 350.276 -2.79608 -1.18547 0
M  V30 3665 H 347.861 -1.3998 -0.522104 0
M  V30 3666 H 349.743 -2.23411 -3.57303 0
M  V30 3667 H 348.418 -1.17596 -3.01584 0
M  V30 3668 H 347.325 -3.21444 -1.91376 0
M  V30 3669 H 348.658 -4.2191 -2.53481 0
M  V30 3670 N 350.31 0.590341 -1.46126 0
M  V30 3671 C 351.587 1.35029 -1.41515 0
M  V30 3672 C 351.967 2.10888 -0.0946472 0
M  V30 3673 O 351.315 2.08998 0.923693 0
M  V30 3674 C 351.525 2.28269 -2.63997 0
M  V30 3675 C 352.873 2.90338 -3.09821 0
M  V30 3676 O 353.897 2.38585 -2.64492 0
M  V30 3677 O 352.756 3.84321 -3.88535 0
M  V30 3678 H 349.85 0.606317 -0.562413 0
M  V30 3679 H 352.396 0.611994 -1.58281 0
M  V30 3680 H 351.168 1.71591 -3.51671 0
M  V30 3681 H 350.791 3.0945 -2.49652 0
M  V30 3682 N 351.788 1.33704 0.83433 0
M  V30 3683 C 353.035 1.25417 1.58987 0
M  V30 3684 C 353.363 -0.178869 1.93676 0
M  V30 3685 O 352.618 -1.13723 1.59265 0
M  V30 3686 C 352.917 2.07926 2.90692 0
M  V30 3687 C 352.583 3.57066 2.75345 0
M  V30 3688 C 351.245 3.97724 2.70867 0
M  V30 3689 C 353.597 4.51817 2.59828 0
M  V30 3690 C 350.925 5.31344 2.48778 0
M  V30 3691 C 353.277 5.85604 2.39272 0
M  V30 3692 C 351.941 6.25439 2.33199 0
M  V30 3693 H 351.211 0.458934 0.581774 0
M  V30 3694 H 353.858 1.65335 0.966261 0
M  V30 3695 H 352.163 1.608 3.57282 0
M  V30 3696 H 353.86 1.98868 3.48213 0
M  V30 3697 H 350.45 3.24785 2.79665 0
M  V30 3698 H 354.634 4.21311 2.62319 0
M  V30 3699 H 349.89 5.61241 2.42526 0
M  V30 3700 H 354.064 6.58623 2.2625 0
M  V30 3701 H 351.691 7.28914 2.15843 0
M  V30 3702 N 353.266 -1.05314 1.17247 0
M  V30 3703 C 354.198 -2.13023 0.845812 0
M  V30 3704 C 355.211 -1.62096 -0.151246 0
M  V30 3705 O 356.4 -1.78343 0.0748818 0
M  V30 3706 C 353.5 -3.38047 0.240292 0
M  V30 3707 C 352.673 -4.18255 1.27991 0
M  V30 3708 C 351.732 -5.21625 0.692375 0
M  V30 3709 O 350.758 -5.52619 1.36385 0
M  V30 3710 N 351.96 -5.78201 -0.516178 0
M  V30 3711 H 354.725 -2.41642 1.77283 0
M  V30 3712 H 352.286 -1.21401 1.07115 0
M  V30 3713 H 354.278 -4.04359 -0.16603 0
M  V30 3714 H 352.848 -3.06972 -0.590487 0
M  V30 3715 H 352.068 -3.47451 1.86203 0
M  V30 3716 H 353.356 -4.68643 1.98119 0
M  V30 3717 H 352.754 -5.55301 -1.07969 0
M  V30 3718 H 351.311 -6.4604 -0.86458 0
M  V30 3719 N 354.744 -0.972509 -1.24016 0
M  V30 3720 C 355.969 -0.654417 -1.96805 0
M  V30 3721 C 356.394 0.770398 -1.716 0
M  V30 3722 O 355.752 1.52361 -0.982647 0
M  V30 3723 C 355.8 -0.941031 -3.48105 0
M  V30 3724 O 354.904 -0.0289472 -4.1239 0
M  V30 3725 H 354.245 -0.24692 -0.616382 0
M  V30 3726 H 356.775 -1.30396 -1.57664 0
M  V30 3727 H 356.785 -0.87452 -3.98517 0
M  V30 3728 H 355.46 -1.97939 -3.65777 0
M  V30 3729 H 354.037 -0.149192 -3.72601 0
M  V30 3730 N 356.222 1.38976 -0.743202 0
M  V30 3731 C 357.462 2.02193 -0.29954 0
M  V30 3732 C 357.826 1.5771 1.09506 0
M  V30 3733 O 359.027 2.13184 1.63726 0
M  V30 3734 C 357.298 3.55077 -0.406822 0
M  V30 3735 S 358.857 4.38778 -0.0442109 0
M  V30 3736 H 355.675 0.701335 -0.116836 0
M  V30 3737 H 358.277 1.69651 -0.971529 0
M  V30 3738 H 356.981 3.84942 -1.42295 0
M  V30 3739 H 356.512 3.92383 0.282707 0
M  V30 3740 H 358.527 4.82222 1.16947 0
M  V30 3741 N 357.7 0.491464 1.49741 0
M  V30 3742 C 358.63 -0.28154 2.31796 0
M  V30 3743 C 359.611 -0.971473 1.3963 0
M  V30 3744 O 360.796 -0.964719 1.68543 0
M  V30 3745 C 357.926 -1.35203 3.19902 0
M  V30 3746 C 356.88 -0.782529 4.20786 0
M  V30 3747 C 356.206 -1.95283 4.97764 0
M  V30 3748 C 357.506 0.21999 5.21837 0
M  V30 3749 H 359.2 0.403355 2.96671 0
M  V30 3750 H 356.746 0.195425 1.42668 0
M  V30 3751 H 358.699 -1.90045 3.76113 0
M  V30 3752 H 357.423 -2.06598 2.52953 0
M  V30 3753 H 356.082 -0.255928 3.65706 0
M  V30 3754 H 355.73 -2.65423 4.2727 0
M  V30 3755 H 355.43 -1.57789 5.66018 0
M  V30 3756 H 356.954 -2.50577 5.56816 0
M  V30 3757 H 358.368 -0.23996 5.72798 0
M  V30 3758 H 356.765 0.51026 5.97927 0
M  V30 3759 H 357.835 1.13911 4.7133 0
M  V30 3760 N 359.178 -1.55987 0.224894 0
M  V30 3761 C 360.427 -1.97566 -0.406273 0
M  V30 3762 C 360.74 -1.11569 -1.6066 0
M  V30 3763 O 361.946 -1.43062 -2.3075 0
M  V30 3764 C 360.402 -3.51474 -0.774207 0
M  V30 3765 C 360.01 -4.46179 0.403496 0
M  V30 3766 C 361.754 -4.01758 -1.37079 0
M  V30 3767 C 359.661 -5.91399 0.0129412 0
M  V30 3768 H 358.591 -0.737777 -0.155565 0
M  V30 3769 H 361.242 -1.80659 0.321635 0
M  V30 3770 H 359.624 -3.63994 -1.55963 0
M  V30 3771 H 360.798 -4.45409 1.18101 0
M  V30 3772 H 359.113 -4.06255 0.913536 0
M  V30 3773 H 361.71 -5.07756 -1.67596 0
M  V30 3774 H 362.053 -3.47805 -2.28773 0
M  V30 3775 H 362.586 -3.92475 -0.648733 0
M  V30 3776 H 359.325 -6.49341 0.896451 0
M  V30 3777 H 358.845 -5.95356 -0.728821 0
M  V30 3778 H 360.524 -6.45683 -0.412582 0
M  V30 3779 N 360.656 0.0484629 -1.57525 0
M  V30 3780 C 361.896 0.748196 -1.90214 0
M  V30 3781 C 362.26 1.73545 -0.821347 0
M  V30 3782 O 363.461 2.48201 -1.03198 0
M  V30 3783 C 361.732 1.41727 -3.28098 0
M  V30 3784 S 363.291 2.14884 -3.82584 0
M  V30 3785 H 360.109 0.248307 -0.666232 0
M  V30 3786 H 362.711 0.00343188 -1.955 0
M  V30 3787 H 361.415 0.685244 -4.04639 0
M  V30 3788 H 360.946 2.20099 -3.26068 0
M  V30 3789 H 362.961 3.41755 -3.59747 0
M  V30 3790 N 362.134 1.5431 0.320358 0
M  V30 3791 C 363.383 1.7188 1.05546 0
M  V30 3792 C 363.696 0.501143 1.89071 0
M  V30 3793 O 364.902 0.558258 2.65699 0
M  V30 3794 C 363.358 3.04025 1.92605 0
M  V30 3795 C 362.966 4.33207 1.14176 0
M  V30 3796 C 364.71 3.30959 2.65832 0
M  V30 3797 C 362.617 5.56412 2.00399 0
M  V30 3798 H 361.547 0.640547 0.397763 0
M  V30 3799 H 364.198 1.80802 0.313522 0
M  V30 3800 H 362.58 2.89019 2.7071 0
M  V30 3801 H 363.754 4.58989 0.40819 0
M  V30 3802 H 362.069 4.13062 0.526165 0
M  V30 3803 H 364.666 4.20203 3.30656 0
M  V30 3804 H 365.009 2.48979 3.33639 0
M  V30 3805 H 365.542 3.46847 1.94787 0
M  V30 3806 H 362.281 6.41004 1.37094 0
M  V30 3807 H 361.801 5.34844 2.7148 0
M  V30 3808 H 363.48 5.92938 2.58908 0
M  V30 3809 N 363.613 -0.582584 1.46437 0
M  V30 3810 C 364.576 -1.67366 1.56592 0
M  V30 3811 C 365.576 -1.54575 0.443072 0
M  V30 3812 O 366.766 -1.59191 0.707381 0
M  V30 3813 C 363.898 -3.06791 1.48634 0
M  V30 3814 H 365.091 -1.5972 2.5383 0
M  V30 3815 H 362.644 -0.800432 1.34249 0
M  V30 3816 H 363.379 -3.19993 0.526763 0
M  V30 3817 H 363.164 -3.17484 2.30101 0
M  V30 3818 H 364.654 -3.86218 1.58826 0
M  V30 3819 N 365.091 -1.34144 -0.827227 0
M  V30 3820 C 366.507 -1.13732 -1.11969 0
M  V30 3821 C 366.707 0.0640463 -2.01398 0
M  V30 3822 O 365.763 0.740856 -2.41387 0
M  V30 3823 C 367.076 -2.43047 -1.77055 0
M  V30 3824 C 368.624 -2.49063 -1.89569 0
M  V30 3825 C 369.099 -3.78369 -2.58072 0
M  V30 3826 N 370.59 -3.79505 -2.65575 0
M  V30 3827 C 371.325 -4.76274 -3.19297 0
M  V30 3828 N 370.821 -5.83424 -3.73616 0
M  V30 3829 N 372.614 -4.63735 -3.17658 0
M  V30 3830 H 364.765 -2.11126 -0.232296 0
M  V30 3831 H 367.028 -0.933424 -0.165602 0
M  V30 3832 H 366.734 -3.31025 -1.18807 0
M  V30 3833 H 366.608 -2.56066 -2.76966 0
M  V30 3834 H 368.995 -1.61527 -2.46968 0
M  V30 3835 H 369.076 -2.39975 -0.885745 0
M  V30 3836 H 368.72 -4.66293 -2.01329 0
M  V30 3837 H 368.65 -3.84737 -3.59562 0
M  V30 3838 H 371.141 -3.02074 -2.27068 0
M  V30 3839 H 371.454 -6.53282 -4.12846 0
M  V30 3840 H 369.799 -5.87143 -3.71871 0
M  V30 3841 H 372.99 -3.79177 -2.74486 0
M  V30 3842 H 373.163 -5.39318 -3.59221 0
M  V30 3843 N 366.569 1.04691 -1.17803 0
M  V30 3844 C 367.985 1.29963 -0.926379 0
M  V30 3845 C 368.185 1.97251 0.411635 0
M  V30 3846 O 367.241 2.24922 1.14744 0
M  V30 3847 C 368.554 2.16447 -2.08737 0
M  V30 3848 C 370.102 2.29814 -2.12496 0
M  V30 3849 C 370.577 3.19661 -3.27995 0
M  V30 3850 N 372.068 3.27247 -3.27816 0
M  V30 3851 C 372.803 3.96906 -4.13827 0
M  V30 3852 N 372.299 4.6895 -5.09959 0
M  V30 3853 N 374.092 3.93122 -4.01761 0
M  V30 3854 H 366.243 0.594182 -2.0392 0
M  V30 3855 H 368.506 0.324649 -0.890678 0
M  V30 3856 H 368.212 1.74304 -3.05469 0
M  V30 3857 H 368.086 3.17103 -2.04268 0
M  V30 3858 H 370.473 2.71196 -1.16347 0
M  V30 3859 H 370.554 1.2877 -2.21025 0
M  V30 3860 H 370.198 2.78991 -4.24413 0
M  V30 3861 H 370.128 4.20722 -3.16703 0
M  V30 3862 H 372.619 2.75921 -2.58217 0
M  V30 3863 H 372.932 5.19679 -5.71974 0
M  V30 3864 H 371.277 4.67875 -5.13924 0
M  V30 3865 H 374.468 3.35967 -3.2595 0
M  V30 3866 H 374.641 4.47139 -4.6901 0
M  V30 3867 N 368.047 0.979072 1.23499 0
M  V30 3868 C 368.977 0.537606 2.27227 0
M  V30 3869 C 369.958 -0.428539 1.64613 0
M  V30 3870 O 371.143 -0.322191 1.91509 0
M  V30 3871 C 368.273 -0.162052 3.46922 0
M  V30 3872 C 367.227 0.721242 4.21879 0
M  V30 3873 C 366.553 -0.110555 5.34586 0
M  V30 3874 C 367.853 2.01141 4.82016 0
M  V30 3875 H 369.547 1.40462 2.64406 0
M  V30 3876 H 367.093 0.67684 1.27102 0
M  V30 3877 H 369.046 -0.482192 4.18632 0
M  V30 3878 H 367.77 -1.06351 3.08799 0
M  V30 3879 H 366.429 1.02482 3.51984 0
M  V30 3880 H 366.077 -1.0125 4.92704 0
M  V30 3881 H 365.777 0.477325 5.85658 0
M  V30 3882 H 367.301 -0.425107 6.09118 0
M  V30 3883 H 368.715 1.75612 5.45741 0
M  V30 3884 H 367.112 2.54695 5.43369 0
M  V30 3885 H 368.182 2.69909 4.02836 0
M  V30 3886 N 369.525 -1.3858 0.750561 0
M  V30 3887 C 370.936 -1.82927 0.373438 0
M  V30 3888 C 371.287 -1.62634 -1.09748 0
M  V30 3889 O 370.412 -1.12588 -1.84805 0
M  V30 3890 C 371.007 -3.32088 0.671029 0
M  V30 3891 C 369.566 -3.74795 0.34722 0
M  V30 3892 C 368.713 -2.61391 0.92575 0
M  V30 3893 H 371.664 -1.27351 0.946958 0
M  V30 3894 H 371.685 -3.80465 -0.0518269 0
M  V30 3895 H 371.197 -3.46826 1.74164 0
M  V30 3896 H 369.298 -3.65638 -0.716933 0
M  V30 3897 H 369.411 -4.71667 0.840656 0
M  V30 3898 H 367.775 -2.52265 0.351327 0
M  V30 3899 H 368.558 -2.78929 2.00133 0
M  V30 3900 N 371.003 -0.499398 -1.49478 0
M  V30 3901 C 372.419 -0.155261 -1.58843 0
M  V30 3902 C 372.619 1.34008 -1.50479 0
M  V30 3903 O 371.675 2.11589 -1.37791 0
M  V30 3904 C 372.988 -0.730636 -2.91689 0
M  V30 3905 C 374.536 -0.696599 -3.0515 0
M  V30 3906 C 375.011 -1.25001 -4.40612 0
M  V30 3907 N 376.502 -1.21064 -4.47099 0
M  V30 3908 C 377.237 -1.60905 -5.50361 0
M  V30 3909 N 376.733 -2.08331 -6.60735 0
M  V30 3910 N 378.526 -1.52331 -5.41065 0
M  V30 3911 H 370.677 -1.47162 -1.53158 0
M  V30 3912 H 372.94 -0.610309 -0.725415 0
M  V30 3913 H 372.646 -1.77928 -3.03372 0
M  V30 3914 H 372.52 -0.190161 -3.7672 0
M  V30 3915 H 374.907 0.343204 -2.93097 0
M  V30 3916 H 374.988 -1.2742 -2.21806 0
M  V30 3917 H 374.632 -2.28859 -4.53416 0
M  V30 3918 H 374.562 -0.64836 -5.22593 0
M  V30 3919 H 377.053 -0.863128 -3.67911 0
M  V30 3920 H 377.366 -2.36805 -7.35624 0
M  V30 3921 H 375.711 -2.12304 -6.6178 0
M  V30 3922 H 378.902 -1.151 -4.53729 0
M  V30 3923 H 379.075 -1.83704 -6.21415 0
M  V30 3924 N 372.481 1.55866 -0.233164 0
M  V30 3925 C 373.892 1.847 0.272554 0
M  V30 3926 C 374.243 1.15477 1.58617 0
M  V30 3927 O 373.368 0.42841 2.12117 0
M  V30 3928 C 373.963 3.35071 0.501299 0
M  V30 3929 C 372.522 3.6418 0.951304 0
M  V30 3930 C 371.669 2.77292 0.0208209 0
M  V30 3931 H 374.62 1.52005 -0.456074 0
M  V30 3932 H 374.641 3.55906 1.34577 0
M  V30 3933 H 374.153 3.85424 -0.454936 0
M  V30 3934 H 372.254 3.19293 1.92049 0
M  V30 3935 H 372.367 4.72071 0.817675 0
M  V30 3936 H 370.731 2.49131 0.529723 0
M  V30 3937 H 371.514 3.30448 -0.93054 0
M  V30 3938 N 373.959 -0.0401083 1.57549 0
M  V30 3939 C 375.37 -0.588097 1.77196 0
M  V30 3940 C 375.721 -1.76209 0.862832 0
M  V30 3941 O 374.846 -2.16331 0.0548389 0
M  V30 3942 C 375.441 -1.07363 3.21339 0
M  V30 3943 C 374 -1.56723 3.42221 0
M  V30 3944 C 373.147 -0.50041 2.72747 0
M  V30 3945 H 376.098 0.186119 1.57605 0
M  V30 3946 H 376.119 -1.94143 3.27244 0
M  V30 3947 H 375.631 -0.218975 3.87482 0
M  V30 3948 H 373.732 -2.4441 2.81237 0
M  V30 3949 H 373.845 -1.62234 4.50796 0
M  V30 3950 H 372.209 -0.952894 2.36203 0
M  V30 3951 H 372.992 0.344599 3.41566 0
M  V30 3952 N 375.437 -1.54477 -0.31217 0
M  V30 3953 C 376.4 -1.83923 -1.36766 0
M  V30 3954 C 377.4 -0.711563 -1.44199 0
M  V30 3955 O 378.59 -0.979866 -1.44029 0
M  V30 3956 C 375.722 -2.0095 -2.75376 0
M  V30 3957 H 376.915 -2.78239 -1.11906 0
M  V30 3958 H 374.468 -1.46369 -0.548257 0
M  V30 3959 H 375.203 -1.08883 -3.05475 0
M  V30 3960 H 374.988 -2.83018 -2.71373 0
M  V30 3961 H 376.478 -2.2514 -3.51713 0
M  V30 3962 N 376.915 0.57481 -1.46744 0
M  V30 3963 C 378.164 1.32898 -1.51727 0
M  V30 3964 C 378.477 1.948 -0.176692 0
M  V30 3965 O 379.683 2.71299 -0.104385 0
M  V30 3966 C 378.139 2.40901 -2.67385 0
M  V30 3967 C 377.747 1.85266 -4.07898 0
M  V30 3968 C 379.491 3.17609 -2.81646 0
M  V30 3969 C 377.398 2.90945 -5.14883 0
M  V30 3970 H 376.328 0.499631 -0.564699 0
M  V30 3971 H 378.979 0.612536 -1.72975 0
M  V30 3972 H 377.361 3.15379 -2.39483 0
M  V30 3973 H 378.535 1.17278 -4.45626 0
M  V30 3974 H 376.85 1.21199 -3.98371 0
M  V30 3975 H 379.447 3.96493 -3.58744 0
M  V30 3976 H 379.79 3.70696 -1.89448 0
M  V30 3977 H 380.323 2.50239 -3.09233 0
M  V30 3978 H 377.062 2.42736 -6.089 0
M  V30 3979 H 376.582 3.57398 -4.81691 0
M  V30 3980 H 378.261 3.54755 -5.41071 0
M  V30 3981 N 378.394 1.34581 0.820102 0
M  V30 3982 C 379.622 1.3018 1.60813 0
M  V30 3983 C 380.037 -0.123551 1.88395 0
M  V30 3984 O 379.394 -1.07148 1.47735 0
M  V30 3985 C 379.445 2.09312 2.94739 0
M  V30 3986 O 379.166 3.46288 2.68358 0
M  V30 3987 C 380.667 2.1234 3.89136 0
M  V30 3988 H 377.887 0.447726 0.499782 0
M  V30 3989 H 380.431 1.77237 1.02017 0
M  V30 3990 H 378.586 1.65889 3.50085 0
M  V30 3991 H 379 3.87227 3.53774 0
M  V30 3992 H 380.474 2.72126 4.80262 0
M  V30 3993 H 380.951 1.11854 4.24718 0
M  V30 3994 H 381.557 2.55864 3.39726 0
M  V30 3995 N 379.872 -1.04064 1.18357 0
M  V30 3996 C 381.12 -1.76915 0.977013 0
M  V30 3997 C 381.441 -1.88624 -0.494577 0
M  V30 3998 O 380.711 -1.41125 -1.3587 0
M  V30 3999 H 379.291 -0.65535 0.358504 0
M  V30 4000 H 381.953 -1.25592 1.49039 0
M  V30 4001 H 381.049 -2.78178 1.41504 0
M  V30 4002 N 381.35 -0.985608 -1.22978 0
M  V30 4003 C 382.596 -0.65836 -1.91816 0
M  V30 4004 C 382.929 0.806692 -1.76653 0
M  V30 4005 O 382.204 1.58252 -1.13078 0
M  V30 4006 C 382.487 -1.056 -3.44268 0
M  V30 4007 C 382.34 -2.57906 -3.68516 0
M  V30 4008 C 383.659 -0.603781 -4.35939 0
M  V30 4009 H 380.778 -0.24065 -0.696604 0
M  V30 4010 H 383.42 -1.22783 -1.44998 0
M  V30 4011 H 381.57 -0.571445 -3.84274 0
M  V30 4012 H 383.242 -3.13976 -3.3796 0
M  V30 4013 H 381.485 -3.00305 -3.13048 0
M  V30 4014 H 382.156 -2.80779 -4.75255 0
M  V30 4015 H 384.632 -1.01987 -4.03408 0
M  V30 4016 H 383.508 -0.910383 -5.41298 0
M  V30 4017 H 383.769 0.495761 -4.39312 0
M  V30 4018 N 382.828 1.3818 -0.7579 0
M  V30 4019 C 383.738 2.3421 -0.135247 0
M  V30 4020 C 384.754 1.59487 0.695683 0
M  V30 4021 O 385.93 1.91657 0.618832 0
M  V30 4022 C 382.995 3.3862 0.744139 0
M  V30 4023 C 382.056 4.2918 -0.101658 0
M  V30 4024 C 381.289 5.28603 0.735851 0
M  V30 4025 O 381.512 5.35166 1.97366 0
M  V30 4026 O 380.446 6.01707 0.152372 0
M  V30 4027 H 384.272 2.8916 -0.928436 0
M  V30 4028 H 381.857 1.40101 -0.518855 0
M  V30 4029 H 383.739 4.02539 1.2466 0
M  V30 4030 H 382.414 2.86019 1.51575 0
M  V30 4031 H 381.321 3.68407 -0.650167 0
M  V30 4032 H 382.654 4.85048 -0.836024 0
M  V30 4033 N 384.306 0.507319 1.49211 0
M  V30 4034 C 385.531 -0.033725 2.07373 0
M  V30 4035 C 385.956 -1.29485 1.36437 0
M  V30 4036 O 385.314 -1.76294 0.423087 0
M  V30 4037 C 385.362 -0.263945 3.59633 0
M  V30 4038 O 384.466 -1.33737 3.90113 0
M  V30 4039 H 383.807 0.0290331 0.663365 0
M  V30 4040 H 386.337 0.708749 1.91932 0
M  V30 4041 H 386.347 -0.493536 4.05004 0
M  V30 4042 H 385.022 0.657424 4.10671 0
M  V30 4043 H 383.599 -1.09224 3.56545 0
M  V30 4044 N 385.784 -1.5574 0.241426 0
M  V30 4045 C 387.031 -1.9881 -0.384836 0
M  V30 4046 C 387.359 -1.12947 -1.58346 0
M  V30 4047 O 386.614 -0.178993 -1.9488 0
M  V30 4048 C 386.913 -3.47308 -0.843317 0
M  V30 4049 C 386.579 -4.50223 0.246946 0
M  V30 4050 C 385.241 -4.78088 0.546399 0
M  V30 4051 C 387.593 -5.11841 0.983282 0
M  V30 4052 C 384.921 -5.64846 1.58636 0
M  V30 4053 C 387.273 -5.99727 2.01272 0
M  V30 4054 C 385.937 -6.25927 2.31888 0
M  V30 4055 H 385.207 -0.727496 -0.140821 0
M  V30 4056 H 387.854 -1.8831 0.348106 0
M  V30 4057 H 386.159 -3.55112 -1.65537 0
M  V30 4058 H 387.856 -3.78017 -1.33806 0
M  V30 4059 H 384.446 -4.286 0.00340639 0
M  V30 4060 H 388.63 -4.90366 0.765182 0
M  V30 4061 H 383.886 -5.83403 1.82896 0
M  V30 4062 H 388.06 -6.46517 2.58823 0
M  V30 4063 H 385.687 -6.92949 3.12611 0
M  V30 4064 N 387.262 0.0317525 -1.57568 0
M  V30 4065 C 388.195 1.06621 -2.0176 0
M  V30 4066 C 389.173 1.35323 -0.901462 0
M  V30 4067 O 390.357 1.48025 -1.16708 0
M  V30 4068 C 387.484 2.40155 -2.38837 0
M  V30 4069 C 386.53 2.27327 -3.60867 0
M  V30 4070 S 387.363 1.62925 -5.10113 0
M  V30 4071 C 388.519 2.97955 -5.5043 0
M  V30 4072 H 388.752 0.689781 -2.89187 0
M  V30 4073 H 386.285 0.24164 -1.52497 0
M  V30 4074 H 388.243 3.1695 -2.6087 0
M  V30 4075 H 386.904 2.74946 -1.51867 0
M  V30 4076 H 386.097 3.25898 -3.84456 0
M  V30 4077 H 385.699 1.58675 -3.38671 0
M  V30 4078 H 387.991 3.94285 -5.5095 0
M  V30 4079 H 388.934 2.79102 -6.50775 0
M  V30 4080 H 389.342 3.00404 -4.77931 0
M  V30 4081 N 388.74 1.54641 0.303973 0
M  V30 4082 C 389.968 1.77768 1.05858 0
M  V30 4083 C 390.383 0.535722 1.8104 0
M  V30 4084 O 389.74 -0.494337 1.75677 0
M  V30 4085 C 389.791 2.9834 2.04146 0
M  V30 4086 O 389.512 4.17736 1.32015 0
M  V30 4087 C 391.013 3.33832 2.91669 0
M  V30 4088 H 388.233 0.592961 0.314067 0
M  V30 4089 H 390.777 2.01583 0.344149 0
M  V30 4090 H 388.932 2.76742 2.71096 0
M  V30 4091 H 389.346 4.85693 1.97998 0
M  V30 4092 H 390.82 4.21448 3.56491 0
M  V30 4093 H 391.297 2.51857 3.59812 0
M  V30 4094 H 391.903 3.57579 2.30254 0
M  V30 4095 N 390.218 -0.567019 1.47046 0
M  V30 4096 C 391.165 -1.67489 1.58796 0
M  V30 4097 C 392.135 -1.60399 0.43144 0
M  V30 4098 O 393.32 -1.79378 0.650233 0
M  V30 4099 C 390.46 -3.05821 1.59899 0
M  V30 4100 C 389.573 -3.2342 2.86397 0
M  V30 4101 C 388.708 -4.52093 2.789 0
M  V30 4102 C 387.747 -4.6309 4.00267 0
M  V30 4103 N 386.884 -5.83106 3.91064 0
M  V30 4104 H 391.724 -1.56785 2.53422 0
M  V30 4105 H 389.261 -0.763896 1.2571 0
M  V30 4106 H 391.219 -3.8591 1.58522 0
M  V30 4107 H 389.849 -3.15384 0.687929 0
M  V30 4108 H 388.901 -2.3683 2.97684 0
M  V30 4109 H 390.213 -3.27412 3.76301 0
M  V30 4110 H 389.367 -5.4043 2.75718 0
M  V30 4111 H 388.106 -4.50565 1.86662 0
M  V30 4112 H 387.111 -3.73168 4.03765 0
M  V30 4113 H 388.336 -4.66386 4.93621 0
M  V30 4114 H 386.282 -5.82546 3.01623 0
M  V30 4115 H 386.199 -5.88434 4.74638 0
M  V30 4116 H 387.467 -6.73831 3.91882 0
M  V30 4117 N 391.696 -1.35014 -0.812953 0
M  V30 4118 C 392.628 -1.23262 -1.93233 0
M  V30 4119 C 393.641 -0.157371 -1.62038 0
M  V30 4120 O 394.83 -0.410096 -1.73725 0
M  V30 4121 C 391.93 -0.87392 -3.27438 0
M  V30 4122 C 391.103 -2.04622 -3.86586 0
M  V30 4123 C 390.162 -1.66432 -4.99186 0
M  V30 4124 O 389.188 -2.38222 -5.16951 0
M  V30 4125 N 390.39 -0.584248 -5.77552 0
M  V30 4126 H 393.155 -2.19699 -2.03844 0
M  V30 4127 H 390.716 -1.281 -0.99005 0
M  V30 4128 H 392.708 -0.600039 -4.00227 0
M  V30 4129 H 391.278 0.00057392 -3.126 0
M  V30 4130 H 390.498 -2.48427 -3.06068 0
M  V30 4131 H 391.786 -2.82999 -4.22835 0
M  V30 4132 H 391.184 0.0123526 -5.65699 0
M  V30 4133 H 389.741 -0.37013 -6.50748 0
M  V30 4134 N 393.175 1.03435 -1.18907 0
M  V30 4135 C 394.452 1.73778 -0.89781 0
M  V30 4136 C 394.832 2.02458 0.597832 0
M  V30 4137 O 394.18 1.67482 1.55441 0
M  V30 4138 C 394.39 3.01845 -1.75187 0
M  V30 4139 C 395.738 3.7546 -1.9828 0
M  V30 4140 O 396.762 3.11759 -1.72293 0
M  V30 4141 O 395.621 4.89966 -2.42065 0
M  V30 4142 H 392.715 0.75651 -0.334098 0
M  V30 4143 H 395.261 1.09444 -1.29693 0
M  V30 4144 H 394.033 2.76836 -2.76545 0
M  V30 4145 H 393.656 3.73919 -1.35167 0
M  V30 4146 N 394.653 0.992116 1.22453 0
M  V30 4147 C 395.881 0.685944 1.95198 0
M  V30 4148 C 396.296 -0.749233 1.73297 0
M  V30 4149 O 395.653 -1.50549 1.03156 0
M  V30 4150 C 395.704 0.981395 3.47924 0
M  V30 4151 O 395.425 2.36018 3.6909 0
M  V30 4152 C 396.926 0.692815 4.37853 0
M  V30 4153 H 394.146 0.253821 0.621141 0
M  V30 4154 H 396.69 1.32668 1.55626 0
M  V30 4155 H 394.845 0.386481 3.85467 0
M  V30 4156 H 395.259 2.45884 4.63294 0
M  V30 4157 H 396.733 0.949818 5.43767 0
M  V30 4158 H 397.21 -0.373181 4.37612 0
M  V30 4159 H 397.816 1.26874 4.05935 0
M  V30 4160 N 396.131 -1.37776 0.765217 0
M  V30 4161 C 397.359 -2.04124 0.337767 0
M  V30 4162 C 397.774 -1.57715 -1.03785 0
M  V30 4163 O 397.131 -0.755447 -1.6613 0
M  V30 4164 C 397.182 -3.59658 0.364442 0
M  V30 4165 O 396.903 -4.04367 1.68579 0
M  V30 4166 C 398.404 -4.43236 -0.0754221 0
M  V30 4167 H 395.624 -0.655696 0.142491 0
M  V30 4168 H 398.168 -1.76238 1.03732 0
M  V30 4169 H 396.323 -3.86339 -0.286471 0
M  V30 4170 H 396.737 -4.98857 1.61993 0
M  V30 4171 H 398.211 -5.52 -0.00560067 0
M  V30 4172 H 398.688 -4.2455 -1.12491 0
M  V30 4173 H 399.294 -4.21767 0.547055 0
M  V30 4174 N 397.609 -0.515225 -1.4894 0
M  V30 4175 C 398.857 0.0241671 -2.02086 0
M  V30 4176 C 399.178 1.3616 -1.3959 0
M  V30 4177 O 398.448 1.87841 -0.556121 0
M  V30 4178 H 397.028 0.0119203 -0.746905 0
M  V30 4179 H 399.69 -0.675702 -1.82812 0
M  V30 4180 H 398.786 0.143385 -3.1177 0
M  V30 4181 N 399.087 1.5561 -0.249682 0
M  V30 4182 C 400.034 2.21496 0.648694 0
M  V30 4183 C 401.004 1.17977 1.16921 0
M  V30 4184 O 402.189 1.46434 1.22318 0
M  V30 4185 C 399.329 2.92039 1.83868 0
M  V30 4186 C 398.442 4.10219 1.35442 0
M  V30 4187 C 397.577 4.6847 2.50419 0
M  V30 4188 C 396.616 5.78893 1.98869 0
M  V30 4189 N 395.753 6.31315 3.07223 0
M  V30 4190 H 400.593 2.97892 0.0801582 0
M  V30 4191 H 398.13 1.47074 0.0278031 0
M  V30 4192 H 400.088 3.31138 2.53778 0
M  V30 4193 H 398.718 2.18111 2.37965 0
M  V30 4194 H 397.77 3.76413 0.54928 0
M  V30 4195 H 399.082 4.89927 0.936649 0
M  V30 4196 H 398.236 5.10158 3.28366 0
M  V30 4197 H 396.975 3.87984 2.95499 0
M  V30 4198 H 395.98 5.3668 1.19393 0
M  V30 4199 H 397.205 6.61232 1.54755 0
M  V30 4200 H 395.151 5.53733 3.51732 0
M  V30 4201 H 395.068 7.06224 2.69784 0
M  V30 4202 H 396.336 6.77662 3.8522 0
M  V30 4203 N 400.565 -0.0233959 1.57583 0
M  V30 4204 C 401.814 -0.712133 1.8871 0
M  V30 4205 C 402.127 -1.76217 0.848944 0
M  V30 4206 O 403.333 -2.50389 1.04964 0
M  V30 4207 C 401.789 -1.3177 3.3491 0
M  V30 4208 C 401.397 -0.303715 4.46969 0
M  V30 4209 C 403.141 -1.98598 3.75179 0
M  V30 4210 C 401.048 -0.917945 5.84233 0
M  V30 4211 H 399.978 -0.269735 0.704101 0
M  V30 4212 H 402.629 0.0333114 1.8347 0
M  V30 4213 H 401.011 -2.11304 3.34913 0
M  V30 4214 H 402.185 0.465325 4.58445 0
M  V30 4215 H 400.5 0.2628 4.1557 0
M  V30 4216 H 403.097 -2.45416 4.75053 0
M  V30 4217 H 403.44 -2.80659 3.07468 0
M  V30 4218 H 403.973 -1.25831 3.77374 0
M  V30 4219 H 400.712 -0.136633 6.55358 0
M  V30 4220 H 400.232 -1.65669 5.76467 0
M  V30 4221 H 401.911 -1.4236 6.31144 0
M  V30 4222 N 402.043 -1.548 -0.295768 0
M  V30 4223 C 403.292 -1.73538 -1.02798 0
M  V30 4224 C 403.605 -0.531159 -1.8825 0
M  V30 4225 O 404.811 -0.600458 -2.64777 0
M  V30 4226 C 403.267 -3.07051 -1.87744 0
M  V30 4227 C 402.875 -4.34968 -1.07269 0
M  V30 4228 C 404.619 -3.35146 -2.60533 0
M  V30 4229 C 402.526 -5.5953 -1.91521 0
M  V30 4230 H 401.456 -0.646794 -0.387522 0
M  V30 4231 H 404.107 -1.81278 -0.284718 0
M  V30 4232 H 402.489 -2.93289 -2.66078 0
M  V30 4233 H 403.663 -4.5958 -0.335117 0
M  V30 4234 H 401.978 -4.13847 -0.460384 0
M  V30 4235 H 404.575 -4.2541 -3.23929 0
M  V30 4236 H 404.918 -2.54255 -3.29636 0
M  V30 4237 H 405.451 -3.49902 -1.89244 0
M  V30 4238 H 402.19 -6.43103 -1.26878 0
M  V30 4239 H 401.71 -5.39096 -2.62937 0
M  V30 4240 H 403.389 -5.96982 -2.49442 0
M  V30 4241 N 403.521 0.559213 -1.47345 0
M  V30 4242 C 404.746 1.34676 -1.57725 0
M  V30 4243 C 405.171 1.86723 -0.227164 0
M  V30 4244 O 404.529 1.6286 0.796642 0
M  V30 4245 C 404.577 2.49399 -2.60447 0
M  V30 4246 O 403.681 3.51567 -2.15578 0
M  V30 4247 H 403.022 0.400115 -0.52991 0
M  V30 4248 H 405.552 0.676009 -1.93109 0
M  V30 4249 H 405.562 2.95996 -2.80803 0
M  V30 4250 H 404.237 2.10873 -3.58477 0
M  V30 4251 H 402.814 3.11289 -2.05313 0
M  V30 4252 N 404.999 1.35443 0.805782 0
M  V30 4253 C 406.248 1.28097 1.55801 0
M  V30 4254 C 406.561 -0.142428 1.95081 0
M  V30 4255 O 407.767 -0.33817 2.69386 0
M  V30 4256 C 406.223 2.24653 2.81174 0
M  V30 4257 C 405.831 3.72342 2.49129 0
M  V30 4258 C 407.575 2.2625 3.59181 0
M  V30 4259 C 405.482 4.60719 3.70799 0
M  V30 4260 H 404.412 0.475937 0.584808 0
M  V30 4261 H 407.063 1.60712 0.885661 0
M  V30 4262 H 405.445 1.85011 3.50124 0
M  V30 4263 H 406.619 4.20624 1.88181 0
M  V30 4264 H 404.934 3.73361 1.84366 0
M  V30 4265 H 407.531 2.89495 4.49552 0
M  V30 4266 H 407.874 1.26647 3.96568 0
M  V30 4267 H 408.407 2.64426 2.97193 0
M  V30 4268 H 405.146 5.61324 3.3852 0
M  V30 4269 H 404.666 4.17163 4.3097 0
M  V30 4270 H 406.345 4.76182 4.38018 0
M  V30 4271 N 406.477 -1.02803 1.19454 0
M  V30 4272 C 407.754 -1.73299 0.907013 0
M  V30 4273 C 408.134 -2.02772 -0.587086 0
M  V30 4274 O 407.482 -1.68304 -1.54551 0
M  V30 4275 C 407.692 -3.00912 1.76785 0
M  V30 4276 C 409.04 -3.74403 2.00268 0
M  V30 4277 O 410.064 -3.10841 1.73943 0
M  V30 4278 O 408.923 -4.88675 2.4466 0
M  V30 4279 H 406.017 -0.754727 0.338106 0
M  V30 4280 H 408.563 -1.08754 1.30271 0
M  V30 4281 H 407.335 -2.75366 2.7801 0
M  V30 4282 H 406.958 -3.73197 1.37149 0
M  V30 4283 N 407.956 -0.998596 -1.21925 0
M  V30 4284 C 409.184 -0.696286 -1.94832 0
M  V30 4285 C 409.599 0.740032 -1.73692 0
M  V30 4286 O 408.956 1.5 -1.03953 0
M  V30 4287 C 409.007 -0.999833 -3.47398 0
M  V30 4288 O 408.728 -2.37972 -3.67833 0
M  V30 4289 C 410.229 -0.716025 -4.37479 0
M  V30 4290 H 407.449 -0.257111 -0.619786 0
M  V30 4291 H 409.993 -1.33491 -1.54921 0
M  V30 4292 H 408.148 -0.406918 -3.85257 0
M  V30 4293 H 408.562 -2.48338 -4.61983 0
M  V30 4294 H 410.036 -0.978642 -5.43256 0
M  V30 4295 H 410.513 0.349968 -4.37803 0
M  V30 4296 H 411.119 -1.29025 -4.05256 0
M  V30 4297 N 409.434 1.37368 -0.772513 0
M  V30 4298 C 410.659 2.0447 -0.347386 0
M  V30 4299 C 411.084 1.57882 1.0225 0
M  V30 4300 O 410.442 0.73941 1.65537 0
M  V30 4301 C 410.49 3.58369 -0.400479 0
M  V30 4302 O 409.594 4.0803 0.598789 0
M  V30 4303 H 408.935 0.646773 -0.15027 0
M  V30 4304 H 411.465 1.75667 -1.04892 0
M  V30 4305 H 411.475 4.07183 -0.258045 0
M  V30 4306 H 410.15 3.91633 -1.39986 0
M  V30 4307 H 408.727 3.70534 0.419411 0
M  V30 4308 N 410.912 0.523116 1.48665 0
M  V30 4309 C 412.137 -0.0117284 2.07397 0
M  V30 4310 C 412.562 -1.28031 1.37803 0
M  V30 4311 O 411.92 -1.75836 0.441762 0
M  V30 4312 C 411.968 -0.225786 3.59892 0
M  V30 4313 O 411.072 -1.29592 3.91509 0
M  V30 4314 H 410.413 0.0360673 0.66302 0
M  V30 4315 H 412.943 0.729066 1.9117 0
M  V30 4316 H 412.953 -0.450552 4.05505 0
M  V30 4317 H 411.628 0.700944 4.09951 0
M  V30 4318 H 410.205 -1.05436 3.57684 0
M  V30 4319 N 412.39 -1.55475 0.257931 0
M  V30 4320 C 413.32 -2.24815 -0.630912 0
M  V30 4321 C 414.301 -1.23224 -1.17259 0
M  V30 4322 O 415.486 -1.51904 -1.20991 0
M  V30 4323 C 412.616 -2.95609 -1.82298 0
M  V30 4324 C 411.57 -4.03982 -1.41359 0
M  V30 4325 C 410.896 -4.6226 -2.68738 0
M  V30 4326 C 412.196 -5.19109 -0.57648 0
M  V30 4327 H 413.89 -2.99354 -0.0526878 0
M  V30 4328 H 411.436 -1.4398 -0.023901 0
M  V30 4329 H 413.389 -3.42822 -2.45054 0
M  V30 4330 H 412.113 -2.18577 -2.42676 0
M  V30 4331 H 410.772 -3.57555 -0.809324 0
M  V30 4332 H 410.42 -3.81915 -3.27338 0
M  V30 4333 H 410.12 -5.35424 -2.42065 0
M  V30 4334 H 411.644 -5.12212 -3.32372 0
M  V30 4335 H 413.058 -5.62479 -1.10861 0
M  V30 4336 H 411.455 -5.98729 -0.405351 0
M  V30 4337 H 412.525 -4.83174 0.408776 0
M  V30 4338 N 413.868 0.0150385 -1.57593 0
M  V30 4339 C 415.284 0.370907 -1.5523 0
M  V30 4340 C 415.484 1.75735 -0.985882 0
M  V30 4341 O 414.54 2.44944 -0.613077 0
M  V30 4342 C 415.853 0.259908 -2.99575 0
M  V30 4343 C 417.401 0.335959 -3.11192 0
M  V30 4344 C 417.876 0.254253 -4.57294 0
M  V30 4345 N 419.367 0.312618 -4.62144 0
M  V30 4346 C 420.102 0.272505 -5.72752 0
M  V30 4347 N 419.598 0.183864 -6.92556 0
M  V30 4348 N 421.391 0.323267 -5.6117 0
M  V30 4349 H 413.542 -0.892104 -1.92757 0
M  V30 4350 H 415.805 -0.340563 -0.884715 0
M  V30 4351 H 415.511 -0.693403 -3.44797 0
M  V30 4352 H 415.385 1.048 -3.62349 0
M  V30 4353 H 417.772 1.27971 -2.65909 0
M  V30 4354 H 417.853 -0.481739 -2.51223 0
M  V30 4355 H 417.497 -0.685887 -5.03247 0
M  V30 4356 H 417.427 1.09024 -5.15191 0
M  V30 4357 H 419.918 0.38307 -3.75953 0
M  V30 4358 H 420.231 0.15874 -7.72637 0
M  V30 4359 H 418.576 0.149708 -6.94839 0
M  V30 4360 H 421.767 0.390607 -4.66467 0
M  V30 4361 H 421.94 0.288539 -6.47357 0
M  V30 4362 N 415.346 1.54954 0.287554 0
M  V30 4363 C 416.309 1.86076 1.33823 0
M  V30 4364 C 417.309 0.734414 1.43049 0
M  V30 4365 O 418.499 1.00266 1.42452 0
M  V30 4366 C 415.631 2.05305 2.72144 0
M  V30 4367 H 416.824 2.79984 1.07465 0
M  V30 4368 H 414.377 1.47223 0.524902 0
M  V30 4369 H 415.112 1.1373 3.03704 0
M  V30 4370 H 414.897 2.873 2.66836 0
M  V30 4371 H 416.387 2.30706 3.48087 0
M  V30 4372 N 416.824 -0.551391 1.4764 0
M  V30 4373 C 417.787 -1.64007 1.60107 0
M  V30 4374 C 418.787 -1.53601 0.47576 0
M  V30 4375 O 419.977 -1.57655 0.740988 0
M  V30 4376 C 417.109 -3.03569 1.55108 0
M  V30 4377 H 418.302 -1.543 2.57161 0
M  V30 4378 H 415.855 -0.771776 1.35917 0
M  V30 4379 H 416.59 -3.18804 0.594519 0
M  V30 4380 H 416.375 -3.12532 2.36783 0
M  V30 4381 H 417.865 -3.82762 1.66982 0
M  V30 4382 N 418.302 -1.35869 -0.798587 0
M  V30 4383 C 419.55 -1.29332 -1.55298 0
M  V30 4384 C 419.871 0.129729 -1.94568 0
M  V30 4385 O 419.141 1.06796 -1.6423 0
M  V30 4386 H 417.721 -0.475737 -0.57592 0
M  V30 4387 H 420.383 -1.70062 -0.952093 0
M  V30 4388 H 419.479 -1.91458 -2.46476 0
M  V30 4389 N 419.78 1.02168 -1.19998 0
M  V30 4390 C 421.196 1.27969 -0.953737 0
M  V30 4391 C 421.396 1.98079 0.369703 0
M  V30 4392 O 420.452 2.27306 1.09947 0
M  V30 4393 C 421.765 2.11971 -2.13281 0
M  V30 4394 C 423.313 2.25255 -2.17323 0
M  V30 4395 C 423.788 3.12632 -3.34702 0
M  V30 4396 N 425.279 3.2022 -3.34684 0
M  V30 4397 C 426.014 3.88039 -4.22153 0
M  V30 4398 N 425.51 4.58027 -5.19791 0
M  V30 4399 N 427.303 3.84511 -4.10009 0
M  V30 4400 H 419.454 0.550794 -2.05134 0
M  V30 4401 H 421.717 0.305683 -0.897364 0
M  V30 4402 H 421.423 1.67785 -3.09097 0
M  V30 4403 H 421.297 3.12699 -2.10949 0
M  V30 4404 H 423.684 2.68667 -1.22073 0
M  V30 4405 H 423.765 1.24053 -2.23706 0
M  V30 4406 H 423.409 2.69926 -4.30235 0
M  V30 4407 H 423.339 4.13909 -3.25556 0
M  V30 4408 H 425.83 2.70382 -2.64012 0
M  V30 4409 H 426.143 5.07429 -5.82868 0
M  V30 4410 H 424.488 4.56869 -5.23733 0
M  V30 4411 H 427.679 3.28978 -3.33003 0
M  V30 4412 H 427.852 4.3709 -4.78389 0
M  V30 4413 N 421.258 1.00505 1.21394 0
M  V30 4414 C 422.486 0.706609 1.9446 0
M  V30 4415 C 422.901 -0.73081 1.74082 0
M  V30 4416 O 422.258 -1.49446 1.04747 0
M  V30 4417 C 422.309 1.01824 3.46863 0
M  V30 4418 O 422.03 2.39919 3.66566 0
M  V30 4419 C 423.531 0.739216 4.37093 0
M  V30 4420 H 420.751 0.260394 0.618414 0
M  V30 4421 H 423.295 1.34311 1.54211 0
M  V30 4422 H 421.45 0.427343 3.85036 0
M  V30 4423 H 421.864 2.50784 4.6066 0
M  V30 4424 H 423.338 1.00744 5.42729 0
M  V30 4425 H 423.815 -0.326746 4.37983 0
M  V30 4426 H 424.421 1.31173 4.04566 0
M  V30 4427 N 422.737 -1.36956 0.779787 0
M  V30 4428 C 423.985 -1.99097 0.347079 0
M  V30 4429 C 424.306 -1.62206 -1.08232 0
M  V30 4430 O 423.576 -0.891373 -1.74446 0
M  V30 4431 H 422.156 -0.736409 0.125342 0
M  V30 4432 H 424.818 -1.67308 0.999696 0
M  V30 4433 H 423.914 -3.09107 0.431162 0
M  V30 4434 N 424.215 -0.530993 -1.48385 0
M  V30 4435 C 425.461 -0.00538653 -2.03399 0
M  V30 4436 C 425.816 1.31899 -1.40073 0
M  V30 4437 O 425.109 1.83901 -0.537676 0
M  V30 4438 C 425.303 0.172742 -3.56982 0
M  V30 4439 C 425.132 -1.13282 -4.35198 0
M  V30 4440 C 423.902 -1.69296 -4.76096 0
M  V30 4441 C 426.1 -2.04367 -4.71952 0
M  V30 4442 N 424.082 -2.9413 -5.38851 0
M  V30 4443 C 425.453 -3.13777 -5.34737 0
M  V30 4444 C 427.508 -2.04681 -4.53883 0
M  V30 4445 C 426.211 -4.23567 -5.81363 0
M  V30 4446 C 428.237 -3.13466 -5.01491 0
M  V30 4447 C 427.599 -4.21595 -5.64302 0
M  V30 4448 H 423.698 -0.0434945 -0.780789 0
M  V30 4449 H 426.282 -0.712495 -1.81195 0
M  V30 4450 H 424.453 0.848937 -3.79009 0
M  V30 4451 H 426.185 0.698046 -3.98634 0
M  V30 4452 H 422.94 -1.23422 -4.57235 0
M  V30 4453 H 423.364 -3.57689 -5.74794 0
M  V30 4454 H 428.006 -1.22378 -4.04702 0
M  V30 4455 H 425.724 -5.06648 -6.2955 0
M  V30 4456 H 429.31 -3.14765 -4.893 0
M  V30 4457 H 428.19 -5.04384 -6.00472 0
M  V30 4458 N 425.693 1.55336 -0.266172 0
M  V30 4459 C 426.603 2.2583 0.635458 0
M  V30 4460 C 427.619 1.28106 1.17749 0
M  V30 4461 O 428.795 1.61024 1.20968 0
M  V30 4462 C 425.86 2.95879 1.80712 0
M  V30 4463 C 424.921 4.09059 1.30265 0
M  V30 4464 C 424.154 4.75759 2.41846 0
M  V30 4465 O 424.377 4.41622 3.61007 0
M  V30 4466 O 423.311 5.63888 2.1051 0
M  V30 4467 H 427.137 3.03631 0.0646693 0
M  V30 4468 H 424.722 1.49361 -0.0339177 0
M  V30 4469 H 426.604 3.39932 2.49047 0
M  V30 4470 H 425.279 2.21002 2.36516 0
M  V30 4471 H 424.186 3.69482 0.586019 0
M  V30 4472 H 425.519 4.85811 0.790458 0
M  V30 4473 N 427.171 -0.0066808 1.57599 0
M  V30 4474 C 428.448 -0.729586 1.81484 0
M  V30 4475 C 428.828 -1.92359 0.869558 0
M  V30 4476 O 428.176 -2.28348 -0.0832533 0
M  V30 4477 C 428.386 -1.1416 3.29801 0
M  V30 4478 C 429.734 -1.54823 3.95367 0
M  V30 4479 O 430.758 -1.23558 3.34084 0
M  V30 4480 O 429.617 -2.12937 5.03309 0
M  V30 4481 H 426.711 -0.354674 0.747085 0
M  V30 4482 H 429.257 0.0182609 1.6969 0
M  V30 4483 H 428.029 -0.290231 3.90222 0
M  V30 4484 H 427.652 -1.94876 3.46568 0
M  V30 4485 N 428.649 -1.55105 -0.279332 0
M  V30 4486 C 429.579 -1.90557 -1.34945 0
M  V30 4487 C 430.56 -0.766738 -1.51839 0
M  V30 4488 O 431.745 -1.02434 -1.64988 0
M  V30 4489 C 428.875 -2.17193 -2.71006 0
M  V30 4490 C 427.829 -3.33021 -2.68851 0
M  V30 4491 C 427.155 -3.45123 -4.08405 0
M  V30 4492 C 428.455 -4.69578 -2.28678 0
M  V30 4493 H 430.149 -2.80188 -1.05522 0
M  V30 4494 H 427.695 -1.34811 -0.506173 0
M  V30 4495 H 429.648 -2.40581 -3.45975 0
M  V30 4496 H 428.372 -1.24355 -3.01999 0
M  V30 4497 H 427.031 -3.0959 -1.9634 0
M  V30 4498 H 426.679 -2.49762 -4.3661 0
M  V30 4499 H 426.379 -4.22995 -4.07859 0
M  V30 4500 H 427.903 -3.70796 -4.85121 0
M  V30 4501 H 429.317 -4.92553 -2.93368 0
M  V30 4502 H 427.714 -5.5032 -2.39306 0
M  V30 4503 H 428.784 -4.68828 -1.23807 0
M  V30 4504 N 430.127 0.543554 -1.4793 0
M  V30 4505 C 431.373 1.30201 -1.55485 0
M  V30 4506 C 431.706 1.92925 -0.222201 0
M  V30 4507 O 430.981 1.78586 0.77053 0
M  V30 4508 C 431.264 2.40174 -2.68307 0
M  V30 4509 C 431.117 1.8223 -4.11233 0
M  V30 4510 C 432.436 3.42024 -2.76961 0
M  V30 4511 H 429.555 0.472036 -0.565996 0
M  V30 4512 H 432.197 0.606914 -1.80046 0
M  V30 4513 H 430.347 2.99463 -2.47495 0
M  V30 4514 H 432.019 1.27096 -4.43446 0
M  V30 4515 H 430.262 1.12832 -4.18869 0
M  V30 4516 H 430.933 2.61793 -4.85972 0
M  V30 4517 H 433.409 2.92672 -2.95774 0
M  V30 4518 H 432.285 4.16383 -3.57654 0
M  V30 4519 H 432.546 4.0173 -1.84568 0
M  V30 4520 N 431.605 1.3629 0.791371 0
M  V30 4521 C 433.021 1.16661 1.08914 0
M  V30 4522 C 433.221 -0.0106266 2.01497 0
M  V30 4523 O 432.277 -0.676596 2.43266 0
M  V30 4524 C 433.59 2.47656 1.70549 0
M  V30 4525 C 435.138 2.54002 1.82899 0
M  V30 4526 C 435.613 3.85078 2.47949 0
M  V30 4527 N 437.104 3.86413 2.5542 0
M  V30 4528 C 437.839 4.84572 3.06557 0
M  V30 4529 N 437.335 5.93124 3.58016 0
M  V30 4530 N 439.128 4.71994 3.05251 0
M  V30 4531 H 431.279 2.11668 0.176238 0
M  V30 4532 H 433.542 0.937486 0.140796 0
M  V30 4533 H 433.248 3.34059 1.09989 0
M  V30 4534 H 433.122 2.63319 2.70079 0
M  V30 4535 H 435.509 1.68018 2.42598 0
M  V30 4536 H 435.59 2.42239 0.821808 0
M  V30 4537 H 435.234 4.71467 1.88895 0
M  V30 4538 H 435.164 3.94135 3.49235 0
M  V30 4539 H 437.655 3.07988 2.18979 0
M  V30 4540 H 437.968 6.63999 3.95381 0
M  V30 4541 H 436.313 5.96796 3.56173 0
M  V30 4542 H 439.504 3.86321 2.64336 0
M  V30 4543 H 439.677 5.48653 3.44796 0
M  V30 4544 N 433.083 -1.0153 1.20538 0
M  V30 4545 C 434.03 -2.10098 0.955383 0
M  V30 4546 C 435 -1.65702 -0.114878 0
M  V30 4547 O 436.185 -1.90776 0.0301118 0
M  V30 4548 C 433.325 -3.41236 0.514969 0
M  V30 4549 C 432.438 -3.99102 1.65353 0
M  V30 4550 C 431.573 -5.18306 1.16329 0
M  V30 4551 C 430.612 -5.68258 2.27485 0
M  V30 4552 N 429.749 -6.78722 1.7967 0
M  V30 4553 H 434.589 -2.30818 1.88486 0
M  V30 4554 H 432.126 -1.13189 0.939499 0
M  V30 4555 H 434.084 -4.16504 0.240935 0
M  V30 4556 H 432.714 -3.20585 -0.377512 0
M  V30 4557 H 431.766 -3.20918 2.04245 0
M  V30 4558 H 433.078 -4.32177 2.49047 0
M  V30 4559 H 432.232 -6.00782 0.845302 0
M  V30 4560 H 430.971 -4.86799 0.296254 0
M  V30 4561 H 429.976 -4.84385 2.60099 0
M  V30 4562 H 431.201 -6.01798 3.14667 0
M  V30 4563 H 429.147 -6.49042 0.95295 0
M  V30 4564 H 429.064 -7.10996 2.56944 0
M  V30 4565 H 430.332 -7.64759 1.50875 0
M  V30 4566 N 434.561 -1.01147 -1.20859 0
M  V30 4567 C 435.801 -0.706331 -1.91808 0
M  V30 4568 C 436.165 0.749736 -1.76757 0
M  V30 4569 O 437.366 1.16716 -2.42138 0
M  V30 4570 C 435.637 -1.12371 -3.39275 0
M  V30 4571 S 437.196 -0.939764 -4.28619 0
M  V30 4572 H 434.014 -0.257665 -0.662669 0
M  V30 4573 H 436.616 -1.29766 -1.46223 0
M  V30 4574 H 435.32 -2.17943 -3.47749 0
M  V30 4575 H 434.851 -0.524952 -3.89882 0
M  V30 4576 H 436.866 0.159556 -4.95943 0
M  V30 4577 N 436.039 1.36541 -0.78704 0
M  V30 4578 C 437.288 1.98552 -0.35494 0
M  V30 4579 C 437.601 1.63171 1.07864 0
M  V30 4580 O 438.807 2.18399 1.61289 0
M  V30 4581 C 437.263 3.55136 -0.583671 0
M  V30 4582 C 436.871 3.99444 -2.02851 0
M  V30 4583 C 438.615 4.2395 -0.215957 0
M  V30 4584 C 436.522 5.48796 -2.20403 0
M  V30 4585 H 435.452 0.742888 -0.128972 0
M  V30 4586 H 438.103 1.5587 -0.968337 0
M  V30 4587 H 436.485 3.95875 0.0994046 0
M  V30 4588 H 437.659 3.6991 -2.74779 0
M  V30 4589 H 435.974 3.43459 -2.35425 0
M  V30 4590 H 438.571 5.33709 -0.325405 0
M  V30 4591 H 438.914 4.07827 0.835646 0
M  V30 4592 H 439.447 3.88565 -0.852175 0
M  V30 4593 H 436.186 5.69864 -3.23937 0
M  V30 4594 H 435.706 5.79964 -1.52977 0
M  V30 4595 H 437.385 6.14986 -2.01002 0
M  V30 4596 N 437.518 0.538854 1.48102 0
M  V30 4597 C 438.748 0.0122958 2.06596 0
M  V30 4598 C 439.156 -1.27861 1.39457 0
M  V30 4599 O 438.499 -1.77348 0.478907 0
M  V30 4600 C 438.561 -0.273131 3.58461 0
M  V30 4601 C 438.225 0.92561 4.47528 0
M  V30 4602 C 439.222 1.82637 4.86765 0
M  V30 4603 C 436.907 1.13511 4.89306 0
M  V30 4604 C 438.901 2.92047 5.66558 0
M  V30 4605 C 436.588 2.23233 5.68868 0
M  V30 4606 C 437.586 3.12333 6.07402 0
M  V30 4607 O 437.274 4.20155 6.85365 0
M  V30 4608 H 437.006 0.0344283 0.675123 0
M  V30 4609 H 439.56 0.746494 1.91355 0
M  V30 4610 H 437.79 -1.06141 3.71848 0
M  V30 4611 H 439.479 -0.742842 3.99045 0
M  V30 4612 H 440.245 1.67649 4.55103 0
M  V30 4613 H 436.124 0.450835 4.5879 0
M  V30 4614 H 439.668 3.6162 5.96554 0
M  V30 4615 H 435.565 2.38201 5.99942 0
M  V30 4616 H 436.333 4.17975 7.03732 0
M  V30 4617 N 438.996 -1.55193 0.274407 0
M  V30 4618 C 439.959 -2.212 -0.600279 0
M  V30 4619 C 440.959 -1.18963 -1.08187 0
M  V30 4620 O 442.149 -1.43873 -0.982158 0
M  V30 4621 C 439.281 -2.87739 -1.82809 0
M  V30 4622 H 440.474 -2.9989 -0.0239682 0
M  V30 4623 H 438.027 -1.5628 0.0250192 0
M  V30 4624 H 438.762 -2.13058 -2.44493 0
M  V30 4625 H 438.547 -3.62658 -1.49069 0
M  V30 4626 H 440.037 -3.38171 -2.45011 0
M  V30 4627 N 440.474 -0.00167713 -1.576 0
M  V30 4628 C 441.721 0.68282 -1.90641 0
M  V30 4629 C 442.049 1.73686 -0.875415 0
M  V30 4630 O 441.304 1.95334 0.119575 0
M  V30 4631 C 441.603 1.36189 -3.30435 0
M  V30 4632 C 441.269 0.440887 -4.48739 0
M  V30 4633 C 439.931 0.187312 -4.80835 0
M  V30 4634 C 442.283 -0.193134 -5.20842 0
M  V30 4635 C 439.611 -0.70855 -5.82406 0
M  V30 4636 C 441.963 -1.07688 -6.23367 0
M  V30 4637 C 440.627 -1.33962 -6.53919 0
M  V30 4638 H 439.897 0.249862 -0.697603 0
M  V30 4639 H 442.544 -0.0575642 -1.91413 0
M  V30 4640 H 440.849 2.17636 -3.25794 0
M  V30 4641 H 442.546 1.89759 -3.5326 0
M  V30 4642 H 439.136 0.648694 -4.23663 0
M  V30 4643 H 443.32 -0.0102445 -4.96299 0
M  V30 4644 H 438.576 -0.920097 -6.04437 0
M  V30 4645 H 442.75 -1.57451 -6.78367 0
M  V30 4646 H 440.377 -2.03549 -7.32442 0
M  V30 4647 N 441.952 1.55251 0.271103 0
M  V30 4648 C 443.199 1.75946 1.00245 0
M  V30 4649 C 443.527 0.561611 1.86215 0
M  V30 4650 O 442.782 -0.455832 1.90317 0
M  V30 4651 C 443.081 3.01879 1.91321 0
M  V30 4652 C 442.747 4.34337 1.21086 0
M  V30 4653 C 441.409 4.70338 1.01666 0
M  V30 4654 C 443.761 5.16325 0.71119 0
M  V30 4655 C 441.089 5.8588 0.310099 0
M  V30 4656 C 443.441 6.32597 0.0182157 0
M  V30 4657 C 442.105 6.67236 -0.18768 0
M  V30 4658 H 441.375 0.643833 0.366824 0
M  V30 4659 H 444.022 1.89521 0.27458 0
M  V30 4660 H 442.327 2.83212 2.70736 0
M  V30 4661 H 444.024 3.15088 2.48033 0
M  V30 4662 H 440.614 4.06043 1.37213 0
M  V30 4663 H 444.798 4.88987 0.848844 0
M  V30 4664 H 440.054 6.1124 0.139873 0
M  V30 4665 H 444.228 6.9538 -0.376711 0
M  V30 4666 H 441.855 7.56618 -0.73715 0
M  V30 4667 N 443.43 -0.535701 1.48216 0
M  V30 4668 C 444.362 -1.65662 1.58394 0
M  V30 4669 C 445.375 -1.5591 0.468607 0
M  V30 4670 O 446.564 -1.62475 0.7392 0
M  V30 4671 C 443.664 -3.04276 1.4923 0
M  V30 4672 C 442.837 -3.39567 2.75705 0
M  V30 4673 C 441.896 -4.57436 2.60075 0
M  V30 4674 O 440.922 -4.60942 3.33948 0
M  V30 4675 N 442.124 -5.55259 1.69315 0
M  V30 4676 H 444.889 -1.5737 2.55058 0
M  V30 4677 H 442.45 -0.722845 1.44867 0
M  V30 4678 H 444.442 -3.80994 1.36477 0
M  V30 4679 H 443.012 -3.06677 0.605632 0
M  V30 4680 H 442.232 -2.52083 3.03064 0
M  V30 4681 H 443.52 -3.59929 3.59623 0
M  V30 4682 H 442.918 -5.552 1.08489 0
M  V30 4683 H 441.475 -6.31218 1.62504 0
M  V30 4684 N 444.908 -1.36708 -0.784132 0
M  V30 4685 C 446.319 -1.27947 -1.35965 0
M  V30 4686 C 446.67 0.0784013 -1.96043 0
M  V30 4687 O 445.795 0.979989 -1.92938 0
M  V30 4688 C 446.39 -2.31689 -2.47195 0
M  V30 4689 C 444.949 -2.26601 -3.00548 0
M  V30 4690 C 444.096 -2.16184 -1.73666 0
M  V30 4691 H 447.047 -1.4751 -0.585358 0
M  V30 4692 H 447.068 -1.95638 -3.26352 0
M  V30 4693 H 446.58 -3.30506 -2.03439 0
M  V30 4694 H 444.681 -1.31268 -3.48711 0
M  V30 4695 H 444.794 -3.19508 -3.57004 0
M  V30 4696 H 443.158 -1.62524 -1.96107 0
M  V30 4697 H 443.941 -3.16896 -1.32031 0
M  V30 4698 N 446.386 1.0089 -1.21074 0
M  V30 4699 C 447.318 2.09737 -0.924291 0
M  V30 4700 C 448.331 1.62546 0.0909809 0
M  V30 4701 O 449.52 1.77942 -0.141021 0
M  V30 4702 C 446.62 3.36922 -0.36559 0
M  V30 4703 C 445.793 4.13216 -1.43426 0
M  V30 4704 C 444.852 5.18696 -0.885496 0
M  V30 4705 O 443.878 5.47176 -1.56801 0
M  V30 4706 N 445.08 5.79718 0.301227 0
M  V30 4707 H 447.845 2.34895 -1.8613 0
M  V30 4708 H 445.406 1.17341 -1.11546 0
M  V30 4709 H 447.398 4.04697 0.0158407 0
M  V30 4710 H 445.968 3.08952 0.476149 0
M  V30 4711 H 445.188 3.40301 -1.9897 0
M  V30 4712 H 446.476 4.60967 -2.15376 0
M  V30 4713 H 445.874 5.58926 0.872849 0
M  V30 4714 H 444.431 6.48804 0.624211 0
M  V30 4715 N 447.864 1.01787 1.20321 0
M  V30 4716 C 449.112 0.706538 1.89347 0
M  V30 4717 C 449.433 -0.766289 1.79313 0
M  V30 4718 O 448.703 -1.55126 1.19635 0
M  V30 4719 H 447.283 0.258348 0.700903 0
M  V30 4720 H 449.945 1.28974 1.46122 0
M  V30 4721 H 449.041 0.991066 2.95946 0
M  V30 4722 N 449.342 -1.36122 0.79427 0
M  V30 4723 C 450.758 -1.5232 0.476525 0
M  V30 4724 C 450.958 -1.74685 -1.00436 0
M  V30 4725 O 450.014 -1.78115 -1.78973 0
M  V30 4726 C 451.327 -2.70607 1.31119 0
M  V30 4727 C 452.875 -2.8448 1.30537 0
M  V30 4728 C 453.35 -4.05778 2.12387 0
M  V30 4729 N 454.841 -4.12933 2.09859 0
M  V30 4730 C 455.576 -5.05876 2.69957 0
M  V30 4731 N 455.072 -6.04232 3.38934 0
M  V30 4732 N 456.865 -4.98528 2.59665 0
M  V30 4733 H 449.016 -1.1986 1.75349 0
M  V30 4734 H 451.279 -0.585418 0.745647 0
M  V30 4735 H 450.985 -2.60619 2.36158 0
M  V30 4736 H 450.859 -3.64888 0.955843 0
M  V30 4737 H 453.246 -2.93927 0.262876 0
M  V30 4738 H 453.327 -1.91093 1.70051 0
M  V30 4739 H 452.971 -3.97092 3.1667 0
M  V30 4740 H 452.901 -4.98323 1.70242 0
M  V30 4741 H 455.392 -3.42515 1.59662 0
M  V30 4742 H 455.705 -6.71724 3.82109 0
M  V30 4743 H 454.05 -6.04443 3.43036 0
M  V30 4744 H 457.241 -4.20641 2.05375 0
M  V30 4745 H 457.414 -5.70773 3.06793 0
M  V30 4746 N 450.82 -0.546701 -1.47814 0
M  V30 4747 C 451.73 0.21026 -2.33656 0
M  V30 4748 C 452.746 0.922413 -1.47538 0
M  V30 4749 O 453.922 0.893652 -1.80488 0
M  V30 4750 C 450.987 1.23348 -3.24016 0
M  V30 4751 C 450.048 0.529883 -4.26017 0
M  V30 4752 C 449.281 1.50435 -5.12059 0
M  V30 4753 O 449.504 2.73837 -5.00369 0
M  V30 4754 O 448.438 1.03459 -5.92942 0
M  V30 4755 H 452.264 -0.493605 -2.99662 0
M  V30 4756 H 449.849 -0.307427 -1.46203 0
M  V30 4757 H 451.731 1.82438 -3.79861 0
M  V30 4758 H 450.406 1.91945 -2.60651 0
M  V30 4759 H 449.313 -0.101948 -3.73961 0
M  V30 4760 H 450.646 -0.11445 -4.92067 0
M  V30 4761 N 452.299 1.55045 -0.282633 0
M  V30 4762 C 453.71 1.85473 0.213655 0
M  V30 4763 C 454.061 1.20465 1.54863 0
M  V30 4764 O 453.186 0.495676 2.10647 0
M  V30 4765 C 453.781 3.36496 0.394445 0
M  V30 4766 C 452.34 3.67022 0.834961 0
M  V30 4767 C 451.487 2.77218 -0.0674081 0
M  V30 4768 H 454.438 1.50478 -0.504202 0
M  V30 4769 H 454.459 3.60007 1.23186 0
M  V30 4770 H 453.971 3.83782 -0.577326 0
M  V30 4771 H 452.072 3.25241 1.81794 0
M  V30 4772 H 452.185 4.74433 0.667075 0
M  V30 4773 H 450.549 2.5069 0.450196 0
M  V30 4774 H 451.332 3.2732 -1.0352 0
M  V30 4775 N 453.777 0.010035 1.57597 0
M  V30 4776 C 455.002 -0.687021 1.95691 0
M  V30 4777 C 455.427 -1.65952 0.885519 0
M  V30 4778 O 454.785 -1.80633 -0.15543 0
M  V30 4779 C 454.833 -1.3864 3.32884 0
M  V30 4780 O 453.937 -2.50115 3.27897 0
M  V30 4781 H 453.278 -0.181989 0.638573 0
M  V30 4782 H 455.808 0.0662122 2.04493 0
M  V30 4783 H 455.818 -1.74754 3.6868 0
M  V30 4784 H 454.493 -0.673411 4.10412 0
M  V30 4785 H 453.07 -2.16253 3.03791 0
M  V30 4786 N 455.255 -1.55392 -0.262866 0
M  V30 4787 C 456.485 -1.80251 -1.00961 0
M  V30 4788 C 456.893 -0.58117 -1.80053 0
M  V30 4789 O 456.236 0.459427 -1.77862 0
M  V30 4790 C 456.298 -2.98207 -2.00781 0
M  V30 4791 C 455.962 -4.34856 -1.40533 0
M  V30 4792 C 456.959 -5.13459 -0.815853 0
M  V30 4793 C 454.644 -4.8153 -1.42948 0
M  V30 4794 C 456.638 -6.36875 -0.258562 0
M  V30 4795 C 454.325 -6.04899 -0.868334 0
M  V30 4796 C 455.323 -6.8241 -0.283884 0
M  V30 4797 O 455.011 -8.03451 0.268644 0
M  V30 4798 H 454.743 -0.604049 -0.303482 0
M  V30 4799 H 457.297 -2.03257 -0.295926 0
M  V30 4800 H 455.527 -2.70917 -2.75936 0
M  V30 4801 H 457.216 -3.10299 -2.61667 0
M  V30 4802 H 457.982 -4.78526 -0.789812 0
M  V30 4803 H 453.861 -4.21201 -1.87378 0
M  V30 4804 H 457.405 -6.97318 0.198257 0
M  V30 4805 H 453.302 -6.39312 -0.891649 0
M  V30 4806 H 454.07 -8.18346 0.158974 0
M  V30 4807 N 456.733 0.527833 -1.48498 0
M  V30 4808 C 457.696 1.61439 -1.62696 0
M  V30 4809 C 458.696 1.52824 -0.500136 0
M  V30 4810 O 459.886 1.56456 -0.765976 0
M  V30 4811 C 457.018 3.01063 -1.59918 0
M  V30 4812 H 458.211 1.50189 -2.59583 0
M  V30 4813 H 455.764 0.750055 -1.37127 0
M  V30 4814 H 456.499 3.17818 -0.645163 0
M  V30 4815 H 456.284 3.08725 -2.41726 0
M  V30 4816 H 457.774 3.80057 -1.73051 0
M  V30 4817 N 458.211 1.37122 0.776871 0
M  V30 4818 C 459.627 1.1781 1.07671 0
M  V30 4819 C 459.827 0.0107454 2.01497 0
M  V30 4820 O 458.883 -0.650756 2.4397 0
M  V30 4821 C 460.196 2.49451 1.67913 0
M  V30 4822 C 461.744 2.55927 1.80195 0
M  V30 4823 C 462.219 3.87686 2.43851 0
M  V30 4824 N 463.71 3.891 2.51307 0
M  V30 4825 C 464.445 4.87797 3.014 0
M  V30 4826 N 463.941 5.96888 3.51705 0
M  V30 4827 N 465.734 4.75205 3.00227 0
M  V30 4828 H 457.885 2.11843 0.153778 0
M  V30 4829 H 460.148 0.938927 0.130844 0
M  V30 4830 H 459.854 3.35207 1.06439 0
M  V30 4831 H 459.728 2.66169 2.67271 0
M  V30 4832 H 462.115 1.70582 2.40803 0
M  V30 4833 H 462.196 2.43097 0.796069 0
M  V30 4834 H 461.84 4.73444 1.83884 0
M  V30 4835 H 461.77 3.97817 3.45035 0
M  V30 4836 H 464.261 3.10293 2.157 0
M  V30 4837 H 464.574 6.68155 3.88316 0
M  V30 4838 H 462.919 6.0054 3.49824 0
M  V30 4839 H 466.11 3.89103 2.60224 0
M  V30 4840 H 466.283 5.52279 3.38957 0
M  V30 4841 N 459.689 -1.00246 1.21608 0
M  V30 4842 C 460.621 -2.09244 0.935401 0
M  V30 4843 C 461.634 -1.62592 -0.0823594 0
M  V30 4844 O 462.823 -1.77865 0.150456 0
M  V30 4845 C 459.923 -3.36724 0.383453 0
M  V30 4846 C 459.096 -4.1245 1.45615 0
M  V30 4847 C 458.155 -5.18219 0.912991 0
M  V30 4848 O 457.181 -5.46337 1.59701 0
M  V30 4849 N 458.383 -5.7987 -0.270478 0
M  V30 4850 H 461.148 -2.33905 1.87373 0
M  V30 4851 H 458.709 -1.16748 1.12167 0
M  V30 4852 H 460.701 -4.047 0.00562157 0
M  V30 4853 H 459.271 -3.09201 -0.459758 0
M  V30 4854 H 458.491 -3.39241 2.00772 0
M  V30 4855 H 459.779 -4.59819 2.17817 0
M  V30 4856 H 459.177 -5.59381 -0.843195 0
M  V30 4857 H 457.734 -6.49126 -0.589794 0
M  V30 4858 N 461.167 -1.02423 -1.1978 0
M  V30 4859 C 462.097 -0.62157 -2.25075 0
M  V30 4860 C 463.078 0.367148 -1.6609 0
M  V30 4861 O 464.263 0.250892 -1.92573 0
M  V30 4862 C 461.393 0.0331826 -3.47284 0
M  V30 4863 C 460.347 -0.877323 -4.18912 0
M  V30 4864 C 459.673 -0.0879296 -5.34628 0
M  V30 4865 C 460.973 -2.18892 -4.74219 0
M  V30 4866 H 462.667 -1.50179 -2.59011 0
M  V30 4867 H 460.213 -0.723547 -1.24502 0
M  V30 4868 H 462.166 0.326488 -4.20133 0
M  V30 4869 H 460.89 0.948164 -3.12534 0
M  V30 4870 H 459.549 -1.15475 -3.47938 0
M  V30 4871 H 459.197 0.828941 -4.96123 0
M  V30 4872 H 458.897 -0.694359 -5.83483 0
M  V30 4873 H 460.421 0.198743 -6.10276 0
M  V30 4874 H 461.835 -1.95746 -5.38847 0
M  V30 4875 H 460.232 -2.74686 -5.33542 0
M  V30 4876 H 461.302 -2.84674 -3.92541 0
M  V30 4877 N 462.645 1.35699 -0.801477 0
M  V30 4878 C 463.892 1.98913 -0.379459 0
M  V30 4879 C 464.22 1.63592 1.05204 0
M  V30 4880 O 463.475 0.888563 1.74365 0
M  V30 4881 C 463.774 3.53828 -0.504041 0
M  V30 4882 C 463.44 4.09002 -1.8981 0
M  V30 4883 C 462.102 4.23783 -2.27951 0
M  V30 4884 C 464.454 4.38939 -2.81038 0
M  V30 4885 C 461.782 4.65816 -3.56696 0
M  V30 4886 C 464.134 4.82409 -4.09224 0
M  V30 4887 C 462.798 4.95395 -4.4737 0
M  V30 4888 H 462.068 0.727874 -0.138854 0
M  V30 4889 H 464.715 1.61994 -1.02128 0
M  V30 4890 H 463.02 3.91175 0.221242 0
M  V30 4891 H 464.717 4.00687 -0.158361 0
M  V30 4892 H 461.307 3.97946 -1.59176 0
M  V30 4893 H 465.491 4.27077 -2.52821 0
M  V30 4894 H 460.747 4.74059 -3.86106 0
M  V30 4895 H 464.921 5.04535 -4.80018 0
M  V30 4896 H 462.548 5.27724 -5.47185 0
M  V30 4897 N 464.123 0.554532 1.47522 0
M  V30 4898 C 465.055 -0.232106 2.28022 0
M  V30 4899 C 466.068 -0.881865 1.36847 0
M  V30 4900 O 467.257 -0.756168 1.61692 0
M  V30 4901 C 464.357 -1.34604 3.11022 0
M  V30 4902 C 463.53 -0.793582 4.30141 0
M  V30 4903 C 462.589 -1.79168 4.94758 0
M  V30 4904 O 461.615 -1.33886 5.5323 0
M  V30 4905 N 462.817 -3.12495 4.89211 0
M  V30 4906 H 465.582 0.458407 2.96173 0
M  V30 4907 H 463.143 0.390433 1.57122 0
M  V30 4908 H 465.135 -2.01243 3.51118 0
M  V30 4909 H 463.705 -1.93983 2.45131 0
M  V30 4910 H 462.925 0.0495025 3.94169 0
M  V30 4911 H 464.213 -0.403776 5.07195 0
M  V30 4912 H 463.611 -3.51931 4.42901 0
M  V30 4913 H 462.168 -3.74698 5.33333 0
M  V30 4914 N 465.601 -1.54893 0.290851 0
M  V30 4915 C 466.511 -2.26812 -0.59945 0
M  V30 4916 C 467.527 -1.29963 -1.15696 0
M  V30 4917 O 468.703 -1.62928 -1.18391 0
M  V30 4918 C 465.768 -2.98716 -1.75982 0
M  V30 4919 C 464.829 -4.1108 -1.2374 0
M  V30 4920 C 464.062 -4.79546 -2.34246 0
M  V30 4921 O 464.285 -4.47309 -3.53936 0
M  V30 4922 O 463.219 -5.67165 -2.01512 0
M  V30 4923 H 467.045 -3.03696 -0.0163561 0
M  V30 4924 H 464.63 -1.49289 0.0576755 0
M  V30 4925 H 466.512 -3.43851 -2.43607 0
M  V30 4926 H 465.187 -2.24737 -2.3297 0
M  V30 4927 H 464.094 -3.70367 -0.527163 0
M  V30 4928 H 465.427 -4.87007 -0.71307 0
M  V30 4929 N 467.08 -0.0183926 -1.57589 0
M  V30 4930 C 468.326 0.663543 -1.91638 0
M  V30 4931 C 468.659 1.72392 -0.894134 0
M  V30 4932 O 467.934 1.94316 0.0846449 0
M  V30 4933 C 468.217 1.28984 -3.36207 0
M  V30 4934 C 468.07 0.239761 -4.49161 0
M  V30 4935 C 469.389 2.2109 -3.80536 0
M  V30 4936 H 466.508 0.239746 -0.696915 0
M  V30 4937 H 469.15 -0.073456 -1.89858 0
M  V30 4938 H 467.3 1.91799 -3.37854 0
M  V30 4939 H 468.972 -0.390119 -4.59647 0
M  V30 4940 H 467.215 -0.435972 -4.31604 0
M  V30 4941 H 467.886 0.717383 -5.47319 0
M  V30 4942 H 470.362 1.68273 -3.80557 0
M  V30 4943 H 469.238 2.61869 -4.82406 0
M  V30 4944 H 469.499 3.09764 -3.15434 0
M  V30 4945 N 468.558 1.5553 0.254621 0
M  V30 4946 C 469.491 1.84624 1.34124 0
M  V30 4947 C 470.469 0.700693 1.46728 0
M  V30 4948 O 471.653 0.94564 1.63064 0
M  V30 4949 C 468.78 2.02412 2.71564 0
M  V30 4950 C 467.826 3.25028 2.7615 0
M  V30 4951 S 468.659 4.81893 2.33538 0
M  V30 4952 C 469.815 5.02677 3.72917 0
M  V30 4953 H 470.048 2.76501 1.09245 0
M  V30 4954 H 467.581 1.47537 0.455211 0
M  V30 4955 H 469.539 2.13345 3.50705 0
M  V30 4956 H 468.2 1.11391 2.93685 0
M  V30 4957 H 467.393 3.34418 3.77069 0
M  V30 4958 H 466.995 3.12781 2.05046 0
M  V30 4959 H 469.287 4.89546 4.68349 0
M  V30 4960 H 470.23 6.0468 3.68467 0
M  V30 4961 H 470.638 4.30561 3.65072 0
M  V30 4962 N 470.036 -0.519951 1.48776 0
M  V30 4963 C 471.264 -1.29971 1.60982 0
M  V30 4964 C 471.679 -1.86803 0.273885 0
M  V30 4965 O 471.036 -1.66904 -0.738193 0
M  V30 4966 C 471.087 -2.44346 2.66415 0
M  V30 4967 O 470.808 -1.89855 3.94825 0
M  V30 4968 C 472.309 -3.36014 2.89153 0
M  V30 4969 H 469.529 -0.394891 0.542496 0
M  V30 4970 H 472.073 -0.626214 1.94676 0
M  V30 4971 H 470.228 -3.07562 2.35552 0
M  V30 4972 H 470.642 -2.64798 4.5275 0
M  V30 4973 H 472.116 -4.12593 3.66703 0
M  V30 4974 H 472.593 -3.91859 1.98351 0
M  V30 4975 H 473.199 -2.78582 3.21359 0
M  V30 4976 N 471.514 -1.37532 -0.769588 0
M  V30 4977 C 472.93 -1.18379 -1.07045 0
M  V30 4978 C 473.13 -0.0214312 -2.01489 0
M  V30 4979 O 472.186 0.637809 -2.44312 0
M  V30 4980 C 473.499 -2.50338 -1.66588 0
M  V30 4981 C 475.047 -2.56879 -1.78835 0
M  V30 4982 C 475.522 -3.88974 -2.41792 0
M  V30 4983 N 477.013 -3.90428 -2.4924 0
M  V30 4984 C 477.748 -4.89388 -2.98809 0
M  V30 4985 N 477.244 -5.98745 -3.48535 0
M  V30 4986 N 479.037 -4.76791 -2.97703 0
M  V30 4987 H 471.188 -2.11921 -0.142541 0
M  V30 4988 H 473.451 -0.939608 -0.125863 0
M  V30 4989 H 473.157 -3.35767 -1.0466 0
M  V30 4990 H 473.031 -2.67583 -2.65856 0
M  V30 4991 H 475.418 -1.71856 -2.39895 0
M  V30 4992 H 475.499 -2.43516 -0.783166 0
M  V30 4993 H 475.143 -4.74412 -1.81371 0
M  V30 4994 H 475.073 -3.99641 -3.4292 0
M  V30 4995 H 477.564 -3.11433 -2.14052 0
M  V30 4996 H 477.877 -6.70205 -3.84767 0
M  V30 4997 H 476.222 -6.02387 -3.46634 0
M  V30 4998 H 479.413 -3.90478 -2.58157 0
M  V30 4999 H 479.586 -5.54069 -3.36024 0
M  V30 5000 N 472.992 0.995999 -1.22138 0
M  V30 5001 C 474.24 1.73167 -1.042 0
M  V30 5002 C 474.561 1.90329 0.42423 0
M  V30 5003 O 473.831 1.4607 1.30539 0
M  V30 5004 H 472.411 0.641593 -0.38258 0
M  V30 5005 H 475.073 1.19974 -1.53598 0
M  V30 5006 H 474.169 2.72734 -1.51731 0
M  V30 5007 N 474.47 1.03057 1.19235 0
M  V30 5008 C 475.698 0.747697 1.92917 0
M  V30 5009 C 476.113 -0.69372 1.75593 0
M  V30 5010 O 475.47 -1.47191 1.07894 0
M  V30 5011 C 475.521 1.09159 3.44625 0
M  V30 5012 O 475.242 2.47641 3.61394 0
M  V30 5013 C 476.743 0.831763 4.35427 0
M  V30 5014 H 473.963 0.273453 0.612751 0
M  V30 5015 H 476.507 1.37552 1.51327 0
M  V30 5016 H 474.662 0.508919 3.84043 0
M  V30 5017 H 475.076 2.60499 4.55237 0
M  V30 5018 H 476.55 1.12233 5.4047 0
M  V30 5019 H 477.027 -0.233769 4.38577 0
M  V30 5020 H 477.633 1.39725 4.01693 0
M  V30 5021 N 475.948 -1.35272 0.808662 0
M  V30 5022 C 476.911 -2.28082 0.226093 0
M  V30 5023 C 477.911 -1.49673 -0.587762 0
M  V30 5024 O 479.101 -1.69404 -0.405943 0
M  V30 5025 C 476.233 -3.33955 -0.684596 0
M  V30 5026 H 477.426 -2.81116 1.04469 0
M  V30 5027 H 474.979 -1.45162 0.579466 0
M  V30 5028 H 475.714 -2.86111 -1.5268 0
M  V30 5029 H 475.499 -3.91965 -0.102699 0
M  V30 5030 H 476.989 -4.03219 -1.08646 0
M  V30 5031 N 477.426 -0.562348 -1.47226 0
M  V30 5032 C 478.651 -0.0432632 -2.07355 0
M  V30 5033 C 479.076 1.24332 -1.41149 0
M  V30 5034 O 478.434 1.74603 -0.488226 0
M  V30 5035 C 478.482 0.130288 -3.60365 0
M  V30 5036 O 477.586 1.19166 -3.94808 0
M  V30 5037 H 476.927 -0.0536334 -0.66183 0
M  V30 5038 H 479.457 -0.779495 -1.89169 0
M  V30 5039 H 479.467 0.342881 -4.06557 0
M  V30 5040 H 478.142 -0.809389 -4.07948 0
M  V30 5041 H 476.719 0.959153 -3.60354 0
M  V30 5042 N 478.904 1.54736 -0.299062 0
M  V30 5043 C 480.129 2.04975 0.316254 0
M  V30 5044 C 480.554 1.17501 1.46885 0
M  V30 5045 O 479.912 0.178678 1.80417 0
M  V30 5046 C 479.96 3.52672 0.751997 0
M  V30 5047 O 479.064 3.68226 1.85697 0
M  V30 5048 H 478.405 0.661126 0.0617175 0
M  V30 5049 H 480.935 1.99805 -0.440341 0
M  V30 5050 H 480.945 3.94488 1.04133 0
M  V30 5051 H 479.62 4.158 -0.0911482 0
M  V30 5052 H 478.197 3.38316 1.56834 0
M  V30 5053 N 480.382 0.0267497 1.57577 0
M  V30 5054 C 481.793 -0.512413 1.79531 0
M  V30 5055 C 482.144 -1.72391 0.936791 0
M  V30 5056 O 481.269 -2.15903 0.146543 0
M  V30 5057 C 481.864 -0.936378 3.25603 0
M  V30 5058 C 480.423 -1.42067 3.4856 0
M  V30 5059 C 479.57 -0.384278 2.74624 0
M  V30 5060 H 482.521 0.252797 1.56674 0
M  V30 5061 H 482.542 -1.80088 3.35184 0
M  V30 5062 H 482.054 -0.0544332 3.88062 0
M  V30 5063 H 480.155 -2.32262 2.9135 0
M  V30 5064 H 480.268 -1.42968 4.57271 0
M  V30 5065 H 478.632 -0.851855 2.40032 0
M  V30 5066 H 479.415 0.489159 3.39797 0
M  V30 5067 N 481.861 -1.55662 -0.24637 0
M  V30 5068 C 483.086 -1.81914 -0.996093 0
M  V30 5069 C 483.511 -0.603875 -1.78143 0
M  V30 5070 O 482.869 0.447091 -1.75701 0
M  V30 5071 C 482.917 -3.05908 -1.90925 0
M  V30 5072 O 482.021 -2.82861 -3.00105 0
M  V30 5073 H 481.362 -0.600481 -0.283406 0
M  V30 5074 H 483.892 -2.02848 -0.267199 0
M  V30 5075 H 483.902 -3.35356 -2.3238 0
M  V30 5076 H 482.577 -3.93999 -1.33183 0
M  V30 5077 H 481.154 -2.64583 -2.62775 0
M  V30 5078 N 483.339 0.512053 -1.4905 0
M  V30 5079 C 484.569 1.28928 -1.61434 0
M  V30 5080 C 484.977 1.87107 -0.280647 0
M  V30 5081 O 484.32 1.68024 0.742537 0
M  V30 5082 C 484.382 2.466 -2.61588 0
M  V30 5083 C 484.046 2.09375 -4.06216 0
M  V30 5084 C 485.043 1.63994 -4.93358 0
M  V30 5085 C 482.728 2.19348 -4.51876 0
M  V30 5086 C 484.722 1.29076 -6.24194 0
M  V30 5087 C 482.409 1.84041 -5.82728 0
M  V30 5088 C 483.407 1.38978 -6.68711 0
M  V30 5089 O 483.095 1.04144 -7.97126 0
M  V30 5090 H 482.827 0.397668 -0.546659 0
M  V30 5091 H 485.381 0.622507 -1.9574 0
M  V30 5092 H 483.611 3.16318 -2.22441 0
M  V30 5093 H 485.3 3.08642 -2.63619 0
M  V30 5094 H 486.066 1.55744 -4.59313 0
M  V30 5095 H 481.945 2.53376 -3.85125 0
M  V30 5096 H 485.489 0.938303 -6.91261 0
M  V30 5097 H 481.386 1.91938 -6.16304 0
M  V30 5098 H 482.154 1.17387 -8.10039 0
M  V30 5099 N 484.817 1.37938 0.762283 0
M  V30 5100 C 486.233 1.18945 1.06415 0
M  V30 5101 C 486.433 0.0321163 2.01474 0
M  V30 5102 O 485.489 -0.624844 2.44647 0
M  V30 5103 C 486.802 2.51218 1.65258 0
M  V30 5104 C 488.35 2.57824 1.7747 0
M  V30 5105 C 488.825 3.90251 2.39725 0
M  V30 5106 N 490.316 3.91744 2.47166 0
M  V30 5107 C 491.051 4.90966 2.96209 0
M  V30 5108 N 490.547 6.00585 3.45354 0
M  V30 5109 N 492.34 4.78363 2.9517 0
M  V30 5110 H 484.491 2.11994 0.131301 0
M  V30 5111 H 486.754 0.940262 0.120879 0
M  V30 5112 H 486.46 3.36317 1.02878 0
M  V30 5113 H 486.334 2.68989 2.64433 0
M  V30 5114 H 488.721 1.73126 2.3898 0
M  V30 5115 H 488.802 2.43928 0.770241 0
M  V30 5116 H 488.446 4.75368 1.78852 0
M  V30 5117 H 488.376 4.01454 3.40796 0
M  V30 5118 H 490.867 3.12563 2.12397 0
M  V30 5119 H 491.18 6.72236 3.81207 0
M  V30 5120 H 489.525 6.04217 3.43434 0
M  V30 5121 H 492.716 3.91841 2.56082 0
M  V30 5122 H 492.889 5.55843 3.33081 0
M  V30 5123 N 486.295 -0.989507 1.22664 0
M  V30 5124 C 487.542 -1.72953 1.05325 0
M  V30 5125 C 487.87 -1.90104 -0.411168 0
M  V30 5126 O 487.125 -1.44386 -1.32103 0
M  V30 5127 C 487.424 -3.13649 1.71345 0
M  V30 5128 C 487.09 -3.16403 3.21248 0
M  V30 5129 C 485.752 -3.16862 3.62149 0
M  V30 5130 C 488.104 -3.12428 4.17179 0
M  V30 5131 C 485.432 -3.11051 4.97458 0
M  V30 5132 C 487.784 -3.08159 5.52468 0
M  V30 5133 C 486.448 -3.06935 5.92746 0
M  V30 5134 H 485.718 -0.632881 0.385412 0
M  V30 5135 H 488.365 -1.15863 1.52473 0
M  V30 5136 H 486.67 -3.74069 1.16532 0
M  V30 5137 H 488.367 -3.69658 1.55416 0
M  V30 5138 H 484.957 -3.16798 2.88682 0
M  V30 5139 H 489.141 -3.11221 3.86595 0
M  V30 5140 H 484.397 -3.0845 5.27891 0
M  V30 5141 H 488.571 -3.04039 6.26525 0
M  V30 5142 H 486.198 -3.02186 6.97558 0
M  V30 5143 N 487.773 -1.03688 -1.18687 0
M  V30 5144 C 489.022 -0.733235 -1.879 0
M  V30 5145 C 489.335 0.741745 -1.8099 0
M  V30 5146 O 490.541 1.15875 -2.4553 0
M  V30 5147 C 488.997 -1.26127 -3.37076 0
M  V30 5148 C 488.605 -2.76461 -3.52524 0
M  V30 5149 C 490.349 -1.03398 -4.11715 0
M  V30 5150 C 488.256 -3.22642 -4.95637 0
M  V30 5151 H 487.186 -0.270584 -0.703776 0
M  V30 5152 H 489.837 -1.25222 -1.34133 0
M  V30 5153 H 488.219 -0.670165 -3.90288 0
M  V30 5154 H 489.393 -3.41296 -3.09602 0
M  V30 5155 H 487.708 -2.97559 -2.91286 0
M  V30 5156 H 490.305 -1.3542 -5.17267 0
M  V30 5157 H 490.648 0.0289246 -4.1629 0
M  V30 5158 H 491.181 -1.5895 -3.64664 0
M  V30 5159 H 487.92 -4.28296 -4.96228 0
M  V30 5160 H 487.44 -2.62539 -5.39289 0
M  V30 5161 H 489.119 -3.16444 -5.64333 0
M  V30 5162 N 489.251 1.34841 -0.815825 0
M  V30 5163 C 490.181 2.32187 -0.247298 0
M  V30 5164 C 491.162 1.5791 0.632344 0
M  V30 5165 O 492.347 1.8593 0.560698 0
M  V30 5166 C 489.477 3.42122 0.597466 0
M  V30 5167 C 488.431 4.27602 -0.184446 0
M  V30 5168 C 487.757 5.28942 0.782609 0
M  V30 5169 C 489.057 5.03502 -1.38865 0
M  V30 5170 H 490.751 2.79985 -1.06061 0
M  V30 5171 H 488.297 1.34611 -0.511461 0
M  V30 5172 H 490.25 4.09232 1.00533 0
M  V30 5173 H 488.974 2.92956 1.44376 0
M  V30 5174 H 487.633 3.62085 -0.573592 0
M  V30 5175 H 487.281 4.7604 1.62466 0
M  V30 5176 H 486.981 5.87008 0.263695 0
M  V30 5177 H 488.505 5.98922 1.18848 0
M  V30 5178 H 489.919 5.63506 -1.05518 0
M  V30 5179 H 488.316 5.71108 -1.8427 0
M  V30 5180 H 489.386 4.33608 -2.17054 0
M  V30 5181 N 490.729 0.570148 1.46925 0
M  V30 5182 C 491.677 -0.183181 2.31878 0
M  V30 5183 C 492.671 -0.896721 1.43719 0
M  V30 5184 O 493.877 -0.816536 1.60414 0
M  V30 5185 H 490.252 -0.077944 0.74795 0
M  V30 5186 H 492.223 0.552312 2.93244 0
M  V30 5187 C 490.972 -1.19172 3.2664 0
M  V30 5188 H 490.295 -0.652088 3.94446 0
M  V30 5189 H 491.735 -1.68946 3.88887 0
M  V30 5190 C 490.194 -2.24627 2.51086 0
M  V30 5191 O 490.724 -3.31773 2.26472 0
M  V30 5192 N 488.93 -1.98898 2.11867 0
M  V30 5193 H 488.477 -1.11777 2.32086 0
M  V30 5194 H 488.435 -2.6967 1.61634 0
M  V30 5195 N 492.207 -1.54576 0.307264 0
M  V30 5196 C 493.484 -1.92377 -0.353605 0
M  V30 5197 C 493.864 -1.23517 -1.71192 0
M  V30 5198 O 493.212 -0.373101 -2.25433 0
M  V30 5199 C 493.422 -3.45928 -0.462039 0
M  V30 5200 C 494.77 -4.18278 -0.729975 0
M  V30 5201 O 495.794 -3.51997 -0.545605 0
M  V30 5202 O 494.653 -5.3563 -1.08454 0
M  V30 5203 H 491.747 -0.802747 -0.198812 0
M  V30 5204 H 494.293 -1.65929 0.355783 0
M  V30 5205 H 493.065 -3.88187 0.492592 0
M  V30 5206 H 492.688 -3.78431 -1.21965 0
M  V30 5207 N 493.685 -0.035106 -1.57561 0
M  V30 5208 C 494.933 0.64096 -1.91667 0
M  V30 5209 C 495.254 1.72323 -0.912681 0
M  V30 5210 O 494.524 1.95849 0.0449089 0
M  V30 5211 H 493.104 0.239743 -0.707483 0
M  V30 5212 H 495.766 -0.084321 -1.94718 0
M  V30 5213 H 494.862 1.08987 -2.92452 0
M  V30 5214 N 495.163 1.55791 0.238111 0
M  V30 5215 C 496.391 1.82098 0.982233 0
M  V30 5216 C 496.806 0.612025 1.78605 0
M  V30 5217 O 496.163 -0.419381 1.77616 0
M  V30 5218 C 496.214 3.0673 1.91309 0
M  V30 5219 O 495.935 4.2296 1.14179 0
M  V30 5220 C 497.436 3.45903 2.77248 0
M  V30 5221 H 494.656 0.605748 0.288635 0
M  V30 5222 H 497.2 2.02862 0.258341 0
M  V30 5223 H 495.355 2.87991 2.59114 0
M  V30 5224 H 495.769 4.93653 1.7722 0
M  V30 5225 H 497.243 4.36189 3.38295 0
M  V30 5226 H 497.72 2.66891 3.48806 0
M  V30 5227 H 498.326 3.67024 2.14881 0
M  V30 5228 N 496.642 -0.504142 1.49319 0
M  V30 5229 C 497.575 -1.62361 1.60356 0
M  V30 5230 C 498.553 -1.56169 0.45277 0
M  V30 5231 O 499.737 -1.76271 0.667892 0
M  V30 5232 C 496.864 -3.00864 1.55559 0
M  V30 5233 C 495.91 -3.25328 2.75797 0
M  V30 5234 S 496.743 -3.08791 4.37503 0
M  V30 5235 C 497.899 -4.49695 4.35345 0
M  V30 5236 H 498.132 -1.52753 2.55056 0
M  V30 5237 H 495.665 -0.689065 1.38171 0
M  V30 5238 H 497.623 -3.8073 1.53477 0
M  V30 5239 H 496.284 -3.0789 0.621515 0
M  V30 5240 H 495.477 -4.2643 2.68651 0
M  V30 5241 H 495.079 -2.53179 2.75275 0
M  V30 5242 H 497.371 -5.41721 4.06871 0
M  V30 5243 H 498.314 -4.61891 5.36714 0
M  V30 5244 H 498.722 -4.30227 3.65465 0
M  V30 5245 N 498.12 -1.38341 -0.754957 0
M  V30 5246 C 499.05 -1.38176 -1.88227 0
M  V30 5247 C 500.031 -0.247873 -1.68284 0
M  V30 5248 O 501.216 -0.45075 -1.88896 0
M  V30 5249 C 498.346 -1.20471 -3.25736 0
M  V30 5250 C 497.3 -2.3105 -3.60278 0
M  V30 5251 C 496.626 -1.98452 -4.96509 0
M  V30 5252 C 497.926 -3.73305 -3.65295 0
M  V30 5253 H 499.62 -2.32512 -1.88622 0
M  V30 5254 H 497.166 -1.1192 -0.906082 0
M  V30 5255 H 499.119 -1.18982 -4.04254 0
M  V30 5256 H 497.843 -0.225965 -3.25817 0
M  V30 5257 H 496.502 -2.31723 -2.84078 0
M  V30 5258 H 496.15 -0.990641 -4.93148 0
M  V30 5259 H 495.85 -2.7251 -5.20588 0
M  V30 5260 H 497.374 -1.98578 -5.77407 0
M  V30 5261 H 498.788 -3.7467 -4.3393 0
M  V30 5262 H 497.185 -4.46557 -4.00883 0
M  V30 5263 H 498.255 -4.05719 -2.65556 0
M  V30 5264 N 499.598 0.982988 -1.23187 0
M  V30 5265 C 500.823 1.76455 -1.08988 0
M  V30 5266 C 501.248 1.84726 0.354691 0
M  V30 5267 O 500.606 1.30699 1.25649 0
M  V30 5268 C 500.654 3.17094 -1.71708 0
M  V30 5269 O 499.758 4.00648 -0.977477 0
M  V30 5270 H 499.099 0.542988 -0.382177 0
M  V30 5271 H 501.629 1.23413 -1.63188 0
M  V30 5272 H 501.639 3.67684 -1.76841 0
M  V30 5273 H 500.314 3.10389 -2.76823 0
M  V30 5274 H 498.891 3.59161 -1.0029 0
M  V30 5275 N 501.076 1.04316 1.18135 0
M  V30 5276 C 502.039 0.640794 2.2006 0
M  V30 5277 C 503.039 -0.303124 1.57917 0
M  V30 5278 O 504.229 -0.0881855 1.73977 0
M  V30 5279 C 501.361 -0.060148 3.40847 0
M  V30 5280 H 502.554 1.54281 2.57172 0
M  V30 5281 H 500.107 0.836004 1.32063 0
M  V30 5282 H 500.842 -0.975845 3.0927 0
M  V30 5283 H 500.627 0.618319 3.87194 0
M  V30 5284 H 502.117 -0.328082 4.16309 0
M  V30 5285 N 502.554 -1.34406 0.822964 0
M  V30 5286 C 503.504 -2.26963 0.217208 0
M  V30 5287 C 504.488 -1.48536 -0.618545 0
M  V30 5288 O 505.68 -1.7056 -0.473118 0
M  V30 5289 C 502.809 -3.37655 -0.619973 0
M  V30 5290 C 501.895 -4.23495 0.226411 0
M  V30 5291 N 502.286 -4.88876 1.29744 0
M  V30 5292 C 500.584 -4.45999 0.0107554 0
M  V30 5293 C 501.285 -5.52642 1.81553 0
M  V30 5294 N 500.261 -5.31949 1.11942 0
M  V30 5295 H 504.063 -2.75017 1.03647 0
M  V30 5296 H 501.577 -1.48126 0.665777 0
M  V30 5297 H 503.574 -4.02932 -1.07011 0
M  V30 5298 H 502.234 -2.91151 -1.43739 0
M  V30 5299 H 503.245 -4.89886 1.68024 0
M  V30 5300 H 499.922 -4.10253 -0.774495 0
M  V30 5301 H 501.312 -6.14755 2.71156 0
M  V30 5302 N 504.032 -0.577932 -1.46621 0
M  V30 5303 C 505.26 -0.0671642 -2.06791 0
M  V30 5304 C 505.675 1.23571 -1.42743 0
M  V30 5305 O 505.032 1.74602 -0.531062 0
M  V30 5306 C 505.083 0.110357 -3.61332 0
M  V30 5307 O 504.804 -1.14095 -4.22982 0
M  V30 5308 C 506.305 0.656025 -4.38419 0
M  V30 5309 H 503.525 -0.0552732 -0.66872 0
M  V30 5310 H 506.069 -0.797242 -1.8832 0
M  V30 5311 H 504.224 0.790637 -3.79246 0
M  V30 5312 H 504.638 -0.951742 -5.15793 0
M  V30 5313 H 506.112 0.729438 -5.47159 0
M  V30 5314 H 506.589 1.67195 -4.06131 0
M  V30 5315 H 507.195 0.0107692 -4.25299 0
M  V30 5316 N 505.51 1.54411 -0.315457 0
M  V30 5317 C 506.457 2.24048 0.554166 0
M  V30 5318 C 507.427 1.2283 1.11812 0
M  V30 5319 O 508.612 1.51491 1.15997 0
M  V30 5320 C 505.752 2.99574 1.71316 0
M  V30 5321 C 504.865 4.15594 1.17922 0
M  V30 5322 C 504 4.78669 2.30324 0
M  V30 5323 C 503.039 5.86807 1.74137 0
M  V30 5324 N 502.176 6.43777 2.8017 0
M  V30 5325 H 507.016 2.97964 -0.0462602 0
M  V30 5326 H 504.553 1.47059 -0.0346009 0
M  V30 5327 H 506.511 3.41604 2.39505 0
M  V30 5328 H 505.141 2.28008 2.285 0
M  V30 5329 H 504.193 3.78404 0.389136 0
M  V30 5330 H 505.505 4.93459 0.728012 0
M  V30 5331 H 504.659 5.23626 3.06433 0
M  V30 5332 H 503.398 4.00168 2.78778 0
M  V30 5333 H 502.403 5.41261 0.965236 0
M  V30 5334 H 503.628 6.67201 1.2657 0
M  V30 5335 H 501.574 5.68153 3.2793 0
M  V30 5336 H 501.491 7.17031 2.39588 0
M  V30 5337 H 502.759 6.9339 3.56132 0
M  V30 5338 N 506.988 0.0434614 1.5754 0
M  V30 5339 C 508.228 -0.636023 1.94253 0
M  V30 5340 C 508.592 -1.68461 0.921132 0
M  V30 5341 O 509.793 -2.41762 1.17494 0
M  V30 5342 C 508.064 -1.22357 3.35803 0
M  V30 5343 S 509.623 -1.92213 3.94461 0
M  V30 5344 H 506.441 -0.209041 0.679575 0
M  V30 5345 H 509.043 0.110556 1.95187 0
M  V30 5346 H 507.747 -0.448162 4.07946 0
M  V30 5347 H 507.278 -2.00713 3.38346 0
M  V30 5348 H 509.293 -3.20199 3.79061 0
M  V30 5349 N 508.466 -1.55915 -0.229846 0
M  V30 5350 C 509.413 -1.91734 -1.28478 0
M  V30 5351 C 510.383 -0.773539 -1.46988 0
M  V30 5352 O 511.568 -1.02871 -1.60693 0
M  V30 5353 C 508.708 -2.23224 -2.63182 0
M  V30 5354 C 507.821 -3.50497 -2.52539 0
M  V30 5355 C 506.956 -3.71474 -3.79711 0
M  V30 5356 C 505.995 -4.92289 -3.63755 0
M  V30 5357 N 505.132 -5.09698 -4.82858 0
M  V30 5358 H 509.972 -2.81692 -0.972308 0
M  V30 5359 H 507.509 -1.39429 -0.468815 0
M  V30 5360 H 509.467 -2.3949 -3.41614 0
M  V30 5361 H 508.097 -1.36451 -2.92542 0
M  V30 5362 H 507.149 -3.4247 -1.65585 0
M  V30 5363 H 508.461 -4.39079 -2.36666 0
M  V30 5364 H 507.615 -3.87791 -4.66586 0
M  V30 5365 H 506.354 -2.81157 -3.985 0
M  V30 5366 H 505.359 -4.7593 -2.75264 0
M  V30 5367 H 506.584 -5.84083 -3.46445 0
M  V30 5368 H 504.53 -4.22322 -5.01976 0
M  V30 5369 H 504.447 -5.92399 -4.69681 0
M  V30 5370 H 505.715 -5.30443 -5.71183 0
M  V30 5371 N 509.944 0.496216 -1.49584 0
M  V30 5372 C 510.874 1.60576 -1.69521 0
M  V30 5373 C 511.855 1.61169 -0.543933 0
M  V30 5374 O 513.04 1.77834 -0.78031 0
M  V30 5375 C 510.17 2.99038 -1.76616 0
M  V30 5376 C 509.124 3.13312 -2.91581 0
M  V30 5377 C 508.45 4.53172 -2.83794 0
M  V30 5378 C 509.75 2.92886 -4.32452 0
M  V30 5379 H 511.444 1.44146 -2.62416 0
M  V30 5380 H 508.99 0.692024 -1.26282 0
M  V30 5381 H 510.943 3.76564 -1.8915 0
M  V30 5382 H 509.667 3.16568 -0.80324 0
M  V30 5383 H 508.326 2.38213 -2.78658 0
M  V30 5384 H 507.974 4.67585 -1.854 0
M  V30 5385 H 507.674 4.63662 -3.60958 0
M  V30 5386 H 509.198 5.32752 -2.98342 0
M  V30 5387 H 510.612 3.60178 -4.46032 0
M  V30 5388 H 509.009 3.14844 -5.10875 0
M  V30 5389 H 510.079 1.88966 -4.46565 0
M  V30 5390 N 511.423 1.38739 0.74761 0
M  V30 5391 C 512.663 1.36695 1.51966 0
M  V30 5392 C 513.027 -0.0411889 1.91956 0
M  V30 5393 O 514.228 -0.186543 2.68152 0
M  V30 5394 C 512.499 2.30119 2.73459 0
M  V30 5395 S 514.058 2.4615 3.63257 0
M  V30 5396 H 510.876 0.484929 0.519966 0
M  V30 5397 H 513.478 1.7472 0.877104 0
M  V30 5398 H 512.182 3.31312 2.422 0
M  V30 5399 H 511.713 1.93265 3.42655 0
M  V30 5400 H 513.728 1.69001 4.66533 0
M  V30 5401 N 512.901 -0.976442 1.23707 0
M  V30 5402 C 514.131 -1.75087 1.09673 0
M  V30 5403 C 514.539 -1.85852 -0.354344 0
M  V30 5404 O 513.882 -1.33985 -1.25673 0
M  V30 5405 C 513.944 -3.19272 1.65245 0
M  V30 5406 C 513.608 -3.32004 3.14042 0
M  V30 5407 C 514.605 -3.18017 4.11292 0
M  V30 5408 C 512.29 -3.56525 3.53829 0
M  V30 5409 C 514.284 -3.28363 5.46312 0
M  V30 5410 C 511.971 -3.6651 4.88993 0
M  V30 5411 C 512.969 -3.52439 5.85043 0
M  V30 5412 O 512.657 -3.62063 7.1775 0
M  V30 5413 H 512.389 -0.556164 0.384262 0
M  V30 5414 H 514.943 -1.23518 1.64111 0
M  V30 5415 H 513.173 -3.72107 1.05231 0
M  V30 5416 H 514.862 -3.7849 1.46629 0
M  V30 5417 H 515.628 -2.98966 3.81896 0
M  V30 5418 H 511.507 -3.66547 2.79579 0
M  V30 5419 H 515.051 -3.17297 6.21263 0
M  V30 5420 H 510.948 -3.85072 5.18063 0
M  V30 5421 H 511.716 -3.78833 7.25553 0
M  V30 5422 N 514.379 -1.04941 -1.1758 0
M  V30 5423 C 515.79 -0.784501 -1.69418 0
M  V30 5424 C 516.141 0.693625 -1.8353 0
M  V30 5425 O 515.266 1.53925 -1.52106 0
M  V30 5426 C 515.861 -1.41746 -3.07723 0
M  V30 5427 C 514.42 -1.20066 -3.56737 0
M  V30 5428 C 513.567 -1.5026 -2.33061 0
M  V30 5429 H 516.518 -1.21469 -1.02133 0
M  V30 5430 H 516.539 -0.825381 -3.7144 0
M  V30 5431 H 516.051 -2.49325 -2.9742 0
M  V30 5432 H 514.152 -0.144006 -3.72322 0
M  V30 5433 H 514.265 -1.90384 -4.39648 0
M  V30 5434 H 512.629 -0.922598 -2.37403 0
M  V30 5435 H 513.412 -2.58967 -2.25368 0
M  V30 5436 N 515.857 1.33968 -0.830081 0
M  V30 5437 C 516.789 2.28194 -0.21448 0
M  V30 5438 C 517.802 1.5135 0.599752 0
M  V30 5439 O 518.991 1.73286 0.42826 0
M  V30 5440 C 516.091 3.31221 0.717356 0
M  V30 5441 C 515.264 4.37365 -0.055613 0
M  V30 5442 C 514.323 5.2011 0.798231 0
M  V30 5443 O 513.349 5.68691 0.240616 0
M  V30 5444 N 514.551 5.40523 2.11695 0
M  V30 5445 H 517.316 2.81662 -1.02405 0
M  V30 5446 H 514.877 1.46568 -0.687713 0
M  V30 5447 H 516.869 3.83477 1.29334 0
M  V30 5448 H 515.439 2.78095 1.42765 0
M  V30 5449 H 514.659 3.85727 -0.812936 0
M  V30 5450 H 515.947 5.05397 -0.587444 0
M  V30 5451 H 515.345 5.0274 2.59363 0
M  V30 5452 H 513.902 5.95871 2.64162 0
M  V30 5453 N 517.335 0.585699 1.46312 0
M  V30 5454 C 518.56 0.0762461 2.0726 0
M  V30 5455 C 518.985 -1.22071 1.43109 0
M  V30 5456 O 518.343 -1.73804 0.515942 0
M  V30 5457 C 518.391 -0.0729404 3.60526 0
M  V30 5458 O 517.495 -1.1287 3.96654 0
M  V30 5459 H 516.836 0.0641558 0.660893 0
M  V30 5460 H 519.366 0.809492 1.87905 0
M  V30 5461 H 519.376 -0.278158 4.07051 0
M  V30 5462 H 518.051 0.874188 4.06609 0
M  V30 5463 H 516.628 -0.901703 3.61834 0
M  V30 5464 N 518.813 -1.54241 0.323641 0
M  V30 5465 C 520.224 -1.85975 -0.164405 0
M  V30 5466 C 520.575 -1.24529 -1.51615 0
M  V30 5467 O 519.7 -0.551351 -2.09258 0
M  V30 5468 C 520.295 -3.37424 -0.305091 0
M  V30 5469 C 518.854 -3.69107 -0.737358 0
M  V30 5470 C 518.001 -2.76942 0.140884 0
M  V30 5471 H 520.952 -1.49088 0.543922 0
M  V30 5472 H 520.973 -3.63147 -1.13598 0
M  V30 5473 H 520.485 -3.82116 0.678876 0
M  V30 5474 H 518.586 -3.29947 -1.73107 0
M  V30 5475 H 518.699 -4.76035 -0.541053 0
M  V30 5476 H 517.063 -2.51795 -0.383572 0
M  V30 5477 H 517.846 -3.24461 1.12162 0
M  V30 5478 N 520.291 -0.0518155 -1.57515 0
M  V30 5479 C 521.568 0.661727 -1.84067 0
M  V30 5480 C 521.948 1.88999 -0.940351 0
M  V30 5481 O 521.296 2.285 -0.00155404 0
M  V30 5482 C 521.506 1.01841 -3.3381 0
M  V30 5483 C 522.854 1.40043 -4.00841 0
M  V30 5484 O 523.878 1.11073 -3.38439 0
M  V30 5485 O 522.737 1.94111 -5.10865 0
M  V30 5486 H 519.831 0.326702 -0.759733 0
M  V30 5487 H 522.377 -0.0812277 -1.69505 0
M  V30 5488 H 521.149 0.145202 -3.91031 0
M  V30 5489 H 520.772 1.81879 -3.53562 0
M  V30 5490 N 521.769 1.56035 0.221574 0
M  V30 5491 C 522.702 1.87427 1.30178 0
M  V30 5492 C 523.68 0.731658 1.45209 0
M  V30 5493 O 524.864 0.980016 1.61022 0
M  V30 5494 C 521.991 2.08127 2.67209 0
M  V30 5495 C 521.037 3.30813 2.69194 0
M  V30 5496 S 521.87 4.86738 2.23263 0
M  V30 5497 C 523.026 5.10474 3.62171 0
M  V30 5498 H 523.259 2.78756 1.03355 0
M  V30 5499 H 520.792 1.48469 0.423813 0
M  V30 5500 H 522.75 2.20736 3.46101 0
M  V30 5501 H 521.411 1.17595 2.91256 0
M  V30 5502 H 520.604 3.42341 3.6989 0
M  V30 5503 H 520.206 3.1706 1.98366 0
M  V30 5504 H 522.498 4.9937 4.5786 0
M  V30 5505 H 523.441 6.12359 3.55558 0
M  V30 5506 H 523.849 4.38208 3.55857 0
M  V30 5507 N 523.247 -0.488276 1.49845 0
M  V30 5508 C 524.179 -1.60539 1.63584 0
M  V30 5509 C 525.192 -1.5434 0.517972 0
M  V30 5510 O 526.381 -1.60041 0.790516 0
M  V30 5511 C 523.481 -2.99374 1.58835 0
M  V30 5512 C 522.654 -3.30624 2.86368 0
M  V30 5513 C 521.713 -4.4893 2.74496 0
M  V30 5514 O 520.739 -4.50085 3.48443 0
M  V30 5515 N 521.941 -5.49591 1.86894 0
M  V30 5516 H 524.706 -1.49176 2.59936 0
M  V30 5517 H 522.267 -0.67639 1.47094 0
M  V30 5518 H 524.259 -3.76459 1.48529 0
M  V30 5519 H 522.829 -3.04595 0.702892 0
M  V30 5520 H 522.049 -2.42314 3.1093 0
M  V30 5521 H 523.337 -3.48305 3.70892 0
M  V30 5522 H 522.735 -5.51467 1.26097 0
M  V30 5523 H 521.292 -6.25728 1.82503 0
M  V30 5524 N 524.725 -1.39134 -0.740242 0
M  V30 5525 C 526.136 -1.32208 -1.31825 0
M  V30 5526 C 526.487 0.0159919 -1.96193 0
M  V30 5527 O 525.612 0.918111 -1.95958 0
M  V30 5528 C 526.207 -2.39436 -2.39699 0
M  V30 5529 C 524.766 -2.36048 -2.93187 0
M  V30 5530 C 523.913 -2.21599 -1.66701 0
M  V30 5531 H 526.864 -1.49298 -0.538133 0
M  V30 5532 H 526.885 -2.05922 -3.19963 0
M  V30 5533 H 526.397 -3.36811 -1.92821 0
M  V30 5534 H 524.498 -1.42295 -3.44359 0
M  V30 5535 H 524.611 -3.30704 -3.46658 0
M  V30 5536 H 522.975 -1.68681 -1.90837 0
M  V30 5537 H 523.758 -3.20936 -1.21882 0
M  V30 5538 N 526.204 0.969867 -1.24223 0
M  V30 5539 C 527.451 1.71256 -1.08063 0
M  V30 5540 C 527.779 1.90734 0.380872 0
M  V30 5541 O 527.034 1.46469 1.29789 0
M  V30 5542 C 527.333 3.10883 -1.76314 0
M  V30 5543 C 526.999 3.11252 -3.26241 0
M  V30 5544 C 525.661 3.1106 -3.67144 0
M  V30 5545 C 528.013 3.05751 -4.22097 0
M  V30 5546 C 525.341 3.03097 -5.02344 0
M  V30 5547 C 527.693 2.9933 -5.57301 0
M  V30 5548 C 526.357 2.97466 -5.97554 0
M  V30 5549 H 525.627 0.62667 -0.395431 0
M  V30 5550 H 528.274 1.13422 -1.54297 0
M  V30 5551 H 526.579 3.72168 -1.22468 0
M  V30 5552 H 528.276 3.67138 -1.61277 0
M  V30 5553 H 524.866 3.12165 -2.93685 0
M  V30 5554 H 529.05 3.05031 -3.91497 0
M  V30 5555 H 524.306 3.00013 -5.32731 0
M  V30 5556 H 528.48 2.94033 -6.31283 0
M  V30 5557 H 526.107 2.91051 -7.02277 0
M  V30 5558 N 527.682 1.05563 1.17022 0
M  V30 5559 C 528.931 0.763036 1.8671 0
M  V30 5560 C 529.244 -0.712857 1.82147 0
M  V30 5561 O 530.45 -1.11955 2.47343 0
M  V30 5562 C 528.906 1.31474 3.35026 0
M  V30 5563 C 528.514 2.82034 3.48081 0
M  V30 5564 C 530.258 1.09935 4.10018 0
M  V30 5565 C 528.165 3.30486 4.90442 0
M  V30 5566 H 527.095 0.281747 0.699382 0
M  V30 5567 H 529.746 1.2734 1.32124 0
M  V30 5568 H 528.128 0.732171 3.89173 0
M  V30 5569 H 529.302 3.46178 3.04133 0
M  V30 5570 H 527.617 3.02156 2.86515 0
M  V30 5571 H 530.214 1.43632 5.15048 0
M  V30 5572 H 530.557 0.0373072 4.16283 0
M  V30 5573 H 531.09 1.64732 3.62089 0
M  V30 5574 H 527.829 4.36137 4.89352 0
M  V30 5575 H 527.349 2.71086 5.35044 0
M  V30 5576 H 529.028 3.25382 5.59227 0
M  V30 5577 N 529.16 -1.33526 0.837174 0
M  V30 5578 C 530.093 -2.27192 0.214233 0
M  V30 5579 C 531.071 -1.49575 -0.637657 0
M  V30 5580 O 532.255 -1.78753 -0.598291 0
M  V30 5581 C 529.382 -3.31401 -0.699367 0
M  V30 5582 C 528.428 -4.26431 0.0768429 0
M  V30 5583 S 529.261 -5.15954 1.4336 0
M  V30 5584 C 530.417 -6.23692 0.525251 0
M  V30 5585 H 530.65 -2.79679 1.00831 0
M  V30 5586 H 528.183 -1.4079 0.633834 0
M  V30 5587 H 530.141 -3.91924 -1.22088 0
M  V30 5588 H 528.802 -2.77732 -1.46709 0
M  V30 5589 H 527.995 -5.00193 -0.618268 0
M  V30 5590 H 527.597 -3.70235 0.529364 0
M  V30 5591 H 529.889 -6.76931 -0.277575 0
M  V30 5592 H 530.832 -6.97283 1.23299 0
M  V30 5593 H 531.24 -5.64398 0.107351 0
M  V30 5594 N 530.638 -0.59345 -1.46 0
M  V30 5595 C 531.886 -0.082988 -2.0193 0
M  V30 5596 C 532.207 1.28569 -1.46612 0
M  V30 5597 O 531.477 1.84629 -0.654909 0
M  V30 5598 H 530.057 -0.0276882 -0.746487 0
M  V30 5599 H 532.719 -0.771657 -1.78973 0
M  V30 5600 H 531.815 -0.022079 -3.12092 0
M  V30 5601 N 532.116 1.54067 -0.331816 0
M  V30 5602 C 533.365 1.99895 0.269209 0
M  V30 5603 C 533.678 1.22371 1.52593 0
M  V30 5604 O 534.884 1.58618 2.20347 0
M  V30 5605 C 533.34 3.55972 0.530244 0
M  V30 5606 C 532.948 4.4234 -0.709901 0
M  V30 5607 C 534.692 4.10247 1.09077 0
M  V30 5608 C 532.599 5.89905 -0.420312 0
M  V30 5609 H 531.529 0.746741 0.104371 0
M  V30 5610 H 534.18 1.78014 -0.445324 0
M  V30 5611 H 532.562 3.73873 1.30518 0
M  V30 5612 H 533.736 4.36215 -1.48504 0
M  V30 5613 H 532.051 3.98997 -1.19123 0
M  V30 5614 H 534.648 5.18095 1.32219 0
M  V30 5615 H 534.991 3.62739 2.0427 0
M  V30 5616 H 535.524 3.96011 0.376824 0
M  V30 5617 H 532.263 6.41623 -1.34164 0
M  V30 5618 H 531.783 5.98962 0.316962 0
M  V30 5619 H 533.462 6.46991 -0.0331956 0
M  V30 5620 N 533.594 0.0601682 1.57485 0
M  V30 5621 C 534.544 -0.920969 2.08572 0
M  V30 5622 C 535.528 -1.26617 0.992827 0
M  V30 5623 O 536.72 -1.24708 1.25606 0
M  V30 5624 C 533.849 -2.19267 2.64153 0
M  V30 5625 C 532.935 -1.87447 3.80427 0
M  V30 5626 N 533.326 -1.26025 4.89848 0
M  V30 5627 C 531.624 -2.17265 3.89502 0
M  V30 5628 C 532.325 -1.12036 5.70809 0
M  V30 5629 N 531.301 -1.62624 5.18705 0
M  V30 5630 H 535.103 -0.441561 2.90564 0
M  V30 5631 H 532.617 -0.144043 1.6176 0
M  V30 5632 H 534.614 -2.90462 2.99061 0
M  V30 5633 H 533.274 -2.67806 1.83603 0
M  V30 5634 H 534.285 -0.931336 5.09457 0
M  V30 5635 H 530.962 -2.68262 3.19909 0
M  V30 5636 H 532.352 -0.642783 6.68818 0
M  V30 5637 N 535.072 -1.5615 -0.213296 0
M  V30 5638 C 536.321 -1.78743 -0.93455 0
M  V30 5639 C 536.634 -0.630199 -1.8517 0
M  V30 5640 O 537.84 -0.739966 -2.61222 0
M  V30 5641 C 536.296 -3.16571 -1.71203 0
M  V30 5642 C 535.904 -4.40043 -0.840617 0
M  V30 5643 C 537.648 -3.48485 -2.42401 0
M  V30 5644 C 535.555 -5.68895 -1.61592 0
M  V30 5645 H 534.485 -0.666426 -0.352692 0
M  V30 5646 H 537.136 -1.82532 -0.188227 0
M  V30 5647 H 535.518 -3.06981 -2.50157 0
M  V30 5648 H 536.692 -4.6071 -0.0910326 0
M  V30 5649 H 535.007 -4.15706 -0.240365 0
M  V30 5650 H 537.604 -4.41983 -3.00924 0
M  V30 5651 H 537.947 -2.71371 -3.15695 0
M  V30 5652 H 538.48 -3.59442 -1.7043 0
M  V30 5653 H 535.219 -6.48925 -0.926106 0
M  V30 5654 H 534.739 -5.52275 -2.33991 0
M  V30 5655 H 536.418 -6.09365 -2.17447 0
M  V30 5656 N 536.55 0.480323 -1.50102 0
M  V30 5657 C 537.799 1.22979 -1.59872 0
M  V30 5658 C 538.112 1.93282 -0.30022 0
M  V30 5659 O 539.318 2.70086 -0.276709 0
M  V30 5660 C 537.774 2.23408 -2.82164 0
M  V30 5661 C 537.382 1.5895 -4.18854 0
M  V30 5662 C 539.126 2.99055 -3.01275 0
M  V30 5663 C 537.033 2.57611 -5.32344 0
M  V30 5664 H 535.963 0.462707 -0.59533 0
M  V30 5665 H 538.614 0.501291 -1.7652 0
M  V30 5666 H 536.996 2.99511 -2.59055 0
M  V30 5667 H 538.17 0.887 -4.52182 0
M  V30 5668 H 536.485 0.956191 -4.05273 0
M  V30 5669 H 539.082 3.72876 -3.83233 0
M  V30 5670 H 539.425 3.57897 -2.12639 0
M  V30 5671 H 539.958 2.30066 -3.24522 0
M  V30 5672 H 536.697 2.03521 -6.23105 0
M  V30 5673 H 536.217 3.26041 -5.03445 0
M  V30 5674 H 537.896 3.19627 -5.62537 0
M  V30 5675 N 538.028 1.39524 0.732853 0
M  V30 5676 C 539.305 1.27373 1.48444 0
M  V30 5677 C 539.685 -0.115725 2.10783 0
M  V30 5678 O 539.033 -1.12713 1.98766 0
M  V30 5679 C 539.243 2.39966 2.53412 0
M  V30 5680 C 540.591 2.79384 3.19733 0
M  V30 5681 O 541.615 2.39431 2.63725 0
M  V30 5682 O 540.474 3.48353 4.21085 0
M  V30 5683 H 537.568 0.499272 0.659285 0
M  V30 5684 H 540.114 1.51403 0.766496 0
M  V30 5685 H 538.886 3.32845 2.05742 0
M  V30 5686 H 538.509 2.17612 3.32762 0
M  V30 5687 N 539.506 -0.963266 1.24736 0
M  V30 5688 C 540.922 -1.23273 1.01371 0
M  V30 5689 C 541.122 -1.99618 -0.274776 0
M  V30 5690 O 540.178 -2.32293 -0.989769 0
M  V30 5691 C 541.491 -2.01554 2.23152 0
M  V30 5692 C 543.039 -2.14629 2.27823 0
M  V30 5693 C 543.514 -2.96307 3.49237 0
M  V30 5694 N 545.005 -3.03887 3.49581 0
M  V30 5695 C 545.74 -3.67456 4.40186 0
M  V30 5696 N 545.236 -4.32706 5.41052 0
M  V30 5697 N 547.029 -3.64511 4.27888 0
M  V30 5698 H 539.18 -0.452294 2.07528 0
M  V30 5699 H 541.443 -0.262521 0.910926 0
M  V30 5700 H 541.149 -1.52847 3.1675 0
M  V30 5701 H 541.023 -3.02278 2.25628 0
M  V30 5702 H 543.41 -2.62537 1.34753 0
M  V30 5703 H 543.491 -1.13238 2.2937 0
M  V30 5704 H 543.135 -2.49091 4.42624 0
M  V30 5705 H 543.065 -3.97905 3.44933 0
M  V30 5706 H 545.556 -2.57477 2.76611 0
M  V30 5707 H 545.869 -4.79042 6.06415 0
M  V30 5708 H 544.214 -4.31361 5.44934 0
M  V30 5709 H 547.405 -3.12715 3.4832 0
M  V30 5710 H 547.578 -4.13768 4.98698 0
M  V30 5711 N 540.985 -1.06182 -1.16461 0
M  V30 5712 C 541.895 -0.682671 -2.24448 0
M  V30 5713 C 542.911 0.30078 -1.71381 0
M  V30 5714 O 544.087 0.150376 -2.00838 0
M  V30 5715 C 541.152 -0.0737202 -3.46622 0
M  V30 5716 C 540.213 -1.10889 -4.14731 0
M  V30 5717 C 539.446 -0.528908 -5.31073 0
M  V30 5718 O 539.669 0.65868 -5.66584 0
M  V30 5719 O 538.603 -1.26805 -5.88391 0
M  V30 5720 H 542.429 -1.58291 -2.59187 0
M  V30 5721 H 540.014 -0.834013 -1.23954 0
M  V30 5722 H 541.896 0.264192 -4.20571 0
M  V30 5723 H 540.571 0.800015 -3.13658 0
M  V30 5724 H 539.478 -1.49896 -3.42756 0
M  V30 5725 H 540.811 -1.95412 -4.51747 0
M  V30 5726 N 542.463 1.3308 -0.844243 0
M  V30 5727 C 543.413 2.26589 -0.253289 0
M  V30 5728 C 544.397 1.49501 0.594836 0
M  V30 5729 O 545.589 1.71291 0.445924 0
M  V30 5730 C 542.718 3.38599 0.566176 0
M  V30 5731 C 541.804 4.23081 -0.293756 0
M  V30 5732 N 542.195 4.86751 -1.37505 0
M  V30 5733 C 540.493 4.45925 -0.0817086 0
M  V30 5734 C 541.194 5.49684 -1.90323 0
M  V30 5735 N 540.17 5.30101 -1.20391 0
M  V30 5736 H 543.972 2.73334 -1.08009 0
M  V30 5737 H 541.486 1.47048 -0.689258 0
M  V30 5738 H 543.483 4.04584 1.00587 0
M  V30 5739 H 542.143 2.93401 1.39089 0
M  V30 5740 H 543.154 4.87151 -1.75796 0
M  V30 5741 H 539.831 4.11434 0.709129 0
M  V30 5742 H 541.221 6.10363 -2.80902 0
M  V30 5743 N 543.941 0.601185 1.45683 0
M  V30 5744 C 545.166 0.0982245 2.07167 0
M  V30 5745 C 545.591 -1.20546 1.44396 0
M  V30 5746 O 544.949 -1.73247 0.534347 0
M  V30 5747 C 544.997 -0.0346976 3.60583 0
M  V30 5748 O 544.101 -1.08657 3.97828 0
M  V30 5749 H 543.442 0.0711618 0.660176 0
M  V30 5750 H 545.972 0.829376 1.87036 0
M  V30 5751 H 545.982 -0.234969 4.07323 0
M  V30 5752 H 544.657 0.917265 4.05659 0
M  V30 5753 H 543.234 -0.863275 3.6277 0
M  V30 5754 N 545.419 -1.53889 0.339982 0
M  V30 5755 C 546.667 -2.00458 -0.257112 0
M  V30 5756 C 546.988 -1.22953 -1.51353 0
M  V30 5757 O 546.258 -0.335734 -1.93002 0
M  V30 5758 H 544.838 -0.740544 -0.0979965 0
M  V30 5759 H 547.5 -1.89386 0.460317 0
M  V30 5760 H 546.596 -3.08035 -0.502057 0
M  V30 5761 N 546.897 -0.0685191 -1.57451 0
M  V30 5762 C 547.827 0.89747 -2.15564 0
M  V30 5763 C 548.808 1.31266 -1.08181 0
M  V30 5764 O 549.993 1.38429 -1.36202 0
M  V30 5765 C 547.123 2.16623 -2.71463 0
M  V30 5766 C 546.077 1.89054 -3.83982 0
M  V30 5767 C 545.403 3.22532 -4.26471 0
M  V30 5768 C 546.703 1.1984 -5.08366 0
M  V30 5769 H 548.397 0.413373 -2.96533 0
M  V30 5770 H 545.943 0.197391 -1.42641 0
M  V30 5771 H 547.896 2.84614 -3.10761 0
M  V30 5772 H 546.62 2.67269 -1.8771 0
M  V30 5773 H 545.279 1.23469 -3.45183 0
M  V30 5774 H 544.927 3.71013 -3.39644 0
M  V30 5775 H 544.627 3.04879 -5.02317 0
M  V30 5776 H 546.151 3.91727 -4.68383 0
M  V30 5777 H 547.565 1.77896 -5.45001 0
M  V30 5778 H 545.962 1.12456 -5.89469 0
M  V30 5779 H 547.032 0.176996 -4.84577 0
M  V30 5780 N 548.375 1.56261 0.205012 0
M  V30 5781 C 549.6 1.84491 0.947512 0
M  V30 5782 C 550.025 0.650894 1.76479 0
M  V30 5783 O 549.383 -0.40035 1.76824 0
M  V30 5784 C 549.431 3.10863 1.82747 0
M  V30 5785 O 548.535 2.90719 2.925 0
M  V30 5786 H 547.876 0.607783 0.267386 0
M  V30 5787 H 550.406 2.03485 0.213323 0
M  V30 5788 H 550.416 3.41399 2.23407 0
M  V30 5789 H 549.091 3.97392 1.2269 0
M  V30 5790 H 547.668 2.71457 2.55667 0
M  V30 5791 N 549.853 -0.472356 1.50355 0
M  V30 5792 C 551.264 -1.05326 1.54154 0
M  V30 5793 C 551.615 -1.93155 0.344303 0
M  V30 5794 O 550.74 -2.09479 -0.542928 0
M  V30 5795 C 551.335 -1.91691 2.79356 0
M  V30 5796 C 549.894 -2.44892 2.8584 0
M  V30 5797 C 549.041 -1.23205 2.48426 0
M  V30 5798 H 551.992 -0.255027 1.56637 0
M  V30 5799 H 552.013 -2.76742 2.6114 0
M  V30 5800 H 551.525 -1.27741 3.66475 0
M  V30 5801 H 549.626 -3.12399 2.0307 0
M  V30 5802 H 549.739 -2.80086 3.88701 0
M  V30 5803 H 548.103 -1.56643 2.00836 0
M  V30 5804 H 548.886 -0.609194 3.37852 0
M  V30 5805 N 551.331 -1.39911 -0.725443 0
M  V30 5806 C 552.263 -1.35301 -1.85003 0
M  V30 5807 C 553.276 -0.260102 -1.60709 0
M  V30 5808 O 554.465 -0.519749 -1.70766 0
M  V30 5809 C 551.565 -1.08039 -3.21218 0
M  V30 5810 C 550.738 -2.28793 -3.7279 0
M  V30 5811 C 549.797 -1.97841 -4.87591 0
M  V30 5812 O 548.823 -2.70616 -5.00755 0
M  V30 5813 N 550.025 -0.950367 -5.72668 0
M  V30 5814 H 552.79 -2.32218 -1.89459 0
M  V30 5815 H 550.351 -1.34137 -0.90658 0
M  V30 5816 H 552.343 -0.853354 -3.95601 0
M  V30 5817 H 550.913 -0.198229 -3.11971 0
M  V30 5818 H 550.133 -2.67388 -2.8965 0
M  V30 5819 H 551.421 -3.09317 -4.03981 0
M  V30 5820 H 550.819 -0.347436 -5.64632 0
M  V30 5821 H 549.376 -0.783232 -6.47077 0
M  V30 5822 N 552.809 0.956637 -1.25245 0
M  V30 5823 C 554.086 1.67716 -1.00651 0
M  V30 5824 C 554.466 2.0585 0.467866 0
M  V30 5825 O 553.814 1.77029 1.44475 0
M  V30 5826 C 554.024 2.90093 -1.94028 0
M  V30 5827 C 555.372 3.6209 -2.21756 0
M  V30 5828 O 556.396 3.00171 -1.9177 0
M  V30 5829 O 555.255 4.7358 -2.72735 0
M  V30 5830 H 552.349 0.733731 -0.381533 0
M  V30 5831 H 554.895 1.00974 -1.3639 0
M  V30 5832 H 553.667 2.58689 -2.93591 0
M  V30 5833 H 553.29 3.64566 -1.58674 0
M  V30 5834 N 554.287 1.06798 1.15896 0
M  V30 5835 C 555.564 0.701057 1.82605 0
M  V30 5836 C 555.944 -0.817066 1.94646 0
M  V30 5837 O 555.292 -1.72933 1.49353 0
M  V30 5838 C 555.502 1.40895 3.19296 0
M  V30 5839 C 556.85 1.55744 3.95005 0
M  V30 5840 O 557.874 1.36927 3.28831 0
M  V30 5841 O 556.733 1.86658 5.13635 0
M  V30 5842 H 553.827 0.248791 0.78869 0
M  V30 5843 H 556.373 1.16857 1.23055 0
M  V30 5844 H 555.145 2.4439 3.05596 0
M  V30 5845 H 554.768 0.931847 3.86526 0
M  V30 5846 N 555.766 -1.3263 0.851289 0
M  V30 5847 C 556.994 -2.01563 0.466899 0
M  V30 5848 C 557.409 -1.63996 -0.935447 0
M  V30 5849 O 556.766 -0.85957 -1.6099 0
M  V30 5850 C 556.817 -3.56613 0.592433 0
M  V30 5851 O 556.538 -3.92828 1.93954 0
M  V30 5852 C 558.039 -4.42818 0.206612 0
M  V30 5853 H 555.259 -0.645307 0.183902 0
M  V30 5854 H 557.803 -1.69285 1.1473 0
M  V30 5855 H 555.958 -3.87379 -0.0401936 0
M  V30 5856 H 556.372 -4.87545 1.9339 0
M  V30 5857 H 557.846 -5.50918 0.345462 0
M  V30 5858 H 558.323 -4.30844 -0.85264 0
M  V30 5859 H 558.929 -4.17434 0.814176 0
M  V30 5860 N 557.244 -0.608902 -1.45362 0
M  V30 5861 C 558.192 0.121639 -2.32282 0
M  V30 5862 C 559.186 0.858301 -1.46046 0
M  V30 5863 O 560.392 0.773718 -1.62523 0
M  V30 5864 H 556.767 0.058086 -0.749753 0
M  V30 5865 H 558.738 -0.629866 -2.91677 0
M  V30 5866 C 557.487 1.1047 -3.29684 0
M  V30 5867 H 556.81 0.547278 -3.96036 0
M  V30 5868 H 558.25 1.58576 -3.9323 0
M  V30 5869 C 556.709 2.17891 -2.56954 0
M  V30 5870 O 557.239 3.25652 -2.35189 0
M  V30 5871 N 555.445 1.93211 -2.17066 0
M  V30 5872 H 554.992 1.05584 -2.34967 0
M  V30 5873 H 554.95 2.6529 -1.68727 0
M  V30 5874 N 558.722 1.53707 -0.348139 0
M  V30 5875 C 559.947 2.05877 0.250883 0
M  V30 5876 C 560.372 1.22115 1.43072 0
M  V30 5877 O 559.73 0.235986 1.79758 0
M  V30 5878 C 559.778 3.54886 0.639416 0
M  V30 5879 O 558.882 3.73948 1.73888 0
M  V30 5880 H 558.223 0.662754 0.040653 0
M  V30 5881 H 560.753 1.98303 -0.503685 0
M  V30 5882 H 560.763 3.97601 0.915295 0
M  V30 5883 H 559.438 4.153 -0.223386 0
M  V30 5884 H 558.015 3.43134 1.45991 0
M  V30 5885 N 560.2 0.0768682 1.57412 0
M  V30 5886 C 561.448 -0.589918 1.93299 0
M  V30 5887 C 561.769 -1.69842 0.958049 0
M  V30 5888 O 561.039 -1.95899 0.00703261 0
M  V30 5889 H 559.619 -0.220901 0.713591 0
M  V30 5890 H 562.281 0.135917 1.94425 0
M  V30 5891 H 561.377 -1.01195 2.95239 0
M  V30 5892 N 561.678 -1.56367 -0.196722 0
M  V30 5893 C 562.611 -1.89475 -1.2718 0
M  V30 5894 C 563.589 -0.754667 -1.44026 0
M  V30 5895 O 564.773 -1.00551 -1.59442 0
M  V30 5896 C 561.9 -2.12352 -2.63864 0
M  V30 5897 C 560.946 -3.35053 -2.63897 0
M  V30 5898 S 561.779 -4.90228 -2.15492 0
M  V30 5899 C 562.935 -5.16171 -3.54004 0
M  V30 5900 H 563.168 -2.80365 -0.989075 0
M  V30 5901 H 560.701 -1.49125 -0.40014 0
M  V30 5902 H 562.659 -2.26214 -3.42545 0
M  V30 5903 H 561.32 -1.22214 -2.89349 0
M  V30 5904 H 560.513 -3.48182 -3.64397 0
M  V30 5905 H 560.115 -3.20176 -1.93296 0
M  V30 5906 H 562.407 -5.06591 -4.49857 0
M  V30 5907 H 563.35 -6.17938 -3.45771 0
M  V30 5908 H 563.758 -4.43814 -3.48841 0
M  V30 5909 N 563.156 0.464375 -1.50603 0
M  V30 5910 C 564.381 1.24372 -1.65971 0
M  V30 5911 C 564.806 1.84901 -0.345453 0
M  V30 5912 O 564.164 1.67596 0.691457 0
M  V30 5913 C 564.212 2.32331 -2.7578 0
M  V30 5914 O 563.316 3.37146 -2.375 0
M  V30 5915 H 562.657 0.365604 -0.554283 0
M  V30 5916 H 565.187 0.55183 -1.97018 0
M  V30 5917 H 565.197 2.77539 -2.99059 0
M  V30 5918 H 563.872 1.87648 -3.71162 0
M  V30 5919 H 562.449 2.97602 -2.24694 0
M  V30 5920 N 564.634 1.40294 0.718013 0
M  V30 5921 C 565.883 1.37746 1.4734 0
M  V30 5922 C 566.196 -0.0180754 1.95592 0
M  V30 5923 O 567.402 -0.166166 2.70991 0
M  V30 5924 C 565.858 2.4208 2.66318 0
M  V30 5925 C 565.466 3.87432 2.24945 0
M  V30 5926 C 567.21 2.48635 3.44065 0
M  V30 5927 C 565.117 4.83368 3.40748 0
M  V30 5928 H 564.047 0.512165 0.553356 0
M  V30 5929 H 566.698 1.66019 0.781661 0
M  V30 5930 H 565.08 2.06903 3.3765 0
M  V30 5931 H 566.254 4.3174 1.6105 0
M  V30 5932 H 564.569 3.8433 1.60249 0
M  V30 5933 H 567.166 3.17499 4.30231 0
M  V30 5934 H 567.509 1.51611 3.87711 0
M  V30 5935 H 568.042 2.82791 2.79775 0
M  V30 5936 H 564.781 5.81716 3.02136 0
M  V30 5937 H 564.301 4.43726 4.03568 0
M  V30 5938 H 565.98 5.03074 4.06848 0
M  V30 5939 N 566.112 -0.949982 1.2575 0
M  V30 5940 C 567.523 -1.50989 1.09815 0
M  V30 5941 C 567.874 -1.93497 -0.324556 0
M  V30 5942 O 566.999 -1.79068 -1.21506 0
M  V30 5943 C 567.594 -2.74394 1.98729 0
M  V30 5944 C 566.153 -3.26682 1.86965 0
M  V30 5945 C 565.3 -1.99498 1.92603 0
M  V30 5946 H 568.251 -0.766387 1.38968 0
M  V30 5947 H 568.272 -3.48383 1.53001 0
M  V30 5948 H 567.784 -2.43425 3.02268 0
M  V30 5949 H 565.885 -3.62461 0.863279 0
M  V30 5950 H 565.998 -3.94383 2.72027 0
M  V30 5951 H 564.362 -2.15005 1.36546 0
M  V30 5952 H 565.145 -1.70871 2.97755 0
M  V30 5953 N 567.59 -1.07411 -1.15328 0
M  V30 5954 C 569.006 -0.799759 -1.38116 0
M  V30 5955 C 569.206 0.59572 -1.92493 0
M  V30 5956 O 568.262 1.35433 -2.13106 0
M  V30 5957 C 569.575 -1.87407 -2.35158 0
M  V30 5958 C 571.123 -1.89889 -2.48819 0
M  V30 5959 C 571.598 -2.96406 -3.49153 0
M  V30 5960 N 573.089 -2.95512 -3.56689 0
M  V30 5961 C 573.824 -3.74575 -4.34144 0
M  V30 5962 N 573.32 -4.63488 -5.14928 0
M  V30 5963 N 575.113 -3.62919 -4.29239 0
M  V30 5964 H 567.264 -1.97411 -0.78374 0
M  V30 5965 H 569.527 -0.856113 -0.407154 0
M  V30 5966 H 569.233 -2.8768 -2.0232 0
M  V30 5967 H 569.107 -1.73471 -3.34944 0
M  V30 5968 H 571.494 -0.902677 -2.80955 0
M  V30 5969 H 571.575 -2.07904 -1.49029 0
M  V30 5970 H 571.219 -3.96227 -3.17752 0
M  V30 5971 H 571.149 -2.75638 -4.48699 0
M  V30 5972 H 573.64 -2.31061 -2.99031 0
M  V30 5973 H 573.953 -5.20445 -5.71276 0
M  V30 5974 H 572.298 -4.67537 -5.14232 0
M  V30 5975 H 575.489 -2.92833 -3.65194 0
M  V30 5976 H 575.662 -4.24777 -4.89355 0
M  V30 5977 N 569.068 1.32177 -0.85831 0
M  V30 5978 C 570.314 1.97417 -0.46417 0
M  V30 5979 C 570.647 1.67746 0.978514 0
M  V30 5980 O 569.922 0.967654 1.68721 0
M  V30 5981 C 570.205 3.53069 -0.708094 0
M  V30 5982 C 570.058 3.92357 -2.19946 0
M  V30 5983 C 571.377 4.39783 -0.166881 0
M  V30 5984 H 568.496 0.717097 -0.17012 0
M  V30 5985 H 571.138 1.56499 -1.07741 0
M  V30 5986 H 569.288 3.88054 -0.186128 0
M  V30 5987 H 570.96 3.67533 -2.78779 0
M  V30 5988 H 569.203 3.41384 -2.67656 0
M  V30 5989 H 569.874 5.00841 -2.32082 0
M  V30 5990 H 572.35 4.11556 -0.613285 0
M  V30 5991 H 571.226 5.47671 -0.367093 0
M  V30 5992 H 571.487 4.32196 0.930559 0
M  V30 5993 N 570.547 0.616602 1.45037 0
M  V30 5994 C 571.495 -0.109318 2.32343 0
M  V30 5995 C 572.489 -0.850543 1.465 0
M  V30 5996 O 573.695 -0.765088 1.62931 0
M  V30 5997 H 570.07 -0.0541091 0.750051 0
M  V30 5998 H 572.041 0.645326 2.91338 0
M  V30 5999 C 570.79 -1.0872 3.30266 0
M  V30 6000 H 570.113 -0.526267 3.96321 0
M  V30 6001 H 571.553 -1.56489 3.94065 0
M  V30 6002 C 570.012 -2.16525 2.58105 0
M  V30 6003 O 570.542 -3.244 2.36913 0
M  V30 6004 N 568.748 -1.92057 2.18088 0
M  V30 6005 H 568.295 -1.04337 2.35524 0
M  V30 6006 H 568.253 -2.64391 1.70131 0
M  V30 6007 N 572.025 -1.5352 0.356285 0
M  V30 6008 C 573.436 -1.86282 -0.12492 0
M  V30 6009 C 573.787 -1.27717 -1.48939 0
M  V30 6010 O 572.912 -0.595614 -2.08042 0
M  V30 6011 C 573.507 -3.37995 -0.23345 0
M  V30 6012 C 572.066 -3.70588 -0.658899 0
M  V30 6013 C 571.213 -2.76581 0.199596 0
M  V30 6014 H 574.164 -1.47901 0.575423 0
M  V30 6015 H 574.185 -3.65475 -1.0587 0
M  V30 6016 H 573.697 -3.8059 0.759776 0
M  V30 6017 H 571.798 -3.33544 -1.66069 0
M  V30 6018 H 571.911 -4.77076 -0.439957 0
M  V30 6019 H 570.275 -2.52552 -0.330076 0
M  V30 6020 H 571.058 -3.22008 1.19019 0
M  V30 6021 N 573.503 -0.0852151 -1.57369 0
M  V30 6022 C 574.728 0.592872 -1.98746 0
M  V30 6023 C 575.153 1.61538 -0.963689 0
M  V30 6024 O 574.511 1.81168 0.069071 0
M  V30 6025 C 574.559 1.22599 -3.39119 0
M  V30 6026 O 573.663 2.34185 -3.39457 0
M  V30 6027 H 573.004 0.151314 -0.646529 0
M  V30 6028 H 575.534 -0.163703 -2.03944 0
M  V30 6029 H 575.544 1.56965 -3.76598 0
M  V30 6030 H 574.219 0.476831 -4.13158 0
M  V30 6031 H 572.796 2.01512 -3.13763 0
M  V30 6032 N 574.981 1.5647 0.188427 0
M  V30 6033 C 576.227 1.81281 0.909124 0
M  V30 6034 C 576.56 0.66034 1.82628 0
M  V30 6035 O 575.835 -0.338737 1.91528 0
M  V30 6036 C 576.118 3.16388 1.7196 0
M  V30 6037 C 575.971 4.42137 0.826714 0
M  V30 6038 C 577.29 3.48256 2.69083 0
M  V30 6039 H 574.409 0.659457 0.329068 0
M  V30 6040 H 577.051 1.89182 0.176156 0
M  V30 6041 H 575.201 3.09784 2.34448 0
M  V30 6042 H 576.873 4.60794 0.216025 0
M  V30 6043 H 575.116 4.33594 0.133792 0
M  V30 6044 H 575.787 5.33184 1.42893 0
M  V30 6045 H 578.263 3.55203 2.16726 0
M  V30 6046 H 577.139 4.43899 3.2287 0
M  V30 6047 H 577.4 2.72088 3.48455 0
M  V30 6048 N 576.459 -0.456382 1.50847 0
M  V30 6049 C 577.407 -1.57318 1.71329 0
M  V30 6050 C 578.401 -1.59187 0.579287 0
M  V30 6051 O 579.607 -1.6316 0.76018 0
M  V30 6052 H 575.982 -0.5223 0.541024 0
M  V30 6053 H 577.953 -1.3721 2.64983 0
M  V30 6054 C 576.702 -2.95142 1.83811 0
M  V30 6055 H 576.025 -2.94428 2.70467 0
M  V30 6056 H 577.465 -3.72702 2.02161 0
M  V30 6057 C 575.924 -3.31636 0.593224 0
M  V30 6058 O 576.454 -4.00852 -0.260898 0
M  V30 6059 N 574.66 -2.87205 0.442902 0
M  V30 6060 H 574.207 -2.31051 1.13901 0
M  V30 6061 H 574.165 -3.11986 -0.38884 0
M  V30 6062 N 577.937 -1.40673 -0.710563 0
M  V30 6063 C 579.348 -1.34975 -1.28991 0
M  V30 6064 C 579.699 -0.0256272 -1.96183 0
M  V30 6065 O 578.824 0.876339 -1.97862 0
M  V30 6066 C 579.419 -2.44467 -2.34567 0
M  V30 6067 C 577.978 -2.42213 -2.88114 0
M  V30 6068 C 577.125 -2.25085 -1.61963 0
M  V30 6069 H 580.076 -1.50406 -0.506343 0
M  V30 6070 H 580.097 -2.12663 -3.15523 0
M  V30 6071 H 579.609 -3.40825 -1.85634 0
M  V30 6072 H 577.71 -1.49568 -3.41263 0
M  V30 6073 H 577.823 -3.37983 -3.39565 0
M  V30 6074 H 576.187 -1.72691 -1.87216 0
M  V30 6075 H 576.97 -3.23449 -1.15047 0
M  V30 6076 N 579.415 0.9433 -1.26252 0
M  V30 6077 C 580.64 1.72898 -1.14547 0
M  V30 6078 C 581.065 1.85761 0.295743 0
M  V30 6079 O 580.423 1.3463 1.21427 0
M  V30 6080 C 580.471 3.11471 -1.8171 0
M  V30 6081 O 579.575 3.97336 -1.10445 0
M  V30 6082 H 578.916 0.530555 -0.399259 0
M  V30 6083 H 581.446 1.18159 -1.67032 0
M  V30 6084 H 581.456 3.61872 -1.88449 0
M  V30 6085 H 580.131 3.01425 -2.86558 0
M  V30 6086 H 578.708 3.55788 -1.11666 0
M  V30 6087 N 580.893 1.08022 1.14757 0
M  V30 6088 C 582.142 0.802468 1.8505 0
M  V30 6089 C 582.455 -0.674061 1.83619 0
M  V30 6090 O 583.661 -1.06683 2.49662 0
M  V30 6091 C 582.117 1.38551 3.32162 0
M  V30 6092 C 581.725 2.89354 3.42021 0
M  V30 6093 C 583.469 1.18608 4.07594 0
M  V30 6094 C 581.376 3.40815 4.83321 0
M  V30 6095 H 580.306 0.296518 0.693248 0
M  V30 6096 H 582.957 1.30114 1.29393 0
M  V30 6097 H 581.339 0.814556 3.87532 0
M  V30 6098 H 582.513 3.52552 2.96722 0
M  V30 6099 H 580.828 3.08165 2.80041 0
M  V30 6100 H 583.425 1.54525 5.11885 0
M  V30 6101 H 583.768 0.125599 4.1611 0
M  V30 6102 H 584.301 1.72375 3.58513 0
M  V30 6103 H 581.04 4.46418 4.79991 0
M  V30 6104 H 580.56 2.82374 5.29174 0
M  V30 6105 H 582.239 3.37171 5.522 0
M  V30 6106 N 582.371 -1.3172 0.865308 0
M  V30 6107 C 583.596 -2.01591 0.487415 0
M  V30 6108 C 584.021 -1.6455 -0.911307 0
M  V30 6109 O 583.379 -0.851689 -1.6005 0
M  V30 6110 C 583.427 -3.54759 0.646401 0
M  V30 6111 O 582.531 -4.11185 -0.316284 0
M  V30 6112 H 581.872 -0.634884 0.194468 0
M  V30 6113 H 584.402 -1.68024 1.16744 0
M  V30 6114 H 584.412 -4.04438 0.537932 0
M  V30 6115 H 583.087 -3.8106 1.66632 0
M  V30 6116 H 581.664 -3.72543 -0.163162 0
M  V30 6117 N 583.85 -0.624285 -1.44708 0
M  V30 6118 C 585.26 -0.2092 -1.85524 0
M  V30 6119 C 585.611 1.23783 -1.52225 0
M  V30 6120 O 584.736 1.94089 -0.956986 0
M  V30 6121 C 585.332 -0.372897 -3.36742 0
M  V30 6122 C 583.891 -0.012374 -3.76398 0
M  V30 6123 C 583.038 -0.68951 -2.68591 0
M  V30 6124 H 585.989 -0.829894 -1.35272 0
M  V30 6125 H 586.01 0.390134 -3.78495 0
M  V30 6126 H 585.522 -1.42615 -3.60947 0
M  V30 6127 H 583.623 1.03941 -3.57809 0
M  V30 6128 H 583.736 -0.417663 -4.77276 0
M  V30 6129 H 582.1 -0.125484 -2.54391 0
M  V30 6130 H 582.883 -1.74522 -2.9563 0
M  V30 6131 N 585.328 1.53329 -0.364422 0
M  V30 6132 C 586.291 2.24323 0.470292 0
M  V30 6133 C 587.291 1.25068 1.01067 0
M  V30 6134 O 588.481 1.49354 0.896605 0
M  V30 6135 C 585.613 2.97908 1.65722 0
M  V30 6136 H 586.806 2.9952 -0.150917 0
M  V30 6137 H 584.359 1.55868 -0.116092 0
M  V30 6138 H 585.094 2.2695 2.31655 0
M  V30 6139 H 584.879 3.70732 1.27671 0
M  V30 6140 H 586.369 3.5188 2.24878 0
M  V30 6141 N 586.806 0.0935595 1.57322 0
M  V30 6142 C 587.756 -0.876521 2.10478 0
M  V30 6143 C 588.74 -1.24482 1.01946 0
M  V30 6144 O 589.932 -1.22016 1.28223 0
M  V30 6145 C 587.061 -2.13615 2.68745 0
M  V30 6146 C 586.147 -1.79335 3.84317 0
M  V30 6147 N 586.538 -1.15606 4.92411 0
M  V30 6148 C 584.836 -2.08954 3.94023 0
M  V30 6149 C 585.537 -0.999036 5.73057 0
M  V30 6150 N 584.513 -1.51585 5.22037 0
M  V30 6151 H 588.315 -0.379829 2.91435 0
M  V30 6152 H 585.829 -0.109699 1.62029 0
M  V30 6153 H 587.826 -2.84053 3.05155 0
M  V30 6154 H 586.486 -2.63851 1.89242 0
M  V30 6155 H 587.497 -0.823063 5.11318 0
M  V30 6156 H 584.174 -2.61416 3.25527 0
M  V30 6157 H 585.564 -0.500772 6.70031 0
M  V30 6158 N 588.284 -1.56567 -0.180126 0
M  V30 6159 C 589.532 -1.81133 -0.896392 0
M  V30 6160 C 589.853 -0.669114 -1.83161 0
M  V30 6161 O 589.123 0.311616 -1.93406 0
M  V30 6162 H 587.703 -0.668172 -0.333999 0
M  V30 6163 H 590.365 -1.94048 -0.182051 0
M  V30 6164 H 589.461 -2.74854 -1.47857 0
M  V30 6165 N 589.762 0.448376 -1.51087 0
M  V30 6166 C 591.008 1.20049 -1.6345 0
M  V30 6167 C 591.341 1.91121 -0.344444 0
M  V30 6168 O 590.616 1.83125 0.655396 0
M  V30 6169 C 590.899 2.22624 -2.83038 0
M  V30 6170 C 590.752 1.55708 -4.21989 0
M  V30 6171 C 592.071 3.23718 -2.98152 0
M  V30 6172 H 589.19 0.435085 -0.59487 0
M  V30 6173 H 591.832 0.491183 -1.83541 0
M  V30 6174 H 589.982 2.83117 -2.66039 0
M  V30 6175 H 591.654 0.986367 -4.50631 0
M  V30 6176 H 589.897 0.859647 -4.25197 0
M  V30 6177 H 590.568 2.30357 -5.01637 0
M  V30 6178 H 593.044 2.73269 -3.13788 0
M  V30 6179 H 591.92 3.92795 -3.83411 0
M  V30 6180 H 592.181 3.89179 -2.09743 0
M  V30 6181 N 591.24 1.41047 0.703093 0
M  V30 6182 C 592.203 1.42036 1.79884 0
M  V30 6183 C 593.203 0.312153 1.57741 0
M  V30 6184 O 594.393 0.571672 1.64553 0
M  V30 6185 C 591.525 1.22437 3.18154 0
M  V30 6186 H 592.718 2.39572 1.80403 0
M  V30 6187 H 590.271 1.27079 0.909977 0
M  V30 6188 H 591.006 0.257112 3.23279 0
M  V30 6189 H 590.791 2.02723 3.35627 0
M  V30 6190 H 592.281 1.25946 3.98155 0
M  V30 6191 N 592.718 -0.936591 1.26751 0
M  V30 6192 C 594.134 -1.21095 1.03963 0
M  V30 6193 C 594.334 -2.00156 -0.232372 0
M  V30 6194 O 593.39 -2.3434 -0.940274 0
M  V30 6195 C 594.703 -1.96775 2.27377 0
M  V30 6196 C 596.251 -2.09749 2.32324 0
M  V30 6197 C 596.726 -2.88832 3.55443 0
M  V30 6198 N 598.217 -2.96404 3.55948 0
M  V30 6199 C 598.952 -3.58036 4.47881 0
M  V30 6200 N 598.448 -4.21132 5.50109 0
M  V30 6201 N 600.241 -3.55353 4.35523 0
M  V30 6202 H 592.392 -0.408173 2.08441 0
M  V30 6203 H 594.655 -0.243139 0.91629 0
M  V30 6204 H 594.361 -1.46094 3.19921 0
M  V30 6205 H 594.235 -2.97424 2.31989 0
M  V30 6206 H 596.622 -2.5962 1.40291 0
M  V30 6207 H 596.703 -1.08347 2.31721 0
M  V30 6208 H 596.347 -2.39647 4.47808 0
M  V30 6209 H 596.277 -3.90499 3.53296 0
M  V30 6210 H 598.768 -2.51552 2.82011 0
M  V30 6211 H 599.081 -4.66071 6.16439 0
M  V30 6212 H 597.426 -4.19705 5.53961 0
M  V30 6213 H 600.617 -3.05256 3.54875 0
M  V30 6214 H 600.79 -4.03097 5.07363 0
M  V30 6215 N 594.196 -1.08629 -1.14182 0
M  V30 6216 C 595.421 -0.83902 -1.89671 0
M  V30 6217 C 595.846 0.603332 -1.78161 0
M  V30 6218 O 595.204 1.42301 -1.12339 0
M  V30 6219 C 595.252 -1.26854 -3.37551 0
M  V30 6220 O 594.356 -0.42188 -4.10236 0
M  V30 6221 H 593.697 -0.304545 -0.590041 0
M  V30 6222 H 596.227 -1.4483 -1.44518 0
M  V30 6223 H 596.237 -1.25038 -3.88368 0
M  V30 6224 H 594.912 -2.31901 -3.45246 0
M  V30 6225 H 593.489 -0.503654 -3.69483 0
M  V30 6226 N 595.674 1.31259 -0.872281 0
M  V30 6227 C 596.899 2.0133 -0.498099 0
M  V30 6228 C 597.324 1.65031 0.902568 0
M  V30 6229 O 596.682 0.860164 1.59596 0
M  V30 6230 C 596.73 3.54411 -0.665205 0
M  V30 6231 O 595.834 4.11347 0.294473 0
M  V30 6232 H 595.175 0.633844 -0.197832 0
M  V30 6233 H 597.705 1.67402 -1.17633 0
M  V30 6234 H 597.715 4.04147 -0.559373 0
M  V30 6235 H 596.39 3.80171 -1.68651 0
M  V30 6236 H 594.967 3.72624 0.143403 0
M  V30 6237 N 597.152 0.631951 1.44375 0
M  V30 6238 C 598.38 0.143867 2.06399 0
M  V30 6239 C 598.795 -1.18188 1.47231 0
M  V30 6240 O 598.152 -1.72511 0.595498 0
M  V30 6241 C 598.203 0.0238253 3.61492 0
M  V30 6242 O 597.924 1.29715 4.18456 0
M  V30 6243 C 599.425 -0.492856 4.40552 0
M  V30 6244 H 596.645 0.0800542 0.666207 0
M  V30 6245 H 599.189 0.866586 1.85231 0
M  V30 6246 H 597.344 -0.649338 3.81919 0
M  V30 6247 H 597.758 1.14252 5.11905 0
M  V30 6248 H 599.232 -0.525861 5.49489 0
M  V30 6249 H 599.709 -1.52006 4.12057 0
M  V30 6250 H 600.315 0.147085 4.25046 0
M  V30 6251 N 598.631 -1.53133 0.372548 0
M  V30 6252 C 599.561 -2.28876 -0.462412 0
M  V30 6253 C 600.542 -1.31583 -1.07796 0
M  V30 6254 O 601.727 -1.60461 -1.09389 0
M  V30 6255 C 598.857 -3.08317 -1.59868 0
M  V30 6256 C 597.811 -4.13355 -1.11003 0
M  V30 6257 C 597.137 -4.8092 -2.33708 0
M  V30 6258 C 598.437 -5.21955 -0.18983 0
M  V30 6259 H 600.131 -2.9892 0.169511 0
M  V30 6260 H 597.677 -1.43761 0.0829658 0
M  V30 6261 H 599.63 -3.60055 -2.18949 0
M  V30 6262 H 598.354 -2.35976 -2.25794 0
M  V30 6263 H 597.013 -3.62573 -0.541869 0
M  V30 6264 H 596.661 -4.05144 -2.98106 0
M  V30 6265 H 596.361 -5.51904 -2.01682 0
M  V30 6266 H 597.885 -5.35455 -2.93462 0
M  V30 6267 H 599.299 -5.69153 -0.688319 0
M  V30 6268 H 597.696 -6.00087 0.0398887 0
M  V30 6269 H 598.766 -4.78811 0.766057 0
M  V30 6270 N 600.109 -0.101901 -1.5727 0
M  V30 6271 C 601.52 0.426173 -1.81771 0
M  V30 6272 C 601.871 1.67725 -1.01797 0
M  V30 6273 O 600.996 2.14958 -0.249386 0
M  V30 6274 C 601.591 0.779962 -3.297 0
M  V30 6275 C 600.15 1.25275 -3.54941 0
M  V30 6276 C 599.297 0.252814 -2.76145 0
M  V30 6277 H 602.248 -0.32726 -1.55289 0
M  V30 6278 H 602.269 1.63891 -3.43395 0
M  V30 6279 H 601.781 -0.130778 -3.8788 0
M  V30 6280 H 599.882 2.18097 -3.021 0
M  V30 6281 H 599.995 1.20988 -4.63572 0
M  V30 6282 H 598.359 0.736362 -2.43823 0
M  V30 6283 H 599.142 -0.650724 -3.37076 0
M  V30 6284 N 601.587 1.56661 0.17182 0
M  V30 6285 C 602.998 1.71652 0.734329 0
M  V30 6286 C 603.349 0.712335 1.82812 0
M  V30 6287 O 602.474 -0.126401 2.16031 0
M  V30 6288 C 603.069 3.11226 1.3388 0
M  V30 6289 C 601.628 3.27904 1.84813 0
M  V30 6290 C 600.775 2.67603 0.726917 0
M  V30 6291 H 603.726 1.5861 -0.0535665 0
M  V30 6292 H 603.747 3.09849 2.20849 0
M  V30 6293 H 603.259 3.8429 0.54249 0
M  V30 6294 H 601.36 2.59796 2.6709 0
M  V30 6295 H 601.473 4.35637 1.99392 0
M  V30 6296 H 599.837 2.274 1.14723 0
M  V30 6297 H 600.62 3.43252 -0.0575334 0
M  V30 6298 N 603.065 -0.440357 1.51323 0
M  V30 6299 C 604.29 -1.21716 1.67928 0
M  V30 6300 C 604.715 -1.84328 0.374826 0
M  V30 6301 O 604.073 -1.68675 -0.664706 0
M  V30 6302 C 604.121 -2.27914 2.79442 0
M  V30 6303 O 603.225 -3.33325 2.42834 0
M  V30 6304 H 602.566 -0.35674 0.560029 0
M  V30 6305 H 605.096 -0.520417 1.97871 0
M  V30 6306 H 605.106 -2.72746 3.03436 0
M  V30 6307 H 603.781 -1.8172 3.741 0
M  V30 6308 H 602.358 -2.9399 2.294 0
M  V30 6309 N 604.543 -1.41418 -0.695603 0
M  V30 6310 C 605.491 -1.43467 -1.83084 0
M  V30 6311 C 606.485 -0.312719 -1.66489 0
M  V30 6312 O 607.691 -0.484744 -1.7335 0
M  V30 6313 H 604.066 -0.448891 -0.603325 0
M  V30 6314 H 606.037 -2.39144 -1.78473 0
M  V30 6315 C 604.786 -1.3337 -3.21104 0
M  V30 6316 H 604.109 -2.18989 -3.3449 0
M  V30 6317 H 605.549 -1.38865 -4.00615 0
M  V30 6318 C 604.008 -0.0460484 -3.36869 0
M  V30 6319 O 604.538 0.909258 -3.91274 0
M  V30 6320 N 602.744 0.0300222 -2.90584 0
M  V30 6321 H 602.291 -0.748129 -2.46497 0
M  V30 6322 H 602.249 0.890991 -3.01511 0
M  V30 6323 N 606.021 0.929856 -1.27246 0
M  V30 6324 C 607.246 1.71674 -1.16374 0
M  V30 6325 C 607.671 1.86064 0.276024 0
M  V30 6326 O 607.029 1.3591 1.19992 0
M  V30 6327 C 607.077 3.09526 -1.85003 0
M  V30 6328 O 606.181 3.96142 -1.14653 0
M  V30 6329 H 605.522 0.52629 -0.404863 0
M  V30 6330 H 608.052 1.16381 -1.68276 0
M  V30 6331 H 608.062 3.59852 -1.92276 0
M  V30 6332 H 606.737 2.98369 -2.89739 0
M  V30 6333 H 605.314 3.54584 -1.15433 0
M  V30 6334 N 607.499 1.09233 1.13605 0
M  V30 6335 C 608.447 0.724572 2.21027 0
M  V30 6336 C 609.441 -0.273595 1.67176 0
M  V30 6337 O 610.647 -0.135266 1.79491 0
M  V30 6338 H 607.022 0.216319 0.720215 0
M  V30 6339 H 608.993 1.63975 2.49309 0
M  V30 6340 C 607.742 0.159126 3.47336 0
M  V30 6341 H 607.065 0.918387 3.89109 0
M  V30 6342 H 608.505 -0.0602851 4.23957 0
M  V30 6343 C 606.964 -1.10514 3.18258 0
M  V30 6344 O 607.494 -2.18869 3.36837 0
M  V30 6345 N 605.7 -1.01886 2.72154 0
M  V30 6346 H 605.247 -0.137027 2.57235 0
M  V30 6347 H 605.205 -1.8655 2.53074 0
M  V30 6348 N 608.977 -1.30795 0.87923 0
M  V30 6349 C 609.91 -2.26396 0.286404 0
M  V30 6350 C 610.888 -1.51528 -0.589748 0
M  V30 6351 O 612.072 -1.80566 -0.541119 0
M  V30 6352 C 609.199 -3.33458 -0.593581 0
M  V30 6353 C 608.245 -4.2597 0.21247 0
M  V30 6354 S 609.078 -5.11132 1.59702 0
M  V30 6355 C 610.234 -6.21705 0.723408 0
M  V30 6356 H 610.467 -2.7633 1.09677 0
M  V30 6357 H 608 -1.38703 0.678305 0
M  V30 6358 H 609.958 -3.9561 -1.09557 0
M  V30 6359 H 608.619 -2.82259 -1.37799 0
M  V30 6360 H 607.812 -5.01907 -0.458822 0
M  V30 6361 H 607.414 -3.68363 0.646883 0
M  V30 6362 H 609.706 -6.77472 -0.0620739 0
M  V30 6363 H 610.649 -6.93007 1.4542 0
M  V30 6364 H 611.057 -5.63771 0.286855 0
M  V30 6365 N 610.455 -0.639598 -1.44038 0
M  V30 6366 C 611.701 -0.147698 -2.02261 0
M  V30 6367 C 612.034 1.23031 -1.50256 0
M  V30 6368 O 611.309 1.81847 -0.690068 0
M  V30 6369 C 611.592 -0.14362 -3.59813 0
M  V30 6370 C 611.445 -1.55458 -4.22082 0
M  V30 6371 C 612.764 0.527317 -4.36929 0
M  V30 6372 H 609.883 -0.0551453 -0.734934 0
M  V30 6373 H 612.525 -0.817688 -1.71505 0
M  V30 6374 H 610.675 0.426898 -3.86147 0
M  V30 6375 H 612.347 -2.17464 -4.06826 0
M  V30 6376 H 610.59 -2.10594 -3.79253 0
M  V30 6377 H 611.261 -1.50369 -5.31124 0
M  V30 6378 H 613.737 0.0420504 -4.16079 0
M  V30 6379 H 612.613 0.499389 -5.46624 0
M  V30 6380 H 612.874 1.59914 -4.12165 0
M  V30 6381 N 611.933 1.52934 -0.380664 0
M  V30 6382 C 613.158 2.06363 0.207157 0
M  V30 6383 C 613.583 1.25122 1.4045 0
M  V30 6384 O 612.941 0.274062 1.79217 0
M  V30 6385 C 612.989 3.56162 0.563996 0
M  V30 6386 O 612.093 3.77552 1.65917 0
M  V30 6387 H 611.434 0.663468 0.0265859 0
M  V30 6388 H 613.964 1.9719 -0.545635 0
M  V30 6389 H 613.974 3.99453 0.830752 0
M  V30 6390 H 612.649 4.14732 -0.311427 0
M  V30 6391 H 611.226 3.46154 1.3868 0
M  V30 6392 N 613.412 0.11024 1.57214 0
M  V30 6393 C 614.64 -0.557834 1.99238 0
M  V30 6394 C 615.055 -1.60778 0.989734 0
M  V30 6395 O 614.412 -1.82491 -0.0186092 0
M  V30 6396 C 614.463 -1.19189 3.41286 0
M  V30 6397 O 614.184 -0.183919 4.37714 0
M  V30 6398 C 615.685 -1.94413 3.98395 0
M  V30 6399 H 612.905 -0.148392 0.654386 0
M  V30 6400 H 615.449 0.193996 2.03578 0
M  V30 6401 H 613.604 -1.89456 3.37913 0
M  V30 6402 H 614.018 -0.643475 5.20538 0
M  V30 6403 H 615.492 -2.34116 4.99894 0
M  V30 6404 H 615.969 -2.81592 3.3705 0
M  V30 6405 H 616.575 -1.28928 4.05287 0
M  V30 6406 N 614.89 -1.56749 -0.16351 0
M  V30 6407 C 616.306 -1.51043 -0.515567 0
M  V30 6408 C 616.506 -0.815855 -1.84245 0
M  V30 6409 O 615.562 -0.379477 -2.49632 0
M  V30 6410 C 616.875 -2.95791 -0.541114 0
M  V30 6411 C 618.423 -3.0664 -0.627776 0
M  V30 6412 C 618.898 -4.52861 -0.684141 0
M  V30 6413 N 620.389 -4.5714 -0.746818 0
M  V30 6414 C 621.124 -5.67634 -0.811137 0
M  V30 6415 N 620.62 -6.8774 -0.835811 0
M  V30 6416 N 622.413 -5.55624 -0.850756 0
M  V30 6417 H 614.564 -2.00307 0.70645 0
M  V30 6418 H 616.827 -0.912876 0.255659 0
M  V30 6419 H 616.533 -3.49797 0.365329 0
M  V30 6420 H 616.407 -3.50858 -1.38487 0
M  V30 6421 H 618.794 -2.52663 -1.52464 0
M  V30 6422 H 618.875 -2.54645 0.242805 0
M  V30 6423 H 618.519 -5.07472 0.2085 0
M  V30 6424 H 618.449 -5.02621 -1.57098 0
M  V30 6425 H 620.94 -3.70669 -0.735717 0
M  V30 6426 H 621.253 -7.67701 -0.886279 0
M  V30 6427 H 619.598 -6.90334 -0.803958 0
M  V30 6428 H 622.789 -4.60709 -0.828535 0
M  V30 6429 H 622.962 -6.41756 -0.897418 0
M  V30 6430 N 616.368 0.432326 -1.51554 0
M  V30 6431 C 617.617 1.17831 -1.63703 0
M  V30 6432 C 617.93 1.92229 -0.36156 0
M  V30 6433 O 619.136 2.69069 -0.362495 0
M  V30 6434 C 617.592 2.14318 -2.89129 0
M  V30 6435 C 617.2 1.45544 -4.23699 0
M  V30 6436 C 618.944 2.89319 -3.10636 0
M  V30 6437 C 616.851 2.40545 -5.4027 0
M  V30 6438 H 615.781 0.443533 -0.60975 0
M  V30 6439 H 618.432 0.444878 -1.78026 0
M  V30 6440 H 616.814 2.91117 -2.68452 0
M  V30 6441 H 617.988 0.742693 -4.54775 0
M  V30 6442 H 616.303 0.826772 -4.0811 0
M  V30 6443 H 618.9 3.60495 -3.94902 0
M  V30 6444 H 619.243 3.50951 -2.23918 0
M  V30 6445 H 619.776 2.19625 -3.31677 0
M  V30 6446 H 616.515 1.83594 -6.29264 0
M  V30 6447 H 616.035 3.09859 -5.13563 0
M  V30 6448 H 617.714 3.01569 -5.72421 0
M  V30 6449 N 617.846 1.41785 0.688094 0
M  V30 6450 C 618.794 1.44436 1.82321 0
M  V30 6451 C 619.788 0.321544 1.6632 0
M  V30 6452 O 620.994 0.493931 1.73091 0
M  V30 6453 H 617.369 0.452084 0.600936 0
M  V30 6454 H 619.34 2.40087 1.77202 0
M  V30 6455 C 618.089 1.35071 3.20392 0
M  V30 6456 H 617.412 2.2076 3.33324 0
M  V30 6457 H 618.852 1.40988 3.99873 0
M  V30 6458 C 617.311 0.0639127 3.36839 0
M  V30 6459 O 617.841 -0.888495 3.91751 0
M  V30 6460 N 616.047 -0.0146114 2.90596 0
M  V30 6461 H 615.594 0.761191 2.46097 0
M  V30 6462 H 615.552 -0.874988 3.01979 0
M  V30 6463 N 619.324 -0.923095 1.27737 0
M  V30 6464 C 620.74 -1.19985 1.05241 0
M  V30 6465 C 620.94 -2.00391 -0.21113 0
M  V30 6466 O 619.996 -2.35324 -0.915366 0
M  V30 6467 C 621.309 -1.94352 2.29451 0
M  V30 6468 C 622.857 -2.07273 2.34536 0
M  V30 6469 C 623.332 -2.85046 3.58487 0
M  V30 6470 N 624.823 -2.92612 3.59072 0
M  V30 6471 C 625.558 -3.53266 4.51654 0
M  V30 6472 N 625.054 -4.15274 5.54545 0
M  V30 6473 N 626.847 -3.50714 4.39268 0
M  V30 6474 H 618.998 -0.386042 2.08862 0
M  V30 6475 H 621.261 -0.233407 0.918817 0
M  V30 6476 H 620.967 -1.42692 3.21453 0
M  V30 6477 H 620.841 -2.94947 2.3513 0
M  V30 6478 H 623.228 -2.58117 1.43037 0
M  V30 6479 H 623.309 -1.05884 2.32857 0
M  V30 6480 H 622.953 -2.34884 4.50324 0
M  V30 6481 H 622.883 -3.8673 3.57418 0
M  V30 6482 H 625.374 -2.48547 2.84663 0
M  V30 6483 H 625.687 -4.59507 6.21348 0
M  V30 6484 H 624.032 -4.13806 5.58382 0
M  V30 6485 H 627.223 -3.01475 3.58093 0
M  V30 6486 H 627.396 -3.97693 5.1161 0
M  V30 6487 N 620.802 -1.09834 -1.13024 0
M  V30 6488 C 621.734 -0.699379 -2.18269 0
M  V30 6489 C 622.747 0.260841 -1.60697 0
M  V30 6490 O 623.936 0.0462538 -1.7844 0
M  V30 6491 C 621.036 -0.0104537 -3.38898 0
M  V30 6492 C 620.209 -0.993275 -4.25973 0
M  V30 6493 C 619.268 -0.336982 -5.2512 0
M  V30 6494 O 618.294 -0.985892 -5.60597 0
M  V30 6495 N 619.496 0.90716 -5.73368 0
M  V30 6496 H 622.261 -1.60486 -2.5311 0
M  V30 6497 H 619.822 -0.986337 -1.28386 0
M  V30 6498 H 621.814 0.43991 -4.02302 0
M  V30 6499 H 620.384 0.797335 -3.0226 0
M  V30 6500 H 619.604 -1.62208 -3.5928 0
M  V30 6501 H 620.892 -1.65876 -4.81002 0
M  V30 6502 H 620.29 1.45384 -5.46699 0
M  V30 6503 H 618.847 1.30077 -6.38689 0
M  V30 6504 N 622.28 1.30327 -0.886154 0
M  V30 6505 C 623.212 2.27079 -0.311072 0
M  V30 6506 C 624.225 1.53758 0.53502 0
M  V30 6507 O 625.414 1.74947 0.354378 0
M  V30 6508 C 622.514 3.33965 0.576228 0
M  V30 6509 C 621.687 4.36735 -0.241064 0
M  V30 6510 C 620.746 5.23028 0.576916 0
M  V30 6511 O 619.772 5.692 -0.000802231 0
M  V30 6512 N 620.974 5.49016 1.88579 0
M  V30 6513 H 623.739 2.77065 -1.14259 0
M  V30 6514 H 621.3 1.43519 -0.749258 0
M  V30 6515 H 623.292 3.88618 1.12953 0
M  V30 6516 H 621.862 2.839 1.30842 0
M  V30 6517 H 621.082 3.81932 -0.975805 0
M  V30 6518 H 622.37 5.02451 -0.801272 0
M  V30 6519 H 621.768 5.13288 2.37806 0
M  V30 6520 H 620.325 6.06539 2.38651 0
M  V30 6521 N 623.758 0.647228 1.43697 0
M  V30 6522 C 624.983 0.164083 2.0675 0
M  V30 6523 C 625.408 -1.15892 1.48158 0
M  V30 6524 O 624.766 -1.71459 0.589194 0
M  V30 6525 C 624.814 0.0800368 3.60511 0
M  V30 6526 O 623.918 -0.959453 4.01084 0
M  V30 6527 H 623.259 0.0921288 0.657578 0
M  V30 6528 H 625.789 0.88846 1.84303 0
M  V30 6529 H 625.799 -0.105263 4.07864 0
M  V30 6530 H 624.474 1.04586 4.02535 0
M  V30 6531 H 623.051 -0.747425 3.65333 0
M  V30 6532 N 625.236 -1.5273 0.388769 0
M  V30 6533 C 626.461 -2.0647 -0.19621 0
M  V30 6534 C 626.886 -1.25865 -1.39784 0
M  V30 6535 O 626.244 -0.283562 -1.79069 0
M  V30 6536 C 626.292 -3.56456 -0.5451 0
M  V30 6537 O 625.396 -3.78426 -1.63912 0
M  V30 6538 H 624.737 -0.663599 -0.023067 0
M  V30 6539 H 627.267 -1.96898 0.556084 0
M  V30 6540 H 627.277 -3.99888 -0.809557 0
M  V30 6541 H 625.952 -4.14561 0.333417 0
M  V30 6542 H 624.529 -3.46884 -1.36842 0
M  V30 6543 N 626.714 -0.118576 -1.57153 0
M  V30 6544 C 627.991 0.583062 -1.86708 0
M  V30 6545 C 628.371 1.84841 -1.01967 0
M  V30 6546 O 627.719 2.28288 -0.0984673 0
M  V30 6547 C 627.929 0.875912 -3.3783 0
M  V30 6548 C 629.277 1.22916 -4.0642 0
M  V30 6549 O 630.301 0.966188 -3.42846 0
M  V30 6550 O 629.16 1.72269 -5.18638 0
M  V30 6551 H 626.254 0.294185 -0.772906 0
M  V30 6552 H 628.8 -0.153048 -1.69008 0
M  V30 6553 H 627.572 -0.0207776 -3.91294 0
M  V30 6554 H 627.195 1.66719 -3.60958 0
M  V30 6555 N 628.193 1.56834 0.155195 0
M  V30 6556 C 629.123 2.00678 1.19376 0
M  V30 6557 C 630.104 0.884973 1.45266 0
M  V30 6558 O 631.289 1.1522 1.56326 0
M  V30 6559 C 628.419 2.38042 2.5289 0
M  V30 6560 C 627.373 3.53332 2.41538 0
M  V30 6561 C 626.699 3.76485 3.79688 0
M  V30 6562 C 627.999 4.86265 1.9064 0
M  V30 6563 H 629.693 2.87688 0.829232 0
M  V30 6564 H 627.239 1.38407 0.397445 0
M  V30 6565 H 629.192 2.67314 3.25763 0
M  V30 6566 H 627.916 1.4796 2.91162 0
M  V30 6567 H 626.575 3.24213 1.71117 0
M  V30 6568 H 626.223 2.83667 4.15382 0
M  V30 6569 H 625.923 4.54068 3.72956 0
M  V30 6570 H 627.447 4.08174 4.54122 0
M  V30 6571 H 628.861 5.14308 2.53299 0
M  V30 6572 H 627.258 5.67597 1.94818 0
M  V30 6573 H 628.328 4.77184 0.861596 0
M  V30 6574 N 629.671 -0.424282 1.51781 0
M  V30 6575 C 630.621 -1.51464 1.70419 0
M  V30 6576 C 631.605 -1.50911 0.558094 0
M  V30 6577 O 632.797 -1.57143 0.814552 0
M  V30 6578 C 629.926 -2.89539 1.84451 0
M  V30 6579 C 629.012 -2.94798 3.04886 0
M  V30 6580 N 629.403 -2.69778 4.27848 0
M  V30 6581 C 627.701 -3.25962 3.04408 0
M  V30 6582 C 628.402 -2.81216 5.09208 0
M  V30 6583 N 627.378 -3.13447 4.44131 0
M  V30 6584 H 631.18 -1.30892 2.63144 0
M  V30 6585 H 628.694 -0.631783 1.49607 0
M  V30 6586 H 630.691 -3.67998 1.95917 0
M  V30 6587 H 629.351 -3.11121 0.929168 0
M  V30 6588 H 630.362 -2.44458 4.56575 0
M  V30 6589 H 627.039 -3.53236 2.22555 0
M  V30 6590 H 628.429 -2.65715 6.17127 0
M  V30 6591 N 631.149 -1.42148 -0.680565 0
M  V30 6592 C 632.374 -1.45901 -1.47403 0
M  V30 6593 C 632.799 -0.0700985 -1.87969 0
M  V30 6594 O 632.157 0.930145 -1.55621 0
M  V30 6595 C 632.205 -2.38661 -2.70321 0
M  V30 6596 O 631.309 -1.85399 -3.68376 0
M  V30 6597 H 630.65 -0.494565 -0.443059 0
M  V30 6598 H 633.18 -1.86774 -0.835251 0
M  V30 6599 H 633.19 -2.55046 -3.18458 0
M  V30 6600 H 631.865 -3.39571 -2.40134 0
M  V30 6601 H 630.442 -1.78541 -3.2738 0
M  V30 6602 N 632.627 0.916307 -1.28225 0
M  V30 6603 C 633.852 1.7043 -1.18188 0
M  V30 6604 C 634.277 1.86346 0.256274 0
M  V30 6605 O 633.635 1.37175 1.18544 0
M  V30 6606 C 633.683 3.07546 -1.88275 0
M  V30 6607 O 632.787 3.94904 -1.18848 0
M  V30 6608 H 632.128 0.521967 -0.410423 0
M  V30 6609 H 634.658 1.14589 -1.69501 0
M  V30 6610 H 634.668 3.57793 -1.96082 0
M  V30 6611 H 633.343 2.95279 -2.92887 0
M  V30 6612 H 631.92 3.53339 -1.19187 0
M  V30 6613 N 634.105 1.10431 1.1244 0
M  V30 6614 C 635.33 0.869089 1.88313 0
M  V30 6615 C 635.755 -0.574912 1.79099 0
M  V30 6616 O 635.113 -1.40496 1.14589 0
M  V30 6617 C 635.161 1.32208 3.3549 0
M  V30 6618 O 634.265 0.487092 4.09513 0
M  V30 6619 H 633.606 0.313894 0.585121 0
M  V30 6620 H 636.136 1.47111 1.42195 0
M  V30 6621 H 636.146 1.31201 3.86329 0
M  V30 6622 H 634.821 2.37364 3.41513 0
M  V30 6623 H 633.398 0.562372 3.68635 0
M  V30 6624 N 635.583 -1.29855 0.893053 0
M  V30 6625 C 636.533 -2.25493 0.337211 0
M  V30 6626 C 637.517 -1.51606 -0.53894 0
M  V30 6627 O 638.709 -1.72828 -0.382043 0
M  V30 6628 C 635.838 -3.40467 -0.440117 0
M  V30 6629 C 634.924 -4.217 0.450578 0
M  V30 6630 N 635.315 -4.81312 1.55476 0
M  V30 6631 C 633.613 -4.45315 0.247154 0
M  V30 6632 C 634.314 -5.42241 2.10593 0
M  V30 6633 N 633.29 -5.25267 1.39982 0
M  V30 6634 H 637.092 -2.69137 1.18079 0
M  V30 6635 H 634.606 -1.44388 0.743359 0
M  V30 6636 H 636.603 -4.08038 -0.855021 0
M  V30 6637 H 635.263 -2.98361 -1.28104 0
M  V30 6638 H 636.274 -4.80291 1.93755 0
M  V30 6639 H 632.951 -4.13782 -0.555939 0
M  V30 6640 H 634.341 -5.99517 3.03362 0
M  V30 6641 N 637.061 -0.65484 -1.43351 0
M  V30 6642 C 638.286 -0.175046 -2.0666 0
M  V30 6643 C 638.711 1.15104 -1.4877 0
M  V30 6644 O 638.069 1.71144 -0.598279 0
M  V30 6645 C 638.117 -0.0991544 -3.60464 0
M  V30 6646 O 637.221 0.938169 -4.01587 0
M  V30 6647 H 636.562 -0.0956148 -0.65708 0
M  V30 6648 H 639.092 -0.898222 -1.83829 0
M  V30 6649 H 639.102 0.083632 -4.07914 0
M  V30 6650 H 637.777 -1.06719 -4.01975 0
M  V30 6651 H 636.354 0.72804 -3.65724 0
M  V30 6652 N 638.539 1.52521 -0.396863 0
M  V30 6653 C 639.487 2.28217 0.44943 0
M  V30 6654 C 640.481 1.32416 1.05652 0
M  V30 6655 O 641.687 1.49925 0.996124 0
M  V30 6656 H 638.062 0.733966 0.1637 0
M  V30 6657 H 640.033 2.97658 -0.210367 0
M  V30 6658 C 638.782 3.10713 1.56054 0
M  V30 6659 H 638.105 3.84291 1.10273 0
M  V30 6660 H 639.545 3.66803 2.12677 0
M  V30 6661 C 638.004 2.23499 2.52091 0
M  V30 6662 O 638.534 1.8669 3.55682 0
M  V30 6663 N 636.74 1.8751 2.2201 0
M  V30 6664 H 636.287 2.17643 1.37802 0
M  V30 6665 H 636.245 1.29448 2.86514 0
M  V30 6666 N 640.017 0.126909 1.57088 0
M  V30 6667 C 641.242 -0.53997 2.00248 0
M  V30 6668 C 641.667 -1.58927 1.00618 0
M  V30 6669 O 641.025 -1.81288 -0.0210131 0
M  V30 6670 C 641.073 -1.13565 3.4225 0
M  V30 6671 O 640.177 -2.25103 3.45547 0
M  V30 6672 H 639.518 -0.13412 0.650314 0
M  V30 6673 H 642.048 0.217718 2.03438 0
M  V30 6674 H 642.058 -1.46925 3.80627 0
M  V30 6675 H 640.733 -0.367122 4.14277 0
M  V30 6676 H 639.31 -1.93123 3.18995 0
M  V30 6677 N 641.495 -1.56914 -0.146875 0
M  V30 6678 C 642.72 -1.87881 -0.878386 0
M  V30 6679 C 643.145 -0.715945 -1.73942 0
M  V30 6680 O 642.503 0.334447 -1.78189 0
M  V30 6681 C 642.551 -3.17431 -1.71084 0
M  V30 6682 O 641.655 -3.01374 -2.81509 0
M  V30 6683 H 640.996 -0.617289 -0.244644 0
M  V30 6684 H 643.526 -2.04136 -0.137654 0
M  V30 6685 H 643.536 -3.49455 -2.10582 0
M  V30 6686 H 642.211 -4.01671 -1.07856 0
M  V30 6687 H 640.788 -2.80758 -2.45416 0
M  V30 6688 N 642.974 0.416227 -1.52004 0
M  V30 6689 C 643.922 1.5272 -1.7544 0
M  V30 6690 C 644.916 1.57596 -0.621289 0
M  V30 6691 O 646.122 1.61087 -0.803172 0
M  V30 6692 H 642.497 0.507772 -0.554682 0
M  V30 6693 H 644.468 1.30136 -2.68528 0
M  V30 6694 C 643.217 2.90165 -1.91571 0
M  V30 6695 H 642.54 2.87154 -2.78178 0
M  V30 6696 H 643.98 3.67211 -2.11972 0
M  V30 6697 C 642.439 3.29947 -0.680942 0
M  V30 6698 O 642.969 4.01403 0.154527 0
M  V30 6699 N 641.175 2.8593 -0.518894 0
M  V30 6700 H 640.722 2.2795 -1.19986 0
M  V30 6701 H 640.68 3.12907 0.305985 0
M  V30 6702 N 644.452 1.42507 0.673017 0
M  V30 6703 C 645.677 1.4668 1.46627 0
M  V30 6704 C 646.102 0.080066 1.8793 0
M  V30 6705 O 645.46 -0.921879 1.56112 0
M  V30 6706 C 645.508 2.40091 2.69051 0
M  V30 6707 O 644.612 1.8735 3.67387 0
M  V30 6708 H 643.953 0.496908 0.44043 0
M  V30 6709 H 646.483 1.87215 0.825334 0
M  V30 6710 H 646.493 2.56731 3.17101 0
M  V30 6711 H 645.168 3.4084 2.3833 0
M  V30 6712 H 643.745 1.80274 3.26429 0
M  V30 6713 N 645.93 -0.909495 1.28709 0
M  V30 6714 C 646.862 -2.01729 1.08804 0
M  V30 6715 C 647.875 -1.62755 0.0384739 0
M  V30 6716 O 649.064 -1.76259 0.281977 0
M  V30 6717 C 646.164 -3.32952 0.63217 0
M  V30 6718 C 645.337 -4.00512 1.75809 0
M  V30 6719 C 644.396 -5.10019 1.29488 0
M  V30 6720 O 643.422 -5.32986 1.99787 0
M  V30 6721 N 644.624 -5.80278 0.1604 0
M  V30 6722 H 647.389 -2.19362 2.04207 0
M  V30 6723 H 644.95 -1.08106 1.20518 0
M  V30 6724 H 646.942 -4.03543 0.305802 0
M  V30 6725 H 645.512 -3.11759 -0.229134 0
M  V30 6726 H 644.732 -3.23413 2.25383 0
M  V30 6727 H 646.02 -4.42395 2.51325 0
M  V30 6728 H 645.418 -5.64094 -0.425937 0
M  V30 6729 H 643.975 -6.51713 -0.106663 0
M  V30 6730 N 647.408 -1.11026 -1.11852 0
M  V30 6731 C 648.656 -0.854769 -1.83134 0
M  V30 6732 C 648.977 0.621375 -1.84835 0
M  V30 6733 O 648.247 1.45129 -1.31584 0
M  V30 6734 H 646.827 -0.313229 -0.678157 0
M  V30 6735 H 649.489 -1.40178 -1.35411 0
M  V30 6736 H 648.585 -1.22311 -2.87135 0
M  V30 6737 N 648.886 1.2938 -0.899927 0
M  V30 6738 C 650.111 2.00228 -0.540692 0
M  V30 6739 C 650.536 1.66909 0.867359 0
M  V30 6740 O 649.894 0.893824 1.57735 0
M  V30 6741 C 649.942 3.52921 -0.740232 0
M  V30 6742 O 649.046 4.11879 0.207154 0
M  V30 6743 H 648.387 0.629505 -0.211233 0
M  V30 6744 H 650.917 1.6487 -1.21158 0
M  V30 6745 H 650.927 4.0287 -0.644973 0
M  V30 6746 H 649.602 3.76508 -1.76677 0
M  V30 6747 H 648.179 3.72845 0.0643315 0
M  V30 6748 N 650.364 0.662433 1.43002 0
M  V30 6749 C 651.611 0.179591 2.01702 0
M  V30 6750 C 651.939 -1.20964 1.52309 0
M  V30 6751 O 651.194 -1.82343 0.7106 0
M  V30 6752 C 651.493 0.149363 3.57088 0
M  V30 6753 C 651.159 1.48158 4.25864 0
M  V30 6754 C 649.821 1.84638 4.44367 0
M  V30 6755 C 652.173 2.35953 4.64732 0
M  V30 6756 C 649.501 3.08561 4.99006 0
M  V30 6757 C 651.853 3.59176 5.20745 0
M  V30 6758 C 650.517 3.95841 5.37463 0
M  V30 6759 H 649.787 0.0657172 0.73808 0
M  V30 6760 H 652.434 0.854968 1.71355 0
M  V30 6761 H 650.739 -0.609491 3.8703 0
M  V30 6762 H 652.436 -0.241241 4.00274 0
M  V30 6763 H 649.026 1.18777 4.11813 0
M  V30 6764 H 653.21 2.09058 4.50121 0
M  V30 6765 H 648.466 3.37005 5.10135 0
M  V30 6766 H 652.64 4.27417 5.49807 0
M  V30 6767 H 650.267 4.91942 5.79566 0
M  V30 6768 N 651.842 -1.52309 0.404946 0
M  V30 6769 C 653.09 -2.01368 -0.17186 0
M  V30 6770 C 653.411 -1.29261 -1.46002 0
M  V30 6771 O 652.681 -0.41729 -1.91404 0
M  V30 6772 H 651.261 -0.744034 -0.0664993 0
M  V30 6773 H 653.923 -1.87263 0.540228 0
M  V30 6774 H 653.019 -3.09888 -0.370957 0
M  V30 6775 N 653.32 -0.135238 -1.57019 0
M  V30 6776 C 654.56 0.521686 -1.9763 0
M  V30 6777 C 654.924 1.62804 -1.01778 0
M  V30 6778 O 656.125 2.345 -1.31389 0
M  V30 6779 C 654.396 1.0257 -3.42365 0
M  V30 6780 S 655.955 1.68888 -4.04997 0
M  V30 6781 H 652.773 0.169064 -0.690607 0
M  V30 6782 H 655.375 -0.224168 -1.94211 0
M  V30 6783 H 654.079 0.209556 -4.09865 0
M  V30 6784 H 653.61 1.80645 -3.49472 0
M  V30 6785 H 655.625 2.97554 -3.97084 0
M  V30 6786 N 654.798 1.5699 0.138552 0
M  V30 6787 C 656.023 1.88344 0.86841 0
M  V30 6788 C 656.448 0.725159 1.7356 0
M  V30 6789 O 655.806 -0.324992 1.78363 0
M  V30 6790 C 655.854 3.18334 1.69398 0
M  V30 6791 O 654.958 3.02863 2.79907 0
M  V30 6792 H 654.299 0.618577 0.241367 0
M  V30 6793 H 656.829 2.04207 0.126826 0
M  V30 6794 H 656.839 3.50567 2.08726 0
M  V30 6795 H 655.514 4.02238 1.05725 0
M  V30 6796 H 654.091 2.82056 2.43924 0
M  V30 6797 N 656.276 -0.40816 1.52223 0
M  V30 6798 C 657.687 -0.986929 1.58482 0
M  V30 6799 C 658.038 -1.91521 0.425917 0
M  V30 6800 O 657.163 -2.11593 -0.453593 0
M  V30 6801 C 657.758 -1.7967 2.87235 0
M  V30 6802 C 656.317 -2.32549 2.9597 0
M  V30 6803 C 655.464 -1.12558 2.53428 0
M  V30 6804 H 658.415 -0.188362 1.57578 0
M  V30 6805 H 658.436 -2.65417 2.72642 0
M  V30 6806 H 657.948 -1.12082 3.71563 0
M  V30 6807 H 656.049 -3.03505 2.16137 0
M  V30 6808 H 656.162 -2.63348 4.00231 0
M  V30 6809 H 654.526 -1.47984 2.07299 0
M  V30 6810 H 655.309 -0.465351 3.40131 0
M  V30 6811 N 657.755 -1.42862 -0.66545 0
M  V30 6812 C 659.003 -1.43546 -1.42264 0
M  V30 6813 C 659.324 -0.0563116 -1.94919 0
M  V30 6814 O 658.594 0.906568 -1.73661 0
M  V30 6815 H 657.174 -0.528464 -0.527953 0
M  V30 6816 H 659.836 -1.78363 -0.785665 0
M  V30 6817 H 658.932 -2.14079 -2.27105 0
M  V30 6818 N 659.233 0.902656 -1.29189 0
M  V30 6819 C 660.458 1.69167 -1.19989 0
M  V30 6820 C 660.883 1.86607 0.236495 0
M  V30 6821 O 660.241 1.38425 1.17082 0
M  V30 6822 C 660.289 3.05532 -1.91527 0
M  V30 6823 O 659.393 3.93621 -1.2303 0
M  V30 6824 H 658.734 0.517584 -0.415936 0
M  V30 6825 H 661.264 1.12785 -1.70706 0
M  V30 6826 H 661.274 3.55693 -1.99866 0
M  V30 6827 H 659.949 2.92156 -2.96003 0
M  V30 6828 H 658.526 3.52055 -1.22928 0
M  V30 6829 N 660.711 1.11618 1.11262 0
M  V30 6830 C 661.643 0.734015 2.17129 0
M  V30 6831 C 662.656 -0.235243 1.61091 0
M  V30 6832 O 663.845 -0.0178597 1.78491 0
M  V30 6833 C 660.945 0.0643682 3.38839 0
M  V30 6834 C 660.118 1.06092 4.24339 0
M  V30 6835 C 659.177 0.420482 5.24517 0
M  V30 6836 O 658.203 1.07495 5.58957 0
M  V30 6837 N 659.405 -0.815828 5.74739 0
M  V30 6838 H 662.17 1.64492 2.50524 0
M  V30 6839 H 659.731 1.00664 1.26801 0
M  V30 6840 H 661.723 -0.375851 4.02951 0
M  V30 6841 H 660.293 -0.749147 3.03491 0
M  V30 6842 H 659.513 1.67903 3.56654 0
M  V30 6843 H 660.801 1.73507 4.78302 0
M  V30 6844 H 660.199 -1.36668 5.48943 0
M  V30 6845 H 658.756 -1.199 6.40677 0
M  V30 6846 N 662.189 -1.289 0.906776 0
M  V30 6847 C 663.438 -1.9455 0.532262 0
M  V30 6848 C 663.751 -1.72219 -0.927353 0
M  V30 6849 O 664.957 -2.32033 -1.40971 0
M  V30 6850 C 663.413 -3.48438 0.901041 0
M  V30 6851 C 663.021 -3.79558 2.37991 0
M  V30 6852 C 664.765 -4.20284 0.596777 0
M  V30 6853 C 662.672 -5.26723 2.68918 0
M  V30 6854 H 661.602 -0.728259 0.195333 0
M  V30 6855 H 664.253 -1.46519 1.10474 0
M  V30 6856 H 662.635 -3.95162 0.257419 0
M  V30 6857 H 663.809 -3.43668 3.06967 0
M  V30 6858 H 662.124 -3.20868 2.65391 0
M  V30 6859 H 664.721 -5.28612 0.8046 0
M  V30 6860 H 665.064 -4.13694 -0.465072 0
M  V30 6861 H 665.597 -3.79315 1.19855 0
M  V30 6862 H 662.336 -5.38384 3.73928 0
M  V30 6863 H 661.856 -5.63836 2.04571 0
M  V30 6864 H 663.535 -5.94391 2.55555 0
M  V30 6865 N 663.667 -0.670007 -1.42649 0
M  V30 6866 C 664.913 -0.190568 -2.01903 0
M  V30 6867 C 665.246 1.19817 -1.52832 0
M  V30 6868 O 664.521 1.80342 -0.728485 0
M  V30 6869 C 664.804 -0.21991 -3.59428 0
M  V30 6870 C 664.657 -1.64376 -4.18689 0
M  V30 6871 C 665.976 0.434519 -4.3795 0
M  V30 6872 H 663.095 -0.0707219 -0.733599 0
M  V30 6873 H 665.737 -0.853883 -1.69732 0
M  V30 6874 H 663.887 0.344894 -3.86966 0
M  V30 6875 H 665.559 -2.26044 -4.02122 0
M  V30 6876 H 663.802 -2.18591 -3.747 0
M  V30 6877 H 664.473 -1.61601 -5.27815 0
M  V30 6878 H 666.949 -0.0462156 -4.16074 0
M  V30 6879 H 665.825 0.38333 -5.4756 0
M  V30 6880 H 666.086 1.51135 -4.15464 0
M  V30 6881 N 665.145 1.52092 -0.413018 0
M  V30 6882 C 666.108 2.25706 0.398687 0
M  V30 6883 C 667.108 1.28221 0.970368 0
M  V30 6884 O 668.298 1.52131 0.848635 0
M  V30 6885 C 665.43 3.03029 1.5616 0
M  V30 6886 H 666.623 2.98888 -0.246131 0
M  V30 6887 H 664.176 1.5542 -0.165622 0
M  V30 6888 H 664.911 2.34205 2.24317 0
M  V30 6889 H 664.696 3.74606 1.15812 0
M  V30 6890 H 666.186 3.58857 2.13569 0
M  V30 6891 N 666.623 0.143563 1.56945 0
M  V30 6892 C 667.571 -0.814556 2.17871 0
M  V30 6893 C 668.565 -1.25778 1.13474 0
M  V30 6894 O 669.771 -1.22666 1.31731 0
M  V30 6895 H 666.146 -0.280873 0.697578 0
M  V30 6896 H 668.117 -0.276459 2.97117 0
M  V30 6897 C 666.866 -2.04503 2.81201 0
M  V30 6898 H 666.189 -1.71296 3.61245 0
M  V30 6899 H 667.629 -2.69493 3.27337 0
M  V30 6900 C 666.088 -2.85079 1.79532 0
M  V30 6901 O 666.618 -3.81306 1.26368 0
M  V30 6902 N 664.824 -2.49546 1.48913 0
M  V30 6903 H 664.371 -1.71359 1.92338 0
M  V30 6904 H 664.329 -3.03751 0.811348 0
M  V30 6905 N 668.101 -1.57061 -0.130224 0
M  V30 6906 C 669.347 -1.8453 -0.841216 0
M  V30 6907 C 669.68 -0.727666 -1.80052 0
M  V30 6908 O 668.955 0.267419 -1.92653 0
M  V30 6909 C 669.238 -3.22553 -1.60099 0
M  V30 6910 C 669.091 -4.44901 -0.662048 0
M  V30 6911 C 670.41 -3.58003 -2.55973 0
M  V30 6912 H 667.529 -0.671215 -0.304366 0
M  V30 6913 H 670.171 -1.89705 -0.105821 0
M  V30 6914 H 668.321 -3.18272 -2.22789 0
M  V30 6915 H 669.993 -4.61278 -0.0448559 0
M  V30 6916 H 668.236 -4.33791 0.0272253 0
M  V30 6917 H 668.907 -5.3812 -1.23006 0
M  V30 6918 H 671.383 -3.63002 -2.03393 0
M  V30 6919 H 670.259 -4.55576 -3.06172 0
M  V30 6920 H 670.52 -2.84833 -3.38116 0
M  V30 6921 N 669.579 0.400081 -1.52437 0
M  V30 6922 C 670.542 1.4707 -1.75793 0
M  V30 6923 C 671.542 1.48036 -0.627856 0
M  V30 6924 O 672.732 1.49401 -0.895817 0
M  V30 6925 C 669.864 2.86427 -1.84858 0
M  V30 6926 H 671.057 1.27649 -2.71377 0
M  V30 6927 H 668.61 0.631141 -1.42991 0
M  V30 6928 H 669.345 3.11207 -0.912194 0
M  V30 6929 H 669.13 2.87128 -2.6702 0
M  V30 6930 H 670.62 3.64023 -2.04638 0
M  V30 6931 N 671.057 1.43213 0.657864 0
M  V30 6932 C 671.987 1.50815 1.78262 0
M  V30 6933 C 672.968 0.363211 1.66177 0
M  V30 6934 O 674.153 0.579806 1.85343 0
M  V30 6935 C 671.283 1.42625 3.16663 0
M  V30 6936 C 670.237 2.5532 3.43505 0
M  V30 6937 C 669.563 2.32184 4.81658 0
M  V30 6938 C 670.863 3.97583 3.38711 0
M  V30 6939 H 672.557 2.44954 1.72157 0
M  V30 6940 H 670.103 1.17896 0.82683 0
M  V30 6941 H 672.056 1.46548 3.95097 0
M  V30 6942 H 670.78 0.449877 3.23487 0
M  V30 6943 H 669.439 2.50742 2.6744 0
M  V30 6944 H 669.087 1.32801 4.85153 0
M  V30 6945 H 668.787 3.07724 5.00579 0
M  V30 6946 H 670.311 2.37883 5.62356 0
M  V30 6947 H 671.725 4.03673 4.07089 0
M  V30 6948 H 670.122 4.73112 3.69168 0
M  V30 6949 H 671.192 4.23049 2.36976 0
M  V30 6950 N 672.536 -0.895792 1.29666 0
M  V30 6951 C 673.484 -2.02173 1.15017 0
M  V30 6952 C 674.478 -1.69276 0.0647651 0
M  V30 6953 O 675.684 -1.7859 0.224846 0
M  V30 6954 H 672.059 -0.662719 0.355397 0
M  V30 6955 H 674.03 -2.11666 2.10334 0
M  V30 6956 C 672.779 -3.37212 0.847555 0
M  V30 6957 H 672.102 -3.6303 1.67479 0
M  V30 6958 H 673.542 -4.16668 0.785106 0
M  V30 6959 C 672.001 -3.33891 -0.44929 0
M  V30 6960 O 672.531 -3.73673 -1.47415 0
M  V30 6961 N 670.737 -2.86991 -0.456547 0
M  V30 6962 H 670.284 -2.54813 0.377925 0
M  V30 6963 H 670.242 -2.85152 -1.32423 0
M  V30 6964 N 674.014 -1.12206 -1.10668 0
M  V30 6965 C 674.946 -0.74552 -2.16736 0
M  V30 6966 C 675.959 0.226696 -1.61214 0
M  V30 6967 O 677.148 0.0083936 -1.78498 0
M  V30 6968 C 674.248 -0.0823368 -3.388 0
M  V30 6969 C 673.421 -1.08341 -4.2377 0
M  V30 6970 C 672.48 -0.448292 -5.24287 0
M  V30 6971 O 671.506 -1.10458 -5.58379 0
M  V30 6972 N 672.708 0.785336 -5.75163 0
M  V30 6973 H 675.473 -1.65818 -2.49649 0
M  V30 6974 H 673.034 -1.01335 -1.26265 0
M  V30 6975 H 675.026 0.354476 -4.03145 0
M  V30 6976 H 673.596 0.733041 -3.03884 0
M  V30 6977 H 672.816 -1.69792 -3.55759 0
M  V30 6978 H 674.104 -1.76042 -4.77375 0
M  V30 6979 H 673.502 1.33755 -5.4966 0
M  V30 6980 H 672.059 1.16501 -6.41304 0
M  V30 6981 N 675.492 1.28418 -0.913599 0
M  V30 6982 C 676.74 1.94596 -0.545594 0
M  V30 6983 C 677.061 1.7227 0.913668 0
M  V30 6984 O 676.331 1.06233 1.64595 0
M  V30 6985 H 674.911 0.720065 -0.198783 0
M  V30 6986 H 677.573 1.56404 -1.16292 0
M  V30 6987 H 676.669 3.03202 -0.739911 0
M  V30 6988 N 676.97 0.677563 1.42291 0
M  V30 6989 C 677.902 -0.0380218 2.29168 0
M  V30 6990 C 678.915 -0.762714 1.43828 0
M  V30 6991 O 680.104 -0.616413 1.67519 0
M  V30 6992 C 677.204 -1.07761 3.21311 0
M  V30 6993 C 676.377 -0.42618 4.35319 0
M  V30 6994 C 675.436 -1.36592 5.08162 0
M  V30 6995 O 674.462 -0.865174 5.62586 0
M  V30 6996 N 675.664 -2.69909 5.13935 0
M  V30 6997 H 678.429 0.707766 2.91223 0
M  V30 6998 H 675.99 0.52219 1.53247 0
M  V30 6999 H 677.982 -1.70761 3.6691 0
M  V30 7000 H 676.552 -1.72511 2.60689 0
M  V30 7001 H 675.772 0.383385 3.92331 0
M  V30 7002 H 677.06 0.0275277 5.08793 0
M  V30 7003 H 676.458 -3.13129 4.71134 0
M  V30 7004 H 675.015 -3.2815 5.6317 0
M  V30 7005 N 678.448 -1.51871 0.421078 0
M  V30 7006 C 679.411 -2.25914 -0.386712 0
M  V30 7007 C 680.411 -1.28733 -0.963555 0
M  V30 7008 O 681.601 -1.52579 -0.840556 0
M  V30 7009 C 678.733 -3.03853 -1.54551 0
M  V30 7010 H 679.926 -2.98754 0.261978 0
M  V30 7011 H 677.479 -1.5533 0.173862 0
M  V30 7012 H 678.214 -2.35392 -2.23072 0
M  V30 7013 H 677.999 -3.75215 -1.13824 0
M  V30 7014 H 679.489 -3.59984 -2.11663 0
M  V30 7015 N 679.926 -0.151884 -1.56866 0
M  V30 7016 C 681.151 0.508044 -2.01081 0
M  V30 7017 C 681.576 1.57306 -1.03134 0
M  V30 7018 O 680.934 1.81298 -0.0078309 0
M  V30 7019 C 680.982 1.08106 -3.44014 0
M  V30 7020 O 680.086 2.19577 -3.49084 0
M  V30 7021 H 679.427 0.123757 -0.652365 0
M  V30 7022 H 681.957 -0.250055 -2.03066 0
M  V30 7023 H 681.967 1.40851 -3.82916 0
M  V30 7024 H 680.642 0.301168 -4.14808 0
M  V30 7025 H 679.219 1.88023 -3.22027 0
M  V30 7026 N 681.404 1.57128 0.121893 0
M  V30 7027 C 682.629 1.89254 0.848385 0
M  V30 7028 C 683.054 0.743527 1.72781 0
M  V30 7029 O 682.412 -0.306056 1.78698 0
M  V30 7030 C 682.46 3.20113 1.66012 0
M  V30 7031 O 681.564 3.05815 2.76679 0
M  V30 7032 H 680.905 0.621103 0.234793 0
M  V30 7033 H 683.435 2.0433 0.10516 0
M  V30 7034 H 683.445 3.52761 2.04996 0
M  V30 7035 H 682.12 4.03336 1.01452 0
M  V30 7036 H 680.697 2.84627 2.40918 0
M  V30 7037 N 682.882 -0.391992 1.52647 0
M  V30 7038 C 683.814 -1.49811 1.73463 0
M  V30 7039 C 684.827 -1.50734 0.615078 0
M  V30 7040 O 686.016 -1.5469 0.890696 0
M  V30 7041 C 683.116 -2.88667 1.77552 0
M  V30 7042 C 682.289 -3.11743 3.06815 0
M  V30 7043 C 681.348 -4.30564 3.02491 0
M  V30 7044 O 680.374 -4.27014 3.76361 0
M  V30 7045 N 681.576 -5.36593 2.21468 0
M  V30 7046 H 684.341 -1.32343 2.68897 0
M  V30 7047 H 681.902 -0.581475 1.51098 0
M  V30 7048 H 683.894 -3.66251 1.7217 0
M  V30 7049 H 682.464 -2.99508 0.895181 0
M  V30 7050 H 681.684 -2.2205 3.25711 0
M  V30 7051 H 682.972 -3.24013 3.92292 0
M  V30 7052 H 682.37 -5.42332 1.60913 0
M  V30 7053 H 680.927 -6.12855 2.21928 0
M  V30 7054 N 684.36 -1.4356 -0.65026 0
M  V30 7055 C 685.585 -1.48995 -1.44275 0
M  V30 7056 C 686.01 -0.109954 -1.87778 0
M  V30 7057 O 685.368 0.896926 -1.57559 0
M  V30 7058 C 685.416 -2.44341 -2.65198 0
M  V30 7059 O 684.52 -1.93172 -3.6436 0
M  V30 7060 H 683.861 -0.503852 -0.432469 0
M  V30 7061 H 686.391 -1.88504 -0.795446 0
M  V30 7062 H 686.401 -2.61743 -3.12977 0
M  V30 7063 H 685.076 -3.44588 -2.32877 0
M  V30 7064 H 683.653 -1.85445 -3.23519 0
M  V30 7065 N 685.838 0.888903 -1.30139 0
M  V30 7066 C 687.063 1.67884 -1.21777 0
M  V30 7067 C 687.488 1.86848 0.216689 0
M  V30 7068 O 686.846 1.39659 1.15608 0
M  V30 7069 C 686.894 3.03483 -1.94757 0
M  V30 7070 O 685.998 3.92294 -1.27198 0
M  V30 7071 H 685.339 0.513144 -0.421402 0
M  V30 7072 H 687.869 1.10968 -1.71893 0
M  V30 7073 H 687.879 3.53553 -2.03627 0
M  V30 7074 H 686.554 2.89 -2.99085 0
M  V30 7075 H 685.131 3.50732 -1.26655 0
M  V30 7076 N 687.317 1.12792 1.10072 0
M  V30 7077 C 688.265 0.794523 2.18609 0
M  V30 7078 C 689.259 -0.220271 1.67962 0
M  V30 7079 O 690.465 -0.0780938 1.79831 0
M  V30 7080 H 686.84 0.239123 0.712969 0
M  V30 7081 H 688.811 1.71823 2.43966 0
M  V30 7082 C 687.56 0.269548 3.46654 0
M  V30 7083 H 686.883 1.04171 3.8599 0
M  V30 7084 H 688.323 0.0746242 4.23934 0
M  V30 7085 C 686.782 -1.00333 3.21613 0
M  V30 7086 O 687.312 -2.08042 3.4363 0
M  V30 7087 N 685.518 -0.931763 2.75257 0
M  V30 7088 H 685.065 -0.0551197 2.57541 0
M  V30 7089 H 685.023 -1.78405 2.58881 0
M  V30 7090 N 688.795 -1.27931 0.920396 0
M  V30 7091 C 690.206 -1.76707 0.602616 0
M  V30 7092 C 690.557 -1.75249 -0.882159 0
M  V30 7093 O 689.682 -1.35135 -1.69019 0
M  V30 7094 C 690.277 -3.20884 1.08714 0
M  V30 7095 C 688.836 -3.67356 0.820157 0
M  V30 7096 C 687.983 -2.47525 1.25006 0
M  V30 7097 H 690.934 -1.14301 1.10095 0
M  V30 7098 H 690.955 -3.78045 0.431535 0
M  V30 7099 H 690.467 -3.21913 2.1678 0
M  V30 7100 H 688.568 -3.7178 -0.247012 0
M  V30 7101 H 688.681 -4.57181 1.43257 0
M  V30 7102 H 687.045 -2.45765 0.668698 0
M  V30 7103 H 687.828 -2.51269 2.3392 0
M  V30 7104 N 690.273 -0.685099 -1.4193 0
M  V30 7105 C 691.498 -0.218842 -2.06242 0
M  V30 7106 C 691.923 1.11923 -1.51178 0
M  V30 7107 O 691.281 1.69837 -0.634446 0
M  V30 7108 C 691.329 -0.175592 -3.60172 0
M  V30 7109 O 690.433 0.852776 -4.03487 0
M  V30 7110 H 689.774 -0.109531 -0.654904 0
M  V30 7111 H 692.304 -0.937013 -1.81882 0
M  V30 7112 H 692.314 -0.00291151 -4.08 0
M  V30 7113 H 690.989 -1.15222 -3.99621 0
M  V30 7114 H 689.566 0.650301 -3.67186 0
M  V30 7115 N 691.751 1.51645 -0.429126 0
M  V30 7116 C 692.681 2.30434 0.377148 0
M  V30 7117 C 693.662 1.35493 1.02838 0
M  V30 7118 O 694.847 1.6441 1.03359 0
M  V30 7119 C 691.977 3.14038 1.48315 0
M  V30 7120 C 690.931 4.1719 0.955855 0
M  V30 7121 C 690.257 4.89263 2.15698 0
M  V30 7122 C 691.557 5.223 -0.00402136 0
M  V30 7123 H 693.251 2.98085 -0.280336 0
M  V30 7124 H 690.797 1.43354 -0.136265 0
M  V30 7125 H 692.75 3.67933 2.05435 0
M  V30 7126 H 691.474 2.44193 2.16881 0
M  V30 7127 H 690.133 3.64335 0.406929 0
M  V30 7128 H 689.781 4.15929 2.82864 0
M  V30 7129 H 689.481 5.59009 1.81059 0
M  V30 7130 H 691.005 5.45978 2.73387 0
M  V30 7131 H 692.419 5.71315 0.476607 0
M  V30 7132 H 690.816 5.99525 -0.26258 0
M  V30 7133 H 691.886 4.75638 -0.943236 0
M  V30 7134 N 693.229 0.160201 1.56784 0
M  V30 7135 C 694.177 -0.791402 2.18723 0
M  V30 7136 C 695.171 -1.24567 1.14801 0
M  V30 7137 O 696.377 -1.21262 1.33025 0
M  V30 7138 H 692.752 -0.273458 0.700517 0
M  V30 7139 H 694.723 -0.244931 2.97393 0
M  V30 7140 C 693.472 -2.01509 2.83354 0
M  V30 7141 H 692.795 -1.67454 3.63041 0
M  V30 7142 H 694.235 -2.66006 3.30177 0
M  V30 7143 C 692.694 -2.83159 1.82545 0
M  V30 7144 O 693.224 -3.79944 1.30405 0
M  V30 7145 N 691.43 -2.47953 1.51552 0
M  V30 7146 H 690.977 -1.69309 1.94144 0
M  V30 7147 H 690.935 -3.02873 0.843519 0
M  V30 7148 N 694.707 -1.5719 -0.113559 0
M  V30 7149 C 695.637 -2.03772 -1.14013 0
M  V30 7150 C 696.618 -0.923176 -1.42869 0
M  V30 7151 O 697.803 -1.19325 -1.53216 0
M  V30 7152 C 694.933 -2.44663 -2.4649 0
M  V30 7153 C 693.887 -3.59612 -2.32085 0
M  V30 7154 C 693.213 -3.8642 -3.69573 0
M  V30 7155 C 694.513 -4.91149 -1.7768 0
M  V30 7156 H 696.207 -2.89785 -0.752665 0
M  V30 7157 H 693.753 -1.39412 -0.360609 0
M  V30 7158 H 695.706 -2.75857 -3.18561 0
M  V30 7159 H 694.43 -1.55628 -2.87137 0
M  V30 7160 H 693.089 -3.28636 -1.62461 0
M  V30 7161 H 692.737 -2.94581 -4.07715 0
M  V30 7162 H 692.437 -4.63797 -3.60786 0
M  V30 7163 H 693.961 -4.2007 -4.4314 0
M  V30 7164 H 695.375 -5.20843 -2.39574 0
M  V30 7165 H 693.772 -5.72562 -1.79701 0
M  V30 7166 H 694.842 -4.79301 -0.734776 0
M  V30 7167 N 696.185 0.383891 -1.52853 0
M  V30 7168 C 697.133 1.48965 -1.7864 0
M  V30 7169 C 698.127 1.56242 -0.654577 0
M  V30 7170 O 699.333 1.59347 -0.83716 0
M  V30 7171 H 695.708 0.495892 -0.565328 0
M  V30 7172 H 697.679 1.24411 -2.71228 0
M  V30 7173 C 696.428 2.86036 -1.97683 0
M  V30 7174 H 695.751 2.81188 -2.84206 0
M  V30 7175 H 697.191 3.62632 -2.19713 0
M  V30 7176 C 695.65 3.28428 -0.750776 0
M  V30 7177 O 696.18 4.0164 0.0693491 0
M  V30 7178 N 694.386 2.84765 -0.579427 0
M  V30 7179 H 693.933 2.25353 -1.24795 0
M  V30 7180 H 693.891 3.13486 0.239544 0
M  V30 7181 N 697.663 1.43903 0.642637 0
M  V30 7182 C 698.611 1.50164 1.77634 0
M  V30 7183 C 699.605 0.374294 1.65213 0
M  V30 7184 O 700.811 0.548748 1.71431 0
M  V30 7185 H 697.186 0.470974 0.586249 0
M  V30 7186 H 699.157 2.45603 1.69474 0
M  V30 7187 C 697.906 1.45196 3.15933 0
M  V30 7188 H 697.229 2.31253 3.26132 0
M  V30 7189 H 698.669 1.53638 3.95185 0
M  V30 7190 C 697.128 0.171043 3.36466 0
M  V30 7191 O 697.658 -0.763413 3.94379 0
M  V30 7192 N 695.864 0.077847 2.90496 0
M  V30 7193 H 695.411 0.8391 2.43551 0
M  V30 7194 H 695.369 -0.778473 3.0461 0
M  V30 7195 N 699.141 -0.881989 1.30609 0
M  V30 7196 C 700.366 -1.67236 1.22665 0
M  V30 7197 C 700.791 -1.8696 -0.206777 0
M  V30 7198 O 700.149 -1.4027 -1.14865 0
M  V30 7199 C 700.197 -3.02446 1.96363 0
M  V30 7200 O 699.301 -3.91614 1.29276 0
M  V30 7201 H 698.642 -0.510902 0.424117 0
M  V30 7202 H 701.172 -1.10055 1.72479 0
M  V30 7203 H 701.182 -3.52468 2.055 0
M  V30 7204 H 699.857 -2.8741 3.00613 0
M  V30 7205 H 698.434 -3.50055 1.28514 0
M  V30 7206 N 700.619 -1.13374 -1.09472 0
M  V30 7207 C 702.03 -0.90801 -1.63132 0
M  V30 7208 C 702.381 0.555576 -1.8817 0
M  V30 7209 O 701.506 1.42218 -1.63104 0
M  V30 7210 C 702.101 -1.64182 -2.96361 0
M  V30 7211 C 700.66 -1.46197 -3.46848 0
M  V30 7212 C 699.807 -1.67134 -2.21273 0
M  V30 7213 H 702.758 -1.2871 -0.928411 0
M  V30 7214 H 702.779 -1.09863 -3.64294 0
M  V30 7215 H 702.291 -2.707 -2.78106 0
M  V30 7216 H 700.392 -0.419788 -3.70228 0
M  V30 7217 H 700.505 -2.22472 -4.24315 0
M  V30 7218 H 698.869 -1.09616 -2.29905 0
M  V30 7219 H 699.652 -2.74971 -2.05538 0
M  V30 7220 N 702.098 1.27442 -0.927168 0
M  V30 7221 C 703.031 2.25177 -0.370232 0
M  V30 7222 C 704.009 1.53612 0.533103 0
M  V30 7223 O 705.193 1.8245 0.47373 0
M  V30 7224 C 702.32 3.35431 0.469411 0
M  V30 7225 C 701.366 4.24888 -0.370419 0
M  V30 7226 S 702.199 5.04852 -1.78562 0
M  V30 7227 C 703.355 6.18592 -0.953651 0
M  V30 7228 H 703.588 2.72069 -1.19858 0
M  V30 7229 H 701.121 1.36089 -0.729316 0
M  V30 7230 H 703.079 3.99404 0.947992 0
M  V30 7231 H 701.74 2.87179 1.27228 0
M  V30 7232 H 700.933 5.03264 0.272226 0
M  V30 7233 H 700.535 3.65709 -0.783153 0
M  V30 7234 H 702.827 6.77235 -0.189408 0
M  V30 7235 H 703.77 6.87132 -1.7104 0
M  V30 7236 H 704.178 5.62318 -0.495897 0
M  V30 7237 N 703.576 0.692616 1.41565 0
M  V30 7238 C 704.486 0.0258451 2.34586 0
M  V30 7239 C 705.502 -0.769324 1.56069 0
M  V30 7240 O 706.678 -0.707563 1.88562 0
M  V30 7241 C 703.743 -0.901289 3.3478 0
M  V30 7242 C 702.804 -0.0986579 4.29187 0
M  V30 7243 C 702.037 -0.981634 5.24595 0
M  V30 7244 O 702.26 -2.22115 5.25377 0
M  V30 7245 O 701.194 -0.432892 6.00341 0
M  V30 7246 H 705.02 0.792537 2.93177 0
M  V30 7247 H 702.605 0.452935 1.42369 0
M  V30 7248 H 704.487 -1.43302 3.96286 0
M  V30 7249 H 703.162 -1.64752 2.78637 0
M  V30 7250 H 702.069 0.477604 3.71039 0
M  V30 7251 H 703.402 0.608848 4.8842 0
M  V30 7252 N 705.054 -1.51416 0.437162 0
M  V30 7253 C 706.302 -2.01687 -0.129108 0
M  V30 7254 C 706.623 -1.32329 -1.43227 0
M  V30 7255 O 705.893 -0.457796 -1.90476 0
M  V30 7256 H 704.473 -0.745277 -0.0507023 0
M  V30 7257 H 707.135 -1.86075 0.579828 0
M  V30 7258 H 706.231 -3.10605 -0.305141 0
M  V30 7259 N 706.532 -0.168513 -1.56696 0
M  V30 7260 C 707.76 0.483503 -2.01171 0
M  V30 7261 C 708.175 1.56994 -1.04872 0
M  V30 7262 O 707.532 1.82434 -0.0491337 0
M  V30 7263 C 707.583 1.0644 -3.45475 0
M  V30 7264 O 707.304 0.0213375 -4.38095 0
M  V30 7265 C 708.805 1.79493 -4.05336 0
M  V30 7266 H 706.025 0.124002 -0.659443 0
M  V30 7267 H 708.569 -0.269419 -2.02717 0
M  V30 7268 H 706.724 1.76784 -3.44712 0
M  V30 7269 H 707.138 0.449837 -5.22567 0
M  V30 7270 H 708.612 2.15401 -5.08238 0
M  V30 7271 H 709.089 2.68889 -3.47269 0
M  V30 7272 H 709.695 1.13798 -4.09793 0
M  V30 7273 N 708.01 1.57248 0.105221 0
M  V30 7274 C 709.258 1.85204 0.808951 0
M  V30 7275 C 709.579 0.75574 1.7976 0
M  V30 7276 O 708.849 -0.218984 1.94672 0
M  V30 7277 H 707.429 0.683346 0.301739 0
M  V30 7278 H 710.091 1.94695 0.0892605 0
M  V30 7279 H 709.187 2.81595 1.34575 0
M  V30 7280 N 709.488 -0.375779 1.53054 0
M  V30 7281 C 710.737 -1.11674 1.67964 0
M  V30 7282 C 711.05 -1.90755 0.432655 0
M  V30 7283 O 712.256 -2.67538 0.462109 0
M  V30 7284 C 710.712 -2.0344 2.96884 0
M  V30 7285 C 710.32 -1.29719 4.28809 0
M  V30 7286 C 712.064 -2.7759 3.2116 0
M  V30 7287 C 709.971 -2.20327 5.48826 0
M  V30 7288 H 708.901 -0.420597 0.625791 0
M  V30 7289 H 711.552 -0.378499 1.79554 0
M  V30 7290 H 709.934 -2.80953 2.79072 0
M  V30 7291 H 711.108 -0.573394 4.57219 0
M  V30 7292 H 709.423 -0.674735 4.10897 0
M  V30 7293 H 712.02 -3.4559 4.0801 0
M  V30 7294 H 712.363 -3.42399 2.36789 0
M  V30 7295 H 712.896 -2.07164 3.396 0
M  V30 7296 H 709.635 -1.60113 6.35645 0
M  V30 7297 H 709.155 -2.90585 5.2471 0
M  V30 7298 H 710.834 -2.80116 5.83219 0
M  V30 7299 N 710.966 -1.44241 -0.634997 0
M  V30 7300 C 712.191 -1.50516 -1.42687 0
M  V30 7301 C 712.616 -0.129864 -1.87651 0
M  V30 7302 O 711.974 0.880164 -1.58502 0
M  V30 7303 C 712.022 -2.4714 -2.62591 0
M  V30 7304 O 711.126 -1.97025 -3.62291 0
M  V30 7305 H 710.467 -0.50841 -0.427101 0
M  V30 7306 H 712.997 -1.89337 -0.775408 0
M  V30 7307 H 713.007 -2.65048 -3.10183 0
M  V30 7308 H 711.682 -3.47039 -2.29209 0
M  V30 7309 H 710.259 -1.88866 -3.21534 0
M  V30 7310 N 712.444 0.87505 -1.31075 0
M  V30 7311 C 713.374 1.99775 -1.20881 0
M  V30 7312 C 714.355 1.69822 -0.0971612 0
M  V30 7313 O 715.54 1.92158 -0.280895 0
M  V30 7314 C 712.67 3.35163 -0.910118 0
M  V30 7315 C 711.624 3.79406 -1.98078 0
M  V30 7316 C 710.95 5.12197 -1.53488 0
M  V30 7317 C 712.25 3.97061 -3.39323 0
M  V30 7318 H 713.944 2.08562 -2.14808 0
M  V30 7319 H 711.49 1.00207 -1.03415 0
M  V30 7320 H 713.443 4.13237 -0.825423 0
M  V30 7321 H 712.167 3.26536 0.064822 0
M  V30 7322 H 710.826 3.03568 -2.05528 0
M  V30 7323 H 710.474 5.00007 -0.547941 0
M  V30 7324 H 710.174 5.4277 -2.2511 0
M  V30 7325 H 711.698 5.92785 -1.46417 0
M  V30 7326 H 713.112 4.65545 -3.34576 0
M  V30 7327 H 711.509 4.39025 -4.09118 0
M  V30 7328 H 712.579 3.00601 -3.80483 0
M  V30 7329 N 713.922 1.13953 1.08869 0
M  V30 7330 C 714.885 0.824991 2.13838 0
M  V30 7331 C 715.885 -0.168198 1.59918 0
M  V30 7332 O 717.075 0.0595778 1.74098 0
M  V30 7333 C 714.207 0.228938 3.4013 0
M  V30 7334 H 715.4 1.75521 2.43171 0
M  V30 7335 H 712.953 0.94492 1.24503 0
M  V30 7336 H 713.688 -0.710227 3.16427 0
M  V30 7337 H 713.473 0.944243 3.80561 0
M  V30 7338 H 714.963 0.0259223 4.17592 0
M  V30 7339 N 715.4 -1.26948 0.933913 0
M  V30 7340 C 716.332 -2.25768 0.395137 0
M  V30 7341 C 717.345 -1.55637 -0.477585 0
M  V30 7342 O 718.534 -1.76142 -0.289204 0
M  V30 7343 C 715.634 -3.35874 -0.451882 0
M  V30 7344 C 714.807 -4.3554 0.40299 0
M  V30 7345 C 713.866 -5.24809 -0.3824 0
M  V30 7346 O 712.892 -5.68805 0.212057 0
M  V30 7347 N 714.094 -5.55636 -1.68072 0
M  V30 7348 H 716.859 -2.72634 1.24463 0
M  V30 7349 H 714.42 -1.40639 0.802008 0
M  V30 7350 H 716.412 -3.92542 -0.984516 0
M  V30 7351 H 714.982 -2.8856 -1.20215 0
M  V30 7352 H 714.202 -3.78047 1.11688 0
M  V30 7353 H 715.49 -4.99131 0.987201 0
M  V30 7354 H 714.888 -5.2176 -2.18592 0
M  V30 7355 H 713.445 -6.14978 -2.15975 0
M  V30 7356 N 716.879 -0.700114 -1.41195 0
M  V30 7357 C 718.126 -0.233006 -2.01155 0
M  V30 7358 C 718.454 1.16883 -1.55462 0
M  V30 7359 O 717.709 1.80395 -0.758695 0
M  V30 7360 C 718.008 -0.243986 -3.56566 0
M  V30 7361 C 717.674 -1.59397 -4.21786 0
M  V30 7362 C 716.336 -1.96355 -4.39316 0
M  V30 7363 C 718.688 -2.48192 -4.58312 0
M  V30 7364 C 716.016 -3.21683 -4.9065 0
M  V30 7365 C 718.368 -3.72857 -5.11039 0
M  V30 7366 C 717.032 -4.09951 -5.26779 0
M  V30 7367 H 716.302 -0.085263 -0.736078 0
M  V30 7368 H 718.949 -0.9001 -1.69028 0
M  V30 7369 H 717.254 0.506663 -3.8851 0
M  V30 7370 H 718.951 0.135031 -4.00773 0
M  V30 7371 H 715.541 -1.29654 -4.08519 0
M  V30 7372 H 719.725 -2.20918 -4.4442 0
M  V30 7373 H 714.981 -3.50412 -5.01021 0
M  V30 7374 H 719.155 -4.41844 -5.38282 0
M  V30 7375 H 716.782 -5.07136 -5.66319 0
M  V30 7376 N 718.357 1.51182 -0.445186 0
M  V30 7377 C 719.29 2.24528 0.4077 0
M  V30 7378 C 720.268 1.26778 1.01814 0
M  V30 7379 O 721.452 1.55934 1.05909 0
M  V30 7380 C 718.579 3.00171 1.56892 0
M  V30 7381 C 717.625 4.12641 1.0784 0
M  V30 7382 S 718.458 5.35498 0.014049 0
M  V30 7383 C 719.614 6.14681 1.17975 0
M  V30 7384 H 719.847 2.96522 -0.214987 0
M  V30 7385 H 717.38 1.52681 -0.229781 0
M  V30 7386 H 719.338 3.44349 2.23459 0
M  V30 7387 H 717.999 2.27752 2.16304 0
M  V30 7388 H 717.192 4.64875 1.94698 0
M  V30 7389 H 716.794 3.70765 0.490852 0
M  V30 7390 H 719.086 6.44244 2.09658 0
M  V30 7391 H 720.029 7.04659 0.697222 0
M  V30 7392 H 720.437 5.46299 1.42187 0
M  V30 7393 N 719.835 0.176821 1.56605 0
M  V30 7394 C 721.06 -0.47599 2.01864 0
M  V30 7395 C 721.485 -1.55645 1.05623 0
M  V30 7396 O 720.843 -1.81263 0.0366729 0
M  V30 7397 C 720.891 -1.02619 3.4569 0
M  V30 7398 O 719.995 -2.13996 3.52533 0
M  V30 7399 H 719.336 -0.113363 0.654251 0
M  V30 7400 H 721.866 0.28233 2.02643 0
M  V30 7401 H 721.876 -1.34742 3.85109 0
M  V30 7402 H 720.551 -0.235138 4.15235 0
M  V30 7403 H 719.128 -1.82876 3.24978 0
M  V30 7404 N 721.313 -1.57302 -0.09688 0
M  V30 7405 C 722.724 -1.7496 -0.651595 0
M  V30 7406 C 723.075 -0.798746 -1.79205 0
M  V30 7407 O 722.2 0.0231858 -2.16388 0
M  V30 7408 C 722.795 -3.17259 -1.18878 0
M  V30 7409 C 721.354 -3.36348 -1.68958 0
M  V30 7410 C 720.501 -2.70766 -0.598413 0
M  V30 7411 H 723.452 -1.58173 0.12918 0
M  V30 7412 H 723.473 -3.20033 -2.05814 0
M  V30 7413 H 722.985 -3.8644 -0.358523 0
M  V30 7414 H 721.086 -2.72243 -2.5439 0
M  V30 7415 H 721.199 -4.44654 -1.7838 0
M  V30 7416 H 719.563 -2.32615 -1.03743 0
M  V30 7417 H 720.346 -3.42586 0.221238 0
M  V30 7418 N 722.791 0.367657 -1.53252 0
M  V30 7419 C 724.207 0.709191 -1.42978 0
M  V30 7420 C 724.407 1.93352 -0.567193 0
M  V30 7421 O 723.463 2.52453 -0.0488349 0
M  V30 7422 C 724.776 0.924338 -2.86141 0
M  V30 7423 C 726.324 1.02448 -2.95759 0
M  V30 7424 C 726.799 1.27211 -4.39979 0
M  V30 7425 N 728.29 1.33986 -4.43398 0
M  V30 7426 C 729.025 1.54852 -5.52095 0
M  V30 7427 N 728.521 1.73049 -6.7084 0
M  V30 7428 N 730.314 1.57205 -5.39669 0
M  V30 7429 H 722.465 -0.437669 -2.07842 0
M  V30 7430 H 724.728 -0.133737 -0.938519 0
M  V30 7431 H 724.434 0.0965455 -3.51567 0
M  V30 7432 H 724.308 1.83302 -3.29667 0
M  V30 7433 H 726.695 1.84282 -2.30487 0
M  V30 7434 H 726.776 0.0932301 -2.5563 0
M  V30 7435 H 726.42 0.458792 -5.05824 0
M  V30 7436 H 726.35 2.21654 -4.77679 0
M  V30 7437 H 728.841 1.21545 -3.5782 0
M  V30 7438 H 729.154 1.88538 -7.49449 0
M  V30 7439 H 727.499 1.70231 -6.7383 0
M  V30 7440 H 730.69 1.42555 -4.45865 0
M  V30 7441 H 730.863 1.73126 -6.24445 0
M  V30 7442 N 724.269 1.44576 0.627338 0
M  V30 7443 C 725.685 1.28546 0.945938 0
M  V30 7444 C 725.885 0.224003 2.00251 0
M  V30 7445 O 724.941 -0.388817 2.49488 0
M  V30 7446 C 726.254 2.65825 1.40561 0
M  V30 7447 C 727.802 2.73566 1.52088 0
M  V30 7448 C 728.277 4.11323 2.01438 0
M  V30 7449 N 729.768 4.13519 2.08702 0
M  V30 7450 C 730.503 5.16964 2.48065 0
M  V30 7451 N 729.999 6.30768 2.86538 0
M  V30 7452 N 731.792 5.04319 2.48232 0
M  V30 7453 H 723.943 2.1228 -0.0713567 0
M  V30 7454 H 726.206 0.947503 0.0307081 0
M  V30 7455 H 725.912 3.44591 0.703539 0
M  V30 7456 H 725.786 2.92969 2.37591 0
M  V30 7457 H 728.173 1.95116 2.21391 0
M  V30 7458 H 728.254 2.50159 0.534237 0
M  V30 7459 H 727.898 4.9025 1.32729 0
M  V30 7460 H 727.828 4.32109 3.0098 0
M  V30 7461 H 730.319 3.31385 1.81638 0
M  V30 7462 H 730.632 7.0551 3.15398 0
M  V30 7463 H 728.977 6.342 2.84281 0
M  V30 7464 H 732.168 4.14465 2.17569 0
M  V30 7465 H 732.341 5.85059 2.78585 0
M  V30 7466 N 725.747 -0.868086 1.31537 0
M  V30 7467 C 726.679 -1.98165 1.15166 0
M  V30 7468 C 727.692 -1.6255 0.0902335 0
M  V30 7469 O 728.881 -1.75272 0.33791 0
M  V30 7470 C 725.981 -3.30772 0.737776 0
M  V30 7471 C 725.154 -3.94716 1.88462 0
M  V30 7472 C 724.213 -5.05641 1.45648 0
M  V30 7473 O 723.239 -5.2636 2.16642 0
M  V30 7474 N 724.441 -5.79474 0.34493 0
M  V30 7475 H 727.206 -2.12754 2.11083 0
M  V30 7476 H 724.767 -1.04217 1.23897 0
M  V30 7477 H 726.759 -4.02366 0.434032 0
M  V30 7478 H 725.329 -3.1233 -0.129834 0
M  V30 7479 H 724.549 -3.16079 2.35558 0
M  V30 7480 H 725.837 -4.34175 2.65273 0
M  V30 7481 H 725.235 -5.65164 -0.246259 0
M  V30 7482 H 723.792 -6.51722 0.100728 0
M  V30 7483 N 727.225 -1.14528 -1.08264 0
M  V30 7484 C 728.471 -0.91576 -1.80947 0
M  V30 7485 C 728.804 0.55623 -1.86064 0
M  V30 7486 O 728.079 1.41207 -1.33756 0
M  V30 7487 C 728.362 -1.51917 -3.26486 0
M  V30 7488 C 728.215 -3.06111 -3.2957 0
M  V30 7489 C 729.534 -1.19724 -4.23502 0
M  V30 7490 H 726.653 -0.334113 -0.656915 0
M  V30 7491 H 729.295 -1.41547 -1.26746 0
M  V30 7492 H 727.445 -1.0942 -3.72773 0
M  V30 7493 H 729.117 -3.57448 -2.91597 0
M  V30 7494 H 727.36 -3.40483 -2.688 0
M  V30 7495 H 728.031 -3.43438 -4.32151 0
M  V30 7496 H 730.507 -1.56467 -3.85561 0
M  V30 7497 H 729.383 -1.64575 -5.23647 0
M  V30 7498 H 729.644 -0.112771 -4.41956 0
M  V30 7499 N 728.703 1.26451 -0.940633 0
M  V30 7500 C 729.931 1.97868 -0.604642 0
M  V30 7501 C 730.346 1.70051 0.820251 0
M  V30 7502 O 729.703 0.96843 1.54686 0
M  V30 7503 C 729.754 3.51684 -0.836689 0
M  V30 7504 O 729.475 3.78533 -2.20554 0
M  V30 7505 C 730.976 4.40343 -0.511169 0
M  V30 7506 H 728.196 0.631105 -0.227919 0
M  V30 7507 H 730.74 1.60979 -1.26119 0
M  V30 7508 H 728.895 3.86736 -0.226759 0
M  V30 7509 H 729.309 4.73065 -2.26517 0
M  V30 7510 H 730.783 5.47229 -0.724157 0
M  V30 7511 H 731.26 4.35694 0.553815 0
M  V30 7512 H 731.866 4.10834 -1.0998 0
M  V30 7513 N 730.181 0.707592 1.40822 0
M  V30 7514 C 731.406 0.251626 2.05868 0
M  V30 7515 C 731.831 -1.09503 1.5294 0
M  V30 7516 O 731.189 -1.68806 0.661385 0
M  V30 7517 C 731.237 0.23287 3.59847 0
M  V30 7518 O 730.341 -0.788477 4.04792 0
M  V30 7519 H 729.682 0.119936 0.653078 0
M  V30 7520 H 732.212 0.96583 1.80369 0
M  V30 7521 H 732.222 0.0678204 4.07944 0
M  V30 7522 H 730.897 1.21565 3.97737 0
M  V30 7523 H 729.474 -0.591802 3.68174 0
M  V30 7524 N 731.66 -1.50943 0.453197 0
M  V30 7525 C 732.908 -2.01813 -0.107709 0
M  V30 7526 C 733.229 -1.33841 -1.41816 0
M  V30 7527 O 732.499 -0.477973 -1.8998 0
M  V30 7528 H 731.079 -0.745773 -0.0427948 0
M  V30 7529 H 733.741 -1.8545 0.599531 0
M  V30 7530 H 732.837 -3.10911 -0.27218 0
M  V30 7531 N 733.138 -0.185124 -1.56509 0
M  V30 7532 C 734.068 0.735098 -2.21627 0
M  V30 7533 C 735.049 1.2288 -1.1762 0
M  V30 7534 O 736.234 1.27945 -1.46095 0
M  V30 7535 C 733.364 1.95889 -2.86783 0
M  V30 7536 C 732.318 1.6005 -3.96948 0
M  V30 7537 C 731.644 2.90009 -4.4922 0
M  V30 7538 C 732.944 0.818008 -5.15855 0
M  V30 7539 H 734.638 0.192274 -2.98782 0
M  V30 7540 H 732.184 0.0910393 -1.43712 0
M  V30 7541 H 734.137 2.60779 -3.31017 0
M  V30 7542 H 732.861 2.52608 -2.07018 0
M  V30 7543 H 731.52 0.975237 -3.5339 0
M  V30 7544 H 731.168 3.44797 -3.6623 0
M  V30 7545 H 730.868 2.66778 -5.23549 0
M  V30 7546 H 732.392 3.55904 -4.9615 0
M  V30 7547 H 733.806 1.36979 -5.56695 0
M  V30 7548 H 732.203 0.684207 -5.96187 0
M  V30 7549 H 733.273 -0.182939 -4.84555 0
M  V30 7550 N 734.616 1.57351 0.0885366 0
M  V30 7551 C 735.579 2.01557 1.09121 0
M  V30 7552 C 736.579 0.910052 1.3257 0
M  V30 7553 O 737.769 1.17537 1.28572 0
M  V30 7554 C 734.901 2.38189 2.43883 0
M  V30 7555 H 736.094 2.91361 0.710562 0
M  V30 7556 H 733.647 1.52694 0.333779 0
M  V30 7557 H 734.382 1.5136 2.86811 0
M  V30 7558 H 734.167 3.18846 2.28209 0
M  V30 7559 H 735.657 2.73025 3.15986 0
M  V30 7560 N 736.094 -0.359525 1.53444 0
M  V30 7561 C 737.322 -1.12198 1.73837 0
M  V30 7562 C 737.737 -1.82854 0.470107 0
M  V30 7563 O 737.094 -1.73781 -0.557349 0
M  V30 7564 C 737.145 -2.14769 2.90786 0
M  V30 7565 O 736.866 -1.46989 4.12706 0
M  V30 7566 C 738.367 -3.03514 3.231 0
M  V30 7567 H 735.587 -0.33524 0.581253 0
M  V30 7568 H 738.131 -0.416598 2.00212 0
M  V30 7569 H 736.286 -2.80896 2.66788 0
M  V30 7570 H 736.7 -2.15378 4.78239 0
M  V30 7571 H 738.174 -3.71453 4.08322 0
M  V30 7572 H 738.651 -3.68658 2.38721 0
M  V30 7573 H 739.257 -2.42996 3.49046 0
M  V30 7574 N 737.572 -1.44907 -0.619662 0
M  V30 7575 C 738.988 -1.29046 -0.939107 0
M  V30 7576 C 739.188 -0.23462 -2.00129 0
M  V30 7577 O 738.244 0.37558 -2.49691 0
M  V30 7578 C 739.557 -2.66567 -1.39149 0
M  V30 7579 C 741.105 -2.74368 -1.50635 0
M  V30 7580 C 741.58 -4.12386 -1.99253 0
M  V30 7581 N 743.071 -4.1462 -2.06506 0
M  V30 7582 C 743.806 -5.18272 -2.4532 0
M  V30 7583 N 743.302 -6.32278 -2.83189 0
M  V30 7584 N 745.095 -5.05628 -2.45554 0
M  V30 7585 H 737.246 -2.12239 0.0826135 0
M  V30 7586 H 739.509 -0.947652 -0.0256829 0
M  V30 7587 H 739.215 -3.4496 -0.685254 0
M  V30 7588 H 739.089 -2.94224 -2.36034 0
M  V30 7589 H 741.476 -1.96287 -2.20353 0
M  V30 7590 H 741.557 -2.50439 -0.520963 0
M  V30 7591 H 741.201 -4.90947 -1.30127 0
M  V30 7592 H 741.131 -4.33699 -2.98684 0
M  V30 7593 H 743.622 -3.32343 -1.79878 0
M  V30 7594 H 743.935 -7.07172 -3.11652 0
M  V30 7595 H 742.28 -6.35699 -2.80913 0
M  V30 7596 H 745.471 -4.15613 -2.15367 0
M  V30 7597 H 745.644 -5.86529 -2.75478 0
M  V30 7598 N 739.05 0.861098 -1.31996 0
M  V30 7599 C 740.461 1.43065 -1.19955 0
M  V30 7600 C 740.812 1.95273 0.190489 0
M  V30 7601 O 739.937 1.87012 1.08882 0
M  V30 7602 C 740.532 2.60052 -2.1716 0
M  V30 7603 C 739.091 3.13026 -2.09026 0
M  V30 7604 C 738.238 1.85756 -2.05888 0
M  V30 7605 H 741.189 0.668834 -1.43918 0
M  V30 7606 H 741.21 3.37016 -1.76637 0
M  V30 7607 H 740.722 2.22024 -3.18319 0
M  V30 7608 H 738.823 3.55653 -1.11092 0
M  V30 7609 H 738.936 3.74707 -2.98549 0
M  V30 7610 H 737.3 2.05088 -1.51033 0
M  V30 7611 H 738.083 1.49954 -3.08818 0
M  V30 7612 N 740.528 1.15101 1.07655 0
M  V30 7613 C 741.944 0.893004 1.32279 0
M  V30 7614 C 742.144 -0.461701 1.96139 0
M  V30 7615 O 741.2 -1.20431 2.21929 0
M  V30 7616 C 742.513 2.03161 2.21689 0
M  V30 7617 C 744.061 2.06579 2.35147 0
M  V30 7618 C 744.536 3.19754 3.27905 0
M  V30 7619 N 746.027 3.19382 3.35484 0
M  V30 7620 C 746.762 4.03592 4.07309 0
M  V30 7621 N 746.258 4.97859 4.81776 0
M  V30 7622 N 748.051 3.91626 4.03219 0
M  V30 7623 H 740.202 2.02341 0.645886 0
M  V30 7624 H 742.465 0.882127 0.347211 0
M  V30 7625 H 742.171 3.00934 1.82021 0
M  V30 7626 H 742.045 1.96132 3.22199 0
M  V30 7627 H 744.432 1.09408 2.74069 0
M  V30 7628 H 744.513 2.17676 1.34353 0
M  V30 7629 H 744.157 4.17175 2.89702 0
M  V30 7630 H 744.087 3.05893 4.28645 0
M  V30 7631 H 746.578 2.51112 2.82403 0
M  V30 7632 H 746.891 5.58563 5.34067 0
M  V30 7633 H 745.236 5.0185 4.80803 0
M  V30 7634 H 748.427 3.17295 3.44154 0
M  V30 7635 H 748.6 4.57479 4.5893 0
M  V30 7636 N 742.006 -1.2595 0.947325 0
M  V30 7637 C 742.939 -2.24559 0.406009 0
M  V30 7638 C 743.917 -1.54441 -0.508598 0
M  V30 7639 O 745.101 -1.83181 -0.444644 0
M  V30 7640 C 742.228 -3.36136 -0.415987 0
M  V30 7641 C 741.274 -4.24245 0.437969 0
M  V30 7642 S 742.107 -5.01948 1.86572 0
M  V30 7643 C 743.263 -6.16997 1.05194 0
M  V30 7644 H 743.496 -2.70128 1.24171 0
M  V30 7645 H 741.029 -1.34912 0.750874 0
M  V30 7646 H 742.987 -4.00861 -0.88433 0
M  V30 7647 H 741.648 -2.89167 -1.22643 0
M  V30 7648 H 740.841 -5.03634 -0.192127 0
M  V30 7649 H 740.443 -3.64416 0.841235 0
M  V30 7650 H 742.735 -6.76848 0.297126 0
M  V30 7651 H 743.678 -6.84324 1.8195 0
M  V30 7652 H 744.086 -5.61458 0.585294 0
M  V30 7653 N 743.484 -0.715051 -1.40445 0
M  V30 7654 C 744.895 -0.326763 -1.83818 0
M  V30 7655 C 745.246 1.13851 -1.59789 0
M  V30 7656 O 744.371 1.87611 -1.07848 0
M  V30 7657 C 744.966 -0.586297 -3.33688 0
M  V30 7658 C 743.525 -0.251724 -3.75557 0
M  V30 7659 C 742.672 -0.858928 -2.63662 0
M  V30 7660 H 745.623 -0.914241 -1.2972 0
M  V30 7661 H 745.644 0.148636 -3.8021 0
M  V30 7662 H 745.156 -1.65281 -3.51146 0
M  V30 7663 H 743.257 0.809754 -3.63695 0
M  V30 7664 H 743.37 -0.720348 -4.73654 0
M  V30 7665 H 741.734 -0.287013 -2.53078 0
M  V30 7666 H 742.517 -1.9297 -2.83932 0
M  V30 7667 N 744.962 1.50701 -0.461195 0
M  V30 7668 C 745.91 2.29918 0.352231 0
M  V30 7669 C 746.904 1.36778 0.999403 0
M  V30 7670 O 748.11 1.54015 0.931639 0
M  V30 7671 H 744.485 0.740249 0.132423 0
M  V30 7672 H 746.456 2.96497 -0.336424 0
M  V30 7673 C 745.205 3.17052 1.42736 0
M  V30 7674 H 744.528 3.88623 0.938747 0
M  V30 7675 H 745.968 3.75493 1.96928 0
M  V30 7676 C 744.427 2.3399 2.42384 0
M  V30 7677 O 744.957 2.01608 3.47444 0
M  V30 7678 N 743.163 1.96758 2.13857 0
M  V30 7679 H 742.71 2.23292 1.28447 0
M  V30 7680 H 742.668 1.41484 2.80766 0
M  V30 7681 N 746.441 0.193421 1.56409 0
M  V30 7682 C 747.389 -0.744829 2.20352 0
M  V30 7683 C 748.383 -1.22104 1.17418 0
M  V30 7684 O 749.589 -1.18413 1.35567 0
M  V30 7685 H 745.964 -0.258538 0.70616 0
M  V30 7686 H 747.935 -0.181794 2.97846 0
M  V30 7687 C 746.684 -1.95453 2.87565 0
M  V30 7688 H 746.007 -1.59716 3.66512 0
M  V30 7689 H 747.447 -2.58942 3.35745 0
M  V30 7690 C 745.906 -2.79223 1.8851 0
M  V30 7691 O 746.436 -3.77093 1.38434 0
M  V30 7692 N 744.642 -2.44682 1.56777 0
M  V30 7693 H 744.189 -1.65153 1.97692 0
M  V30 7694 H 744.147 -3.01016 0.907573 0
M  V30 7695 N 747.919 -1.57396 -0.0801906 0
M  V30 7696 C 749.144 -1.91437 -0.797909 0
M  V30 7697 C 749.569 -0.789075 -1.70749 0
M  V30 7698 O 748.927 0.25857 -1.79447 0
M  V30 7699 C 748.975 -3.24402 -1.57467 0
M  V30 7700 O 748.079 -3.13043 -2.68473 0
M  V30 7701 H 747.42 -0.627109 -0.218243 0
M  V30 7702 H 749.95 -2.04537 -0.050949 0
M  V30 7703 H 749.96 -3.58072 -1.95571 0
M  V30 7704 H 748.635 -4.05884 -0.907229 0
M  V30 7705 H 747.212 -2.90915 -2.33287 0
M  V30 7706 N 749.397 0.351382 -1.53633 0
M  V30 7707 C 750.644 1.0925 -1.70502 0
M  V30 7708 C 750.972 1.88881 -0.464123 0
M  V30 7709 O 750.227 1.87693 0.554077 0
M  V30 7710 C 750.526 2.06744 -2.91533 0
M  V30 7711 C 750.192 1.43484 -4.27461 0
M  V30 7712 C 748.854 1.2596 -4.64422 0
M  V30 7713 C 751.206 0.978436 -5.11934 0
M  V30 7714 C 748.534 0.614017 -5.83478 0
M  V30 7715 C 750.886 0.346795 -6.31649 0
M  V30 7716 C 749.55 0.15917 -6.6731 0
M  V30 7717 H 748.82 0.399773 -0.623909 0
M  V30 7718 H 751.467 0.372656 -1.87839 0
M  V30 7719 H 749.772 2.85082 -2.68767 0
M  V30 7720 H 751.469 2.64066 -3.01778 0
M  V30 7721 H 748.059 1.5812 -3.98367 0
M  V30 7722 H 752.243 1.1017 -4.83918 0
M  V30 7723 H 747.499 0.457194 -6.09688 0
M  V30 7724 H 751.673 -0.0149864 -6.96398 0
M  V30 7725 H 749.3 -0.343129 -7.59425 0
M  V30 7726 N 750.875 1.45233 0.611969 0
M  V30 7727 C 752.286 1.4354 1.19387 0
M  V30 7728 C 752.637 0.160713 1.95541 0
M  V30 7729 O 751.762 -0.737954 2.03429 0
M  V30 7730 C 752.357 2.60045 2.17169 0
M  V30 7731 C 750.916 2.61486 2.70744 0
M  V30 7732 C 750.063 2.35708 1.46072 0
M  V30 7733 H 753.014 1.53536 0.401529 0
M  V30 7734 H 753.035 2.33893 3.00124 0
M  V30 7735 H 752.547 3.52803 1.61714 0
M  V30 7736 H 750.648 1.72721 3.30149 0
M  V30 7737 H 750.761 3.60572 3.15476 0
M  V30 7738 H 749.125 1.85178 1.74875 0
M  V30 7739 H 749.908 3.30606 0.924922 0
M  V30 7740 N 752.353 -0.854086 1.3245 0
M  V30 7741 C 753.764 -1.42427 1.20712 0
M  V30 7742 C 754.115 -1.95371 -0.18013 0
M  V30 7743 O 753.24 -1.87587 -1.07889 0
M  V30 7744 C 753.835 -2.58897 2.18536 0
M  V30 7745 C 752.394 -3.11913 2.10683 0
M  V30 7746 C 751.541 -1.84661 2.06871 0
M  V30 7747 H 754.492 -0.661192 1.4427 0
M  V30 7748 H 754.513 -3.36074 1.78422 0
M  V30 7749 H 754.025 -2.20333 3.19492 0
M  V30 7750 H 752.126 -3.55059 1.12977 0
M  V30 7751 H 752.239 -3.73119 3.00532 0
M  V30 7752 H 750.603 -2.04285 1.52118 0
M  V30 7753 H 751.386 -1.48314 3.09609 0
M  V30 7754 N 753.831 -1.1567 -1.07043 0
M  V30 7755 C 754.779 -0.852204 -2.16426 0
M  V30 7756 C 755.773 0.175661 -1.68487 0
M  V30 7757 O 756.979 0.0303874 -1.79974 0
M  V30 7758 H 753.354 -0.257942 -0.706378 0
M  V30 7759 H 755.325 -1.78231 -2.39324 0
M  V30 7760 C 754.074 -0.361362 -3.45817 0
M  V30 7761 H 753.397 -1.14369 -3.83092 0
M  V30 7762 H 754.837 -0.186997 -4.23587 0
M  V30 7763 C 753.296 0.917703 -3.2416 0
M  V30 7764 O 753.826 1.98858 -3.49025 0
M  V30 7765 N 752.032 0.858456 -2.77631 0
M  V30 7766 H 751.579 -0.0131821 -2.57597 0
M  V30 7767 H 751.537 1.71478 -2.6352 0
M  V30 7768 N 755.309 1.25446 -0.953992 0
M  V30 7769 C 756.558 1.92441 -0.604101 0
M  V30 7770 C 756.871 1.75543 0.862796 0
M  V30 7771 O 758.077 2.37106 1.32262 0
M  V30 7772 C 756.533 3.44854 -1.02974 0
M  V30 7773 C 756.141 3.70464 -2.51914 0
M  V30 7774 C 757.885 4.1778 -0.752352 0
M  V30 7775 C 755.792 5.1638 -2.88281 0
M  V30 7776 H 754.722 0.720508 -0.222227 0
M  V30 7777 H 757.373 1.42318 -1.15836 0
M  V30 7778 H 755.755 3.93935 -0.403904 0
M  V30 7779 H 756.929 3.32038 -3.19511 0
M  V30 7780 H 755.244 3.10797 -2.77117 0
M  V30 7781 H 757.841 5.25261 -1.00024 0
M  V30 7782 H 758.184 4.15135 0.311212 0
M  V30 7783 H 758.717 3.74605 -1.33851 0
M  V30 7784 H 755.456 5.24135 -3.93653 0
M  V30 7785 H 754.976 5.55855 -2.25357 0
M  V30 7786 H 756.655 5.84497 -2.77439 0
M  V30 7787 N 756.787 0.722489 1.40064 0
M  V30 7788 C 758.012 0.273446 2.05589 0
M  V30 7789 C 758.437 -1.07875 1.54093 0
M  V30 7790 O 757.795 -1.68095 0.679252 0
M  V30 7791 C 757.843 0.271023 3.5958 0
M  V30 7792 O 756.947 -0.745499 4.05606 0
M  V30 7793 H 756.288 0.126856 0.65177 0
M  V30 7794 H 758.818 0.984906 1.79334 0
M  V30 7795 H 758.828 0.111084 4.07849 0
M  V30 7796 H 757.503 1.25776 3.96425 0
M  V30 7797 H 756.08 -0.552719 3.68781 0
M  V30 7798 N 758.265 -1.50454 0.469181 0
M  V30 7799 C 759.493 -2.06729 -0.0842134 0
M  V30 7800 C 759.908 -1.33326 -1.33677 0
M  V30 7801 O 759.265 -0.401977 -1.78018 0
M  V30 7802 C 759.316 -3.59557 -0.374253 0
M  V30 7803 O 759.037 -4.30192 0.828622 0
M  V30 7804 C 760.538 -4.32449 -0.974824 0
M  V30 7805 H 757.758 -0.670971 0.006231 0
M  V30 7806 H 760.302 -1.93645 0.657415 0
M  V30 7807 H 758.457 -3.7245 -1.06581 0
M  V30 7808 H 758.871 -5.21371 0.572066 0
M  V30 7809 H 760.345 -5.40361 -1.12755 0
M  V30 7810 H 760.822 -3.92819 -1.96442 0
M  V30 7811 H 761.428 -4.24082 -0.321703 0
M  V30 7812 N 759.743 -0.201713 -1.56304 0
M  V30 7813 C 760.673 0.71155 -2.22394 0
M  V30 7814 C 761.654 1.21625 -1.18917 0
M  V30 7815 O 762.839 1.26388 -1.47444 0
M  V30 7816 C 759.969 1.92837 -2.88845 0
M  V30 7817 C 758.923 1.55831 -3.98623 0
M  V30 7818 C 758.249 2.85228 -4.52271 0
M  V30 7819 C 759.549 0.763249 -5.16693 0
M  V30 7820 H 761.243 0.160573 -2.98969 0
M  V30 7821 H 758.789 0.0757916 -1.438 0
M  V30 7822 H 760.742 2.57253 -3.33764 0
M  V30 7823 H 759.466 2.50398 -2.09686 0
M  V30 7824 H 758.125 0.9377 -3.54405 0
M  V30 7825 H 757.773 3.40893 -3.69866 0
M  V30 7826 H 757.473 2.6121 -5.26349 0
M  V30 7827 H 758.997 3.50622 -4.99897 0
M  V30 7828 H 760.411 1.31066 -5.58117 0
M  V30 7829 H 758.808 0.620935 -5.96879 0
M  V30 7830 H 759.878 -0.234322 -4.84334 0
M  V30 7831 N 761.222 1.57436 0.0718424 0
M  V30 7832 C 762.447 1.91858 0.787745 0
M  V30 7833 C 762.872 0.798119 1.70328 0
M  V30 7834 O 762.23 -0.24905 1.79581 0
M  V30 7835 C 762.278 3.25232 1.55744 0
M  V30 7836 O 761.382 3.14462 2.6681 0
M  V30 7837 H 760.723 0.628258 0.214914 0
M  V30 7838 H 763.253 2.04561 0.0401012 0
M  V30 7839 H 763.263 3.59105 1.9367 0
M  V30 7840 H 761.938 4.0636 0.885691 0
M  V30 7841 H 760.515 2.92148 2.31741 0
M  V30 7842 N 762.7 -0.34323 1.53817 0
M  V30 7843 C 763.925 -1.1079 1.75329 0
M  V30 7844 C 764.35 -1.81571 0.491293 0
M  V30 7845 O 763.708 -1.72561 -0.556089 0
M  V30 7846 C 763.756 -2.09681 2.9337 0
M  V30 7847 O 762.86 -3.17207 2.63541 0
M  V30 7848 H 762.201 -0.320402 0.581583 0
M  V30 7849 H 764.731 -0.393525 2.0078 0
M  V30 7850 H 764.741 -2.52897 3.20168 0
M  V30 7851 H 763.416 -1.5756 3.84899 0
M  V30 7852 H 761.993 -2.78806 2.47632 0
M  V30 7853 N 764.178 -1.45556 -0.604258 0
M  V30 7854 C 765.589 -1.44171 -1.18624 0
M  V30 7855 C 765.94 -0.171081 -1.95453 0
M  V30 7856 O 765.065 0.727156 -2.03817 0
M  V30 7857 C 765.66 -2.61193 -2.15786 0
M  V30 7858 C 764.219 -2.62918 -2.69353 0
M  V30 7859 C 763.366 -2.36479 -1.4482 0
M  V30 7860 H 766.317 -1.53747 -0.393381 0
M  V30 7861 H 766.338 -2.35481 -2.98879 0
M  V30 7862 H 765.85 -3.53656 -1.59841 0
M  V30 7863 H 763.951 -1.7447 -3.29228 0
M  V30 7864 H 764.064 -3.6224 -3.13559 0
M  V30 7865 H 762.428 -1.86103 -1.73891 0
M  V30 7866 H 763.211 -3.31091 -0.907376 0
M  V30 7867 N 765.656 0.84705 -1.32902 0
M  V30 7868 C 766.902 1.60414 -1.24078 0
M  V30 7869 C 767.235 1.93217 0.195105 0
M  V30 7870 O 766.51 1.58001 1.13428 0
M  V30 7871 C 766.793 2.91951 -2.108 0
M  V30 7872 C 766.646 2.6588 -3.62805 0
M  V30 7873 C 767.965 3.93299 -1.97494 0
M  V30 7874 H 765.084 0.58206 -0.452079 0
M  V30 7875 H 767.726 0.977562 -1.62922 0
M  V30 7876 H 765.876 3.45425 -1.77802 0
M  V30 7877 H 767.548 2.18902 -4.06054 0
M  V30 7878 H 765.791 1.99716 -3.85092 0
M  V30 7879 H 766.462 3.59574 -4.1882 0
M  V30 7880 H 768.938 3.49105 -2.26417 0
M  V30 7881 H 767.814 4.8318 -2.60438 0
M  V30 7882 H 768.075 4.31887 -0.944782 0
M  V30 7883 N 767.134 1.16236 1.06428 0
M  V30 7884 C 768.382 0.941171 1.78847 0
M  V30 7885 C 768.703 -0.53248 1.87589 0
M  V30 7886 O 767.973 -1.38686 1.38358 0
M  V30 7887 H 766.553 0.345228 0.66244 0
M  V30 7888 H 769.215 1.46479 1.28569 0
M  V30 7889 H 768.311 1.35871 2.80972 0
M  V30 7890 N 768.612 -1.24939 0.960631 0
M  V30 7891 C 769.545 -2.24116 0.429804 0
M  V30 7892 C 770.523 -1.54972 -0.492188 0
M  V30 7893 O 771.707 -1.83642 -0.42519 0
M  V30 7894 C 768.834 -3.36558 -0.380312 0
M  V30 7895 C 767.88 -4.23757 0.482941 0
M  V30 7896 S 768.713 -4.9994 1.91885 0
M  V30 7897 C 769.869 -6.15846 1.11732 0
M  V30 7898 H 770.102 -2.68795 1.27029 0
M  V30 7899 H 767.635 -1.34108 0.765141 0
M  V30 7900 H 769.593 -4.01777 -0.841764 0
M  V30 7901 H 768.254 -2.90451 -1.19569 0
M  V30 7902 H 767.447 -5.03809 -0.138699 0
M  V30 7903 H 767.049 -3.63504 0.879839 0
M  V30 7904 H 769.341 -6.76495 0.368898 0
M  V30 7905 H 770.284 -6.82356 1.89198 0
M  V30 7906 H 770.692 -5.60805 0.644812 0
M  V30 7907 N 770.09 -0.729906 -1.39679 0
M  V30 7908 C 771.318 -0.285709 -2.04918 0
M  V30 7909 C 771.733 1.07765 -1.55023 0
M  V30 7910 O 771.09 1.67999 -0.712923 0
M  V30 7911 C 771.141 -0.272793 -3.60469 0
M  V30 7912 O 770.862 -1.58233 -4.08527 0
M  V30 7913 C 772.363 0.188199 -4.429 0
M  V30 7914 H 769.583 -0.125758 -0.65911 0
M  V30 7915 H 772.127 -0.992129 -1.78821 0
M  V30 7916 H 770.282 0.384699 -3.85485 0
M  V30 7917 H 770.696 -1.49245 -5.02818 0
M  V30 7918 H 772.17 0.14608 -5.51807 0
M  V30 7919 H 772.647 1.2326 -4.21549 0
M  V30 7920 H 773.253 -0.439541 -4.23023 0
M  V30 7921 N 771.568 1.50203 -0.477153 0
M  V30 7922 C 772.793 2.07263 0.0754986 0
M  V30 7923 C 773.218 1.33801 1.32208 0
M  V30 7924 O 772.576 0.387482 1.77111 0
M  V30 7925 C 772.624 3.59028 0.336348 0
M  V30 7926 O 771.728 3.87339 1.4157 0
M  V30 7927 H 771.069 0.663815 -0.015662 0
M  V30 7928 H 773.599 1.93321 -0.669936 0
M  V30 7929 H 773.609 4.03927 0.575034 0
M  V30 7930 H 772.284 4.11912 -0.574551 0
M  V30 7931 H 770.861 3.54272 1.16385 0
M  V30 7932 N 773.046 0.209999 1.56195 0
M  V30 7933 C 774.271 -0.433064 2.02828 0
M  V30 7934 C 774.696 -1.5337 1.08901 0
M  V30 7935 O 774.054 -1.81144 0.0751132 0
M  V30 7936 C 774.102 -0.952635 3.47789 0
M  V30 7937 O 773.206 -2.0647 3.56993 0
M  V30 7938 H 772.547 -0.0994594 0.656509 0
M  V30 7939 H 775.077 0.32525 2.01998 0
M  V30 7940 H 775.087 -1.26542 3.8788 0
M  V30 7941 H 773.762 -0.147007 4.1564 0
M  V30 7942 H 772.339 -1.75942 3.28784 0
M  V30 7943 N 774.524 -1.57472 -0.0634922 0
M  V30 7944 C 775.487 -2.03268 -1.059 0
M  V30 7945 C 776.487 -0.931028 -1.31105 0
M  V30 7946 O 777.677 -1.19567 -1.26686 0
M  V30 7947 C 774.809 -2.42039 -2.40062 0
M  V30 7948 H 776.002 -2.92454 -0.664119 0
M  V30 7949 H 773.555 -1.53206 -0.309444 0
M  V30 7950 H 774.29 -1.55904 -2.84367 0
M  V30 7951 H 774.075 -3.22437 -2.23108 0
M  V30 7952 H 775.565 -2.78017 -3.11603 0
M  V30 7953 N 776.003 0.335068 -1.53997 0
M  V30 7954 C 777.243 1.0827 -1.7337 0
M  V30 7955 C 777.607 1.85618 -0.490913 0
M  V30 7956 O 778.808 2.62864 -0.561799 0
M  V30 7957 C 777.079 1.99212 -2.96731 0
M  V30 7958 S 778.638 2.81083 -3.36954 0
M  V30 7959 H 775.456 0.365698 -0.609743 0
M  V30 7960 H 778.058 0.360079 -1.92155 0
M  V30 7961 H 776.762 1.41204 -3.85344 0
M  V30 7962 H 776.293 2.75898 -2.80436 0
M  V30 7963 H 778.308 4.01657 -2.91352 0
M  V30 7964 N 777.481 1.45874 0.596531 0
M  V30 7965 C 778.429 1.55739 1.72766 0
M  V30 7966 C 779.423 0.426666 1.63939 0
M  V30 7967 O 780.629 0.60301 1.69599 0
M  V30 7968 H 777.004 0.489386 0.570968 0
M  V30 7969 H 778.975 2.50871 1.61575 0
M  V30 7970 C 777.724 1.55174 3.11153 0
M  V30 7971 H 777.047 2.41511 3.1861 0
M  V30 7972 H 778.487 1.66133 3.90097 0
M  V30 7973 C 776.946 0.278001 3.35751 0
M  V30 7974 O 777.476 -0.637557 3.96608 0
M  V30 7975 N 775.682 0.170227 2.90101 0
M  V30 7976 H 775.229 0.916159 2.40758 0
M  V30 7977 H 775.187 -0.68117 3.06932 0
M  V30 7978 N 778.959 -0.83999 1.33349 0
M  V30 7979 C 779.907 -1.97113 1.23488 0
M  V30 7980 C 780.901 -1.68849 0.136503 0
M  V30 7981 O 782.107 -1.77476 0.300389 0
M  V30 7982 H 778.482 -0.647049 0.383185 0
M  V30 7983 H 780.453 -2.02554 2.19122 0
M  V30 7984 C 779.202 -3.33314 0.989815 0
M  V30 7985 H 778.525 -3.556 1.82726 0
M  V30 7986 H 779.965 -4.12963 0.961123 0
M  V30 7987 C 778.424 -3.35496 -0.307272 0
M  V30 7988 O 778.954 -3.79589 -1.31434 0
M  V30 7989 N 777.16 -2.88669 -0.334414 0
M  V30 7990 H 776.707 -2.5298 0.485659 0
M  V30 7991 H 776.665 -2.90512 -1.20209 0
M  V30 7992 N 780.437 -1.16799 -1.0581 0
M  V30 7993 C 781.385 -0.875111 -2.1551 0
M  V30 7994 C 782.379 0.157781 -1.68664 0
M  V30 7995 O 783.585 0.011297 -1.79996 0
M  V30 7996 H 779.96 -0.26542 -0.703602 0
M  V30 7997 H 781.931 -1.8076 -2.37421 0
M  V30 7998 C 780.68 -0.39802 -3.45414 0
M  V30 7999 H 780.003 -1.18425 -3.81858 0
M  V30 8000 H 781.443 -0.231913 -4.23365 0
M  V30 8001 C 779.902 0.88327 -3.25115 0
M  V30 8002 O 780.432 1.95145 -3.51114 0
M  V30 8003 N 778.638 0.828961 -2.78526 0
M  V30 8004 H 778.185 -0.0405029 -2.57568 0
M  V30 8005 H 778.143 1.68673 -2.65324 0
M  V30 8006 N 781.915 1.24427 -0.967243 0
M  V30 8007 C 782.863 2.27403 -0.488927 0
M  V30 8008 C 783.857 1.63388 0.447302 0
M  V30 8009 O 785.063 1.77085 0.322643 0
M  V30 8010 H 781.438 0.738921 -0.139643 0
M  V30 8011 H 783.409 2.65122 -1.36942 0
M  V30 8012 C 782.158 3.4709 0.205787 0
M  V30 8013 H 781.481 3.96591 -0.50551 0
M  V30 8014 H 782.921 4.2099 0.504296 0
M  V30 8015 C 781.38 3.04923 1.43261 0
M  V30 8016 O 781.91 3.12043 2.52967 0
M  V30 8017 N 780.116 2.59976 1.29849 0
M  V30 8018 H 779.663 2.54382 0.405876 0
M  V30 8019 H 779.621 2.32128 2.12047 0
M  V30 8020 N 783.393 0.737304 1.3929 0
M  V30 8021 C 784.809 0.413132 1.5416 0
M  V30 8022 C 785.009 -1.07574 1.70382 0
M  V30 8023 O 784.065 -1.86185 1.70562 0
M  V30 8024 C 785.378 1.19817 2.75798 0
M  V30 8025 C 786.926 1.18662 2.89635 0
M  V30 8026 C 787.401 1.95427 4.14213 0
M  V30 8027 N 788.892 1.92605 4.21257 0
M  V30 8028 C 789.627 2.48808 5.16606 0
M  V30 8029 N 789.123 3.13659 6.1773 0
M  V30 8030 N 790.916 2.38829 5.08839 0
M  V30 8031 H 783.067 1.70243 1.27008 0
M  V30 8032 H 785.33 0.720802 0.61575 0
M  V30 8033 H 785.036 2.25179 2.70161 0
M  V30 8034 H 784.91 0.804144 3.68529 0
M  V30 8035 H 787.297 0.141112 2.94762 0
M  V30 8036 H 787.378 1.62003 1.97961 0
M  V30 8037 H 787.022 2.9998 4.09847 0
M  V30 8038 H 786.952 1.4949 5.04936 0
M  V30 8039 H 789.443 1.45362 3.48824 0
M  V30 8040 H 789.756 3.54006 6.8695 0
M  V30 8041 H 788.101 3.17749 6.1811 0
M  V30 8042 H 791.292 1.87806 4.28773 0
M  V30 8043 H 791.465 2.82929 5.82971 0
M  V30 8044 N 784.871 -1.49948 0.485112 0
M  V30 8045 C 786.096 -2.073 -0.0645059 0
M  V30 8046 C 786.521 -1.345 -1.31497 0
M  V30 8047 O 785.879 -0.39687 -1.76903 0
M  V30 8048 C 785.927 -3.59201 -0.317304 0
M  V30 8049 O 785.031 -3.88085 -1.39514 0
M  V30 8050 H 784.372 -0.663723 0.0191822 0
M  V30 8051 H 786.902 -1.92963 0.680179 0
M  V30 8052 H 786.912 -4.04227 -0.553604 0
M  V30 8053 H 785.587 -4.11602 0.596387 0
M  V30 8054 H 784.164 -3.54885 -1.14504 0
M  V30 8055 N 786.349 -0.21828 -1.56081 0
M  V30 8056 C 787.579 0.41865 -2.02314 0
M  V30 8057 C 787.987 1.54124 -1.09739 0
M  V30 8058 O 787.33 1.83435 -0.0986829 0
M  V30 8059 C 787.392 1.01439 -3.44892 0
M  V30 8060 C 787.056 0.0276523 -4.56992 0
M  V30 8061 C 788.053 -0.771526 -5.14143 0
M  V30 8062 C 785.738 -0.0901537 -5.02219 0
M  V30 8063 C 787.732 -1.67525 -6.14991 0
M  V30 8064 C 785.419 -0.997411 -6.02905 0
M  V30 8065 C 786.417 -1.78851 -6.59167 0
M  V30 8066 O 786.105 -2.68052 -7.57894 0
M  V30 8067 H 785.837 0.107066 -0.667468 0
M  V30 8068 H 788.391 -0.331191 -2.02712 0
M  V30 8069 H 786.621 1.81326 -3.41552 0
M  V30 8070 H 788.31 1.55838 -3.74792 0
M  V30 8071 H 789.076 -0.690945 -4.80053 0
M  V30 8072 H 784.955 0.515474 -4.58109 0
M  V30 8073 H 788.499 -2.29316 -6.58832 0
M  V30 8074 H 784.396 -1.07902 -6.36418 0
M  V30 8075 H 785.164 -2.6209 -7.75404 0
M  V30 8076 N 787.827 1.57504 0.0551401 0
M  V30 8077 C 789.052 1.92682 0.767352 0
M  V30 8078 C 789.477 0.81614 1.69472 0
M  V30 8079 O 788.835 -0.229989 1.79835 0
M  V30 8080 C 788.883 3.26866 1.52286 0
M  V30 8081 O 787.987 3.17274 2.63459 0
M  V30 8082 H 787.328 0.630502 0.208238 0
M  V30 8083 H 789.858 2.04592 0.0184026 0
M  V30 8084 H 789.868 3.61138 1.8985 0
M  V30 8085 H 788.543 4.07276 0.842541 0
M  V30 8086 H 787.12 2.94589 2.2863 0
M  V30 8087 N 789.305 -0.326896 1.54172 0
M  V30 8088 C 790.253 -1.42232 1.84046 0
M  V30 8089 C 791.247 -1.53705 0.712115 0
M  V30 8090 O 792.453 -1.56131 0.895724 0
M  V30 8091 H 788.828 -0.474568 0.583343 0
M  V30 8092 H 790.799 -1.14259 2.75658 0
M  V30 8093 C 789.548 -2.78502 2.08163 0
M  V30 8094 H 788.871 -2.70447 2.94446 0
M  V30 8095 H 790.311 -3.54228 2.33021 0
M  V30 8096 C 788.77 -3.25415 0.872152 0
M  V30 8097 O 789.3 -4.01621 0.0797648 0
M  V30 8098 N 787.506 -2.82418 0.684716 0
M  V30 8099 H 787.053 -2.20566 1.33072 0
M  V30 8100 H 787.011 -3.14159 -0.123031 0
M  V30 8101 N 790.784 -1.46188 -0.588786 0
M  V30 8102 C 792.033 -1.50452 -1.34339 0
M  V30 8103 C 792.346 -0.158096 -1.9496 0
M  V30 8104 O 793.552 -0.0784918 -2.71387 0
M  V30 8105 C 792.008 -2.65074 -2.43441 0
M  V30 8106 C 791.616 -4.06111 -1.8915 0
M  V30 8107 C 793.36 -2.78603 -3.20282 0
M  V30 8108 C 791.267 -5.12084 -2.95845 0
M  V30 8109 H 790.197 -0.559905 -0.504997 0
M  V30 8110 H 792.848 -1.72382 -0.629014 0
M  V30 8111 H 791.23 -2.36462 -3.1765 0
M  V30 8112 H 792.404 -4.44487 -1.21524 0
M  V30 8113 H 790.719 -3.97197 -1.24995 0
M  V30 8114 H 793.316 -3.54944 -3.99898 0
M  V30 8115 H 793.659 -1.85902 -3.72486 0
M  V30 8116 H 794.192 -3.06832 -2.53178 0
M  V30 8117 H 790.931 -6.06556 -2.48535 0
M  V30 8118 H 790.451 -4.78259 -3.61979 0
M  V30 8119 H 792.13 -5.37661 -3.59902 0
M  V30 8120 N 792.262 0.832906 -1.33792 0
M  V30 8121 C 793.673 1.40489 -1.22963 0
M  V30 8122 C 794.024 1.95633 0.149026 0
M  V30 8123 O 793.149 1.8928 1.04891 0
M  V30 8124 C 793.744 2.55387 -2.22627 0
M  V30 8125 C 792.303 3.08522 -2.15618 0
M  V30 8126 C 791.45 1.81347 -2.09782 0
M  V30 8127 H 794.401 0.638156 -1.45304 0
M  V30 8128 H 794.422 3.33193 -1.83746 0
M  V30 8129 H 793.934 2.15222 -3.22957 0
M  V30 8130 H 792.035 3.53217 -1.18611 0
M  V30 8131 H 792.148 3.6829 -3.0643 0
M  V30 8132 H 790.512 2.01839 -1.55349 0
M  V30 8133 H 791.295 1.43369 -3.1193 0
M  V30 8134 N 793.74 1.17359 1.05189 0
M  V30 8135 C 794.986 0.963413 1.78455 0
M  V30 8136 C 795.319 -0.506703 1.87473 0
M  V30 8137 O 794.594 -1.37611 1.37453 0
M  V30 8138 C 794.877 1.60519 3.22344 0
M  V30 8139 C 794.73 3.14741 3.21338 0
M  V30 8140 C 796.049 1.3091 4.20179 0
M  V30 8141 H 793.168 0.351412 0.647826 0
M  V30 8142 H 795.81 1.44858 1.22948 0
M  V30 8143 H 793.96 1.19265 3.69741 0
M  V30 8144 H 795.632 3.65053 2.82017 0
M  V30 8145 H 793.875 3.4749 2.59679 0
M  V30 8146 H 794.546 3.54775 4.22894 0
M  V30 8147 H 797.022 1.66635 3.81277 0
M  V30 8148 H 795.898 1.784 5.191 0
M  V30 8149 H 796.159 0.229908 4.41502 0
M  V30 8150 N 795.218 -1.23913 0.973828 0
M  V30 8151 C 796.446 -1.96195 0.656891 0
M  V30 8152 C 796.861 -1.72166 -0.774876 0
M  V30 8153 O 796.218 -1.0091 -1.52064 0
M  V30 8154 C 796.269 -3.49342 0.929638 0
M  V30 8155 O 795.99 -3.72553 2.30512 0
M  V30 8156 C 797.491 -4.38833 0.627739 0
M  V30 8157 H 794.711 -0.624841 0.244572 0
M  V30 8158 H 797.255 -1.57579 1.30343 0
M  V30 8159 H 795.41 -3.85999 0.329216 0
M  V30 8160 H 795.824 -4.66893 2.3898 0
M  V30 8161 H 797.298 -5.45117 0.868991 0
M  V30 8162 H 797.775 -4.37009 -0.438104 0
M  V30 8163 H 798.381 -4.07773 1.20834 0
M  V30 8164 N 796.696 -0.74468 -1.38897 0
M  V30 8165 C 797.921 -0.306119 -2.05128 0
M  V30 8166 C 798.346 1.0541 -1.55789 0
M  V30 8167 O 797.704 1.66993 -0.705909 0
M  V30 8168 C 797.752 -0.328195 -3.59103 0
M  V30 8169 O 796.856 0.680876 -4.06741 0
M  V30 8170 H 796.197 -0.137209 -0.649669 0
M  V30 8171 H 798.727 -1.01331 -1.77745 0
M  V30 8172 H 798.737 -0.175956 -4.0762 0
M  V30 8173 H 797.412 -1.32067 -3.94374 0
M  V30 8174 H 795.989 0.49398 -3.69614 0
M  V30 8175 N 798.174 1.49689 -0.493057 0
M  V30 8176 C 799.104 2.31826 0.279073 0
M  V30 8177 C 800.085 1.39733 0.969987 0
M  V30 8178 O 801.27 1.68646 0.962925 0
M  V30 8179 C 798.4 3.20046 1.34862 0
M  V30 8180 C 797.354 4.20869 0.77805 0
M  V30 8181 C 796.68 4.97971 1.94753 0
M  V30 8182 C 797.98 5.21813 -0.225543 0
M  V30 8183 H 799.674 2.96627 -0.406512 0
M  V30 8184 H 797.22 1.42647 -0.196943 0
M  V30 8185 H 799.173 3.76315 1.89645 0
M  V30 8186 H 797.897 2.53172 2.06328 0
M  V30 8187 H 796.556 3.65733 0.252036 0
M  V30 8188 H 796.204 4.27552 2.64969 0
M  V30 8189 H 795.904 5.66186 1.57187 0
M  V30 8190 H 797.428 5.57082 2.49984 0
M  V30 8191 H 798.842 5.72823 0.233864 0
M  V30 8192 H 797.239 5.97872 -0.516622 0
M  V30 8193 H 798.309 4.71209 -1.14412 0
M  V30 8194 N 799.652 0.226554 1.55963 0
M  V30 8195 C 800.584 -0.713907 2.17798 0
M  V30 8196 C 801.597 -1.15387 1.14846 0
M  V30 8197 O 802.786 -1.08416 1.41804 0
M  V30 8198 C 799.886 -1.97945 2.75084 0
M  V30 8199 C 799.059 -1.69424 4.03255 0
M  V30 8200 C 798.118 -2.80734 4.45056 0
M  V30 8201 O 797.144 -2.4899 5.11852 0
M  V30 8202 N 798.346 -4.09797 4.11152 0
M  V30 8203 H 801.111 -0.18494 2.99129 0
M  V30 8204 H 798.672 0.0457346 1.61835 0
M  V30 8205 H 800.664 -2.71611 3.00016 0
M  V30 8206 H 799.234 -2.41876 1.98027 0
M  V30 8207 H 798.454 -0.793767 3.86126 0
M  V30 8208 H 799.742 -1.47806 4.86858 0
M  V30 8209 H 799.14 -4.38429 3.57486 0
M  V30 8210 H 797.697 -4.79992 4.40966 0
M  V30 8211 N 801.13 -1.57531 -0.0467866 0
M  V30 8212 C 802.378 -1.88078 -0.739656 0
M  V30 8213 C 802.699 -0.821936 -1.76831 0
M  V30 8214 O 801.969 0.146582 -1.95351 0
M  V30 8215 H 800.549 -0.694075 -0.276169 0
M  V30 8216 H 803.211 -1.94893 -0.0169391 0
M  V30 8217 H 802.307 -2.86396 -1.24031 0
M  V30 8218 N 802.608 0.318715 -1.54344 0
M  V30 8219 C 803.541 1.41644 -1.7892 0
M  V30 8220 C 804.519 1.495 -0.639421 0
M  V30 8221 O 805.703 1.66835 -0.877404 0
M  V30 8222 C 802.83 2.79701 -1.9101 0
M  V30 8223 C 801.876 2.89354 -3.13331 0
M  V30 8224 S 802.709 2.53264 -4.71824 0
M  V30 8225 C 803.865 3.93384 -4.86826 0
M  V30 8226 H 804.098 1.20585 -2.71747 0
M  V30 8227 H 801.631 0.515828 -1.45529 0
M  V30 8228 H 803.589 3.59227 -1.98661 0
M  V30 8229 H 802.25 2.9804 -0.991516 0
M  V30 8230 H 801.443 3.90574 -3.1854 0
M  V30 8231 H 801.045 2.17805 -3.04035 0
M  V30 8232 H 803.337 4.88191 -4.69761 0
M  V30 8233 H 804.28 3.93156 -5.88926 0
M  V30 8234 H 804.688 3.82564 -4.15097 0
M  V30 8235 N 804.086 1.46499 0.581025 0
M  V30 8236 C 805.034 1.57562 1.71105 0
M  V30 8237 C 806.028 0.44403 1.63477 0
M  V30 8238 O 807.234 0.620964 1.6895 0
M  V30 8239 H 803.609 0.495415 0.565746 0
M  V30 8240 H 805.58 2.5257 1.58905 0
M  V30 8241 C 804.329 1.58465 3.0949 0
M  V30 8242 H 803.652 2.44877 3.16031 0
M  V30 8243 H 805.092 1.70261 3.88313 0
M  V30 8244 C 803.551 0.313596 3.35437 0
M  V30 8245 O 804.081 -0.595456 3.97262 0
M  V30 8246 N 802.287 0.200986 2.89904 0
M  V30 8247 H 801.834 0.941643 2.39773 0
M  V30 8248 H 801.792 -0.648577 3.07638 0
M  V30 8249 N 805.565 -0.825799 1.34232 0
M  V30 8250 C 806.475 -1.9684 1.27638 0
M  V30 8251 C 807.491 -1.73018 0.184569 0
M  V30 8252 O 808.667 -1.97172 0.410525 0
M  V30 8253 C 805.732 -3.31084 1.02879 0
M  V30 8254 C 804.793 -3.67933 2.21188 0
M  V30 8255 C 804.026 -4.95772 1.976 0
M  V30 8256 O 804.249 -5.62721 0.93281 0
M  V30 8257 O 803.183 -5.30431 2.84477 0
M  V30 8258 H 807.009 -2.05346 2.23756 0
M  V30 8259 H 804.594 -0.960772 1.1441 0
M  V30 8260 H 806.476 -4.11492 0.908406 0
M  V30 8261 H 805.151 -3.23552 0.0979821 0
M  V30 8262 H 804.058 -2.87981 2.38784 0
M  V30 8263 H 805.391 -3.80147 3.12648 0
M  V30 8264 N 807.043 -1.17915 -1.04565 0
M  V30 8265 C 808.291 -0.969505 -1.77327 0
M  V30 8266 C 808.612 0.502569 -1.88412 0
M  V30 8267 O 807.882 1.36467 -1.40547 0
M  V30 8268 H 806.462 -0.355723 -0.656864 0
M  V30 8269 H 809.124 -1.48506 -1.26223 0
M  V30 8270 H 808.22 -1.40324 -2.78775 0
M  V30 8271 N 808.521 1.23394 -0.980386 0
M  V30 8272 C 809.932 1.73631 -0.686239 0
M  V30 8273 C 810.283 1.79259 0.797541 0
M  V30 8274 O 809.408 1.43046 1.62379 0
M  V30 8275 C 810.003 3.15332 -1.239 0
M  V30 8276 C 808.562 3.63024 -0.994494 0
M  V30 8277 C 807.709 2.41279 -1.36673 0
M  V30 8278 H 810.66 1.08918 -1.15423 0
M  V30 8279 H 810.681 3.75556 -0.611414 0
M  V30 8280 H 810.193 3.11204 -2.31892 0
M  V30 8281 H 808.294 3.72535 0.0693492 0
M  V30 8282 H 808.407 4.49825 -1.64906 0
M  V30 8283 H 806.771 2.42295 -0.785195 0
M  V30 8284 H 807.554 2.39822 -2.45642 0
M  V30 8285 N 809.999 0.752036 1.385 0
M  V30 8286 C 810.947 0.112634 2.32327 0
M  V30 8287 C 811.941 -0.707037 1.53939 0
M  V30 8288 O 813.147 -0.606309 1.69481 0
M  V30 8289 H 809.522 0.0176275 0.751793 0
M  V30 8290 H 811.493 0.920074 2.83861 0
M  V30 8291 C 810.242 -0.767458 3.39124 0
M  V30 8292 H 809.565 -0.146122 3.99533 0
M  V30 8293 H 811.005 -1.18216 4.07187 0
M  V30 8294 C 809.464 -1.90938 2.77568 0
M  V30 8295 O 809.994 -3.00342 2.66754 0
M  V30 8296 N 808.2 -1.70396 2.35401 0
M  V30 8297 H 807.747 -0.81413 2.44397 0
M  V30 8298 H 807.705 -2.46972 1.94557 0
M  V30 8299 N 811.477 -1.49425 0.500989 0
M  V30 8300 C 812.425 -2.30771 -0.291149 0
M  V30 8301 C 813.419 -1.3938 -0.962787 0
M  V30 8302 O 814.625 -1.56431 -0.890477 0
M  V30 8303 H 811 -0.743499 -0.11275 0
M  V30 8304 H 812.971 -2.95501 0.414917 0
M  V30 8305 C 811.72 -3.20725 -1.34279 0
M  V30 8306 H 811.043 -3.90975 -0.83538 0
M  V30 8307 H 812.483 -3.80583 -1.86903 0
M  V30 8308 C 810.942 -2.40334 -2.36095 0
M  V30 8309 O 811.472 -2.10749 -3.41976 0
M  V30 8310 N 809.678 -2.02359 -2.08565 0
M  V30 8311 H 809.225 -2.26619 -1.22482 0
M  V30 8312 H 809.183 -1.48878 -2.76916 0
M  V30 8313 N 812.955 -0.234822 -1.55841 0
M  V30 8314 C 814.18 0.400741 -2.03492 0
M  V30 8315 C 814.605 1.51618 -1.11327 0
M  V30 8316 O 813.963 1.81002 -0.103922 0
M  V30 8317 C 814.011 0.897184 -3.49261 0
M  V30 8318 O 813.115 2.00764 -3.60233 0
M  V30 8319 H 812.456 0.0890023 -0.658008 0
M  V30 8320 H 814.986 -0.357345 -2.01455 0
M  V30 8321 H 814.996 1.20356 -3.89844 0
M  V30 8322 H 813.671 0.0808639 -4.15821 0
M  V30 8323 H 812.248 1.70689 -3.31541 0
M  V30 8324 N 814.433 1.57553 0.0384317 0
M  V30 8325 C 815.679 1.89121 0.732199 0
M  V30 8326 C 816.012 0.831404 1.75503 0
M  V30 8327 O 815.287 -0.154642 1.93884 0
M  V30 8328 C 815.57 3.31338 1.41021 0
M  V30 8329 C 815.423 4.48004 0.401532 0
M  V30 8330 C 816.742 3.72318 2.34665 0
M  V30 8331 H 813.861 0.687819 0.264715 0
M  V30 8332 H 816.503 1.89999 -0.00496279 0
M  V30 8333 H 814.653 3.3072 2.03854 0
M  V30 8334 H 816.325 4.60755 -0.224159 0
M  V30 8335 H 814.568 4.32895 -0.280092 0
M  V30 8336 H 815.239 5.44377 0.91423 0
M  V30 8337 H 817.715 3.74243 1.81883 0
M  V30 8338 H 816.591 4.72652 2.7909 0
M  V30 8339 H 816.852 3.04062 3.20934 0
M  V30 8340 N 815.911 -0.310526 1.54511 0
M  V30 8341 C 817.159 -1.04484 1.72996 0
M  V30 8342 C 817.48 -1.88118 0.513479 0
M  V30 8343 O 816.75 -1.90119 -0.472384 0
M  V30 8344 H 815.33 -0.388747 0.637875 0
M  V30 8345 H 817.992 -0.343811 1.91844 0
M  V30 8346 H 817.088 -1.70341 2.61515 0
M  V30 8347 N 817.389 -1.46805 -0.573248 0
M  V30 8348 C 818.636 -1.52604 -1.3311 0
M  V30 8349 C 818.964 -0.181633 -1.9365 0
M  V30 8350 O 818.219 0.823775 -1.77517 0
M  V30 8351 C 818.518 -2.58001 -2.47326 0
M  V30 8352 C 818.184 -4.01747 -2.04719 0
M  V30 8353 C 816.846 -4.40881 -1.92814 0
M  V30 8354 C 819.198 -4.92008 -1.71982 0
M  V30 8355 C 816.526 -5.68129 -1.46445 0
M  V30 8356 C 818.878 -6.19703 -1.27089 0
M  V30 8357 C 817.542 -6.57733 -1.13768 0
M  V30 8358 H 816.812 -0.558417 -0.487084 0
M  V30 8359 H 819.459 -1.80327 -0.644538 0
M  V30 8360 H 817.764 -2.23974 -3.2147 0
M  V30 8361 H 819.461 -2.59715 -3.05531 0
M  V30 8362 H 816.051 -3.70819 -2.14922 0
M  V30 8363 H 820.235 -4.62485 -1.8006 0
M  V30 8364 H 815.491 -5.96359 -1.34783 0
M  V30 8365 H 819.665 -6.89064 -1.00814 0
M  V30 8366 H 817.292 -7.56228 -0.776142 0
M  V30 8367 N 818.867 0.818669 -1.34668 0
M  V30 8368 C 820.092 1.61193 -1.30505 0
M  V30 8369 C 820.517 1.87734 0.117341 0
M  V30 8370 O 819.875 1.45591 1.08042 0
M  V30 8371 C 819.923 2.92733 -2.1057 0
M  V30 8372 O 819.027 3.85 -1.47813 0
M  V30 8373 H 818.368 0.490085 -0.44801 0
M  V30 8374 H 820.898 1.01701 -1.77534 0
M  V30 8375 H 820.908 3.42262 -2.22082 0
M  V30 8376 H 819.583 2.7274 -3.13984 0
M  V30 8377 H 818.16 3.43525 -1.45069 0
M  V30 8378 N 820.346 1.18468 1.03938 0
M  V30 8379 C 821.309 0.914944 2.10146 0
M  V30 8380 C 822.309 -0.10022 1.60487 0
M  V30 8381 O 823.499 0.133365 1.73689 0
M  V30 8382 C 820.631 0.372993 3.38853 0
M  V30 8383 H 821.824 1.85677 2.35508 0
M  V30 8384 H 819.377 0.996876 1.20383 0
M  V30 8385 H 820.112 -0.57538 3.19155 0
M  V30 8386 H 819.897 1.1048 3.76213 0
M  V30 8387 H 821.387 0.203014 4.17106 0
M  V30 8388 N 821.824 -1.22873 0.986916 0
M  V30 8389 C 823.049 -1.96028 0.677341 0
M  V30 8390 C 823.474 -1.72487 -0.750319 0
M  V30 8391 O 822.832 -1.00036 -1.51203 0
M  V30 8392 C 822.88 -3.46983 0.981593 0
M  V30 8393 O 821.984 -4.12328 0.0770729 0
M  V30 8394 H 821.325 -0.613458 0.254096 0
M  V30 8395 H 823.855 -1.56132 1.32227 0
M  V30 8396 H 823.865 -3.9747 0.920969 0
M  V30 8397 H 822.54 -3.63442 2.02194 0
M  V30 8398 H 821.117 -3.72402 0.192666 0
M  V30 8399 N 823.302 -0.75937 -1.38099 0
M  V30 8400 C 824.527 -0.327859 -2.04792 0
M  V30 8401 C 824.952 1.03752 -1.56899 0
M  V30 8402 O 824.31 1.66235 -0.723581 0
M  V30 8403 C 824.358 -0.366264 -3.58735 0
M  V30 8404 O 823.462 0.637697 -4.0744 0
M  V30 8405 H 822.803 -0.144092 -0.648177 0
M  V30 8406 H 825.333 -1.03211 -1.7666 0
M  V30 8407 H 825.343 -0.219179 -4.07411 0
M  V30 8408 H 824.018 -1.36243 -3.92951 0
M  V30 8409 H 822.595 0.454749 -3.70117 0
M  V30 8410 N 824.78 1.49157 -0.508906 0
M  V30 8411 C 826.191 1.86593 -0.0630975 0
M  V30 8412 C 826.542 1.42051 1.35337 0
M  V30 8413 O 825.667 0.801866 2.00995 0
M  V30 8414 C 826.262 3.38629 -0.107729 0
M  V30 8415 C 824.821 3.75336 0.282776 0
M  V30 8416 C 823.968 2.7317 -0.4768 0
M  V30 8417 H 826.919 1.41362 -0.72128 0
M  V30 8418 H 826.94 3.74271 0.685689 0
M  V30 8419 H 826.452 3.71017 -1.13876 0
M  V30 8420 H 824.553 3.48558 1.31675 0
M  V30 8421 H 824.666 4.79081 -0.0421728 0
M  V30 8422 H 823.03 2.54591 0.0743552 0
M  V30 8423 H 823.813 3.08403 -1.50807 0
M  V30 8424 N 826.258 0.243083 1.55714 0
M  V30 8425 C 827.504 -0.383287 1.99145 0
M  V30 8426 C 827.837 -1.57868 1.13098 0
M  V30 8427 O 827.112 -1.93535 0.193509 0
M  V30 8428 C 827.395 -0.796879 3.51172 0
M  V30 8429 C 827.248 0.403642 4.47985 0
M  V30 8430 C 828.567 -1.64525 4.08191 0
M  V30 8431 H 825.686 -0.137843 0.723995 0
M  V30 8432 H 828.328 0.343631 1.86867 0
M  V30 8433 H 826.478 -1.41625 3.61766 0
M  V30 8434 H 828.15 1.04204 4.49376 0
M  V30 8435 H 826.393 1.04741 4.20965 0
M  V30 8436 H 827.064 0.0709794 5.51954 0
M  V30 8437 H 829.54 -1.12246 4.00674 0
M  V30 8438 H 828.416 -1.9035 5.14838 0
M  V30 8439 H 828.677 -2.61582 3.56409 0
M  V30 8440 N 827.736 -1.57571 -0.0300757 0
M  V30 8441 C 828.666 -2.0953 -1.03051 0
M  V30 8442 C 829.647 -0.99761 -1.37774 0
M  V30 8443 O 830.832 -1.27279 -1.46676 0
M  V30 8444 C 827.962 -2.57385 -2.33174 0
M  V30 8445 C 826.916 -3.71409 -2.12696 0
M  V30 8446 C 826.242 -4.05467 -3.4857 0
M  V30 8447 C 827.542 -4.99877 -1.51396 0
M  V30 8448 H 829.236 -2.93367 -0.597999 0
M  V30 8449 H 826.782 -1.41127 -0.286203 0
M  V30 8450 H 828.735 -2.92355 -3.03491 0
M  V30 8451 H 827.459 -1.70629 -2.78484 0
M  V30 8452 H 826.118 -3.36786 -1.44813 0
M  V30 8453 H 825.766 -3.15779 -3.91526 0
M  V30 8454 H 825.466 -4.82269 -3.35694 0
M  V30 8455 H 826.99 -4.4297 -4.2025 0
M  V30 8456 H 828.404 -5.3281 -2.11629 0
M  V30 8457 H 826.801 -5.81283 -1.49098 0
M  V30 8458 H 827.871 -4.82522 -0.479676 0
M  V30 8459 N 829.214 0.302327 -1.54673 0
M  V30 8460 C 830.63 0.647911 -1.45857 0
M  V30 8461 C 830.83 1.90773 -0.64869 0
M  V30 8462 O 829.886 2.52018 -0.155865 0
M  V30 8463 C 831.199 0.802144 -2.89804 0
M  V30 8464 C 832.747 0.898114 -2.99838 0
M  V30 8465 C 833.222 1.08436 -4.44978 0
M  V30 8466 N 834.713 1.15059 -4.48682 0
M  V30 8467 C 835.448 1.31296 -5.58166 0
M  V30 8468 N 834.944 1.4444 -6.77576 0
M  V30 8469 N 836.737 1.34174 -5.45851 0
M  V30 8470 H 828.888 -0.525428 -2.05798 0
M  V30 8471 H 831.151 -0.173423 -0.932002 0
M  V30 8472 H 830.857 -0.0526531 -3.51661 0
M  V30 8473 H 830.731 1.69155 -3.37145 0
M  V30 8474 H 833.118 1.7434 -2.38096 0
M  V30 8475 H 833.199 -0.0152752 -2.55795 0
M  V30 8476 H 832.843 0.243843 -5.07314 0
M  V30 8477 H 832.773 2.01195 -4.8665 0
M  V30 8478 H 835.264 1.0626 -3.62653 0
M  V30 8479 H 835.577 1.56582 -7.56771 0
M  V30 8480 H 833.922 1.41499 -6.80443 0
M  V30 8481 H 837.113 1.23516 -4.5151 0
M  V30 8482 H 837.286 1.46485 -6.31226 0
M  V30 8483 N 830.692 1.47107 0.565454 0
M  V30 8484 C 831.624 1.55024 1.6882 0
M  V30 8485 C 832.637 0.4371 1.56822 0
M  V30 8486 O 833.826 0.706315 1.63931 0
M  V30 8487 C 830.926 1.43069 3.0722 0
M  V30 8488 C 830.099 2.68807 3.45053 0
M  V30 8489 C 829.158 2.50806 4.62583 0
M  V30 8490 O 828.184 3.24593 4.67577 0
M  V30 8491 N 829.386 1.58093 5.58558 0
M  V30 8492 H 832.151 2.51836 1.62477 0
M  V30 8493 H 829.712 1.43382 0.751885 0
M  V30 8494 H 831.704 1.28773 3.83666 0
M  V30 8495 H 830.274 0.543721 3.07835 0
M  V30 8496 H 829.494 2.97923 2.58138 0
M  V30 8497 H 830.782 3.52298 3.67101 0
M  V30 8498 H 830.18 0.972807 5.57273 0
M  V30 8499 H 828.737 1.49753 6.34364 0
M  V30 8500 N 832.17 -0.811516 1.35101 0
M  V30 8501 C 833.103 -1.92872 1.21966 0
M  V30 8502 C 834.081 -1.62236 0.108667 0
M  V30 8503 O 835.265 -1.8647 0.275875 0
M  V30 8504 C 832.392 -3.27152 0.876886 0
M  V30 8505 C 831.438 -3.7674 1.99924 0
M  V30 8506 S 832.271 -3.95132 3.61429 0
M  V30 8507 C 833.427 -5.32322 3.29218 0
M  V30 8508 H 833.66 -2.03718 2.16532 0
M  V30 8509 H 831.193 -0.968352 1.20259 0
M  V30 8510 H 833.151 -4.04729 0.685917 0
M  V30 8511 H 831.812 -3.14059 -0.0506289 0
M  V30 8512 H 831.005 -4.73981 1.71343 0
M  V30 8513 H 830.607 -3.06145 2.14829 0
M  V30 8514 H 832.899 -6.1614 2.8174 0
M  V30 8515 H 833.842 -5.65893 4.25641 0
M  V30 8516 H 834.25 -4.98374 2.65111 0
M  V30 8517 N 833.648 -1.19017 -1.03309 0
M  V30 8518 C 834.873 -1.01598 -1.80811 0
M  V30 8519 C 835.298 0.430773 -1.83101 0
M  V30 8520 O 834.656 1.30946 -1.25391 0
M  V30 8521 C 834.704 -1.5845 -3.23923 0
M  V30 8522 O 833.808 -0.810972 -4.04348 0
M  V30 8523 H 833.149 -0.359398 -0.558327 0
M  V30 8524 H 835.679 -1.57945 -1.30055 0
M  V30 8525 H 835.689 -1.61486 -3.74682 0
M  V30 8526 H 834.364 -2.63752 -3.21571 0
M  V30 8527 H 832.941 -0.85353 -3.63 0
M  V30 8528 N 835.127 1.22348 -0.993418 0
M  V30 8529 C 836.352 1.95666 -0.687727 0
M  V30 8530 C 836.777 1.72883 0.741161 0
M  V30 8531 O 836.135 1.00837 1.50671 0
M  V30 8532 C 836.183 3.46457 -0.99998 0
M  V30 8533 O 835.287 4.12281 -0.0989386 0
M  V30 8534 H 834.628 0.612102 -0.257346 0
M  V30 8535 H 837.158 1.55428 -1.33054 0
M  V30 8536 H 837.168 3.96976 -0.942035 0
M  V30 8537 H 835.843 3.62365 -2.04118 0
M  V30 8538 H 834.42 3.72295 -0.212413 0
M  V30 8539 N 836.605 0.766683 1.37694 0
M  V30 8540 C 837.537 0.107798 2.28946 0
M  V30 8541 C 838.55 -0.669701 1.48387 0
M  V30 8542 O 839.739 -0.508629 1.711 0
M  V30 8543 C 836.839 -0.871084 3.27514 0
M  V30 8544 C 836.012 -0.148471 4.37148 0
M  V30 8545 C 835.071 -1.03998 5.1582 0
M  V30 8546 O 834.097 -0.505639 5.6695 0
M  V30 8547 N 835.299 -2.36679 5.3006 0
M  V30 8548 H 838.064 0.89154 2.86132 0
M  V30 8549 H 835.625 0.618593 1.49616 0
M  V30 8550 H 837.617 -1.47081 3.77027 0
M  V30 8551 H 836.187 -1.55582 2.71133 0
M  V30 8552 H 835.407 0.632117 3.89099 0
M  V30 8553 H 836.695 0.351045 5.07588 0
M  V30 8554 H 836.093 -2.82532 4.90094 0
M  V30 8555 H 834.65 -2.9167 5.82899 0
M  V30 8556 N 838.083 -1.48885 0.516809 0
M  V30 8557 C 839.031 -2.31066 -0.266656 0
M  V30 8558 C 840.025 -1.40393 -0.94795 0
M  V30 8559 O 841.231 -1.57366 -0.873836 0
M  V30 8560 H 837.606 -0.744654 -0.104858 0
M  V30 8561 H 839.577 -2.95045 0.446236 0
M  V30 8562 C 838.326 -3.22131 -1.3087 0
M  V30 8563 H 837.649 -3.91839 -0.793865 0
M  V30 8564 H 839.089 -3.82544 -1.82856 0
M  V30 8565 C 837.548 -2.42825 -2.33533 0
M  V30 8566 O 838.078 -2.14364 -3.39722 0
M  V30 8567 N 836.284 -2.04559 -2.06407 0
M  V30 8568 H 835.831 -2.27905 -1.20071 0
M  V30 8569 H 835.789 -1.51807 -2.75322 0
M  V30 8570 N 839.561 -0.251338 -1.55583 0
M  V30 8571 C 840.786 0.379136 -2.03905 0
M  V30 8572 C 841.211 1.50428 -1.12929 0
M  V30 8573 O 840.569 1.80882 -0.123114 0
M  V30 8574 C 840.617 0.86009 -3.50193 0
M  V30 8575 O 839.721 1.96932 -3.62342 0
M  V30 8576 H 839.062 0.0820183 -0.658915 0
M  V30 8577 H 841.592 -0.378692 -2.01065 0
M  V30 8578 H 841.602 1.16214 -3.91099 0
M  V30 8579 H 840.277 0.0367559 -4.15884 0
M  V30 8580 H 838.854 1.67163 -3.33333 0
M  V30 8581 N 841.039 1.57585 0.0217189 0
M  V30 8582 C 842.45 1.7787 0.567377 0
M  V30 8583 C 842.801 0.883337 1.7519 0
M  V30 8584 O 841.926 0.0800819 2.16252 0
M  V30 8585 C 842.521 3.2257 1.03606 0
M  V30 8586 C 841.08 3.44026 1.52718 0
M  V30 8587 C 840.227 2.73313 0.468545 0
M  V30 8588 H 843.178 1.57377 -0.2045 0
M  V30 8589 H 843.199 3.29488 1.9031 0
M  V30 8590 H 842.711 3.87711 0.173739 0
M  V30 8591 H 840.812 2.8407 2.41111 0
M  V30 8592 H 840.925 4.52659 1.56962 0
M  V30 8593 H 839.289 2.37299 0.925263 0
M  V30 8594 H 840.072 3.41141 -0.384438 0
M  V30 8595 N 842.517 -0.29412 1.54831 0
M  V30 8596 C 843.742 -1.05156 1.78765 0
M  V30 8597 C 844.167 -1.79916 0.548809 0
M  V30 8598 O 843.525 -1.74243 -0.500909 0
M  V30 8599 C 843.573 -2.00242 2.99893 0
M  V30 8600 O 842.677 -3.08662 2.73499 0
M  V30 8601 H 842.018 -0.301737 0.591482 0
M  V30 8602 H 844.548 -0.329449 2.0193 0
M  V30 8603 H 844.558 -2.42583 3.28051 0
M  V30 8604 H 843.233 -1.45235 3.89717 0
M  V30 8605 H 841.81 -2.70786 2.56377 0
M  V30 8606 N 843.995 -1.47404 -0.557645 0
M  V30 8607 C 845.411 -1.32913 -0.88353 0
M  V30 8608 C 845.611 -0.31929 -1.98954 0
M  V30 8609 O 844.667 0.26934 -2.51059 0
M  V30 8610 C 845.98 -2.72229 -1.27718 0
M  V30 8611 C 847.528 -2.8051 -1.38863 0
M  V30 8612 C 848.003 -4.20466 -1.81583 0
M  V30 8613 N 849.494 -4.23005 -1.88735 0
M  V30 8614 C 850.229 -5.2821 -2.23118 0
M  V30 8615 N 849.725 -6.4372 -2.56117 0
M  V30 8616 N 851.518 -5.15588 -2.23888 0
M  V30 8617 H 843.669 -2.11698 0.172557 0
M  V30 8618 H 845.932 -0.947889 0.0145334 0
M  V30 8619 H 845.638 -3.47556 -0.538329 0
M  V30 8620 H 845.512 -3.03971 -2.23342 0
M  V30 8621 H 847.899 -2.05457 -2.11829 0
M  V30 8622 H 847.98 -2.52423 -0.414274 0
M  V30 8623 H 847.624 -4.96025 -1.09187 0
M  V30 8624 H 847.554 -4.45977 -2.80021 0
M  V30 8625 H 850.045 -3.39674 -1.65621 0
M  V30 8626 H 850.358 -7.19754 -2.81378 0
M  V30 8627 H 848.703 -6.47041 -2.53698 0
M  V30 8628 H 851.894 -4.24374 -1.97546 0
M  V30 8629 H 852.067 -5.97685 -2.50353 0
M  V30 8630 N 845.473 0.80434 -1.35529 0
M  V30 8631 C 846.403 1.93086 -1.31301 0
M  V30 8632 C 847.384 1.69068 -0.187044 0
M  V30 8633 O 848.569 1.90399 -0.382359 0
M  V30 8634 C 845.699 3.29867 -1.0865 0
M  V30 8635 C 844.653 3.68373 -2.17911 0
M  V30 8636 C 843.979 5.0334 -1.80423 0
M  V30 8637 C 845.279 3.78516 -3.59893 0
M  V30 8638 H 846.973 1.96882 -2.25561 0
M  V30 8639 H 844.519 0.945841 -1.08581 0
M  V30 8640 H 846.472 4.08281 -1.04331 0
M  V30 8641 H 845.196 3.2642 -0.108359 0
M  V30 8642 H 843.855 2.92247 -2.21331 0
M  V30 8643 H 843.503 4.96399 -0.812213 0
M  V30 8644 H 843.203 5.30074 -2.53565 0
M  V30 8645 H 844.727 5.84191 -1.77633 0
M  V30 8646 H 846.141 4.47155 -3.58783 0
M  V30 8647 H 844.538 4.16721 -4.31814 0
M  V30 8648 H 845.608 2.8001 -3.95882 0
M  V30 8649 N 846.951 1.19563 1.02676 0
M  V30 8650 C 847.899 0.931942 2.13114 0
M  V30 8651 C 848.893 -0.113007 1.69023 0
M  V30 8652 O 850.099 0.0364298 1.79963 0
M  V30 8653 H 846.474 0.283981 0.696318 0
M  V30 8654 H 848.445 1.86991 2.32545 0
M  V30 8655 C 847.194 0.489461 3.44238 0
M  V30 8656 H 846.517 1.28508 3.78584 0
M  V30 8657 H 847.957 0.34408 4.22602 0
M  V30 8658 C 846.416 -0.796761 3.27343 0
M  V30 8659 O 846.946 -1.85767 3.56165 0
M  V30 8660 N 845.152 -0.754824 2.80626 0
M  V30 8661 H 844.699 0.108778 2.5737 0
M  V30 8662 H 844.657 -1.6158 2.69702 0
M  V30 8663 N 848.429 -1.21819 0.999893 0
M  V30 8664 C 849.678 -1.90066 0.675108 0
M  V30 8665 C 849.991 -1.78624 -0.79705 0
M  V30 8666 O 851.197 -2.41851 -1.23371 0
M  V30 8667 C 849.653 -3.40795 1.15702 0
M  V30 8668 C 849.261 -3.60859 2.6549 0
M  V30 8669 C 851.005 -4.147 0.906889 0
M  V30 8670 C 848.912 -5.05324 3.07248 0
M  V30 8671 H 847.842 -0.711763 0.248815 0
M  V30 8672 H 850.493 -1.3792 1.21038 0
M  V30 8673 H 848.875 -3.92164 0.549832 0
M  V30 8674 H 850.049 -3.19951 3.31614 0
M  V30 8675 H 848.364 -3.00298 2.88461 0
M  V30 8676 H 850.961 -5.21187 1.1945 0
M  V30 8677 H 851.304 -4.16004 -0.156923 0
M  V30 8678 H 851.837 -3.69379 1.47662 0
M  V30 8679 H 848.576 -5.09164 4.12834 0
M  V30 8680 H 848.096 -5.47108 2.45832 0
M  V30 8681 H 849.775 -5.73797 2.98941 0
M  V30 8682 N 849.908 -0.773975 -1.37286 0
M  V30 8683 C 850.84 -0.119938 -2.28886 0
M  V30 8684 C 851.853 0.661822 -1.48741 0
M  V30 8685 O 853.042 0.499548 -1.71367 0
M  V30 8686 C 850.142 0.853703 -3.27971 0
M  V30 8687 C 849.315 0.125286 -4.37221 0
M  V30 8688 C 848.374 1.01261 -5.16365 0
M  V30 8689 O 847.4 0.475565 -5.6721 0
M  V30 8690 N 848.602 2.33864 -5.31308 0
M  V30 8691 H 851.367 -0.906702 -2.85655 0
M  V30 8692 H 848.928 -0.626519 -1.49286 0
M  V30 8693 H 850.92 1.4508 -3.77801 0
M  V30 8694 H 849.49 1.54142 -2.71954 0
M  V30 8695 H 848.71 -0.652742 -3.88758 0
M  V30 8696 H 849.998 -0.377959 -5.07394 0
M  V30 8697 H 849.396 2.79929 -4.91585 0
M  V30 8698 H 847.953 2.88575 -5.84438 0
M  V30 8699 N 851.386 1.48609 -0.524698 0
M  V30 8700 C 852.797 1.86516 -0.0828846 0
M  V30 8701 C 853.148 1.43478 1.33822 0
M  V30 8702 O 852.273 0.823139 2.00133 0
M  V30 8703 C 852.868 3.38495 -0.143639 0
M  V30 8704 C 851.427 3.75615 0.242951 0
M  V30 8705 C 850.574 2.72649 -0.505747 0
M  V30 8706 H 853.525 1.40589 -0.736233 0
M  V30 8707 H 853.546 3.74977 0.645955 0
M  V30 8708 H 853.058 3.69789 -1.17805 0
M  V30 8709 H 851.159 3.49935 1.27971 0
M  V30 8710 H 851.272 4.7901 -0.0929834 0
M  V30 8711 H 849.636 2.54656 0.0473482 0
M  V30 8712 H 850.419 3.06786 -1.54069 0
M  V30 8713 N 852.864 0.259585 1.55447 0
M  V30 8714 C 853.827 -0.621359 2.20617 0
M  V30 8715 C 854.827 -1.09317 1.17925 0
M  V30 8716 O 856.017 -0.995842 1.42929 0
M  V30 8717 C 853.149 -1.85546 2.85982 0
M  V30 8718 H 854.342 -0.0525833 2.99854 0
M  V30 8719 H 851.895 0.0101055 1.56297 0
M  V30 8720 H 852.63 -2.46515 2.10715 0
M  V30 8721 H 852.415 -1.52523 3.61219 0
M  V30 8722 H 853.905 -2.48227 3.35817 0
M  V30 8723 N 854.342 -1.57594 -0.0133615 0
M  V30 8724 C 855.289 -2.07574 -1.00905 0
M  V30 8725 C 856.259 -0.968231 -1.34961 0
M  V30 8726 O 857.444 -1.23981 -1.45028 0
M  V30 8727 C 854.584 -2.5728 -2.30002 0
M  V30 8728 C 853.697 -3.81881 -2.01967 0
M  V30 8729 C 852.832 -4.20139 -3.25049 0
M  V30 8730 C 851.871 -5.37614 -2.92639 0
M  V30 8731 N 851.008 -5.71229 -4.08218 0
M  V30 8732 H 855.848 -2.92382 -0.575899 0
M  V30 8733 H 853.385 -1.4455 -0.272722 0
M  V30 8734 H 855.343 -2.84171 -3.05454 0
M  V30 8735 H 853.973 -1.75365 -2.71011 0
M  V30 8736 H 853.025 -3.61979 -1.16942 0
M  V30 8737 H 854.337 -4.67441 -1.74069 0
M  V30 8738 H 853.491 -4.48242 -4.08857 0
M  V30 8739 H 852.23 -3.33262 -3.56073 0
M  V30 8740 H 851.235 -5.09248 -2.07235 0
M  V30 8741 H 852.46 -6.26157 -2.62876 0
M  V30 8742 H 850.406 -4.8731 -4.39164 0
M  V30 8743 H 850.323 -6.51333 -3.83799 0
M  V30 8744 H 851.591 -6.03917 -4.92854 0
M  V30 8745 N 855.82 0.285905 -1.54985 0
M  V30 8746 C 856.783 1.33625 -1.86218 0
M  V30 8747 C 857.783 1.42971 -0.735936 0
M  V30 8748 O 858.973 1.42345 -1.00417 0
M  V30 8749 C 856.105 2.71926 -2.05595 0
M  V30 8750 H 857.298 1.07167 -2.80099 0
M  V30 8751 H 854.851 0.523335 -1.47278 0
M  V30 8752 H 855.586 3.03583 -1.14053 0
M  V30 8753 H 855.371 2.6653 -2.87583 0
M  V30 8754 H 856.861 3.47841 -2.31077 0
M  V30 8755 N 857.298 1.47698 0.54982 0
M  V30 8756 C 858.208 1.63386 1.68351 0
M  V30 8757 C 859.224 0.516583 1.66155 0
M  V30 8758 O 860.4 0.785088 1.85468 0
M  V30 8759 C 857.465 1.6513 3.04849 0
M  V30 8760 C 856.526 2.88338 3.18056 0
M  V30 8761 C 855.759 2.8999 4.48042 0
M  V30 8762 O 855.982 2.00633 5.3395 0
M  V30 8763 O 854.916 3.81938 4.65196 0
M  V30 8764 H 858.742 2.59329 1.58057 0
M  V30 8765 H 856.327 1.30869 0.72067 0
M  V30 8766 H 858.209 1.68913 3.86065 0
M  V30 8767 H 856.884 0.723555 3.1551 0
M  V30 8768 H 855.791 2.90097 2.36209 0
M  V30 8769 H 857.124 3.80431 3.12302 0
M  V30 8770 N 858.776 -0.797141 1.35954 0
M  V30 8771 C 860.001 -1.59097 1.33053 0
M  V30 8772 C 860.426 -1.87897 -0.0874592 0
M  V30 8773 O 859.784 -1.47291 -1.05712 0
M  V30 8774 C 859.832 -2.89346 2.152 0
M  V30 8775 O 858.936 -3.826 1.5392 0
M  V30 8776 H 858.277 -0.482895 0.45575 0
M  V30 8777 H 860.807 -0.988633 1.79129 0
M  V30 8778 H 860.817 -3.38686 2.27499 0
M  V30 8779 H 859.492 -2.6771 3.18283 0
M  V30 8780 H 858.069 -3.41174 1.50516 0
M  V30 8781 N 860.254 -1.20106 -1.0204 0
M  V30 8782 C 861.201 -0.946468 -2.10501 0
M  V30 8783 C 862.171 0.121902 -1.65652 0
M  V30 8784 O 863.356 -0.0220244 -1.90787 0
M  V30 8785 C 860.496 -0.500499 -3.41451 0
M  V30 8786 C 859.609 -1.63659 -3.998 0
M  V30 8787 C 858.744 -1.14131 -5.18794 0
M  V30 8788 C 857.783 -2.25074 -5.69217 0
M  V30 8789 N 856.92 -1.76791 -6.79477 0
M  V30 8790 H 861.76 -1.87506 -2.31615 0
M  V30 8791 H 859.297 -0.934693 -1.13587 0
M  V30 8792 H 861.255 -0.223276 -4.16602 0
M  V30 8793 H 859.885 0.391099 -3.20422 0
M  V30 8794 H 858.937 -2.02882 -3.21781 0
M  V30 8795 H 860.249 -2.47213 -4.33229 0
M  V30 8796 H 859.403 -0.819826 -6.01135 0
M  V30 8797 H 858.142 -0.275615 -4.86921 0
M  V30 8798 H 857.147 -2.58043 -4.85483 0
M  V30 8799 H 858.372 -3.12114 -6.03127 0
M  V30 8800 H 856.318 -0.925428 -6.4944 0
M  V30 8801 H 856.235 -2.53928 -7.12079 0
M  V30 8802 H 857.503 -1.47631 -7.65392 0
M  V30 8803 N 861.732 1.21287 -1.00634 0
M  V30 8804 C 863.009 1.86 -0.605257 0
M  V30 8805 C 863.389 1.90139 0.917072 0
M  V30 8806 O 862.737 1.40169 1.80458 0
M  V30 8807 C 862.947 3.26183 -1.24119 0
M  V30 8808 C 864.295 4.02562 -1.35015 0
M  V30 8809 O 865.319 3.35499 -1.19661 0
M  V30 8810 O 864.178 5.22638 -1.59726 0
M  V30 8811 H 861.272 0.800549 -0.207486 0
M  V30 8812 H 863.818 1.28959 -1.10307 0
M  V30 8813 H 862.59 3.17878 -2.28186 0
M  V30 8814 H 862.213 3.90845 -0.729807 0
M  V30 8815 N 863.21 0.781244 1.36873 0
M  V30 8816 C 864.158 0.161889 2.32036 0
M  V30 8817 C 865.152 -0.674225 1.55405 0
M  V30 8818 O 866.358 -0.570223 1.70729 0
M  V30 8819 H 862.733 0.0335702 0.75125 0
M  V30 8820 H 864.704 0.980078 2.81846 0
M  V30 8821 C 863.453 -0.695352 3.40676 0
M  V30 8822 H 862.776 -0.0613425 3.99753 0
M  V30 8823 H 864.216 -1.09553 4.09602 0
M  V30 8824 C 862.675 -1.85008 2.81556 0
M  V30 8825 O 863.205 -2.94616 2.73065 0
M  V30 8826 N 861.411 -1.65364 2.38962 0
M  V30 8827 H 860.958 -0.762106 2.46068 0
M  V30 8828 H 860.916 -2.42789 1.99752 0
M  V30 8829 N 864.689 -1.48329 0.532571 0
M  V30 8830 C 865.636 -2.29663 -0.228779 0
M  V30 8831 C 866.606 -1.37529 -0.931401 0
M  V30 8832 O 867.791 -1.66493 -0.931921 0
M  V30 8833 C 864.931 -3.20955 -1.26814 0
M  V30 8834 C 864.044 -4.28168 -0.574099 0
M  V30 8835 C 863.179 -5.06638 -1.59661 0
M  V30 8836 C 862.218 -6.05651 -0.88618 0
M  V30 8837 N 861.355 -6.77169 -1.85436 0
M  V30 8838 H 866.195 -2.94255 0.47098 0
M  V30 8839 H 863.732 -1.45061 0.2441 0
M  V30 8840 H 865.69 -3.72285 -1.88307 0
M  V30 8841 H 864.32 -2.58281 -1.93625 0
M  V30 8842 H 863.372 -3.80085 0.154827 0
M  V30 8843 H 864.684 -4.98797 -0.0163984 0
M  V30 8844 H 863.838 -5.61995 -2.28576 0
M  V30 8845 H 862.577 -4.35854 -2.18821 0
M  V30 8846 H 861.582 -5.49495 -0.182981 0
M  V30 8847 H 862.807 -6.78434 -0.300659 0
M  V30 8848 H 860.753 -6.09134 -2.43499 0
M  V30 8849 H 860.67 -7.43882 -1.34816 0
M  V30 8850 H 861.938 -7.37114 -2.53541 0
M  V30 8851 N 866.167 -0.267825 -1.55308 0
M  V30 8852 C 867.077 0.633055 -2.25897 0
M  V30 8853 C 868.093 1.17613 -1.28231 0
M  V30 8854 O 869.269 1.20797 -1.61153 0
M  V30 8855 C 866.334 1.80397 -2.96071 0
M  V30 8856 C 865.395 1.29829 -4.09198 0
M  V30 8857 C 864.628 2.4134 -4.76016 0
M  V30 8858 O 864.851 3.60537 -4.42006 0
M  V30 8859 O 863.785 2.09909 -5.64111 0
M  V30 8860 H 867.611 0.0614381 -3.03638 0
M  V30 8861 H 865.196 -0.0355072 -1.49358 0
M  V30 8862 H 867.078 2.48685 -3.40197 0
M  V30 8863 H 865.753 2.36281 -2.21253 0
M  V30 8864 H 864.66 0.582086 -3.69544 0
M  V30 8865 H 865.993 0.785288 -4.85895 0
M  V30 8866 N 867.645 1.57599 0.00500368 0
M  V30 8867 C 868.894 1.89528 0.690061 0
M  V30 8868 C 869.207 0.869451 1.75214 0
M  V30 8869 O 870.413 1.07879 2.49147 0
M  V30 8870 C 868.869 3.36425 1.27852 0
M  V30 8871 C 868.477 4.47293 0.251531 0
M  V30 8872 C 870.221 3.77471 1.94206 0
M  V30 8873 C 868.128 5.85264 0.8497 0
M  V30 8874 H 867.058 0.707201 0.2615 0
M  V30 8875 H 869.709 1.83418 -0.0547209 0
M  V30 8876 H 868.091 3.37356 2.07381 0
M  V30 8877 H 869.265 4.5787 -0.518796 0
M  V30 8878 H 867.58 4.15235 -0.311281 0
M  V30 8879 H 870.177 4.77884 2.39855 0
M  V30 8880 H 870.52 3.10722 2.77051 0
M  V30 8881 H 871.053 3.78817 1.21419 0
M  V30 8882 H 867.792 6.55472 0.0601408 0
M  V30 8883 H 867.312 5.78361 1.5893 0
M  V30 8884 H 868.991 6.32762 1.34984 0
M  V30 8885 N 869.123 -0.277682 1.55134 0
M  V30 8886 C 870.086 -1.32635 1.86924 0
M  V30 8887 C 871.086 -1.42578 0.743507 0
M  V30 8888 O 872.276 -1.4181 1.01171 0
M  V30 8889 C 869.408 -2.70832 2.07034 0
M  V30 8890 H 870.601 -1.0568 2.80663 0
M  V30 8891 H 868.154 -0.515517 1.47554 0
M  V30 8892 H 868.889 -3.02974 1.15661 0
M  V30 8893 H 868.674 -2.65001 2.88993 0
M  V30 8894 H 870.164 -3.46611 2.32918 0
M  V30 8895 N 870.601 -1.47988 -0.541979 0
M  V30 8896 C 871.826 -1.59286 -1.32826 0
M  V30 8897 C 872.251 -0.24894 -1.86445 0
M  V30 8898 O 871.609 0.777581 -1.63778 0
M  V30 8899 C 871.657 -2.6334 -2.46343 0
M  V30 8900 O 870.761 -2.19667 -3.49028 0
M  V30 8901 H 870.102 -0.534543 -0.393903 0
M  V30 8902 H 872.632 -1.93885 -0.653427 0
M  V30 8903 H 872.642 -2.84238 -2.92699 0
M  V30 8904 H 871.317 -3.60913 -2.06675 0
M  V30 8905 H 869.894 -2.08932 -3.08872 0
M  V30 8906 N 872.079 0.78992 -1.36375 0
M  V30 8907 C 873.328 1.54296 -1.29906 0
M  V30 8908 C 873.641 1.95234 0.119651 0
M  V30 8909 O 874.847 2.69762 0.306708 0
M  V30 8910 C 873.303 2.78533 -2.27919 0
M  V30 8911 C 872.911 2.44767 -3.75224 0
M  V30 8912 C 874.655 3.56516 -2.30427 0
M  V30 8913 C 872.562 3.65397 -4.65015 0
M  V30 8914 H 871.492 0.579214 -0.482729 0
M  V30 8915 H 874.143 0.866845 -1.61735 0
M  V30 8916 H 872.525 3.47941 -1.89084 0
M  V30 8917 H 873.699 1.83259 -4.22792 0
M  V30 8918 H 872.014 1.79996 -3.75487 0
M  V30 8919 H 874.611 4.46143 -2.94722 0
M  V30 8920 H 874.954 3.95063 -1.31266 0
M  V30 8921 H 875.487 2.94087 -2.67876 0
M  V30 8922 H 872.226 3.31946 -5.65236 0
M  V30 8923 H 871.746 4.26072 -4.22164 0
M  V30 8924 H 873.425 4.32431 -4.81261 0
M  V30 8925 N 873.557 1.20646 1.01402 0
M  V30 8926 C 874.487 0.98155 2.11867 0
M  V30 8927 C 875.468 -0.0903712 1.6986 0
M  V30 8928 O 876.653 0.0676586 1.94082 0
M  V30 8929 C 873.783 0.535636 3.43145 0
M  V30 8930 C 872.737 1.55109 3.98905 0
M  V30 8931 C 872.063 0.961725 5.2598 0
M  V30 8932 C 873.363 2.93552 4.32001 0
M  V30 8933 H 875.057 1.90544 2.3094 0
M  V30 8934 H 872.603 0.917554 1.10982 0
M  V30 8935 H 874.556 0.365512 4.19812 0
M  V30 8936 H 873.28 -0.423882 3.23838 0
M  V30 8937 H 871.939 1.70862 3.24348 0
M  V30 8938 H 871.587 -0.00580108 5.03 0
M  V30 8939 H 871.287 1.63993 5.64252 0
M  V30 8940 H 872.811 0.802726 6.053 0
M  V30 8941 H 874.225 2.81295 4.99546 0
M  V30 8942 H 872.622 3.58303 4.81393 0
M  V30 8943 H 873.692 3.4508 3.40658 0
M  V30 8944 N 875.035 -1.20752 1.01276 0
M  V30 8945 C 875.983 -2.25432 0.572989 0
M  V30 8946 C 876.977 -1.64935 -0.386354 0
M  V30 8947 O 878.183 -1.7816 -0.256696 0
M  V30 8948 H 874.558 -0.733229 0.166972 0
M  V30 8949 H 876.529 -2.59856 1.46687 0
M  V30 8950 C 875.278 -3.47615 -0.0768249 0
M  V30 8951 H 874.601 -3.94442 0.652354 0
M  V30 8952 H 876.041 -4.22572 -0.3477 0
M  V30 8953 C 874.5 -3.1003 -1.31845 0
M  V30 8954 O 875.03 -3.21216 -2.41211 0
M  V30 8955 N 873.236 -2.64616 -1.20111 0
M  V30 8956 H 872.783 -2.55714 -0.311184 0
M  V30 8957 H 872.741 -2.39838 -2.03286 0
M  V30 8958 N 876.513 -0.788492 -1.36457 0
M  V30 8959 C 877.423 -0.187385 -2.3385 0
M  V30 8960 C 878.439 0.659984 -1.60998 0
M  V30 8961 O 879.615 0.575986 -1.92988 0
M  V30 8962 C 876.68 0.668525 -3.40194 0
M  V30 8963 C 875.741 -0.197234 -4.28847 0
M  V30 8964 C 874.974 0.61792 -5.30111 0
M  V30 8965 O 875.197 1.85396 -5.3943 0
M  V30 8966 O 874.131 0.0183016 -6.01897 0
M  V30 8967 H 877.957 -0.992617 -2.87021 0
M  V30 8968 H 875.542 -0.549934 -1.3891 0
M  V30 8969 H 877.424 1.15663 -4.05216 0
M  V30 8970 H 876.099 1.45166 -2.89324 0
M  V30 8971 H 875.006 -0.73207 -3.66867 0
M  V30 8972 H 876.339 -0.943863 -4.83065 0
M  V30 8973 N 877.991 1.48044 -0.54043 0
M  V30 8974 C 878.924 2.26667 0.264083 0
M  V30 8975 C 879.902 1.32996 0.935456 0
M  V30 8976 O 881.086 1.62354 0.95778 0
M  V30 8977 C 878.213 3.09541 1.37485 0
M  V30 8978 C 877.259 4.18664 0.813792 0
M  V30 8979 S 878.092 5.34503 -0.326536 0
M  V30 8980 C 879.248 6.20939 0.786452 0
M  V30 8981 H 879.481 2.94554 -0.403129 0
M  V30 8982 H 877.014 1.5091 -0.326415 0
M  V30 8983 H 878.972 3.57863 2.01107 0
M  V30 8984 H 877.633 2.41048 2.01382 0
M  V30 8985 H 876.826 4.76316 1.6474 0
M  V30 8986 H 876.428 3.73136 0.254066 0
M  V30 8987 H 878.72 6.56273 1.68262 0
M  V30 8988 H 879.663 7.07667 0.247673 0
M  V30 8989 H 880.071 5.54236 1.07156 0
M  V30 8990 N 879.47 0.276058 1.55163 0
M  V30 8991 C 880.719 -0.341098 1.98795 0
M  V30 8992 C 881.032 -1.56905 1.16791 0
M  V30 8993 O 882.238 -2.25922 1.50571 0
M  V30 8994 C 880.694 -0.658231 3.5383 0
M  V30 8995 C 880.302 0.549972 4.44611 0
M  V30 8996 C 882.046 -1.23796 4.06048 0
M  V30 8997 C 879.953 0.207373 5.91036 0
M  V30 8998 H 878.883 -0.131224 0.742493 0
M  V30 8999 H 881.534 0.380858 1.79504 0
M  V30 9000 H 879.916 -1.43911 3.68925 0
M  V30 9001 H 881.09 1.32681 4.41285 0
M  V30 9002 H 879.405 1.04661 4.03032 0
M  V30 9003 H 882.002 -1.50811 5.12991 0
M  V30 9004 H 882.345 -2.17214 3.55139 0
M  V30 9005 H 882.878 -0.519345 3.94395 0
M  V30 9006 H 879.617 1.10946 6.46043 0
M  V30 9007 H 879.137 -0.532687 5.9743 0
M  V30 9008 H 880.816 -0.200072 6.46691 0
M  V30 9009 N 880.948 -1.576 0.00335426 0
M  V30 9010 C 881.88 -2.0549 -1.01521 0
M  V30 9011 C 882.893 -0.973441 -1.30491 0
M  V30 9012 O 884.082 -1.25017 -1.27409 0
M  V30 9013 C 881.182 -2.44272 -2.34914 0
M  V30 9014 C 880.355 -3.75191 -2.24835 0
M  V30 9015 C 879.414 -4.00804 -3.40944 0
M  V30 9016 O 878.44 -4.71423 -3.18981 0
M  V30 9017 N 879.642 -3.48961 -4.63904 0
M  V30 9018 H 882.407 -2.93493 -0.60678 0
M  V30 9019 H 879.968 -1.60851 -0.18396 0
M  V30 9020 H 881.96 -2.58518 -3.11369 0
M  V30 9021 H 880.53 -1.6177 -2.67487 0
M  V30 9022 H 879.75 -3.70989 -1.3327 0
M  V30 9023 H 881.038 -4.61013 -2.15277 0
M  V30 9024 H 880.436 -2.9178 -4.84645 0
M  V30 9025 H 878.993 -3.68531 -5.37613 0
M  V30 9026 N 882.426 0.269451 -1.5528 0
M  V30 9027 C 883.651 1.02299 -1.80415 0
M  V30 9028 C 884.076 1.7902 -0.577363 0
M  V30 9029 O 883.434 1.75018 0.473125 0
M  V30 9030 C 883.482 1.95445 -3.0304 0
M  V30 9031 O 882.586 3.04271 -2.78375 0
M  V30 9032 H 881.927 0.292289 -0.596207 0
M  V30 9033 H 884.457 0.297282 -2.02429 0
M  V30 9034 H 884.467 2.37333 -3.31869 0
M  V30 9035 H 883.142 1.39017 -3.91978 0
M  V30 9036 H 881.719 2.66673 -2.60653 0
M  V30 9037 N 883.904 1.48273 0.534124 0
M  V30 9038 C 885.181 1.46567 1.29528 0
M  V30 9039 C 885.561 0.17509 2.10373 0
M  V30 9040 O 884.909 -0.843228 2.12372 0
M  V30 9041 C 885.119 2.72519 2.18023 0
M  V30 9042 C 886.467 3.2068 2.78298 0
M  V30 9043 O 887.491 2.73408 2.28313 0
M  V30 9044 O 886.35 4.02924 3.69208 0
M  V30 9045 H 883.444 0.585151 0.584403 0
M  V30 9046 H 885.99 1.60502 0.551119 0
M  V30 9047 H 884.762 3.57965 1.5804 0
M  V30 9048 H 884.385 2.61285 2.99693 0
M  V30 9049 N 885.382 -0.782676 1.36792 0
M  V30 9050 C 886.33 -1.91698 1.31737 0
M  V30 9051 C 887.324 -1.68118 0.207994 0
M  V30 9052 O 888.53 -1.76042 0.375393 0
M  V30 9053 H 884.905 -0.630215 0.410284 0
M  V30 9054 H 886.876 -1.93078 2.27516 0
M  V30 9055 C 885.625 -3.28816 1.13029 0
M  V30 9056 H 884.948 -3.4753 1.97643 0
M  V30 9057 H 886.388 -4.08515 1.13541 0
M  V30 9058 C 884.847 -3.36497 -0.1647 0
M  V30 9059 O 885.377 -3.84822 -1.15216 0
M  V30 9060 N 883.583 -2.89828 -0.211678 0
M  V30 9061 H 883.13 -2.50693 0.59252 0
M  V30 9062 H 883.088 -2.95349 -1.07779 0
M  V30 9063 N 886.86 -1.21182 -1.00761 0
M  V30 9064 C 888.085 -1.05411 -1.78615 0
M  V30 9065 C 888.51 0.391837 -1.83973 0
M  V30 9066 O 887.868 1.28256 -1.28141 0
M  V30 9067 C 887.916 -1.65285 -3.20489 0
M  V30 9068 O 887.02 -0.896558 -4.02536 0
M  V30 9069 H 886.361 -0.37116 -0.550578 0
M  V30 9070 H 888.891 -1.60669 -1.26676 0
M  V30 9071 H 888.901 -1.69397 -3.71172 0
M  V30 9072 H 887.576 -2.70514 -3.15904 0
M  V30 9073 H 886.153 -0.930335 -3.61108 0
M  V30 9074 N 888.338 1.20213 -1.01915 0
M  V30 9075 C 889.563 1.94163 -0.729076 0
M  V30 9076 C 889.988 1.74416 0.704323 0
M  V30 9077 O 889.346 1.0401 1.48498 0
M  V30 9078 C 889.394 3.44258 -1.07324 0
M  V30 9079 O 888.498 4.11979 -0.186367 0
M  V30 9080 H 887.839 0.606506 -0.270272 0
M  V30 9081 H 890.369 1.52571 -1.3632 0
M  V30 9082 H 890.379 3.94888 -1.02603 0
M  V30 9083 H 889.054 3.57954 -2.11759 0
M  V30 9084 H 887.631 3.7176 -0.291334 0
M  V30 9085 N 889.816 0.795718 1.36037 0
M  V30 9086 C 891.041 0.38204 2.03851 0
M  V30 9087 C 891.466 -0.995553 1.59594 0
M  V30 9088 O 890.824 -1.64258 0.767401 0
M  V30 9089 C 890.872 0.461248 3.57638 0
M  V30 9090 O 889.976 -0.529448 4.08987 0
M  V30 9091 H 889.317 0.161227 0.644129 0
M  V30 9092 H 891.847 1.07858 1.73861 0
M  V30 9093 H 891.857 0.32712 4.06687 0
M  V30 9094 H 890.532 1.46613 3.89201 0
M  V30 9095 H 889.109 -0.35646 3.71192 0
M  V30 9096 N 891.294 -1.47756 0.548274 0
M  V30 9097 C 892.571 -1.9555 -0.0443603 0
M  V30 9098 C 892.951 -1.49079 -1.49462 0
M  V30 9099 O 892.299 -0.725538 -2.16675 0
M  V30 9100 C 892.509 -3.48879 0.0918425 0
M  V30 9101 C 893.857 -4.2456 -0.0580879 0
M  V30 9102 O 894.881 -3.56195 0.018946 0
M  V30 9103 O 893.74 -5.46048 -0.222261 0
M  V30 9104 H 890.834 -0.824106 -0.0691235 0
M  V30 9105 H 893.38 -1.58196 0.614166 0
M  V30 9106 H 892.152 -3.7548 1.10137 0
M  V30 9107 H 891.775 -3.92975 -0.604704 0
M  V30 9108 N 892.772 -0.284283 -1.55015 0
M  V30 9109 C 894.02 0.329212 -1.99401 0
M  V30 9110 C 894.341 1.55687 -1.17416 0
M  V30 9111 O 893.611 1.94087 -0.265937 0
M  V30 9112 H 892.191 0.12463 -0.73653 0
M  V30 9113 H 894.853 -0.391743 -1.90922 0
M  V30 9114 H 893.949 0.61278 -3.06025 0
M  V30 9115 N 894.251 1.57596 -0.0117121 0
M  V30 9116 C 895.198 2.09153 0.975897 0
M  V30 9117 C 896.168 0.989579 1.33404 0
M  V30 9118 O 897.353 1.26273 1.43038 0
M  V30 9119 C 894.493 2.60906 2.2588 0
M  V30 9120 C 893.606 3.85046 1.95866 0
M  V30 9121 C 892.741 4.25257 3.18323 0
M  V30 9122 C 891.78 5.42202 2.84049 0
M  V30 9123 N 890.917 5.77651 3.99079 0
M  V30 9124 H 895.757 2.93261 0.52931 0
M  V30 9125 H 893.294 1.44965 0.249691 0
M  V30 9126 H 895.252 2.88995 3.00895 0
M  V30 9127 H 893.882 1.79654 2.68187 0
M  V30 9128 H 892.934 3.63794 1.11168 0
M  V30 9129 H 894.246 4.70151 1.66611 0
M  V30 9130 H 893.4 4.5469 4.01674 0
M  V30 9131 H 892.139 3.38884 3.50726 0
M  V30 9132 H 891.144 5.1248 1.99107 0
M  V30 9133 H 892.369 6.3026 2.52881 0
M  V30 9134 H 890.315 4.94235 4.31356 0
M  V30 9135 H 890.232 6.57356 3.73388 0
M  V30 9136 H 891.5 6.11681 4.83183 0
M  V30 9137 N 895.729 -0.261212 1.5542 0
M  V30 9138 C 897.14 -0.83138 1.67167 0
M  V30 9139 C 897.491 -1.8659 0.606525 0
M  V30 9140 O 896.616 -2.14953 -0.24985 0
M  V30 9141 C 897.211 -1.51475 3.03052 0
M  V30 9142 C 895.77 -2.0328 3.16787 0
M  V30 9143 C 894.917 -0.878903 2.63003 0
M  V30 9144 H 897.868 -0.0373102 1.58656 0
M  V30 9145 H 897.889 -2.38222 2.96699 0
M  V30 9146 H 897.401 -0.76157 3.80554 0
M  V30 9147 H 895.502 -2.81523 2.44082 0
M  V30 9148 H 895.615 -2.24001 4.2351 0
M  V30 9149 H 893.979 -1.27551 2.2046 0
M  V30 9150 H 894.762 -0.13904 3.43018 0
M  V30 9151 N 897.207 -1.48554 -0.526253 0
M  V30 9152 C 898.137 -1.66252 -1.63959 0
M  V30 9153 C 899.118 -0.511351 -1.62232 0
M  V30 9154 O 900.303 -0.744322 -1.7937 0
M  V30 9155 C 897.433 -1.70556 -3.02536 0
M  V30 9156 C 896.387 -2.8521 -3.19123 0
M  V30 9157 C 895.713 -2.74606 -4.58798 0
M  V30 9158 C 897.013 -4.26463 -3.0154 0
M  V30 9159 H 898.707 -2.59459 -1.49404 0
M  V30 9160 H 896.253 -1.24862 -0.717326 0
M  V30 9161 H 898.206 -1.81524 -3.80298 0
M  V30 9162 H 896.93 -0.739297 -3.18123 0
M  V30 9163 H 895.589 -2.73802 -2.43779 0
M  V30 9164 H 895.237 -1.75941 -4.71226 0
M  V30 9165 H 894.937 -3.51544 -4.70841 0
M  V30 9166 H 896.461 -2.87548 -5.38655 0
M  V30 9167 H 897.875 -4.38685 -3.69091 0
M  V30 9168 H 896.272 -5.04428 -3.25073 0
M  V30 9169 H 897.342 -4.42667 -1.97925 0
M  V30 9170 N 898.685 0.775411 -1.37205 0
M  V30 9171 C 899.962 1.5229 -1.22748 0
M  V30 9172 C 900.342 2.10327 0.180487 0
M  V30 9173 O 899.69 1.95206 1.18772 0
M  V30 9174 C 899.9 2.60671 -2.3206 0
M  V30 9175 C 901.248 3.28173 -2.6942 0
M  V30 9176 O 902.272 2.70963 -2.31208 0
M  V30 9177 O 901.131 4.31598 -3.3524 0
M  V30 9178 H 898.225 0.674326 -0.478762 0
M  V30 9179 H 900.771 0.812691 -1.48975 0
M  V30 9180 H 899.543 2.1588 -3.26361 0
M  V30 9181 H 899.166 3.39296 -2.07277 0
M  V30 9182 N 900.163 1.21714 1.00117 0
M  V30 9183 C 901.388 1.06357 1.78054 0
M  V30 9184 C 901.813 -0.382075 1.84179 0
M  V30 9185 O 901.171 -1.27575 1.28819 0
M  V30 9186 C 901.219 1.66982 3.19608 0
M  V30 9187 O 900.323 0.917892 4.02055 0
M  V30 9188 H 899.664 0.374074 0.548602 0
M  V30 9189 H 902.194 1.61338 1.25822 0
M  V30 9190 H 902.204 1.71363 3.70268 0
M  V30 9191 H 900.879 2.72185 3.14465 0
M  V30 9192 H 899.456 0.949473 3.6061 0
M  V30 9193 N 901.641 -1.19671 1.02551 0
M  V30 9194 C 902.889 -1.88894 0.71858 0
M  V30 9195 C 903.21 -1.79797 -0.754856 0
M  V30 9196 O 902.48 -1.20621 -1.54362 0
M  V30 9197 H 901.06 -0.699244 0.262806 0
M  V30 9198 H 903.722 -1.45298 1.29902 0
M  V30 9199 H 902.818 -2.95309 1.00989 0
M  V30 9200 N 903.119 -0.802921 -1.35613 0
M  V30 9201 C 904.049 -0.225131 -2.32412 0
M  V30 9202 C 905.03 0.647383 -1.57299 0
M  V30 9203 O 906.215 0.578414 -1.85386 0
M  V30 9204 C 903.345 0.630085 -3.41537 0
M  V30 9205 C 902.299 -0.143635 -4.27759 0
M  V30 9206 C 901.625 0.833046 -5.28171 0
M  V30 9207 C 902.925 -1.34054 -5.04804 0
M  V30 9208 H 904.619 -1.03385 -2.80984 0
M  V30 9209 H 902.165 -0.498593 -1.35093 0
M  V30 9210 H 904.118 1.04433 -4.08254 0
M  V30 9211 H 902.842 1.47165 -2.91565 0
M  V30 9212 H 901.501 -0.539015 -3.62616 0
M  V30 9213 H 901.149 1.67001 -4.74468 0
M  V30 9214 H 900.849 0.319697 -5.8673 0
M  V30 9215 H 902.373 1.24558 -5.97761 0
M  V30 9216 H 903.787 -1.00136 -5.64487 0
M  V30 9217 H 902.184 -1.78812 -5.72841 0
M  V30 9218 H 903.254 -2.12906 -4.35659 0
M  V30 9219 N 904.597 1.47463 -0.556102 0
M  V30 9220 C 905.527 2.32801 0.180497 0
M  V30 9221 C 906.508 1.43721 0.909848 0
M  V30 9222 O 907.693 1.72578 0.89053 0
M  V30 9223 C 904.823 3.25478 1.21167 0
M  V30 9224 C 903.777 4.2379 0.598846 0
M  V30 9225 C 903.103 5.05783 1.73457 0
M  V30 9226 C 904.403 5.20387 -0.446659 0
M  V30 9227 H 906.097 2.94636 -0.531956 0
M  V30 9228 H 903.643 1.41683 -0.257267 0
M  V30 9229 H 905.596 3.8402 1.73513 0
M  V30 9230 H 904.32 2.61695 1.95405 0
M  V30 9231 H 902.979 3.66472 0.0966897 0
M  V30 9232 H 902.627 4.38405 2.46596 0
M  V30 9233 H 902.327 5.72343 1.33031 0
M  V30 9234 H 903.851 5.67183 2.26131 0
M  V30 9235 H 905.265 5.73299 -0.00930019 0
M  V30 9236 H 903.662 5.95143 -0.769735 0
M  V30 9237 H 904.732 4.65932 -1.34295 0
M  V30 9238 N 906.075 0.2925 1.54862 0
M  V30 9239 C 907.025 -0.60226 2.19902 0
M  V30 9240 C 908.009 -1.10535 1.16923 0
M  V30 9241 O 909.201 -1.04753 1.42674 0
M  V30 9242 C 906.33 -1.77774 2.93686 0
M  V30 9243 C 905.416 -1.29101 4.03972 0
M  V30 9244 N 905.807 -0.521671 5.03103 0
M  V30 9245 C 904.105 -1.57248 4.17359 0
M  V30 9246 C 904.806 -0.263545 5.81103 0
M  V30 9247 N 903.782 -0.840937 5.37056 0
M  V30 9248 H 907.584 -0.00682274 2.93899 0
M  V30 9249 H 905.098 0.0968604 1.62111 0
M  V30 9250 H 907.095 -2.43021 3.38743 0
M  V30 9251 H 905.755 -2.37696 2.21203 0
M  V30 9252 H 906.766 -0.167364 5.1763 0
M  V30 9253 H 903.443 -2.1798 3.56077 0
M  V30 9254 H 904.833 0.353783 6.70968 0
M  V30 9255 N 907.553 -1.57587 0.0200696 0
M  V30 9256 C 908.501 -2.10814 -0.982868 0
M  V30 9257 C 909.495 -1.03263 -1.34287 0
M  V30 9258 O 910.701 -1.21708 -1.32617 0
M  V30 9259 H 907.076 -0.673409 -0.334701 0
M  V30 9260 H 909.047 -2.94034 -0.50856 0
M  V30 9261 C 907.796 -2.64301 -2.25921 0
M  V30 9262 H 907.119 -3.46703 -1.99091 0
M  V30 9263 H 908.559 -3.052 -2.94328 0
M  V30 9264 C 907.018 -1.56628 -2.98277 0
M  V30 9265 O 907.548 -0.960825 -3.9004 0
M  V30 9266 N 905.754 -1.28889 -2.60453 0
M  V30 9267 H 905.301 -1.7831 -1.85912 0
M  V30 9268 H 905.259 -0.570697 -3.09177 0
M  V30 9269 N 909.032 0.252966 -1.55557 0
M  V30 9270 C 909.98 1.33289 -1.90622 0
M  V30 9271 C 910.974 1.50133 -0.784638 0
M  V30 9272 O 912.18 1.51679 -0.969196 0
M  V30 9273 H 908.555 0.446196 -0.605321 0
M  V30 9274 H 910.526 1.00977 -2.80796 0
M  V30 9275 C 909.275 2.68254 -2.21213 0
M  V30 9276 H 908.598 2.5609 -3.07014 0
M  V30 9277 H 910.038 3.42707 -2.49656 0
M  V30 9278 C 908.497 3.20884 -1.02642 0
M  V30 9279 O 909.027 4.00783 -0.271292 0
M  V30 9280 N 907.233 2.7883 -0.818682 0
M  V30 9281 H 906.78 2.13966 -1.43444 0
M  V30 9282 H 906.738 3.14388 -0.0269989 0
M  V30 9283 N 910.51 1.48831 0.518367 0
M  V30 9284 C 911.787 1.47933 1.27966 0
M  V30 9285 C 912.167 0.197393 2.10175 0
M  V30 9286 O 911.515 -0.820656 2.13255 0
M  V30 9287 C 911.725 2.74816 2.15121 0
M  V30 9288 C 913.073 3.23613 2.74881 0
M  V30 9289 O 914.097 2.75814 2.254 0
M  V30 9290 O 912.956 4.06818 3.64913 0
M  V30 9291 H 910.05 0.591316 0.578164 0
M  V30 9292 H 912.596 1.61077 0.534065 0
M  V30 9293 H 911.368 3.59621 1.54234 0
M  V30 9294 H 910.991 2.64449 2.96905 0
M  V30 9295 N 911.988 -0.768124 1.37614 0
M  V30 9296 C 913.404 -1.06919 1.18493 0
M  V30 9297 C 913.604 -2.01486 0.0235753 0
M  V30 9298 O 912.66 -2.4438 -0.635209 0
M  V30 9299 C 913.973 -1.66321 2.50515 0
M  V30 9300 C 915.521 -1.78562 2.57069 0
M  V30 9301 C 915.996 -2.41377 3.89231 0
M  V30 9302 N 917.487 -2.48824 3.90693 0
M  V30 9303 C 918.222 -2.98288 4.89706 0
M  V30 9304 N 917.718 -3.47897 5.99115 0
M  V30 9305 N 919.511 -2.97196 4.77107 0
M  V30 9306 H 911.662 -0.140286 2.11936 0
M  V30 9307 H 913.925 -0.124863 0.939741 0
M  V30 9308 H 913.631 -1.04303 3.35878 0
M  V30 9309 H 913.505 -2.65571 2.67866 0
M  V30 9310 H 915.892 -2.39712 1.72111 0
M  V30 9311 H 915.973 -0.780574 2.43599 0
M  V30 9312 H 915.617 -1.80866 4.74605 0
M  V30 9313 H 915.547 -3.42495 4.00006 0
M  V30 9314 H 918.038 -2.1372 3.1166 0
M  V30 9315 H 918.351 -3.84053 6.70614 0
M  V30 9316 H 916.696 -3.45993 6.02755 0
M  V30 9317 H 919.887 -2.57741 3.90752 0
M  V30 9318 H 920.06 -3.35434 5.54426 0
M  V30 9319 N 913.466 -1.22244 -0.994698 0
M  V30 9320 C 914.396 -1.01513 -2.10279 0
M  V30 9321 C 915.377 0.0633365 -1.69982 0
M  V30 9322 O 916.562 -0.0985268 -1.9395 0
M  V30 9323 C 913.692 -0.59016 -3.42249 0
M  V30 9324 C 912.646 -1.61436 -3.96387 0
M  V30 9325 C 911.972 -1.04528 -5.24383 0
M  V30 9326 C 913.272 -3.00388 -4.27276 0
M  V30 9327 H 914.966 -1.94194 -2.2788 0
M  V30 9328 H 912.512 -0.935094 -1.09508 0
M  V30 9329 H 914.465 -0.432254 -4.19177 0
M  V30 9330 H 913.189 0.372308 -3.24471 0
M  V30 9331 H 911.848 -1.76001 -3.21589 0
M  V30 9332 H 911.496 -0.0742225 -5.02945 0
M  V30 9333 H 911.196 -1.72949 -5.61571 0
M  V30 9334 H 912.72 -0.898922 -6.03947 0
M  V30 9335 H 914.134 -2.89207 -4.95007 0
M  V30 9336 H 912.531 -3.65916 -4.75631 0
M  V30 9337 H 913.601 -3.50456 -3.35125 0
M  V30 9338 N 914.944 1.19125 -1.03184 0
M  V30 9339 C 916.169 1.93379 -0.749628 0
M  V30 9340 C 916.594 1.75153 0.685785 0
M  V30 9341 O 915.952 1.05579 1.47386 0
M  V30 9342 C 916 3.43101 -1.1097 0
M  V30 9343 O 915.104 4.11758 -0.230053 0
M  V30 9344 H 914.445 0.603605 -0.276689 0
M  V30 9345 H 916.975 1.51116 -1.37931 0
M  V30 9346 H 916.985 3.93778 -1.06785 0
M  V30 9347 H 915.66 3.55688 -2.15544 0
M  V30 9348 H 914.237 3.7143 -0.330748 0
M  V30 9349 N 916.422 0.810101 1.35185 0
M  V30 9350 C 917.699 0.315235 1.93043 0
M  V30 9351 C 918.079 -1.19567 1.73974 0
M  V30 9352 O 917.427 -1.99682 1.11083 0
M  V30 9353 C 917.637 0.730492 3.41269 0
M  V30 9354 C 918.985 0.721985 4.18417 0
M  V30 9355 O 920.009 0.672258 3.49799 0
M  V30 9356 O 918.868 0.783535 5.40854 0
M  V30 9357 H 915.962 0.0832774 0.822796 0
M  V30 9358 H 918.508 0.894034 1.4424 0
M  V30 9359 H 917.28 1.77169 3.48894 0
M  V30 9360 H 916.903 0.12669 3.97398 0
M  V30 9361 N 917.9 -1.47166 0.563914 0
M  V30 9362 C 919.148 -2.02056 0.0422873 0
M  V30 9363 C 919.469 -1.43992 -1.31497 0
M  V30 9364 O 918.739 -0.617578 -1.85911 0
M  V30 9365 H 917.319 -0.746893 0.0126427 0
M  V30 9366 H 919.981 -1.80492 0.735441 0
M  V30 9367 H 919.077 -3.12073 -0.0408044 0
M  V30 9368 N 919.378 -0.300708 -1.54705 0
M  V30 9369 C 920.655 0.361757 -1.92226 0
M  V30 9370 C 921.035 1.71714 -1.2279 0
M  V30 9371 O 920.383 2.2559 -0.363542 0
M  V30 9372 C 920.593 0.476699 -3.45729 0
M  V30 9373 C 921.941 0.7477 -4.17965 0
M  V30 9374 O 922.965 0.560521 -3.51762 0
M  V30 9375 O 921.824 1.10724 -5.35166 0
M  V30 9376 H 918.918 0.202213 -0.801897 0
M  V30 9377 H 921.464 -0.348746 -1.66078 0
M  V30 9378 H 920.236 -0.476132 -3.88392 0
M  V30 9379 H 919.859 1.23568 -3.77911 0
M  V30 9380 N 920.856 1.57574 -0.0284266 0
M  V30 9381 C 922.081 1.96479 0.664137 0
M  V30 9382 C 922.506 0.904826 1.64908 0
M  V30 9383 O 921.864 -0.134339 1.80802 0
M  V30 9384 C 921.912 3.34479 1.34745 0
M  V30 9385 O 921.016 3.30794 2.46271 0
M  V30 9386 H 920.357 0.640654 0.174524 0
M  V30 9387 H 922.887 2.04402 -0.0900729 0
M  V30 9388 H 922.897 3.70694 1.7044 0
M  V30 9389 H 921.572 4.1117 0.625468 0
M  V30 9390 H 920.149 3.06294 2.12693 0
M  V30 9391 N 922.334 -0.244713 1.55689 0
M  V30 9392 C 923.281 -1.30301 1.905 0
M  V30 9393 C 924.251 -1.4772 0.759478 0
M  V30 9394 O 925.436 -1.61667 1.01333 0
M  V30 9395 C 922.576 -2.653 2.20703 0
M  V30 9396 C 921.689 -2.55872 3.48071 0
M  V30 9397 C 920.824 -3.83238 3.67834 0
M  V30 9398 C 919.863 -3.68436 4.88796 0
M  V30 9399 N 919 -4.877 5.05068 0
M  V30 9400 H 923.84 -0.999143 2.80751 0
M  V30 9401 H 921.377 -0.482099 1.38976 0
M  V30 9402 H 923.335 -3.43884 2.36219 0
M  V30 9403 H 921.965 -2.93831 1.33653 0
M  V30 9404 H 921.017 -1.68846 3.40874 0
M  V30 9405 H 922.329 -2.40845 4.36801 0
M  V30 9406 H 921.483 -4.70266 3.83321 0
M  V30 9407 H 920.222 -4.01165 2.77341 0
M  V30 9408 H 919.227 -2.79793 4.73282 0
M  V30 9409 H 920.452 -3.52003 5.8075 0
M  V30 9410 H 918.398 -5.05983 4.17513 0
M  V30 9411 H 918.315 -4.75312 5.8789 0
M  V30 9412 H 919.583 -5.76219 5.24969 0
M  V30 9413 N 923.813 -1.49104 -0.510467 0
M  V30 9414 C 925.043 -1.61571 -1.28757 0
M  V30 9415 C 925.451 -0.282638 -1.87077 0
M  V30 9416 O 924.794 0.740749 -1.68103 0
M  V30 9417 C 924.856 -2.61851 -2.46322 0
M  V30 9418 C 924.52 -4.06438 -2.08942 0
M  V30 9419 C 925.517 -4.93532 -1.63469 0
M  V30 9420 C 923.202 -4.52109 -2.18867 0
M  V30 9421 C 925.196 -6.24331 -1.28411 0
M  V30 9422 C 922.883 -5.82924 -1.83421 0
M  V30 9423 C 923.881 -6.68858 -1.38267 0
M  V30 9424 O 923.569 -7.97236 -1.03296 0
M  V30 9425 H 923.301 -0.547082 -0.397086 0
M  V30 9426 H 925.855 -1.95806 -0.620424 0
M  V30 9427 H 924.085 -2.22777 -3.16081 0
M  V30 9428 H 925.774 -2.63947 -3.08362 0
M  V30 9429 H 926.54 -4.59479 -1.55255 0
M  V30 9430 H 922.419 -3.85395 -2.52966 0
M  V30 9431 H 925.963 -6.9136 -0.930946 0
M  V30 9432 H 921.86 -6.16507 -1.91282 0
M  V30 9433 H 922.628 -8.10163 -1.16525 0
M  V30 9434 N 925.291 0.760815 -1.38019 0
M  V30 9435 C 926.516 1.55513 -1.37224 0
M  V30 9436 C 926.941 1.88062 0.037611 0
M  V30 9437 O 926.299 1.50042 1.0177 0
M  V30 9438 C 926.347 2.83539 -2.22796 0
M  V30 9439 O 925.451 3.78384 -1.64009 0
M  V30 9440 H 924.792 0.470642 -0.468393 0
M  V30 9441 H 927.322 0.940792 -1.81687 0
M  V30 9442 H 927.332 3.32535 -2.36399 0
M  V30 9443 H 926.007 2.59178 -3.25269 0
M  V30 9444 H 924.584 3.37063 -1.59508 0
M  V30 9445 N 926.769 1.22769 0.988202 0
M  V30 9446 C 927.701 0.959757 2.08138 0
M  V30 9447 C 928.714 -0.0633787 1.62677 0
M  V30 9448 O 929.903 0.171203 1.77677 0
M  V30 9449 C 927.003 0.422724 3.36253 0
M  V30 9450 C 926.176 1.50419 4.10722 0
M  V30 9451 C 925.235 0.973407 5.17118 0
M  V30 9452 O 924.261 1.66066 5.44436 0
M  V30 9453 N 925.463 -0.202787 5.80146 0
M  V30 9454 H 928.228 1.9009 2.31702 0
M  V30 9455 H 925.789 1.13522 1.15431 0
M  V30 9456 H 927.781 0.0528514 4.04665 0
M  V30 9457 H 926.351 -0.423642 3.09716 0
M  V30 9458 H 925.571 2.04718 3.36874 0
M  V30 9459 H 926.859 2.23169 4.57245 0
M  V30 9460 H 926.257 -0.777856 5.60327 0
M  V30 9461 H 924.814 -0.513998 6.4977 0
M  V30 9462 N 928.247 -1.18576 1.03814 0
M  V30 9463 C 929.475 -1.92437 0.759966 0
M  V30 9464 C 929.89 -1.76031 -0.682526 0
M  V30 9465 O 929.247 -1.08829 -1.46501 0
M  V30 9466 C 929.298 -3.43923 1.11351 0
M  V30 9467 O 929.019 -3.5981 2.49937 0
M  V30 9468 C 930.52 -4.34888 0.859472 0
M  V30 9469 H 927.74 -0.610998 0.277349 0
M  V30 9470 H 930.284 -1.50448 1.38512 0
M  V30 9471 H 928.439 -3.83711 0.533362 0
M  V30 9472 H 928.853 -4.53569 2.63393 0
M  V30 9473 H 930.327 -5.39744 1.15672 0
M  V30 9474 H 930.804 -4.38717 -0.205839 0
M  V30 9475 H 931.41 -4.00795 1.42279 0
M  V30 9476 N 929.725 -0.817259 -1.34754 0
M  V30 9477 C 930.95 -0.414423 -2.03217 0
M  V30 9478 C 931.375 0.970037 -1.61158 0
M  V30 9479 O 930.733 1.63016 -0.793436 0
M  V30 9480 C 930.781 -0.518087 -3.56859 0
M  V30 9481 O 929.885 0.464314 -4.09778 0
M  V30 9482 H 929.226 -0.171454 -0.641482 0
M  V30 9483 H 931.756 -1.10611 -1.72123 0
M  V30 9484 H 931.766 -0.391779 -4.06115 0
M  V30 9485 H 930.441 -1.52786 -3.86819 0
M  V30 9486 H 929.018 0.297361 -3.71712 0
M  V30 9487 N 931.203 1.46865 -0.571711 0
M  V30 9488 C 932.153 2.27219 0.188503 0
M  V30 9489 C 933.137 1.35221 0.872019 0
M  V30 9490 O 934.329 1.59474 0.76793 0
M  V30 9491 C 931.458 3.21321 1.20862 0
M  V30 9492 C 930.544 4.20803 0.527783 0
M  V30 9493 N 930.935 5.04132 -0.410403 0
M  V30 9494 C 929.233 4.39128 0.779909 0
M  V30 9495 C 929.934 5.76071 -0.80728 0
M  V30 9496 N 928.91 5.43368 -0.158865 0
M  V30 9497 H 932.712 2.89034 -0.532611 0
M  V30 9498 H 930.226 1.57581 -0.392696 0
M  V30 9499 H 932.223 3.77586 1.76733 0
M  V30 9500 H 930.883 2.61065 1.93067 0
M  V30 9501 H 931.894 5.11911 -0.785351 0
M  V30 9502 H 928.571 3.90031 1.48937 0
M  V30 9503 H 929.961 6.53082 -1.57903 0
M  V30 9504 N 932.681 0.308908 1.54543 0
M  V30 9505 C 933.628 -0.563659 2.23811 0
M  V30 9506 C 934.598 -1.12332 1.22355 0
M  V30 9507 O 935.783 -1.16638 1.50997 0
M  V30 9508 C 932.923 -1.72585 2.98845 0
M  V30 9509 C 932.036 -1.19682 4.1509 0
M  V30 9510 C 931.171 -2.32351 4.77688 0
M  V30 9511 C 930.21 -1.76623 5.86064 0
M  V30 9512 N 929.347 -2.82896 6.42584 0
M  V30 9513 H 934.187 0.0336288 2.97981 0
M  V30 9514 H 931.724 0.0283666 1.47073 0
M  V30 9515 H 933.682 -2.40951 3.40586 0
M  V30 9516 H 932.312 -2.29464 2.27037 0
M  V30 9517 H 931.364 -0.405173 3.78236 0
M  V30 9518 H 932.676 -0.748923 4.93146 0
M  V30 9519 H 931.83 -3.0865 5.22322 0
M  V30 9520 H 930.569 -2.80472 3.98982 0
M  V30 9521 H 929.574 -0.988171 5.40847 0
M  V30 9522 H 930.799 -1.29398 6.66658 0
M  V30 9523 H 928.745 -3.30336 5.66758 0
M  V30 9524 H 928.662 -2.42626 7.16009 0
M  V30 9525 H 929.93 -3.59068 6.91875 0
M  V30 9526 N 934.159 -1.57557 0.0367827 0
M  V30 9527 C 935.089 -2.13712 -0.940719 0
M  V30 9528 C 936.07 -1.05515 -1.33419 0
M  V30 9529 O 937.255 -1.33385 -1.41146 0
M  V30 9530 C 934.385 -2.67043 -2.22048 0
M  V30 9531 C 933.339 -3.80096 -1.96752 0
M  V30 9532 C 932.665 -4.19886 -3.31059 0
M  V30 9533 C 933.965 -5.05848 -1.30058 0
M  V30 9534 H 935.659 -2.9564 -0.473033 0
M  V30 9535 H 933.205 -1.42214 -0.226089 0
M  V30 9536 H 935.158 -3.04964 -2.90818 0
M  V30 9537 H 933.882 -1.82287 -2.70996 0
M  V30 9538 H 932.541 -3.42625 -1.30398 0
M  V30 9539 H 932.189 -3.32101 -3.77781 0
M  V30 9540 H 931.889 -4.96073 -3.14937 0
M  V30 9541 H 933.413 -4.60395 -4.01084 0
M  V30 9542 H 934.827 -5.41306 -1.8884 0
M  V30 9543 H 933.224 -5.87084 -1.24309 0
M  V30 9544 H 934.294 -4.84122 -0.274591 0
M  V30 9545 N 935.637 0.236453 -1.55816 0
M  V30 9546 C 936.883 0.964439 -1.784 0
M  V30 9547 C 937.216 1.84573 -0.603868 0
M  V30 9548 O 936.491 1.90395 0.397473 0
M  V30 9549 C 936.774 1.81608 -3.10951 0
M  V30 9550 C 936.627 0.962283 -4.39386 0
M  V30 9551 C 937.946 2.79665 -3.39817 0
M  V30 9552 H 935.065 0.349192 -0.649026 0
M  V30 9553 H 937.707 0.234247 -1.8855 0
M  V30 9554 H 935.857 2.43864 -3.02428 0
M  V30 9555 H 937.529 0.35762 -4.59912 0
M  V30 9556 H 935.772 0.267062 -4.32977 0
M  V30 9557 H 936.443 1.59222 -5.28538 0
M  V30 9558 H 938.919 2.27546 -3.4837 0
M  V30 9559 H 937.795 3.36367 -4.33761 0
M  V30 9560 H 938.056 3.56657 -2.61244 0
M  V30 9561 N 937.115 1.49373 0.502552 0
M  V30 9562 C 938.047 1.62045 1.62093 0
M  V30 9563 C 939.06 0.503221 1.54827 0
M  V30 9564 O 940.249 0.775208 1.60788 0
M  V30 9565 C 937.349 1.55971 3.00876 0
M  V30 9566 C 936.522 2.832 3.33341 0
M  V30 9567 C 935.581 2.702 4.51529 0
M  V30 9568 O 934.607 3.44132 4.53389 0
M  V30 9569 N 935.809 1.81642 5.5135 0
M  V30 9570 H 938.574 2.58501 1.51649 0
M  V30 9571 H 936.135 1.46442 0.690396 0
M  V30 9572 H 938.127 1.4493 3.77859 0
M  V30 9573 H 936.697 0.673795 3.05252 0
M  V30 9574 H 935.917 3.08604 2.4527 0
M  V30 9575 H 937.205 3.67551 3.51829 0
M  V30 9576 H 936.603 1.20829 5.52645 0
M  V30 9577 H 935.16 1.76524 6.27441 0
M  V30 9578 N 938.594 -0.753485 1.38421 0
M  V30 9579 C 939.524 -1.8808 1.38377 0
M  V30 9580 C 940.505 -1.68258 0.249664 0
M  V30 9581 O 941.69 -1.88848 0.45276 0
M  V30 9582 C 938.82 -3.25608 1.20818 0
M  V30 9583 C 937.774 -3.60032 2.31433 0
M  V30 9584 C 937.1 -4.96297 1.9898 0
M  V30 9585 C 938.4 -3.64898 3.73694 0
M  V30 9586 H 940.094 -1.88375 2.32713 0
M  V30 9587 H 937.64 -0.90489 1.12017 0
M  V30 9588 H 939.593 -4.04127 1.19412 0
M  V30 9589 H 938.317 -3.25793 0.229433 0
M  V30 9590 H 936.976 -2.83831 2.32025 0
M  V30 9591 H 936.624 -4.93043 0.995889 0
M  V30 9592 H 936.324 -5.20298 2.73063 0
M  V30 9593 H 937.848 -5.77196 1.99193 0
M  V30 9594 H 939.262 -4.33531 3.75132 0
M  V30 9595 H 937.659 -4.00407 4.46983 0
M  V30 9596 H 938.729 -2.65124 4.06002 0
M  V30 9597 N 940.072 -1.23292 -0.981677 0
M  V30 9598 C 941.002 -1.03738 -2.09191 0
M  V30 9599 C 941.983 0.0453041 -1.7004 0
M  V30 9600 O 943.168 -0.119092 -1.93834 0
M  V30 9601 C 940.298 -0.626426 -3.41604 0
M  V30 9602 C 939.252 -1.65631 -3.94652 0
M  V30 9603 C 938.578 -1.10084 -5.23245 0
M  V30 9604 C 939.878 -3.04903 -4.24066 0
M  V30 9605 H 941.572 -1.966 -2.25807 0
M  V30 9606 H 939.118 -0.946656 -1.0851 0
M  V30 9607 H 941.071 -0.476689 -4.18695 0
M  V30 9608 H 939.795 0.337873 -3.24848 0
M  V30 9609 H 938.454 -1.79402 -3.19704 0
M  V30 9610 H 938.102 -0.127562 -5.02838 0
M  V30 9611 H 937.802 -1.78896 -5.59705 0
M  V30 9612 H 939.326 -0.962928 -6.02959 0
M  V30 9613 H 940.74 -2.94441 -4.91912 0
M  V30 9614 H 939.137 -3.70941 -4.71724 0
M  V30 9615 H 940.207 -3.53991 -3.31389 0
M  V30 9616 N 941.55 1.18024 -1.04442 0
M  V30 9617 C 942.778 1.92032 -0.770161 0
M  V30 9618 C 943.193 1.76391 0.673181 0
M  V30 9619 O 942.55 1.09604 1.45922 0
M  V30 9620 C 942.601 3.43328 -1.13173 0
M  V30 9621 O 942.322 3.5848 -2.51841 0
M  V30 9622 C 943.823 4.34427 -0.882523 0
M  V30 9623 H 941.043 0.609518 -0.280586 0
M  V30 9624 H 943.587 1.49711 -1.39308 0
M  V30 9625 H 941.742 3.83423 -0.553704 0
M  V30 9626 H 942.156 4.52166 -2.65794 0
M  V30 9627 H 943.63 5.39123 -1.18533 0
M  V30 9628 H 944.107 4.3882 0.18257 0
M  V30 9629 H 944.713 4.00035 -1.44403 0
M  V30 9630 N 943.028 0.824394 1.34319 0
M  V30 9631 C 944.256 0.426194 2.02463 0
M  V30 9632 C 944.671 -0.968298 1.62078 0
M  V30 9633 O 944.028 -1.62689 0.82696 0
M  V30 9634 C 944.079 0.520465 3.57734 0
M  V30 9635 O 943.8 1.86 3.96656 0
M  V30 9636 C 945.301 0.117353 4.43145 0
M  V30 9637 H 942.521 0.170864 0.648881 0
M  V30 9638 H 945.065 1.11296 1.71562 0
M  V30 9639 H 943.22 -0.118233 3.8722 0
M  V30 9640 H 943.634 1.83528 4.91343 0
M  V30 9641 H 945.108 0.234395 5.51502 0
M  V30 9642 H 945.585 -0.939271 4.29039 0
M  V30 9643 H 946.191 0.729908 4.1899 0
M  V30 9644 N 944.506 -1.46559 0.579492 0
M  V30 9645 C 945.734 -2.06784 0.0693648 0
M  V30 9646 C 946.149 -1.42875 -1.23419 0
M  V30 9647 O 945.506 -0.532919 -1.74546 0
M  V30 9648 C 945.557 -3.61343 -0.106511 0
M  V30 9649 O 945.278 -4.22861 1.14545 0
M  V30 9650 C 946.779 -4.38489 -0.651359 0
M  V30 9651 H 943.999 -0.66866 0.0559848 0
M  V30 9652 H 946.543 -1.88235 0.799245 0
M  V30 9653 H 944.698 -3.7933 -0.786601 0
M  V30 9654 H 945.112 -5.15691 0.95723 0
M  V30 9655 H 946.586 -5.47237 -0.723615 0
M  V30 9656 H 947.063 -4.06309 -1.66763 0
M  V30 9657 H 947.669 -4.253 -0.0062433 0
M  V30 9658 N 945.984 -0.3171 -1.54377 0
M  V30 9659 C 946.947 0.53905 -2.22771 0
M  V30 9660 C 947.947 1.04865 -1.21901 0
M  V30 9661 O 949.137 0.942108 -1.46526 0
M  V30 9662 C 946.269 1.74804 -2.92671 0
M  V30 9663 H 947.462 -0.0587417 -2.99842 0
M  V30 9664 H 945.015 -0.068107 -1.56152 0
M  V30 9665 H 945.75 2.38524 -2.1972 0
M  V30 9666 H 945.535 1.39011 -3.66631 0
M  V30 9667 H 947.025 2.35592 -3.44799 0
M  V30 9668 N 947.462 1.57535 -0.0451378 0
M  V30 9669 C 948.372 2.14653 0.946646 0
M  V30 9670 C 949.388 1.10279 1.3459 0
M  V30 9671 O 950.564 1.42417 1.42405 0
M  V30 9672 C 947.629 2.67533 2.20515 0
M  V30 9673 C 946.69 3.86682 1.86481 0
M  V30 9674 C 945.923 4.37031 3.06332 0
M  V30 9675 O 946.146 3.86481 4.1951 0
M  V30 9676 O 945.08 5.28691 2.87697 0
M  V30 9677 H 948.906 2.99706 0.49091 0
M  V30 9678 H 946.491 1.48355 0.17641 0
M  V30 9679 H 948.373 3.01542 2.94365 0
M  V30 9680 H 947.048 1.85554 2.65238 0
M  V30 9681 H 945.955 3.57573 1.09966 0
M  V30 9682 H 947.288 4.69873 1.46562 0
M  V30 9683 N 948.94 -0.228186 1.55939 0
M  V30 9684 C 949.872 -1.30605 1.88348 0
M  V30 9685 C 950.885 -1.43375 0.771198 0
M  V30 9686 O 952.074 -1.44391 1.04945 0
M  V30 9687 C 949.174 -2.68248 2.07115 0
M  V30 9688 C 948.347 -2.77509 3.38094 0
M  V30 9689 C 947.406 -3.96121 3.46373 0
M  V30 9690 O 946.432 -3.8477 4.19453 0
M  V30 9691 N 947.634 -5.10132 2.77031 0
M  V30 9692 H 950.399 -1.03132 2.81396 0
M  V30 9693 H 947.96 -0.418245 1.56404 0
M  V30 9694 H 949.952 -3.45966 2.09976 0
M  V30 9695 H 948.522 -2.88348 1.20723 0
M  V30 9696 H 947.742 -1.8632 3.47388 0
M  V30 9697 H 949.03 -2.80662 4.2439 0
M  V30 9698 H 948.428 -5.22249 2.17424 0
M  V30 9699 H 946.985 -5.85916 2.85561 0
M  V30 9700 N 950.418 -1.49637 -0.494624 0
M  V30 9701 C 951.35 -1.62902 -1.61231 0
M  V30 9702 C 952.363 -0.511425 -1.54558 0
M  V30 9703 O 953.552 -0.783724 -1.60375 0
M  V30 9704 C 950.652 -1.57564 -3.00045 0
M  V30 9705 C 949.825 -2.84964 -3.31835 0
M  V30 9706 C 948.884 -2.72591 -4.5009 0
M  V30 9707 O 947.91 -3.46532 -4.51558 0
M  V30 9708 N 949.112 -1.84563 -5.50379 0
M  V30 9709 H 951.877 -2.59301 -1.50276 0
M  V30 9710 H 949.438 -1.46806 -0.68262 0
M  V30 9711 H 951.43 -1.46932 -3.77085 0
M  V30 9712 H 950 -0.689974 -3.0489 0
M  V30 9713 H 949.22 -3.099 -2.4363 0
M  V30 9714 H 950.508 -3.69412 -3.49875 0
M  V30 9715 H 949.906 -1.23758 -5.51997 0
M  V30 9716 H 948.463 -1.79849 -6.26496 0
M  V30 9717 N 951.896 0.746133 -1.38819 0
M  V30 9718 C 952.826 1.87344 -1.39372 0
M  V30 9719 C 953.807 1.68123 -0.258583 0
M  V30 9720 O 954.992 1.88606 -0.462769 0
M  V30 9721 C 952.122 3.24962 -1.22543 0
M  V30 9722 C 951.076 3.58799 -2.33339 0
M  V30 9723 C 950.402 4.95235 -2.01609 0
M  V30 9724 C 951.702 3.62911 -3.75624 0
M  V30 9725 H 953.396 1.87138 -2.33709 0
M  V30 9726 H 950.942 0.898937 -1.12495 0
M  V30 9727 H 952.895 4.03488 -1.21554 0
M  V30 9728 H 951.619 3.25667 -0.246707 0
M  V30 9729 H 950.278 2.82596 -2.33527 0
M  V30 9730 H 949.926 4.92508 -1.02202 0
M  V30 9731 H 949.626 5.18843 -2.75819 0
M  V30 9732 H 951.15 5.76131 -2.02251 0
M  V30 9733 H 952.564 4.31535 -3.77426 0
M  V30 9734 H 950.961 3.98031 -4.491 0
M  V30 9735 H 952.031 2.62967 -4.07402 0
M  V30 9736 N 953.375 1.23811 0.975125 0
M  V30 9737 C 954.791 1.0019 1.24234 0
M  V30 9738 C 954.991 -0.293811 1.99346 0
M  V30 9739 O 954.047 -1.01189 2.31337 0
M  V30 9740 C 955.36 2.21218 2.03674 0
M  V30 9741 C 956.908 2.25764 2.16793 0
M  V30 9742 C 957.383 3.46394 2.99626 0
M  V30 9743 N 958.874 3.46665 3.07209 0
M  V30 9744 C 959.609 4.3666 3.71639 0
M  V30 9745 N 959.105 5.36899 4.37849 0
M  V30 9746 N 960.898 4.2439 3.68578 0
M  V30 9747 H 953.049 2.07087 0.472076 0
M  V30 9748 H 955.312 0.90838 0.271201 0
M  V30 9749 H 955.018 3.15277 1.55862 0
M  V30 9750 H 954.892 2.22733 3.04417 0
M  V30 9751 H 957.279 1.32242 2.63811 0
M  V30 9752 H 957.36 2.28279 1.15422 0
M  V30 9753 H 957.004 4.40227 2.53304 0
M  V30 9754 H 956.934 3.41121 4.01178 0
M  V30 9755 H 959.425 2.74142 2.60105 0
M  V30 9756 H 959.738 6.01816 4.84807 0
M  V30 9757 H 958.083 5.40793 4.36541 0
M  V30 9758 H 961.274 3.4532 3.16025 0
M  V30 9759 H 961.447 4.94727 4.18508 0
M  V30 9760 N 954.853 -1.17469 1.05066 0
M  V30 9761 C 955.803 -2.19388 0.620713 0
M  V30 9762 C 956.787 -1.5722 -0.34214 0
M  V30 9763 O 957.979 -1.76279 -0.159574 0
M  V30 9764 C 955.108 -3.433 -0.00438518 0
M  V30 9765 C 954.194 -4.12569 0.982218 0
M  V30 9766 N 954.585 -4.57683 2.15313 0
M  V30 9767 C 952.883 -4.38575 0.810416 0
M  V30 9768 C 953.584 -5.11124 2.77719 0
M  V30 9769 N 952.56 -5.0325 2.05525 0
M  V30 9770 H 956.362 -2.51971 1.51287 0
M  V30 9771 H 953.876 -1.33784 0.920625 0
M  V30 9772 H 955.873 -4.15591 -0.330161 0
M  V30 9773 H 954.533 -3.12209 -0.89195 0
M  V30 9774 H 955.544 -4.51812 2.53154 0
M  V30 9775 H 952.221 -4.17492 -0.0262078 0
M  V30 9776 H 953.611 -5.56161 3.77008 0
M  V30 9777 N 956.331 -0.831506 -1.3388 0
M  V30 9778 C 957.294 -0.264773 -2.27666 0
M  V30 9779 C 958.294 0.562273 -1.50649 0
M  V30 9780 O 959.484 0.377131 -1.70069 0
M  V30 9781 C 956.616 0.627814 -3.35069 0
M  V30 9782 H 957.809 -1.09225 -2.79303 0
M  V30 9783 H 955.362 -0.604021 -1.44157 0
M  V30 9784 H 956.097 1.47802 -2.88661 0
M  V30 9785 H 955.882 0.0361552 -3.92083 0
M  V30 9786 H 957.372 1.01786 -4.05005 0
M  V30 9787 N 957.809 1.4625 -0.587256 0
M  V30 9788 C 959.086 1.95599 -0.00750181 0
M  V30 9789 C 959.466 1.52989 1.45457 0
M  V30 9790 O 958.814 0.782731 2.14676 0
M  V30 9791 C 959.024 3.48513 -0.184309 0
M  V30 9792 C 960.372 4.24565 -0.0544972 0
M  V30 9793 O 961.396 3.5602 -0.113378 0
M  V30 9794 O 960.255 5.46445 0.0774075 0
M  V30 9795 H 957.349 0.825649 0.0472495 0
M  V30 9796 H 959.895 1.56512 -0.655893 0
M  V30 9797 H 958.667 3.72428 -1.20053 0
M  V30 9798 H 958.29 3.9444 0.500301 0
M  V30 9799 N 959.287 0.325282 1.54207 0
M  V30 9800 C 960.536 -0.27768 1.99779 0
M  V30 9801 C 960.849 -1.5311 1.21723 0
M  V30 9802 O 962.055 -2.21017 1.57682 0
M  V30 9803 C 960.511 -0.545329 3.55745 0
M  V30 9804 C 960.119 0.691143 4.42637 0
M  V30 9805 C 961.863 -1.10815 4.09781 0
M  V30 9806 C 959.77 0.395302 5.90077 0
M  V30 9807 H 958.7 -0.107536 0.746292 0
M  V30 9808 H 961.351 0.437773 1.78202 0
M  V30 9809 H 959.733 -1.32101 3.73317 0
M  V30 9810 H 960.907 1.46653 4.3684 0
M  V30 9811 H 959.222 1.1743 3.99499 0
M  V30 9812 H 961.819 -1.34414 5.1753 0
M  V30 9813 H 962.162 -2.05806 3.6187 0
M  V30 9814 H 962.695 -0.393608 3.95848 0
M  V30 9815 H 959.434 1.31443 6.42186 0
M  V30 9816 H 958.954 -0.34235 5.98822 0
M  V30 9817 H 960.633 0.00576877 6.47 0
M  V30 9818 N 960.765 -1.57509 0.0534917 0
M  V30 9819 C 962.042 -1.84137 -0.659767 0
M  V30 9820 C 962.422 -0.942362 -1.88899 0
M  V30 9821 O 961.77 -0.00398566 -2.285 0
M  V30 9822 C 961.98 -3.33919 -1.01486 0
M  V30 9823 C 963.328 -4.00989 -1.39616 0
M  V30 9824 O 964.352 -3.38557 -1.10713 0
M  V30 9825 O 963.211 -5.11071 -1.93567 0
M  V30 9826 H 960.305 -0.760081 -0.325893 0
M  V30 9827 H 962.851 -1.69497 0.0830315 0
M  V30 9828 H 961.623 -3.91046 -0.141041 0
M  V30 9829 H 961.246 -3.53755 -1.81503 0
M  V30 9830 N 962.243 0.219913 -1.56058 0
M  V30 9831 C 963.471 0.960915 -1.83232 0
M  V30 9832 C 963.886 1.77878 -0.632828 0
M  V30 9833 O 963.243 1.78093 0.398624 0
M  V30 9834 C 963.294 1.87716 -3.08942 0
M  V30 9835 O 963.015 1.09235 -4.24263 0
M  V30 9836 C 964.516 2.73192 -3.49115 0
M  V30 9837 H 961.736 0.281546 -0.609075 0
M  V30 9838 H 964.28 0.234648 -2.03149 0
M  V30 9839 H 962.435 2.55736 -2.90995 0
M  V30 9840 H 962.849 1.71446 -4.95688 0
M  V30 9841 H 964.323 3.33181 -4.40107 0
M  V30 9842 H 964.8 3.45668 -2.70943 0
M  V30 9843 H 965.406 2.10583 -3.69506 0
M  V30 9844 N 963.721 1.49897 0.486681 0
M  V30 9845 C 964.946 1.64106 1.26823 0
M  V30 9846 C 965.371 0.317967 1.85393 0
M  V30 9847 O 964.729 -0.71626 1.66551 0
M  V30 9848 C 964.777 2.72301 2.36399 0
M  V30 9849 O 963.881 2.32469 3.40634 0
M  V30 9850 H 963.222 0.548794 0.373793 0
M  V30 9851 H 965.752 1.96177 0.581017 0
M  V30 9852 H 965.762 2.94906 2.81948 0
M  V30 9853 H 964.437 3.68335 1.93137 0
M  V30 9854 H 963.014 2.20251 3.00905 0
M  V30 9855 N 965.199 -0.738761 1.39212 0
M  V30 9856 C 966.439 -1.51093 1.3766 0
M  V30 9857 C 966.803 -1.91978 -0.0289655 0
M  V30 9858 O 968.004 -2.68265 -0.169465 0
M  V30 9859 C 966.275 -2.71988 2.31856 0
M  V30 9860 S 967.834 -3.61683 2.48458 0
M  V30 9861 H 964.652 -0.516868 0.48823 0
M  V30 9862 H 967.254 -0.865961 1.75275 0
M  V30 9863 H 965.958 -2.40085 3.32847 0
M  V30 9864 H 965.489 -3.41417 1.95443 0
M  V30 9865 H 967.504 -4.65447 1.71969 0
M  V30 9866 N 966.677 -1.24326 -0.968545 0
M  V30 9867 C 967.624 -1.0349 -2.06297 0
M  V30 9868 C 968.594 0.0515333 -1.6602 0
M  V30 9869 O 969.779 -0.102924 -1.90522 0
M  V30 9870 C 966.919 -0.64487 -3.39021 0
M  V30 9871 C 966.032 -1.80469 -3.92498 0
M  V30 9872 C 965.167 -1.36032 -5.13487 0
M  V30 9873 C 964.206 -2.49014 -5.59159 0
M  V30 9874 N 963.343 -2.05451 -6.71367 0
M  V30 9875 H 968.183 -1.97161 -2.23454 0
M  V30 9876 H 965.72 -0.982028 -1.0952 0
M  V30 9877 H 967.678 -0.399771 -4.1528 0
M  V30 9878 H 966.308 0.254845 -3.21792 0
M  V30 9879 H 965.36 -2.16348 -3.12886 0
M  V30 9880 H 966.672 -2.65365 -4.22354 0
M  V30 9881 H 965.826 -1.07405 -5.97117 0
M  V30 9882 H 964.565 -0.481887 -4.85313 0
M  V30 9883 H 963.57 -2.78402 -4.74102 0
M  V30 9884 H 964.795 -3.37413 -5.89346 0
M  V30 9885 H 962.741 -1.20004 -6.4493 0
M  V30 9886 H 962.658 -2.83901 -7.00668 0
M  V30 9887 H 963.926 -1.79962 -7.58442 0
M  V30 9888 N 968.156 1.1691 -1.05688 0
M  V30 9889 C 969.433 1.83266 -0.683601 0
M  V30 9890 C 969.813 1.93858 0.835602 0
M  V30 9891 O 969.161 1.47696 1.7435 0
M  V30 9892 C 969.371 3.20625 -1.37842 0
M  V30 9893 C 970.719 3.96473 -1.51967 0
M  V30 9894 O 971.743 3.30122 -1.33783 0
M  V30 9895 O 970.602 5.15393 -1.81749 0
M  V30 9896 H 967.696 0.791028 -0.241254 0
M  V30 9897 H 970.242 1.24165 -1.15677 0
M  V30 9898 H 969.014 3.07914 -2.41463 0
M  V30 9899 H 968.637 3.87398 -0.894921 0
M  V30 9900 N 969.634 0.838594 1.33437 0
M  V30 9901 C 970.88 0.434813 1.98084 0
M  V30 9902 C 971.213 -1.00331 1.66275 0
M  V30 9903 O 970.488 -1.70139 0.942501 0
M  V30 9904 C 970.771 0.655602 3.54082 0
M  V30 9905 C 970.624 2.14097 3.95578 0
M  V30 9906 C 971.943 0.101576 4.39983 0
M  V30 9907 H 969.062 0.159456 0.719544 0
M  V30 9908 H 971.704 1.05406 1.58081 0
M  V30 9909 H 969.854 0.128501 3.88287 0
M  V30 9910 H 971.526 2.73292 3.71631 0
M  V30 9911 H 969.769 2.62558 3.4532 0
M  V30 9912 H 970.44 2.24621 5.04231 0
M  V30 9913 H 972.916 0.552122 4.12421 0
M  V30 9914 H 971.792 0.28575 5.48156 0
M  V30 9915 H 972.053 -0.994616 4.30767 0
M  V30 9916 N 971.112 -1.45937 0.595003 0
M  V30 9917 C 972.042 -2.33198 -0.11871 0
M  V30 9918 C 973.023 -1.46083 -0.871423 0
M  V30 9919 O 974.208 -1.74879 -0.844461 0
M  V30 9920 C 971.338 -3.28576 -1.12495 0
M  V30 9921 C 970.292 -4.25229 -0.486275 0
M  V30 9922 C 969.618 -5.10204 -1.59986 0
M  V30 9923 C 970.918 -5.19019 0.584473 0
M  V30 9924 H 972.612 -2.93122 0.609886 0
M  V30 9925 H 970.158 -1.40951 0.294742 0
M  V30 9926 H 972.111 -3.88485 -1.6327 0
M  V30 9927 H 970.835 -2.66784 -1.88398 0
M  V30 9928 H 969.494 -3.666 0.000507962 0
M  V30 9929 H 969.142 -4.44789 -2.34886 0
M  V30 9930 H 968.842 -5.75669 -1.1781 0
M  V30 9931 H 970.366 -5.7298 -2.11014 0
M  V30 9932 H 971.78 -5.73073 0.161297 0
M  V30 9933 H 970.177 -5.92893 0.927256 0
M  V30 9934 H 971.247 -4.62208 1.46601 0
M  V30 9935 N 972.59 -0.333456 -1.54032 0
M  V30 9936 C 973.815 0.270517 -2.05628 0
M  V30 9937 C 974.24 1.44231 -1.20744 0
M  V30 9938 O 973.598 1.79975 -0.218822 0
M  V30 9939 C 973.646 0.673251 -3.54259 0
M  V30 9940 O 972.75 1.77448 -3.72271 0
M  V30 9941 H 972.091 0.0469753 -0.662336 0
M  V30 9942 H 974.621 -0.484739 -1.98775 0
M  V30 9943 H 974.631 0.953194 -3.96709 0
M  V30 9944 H 973.306 -0.183747 -4.15494 0
M  V30 9945 H 971.883 1.49259 -3.41725 0
M  V30 9946 N 974.068 1.57479 -0.061844 0
M  V30 9947 C 975.308 1.94982 0.613309 0
M  V30 9948 C 975.672 0.940729 1.67375 0
M  V30 9949 O 976.873 1.20307 2.40374 0
M  V30 9950 C 975.144 3.37208 1.18429 0
M  V30 9951 S 976.703 3.96678 1.87596 0
M  V30 9952 H 973.521 0.681969 0.201096 0
M  V30 9953 H 976.123 1.95045 -0.133328 0
M  V30 9954 H 974.827 4.08441 0.400522 0
M  V30 9955 H 974.358 3.40665 1.96751 0
M  V30 9956 H 976.373 3.82772 3.15754 0
M  V30 9957 N 975.546 -0.211634 1.56173 0
M  V30 9958 C 976.774 -0.951184 1.83739 0
M  V30 9959 C 977.189 -1.7754 0.642252 0
M  V30 9960 O 976.546 -1.78302 -0.389174 0
M  V30 9961 C 976.597 -1.86075 3.09933 0
M  V30 9962 O 976.318 -1.06983 4.24837 0
M  V30 9963 C 977.819 -2.71337 3.50559 0
M  V30 9964 H 975.039 -0.278312 0.61056 0
M  V30 9965 H 977.583 -0.223871 2.03271 0
M  V30 9966 H 975.738 -2.54189 2.92347 0
M  V30 9967 H 976.152 -1.68815 4.9659 0
M  V30 9968 H 977.626 -3.30843 4.41868 0
M  V30 9969 H 978.103 -3.44226 2.72773 0
M  V30 9970 H 978.709 -2.0862 3.70618 0
M  V30 9971 N 977.024 -1.50153 -0.478725 0
M  V30 9972 C 978.272 -1.60443 -1.22892 0
M  V30 9973 C 978.593 -0.303276 -1.92627 0
M  V30 9974 O 977.863 0.678798 -1.83764 0
M  V30 9975 H 976.443 -0.591205 -0.456602 0
M  V30 9976 H 979.105 -1.86893 -0.552905 0
M  V30 9977 H 978.201 -2.41175 -1.98094 0
M  V30 9978 N 978.502 0.731368 -1.39602 0
M  V30 9979 C 979.73 1.52059 -1.40305 0
M  V30 9980 C 980.145 1.888 0.00147921 0
M  V30 9981 O 979.502 1.54354 0.973715 0
M  V30 9982 C 979.553 2.80588 -2.27931 0
M  V30 9983 O 979.274 2.45406 -3.62915 0
M  V30 9984 C 980.775 3.74592 -2.37056 0
M  V30 9985 H 977.995 0.469787 -0.479104 0
M  V30 9986 H 980.539 0.903436 -1.83462 0
M  V30 9987 H 978.694 3.38626 -1.88178 0
M  V30 9988 H 979.108 3.27996 -4.09291 0
M  V30 9989 H 980.582 4.61662 -3.02609 0
M  V30 9990 H 981.059 4.16597 -1.39081 0
M  V30 9991 H 981.665 3.22471 -2.77295 0
M  V30 9992 N 979.98 1.24838 0.961938 0
M  V30 9993 C 981.205 1.11967 1.7458 0
M  V30 9994 C 981.63 -0.323287 1.85301 0
M  V30 9995 O 980.988 -1.23412 1.32812 0
M  V30 9996 C 981.036 1.77066 3.14134 0
M  V30 9997 O 980.14 1.04534 3.98932 0
M  V30 9998 H 979.481 0.391338 0.536424 0
M  V30 9999 H 982.011 1.65259 1.20626 0
M  V30 10000 H 982.021 1.83056 3.64629 0
M  V30 10001 H 980.696 2.82052 3.05646 0
M  V30 10002 H 979.273 1.06372 3.57407 0
M  V30 10003 N 981.458 -1.16348 1.06306 0
M  V30 10004 C 982.406 -2.22799 0.668087 0
M  V30 10005 C 983.4 -1.66426 -0.316051 0
M  V30 10006 O 984.606 -1.79089 -0.180902 0
M  V30 10007 H 980.981 -0.725487 0.19792 0
M  V30 10008 H 982.952 -2.53401 1.57577 0
M  V30 10009 C 981.701 -3.47628 0.0706797 0
M  V30 10010 H 981.024 -3.9132 0.819064 0
M  V30 10011 H 982.464 -4.23666 -0.16816 0
M  V30 10012 C 980.923 -3.15343 -1.18577 0
M  V30 10013 O 981.453 -3.31158 -2.27371 0
M  V30 10014 N 979.659 -2.69472 -1.08779 0
M  V30 10015 H 979.206 -2.56803 -0.202447 0
M  V30 10016 H 979.164 -2.48244 -1.92931 0
M  V30 10017 N 982.937 -0.845659 -1.3299 0
M  V30 10018 C 984.162 -0.457435 -2.02293 0
M  V30 10019 C 984.587 0.935634 -1.63179 0
M  V30 10020 O 983.945 1.61297 -0.827835 0
M  V30 10021 C 983.993 -0.593665 -3.5568 0
M  V30 10022 O 983.097 0.37729 -4.10671 0
M  V30 10023 H 982.438 -0.185022 -0.637701 0
M  V30 10024 H 984.968 -1.14237 -1.69738 0
M  V30 10025 H 984.978 -0.477834 -4.05192 0
M  V30 10026 H 983.653 -1.60957 -3.83491 0
M  V30 10027 H 982.23 0.218448 -3.7226 0
M  V30 10028 N 984.415 1.45619 -0.602734 0
M  V30 10029 C 985.378 2.28941 0.108962 0
M  V30 10030 C 986.378 1.39501 0.799762 0
M  V30 10031 O 987.568 1.61673 0.648663 0
M  V30 10032 C 984.7 3.204 1.16432 0
M  V30 10033 H 985.893 2.93346 -0.623534 0
M  V30 10034 H 983.446 1.52061 -0.361565 0
M  V30 10035 H 984.181 2.60785 1.92774 0
M  V30 10036 H 983.966 3.86277 0.673248 0
M  V30 10037 H 985.456 3.83063 1.6629 0
M  V30 10038 N 985.893 0.34162 1.53853 0
M  V30 10039 C 987.118 -0.259608 2.05769 0
M  V30 10040 C 987.543 -1.43588 1.21507 0
M  V30 10041 O 986.901 -1.79856 0.228364 0
M  V30 10042 C 986.949 -0.654455 3.54611 0
M  V30 10043 O 986.053 -1.75472 3.73207 0
M  V30 10044 H 985.394 -0.0434621 0.662576 0
M  V30 10045 H 987.924 0.495274 1.98515 0
M  V30 10046 H 987.934 -0.932142 3.97209 0
M  V30 10047 H 986.609 0.205779 4.15391 0
M  V30 10048 H 985.186 -1.47444 3.42512 0
M  V30 10049 N 987.371 -1.57444 0.0701946 0
M  V30 10050 C 988.334 -2.11511 -0.882923 0
M  V30 10051 C 989.334 -1.03879 -1.22743 0
M  V30 10052 O 990.524 -1.29874 -1.16097 0
M  V30 10053 C 987.656 -2.61514 -2.18686 0
M  V30 10054 H 988.849 -2.9703 -0.413873 0
M  V30 10055 H 986.402 -1.55278 -0.178488 0
M  V30 10056 H 987.137 -1.79443 -2.70131 0
M  V30 10057 H 986.922 -3.40185 -1.94978 0
M  V30 10058 H 988.412 -3.03425 -2.86919 0
M  V30 10059 N 988.849 0.203349 -1.56283 0
M  V30 10060 C 989.797 1.27157 -1.94766 0
M  V30 10061 C 990.791 1.4756 -0.832005 0
M  V30 10062 O 991.997 1.48519 -1.01696 0
M  V30 10063 H 988.372 0.426712 -0.61921 0
M  V30 10064 H 990.343 0.919921 -2.83866 0
M  V30 10065 C 989.092 2.6108 -2.29636 0
M  V30 10066 H 988.415 2.46193 -3.15006 0
M  V30 10067 H 989.855 3.34591 -2.60433 0
M  V30 10068 C 988.314 3.17456 -1.12799 0
M  V30 10069 O 988.844 3.99717 -0.398661 0
M  V30 10070 N 987.05 2.76084 -0.906975 0
M  V30 10071 H 986.597 2.09294 -1.50179 0
M  V30 10072 H 986.555 3.14143 -0.127005 0
M  V30 10073 N 990.327 1.50405 0.470755 0
M  V30 10074 C 991.552 1.65442 1.25075 0
M  V30 10075 C 991.977 0.337612 1.85045 0
M  V30 10076 O 991.335 -0.698555 1.67302 0
M  V30 10077 C 991.383 2.74793 2.33498 0
M  V30 10078 O 990.487 2.36069 3.3815 0
M  V30 10079 H 989.828 0.552728 0.367951 0
M  V30 10080 H 992.358 1.96782 0.560177 0
M  V30 10081 H 992.368 2.97879 2.78804 0
M  V30 10082 H 991.043 3.70363 1.8922 0
M  V30 10083 H 989.62 2.2343 2.98552 0
M  V30 10084 N 991.805 -0.723954 1.39988 0
M  V30 10085 C 993.03 -1.5182 1.41299 0
M  V30 10086 C 993.455 -1.88096 0.0122636 0
M  V30 10087 O 992.813 -1.52687 -0.977559 0
M  V30 10088 C 992.861 -2.77532 2.30235 0
M  V30 10089 O 991.965 -3.73903 1.73984 0
M  V30 10090 H 991.306 -0.458058 0.480707 0
M  V30 10091 H 993.836 -0.892291 1.84118 0
M  V30 10092 H 993.846 -3.2615 2.45132 0
M  V30 10093 H 992.521 -2.50462 3.32026 0
M  V30 10094 H 991.098 -3.32715 1.68389 0
M  V30 10095 N 993.283 -1.25346 -0.955304 0
M  V30 10096 C 994.531 -1.09837 -1.69647 0
M  V30 10097 C 994.852 0.361425 -1.91621 0
M  V30 10098 O 994.122 1.25666 -1.50283 0
M  V30 10099 H 992.702 -0.403467 -0.628668 0
M  V30 10100 H 995.364 -1.57459 -1.14859 0
M  V30 10101 H 994.46 -1.60616 -2.67598 0
M  V30 10102 N 994.761 1.15782 -1.06922 0
M  V30 10103 C 996.009 1.86097 -0.788192 0
M  V30 10104 C 996.33 1.82475 0.687606 0
M  V30 10105 O 995.6 1.26266 1.49778 0
M  V30 10106 H 994.18 0.689008 -0.288577 0
M  V30 10107 H 996.842 1.40377 -1.35205 0
M  V30 10108 H 995.938 2.91358 -1.1188 0
M  V30 10109 N 996.239 0.8527 1.3254 0
M  V30 10110 C 997.464 0.468157 2.02047 0
M  V30 10111 C 997.889 -0.926967 1.63673 0
M  V30 10112 O 997.247 -1.60855 0.836378 0
M  V30 10113 C 997.295 0.612519 3.5536 0
M  V30 10114 O 996.399 -0.355506 4.10865 0
M  V30 10115 H 995.74 0.188401 0.636711 0
M  V30 10116 H 998.27 1.15135 1.6913 0
M  V30 10117 H 998.28 0.499315 4.04933 0
M  V30 10118 H 996.955 1.62988 3.82632 0
M  V30 10119 H 995.532 -0.198703 3.7237 0
M  V30 10120 N 997.718 -1.45297 0.610449 0
M  V30 10121 C 998.958 -2.04105 0.109802 0
M  V30 10122 C 999.322 -1.46818 -1.23727 0
M  V30 10123 O 1000.52 -1.96997 -1.82881 0
M  V30 10124 C 998.794 -3.57323 0.0741377 0
M  V30 10125 S 1000.35 -4.3728 -0.364901 0
M  V30 10126 H 997.171 -0.709171 0.050967 0
M  V30 10127 H 999.773 -1.77967 0.809194 0
M  V30 10128 H 998.477 -3.96528 1.05801 0
M  V30 10129 H 998.008 -3.8804 -0.647158 0
M  V30 10130 H 1000.02 -4.69224 -1.61379 0
M  V30 10131 N 999.196 -0.349774 -1.5367 0
M  V30 10132 C 1000.61 0.132815 -1.86227 0
M  V30 10133 C 1000.96 1.49479 -1.27084 0
M  V30 10134 O 1000.08 2.08292 -0.58679 0
M  V30 10135 C 1000.68 0.247775 -3.37893 0
M  V30 10136 C 999.237 0.674603 -3.70305 0
M  V30 10137 C 998.384 -0.187869 -2.76663 0
M  V30 10138 H 1001.33 -0.569148 -1.48143 0
M  V30 10139 H 1001.36 1.07418 -3.65023 0
M  V30 10140 H 1000.87 -0.743635 -3.80909 0
M  V30 10141 H 998.969 1.67481 -3.32837 0
M  V30 10142 H 999.082 0.460177 -4.76885 0
M  V30 10143 H 997.446 0.340779 -2.5241 0
M  V30 10144 H 998.229 -1.17653 -3.2251 0
M  V30 10145 N 1000.67 1.57404 -0.0785433 0
M  V30 10146 C 1001.9 1.98492 0.601292 0
M  V30 10147 C 1002.32 0.956832 1.61945 0
M  V30 10148 O 1001.68 -0.0767502 1.81137 0
M  V30 10149 C 1001.73 3.38596 1.24036 0
M  V30 10150 O 1000.83 3.38461 2.35622 0
M  V30 10151 H 1000.17 0.645882 0.154054 0
M  V30 10152 H 1002.7 2.04012 -0.155056 0
M  V30 10153 H 1002.71 3.75929 1.5856 0
M  V30 10154 H 1001.39 4.12952 0.494341 0
M  V30 10155 H 999.967 3.12906 2.02841 0
M  V30 10156 N 1002.15 -0.195058 1.56388 0
M  V30 10157 C 1003.38 -0.935745 1.85091 0
M  V30 10158 C 1003.8 -1.76061 0.662118 0
M  V30 10159 O 1003.16 -1.77076 -0.389083 0
M  V30 10160 C 1003.21 -1.80764 3.1202 0
M  V30 10161 O 1002.31 -2.90643 2.92575 0
M  V30 10162 H 1001.65 -0.26351 0.609474 0
M  V30 10163 H 1004.18 -0.200362 2.03617 0
M  V30 10164 H 1004.19 -2.21229 3.42815 0
M  V30 10165 H 1002.87 -1.20157 3.98165 0
M  V30 10166 H 1001.44 -2.53934 2.73079 0
M  V30 10167 N 1003.63 -1.50653 -0.462772 0
M  V30 10168 C 1004.58 -1.66509 -1.55752 0
M  V30 10169 C 1005.56 -0.519508 -1.52282 0
M  V30 10170 O 1006.76 -0.774296 -1.59166 0
M  V30 10171 C 1003.88 -1.77023 -2.94139 0
M  V30 10172 C 1002.97 -2.97284 -3.02461 0
M  V30 10173 N 1003.36 -4.20843 -2.80579 0
M  V30 10174 C 1001.66 -2.96014 -3.33604 0
M  V30 10175 C 1002.36 -5.01886 -2.94084 0
M  V30 10176 N 1001.34 -4.3601 -3.24648 0
M  V30 10177 H 1005.14 -2.59727 -1.37546 0
M  V30 10178 H 1002.65 -1.47951 -0.669653 0
M  V30 10179 H 1004.65 -1.86488 -3.72864 0
M  V30 10180 H 1003.31 -0.849688 -3.13385 0
M  V30 10181 H 1004.32 -4.50206 -2.55998 0
M  V30 10182 H 1001 -2.13493 -3.58786 0
M  V30 10183 H 1002.39 -6.10164 -2.81334 0
M  V30 10184 N 1005.11 0.71652 -1.4037 0
M  V30 10185 C 1006.33 1.51069 -1.42102 0
M  V30 10186 C 1006.76 1.88087 -0.0222387 0
M  V30 10187 O 1006.12 1.53204 0.969448 0
M  V30 10188 C 1006.16 2.76307 -2.31704 0
M  V30 10189 O 1005.27 3.72975 -1.75964 0
M  V30 10190 H 1004.61 0.455502 -0.483129 0
M  V30 10191 H 1007.14 0.882514 -1.84588 0
M  V30 10192 H 1007.15 3.24846 -2.46859 0
M  V30 10193 H 1005.82 2.48698 -3.3335 0
M  V30 10194 H 1004.4 3.31818 -1.70151 0
M  V30 10195 N 1006.59 1.25851 0.948643 0
M  V30 10196 C 1007.81 1.13813 1.73382 0
M  V30 10197 C 1008.24 -0.303615 1.85633 0
M  V30 10198 O 1007.59 -1.21997 1.34114 0
M  V30 10199 C 1007.64 1.80388 3.12238 0
M  V30 10200 O 1006.75 1.08759 3.978 0
M  V30 10201 H 1006.09 0.397006 0.532243 0
M  V30 10202 H 1008.62 1.66529 1.18866 0
M  V30 10203 H 1008.63 1.86913 3.62667 0
M  V30 10204 H 1007.3 2.85278 3.02637 0
M  V30 10205 H 1005.88 1.10157 3.56258 0
M  V30 10206 N 1008.06 -1.15214 1.07534 0
M  V30 10207 C 1008.99 -2.2216 0.718837 0
M  V30 10208 C 1009.98 -1.6753 -0.29459 0
M  V30 10209 O 1011.16 -1.93481 -0.166931 0
M  V30 10210 C 1008.29 -3.471 0.117836 0
M  V30 10211 C 1007.24 -4.14701 1.05862 0
M  V30 10212 C 1006.57 -5.3374 0.320284 0
M  V30 10213 C 1007.87 -4.64254 2.39302 0
M  V30 10214 H 1009.56 -2.52237 1.61297 0
M  V30 10215 H 1007.11 -1.21239 0.776992 0
M  V30 10216 H 1009.06 -4.21156 -0.143519 0
M  V30 10217 H 1007.79 -3.16361 -0.811389 0
M  V30 10218 H 1006.45 -3.42589 1.30493 0
M  V30 10219 H 1006.09 -4.99257 -0.61246 0
M  V30 10220 H 1005.79 -5.79912 0.947381 0
M  V30 10221 H 1007.32 -6.10563 0.0667721 0
M  V30 10222 H 1008.73 -5.29827 2.18988 0
M  V30 10223 H 1007.13 -5.21095 2.97623 0
M  V30 10224 H 1008.2 -3.79793 3.01472 0
M  V30 10225 N 1009.54 -0.859717 -1.32086 0
M  V30 10226 C 1010.77 -0.479724 -2.01262 0
M  V30 10227 C 1011.19 0.924985 -1.64589 0
M  V30 10228 O 1010.54 1.60439 -0.869803 0
M  V30 10229 C 1010.59 -0.615128 -3.56228 0
M  V30 10230 O 1010.31 -1.96451 -3.91585 0
M  V30 10231 C 1011.82 -0.234804 -4.42678 0
M  V30 10232 H 1009.04 -0.188007 -0.644123 0
M  V30 10233 H 1011.58 -1.15805 -1.68551 0
M  V30 10234 H 1009.73 0.0155268 -3.87397 0
M  V30 10235 H 1010.15 -1.96491 -4.86304 0
M  V30 10236 H 1011.62 -0.380534 -5.50687 0
M  V30 10237 H 1012.1 0.825189 -4.31378 0
M  V30 10238 H 1012.71 -0.840739 -4.16907 0
M  V30 10239 N 1011.02 1.44971 -0.618145 0
M  V30 10240 C 1011.93 2.34403 0.0960457 0
M  V30 10241 C 1012.95 1.51862 0.849355 0
M  V30 10242 O 1014.12 1.84632 0.804557 0
M  V30 10243 C 1011.19 3.29646 1.07397 0
M  V30 10244 C 1010.25 4.28095 0.321466 0
M  V30 10245 C 1009.48 5.18787 1.25281 0
M  V30 10246 O 1009.7 5.1313 2.49106 0
M  V30 10247 O 1008.64 5.97282 0.744156 0
M  V30 10248 H 1012.46 2.96898 -0.639176 0
M  V30 10249 H 1010.05 1.44529 -0.37837 0
M  V30 10250 H 1011.93 3.88307 1.63694 0
M  V30 10251 H 1010.61 2.69702 1.79004 0
M  V30 10252 H 1009.51 3.73019 -0.284223 0
M  V30 10253 H 1010.85 4.90923 -0.354315 0
M  V30 10254 N 1012.5 0.357919 1.53482 0
M  V30 10255 C 1013.91 0.00655107 1.59599 0
M  V30 10256 C 1014.11 -1.47449 1.37336 0
M  V30 10257 O 1013.17 -2.2351 1.17472 0
M  V30 10258 C 1014.48 0.455617 2.97228 0
M  V30 10259 C 1016.03 0.409183 3.10314 0
M  V30 10260 C 1016.51 0.833941 4.50344 0
M  V30 10261 N 1018 0.788695 4.56436 0
M  V30 10262 C 1018.73 1.08914 5.62961 0
M  V30 10263 N 1018.23 1.45847 6.77274 0
M  V30 10264 N 1020.02 1.01243 5.52907 0
M  V30 10265 H 1012.17 1.32248 1.66206 0
M  V30 10266 H 1014.44 0.540047 0.779136 0
M  V30 10267 H 1014.14 1.48881 3.18634 0
M  V30 10268 H 1014.02 -0.161751 3.76853 0
M  V30 10269 H 1016.4 -0.614863 2.88623 0
M  V30 10270 H 1016.48 1.06195 2.32715 0
M  V30 10271 H 1016.13 1.85607 4.72771 0
M  V30 10272 H 1016.06 0.158507 5.26361 0
M  V30 10273 H 1018.55 0.516497 3.74354 0
M  V30 10274 H 1018.86 1.67218 7.54492 0
M  V30 10275 H 1017.21 1.49705 6.78685 0
M  V30 10276 H 1020.4 0.723137 4.62481 0
M  V30 10277 H 1020.57 1.24991 6.35831 0
M  V30 10278 N 1013.98 -1.5736 0.0868897 0
M  V30 10279 C 1014.93 -2.10105 -0.885435 0
M  V30 10280 C 1015.91 -1.01417 -1.24913 0
M  V30 10281 O 1017.1 -1.27704 -1.22558 0
M  V30 10282 C 1014.23 -2.67837 -2.14752 0
M  V30 10283 C 1013.32 -3.83553 -1.80963 0
M  V30 10284 N 1013.71 -4.91917 -1.17693 0
M  V30 10285 C 1012.01 -3.93134 -2.10622 0
M  V30 10286 C 1012.71 -5.72628 -1.02332 0
M  V30 10287 N 1011.68 -5.2139 -1.53796 0
M  V30 10288 H 1015.49 -2.91272 -0.392179 0
M  V30 10289 H 1013 -1.61981 -0.116566 0
M  V30 10290 H 1015 -3.03948 -2.85344 0
M  V30 10291 H 1013.66 -1.88122 -2.64651 0
M  V30 10292 H 1014.67 -5.10964 -0.844731 0
M  V30 10293 H 1011.34 -3.24416 -2.62793 0
M  V30 10294 H 1012.73 -6.69813 -0.529171 0
M  V30 10295 N 1015.45 0.186762 -1.56489 0
M  V30 10296 C 1016.4 1.23141 -1.95205 0
M  V30 10297 C 1017.37 1.44799 -0.81378 0
M  V30 10298 O 1018.56 1.57795 -1.07263 0
M  V30 10299 C 1015.7 2.56926 -2.30397 0
M  V30 10300 C 1014.81 2.42777 -3.57328 0
M  V30 10301 C 1013.94 3.69323 -3.81804 0
M  V30 10302 C 1012.98 3.50041 -5.02133 0
M  V30 10303 N 1012.12 4.68619 -5.2282 0
M  V30 10304 H 1016.96 0.894256 -2.84266 0
M  V30 10305 H 1014.5 0.430187 -1.40669 0
M  V30 10306 H 1016.46 3.3488 -2.4882 0
M  V30 10307 H 1015.09 2.88668 -1.44466 0
M  V30 10308 H 1014.14 1.56078 -3.46906 0
M  V30 10309 H 1015.45 2.24468 -4.45439 0
M  V30 10310 H 1014.6 4.55715 -4.00511 0
M  V30 10311 H 1013.34 3.90595 -2.92039 0
M  V30 10312 H 1012.35 2.62034 -4.8334 0
M  V30 10313 H 1013.57 3.30206 -5.93414 0
M  V30 10314 H 1011.52 4.90139 -4.36005 0
M  V30 10315 H 1011.44 4.53165 -6.05126 0
M  V30 10316 H 1012.7 5.56338 -5.45993 0
M  V30 10317 N 1016.93 1.50896 0.454776 0
M  V30 10318 C 1018.18 1.61936 1.20248 0
M  V30 10319 C 1018.49 0.332983 1.92745 0
M  V30 10320 O 1019.7 0.322512 2.69578 0
M  V30 10321 C 1018.16 2.85916 2.18587 0
M  V30 10322 C 1017.76 4.21492 1.51818 0
M  V30 10323 C 1019.51 3.06307 2.93898 0
M  V30 10324 C 1017.42 5.3664 2.48539 0
M  V30 10325 H 1016.35 0.603098 0.452536 0
M  V30 10326 H 1019 1.77345 0.471257 0
M  V30 10327 H 1017.38 2.64101 2.95071 0
M  V30 10328 H 1018.55 4.53623 0.810123 0
M  V30 10329 H 1016.87 4.06837 0.887265 0
M  V30 10330 H 1019.46 3.89507 3.66317 0
M  V30 10331 H 1019.81 2.18683 3.54236 0
M  V30 10332 H 1020.34 3.2838 2.24525 0
M  V30 10333 H 1017.08 6.26469 1.92916 0
M  V30 10334 H 1016.6 5.08907 3.17449 0
M  V30 10335 H 1018.28 5.67881 3.10033 0
M  V30 10336 N 1018.41 -0.709066 1.40748 0
M  V30 10337 C 1019.34 -1.83583 1.4429 0
M  V30 10338 C 1020.32 -1.67378 0.303067 0
M  V30 10339 O 1021.51 -1.87312 0.512612 0
M  V30 10340 C 1018.64 -3.21599 1.31116 0
M  V30 10341 C 1017.59 -3.52486 2.4277 0
M  V30 10342 C 1016.92 -4.89716 2.14668 0
M  V30 10343 C 1018.22 -3.52824 3.85113 0
M  V30 10344 H 1019.91 -1.80876 2.38588 0
M  V30 10345 H 1017.46 -0.868795 1.14839 0
M  V30 10346 H 1019.41 -4.00123 1.32209 0
M  V30 10347 H 1018.13 -3.24898 0.332965 0
M  V30 10348 H 1016.79 -2.76305 2.40937 0
M  V30 10349 H 1016.44 -4.89625 1.15224 0
M  V30 10350 H 1016.14 -5.11347 2.89478 0
M  V30 10351 H 1017.66 -5.70566 2.17455 0
M  V30 10352 H 1019.08 -4.21377 3.88734 0
M  V30 10353 H 1017.48 -3.85984 4.59496 0
M  V30 10354 H 1018.55 -2.52073 4.14231 0
M  V30 10355 N 1019.89 -1.26353 -0.941956 0
M  V30 10356 C 1020.84 -1.04513 -2.02635 0
M  V30 10357 C 1021.82 0.0222314 -1.60885 0
M  V30 10358 O 1023.02 -0.194629 -1.75927 0
M  V30 10359 C 1020.14 -0.679282 -3.36512 0
M  V30 10360 C 1019.23 -1.78406 -3.8475 0
M  V30 10361 N 1019.62 -3.02136 -4.05645 0
M  V30 10362 C 1017.92 -1.66748 -4.13656 0
M  V30 10363 C 1018.62 -3.73932 -4.45589 0
M  V30 10364 N 1017.6 -3.01616 -4.52248 0
M  V30 10365 H 1021.4 -1.9843 -2.16801 0
M  V30 10366 H 1018.91 -1.16858 -1.12774 0
M  V30 10367 H 1020.91 -0.503975 -4.13843 0
M  V30 10368 H 1019.57 0.252418 -3.23717 0
M  V30 10369 H 1020.58 -3.38049 -3.92356 0
M  V30 10370 H 1017.26 -0.805627 -4.09653 0
M  V30 10371 H 1018.65 -4.80201 -4.69954 0
M  V30 10372 N 1021.37 1.14642 -1.08144 0
M  V30 10373 C 1022.78 1.37604 -0.808537 0
M  V30 10374 C 1022.98 1.92868 0.583452 0
M  V30 10375 O 1022.04 2.13964 1.34073 0
M  V30 10376 C 1023.35 2.3396 -1.889 0
M  V30 10377 C 1024.9 2.47605 -1.9147 0
M  V30 10378 C 1025.38 3.47258 -2.98623 0
M  V30 10379 N 1026.87 3.548 -2.97777 0
M  V30 10380 C 1027.6 4.31751 -3.77331 0
M  V30 10381 N 1027.1 5.11966 -4.66757 0
M  V30 10382 N 1028.89 4.2692 -3.65645 0
M  V30 10383 H 1021.04 0.771154 -1.97906 0
M  V30 10384 H 1023.3 0.401694 -0.858688 0
M  V30 10385 H 1023.01 2.00484 -2.88962 0
M  V30 10386 H 1022.88 3.33833 -1.756 0
M  V30 10387 H 1025.27 2.80375 -0.920548 0
M  V30 10388 H 1025.35 1.47702 -2.08848 0
M  V30 10389 H 1025 3.15223 -3.98243 0
M  V30 10390 H 1024.93 4.46935 -2.7849 0
M  V30 10391 H 1027.42 2.97553 -2.3296 0
M  V30 10392 H 1027.73 5.67951 -5.24072 0
M  V30 10393 H 1026.08 5.11245 -4.70801 0
M  V30 10394 H 1029.27 3.63322 -2.95152 0
M  V30 10395 H 1029.44 4.8664 -4.27885 0
M  V30 10396 N 1022.85 0.866709 1.31628 0
M  V30 10397 C 1023.78 0.335762 2.31073 0
M  V30 10398 C 1024.76 -0.571597 1.60209 0
M  V30 10399 O 1025.94 -0.489306 1.87935 0
M  V30 10400 C 1023.07 -0.466416 3.44154 0
M  V30 10401 C 1022.03 0.347561 4.26586 0
M  V30 10402 C 1021.35 -0.5801 5.31544 0
M  V30 10403 C 1022.65 1.57986 4.97833 0
M  V30 10404 H 1024.35 1.16673 2.75731 0
M  V30 10405 H 1021.89 0.56248 1.3256 0
M  V30 10406 H 1023.84 -0.84836 4.12772 0
M  V30 10407 H 1022.57 -1.33086 2.98254 0
M  V30 10408 H 1021.23 0.71141 3.59631 0
M  V30 10409 H 1020.88 -1.44174 4.81895 0
M  V30 10410 H 1020.58 -0.0393965 5.87587 0
M  V30 10411 H 1022.1 -0.958958 6.03023 0
M  V30 10412 H 1023.51 1.26954 5.59067 0
M  V30 10413 H 1021.91 2.05939 5.63657 0
M  V30 10414 H 1022.98 2.3345 4.25005 0
M  V30 10415 N 1024.32 -1.44642 0.625825 0
M  V30 10416 C 1025.25 -2.33397 -0.0692188 0
M  V30 10417 C 1026.23 -1.47898 -0.840241 0
M  V30 10418 O 1027.42 -1.7663 -0.807176 0
M  V30 10419 C 1024.55 -3.30888 -1.055 0
M  V30 10420 C 1023.5 -4.26164 -0.395968 0
M  V30 10421 C 1022.83 -5.13483 -1.49128 0
M  V30 10422 C 1024.13 -5.17663 0.694433 0
M  V30 10423 H 1025.82 -2.91763 0.671925 0
M  V30 10424 H 1023.37 -1.40294 0.324573 0
M  V30 10425 H 1025.32 -3.91861 -1.54993 0
M  V30 10426 H 1024.05 -2.7072 -1.82696 0
M  V30 10427 H 1022.71 -3.66516 0.0782691 0
M  V30 10428 H 1022.35 -4.49672 -2.25399 0
M  V30 10429 H 1022.05 -5.78038 -1.05573 0
M  V30 10430 H 1023.58 -5.77327 -1.98813 0
M  V30 10431 H 1024.99 -5.72602 0.282818 0
M  V30 10432 H 1023.39 -5.90793 1.05281 0
M  V30 10433 H 1024.46 -4.58994 1.56372 0
M  V30 10434 N 1025.8 -0.366053 -1.5329 0
M  V30 10435 C 1026.73 0.514916 -2.23341 0
M  V30 10436 C 1027.75 1.04579 -1.24768 0
M  V30 10437 O 1028.94 0.952084 -1.50989 0
M  V30 10438 C 1026.04 1.72374 -2.91788 0
M  V30 10439 C 1025.21 1.32429 -4.16871 0
M  V30 10440 C 1024.27 2.39524 -4.68524 0
M  V30 10441 O 1023.29 2.01895 -5.32191 0
M  V30 10442 N 1024.5 3.71116 -4.46378 0
M  V30 10443 H 1027.26 -0.0851272 -2.99579 0
M  V30 10444 H 1024.82 -0.191255 -1.60766 0
M  V30 10445 H 1026.81 2.43496 -3.23252 0
M  V30 10446 H 1025.38 2.23064 -2.19 0
M  V30 10447 H 1024.6 0.442901 -3.91704 0
M  V30 10448 H 1025.89 1.03372 -4.98188 0
M  V30 10449 H 1025.29 4.04463 -3.95508 0
M  V30 10450 H 1023.85 4.38341 -4.82391 0
M  V30 10451 N 1027.28 1.57312 -0.0952337 0
M  V30 10452 C 1028.19 2.17556 0.877877 0
M  V30 10453 C 1029.21 1.14505 1.31014 0
M  V30 10454 O 1030.38 1.46876 1.37802 0
M  V30 10455 C 1027.45 2.74413 2.11892 0
M  V30 10456 C 1026.51 3.92419 1.74085 0
M  V30 10457 C 1025.74 4.46556 2.92273 0
M  V30 10458 O 1025.96 3.99631 4.07002 0
M  V30 10459 O 1024.9 5.37576 2.70732 0
M  V30 10460 H 1028.72 3.01116 0.395312 0
M  V30 10461 H 1026.31 1.48841 0.129123 0
M  V30 10462 H 1028.19 3.10754 2.84622 0
M  V30 10463 H 1026.87 1.93899 2.59201 0
M  V30 10464 H 1025.77 3.6089 0.985346 0
M  V30 10465 H 1027.11 4.74298 1.31539 0
M  V30 10466 N 1028.76 -0.17846 1.56586 0
M  V30 10467 C 1030.01 -0.894464 1.81228 0
M  V30 10468 C 1030.33 -1.83089 0.671062 0
M  V30 10469 O 1029.6 -1.93439 -0.309557 0
M  V30 10470 H 1028.18 -0.333288 0.668527 0
M  V30 10471 H 1030.84 -0.179986 1.94067 0
M  V30 10472 H 1029.93 -1.47565 2.75011 0
M  V30 10473 N 1030.24 -1.51135 -0.446768 0
M  V30 10474 C 1031.46 -1.67411 -1.22427 0
M  V30 10475 C 1031.89 -0.367009 -1.84485 0
M  V30 10476 O 1031.24 0.67185 -1.68392 0
M  V30 10477 C 1031.29 -2.78473 -2.29096 0
M  V30 10478 O 1030.4 -2.41419 -3.34351 0
M  V30 10479 H 1029.74 -0.558512 -0.359111 0
M  V30 10480 H 1032.27 -1.97648 -0.5288 0
M  V30 10481 H 1032.28 -3.02277 -2.7403 0
M  V30 10482 H 1030.95 -3.73326 -1.83304 0
M  V30 10483 H 1029.53 -2.28152 -2.9496 0
M  V30 10484 N 1031.71 0.701592 -1.41122 0
M  V30 10485 C 1033.12 1.28129 -1.35793 0
M  V30 10486 C 1033.48 1.96163 -0.0381185 0
M  V30 10487 O 1032.6 1.98416 0.863723 0
M  V30 10488 C 1033.2 2.33005 -2.45955 0
M  V30 10489 C 1031.75 2.86566 -2.44043 0
M  V30 10490 C 1030.9 1.60526 -2.26112 0
M  V30 10491 H 1033.85 0.496756 -1.50725 0
M  V30 10492 H 1033.87 3.14163 -2.14667 0
M  V30 10493 H 1033.39 1.8346 -3.42 0
M  V30 10494 H 1031.49 3.40304 -1.51737 0
M  V30 10495 H 1031.6 3.37406 -3.40138 0
M  V30 10496 H 1029.96 1.86113 -1.7388 0
M  V30 10497 H 1030.75 1.12985 -3.24175 0
M  V30 10498 N 1033.19 1.2685 0.935242 0
M  V30 10499 C 1034.42 1.15645 1.72165 0
M  V30 10500 C 1034.84 -0.283909 1.85945 0
M  V30 10501 O 1034.2 -1.20567 1.354 0
M  V30 10502 C 1034.25 1.83689 3.10307 0
M  V30 10503 O 1033.35 1.12972 3.96625 0
M  V30 10504 H 1032.69 0.402629 0.528002 0
M  V30 10505 H 1035.22 1.67781 1.17093 0
M  V30 10506 H 1035.23 1.90749 3.60664 0
M  V30 10507 H 1033.91 2.88472 2.99595 0
M  V30 10508 H 1032.48 1.13929 3.5507 0
M  V30 10509 N 1034.67 -1.14067 1.0875 0
M  V30 10510 C 1035.95 -1.81389 0.73195 0
M  V30 10511 C 1036.33 -1.96005 -0.78391 0
M  V30 10512 O 1035.68 -1.52267 -1.70373 0
M  V30 10513 C 1035.89 -3.16858 1.46294 0
M  V30 10514 C 1037.23 -3.92305 1.62426 0
M  V30 10515 O 1038.26 -3.26459 1.42488 0
M  V30 10516 O 1037.12 -5.10393 1.9535 0
M  V30 10517 H 1034.21 -0.784354 0.262141 0
M  V30 10518 H 1036.76 -1.21054 1.18929 0
M  V30 10519 H 1035.53 -3.01404 2.49542 0
M  V30 10520 H 1035.15 -3.84889 0.997318 0
M  V30 10521 N 1036.15 -0.873678 -1.31166 0
M  V30 10522 C 1037.4 -0.482577 -1.95842 0
M  V30 10523 C 1037.71 0.970881 -1.69804 0
M  V30 10524 O 1038.92 1.4683 -2.28371 0
M  V30 10525 C 1037.37 -0.812074 -3.50619 0
M  V30 10526 C 1036.98 -2.28254 -3.85492 0
M  V30 10527 C 1038.72 -0.489624 -4.21667 0
M  V30 10528 C 1036.63 -2.55426 -5.33396 0
M  V30 10529 H 1035.56 -0.176736 -0.732994 0
M  V30 10530 H 1038.21 -1.06709 -1.49283 0
M  V30 10531 H 1036.59 -0.156769 -3.9569 0
M  V30 10532 H 1037.77 -2.98122 -3.51369 0
M  V30 10533 H 1036.08 -2.5714 -3.27518 0
M  V30 10534 H 1038.68 -0.669811 -5.30488 0
M  V30 10535 H 1039.02 0.570204 -4.12376 0
M  V30 10536 H 1039.56 -1.10163 -3.82242 0
M  V30 10537 H 1036.3 -3.60106 -5.47726 0
M  V30 10538 H 1035.82 -1.90156 -5.68859 0
M  V30 10539 H 1037.49 -2.40345 -6.00702 0
M  V30 10540 N 1037.63 1.44308 -0.633487 0
M  V30 10541 C 1038.85 2.06384 -0.146063 0
M  V30 10542 C 1039.27 1.47357 1.18031 0
M  V30 10543 O 1038.63 0.597334 1.72448 0
M  V30 10544 C 1038.68 3.61489 -0.0276722 0
M  V30 10545 O 1038.4 4.18318 -1.3016 0
M  V30 10546 C 1039.9 4.40604 0.488168 0
M  V30 10547 H 1037.12 0.666122 -0.0807632 0
M  V30 10548 H 1039.66 1.85139 -0.868557 0
M  V30 10549 H 1037.82 3.81988 0.645273 0
M  V30 10550 H 1038.23 5.11783 -1.14797 0
M  V30 10551 H 1039.71 5.49545 0.520013 0
M  V30 10552 H 1040.18 4.12218 1.51568 0
M  V30 10553 H 1040.79 4.2503 -0.151608 0
M  V30 10554 N 1039.1 0.374177 1.53094 0
M  V30 10555 C 1040.33 -0.213325 2.05797 0
M  V30 10556 C 1040.75 -1.41753 1.24706 0
M  V30 10557 O 1040.1 -1.80183 0.289868 0
M  V30 10558 C 1040.16 -0.598367 3.56513 0
M  V30 10559 O 1039.88 0.557983 4.34532 0
M  V30 10560 C 1041.38 -1.24334 4.25507 0
M  V30 10561 H 1038.6 -0.0357398 0.670048 0
M  V30 10562 H 1041.14 0.535035 1.97377 0
M  V30 10563 H 1039.3 -1.29663 3.65056 0
M  V30 10564 H 1039.71 0.244911 5.23928 0
M  V30 10565 H 1041.18 -1.46325 5.32253 0
M  V30 10566 H 1041.66 -2.20622 3.79766 0
M  V30 10567 H 1042.27 -0.586269 4.2124 0
M  V30 10568 N 1040.58 -1.57259 0.103575 0
M  V30 10569 C 1041.51 -2.17509 -0.84923 0
M  V30 10570 C 1042.49 -1.11079 -1.28824 0
M  V30 10571 O 1043.68 -1.39252 -1.35361 0
M  V30 10572 C 1040.81 -2.76221 -2.10522 0
M  V30 10573 C 1039.76 -3.88098 -1.80454 0
M  V30 10574 C 1039.09 -4.33549 -3.12952 0
M  V30 10575 C 1040.39 -5.10909 -1.08486 0
M  V30 10576 H 1042.08 -2.9738 -0.347217 0
M  V30 10577 H 1039.63 -1.43045 -0.165568 0
M  V30 10578 H 1041.58 -3.17024 -2.77621 0
M  V30 10579 H 1040.31 -1.93617 -2.63021 0
M  V30 10580 H 1038.96 -3.47847 -1.15749 0
M  V30 10581 H 1038.61 -3.47825 -3.63355 0
M  V30 10582 H 1038.31 -5.08984 -2.93614 0
M  V30 10583 H 1039.84 -4.76992 -3.81196 0
M  V30 10584 H 1041.25 -5.48828 -1.65711 0
M  V30 10585 H 1039.65 -5.91828 -0.992973 0
M  V30 10586 H 1040.72 -4.84851 -0.0690108 0
M  V30 10587 N 1042.06 0.170153 -1.56679 0
M  V30 10588 C 1043.29 0.90618 -1.86556 0
M  V30 10589 C 1043.71 1.74986 -0.690044 0
M  V30 10590 O 1043.07 1.77672 0.360862 0
M  V30 10591 C 1043.12 1.75777 -3.14857 0
M  V30 10592 O 1042.22 2.85952 -2.97162 0
M  V30 10593 H 1041.56 0.253781 -0.613589 0
M  V30 10594 H 1044.09 0.167943 -2.0391 0
M  V30 10595 H 1044.1 2.15747 -3.46291 0
M  V30 10596 H 1042.78 1.13807 -4.00026 0
M  V30 10597 H 1041.35 2.49557 -2.77084 0
M  V30 10598 N 1043.54 1.5137 0.438746 0
M  V30 10599 C 1044.78 1.64211 1.19006 0
M  V30 10600 C 1045.12 0.356607 1.90898 0
M  V30 10601 O 1044.39 -0.643722 1.83539 0
M  V30 10602 C 1044.68 2.8445 2.20817 0
M  V30 10603 C 1044.53 4.22972 1.53018 0
M  V30 10604 C 1045.85 3.00207 3.21813 0
M  V30 10605 H 1042.97 0.597628 0.431288 0
M  V30 10606 H 1045.61 1.8385 0.479487 0
M  V30 10607 H 1043.76 2.67836 2.81418 0
M  V30 10608 H 1045.43 4.5125 0.957654 0
M  V30 10609 H 1043.67 4.25736 0.832556 0
M  V30 10610 H 1044.34 5.03094 2.27158 0
M  V30 10611 H 1046.82 3.15522 2.71266 0
M  V30 10612 H 1045.7 3.85904 3.90345 0
M  V30 10613 H 1045.96 2.12216 3.87836 0
M  V30 10614 N 1045.02 -0.694098 1.41492 0
M  V30 10615 C 1045.93 -1.83778 1.45818 0
M  V30 10616 C 1046.94 -1.70471 0.348639 0
M  V30 10617 O 1048.12 -1.92361 0.596588 0
M  V30 10618 C 1045.18 -3.19771 1.33967 0
M  V30 10619 C 1044.24 -3.45175 2.5525 0
M  V30 10620 C 1043.48 -4.74681 2.43955 0
M  V30 10621 O 1043.7 -5.51268 1.46491 0
M  V30 10622 O 1042.63 -5.00901 3.33739 0
M  V30 10623 H 1046.46 -1.83084 2.42309 0
M  V30 10624 H 1044.05 -0.847349 1.23046 0
M  V30 10625 H 1045.93 -4.00961 1.29648 0
M  V30 10626 H 1044.6 -3.21145 0.405926 0
M  V30 10627 H 1043.51 -2.6391 2.65146 0
M  V30 10628 H 1044.84 -3.48617 3.47458 0
M  V30 10629 N 1046.49 -1.27344 -0.928501 0
M  V30 10630 C 1047.91 -1.12361 -1.49103 0
M  V30 10631 C 1048.26 0.291667 -1.9402 0
M  V30 10632 O 1047.38 1.18449 -1.81104 0
M  V30 10633 C 1047.98 -2.03358 -2.70981 0
M  V30 10634 C 1046.54 -1.92483 -3.23461 0
M  V30 10635 C 1045.68 -1.95961 -1.962 0
M  V30 10636 H 1048.63 -1.40249 -0.742689 0
M  V30 10637 H 1048.65 -1.58892 -3.45736 0
M  V30 10638 H 1048.17 -3.06356 -2.38259 0
M  V30 10639 H 1046.27 -0.924676 -3.60944 0
M  V30 10640 H 1046.38 -2.78682 -3.89709 0
M  V30 10641 H 1044.74 -1.40175 -2.12657 0
M  V30 10642 H 1045.53 -3.00612 -1.65793 0
M  V30 10643 N 1047.97 1.13488 -1.09353 0
M  V30 10644 C 1049.25 1.80998 -0.741559 0
M  V30 10645 C 1049.63 1.96418 0.773505 0
M  V30 10646 O 1048.98 1.53168 1.69563 0
M  V30 10647 C 1049.19 3.16078 -1.47972 0
M  V30 10648 C 1050.54 3.91438 -1.64504 0
M  V30 10649 O 1051.56 3.25699 -1.44218 0
M  V30 10650 O 1050.42 5.0935 -1.98054 0
M  V30 10651 H 1047.51 0.782953 -0.266297 0
M  V30 10652 H 1050.06 1.20422 -1.19569 0
M  V30 10653 H 1048.83 3.00076 -2.51137 0
M  V30 10654 H 1048.45 3.84354 -1.01772 0
M  V30 10655 N 1049.45 0.880621 1.30701 0
M  V30 10656 C 1050.4 0.342397 2.28246 0
M  V30 10657 C 1051.37 -0.565023 1.56194 0
M  V30 10658 O 1052.55 -0.494377 1.84284 0
M  V30 10659 C 1049.69 -0.440859 3.42272 0
M  V30 10660 C 1048.81 0.495284 4.29151 0
M  V30 10661 C 1047.94 -0.303141 5.30334 0
M  V30 10662 C 1046.98 0.628751 6.08862 0
M  V30 10663 N 1046.12 -0.13408 7.01972 0
M  V30 10664 H 1050.96 1.17938 2.73669 0
M  V30 10665 H 1048.49 0.59296 1.34619 0
M  V30 10666 H 1050.45 -0.910854 4.07135 0
M  V30 10667 H 1049.08 -1.24245 2.97931 0
M  V30 10668 H 1048.13 1.08376 3.64635 0
M  V30 10669 H 1049.45 1.2094 4.83916 0
M  V30 10670 H 1048.6 -0.835181 6.00924 0
M  V30 10671 H 1047.34 -1.05049 4.76252 0
M  V30 10672 H 1046.34 1.17246 5.37153 0
M  V30 10673 H 1047.57 1.37512 6.65032 0
M  V30 10674 H 1045.52 -0.864046 6.50285 0
M  V30 10675 H 1045.43 0.520486 7.54206 0
M  V30 10676 H 1046.7 -0.647005 7.7681 0
M  V30 10677 N 1050.93 -1.4397 0.641131 0
M  V30 10678 C 1051.88 -2.30728 -0.0577905 0
M  V30 10679 C 1052.85 -1.44059 -0.826819 0
M  V30 10680 O 1054.03 -1.72947 -0.805853 0
M  V30 10681 C 1051.17 -3.29478 -1.02657 0
M  V30 10682 C 1050.28 -4.31247 -0.254913 0
M  V30 10683 C 1049.42 -5.17085 -1.2164 0
M  V30 10684 C 1048.46 -6.10556 -0.434481 0
M  V30 10685 N 1047.6 -6.89059 -1.34694 0
M  V30 10686 H 1052.44 -2.8995 0.687953 0
M  V30 10687 H 1049.97 -1.4285 0.351029 0
M  V30 10688 H 1051.93 -3.85228 -1.60173 0
M  V30 10689 H 1050.56 -2.71932 -1.73933 0
M  V30 10690 H 1049.61 -3.77889 0.436338 0
M  V30 10691 H 1050.92 -4.97545 0.353642 0
M  V30 10692 H 1050.08 -5.77402 -1.86258 0
M  V30 10693 H 1048.82 -4.50885 -1.85888 0
M  V30 10694 H 1047.82 -5.49339 0.225125 0
M  V30 10695 H 1049.05 -6.78795 0.203415 0
M  V30 10696 H 1046.99 -6.25518 -1.97644 0
M  V30 10697 H 1046.91 -7.51833 -0.792657 0
M  V30 10698 H 1048.18 -7.5389 -1.98165 0
M  V30 10699 N 1052.41 -0.382291 -1.52893 0
M  V30 10700 C 1053.68 0.259354 -1.93873 0
M  V30 10701 C 1054.06 1.64964 -1.3172 0
M  V30 10702 O 1053.41 2.23345 -0.482611 0
M  V30 10703 C 1053.62 0.292765 -3.4777 0
M  V30 10704 C 1054.97 0.525095 -4.21341 0
M  V30 10705 O 1055.99 0.373272 -3.54239 0
M  V30 10706 O 1054.85 0.822004 -5.40283 0
M  V30 10707 H 1051.95 0.159422 -0.811489 0
M  V30 10708 H 1054.49 -0.436289 -1.63996 0
M  V30 10709 H 1053.27 -0.681341 -3.85323 0
M  V30 10710 H 1052.89 1.03362 -3.8393 0
M  V30 10711 N 1053.89 1.57202 -0.111913 0
M  V30 10712 C 1055.11 1.99723 0.559054 0
M  V30 10713 C 1055.54 0.990968 1.59879 0
M  V30 10714 O 1054.89 -0.038311 1.8126 0
M  V30 10715 C 1054.94 3.41151 1.16826 0
M  V30 10716 O 1054.05 3.43383 2.2839 0
M  V30 10717 H 1053.39 0.649004 0.140319 0
M  V30 10718 H 1055.92 2.03637 -0.198295 0
M  V30 10719 H 1055.93 3.79208 1.50551 0
M  V30 10720 H 1054.6 4.13907 0.406637 0
M  V30 10721 H 1053.18 3.17138 1.96158 0
M  V30 10722 N 1055.36 -0.161842 1.56767 0
M  V30 10723 C 1056.33 -1.18404 1.96247 0
M  V30 10724 C 1057.33 -1.3667 0.84722 0
M  V30 10725 O 1058.52 -1.33915 1.11411 0
M  V30 10726 C 1055.65 -2.54728 2.26553 0
M  V30 10727 H 1056.84 -0.845703 2.87729 0
M  V30 10728 H 1054.39 -0.404645 1.50971 0
M  V30 10729 H 1055.13 -2.93559 1.37816 0
M  V30 10730 H 1054.91 -2.42834 3.07854 0
M  V30 10731 H 1056.4 -3.28378 2.57987 0
M  V30 10732 N 1056.84 -1.516 -0.430713 0
M  V30 10733 C 1058.07 -1.687 -1.20644 0
M  V30 10734 C 1058.49 -0.386555 -1.84085 0
M  V30 10735 O 1057.85 0.653952 -1.69095 0
M  V30 10736 C 1057.9 -2.80887 -2.2613 0
M  V30 10737 O 1057 -2.44952 -3.31772 0
M  V30 10738 H 1056.34 -0.562289 -0.353167 0
M  V30 10739 H 1058.87 -1.98198 -0.507807 0
M  V30 10740 H 1058.88 -3.05167 -2.70809 0
M  V30 10741 H 1057.56 -3.75249 -1.79334 0
M  V30 10742 H 1056.13 -2.31267 -2.92523 0
M  V30 10743 N 1058.32 0.686584 -1.41858 0
M  V30 10744 C 1059.55 1.47519 -1.45072 0
M  V30 10745 C 1059.96 1.88709 -0.0585868 0
M  V30 10746 O 1059.32 1.57373 0.924116 0
M  V30 10747 C 1059.37 2.73195 -2.36742 0
M  V30 10748 O 1059.09 2.33736 -3.70539 0
M  V30 10749 C 1060.59 3.66861 -2.48854 0
M  V30 10750 H 1057.81 0.454307 -0.493808 0
M  V30 10751 H 1060.36 0.844612 -1.86243 0
M  V30 10752 H 1058.51 3.32468 -1.98856 0
M  V30 10753 H 1058.93 3.14809 -4.19518 0
M  V30 10754 H 1060.4 4.51801 -3.17143 0
M  V30 10755 H 1060.88 4.11961 -1.52265 0
M  V30 10756 H 1061.48 3.13486 -2.87414 0
M  V30 10757 N 1059.8 1.27835 0.921735 0
M  V30 10758 C 1061.02 1.17465 1.70929 0
M  V30 10759 C 1061.45 -0.264171 1.86236 0
M  V30 10760 O 1060.81 -1.19124 1.36671 0
M  V30 10761 C 1060.85 1.8697 3.08342 0
M  V30 10762 O 1059.96 1.17173 3.95404 0
M  V30 10763 H 1059.3 0.408206 0.523702 0
M  V30 10764 H 1061.83 1.69013 1.15307 0
M  V30 10765 H 1061.84 1.94564 3.58621 0
M  V30 10766 H 1060.51 2.91633 2.96518 0
M  V30 10767 H 1059.09 1.17688 3.53842 0
M  V30 10768 N 1061.28 -1.12907 1.09954 0
M  V30 10769 C 1062.52 -1.84579 0.840155 0
M  V30 10770 C 1062.85 -1.83605 -0.632692 0
M  V30 10771 O 1062.13 -1.27803 -1.46617 0
M  V30 10772 C 1062.41 -3.32489 1.38286 0
M  V30 10773 C 1062.27 -3.41946 2.92221 0
M  V30 10774 C 1063.58 -4.28091 1.0211 0
M  V30 10775 H 1060.7 -0.670169 0.306663 0
M  V30 10776 H 1063.35 -1.3249 1.36185 0
M  V30 10777 H 1061.5 -3.76978 0.939123 0
M  V30 10778 H 1063.17 -3.06128 3.45085 0
M  V30 10779 H 1061.41 -2.8265 3.29077 0
M  V30 10780 H 1062.08 -4.45983 3.25274 0
M  V30 10781 H 1064.56 -3.91701 1.4039 0
M  V30 10782 H 1063.43 -5.30005 1.42781 0
M  V30 10783 H 1063.69 -4.42044 -0.0700753 0
M  V30 10784 N 1062.75 -0.88754 -1.30232 0
M  V30 10785 C 1063.98 -0.521562 -2.00735 0
M  V30 10786 C 1064.4 0.883247 -1.66073 0
M  V30 10787 O 1063.76 1.58581 -0.878731 0
M  V30 10788 C 1063.81 -0.706521 -3.53611 0
M  V30 10789 O 1062.91 0.246447 -4.11663 0
M  V30 10790 H 1062.25 -0.205216 -0.631492 0
M  V30 10791 H 1064.78 -1.19579 -1.66018 0
M  V30 10792 H 1064.79 -0.606501 -4.03467 0
M  V30 10793 H 1063.47 -1.73076 -3.78177 0
M  V30 10794 H 1062.05 0.0999062 -3.72766 0
M  V30 10795 N 1064.23 1.43628 -0.648757 0
M  V30 10796 C 1065.48 2.02163 -0.160574 0
M  V30 10797 C 1065.81 1.51037 1.22072 0
M  V30 10798 O 1065.09 0.701633 1.81404 0
M  V30 10799 C 1065.37 3.59715 -0.166528 0
M  V30 10800 C 1065.22 4.21083 -1.58142 0
M  V30 10801 C 1066.54 4.37256 0.499485 0
M  V30 10802 H 1063.66 0.734568 -0.0598238 0
M  V30 10803 H 1066.3 1.70981 -0.828592 0
M  V30 10804 H 1064.45 3.86411 0.402302 0
M  V30 10805 H 1066.12 4.05433 -2.2005 0
M  V30 10806 H 1064.37 3.77904 -2.13005 0
M  V30 10807 H 1065.04 5.30156 -1.53748 0
M  V30 10808 H 1067.51 4.16097 0.0155561 0
M  V30 10809 H 1066.39 5.4693 0.464574 0
M  V30 10810 H 1066.65 4.13175 1.57286 0
M  V30 10811 N 1065.71 0.390394 1.52688 0
M  V30 10812 C 1066.94 -0.191485 2.06012 0
M  V30 10813 C 1067.35 -1.40422 1.26202 0
M  V30 10814 O 1066.71 -1.79866 0.308963 0
M  V30 10815 C 1066.76 -0.560521 3.57128 0
M  V30 10816 O 1066.48 0.60404 4.33916 0
M  V30 10817 C 1067.98 -1.19814 4.26801 0
M  V30 10818 H 1065.2 -0.0286311 0.670389 0
M  V30 10819 H 1067.75 0.555939 1.96798 0
M  V30 10820 H 1065.9 -1.25784 3.66411 0
M  V30 10821 H 1066.32 0.300467 5.23639 0
M  V30 10822 H 1067.79 -1.40672 5.33775 0
M  V30 10823 H 1068.27 -2.16582 3.82085 0
M  V30 10824 H 1068.87 -0.541558 4.21838 0
M  V30 10825 N 1067.19 -1.57141 0.120249 0
M  V30 10826 C 1068.44 -1.94852 -0.536387 0
M  V30 10827 C 1068.76 -1.00452 -1.67136 0
M  V30 10828 O 1068.03 -0.061053 -1.95805 0
M  V30 10829 H 1066.61 -0.719411 -0.201138 0
M  V30 10830 H 1069.27 -1.93977 0.189482 0
M  V30 10831 H 1068.37 -2.97917 -0.930145 0
M  V30 10832 N 1068.67 0.153526 -1.5685 0
M  V30 10833 C 1069.6 1.2147 -1.94365 0
M  V30 10834 C 1070.61 1.39532 -0.838726 0
M  V30 10835 O 1071.8 1.39219 -1.11715 0
M  V30 10836 C 1068.9 2.5806 -2.19677 0
M  V30 10837 C 1068.07 2.61062 -3.50949 0
M  V30 10838 C 1067.13 3.79144 -3.64878 0
M  V30 10839 O 1066.16 3.64319 -4.37333 0
M  V30 10840 N 1067.36 4.96333 -3.01054 0
M  V30 10841 H 1070.13 0.895889 -2.85996 0
M  V30 10842 H 1067.69 0.343147 -1.58222 0
M  V30 10843 H 1069.68 3.35553 -2.26243 0
M  V30 10844 H 1068.25 2.8226 -1.34343 0
M  V30 10845 H 1067.47 1.69533 -3.55882 0
M  V30 10846 H 1068.76 2.60094 -4.37297 0
M  V30 10847 H 1068.15 5.1128 -2.42093 0
M  V30 10848 H 1066.71 5.71625 -3.13191 0
M  V30 10849 N 1070.14 1.51827 0.422667 0
M  V30 10850 C 1071.39 1.65464 1.17258 0
M  V30 10851 C 1071.72 0.376834 1.90509 0
M  V30 10852 O 1071 -0.624219 1.84211 0
M  V30 10853 C 1071.28 2.86776 2.17788 0
M  V30 10854 C 1071.13 4.24571 1.48523 0
M  V30 10855 C 1072.45 3.03603 3.18611 0
M  V30 10856 H 1069.57 0.602169 0.424925 0
M  V30 10857 H 1072.21 1.84349 0.45996 0
M  V30 10858 H 1070.36 2.70806 2.78561 0
M  V30 10859 H 1072.04 4.5224 0.909739 0
M  V30 10860 H 1070.28 4.26595 0.787354 0
M  V30 10861 H 1070.95 5.05475 2.2181 0
M  V30 10862 H 1073.43 3.18381 2.67904 0
M  V30 10863 H 1072.3 3.90022 3.8623 0
M  V30 10864 H 1072.56 2.16318 3.85563 0
M  V30 10865 N 1071.62 -0.679052 1.4222 0
M  V30 10866 C 1072.55 -1.80455 1.41311 0
M  V30 10867 C 1073.57 -1.59767 0.312799 0
M  V30 10868 O 1074.76 -1.68964 0.575612 0
M  V30 10869 C 1071.86 -3.17492 1.18541 0
M  V30 10870 C 1071.03 -3.65066 2.40926 0
M  V30 10871 C 1070.09 -4.80823 2.13765 0
M  V30 10872 O 1069.11 -4.91587 2.86934 0
M  V30 10873 N 1070.32 -5.69233 1.13813 0
M  V30 10874 H 1073.08 -1.81722 2.38322 0
M  V30 10875 H 1070.64 -0.861988 1.37045 0
M  V30 10876 H 1072.63 -3.92581 0.982958 0
M  V30 10877 H 1071.2 -3.1115 0.300691 0
M  V30 10878 H 1070.42 -2.80702 2.76767 0
M  V30 10879 H 1071.71 -3.93593 3.22431 0
M  V30 10880 H 1071.11 -5.63185 0.532887 0
M  V30 10881 H 1069.67 -6.44152 0.995554 0
M  V30 10882 N 1073.1 -1.28322 -0.914942 0
M  V30 10883 C 1074.35 -1.15179 -1.66067 0
M  V30 10884 C 1074.67 0.300279 -1.92674 0
M  V30 10885 O 1073.94 1.20821 -1.54205 0
M  V30 10886 H 1072.52 -0.423264 -0.615513 0
M  V30 10887 H 1075.18 -1.61034 -1.09791 0
M  V30 10888 H 1074.28 -1.69048 -2.62353 0
M  V30 10889 N 1074.58 1.12322 -1.10551 0
M  V30 10890 C 1075.53 2.20166 -0.750317 0
M  V30 10891 C 1076.52 1.67484 0.254066 0
M  V30 10892 O 1077.73 1.79637 0.114309 0
M  V30 10893 H 1074.1 0.717642 -0.22471 0
M  V30 10894 H 1076.07 2.47378 -1.66873 0
M  V30 10895 C 1074.82 3.47126 -0.199651 0
M  V30 10896 H 1074.14 3.88011 -0.963735 0
M  V30 10897 H 1075.58 4.23999 0.0108033 0
M  V30 10898 C 1074.04 3.19526 1.06792 0
M  V30 10899 O 1074.57 3.39368 2.14923 0
M  V30 10900 N 1072.78 2.73324 0.987032 0
M  V30 10901 H 1072.33 2.57378 0.106997 0
M  V30 10902 H 1072.28 2.55234 1.83584 0
M  V30 10903 N 1076.06 0.894434 1.2976 0
M  V30 10904 C 1077.28 0.5322 2.00455 0
M  V30 10905 C 1077.71 -0.874427 1.66539 0
M  V30 10906 O 1077.06 -1.58113 0.887129 0
M  V30 10907 C 1077.11 0.725264 3.53231 0
M  V30 10908 O 1076.22 -0.224612 4.11788 0
M  V30 10909 H 1075.56 0.208562 0.630395 0
M  V30 10910 H 1078.09 1.20458 1.65382 0
M  V30 10911 H 1078.1 0.627889 4.0314 0
M  V30 10912 H 1076.77 1.75079 3.77253 0
M  V30 10913 H 1075.35 -0.0801361 3.72814 0
M  V30 10914 N 1077.53 -1.43282 0.656365 0
M  V30 10915 C 1078.76 -2.06641 0.177245 0
M  V30 10916 C 1079.18 -1.48893 -1.14946 0
M  V30 10917 O 1078.54 -0.600099 -1.7108 0
M  V30 10918 C 1078.59 -3.60453 0.10299 0
M  V30 10919 O 1077.69 -4.01687 -0.933895 0
M  V30 10920 H 1077.04 -0.656978 0.096314 0
M  V30 10921 H 1079.57 -1.83733 0.900178 0
M  V30 10922 H 1079.58 -4.07923 -0.079291 0
M  V30 10923 H 1078.25 -4.01861 1.07147 0
M  V30 10924 H 1076.83 -3.65801 -0.724148 0
M  V30 10925 N 1079.01 -0.398486 -1.52479 0
M  V30 10926 C 1080.26 0.182046 -2.00877 0
M  V30 10927 C 1080.58 1.47128 -1.2889 0
M  V30 10928 O 1081.78 2.13242 -1.68048 0
M  V30 10929 C 1080.24 0.374978 -3.57941 0
M  V30 10930 C 1079.85 -0.901544 -4.38835 0
M  V30 10931 C 1081.59 0.911378 -4.14601 0
M  V30 10932 C 1079.5 -0.676385 -5.87519 0
M  V30 10933 H 1078.43 0.0718068 -0.750573 0
M  V30 10934 H 1081.08 -0.522297 -1.7591 0
M  V30 10935 H 1079.46 1.14139 -3.79194 0
M  V30 10936 H 1080.63 -1.67329 -4.29346 0
M  V30 10937 H 1078.95 -1.36357 -3.93441 0
M  V30 10938 H 1081.55 1.09569 -5.23353 0
M  V30 10939 H 1081.89 1.88306 -3.71277 0
M  V30 10940 H 1082.42 0.204296 -3.97275 0
M  V30 10941 H 1079.16 -1.61933 -6.35184 0
M  V30 10942 H 1078.68 0.0562542 -5.99774 0
M  V30 10943 H 1080.36 -0.314454 -6.46235 0
M  V30 10944 N 1080.49 1.57075 -0.12858 0
M  V30 10945 C 1081.44 2.15816 0.818064 0
M  V30 10946 C 1082.41 1.08581 1.25696 0
M  V30 10947 O 1083.59 1.36535 1.33277 0
M  V30 10948 C 1080.73 2.76943 2.05905 0
M  V30 10949 C 1079.85 3.98514 1.66764 0
M  V30 10950 C 1078.98 4.47698 2.85902 0
M  V30 10951 C 1078.02 5.61778 2.43047 0
M  V30 10952 N 1077.16 6.05662 3.5513 0
M  V30 10953 H 1082 2.9638 0.310318 0
M  V30 10954 H 1079.53 1.46418 0.141472 0
M  V30 10955 H 1081.49 3.10519 2.78629 0
M  V30 10956 H 1080.12 1.99053 2.54122 0
M  V30 10957 H 1079.17 3.71038 0.838766 0
M  V30 10958 H 1080.49 4.81215 1.31277 0
M  V30 10959 H 1079.64 4.83233 3.66839 0
M  V30 10960 H 1078.38 3.63967 3.24622 0
M  V30 10961 H 1077.38 5.25838 1.60544 0
M  V30 10962 H 1078.61 6.47282 2.05433 0
M  V30 10963 H 1076.56 5.2487 3.93506 0
M  V30 10964 H 1076.47 6.83242 3.23598 0
M  V30 10965 H 1077.74 6.45838 4.36479 0
M  V30 10966 N 1081.97 -0.145205 1.5693 0
M  V30 10967 C 1082.9 -1.18096 2.01434 0
M  V30 10968 C 1083.88 -1.447 0.894204 0
M  V30 10969 O 1085.07 -1.55589 1.16214 0
M  V30 10970 C 1082.2 -2.51369 2.39647 0
M  V30 10971 C 1081.15 -2.39283 3.54863 0
M  V30 10972 C 1080.48 -3.77283 3.78895 0
M  V30 10973 C 1081.78 -1.8754 4.87469 0
M  V30 10974 H 1083.47 -0.810897 2.8821 0
M  V30 10975 H 1081.02 -0.388624 1.38657 0
M  V30 10976 H 1082.97 -3.24054 2.69382 0
M  V30 10977 H 1081.69 -2.90214 1.49811 0
M  V30 10978 H 1080.35 -1.6905 3.25296 0
M  V30 10979 H 1080 -4.13567 2.86307 0
M  V30 10980 H 1079.7 -3.70057 4.56433 0
M  V30 10981 H 1081.22 -4.51514 4.11057 0
M  V30 10982 H 1082.64 -2.50019 5.1591 0
M  V30 10983 H 1081.03 -1.912 5.68826 0
M  V30 10984 H 1082.1 -0.831194 4.77723 0
M  V30 10985 N 1083.45 -1.52049 -0.414609 0
M  V30 10986 C 1084.36 -1.7788 -1.52958 0
M  V30 10987 C 1085.37 -0.66408 -1.60829 0
M  V30 10988 O 1086.55 -0.948882 -1.77646 0
M  V30 10989 C 1083.61 -1.91906 -2.88744 0
M  V30 10990 C 1082.68 -3.15803 -2.90804 0
M  V30 10991 C 1081.91 -3.29151 -4.20114 0
M  V30 10992 O 1082.13 -2.47892 -5.13718 0
M  V30 10993 O 1081.07 -4.2227 -4.28919 0
M  V30 10994 H 1084.89 -2.72506 -1.34067 0
M  V30 10995 H 1082.48 -1.36826 -0.599918 0
M  V30 10996 H 1084.36 -2.02986 -3.6929 0
M  V30 10997 H 1083.03 -1.00468 -3.07714 0
M  V30 10998 H 1081.94 -3.10185 -2.09131 0
M  V30 10999 H 1083.27 -4.07004 -2.76783 0
M  V30 11000 N 1084.93 0.6715 -1.42579 0
M  V30 11001 C 1085.86 1.79693 -1.49107 0
M  V30 11002 C 1086.84 1.66516 -0.347338 0
M  V30 11003 O 1088.02 1.85887 -0.562094 0
M  V30 11004 C 1085.15 3.1801 -1.39596 0
M  V30 11005 C 1084.11 3.45926 -2.5203 0
M  V30 11006 C 1083.43 4.83852 -2.27577 0
M  V30 11007 C 1084.73 3.4249 -3.94333 0
M  V30 11008 H 1086.43 1.74486 -2.433 0
M  V30 11009 H 1083.97 0.838042 -1.17102 0
M  V30 11010 H 1085.92 3.96478 -1.42771 0
M  V30 11011 H 1084.65 3.23901 -0.418989 0
M  V30 11012 H 1083.31 2.6982 -2.48178 0
M  V30 11013 H 1082.96 4.86398 -1.28165 0
M  V30 11014 H 1082.66 5.03493 -3.02934 0
M  V30 11015 H 1084.18 5.646 -2.32506 0
M  V30 11016 H 1085.59 4.10922 -3.9977 0
M  V30 11017 H 1083.99 3.73666 -4.69568 0
M  V30 11018 H 1085.06 2.41002 -4.20768 0
M  V30 11019 N 1086.4 1.28806 0.908124 0
M  V30 11020 C 1087.68 1.06981 1.63751 0
M  V30 11021 C 1088.06 -0.388936 2.07486 0
M  V30 11022 O 1087.41 -1.37611 1.82415 0
M  V30 11023 C 1087.62 2.04962 2.82474 0
M  V30 11024 C 1088.97 2.35418 3.5336 0
M  V30 11025 O 1089.99 2.03091 2.92631 0
M  V30 11026 O 1088.85 2.90617 4.62822 0
M  V30 11027 H 1085.94 0.409267 0.71863 0
M  V30 11028 H 1088.49 1.40146 0.956934 0
M  V30 11029 H 1087.26 3.03254 2.47291 0
M  V30 11030 H 1086.88 1.72476 3.58242 0
M  V30 11031 N 1087.88 -1.11734 1.11145 0
M  V30 11032 C 1088.84 -2.15868 0.770303 0
M  V30 11033 C 1089.84 -1.59438 -0.208842 0
M  V30 11034 O 1091.03 -1.74193 0.0152516 0
M  V30 11035 C 1088.17 -3.40603 0.142303 0
M  V30 11036 H 1089.36 -2.4756 1.69276 0
M  V30 11037 H 1086.91 -1.26867 0.912929 0
M  V30 11038 H 1087.65 -3.14517 -0.790526 0
M  V30 11039 H 1087.43 -3.8284 0.847087 0
M  V30 11040 H 1088.92 -4.17523 -0.0803608 0
M  V30 11041 N 1089.36 -0.901303 -1.29284 0
M  V30 11042 C 1090.58 -0.542823 -2.0017 0
M  V30 11043 C 1091.01 0.865583 -1.67001 0
M  V30 11044 O 1090.37 1.5764 -0.895502 0
M  V30 11045 C 1090.42 -0.743987 -3.52842 0
M  V30 11046 O 1089.52 0.202771 -4.11901 0
M  V30 11047 H 1088.86 -0.211903 -0.62928 0
M  V30 11048 H 1091.39 -1.21333 -1.64741 0
M  V30 11049 H 1091.4 -0.64926 -4.02801 0
M  V30 11050 H 1090.08 -1.77077 -3.7632 0
M  V30 11051 H 1088.65 0.0603637 -3.72851 0
M  V30 11052 N 1090.84 1.42931 -0.663954 0
M  V30 11053 C 1091.78 2.3079 0.0210764 0
M  V30 11054 C 1092.75 1.45356 0.803796 0
M  V30 11055 O 1093.94 1.74207 0.778237 0
M  V30 11056 C 1091.08 3.31069 0.974023 0
M  V30 11057 C 1090.19 4.31598 0.186273 0
M  V30 11058 C 1089.33 5.18955 1.13399 0
M  V30 11059 C 1088.37 6.1117 0.337292 0
M  V30 11060 N 1087.5 6.91114 1.23715 0
M  V30 11061 H 1092.34 2.88819 -0.733995 0
M  V30 11062 H 1089.88 1.42274 -0.373711 0
M  V30 11063 H 1091.84 3.87727 1.54024 0
M  V30 11064 H 1090.47 2.74665 1.69585 0
M  V30 11065 H 1089.52 3.77147 -0.496402 0
M  V30 11066 H 1090.83 4.96919 -0.432753 0
M  V30 11067 H 1089.99 5.80292 1.77049 0
M  V30 11068 H 1088.73 4.53785 1.78691 0
M  V30 11069 H 1087.73 5.48911 -0.312492 0
M  V30 11070 H 1088.96 6.78386 -0.31138 0
M  V30 11071 H 1086.9 6.28583 1.87668 0
M  V30 11072 H 1086.82 7.52999 0.672946 0
M  V30 11073 H 1088.09 7.56948 1.86146 0
M  V30 11074 N 1092.32 0.406567 1.52266 0
M  V30 11075 C 1093.26 -0.420182 2.26943 0
M  V30 11076 C 1094.23 -1.04323 1.29251 0
M  V30 11077 O 1095.42 -1.06799 1.5811 0
M  V30 11078 C 1092.56 -1.5323 3.09216 0
M  V30 11079 C 1091.67 -0.930419 4.21862 0
M  V30 11080 C 1090.81 -2.01502 4.91498 0
M  V30 11081 C 1089.84 -1.38994 5.9611 0
M  V30 11082 N 1088.98 -2.41458 6.59274 0
M  V30 11083 H 1093.82 0.223066 2.97164 0
M  V30 11084 H 1091.36 0.121842 1.46595 0
M  V30 11085 H 1093.32 -2.18803 3.5522 0
M  V30 11086 H 1091.95 -2.14561 2.41171 0
M  V30 11087 H 1091 -0.163809 3.80047 0
M  V30 11088 H 1092.31 -0.433785 4.9691 0
M  V30 11089 H 1091.46 -2.74807 5.40894 0
M  V30 11090 H 1090.2 -2.5453 4.16012 0
M  V30 11091 H 1089.21 -0.642213 5.46036 0
M  V30 11092 H 1090.43 -0.867386 6.73538 0
M  V30 11093 H 1088.38 -2.93623 5.86619 0
M  V30 11094 H 1088.3 -1.96599 7.2999 0
M  V30 11095 H 1089.56 -3.14341 7.13309 0
M  V30 11096 N 1093.79 -1.57004 0.136909 0
M  V30 11097 C 1094.74 -2.16246 -0.806607 0
M  V30 11098 C 1095.71 -1.09246 -1.25118 0
M  V30 11099 O 1096.9 -1.3724 -1.32551 0
M  V30 11100 C 1094.04 -2.78031 -2.04433 0
M  V30 11101 C 1093.15 -3.99393 -1.64649 0
M  V30 11102 C 1092.28 -4.49208 -2.83524 0
M  V30 11103 C 1091.32 -5.63059 -2.40064 0
M  V30 11104 N 1090.46 -6.07537 -3.51913 0
M  V30 11105 H 1095.3 -2.9654 -0.294596 0
M  V30 11106 H 1092.84 -1.46491 -0.133705 0
M  V30 11107 H 1094.8 -3.11992 -2.76978 0
M  V30 11108 H 1093.43 -2.00398 -2.53062 0
M  V30 11109 H 1092.48 -3.71477 -0.819077 0
M  V30 11110 H 1093.79 -4.81904 -1.28723 0
M  V30 11111 H 1092.94 -4.85171 -3.64271 0
M  V30 11112 H 1091.68 -3.65683 -3.22688 0
M  V30 11113 H 1090.69 -5.26682 -1.57754 0
M  V30 11114 H 1091.91 -6.48362 -2.01997 0
M  V30 11115 H 1089.86 -5.2695 -3.90717 0
M  V30 11116 H 1089.78 -6.84949 -3.1997 0
M  V30 11117 H 1091.04 -6.48143 -4.33048 0
M  V30 11118 N 1095.27 0.136881 -1.57004 0
M  V30 11119 C 1096.18 1.18793 -2.023 0
M  V30 11120 C 1097.2 1.46412 -0.94018 0
M  V30 11121 O 1098.37 1.57883 -1.2504 0
M  V30 11122 C 1095.44 2.49903 -2.40311 0
M  V30 11123 C 1094.5 2.29841 -3.6259 0
M  V30 11124 C 1093.73 3.54699 -3.98779 0
M  V30 11125 O 1093.96 4.61291 -3.3551 0
M  V30 11126 O 1092.89 3.46761 -4.91976 0
M  V30 11127 H 1096.72 0.833345 -2.92043 0
M  V30 11128 H 1094.3 0.346361 -1.4533 0
M  V30 11129 H 1096.18 3.27183 -2.65574 0
M  V30 11130 H 1094.86 2.84872 -1.5372 0
M  V30 11131 H 1093.77 1.50478 -3.42501 0
M  V30 11132 H 1095.1 1.99784 -4.4983 0
M  V30 11133 N 1096.75 1.52266 0.40654 0
M  V30 11134 C 1097.98 1.70598 1.17945 0
M  V30 11135 C 1098.4 0.415793 1.83447 0
M  V30 11136 O 1097.76 -0.626968 1.70114 0
M  V30 11137 C 1097.81 2.84449 2.21633 0
M  V30 11138 O 1096.91 2.50199 3.27833 0
M  V30 11139 H 1096.25 0.567837 0.344177 0
M  V30 11140 H 1098.78 1.98981 0.476211 0
M  V30 11141 H 1098.79 3.09436 2.65919 0
M  V30 11142 H 1097.47 3.78055 1.73341 0
M  V30 11143 H 1096.04 2.35892 2.88807 0
M  V30 11144 N 1098.23 -0.663929 1.42933 0
M  V30 11145 C 1099.18 -1.77717 1.47259 0
M  V30 11146 C 1100.15 -1.62922 0.323387 0
M  V30 11147 O 1101.33 -1.83319 0.529021 0
M  V30 11148 C 1098.47 -3.15814 1.39124 0
M  V30 11149 C 1097.58 -3.4182 2.64165 0
M  V30 11150 C 1096.72 -4.69705 2.48094 0
M  V30 11151 C 1095.76 -4.88781 3.68456 0
M  V30 11152 N 1094.89 -6.07915 3.51261 0
M  V30 11153 H 1099.73 -1.73355 2.42388 0
M  V30 11154 H 1097.27 -0.846121 1.2033 0
M  V30 11155 H 1099.23 -3.95633 1.32403 0
M  V30 11156 H 1097.86 -3.19274 0.475829 0
M  V30 11157 H 1096.91 -2.56176 2.81208 0
M  V30 11158 H 1098.22 -3.51805 3.53602 0
M  V30 11159 H 1097.38 -5.57632 2.39021 0
M  V30 11160 H 1096.12 -4.62022 1.56164 0
M  V30 11161 H 1095.12 -3.99292 3.7795 0
M  V30 11162 H 1096.35 -4.98301 4.61381 0
M  V30 11163 H 1094.29 -6.01384 2.62057 0
M  V30 11164 H 1094.21 -6.1881 4.34293 0
M  V30 11165 H 1095.48 -6.98492 3.4602 0
M  V30 11166 N 1099.71 -1.29285 -0.901281 0
M  V30 11167 C 1100.98 -1.07847 -1.63182 0
M  V30 11168 C 1101.36 0.377927 -2.07689 0
M  V30 11169 O 1100.71 1.36642 -1.83143 0
M  V30 11170 C 1100.92 -2.06457 -2.81383 0
M  V30 11171 C 1102.27 -2.37289 -3.52107 0
M  V30 11172 O 1103.29 -2.0464 -2.91549 0
M  V30 11173 O 1102.15 -2.93067 -4.61274 0
M  V30 11174 H 1099.25 -0.413073 -0.71645 0
M  V30 11175 H 1101.79 -1.40651 -0.949488 0
M  V30 11176 H 1100.56 -3.04561 -2.4568 0
M  V30 11177 H 1100.19 -1.74374 -3.57323 0
M  V30 11178 N 1101.18 1.11143 -1.11736 0
M  V30 11179 C 1102.13 2.15396 -0.747566 0
M  V30 11180 C 1103.12 1.58948 0.249894 0
M  V30 11181 O 1104.31 1.7691 0.0565267 0
M  V30 11182 C 1101.44 3.42741 -0.195776 0
M  V30 11183 C 1100.53 4.06141 -1.22109 0
M  V30 11184 N 1100.92 4.44351 -2.41631 0
M  V30 11185 C 1099.21 4.33104 -1.06474 0
M  V30 11186 C 1099.92 4.94062 -3.07046 0
M  V30 11187 N 1098.89 4.90411 -2.34516 0
M  V30 11188 H 1102.69 2.42722 -1.6572 0
M  V30 11189 H 1100.21 1.28189 -0.997059 0
M  V30 11190 H 1102.2 4.16809 0.0872984 0
M  V30 11191 H 1100.86 3.16878 0.708406 0
M  V30 11192 H 1101.88 4.36283 -2.79065 0
M  V30 11193 H 1098.55 4.16934 -0.217246 0
M  V30 11194 H 1099.94 5.33234 -4.08792 0
M  V30 11195 N 1102.66 0.908147 1.28804 0
M  V30 11196 C 1103.59 0.34957 2.26519 0
M  V30 11197 C 1104.61 -0.508845 1.54643 0
M  V30 11198 O 1105.8 -0.324633 1.75523 0
M  V30 11199 C 1102.9 -0.519461 3.34895 0
M  V30 11200 C 1102.07 0.315157 4.36263 0
M  V30 11201 C 1101.13 -0.488059 5.23932 0
M  V30 11202 O 1100.15 0.0974133 5.69117 0
M  V30 11203 N 1101.36 -1.79233 5.52137 0
M  V30 11204 H 1104.12 1.18945 2.75086 0
M  V30 11205 H 1101.68 0.77351 1.42227 0
M  V30 11206 H 1103.67 -1.0634 3.90479 0
M  V30 11207 H 1102.24 -1.26004 2.8608 0
M  V30 11208 H 1101.46 1.04049 3.8022 0
M  V30 11209 H 1102.75 0.886438 5.01019 0
M  V30 11210 H 1102.15 -2.2906 5.1725 0
M  V30 11211 H 1100.71 -2.28322 6.10502 0
M  V30 11212 N 1104.14 -1.42577 0.671525 0
M  V30 11213 C 1105.07 -2.33499 0.00506984 0
M  V30 11214 C 1106.05 -1.50497 -0.792763 0
M  V30 11215 O 1107.24 -1.79109 -0.750574 0
M  V30 11216 C 1104.37 -3.34077 -0.949194 0
M  V30 11217 C 1103.32 -4.27208 -0.260187 0
M  V30 11218 C 1102.65 -5.17968 -1.32716 0
M  V30 11219 C 1103.95 -5.15192 0.858772 0
M  V30 11220 H 1105.64 -2.89477 0.764407 0
M  V30 11221 H 1103.19 -1.39191 0.369043 0
M  V30 11222 H 1105.14 -3.96594 -1.42448 0
M  V30 11223 H 1103.86 -2.76396 -1.73991 0
M  V30 11224 H 1102.52 -3.66082 0.194834 0
M  V30 11225 H 1102.17 -4.56615 -2.10979 0
M  V30 11226 H 1101.87 -5.81104 -0.871293 0
M  V30 11227 H 1103.39 -5.83359 -1.80345 0
M  V30 11228 H 1104.81 -5.71412 0.464844 0
M  V30 11229 H 1103.21 -5.87144 1.24023 0
M  V30 11230 H 1104.28 -4.53787 1.70895 0
M  V30 11231 N 1105.62 -0.414636 -1.52048 0
M  V30 11232 C 1106.55 0.399119 -2.30064 0
M  V30 11233 C 1107.53 1.04126 -1.34506 0
M  V30 11234 O 1108.71 1.04923 -1.63416 0
M  V30 11235 C 1105.84 1.51305 -3.12608 0
M  V30 11236 C 1104.8 0.995621 -4.16259 0
M  V30 11237 C 1104.12 2.20357 -4.87183 0
M  V30 11238 C 1105.42 0.0458178 -5.2228 0
M  V30 11239 H 1107.12 -0.251879 -2.98339 0
M  V30 11240 H 1104.66 -0.122579 -1.43477 0
M  V30 11241 H 1106.62 2.08936 -3.65956 0
M  V30 11242 H 1105.34 2.19201 -2.42113 0
M  V30 11243 H 1104 0.441676 -3.6393 0
M  V30 11244 H 1103.65 2.8682 -4.13211 0
M  V30 11245 H 1103.35 1.86385 -5.57256 0
M  V30 11246 H 1104.87 2.78584 -5.43345 0
M  V30 11247 H 1106.29 0.531102 -5.70835 0
M  V30 11248 H 1104.68 -0.20536 -5.99749 0
M  V30 11249 H 1105.75 -0.897807 -4.76516 0
M  V30 11250 N 1107.1 1.56929 -0.145233 0
M  V30 11251 C 1108.51 1.58196 0.211194 0
M  V30 11252 C 1108.71 1.15941 1.64803 0
M  V30 11253 O 1107.77 0.858888 2.37443 0
M  V30 11254 C 1109.08 3.00665 -0.0459569 0
M  V30 11255 C 1110.63 3.12995 0.0178913 0
M  V30 11256 C 1111.1 4.5751 -0.211905 0
M  V30 11257 N 1112.6 4.62928 -0.158772 0
M  V30 11258 C 1113.33 5.72555 -0.311111 0
M  V30 11259 N 1112.83 6.90838 -0.521074 0
M  V30 11260 N 1114.62 5.61549 -0.248838 0
M  V30 11261 H 1106.77 1.8269 -1.08342 0
M  V30 11262 H 1109.03 0.845514 -0.428731 0
M  V30 11263 H 1108.74 3.35962 -1.0403 0
M  V30 11264 H 1108.61 3.71125 0.674246 0
M  V30 11265 H 1111 2.7754 1.00278 0
M  V30 11266 H 1111.08 2.45025 -0.734612 0
M  V30 11267 H 1110.73 4.93669 -1.19389 0
M  V30 11268 H 1110.66 5.23604 0.560901 0
M  V30 11269 H 1113.15 3.779 -0.00107283 0
M  V30 11270 H 1113.46 7.70248 -0.62747 0
M  V30 11271 H 1111.8 6.92761 -0.557374 0
M  V30 11272 H 1115 4.68022 -0.0855821 0
M  V30 11273 H 1115.17 6.46937 -0.370997 0
M  V30 11274 N 1108.58 -0.128553 1.57075 0
M  V30 11275 C 1109.81 -0.851214 1.8825 0
M  V30 11276 C 1110.21 -1.74402 0.733531 0
M  V30 11277 O 1109.56 -1.81149 -0.305108 0
M  V30 11278 C 1109.62 -1.74451 3.14336 0
M  V30 11279 C 1109.28 -1.02699 4.45311 0
M  V30 11280 C 1110.28 -0.37224 5.18566 0
M  V30 11281 C 1107.96 -1.01101 4.9202 0
M  V30 11282 C 1109.96 0.2889 6.36745 0
M  V30 11283 C 1107.65 -0.346063 6.10119 0
M  V30 11284 C 1108.64 0.302744 6.82329 0
M  V30 11285 O 1108.33 0.9571 7.98182 0
M  V30 11286 H 1108.06 -0.250529 0.627863 0
M  V30 11287 H 1110.62 -0.120418 2.05047 0
M  V30 11288 H 1108.85 -2.51671 2.93596 0
M  V30 11289 H 1110.54 -2.34075 3.31608 0
M  V30 11290 H 1111.3 -0.376271 4.83538 0
M  V30 11291 H 1107.18 -1.50543 4.35727 0
M  V30 11292 H 1110.73 0.795901 6.93045 0
M  V30 11293 H 1106.62 -0.339762 6.44605 0
M  V30 11294 H 1107.39 0.860616 8.13963 0
M  V30 11295 N 1110.05 -1.5248 -0.398459 0
M  V30 11296 C 1110.98 -1.79549 -1.49279 0
M  V30 11297 C 1111.96 -0.647004 -1.57315 0
M  V30 11298 O 1113.15 -0.893661 -1.72416 0
M  V30 11299 C 1110.28 -1.95582 -2.86993 0
M  V30 11300 C 1109.23 -3.1123 -2.93803 0
M  V30 11301 C 1108.56 -3.12501 -4.33874 0
M  V30 11302 C 1109.86 -4.50485 -2.64312 0
M  V30 11303 H 1111.55 -2.71187 -1.26877 0
M  V30 11304 H 1109.1 -1.30492 -0.608924 0
M  V30 11305 H 1111.05 -2.13102 -3.63546 0
M  V30 11306 H 1109.78 -1.00625 -3.10712 0
M  V30 11307 H 1108.44 -2.93477 -2.19697 0
M  V30 11308 H 1108.08 -2.15245 -4.54619 0
M  V30 11309 H 1107.78 -3.90183 -4.39353 0
M  V30 11310 H 1109.31 -3.32164 -5.12347 0
M  V30 11311 H 1110.72 -4.68387 -3.30585 0
M  V30 11312 H 1109.12 -5.30163 -2.81153 0
M  V30 11313 H 1110.19 -4.57848 -1.59696 0
M  V30 11314 N 1111.53 0.65634 -1.43283 0
M  V30 11315 C 1112.46 1.78101 -1.51004 0
M  V30 11316 C 1113.44 1.66138 -0.36498 0
M  V30 11317 O 1114.63 1.85281 -0.581778 0
M  V30 11318 C 1111.76 3.16511 -1.42961 0
M  V30 11319 C 1110.71 3.43233 -2.55685 0
M  V30 11320 C 1110.04 4.81411 -2.32696 0
M  V30 11321 C 1111.34 3.38288 -3.97943 0
M  V30 11322 H 1113.03 1.71896 -2.45137 0
M  V30 11323 H 1110.58 0.825575 -1.17984 0
M  V30 11324 H 1112.53 3.94941 -1.46968 0
M  V30 11325 H 1111.25 3.23439 -0.45332 0
M  V30 11326 H 1109.91 2.67173 -2.51026 0
M  V30 11327 H 1109.56 4.85011 -1.33317 0
M  V30 11328 H 1109.26 5.00251 -3.08257 0
M  V30 11329 H 1110.79 5.62102 -2.38481 0
M  V30 11330 H 1112.2 4.06659 -4.04106 0
M  V30 11331 H 1110.6 3.68664 -4.73505 0
M  V30 11332 H 1111.67 2.36525 -4.23301 0
M  V30 11333 N 1113.01 1.29761 0.894412 0
M  V30 11334 C 1114.29 1.08711 1.62608 0
M  V30 11335 C 1114.67 -0.366907 2.07887 0
M  V30 11336 O 1114.01 -1.35669 1.83865 0
M  V30 11337 C 1114.22 2.07947 2.80284 0
M  V30 11338 C 1115.57 2.39153 3.50843 0
M  V30 11339 O 1116.6 2.06183 2.9046 0
M  V30 11340 O 1115.46 2.95509 4.59713 0
M  V30 11341 H 1112.55 0.416866 0.714249 0
M  V30 11342 H 1115.1 1.41153 0.942015 0
M  V30 11343 H 1113.87 3.05859 2.44061 0
M  V30 11344 H 1113.49 1.76266 3.56393 0
M  V30 11345 N 1114.49 -1.10549 1.12324 0
M  V30 11346 C 1115.43 -2.16858 0.790024 0
M  V30 11347 C 1116.4 -1.64317 -0.242694 0
M  V30 11348 O 1117.59 -1.90438 -0.117531 0
M  V30 11349 C 1114.73 -3.44197 0.249503 0
M  V30 11350 C 1113.84 -4.10696 1.33989 0
M  V30 11351 C 1112.98 -5.25751 0.758932 0
M  V30 11352 C 1112.02 -5.8415 1.82853 0
M  V30 11353 N 1111.15 -6.90585 1.26637 0
M  V30 11354 H 1115.99 -2.44705 1.7007 0
M  V30 11355 H 1113.53 -1.20117 0.849141 0
M  V30 11356 H 1115.49 -4.1712 -0.0819251 0
M  V30 11357 H 1114.12 -3.16705 -0.624332 0
M  V30 11358 H 1113.17 -3.35754 1.78812 0
M  V30 11359 H 1114.48 -4.50144 2.14875 0
M  V30 11360 H 1113.64 -6.05521 0.378104 0
M  V30 11361 H 1112.38 -4.87632 -0.0811405 0
M  V30 11362 H 1111.38 -5.03051 2.21856 0
M  V30 11363 H 1112.61 -6.24333 2.6718 0
M  V30 11364 H 1110.55 -6.54468 0.448105 0
M  V30 11365 H 1110.47 -7.28739 2.01184 0
M  V30 11366 H 1111.74 -7.74138 0.912737 0
M  V30 11367 N 1115.97 -0.914965 -1.28321 0
M  V30 11368 C 1117.24 -0.46764 -1.89928 0
M  V30 11369 C 1117.62 1.05364 -1.82925 0
M  V30 11370 O 1116.97 1.90223 -1.26599 0
M  V30 11371 C 1117.18 -0.999372 -3.34385 0
M  V30 11372 C 1118.53 -1.0522 -4.11356 0
M  V30 11373 O 1119.55 -0.9481 -3.4335 0
M  V30 11374 O 1118.41 -1.21085 -5.32917 0
M  V30 11375 H 1115.51 -0.148398 -0.813577 0
M  V30 11376 H 1118.05 -1.00583 -1.36679 0
M  V30 11377 H 1116.82 -2.04333 -3.33712 0
M  V30 11378 H 1116.45 -0.442083 -3.95135 0
M  V30 11379 N 1117.44 1.42219 -0.679077 0
M  V30 11380 C 1118.35 2.346 -0.00345919 0
M  V30 11381 C 1119.37 1.55327 0.784181 0
M  V30 11382 O 1120.55 1.87878 0.725524 0
M  V30 11383 C 1117.61 3.33905 0.933194 0
M  V30 11384 C 1116.67 4.29073 0.139607 0
M  V30 11385 C 1115.9 5.23634 1.03165 0
M  V30 11386 O 1116.13 5.23234 2.27119 0
M  V30 11387 O 1115.06 5.99901 0.490159 0
M  V30 11388 H 1118.89 2.9392 -0.764525 0
M  V30 11389 H 1116.47 1.42794 -0.439329 0
M  V30 11390 H 1118.35 3.949 1.47077 0
M  V30 11391 H 1117.03 2.77052 1.67404 0
M  V30 11392 H 1115.94 3.71478 -0.442177 0
M  V30 11393 H 1117.27 4.88979 -0.562214 0
M  V30 11394 N 1118.92 0.422693 1.51826 0
M  V30 11395 C 1119.87 -0.396088 2.27376 0
M  V30 11396 C 1120.84 -1.02946 1.30351 0
M  V30 11397 O 1122.02 -1.05116 1.59233 0
M  V30 11398 C 1119.16 -1.49942 3.10824 0
M  V30 11399 C 1118.28 -0.885623 4.22825 0
M  V30 11400 C 1117.41 -1.96278 4.93608 0
M  V30 11401 C 1116.45 -1.32664 5.97551 0
M  V30 11402 N 1115.59 -2.34452 6.61798 0
M  V30 11403 H 1120.43 0.254571 2.96911 0
M  V30 11404 H 1117.96 0.137383 1.46457 0
M  V30 11405 H 1119.92 -2.15023 3.57521 0
M  V30 11406 H 1118.55 -2.11991 2.43433 0
M  V30 11407 H 1117.6 -0.123491 3.80199 0
M  V30 11408 H 1118.92 -0.381057 4.97342 0
M  V30 11409 H 1118.07 -2.69055 5.43778 0
M  V30 11410 H 1116.81 -2.50103 4.18688 0
M  V30 11411 H 1115.81 -0.584262 5.46687 0
M  V30 11412 H 1117.04 -0.7959 6.7442 0
M  V30 11413 H 1114.99 -2.87385 5.897 0
M  V30 11414 H 1114.9 -1.88845 7.32034 0
M  V30 11415 H 1116.17 -3.06757 7.16603 0
M  V30 11416 N 1120.4 -1.5685 0.153553 0
M  V30 11417 C 1121.68 -1.8796 -0.541328 0
M  V30 11418 C 1122.06 -1.06059 -1.82523 0
M  V30 11419 O 1121.4 -0.149295 -2.28012 0
M  V30 11420 C 1121.61 -3.39697 -0.800442 0
M  V30 11421 C 1122.96 -4.09057 -1.13832 0
M  V30 11422 O 1123.99 -3.44913 -0.889578 0
M  V30 11423 O 1122.85 -5.22347 -1.60673 0
M  V30 11424 H 1119.94 -0.779268 -0.276895 0
M  V30 11425 H 1122.49 -1.68626 0.190657 0
M  V30 11426 H 1121.26 -3.91151 0.107935 0
M  V30 11427 H 1120.88 -3.64582 -1.58638 0
M  V30 11428 N 1121.88 0.120221 -1.57141 0
M  V30 11429 C 1122.81 1.14876 -2.03287 0
M  V30 11430 C 1123.79 1.43259 -0.917112 0
M  V30 11431 O 1124.97 1.53721 -1.18674 0
M  V30 11432 C 1122.1 2.47525 -2.43616 0
M  V30 11433 C 1121.06 2.33607 -3.58625 0
M  V30 11434 C 1120.38 3.71207 -3.84849 0
M  V30 11435 C 1121.68 1.79761 -4.90391 0
M  V30 11436 H 1123.38 0.764943 -2.89463 0
M  V30 11437 H 1120.92 0.366516 -1.39258 0
M  V30 11438 H 1122.88 3.19728 -2.74504 0
M  V30 11439 H 1121.6 2.87794 -1.54409 0
M  V30 11440 H 1120.26 1.63853 -3.27945 0
M  V30 11441 H 1119.91 4.0896 -2.9285 0
M  V30 11442 H 1119.61 3.62749 -4.62263 0
M  V30 11443 H 1121.13 4.44917 -4.18188 0
M  V30 11444 H 1122.55 2.4178 -5.19822 0
M  V30 11445 H 1120.94 1.82126 -5.71795 0
M  V30 11446 H 1122.01 0.755087 -4.78985 0
M  V30 11447 N 1123.36 1.52689 0.390367 0
M  V30 11448 C 1124.77 1.41909 0.730338 0
M  V30 11449 C 1124.97 0.538427 1.94173 0
M  V30 11450 O 1124.03 0.0113527 2.52497 0
M  V30 11451 C 1125.34 2.84737 0.966714 0
M  V30 11452 C 1126.89 2.94206 1.06827 0
M  V30 11453 C 1127.36 4.38042 1.33728 0
M  V30 11454 N 1128.86 4.4136 1.40553 0
M  V30 11455 C 1129.59 5.49735 1.63031 0
M  V30 11456 N 1129.09 6.68197 1.82988 0
M  V30 11457 N 1130.88 5.37276 1.65199 0
M  V30 11458 H 1123.03 2.08469 -0.406766 0
M  V30 11459 H 1125.29 0.940401 -0.11979 0
M  V30 11460 H 1125 3.51385 0.148725 0
M  V30 11461 H 1124.87 3.26909 1.88176 0
M  V30 11462 H 1127.26 2.27726 1.87683 0
M  V30 11463 H 1127.34 2.55463 0.131168 0
M  V30 11464 H 1126.99 5.05087 0.533832 0
M  V30 11465 H 1126.92 4.74336 2.28721 0
M  V30 11466 H 1129.41 3.55976 1.26844 0
M  V30 11467 H 1129.72 7.46567 1.99643 0
M  V30 11468 H 1128.06 6.71228 1.80215 0
M  V30 11469 H 1131.26 4.437 1.49158 0
M  V30 11470 H 1131.43 6.21806 1.82377 0
M  V30 11471 N 1124.83 -0.648732 1.43629 0
M  V30 11472 C 1126.06 -1.44117 1.49148 0
M  V30 11473 C 1126.48 -1.87767 0.111952 0
M  V30 11474 O 1125.84 -1.57655 -0.895249 0
M  V30 11475 C 1125.89 -2.64938 2.44623 0
M  V30 11476 O 1124.99 -3.64155 1.93559 0
M  V30 11477 H 1124.34 -0.431933 0.504312 0
M  V30 11478 H 1126.87 -0.793439 1.88589 0
M  V30 11479 H 1126.88 -3.12698 2.62076 0
M  V30 11480 H 1125.55 -2.3251 3.44836 0
M  V30 11481 H 1124.13 -3.23322 1.85789 0
M  V30 11482 N 1126.31 -1.30234 -0.887518 0
M  V30 11483 C 1127.54 -1.21829 -1.67229 0
M  V30 11484 C 1127.96 0.219251 -1.87523 0
M  V30 11485 O 1127.31 1.14526 -1.42091 0
M  V30 11486 C 1127.36 -1.94044 -3.05007 0
M  V30 11487 O 1127.08 -3.32185 -2.85631 0
M  V30 11488 C 1128.59 -1.92265 -3.99436 0
M  V30 11489 H 1125.81 -0.421716 -0.521916 0
M  V30 11490 H 1128.35 -1.71816 -1.10903 0
M  V30 11491 H 1126.5 -1.47861 -3.58072 0
M  V30 11492 H 1126.92 -3.68724 -3.73018 0
M  V30 11493 H 1128.39 -2.47336 -4.93486 0
M  V30 11494 H 1128.87 -0.900984 -4.29859 0
M  V30 11495 H 1129.48 -2.38247 -3.52305 0
M  V30 11496 N 1127.79 1.09952 -1.12909 0
M  V30 11497 C 1129.2 1.63516 -0.901087 0
M  V30 11498 C 1129.55 1.87932 0.563547 0
M  V30 11499 O 1128.68 1.625 1.42908 0
M  V30 11500 C 1129.27 2.97054 -1.62924 0
M  V30 11501 C 1127.83 3.47464 -1.44725 0
M  V30 11502 C 1126.98 2.21979 -1.66194 0
M  V30 11503 H 1129.93 0.933858 -1.28315 0
M  V30 11504 H 1129.95 3.64757 -1.08318 0
M  V30 11505 H 1129.46 2.79251 -2.69519 0
M  V30 11506 H 1127.56 3.70402 -0.40409 0
M  V30 11507 H 1127.68 4.25254 -2.20671 0
M  V30 11508 H 1126.04 2.30368 -1.0864 0
M  V30 11509 H 1126.82 2.06702 -2.74097 0
M  V30 11510 N 1129.27 0.921757 1.27833 0
M  V30 11511 C 1130.22 0.406628 2.29018 0
M  V30 11512 C 1131.21 -0.505914 1.61669 0
M  V30 11513 O 1132.42 -0.386273 1.75807 0
M  V30 11514 H 1128.79 0.112914 0.743475 0
M  V30 11515 H 1130.76 1.27295 2.69886 0
M  V30 11516 C 1129.51 -0.330783 3.46123 0
M  V30 11517 H 1128.83 0.362207 3.98156 0
M  V30 11518 H 1130.27 -0.655738 4.18899 0
M  V30 11519 C 1128.73 -1.54161 2.9956 0
M  V30 11520 O 1129.26 -2.64052 3.0272 0
M  V30 11521 N 1127.47 -1.39137 2.55126 0
M  V30 11522 H 1127.02 -0.497319 2.52754 0
M  V30 11523 H 1126.97 -2.20278 2.24333 0
M  V30 11524 N 1130.75 -1.41857 0.686609 0
M  V30 11525 C 1131.68 -2.33481 0.0298353 0
M  V30 11526 C 1132.66 -1.51329 -0.776756 0
M  V30 11527 O 1133.84 -1.79895 -0.731535 0
M  V30 11528 C 1130.97 -3.35065 -0.913707 0
M  V30 11529 C 1129.93 -4.2746 -0.214861 0
M  V30 11530 C 1129.25 -5.19346 -1.27215 0
M  V30 11531 C 1130.55 -5.14252 0.913367 0
M  V30 11532 H 1132.25 -2.8865 0.795067 0
M  V30 11533 H 1129.79 -1.38792 0.383785 0
M  V30 11534 H 1131.75 -3.98082 -1.38234 0
M  V30 11535 H 1130.47 -2.78226 -1.7105 0
M  V30 11536 H 1129.13 -3.65855 0.233651 0
M  V30 11537 H 1128.78 -4.58827 -2.06124 0
M  V30 11538 H 1128.48 -5.81996 -0.80961 0
M  V30 11539 H 1130 -5.85239 -1.74147 0
M  V30 11540 H 1131.41 -5.70887 0.525424 0
M  V30 11541 H 1129.81 -5.85796 1.30244 0
M  V30 11542 H 1130.88 -4.51949 1.75699 0
M  V30 11543 N 1132.22 -0.430739 -1.51599 0
M  V30 11544 C 1133.45 0.139197 -2.06932 0
M  V30 11545 C 1133.87 1.3626 -1.29672 0
M  V30 11546 O 1133.23 1.78219 -0.332836 0
M  V30 11547 C 1133.28 0.446593 -3.57824 0
M  V30 11548 O 1132.38 1.53414 -3.82803 0
M  V30 11549 H 1131.73 0.00475812 -0.663983 0
M  V30 11550 H 1134.26 -0.610171 -1.9529 0
M  V30 11551 H 1134.27 0.698972 -4.01968 0
M  V30 11552 H 1132.94 -0.447613 -4.13484 0
M  V30 11553 H 1131.52 1.27224 -3.50526 0
M  V30 11554 N 1133.7 1.56767 -0.161869 0
M  V30 11555 C 1134.63 2.20511 0.767918 0
M  V30 11556 C 1135.61 1.15783 1.24612 0
M  V30 11557 O 1136.8 1.44179 1.301 0
M  V30 11558 C 1133.93 2.83844 2.00125 0
M  V30 11559 C 1132.88 3.94528 1.65926 0
M  V30 11560 C 1132.21 4.44866 2.96646 0
M  V30 11561 C 1133.51 5.14583 0.894497 0
M  V30 11562 H 1135.2 2.98464 0.236607 0
M  V30 11563 H 1132.75 1.43561 0.112363 0
M  V30 11564 H 1134.7 3.27109 2.65664 0
M  V30 11565 H 1133.43 2.03246 2.55654 0
M  V30 11566 H 1132.08 3.51904 1.02759 0
M  V30 11567 H 1131.73 3.61071 3.50196 0
M  V30 11568 H 1131.43 5.19531 2.74521 0
M  V30 11569 H 1132.96 4.90812 3.6323 0
M  V30 11570 H 1134.37 5.54601 1.45228 0
M  V30 11571 H 1132.77 5.95105 0.772636 0
M  V30 11572 H 1133.84 4.84773 -0.110986 0
M  V30 11573 N 1135.18 -0.111886 1.57202 0
M  V30 11574 C 1136.46 -0.849125 1.76208 0
M  V30 11575 C 1136.84 -1.97735 0.73919 0
M  V30 11576 O 1136.19 -2.27283 -0.235523 0
M  V30 11577 C 1136.4 -1.35924 3.21443 0
M  V30 11578 C 1137.74 -1.80874 3.84148 0
M  V30 11579 O 1138.77 -1.45587 3.25089 0
M  V30 11580 O 1137.63 -2.46065 4.87969 0
M  V30 11581 H 1134.72 -0.403761 0.721738 0
M  V30 11582 H 1137.27 -0.0950726 1.69433 0
M  V30 11583 H 1136.04 -0.550113 3.87414 0
M  V30 11584 H 1135.66 -2.17579 3.32784 0
M  V30 11585 N 1136.66 -1.52894 -0.382264 0
M  V30 11586 C 1137.94 -1.58853 -1.14127 0
M  V30 11587 C 1138.32 -0.38582 -2.07544 0
M  V30 11588 O 1137.66 0.625323 -2.19777 0
M  V30 11589 C 1137.87 -2.93068 -1.89504 0
M  V30 11590 C 1139.22 -3.47048 -2.44629 0
M  V30 11591 O 1140.25 -2.94987 -1.99652 0
M  V30 11592 O 1139.1 -4.3802 -3.26804 0
M  V30 11593 H 1136.2 -0.640969 -0.522578 0
M  V30 11594 H 1138.74 -1.65231 -0.386873 0
M  V30 11595 H 1137.52 -3.72047 -1.2123 0
M  V30 11596 H 1137.14 -2.90106 -2.7189 0
M  V30 11597 N 1138.14 0.641106 -1.43971 0
M  V30 11598 C 1139.38 1.40291 -1.46445 0
M  V30 11599 C 1139.72 1.93978 -0.0929004 0
M  V30 11600 O 1138.99 1.73043 0.888043 0
M  V30 11601 C 1139.27 2.57551 -2.51673 0
M  V30 11602 C 1139.13 2.09279 -3.98149 0
M  V30 11603 C 1140.45 3.59752 -2.53508 0
M  V30 11604 H 1137.57 0.508771 -0.533218 0
M  V30 11605 H 1140.21 0.725767 -1.75592 0
M  V30 11606 H 1138.36 3.15319 -2.2695 0
M  V30 11607 H 1140.03 1.56418 -4.33971 0
M  V30 11608 H 1138.27 1.40545 -4.10402 0
M  V30 11609 H 1138.94 2.93655 -4.67409 0
M  V30 11610 H 1141.42 3.11766 -2.75574 0
M  V30 11611 H 1140.3 4.39332 -3.29057 0
M  V30 11612 H 1140.56 4.13156 -1.57335 0
M  V30 11613 N 1139.62 1.30703 0.880598 0
M  V30 11614 C 1140.56 1.17455 1.98678 0
M  V30 11615 C 1141.53 0.0629569 1.65981 0
M  V30 11616 O 1142.72 0.233926 1.89361 0
M  V30 11617 C 1139.86 0.876882 3.33774 0
M  V30 11618 C 1138.97 2.07078 3.79134 0
M  V30 11619 C 1138.11 1.71082 5.02896 0
M  V30 11620 C 1137.14 2.86942 5.40676 0
M  V30 11621 N 1136.28 2.51212 6.55619 0
M  V30 11622 H 1141.12 2.12086 2.09341 0
M  V30 11623 H 1138.66 1.05514 1.02495 0
M  V30 11624 H 1140.62 0.684899 4.1154 0
M  V30 11625 H 1139.25 -0.0325633 3.22784 0
M  V30 11626 H 1138.3 2.37388 2.97239 0
M  V30 11627 H 1139.61 2.9383 4.0307 0
M  V30 11628 H 1138.76 1.48284 5.883 0
M  V30 11629 H 1137.5 0.815064 4.80841 0
M  V30 11630 H 1136.51 3.10401 4.53797 0
M  V30 11631 H 1137.73 3.77211 5.64703 0
M  V30 11632 H 1135.68 1.64147 6.35131 0
M  V30 11633 H 1135.6 3.31495 6.79446 0
M  V30 11634 H 1136.86 2.31781 7.44243 0
M  V30 11635 N 1141.09 -1.09351 1.1349 0
M  V30 11636 C 1142.34 -1.81812 0.898452 0
M  V30 11637 C 1142.67 -1.85525 -0.573959 0
M  V30 11638 O 1141.95 -1.32403 -1.42477 0
M  V30 11639 C 1142.23 -3.27921 1.48794 0
M  V30 11640 C 1142.08 -3.32476 3.02952 0
M  V30 11641 C 1143.4 -4.24625 1.15678 0
M  V30 11642 H 1140.52 -0.660074 0.327829 0
M  V30 11643 H 1143.16 -1.28091 1.40331 0
M  V30 11644 H 1141.31 -3.738 1.05858 0
M  V30 11645 H 1142.99 -2.94994 3.54649 0
M  V30 11646 H 1141.23 -2.72037 3.37903 0
M  V30 11647 H 1141.9 -4.35409 3.39298 0
M  V30 11648 H 1144.38 -3.87036 1.52781 0
M  V30 11649 H 1143.25 -5.25194 1.59571 0
M  V30 11650 H 1143.51 -4.42044 0.0705933 0
M  V30 11651 N 1142.57 -0.928524 -1.27343 0
M  V30 11652 C 1143.52 -0.426873 -2.26818 0
M  V30 11653 C 1144.49 0.506663 -1.58184 0
M  V30 11654 O 1145.67 0.425641 -1.85992 0
M  V30 11655 C 1142.81 0.313523 -3.43673 0
M  V30 11656 C 1141.93 -0.65422 -4.27018 0
M  V30 11657 C 1141.06 0.106102 -5.31094 0
M  V30 11658 C 1140.1 -0.854293 -6.06109 0
M  V30 11659 N 1139.24 -0.126545 -7.01986 0
M  V30 11660 H 1144.08 -1.28014 -2.69103 0
M  V30 11661 H 1141.61 -0.642515 -1.32326 0
M  V30 11662 H 1143.57 0.75912 -4.10236 0
M  V30 11663 H 1142.2 1.13102 -3.02337 0
M  V30 11664 H 1141.25 -1.21834 -3.60362 0
M  V30 11665 H 1142.57 -1.38817 -4.79094 0
M  V30 11666 H 1141.72 0.611577 -6.0361 0
M  V30 11667 H 1140.46 0.873009 -4.79823 0
M  V30 11668 H 1139.46 -1.37101 -5.32432 0
M  V30 11669 H 1140.69 -1.621 -6.5947 0
M  V30 11670 H 1138.64 0.622102 -6.53044 0
M  V30 11671 H 1138.55 -0.800046 -7.51755 0
M  V30 11672 H 1139.82 0.358251 -7.78676 0
M  V30 11673 N 1144.05 1.41491 -0.694123 0
M  V30 11674 C 1145.3 2.0155 -0.224809 0
M  V30 11675 C 1145.63 1.54844 1.17205 0
M  V30 11676 O 1144.9 0.75899 1.7908 0
M  V30 11677 C 1145.19 3.59003 -0.280884 0
M  V30 11678 C 1145.04 4.15839 -1.71458 0
M  V30 11679 C 1146.36 4.38624 0.360122 0
M  V30 11680 H 1143.48 0.732293 -0.0831632 0
M  V30 11681 H 1146.12 1.68258 -0.882569 0
M  V30 11682 H 1144.27 3.87496 0.279164 0
M  V30 11683 H 1145.94 3.98227 -2.32837 0
M  V30 11684 H 1144.18 3.70936 -2.2492 0
M  V30 11685 H 1144.86 5.24997 -1.70536 0
M  V30 11686 H 1147.33 4.15936 -0.11683 0
M  V30 11687 H 1146.21 5.48132 0.290337 0
M  V30 11688 H 1146.47 4.1797 1.44062 0
M  V30 11689 N 1145.53 0.438773 1.51369 0
M  V30 11690 C 1146.44 -0.378074 2.31534 0
M  V30 11691 C 1147.45 -1.02632 1.40508 0
M  V30 11692 O 1148.63 -1.02138 1.73579 0
M  V30 11693 C 1145.69 -1.46374 3.14286 0
M  V30 11694 C 1144.76 -0.835473 4.21092 0
M  V30 11695 C 1143.99 -1.86941 4.99889 0
M  V30 11696 O 1144.21 -3.0918 4.79337 0
M  V30 11697 O 1143.15 -1.45914 5.83946 0
M  V30 11698 H 1146.97 0.276401 3.0244 0
M  V30 11699 H 1144.56 0.201281 1.48038 0
M  V30 11700 H 1146.44 -2.09335 3.65728 0
M  V30 11701 H 1145.11 -2.10227 2.46143 0
M  V30 11702 H 1144.02 -0.167775 3.73724 0
M  V30 11703 H 1145.35 -0.240406 4.91613 0
M  V30 11704 N 1147.01 -1.56678 0.170181 0
M  V30 11705 C 1147.95 -2.17909 -0.760556 0
M  V30 11706 C 1148.92 -1.11875 -1.22773 0
M  V30 11707 O 1150.11 -1.40021 -1.2961 0
M  V30 11708 C 1147.25 -2.82305 -1.9849 0
M  V30 11709 C 1146.36 -4.02796 -1.5614 0
M  V30 11710 C 1145.5 -4.55121 -2.73932 0
M  V30 11711 C 1144.53 -5.68025 -2.28067 0
M  V30 11712 N 1143.67 -6.14865 -3.38947 0
M  V30 11713 H 1148.51 -2.97098 -0.231629 0
M  V30 11714 H 1146.05 -1.46742 -0.102602 0
M  V30 11715 H 1148.01 -3.17797 -2.70298 0
M  V30 11716 H 1146.64 -2.05721 -2.48755 0
M  V30 11717 H 1145.69 -3.73131 -0.740097 0
M  V30 11718 H 1147 -4.84526 -1.18472 0
M  V30 11719 H 1146.15 -4.92789 -3.53898 0
M  V30 11720 H 1144.89 -3.72445 -3.14858 0
M  V30 11721 H 1143.9 -5.2991 -1.46546 0
M  V30 11722 H 1145.12 -6.52501 -1.88199 0
M  V30 11723 H 1143.07 -5.35119 -3.79452 0
M  V30 11724 H 1142.99 -6.91582 -3.05369 0
M  V30 11725 H 1144.25 -6.57183 -4.19203 0
M  V30 11726 N 1148.48 0.103547 -1.57259 0
M  V30 11727 C 1149.43 1.12621 -2.01458 0
M  V30 11728 C 1150.4 1.40282 -0.889391 0
M  V30 11729 O 1151.59 1.51887 -1.15477 0
M  V30 11730 C 1148.73 2.44352 -2.43692 0
M  V30 11731 C 1147.84 2.23495 -3.69695 0
M  V30 11732 C 1146.97 3.48565 -4.00844 0
M  V30 11733 C 1146.01 3.22932 -5.19982 0
M  V30 11734 N 1145.15 4.40246 -5.46926 0
M  V30 11735 H 1149.99 0.742315 -2.88606 0
M  V30 11736 H 1147.53 0.355016 -1.42752 0
M  V30 11737 H 1149.48 3.2122 -2.66221 0
M  V30 11738 H 1148.11 2.80605 -1.59565 0
M  V30 11739 H 1147.17 1.3747 -3.54692 0
M  V30 11740 H 1148.48 2.0054 -4.56711 0
M  V30 11741 H 1147.63 4.33844 -4.24104 0
M  V30 11742 H 1146.37 3.74565 -3.12333 0
M  V30 11743 H 1145.38 2.36045 -4.96551 0
M  V30 11744 H 1146.6 2.98286 -6.10084 0
M  V30 11745 H 1144.55 4.66338 -4.61373 0
M  V30 11746 H 1144.46 4.20452 -6.28296 0
M  V30 11747 H 1145.73 5.26614 -5.74716 0
M  V30 11748 N 1149.96 1.53094 0.37415 0
M  V30 11749 C 1150.87 1.81872 1.48188 0
M  V30 11750 C 1151.89 0.706487 1.59012 0
M  V30 11751 O 1153.06 0.995648 1.75068 0
M  V30 11752 C 1150.13 1.99494 2.83554 0
M  V30 11753 C 1149.19 3.23402 2.82329 0
M  V30 11754 C 1148.42 3.40174 4.11239 0
M  V30 11755 O 1148.65 2.61425 5.06965 0
M  V30 11756 O 1147.58 4.33493 4.17573 0
M  V30 11757 H 1151.41 2.75965 1.26795 0
M  V30 11758 H 1148.99 1.38368 0.56343 0
M  V30 11759 H 1150.87 2.12705 3.63778 0
M  V30 11760 H 1149.55 1.08591 3.04942 0
M  V30 11761 H 1148.45 3.15621 2.00834 0
M  V30 11762 H 1149.79 4.14199 2.65894 0
M  V30 11763 N 1151.44 -0.633461 1.44309 0
M  V30 11764 C 1152.37 -1.75868 1.4698 0
M  V30 11765 C 1153.38 -1.58691 0.363469 0
M  V30 11766 O 1154.57 -1.67048 0.629075 0
M  V30 11767 C 1151.67 -3.1356 1.28582 0
M  V30 11768 C 1150.85 -3.57217 2.52418 0
M  V30 11769 C 1149.91 -4.73779 2.28954 0
M  V30 11770 O 1148.93 -4.8221 3.02428 0
M  V30 11771 N 1150.13 -5.65324 1.31866 0
M  V30 11772 H 1152.9 -1.74048 2.43983 0
M  V30 11773 H 1150.46 -0.817952 1.39718 0
M  V30 11774 H 1152.45 -3.89255 1.10736 0
M  V30 11775 H 1151.02 -3.10036 0.399529 0
M  V30 11776 H 1150.24 -2.71755 2.85557 0
M  V30 11777 H 1151.53 -3.83136 3.3479 0
M  V30 11778 H 1150.93 -5.61204 0.71179 0
M  V30 11779 H 1149.48 -6.40659 1.19998 0
M  V30 11780 N 1152.92 -1.31168 -0.873655 0
M  V30 11781 C 1153.85 -1.12836 -1.98351 0
M  V30 11782 C 1154.83 -0.0328679 -1.62567 0
M  V30 11783 O 1156.01 -0.18859 -1.87554 0
M  V30 11784 C 1153.14 -0.72332 -3.30886 0
M  V30 11785 C 1152.19 -1.82132 -3.85656 0
M  V30 11786 S 1153.02 -3.42604 -4.11562 0
M  V30 11787 C 1154.18 -3.04028 -5.471 0
M  V30 11788 H 1154.41 -2.06793 -2.13597 0
M  V30 11789 H 1151.94 -1.15611 -1.0234 0
M  V30 11790 H 1153.9 -0.496371 -4.07488 0
M  V30 11791 H 1152.56 0.197077 -3.13481 0
M  V30 11792 H 1151.75 -1.49046 -4.81458 0
M  V30 11793 H 1151.36 -2.00314 -3.15833 0
M  V30 11794 H 1153.65 -2.52692 -6.28612 0
M  V30 11795 H 1154.59 -3.9878 -5.85133 0
M  V30 11796 H 1155 -2.41574 -5.10198 0
M  V30 11797 N 1154.4 1.08748 -1.14068 0
M  V30 11798 C 1155.67 1.7769 -0.81766 0
M  V30 11799 C 1156.05 1.99522 0.689501 0
M  V30 11800 O 1155.4 1.60222 1.62914 0
M  V30 11801 C 1155.61 3.09517 -1.61245 0
M  V30 11802 C 1156.96 3.84108 -1.80958 0
M  V30 11803 O 1157.98 3.19289 -1.57902 0
M  V30 11804 O 1156.84 5.00491 -2.19479 0
M  V30 11805 H 1153.94 0.770953 -0.299265 0
M  V30 11806 H 1156.48 1.15242 -1.24569 0
M  V30 11807 H 1155.25 2.89155 -2.63638 0
M  V30 11808 H 1154.88 3.79692 -1.17982 0
M  V30 11809 N 1155.87 0.935264 1.26849 0
M  V30 11810 C 1157.29 0.623198 1.75992 0
M  V30 11811 C 1157.64 -0.861647 1.76267 0
M  V30 11812 O 1156.76 -1.6743 1.37099 0
M  V30 11813 C 1157.36 1.12451 3.19594 0
M  V30 11814 C 1155.92 0.862974 3.66374 0
M  V30 11815 C 1155.06 1.27886 2.4605 0
M  V30 11816 H 1158.01 1.11422 1.13008 0
M  V30 11817 H 1158.03 0.475626 3.77516 0
M  V30 11818 H 1157.55 2.20522 3.19361 0
M  V30 11819 H 1155.65 -0.203606 3.72043 0
M  V30 11820 H 1155.76 1.48582 4.55478 0
M  V30 11821 H 1154.12 0.697335 2.44968 0
M  V30 11822 H 1154.91 2.36837 2.48522 0
M  V30 11823 N 1157.35 -1.41121 0.701616 0
M  V30 11824 C 1158.59 -2.02993 0.239383 0
M  V30 11825 C 1158.96 -1.5439 -1.1414 0
M  V30 11826 O 1160.16 -2.08229 -1.69982 0
M  V30 11827 C 1158.43 -3.56128 0.301232 0
M  V30 11828 S 1159.99 -4.38716 -0.0860681 0
M  V30 11829 H 1156.81 -0.704494 0.0959645 0
M  V30 11830 H 1159.41 -1.72461 0.920736 0
M  V30 11831 H 1158.11 -3.88996 1.30805 0
M  V30 11832 H 1157.64 -3.91371 -0.399069 0
M  V30 11833 H 1159.66 -4.78537 -1.31212 0
M  V30 11834 N 1158.83 -0.446794 -1.51134 0
M  V30 11835 C 1159.78 0.374154 -2.29571 0
M  V30 11836 C 1160.77 1.01241 -1.35818 0
M  V30 11837 O 1161.98 0.946293 -1.53119 0
M  V30 11838 H 1158.35 0.13948 -0.738951 0
M  V30 11839 H 1160.32 -0.308117 -2.96805 0
M  V30 11840 C 1159.07 1.45754 -3.15675 0
M  V30 11841 H 1158.4 0.975787 -3.87709 0
M  V30 11842 H 1159.84 2.00502 -3.73597 0
M  V30 11843 C 1158.3 2.44606 -2.31667 0
M  V30 11844 O 1158.83 3.49352 -1.98284 0
M  V30 11845 N 1157.03 2.15725 -1.94708 0
M  V30 11846 H 1156.58 1.30572 -2.22056 0
M  V30 11847 H 1156.54 2.82103 -1.38798 0
M  V30 11848 N 1160.31 1.56586 -0.178487 0
M  V30 11849 C 1161.54 2.01475 0.470684 0
M  V30 11850 C 1161.95 1.0587 1.56323 0
M  V30 11851 O 1161.31 0.060749 1.82399 0
M  V30 11852 C 1161.36 3.46145 1.04238 0
M  V30 11853 O 1161.08 4.381 -0.0065582 0
M  V30 11854 C 1162.58 4.06471 1.76908 0
M  V30 11855 H 1159.8 0.660219 0.119801 0
M  V30 11856 H 1162.35 2.02542 -0.282322 0
M  V30 11857 H 1160.5 3.45831 1.74585 0
M  V30 11858 H 1160.91 5.22843 0.416554 0
M  V30 11859 H 1162.39 5.096 2.12161 0
M  V30 11860 H 1162.87 3.48974 2.66672 0
M  V30 11861 H 1163.47 4.10509 1.11186 0
M  V30 11862 N 1161.79 -0.095206 1.57312 0
M  V30 11863 C 1162.73 -1.13438 2.03063 0
M  V30 11864 C 1163.73 -1.41478 0.931679 0
M  V30 11865 O 1164.93 -1.41161 1.11686 0
M  V30 11866 H 1161.31 -0.383042 0.647134 0
M  V30 11867 H 1163.28 -0.722186 2.89529 0
M  V30 11868 C 1162.03 -2.44641 2.47075 0
M  V30 11869 H 1161.35 -2.23908 3.31218 0
M  V30 11870 H 1162.79 -3.15855 2.82863 0
M  V30 11871 C 1161.25 -3.08931 1.34399 0
M  V30 11872 O 1161.78 -3.96021 0.673071 0
M  V30 11873 N 1159.99 -2.6918 1.09501 0
M  V30 11874 H 1159.53 -1.98451 1.6424 0
M  V30 11875 H 1159.49 -3.12522 0.34311 0
M  V30 11876 N 1163.26 -1.53291 -0.366026 0
M  V30 11877 C 1164.68 -1.61144 -0.942849 0
M  V30 11878 C 1165.03 -0.478571 -1.90274 0
M  V30 11879 O 1164.15 0.395069 -2.12763 0
M  V30 11880 C 1164.75 -2.92081 -1.71681 0
M  V30 11881 C 1163.31 -3.0227 -2.24298 0
M  V30 11882 C 1162.45 -2.56436 -1.05526 0
M  V30 11883 H 1165.4 -1.58038 -0.144835 0
M  V30 11884 H 1165.42 -2.79858 -2.57798 0
M  V30 11885 H 1164.94 -3.74513 -1.01793 0
M  V30 11886 H 1163.04 -2.24425 -2.97429 0
M  V30 11887 H 1163.15 -4.07341 -2.5221 0
M  V30 11888 H 1161.51 -2.11301 -1.42211 0
M  V30 11889 H 1162.3 -3.41285 -0.371376 0
M  V30 11890 N 1164.74 0.6258 -1.44643 0
M  V30 11891 C 1165.97 1.41233 -1.51198 0
M  V30 11892 C 1166.39 1.88291 -0.138572 0
M  V30 11893 O 1165.74 1.61151 0.856537 0
M  V30 11894 C 1165.79 2.62908 -2.48117 0
M  V30 11895 O 1165.51 2.1781 -3.80119 0
M  V30 11896 C 1167.02 3.55976 -2.6419 0
M  V30 11897 H 1164.24 0.432954 -0.512632 0
M  V30 11898 H 1166.78 0.76486 -1.89658 0
M  V30 11899 H 1164.93 3.23735 -2.12778 0
M  V30 11900 H 1165.35 2.96732 -4.32493 0
M  V30 11901 H 1166.82 4.37943 -3.3602 0
M  V30 11902 H 1167.3 4.05133 -1.696 0
M  V30 11903 H 1167.91 3.01014 -3.00451 0
M  V30 11904 N 1166.22 1.31629 0.866686 0
M  V30 11905 C 1167.63 1.19347 1.43573 0
M  V30 11906 C 1167.98 -0.198765 1.95191 0
M  V30 11907 O 1167.11 -1.09674 1.86549 0
M  V30 11908 C 1167.7 2.16055 2.6097 0
M  V30 11909 C 1166.26 2.07697 3.13909 0
M  V30 11910 C 1165.41 2.05099 1.86627 0
M  V30 11911 H 1168.36 1.43633 0.674929 0
M  V30 11912 H 1168.38 1.75207 3.37761 0
M  V30 11913 H 1167.89 3.17375 2.23371 0
M  V30 11914 H 1165.99 1.09583 3.56121 0
M  V30 11915 H 1166.11 2.96958 3.75969 0
M  V30 11916 H 1164.47 1.50162 2.05727 0
M  V30 11917 H 1165.25 3.0818 1.51261 0
M  V30 11918 N 1167.7 -1.08142 1.14644 0
M  V30 11919 C 1168.63 -2.14476 0.779437 0
M  V30 11920 C 1169.61 -1.60812 -0.240454 0
M  V30 11921 O 1170.79 -1.88059 -0.128881 0
M  V30 11922 C 1167.92 -3.38333 0.157692 0
M  V30 11923 C 1166.97 -4.10754 1.14819 0
M  V30 11924 S 1167.8 -4.63227 2.68666 0
M  V30 11925 C 1168.96 -5.90367 2.07888 0
M  V30 11926 H 1169.19 -2.45276 1.68009 0
M  V30 11927 H 1166.72 -1.20292 0.967942 0
M  V30 11928 H 1168.68 -4.10038 -0.194607 0
M  V30 11929 H 1167.34 -3.05726 -0.720435 0
M  V30 11930 H 1166.53 -4.99644 0.661226 0
M  V30 11931 H 1166.14 -3.44974 1.44462 0
M  V30 11932 H 1168.43 -6.62107 1.43599 0
M  V30 11933 H 1169.37 -6.43764 2.94913 0
M  V30 11934 H 1169.78 -5.43507 1.52514 0
M  V30 11935 N 1169.18 -0.941978 -1.26351 0
M  V30 11936 C 1170.41 -0.606748 -1.97803 0
M  V30 11937 C 1170.82 0.818441 -1.70138 0
M  V30 11938 O 1170.18 1.54583 -0.970076 0
M  V30 11939 C 1170.23 -0.840431 -3.51595 0
M  V30 11940 O 1169.95 -2.20957 -3.78299 0
M  V30 11941 C 1171.45 -0.515855 -4.40288 0
M  V30 11942 H 1168.67 -0.228591 -0.630862 0
M  V30 11943 H 1171.21 -1.2629 -1.60845 0
M  V30 11944 H 1169.37 -0.230875 -3.86711 0
M  V30 11945 H 1169.78 -2.2702 -4.72824 0
M  V30 11946 H 1171.26 -0.72998 -5.47152 0
M  V30 11947 H 1171.73 0.549178 -4.35753 0
M  V30 11948 H 1172.34 -1.10417 -4.10717 0
M  V30 11949 N 1170.66 1.40747 -0.709091 0
M  V30 11950 C 1171.6 2.30741 -0.0523584 0
M  V30 11951 C 1172.57 1.4784 0.757145 0
M  V30 11952 O 1173.76 1.76595 0.72242 0
M  V30 11953 C 1170.9 3.34 0.868203 0
M  V30 11954 C 1170.01 4.31972 0.0488686 0
M  V30 11955 C 1169.15 5.223 0.968311 0
M  V30 11956 C 1168.18 6.11934 0.142682 0
M  V30 11957 N 1167.32 6.947 1.01665 0
M  V30 11958 H 1172.16 2.86338 -0.825509 0
M  V30 11959 H 1169.7 1.41013 -0.418785 0
M  V30 11960 H 1171.66 3.92431 1.41611 0
M  V30 11961 H 1170.29 2.79921 1.6076 0
M  V30 11962 H 1169.34 3.75377 -0.616137 0
M  V30 11963 H 1170.65 4.95291 -0.590625 0
M  V30 11964 H 1169.8 5.85631 1.58498 0
M  V30 11965 H 1168.54 4.5924 1.64164 0
M  V30 11966 H 1167.55 5.47639 -0.486965 0
M  V30 11967 H 1168.77 6.77052 -0.527046 0
M  V30 11968 H 1166.72 6.34236 1.67575 0
M  V30 11969 H 1166.64 7.54759 0.433045 0
M  V30 11970 H 1167.9 7.62487 1.6197 0
M  V30 11971 N 1172.13 0.454803 1.50895 0
M  V30 11972 C 1173.54 -0.00421212 1.867 0
M  V30 11973 C 1173.9 -1.4037 1.3708 0
M  V30 11974 O 1173.02 -2.03755 0.728884 0
M  V30 11975 C 1173.62 -0.0144196 3.38797 0
M  V30 11976 C 1172.17 -0.417905 3.74073 0
M  V30 11977 C 1171.32 0.37801 2.74711 0
M  V30 11978 H 1174.27 0.669849 1.4387 0
M  V30 11979 H 1174.29 -0.820172 3.71555 0
M  V30 11980 H 1173.81 1.00427 3.74881 0
M  V30 11981 H 1171.91 -1.44155 3.43584 0
M  V30 11982 H 1172.02 -0.130568 4.78922 0
M  V30 11983 H 1170.38 -0.166089 2.54158 0
M  V30 11984 H 1171.17 1.3959 3.13639 0
M  V30 11985 N 1173.61 -1.56489 0.186789 0
M  V30 11986 C 1174.84 -2.01722 -0.459993 0
M  V30 11987 C 1175.25 -1.06697 -1.5576 0
M  V30 11988 O 1174.61 -0.0704212 -1.82364 0
M  V30 11989 C 1174.66 -3.46693 -1.02401 0
M  V30 11990 O 1174.38 -4.3809 0.0297916 0
M  V30 11991 C 1175.88 -4.07403 -1.7475 0
M  V30 11992 H 1173.1 -0.660845 -0.116298 0
M  V30 11993 H 1175.65 -2.02389 0.293059 0
M  V30 11994 H 1173.8 -3.46752 -1.72749 0
M  V30 11995 H 1174.22 -5.23057 -0.388821 0
M  V30 11996 H 1175.69 -5.10718 -2.09455 0
M  V30 11997 H 1176.17 -3.50383 -2.64818 0
M  V30 11998 H 1176.77 -4.11093 -1.09007 0
M  V30 11999 N 1175.09 0.086862 -1.5736 0
M  V30 12000 C 1176.5 0.640442 -1.75372 0
M  V30 12001 C 1176.85 1.78693 -0.81014 0
M  V30 12002 O 1175.98 2.16398 0.00940712 0
M  V30 12003 C 1176.57 1.16856 -3.1801 0
M  V30 12004 C 1175.13 1.66813 -3.37417 0
M  V30 12005 C 1174.28 0.58116 -2.71142 0
M  V30 12006 H 1177.23 -0.139249 -1.58088 0
M  V30 12007 H 1177.25 2.03772 -3.21337 0
M  V30 12008 H 1176.76 0.333909 -3.86661 0
M  V30 12009 H 1174.86 2.52652 -2.73858 0
M  V30 12010 H 1174.98 1.75545 -4.45781 0
M  V30 12011 H 1173.34 1.0226 -2.3327 0
M  V30 12012 H 1174.12 -0.243047 -3.42439 0
M  V30 12013 N 1176.57 1.53483 0.357892 0
M  V30 12014 C 1177.48 1.83434 1.4625 0
M  V30 12015 C 1178.49 0.723313 1.58254 0
M  V30 12016 O 1179.67 1.01416 1.74002 0
M  V30 12017 C 1176.73 2.0249 2.81423 0
M  V30 12018 C 1175.8 3.26378 2.78883 0
M  V30 12019 C 1175.03 3.44516 4.07608 0
M  V30 12020 O 1175.25 2.66787 5.04163 0
M  V30 12021 O 1174.19 4.37898 4.12952 0
M  V30 12022 H 1178.01 2.77294 1.23861 0
M  V30 12023 H 1175.6 1.38958 0.548722 0
M  V30 12024 H 1177.48 2.16552 3.61501 0
M  V30 12025 H 1176.15 1.11819 3.03773 0
M  V30 12026 H 1175.06 3.17733 1.97475 0
M  V30 12027 H 1176.39 4.16996 2.61486 0
M  V30 12028 N 1178.05 -0.61812 1.44973 0
M  V30 12029 C 1178.96 -1.7579 1.55355 0
M  V30 12030 C 1179.97 -1.68384 0.438512 0
M  V30 12031 O 1181.15 -1.88928 0.697715 0
M  V30 12032 C 1178.21 -3.1222 1.50729 0
M  V30 12033 C 1177.27 -3.3116 2.73188 0
M  V30 12034 C 1176.51 -4.61082 2.68774 0
M  V30 12035 O 1176.73 -5.42728 1.75507 0
M  V30 12036 O 1175.66 -4.82506 3.59821 0
M  V30 12037 H 1179.49 -1.69983 2.51674 0
M  V30 12038 H 1177.07 -0.780934 1.27365 0
M  V30 12039 H 1178.96 -3.93524 1.5072 0
M  V30 12040 H 1177.63 -3.18541 0.575587 0
M  V30 12041 H 1176.54 -2.49485 2.78762 0
M  V30 12042 H 1177.87 -3.29709 3.65449 0
M  V30 12043 N 1179.52 -1.32087 -0.859693 0
M  V30 12044 C 1180.77 -1.21716 -1.60836 0
M  V30 12045 C 1181.09 0.220904 -1.94349 0
M  V30 12046 O 1182.29 0.446422 -2.67805 0
M  V30 12047 C 1180.75 -2.13143 -2.89997 0
M  V30 12048 C 1180.36 -3.62003 -2.63928 0
M  V30 12049 C 1182.1 -2.11596 -3.68004 0
M  V30 12050 C 1180.01 -4.45407 -3.89059 0
M  V30 12051 H 1178.94 -0.45199 -0.603507 0
M  V30 12052 H 1181.59 -1.57013 -0.949687 0
M  V30 12053 H 1179.97 -1.70755 -3.57294 0
M  V30 12054 H 1181.14 -4.12701 -2.04974 0
M  V30 12055 H 1179.46 -3.6563 -1.99258 0
M  V30 12056 H 1182.06 -2.71149 -4.6085 0
M  V30 12057 H 1182.4 -1.10568 -4.01348 0
M  V30 12058 H 1182.93 -2.52238 -3.07605 0
M  V30 12059 H 1179.67 -5.4723 -3.60859 0
M  V30 12060 H 1179.19 -3.99462 -4.47427 0
M  V30 12061 H 1180.87 -4.58149 -4.56846 0
M  V30 12062 N 1181 1.07532 -1.15215 0
M  V30 12063 C 1181.95 2.14687 -0.847243 0
M  V30 12064 C 1182.92 1.64903 0.199043 0
M  V30 12065 O 1184.1 1.90682 0.0669986 0
M  V30 12066 C 1181.24 3.43414 -0.340673 0
M  V30 12067 C 1180.36 4.06999 -1.44831 0
M  V30 12068 C 1179.49 5.23554 -0.898059 0
M  V30 12069 C 1178.53 5.79097 -1.98276 0
M  V30 12070 N 1177.67 6.86985 -1.44902 0
M  V30 12071 H 1182.51 2.4011 -1.76498 0
M  V30 12072 H 1180.04 1.17823 -0.880689 0
M  V30 12073 H 1182 4.1719 -0.0286956 0
M  V30 12074 H 1180.63 3.18249 0.540144 0
M  V30 12075 H 1179.68 3.30895 -1.87651 0
M  V30 12076 H 1181 4.44289 -2.26735 0
M  V30 12077 H 1180.15 6.04305 -0.538514 0
M  V30 12078 H 1178.89 4.87676 -0.0481752 0
M  V30 12079 H 1177.89 4.96992 -2.35115 0
M  V30 12080 H 1179.12 6.1703 -2.83639 0
M  V30 12081 H 1177.07 6.5305 -0.621468 0
M  V30 12082 H 1176.98 7.23149 -2.20434 0
M  V30 12083 H 1178.25 7.71446 -1.11767 0
M  V30 12084 N 1182.48 0.948665 1.2585 0
M  V30 12085 C 1183.41 0.482036 2.2847 0
M  V30 12086 C 1184.39 -0.468553 1.63519 0
M  V30 12087 O 1185.58 -0.368796 1.90666 0
M  V30 12088 C 1182.71 -0.246603 3.46423 0
M  V30 12089 C 1181.66 0.61815 4.23513 0
M  V30 12090 C 1180.99 -0.240884 5.34157 0
M  V30 12091 C 1182.29 1.89327 4.86778 0
M  V30 12092 H 1183.98 1.33973 2.67753 0
M  V30 12093 H 1181.53 0.645645 1.28715 0
M  V30 12094 H 1183.48 -0.584135 4.17332 0
M  V30 12095 H 1182.2 -1.13849 3.06114 0
M  V30 12096 H 1180.86 0.938682 3.54379 0
M  V30 12097 H 1180.51 -1.13235 4.90089 0
M  V30 12098 H 1180.21 0.334367 5.86648 0
M  V30 12099 H 1181.73 -0.573517 6.07901 0
M  V30 12100 H 1183.15 1.62252 5.49861 0
M  V30 12101 H 1181.55 2.41369 5.49419 0
M  V30 12102 H 1182.62 2.60006 4.09298 0
M  V30 12103 N 1183.96 -1.40369 0.716545 0
M  V30 12104 C 1184.87 -2.34508 0.065658 0
M  V30 12105 C 1185.88 -1.57352 -0.742723 0
M  V30 12106 O 1187.06 -1.89735 -0.675456 0
M  V30 12107 C 1184.13 -3.36262 -0.844337 0
M  V30 12108 C 1183.19 -4.29292 -0.0257971 0
M  V30 12109 C 1182.42 -5.26185 -0.892452 0
M  V30 12110 O 1182.64 -5.29071 -2.13166 0
M  V30 12111 O 1181.58 -6.0099 -0.330933 0
M  V30 12112 H 1185.4 -2.91789 0.842184 0
M  V30 12113 H 1182.99 -1.41579 0.477034 0
M  V30 12114 H 1184.87 -3.98661 -1.36555 0
M  V30 12115 H 1183.54 -2.81393 -1.59999 0
M  V30 12116 H 1182.45 -3.70175 0.540512 0
M  V30 12117 H 1183.78 -4.87316 0.69166 0
M  V30 12118 N 1185.44 -0.462799 -1.50652 0
M  V30 12119 C 1186.4 0.324264 -2.26895 0
M  V30 12120 C 1187.4 0.927687 -1.31342 0
M  V30 12121 O 1188.59 0.798159 -1.54839 0
M  V30 12122 C 1185.72 1.46113 -3.08 0
M  V30 12123 H 1186.91 -0.344266 -2.97917 0
M  V30 12124 H 1184.47 -0.216631 -1.54791 0
M  V30 12125 H 1185.2 2.16496 -2.41454 0
M  V30 12126 H 1184.99 1.03433 -3.78212 0
M  V30 12127 H 1186.48 2.01655 -3.65684 0
M  V30 12128 N 1186.91 1.56388 -0.195085 0
M  V30 12129 C 1187.85 2.16316 0.757643 0
M  V30 12130 C 1188.86 1.12498 1.17678 0
M  V30 12131 O 1190.05 1.39591 1.11251 0
M  V30 12132 C 1187.15 2.7104 2.03447 0
M  V30 12133 C 1186.32 3.99759 1.77514 0
M  V30 12134 C 1185.38 4.3931 2.89644 0
M  V30 12135 O 1184.41 5.06732 2.59252 0
M  V30 12136 N 1185.61 4.02813 4.17998 0
M  V30 12137 H 1188.37 2.98696 0.24517 0
M  V30 12138 H 1185.93 1.61895 -0.0131194 0
M  V30 12139 H 1187.93 2.94483 2.776 0
M  V30 12140 H 1186.5 1.93114 2.45817 0
M  V30 12141 H 1185.72 3.84448 0.8714 0
M  V30 12142 H 1187 4.83782 1.57585 0
M  V30 12143 H 1186.4 3.4858 4.45543 0
M  V30 12144 H 1184.96 4.31206 4.88779 0
M  V30 12145 N 1188.39 -0.0785156 1.57404 0
M  V30 12146 C 1189.62 -0.795871 1.91522 0
M  V30 12147 C 1190.04 -1.70665 0.790892 0
M  V30 12148 O 1189.4 -1.79474 -0.25666 0
M  V30 12149 C 1189.45 -1.57121 3.24569 0
M  V30 12150 O 1188.55 -2.6814 3.13328 0
M  V30 12151 H 1187.89 -0.217575 0.627341 0
M  V30 12152 H 1190.42 -0.0487724 2.04542 0
M  V30 12153 H 1190.43 -1.9519 3.5828 0
M  V30 12154 H 1189.11 -0.902909 4.05981 0
M  V30 12155 H 1187.69 -2.32978 2.91163 0
M  V30 12156 N 1189.87 -1.5367 -0.349747 0
M  V30 12157 C 1190.8 -1.77528 -1.4497 0
M  V30 12158 C 1191.82 -0.656412 -1.4898 0
M  V30 12159 O 1193 -0.933016 -1.52174 0
M  V30 12160 C 1190.1 -1.85445 -2.8366 0
M  V30 12161 C 1189.28 -3.15295 -3.03163 0
M  V30 12162 C 1188.34 -3.1425 -4.22059 0
M  V30 12163 O 1187.36 -3.87994 -4.16472 0
M  V30 12164 N 1188.56 -2.36181 -5.30282 0
M  V30 12165 H 1191.33 -2.72444 -1.24877 0
M  V30 12166 H 1188.89 -1.52644 -0.539586 0
M  V30 12167 H 1190.88 -1.82204 -3.61364 0
M  V30 12168 H 1189.45 -0.977436 -2.96926 0
M  V30 12169 H 1188.67 -3.31711 -2.12983 0
M  V30 12170 H 1189.96 -4.01078 -3.13072 0
M  V30 12171 H 1189.36 -1.75808 -5.37688 0
M  V30 12172 H 1187.92 -2.38744 -6.06502 0
M  V30 12173 N 1191.35 0.610423 -1.45298 0
M  V30 12174 C 1192.6 1.36951 -1.49167 0
M  V30 12175 C 1192.92 1.9405 -0.132292 0
M  V30 12176 O 1192.18 1.75363 0.868686 0
M  V30 12177 C 1192.48 2.53812 -2.51623 0
M  V30 12178 C 1192.14 2.14877 -3.96407 0
M  V30 12179 C 1190.81 2.03972 -4.35831 0
M  V30 12180 C 1193.16 1.84448 -4.87472 0
M  V30 12181 C 1190.49 1.60856 -5.64218 0
M  V30 12182 C 1192.84 1.42818 -6.16268 0
M  V30 12183 C 1191.5 1.3047 -6.54625 0
M  V30 12184 H 1190.77 0.501138 -0.54584 0
M  V30 12185 H 1193.42 0.690221 -1.78629 0
M  V30 12186 H 1191.72 3.27066 -2.1572 0
M  V30 12187 H 1193.42 3.12041 -2.51856 0
M  V30 12188 H 1190.01 2.2429 -3.65229 0
M  V30 12189 H 1194.19 1.91771 -4.57753 0
M  V30 12190 H 1189.45 1.49916 -5.92735 0
M  V30 12191 H 1193.62 1.18318 -6.86275 0
M  V30 12192 H 1191.25 0.968347 -7.54007 0
M  V30 12193 N 1192.83 1.32541 0.852676 0
M  V30 12194 C 1194.05 1.2622 1.6394 0
M  V30 12195 C 1194.47 -0.169455 1.88038 0
M  V30 12196 O 1193.83 -1.10719 1.45078 0
M  V30 12197 C 1193.88 2.02062 2.99755 0
M  V30 12198 O 1193.6 3.39641 2.76723 0
M  V30 12199 C 1195.1 2.02787 3.94198 0
M  V30 12200 H 1192.32 0.435405 0.510552 0
M  V30 12201 H 1194.86 1.74696 1.06309 0
M  V30 12202 H 1193.02 1.57303 3.54026 0
M  V30 12203 H 1193.43 3.78484 3.63111 0
M  V30 12204 H 1194.91 2.60333 4.86755 0
M  V30 12205 H 1195.38 1.01464 4.27319 0
M  V30 12206 H 1195.99 2.47504 3.45864 0
M  V30 12207 N 1194.3 -1.0692 1.15784 0
M  V30 12208 C 1195.27 -2.12407 0.861167 0
M  V30 12209 C 1196.27 -1.6018 -0.141031 0
M  V30 12210 O 1197.46 -1.73972 0.0891192 0
M  V30 12211 C 1194.59 -3.39693 0.286636 0
M  V30 12212 H 1195.78 -2.40157 1.79623 0
M  V30 12213 H 1193.34 -1.22881 0.965916 0
M  V30 12214 H 1194.07 -3.17587 -0.656417 0
M  V30 12215 H 1193.86 -3.78903 1.0087 0
M  V30 12216 H 1195.35 -4.17488 0.0967971 0
M  V30 12217 N 1195.78 -0.955326 -1.25345 0
M  V30 12218 C 1197.06 -0.527828 -1.88344 0
M  V30 12219 C 1197.44 0.994911 -1.86185 0
M  V30 12220 O 1196.79 1.86099 -1.32587 0
M  V30 12221 C 1197 -1.10525 -3.31037 0
M  V30 12222 C 1198.35 -1.18253 -4.07801 0
M  V30 12223 O 1199.37 -1.05685 -3.4016 0
M  V30 12224 O 1198.23 -1.37978 -5.28795 0
M  V30 12225 H 1195.32 -0.174206 -0.808444 0
M  V30 12226 H 1197.87 -1.0488 -1.3341 0
M  V30 12227 H 1196.64 -2.14847 -3.27042 0
M  V30 12228 H 1196.26 -0.567568 -3.93528 0
M  V30 12229 N 1197.26 1.39987 -0.723979 0
M  V30 12230 C 1198.19 2.3332 -0.0917282 0
M  V30 12231 C 1199.17 1.53335 0.736361 0
M  V30 12232 O 1200.36 1.81771 0.683582 0
M  V30 12233 C 1197.49 3.3737 0.824549 0
M  V30 12234 C 1196.44 4.2788 0.101452 0
M  V30 12235 C 1195.77 5.22536 1.13401 0
M  V30 12236 C 1197.07 5.11649 -1.04939 0
M  V30 12237 H 1198.76 2.86441 -0.871318 0
M  V30 12238 H 1196.31 1.37725 -0.420448 0
M  V30 12239 H 1198.26 4.01607 1.27631 0
M  V30 12240 H 1196.98 2.82663 1.63613 0
M  V30 12241 H 1195.64 3.65107 -0.330569 0
M  V30 12242 H 1195.29 4.64131 1.93886 0
M  V30 12243 H 1194.99 5.83938 0.65502 0
M  V30 12244 H 1196.52 5.89651 1.58569 0
M  V30 12245 H 1197.93 5.69293 -0.6766 0
M  V30 12246 H 1196.33 5.82137 -1.45729 0
M  V30 12247 H 1197.4 4.47132 -1.8762 0
M  V30 12248 N 1198.74 0.470782 1.50404 0
M  V30 12249 C 1200.02 -0.145879 1.95055 0
M  V30 12250 C 1200.4 -1.57004 1.41114 0
M  V30 12251 O 1199.74 -2.20152 0.612006 0
M  V30 12252 C 1199.95 -0.0895071 3.48885 0
M  V30 12253 C 1201.3 -0.278548 4.23685 0
M  V30 12254 O 1202.33 -0.166105 3.55812 0
M  V30 12255 O 1201.19 -0.505606 5.44156 0
M  V30 12256 H 1198.28 -0.111838 0.819403 0
M  V30 12257 H 1200.83 0.531162 1.61173 0
M  V30 12258 H 1199.6 0.904836 3.80695 0
M  V30 12259 H 1199.22 -0.808019 3.89303 0
M  V30 12260 N 1200.22 -1.56282 0.203376 0
M  V30 12261 C 1201.15 -2.16714 -0.74616 0
M  V30 12262 C 1202.16 -1.13121 -1.17079 0
M  V30 12263 O 1203.35 -1.40179 -1.10509 0
M  V30 12264 C 1200.45 -2.72115 -2.02007 0
M  V30 12265 C 1199.62 -4.00695 -1.75391 0
M  V30 12266 C 1198.68 -4.40839 -2.8731 0
M  V30 12267 O 1197.71 -5.081 -2.56561 0
M  V30 12268 N 1198.91 -4.05024 -4.15856 0
M  V30 12269 H 1201.68 -2.98821 -0.229326 0
M  V30 12270 H 1199.24 -1.61885 0.0217049 0
M  V30 12271 H 1201.23 -2.95951 -2.76035 0
M  V30 12272 H 1199.8 -1.94415 -2.44789 0
M  V30 12273 H 1199.02 -3.84905 -0.851 0
M  V30 12274 H 1200.31 -4.8461 -1.55017 0
M  V30 12275 H 1199.71 -3.50938 -4.43688 0
M  V30 12276 H 1198.26 -4.33792 -4.86485 0
M  V30 12277 N 1201.7 0.070167 -1.57444 0
M  V30 12278 C 1202.94 0.769014 -1.8733 0
M  V30 12279 C 1203.27 1.77496 -0.79533 0
M  V30 12280 O 1202.53 1.94586 0.208495 0
M  V30 12281 C 1202.82 1.5111 -3.23883 0
M  V30 12282 C 1202.49 0.644988 -4.46263 0
M  V30 12283 C 1201.15 0.406307 -4.79482 0
M  V30 12284 C 1203.5 0.0444938 -5.21181 0
M  V30 12285 C 1200.83 -0.442322 -5.8503 0
M  V30 12286 C 1203.18 -0.791599 -6.27628 0
M  V30 12287 C 1201.85 -1.04014 -6.59346 0
M  V30 12288 H 1201.12 0.281402 -0.685488 0
M  V30 12289 H 1203.77 0.029752 -1.91477 0
M  V30 12290 H 1202.07 2.32261 -3.15535 0
M  V30 12291 H 1203.77 2.05665 -3.44242 0
M  V30 12292 H 1200.36 0.841148 -4.20265 0
M  V30 12293 H 1204.54 0.216005 -4.9583 0
M  V30 12294 H 1199.8 -0.643607 -6.08003 0
M  V30 12295 H 1203.97 -1.26363 -6.8484 0
M  V30 12296 H 1201.6 -1.69949 -7.4096 0
M  V30 12297 N 1203.17 1.53854 0.341593 0
M  V30 12298 C 1204.45 1.61823 1.09875 0
M  V30 12299 C 1204.83 0.440711 2.06448 0
M  V30 12300 O 1204.18 -0.566833 2.21358 0
M  V30 12301 C 1204.39 2.9799 1.81668 0
M  V30 12302 C 1205.74 3.53411 2.35341 0
M  V30 12303 O 1206.76 3.00177 1.91761 0
M  V30 12304 O 1205.62 4.4653 3.15076 0
M  V30 12305 H 1202.71 0.654599 0.5054 0
M  V30 12306 H 1205.26 1.66199 0.342929 0
M  V30 12307 H 1204.03 3.7513 1.11323 0
M  V30 12308 H 1203.65 2.97213 2.64103 0
M  V30 12309 N 1204.65 -0.602709 1.4562 0
M  V30 12310 C 1205.58 -1.7271 1.50678 0
M  V30 12311 C 1206.6 -1.57884 0.397048 0
M  V30 12312 O 1207.79 -1.65676 0.664367 0
M  V30 12313 C 1204.89 -3.10762 1.35204 0
M  V30 12314 C 1204.06 -3.51782 2.59939 0
M  V30 12315 C 1203.12 -4.68816 2.38952 0
M  V30 12316 O 1202.14 -4.75686 3.12588 0
M  V30 12317 N 1203.35 -5.624 1.43827 0
M  V30 12318 H 1206.11 -1.68833 2.47619 0
M  V30 12319 H 1203.67 -0.788131 1.41422 0
M  V30 12320 H 1205.66 -3.86819 1.18967 0
M  V30 12321 H 1204.23 -3.09119 0.465203 0
M  V30 12322 H 1203.45 -2.65637 2.91257 0
M  V30 12323 H 1204.74 -3.75948 3.42842 0
M  V30 12324 H 1204.14 -5.59568 0.830669 0
M  V30 12325 H 1202.7 -6.37969 1.33561 0
M  V30 12326 N 1206.13 -1.32992 -0.845635 0
M  V30 12327 C 1207.06 -1.25301 -1.97033 0
M  V30 12328 C 1208.04 -0.134966 -1.69564 0
M  V30 12329 O 1209.23 -0.323629 -1.91484 0
M  V30 12330 C 1206.36 -0.984551 -3.33052 0
M  V30 12331 C 1205.31 -2.06481 -3.749 0
M  V30 12332 C 1204.64 -1.6486 -5.08651 0
M  V30 12333 C 1205.94 -3.48083 -3.89404 0
M  V30 12334 H 1207.63 -2.194 -2.03725 0
M  V30 12335 H 1205.18 -1.05621 -0.978783 0
M  V30 12336 H 1207.13 -0.917269 -4.11296 0
M  V30 12337 H 1205.85 -0.00793116 -3.26599 0
M  V30 12338 H 1204.51 -2.1224 -2.98915 0
M  V30 12339 H 1204.16 -0.659183 -4.98662 0
M  V30 12340 H 1203.86 -2.37145 -5.37621 0
M  V30 12341 H 1205.38 -1.59585 -5.89377 0
M  V30 12342 H 1206.8 -3.44863 -4.57976 0
M  V30 12343 H 1205.19 -4.18796 -4.29802 0
M  V30 12344 H 1206.26 -3.87084 -2.92051 0
M  V30 12345 N 1207.61 1.06304 -1.1635 0
M  V30 12346 C 1208.54 2.15745 -0.893103 0
M  V30 12347 C 1209.52 1.69341 0.160531 0
M  V30 12348 O 1210.7 1.94196 0.0126526 0
M  V30 12349 C 1207.83 3.45066 -0.393287 0
M  V30 12350 C 1206.79 4.04978 -1.38482 0
M  V30 12351 C 1206.11 5.29507 -0.743409 0
M  V30 12352 C 1207.41 4.4377 -2.75438 0
M  V30 12353 H 1209.11 2.38622 -1.80831 0
M  V30 12354 H 1206.65 1.14681 -0.870878 0
M  V30 12355 H 1208.61 4.20964 -0.191607 0
M  V30 12356 H 1207.33 3.21808 0.557426 0
M  V30 12357 H 1205.99 3.31136 -1.57304 0
M  V30 12358 H 1205.64 5.02545 0.213787 0
M  V30 12359 H 1205.34 5.7055 -1.40521 0
M  V30 12360 H 1206.86 6.08102 -0.551746 0
M  V30 12361 H 1208.28 5.1075 -2.60398 0
M  V30 12362 H 1206.67 4.95797 -3.38091 0
M  V30 12363 H 1207.74 3.54636 -3.30699 0
M  V30 12364 N 1209.09 0.96196 1.24836 0
M  V30 12365 C 1210.5 0.660388 1.7463 0
M  V30 12366 C 1210.85 -0.824064 1.78055 0
M  V30 12367 O 1209.97 -1.64485 1.40619 0
M  V30 12368 C 1210.57 1.19205 3.17137 0
M  V30 12369 C 1209.13 0.940493 3.64461 0
M  V30 12370 C 1208.27 1.33076 2.43282 0
M  V30 12371 H 1211.22 1.13794 1.1062 0
M  V30 12372 H 1211.25 0.555595 3.76422 0
M  V30 12373 H 1210.76 2.27247 3.14612 0
M  V30 12374 H 1208.86 -0.124645 3.72391 0
M  V30 12375 H 1208.97 1.5821 4.52224 0
M  V30 12376 H 1207.34 0.749139 2.43434 0
M  V30 12377 H 1208.12 2.42055 2.43442 0
M  V30 12378 N 1210.56 -1.39601 0.731392 0
M  V30 12379 C 1211.79 -2.04887 0.28789 0
M  V30 12380 C 1212.21 -1.55138 -1.076 0
M  V30 12381 O 1211.56 -0.71471 -1.67923 0
M  V30 12382 C 1211.61 -3.6044 0.276629 0
M  V30 12383 O 1211.34 -4.08358 1.58668 0
M  V30 12384 C 1212.84 -4.4292 -0.183485 0
M  V30 12385 H 1210.06 -0.658976 0.126459 0
M  V30 12386 H 1212.6 -1.78716 0.994031 0
M  V30 12387 H 1210.76 -3.85526 -0.380597 0
M  V30 12388 H 1211.17 -5.02659 1.4978 0
M  V30 12389 H 1212.64 -5.51822 -0.140207 0
M  V30 12390 H 1213.12 -4.2168 -1.22811 0
M  V30 12391 H 1213.73 -4.22976 0.444042 0
M  V30 12392 N 1212.04 -0.478751 -1.50152 0
M  V30 12393 C 1212.97 0.301182 -2.31549 0
M  V30 12394 C 1213.95 0.983276 -1.38801 0
M  V30 12395 O 1215.14 0.978973 -1.67719 0
M  V30 12396 C 1212.27 1.3791 -3.18745 0
M  V30 12397 C 1211.22 0.818175 -4.20107 0
M  V30 12398 C 1210.55 1.99496 -4.9609 0
M  V30 12399 C 1211.85 -0.17574 -5.22004 0
M  V30 12400 H 1213.54 -0.378188 -2.97002 0
M  V30 12401 H 1211.09 -0.183323 -1.42828 0
M  V30 12402 H 1213.04 1.93227 -3.74488 0
M  V30 12403 H 1211.77 2.08735 -2.51192 0
M  V30 12404 H 1210.42 0.286924 -3.65475 0
M  V30 12405 H 1210.07 2.69036 -4.25004 0
M  V30 12406 H 1209.77 1.62582 -5.6466 0
M  V30 12407 H 1211.3 2.55288 -5.54671 0
M  V30 12408 H 1212.71 0.288513 -5.72574 0
M  V30 12409 H 1211.11 -0.459549 -5.98338 0
M  V30 12410 H 1212.18 -1.09911 -4.72279 0
M  V30 12411 N 1213.52 1.56172 -0.211661 0
M  V30 12412 C 1214.43 2.23468 0.714081 0
M  V30 12413 C 1215.45 1.23908 1.22159 0
M  V30 12414 O 1216.62 1.56693 1.26528 0
M  V30 12415 C 1213.69 2.89375 1.90953 0
M  V30 12416 C 1212.75 4.04251 1.44497 0
M  V30 12417 C 1211.98 4.67006 2.58343 0
M  V30 12418 O 1212.2 4.28721 3.76237 0
M  V30 12419 O 1211.14 5.56177 2.3011 0
M  V30 12420 H 1214.96 3.03219 0.170862 0
M  V30 12421 H 1212.55 1.49389 0.0183607 0
M  V30 12422 H 1214.43 3.3101 2.60787 0
M  V30 12423 H 1213.11 2.12591 2.44104 0
M  V30 12424 H 1212.01 3.67205 0.714932 0
M  V30 12425 H 1213.35 4.82748 0.959947 0
M  V30 12426 N 1215 -0.0618163 1.57479 0
M  V30 12427 C 1215.95 -1.0724 2.04373 0
M  V30 12428 C 1216.92 -1.37875 0.926271 0
M  V30 12429 O 1218.1 -1.48772 1.19463 0
M  V30 12430 C 1215.24 -2.37805 2.50085 0
M  V30 12431 C 1214.35 -2.13614 3.7549 0
M  V30 12432 C 1213.49 -3.37814 4.09945 0
M  V30 12433 C 1212.53 -3.09032 5.28361 0
M  V30 12434 N 1211.66 -4.25591 5.58406 0
M  V30 12435 H 1216.5 -0.665536 2.90473 0
M  V30 12436 H 1214.04 -0.317043 1.43643 0
M  V30 12437 H 1216 -3.14048 2.74644 0
M  V30 12438 H 1214.63 -2.76275 1.66948 0
M  V30 12439 H 1213.68 -1.28017 3.58212 0
M  V30 12440 H 1214.99 -1.88361 4.61867 0
M  V30 12441 H 1214.15 -4.22447 4.35458 0
M  V30 12442 H 1212.89 -3.66153 3.22154 0
M  V30 12443 H 1211.89 -2.22797 5.02635 0
M  V30 12444 H 1213.12 -2.82006 6.17778 0
M  V30 12445 H 1211.06 -4.53941 4.73575 0
M  V30 12446 H 1210.98 -4.03646 6.39223 0
M  V30 12447 H 1212.25 -5.11191 5.88476 0
M  V30 12448 N 1216.48 -1.54033 -0.333429 0
M  V30 12449 C 1217.44 -1.82021 -1.39288 0
M  V30 12450 C 1218.44 -0.691623 -1.45166 0
M  V30 12451 O 1219.63 -0.959925 -1.45365 0
M  V30 12452 C 1216.76 -1.97136 -2.78119 0
M  V30 12453 H 1217.95 -2.76671 -1.1573 0
M  V30 12454 H 1215.51 -1.45599 -0.568376 0
M  V30 12455 H 1216.24 -1.04663 -3.06946 0
M  V30 12456 H 1216.03 -2.79251 -2.75247 0
M  V30 12457 H 1217.52 -2.20271 -3.54782 0
M  V30 12458 N 1217.95 0.594978 -1.45938 0
M  V30 12459 C 1218.92 1.68688 -1.55168 0
M  V30 12460 C 1219.92 1.54945 -0.429951 0
M  V30 12461 O 1221.11 1.59785 -0.693859 0
M  V30 12462 C 1218.24 3.0804 -1.46027 0
M  V30 12463 H 1219.43 1.61866 -2.52467 0
M  V30 12464 H 1216.99 0.811785 -1.33565 0
M  V30 12465 H 1217.72 3.20428 -0.499614 0
M  V30 12466 H 1217.51 3.19423 -2.27401 0
M  V30 12467 H 1219 3.8755 -1.55546 0
M  V30 12468 N 1219.43 1.33438 0.838571 0
M  V30 12469 C 1220.36 1.19552 1.9555 0
M  V30 12470 C 1221.38 0.12642 1.62308 0
M  V30 12471 O 1222.57 0.376868 1.74476 0
M  V30 12472 C 1219.67 0.811273 3.29046 0
M  V30 12473 C 1218.84 1.97207 3.9042 0
M  V30 12474 C 1217.9 1.56875 5.02271 0
M  V30 12475 O 1216.92 2.28314 5.21403 0
M  V30 12476 N 1218.13 0.473924 5.78562 0
M  V30 12477 H 1220.89 2.15769 2.07999 0
M  V30 12478 H 1218.45 1.26187 1.01432 0
M  V30 12479 H 1220.44 0.523553 4.01299 0
M  V30 12480 H 1219.01 -0.0602291 3.12542 0
M  V30 12481 H 1218.23 2.4254 3.10754 0
M  V30 12482 H 1219.52 2.74878 4.28158 0
M  V30 12483 H 1218.92 -0.120306 5.65572 0
M  V30 12484 H 1217.48 0.245877 6.51336 0
M  V30 12485 N 1220.91 -1.05686 1.16912 0
M  V30 12486 C 1221.84 -2.15268 0.904532 0
M  V30 12487 C 1222.82 -1.69424 -0.151548 0
M  V30 12488 O 1224.01 -1.942 -0.00235371 0
M  V30 12489 C 1221.14 -3.44853 0.411581 0
M  V30 12490 C 1220.09 -4.04237 1.40628 0
M  V30 12491 C 1219.42 -5.29105 0.771479 0
M  V30 12492 C 1220.72 -4.42303 2.77787 0
M  V30 12493 H 1222.41 -2.37659 1.82094 0
M  V30 12494 H 1219.96 -1.14217 0.876947 0
M  V30 12495 H 1221.91 -4.20857 0.213929 0
M  V30 12496 H 1220.63 -3.22099 -0.540352 0
M  V30 12497 H 1219.29 -3.30297 1.59058 0
M  V30 12498 H 1218.94 -5.02652 -0.187133 0
M  V30 12499 H 1218.64 -5.69797 1.43545 0
M  V30 12500 H 1220.16 -6.07801 0.583988 0
M  V30 12501 H 1221.58 -5.09362 2.63103 0
M  V30 12502 H 1219.98 -4.93997 3.40716 0
M  V30 12503 H 1221.05 -3.52877 3.32575 0
M  V30 12504 N 1222.39 -0.968567 -1.24324 0
M  V30 12505 C 1223.8 -0.66964 -1.74278 0
M  V30 12506 C 1224.15 0.81461 -1.7849 0
M  V30 12507 O 1223.28 1.63736 -1.4149 0
M  V30 12508 C 1223.87 -1.20885 -3.165 0
M  V30 12509 C 1222.43 -0.959808 -3.63957 0
M  V30 12510 C 1221.58 -1.34365 -2.42573 0
M  V30 12511 H 1224.53 -1.14379 -1.10015 0
M  V30 12512 H 1224.55 -0.57555 -3.76122 0
M  V30 12513 H 1224.06 -2.28912 -3.13402 0
M  V30 12514 H 1222.16 0.104894 -3.72452 0
M  V30 12515 H 1222.27 -1.60606 -4.51378 0
M  V30 12516 H 1220.64 -0.762039 -2.43033 0
M  V30 12517 H 1221.42 -2.43343 -2.42155 0
M  V30 12518 N 1223.87 1.39211 -0.738786 0
M  V30 12519 C 1225.11 2.0004 -0.28782 0
M  V30 12520 C 1225.44 1.58921 1.13 0
M  V30 12521 O 1224.71 0.839193 1.77015 0
M  V30 12522 H 1223.29 0.739805 -0.103425 0
M  V30 12523 H 1225.95 1.70202 -0.949587 0
M  V30 12524 H 1225.04 3.10251 -0.339208 0
M  V30 12525 N 1225.34 0.486708 1.49896 0
M  V30 12526 C 1226.27 -0.288898 2.31706 0
M  V30 12527 C 1227.26 -0.975901 1.3932 0
M  V30 12528 O 1228.44 -0.970065 1.68236 0
M  V30 12529 C 1225.57 -1.36218 3.19471 0
M  V30 12530 C 1224.52 -0.795884 4.20535 0
M  V30 12531 C 1223.85 -1.96862 4.97141 0
M  V30 12532 C 1225.15 0.203421 5.21904 0
M  V30 12533 H 1226.84 0.393934 2.96797 0
M  V30 12534 H 1224.39 0.190894 1.42729 0
M  V30 12535 H 1226.34 -1.91238 3.75508 0
M  V30 12536 H 1225.07 -2.074 2.52295 0
M  V30 12537 H 1223.73 -0.267538 3.65622 0
M  V30 12538 H 1223.37 -2.66779 4.26425 0
M  V30 12539 H 1223.07 -1.59585 5.65514 0
M  V30 12540 H 1224.6 -2.52343 5.56017 0
M  V30 12541 H 1226.01 -0.258144 5.72719 0
M  V30 12542 H 1224.41 0.491273 5.98086 0
M  V30 12543 H 1225.48 1.12414 4.7169 0
M  V30 12544 N 1226.82 -1.56058 0.219941 0
M  V30 12545 C 1228.06 -2.00162 -0.414063 0
M  V30 12546 C 1228.43 -1.10432 -1.57063 0
M  V30 12547 O 1229.63 -1.43877 -2.27053 0
M  V30 12548 C 1227.9 -3.47411 -0.839084 0
M  V30 12549 S 1229.46 -4.13536 -1.46742 0
M  V30 12550 H 1226.28 -0.698738 -0.131475 0
M  V30 12551 H 1228.88 -1.92714 0.32885 0
M  V30 12552 H 1227.58 -4.10398 0.0123666 0
M  V30 12553 H 1227.11 -3.58728 -1.61485 0
M  V30 12554 H 1229.13 -4.12592 -2.75648 0
M  V30 12555 N 1228.3 0.053464 -1.57509 0
M  V30 12556 C 1229.21 1.07902 -2.08313 0
M  V30 12557 C 1230.23 1.41223 -1.01647 0
M  V30 12558 O 1231.4 1.51032 -1.33233 0
M  V30 12559 C 1228.47 2.36813 -2.5322 0
M  V30 12560 C 1227.53 2.10297 -3.74264 0
M  V30 12561 C 1226.76 3.33062 -4.1702 0
M  V30 12562 O 1226.99 4.42857 -3.59491 0
M  V30 12563 O 1225.92 3.20195 -5.09665 0
M  V30 12564 H 1229.75 0.677368 -2.9605 0
M  V30 12565 H 1227.33 0.268838 -1.46961 0
M  V30 12566 H 1229.21 3.12645 -2.82544 0
M  V30 12567 H 1227.89 2.76323 -1.68605 0
M  V30 12568 H 1226.79 1.32111 -3.49996 0
M  V30 12569 H 1228.13 1.75658 -4.59788 0
M  V30 12570 N 1229.78 1.54207 0.325255 0
M  V30 12571 C 1231.01 1.76293 1.08298 0
M  V30 12572 C 1231.42 0.510722 1.81761 0
M  V30 12573 O 1230.78 -0.5185 1.7498 0
M  V30 12574 C 1230.83 2.95498 2.08238 0
M  V30 12575 O 1230.55 4.15877 1.37759 0
M  V30 12576 C 1232.05 3.29781 2.96242 0
M  V30 12577 H 1229.27 0.588576 0.322209 0
M  V30 12578 H 1231.82 2.0109 0.371896 0
M  V30 12579 H 1229.97 2.72979 2.74884 0
M  V30 12580 H 1230.39 4.82918 2.04672 0
M  V30 12581 H 1231.86 4.16495 3.62265 0
M  V30 12582 H 1232.34 2.46874 3.63249 0
M  V30 12583 H 1232.94 3.54372 2.3516 0
M  V30 12584 N 1231.26 -0.58723 1.46251 0
M  V30 12585 C 1232.53 -1.34727 1.41802 0
M  V30 12586 C 1232.91 -2.10867 0.0991354 0
M  V30 12587 O 1232.26 -2.09194 -0.919242 0
M  V30 12588 C 1232.47 -2.27706 2.64482 0
M  V30 12589 C 1233.82 -2.89678 3.10438 0
M  V30 12590 O 1234.84 -2.38021 2.64999 0
M  V30 12591 O 1233.7 -3.83493 3.89352 0
M  V30 12592 H 1230.8 -0.605119 0.563702 0
M  V30 12593 H 1233.34 -0.608623 1.5841 0
M  V30 12594 H 1232.12 -1.70842 3.52035 0
M  V30 12595 H 1231.74 -3.08918 2.50311 0
M  V30 12596 N 1232.74 -1.33881 -0.831482 0
M  V30 12597 C 1234.15 -1.13376 -1.1233 0
M  V30 12598 C 1234.35 0.0704402 -2.01377 0
M  V30 12599 O 1233.41 0.748516 -2.4115 0
M  V30 12600 C 1234.72 -2.42484 -1.77826 0
M  V30 12601 C 1236.27 -2.4846 -1.90359 0
M  V30 12602 C 1236.74 -3.77548 -2.59272 0
M  V30 12603 N 1238.23 -3.7866 -2.66778 0
M  V30 12604 C 1238.97 -4.75258 -3.20807 0
M  V30 12605 N 1238.47 -5.82234 -3.75466 0
M  V30 12606 N 1240.26 -4.62724 -3.19128 0
M  V30 12607 H 1232.41 -2.11051 -0.238998 0
M  V30 12608 H 1234.67 -0.932893 -0.168565 0
M  V30 12609 H 1234.38 -3.30647 -1.19857 0
M  V30 12610 H 1234.25 -2.55186 -2.77777 0
M  V30 12611 H 1236.64 -1.60742 -2.47479 0
M  V30 12612 H 1236.72 -2.39693 -0.893359 0
M  V30 12613 H 1236.36 -4.65651 -2.02808 0
M  V30 12614 H 1236.29 -3.83594 -3.60781 0
M  V30 12615 H 1238.79 -3.01351 -2.28026 0
M  V30 12616 H 1239.1 -6.51968 -4.14918 0
M  V30 12617 H 1237.44 -5.85959 -3.73733 0
M  V30 12618 H 1240.63 -3.78303 -2.75688 0
M  V30 12619 H 1240.81 -5.38175 -3.60932 0
M  V30 12620 N 1234.21 1.05064 -1.1747 0
M  V30 12621 C 1235.15 2.12334 -0.836028 0
M  V30 12622 C 1236.12 1.61393 0.197733 0
M  V30 12623 O 1237.31 1.88334 0.0789748 0
M  V30 12624 C 1234.44 3.37796 -0.24734 0
M  V30 12625 C 1233.48 4.07565 -1.25669 0
M  V30 12626 S 1234.31 4.55941 -2.80853 0
M  V30 12627 C 1235.47 5.84648 -2.23468 0
M  V30 12628 H 1235.7 2.40735 -1.74453 0
M  V30 12629 H 1233.24 1.17684 -0.999495 0
M  V30 12630 H 1235.19 4.1041 0.0858241 0
M  V30 12631 H 1233.86 3.07529 0.639124 0
M  V30 12632 H 1233.05 4.97715 -0.793465 0
M  V30 12633 H 1232.65 3.41022 -1.53557 0
M  V30 12634 H 1234.94 6.58067 -1.61104 0
M  V30 12635 H 1235.89 6.35719 -3.11877 0
M  V30 12636 H 1236.29 5.39272 -1.6687 0
M  V30 12637 N 1235.69 0.975146 1.23809 0
M  V30 12638 C 1236.97 0.557725 1.8748 0
M  V30 12639 C 1237.35 -0.965164 1.87744 0
M  V30 12640 O 1236.7 -1.83966 1.35531 0
M  V30 12641 C 1236.91 1.15777 3.29236 0
M  V30 12642 C 1238.25 1.24726 4.05868 0
M  V30 12643 O 1239.28 1.11084 3.38436 0
M  V30 12644 O 1238.14 1.46373 5.26533 0
M  V30 12645 H 1235.23 0.187045 0.80557 0
M  V30 12646 H 1237.78 1.06989 1.31725 0
M  V30 12647 H 1236.55 2.20023 3.23583 0
M  V30 12648 H 1236.17 0.630103 3.92575 0
M  V30 12649 N 1237.17 -1.38817 0.746158 0
M  V30 12650 C 1238.42 -1.99885 0.298425 0
M  V30 12651 C 1238.74 -1.59518 -1.12156 0
M  V30 12652 O 1238.01 -0.848568 -1.76568 0
M  V30 12653 H 1236.59 -0.739247 0.107347 0
M  V30 12654 H 1239.25 -1.69696 0.9586 0
M  V30 12655 H 1238.35 -3.10067 0.355656 0
M  V30 12656 N 1238.65 -0.49465 -1.49636 0
M  V30 12657 C 1239.61 0.276064 -2.27531 0
M  V30 12658 C 1240.61 0.899619 -1.3328 0
M  V30 12659 O 1241.8 0.765136 -1.56497 0
M  V30 12660 C 1238.93 1.39547 -3.1103 0
M  V30 12661 H 1240.13 -0.407381 -2.9712 0
M  V30 12662 H 1237.68 -0.249416 -1.54297 0
M  V30 12663 H 1238.41 2.11326 -2.45992 0
M  V30 12664 H 1238.2 0.953877 -3.8032 0
M  V30 12665 H 1239.69 1.93853 -3.69879 0
M  V30 12666 N 1240.13 1.55939 -0.228214 0
M  V30 12667 C 1241.37 1.9877 0.402272 0
M  V30 12668 C 1241.7 1.11587 1.5894 0
M  V30 12669 O 1240.98 0.175032 1.93711 0
M  V30 12670 C 1241.26 3.50396 0.830353 0
M  V30 12671 C 1241.12 4.4835 -0.360876 0
M  V30 12672 C 1242.43 4.06602 1.68413 0
M  V30 12673 H 1239.55 0.722646 0.144746 0
M  V30 12674 H 1242.2 1.87186 -0.325784 0
M  V30 12675 H 1240.35 3.60398 1.4507 0
M  V30 12676 H 1242.02 4.5035 -0.999113 0
M  V30 12677 H 1240.26 4.21946 -1.00719 0
M  V30 12678 H 1240.93 5.51997 -0.0183074 0
M  V30 12679 H 1243.41 3.99585 1.16064 0
M  V30 12680 H 1242.28 5.12998 1.95254 0
M  V30 12681 H 1242.54 3.53897 2.64971 0
M  V30 12682 N 1241.6 -0.0451101 1.57535 0
M  V30 12683 C 1242.83 -0.75132 1.92777 0
M  V30 12684 C 1243.25 -1.69743 0.826599 0
M  V30 12685 O 1242.6 -1.8142 -0.198224 0
M  V30 12686 C 1242.66 -1.52218 3.2789 0
M  V30 12687 O 1242.38 -0.614059 4.33775 0
M  V30 12688 C 1243.88 -2.32699 3.77314 0
M  V30 12689 H 1241.1 -0.21211 0.636593 0
M  V30 12690 H 1243.64 -0.0074174 2.04499 0
M  V30 12691 H 1241.8 -2.2181 3.17614 0
M  V30 12692 H 1242.21 -1.15294 5.11671 0
M  V30 12693 H 1243.68 -2.82205 4.7441 0
M  V30 12694 H 1244.16 -3.13414 3.07682 0
M  V30 12695 H 1244.77 -1.68212 3.90621 0
M  V30 12696 N 1243.08 -1.54377 -0.317073 0
M  V30 12697 C 1244.31 -1.77184 -1.07798 0
M  V30 12698 C 1244.73 -0.52204 -1.80711 0
M  V30 12699 O 1244.09 0.52672 -1.7348 0
M  V30 12700 C 1244.14 -2.96887 -2.04671 0
M  V30 12701 O 1243.24 -2.68887 -3.12688 0
M  V30 12702 H 1242.58 -0.586937 -0.310485 0
M  V30 12703 H 1245.11 -2.01419 -0.35939 0
M  V30 12704 H 1245.12 -3.24414 -2.47426 0
M  V30 12705 H 1243.8 -3.87518 -1.51005 0
M  V30 12706 H 1242.38 -2.52329 -2.74562 0
M  V30 12707 N 1244.56 0.579466 -1.4656 0
M  V30 12708 C 1245.81 1.33954 -1.52264 0
M  V30 12709 C 1246.14 1.93409 -0.175089 0
M  V30 12710 O 1245.41 1.76654 0.81385 0
M  V30 12711 C 1245.7 2.46645 -2.6237 0
M  V30 12712 C 1245.55 1.92204 -4.06667 0
M  V30 12713 C 1246.87 3.48676 -2.68538 0
M  V30 12714 H 1243.99 0.485697 -0.554317 0
M  V30 12715 H 1246.63 0.650639 -1.78512 0
M  V30 12716 H 1244.78 3.0541 -2.40119 0
M  V30 12717 H 1246.45 1.37871 -4.40215 0
M  V30 12718 H 1244.7 1.23012 -4.15993 0
M  V30 12719 H 1245.37 2.73566 -4.79443 0
M  V30 12720 H 1247.84 2.99798 -2.88549 0
M  V30 12721 H 1246.72 4.24981 -3.47394 0
M  V30 12722 H 1246.98 4.06112 -1.74716 0
M  V30 12723 N 1246.04 1.3432 0.824371 0
M  V30 12724 C 1247.27 1.29669 1.61226 0
M  V30 12725 C 1247.68 -0.129532 1.88355 0
M  V30 12726 O 1247.04 -1.07616 1.47394 0
M  V30 12727 C 1247.09 2.08375 2.95402 0
M  V30 12728 O 1246.81 3.45434 2.69456 0
M  V30 12729 C 1248.31 2.11103 3.89808 0
M  V30 12730 H 1245.53 0.446137 0.501201 0
M  V30 12731 H 1248.08 1.76912 1.02579 0
M  V30 12732 H 1246.23 1.64777 3.5061 0
M  V30 12733 H 1246.64 3.86101 3.55001 0
M  V30 12734 H 1248.12 2.706 4.81124 0
M  V30 12735 H 1248.6 1.10505 4.25071 0
M  V30 12736 H 1249.2 2.54784 3.40537 0
M  V30 12737 N 1247.52 -1.0444 1.18026 0
M  V30 12738 C 1248.77 -1.7697 0.9677 0
M  V30 12739 C 1249.08 -1.88995 -0.503994 0
M  V30 12740 O 1250.28 -2.58342 -0.834968 0
M  V30 12741 C 1248.74 -3.1816 1.68232 0
M  V30 12742 C 1248.35 -3.14241 3.19307 0
M  V30 12743 C 1250.09 -3.95095 1.55244 0
M  V30 12744 C 1248 -4.50266 3.83425 0
M  V30 12745 H 1246.93 -0.663355 0.358436 0
M  V30 12746 H 1249.58 -1.17003 1.4136 0
M  V30 12747 H 1247.96 -3.78501 1.16418 0
M  V30 12748 H 1249.14 -2.63373 3.78115 0
M  V30 12749 H 1247.45 -2.50805 3.32394 0
M  V30 12750 H 1250.05 -4.95681 2.00511 0
M  V30 12751 H 1250.39 -4.13236 0.504125 0
M  V30 12752 H 1250.92 -3.4132 2.04317 0
M  V30 12753 H 1247.66 -4.37329 4.88286 0
M  V30 12754 H 1247.18 -5.01251 3.29404 0
M  V30 12755 H 1248.86 -5.1919 3.86071 0
M  V30 12756 N 1248.99 -0.981699 -1.2329 0
M  V30 12757 C 1249.94 -0.52269 -2.24803 0
M  V30 12758 C 1250.91 0.439116 -1.6019 0
M  V30 12759 O 1252.1 0.346372 -1.8763 0
M  V30 12760 C 1249.24 0.167477 -3.44693 0
M  V30 12761 C 1248.35 -0.834744 -4.23858 0
M  V30 12762 C 1247.48 -0.119249 -5.31066 0
M  V30 12763 C 1246.52 -1.1106 -6.0194 0
M  V30 12764 N 1245.66 -0.424167 -7.00818 0
M  V30 12765 H 1250.5 -1.39312 -2.63431 0
M  V30 12766 H 1248.04 -0.698061 -1.29482 0
M  V30 12767 H 1250 0.584442 -4.13086 0
M  V30 12768 H 1248.63 1.00177 -3.06862 0
M  V30 12769 H 1247.68 -1.37009 -3.5487 0
M  V30 12770 H 1248.99 -1.59012 -4.72776 0
M  V30 12771 H 1248.14 0.355015 -6.0566 0
M  V30 12772 H 1246.88 0.668714 -4.83094 0
M  V30 12773 H 1245.89 -1.5956 -5.26138 0
M  V30 12774 H 1247.11 -1.89924 -6.52001 0
M  V30 12775 H 1245.06 0.344564 -6.55094 0
M  V30 12776 H 1244.98 -1.11817 -7.47685 0
M  V30 12777 H 1246.24 0.0276655 -7.79495 0
M  V30 12778 N 1250.47 1.3842 -0.753509 0
M  V30 12779 C 1251.7 2.04929 -0.319174 0
M  V30 12780 C 1252.12 1.56457 1.04416 0
M  V30 12781 O 1251.48 0.716527 1.6654 0
M  V30 12782 C 1251.53 3.58887 -0.351054 0
M  V30 12783 O 1250.63 4.07166 0.654963 0
M  V30 12784 H 1249.97 0.648782 -0.141343 0
M  V30 12785 H 1252.5 1.77096 -1.02461 0
M  V30 12786 H 1252.51 4.075 -0.201907 0
M  V30 12787 H 1251.19 3.93525 -1.34576 0
M  V30 12788 H 1249.77 3.69921 0.470435 0
M  V30 12789 N 1251.95 0.502579 1.49372 0
M  V30 12790 C 1252.86 -0.279532 2.32929 0
M  V30 12791 C 1253.88 -0.965806 1.44735 0
M  V30 12792 O 1255.05 -0.946839 1.77755 0
M  V30 12793 C 1252.12 -1.32913 3.20211 0
M  V30 12794 C 1251.18 -0.656121 4.24256 0
M  V30 12795 C 1250.41 -1.65571 5.07368 0
M  V30 12796 O 1250.63 -2.88571 4.92019 0
M  V30 12797 O 1249.57 -1.21016 5.89609 0
M  V30 12798 H 1253.39 0.404427 3.00995 0
M  V30 12799 H 1250.98 0.263888 1.47051 0
M  V30 12800 H 1252.86 -1.93635 3.74277 0
M  V30 12801 H 1251.54 -1.99598 2.54837 0
M  V30 12802 H 1250.44 -0.00911489 3.74099 0
M  V30 12803 H 1251.78 -0.0316802 4.9219 0
M  V30 12804 N 1253.43 -1.55816 0.23648 0
M  V30 12805 C 1254.68 -1.97862 -0.391579 0
M  V30 12806 C 1254.99 -1.1276 -1.59827 0
M  V30 12807 O 1256.2 -1.44772 -2.29681 0
M  V30 12808 C 1254.65 -3.5204 -0.748065 0
M  V30 12809 C 1254.26 -4.45867 0.436643 0
M  V30 12810 C 1256 -4.02766 -1.3409 0
M  V30 12811 C 1253.91 -5.91373 0.0568909 0
M  V30 12812 H 1252.84 -0.738913 -0.150078 0
M  V30 12813 H 1255.49 -1.80415 0.335052 0
M  V30 12814 H 1253.87 -3.65143 -1.53254 0
M  V30 12815 H 1255.05 -4.44519 1.21408 0
M  V30 12816 H 1253.36 -4.05565 0.943702 0
M  V30 12817 H 1255.96 -5.08987 -1.63817 0
M  V30 12818 H 1256.3 -3.49496 -2.26182 0
M  V30 12819 H 1256.84 -3.92946 -0.619548 0
M  V30 12820 H 1253.58 -6.48657 0.944682 0
M  V30 12821 H 1253.1 -5.95881 -0.684557 0
M  V30 12822 H 1254.77 -6.45972 -0.364586 0
M  V30 12823 N 1254.91 0.036755 -1.57557 0
M  V30 12824 C 1255.84 1.03939 -2.09091 0
M  V30 12825 C 1256.82 1.38196 -0.991761 0
M  V30 12826 O 1258 1.47214 -1.26656 0
M  V30 12827 C 1255.13 2.34263 -2.56394 0
M  V30 12828 C 1254.09 2.14269 -3.70504 0
M  V30 12829 C 1253.41 3.50286 -4.03985 0
M  V30 12830 C 1254.71 1.53514 -4.9923 0
M  V30 12831 H 1256.41 0.610429 -2.93111 0
M  V30 12832 H 1253.95 0.292183 -1.41005 0
M  V30 12833 H 1255.91 3.04727 -2.91066 0
M  V30 12834 H 1254.63 2.79205 -1.69447 0
M  V30 12835 H 1253.29 1.46239 -3.36169 0
M  V30 12836 H 1252.94 3.92861 -3.14116 0
M  V30 12837 H 1252.64 3.37735 -4.80842 0
M  V30 12838 H 1254.16 4.22124 -4.41184 0
M  V30 12839 H 1255.57 2.13885 -5.31908 0
M  V30 12840 H 1253.97 1.51561 -5.80646 0
M  V30 12841 H 1255.04 0.500126 -4.82314 0
M  V30 12842 N 1256.39 1.54543 0.308881 0
M  V30 12843 C 1257.8 1.64532 0.882392 0
M  V30 12844 C 1258.15 0.54886 1.88367 0
M  V30 12845 O 1257.27 -0.315832 2.14083 0
M  V30 12846 C 1257.87 2.98251 1.60722 0
M  V30 12847 C 1256.43 3.10387 2.12925 0
M  V30 12848 C 1255.57 2.60176 0.959362 0
M  V30 12849 H 1258.52 1.58466 0.0860803 0
M  V30 12850 H 1258.55 2.89233 2.47233 0
M  V30 12851 H 1258.06 3.78033 0.878233 0
M  V30 12852 H 1256.16 2.35309 2.88895 0
M  V30 12853 H 1256.27 4.16421 2.36918 0
M  V30 12854 H 1254.64 2.16434 1.3427 0
M  V30 12855 H 1255.42 3.42429 0.244454 0
M  V30 12856 N 1257.86 -0.571685 1.46866 0
M  V30 12857 C 1258.83 -1.66198 1.57832 0
M  V30 12858 C 1259.83 -1.54242 0.454547 0
M  V30 12859 O 1261.02 -1.58661 0.719191 0
M  V30 12860 C 1258.15 -3.05678 1.5091 0
M  V30 12861 H 1259.34 -1.57829 2.5501 0
M  V30 12862 H 1256.89 -0.790433 1.3484 0
M  V30 12863 H 1257.63 -3.19593 0.550529 0
M  V30 12864 H 1257.41 -3.15765 2.32454 0
M  V30 12865 H 1258.9 -3.85027 1.61692 0
M  V30 12866 N 1259.34 -1.34755 -0.817236 0
M  V30 12867 C 1260.57 -1.30676 -1.61054 0
M  V30 12868 C 1260.99 0.115343 -1.87746 0
M  V30 12869 O 1260.35 1.07887 -1.45705 0
M  V30 12870 C 1260.4 -2.10881 -2.92509 0
M  V30 12871 O 1259.5 -1.48223 -3.84842 0
M  V30 12872 H 1258.84 -0.448531 -0.489608 0
M  V30 12873 H 1261.37 -1.77642 -1.01512 0
M  V30 12874 H 1261.38 -2.22446 -3.42026 0
M  V30 12875 H 1260.06 -3.14274 -2.72406 0
M  V30 12876 H 1258.63 -1.45434 -3.4337 0
M  V30 12877 N 1260.82 1.03812 -1.18578 0
M  V30 12878 C 1261.75 2.13802 -0.938665 0
M  V30 12879 C 1262.73 1.69643 0.124575 0
M  V30 12880 O 1263.92 1.94179 -0.0285421 0
M  V30 12881 C 1261.05 3.44154 -0.466392 0
M  V30 12882 C 1260 4.01949 -1.47041 0
M  V30 12883 C 1259.33 5.27811 -0.855558 0
M  V30 12884 C 1260.63 4.37827 -2.84789 0
M  V30 12885 H 1262.32 2.34732 -1.85852 0
M  V30 12886 H 1259.87 1.12808 -0.895007 0
M  V30 12887 H 1261.82 4.20463 -0.280856 0
M  V30 12888 H 1260.54 3.22918 0.489041 0
M  V30 12889 H 1259.2 3.27725 -1.64293 0
M  V30 12890 H 1258.85 5.02886 0.107142 0
M  V30 12891 H 1258.55 5.67441 -1.52592 0
M  V30 12892 H 1260.07 6.06795 -0.680609 0
M  V30 12893 H 1261.49 5.05112 -2.71173 0
M  V30 12894 H 1259.88 4.88514 -3.48532 0
M  V30 12895 H 1260.95 3.47541 -3.38147 0
M  V30 12896 N 1262.3 0.988223 1.22768 0
M  V30 12897 C 1263.23 0.492919 2.23837 0
M  V30 12898 C 1264.24 -0.409467 1.57567 0
M  V30 12899 O 1265.43 -0.21235 1.77232 0
M  V30 12900 C 1262.53 -0.305428 3.37521 0
M  V30 12901 C 1261.7 0.591966 4.33376 0
M  V30 12902 C 1260.76 -0.15387 5.25975 0
M  V30 12903 O 1259.79 0.459153 5.67345 0
M  V30 12904 N 1260.99 -1.43756 5.62418 0
M  V30 12905 H 1263.76 1.36199 2.66965 0
M  V30 12906 H 1261.32 0.862395 1.3702 0
M  V30 12907 H 1263.31 -0.812921 3.96451 0
M  V30 12908 H 1261.88 -1.07556 2.93514 0
M  V30 12909 H 1261.1 1.28019 3.72833 0
M  V30 12910 H 1262.39 1.20327 4.94367 0
M  V30 12911 H 1261.79 -1.95701 5.30771 0
M  V30 12912 H 1260.34 -1.89034 6.23786 0
M  V30 12913 N 1263.78 -1.38018 0.760839 0
M  V30 12914 C 1265 -2.04757 0.330038 0
M  V30 12915 C 1265.43 -1.57009 -1.03585 0
M  V30 12916 O 1264.78 -0.725349 -1.66158 0
M  V30 12917 C 1264.83 -3.58696 0.370082 0
M  V30 12918 O 1263.94 -4.07507 -0.633361 0
M  V30 12919 H 1263.28 -0.648023 0.144782 0
M  V30 12920 H 1265.81 -1.7655 1.03399 0
M  V30 12921 H 1265.82 -4.07387 0.223515 0
M  V30 12922 H 1264.49 -3.92806 1.36661 0
M  V30 12923 H 1263.07 -3.70165 -0.45081 0
M  V30 12924 N 1265.25 -0.510493 -1.49103 0
M  V30 12925 C 1266.22 0.251915 -2.27811 0
M  V30 12926 C 1267.22 0.885432 -1.34226 0
M  V30 12927 O 1268.41 0.748494 -1.573 0
M  V30 12928 C 1265.54 1.3624 -3.12492 0
M  V30 12929 H 1266.73 -0.438872 -2.96671 0
M  V30 12930 H 1264.28 -0.265767 -1.54024 0
M  V30 12931 H 1265.02 2.08705 -2.48219 0
M  V30 12932 H 1264.8 0.913485 -3.81311 0
M  V30 12933 H 1266.29 1.89919 -3.71915 0
M  V30 12934 N 1266.73 1.55688 -0.24474 0
M  V30 12935 C 1267.96 2.0329 0.384808 0
M  V30 12936 C 1268.37 1.12405 1.51692 0
M  V30 12937 O 1267.73 0.138056 1.81977 0
M  V30 12938 C 1267.78 3.50255 0.894635 0
M  V30 12939 O 1267.5 4.37677 -0.192365 0
M  V30 12940 C 1269 4.13608 1.59509 0
M  V30 12941 H 1266.22 0.664706 0.0916908 0
M  V30 12942 H 1268.77 2.01162 -0.367973 0
M  V30 12943 H 1266.92 3.52924 1.5976 0
M  V30 12944 H 1267.34 5.2414 0.194424 0
M  V30 12945 H 1268.81 5.1814 1.90356 0
M  V30 12946 H 1269.29 3.5997 2.51631 0
M  V30 12947 H 1269.89 4.14856 0.936749 0
M  V30 12948 N 1268.21 -0.0283989 1.57574 0
M  V30 12949 C 1269.17 -1.01346 2.05576 0
M  V30 12950 C 1270.17 -1.28999 0.960001 0
M  V30 12951 O 1271.36 -1.23991 1.2236 0
M  V30 12952 C 1268.49 -2.34611 2.47327 0
M  V30 12953 H 1269.69 -0.598809 2.93861 0
M  V30 12954 H 1267.24 -0.27524 1.53857 0
M  V30 12955 H 1267.98 -2.80823 1.622 0
M  V30 12956 H 1267.76 -2.1587 3.27326 0
M  V30 12957 H 1269.25 -3.05332 2.84889 0
M  V30 12958 N 1269.69 -1.54705 -0.300681 0
M  V30 12959 C 1271.1 -1.45926 -0.646359 0
M  V30 12960 C 1271.3 -0.65072 -1.90704 0
M  V30 12961 O 1270.36 -0.158547 -2.52002 0
M  V30 12962 C 1271.67 -2.89889 -0.799059 0
M  V30 12963 C 1273.22 -2.99934 -0.894923 0
M  V30 12964 C 1273.7 -4.45093 -1.07962 0
M  V30 12965 N 1275.19 -4.48804 -1.14581 0
M  V30 12966 C 1275.92 -5.58305 -1.30702 0
M  V30 12967 N 1275.42 -6.77729 -1.43719 0
M  V30 12968 N 1277.21 -5.45994 -1.33593 0
M  V30 12969 H 1269.36 -2.05742 0.527617 0
M  V30 12970 H 1271.62 -0.931817 0.174415 0
M  V30 12971 H 1271.33 -3.51655 0.0563954 0
M  V30 12972 H 1271.2 -3.37325 -1.68796 0
M  V30 12973 H 1273.59 -2.38281 -1.74086 0
M  V30 12974 H 1273.67 -2.55794 0.0179973 0
M  V30 12975 H 1273.32 -5.0734 -0.238444 0
M  V30 12976 H 1273.25 -4.86864 -2.00677 0
M  V30 12977 H 1275.74 -3.62766 -1.05874 0
M  V30 12978 H 1276.05 -7.56937 -1.55776 0
M  V30 12979 H 1274.4 -6.80594 -1.40774 0
M  V30 12980 H 1277.59 -4.51641 -1.23035 0
M  V30 12981 H 1277.76 -6.31381 -1.45813 0
M  V30 12982 N 1271.17 0.563888 -1.47167 0
M  V30 12983 C 1272.58 1.14603 -1.47388 0
M  V30 12984 C 1272.93 1.94907 -0.224916 0
M  V30 12985 O 1272.05 2.05745 0.670672 0
M  V30 12986 C 1272.65 2.08501 -2.67044 0
M  V30 12987 C 1271.21 2.62 -2.70246 0
M  V30 12988 C 1270.35 1.38244 -2.40383 0
M  V30 12989 H 1273.31 0.350833 -1.54774 0
M  V30 12990 H 1273.33 2.92272 -2.43634 0
M  V30 12991 H 1272.84 1.50027 -3.57929 0
M  V30 12992 H 1270.94 3.24292 -1.83482 0
M  V30 12993 H 1271.05 3.0345 -3.70749 0
M  V30 12994 H 1269.42 1.68692 -1.90827 0
M  V30 12995 H 1270.2 0.815726 -3.33468 0
M  V30 12996 N 1272.64 1.35187 0.810078 0
M  V30 12997 C 1273.87 1.31371 1.59841 0
M  V30 12998 C 1274.29 -0.109547 1.88482 0
M  V30 12999 O 1273.64 -1.06047 1.48527 0
M  V30 13000 C 1273.7 2.11496 2.93175 0
M  V30 13001 O 1273.42 3.48273 2.65777 0
M  V30 13002 C 1274.92 2.15226 3.87547 0
M  V30 13003 H 1272.14 0.451428 0.496441 0
M  V30 13004 H 1274.68 1.7799 1.00697 0
M  V30 13005 H 1272.84 1.68486 3.48843 0
M  V30 13006 H 1273.25 3.89845 3.50886 0
M  V30 13007 H 1274.72 2.75687 4.78226 0
M  V30 13008 H 1275.2 1.15007 4.23875 0
M  V30 13009 H 1275.81 2.58382 3.37815 0
M  V30 13010 N 1274.12 -1.03182 1.19127 0
M  V30 13011 C 1275.35 -1.80703 1.01791 0
M  V30 13012 C 1275.77 -1.83147 -0.428824 0
M  V30 13013 O 1275.13 -1.2553 -1.30812 0
M  V30 13014 C 1275.18 -3.23754 1.58794 0
M  V30 13015 O 1274.28 -4.04261 0.815274 0
M  V30 13016 H 1273.62 -0.557944 0.359992 0
M  V30 13017 H 1276.15 -1.29887 1.58084 0
M  V30 13018 H 1276.16 -3.7451 1.61884 0
M  V30 13019 H 1274.84 -3.2129 2.64094 0
M  V30 13020 H 1273.42 -3.62909 0.857392 0
M  V30 13021 N 1275.6 -0.99472 -1.22242 0
M  V30 13022 C 1277.02 -0.705762 -1.43147 0
M  V30 13023 C 1277.22 0.722908 -1.88086 0
M  V30 13024 O 1276.27 1.49359 -2.03588 0
M  V30 13025 C 1277.59 -1.71288 -2.47145 0
M  V30 13026 C 1279.13 -1.72853 -2.60942 0
M  V30 13027 C 1279.61 -2.72433 -3.68163 0
M  V30 13028 N 1281.1 -2.71039 -3.75623 0
M  V30 13029 C 1281.83 -3.44753 -4.58184 0
M  V30 13030 N 1281.33 -4.28075 -5.44724 0
M  V30 13031 N 1283.12 -3.33451 -4.52512 0
M  V30 13032 H 1275.27 -1.91738 -0.913792 0
M  V30 13033 H 1277.54 -0.82702 -0.463403 0
M  V30 13034 H 1277.24 -2.7353 -2.21075 0
M  V30 13035 H 1277.12 -1.50721 -3.45779 0
M  V30 13036 H 1279.5 -0.713085 -2.86355 0
M  V30 13037 H 1279.59 -1.9749 -1.62577 0
M  V30 13038 H 1279.23 -3.74129 -3.43497 0
M  V30 13039 H 1279.16 -2.45066 -4.66101 0
M  V30 13040 H 1281.65 -2.10581 -3.1379 0
M  V30 13041 H 1281.96 -4.81143 -6.04749 0
M  V30 13042 H 1280.31 -4.32161 -5.44299 0
M  V30 13043 H 1283.5 -2.67797 -3.8393 0
M  V30 13044 H 1283.67 -3.91158 -5.16623 0
M  V30 13045 N 1277.08 1.37613 -0.768148 0
M  V30 13046 C 1278.01 2.3291 -0.165911 0
M  V30 13047 C 1278.99 1.556 0.687205 0
M  V30 13048 O 1280.17 1.83854 0.625407 0
M  V30 13049 C 1277.3 3.39822 0.7168 0
M  V30 13050 C 1276.26 4.27986 -0.0347264 0
M  V30 13051 C 1275.58 5.2588 0.967192 0
M  V30 13052 C 1276.88 5.08052 -1.21164 0
M  V30 13053 H 1278.58 2.83524 -0.962006 0
M  V30 13054 H 1276.12 1.36318 -0.464051 0
M  V30 13055 H 1278.08 4.05464 1.14789 0
M  V30 13056 H 1276.8 2.87725 1.54538 0
M  V30 13057 H 1275.46 3.6387 -0.446557 0
M  V30 13058 H 1275.11 4.70064 1.79022 0
M  V30 13059 H 1274.81 5.85726 0.468913 0
M  V30 13060 H 1276.33 5.94397 1.3973 0
M  V30 13061 H 1277.75 5.66853 -0.857373 0
M  V30 13062 H 1276.14 5.77206 -1.64176 0
M  V30 13063 H 1277.21 4.40936 -2.0175 0
M  V30 13064 N 1278.56 0.518393 1.4883 0
M  V30 13065 C 1279.5 -0.264197 2.31095 0
M  V30 13066 C 1280.5 -0.946455 1.40494 0
M  V30 13067 O 1281.7 -0.872161 1.57459 0
M  V30 13068 H 1278.08 -0.104065 0.744765 0
M  V30 13069 H 1280.05 0.449375 2.94997 0
M  V30 13070 C 1278.8 -1.30527 3.2227 0
M  V30 13071 H 1278.12 -0.789695 3.91923 0
M  V30 13072 H 1279.56 -1.82449 3.82738 0
M  V30 13073 C 1278.02 -2.33274 2.43073 0
M  V30 13074 O 1278.55 -3.39493 2.14726 0
M  V30 13075 N 1276.76 -2.06189 2.04779 0
M  V30 13076 H 1276.3 -1.19829 2.28033 0
M  V30 13077 H 1276.26 -2.7516 1.521 0
M  V30 13078 N 1280.03 -1.55556 0.252993 0
M  V30 13079 C 1281.45 -1.59276 -0.101714 0
M  V30 13080 C 1281.65 -1.27018 -1.56424 0
M  V30 13081 O 1280.71 -1.02042 -2.30963 0
M  V30 13082 C 1282.02 -2.99634 0.252969 0
M  V30 13083 C 1283.57 -3.12375 0.197767 0
M  V30 13084 C 1284.04 -4.54963 0.52657 0
M  V30 13085 N 1285.53 -4.60734 0.477296 0
M  V30 13086 C 1286.27 -5.69052 0.704793 0
M  V30 13087 N 1285.76 -6.85607 0.99574 0
M  V30 13088 N 1287.56 -5.58501 0.635086 0
M  V30 13089 H 1279.71 -1.74793 1.2067 0
M  V30 13090 H 1281.97 -0.813971 0.485958 0
M  V30 13091 H 1281.68 -3.27998 1.26926 0
M  V30 13092 H 1281.55 -3.74888 -0.416984 0
M  V30 13093 H 1283.94 -2.83788 -0.809209 0
M  V30 13094 H 1284.02 -2.39382 0.901659 0
M  V30 13095 H 1283.66 -4.84271 1.53113 0
M  V30 13096 H 1283.59 -5.26224 -0.198869 0
M  V30 13097 H 1286.08 -3.76995 0.261398 0
M  V30 13098 H 1286.4 -7.64096 1.15659 0
M  V30 13099 H 1284.74 -6.87276 1.03328 0
M  V30 13100 H 1287.93 -4.6632 0.407789 0
M  V30 13101 H 1288.11 -6.42845 0.815777 0
M  V30 13102 N 1281.51 0.0200419 -1.57587 0
M  V30 13103 C 1282.44 1.01715 -2.10181 0
M  V30 13104 C 1283.42 1.37136 -1.00636 0
M  V30 13105 O 1284.61 1.45862 -1.2821 0
M  V30 13106 C 1281.74 2.31531 -2.58865 0
M  V30 13107 C 1280.69 2.10327 -3.72755 0
M  V30 13108 C 1280.02 3.45981 -4.07678 0
M  V30 13109 C 1281.32 1.4821 -5.0083 0
M  V30 13110 H 1283.01 0.579307 -2.93742 0
M  V30 13111 H 1280.56 0.277211 -1.41307 0
M  V30 13112 H 1282.51 3.01623 -2.94281 0
M  V30 13113 H 1281.24 2.77392 -1.72399 0
M  V30 13114 H 1279.89 1.42665 -3.37701 0
M  V30 13115 H 1279.54 3.89508 -3.18265 0
M  V30 13116 H 1279.24 3.32616 -4.84397 0
M  V30 13117 H 1280.77 4.17421 -4.45637 0
M  V30 13118 H 1282.18 2.08232 -5.34146 0
M  V30 13119 H 1280.58 1.45393 -5.82221 0
M  V30 13120 H 1281.65 0.448942 -4.82817 0
M  V30 13121 N 1282.99 1.54862 0.292472 0
M  V30 13122 C 1284.4 1.65459 0.864891 0
M  V30 13123 C 1284.75 0.568808 1.87774 0
M  V30 13124 O 1283.88 -0.293107 2.14406 0
M  V30 13125 C 1284.47 2.99939 1.5755 0
M  V30 13126 C 1283.03 3.12628 2.09621 0
M  V30 13127 C 1282.18 2.61179 0.931713 0
M  V30 13128 H 1285.13 1.58549 0.0692679 0
M  V30 13129 H 1285.15 2.91839 2.44152 0
M  V30 13130 H 1284.66 3.78943 0.838088 0
M  V30 13131 H 1282.76 2.3836 2.86383 0
M  V30 13132 H 1282.88 4.18911 2.32488 0
M  V30 13133 H 1281.24 2.17846 1.31967 0
M  V30 13134 H 1282.02 3.42669 0.208121 0
M  V30 13135 N 1284.47 -0.556076 1.47464 0
M  V30 13136 C 1285.38 -1.69043 1.62671 0
M  V30 13137 C 1286.39 -1.66372 0.509535 0
M  V30 13138 O 1287.57 -1.85799 0.777218 0
M  V30 13139 C 1284.64 -3.05546 1.63836 0
M  V30 13140 C 1283.7 -3.19275 2.86988 0
M  V30 13141 C 1282.93 -4.49267 2.88088 0
M  V30 13142 O 1283.15 -5.34796 1.98368 0
M  V30 13143 O 1282.09 -4.66811 3.79962 0
M  V30 13144 H 1285.91 -1.59155 2.58657 0
M  V30 13145 H 1283.5 -0.726211 1.30562 0
M  V30 13146 H 1285.38 -3.86778 1.67275 0
M  V30 13147 H 1284.05 -3.15814 0.710173 0
M  V30 13148 H 1282.96 -2.37437 2.89093 0
M  V30 13149 H 1284.29 -3.13912 3.79104 0
M  V30 13150 N 1285.95 -1.35615 -0.802897 0
M  V30 13151 C 1286.88 -1.31506 -1.92947 0
M  V30 13152 C 1287.86 -0.188843 -1.69048 0
M  V30 13153 O 1289.04 -0.384384 -1.90358 0
M  V30 13154 C 1286.17 -1.09001 -3.29752 0
M  V30 13155 C 1285.13 -2.18303 -3.68141 0
M  V30 13156 C 1284.45 -1.80959 -5.03148 0
M  V30 13157 C 1285.75 -3.60296 -3.78132 0
M  V30 13158 H 1287.45 -2.25771 -1.96642 0
M  V30 13159 H 1284.99 -1.08682 -0.944685 0
M  V30 13160 H 1286.95 -1.04766 -4.08169 0
M  V30 13161 H 1285.67 -0.111832 -3.26408 0
M  V30 13162 H 1284.33 -2.21642 -2.92011 0
M  V30 13163 H 1283.98 -0.817495 -4.96312 0
M  V30 13164 H 1283.68 -2.54129 -5.29804 0
M  V30 13165 H 1285.2 -1.78255 -5.84001 0
M  V30 13166 H 1286.62 -3.59259 -4.46773 0
M  V30 13167 H 1285.01 -4.32258 -4.16261 0
M  V30 13168 H 1286.08 -3.9618 -2.79588 0
M  V30 13169 N 1287.43 1.02549 -1.19673 0
M  V30 13170 C 1288.34 2.14373 -0.952972 0
M  V30 13171 C 1289.35 1.73776 0.0881727 0
M  V30 13172 O 1290.53 2.01165 -0.0972471 0
M  V30 13173 C 1287.59 3.43096 -0.498569 0
M  V30 13174 C 1286.65 3.97987 -1.60951 0
M  V30 13175 C 1285.89 5.20567 -1.17669 0
M  V30 13176 O 1286.11 5.70385 -0.0416636 0
M  V30 13177 O 1285.04 5.6838 -1.98059 0
M  V30 13178 H 1288.87 2.378 -1.88904 0
M  V30 13179 H 1286.45 1.12781 -0.979836 0
M  V30 13180 H 1288.34 4.20634 -0.253968 0
M  V30 13181 H 1287.01 3.21105 0.409018 0
M  V30 13182 H 1285.92 3.21768 -1.90829 0
M  V30 13183 H 1287.25 4.24349 -2.49377 0
M  V30 13184 N 1288.9 1.00119 1.21713 0
M  V30 13185 C 1289.83 0.578504 2.2622 0
M  V30 13186 C 1290.81 -0.398777 1.6536 0
M  V30 13187 O 1292 -0.287596 1.92059 0
M  V30 13188 C 1289.13 -0.0994508 3.47158 0
M  V30 13189 C 1288.08 0.79722 4.2051 0
M  V30 13190 C 1287.41 -0.0141125 5.34698 0
M  V30 13191 C 1288.71 2.09802 4.7831 0
M  V30 13192 H 1290.4 1.45208 2.6183 0
M  V30 13193 H 1287.95 0.699656 1.2586 0
M  V30 13194 H 1289.9 -0.406605 4.19434 0
M  V30 13195 H 1288.63 -1.00763 3.10667 0
M  V30 13196 H 1287.29 1.08814 3.50079 0
M  V30 13197 H 1286.93 -0.923468 4.9445 0
M  V30 13198 H 1286.63 0.582883 5.84702 0
M  V30 13199 H 1288.16 -0.31517 6.09786 0
M  V30 13200 H 1289.57 1.85427 5.42485 0
M  V30 13201 H 1287.97 2.64455 5.38687 0
M  V30 13202 H 1289.04 2.77132 3.97902 0
M  V30 13203 N 1290.38 -1.37203 0.775435 0
M  V30 13204 C 1291.29 -2.34019 0.165062 0
M  V30 13205 C 1292.31 -1.6036 -0.675316 0
M  V30 13206 O 1293.48 -1.9243 -0.594375 0
M  V30 13207 C 1290.55 -3.3954 -0.700957 0
M  V30 13208 C 1289.61 -4.29015 0.156304 0
M  V30 13209 C 1288.84 -5.29497 -0.668476 0
M  V30 13210 O 1289.07 -5.37636 -1.90535 0
M  V30 13211 O 1288 -6.01852 -0.0757351 0
M  V30 13212 H 1291.83 -2.87955 0.965184 0
M  V30 13213 H 1289.41 -1.39429 0.536654 0
M  V30 13214 H 1291.29 -4.04094 -1.19524 0
M  V30 13215 H 1289.97 -2.87926 -1.4792 0
M  V30 13216 H 1288.87 -3.67549 0.69703 0
M  V30 13217 H 1290.21 -4.83944 0.897725 0
M  V30 13218 N 1291.86 -0.526279 -1.48553 0
M  V30 13219 C 1292.82 0.227739 -2.28066 0
M  V30 13220 C 1293.82 0.871146 -1.35158 0
M  V30 13221 O 1295.01 0.731769 -1.58085 0
M  V30 13222 C 1292.14 1.32918 -3.1392 0
M  V30 13223 H 1293.34 -0.470313 -2.96189 0
M  V30 13224 H 1290.89 -0.282089 -1.53733 0
M  V30 13225 H 1291.63 2.0606 -2.50419 0
M  V30 13226 H 1291.41 0.872991 -3.82258 0
M  V30 13227 H 1292.9 1.85964 -3.73908 0
M  V30 13228 N 1293.34 1.5542 -0.261239 0
M  V30 13229 C 1294.59 1.9846 0.360052 0
M  V30 13230 C 1294.9 1.15288 1.58013 0
M  V30 13231 O 1296.11 1.48408 2.27348 0
M  V30 13232 C 1294.56 3.53185 0.691964 0
M  V30 13233 C 1294.17 4.45116 -0.507521 0
M  V30 13234 C 1295.91 4.04848 1.27665 0
M  V30 13235 C 1293.82 5.91207 -0.150966 0
M  V30 13236 H 1292.75 0.741207 0.138303 0
M  V30 13237 H 1295.4 1.79859 -0.363712 0
M  V30 13238 H 1293.78 3.67535 1.47425 0
M  V30 13239 H 1294.96 4.42531 -1.28465 0
M  V30 13240 H 1293.27 4.04013 -1.0081 0
M  V30 13241 H 1295.87 5.11529 1.55699 0
M  V30 13242 H 1296.21 3.5305 2.20593 0
M  V30 13243 H 1296.75 3.93882 0.556955 0
M  V30 13244 H 1293.48 6.47072 -1.04776 0
M  V30 13245 H 1293 5.96894 0.589671 0
M  V30 13246 H 1294.68 6.4647 0.261772 0
M  V30 13247 N 1294.82 -0.0116844 1.57596 0
M  V30 13248 C 1296.09 -0.735344 1.81251 0
M  V30 13249 C 1296.47 -1.92634 0.863446 0
M  V30 13250 O 1295.82 -2.28321 -0.0905028 0
M  V30 13251 C 1296.03 -1.15206 3.29437 0
M  V30 13252 C 1297.38 -1.56078 3.94873 0
M  V30 13253 O 1298.4 -1.24618 3.3369 0
M  V30 13254 O 1297.26 -2.14534 5.0263 0
M  V30 13255 H 1294.36 -0.357044 0.745955 0
M  V30 13256 H 1296.9 0.0128733 1.69695 0
M  V30 13257 H 1295.67 -0.302619 3.90128 0
M  V30 13258 H 1295.3 -1.95975 3.45947 0
M  V30 13259 N 1296.29 -1.55015 -0.284256 0
M  V30 13260 C 1297.24 -1.87898 -1.37102 0
M  V30 13261 C 1298.24 -0.754231 -1.51683 0
M  V30 13262 O 1299.44 -0.93844 -1.53601 0
M  V30 13263 H 1295.82 -0.596208 -0.458301 0
M  V30 13264 H 1297.79 -2.78704 -1.06613 0
M  V30 13265 C 1296.54 -2.15764 -2.72656 0
M  V30 13266 H 1295.86 -3.01792 -2.62224 0
M  V30 13267 H 1297.3 -2.42701 -3.47667 0
M  V30 13268 C 1295.76 -0.961561 -3.22886 0
M  V30 13269 O 1296.29 -0.190489 -4.01248 0
M  V30 13270 N 1294.49 -0.762338 -2.80422 0
M  V30 13271 H 1294.04 -1.39104 -2.16813 0
M  V30 13272 H 1294 0.0363482 -3.14379 0
M  V30 13273 N 1297.77 0.548248 -1.47757 0
M  V30 13274 C 1298.7 1.66999 -1.56984 0
M  V30 13275 C 1299.72 1.56302 -0.455372 0
M  V30 13276 O 1300.91 1.63096 -0.725399 0
M  V30 13277 C 1298.01 3.0553 -1.46645 0
M  V30 13278 C 1297.18 3.41892 -2.72816 0
M  V30 13279 C 1296.24 4.59624 -2.56187 0
M  V30 13280 O 1295.26 4.63757 -3.30028 0
M  V30 13281 N 1296.47 5.56675 -1.64601 0
M  V30 13282 H 1299.23 1.59527 -2.53715 0
M  V30 13283 H 1296.79 0.735101 -1.44249 0
M  V30 13284 H 1298.78 3.82137 -1.33242 0
M  V30 13285 H 1297.35 3.0718 -0.57961 0
M  V30 13286 H 1296.57 2.54644 -3.00916 0
M  V30 13287 H 1297.86 3.62965 -3.56559 0
M  V30 13288 H 1297.26 5.561 -1.03778 0
M  V30 13289 H 1295.82 6.32573 -1.57146 0
M  V30 13290 N 1299.25 1.36039 0.795694 0
M  V30 13291 C 1300.5 1.29919 1.5533 0
M  V30 13292 C 1300.82 -0.123325 1.94109 0
M  V30 13293 O 1300.08 -1.09115 1.62457 0
M  V30 13294 C 1300.38 2.16166 2.84617 0
M  V30 13295 C 1300.04 3.64805 2.65006 0
M  V30 13296 C 1298.71 4.05319 2.59365 0
M  V30 13297 C 1301.06 4.59073 2.46781 0
M  V30 13298 C 1298.39 5.38251 2.33458 0
M  V30 13299 C 1300.74 5.92216 2.22402 0
M  V30 13300 C 1299.4 6.31862 2.1519 0
M  V30 13301 H 1298.67 0.475408 0.568391 0
M  V30 13302 H 1301.32 1.68035 0.918512 0
M  V30 13303 H 1299.62 1.70967 3.5253 0
M  V30 13304 H 1301.32 2.0876 3.42375 0
M  V30 13305 H 1297.91 3.32662 2.70248 0
M  V30 13306 H 1302.1 4.28651 2.50144 0
M  V30 13307 H 1297.35 5.67957 2.26352 0
M  V30 13308 H 1301.53 6.64833 2.07293 0
M  V30 13309 H 1299.15 7.34797 1.94878 0
M  V30 13310 N 1300.73 -1.01913 1.20215 0
M  V30 13311 C 1301.98 -1.75124 1.00876 0
M  V30 13312 C 1302.3 -1.89485 -0.460475 0
M  V30 13313 O 1301.57 -1.43552 -1.33302 0
M  V30 13314 H 1300.15 -0.648777 0.370266 0
M  V30 13315 H 1302.81 -1.22883 1.5128 0
M  V30 13316 H 1301.91 -2.7558 1.46499 0
M  V30 13317 N 1302.21 -1.00763 -1.2118 0
M  V30 13318 C 1303.14 -0.528468 -2.23024 0
M  V30 13319 C 1304.15 0.384348 -1.58198 0
M  V30 13320 O 1305.34 0.184127 -1.77548 0
M  V30 13321 C 1302.44 0.251693 -3.37964 0
M  V30 13322 C 1301.61 -0.660838 -4.32379 0
M  V30 13323 C 1300.67 0.0701723 -5.26153 0
M  V30 13324 O 1299.7 -0.549355 -5.66543 0
M  V30 13325 N 1300.9 1.34791 -5.64634 0
M  V30 13326 H 1303.67 -1.40428 -2.64764 0
M  V30 13327 H 1301.23 -0.884085 -1.3563 0
M  V30 13328 H 1303.22 0.749746 -3.97694 0
M  V30 13329 H 1301.79 1.02872 -2.95188 0
M  V30 13330 H 1301.01 -1.33934 -3.7075 0
M  V30 13331 H 1302.3 -1.28177 -4.9239 0
M  V30 13332 H 1301.69 1.87232 -5.33817 0
M  V30 13333 H 1300.25 1.79086 -6.26715 0
M  V30 13334 N 1303.68 1.3679 -0.7827 0
M  V30 13335 C 1305.1 1.82006 -0.41603 0
M  V30 13336 C 1305.45 1.65151 1.05922 0
M  V30 13337 O 1304.57 1.1687 1.82127 0
M  V30 13338 C 1305.17 3.30432 -0.748353 0
M  V30 13339 C 1303.73 3.73883 -0.4346 0
M  V30 13340 C 1302.87 2.59159 -0.986505 0
M  V30 13341 H 1305.82 1.25107 -0.976423 0
M  V30 13342 H 1305.84 3.80482 -0.036985 0
M  V30 13343 H 1305.36 3.42667 -1.82212 0
M  V30 13344 H 1303.46 3.67211 0.631401 0
M  V30 13345 H 1303.57 4.69577 -0.950511 0
M  V30 13346 H 1301.93 2.51377 -0.410108 0
M  V30 13347 H 1302.72 2.74182 -2.06589 0
M  V30 13348 N 1305.16 0.53415 1.48272 0
M  V30 13349 C 1306.41 0.00156948 2.021 0
M  V30 13350 C 1306.73 -1.34371 1.41313 0
M  V30 13351 O 1306 -1.87117 0.579996 0
M  V30 13352 H 1304.58 -0.00240789 0.746996 0
M  V30 13353 H 1307.24 0.698928 1.81937 0
M  V30 13354 H 1306.34 -0.103671 3.11928 0
M  V30 13355 N 1306.64 -1.55279 0.269478 0
M  V30 13356 C 1307.87 -2.03876 -0.352418 0
M  V30 13357 C 1308.28 -1.14804 -1.49885 0
M  V30 13358 O 1307.64 -0.166989 -1.81734 0
M  V30 13359 C 1307.69 -3.51634 -0.838799 0
M  V30 13360 O 1307.41 -4.37316 0.261972 0
M  V30 13361 C 1308.91 -4.16094 -1.52909 0
M  V30 13362 H 1306.13 -0.66608 -0.0811043 0
M  V30 13363 H 1308.68 -2.00551 0.399929 0
M  V30 13364 H 1306.83 -3.55421 -1.54125 0
M  V30 13365 H 1307.25 -5.24383 -0.111013 0
M  V30 13366 H 1308.72 -5.21102 -1.82089 0
M  V30 13367 H 1309.2 -3.63928 -2.45872 0
M  V30 13368 H 1309.8 -4.16293 -0.87063 0
M  V30 13369 N 1308.12 0.00332656 -1.576 0
M  V30 13370 C 1309.37 0.687508 -1.90047 0
M  V30 13371 C 1309.69 1.74497 -0.870388 0
M  V30 13372 O 1308.96 1.95681 0.0926544 0
M  V30 13373 H 1307.54 0.256924 -0.701426 0
M  V30 13374 H 1310.2 -0.0368129 -1.94865 0
M  V30 13375 H 1309.3 1.16086 -2.89707 0
M  V30 13376 N 1309.6 1.55164 0.276031 0
M  V30 13377 C 1310.87 1.66338 1.02913 0
M  V30 13378 C 1311.25 0.527876 2.04393 0
M  V30 13379 O 1310.6 -0.472437 2.23563 0
M  V30 13380 C 1310.81 3.05427 1.68865 0
M  V30 13381 C 1312.16 3.63075 2.2014 0
M  V30 13382 O 1313.18 3.0804 1.78857 0
M  V30 13383 O 1312.04 4.59492 2.95854 0
M  V30 13384 H 1309.14 0.675446 0.477181 0
M  V30 13385 H 1311.68 1.67504 0.272129 0
M  V30 13386 H 1310.45 3.79514 0.953125 0
M  V30 13387 H 1310.08 3.08147 2.5126 0
M  V30 13388 N 1311.07 -0.540404 1.48045 0
M  V30 13389 C 1312.01 -1.66164 1.57867 0
M  V30 13390 C 1313.02 -1.56058 0.463655 0
M  V30 13391 O 1314.21 -1.62709 0.734038 0
M  V30 13392 C 1311.31 -3.04748 1.48263 0
M  V30 13393 C 1310.48 -3.40441 2.74625 0
M  V30 13394 C 1309.54 -4.58259 2.58621 0
M  V30 13395 O 1308.57 -4.62 3.32482 0
M  V30 13396 N 1309.77 -5.55794 1.67551 0
M  V30 13397 H 1312.53 -1.58179 2.54557 0
M  V30 13398 H 1310.09 -0.727441 1.44637 0
M  V30 13399 H 1312.09 -3.81425 1.35267 0
M  V30 13400 H 1310.66 -3.06868 0.595892 0
M  V30 13401 H 1309.88 -2.53044 3.02262 0
M  V30 13402 H 1311.16 -3.61069 3.58478 0
M  V30 13403 H 1310.56 -5.55541 1.06725 0
M  V30 13404 H 1309.12 -6.3173 1.60499 0
M  V30 13405 N 1312.55 -1.36459 -0.788468 0
M  V30 13406 C 1313.8 -1.3007 -1.54158 0
M  V30 13407 C 1314.11 0.117574 -1.95246 0
M  V30 13408 O 1315.32 0.303837 -2.69795 0
M  V30 13409 C 1313.78 -2.28216 -2.78291 0
M  V30 13410 C 1313.38 -3.75484 -2.44368 0
M  V30 13411 C 1315.13 -2.30806 -3.56271 0
M  V30 13412 C 1313.04 -4.65404 -3.64902 0
M  V30 13413 H 1311.97 -0.483345 -0.5787 0
M  V30 13414 H 1314.62 -1.61827 -0.865123 0
M  V30 13415 H 1313 -1.89454 -3.4774 0
M  V30 13416 H 1314.17 -4.22986 -1.82809 0
M  V30 13417 H 1312.49 -3.75678 -1.79597 0
M  V30 13418 H 1315.08 -2.95196 -4.45829 0
M  V30 13419 H 1315.43 -1.31687 -3.94923 0
M  V30 13420 H 1315.96 -2.68189 -2.93802 0
M  V30 13421 H 1312.7 -5.65589 -3.31344 0
M  V30 13422 H 1312.22 -4.22617 -4.25623 0
M  V30 13423 H 1313.9 -4.81721 -4.31919 0
M  V30 13424 N 1314.03 1.01274 -1.20754 0
M  V30 13425 C 1315.44 1.56381 -1.0199 0
M  V30 13426 C 1315.79 1.91595 0.422591 0
M  V30 13427 O 1314.92 1.72653 1.3046 0
M  V30 13428 C 1315.51 2.8415 -1.8451 0
M  V30 13429 C 1314.07 3.35772 -1.70101 0
M  V30 13430 C 1313.22 2.0904 -1.82202 0
M  V30 13431 H 1316.17 0.836105 -1.34889 0
M  V30 13432 H 1316.19 3.55717 -1.35076 0
M  V30 13433 H 1315.7 2.5849 -2.8949 0
M  V30 13434 H 1313.8 3.66384 -0.677732 0
M  V30 13435 H 1313.92 4.07714 -2.51607 0
M  V30 13436 H 1312.28 2.21675 -1.25429 0
M  V30 13437 H 1313.06 1.858 -2.88675 0
M  V30 13438 N 1315.51 1.01404 1.20644 0
M  V30 13439 C 1316.76 0.712655 1.90507 0
M  V30 13440 C 1317.11 -0.749299 1.7721 0
M  V30 13441 O 1316.4 -1.53709 1.14386 0
M  V30 13442 C 1316.6 1.07995 3.40693 0
M  V30 13443 C 1316.43 2.57606 3.68604 0
M  V30 13444 C 1315.2 3.2435 3.8746 0
M  V30 13445 C 1317.39 3.55788 3.71375 0
M  V30 13446 N 1315.38 4.63218 4.02868 0
M  V30 13447 C 1316.75 4.80207 3.92175 0
M  V30 13448 C 1318.8 3.49797 3.54325 0
M  V30 13449 C 1317.51 5.9936 3.97694 0
M  V30 13450 C 1319.53 4.68349 3.61114 0
M  V30 13451 C 1318.89 5.91575 3.82385 0
M  V30 13452 H 1314.99 0.312406 0.716887 0
M  V30 13453 H 1317.58 1.29835 1.4509 0
M  V30 13454 H 1315.75 0.522623 3.84868 0
M  V30 13455 H 1317.48 0.732364 3.98018 0
M  V30 13456 H 1314.23 2.7478 3.85737 0
M  V30 13457 H 1314.66 5.3531 4.14454 0
M  V30 13458 H 1319.3 2.55525 3.36848 0
M  V30 13459 H 1317.02 6.94015 4.13968 0
M  V30 13460 H 1320.6 4.65325 3.49233 0
M  V30 13461 H 1319.48 6.81776 3.87494 0
M  V30 13462 N 1316.99 -1.36373 0.789944 0
M  V30 13463 C 1318.22 -2.03482 0.37453 0
M  V30 13464 C 1318.63 -1.59562 -1.00923 0
M  V30 13465 O 1317.99 -0.785289 -1.64741 0
M  V30 13466 C 1318.04 -3.58942 0.429255 0
M  V30 13467 O 1317.76 -4.01261 1.75845 0
M  V30 13468 C 1319.26 -4.433 0.00453729 0
M  V30 13469 H 1316.48 -0.653019 0.154295 0
M  V30 13470 H 1319.02 -1.74339 1.06894 0
M  V30 13471 H 1317.18 -3.86793 -0.21674 0
M  V30 13472 H 1317.59 -4.95854 1.70964 0
M  V30 13473 H 1319.07 -5.5192 0.0939653 0
M  V30 13474 H 1319.54 -4.26509 -1.04816 0
M  V30 13475 H 1320.15 -4.20712 0.623041 0
M  V30 13476 N 1318.47 -0.542005 -1.47987 0
M  V30 13477 C 1319.41 0.227398 -2.31486 0
M  V30 13478 C 1320.41 0.923984 -1.41982 0
M  V30 13479 O 1321.61 0.847 -1.58827 0
M  V30 13480 H 1317.99 0.0922034 -0.746326 0
M  V30 13481 H 1319.96 -0.49625 -2.94245 0
M  V30 13482 C 1318.71 1.25384 -3.24306 0
M  V30 13483 H 1318.03 0.727243 -3.9313 0
M  V30 13484 H 1319.47 1.76337 -3.85592 0
M  V30 13485 C 1317.93 2.29378 -2.46754 0
M  V30 13486 O 1318.46 3.36034 -2.201 0
M  V30 13487 N 1316.67 2.02905 -2.08033 0
M  V30 13488 H 1316.21 1.16186 -2.2991 0
M  V30 13489 H 1316.17 2.72705 -1.56458 0
M  V30 13490 N 1319.94 1.55134 -0.277709 0
M  V30 13491 C 1320.89 2.24057 0.624594 0
M  V30 13492 C 1321.89 1.23848 1.15577 0
M  V30 13493 O 1323.09 1.41771 1.1091 0
M  V30 13494 H 1319.47 0.719106 0.219977 0
M  V30 13495 H 1321.44 2.98393 0.0204815 0
M  V30 13496 C 1320.19 2.97712 1.79618 0
M  V30 13497 H 1319.51 3.74611 1.39665 0
M  V30 13498 H 1320.95 3.49255 2.4041 0
M  V30 13499 C 1319.41 2.03332 2.68622 0
M  V30 13500 O 1319.94 1.58622 3.69056 0
M  V30 13501 N 1318.14 1.69778 2.35847 0
M  V30 13502 H 1317.69 2.06333 1.54222 0
M  V30 13503 H 1317.65 1.06901 2.95668 0
M  V30 13504 N 1321.42 0.00503138 1.57599 0
M  V30 13505 C 1322.65 -0.689609 1.95069 0
M  V30 13506 C 1323.06 -1.67028 0.880183 0
M  V30 13507 O 1322.42 -1.81959 -0.140406 0
M  V30 13508 C 1322.47 -1.41709 3.32567 0
M  V30 13509 O 1322.19 -0.475746 4.35509 0
M  V30 13510 C 1323.69 -2.20578 3.84526 0
M  V30 13511 H 1320.91 -0.19175 0.643019 0
M  V30 13512 H 1323.46 0.057646 2.04419 0
M  V30 13513 H 1321.61 -2.11593 3.2451 0
M  V30 13514 H 1322.03 -0.989573 5.1508 0
M  V30 13515 H 1323.5 -2.66969 4.83148 0
M  V30 13516 H 1323.98 -3.03467 3.17497 0
M  V30 13517 H 1324.58 -1.557 3.95775 0
M  V30 13518 N 1322.9 -1.55308 -0.267798 0
M  V30 13519 C 1324.15 -1.7642 -1.00019 0
M  V30 13520 C 1324.48 -0.566559 -1.85752 0
M  V30 13521 O 1323.75 0.435752 -1.89556 0
M  V30 13522 C 1324.04 -3.07229 -1.87836 0
M  V30 13523 C 1323.89 -4.37358 -1.05061 0
M  V30 13524 C 1325.21 -3.34113 -2.86455 0
M  V30 13525 H 1322.33 -0.641859 -0.362197 0
M  V30 13526 H 1324.97 -1.8804 -0.272188 0
M  V30 13527 H 1323.12 -2.97454 -2.49907 0
M  V30 13528 H 1324.79 -4.59098 -0.450208 0
M  V30 13529 H 1323.03 -4.32351 -0.354242 0
M  V30 13530 H 1323.71 -5.25223 -1.69838 0
M  V30 13531 H 1326.18 -3.43715 -2.34519 0
M  V30 13532 H 1325.06 -4.26896 -3.45038 0
M  V30 13533 H 1325.32 -2.54005 -3.61848 0
M  V30 13534 N 1324.38 0.532545 -1.4833 0
M  V30 13535 C 1325.61 1.31331 -1.59874 0
M  V30 13536 C 1326.02 1.87028 -0.258037 0
M  V30 13537 O 1325.38 1.66272 0.752317 0
M  V30 13538 C 1325.43 2.46596 -2.64334 0
M  V30 13539 O 1325.15 1.93195 -3.93201 0
M  V30 13540 C 1326.65 3.38454 -2.86294 0
M  V30 13541 H 1323.87 0.399476 -0.539129 0
M  V30 13542 H 1326.41 0.642696 -1.94138 0
M  V30 13543 H 1324.57 3.09548 -2.32936 0
M  V30 13544 H 1324.98 2.68627 -4.50489 0
M  V30 13545 H 1326.46 4.15687 -3.63192 0
M  V30 13546 H 1326.93 3.93526 -1.95022 0
M  V30 13547 H 1327.54 2.81297 -3.18986 0
M  V30 13548 N 1325.86 1.36875 0.78122 0
M  V30 13549 C 1326.82 1.31706 1.8758 0
M  V30 13550 C 1327.82 0.223044 1.59246 0
M  V30 13551 O 1329.01 0.478327 1.67504 0
M  V30 13552 C 1326.14 1.0437 3.2453 0
M  V30 13553 H 1327.33 2.29059 1.93576 0
M  V30 13554 H 1324.89 1.21766 0.979931 0
M  V30 13555 H 1325.62 0.0750941 3.24213 0
M  V30 13556 H 1325.41 1.83548 3.46486 0
M  V30 13557 H 1326.9 1.0338 4.04602 0
M  V30 13558 N 1327.33 -1.00632 1.21289 0
M  V30 13559 C 1328.58 -1.73802 1.02351 0
M  V30 13560 C 1328.9 -1.90503 -0.443611 0
M  V30 13561 O 1330.1 -2.60868 -0.752356 0
M  V30 13562 C 1328.56 -3.12647 1.78269 0
M  V30 13563 C 1328.17 -3.03923 3.29142 0
M  V30 13564 C 1329.91 -3.89956 1.67735 0
M  V30 13565 C 1327.82 -4.3784 3.97556 0
M  V30 13566 H 1326.75 -0.651616 0.379358 0
M  V30 13567 H 1329.4 -1.12446 1.45011 0
M  V30 13568 H 1327.78 -3.74605 1.28401 0
M  V30 13569 H 1328.95 -2.51211 3.86303 0
M  V30 13570 H 1327.27 -2.40103 3.40205 0
M  V30 13571 H 1329.87 -4.89051 2.1618 0
M  V30 13572 H 1330.21 -4.11423 0.635338 0
M  V30 13573 H 1330.74 -3.34647 2.15072 0
M  V30 13574 H 1327.48 -4.21573 5.01952 0
M  V30 13575 H 1327 -4.90518 3.45184 0
M  V30 13576 H 1328.68 -5.06644 4.02393 0
M  V30 13577 N 1328.81 -1.02043 -1.20104 0
M  V30 13578 C 1329.76 -0.587332 -2.25063 0
M  V30 13579 C 1330.75 0.375844 -1.65178 0
M  V30 13580 O 1331.96 0.245347 -1.7832 0
M  V30 13581 H 1328.33 -0.171637 -0.732151 0
M  V30 13582 H 1330.31 -1.48339 -2.58917 0
M  V30 13583 C 1329.05 0.0546893 -3.47657 0
M  V30 13584 H 1328.38 -0.677457 -3.94018 0
M  V30 13585 H 1329.82 0.320786 -4.22785 0
M  V30 13586 C 1328.28 1.29869 -3.10863 0
M  V30 13587 O 1328.81 2.39161 -3.22746 0
M  V30 13588 N 1327.01 1.18423 -2.65376 0
M  V30 13589 H 1326.56 0.294895 -2.55906 0
M  V30 13590 H 1326.52 2.01755 -2.41128 0
M  V30 13591 N 1330.29 1.35952 -0.797165 0
M  V30 13592 C 1331.22 2.28649 -0.15877 0
M  V30 13593 C 1332.24 1.49842 0.636481 0
M  V30 13594 O 1333.42 1.72191 0.47039 0
M  V30 13595 C 1330.52 3.29373 0.797913 0
M  V30 13596 C 1329.7 4.3737 0.0510574 0
M  V30 13597 C 1328.76 5.18009 0.924826 0
M  V30 13598 O 1327.78 5.67935 0.379223 0
M  V30 13599 N 1328.98 5.352 2.24813 0
M  V30 13600 H 1331.75 2.84075 -0.955056 0
M  V30 13601 H 1329.31 1.48201 -0.651767 0
M  V30 13602 H 1331.3 3.80209 1.38646 0
M  V30 13603 H 1329.87 2.74531 1.49504 0
M  V30 13604 H 1329.09 3.87594 -0.718633 0
M  V30 13605 H 1330.38 5.0668 -0.464025 0
M  V30 13606 H 1329.78 4.96266 2.71545 0
M  V30 13607 H 1328.34 5.89252 2.78614 0
M  V30 13608 N 1331.77 0.549846 1.47697 0
M  V30 13609 C 1332.99 0.0256819 2.07384 0
M  V30 13610 C 1333.42 -1.25525 1.4009 0
M  V30 13611 O 1332.78 -1.7501 0.473406 0
M  V30 13612 C 1332.82 -0.160835 3.60241 0
M  V30 13613 O 1331.93 -1.22509 3.93783 0
M  V30 13614 H 1331.27 0.0480204 0.662261 0
M  V30 13615 H 1333.8 0.763429 1.89823 0
M  V30 13616 H 1333.81 -0.377337 4.06251 0
M  V30 13617 H 1332.48 0.774774 4.0862 0
M  V30 13618 H 1331.06 -0.98967 3.59527 0
M  V30 13619 N 1333.25 -1.54984 0.285932 0
M  V30 13620 C 1334.19 -2.2295 -0.596822 0
M  V30 13621 C 1335.16 -1.20674 -1.14136 0
M  V30 13622 O 1336.35 -1.49249 -1.18867 0
M  V30 13623 C 1333.49 -2.9625 -1.77002 0
M  V30 13624 C 1332.6 -4.13268 -1.25831 0
M  V30 13625 C 1331.74 -4.74187 -2.39417 0
M  V30 13626 C 1330.78 -5.83377 -1.85304 0
M  V30 13627 N 1329.91 -6.38313 -2.92405 0
M  V30 13628 H 1334.75 -2.97998 -0.0106104 0
M  V30 13629 H 1332.29 -1.47099 0.00653041 0
M  V30 13630 H 1334.25 -3.36971 -2.4598 0
M  V30 13631 H 1332.88 -2.23606 -2.3281 0
M  V30 13632 H 1331.93 -3.77593 -0.461278 0
M  V30 13633 H 1333.24 -4.91979 -0.822049 0
M  V30 13634 H 1332.4 -5.17683 -3.16369 0
M  V30 13635 H 1331.13 -3.94775 -2.86364 0
M  V30 13636 H 1330.14 -5.3932 -1.06835 0
M  V30 13637 H 1331.36 -6.64664 -1.3928 0
M  V30 13638 H 1329.31 -5.61791 -3.38713 0
M  V30 13639 H 1329.23 -7.12328 -2.53228 0
M  V30 13640 H 1330.5 -6.86468 -3.69299 0
M  V30 13641 N 1334.72 -0.0133892 -1.57594 0
M  V30 13642 C 1335.95 0.682855 -1.95836 0
M  V30 13643 C 1336.37 1.65763 -0.889049 0
M  V30 13644 O 1335.73 1.80665 0.151585 0
M  V30 13645 C 1335.78 1.37931 -3.33178 0
M  V30 13646 O 1334.88 2.49416 -3.28429 0
M  V30 13647 H 1334.23 0.180629 -0.638959 0
M  V30 13648 H 1336.76 -0.0705644 -2.04478 0
M  V30 13649 H 1336.77 1.73969 -3.69051 0
M  V30 13650 H 1335.44 0.664675 -4.10554 0
M  V30 13651 H 1334.02 2.15606 -3.04251 0
M  V30 13652 N 1336.2 1.55448 0.259558 0
M  V30 13653 C 1337.11 1.92364 1.34289 0
M  V30 13654 C 1338.13 0.822492 1.53333 0
M  V30 13655 O 1339.3 1.12277 1.672 0
M  V30 13656 C 1336.37 2.19978 2.67975 0
M  V30 13657 C 1335.43 3.43454 2.57562 0
M  V30 13658 C 1334.66 3.69741 3.84873 0
M  V30 13659 O 1334.89 2.9831 4.86176 0
M  V30 13660 O 1333.82 4.63274 3.84267 0
M  V30 13661 H 1337.65 2.8461 1.05975 0
M  V30 13662 H 1335.23 1.42167 0.459239 0
M  V30 13663 H 1337.11 2.39104 3.46998 0
M  V30 13664 H 1335.79 1.30912 2.96047 0
M  V30 13665 H 1334.7 3.29649 1.76869 0
M  V30 13666 H 1336.03 4.32782 2.34437 0
M  V30 13667 N 1337.68 -0.524672 1.4861 0
M  V30 13668 C 1338.96 -1.28592 1.47389 0
M  V30 13669 C 1339.34 -2.10257 0.188482 0
M  V30 13670 O 1338.69 -2.12905 -0.829689 0
M  V30 13671 C 1338.9 -2.16284 2.73902 0
M  V30 13672 C 1340.24 -2.7625 3.22445 0
M  V30 13673 O 1341.27 -2.26567 2.74856 0
M  V30 13674 O 1340.13 -3.66635 4.05267 0
M  V30 13675 H 1337.22 -0.580666 0.58886 0
M  V30 13676 H 1339.77 -0.540888 1.60849 0
M  V30 13677 H 1338.54 -1.55757 3.58964 0
M  V30 13678 H 1338.16 -2.98024 2.63188 0
M  V30 13679 N 1339.16 -1.37287 -0.77395 0
M  V30 13680 C 1340.09 -1.28746 -1.89624 0
M  V30 13681 C 1341.1 -0.203715 -1.6152 0
M  V30 13682 O 1342.29 -0.459684 -1.72479 0
M  V30 13683 C 1339.39 -0.967342 -3.24801 0
M  V30 13684 C 1338.57 -2.1561 -3.80567 0
M  V30 13685 C 1337.62 -1.80661 -4.94215 0
M  V30 13686 O 1336.65 -2.5293 -5.09917 0
M  V30 13687 N 1337.85 -0.749424 -5.75642 0
M  V30 13688 H 1340.62 -2.25447 -1.97468 0
M  V30 13689 H 1338.18 -1.30883 -0.952956 0
M  V30 13690 H 1340.17 -0.714421 -3.98344 0
M  V30 13691 H 1338.74 -0.0889573 -3.12473 0
M  V30 13692 H 1337.96 -2.57091 -2.98828 0
M  V30 13693 H 1339.25 -2.94993 -4.14556 0
M  V30 13694 H 1338.65 -0.149673 -5.65502 0
M  V30 13695 H 1337.2 -0.556358 -6.49421 0
M  V30 13696 N 1340.64 0.999871 -1.21821 0
M  V30 13697 C 1341.88 1.75366 -1.05005 0
M  V30 13698 C 1342.24 1.87601 0.408656 0
M  V30 13699 O 1343.44 2.59593 0.697479 0
M  V30 13700 C 1341.71 3.12525 -1.73387 0
M  V30 13701 S 1343.27 4.0373 -1.71894 0
M  V30 13702 H 1340.09 0.603334 -0.376177 0
M  V30 13703 H 1342.69 1.19598 -1.5465 0
M  V30 13704 H 1341.4 3.01258 -2.78697 0
M  V30 13705 H 1340.93 3.73365 -1.23944 0
M  V30 13706 H 1342.94 4.90288 -0.763668 0
M  V30 13707 N 1342.11 1.02678 1.19562 0
M  V30 13708 C 1343.36 0.717279 1.88515 0
M  V30 13709 C 1343.68 -0.757063 1.80355 0
M  V30 13710 O 1344.88 -1.17953 2.44539 0
M  V30 13711 C 1343.34 1.23265 3.38133 0
M  V30 13712 C 1342.95 2.73462 3.54856 0
M  V30 13713 C 1344.69 0.99904 4.12577 0
M  V30 13714 C 1342.6 3.18428 4.98355 0
M  V30 13715 H 1341.53 0.264608 0.706044 0
M  V30 13716 H 1344.18 1.2408 1.3519 0
M  V30 13717 H 1342.56 0.637052 3.90842 0
M  V30 13718 H 1343.73 3.38659 3.12485 0
M  V30 13719 H 1342.05 2.95079 2.93798 0
M  V30 13720 H 1344.65 1.3103 5.18397 0
M  V30 13721 H 1344.99 -0.064217 4.1625 0
M  V30 13722 H 1345.52 1.55853 3.65998 0
M  V30 13723 H 1342.26 4.24074 4.99842 0
M  V30 13724 H 1341.78 2.57958 5.41496 0
M  V30 13725 H 1343.46 3.11649 5.66996 0
M  V30 13726 N 1343.59 -1.35528 0.804364 0
M  V30 13727 C 1344.82 -2.03604 0.395013 0
M  V30 13728 C 1345.24 -1.60225 -0.985371 0
M  V30 13729 O 1344.6 -0.777844 -1.63766 0
M  V30 13730 C 1344.65 -3.57337 0.484011 0
M  V30 13731 O 1343.75 -4.09316 -0.503395 0
M  V30 13732 H 1343.09 -0.643089 0.165325 0
M  V30 13733 H 1345.62 -1.73171 1.08963 0
M  V30 13734 H 1345.63 -4.0647 0.353009 0
M  V30 13735 H 1344.31 -3.8826 1.49088 0
M  V30 13736 H 1342.89 -3.71412 -0.332817 0
M  V30 13737 N 1345.07 -0.557671 -1.47404 0
M  V30 13738 C 1346.3 -0.0366797 -2.07368 0
M  V30 13739 C 1346.72 1.2478 -1.40754 0
M  V30 13740 O 1346.08 1.74757 -0.48268 0
M  V30 13741 C 1346.13 0.141728 -3.60321 0
M  V30 13742 O 1345.23 1.20419 -3.94427 0
M  V30 13743 H 1344.57 -0.0515319 -0.661997 0
M  V30 13744 H 1347.1 -0.773485 -1.89416 0
M  V30 13745 H 1347.11 0.355787 -4.06446 0
M  V30 13746 H 1345.79 -0.796433 -4.08203 0
M  V30 13747 H 1344.36 0.970589 -3.60047 0
M  V30 13748 N 1346.55 1.54831 -0.294147 0
M  V30 13749 C 1347.48 2.20696 0.61854 0
M  V30 13750 C 1348.49 1.19754 1.10285 0
M  V30 13751 O 1349.68 1.46383 1.02148 0
M  V30 13752 C 1346.78 2.83429 1.85798 0
M  V30 13753 C 1345.96 4.10239 1.51731 0
M  V30 13754 C 1345.02 4.56841 2.61119 0
M  V30 13755 O 1344.04 5.22194 2.26501 0
M  V30 13756 N 1345.24 4.2858 3.91534 0
M  V30 13757 H 1348.01 2.9965 0.054714 0
M  V30 13758 H 1345.57 1.61484 -0.116052 0
M  V30 13759 H 1347.56 3.11541 2.5831 0
M  V30 13760 H 1346.13 2.08356 2.33038 0
M  V30 13761 H 1345.35 3.89212 0.625142 0
M  V30 13762 H 1346.64 4.92824 1.26499 0
M  V30 13763 H 1346.04 3.7621 4.22472 0
M  V30 13764 H 1344.59 4.61418 4.60366 0
M  V30 13765 N 1348.03 0.0217466 1.57585 0
M  V30 13766 C 1348.96 -0.961069 2.12804 0
M  V30 13767 C 1349.94 -1.3442 1.04237 0
M  V30 13768 O 1351.12 -1.42412 1.32032 0
M  V30 13769 C 1348.25 -2.24586 2.64912 0
M  V30 13770 C 1347.21 -2.0037 3.78201 0
M  V30 13771 C 1346.53 -3.35051 4.16708 0
M  V30 13772 C 1347.83 -1.34879 5.04584 0
M  V30 13773 H 1349.53 -0.501222 2.95175 0
M  V30 13774 H 1347.07 -0.239649 1.41992 0
M  V30 13775 H 1349.03 -2.93715 3.02175 0
M  V30 13776 H 1347.75 -2.72723 1.79693 0
M  V30 13777 H 1346.41 -1.33662 3.41365 0
M  V30 13778 H 1346.06 -3.80932 3.28481 0
M  V30 13779 H 1345.76 -3.19656 4.93045 0
M  V30 13780 H 1347.28 -4.05459 4.56547 0
M  V30 13781 H 1348.7 -1.93997 5.3948 0
M  V30 13782 H 1347.09 -1.29906 5.85871 0
M  V30 13783 H 1348.16 -0.320774 4.83838 0
M  V30 13784 N 1349.51 -1.55583 -0.251311 0
M  V30 13785 C 1350.78 -1.67954 -1.00254 0
M  V30 13786 C 1351.16 -0.560326 -2.03528 0
M  V30 13787 O 1350.51 0.436811 -2.24286 0
M  V30 13788 C 1350.72 -3.08075 -1.63985 0
M  V30 13789 C 1352.07 -3.66531 -2.14336 0
M  V30 13790 O 1353.09 -3.10846 -1.73934 0
M  V30 13791 O 1351.95 -4.64141 -2.88506 0
M  V30 13792 H 1349.05 -0.682952 -0.466375 0
M  V30 13793 H 1351.59 -1.67916 -0.245447 0
M  V30 13794 H 1350.36 -3.80983 -0.892627 0
M  V30 13795 H 1349.99 -3.12105 -2.46325 0
M  V30 13796 N 1350.98 0.516783 -1.48886 0
M  V30 13797 C 1351.89 1.6467 -1.67095 0
M  V30 13798 C 1352.91 1.64963 -0.553466 0
M  V30 13799 O 1354.09 1.83673 -0.826206 0
M  V30 13800 C 1351.15 3.01095 -1.71879 0
M  V30 13801 C 1350.21 3.11554 -2.95352 0
M  V30 13802 C 1349.44 4.41471 -2.99898 0
M  V30 13803 O 1349.67 5.29348 -2.12477 0
M  V30 13804 O 1348.6 4.56573 -3.92205 0
M  V30 13805 H 1352.43 1.52242 -2.62785 0
M  V30 13806 H 1350.01 0.69134 -1.32442 0
M  V30 13807 H 1351.89 3.82207 -1.77471 0
M  V30 13808 H 1350.57 3.1382 -0.793656 0
M  V30 13809 H 1349.48 2.29689 -2.95286 0
M  V30 13810 H 1350.81 3.03751 -3.87294 0
M  V30 13811 N 1352.46 1.37696 0.766659 0
M  V30 13812 C 1353.39 1.36576 1.89392 0
M  V30 13813 C 1354.37 0.233597 1.68488 0
M  V30 13814 O 1355.56 0.434719 1.89272 0
M  V30 13815 C 1352.69 1.17705 3.26746 0
M  V30 13816 C 1351.64 2.27987 3.62224 0
M  V30 13817 C 1350.97 1.94235 4.98174 0
M  V30 13818 C 1352.27 3.70195 3.68447 0
M  V30 13819 H 1353.96 2.30905 1.90587 0
M  V30 13820 H 1351.51 1.11148 0.915538 0
M  V30 13821 H 1353.46 1.15551 4.05248 0
M  V30 13822 H 1352.18 0.198334 3.25997 0
M  V30 13823 H 1350.84 2.29306 2.86032 0
M  V30 13824 H 1350.49 0.948796 4.93971 0
M  V30 13825 H 1350.19 2.68086 5.2288 0
M  V30 13826 H 1351.72 1.93676 5.7907 0
M  V30 13827 H 1353.13 3.70978 4.37091 0
M  V30 13828 H 1351.53 4.43142 4.04654 0
M  V30 13829 H 1352.6 4.03453 2.68986 0
M  V30 13830 N 1353.94 -0.993397 1.22349 0
M  V30 13831 C 1354.87 -2.10171 1.01737 0
M  V30 13832 C 1355.85 -1.69989 -0.0615276 0
M  V30 13833 O 1357.04 -1.93939 0.100591 0
M  V30 13834 C 1354.17 -3.42186 0.593801 0
M  V30 13835 C 1353.12 -3.96215 1.61858 0
M  V30 13836 C 1352.45 -5.24272 1.05086 0
M  V30 13837 C 1353.75 -4.26956 3.00842 0
M  V30 13838 H 1355.44 -2.27673 1.94436 0
M  V30 13839 H 1352.99 -1.09408 0.936258 0
M  V30 13840 H 1354.94 -4.19131 0.436715 0
M  V30 13841 H 1353.66 -3.2451 -0.368855 0
M  V30 13842 H 1352.32 -3.21401 1.76343 0
M  V30 13843 H 1351.97 -5.02937 0.0795747 0
M  V30 13844 H 1351.67 -5.61387 1.73547 0
M  V30 13845 H 1353.19 -6.03851 0.905349 0
M  V30 13846 H 1354.61 -4.94699 2.89734 0
M  V30 13847 H 1353 -4.75242 3.66422 0
M  V30 13848 H 1354.07 -3.34752 3.50812 0
M  V30 13849 N 1355.42 -1.03311 -1.19015 0
M  V30 13850 C 1356.66 -0.740813 -1.90503 0
M  V30 13851 C 1357.02 0.717732 -1.7808 0
M  V30 13852 O 1358.22 1.12329 -2.44204 0
M  V30 13853 C 1356.49 -1.18473 -3.37193 0
M  V30 13854 S 1358.05 -1.01692 -4.26854 0
M  V30 13855 H 1354.87 -0.269575 -0.657913 0
M  V30 13856 H 1357.47 -1.32382 -1.43858 0
M  V30 13857 H 1356.18 -2.2418 -3.43761 0
M  V30 13858 H 1355.71 -0.59519 -3.88872 0
M  V30 13859 H 1357.72 0.070076 -4.96151 0
M  V30 13860 N 1356.9 1.35099 -0.81154 0
M  V30 13861 C 1358.31 1.81082 -0.454543 0
M  V30 13862 C 1358.66 1.67361 1.02395 0
M  V30 13863 O 1357.78 1.20707 1.79607 0
M  V30 13864 C 1358.38 3.2877 -0.818274 0
M  V30 13865 C 1356.94 3.72877 -0.513808 0
M  V30 13866 C 1356.08 2.57008 -1.04125 0
M  V30 13867 H 1359.03 1.23007 -1.00274 0
M  V30 13868 H 1359.06 3.80318 -0.117683 0
M  V30 13869 H 1358.57 3.38725 -1.89439 0
M  V30 13870 H 1356.67 3.68468 0.553368 0
M  V30 13871 H 1356.78 4.67455 -1.0499 0
M  V30 13872 H 1355.15 2.5045 -0.463337 0
M  V30 13873 H 1355.93 2.69738 -2.12358 0
M  V30 13874 N 1358.37 0.56548 1.47106 0
M  V30 13875 C 1359.78 0.134289 1.86216 0
M  V30 13876 C 1360.14 -1.29815 1.47114 0
M  V30 13877 O 1359.26 -1.97787 0.878017 0
M  V30 13878 C 1359.86 0.236931 3.37971 0
M  V30 13879 C 1358.41 -0.139275 3.76142 0
M  V30 13880 C 1357.56 0.580743 2.71151 0
M  V30 13881 H 1360.51 0.774723 1.38505 0
M  V30 13882 H 1360.53 -0.542301 3.76616 0
M  V30 13883 H 1360.05 1.27958 3.66399 0
M  V30 13884 H 1358.15 -1.18272 3.53331 0
M  V30 13885 H 1358.26 0.225045 4.78571 0
M  V30 13886 H 1356.62 0.0228963 2.5469 0
M  V30 13887 H 1357.41 1.62471 3.0242 0
M  V30 13888 N 1359.85 -1.54672 0.302354 0
M  V30 13889 C 1361.08 -2.04578 -0.309093 0
M  V30 13890 C 1361.5 -1.17957 -1.47416 0
M  V30 13891 O 1360.85 -0.2055 -1.81339 0
M  V30 13892 C 1360.9 -3.53334 -0.764023 0
M  V30 13893 O 1360.62 -4.36662 0.354674 0
M  V30 13894 C 1362.13 -4.19243 -1.44048 0
M  V30 13895 H 1359.35 -0.667651 -0.0669575 0
M  V30 13896 H 1361.89 -1.99658 0.442379 0
M  V30 13897 H 1360.04 -3.5861 -1.46552 0
M  V30 13898 H 1360.46 -5.245 0.000241188 0
M  V30 13899 H 1361.93 -5.24847 -1.70995 0
M  V30 13900 H 1362.41 -3.69061 -2.38098 0
M  V30 13901 H 1363.02 -4.18046 -0.782132 0
M  V30 13902 N 1361.33 -0.0301034 -1.57571 0
M  V30 13903 C 1362.56 0.658488 -1.96142 0
M  V30 13904 C 1362.97 1.65606 -0.906644 0
M  V30 13905 O 1362.33 1.82159 0.111441 0
M  V30 13906 C 1362.38 1.364 -3.34779 0
M  V30 13907 O 1362.1 0.4064 -4.36211 0
M  V30 13908 C 1363.6 2.14432 -3.87987 0
M  V30 13909 H 1360.82 0.181496 -0.645988 0
M  V30 13910 H 1363.37 -0.09016 -2.04301 0
M  V30 13911 H 1361.52 2.06404 -3.27836 0
M  V30 13912 H 1361.94 0.907503 -5.16589 0
M  V30 13913 H 1363.41 2.59248 -4.87334 0
M  V30 13914 H 1363.89 2.98377 -3.22285 0
M  V30 13915 H 1364.49 1.49383 -3.98202 0
M  V30 13916 N 1362.81 1.55714 0.243056 0
M  V30 13917 C 1364.05 1.77989 0.971993 0
M  V30 13918 C 1364.39 0.596038 1.84827 0
M  V30 13919 O 1363.66 -0.40554 1.90225 0
M  V30 13920 C 1363.95 3.10178 1.82925 0
M  V30 13921 C 1363.8 4.38974 0.9809 0
M  V30 13922 C 1365.12 3.38628 2.81103 0
M  V30 13923 H 1362.24 0.64754 0.35194 0
M  V30 13924 H 1364.88 1.88449 0.242237 0
M  V30 13925 H 1363.03 3.01392 2.45143 0
M  V30 13926 H 1364.7 4.59756 0.377113 0
M  V30 13927 H 1362.94 4.3286 0.285414 0
M  V30 13928 H 1363.61 5.27858 1.61461 0
M  V30 13929 H 1366.09 3.47403 2.29021 0
M  V30 13930 H 1364.97 4.32331 3.38203 0
M  V30 13931 H 1365.23 2.5973 3.57761 0
M  V30 13932 N 1364.29 -0.50888 1.49158 0
M  V30 13933 C 1365.2 -1.63782 1.67966 0
M  V30 13934 C 1366.21 -1.64667 0.562207 0
M  V30 13935 O 1367.39 -1.83232 0.835935 0
M  V30 13936 C 1364.45 -3.00179 1.73474 0
M  V30 13937 C 1363.51 -3.09983 2.97 0
M  V30 13938 C 1362.75 -4.39875 3.02235 0
M  V30 13939 O 1362.97 -5.28214 2.15282 0
M  V30 13940 O 1361.9 -4.54486 3.94621 0
M  V30 13941 H 1365.73 -1.50846 2.63589 0
M  V30 13942 H 1363.32 -0.684306 1.32807 0
M  V30 13943 H 1365.2 -3.8126 1.79495 0
M  V30 13944 H 1363.87 -3.13394 0.810287 0
M  V30 13945 H 1362.78 -2.28119 2.965 0
M  V30 13946 H 1364.11 -3.01693 3.88899 0
M  V30 13947 N 1365.76 -1.381 -0.759346 0
M  V30 13948 C 1367.01 -1.33727 -1.5153 0
M  V30 13949 C 1367.33 0.0739504 -1.9486 0
M  V30 13950 O 1366.6 1.02049 -1.67221 0
M  V30 13951 H 1365.18 -0.492037 -0.562058 0
M  V30 13952 H 1367.85 -1.72719 -0.902995 0
M  V30 13953 H 1366.94 -1.98439 -2.40891 0
M  V30 13954 N 1367.24 0.986894 -1.22875 0
M  V30 13955 C 1368.66 1.25185 -0.989997 0
M  V30 13956 C 1368.86 1.99057 0.31282 0
M  V30 13957 O 1367.91 2.30361 1.03392 0
M  V30 13958 C 1369.23 2.05775 -2.19265 0
M  V30 13959 C 1370.78 2.18938 -2.23686 0
M  V30 13960 C 1371.25 3.02917 -3.43519 0
M  V30 13961 N 1372.74 3.10503 -3.43718 0
M  V30 13962 C 1373.48 3.75789 -4.33094 0
M  V30 13963 N 1372.97 4.42952 -5.32696 0
M  V30 13964 N 1374.77 3.72611 -4.20854 0
M  V30 13965 H 1366.92 0.491816 -2.06628 0
M  V30 13966 H 1369.18 0.279856 -0.905751 0
M  V30 13967 H 1368.89 1.58864 -3.13776 0
M  V30 13968 H 1368.76 3.06529 -2.19818 0
M  V30 13969 H 1371.15 2.65061 -1.29718 0
M  V30 13970 H 1371.23 1.17595 -2.27168 0
M  V30 13971 H 1370.87 2.57493 -4.3779 0
M  V30 13972 H 1370.8 4.04415 -3.37277 0
M  V30 13973 H 1373.29 2.62709 -2.71647 0
M  V30 13974 H 1373.61 4.90527 -5.97162 0
M  V30 13975 H 1371.95 4.41681 -5.36603 0
M  V30 13976 H 1375.14 3.19305 -3.42289 0
M  V30 13977 H 1375.31 4.2321 -4.90711 0
M  V30 13978 N 1368.72 1.0394 1.18466 0
M  V30 13979 C 1369.67 0.623063 2.241 0
M  V30 13980 C 1370.66 -0.349518 1.65755 0
M  V30 13981 O 1371.87 -0.216947 1.78688 0
M  V30 13982 H 1368.24 0.183263 0.729327 0
M  V30 13983 H 1370.21 1.52439 2.56524 0
M  V30 13984 C 1368.96 0.000626805 3.477 0
M  V30 13985 H 1368.29 0.740056 3.92891 0
M  V30 13986 H 1369.73 -0.253484 4.23242 0
M  V30 13987 C 1368.19 -1.24907 3.1289 0
M  V30 13988 O 1368.72 -2.33996 3.2651 0
M  V30 13989 N 1366.92 -1.14187 2.67226 0
M  V30 13990 H 1366.47 -0.254146 2.56343 0
M  V30 13991 H 1366.43 -1.97893 2.44307 0
M  V30 13992 N 1370.2 -1.34667 0.818693 0
M  V30 13993 C 1371.48 -1.92838 0.327521 0
M  V30 13994 C 1371.86 -1.74732 -1.18457 0
M  V30 13995 O 1371.2 -1.12352 -1.98971 0
M  V30 13996 C 1371.41 -3.40797 0.752207 0
M  V30 13997 C 1372.76 -4.17948 0.748613 0
M  V30 13998 O 1373.79 -3.49364 0.694517 0
M  V30 13999 O 1372.64 -5.40344 0.817958 0
M  V30 14000 H 1369.74 -0.822249 0.0885148 0
M  V30 14001 H 1372.28 -1.43668 0.9032 0
M  V30 14002 H 1371.06 -3.47759 1.79387 0
M  V30 14003 H 1370.68 -3.97309 0.151992 0
M  V30 14004 N 1371.68 -0.573274 -1.46804 0
M  V30 14005 C 1372.59 0.168081 -2.33997 0
M  V30 14006 C 1373.6 0.895652 -1.49178 0
M  V30 14007 O 1374.78 0.860951 -1.8207 0
M  V30 14008 C 1371.84 1.17483 -3.26188 0
M  V30 14009 C 1370.9 0.452956 -4.26904 0
M  V30 14010 C 1370.14 1.41175 -5.1469 0
M  V30 14011 O 1370.36 2.64767 -5.05227 0
M  V30 14012 O 1369.29 0.927472 -5.94711 0
M  V30 14013 H 1373.12 -0.547576 -2.98723 0
M  V30 14014 H 1370.71 -0.333747 -1.45624 0
M  V30 14015 H 1372.59 1.75557 -3.8309 0
M  V30 14016 H 1371.26 1.87213 -2.6407 0
M  V30 14017 H 1370.17 -0.169383 -3.73716 0
M  V30 14018 H 1371.5 -0.203186 -4.9178 0
M  V30 14019 N 1373.15 1.5451 -0.310553 0
M  V30 14020 C 1374.1 2.23871 0.561277 0
M  V30 14021 C 1375.07 1.22475 1.12202 0
M  V30 14022 O 1376.26 1.51121 1.16477 0
M  V30 14023 C 1373.4 2.99029 1.72267 0
M  V30 14024 C 1372.51 4.15218 1.19241 0
M  V30 14025 C 1371.64 4.77935 2.31843 0
M  V30 14026 C 1370.68 5.86251 1.75999 0
M  V30 14027 N 1369.82 6.42885 2.82212 0
M  V30 14028 H 1374.66 2.97977 -0.0367998 0
M  V30 14029 H 1372.2 1.4707 -0.0299317 0
M  V30 14030 H 1374.16 3.40842 2.40588 0
M  V30 14031 H 1372.79 2.27281 2.29223 0
M  V30 14032 H 1371.84 3.78279 0.401148 0
M  V30 14033 H 1373.15 4.93225 0.743675 0
M  V30 14034 H 1372.3 5.2265 3.08094 0
M  V30 14035 H 1371.04 3.99281 2.80047 0
M  V30 14036 H 1370.05 5.40952 0.982415 0
M  V30 14037 H 1371.27 6.66795 1.28688 0
M  V30 14038 H 1369.22 5.67109 3.29732 0
M  V30 14039 H 1369.14 7.16267 2.41864 0
M  V30 14040 H 1370.4 6.92256 3.58332 0
M  V30 14041 N 1374.63 0.0384594 1.57553 0
M  V30 14042 C 1375.6 -0.925358 2.0969 0
M  V30 14043 C 1376.6 -1.24811 1.01385 0
M  V30 14044 O 1377.79 -1.1869 1.27508 0
M  V30 14045 C 1374.92 -2.2391 2.57055 0
M  V30 14046 H 1376.11 -0.473633 2.96136 0
M  V30 14047 H 1373.66 -0.209736 1.54886 0
M  V30 14048 H 1374.4 -2.73691 1.73964 0
M  V30 14049 H 1374.18 -2.01793 3.36188 0
M  V30 14050 H 1375.67 -2.92974 2.97583 0
M  V30 14051 N 1376.11 -1.55841 -0.234795 0
M  V30 14052 C 1377.04 -1.94344 -1.29432 0
M  V30 14053 C 1378.02 -0.809912 -1.49581 0
M  V30 14054 O 1379.21 -1.07117 -1.61986 0
M  V30 14055 C 1376.34 -2.24866 -2.64675 0
M  V30 14056 C 1375.29 -3.40584 -2.59203 0
M  V30 14057 C 1374.62 -3.56678 -3.98353 0
M  V30 14058 C 1375.92 -4.75935 -2.15135 0
M  V30 14059 H 1377.61 -2.83096 -0.97454 0
M  V30 14060 H 1375.16 -1.36205 -0.467355 0
M  V30 14061 H 1377.11 -2.50392 -3.38942 0
M  V30 14062 H 1375.83 -1.32953 -2.98314 0
M  V30 14063 H 1374.49 -3.15087 -1.87393 0
M  V30 14064 H 1374.14 -2.62164 -4.29277 0
M  V30 14065 H 1373.84 -4.34503 -3.95577 0
M  V30 14066 H 1375.37 -3.84538 -4.74302 0
M  V30 14067 H 1376.78 -5.00753 -2.7914 0
M  V30 14068 H 1375.18 -5.56949 -2.23446 0
M  V30 14069 H 1376.25 -4.72182 -1.10328 0
M  V30 14070 N 1377.59 0.500963 -1.49426 0
M  V30 14071 C 1378.52 1.61114 -1.69011 0
M  V30 14072 C 1379.5 1.61341 -0.538813 0
M  V30 14073 O 1380.69 1.78081 -0.77466 0
M  V30 14074 C 1377.82 2.99598 -1.75666 0
M  V30 14075 C 1376.77 3.14236 -2.90585 0
M  V30 14076 C 1376.1 4.54071 -2.82354 0
M  V30 14077 C 1377.4 2.94258 -4.3152 0
M  V30 14078 H 1379.09 1.44978 -2.61957 0
M  V30 14079 H 1376.64 0.69603 -1.26061 0
M  V30 14080 H 1378.59 3.77163 -1.87953 0
M  V30 14081 H 1377.31 3.16822 -0.793186 0
M  V30 14082 H 1375.97 2.39096 -2.779 0
M  V30 14083 H 1375.62 4.68172 -1.83914 0
M  V30 14084 H 1375.32 4.64806 -3.59485 0
M  V30 14085 H 1376.84 5.33696 -2.96649 0
M  V30 14086 H 1378.26 3.61592 -4.44886 0
M  V30 14087 H 1376.65 3.16464 -5.09873 0
M  V30 14088 H 1377.72 1.90383 -4.45962 0
M  V30 14089 N 1379.07 1.38501 0.752011 0
M  V30 14090 C 1379.98 1.38094 1.8965 0
M  V30 14091 C 1380.99 0.277851 1.71767 0
M  V30 14092 O 1382.17 0.516536 1.94663 0
M  V30 14093 C 1379.23 1.2063 3.25037 0
M  V30 14094 C 1378.3 2.40758 3.55435 0
M  V30 14095 C 1377.53 2.24118 4.84362 0
M  V30 14096 O 1377.75 1.23571 5.56854 0
M  V30 14097 O 1376.69 3.12741 5.14273 0
M  V30 14098 H 1380.51 2.34532 1.92947 0
M  V30 14099 H 1378.1 1.19437 0.897504 0
M  V30 14100 H 1379.98 1.12957 4.05979 0
M  V30 14101 H 1378.65 0.272785 3.22549 0
M  V30 14102 H 1377.56 2.54006 2.74648 0
M  V30 14103 H 1378.89 3.32745 3.62686 0
M  V30 14104 N 1380.55 -0.980364 1.23396 0
M  V30 14105 C 1381.48 -2.07522 0.972991 0
M  V30 14106 C 1382.49 -1.62714 -0.0530191 0
M  V30 14107 O 1383.68 -1.77564 0.182513 0
M  V30 14108 C 1380.78 -3.35977 0.444126 0
M  V30 14109 C 1379.95 -4.09756 1.53031 0
M  V30 14110 C 1379.01 -5.16488 1.00631 0
M  V30 14111 O 1378.04 -5.43368 1.69529 0
M  V30 14112 N 1379.24 -5.80263 -0.165842 0
M  V30 14113 H 1382 -2.30487 1.91561 0
M  V30 14114 H 1379.57 -1.14706 1.14255 0
M  V30 14115 H 1381.56 -4.04624 0.078617 0
M  V30 14116 H 1380.13 -3.0998 -0.403912 0
M  V30 14117 H 1379.35 -3.35564 2.06858 0
M  V30 14118 H 1380.64 -4.55815 2.26076 0
M  V30 14119 H 1380.03 -5.60811 -0.742162 0
M  V30 14120 H 1378.59 -6.50084 -0.472614 0
M  V30 14121 N 1382.02 -1.04567 -1.17913 0
M  V30 14122 C 1382.95 -0.662066 -2.23917 0
M  V30 14123 C 1383.93 0.33713 -1.66726 0
M  V30 14124 O 1385.12 0.216116 -1.92994 0
M  V30 14125 C 1382.25 -0.029463 -3.47288 0
M  V30 14126 C 1381.2 -0.95274 -4.17261 0
M  V30 14127 C 1380.53 -0.184347 -5.34382 0
M  V30 14128 C 1381.83 -2.2741 -4.70194 0
M  V30 14129 H 1383.52 -1.54826 -2.5626 0
M  V30 14130 H 1381.07 -0.745886 -1.23177 0
M  V30 14131 H 1383.02 0.250654 -4.20654 0
M  V30 14132 H 1381.75 0.891638 -3.14193 0
M  V30 14133 H 1380.41 -1.21732 -3.45799 0
M  V30 14134 H 1380.05 0.73932 -4.97537 0
M  V30 14135 H 1379.75 -0.79949 -5.82136 0
M  V30 14136 H 1381.28 0.0886344 -6.10536 0
M  V30 14137 H 1382.69 -2.05433 -5.35229 0
M  V30 14138 H 1381.09 -2.84265 -5.28501 0
M  V30 14139 H 1382.16 -2.91708 -3.87342 0
M  V30 14140 N 1383.5 1.34231 -0.825823 0
M  V30 14141 C 1384.75 1.9849 -0.415891 0
M  V30 14142 C 1385.08 1.6531 1.01913 0
M  V30 14143 O 1384.36 0.926223 1.7103 0
M  V30 14144 C 1384.64 3.54691 -0.621785 0
M  V30 14145 C 1384.49 3.97603 -2.10313 0
M  V30 14146 C 1385.81 4.4006 -0.0595871 0
M  V30 14147 H 1382.93 0.721032 -0.152582 0
M  V30 14148 H 1385.57 1.5908 -1.03892 0
M  V30 14149 H 1383.72 3.88392 -0.0914439 0
M  V30 14150 H 1385.39 3.74221 -2.69733 0
M  V30 14151 H 1383.64 3.47809 -2.59251 0
M  V30 14152 H 1384.31 5.06352 -2.19799 0
M  V30 14153 H 1386.78 4.12929 -0.512743 0
M  V30 14154 H 1385.66 5.48403 -0.233431 0
M  V30 14155 H 1385.92 4.29798 1.03568 0
M  V30 14156 N 1384.98 0.581051 1.46498 0
M  V30 14157 C 1386.2 0.0696654 2.07283 0
M  V30 14158 C 1386.63 -1.22525 1.42721 0
M  V30 14159 O 1385.99 -1.73967 0.510421 0
M  V30 14160 C 1386.04 -0.0843864 3.60501 0
M  V30 14161 O 1385.14 -1.14129 3.96293 0
M  V30 14162 H 1384.48 0.0620572 0.661094 0
M  V30 14163 H 1387.01 0.803522 1.88161 0
M  V30 14164 H 1387.02 -0.29108 4.0696 0
M  V30 14165 H 1385.7 0.861274 4.06884 0
M  V30 14166 H 1384.27 -0.913186 3.61546 0
M  V30 14167 N 1386.46 -1.54343 0.318742 0
M  V30 14168 C 1387.7 -2.0048 -0.285276 0
M  V30 14169 C 1388.03 -1.20698 -1.5252 0
M  V30 14170 O 1387.29 -0.275893 -1.93746 0
M  V30 14171 C 1387.59 -3.51079 -0.669181 0
M  V30 14172 C 1387.25 -4.48433 0.471017 0
M  V30 14173 C 1385.91 -4.74771 0.783985 0
M  V30 14174 C 1388.27 -5.06304 1.23715 0
M  V30 14175 C 1385.59 -5.56239 1.86589 0
M  V30 14176 C 1387.95 -5.88951 2.30911 0
M  V30 14177 C 1386.61 -6.13592 2.62794 0
M  V30 14178 H 1385.88 -0.73361 -0.10439 0
M  V30 14179 H 1388.53 -1.86341 0.441521 0
M  V30 14180 H 1386.83 -3.62921 -1.47633 0
M  V30 14181 H 1388.53 -3.84216 -1.148 0
M  V30 14182 H 1385.12 -4.2805 0.217004 0
M  V30 14183 H 1389.3 -4.85943 1.00862 0
M  V30 14184 H 1384.56 -5.73563 2.11744 0
M  V30 14185 H 1388.73 -6.32814 2.90722 0
M  V30 14186 H 1386.36 -6.76508 3.46757 0
M  V30 14187 N 1387.94 -0.0468143 -1.5753 0
M  V30 14188 C 1388.87 0.927092 -2.14306 0
M  V30 14189 C 1389.85 1.32745 -1.06362 0
M  V30 14190 O 1391.03 1.40293 -1.34281 0
M  V30 14191 C 1388.16 2.20343 -2.68452 0
M  V30 14192 C 1387.12 1.94328 -3.81341 0
M  V30 14193 C 1386.44 3.28379 -4.21985 0
M  V30 14194 C 1387.74 1.26835 -5.06666 0
M  V30 14195 H 1389.44 0.454199 -2.95935 0
M  V30 14196 H 1386.98 0.217029 -1.42355 0
M  V30 14197 H 1388.93 2.8887 -3.0681 0
M  V30 14198 H 1387.66 2.6983 -1.84009 0
M  V30 14199 H 1386.32 1.28214 -3.43448 0
M  V30 14200 H 1385.97 3.75658 -3.34499 0
M  V30 14201 H 1385.67 3.11772 -4.98068 0
M  V30 14202 H 1387.19 3.98145 -4.6294 0
M  V30 14203 H 1388.6 1.85389 -5.42498 0
M  V30 14204 H 1387 1.20569 -5.87863 0
M  V30 14205 H 1388.07 0.243759 -4.84287 0
M  V30 14206 N 1389.41 1.55964 0.226527 0
M  V30 14207 C 1390.64 1.83168 0.972846 0
M  V30 14208 C 1391.06 0.626512 1.7736 0
M  V30 14209 O 1390.42 -0.42468 1.76256 0
M  V30 14210 C 1390.47 3.08315 1.87014 0
M  V30 14211 O 1389.57 2.8666 2.96479 0
M  V30 14212 H 1388.92 0.604041 0.275736 0
M  V30 14213 H 1391.45 2.03172 0.241345 0
M  V30 14214 H 1391.46 3.38288 2.28091 0
M  V30 14215 H 1390.13 3.95663 1.28154 0
M  V30 14216 H 1388.71 2.67907 2.59384 0
M  V30 14217 N 1390.89 -0.493031 1.4969 0
M  V30 14218 C 1392.14 -1.24418 1.59263 0
M  V30 14219 C 1392.46 -1.92908 0.284882 0
M  V30 14220 O 1391.73 -1.83108 -0.696302 0
M  V30 14221 H 1390.31 -0.462223 0.586821 0
M  V30 14222 H 1392.97 -0.570713 1.86357 0
M  V30 14223 H 1392.07 -2.00386 2.39274 0
M  V30 14224 N 1392.37 -1.38898 -0.744656 0
M  V30 14225 C 1393.32 -1.36845 -1.85855 0
M  V30 14226 C 1394.29 -0.2296 -1.64505 0
M  V30 14227 O 1395.47 -0.423221 -1.86047 0
M  V30 14228 C 1392.61 -1.20818 -3.2326 0
M  V30 14229 C 1391.73 -2.44166 -3.5638 0
M  V30 14230 C 1390.86 -2.20801 -4.83136 0
M  V30 14231 C 1389.9 -3.39874 -5.0907 0
M  V30 14232 N 1389.04 -3.15888 -6.27024 0
M  V30 14233 H 1393.88 -2.32068 -1.86945 0
M  V30 14234 H 1391.41 -1.15289 -0.913611 0
M  V30 14235 H 1393.37 -1.0954 -4.02563 0
M  V30 14236 H 1392 -0.292295 -3.21474 0
M  V30 14237 H 1391.05 -2.66083 -2.71852 0
M  V30 14238 H 1392.37 -3.32885 -3.71469 0
M  V30 14239 H 1391.52 -2.0671 -5.704 0
M  V30 14240 H 1390.26 -1.29462 -4.70203 0
M  V30 14241 H 1389.26 -3.54474 -4.20271 0
M  V30 14242 H 1390.49 -4.32102 -5.23894 0
M  V30 14243 H 1388.43 -2.27204 -6.15398 0
M  V30 14244 H 1388.35 -3.9816 -6.42655 0
M  V30 14245 H 1389.62 -3.0547 -7.17153 0
M  V30 14246 N 1393.85 0.973806 -1.23914 0
M  V30 14247 C 1395.13 1.69087 -0.9833 0
M  V30 14248 C 1395.51 2.05186 0.49619 0
M  V30 14249 O 1394.85 1.75021 1.46901 0
M  V30 14250 C 1395.06 2.92739 -1.90012 0
M  V30 14251 C 1396.41 3.65112 -2.16745 0
M  V30 14252 O 1397.44 3.02785 -1.87616 0
M  V30 14253 O 1396.29 4.77293 -2.66183 0
M  V30 14254 H 1393.39 0.738919 -0.371386 0
M  V30 14255 H 1395.93 1.02844 -1.34986 0
M  V30 14256 H 1394.71 2.6271 -2.89999 0
M  V30 14257 H 1394.33 3.66718 -1.53635 0
M  V30 14258 N 1395.33 1.05191 1.17357 0
M  V30 14259 C 1396.24 0.663617 2.25018 0
M  V30 14260 C 1397.25 -0.315299 1.71119 0
M  V30 14261 O 1398.43 -0.167398 2.00703 0
M  V30 14262 C 1395.49 0.0443307 3.46672 0
M  V30 14263 C 1394.55 1.07369 4.15656 0
M  V30 14264 C 1393.79 0.483864 5.31502 0
M  V30 14265 O 1394.01 -0.706692 5.66005 0
M  V30 14266 O 1392.94 1.21812 5.89445 0
M  V30 14267 H 1396.77 1.56088 2.60519 0
M  V30 14268 H 1394.36 0.823474 1.24657 0
M  V30 14269 H 1396.24 -0.299839 4.20332 0
M  V30 14270 H 1394.91 -0.826579 3.12969 0
M  V30 14271 H 1393.82 1.46985 3.44015 0
M  V30 14272 H 1395.15 1.91575 4.53387 0
M  V30 14273 N 1396.8 -1.33791 0.83293 0
M  V30 14274 C 1398.03 -2.02187 0.439077 0
M  V30 14275 C 1398.45 -1.62692 -0.957958 0
M  V30 14276 O 1397.8 -0.837302 -1.62159 0
M  V30 14277 C 1397.86 -3.57395 0.543232 0
M  V30 14278 O 1397.58 -3.95463 1.88522 0
M  V30 14279 C 1399.08 -4.43061 0.145567 0
M  V30 14280 H 1396.3 -0.64778 0.174992 0
M  V30 14281 H 1398.84 -1.7085 1.12386 0
M  V30 14282 H 1397 -3.87287 -0.0935746 0
M  V30 14283 H 1397.41 -4.90164 1.86653 0
M  V30 14284 H 1398.88 -5.51342 0.269507 0
M  V30 14285 H 1399.36 -4.29628 -0.911934 0
M  V30 14286 H 1399.97 -4.18517 0.756572 0
M  V30 14287 N 1398.28 -0.588812 -1.46187 0
M  V30 14288 C 1399.19 0.143253 -2.34162 0
M  V30 14289 C 1400.21 0.879779 -1.5012 0
M  V30 14290 O 1401.38 0.841592 -1.82973 0
M  V30 14291 C 1398.45 1.14017 -3.27416 0
M  V30 14292 C 1397.51 0.407651 -4.2736 0
M  V30 14293 C 1396.74 1.35708 -5.16158 0
M  V30 14294 O 1396.97 2.59394 -5.08007 0
M  V30 14295 O 1395.9 0.864343 -5.95662 0
M  V30 14296 H 1399.73 -0.579228 -2.98125 0
M  V30 14297 H 1397.31 -0.349174 -1.45262 0
M  V30 14298 H 1399.19 1.71484 -3.8493 0
M  V30 14299 H 1397.87 1.84401 -2.66041 0
M  V30 14300 H 1396.78 -0.209011 -3.73516 0
M  V30 14301 H 1398.11 -0.255334 -4.91537 0
M  V30 14302 N 1399.76 1.54172 -0.326923 0
M  V30 14303 C 1400.69 2.27402 0.530154 0
M  V30 14304 C 1401.67 1.28325 1.11655 0
M  V30 14305 O 1402.86 1.57142 1.14105 0
M  V30 14306 C 1399.99 3.03435 1.68951 0
M  V30 14307 C 1398.94 4.09877 1.23226 0
M  V30 14308 C 1398.27 4.7377 2.47882 0
M  V30 14309 C 1399.57 5.21161 0.344698 0
M  V30 14310 H 1401.26 2.99291 -0.0806959 0
M  V30 14311 H 1398.81 1.43944 -0.0402511 0
M  V30 14312 H 1400.76 3.53396 2.29541 0
M  V30 14313 H 1399.48 2.29169 2.327 0
M  V30 14314 H 1398.14 3.60805 0.649267 0
M  V30 14315 H 1397.79 3.96116 3.10002 0
M  V30 14316 H 1397.49 5.45674 2.17977 0
M  V30 14317 H 1399.01 5.26507 3.09229 0
M  V30 14318 H 1400.43 5.66859 0.856979 0
M  V30 14319 H 1398.83 5.99941 0.138276 0
M  V30 14320 H 1399.9 4.80874 -0.623575 0
M  V30 14321 N 1401.24 0.0551678 1.57503 0
M  V30 14322 C 1402.2 -0.903065 2.10659 0
M  V30 14323 C 1403.2 -1.23728 1.02703 0
M  V30 14324 O 1404.39 -1.17331 1.2876 0
M  V30 14325 C 1401.52 -2.21171 2.59415 0
M  V30 14326 H 1402.72 -0.442197 2.96622 0
M  V30 14327 H 1400.27 -0.193297 1.551 0
M  V30 14328 H 1401 -2.71831 1.76858 0
M  V30 14329 H 1400.79 -1.98216 3.38309 0
M  V30 14330 H 1402.28 -2.89802 3.00674 0
M  V30 14331 N 1402.72 -1.56081 -0.218252 0
M  V30 14332 C 1403.63 -1.95856 -1.29141 0
M  V30 14333 C 1404.64 -0.862857 -1.51099 0
M  V30 14334 O 1405.82 -1.1667 -1.64165 0
M  V30 14335 C 1402.88 -2.27005 -2.62049 0
M  V30 14336 C 1401.94 -3.50162 -2.48365 0
M  V30 14337 C 1401.18 -3.79815 -3.74935 0
M  V30 14338 O 1401.4 -3.11095 -4.78096 0
M  V30 14339 O 1400.33 -4.73299 -3.71849 0
M  V30 14340 H 1404.16 -2.8732 -0.983922 0
M  V30 14341 H 1401.75 -1.43334 -0.421385 0
M  V30 14342 H 1403.63 -2.4822 -3.40536 0
M  V30 14343 H 1402.3 -1.38715 -2.92472 0
M  V30 14344 H 1401.21 -3.34222 -1.68066 0
M  V30 14345 H 1402.54 -4.38845 -2.22881 0
M  V30 14346 N 1404.2 0.485086 -1.49949 0
M  V30 14347 C 1405.13 1.59312 -1.7071 0
M  V30 14348 C 1406.11 1.6076 -0.555896 0
M  V30 14349 O 1407.29 1.77249 -0.793504 0
M  V30 14350 C 1404.42 2.97718 -1.78834 0
M  V30 14351 C 1403.38 3.11136 -2.93902 0
M  V30 14352 C 1402.7 4.51051 -2.87154 0
M  V30 14353 C 1404 2.89665 -4.34617 0
M  V30 14354 H 1405.7 1.42192 -2.6348 0
M  V30 14355 H 1403.24 0.68262 -1.26792 0
M  V30 14356 H 1405.19 3.75148 -1.91943 0
M  V30 14357 H 1403.92 3.15963 -0.826744 0
M  V30 14358 H 1402.58 2.36135 -2.80421 0
M  V30 14359 H 1402.23 4.66195 -1.88869 0
M  V30 14360 H 1401.93 4.60967 -3.64394 0
M  V30 14361 H 1403.45 5.3052 -3.02293 0
M  V30 14362 H 1404.86 3.56853 -4.48697 0
M  V30 14363 H 1403.26 3.11039 -5.13201 0
M  V30 14364 H 1404.33 1.85642 -4.47956 0
M  V30 14365 N 1405.67 1.39291 0.737279 0
M  V30 14366 C 1406.95 1.26901 1.48847 0
M  V30 14367 C 1407.33 -0.122417 2.10745 0
M  V30 14368 O 1406.68 -1.13343 1.98408 0
M  V30 14369 C 1406.89 2.3916 2.54172 0
M  V30 14370 C 1408.24 2.78368 3.20619 0
M  V30 14371 O 1409.26 2.38593 2.64484 0
M  V30 14372 O 1408.12 3.47014 4.22189 0
M  V30 14373 H 1405.21 0.497176 0.660867 0
M  V30 14374 H 1407.76 1.51159 0.771299 0
M  V30 14375 H 1406.53 3.3219 2.06797 0
M  V30 14376 H 1406.15 2.16555 3.33451 0
M  V30 14377 N 1407.15 -0.967221 1.24429 0
M  V30 14378 C 1408.57 -1.23594 1.00979 0
M  V30 14379 C 1408.77 -1.99529 -0.281112 0
M  V30 14380 O 1407.82 -2.31977 -0.997139 0
M  V30 14381 C 1409.14 -2.02261 2.22511 0
M  V30 14382 C 1410.68 -2.15352 2.2714 0
M  V30 14383 C 1411.16 -2.97414 3.48294 0
M  V30 14384 N 1412.65 -3.04996 3.48614 0
M  V30 14385 C 1413.39 -3.68851 4.39017 0
M  V30 14386 N 1412.88 -4.34421 5.39676 0
M  V30 14387 N 1414.67 -3.65868 4.26728 0
M  V30 14388 H 1406.83 -0.458881 2.07384 0
M  V30 14389 H 1409.09 -0.265411 0.910088 0
M  V30 14390 H 1408.79 -1.53852 3.16263 0
M  V30 14391 H 1408.67 -3.02993 2.24667 0
M  V30 14392 H 1411.06 -2.62964 1.33919 0
M  V30 14393 H 1411.14 -1.13966 2.2901 0
M  V30 14394 H 1410.78 -2.50495 4.41831 0
M  V30 14395 H 1410.71 -3.98998 3.43668 0
M  V30 14396 H 1413.2 -2.58354 2.75793 0
M  V30 14397 H 1413.51 -4.80965 6.04891 0
M  V30 14398 H 1411.86 -4.33089 5.43562 0
M  V30 14399 H 1415.05 -3.13819 3.47325 0
M  V30 14400 H 1415.22 -4.15349 4.97382 0
M  V30 14401 N 1408.63 -1.05812 -1.16797 0
M  V30 14402 C 1409.59 -0.668766 -2.19226 0
M  V30 14403 C 1410.59 0.28299 -1.5829 0
M  V30 14404 O 1411.78 0.0660233 -1.74075 0
M  V30 14405 C 1408.91 0.0167379 -3.40896 0
M  V30 14406 H 1410.11 -1.57543 -2.55187 0
M  V30 14407 H 1407.66 -0.852753 -1.30988 0
M  V30 14408 H 1408.4 0.936382 -3.10487 0
M  V30 14409 H 1408.18 -0.667576 -3.86375 0
M  V30 14410 H 1409.67 0.275041 -4.16693 0
M  V30 14411 N 1410.11 1.33347 -0.840014 0
M  V30 14412 C 1411.04 2.31703 -0.289138 0
M  V30 14413 C 1412.02 1.59024 0.603759 0
M  V30 14414 O 1413.2 1.86911 0.527071 0
M  V30 14415 C 1410.33 3.43144 0.53566 0
M  V30 14416 C 1409.29 4.272 -0.261544 0
M  V30 14417 C 1408.61 5.30267 0.687075 0
M  V30 14418 C 1409.91 5.00915 -1.47924 0
M  V30 14419 H 1411.61 2.78026 -1.11094 0
M  V30 14420 H 1409.15 1.33666 -0.535658 0
M  V30 14421 H 1411.11 4.10979 0.931351 0
M  V30 14422 H 1409.83 2.95512 1.39069 0
M  V30 14423 H 1408.49 3.60991 -0.638809 0
M  V30 14424 H 1408.14 4.78893 1.53853 0
M  V30 14425 H 1407.84 5.87388 0.157773 0
M  V30 14426 H 1409.36 6.00968 1.08026 0
M  V30 14427 H 1410.78 5.61511 -1.15664 0
M  V30 14428 H 1409.17 5.67692 -1.94541 0
M  V30 14429 H 1410.24 4.29622 -2.24839 0
M  V30 14430 N 1411.59 0.596556 1.45873 0
M  V30 14431 C 1412.83 0.0872856 2.01911 0
M  V30 14432 C 1413.15 -1.28257 1.46885 0
M  V30 14433 O 1412.42 -1.84489 0.658837 0
M  V30 14434 H 1411 0.0292769 0.746426 0
M  V30 14435 H 1413.67 0.775464 1.78809 0
M  V30 14436 H 1412.76 0.0287213 3.12087 0
M  V30 14437 N 1413.06 -1.53996 0.335095 0
M  V30 14438 C 1414.31 -1.99952 -0.264954 0
M  V30 14439 C 1414.63 -1.22696 -1.52332 0
M  V30 14440 O 1415.83 -1.59086 -2.20009 0
M  V30 14441 C 1414.29 -3.56085 -0.522667 0
M  V30 14442 C 1413.9 -4.42188 0.719314 0
M  V30 14443 C 1415.64 -4.10478 -1.08204 0
M  V30 14444 C 1413.55 -5.89814 0.432867 0
M  V30 14445 H 1412.48 -0.746962 -0.102782 0
M  V30 14446 H 1415.13 -1.77919 0.449111 0
M  V30 14447 H 1413.51 -3.7415 -1.29722 0
M  V30 14448 H 1414.68 -4.35898 1.49432 0
M  V30 14449 H 1413 -3.98743 1.19972 0
M  V30 14450 H 1415.6 -5.18375 -1.31116 0
M  V30 14451 H 1415.94 -3.63173 -2.03497 0
M  V30 14452 H 1416.47 -3.96091 -0.368395 0
M  V30 14453 H 1413.21 -6.41336 1.35529 0
M  V30 14454 H 1412.73 -5.99028 -0.304214 0
M  V30 14455 H 1414.41 -6.46983 0.0469657 0
M  V30 14456 N 1414.54 -0.0635198 -1.57472 0
M  V30 14457 C 1415.82 0.648029 -1.84553 0
M  V30 14458 C 1416.2 1.88295 -0.954371 0
M  V30 14459 O 1415.55 2.28492 -0.0185351 0
M  V30 14460 C 1415.76 0.993573 -3.34558 0
M  V30 14461 C 1417.1 1.3706 -4.0187 0
M  V30 14462 O 1418.13 1.08555 -3.39255 0
M  V30 14463 O 1416.99 1.90309 -5.12294 0
M  V30 14464 H 1414.08 0.321047 -0.76214 0
M  V30 14465 H 1416.63 -0.0938223 -1.6944 0
M  V30 14466 H 1415.4 0.116139 -3.91128 0
M  V30 14467 H 1415.02 1.79246 -3.54904 0
M  V30 14468 N 1416.02 1.56195 0.209972 0
M  V30 14469 C 1416.97 1.93355 1.26026 0
M  V30 14470 C 1417.94 0.792195 1.45991 0
M  V30 14471 O 1419.12 1.04909 1.5937 0
M  V30 14472 C 1416.26 2.26558 2.60318 0
M  V30 14473 C 1415.37 3.53685 2.48055 0
M  V30 14474 C 1414.51 3.76279 3.7495 0
M  V30 14475 C 1413.55 4.96881 3.57457 0
M  V30 14476 N 1412.69 5.15806 4.76328 0
M  V30 14477 H 1417.53 2.82907 0.936357 0
M  V30 14478 H 1415.06 1.40015 0.451022 0
M  V30 14479 H 1417.02 2.43821 3.38537 0
M  V30 14480 H 1415.65 1.40165 2.90781 0
M  V30 14481 H 1414.7 3.44551 1.61211 0
M  V30 14482 H 1416.01 4.42057 2.31056 0
M  V30 14483 H 1415.17 3.93702 4.6161 0
M  V30 14484 H 1413.91 2.86209 3.94887 0
M  V30 14485 H 1412.91 4.79397 2.69181 0
M  V30 14486 H 1414.14 5.88447 3.38979 0
M  V30 14487 H 1412.08 4.28681 4.96557 0
M  V30 14488 H 1412 5.98332 4.62099 0
M  V30 14489 H 1413.27 5.37674 5.64382 0
M  V30 14490 N 1417.5 -0.477127 1.50204 0
M  V30 14491 C 1418.43 -1.58405 1.71552 0
M  V30 14492 C 1419.41 -1.60463 0.564413 0
M  V30 14493 O 1420.59 -1.76826 0.802893 0
M  V30 14494 C 1417.72 -2.96765 1.8041 0
M  V30 14495 C 1416.68 -3.09573 2.95548 0
M  V30 14496 C 1416 -4.49522 2.89542 0
M  V30 14497 C 1417.3 -2.87356 4.36147 0
M  V30 14498 H 1419 -1.40792 2.64231 0
M  V30 14499 H 1416.54 -0.675886 1.27153 0
M  V30 14500 H 1418.5 -3.74125 1.9393 0
M  V30 14501 H 1417.22 -3.1552 0.843489 0
M  V30 14502 H 1415.88 -2.34645 2.81669 0
M  V30 14503 H 1415.53 -4.65186 1.91339 0
M  V30 14504 H 1415.23 -4.59028 3.66834 0
M  V30 14505 H 1416.75 -5.28909 3.05102 0
M  V30 14506 H 1418.17 -3.54469 4.50583 0
M  V30 14507 H 1416.56 -3.08313 5.14843 0
M  V30 14508 H 1417.63 -1.83264 4.48935 0
M  V30 14509 N 1418.98 -1.3968 -0.729882 0
M  V30 14510 C 1420.22 -1.37385 -1.49175 0
M  V30 14511 C 1420.56 0.0285839 -1.94179 0
M  V30 14512 O 1419.83 0.994516 -1.67152 0
M  V30 14513 C 1420.11 -2.35075 -2.72785 0
M  V30 14514 C 1419.97 -3.84282 -2.33767 0
M  V30 14515 C 1421.29 -2.30515 -3.74901 0
M  V30 14516 H 1418.4 -0.500359 -0.541119 0
M  V30 14517 H 1421.05 -1.7071 -0.834152 0
M  V30 14518 H 1419.2 -2.06787 -3.28894 0
M  V30 14519 H 1420.87 -4.2334 -1.8325 0
M  V30 14520 H 1419.11 -4.00809 -1.65935 0
M  V30 14521 H 1419.78 -4.48131 -3.22309 0
M  V30 14522 H 1422.26 -2.55539 -3.28389 0
M  V30 14523 H 1421.13 -3.00939 -4.5905 0
M  V30 14524 H 1421.4 -1.3119 -4.22187 0
M  V30 14525 N 1420.45 0.960609 -1.2494 0
M  V30 14526 C 1421.39 2.05948 -1.00588 0
M  V30 14527 C 1422.4 1.62777 0.0271261 0
M  V30 14528 O 1423.59 1.77252 -0.210739 0
M  V30 14529 C 1420.69 3.35228 -0.497521 0
M  V30 14530 C 1419.86 4.0727 -1.59531 0
M  V30 14531 C 1418.92 5.14822 -1.08836 0
M  V30 14532 O 1417.95 5.40602 -1.78153 0
M  V30 14533 N 1419.15 5.80453 0.0735067 0
M  V30 14534 H 1421.91 2.27411 -1.95204 0
M  V30 14535 H 1419.47 1.12874 -1.16065 0
M  V30 14536 H 1421.47 4.04447 -0.142979 0
M  V30 14537 H 1420.04 3.10583 0.354546 0
M  V30 14538 H 1419.26 3.32231 -2.12171 0
M  V30 14539 H 1420.54 4.52161 -2.33299 0
M  V30 14540 H 1419.94 5.6192 0.652848 0
M  V30 14541 H 1418.5 6.50754 0.369132 0
M  V30 14542 N 1421.93 1.0643 1.16234 0
M  V30 14543 C 1423.18 0.780296 1.86429 0
M  V30 14544 C 1423.5 -0.695335 1.82181 0
M  V30 14545 O 1422.77 -1.50312 1.2563 0
M  V30 14546 H 1421.35 0.285654 0.690225 0
M  V30 14547 H 1424.01 1.34609 1.40949 0
M  V30 14548 H 1423.11 1.10644 2.91829 0
M  V30 14549 N 1423.41 -1.329 0.847073 0
M  V30 14550 C 1424.66 -1.9712 0.445872 0
M  V30 14551 C 1424.98 -1.67398 -1.00014 0
M  V30 14552 O 1424.25 -0.977204 -1.69787 0
M  V30 14553 H 1422.83 -0.729247 0.161887 0
M  V30 14554 H 1425.49 -1.62118 1.08184 0
M  V30 14555 H 1424.59 -3.06575 0.584676 0
M  V30 14556 N 1424.89 -0.604284 -1.45555 0
M  V30 14557 C 1426.14 -0.0979922 -2.01862 0
M  V30 14558 C 1426.46 1.27476 -1.47563 0
M  V30 14559 O 1425.73 1.84137 -0.668612 0
M  V30 14560 H 1424.31 -0.033235 -0.74626 0
M  V30 14561 H 1426.97 -0.784936 -1.78395 0
M  V30 14562 H 1426.07 -0.0452716 -3.12067 0
M  V30 14563 N 1426.37 1.53816 -0.343257 0
M  V30 14564 C 1427.3 2.27951 0.506005 0
M  V30 14565 C 1428.28 1.29502 1.10287 0
M  V30 14566 O 1429.46 1.58344 1.12432 0
M  V30 14567 C 1426.59 3.0521 1.65723 0
M  V30 14568 C 1425.55 4.11161 1.18871 0
M  V30 14569 C 1424.87 4.76373 2.42843 0
M  V30 14570 C 1426.17 5.21498 0.289403 0
M  V30 14571 H 1427.87 2.99189 -0.112435 0
M  V30 14572 H 1425.41 1.43893 -0.055516 0
M  V30 14573 H 1427.37 3.55811 2.2578 0
M  V30 14574 H 1426.09 2.31624 2.30256 0
M  V30 14575 H 1424.75 3.61473 0.610962 0
M  V30 14576 H 1424.4 3.99381 3.05784 0
M  V30 14577 H 1424.1 5.47955 2.12177 0
M  V30 14578 H 1425.62 5.29758 3.03627 0
M  V30 14579 H 1427.03 5.67736 0.796808 0
M  V30 14580 H 1425.43 6.00054 0.0746366 0
M  V30 14581 H 1426.5 4.80185 -0.674543 0
M  V30 14582 N 1427.84 0.0718701 1.57436 0
M  V30 14583 C 1429.12 -0.638233 1.84894 0
M  V30 14584 C 1429.5 -1.87786 0.964343 0
M  V30 14585 O 1428.85 -2.28479 0.0306523 0
M  V30 14586 C 1429.06 -0.975817 3.3508 0
M  V30 14587 C 1430.41 -1.34927 4.02591 0
M  V30 14588 O 1431.43 -1.06754 3.39826 0
M  V30 14589 O 1430.29 -1.87589 5.13296 0
M  V30 14590 H 1427.38 -0.317 0.763832 0
M  V30 14591 H 1429.93 0.102807 1.69388 0
M  V30 14592 H 1428.7 -0.0953948 3.91184 0
M  V30 14593 H 1428.33 -1.77362 3.55849 0
M  V30 14594 N 1429.32 -1.56304 -0.201686 0
M  V30 14595 C 1430.57 -1.80504 -0.92446 0
M  V30 14596 C 1430.9 -0.644832 -1.83182 0
M  V30 14597 O 1430.18 0.354963 -1.91234 0
M  V30 14598 C 1430.46 -3.14919 -1.74636 0
M  V30 14599 C 1430.31 -4.41421 -0.864169 0
M  V30 14600 C 1431.63 -3.45962 -2.72026 0
M  V30 14601 H 1428.75 -0.656643 -0.334648 0
M  V30 14602 H 1431.39 -1.89025 -0.192188 0
M  V30 14603 H 1429.54 -3.07785 -2.37066 0
M  V30 14604 H 1431.21 -4.60594 -0.255084 0
M  V30 14605 H 1429.46 -4.33465 -0.170548 0
M  V30 14606 H 1430.13 -5.31954 -1.47409 0
M  V30 14607 H 1432.6 -3.53353 -2.1973 0
M  V30 14608 H 1431.48 -4.41146 -3.26622 0
M  V30 14609 H 1431.74 -2.69124 -3.50749 0
M  V30 14610 N 1430.8 0.469154 -1.50455 0
M  V30 14611 C 1431.73 1.57493 -1.7239 0
M  V30 14612 C 1432.71 1.60161 -0.572915 0
M  V30 14613 O 1433.9 1.76397 -0.812259 0
M  V30 14614 C 1431.03 2.95804 -1.81981 0
M  V30 14615 C 1429.98 3.08001 -2.97185 0
M  V30 14616 C 1429.31 4.4798 -2.91922 0
M  V30 14617 C 1430.61 2.85039 -4.37665 0
M  V30 14618 H 1432.3 1.39389 -2.64974 0
M  V30 14619 H 1429.85 0.669133 -1.27509 0
M  V30 14620 H 1431.8 3.73091 -1.95911 0
M  V30 14621 H 1430.52 3.15068 -0.86021 0
M  V30 14622 H 1429.18 2.33148 -2.82909 0
M  V30 14623 H 1428.83 4.64165 -1.93803 0
M  V30 14624 H 1428.53 4.57076 -3.69263 0
M  V30 14625 H 1430.05 5.27284 -3.07903 0
M  V30 14626 H 1431.47 3.52074 -4.52456 0
M  V30 14627 H 1429.87 3.05578 -5.16471 0
M  V30 14628 H 1430.94 1.8088 -4.499 0
M  V30 14629 N 1432.28 1.40065 0.722464 0
M  V30 14630 C 1433.5 1.4146 1.5167 0
M  V30 14631 C 1433.93 0.0142653 1.88095 0
M  V30 14632 O 1433.29 -0.975934 1.52791 0
M  V30 14633 C 1433.33 2.30531 2.77287 0
M  V30 14634 O 1432.44 1.74382 3.73717 0
M  V30 14635 H 1431.78 0.481194 0.457546 0
M  V30 14636 H 1434.31 1.84213 0.890331 0
M  V30 14637 H 1434.32 2.45479 3.25889 0
M  V30 14638 H 1432.99 3.32292 2.50109 0
M  V30 14639 H 1431.57 1.68743 3.32536 0
M  V30 14640 N 1433.76 -0.95397 1.25448 0
M  V30 14641 C 1434.67 -2.08452 1.07634 0
M  V30 14642 C 1435.68 -1.73995 0.013294 0
M  V30 14643 O 1436.86 -2.00256 0.214367 0
M  V30 14644 C 1433.92 -3.39606 0.697756 0
M  V30 14645 C 1432.99 -3.87926 1.83881 0
M  V30 14646 C 1432.22 -5.12821 1.47819 0
M  V30 14647 O 1432.44 -5.69172 0.374143 0
M  V30 14648 O 1431.38 -5.55866 2.3086 0
M  V30 14649 H 1435.2 -2.26382 2.02447 0
M  V30 14650 H 1432.79 -1.06877 1.04392 0
M  V30 14651 H 1434.67 -4.18438 0.498778 0
M  V30 14652 H 1433.34 -3.22944 -0.221108 0
M  V30 14653 H 1432.25 -3.10095 2.09265 0
M  V30 14654 H 1433.58 -4.09087 2.73694 0
M  V30 14655 N 1435.24 -1.07045 -1.15668 0
M  V30 14656 C 1436.65 -0.795369 -1.38369 0
M  V30 14657 C 1436.85 0.601829 -1.92303 0
M  V30 14658 O 1435.91 1.36109 -2.12675 0
M  V30 14659 C 1437.22 -1.86659 -2.35752 0
M  V30 14660 C 1438.77 -1.89098 -2.49421 0
M  V30 14661 C 1439.24 -2.95296 -3.50092 0
M  V30 14662 N 1440.73 -2.94378 -3.57625 0
M  V30 14663 C 1441.47 -3.73194 -4.35331 0
M  V30 14664 N 1440.97 -4.61851 -5.16397 0
M  V30 14665 N 1442.76 -3.61554 -4.30389 0
M  V30 14666 H 1434.91 -1.97162 -0.790004 0
M  V30 14667 H 1437.17 -0.854816 -0.40987 0
M  V30 14668 H 1436.88 -2.87036 -2.03232 0
M  V30 14669 H 1436.75 -1.72406 -3.35494 0
M  V30 14670 H 1439.14 -0.893752 -2.8124 0
M  V30 14671 H 1439.22 -2.07429 -1.49689 0
M  V30 14672 H 1438.86 -3.95217 -3.19008 0
M  V30 14673 H 1438.79 -2.74212 -4.49572 0
M  V30 14674 H 1441.29 -2.3011 -2.99763 0
M  V30 14675 H 1441.6 -5.18629 -5.72926 0
M  V30 14676 H 1439.94 -4.65902 -5.15714 0
M  V30 14677 H 1443.13 -2.91672 -3.66122 0
M  V30 14678 H 1443.31 -4.23221 -4.90701 0
M  V30 14679 N 1436.71 1.32449 -0.85411 0
M  V30 14680 C 1437.96 1.97271 -0.457223 0
M  V30 14681 C 1438.29 1.67595 0.987031 0
M  V30 14682 O 1437.54 0.956301 1.70744 0
M  V30 14683 C 1437.84 3.51577 -0.642499 0
M  V30 14684 C 1437.51 4.01239 -2.05714 0
M  V30 14685 C 1436.17 4.14512 -2.44405 0
M  V30 14686 C 1438.52 4.27573 -2.98046 0
M  V30 14687 C 1435.85 4.5146 -3.74701 0
M  V30 14688 C 1438.2 4.65979 -4.27839 0
M  V30 14689 C 1436.87 4.77458 -4.66465 0
M  V30 14690 H 1436.14 0.721865 -0.16731 0
M  V30 14691 H 1438.78 1.57862 -1.08406 0
M  V30 14692 H 1437.09 3.91742 0.0675706 0
M  V30 14693 H 1438.79 3.99757 -0.315473 0
M  V30 14694 H 1435.38 3.91393 -1.74669 0
M  V30 14695 H 1439.56 4.16827 -2.69386 0
M  V30 14696 H 1434.82 4.58542 -4.04412 0
M  V30 14697 H 1438.99 4.8531 -4.99447 0
M  V30 14698 H 1436.62 5.05845 -5.67472 0
M  V30 14699 N 1438.19 0.611994 1.45232 0
M  V30 14700 C 1439.6 0.193464 1.85695 0
M  V30 14701 C 1439.95 -1.25069 1.5117 0
M  V30 14702 O 1439.08 -1.94894 0.940497 0
M  V30 14703 C 1439.67 0.344334 3.37046 0
M  V30 14704 C 1438.23 -0.0195378 3.76395 0
M  V30 14705 C 1437.38 0.666714 2.69166 0
M  V30 14706 H 1440.33 0.818395 1.35971 0
M  V30 14707 H 1440.35 -0.422209 3.7815 0
M  V30 14708 H 1439.86 1.3955 3.62143 0
M  V30 14709 H 1437.96 -1.06971 3.56915 0
M  V30 14710 H 1438.08 0.377184 4.77613 0
M  V30 14711 H 1436.44 0.103912 2.54488 0
M  V30 14712 H 1437.22 1.7201 2.97099 0
M  V30 14713 N 1439.67 -1.53632 0.351409 0
M  V30 14714 C 1441.08 -1.86241 -0.130834 0
M  V30 14715 C 1441.43 -1.27243 -1.49344 0
M  V30 14716 O 1440.56 -0.589006 -2.0823 0
M  V30 14717 C 1441.15 -3.37919 -0.244179 0
M  V30 14718 C 1439.71 -3.70377 -0.670662 0
M  V30 14719 C 1438.86 -2.76643 0.190813 0
M  V30 14720 H 1441.81 -1.48083 0.570724 0
M  V30 14721 H 1441.83 -3.65137 -1.07029 0
M  V30 14722 H 1441.34 -3.8083 0.747688 0
M  V30 14723 H 1439.44 -3.33015 -1.67127 0
M  V30 14724 H 1439.56 -4.76934 -0.455102 0
M  V30 14725 H 1437.92 -2.52446 -0.338092 0
M  V30 14726 H 1438.7 -3.22385 1.17996 0
M  V30 14727 N 1441.15 -0.0802183 -1.57396 0
M  V30 14728 C 1442.08 0.913777 -2.10197 0
M  V30 14729 C 1443.09 1.25588 -1.03593 0
M  V30 14730 O 1444.28 1.21159 -1.31083 0
M  V30 14731 C 1441.38 2.2272 -2.55439 0
M  V30 14732 C 1440.55 2.06268 -3.8571 0
M  V30 14733 C 1439.61 3.20989 -4.16956 0
M  V30 14734 O 1438.64 2.95608 -4.8642 0
M  V30 14735 N 1439.84 4.46331 -3.71172 0
M  V30 14736 H 1442.61 0.462908 -2.96103 0
M  V30 14737 H 1440.17 0.105287 -1.61557 0
M  V30 14738 H 1442.16 2.98389 -2.73397 0
M  V30 14739 H 1440.73 2.59278 -1.74624 0
M  V30 14740 H 1439.95 1.15016 -3.77048 0
M  V30 14741 H 1441.24 1.92535 -4.70965 0
M  V30 14742 H 1440.64 4.69837 -3.15071 0
M  V30 14743 H 1439.19 5.18999 -3.94314 0
M  V30 14744 N 1442.63 1.56409 0.193394 0
M  V30 14745 C 1443.56 1.91211 1.26377 0
M  V30 14746 C 1444.57 0.802944 1.41622 0
M  V30 14747 O 1445.76 1.08136 1.42017 0
M  V30 14748 C 1442.86 2.13039 2.63567 0
M  V30 14749 C 1442.03 3.44192 2.69909 0
M  V30 14750 C 1441.09 3.55111 3.88307 0
M  V30 14751 O 1440.12 4.2792 3.75331 0
M  V30 14752 N 1441.32 2.88325 5.03834 0
M  V30 14753 H 1444.08 2.83624 0.968383 0
M  V30 14754 H 1441.65 1.57297 0.383302 0
M  V30 14755 H 1443.64 2.1763 3.41202 0
M  V30 14756 H 1442.21 1.27116 2.85588 0
M  V30 14757 H 1441.43 3.51452 1.78535 0
M  V30 14758 H 1442.72 4.30536 2.71139 0
M  V30 14759 H 1442.11 2.29003 5.17276 0
M  V30 14760 H 1440.67 2.98542 5.7941 0
M  V30 14761 N 1444.1 -0.461169 1.50702 0
M  V30 14762 C 1445.07 -1.54032 1.69725 0
M  V30 14763 C 1446.07 -1.50445 0.567707 0
M  V30 14764 O 1447.26 -1.52889 0.834901 0
M  V30 14765 C 1444.39 -2.93642 1.73168 0
M  V30 14766 H 1445.58 -1.38478 2.66015 0
M  V30 14767 H 1443.13 -0.688235 1.40332 0
M  V30 14768 H 1443.87 -3.14629 0.786078 0
M  V30 14769 H 1443.65 -2.97652 2.55236 0
M  V30 14770 H 1445.14 -3.71972 1.89807 0
M  V30 14771 N 1445.58 -1.40446 -0.715026 0
M  V30 14772 C 1446.81 -1.4207 -1.50412 0
M  V30 14773 C 1447.22 -0.0205547 -1.88789 0
M  V30 14774 O 1446.58 0.955635 -1.55479 0
M  V30 14775 C 1446.63 -2.3119 -2.77909 0
M  V30 14776 O 1446.35 -3.65754 -2.41154 0
M  V30 14777 C 1447.85 -2.41412 -3.718 0
M  V30 14778 H 1445.07 -0.484554 -0.464164 0
M  V30 14779 H 1447.62 -1.84504 -0.881964 0
M  V30 14780 H 1445.77 -1.92117 -3.36407 0
M  V30 14781 H 1446.19 -4.13091 -3.23197 0
M  V30 14782 H 1447.66 -3.07976 -4.58099 0
M  V30 14783 H 1448.14 -1.43934 -4.14945 0
M  V30 14784 H 1448.74 -2.81039 -3.19213 0
M  V30 14785 N 1447.06 0.947303 -1.25952 0
M  V30 14786 C 1448.47 1.50755 -1.10136 0
M  V30 14787 C 1448.82 1.93566 0.320437 0
M  V30 14788 O 1447.95 1.79326 1.21125 0
M  V30 14789 C 1448.54 2.7397 -1.99313 0
M  V30 14790 C 1447.1 3.26283 -1.8766 0
M  V30 14791 C 1446.25 1.99088 -1.93027 0
M  V30 14792 H 1449.2 0.763427 -1.39131 0
M  V30 14793 H 1449.22 3.48057 -1.53742 0
M  V30 14794 H 1448.73 2.42781 -3.02785 0
M  V30 14795 H 1446.83 3.62277 -0.870992 0
M  V30 14796 H 1446.95 3.93803 -2.72866 0
M  V30 14797 H 1445.31 2.14714 -1.37003 0
M  V30 14798 H 1446.09 1.70237 -2.98118 0
M  V30 14799 N 1448.54 1.07657 1.15099 0
M  V30 14800 C 1449.95 0.823828 1.67541 0
M  V30 14801 C 1450.3 -0.650601 1.85099 0
M  V30 14802 O 1449.43 -1.50333 1.55657 0
M  V30 14803 C 1450.02 1.4889 3.04331 0
M  V30 14804 C 1448.58 1.28359 3.53837 0
M  V30 14805 C 1447.73 1.55659 2.2949 0
M  V30 14806 H 1450.68 1.23819 0.992699 0
M  V30 14807 H 1450.7 0.911848 3.69412 0
M  V30 14808 H 1450.21 2.56199 2.9152 0
M  V30 14809 H 1448.31 0.230864 3.71884 0
M  V30 14810 H 1448.42 2.00593 4.35085 0
M  V30 14811 H 1446.79 0.977755 2.35185 0
M  V30 14812 H 1447.57 2.64157 2.19263 0
M  V30 14813 N 1450.02 -1.31994 0.861122 0
M  V30 14814 C 1450.95 -2.31214 0.325963 0
M  V30 14815 C 1451.93 -1.59965 -0.578383 0
M  V30 14816 O 1453.11 -1.87726 -0.497268 0
M  V30 14817 C 1450.24 -3.43953 -0.481001 0
M  V30 14818 C 1449.2 -4.2673 0.329474 0
M  V30 14819 C 1448.52 -5.31293 -0.602627 0
M  V30 14820 C 1449.82 -4.98498 1.55874 0
M  V30 14821 H 1451.52 -2.76223 1.15503 0
M  V30 14822 H 1449.06 -1.32797 0.556856 0
M  V30 14823 H 1451.02 -4.12409 -0.86585 0
M  V30 14824 H 1449.74 -2.97687 -1.3435 0
M  V30 14825 H 1448.4 -3.59929 0.696159 0
M  V30 14826 H 1448.05 -4.8128 -1.46215 0
M  V30 14827 H 1447.75 -5.87565 -0.0643044 0
M  V30 14828 H 1449.27 -6.02611 -0.984512 0
M  V30 14829 H 1450.68 -5.596 1.24583 0
M  V30 14830 H 1449.08 -5.64525 2.03548 0
M  V30 14831 H 1450.15 -4.25991 2.31646 0
M  V30 14832 N 1451.49 -0.619688 -1.44906 0
M  V30 14833 C 1452.74 -0.117147 -2.0136 0
M  V30 14834 C 1453.06 1.2644 -1.49239 0
M  V30 14835 O 1454.26 1.86034 -1.97747 0
M  V30 14836 C 1452.72 -0.15871 -3.5955 0
M  V30 14837 C 1452.33 -1.54086 -4.20668 0
M  V30 14838 C 1454.07 0.287961 -4.23522 0
M  V30 14839 C 1451.98 -1.53816 -5.71047 0
M  V30 14840 H 1450.91 -0.040028 -0.752937 0
M  V30 14841 H 1453.56 -0.776802 -1.66247 0
M  V30 14842 H 1451.94 0.56783 -3.91908 0
M  V30 14843 H 1453.11 -2.29007 -3.99865 0
M  V30 14844 H 1451.43 -1.93065 -3.68938 0
M  V30 14845 H 1454.03 0.309351 -5.33804 0
M  V30 14846 H 1454.37 1.31305 -3.9505 0
M  V30 14847 H 1454.9 -0.385707 -3.95926 0
M  V30 14848 H 1451.64 -2.54124 -6.04236 0
M  V30 14849 H 1451.16 -0.831708 -5.94006 0
M  V30 14850 H 1452.84 -1.26708 -6.34472 0
M  V30 14851 N 1452.97 1.53444 -0.359552 0
M  V30 14852 C 1453.91 2.21884 0.533192 0
M  V30 14853 C 1454.88 1.20858 1.08776 0
M  V30 14854 O 1456.07 1.49738 1.14502 0
M  V30 14855 C 1453.19 2.90883 1.73507 0
M  V30 14856 C 1452.24 4.05931 1.30851 0
M  V30 14857 S 1453.07 5.34574 0.314859 0
M  V30 14858 C 1454.23 6.07083 1.52321 0
M  V30 14859 H 1454.46 2.97261 -0.0480679 0
M  V30 14860 H 1452 1.5373 -0.143645 0
M  V30 14861 H 1453.95 3.31252 2.42451 0
M  V30 14862 H 1452.61 2.15241 2.28758 0
M  V30 14863 H 1451.81 4.53203 2.20507 0
M  V30 14864 H 1451.41 3.67422 0.698365 0
M  V30 14865 H 1453.7 6.31448 2.45519 0
M  V30 14866 H 1454.64 6.99629 1.09198 0
M  V30 14867 H 1455.05 5.37449 1.72652 0
M  V30 14868 N 1454.45 0.0885642 1.57351 0
M  V30 14869 C 1455.36 -0.887092 2.17182 0
M  V30 14870 C 1456.38 -1.31498 1.13949 0
M  V30 14871 O 1457.55 -1.38424 1.4629 0
M  V30 14872 C 1454.62 -2.13053 2.73513 0
M  V30 14873 C 1453.68 -1.75747 3.91678 0
M  V30 14874 C 1452.91 -2.94163 4.45313 0
M  V30 14875 O 1453.13 -4.08693 3.97903 0
M  V30 14876 O 1452.07 -2.73008 5.36424 0
M  V30 14877 H 1455.89 -0.408073 3.00946 0
M  V30 14878 H 1453.48 -0.135431 1.48785 0
M  V30 14879 H 1455.36 -2.85937 3.09545 0
M  V30 14880 H 1454.04 -2.6002 1.92798 0
M  V30 14881 H 1452.94 -1.00064 3.60469 0
M  V30 14882 H 1454.28 -1.33549 4.73736 0
M  V30 14883 N 1455.93 -1.56509 -0.185096 0
M  V30 14884 C 1456.84 -1.98552 -1.24958 0
M  V30 14885 C 1457.85 -0.894713 -1.49234 0
M  V30 14886 O 1459.03 -1.20126 -1.61653 0
M  V30 14887 C 1456.1 -2.32513 -2.57175 0
M  V30 14888 C 1455.16 -3.55351 -2.40882 0
M  V30 14889 C 1454.39 -3.87683 -3.66794 0
M  V30 14890 O 1454.61 -3.21167 -4.7139 0
M  V30 14891 O 1453.55 -4.8108 -3.61726 0
M  V30 14892 H 1457.37 -2.89342 -0.922756 0
M  V30 14893 H 1454.96 -1.44196 -0.390887 0
M  V30 14894 H 1456.84 -2.55387 -3.35195 0
M  V30 14895 H 1455.51 -1.44888 -2.89464 0
M  V30 14896 H 1454.42 -3.37712 -1.60939 0
M  V30 14897 H 1455.75 -4.43474 -2.13522 0
M  V30 14898 N 1457.41 0.45317 -1.50944 0
M  V30 14899 C 1458.82 0.788393 -1.38768 0
M  V30 14900 C 1459.02 1.96233 -0.457676 0
M  V30 14901 O 1458.08 2.52328 0.0930651 0
M  V30 14902 C 1459.39 1.08363 -2.80496 0
M  V30 14903 C 1460.94 1.18901 -2.89537 0
M  V30 14904 C 1461.41 1.51727 -4.32138 0
M  V30 14905 N 1462.91 1.58683 -4.35171 0
M  V30 14906 C 1463.64 1.85623 -5.42523 0
M  V30 14907 N 1463.14 2.10462 -6.60059 0
M  V30 14908 N 1464.93 1.87274 -5.29986 0
M  V30 14909 H 1457.08 -0.320216 -2.09972 0
M  V30 14910 H 1459.34 -0.0808021 -0.94455 0
M  V30 14911 H 1459.05 0.293897 -3.5047 0
M  V30 14912 H 1458.92 2.01532 -3.18849 0
M  V30 14913 H 1461.31 1.96939 -2.19771 0
M  V30 14914 H 1461.39 0.236691 -2.54703 0
M  V30 14915 H 1461.04 0.74223 -5.02447 0
M  V30 14916 H 1460.97 2.48139 -4.64472 0
M  V30 14917 H 1463.46 1.41455 -3.50427 0
M  V30 14918 H 1463.77 2.30343 -7.37673 0
M  V30 14919 H 1462.11 2.07817 -6.63202 0
M  V30 14920 H 1465.31 1.67377 -4.37153 0
M  V30 14921 H 1465.48 2.07933 -6.13733 0
M  V30 14922 N 1458.88 1.40823 0.707568 0
M  V30 14923 C 1460.3 1.35249 1.28704 0
M  V30 14924 C 1460.65 0.0298026 1.96177 0
M  V30 14925 O 1459.77 -0.872126 1.98048 0
M  V30 14926 C 1460.37 2.44965 2.34046 0
M  V30 14927 C 1458.93 2.42826 2.87598 0
M  V30 14928 C 1458.07 2.25429 1.61483 0
M  V30 14929 H 1461.02 1.50513 0.503141 0
M  V30 14930 H 1461.04 2.13334 3.1507 0
M  V30 14931 H 1460.56 3.41219 1.84908 0
M  V30 14932 H 1458.66 1.50294 3.40944 0
M  V30 14933 H 1458.77 3.38704 3.38845 0
M  V30 14934 H 1457.13 1.73089 1.86848 0
M  V30 14935 H 1457.92 3.23693 1.14359 0
M  V30 14936 N 1460.36 -0.94061 1.26453 0
M  V30 14937 C 1461.31 -2.06073 1.07873 0
M  V30 14938 C 1462.3 -1.69399 0.0055001 0
M  V30 14939 O 1463.51 -1.79267 0.162224 0
M  V30 14940 H 1459.89 -0.674748 0.331993 0
M  V30 14941 H 1461.86 -2.18895 2.02799 0
M  V30 14942 C 1460.61 -3.39971 0.729054 0
M  V30 14943 H 1459.93 -3.68667 1.54675 0
M  V30 14944 H 1461.37 -4.1916 0.638844 0
M  V30 14945 C 1459.83 -3.32114 -0.565835 0
M  V30 14946 O 1460.36 -3.68287 -1.60399 0
M  V30 14947 N 1458.56 -2.85218 -0.556679 0
M  V30 14948 H 1458.11 -2.55979 0.288541 0
M  V30 14949 H 1458.07 -2.80344 -1.42318 0
M  V30 14950 N 1461.84 -1.08266 -1.14527 0
M  V30 14951 C 1462.77 -0.732968 -2.21698 0
M  V30 14952 C 1463.75 0.283917 -1.67714 0
M  V30 14953 O 1464.94 0.154607 -1.93584 0
M  V30 14954 C 1462.07 -0.139935 -3.47018 0
M  V30 14955 C 1461.02 -1.08501 -4.14019 0
M  V30 14956 C 1460.35 -0.354263 -5.33525 0
M  V30 14957 C 1461.65 -2.42254 -4.62721 0
M  V30 14958 H 1463.34 -1.629 -2.51205 0
M  V30 14959 H 1460.89 -0.784696 -1.20742 0
M  V30 14960 H 1462.84 0.1167 -4.21238 0
M  V30 14961 H 1461.56 0.791228 -3.16871 0
M  V30 14962 H 1460.22 -1.32672 -3.41751 0
M  V30 14963 H 1459.87 0.580658 -4.99637 0
M  V30 14964 H 1459.57 -0.984287 -5.79297 0
M  V30 14965 H 1461.09 -0.105648 -6.10509 0
M  V30 14966 H 1462.51 -2.22357 -5.28422 0
M  V30 14967 H 1460.91 -3.00935 -5.1919 0
M  V30 14968 H 1461.98 -3.03884 -3.77866 0
M  V30 14969 N 1463.32 1.31536 -0.86811 0
M  V30 14970 C 1464.55 2.00661 -0.491815 0
M  V30 14971 C 1464.96 1.65341 0.919733 0
M  V30 14972 O 1464.3 0.87773 1.61374 0
M  V30 14973 C 1464.36 3.55002 -0.566926 0
M  V30 14974 C 1464.03 4.1379 -1.93976 0
M  V30 14975 C 1465.02 4.31032 -2.90702 0
M  V30 14976 C 1462.71 4.4956 -2.24056 0
M  V30 14977 C 1464.7 4.8323 -4.15653 0
M  V30 14978 C 1462.39 5.01461 -3.49257 0
M  V30 14979 C 1463.39 5.18246 -4.44871 0
M  V30 14980 O 1463.08 5.69033 -5.67852 0
M  V30 14981 H 1462.81 0.648663 -0.190296 0
M  V30 14982 H 1465.36 1.68783 -1.17053 0
M  V30 14983 H 1463.59 3.86332 0.168704 0
M  V30 14984 H 1465.28 4.05385 -0.204323 0
M  V30 14985 H 1466.05 4.03717 -2.6877 0
M  V30 14986 H 1461.93 4.35772 -1.50412 0
M  V30 14987 H 1465.47 4.96247 -4.9029 0
M  V30 14988 H 1461.37 5.28209 -3.71033 0
M  V30 14989 H 1462.13 5.87405 -5.69998 0
M  V30 14990 N 1464.8 0.627364 1.44575 0
M  V30 14991 C 1466.02 0.135576 2.06956 0
M  V30 14992 C 1466.45 -1.17922 1.46547 0
M  V30 14993 O 1465.81 -1.72255 0.565509 0
M  V30 14994 C 1465.85 0.030347 3.60587 0
M  V30 14995 O 1464.96 -1.01464 3.99724 0
M  V30 14996 H 1464.3 0.083058 0.658785 0
M  V30 14997 H 1466.83 0.862977 1.8551 0
M  V30 14998 H 1466.84 -0.161461 4.0768 0
M  V30 14999 H 1465.51 0.990285 4.03938 0
M  V30 15000 H 1464.09 -0.797701 3.64268 0
M  V30 15001 N 1466.28 -1.53251 0.367684 0
M  V30 15002 C 1467.21 -2.23396 -0.512539 0
M  V30 15003 C 1468.22 -1.2488 -1.04446 0
M  V30 15004 O 1469.41 -1.5109 -0.950477 0
M  V30 15005 C 1466.51 -2.91971 -1.72064 0
M  V30 15006 C 1465.68 -4.17011 -1.31986 0
M  V30 15007 C 1464.74 -4.68779 -2.39025 0
M  V30 15008 O 1463.77 -5.32405 -2.01328 0
M  V30 15009 N 1464.97 -4.46773 -3.7064 0
M  V30 15010 H 1467.73 -2.9957 0.0883152 0
M  V30 15011 H 1465.3 -1.60746 0.192966 0
M  V30 15012 H 1467.29 -3.23511 -2.43152 0
M  V30 15013 H 1465.86 -2.19237 -2.22831 0
M  V30 15014 H 1465.08 -3.91751 -0.438732 0
M  V30 15015 H 1466.37 -4.98298 -1.02842 0
M  V30 15016 H 1465.76 -3.95938 -4.04042 0
M  V30 15017 H 1464.32 -4.82857 -4.37827 0
M  V30 15018 N 1467.75 -0.0969077 -1.57302 0
M  V30 15019 C 1469.16 0.431942 -1.81635 0
M  V30 15020 C 1469.52 1.68047 -1.01264 0
M  V30 15021 O 1468.64 2.15036 -0.24256 0
M  V30 15022 C 1469.24 0.790426 -3.29451 0
M  V30 15023 C 1467.79 1.26401 -3.54542 0
M  V30 15024 C 1466.94 0.26158 -2.76063 0
M  V30 15025 H 1469.89 -0.322328 -1.55392 0
M  V30 15026 H 1469.91 1.64981 -3.42873 0
M  V30 15027 H 1469.43 -0.118463 -3.87919 0
M  V30 15028 H 1467.53 2.19055 -3.01406 0
M  V30 15029 H 1467.64 1.22459 -4.63185 0
M  V30 15030 H 1466 0.7441 -2.43588 0
M  V30 15031 H 1466.79 -0.640018 -3.37281 0
M  V30 15032 N 1469.23 1.56605 0.176793 0
M  V30 15033 C 1470.46 1.85543 0.9087 0
M  V30 15034 C 1470.87 0.679554 1.76575 0
M  V30 15035 O 1470.21 -0.360668 1.80125 0
M  V30 15036 C 1470.27 3.08823 1.84034 0
M  V30 15037 C 1469.94 4.41942 1.16344 0
M  V30 15038 C 1470.94 5.17176 0.531526 0
M  V30 15039 C 1468.62 4.88679 1.16183 0
M  V30 15040 C 1470.61 6.37332 -0.0929601 0
M  V30 15041 C 1468.3 6.08767 0.533514 0
M  V30 15042 C 1469.3 6.82937 -0.0927812 0
M  V30 15043 O 1468.99 8.00748 -0.711202 0
M  V30 15044 H 1468.72 0.619862 0.269717 0
M  V30 15045 H 1471.27 2.04579 0.183414 0
M  V30 15046 H 1469.5 2.85718 2.6058 0
M  V30 15047 H 1471.19 3.24253 2.44161 0
M  V30 15048 H 1471.96 4.82152 0.524784 0
M  V30 15049 H 1467.84 4.30891 1.63871 0
M  V30 15050 H 1471.38 6.95165 -0.582409 0
M  V30 15051 H 1467.28 6.43256 0.537821 0
M  V30 15052 H 1468.05 8.16224 -0.609911 0
M  V30 15053 N 1470.71 -0.445159 1.51182 0
M  V30 15054 C 1471.93 -1.22249 1.67541 0
M  V30 15055 C 1472.36 -1.84446 0.368972 0
M  V30 15056 O 1471.72 -1.68463 -0.670058 0
M  V30 15057 C 1471.77 -2.288 2.78717 0
M  V30 15058 O 1470.87 -3.34094 2.41775 0
M  V30 15059 H 1470.21 -0.358516 0.558894 0
M  V30 15060 H 1472.74 -0.526696 1.97704 0
M  V30 15061 H 1472.75 -2.73708 3.02569 0
M  V30 15062 H 1471.43 -1.82906 3.73521 0
M  V30 15063 H 1470 -2.94717 2.28466 0
M  V30 15064 N 1472.19 -1.41197 -0.700089 0
M  V30 15065 C 1473.41 -1.43856 -1.494 0
M  V30 15066 C 1473.84 -0.0441877 -1.88048 0
M  V30 15067 O 1473.2 0.951503 -1.54325 0
M  V30 15068 C 1473.24 -2.34913 -2.73584 0
M  V30 15069 O 1472.35 -1.80305 -3.70896 0
M  V30 15070 H 1471.69 -0.488412 -0.449833 0
M  V30 15071 H 1474.22 -1.85606 -0.860911 0
M  V30 15072 H 1474.23 -2.50633 -3.21943 0
M  V30 15073 H 1472.9 -3.36229 -2.44791 0
M  V30 15074 H 1471.48 -1.74012 -3.29809 0
M  V30 15075 N 1473.67 0.933891 -1.2695 0
M  V30 15076 C 1475.08 1.49578 -1.11728 0
M  V30 15077 C 1475.43 1.93895 0.299889 0
M  V30 15078 O 1474.55 1.806 1.19216 0
M  V30 15079 C 1475.15 2.71841 -2.02208 0
M  V30 15080 C 1473.71 3.24274 -1.9111 0
M  V30 15081 C 1472.85 1.97029 -1.95128 0
M  V30 15082 H 1475.8 0.748628 -1.39933 0
M  V30 15083 H 1475.83 3.46407 -1.57425 0
M  V30 15084 H 1475.34 2.39556 -3.05343 0
M  V30 15085 H 1473.44 3.61333 -0.909367 0
M  V30 15086 H 1473.55 3.90887 -2.77027 0
M  V30 15087 H 1471.92 2.13249 -1.39273 0
M  V30 15088 H 1472.7 1.67066 -2.99907 0
M  V30 15089 N 1475.14 1.08871 1.13951 0
M  V30 15090 C 1476.37 0.843055 1.89492 0
M  V30 15091 C 1476.79 -0.599539 1.78289 0
M  V30 15092 O 1476.15 -1.42062 1.12642 0
M  V30 15093 C 1476.2 1.27572 3.3728 0
M  V30 15094 O 1475.3 0.430611 4.10146 0
M  V30 15095 H 1474.64 0.3058 0.589391 0
M  V30 15096 H 1477.17 1.45137 1.44209 0
M  V30 15097 H 1477.18 1.25864 3.88101 0
M  V30 15098 H 1475.86 2.32635 3.44751 0
M  V30 15099 H 1474.44 0.511516 3.69375 0
M  V30 15100 N 1476.62 -1.31073 0.875073 0
M  V30 15101 C 1478.03 -1.78707 0.540422 0
M  V30 15102 C 1478.38 -1.72056 -0.942935 0
M  V30 15103 O 1477.51 -1.29139 -1.73643 0
M  V30 15104 C 1478.1 -3.24491 0.974203 0
M  V30 15105 C 1476.66 -3.70001 0.691127 0
M  V30 15106 C 1475.81 -2.51748 1.16269 0
M  V30 15107 H 1478.76 -1.18083 1.06029 0
M  V30 15108 H 1478.78 -3.79323 0.299003 0
M  V30 15109 H 1478.29 -3.29301 2.05384 0
M  V30 15110 H 1476.39 -3.70688 -0.376937 0
M  V30 15111 H 1476.51 -4.61913 1.27173 0
M  V30 15112 H 1474.87 -2.47954 0.582302 0
M  V30 15113 H 1475.65 -2.59299 2.24986 0
M  V30 15114 N 1478.1 -0.635022 -1.4424 0
M  V30 15115 C 1479.33 -0.14826 -2.06368 0
M  V30 15116 C 1479.74 1.17875 -1.47482 0
M  V30 15117 O 1479.1 1.72384 -0.599168 0
M  V30 15118 C 1479.15 -0.031519 -3.61486 0
M  V30 15119 O 1478.87 -1.30605 -4.18179 0
M  V30 15120 C 1480.37 0.483479 -4.40656 0
M  V30 15121 H 1477.59 -0.081472 -0.666036 0
M  V30 15122 H 1480.14 -0.870526 -1.85046 0
M  V30 15123 H 1478.29 0.641208 -3.82057 0
M  V30 15124 H 1478.71 -1.15341 -5.11661 0
M  V30 15125 H 1480.18 0.514164 -5.496 0
M  V30 15126 H 1480.66 1.51129 -4.12379 0
M  V30 15127 H 1481.26 -0.156131 -4.25013 0
M  V30 15128 N 1479.58 1.53054 -0.375806 0
M  V30 15129 C 1480.54 2.24666 0.453608 0
M  V30 15130 C 1481.54 1.25816 1.00135 0
M  V30 15131 O 1482.73 1.50016 0.885481 0
M  V30 15132 C 1479.86 2.99131 1.63503 0
M  V30 15133 H 1481.06 2.994 -0.173172 0
M  V30 15134 H 1478.61 1.55778 -0.127673 0
M  V30 15135 H 1479.34 2.28666 2.29962 0
M  V30 15136 H 1479.13 3.71671 1.24913 0
M  V30 15137 H 1480.62 3.53542 2.22256 0
M  V30 15138 N 1481.06 0.105248 1.57248 0
M  V30 15139 C 1482 -0.867443 2.1582 0
M  V30 15140 C 1483 -1.28508 1.10373 0
M  V30 15141 O 1484.2 -1.25842 1.287 0
M  V30 15142 H 1480.58 -0.2978 0.690521 0
M  V30 15143 H 1482.55 -0.348831 2.96354 0
M  V30 15144 C 1481.3 -2.11299 2.7613 0
M  V30 15145 H 1480.62 -1.80054 3.5696 0
M  V30 15146 H 1482.06 -2.77395 3.20668 0
M  V30 15147 C 1480.52 -2.89372 1.72527 0
M  V30 15148 O 1481.05 -3.84274 1.17032 0
M  V30 15149 N 1479.26 -2.53103 1.42784 0
M  V30 15150 H 1478.8 -1.75998 1.88102 0
M  V30 15151 H 1478.76 -3.05639 0.737035 0
M  V30 15152 N 1482.53 -1.56697 -0.168486 0
M  V30 15153 C 1483.46 -1.99659 -1.21073 0
M  V30 15154 C 1484.45 -0.872625 -1.46011 0
M  V30 15155 O 1485.63 -1.13891 -1.57297 0
M  V30 15156 C 1482.76 -2.35889 -2.54899 0
M  V30 15157 C 1481.71 -3.51272 -2.44524 0
M  V30 15158 C 1481.04 -3.73253 -3.82866 0
M  V30 15159 C 1482.34 -4.84631 -1.94756 0
M  V30 15160 H 1484.03 -2.86974 -0.853593 0
M  V30 15161 H 1481.58 -1.38065 -0.409165 0
M  V30 15162 H 1483.53 -2.64542 -3.28017 0
M  V30 15163 H 1482.26 -1.45486 -2.92406 0
M  V30 15164 H 1480.92 -3.22751 -1.7386 0
M  V30 15165 H 1480.56 -2.80136 -4.17772 0
M  V30 15166 H 1480.26 -4.5089 -3.76792 0
M  V30 15167 H 1481.79 -4.04309 -4.57566 0
M  V30 15168 H 1483.2 -5.12142 -2.5765 0
M  V30 15169 H 1481.6 -5.65925 -1.99623 0
M  V30 15170 H 1482.67 -4.76436 -0.902021 0
M  V30 15171 N 1484.01 0.437135 -1.51416 0
M  V30 15172 C 1485.42 1.01699 -1.5657 0
M  V30 15173 C 1485.77 1.92299 -0.389291 0
M  V30 15174 O 1484.9 2.10689 0.49389 0
M  V30 15175 C 1485.49 1.85119 -2.83754 0
M  V30 15176 C 1484.05 2.38154 -2.91478 0
M  V30 15177 C 1483.2 1.17374 -2.51234 0
M  V30 15178 H 1486.15 0.218399 -1.5719 0
M  V30 15179 H 1486.17 2.70572 -2.67528 0
M  V30 15180 H 1485.68 1.19153 -3.69357 0
M  V30 15181 H 1483.79 3.07575 -2.10306 0
M  V30 15182 H 1483.9 2.70937 -3.95133 0
M  V30 15183 H 1482.26 1.51913 -2.04437 0
M  V30 15184 H 1483.05 0.530176 -3.39181 0
M  V30 15185 N 1485.49 1.41566 0.692592 0
M  V30 15186 C 1486.72 1.44646 1.48635 0
M  V30 15187 C 1487.14 0.0541597 1.88022 0
M  V30 15188 O 1486.5 -0.943305 1.54827 0
M  V30 15189 C 1486.55 2.3636 2.72335 0
M  V30 15190 O 1485.65 1.8227 3.69934 0
M  V30 15191 H 1484.99 0.490791 0.447236 0
M  V30 15192 H 1487.52 1.8606 0.851056 0
M  V30 15193 H 1487.53 2.52337 3.20609 0
M  V30 15194 H 1486.21 3.37523 2.43004 0
M  V30 15195 H 1484.78 1.75759 3.28882 0
M  V30 15196 N 1486.97 -0.927146 1.27443 0
M  V30 15197 C 1488.38 -1.48984 1.1252 0
M  V30 15198 C 1488.73 -1.94051 -0.289602 0
M  V30 15199 O 1487.86 -1.8123 -1.18257 0
M  V30 15200 C 1488.45 -2.70765 2.03646 0
M  V30 15201 C 1487.01 -3.23256 1.92827 0
M  V30 15202 C 1486.16 -1.95991 1.9617 0
M  V30 15203 H 1489.11 -0.741196 1.40328 0
M  V30 15204 H 1489.13 -3.45567 1.5926 0
M  V30 15205 H 1488.64 -2.37933 3.0661 0
M  V30 15206 H 1486.74 -3.60845 0.928516 0
M  V30 15207 H 1486.85 -3.89413 2.79096 0
M  V30 15208 H 1485.22 -2.12508 1.40402 0
M  V30 15209 H 1486 -1.65473 3.00788 0
M  V30 15210 N 1488.45 -1.09474 -1.13372 0
M  V30 15211 C 1489.69 -0.831091 -1.84659 0
M  V30 15212 C 1490.02 0.643294 -1.83554 0
M  V30 15213 O 1489.28 1.48958 -1.26925 0
M  V30 15214 C 1489.58 -1.31208 -3.32444 0
M  V30 15215 C 1489.24 -2.79617 -3.5373 0
M  V30 15216 C 1487.9 -3.20147 -3.59248 0
M  V30 15217 C 1490.26 -3.75303 -3.61659 0
M  V30 15218 C 1487.58 -4.55135 -3.70228 0
M  V30 15219 C 1489.94 -5.1008 -3.74167 0
M  V30 15220 C 1488.6 -5.50199 -3.77938 0
M  V30 15221 H 1487.87 -0.304118 -0.675717 0
M  V30 15222 H 1490.52 -1.36961 -1.33843 0
M  V30 15223 H 1488.82 -0.693379 -3.85616 0
M  V30 15224 H 1490.52 -1.08469 -3.86051 0
M  V30 15225 H 1487.11 -2.47253 -3.50091 0
M  V30 15226 H 1491.29 -3.45103 -3.56676 0
M  V30 15227 H 1486.55 -4.85656 -3.71414 0
M  V30 15228 H 1490.72 -5.84077 -3.79245 0
M  V30 15229 H 1488.35 -6.54794 -3.86198 0
M  V30 15230 N 1489.92 1.30607 -0.882012 0
M  V30 15231 C 1490.86 2.27177 -0.303861 0
M  V30 15232 C 1491.87 1.53587 0.539898 0
M  V30 15233 O 1493.06 1.74833 0.359931 0
M  V30 15234 C 1490.16 3.33781 0.586828 0
M  V30 15235 C 1489.33 4.3681 -0.227197 0
M  V30 15236 C 1488.39 5.22842 0.593519 0
M  V30 15237 O 1487.42 5.69197 0.0172694 0
M  V30 15238 N 1488.62 5.48414 1.90321 0
M  V30 15239 H 1491.38 2.77426 -1.13378 0
M  V30 15240 H 1488.94 1.43756 -0.744698 0
M  V30 15241 H 1490.94 3.88257 1.14186 0
M  V30 15242 H 1489.51 2.83483 1.31743 0
M  V30 15243 H 1488.73 3.82239 -0.963674 0
M  V30 15244 H 1490.01 5.02703 -0.785315 0
M  V30 15245 H 1489.41 5.1253 2.39435 0
M  V30 15246 H 1487.97 6.05778 2.40575 0
M  V30 15247 N 1491.4 0.642663 1.43901 0
M  V30 15248 C 1492.65 0.151478 2.01532 0
M  V30 15249 C 1492.97 -1.23519 1.50891 0
M  V30 15250 O 1492.24 -1.82299 0.717197 0
M  V30 15251 H 1490.82 0.0530091 0.745117 0
M  V30 15252 H 1493.48 0.831958 1.76251 0
M  V30 15253 H 1492.58 0.127995 3.11837 0
M  V30 15254 N 1492.88 -1.52852 0.383918 0
M  V30 15255 C 1493.81 -2.22704 -0.497825 0
M  V30 15256 C 1494.79 -1.22573 -1.06839 0
M  V30 15257 O 1495.98 -1.51541 -1.12105 0
M  V30 15258 C 1493.1 -2.93606 -1.68858 0
M  V30 15259 C 1492.15 -4.07962 -1.24376 0
M  V30 15260 S 1492.98 -5.35007 -0.229773 0
M  V30 15261 C 1494.14 -6.09429 -1.42643 0
M  V30 15262 H 1494.37 -2.97147 0.0953535 0
M  V30 15263 H 1491.9 -1.53482 0.168084 0
M  V30 15264 H 1493.86 -3.35067 -2.3715 0
M  V30 15265 H 1492.52 -2.18853 -2.25304 0
M  V30 15266 H 1491.72 -4.56654 -2.13269 0
M  V30 15267 H 1491.32 -3.68486 -0.639823 0
M  V30 15268 H 1493.61 -6.35274 -2.35443 0
M  V30 15269 H 1494.55 -7.01278 -0.980541 0
M  V30 15270 H 1494.96 -5.40128 -1.6408 0
M  V30 15271 N 1494.36 -0.113586 -1.5719 0
M  V30 15272 C 1495.61 0.546529 -1.95297 0
M  V30 15273 C 1495.94 1.66674 -0.996671 0
M  V30 15274 O 1495.21 1.94472 -0.0329298 0
M  V30 15275 C 1495.5 1.08433 -3.43387 0
M  V30 15276 C 1495.35 -0.0320929 -4.49789 0
M  V30 15277 C 1496.67 1.97691 -3.932 0
M  V30 15278 H 1493.79 0.197195 -0.710129 0
M  V30 15279 H 1496.43 -0.188048 -1.89067 0
M  V30 15280 H 1494.58 1.71033 -3.48827 0
M  V30 15281 H 1496.25 -0.66716 -4.5645 0
M  V30 15282 H 1494.49 -0.695983 -4.2818 0
M  V30 15283 H 1495.17 0.385341 -5.50653 0
M  V30 15284 H 1497.64 1.4497 -3.90029 0
M  V30 15285 H 1496.52 2.3224 -4.97349 0
M  V30 15286 H 1496.78 2.90137 -3.33576 0
M  V30 15287 N 1495.84 1.56784 0.160173 0
M  V30 15288 C 1497.25 1.51153 0.512352 0
M  V30 15289 C 1497.45 0.819774 1.84071 0
M  V30 15290 O 1496.51 0.384789 2.49551 0
M  V30 15291 C 1497.82 2.95906 0.534817 0
M  V30 15292 C 1499.37 3.06773 0.621248 0
M  V30 15293 C 1499.85 4.53006 0.674501 0
M  V30 15294 N 1501.34 4.57298 0.737087 0
M  V30 15295 C 1502.07 5.67805 0.799054 0
M  V30 15296 N 1501.57 6.87916 0.821171 0
M  V30 15297 N 1503.36 5.55804 0.838928 0
M  V30 15298 H 1495.51 2.00157 -0.710712 0
M  V30 15299 H 1497.77 0.91233 -0.257601 0
M  V30 15300 H 1497.48 3.49719 -0.372773 0
M  V30 15301 H 1497.35 3.51152 1.3774 0
M  V30 15302 H 1499.74 2.52987 1.51926 0
M  V30 15303 H 1499.82 2.54593 -0.248224 0
M  V30 15304 H 1499.47 5.07426 -0.219301 0
M  V30 15305 H 1499.4 5.02954 1.56028 0
M  V30 15306 H 1501.89 3.70825 0.727827 0
M  V30 15307 H 1502.2 7.67888 0.869938 0
M  V30 15308 H 1500.55 6.90504 0.789264 0
M  V30 15309 H 1503.74 4.60884 0.818728 0
M  V30 15310 H 1503.91 6.41945 0.883757 0
M  V30 15311 N 1497.32 -0.429099 1.51646 0
M  V30 15312 C 1498.25 -1.53996 1.69758 0
M  V30 15313 C 1499.26 -1.52189 0.578138 0
M  V30 15314 O 1500.45 -1.56816 0.852709 0
M  V30 15315 C 1497.55 -2.9291 1.7046 0
M  V30 15316 C 1496.72 -3.19132 2.99122 0
M  V30 15317 C 1495.78 -4.37813 2.91901 0
M  V30 15318 O 1494.81 -4.36065 3.65836 0
M  V30 15319 N 1496.01 -5.41834 2.08317 0
M  V30 15320 H 1498.77 -1.38861 2.65589 0
M  V30 15321 H 1496.34 -0.618148 1.49635 0
M  V30 15322 H 1498.33 -3.7034 1.63187 0
M  V30 15323 H 1496.9 -3.01602 0.821877 0
M  V30 15324 H 1496.12 -2.29926 3.20199 0
M  V30 15325 H 1497.41 -3.33483 3.84274 0
M  V30 15326 H 1496.8 -5.46094 1.4764 0
M  V30 15327 H 1495.36 -6.18085 2.06917 0
M  V30 15328 N 1498.79 -1.41931 -0.685074 0
M  V30 15329 C 1499.74 -1.44604 -1.79884 0
M  V30 15330 C 1500.71 -0.299166 -1.63384 0
M  V30 15331 O 1501.9 -0.501749 -1.84085 0
M  V30 15332 C 1499.04 -1.3442 -3.17845 0
M  V30 15333 C 1498.15 -2.59061 -3.45704 0
M  V30 15334 C 1497.28 -2.41094 -4.73336 0
M  V30 15335 C 1496.32 -3.61159 -4.94197 0
M  V30 15336 N 1495.46 -3.42198 -6.13062 0
M  V30 15337 H 1500.3 -2.39788 -1.76934 0
M  V30 15338 H 1497.84 -1.1906 -0.863891 0
M  V30 15339 H 1499.79 -1.26515 -3.97555 0
M  V30 15340 H 1498.42 -0.42838 -3.19945 0
M  V30 15341 H 1497.48 -2.77374 -2.60322 0
M  V30 15342 H 1498.79 -3.48341 -3.57016 0
M  V30 15343 H 1497.94 -2.30717 -5.61119 0
M  V30 15344 H 1496.68 -1.49288 -4.64289 0
M  V30 15345 H 1495.69 -3.7198 -4.04859 0
M  V30 15346 H 1496.91 -4.53933 -5.05096 0
M  V30 15347 H 1494.86 -2.531 -6.05208 0
M  V30 15348 H 1494.77 -4.25059 -6.25189 0
M  V30 15349 H 1496.04 -3.35612 -7.03551 0
M  V30 15350 N 1500.27 0.920374 -1.27933 0
M  V30 15351 C 1501.68 1.48385 -1.13309 0
M  V30 15352 C 1502.03 1.94202 0.279307 0
M  V30 15353 O 1501.16 1.81855 1.17294 0
M  V30 15354 C 1501.75 2.69681 -2.05079 0
M  V30 15355 C 1500.31 3.22229 -1.94539 0
M  V30 15356 C 1499.46 1.94948 -1.97207 0
M  V30 15357 H 1502.41 0.733744 -1.40719 0
M  V30 15358 H 1502.43 3.44717 -1.6109 0
M  V30 15359 H 1501.94 2.36304 -3.07867 0
M  V30 15360 H 1500.04 3.60348 -0.94764 0
M  V30 15361 H 1500.16 3.87927 -2.81157 0
M  V30 15362 H 1498.52 2.1176 -1.41527 0
M  V30 15363 H 1499.3 1.63875 -3.01662 0
M  V30 15364 N 1501.75 1.10074 1.1279 0
M  V30 15365 C 1502.97 0.863106 1.88587 0
M  V30 15366 C 1503.4 -0.580595 1.78915 0
M  V30 15367 O 1502.76 -1.40859 1.14142 0
M  V30 15368 C 1502.81 1.31142 3.35908 0
M  V30 15369 O 1501.91 0.474088 4.09666 0
M  V30 15370 H 1501.25 0.312034 0.586115 0
M  V30 15371 H 1503.78 1.46659 1.42662 0
M  V30 15372 H 1503.79 1.29974 3.86744 0
M  V30 15373 H 1502.47 2.36279 3.42265 0
M  V30 15374 H 1501.04 0.550665 3.68812 0
M  V30 15375 N 1503.23 -1.30138 0.888926 0
M  V30 15376 C 1504.16 -2.3047 0.374934 0
M  V30 15377 C 1505.14 -1.61156 -0.544322 0
M  V30 15378 O 1506.32 -1.88738 -0.457337 0
M  V30 15379 C 1503.45 -3.44896 -0.407935 0
M  V30 15380 C 1502.41 -4.25935 0.419916 0
M  V30 15381 C 1501.73 -5.32452 -0.489797 0
M  V30 15382 C 1503.03 -4.9508 1.66413 0
M  V30 15383 H 1504.73 -2.73711 1.21337 0
M  V30 15384 H 1502.27 -1.31586 0.584899 0
M  V30 15385 H 1504.23 -4.14153 -0.778177 0
M  V30 15386 H 1502.95 -3.0047 -1.28005 0
M  V30 15387 H 1501.61 -3.58372 0.772348 0
M  V30 15388 H 1501.26 -4.84273 -1.35974 0
M  V30 15389 H 1500.96 -5.87569 0.0603412 0
M  V30 15390 H 1502.48 -6.04563 -0.856468 0
M  V30 15391 H 1503.9 -5.56831 1.36425 0
M  V30 15392 H 1502.29 -5.6008 2.15477 0
M  V30 15393 H 1503.36 -4.20981 2.4063 0
M  V30 15394 N 1504.71 -0.650285 -1.43559 0
M  V30 15395 C 1505.95 -0.162164 -2.01448 0
M  V30 15396 C 1506.27 1.22717 -1.51544 0
M  V30 15397 O 1505.54 1.81917 -0.726855 0
M  V30 15398 H 1504.12 -0.0569599 -0.744825 0
M  V30 15399 H 1506.79 -0.841294 -1.75807 0
M  V30 15400 H 1505.88 -0.144531 -3.11765 0
M  V30 15401 N 1506.18 1.52647 -0.392018 0
M  V30 15402 C 1507.41 2.06032 0.189293 0
M  V30 15403 C 1507.83 1.26351 1.40288 0
M  V30 15404 O 1507.18 0.310877 1.79833 0
M  V30 15405 C 1507.23 3.57187 0.55672 0
M  V30 15406 O 1506.96 4.33851 -0.608657 0
M  V30 15407 C 1508.46 4.26929 1.1936 0
M  V30 15408 H 1505.68 0.670419 0.0279177 0
M  V30 15409 H 1508.22 1.96739 -0.558033 0
M  V30 15410 H 1506.38 3.66545 1.25394 0
M  V30 15411 H 1506.79 5.23606 -0.306039 0
M  V30 15412 H 1508.26 5.33924 1.40104 0
M  V30 15413 H 1508.74 3.82315 2.16175 0
M  V30 15414 H 1509.35 4.21895 0.537069 0
M  V30 15415 N 1507.66 0.121921 1.57128 0
M  V30 15416 C 1508.6 -0.864553 2.11189 0
M  V30 15417 C 1509.57 -1.25896 1.02902 0
M  V30 15418 O 1510.76 -1.3595 1.30575 0
M  V30 15419 C 1507.88 -2.15742 2.611 0
M  V30 15420 C 1506.93 -1.91085 3.81299 0
M  V30 15421 S 1507.76 -1.12448 5.23561 0
M  V30 15422 C 1508.92 -2.42908 5.76842 0
M  V30 15423 H 1509.15 -0.404737 2.94532 0
M  V30 15424 H 1506.69 -0.091909 1.54126 0
M  V30 15425 H 1508.64 -2.90024 2.9051 0
M  V30 15426 H 1507.3 -2.58841 1.77933 0
M  V30 15427 H 1506.5 -2.86889 4.1438 0
M  V30 15428 H 1506.1 -1.24922 3.5252 0
M  V30 15429 H 1508.39 -3.38728 5.86745 0
M  V30 15430 H 1509.33 -2.14367 6.74872 0
M  V30 15431 H 1509.74 -2.52409 5.04926 0
M  V30 15432 N 1509.14 -1.56867 -0.151857 0
M  V30 15433 C 1510.55 -1.72573 -0.712411 0
M  V30 15434 C 1510.9 -0.735557 -1.8189 0
M  V30 15435 O 1510.03 0.09888 -2.16174 0
M  V30 15436 C 1510.62 -3.12906 -1.29905 0
M  V30 15437 C 1509.18 -3.30231 -1.80623 0
M  V30 15438 C 1508.33 -2.68507 -0.692781 0
M  V30 15439 H 1511.28 -1.58528 0.0737603 0
M  V30 15440 H 1511.3 -3.12636 -2.16885 0
M  V30 15441 H 1510.81 -3.84949 -0.493509 0
M  V30 15442 H 1508.91 -2.63176 -2.6376 0
M  V30 15443 H 1509.03 -4.38141 -1.93828 0
M  V30 15444 H 1507.39 -2.28842 -1.11818 0
M  V30 15445 H 1508.17 -3.43151 0.10124 0
M  V30 15446 N 1510.62 0.421051 -1.51871 0
M  V30 15447 C 1511.86 1.17082 -1.65589 0
M  V30 15448 C 1512.2 1.90469 -0.378861 0
M  V30 15449 O 1511.47 1.84277 0.622259 0
M  V30 15450 C 1511.76 2.17483 -2.87007 0
M  V30 15451 C 1511.61 1.48071 -4.24729 0
M  V30 15452 C 1512.93 3.18288 -3.03942 0
M  V30 15453 H 1510.05 0.424284 -0.602621 0
M  V30 15454 H 1512.69 0.457998 -1.84397 0
M  V30 15455 H 1510.84 2.78273 -2.71102 0
M  V30 15456 H 1512.51 0.904926 -4.52337 0
M  V30 15457 H 1510.75 0.782814 -4.26678 0
M  V30 15458 H 1511.42 2.21272 -5.0571 0
M  V30 15459 H 1513.9 2.67565 -3.18666 0
M  V30 15460 H 1512.78 3.85815 -3.90433 0
M  V30 15461 H 1513.04 3.85333 -2.16728 0
M  V30 15462 N 1512.1 1.42293 0.677538 0
M  V30 15463 C 1513.03 1.41503 1.80304 0
M  V30 15464 C 1514.04 0.314499 1.59733 0
M  V30 15465 O 1515.23 0.57741 1.68903 0
M  V30 15466 C 1512.33 1.18879 3.17366 0
M  V30 15467 C 1511.5 2.41314 3.6481 0
M  V30 15468 C 1510.56 2.14277 4.80595 0
M  V30 15469 O 1509.59 2.87457 4.91281 0
M  V30 15470 N 1510.79 1.14419 5.69112 0
M  V30 15471 H 1513.56 2.38515 1.81468 0
M  V30 15472 H 1511.12 1.37137 0.860529 0
M  V30 15473 H 1513.11 0.987135 3.92476 0
M  V30 15474 H 1511.68 0.304002 3.11118 0
M  V30 15475 H 1510.9 2.77066 2.80407 0
M  V30 15476 H 1512.19 3.2285 3.9325 0
M  V30 15477 H 1511.58 0.53888 5.63127 0
M  V30 15478 H 1510.14 1.00241 6.44046 0
M  V30 15479 N 1513.57 -0.913576 1.28419 0
M  V30 15480 C 1514.82 -1.66519 1.15755 0
M  V30 15481 C 1515.15 -1.91974 -0.293166 0
M  V30 15482 O 1514.43 -1.52025 -1.21321 0
M  V30 15483 C 1514.71 -3.02299 1.95672 0
M  V30 15484 C 1514.56 -2.83996 3.48807 0
M  V30 15485 C 1515.88 -4.02838 1.77226 0
M  V30 15486 H 1513 -0.604309 0.421877 0
M  V30 15487 H 1515.64 -1.05919 1.57737 0
M  V30 15488 H 1513.79 -3.54025 1.59995 0
M  V30 15489 H 1515.47 -2.39279 3.9439 0
M  V30 15490 H 1513.71 -2.19052 3.74431 0
M  V30 15491 H 1514.38 -3.80419 3.99982 0
M  V30 15492 H 1516.86 -3.60174 2.0836 0
M  V30 15493 H 1515.73 -4.95806 2.35515 0
M  V30 15494 H 1515.99 -4.36135 0.723804 0
M  V30 15495 N 1515.05 -1.1067 -1.12204 0
M  V30 15496 C 1516.28 -0.872867 -1.87586 0
M  V30 15497 C 1516.7 0.57682 -1.79773 0
M  V30 15498 O 1516.05 1.39782 -1.17334 0
M  V30 15499 C 1516.1 -1.31572 -3.36706 0
M  V30 15500 O 1515.82 -2.70856 -3.44338 0
M  V30 15501 C 1517.33 -1.11613 -4.29019 0
M  V30 15502 H 1514.55 -0.313132 -0.593455 0
M  V30 15503 H 1517.09 -1.47199 -1.4196 0
M  V30 15504 H 1515.24 -0.760212 -3.79868 0
M  V30 15505 H 1515.66 -2.89854 -4.37132 0
M  V30 15506 H 1517.13 -1.4751 -5.31925 0
M  V30 15507 H 1517.61 -0.0549698 -4.39166 0
M  V30 15508 H 1518.22 -1.65822 -3.91642 0
M  V30 15509 N 1516.53 1.29665 -0.895815 0
M  V30 15510 C 1517.94 1.77825 -0.568784 0
M  V30 15511 C 1518.29 1.73534 0.915443 0
M  V30 15512 O 1517.42 1.31885 1.71567 0
M  V30 15513 C 1518.01 3.22901 -1.0257 0
M  V30 15514 C 1516.57 3.68854 -0.749903 0
M  V30 15515 C 1515.72 2.49866 -1.20259 0
M  V30 15516 H 1518.67 1.16381 -1.07894 0
M  V30 15517 H 1518.69 3.788 -0.359312 0
M  V30 15518 H 1518.2 3.25991 -2.10597 0
M  V30 15519 H 1516.3 3.71241 0.317916 0
M  V30 15520 H 1516.42 4.59831 -1.34506 0
M  V30 15521 H 1514.78 2.46997 -0.621676 0
M  V30 15522 H 1515.56 2.55687 -2.29083 0
M  V30 15523 N 1518.01 0.657889 1.43212 0
M  V30 15524 C 1519.42 0.252443 1.84985 0
M  V30 15525 C 1519.77 -1.20196 1.55072 0
M  V30 15526 O 1518.9 -1.91803 1.00202 0
M  V30 15527 C 1519.49 0.451388 3.3578 0
M  V30 15528 C 1518.05 0.100219 3.76267 0
M  V30 15529 C 1517.2 0.752009 2.66908 0
M  V30 15530 H 1520.15 0.861239 1.33298 0
M  V30 15531 H 1520.17 -0.30169 3.79302 0
M  V30 15532 H 1519.68 1.51001 3.5752 0
M  V30 15533 H 1517.78 -0.955618 3.60137 0
M  V30 15534 H 1517.89 0.528942 4.76171 0
M  V30 15535 H 1516.26 0.184823 2.54029 0
M  V30 15536 H 1517.04 1.81375 2.91476 0
M  V30 15537 N 1519.49 -1.52437 0.400108 0
M  V30 15538 C 1520.9 -1.5952 0.0505611 0
M  V30 15539 C 1521.1 -1.4135 -1.43606 0
M  V30 15540 O 1520.16 -1.23591 -2.20185 0
M  V30 15541 C 1521.47 -2.95859 0.537411 0
M  V30 15542 C 1523.02 -3.09067 0.494603 0
M  V30 15543 C 1523.49 -4.47873 0.957815 0
M  V30 15544 N 1524.99 -4.54087 0.914267 0
M  V30 15545 C 1525.72 -5.59744 1.24397 0
M  V30 15546 N 1525.22 -6.72995 1.64469 0
M  V30 15547 N 1527.01 -5.49905 1.16452 0
M  V30 15548 H 1519.16 -1.62496 1.36781 0
M  V30 15549 H 1521.42 -0.763947 0.561328 0
M  V30 15550 H 1521.13 -3.14407 1.57611 0
M  V30 15551 H 1521 -3.77156 -0.0577652 0
M  V30 15552 H 1523.39 -2.90209 -0.535035 0
M  V30 15553 H 1523.47 -2.29698 1.12572 0
M  V30 15554 H 1523.12 -4.67473 1.98574 0
M  V30 15555 H 1523.05 -5.25724 0.303602 0
M  V30 15556 H 1525.54 -3.72787 0.619536 0
M  V30 15557 H 1525.85 -7.49594 1.87961 0
M  V30 15558 H 1524.19 -6.74298 1.68364 0
M  V30 15559 H 1527.39 -4.60311 0.850401 0
M  V30 15560 H 1527.56 -6.32142 1.42478 0
M  V30 15561 N 1520.96 -0.130252 -1.57061 0
M  V30 15562 C 1522.21 0.523969 -1.9519 0
M  V30 15563 C 1522.53 1.66493 -1.01514 0
M  V30 15564 O 1521.8 1.95762 -0.0735194 0
M  V30 15565 H 1520.38 0.196553 -0.720677 0
M  V30 15566 H 1523.05 -0.20183 -1.93852 0
M  V30 15567 H 1522.14 0.911156 -2.98504 0
M  V30 15568 N 1522.44 1.56945 0.143535 0
M  V30 15569 C 1523.41 1.97616 1.16106 0
M  V30 15570 C 1524.41 0.863113 1.35672 0
M  V30 15571 O 1525.6 1.12966 1.32606 0
M  V30 15572 C 1522.73 2.29511 2.52067 0
M  V30 15573 H 1523.92 2.88696 0.812066 0
M  V30 15574 H 1521.47 1.51433 0.386999 0
M  V30 15575 H 1522.21 1.41233 2.91931 0
M  V30 15576 H 1521.99 3.10667 2.39225 0
M  V30 15577 H 1523.48 2.61802 3.25345 0
M  V30 15578 N 1523.92 -0.412991 1.52093 0
M  V30 15579 C 1525.17 -1.1603 1.65962 0
M  V30 15580 C 1525.5 -1.90598 0.387652 0
M  V30 15581 O 1524.75 -1.85308 -0.629243 0
M  V30 15582 C 1525.05 -2.18321 2.82968 0
M  V30 15583 C 1524.72 -1.60589 4.21334 0
M  V30 15584 C 1523.38 -1.44568 4.5897 0
M  V30 15585 C 1525.73 -1.18388 5.07576 0
M  V30 15586 C 1523.06 -0.848584 5.80531 0
M  V30 15587 C 1525.41 -0.600985 6.29739 0
M  V30 15588 C 1524.07 -0.42788 6.66127 0
M  V30 15589 H 1523.34 -0.424583 0.607297 0
M  V30 15590 H 1525.99 -0.448028 1.86185 0
M  V30 15591 H 1524.3 -2.95678 2.57063 0
M  V30 15592 H 1525.99 -2.76009 2.90895 0
M  V30 15593 H 1522.58 -1.7404 3.91673 0
M  V30 15594 H 1526.77 -1.29576 4.79086 0
M  V30 15595 H 1522.02 -0.702447 6.07351 0
M  V30 15596 H 1526.2 -0.265583 6.95893 0
M  V30 15597 H 1523.82 0.0369013 7.60191 0
M  V30 15598 N 1525.4 -1.4265 -0.669982 0
M  V30 15599 C 1526.62 -1.46992 -1.46315 0
M  V30 15600 C 1527.05 -0.0840655 -1.87912 0
M  V30 15601 O 1526.41 0.918554 -1.56308 0
M  V30 15602 C 1526.46 -2.40663 -2.6854 0
M  V30 15603 O 1525.56 -1.88132 -3.66988 0
M  V30 15604 H 1524.9 -0.497844 -0.439372 0
M  V30 15605 H 1527.43 -1.8739 -0.821348 0
M  V30 15606 H 1527.44 -2.57405 -3.16554 0
M  V30 15607 H 1526.12 -3.41346 -2.37604 0
M  V30 15608 H 1524.69 -1.80969 -3.26044 0
M  V30 15609 N 1526.88 0.906753 -1.28902 0
M  V30 15610 C 1528.29 1.47175 -1.14876 0
M  V30 15611 C 1528.64 1.94487 0.258693 0
M  V30 15612 O 1527.76 1.83088 1.15359 0
M  V30 15613 C 1528.36 2.67491 -2.07928 0
M  V30 15614 C 1526.92 3.20148 -1.97946 0
M  V30 15615 C 1526.07 1.92846 -1.99263 0
M  V30 15616 H 1529.02 0.718777 -1.4149 0
M  V30 15617 H 1529.04 3.42989 -1.64738 0
M  V30 15618 H 1528.55 2.33025 -3.10356 0
M  V30 15619 H 1526.65 3.59322 -0.985806 0
M  V30 15620 H 1526.76 3.84923 -2.85256 0
M  V30 15621 H 1525.13 2.10247 -1.43765 0
M  V30 15622 H 1525.91 1.60666 -3.03383 0
M  V30 15623 N 1528.36 1.11264 1.11616 0
M  V30 15624 C 1529.6 0.858664 1.82952 0
M  V30 15625 C 1529.92 -0.617439 1.84967 0
M  V30 15626 O 1529.19 -1.44849 1.31893 0
M  V30 15627 H 1527.77 0.314671 0.677489 0
M  V30 15628 H 1530.44 1.40466 1.35113 0
M  V30 15629 H 1529.53 1.22921 2.86874 0
M  V30 15630 N 1529.83 -1.29188 0.902679 0
M  V30 15631 C 1530.77 -2.25842 0.327193 0
M  V30 15632 C 1531.74 -1.52567 -0.562321 0
M  V30 15633 O 1532.93 -1.81513 -0.508462 0
M  V30 15634 C 1530.06 -3.34475 -0.533338 0
M  V30 15635 C 1529.1 -4.25518 0.289268 0
M  V30 15636 S 1529.93 -5.08168 1.68896 0
M  V30 15637 C 1531.09 -6.20299 0.835428 0
M  V30 15638 H 1531.32 -2.74307 1.14644 0
M  V30 15639 H 1528.86 -1.37456 0.703212 0
M  V30 15640 H 1530.81 -3.97522 -1.02404 0
M  V30 15641 H 1529.48 -2.84699 -1.32685 0
M  V30 15642 H 1528.67 -5.02653 -0.368218 0
M  V30 15643 H 1528.27 -3.67136 0.71322 0
M  V30 15644 H 1530.56 -6.77473 0.0601329 0
M  V30 15645 H 1531.51 -6.90271 1.57896 0
M  V30 15646 H 1531.91 -5.63162 0.388497 0
M  V30 15647 N 1531.31 -0.665475 -1.42861 0
M  V30 15648 C 1532.56 -0.183521 -2.01265 0
M  V30 15649 C 1532.88 1.21103 -1.52837 0
M  V30 15650 O 1532.15 1.81135 -0.746109 0
M  V30 15651 H 1530.73 -0.0648565 -0.744179 0
M  V30 15652 H 1533.39 -0.859893 -1.74905 0
M  V30 15653 H 1532.49 -0.177589 -3.11594 0
M  V30 15654 N 1532.79 1.52222 -0.408187 0
M  V30 15655 C 1533.72 2.23468 0.462332 0
M  V30 15656 C 1534.7 1.24257 1.04876 0
M  V30 15657 O 1535.88 1.53305 1.0968 0
M  V30 15658 C 1533.01 2.96256 1.64165 0
M  V30 15659 C 1532.06 4.09889 1.1787 0
M  V30 15660 S 1532.89 5.35305 0.144629 0
M  V30 15661 C 1534.05 6.11621 1.3293 0
M  V30 15662 H 1534.28 2.96958 -0.142615 0
M  V30 15663 H 1531.81 1.53196 -0.19248 0
M  V30 15664 H 1533.77 3.38798 2.3179 0
M  V30 15665 H 1532.43 2.2241 2.21794 0
M  V30 15666 H 1531.62 4.59989 2.05977 0
M  V30 15667 H 1531.23 3.69458 0.581119 0
M  V30 15668 H 1533.52 6.38939 2.25306 0
M  V30 15669 H 1534.46 7.02749 0.86885 0
M  V30 15670 H 1534.87 5.4267 1.55466 0
M  V30 15671 N 1534.27 0.138579 1.5699 0
M  V30 15672 C 1535.2 -0.835134 2.13444 0
M  V30 15673 C 1536.21 -1.21657 1.08183 0
M  V30 15674 O 1537.4 -1.16211 1.35489 0
M  V30 15675 C 1534.5 -2.13086 2.63529 0
M  V30 15676 C 1533.67 -1.9181 3.931 0
M  V30 15677 C 1532.73 -3.05293 4.28582 0
M  V30 15678 O 1531.76 -2.77351 4.97056 0
M  V30 15679 N 1532.96 -4.32248 3.87482 0
M  V30 15680 H 1535.73 -0.352693 2.97617 0
M  V30 15681 H 1533.29 -0.0452536 1.61837 0
M  V30 15682 H 1535.28 -2.88036 2.84284 0
M  V30 15683 H 1533.85 -2.52619 1.84127 0
M  V30 15684 H 1533.07 -1.00943 3.81057 0
M  V30 15685 H 1534.36 -1.74923 4.77786 0
M  V30 15686 H 1533.76 -4.5782 3.32292 0
M  V30 15687 H 1532.31 -5.04006 4.13305 0
M  V30 15688 N 1535.75 -1.57019 -0.13521 0
M  V30 15689 C 1537.16 -1.73319 -0.694067 0
M  V30 15690 C 1537.51 -0.754808 -1.811 0
M  V30 15691 O 1536.63 0.0759463 -2.16267 0
M  V30 15692 C 1537.23 -3.14266 -1.26579 0
M  V30 15693 C 1535.79 -3.32128 -1.7711 0
M  V30 15694 C 1534.93 -2.69226 -0.664263 0
M  V30 15695 H 1537.88 -1.58441 0.0905702 0
M  V30 15696 H 1537.91 -3.14919 -2.13557 0
M  V30 15697 H 1537.42 -3.85451 -0.452652 0
M  V30 15698 H 1535.52 -2.65959 -2.60953 0
M  V30 15699 H 1535.63 -4.40172 -1.8917 0
M  V30 15700 H 1534 -2.30016 -1.09384 0
M  V30 15701 H 1534.78 -3.43024 0.13763 0
M  V30 15702 N 1537.22 0.404919 -1.52309 0
M  V30 15703 C 1538.64 0.743846 -1.41206 0
M  V30 15704 C 1538.84 1.94678 -0.519874 0
M  V30 15705 O 1537.9 2.52497 0.0127417 0
M  V30 15706 C 1539.21 0.99384 -2.83802 0
M  V30 15707 C 1540.76 1.0963 -2.93173 0
M  V30 15708 C 1541.23 1.37902 -4.36746 0
M  V30 15709 N 1542.72 1.44758 -4.39999 0
M  V30 15710 C 1543.46 1.68269 -5.48154 0
M  V30 15711 N 1542.95 1.89356 -6.6642 0
M  V30 15712 N 1544.75 1.70318 -5.35675 0
M  V30 15713 H 1536.9 -0.386855 -2.08847 0
M  V30 15714 H 1539.16 -0.110811 -0.941501 0
M  V30 15715 H 1538.87 0.182249 -3.51227 0
M  V30 15716 H 1538.74 1.91287 -3.25099 0
M  V30 15717 H 1541.13 1.89847 -2.25925 0
M  V30 15718 H 1541.21 0.155539 -2.55327 0
M  V30 15719 H 1540.85 0.582004 -5.04554 0
M  V30 15720 H 1540.78 2.33237 -4.72132 0
M  V30 15721 H 1543.27 1.30235 -3.5475 0
M  V30 15722 H 1543.59 2.06758 -7.44628 0
M  V30 15723 H 1541.93 1.86612 -6.69478 0
M  V30 15724 H 1545.12 1.53385 -4.42256 0
M  V30 15725 H 1545.3 1.88302 -6.20037 0
M  V30 15726 N 1538.7 1.43003 0.662408 0
M  V30 15727 C 1539.63 1.43407 1.78793 0
M  V30 15728 C 1540.65 0.331423 1.59391 0
M  V30 15729 O 1541.84 0.595291 1.68281 0
M  V30 15730 C 1538.94 1.22239 3.16087 0
M  V30 15731 C 1538.11 2.4517 3.6223 0
M  V30 15732 C 1537.17 2.19362 4.78296 0
M  V30 15733 O 1536.19 2.92651 4.88205 0
M  V30 15734 N 1537.4 1.20449 5.67866 0
M  V30 15735 H 1540.16 2.40426 1.78928 0
M  V30 15736 H 1537.72 1.38042 0.845936 0
M  V30 15737 H 1539.71 1.02871 3.91407 0
M  V30 15738 H 1538.28 0.336983 3.10778 0
M  V30 15739 H 1537.5 2.80024 2.77453 0
M  V30 15740 H 1538.79 3.27003 3.89803 0
M  V30 15741 H 1538.19 0.598577 5.62524 0
M  V30 15742 H 1536.75 1.07066 6.42946 0
M  V30 15743 N 1540.18 -0.899904 1.29381 0
M  V30 15744 C 1541.41 -1.68383 1.20227 0
M  V30 15745 C 1541.82 -1.87305 -0.237135 0
M  V30 15746 O 1541.18 -1.40992 -1.15877 0
M  V30 15747 C 1541.23 -3.06845 1.91124 0
M  V30 15748 O 1540.95 -2.88787 3.29444 0
M  V30 15749 C 1542.45 -4.01253 1.88444 0
M  V30 15750 H 1539.67 -0.525917 0.416717 0
M  V30 15751 H 1542.22 -1.12537 1.7075 0
M  V30 15752 H 1540.37 -3.59467 1.44438 0
M  V30 15753 H 1540.79 -3.7652 3.65148 0
M  V30 15754 H 1542.26 -4.95824 2.42616 0
M  V30 15755 H 1542.74 -4.30699 0.859925 0
M  V30 15756 H 1543.34 -3.54562 2.34874 0
M  V30 15757 N 1541.66 -1.11854 -1.11024 0
M  V30 15758 C 1542.59 -0.803129 -2.19253 0
M  V30 15759 C 1543.57 0.230417 -1.68532 0
M  V30 15760 O 1544.75 0.0929421 -1.93977 0
M  V30 15761 C 1541.88 -0.250265 -3.46397 0
M  V30 15762 C 1540.84 -1.21617 -4.10357 0
M  V30 15763 C 1540.16 -0.523821 -5.32128 0
M  V30 15764 C 1541.46 -2.56852 -4.54779 0
M  V30 15765 H 1543.16 -1.7081 -2.45895 0
M  V30 15766 H 1540.7 -0.822712 -1.18184 0
M  V30 15767 H 1542.66 -0.0173732 -4.21396 0
M  V30 15768 H 1541.38 0.690018 -3.19228 0
M  V30 15769 H 1540.04 -1.43477 -3.37357 0
M  V30 15770 H 1539.69 0.421408 -5.01232 0
M  V30 15771 H 1539.39 -1.16809 -5.75873 0
M  V30 15772 H 1540.91 -0.299823 -6.09863 0
M  V30 15773 H 1542.33 -2.39056 -5.21081 0
M  V30 15774 H 1540.72 -3.17301 -5.09353 0
M  V30 15775 H 1541.79 -3.15751 -3.68007 0
M  V30 15776 N 1543.14 1.28707 -0.909517 0
M  V30 15777 C 1544.08 2.29396 -0.384756 0
M  V30 15778 C 1545.08 1.61179 0.521318 0
M  V30 15779 O 1546.28 1.7543 0.403032 0
M  V30 15780 H 1542.66 0.744518 -0.105814 0
M  V30 15781 H 1544.63 2.71089 -1.24714 0
M  V30 15782 C 1543.38 3.45792 0.363795 0
M  V30 15783 H 1542.7 3.98483 -0.324198 0
M  V30 15784 H 1544.14 4.18254 0.695681 0
M  V30 15785 C 1542.6 2.98075 1.57012 0
M  V30 15786 O 1543.13 3.00187 2.66929 0
M  V30 15787 N 1541.34 2.53787 1.41565 0
M  V30 15788 H 1540.88 2.52268 0.521415 0
M  V30 15789 H 1540.84 2.2222 2.22408 0
M  V30 15790 N 1544.61 0.673042 1.42506 0
M  V30 15791 C 1546.03 0.342429 1.55883 0
M  V30 15792 C 1546.23 -1.15229 1.65302 0
M  V30 15793 O 1545.29 -1.93767 1.61897 0
M  V30 15794 C 1546.6 1.0712 2.80973 0
M  V30 15795 C 1548.15 1.05336 2.94743 0
M  V30 15796 C 1548.62 1.76342 4.22691 0
M  V30 15797 N 1550.11 1.73201 4.29599 0
M  V30 15798 C 1550.85 2.25 5.27411 0
M  V30 15799 N 1550.34 2.85173 6.31386 0
M  V30 15800 N 1552.14 2.15385 5.19197 0
M  V30 15801 H 1544.29 1.64277 1.34636 0
M  V30 15802 H 1546.55 0.691984 0.647968 0
M  V30 15803 H 1546.26 2.1263 2.80145 0
M  V30 15804 H 1546.13 0.635313 3.71811 0
M  V30 15805 H 1548.52 0.00659669 2.95099 0
M  V30 15806 H 1548.6 1.52811 2.0514 0
M  V30 15807 H 1548.24 2.80985 4.23096 0
M  V30 15808 H 1548.17 1.26317 5.11225 0
M  V30 15809 H 1550.66 1.2931 3.55088 0
M  V30 15810 H 1550.98 3.22323 7.02373 0
M  V30 15811 H 1549.32 2.89242 6.31953 0
M  V30 15812 H 1552.51 1.68065 4.36889 0
M  V30 15813 H 1552.69 2.5606 5.95262 0
M  V30 15814 N 1546.09 -1.52004 0.416254 0
M  V30 15815 C 1547.5 -1.86628 -0.0517247 0
M  V30 15816 C 1547.85 -1.33463 -1.43813 0
M  V30 15817 O 1546.98 -0.676793 -2.05544 0
M  V30 15818 C 1547.57 -3.38651 -0.100637 0
M  V30 15819 C 1546.13 -3.72888 -0.512969 0
M  V30 15820 C 1545.28 -2.75584 0.307975 0
M  V30 15821 H 1548.23 -1.45529 0.633018 0
M  V30 15822 H 1548.25 -3.69348 -0.914465 0
M  V30 15823 H 1547.76 -3.77316 0.908538 0
M  V30 15824 H 1545.87 -3.39804 -1.52852 0
M  V30 15825 H 1545.98 -4.78435 -0.252408 0
M  V30 15826 H 1544.34 -2.53653 -0.230717 0
M  V30 15827 H 1545.13 -3.1709 1.31563 0
M  V30 15828 N 1547.57 -0.146903 -1.56914 0
M  V30 15829 C 1548.98 0.373938 -1.82917 0
M  V30 15830 C 1549.33 1.64741 -1.06559 0
M  V30 15831 O 1548.46 2.14156 -0.310849 0
M  V30 15832 C 1549.05 0.685213 -3.31799 0
M  V30 15833 C 1547.61 1.15058 -3.58383 0
M  V30 15834 C 1546.76 0.17362 -2.76756 0
M  V30 15835 H 1549.71 -0.371602 -1.54288 0
M  V30 15836 H 1549.73 1.53989 -3.47948 0
M  V30 15837 H 1549.24 -0.241816 -3.87346 0
M  V30 15838 H 1547.34 2.09355 -3.08223 0
M  V30 15839 H 1547.46 1.07662 -4.66847 0
M  V30 15840 H 1545.82 0.666227 -2.45832 0
M  V30 15841 H 1546.6 -0.746998 -3.35074 0
M  V30 15842 N 1549.05 1.57088 0.126881 0
M  V30 15843 C 1550.01 1.98836 1.14003 0
M  V30 15844 C 1551.01 0.877454 1.34749 0
M  V30 15845 O 1552.2 1.14366 1.314 0
M  V30 15846 C 1549.33 2.32171 2.49618 0
M  V30 15847 H 1550.53 2.89541 0.7814 0
M  V30 15848 H 1548.08 1.51835 0.370915 0
M  V30 15849 H 1548.81 1.44321 2.90417 0
M  V30 15850 H 1548.6 3.13187 2.35916 0
M  V30 15851 H 1550.09 2.65238 3.2255 0
M  V30 15852 N 1550.53 -0.396836 1.52522 0
M  V30 15853 C 1551.49 -1.46695 1.76106 0
M  V30 15854 C 1552.49 -1.47902 0.631005 0
M  V30 15855 O 1553.68 -1.4921 0.898995 0
M  V30 15856 C 1550.81 -2.86033 1.85467 0
M  V30 15857 H 1552 -1.27071 2.71649 0
M  V30 15858 H 1549.56 -0.628096 1.43125 0
M  V30 15859 H 1550.29 -3.11012 0.918816 0
M  V30 15860 H 1550.08 -2.86559 2.67631 0
M  V30 15861 H 1551.57 -3.63587 2.05412 0
M  V30 15862 N 1552.01 -1.43353 -0.654814 0
M  V30 15863 C 1553.42 -1.39933 -1.23595 0
M  V30 15864 C 1553.77 -0.102592 -1.95932 0
M  V30 15865 O 1552.89 0.798021 -2.01148 0
M  V30 15866 C 1553.49 -2.53483 -2.24793 0
M  V30 15867 C 1552.05 -2.53333 -2.78387 0
M  V30 15868 C 1551.19 -2.31268 -1.53005 0
M  V30 15869 H 1554.14 -1.52277 -0.446932 0
M  V30 15870 H 1554.17 -2.2488 -3.06935 0
M  V30 15871 H 1553.68 -3.47847 -1.72116 0
M  V30 15872 H 1551.78 -1.62844 -3.35131 0
M  V30 15873 H 1551.89 -3.51047 -3.26041 0
M  V30 15874 H 1550.26 -1.79905 -1.80295 0
M  V30 15875 H 1551.04 -3.27714 -1.02266 0
M  V30 15876 N 1553.48 0.89303 -1.29857 0
M  V30 15877 C 1554.43 2.01928 -1.15447 0
M  V30 15878 C 1555.43 1.69262 -0.0683677 0
M  V30 15879 O 1556.63 1.78542 -0.228646 0
M  V30 15880 H 1553.01 0.661961 -0.356807 0
M  V30 15881 H 1554.98 2.11218 -2.10784 0
M  V30 15882 C 1553.73 3.37031 -0.85473 0
M  V30 15883 H 1553.05 3.62673 -1.68251 0
M  V30 15884 H 1554.49 4.165 -0.793973 0
M  V30 15885 C 1552.95 3.33986 0.442183 0
M  V30 15886 O 1553.48 3.73986 1.4662 0
M  V30 15887 N 1551.68 2.87088 0.450438 0
M  V30 15888 H 1551.23 2.54732 -0.383347 0
M  V30 15889 H 1551.19 2.85433 1.31815 0
M  V30 15890 N 1554.96 1.12442 1.10429 0
M  V30 15891 C 1555.89 0.750131 2.16577 0
M  V30 15892 C 1556.91 -0.223265 1.61262 0
M  V30 15893 O 1558.1 -0.00459454 1.78499 0
M  V30 15894 C 1555.2 0.0895474 3.38782 0
M  V30 15895 C 1554.37 1.09242 4.23539 0
M  V30 15896 C 1553.43 0.45945 5.2419 0
M  V30 15897 O 1552.45 1.11646 5.58143 0
M  V30 15898 N 1553.66 -0.773093 5.75329 0
M  V30 15899 H 1556.42 1.66349 2.49295 0
M  V30 15900 H 1553.98 1.01603 1.26049 0
M  V30 15901 H 1555.97 -0.345895 4.03219 0
M  V30 15902 H 1554.54 -0.726572 3.04039 0
M  V30 15903 H 1553.76 1.70549 3.55396 0
M  V30 15904 H 1555.05 1.77057 4.76999 0
M  V30 15905 H 1554.45 -1.32585 5.49943 0
M  V30 15906 H 1553.01 -1.15135 6.41551 0
M  V30 15907 N 1556.44 -1.28223 0.91633 0
M  V30 15908 C 1557.37 -2.29623 0.423735 0
M  V30 15909 C 1558.35 -1.62274 -0.510016 0
M  V30 15910 O 1559.54 -1.89666 -0.4172 0
M  V30 15911 C 1556.67 -3.45684 -0.334686 0
M  V30 15912 C 1555.62 -4.24949 0.510169 0
M  V30 15913 C 1554.95 -5.33371 -0.376745 0
M  V30 15914 C 1556.25 -4.91438 1.76877 0
M  V30 15915 H 1557.94 -2.71076 1.27115 0
M  V30 15916 H 1555.49 -1.30316 0.612678 0
M  V30 15917 H 1557.44 -4.1571 -0.690154 0
M  V30 15918 H 1556.16 -3.03118 -1.21603 0
M  V30 15919 H 1554.82 -3.56653 0.848191 0
M  V30 15920 H 1554.47 -4.87048 -1.25671 0
M  V30 15921 H 1554.17 -5.87309 0.18496 0
M  V30 15922 H 1555.69 -6.06244 -0.728039 0
M  V30 15923 H 1557.11 -5.53812 1.48205 0
M  V30 15924 H 1555.5 -5.55384 2.27308 0
M  V30 15925 H 1556.57 -4.15783 2.49505 0
M  V30 15926 N 1557.92 -0.68059 -1.42147 0
M  V30 15927 C 1559.33 -0.350691 -1.55699 0
M  V30 15928 C 1559.53 1.1435 -1.6591 0
M  V30 15929 O 1558.59 1.92905 -1.62923 0
M  V30 15930 C 1559.9 -1.08608 -2.80401 0
M  V30 15931 C 1561.45 -1.06897 -2.9418 0
M  V30 15932 C 1561.93 -1.78581 -4.2175 0
M  V30 15933 N 1563.42 -1.75477 -4.28675 0
M  V30 15934 C 1564.15 -2.27794 -5.26211 0
M  V30 15935 N 1563.65 -2.88518 -6.29865 0
M  V30 15936 N 1565.44 -2.18135 -5.18048 0
M  V30 15937 H 1557.59 -1.64988 -1.33763 0
M  V30 15938 H 1559.85 -0.695411 -0.644289 0
M  V30 15939 H 1559.56 -2.14113 -2.79014 0
M  V30 15940 H 1559.43 -0.655022 -3.71469 0
M  V30 15941 H 1561.82 -0.0222464 -2.95092 0
M  V30 15942 H 1561.9 -1.53897 -2.04327 0
M  V30 15943 H 1561.55 -2.83225 -4.21599 0
M  V30 15944 H 1561.48 -1.29027 -5.10548 0
M  V30 15945 H 1563.97 -1.31191 -3.54397 0
M  V30 15946 H 1564.28 -3.26043 -7.00654 0
M  V30 15947 H 1562.63 -2.92589 -6.3041 0
M  V30 15948 H 1565.82 -1.7038 -4.35991 0
M  V30 15949 H 1565.99 -2.59213 -5.93896 0
M  V30 15950 N 1559.4 1.51781 -0.424309 0
M  V30 15951 C 1560.33 2.30313 0.384462 0
M  V30 15952 C 1561.31 1.35166 1.03268 0
M  V30 15953 O 1562.49 1.64081 1.0388 0
M  V30 15954 C 1559.62 3.13566 1.49311 0
M  V30 15955 C 1558.58 4.16884 0.969096 0
M  V30 15956 C 1557.9 4.88576 2.17251 0
M  V30 15957 C 1559.2 5.22298 0.0125613 0
M  V30 15958 H 1560.9 2.98172 -0.270871 0
M  V30 15959 H 1558.44 1.43396 -0.131712 0
M  V30 15960 H 1560.39 3.67279 2.06602 0
M  V30 15961 H 1559.12 2.43504 2.17655 0
M  V30 15962 H 1557.78 3.64203 0.418494 0
M  V30 15963 H 1557.43 4.15029 2.84183 0
M  V30 15964 H 1557.13 5.58432 1.82833 0
M  V30 15965 H 1558.65 5.45107 2.75119 0
M  V30 15966 H 1560.06 5.71161 0.494744 0
M  V30 15967 H 1558.46 5.99606 -0.243544 0
M  V30 15968 H 1559.53 4.75935 -0.92813 0
M  V30 15969 N 1560.87 0.155222 1.56834 0
M  V30 15970 C 1561.81 -0.812448 2.14317 0
M  V30 15971 C 1562.82 -1.20502 1.09467 0
M  V30 15972 O 1564.01 -1.14767 1.36714 0
M  V30 15973 C 1561.11 -2.10279 2.65774 0
M  V30 15974 C 1560.28 -1.8763 3.95112 0
M  V30 15975 C 1559.34 -3.0073 4.31796 0
M  V30 15976 O 1558.37 -2.72064 4.9997 0
M  V30 15977 N 1559.57 -4.28114 3.92044 0
M  V30 15978 H 1562.33 -0.321106 2.97975 0
M  V30 15979 H 1559.89 -0.0280861 1.61876 0
M  V30 15980 H 1561.89 -2.85005 2.87323 0
M  V30 15981 H 1560.46 -2.50652 1.86796 0
M  V30 15982 H 1559.68 -0.968958 3.82106 0
M  V30 15983 H 1560.96 -1.69845 4.79614 0
M  V30 15984 H 1560.36 -4.54269 3.37129 0
M  V30 15985 H 1558.92 -4.99594 4.18627 0
M  V30 15986 N 1562.35 -1.57153 -0.118549 0
M  V30 15987 C 1563.28 -2.03409 -1.1466 0
M  V30 15988 C 1564.26 -0.918636 -1.43161 0
M  V30 15989 O 1565.45 -1.18838 -1.53594 0
M  V30 15990 C 1562.58 -2.43879 -2.47265 0
M  V30 15991 C 1561.53 -3.58873 -2.33225 0
M  V30 15992 C 1560.86 -3.85244 -3.70798 0
M  V30 15993 C 1562.16 -4.90582 -1.79239 0
M  V30 15994 H 1563.85 -2.89545 -0.761862 0
M  V30 15995 H 1561.4 -1.39296 -0.365034 0
M  V30 15996 H 1563.35 -2.74844 -3.19435 0
M  V30 15997 H 1562.07 -1.54715 -2.8763 0
M  V30 15998 H 1560.73 -3.28119 -1.63504 0
M  V30 15999 H 1560.38 -2.93285 -4.08648 0
M  V30 16000 H 1560.08 -4.62649 -3.62257 0
M  V30 16001 H 1561.61 -4.18661 -4.44472 0
M  V30 16002 H 1563.02 -5.20079 -2.41227 0
M  V30 16003 H 1561.42 -5.71989 -1.81518 0
M  V30 16004 H 1562.49 -4.79065 -0.74999 0
M  V30 16005 N 1563.83 0.388742 -1.5273 0
M  V30 16006 C 1564.76 1.49441 -1.73781 0
M  V30 16007 C 1565.77 1.50602 -0.618285 0
M  V30 16008 O 1566.96 1.545 -0.893986 0
M  V30 16009 C 1564.06 2.88288 -1.78166 0
M  V30 16010 C 1563.24 3.11089 -3.07478 0
M  V30 16011 C 1562.3 4.2992 -3.03407 0
M  V30 16012 O 1561.32 4.26212 -3.77269 0
M  V30 16013 N 1562.52 5.36121 -2.2261 0
M  V30 16014 H 1565.29 1.3177 -2.69178 0
M  V30 16015 H 1562.85 0.578258 -1.51221 0
M  V30 16016 H 1564.84 3.65884 -1.72949 0
M  V30 16017 H 1563.41 2.99317 -0.901553 0
M  V30 16018 H 1562.63 2.21356 -3.26183 0
M  V30 16019 H 1563.92 3.23177 -3.92981 0
M  V30 16020 H 1563.32 5.41988 -1.62067 0
M  V30 16021 H 1561.87 6.12381 -2.23232 0
M  V30 16022 N 1565.31 1.43698 0.647203 0
M  V30 16023 C 1566.24 1.45295 1.77262 0
M  V30 16024 C 1567.25 0.34831 1.5903 0
M  V30 16025 O 1568.44 0.613106 1.6764 0
M  V30 16026 C 1565.54 1.25584 3.14773 0
M  V30 16027 C 1564.71 2.48998 3.59609 0
M  V30 16028 C 1563.77 2.24423 4.75942 0
M  V30 16029 O 1562.8 2.97813 4.85073 0
M  V30 16030 N 1564 1.26465 5.66557 0
M  V30 16031 H 1566.77 2.42311 1.76368 0
M  V30 16032 H 1564.33 1.38931 0.831247 0
M  V30 16033 H 1566.32 1.07016 3.90294 0
M  V30 16034 H 1564.89 0.369927 3.10403 0
M  V30 16035 H 1564.11 2.82951 2.74467 0
M  V30 16036 H 1565.4 3.31119 3.86313 0
M  V30 16037 H 1564.8 0.658206 5.61858 0
M  V30 16038 H 1563.35 1.13879 6.41775 0
M  V30 16039 N 1566.79 -0.886131 1.30328 0
M  V30 16040 C 1568.2 -1.16922 1.08634 0
M  V30 16041 C 1568.4 -2.00913 -0.15365 0
M  V30 16042 O 1567.46 -2.37849 -0.847592 0
M  V30 16043 C 1568.77 -1.87701 2.34923 0
M  V30 16044 C 1570.32 -2.0047 2.40376 0
M  V30 16045 C 1570.79 -2.74662 3.66504 0
M  V30 16046 N 1572.29 -2.82208 3.67305 0
M  V30 16047 C 1573.02 -3.40185 4.61586 0
M  V30 16048 N 1572.52 -3.99221 5.66211 0
M  V30 16049 N 1574.31 -3.37989 4.49132 0
M  V30 16050 H 1566.46 -0.326064 2.09882 0
M  V30 16051 H 1568.72 -0.206996 0.925125 0
M  V30 16052 H 1568.43 -1.33427 3.25408 0
M  V30 16053 H 1568.3 -2.88092 2.43481 0
M  V30 16054 H 1570.69 -2.53914 1.50371 0
M  V30 16055 H 1570.77 -0.991709 2.35794 0
M  V30 16056 H 1570.42 -2.2189 4.56867 0
M  V30 16057 H 1570.35 -3.76335 3.68347 0
M  V30 16058 H 1572.84 -2.40292 2.91665 0
M  V30 16059 H 1573.15 -4.41522 6.34254 0
M  V30 16060 H 1571.49 -3.97643 5.70004 0
M  V30 16061 H 1574.69 -2.91096 3.6658 0
M  V30 16062 H 1574.86 -3.82877 5.2279 0
M  V30 16063 N 1568.26 -1.13026 -1.09832 0
M  V30 16064 C 1569.19 -0.826338 -2.18389 0
M  V30 16065 C 1570.18 0.212529 -1.68767 0
M  V30 16066 O 1571.36 0.072363 -1.94065 0
M  V30 16067 C 1568.49 -0.286991 -3.46112 0
M  V30 16068 C 1567.44 -1.25963 -4.09044 0
M  V30 16069 C 1566.77 -0.580231 -5.31542 0
M  V30 16070 C 1568.07 -2.61661 -4.5203 0
M  V30 16071 H 1569.76 -1.73408 -2.4407 0
M  V30 16072 H 1567.31 -0.835201 -1.17305 0
M  V30 16073 H 1569.26 -0.062067 -4.21354 0
M  V30 16074 H 1567.99 0.656121 -3.19942 0
M  V30 16075 H 1566.65 -1.47047 -3.35816 0
M  V30 16076 H 1566.29 0.368222 -5.0165 0
M  V30 16077 H 1565.99 -1.2291 -5.74601 0
M  V30 16078 H 1567.52 -0.36449 -6.09511 0
M  V30 16079 H 1568.93 -2.44569 -5.18516 0
M  V30 16080 H 1567.33 -3.22685 -5.05959 0
M  V30 16081 H 1568.4 -3.19637 -3.64637 0
M  V30 16082 N 1569.74 1.27735 -0.923117 0
M  V30 16083 C 1570.67 2.26095 -0.375982 0
M  V30 16084 C 1571.69 1.55227 0.490763 0
M  V30 16085 O 1572.88 1.7589 0.304127 0
M  V30 16086 C 1569.98 3.35479 0.480342 0
M  V30 16087 C 1569.15 4.35866 -0.36605 0
M  V30 16088 C 1568.21 5.24466 0.42688 0
M  V30 16089 O 1567.23 5.68964 -0.163825 0
M  V30 16090 N 1568.44 5.54192 1.72777 0
M  V30 16091 H 1571.2 2.73679 -1.22147 0
M  V30 16092 H 1568.76 1.41314 -0.790056 0
M  V30 16093 H 1570.75 3.91693 1.01776 0
M  V30 16094 H 1569.32 2.87531 1.22657 0
M  V30 16095 H 1568.54 3.7898 -1.08479 0
M  V30 16096 H 1569.83 4.9995 -0.944849 0
M  V30 16097 H 1569.23 5.19888 2.23008 0
M  V30 16098 H 1567.79 6.13125 2.21181 0
M  V30 16099 N 1571.22 0.688118 1.41784 0
M  V30 16100 C 1572.47 0.215517 2.00948 0
M  V30 16101 C 1572.79 -1.18656 1.54744 0
M  V30 16102 O 1572.06 -1.79925 0.774831 0
M  V30 16103 H 1570.64 0.0766876 0.743053 0
M  V30 16104 H 1573.3 0.88761 1.73515 0
M  V30 16105 H 1572.4 0.227139 3.11272 0
M  V30 16106 N 1572.7 -1.51554 0.432352 0
M  V30 16107 C 1573.63 -2.25369 -0.417328 0
M  V30 16108 C 1574.64 -1.29197 -0.990551 0
M  V30 16109 O 1575.83 -1.54985 -0.885539 0
M  V30 16110 C 1572.93 -2.99006 -1.59526 0
M  V30 16111 C 1572.11 -4.22234 -1.1418 0
M  V30 16112 C 1571.16 -4.78495 -2.18928 0
M  V30 16113 O 1570.19 -5.40465 -1.78566 0
M  V30 16114 N 1571.39 -4.62091 -3.51358 0
M  V30 16115 H 1574.16 -2.98926 0.215294 0
M  V30 16116 H 1571.72 -1.59783 0.26097 0
M  V30 16117 H 1573.71 -3.33532 -2.29212 0
M  V30 16118 H 1572.28 -2.28491 -2.13332 0
M  V30 16119 H 1571.5 -3.93259 -0.272182 0
M  V30 16120 H 1572.79 -5.02212 -0.816145 0
M  V30 16121 H 1572.19 -4.12718 -3.86885 0
M  V30 16122 H 1570.74 -5.00992 -4.16953 0
M  V30 16123 N 1574.18 -0.163538 -1.56749 0
M  V30 16124 C 1575.11 0.801071 -2.14745 0
M  V30 16125 C 1576.12 1.1992 -1.10104 0
M  V30 16126 O 1577.31 1.14041 -1.37321 0
M  V30 16127 C 1574.41 2.08867 -2.66886 0
M  V30 16128 C 1573.58 1.85532 -3.96102 0
M  V30 16129 C 1572.64 2.98436 -4.33385 0
M  V30 16130 O 1571.67 2.69408 -5.01406 0
M  V30 16131 N 1572.87 4.26029 -3.94309 0
M  V30 16132 H 1575.64 0.3053 -2.98141 0
M  V30 16133 H 1573.2 0.019501 -1.61888 0
M  V30 16134 H 1575.19 2.83477 -2.8883 0
M  V30 16135 H 1573.76 2.49657 -1.88122 0
M  V30 16136 H 1572.98 0.94868 -3.82614 0
M  V30 16137 H 1574.27 1.673 -4.80508 0
M  V30 16138 H 1573.66 4.52475 -3.39533 0
M  V30 16139 H 1572.22 4.97367 -4.21271 0
M  V30 16140 N 1575.65 1.57214 0.110213 0
M  V30 16141 C 1576.59 1.97641 1.16064 0
M  V30 16142 C 1577.6 0.876886 1.37166 0
M  V30 16143 O 1578.79 1.15512 1.36086 0
M  V30 16144 C 1575.89 2.2671 2.51904 0
M  V30 16145 C 1575.06 3.58015 2.51285 0
M  V30 16146 C 1574.12 3.75195 3.68938 0
M  V30 16147 O 1573.15 4.47214 3.5212 0
M  V30 16148 N 1574.35 3.14627 4.87842 0
M  V30 16149 H 1577.11 2.88358 0.816679 0
M  V30 16150 H 1574.67 1.59108 0.299383 0
M  V30 16151 H 1576.67 2.35411 3.29187 0
M  V30 16152 H 1575.24 1.42076 2.78448 0
M  V30 16153 H 1574.46 3.60422 1.59655 0
M  V30 16154 H 1575.74 4.44303 2.47936 0
M  V30 16155 H 1575.14 2.56101 5.0441 0
M  V30 16156 H 1573.7 3.28836 5.6277 0
M  V30 16157 N 1577.13 -0.380637 1.52934 0
M  V30 16158 C 1578.06 -1.47174 1.81279 0
M  V30 16159 C 1579.04 -1.56549 0.665319 0
M  V30 16160 O 1580.23 -1.71362 0.913722 0
M  V30 16161 C 1577.36 -2.84691 1.98918 0
M  V30 16162 C 1576.31 -2.90151 3.14637 0
M  V30 16163 C 1575.64 -4.30198 3.17544 0
M  V30 16164 C 1576.94 -2.59037 4.53539 0
M  V30 16165 H 1578.63 -1.23703 2.7265 0
M  V30 16166 H 1576.18 -0.593654 1.31194 0
M  V30 16167 H 1578.13 -3.61034 2.1733 0
M  V30 16168 H 1576.86 -3.09517 1.04244 0
M  V30 16169 H 1575.51 -2.16257 2.96021 0
M  V30 16170 H 1575.16 -4.52076 2.20536 0
M  V30 16171 H 1574.86 -4.3477 3.95284 0
M  V30 16172 H 1576.39 -5.08435 3.38121 0
M  V30 16173 H 1577.8 -3.25096 4.72214 0
M  V30 16174 H 1576.2 -2.74946 5.33408 0
M  V30 16175 H 1577.27 -1.54342 4.59681 0
M  V30 16176 N 1578.61 -1.44039 -0.639573 0
M  V30 16177 C 1579.86 -1.4566 -1.39521 0
M  V30 16178 C 1580.17 -0.0897878 -1.95394 0
M  V30 16179 O 1581.38 0.0165074 -2.71495 0
M  V30 16180 C 1579.83 -2.56395 -2.52566 0
M  V30 16181 C 1579.44 -3.99245 -2.03243 0
M  V30 16182 C 1581.19 -2.67226 -3.29834 0
M  V30 16183 C 1579.09 -5.01419 -3.1358 0
M  V30 16184 H 1578.02 -0.541894 -0.524277 0
M  V30 16185 H 1580.67 -1.70076 -0.688941 0
M  V30 16186 H 1579.06 -2.25204 -3.25729 0
M  V30 16187 H 1580.23 -4.39963 -1.37002 0
M  V30 16188 H 1578.55 -3.9258 -1.38816 0
M  V30 16189 H 1581.14 -3.40736 -4.12072 0
M  V30 16190 H 1581.49 -1.72756 -3.78763 0
M  V30 16191 H 1582.02 -2.97786 -2.63758 0
M  V30 16192 H 1578.76 -5.97489 -2.69605 0
M  V30 16193 H 1578.28 -4.65301 -3.7849 0
M  V30 16194 H 1579.96 -5.2474 -3.78493 0
M  V30 16195 N 1580.09 0.879207 -1.30796 0
M  V30 16196 C 1581.04 1.97297 -1.14272 0
M  V30 16197 C 1582.02 1.60802 -0.0562653 0
M  V30 16198 O 1583.21 1.74768 -0.280204 0
M  V30 16199 C 1580.34 3.32799 -0.842604 0
M  V30 16200 C 1579.43 3.7559 -1.96959 0
M  V30 16201 N 1579.82 3.90426 -3.21561 0
M  V30 16202 C 1578.12 4.05031 -1.86725 0
M  V30 16203 C 1578.82 4.2682 -3.9522 0
M  V30 16204 N 1577.8 4.36999 -3.23316 0
M  V30 16205 H 1581.6 2.06865 -2.08768 0
M  V30 16206 H 1579.11 1.0694 -1.2222 0
M  V30 16207 H 1581.11 4.10892 -0.705224 0
M  V30 16208 H 1579.77 3.24563 0.0942269 0
M  V30 16209 H 1580.78 3.75401 -3.56783 0
M  V30 16210 H 1577.46 4.05236 -1.00447 0
M  V30 16211 H 1578.85 4.45973 -5.02551 0
M  V30 16212 N 1581.57 1.13606 1.09231 0
M  V30 16213 C 1582.5 0.77306 2.15769 0
M  V30 16214 C 1583.51 -0.206148 1.6149 0
M  V30 16215 O 1584.7 0.014338 1.78494 0
M  V30 16216 C 1581.8 0.125475 3.38668 0
M  V30 16217 C 1580.97 1.13728 4.22356 0
M  V30 16218 C 1580.03 0.515021 5.23674 0
M  V30 16219 O 1579.06 1.1756 5.56928 0
M  V30 16220 N 1580.26 -0.712028 5.76117 0
M  V30 16221 H 1583.03 1.68984 2.47517 0
M  V30 16222 H 1580.59 1.02935 1.24964 0
M  V30 16223 H 1582.58 -0.303109 4.03563 0
M  V30 16224 H 1581.15 -0.694284 3.04792 0
M  V30 16225 H 1580.37 1.74309 3.53568 0
M  V30 16226 H 1581.66 1.82106 4.75094 0
M  V30 16227 H 1581.06 -1.26745 5.51319 0
M  V30 16228 H 1579.61 -1.08324 6.42736 0
M  V30 16229 N 1583.05 -1.27244 0.929878 0
M  V30 16230 C 1583.99 -2.28755 0.421202 0
M  V30 16231 C 1584.99 -1.61988 -0.49561 0
M  V30 16232 O 1586.19 -1.76049 -0.375071 0
M  V30 16233 H 1582.57 -0.742741 0.117646 0
M  V30 16234 H 1584.54 -2.6907 1.29011 0
M  V30 16235 C 1583.29 -3.46327 -0.308737 0
M  V30 16236 H 1582.61 -3.97917 0.387552 0
M  V30 16237 H 1584.05 -4.19308 -0.629052 0
M  V30 16238 C 1582.51 -3.00535 -1.5225 0
M  V30 16239 O 1583.04 -3.04395 -2.62119 0
M  V30 16240 N 1581.25 -2.56007 -1.3751 0
M  V30 16241 H 1580.79 -2.53065 -0.481215 0
M  V30 16242 H 1580.75 -2.25731 -2.18845 0
M  V30 16243 N 1584.52 -0.695628 -1.41417 0
M  V30 16244 C 1585.94 -0.367185 -1.55319 0
M  V30 16245 C 1586.14 1.12584 -1.67114 0
M  V30 16246 O 1585.2 1.91166 -1.64959 0
M  V30 16247 C 1586.51 -1.11576 -2.79233 0
M  V30 16248 C 1588.06 -1.10011 -2.9303 0
M  V30 16249 C 1588.53 -1.83044 -4.19832 0
M  V30 16250 N 1590.02 -1.80014 -4.26789 0
M  V30 16251 C 1590.76 -2.33362 -5.23765 0
M  V30 16252 N 1590.25 -2.95182 -6.26769 0
M  V30 16253 N 1592.05 -2.23618 -5.15705 0
M  V30 16254 H 1584.2 -1.66398 -1.32006 0
M  V30 16255 H 1586.46 -0.702205 -0.636877 0
M  V30 16256 H 1586.17 -2.1706 -2.76727 0
M  V30 16257 H 1586.04 -0.694385 -3.70753 0
M  V30 16258 H 1588.43 -0.0535436 -2.95051 0
M  V30 16259 H 1588.51 -1.56055 -2.02683 0
M  V30 16260 H 1588.15 -2.8768 -4.18572 0
M  V30 16261 H 1588.08 -1.34434 -5.09151 0
M  V30 16262 H 1590.57 -1.34942 -3.52986 0
M  V30 16263 H 1590.89 -3.33456 -6.97156 0
M  V30 16264 H 1589.23 -2.99259 -6.27271 0
M  V30 16265 H 1592.42 -1.74994 -4.3416 0
M  V30 16266 H 1592.6 -2.65497 -5.91113 0
M  V30 16267 N 1586 1.51322 -0.440383 0
M  V30 16268 C 1586.93 2.25587 0.40537 0
M  V30 16269 C 1587.95 1.29721 0.983686 0
M  V30 16270 O 1589.14 1.55453 0.877308 0
M  V30 16271 C 1586.24 2.99848 1.57938 0
M  V30 16272 C 1585.41 4.22834 1.11939 0
M  V30 16273 C 1584.47 4.79649 2.16387 0
M  V30 16274 O 1583.49 5.41405 1.75697 0
M  V30 16275 N 1584.7 4.63948 3.48902 0
M  V30 16276 H 1587.46 2.98807 -0.231143 0
M  V30 16277 H 1585.02 1.59642 -0.26944 0
M  V30 16278 H 1587.01 3.34743 2.2744 0
M  V30 16279 H 1585.58 2.29619 2.12117 0
M  V30 16280 H 1584.8 3.93398 0.251323 0
M  V30 16281 H 1586.09 5.02637 0.7895 0
M  V30 16282 H 1585.49 4.14764 3.84691 0
M  V30 16283 H 1584.05 5.03196 4.14291 0
M  V30 16284 N 1587.48 0.171848 1.5666 0
M  V30 16285 C 1588.44 -0.744316 2.16778 0
M  V30 16286 C 1589.44 -1.15769 1.11598 0
M  V30 16287 O 1590.63 -1.07456 1.37109 0
M  V30 16288 C 1587.76 -2.01319 2.75106 0
M  V30 16289 H 1588.96 -0.220952 2.99085 0
M  V30 16290 H 1586.51 -0.0777149 1.56107 0
M  V30 16291 H 1587.25 -2.57963 1.96534 0
M  V30 16292 H 1587.03 -1.72575 3.5208 0
M  V30 16293 H 1588.52 -2.667 3.21342 0
M  V30 16294 N 1588.96 -1.5727 -0.101874 0
M  V30 16295 C 1590.21 -1.84928 -0.805263 0
M  V30 16296 C 1590.52 -0.760099 -1.80227 0
M  V30 16297 O 1591.73 -0.923594 -2.55308 0
M  V30 16298 C 1590.18 -3.27929 -1.48291 0
M  V30 16299 C 1589.79 -4.44901 -0.526016 0
M  V30 16300 C 1591.53 -3.64819 -2.17043 0
M  V30 16301 C 1589.44 -5.78934 -1.20787 0
M  V30 16302 H 1588.37 -0.689789 -0.304478 0
M  V30 16303 H 1591.02 -1.83408 -0.0581337 0
M  V30 16304 H 1589.4 -3.2397 -2.27726 0
M  V30 16305 H 1590.58 -4.60193 0.236352 0
M  V30 16306 H 1588.89 -4.16363 0.0554387 0
M  V30 16307 H 1591.49 -4.62236 -2.68778 0
M  V30 16308 H 1591.83 -2.93104 -2.95628 0
M  V30 16309 H 1592.37 -3.70637 -1.44476 0
M  V30 16310 H 1589.1 -6.53863 -0.46296 0
M  V30 16311 H 1588.62 -5.67497 -1.94183 0
M  V30 16312 H 1590.3 -6.23268 -1.73626 0
M  V30 16313 N 1590.44 0.372521 -1.53134 0
M  V30 16314 C 1591.37 1.4621 -1.82057 0
M  V30 16315 C 1592.35 1.56194 -0.673612 0
M  V30 16316 O 1593.53 1.70875 -0.922797 0
M  V30 16317 C 1590.66 2.83632 -2.00425 0
M  V30 16318 C 1589.62 2.88478 -3.16171 0
M  V30 16319 C 1588.94 4.28508 -3.19821 0
M  V30 16320 C 1590.24 2.56628 -4.54906 0
M  V30 16321 H 1591.94 1.22256 -2.73302 0
M  V30 16322 H 1589.48 0.586688 -1.31507 0
M  V30 16323 H 1591.43 3.59876 -2.19242 0
M  V30 16324 H 1590.16 3.0896 -1.05884 0
M  V30 16325 H 1588.82 2.14684 -2.97164 0
M  V30 16326 H 1588.47 4.509 -2.2293 0
M  V30 16327 H 1588.17 4.32667 -3.97584 0
M  V30 16328 H 1589.69 5.06635 -3.40813 0
M  V30 16329 H 1591.1 3.22587 -4.73931 0
M  V30 16330 H 1589.5 2.72114 -5.34859 0
M  V30 16331 H 1590.57 1.51902 -4.60493 0
M  V30 16332 N 1591.91 1.44376 0.631925 0
M  V30 16333 C 1592.86 1.51479 1.76513 0
M  V30 16334 C 1593.86 0.386562 1.6493 0
M  V30 16335 O 1595.06 0.561473 1.71019 0
M  V30 16336 H 1591.44 0.475318 0.582733 0
M  V30 16337 H 1593.41 2.46856 1.67644 0
M  V30 16338 C 1592.16 1.4754 3.14845 0
M  V30 16339 H 1591.48 2.3367 3.24405 0
M  V30 16340 H 1592.92 1.5657 3.94033 0
M  V30 16341 C 1591.38 0.196043 3.36329 0
M  V30 16342 O 1591.91 -0.734083 3.94936 0
M  V30 16343 N 1590.11 0.0994331 2.9043 0
M  V30 16344 H 1589.66 0.857176 2.4292 0
M  V30 16345 H 1589.62 -0.755814 3.0518 0
M  V30 16346 N 1593.39 -0.872258 1.31261 0
M  V30 16347 C 1594.32 -1.9853 1.14537 0
M  V30 16348 C 1595.34 -1.62578 0.0850723 0
M  V30 16349 O 1596.53 -1.75379 0.332343 0
M  V30 16350 C 1593.63 -3.31005 0.72727 0
M  V30 16351 C 1592.8 -3.95313 1.87208 0
M  V30 16352 C 1591.86 -5.06101 1.44042 0
M  V30 16353 O 1590.88 -5.27045 2.1497 0
M  V30 16354 N 1592.09 -5.79581 0.32653 0
M  V30 16355 H 1594.85 -2.13423 2.10406 0
M  V30 16356 H 1592.41 -1.0461 1.23565 0
M  V30 16357 H 1594.4 -4.02502 0.421255 0
M  V30 16358 H 1592.97 -3.12287 -0.13975 0
M  V30 16359 H 1592.19 -3.16825 2.34553 0
M  V30 16360 H 1593.48 -4.35015 2.63893 0
M  V30 16361 H 1592.88 -5.65083 -0.264202 0
M  V30 16362 H 1591.44 -6.51751 0.0800358 0
M  V30 16363 N 1594.87 -1.14184 -1.08627 0
M  V30 16364 C 1596.12 -0.908664 -1.80968 0
M  V30 16365 C 1596.44 0.564864 -1.86117 0
M  V30 16366 O 1595.7 1.4344 -1.33129 0
M  V30 16367 C 1596 -1.4519 -3.2658 0
M  V30 16368 C 1595.66 -2.94368 -3.41552 0
M  V30 16369 C 1594.33 -3.35096 -3.45346 0
M  V30 16370 C 1596.68 -3.90304 -3.45416 0
M  V30 16371 C 1594.01 -4.70428 -3.50591 0
M  V30 16372 C 1596.36 -5.25491 -3.52196 0
M  V30 16373 C 1595.02 -5.65734 -3.54262 0
M  V30 16374 H 1594.29 -0.332504 -0.66221 0
M  V30 16375 H 1596.94 -1.42514 -1.27914 0
M  V30 16376 H 1595.24 -0.856308 -3.82328 0
M  V30 16377 H 1596.94 -1.24746 -3.81103 0
M  V30 16378 H 1593.53 -2.61879 -3.3929 0
M  V30 16379 H 1597.72 -3.59921 -3.41718 0
M  V30 16380 H 1592.97 -5.00971 -3.50482 0
M  V30 16381 H 1597.15 -5.99637 -3.54131 0
M  V30 16382 H 1594.77 -6.70585 -3.58079 0
M  V30 16383 N 1596.35 1.26749 -0.936613 0
M  V30 16384 C 1597.31 2.24794 -0.447243 0
M  V30 16385 C 1598.31 1.54688 0.439135 0
M  V30 16386 O 1599.5 1.72553 0.238957 0
M  V30 16387 C 1596.63 3.39036 0.355958 0
M  V30 16388 H 1597.83 2.696 -1.31361 0
M  V30 16389 H 1595.38 1.38825 -0.718143 0
M  V30 16390 H 1596.11 2.99625 1.24077 0
M  V30 16391 H 1595.9 3.91101 -0.279691 0
M  V30 16392 H 1597.39 4.11887 0.688421 0
M  V30 16393 N 1597.83 0.703118 1.41046 0
M  V30 16394 C 1598.79 0.0514476 2.29142 0
M  V30 16395 C 1599.79 -0.700223 1.44753 0
M  V30 16396 O 1600.98 -0.533985 1.65814 0
M  V30 16397 C 1598.11 -0.93735 3.2776 0
M  V30 16398 H 1599.3 0.827201 2.88266 0
M  V30 16399 H 1596.86 0.467045 1.49159 0
M  V30 16400 H 1597.59 -1.7406 2.7363 0
M  V30 16401 H 1597.38 -0.4014 3.9004 0
M  V30 16402 H 1598.87 -1.39088 3.93757 0
M  V30 16403 N 1599.3 -1.51086 0.448402 0
M  V30 16404 C 1600.53 -2.06593 -0.112695 0
M  V30 16405 C 1600.95 -1.31471 -1.35502 0
M  V30 16406 O 1600.3 -0.377406 -1.78555 0
M  V30 16407 C 1600.36 -3.59008 -0.423769 0
M  V30 16408 O 1600.08 -4.31293 0.769259 0
M  V30 16409 C 1601.58 -4.31064 -1.03433 0
M  V30 16410 H 1598.8 -0.670993 -0.00301626 0
M  V30 16411 H 1601.34 -1.94532 0.630667 0
M  V30 16412 H 1599.5 -3.70946 -1.11704 0
M  V30 16413 H 1599.91 -5.2211 0.500162 0
M  V30 16414 H 1601.38 -5.38756 -1.20191 0
M  V30 16415 H 1601.86 -3.90075 -2.01837 0
M  V30 16416 H 1602.47 -4.23598 -0.380115 0
M  V30 16417 N 1600.78 -0.180154 -1.56567 0
M  V30 16418 C 1601.75 0.732809 -2.17169 0
M  V30 16419 C 1602.75 1.15176 -1.1221 0
M  V30 16420 O 1603.94 1.06728 -1.37677 0
M  V30 16421 C 1601.07 1.99857 -2.7617 0
M  V30 16422 H 1602.26 0.205088 -2.99198 0
M  V30 16423 H 1599.81 0.0694351 -1.56146 0
M  V30 16424 H 1600.55 2.56917 -1.97899 0
M  V30 16425 H 1600.33 1.70705 -3.5299 0
M  V30 16426 H 1601.82 2.64992 -3.22752 0
M  V30 16427 N 1602.26 1.57322 0.0935319 0
M  V30 16428 C 1603.67 1.75099 0.64787 0
M  V30 16429 C 1604.02 0.802558 1.79035 0
M  V30 16430 O 1603.15 -0.0185803 2.16392 0
M  V30 16431 C 1603.74 3.17512 1.18203 0
M  V30 16432 C 1602.3 3.36707 1.68242 0
M  V30 16433 C 1601.45 2.70893 0.592649 0
M  V30 16434 H 1604.4 1.58146 -0.132546 0
M  V30 16435 H 1604.42 3.2047 2.05132 0
M  V30 16436 H 1603.93 3.86516 0.350297 0
M  V30 16437 H 1602.03 2.72784 2.5381 0
M  V30 16438 H 1602.15 4.45033 1.77433 0
M  V30 16439 H 1600.51 2.32835 1.03248 0
M  V30 16440 H 1601.29 3.42539 -0.228529 0
M  V30 16441 N 1603.74 -0.364395 1.53329 0
M  V30 16442 C 1604.98 -1.10855 1.6982 0
M  V30 16443 C 1605.32 -1.88931 0.449291 0
M  V30 16444 O 1604.59 -1.8646 -0.553437 0
M  V30 16445 C 1604.88 -2.06681 2.94881 0
M  V30 16446 C 1604.73 -1.32206 4.29932 0
M  V30 16447 C 1606.05 -3.06788 3.15546 0
M  V30 16448 H 1603.17 -0.401626 0.617953 0
M  V30 16449 H 1605.81 -0.389244 1.8597 0
M  V30 16450 H 1603.96 -2.68019 2.81244 0
M  V30 16451 H 1605.63 -0.73642 4.55384 0
M  V30 16452 H 1603.87 -0.623916 4.2929 0
M  V30 16453 H 1604.54 -2.0235 5.13574 0
M  V30 16454 H 1607.02 -2.55554 3.28377 0
M  V30 16455 H 1605.9 -3.71059 4.04483 0
M  V30 16456 H 1606.16 -3.77023 2.3088 0
M  V30 16457 N 1605.22 -1.44709 -0.62426 0
M  V30 16458 C 1606.46 -1.47561 -1.38094 0
M  V30 16459 C 1606.79 -0.112115 -1.94677 0
M  V30 16460 O 1606.06 0.856458 -1.76186 0
M  V30 16461 H 1604.64 -0.543368 -0.512601 0
M  V30 16462 H 1607.3 -1.8054 -0.734258 0
M  V30 16463 H 1606.39 -2.20496 -2.2088 0
M  V30 16464 N 1606.69 0.865285 -1.31722 0
M  V30 16465 C 1607.94 1.6135 -1.21033 0
M  V30 16466 C 1608.26 1.94253 0.229141 0
M  V30 16467 O 1609.46 2.67613 0.457771 0
M  V30 16468 C 1607.92 2.90898 -2.11912 0
M  V30 16469 C 1607.53 2.6546 -3.60881 0
M  V30 16470 C 1609.27 3.68898 -2.10035 0
M  V30 16471 C 1607.18 3.90943 -4.43754 0
M  V30 16472 H 1606.11 0.605418 -0.449428 0
M  V30 16473 H 1608.76 0.956335 -1.56609 0
M  V30 16474 H 1607.14 3.58014 -1.69239 0
M  V30 16475 H 1608.31 2.06721 -4.11829 0
M  V30 16476 H 1606.63 2.00806 -3.64782 0
M  V30 16477 H 1609.23 4.61995 -2.69193 0
M  V30 16478 H 1609.57 4.01813 -1.08865 0
M  V30 16479 H 1610.1 3.08671 -2.50932 0
M  V30 16480 H 1606.84 3.63176 -5.45696 0
M  V30 16481 H 1606.36 4.49116 -3.97561 0
M  V30 16482 H 1608.04 4.58784 -4.56208 0
M  V30 16483 N 1608.17 1.14759 1.0802 0
M  V30 16484 C 1609.12 0.833824 2.17141 0
M  V30 16485 C 1610.11 -0.189939 1.68332 0
M  V30 16486 O 1611.32 -0.0456447 1.79942 0
M  V30 16487 H 1607.7 0.251944 0.70854 0
M  V30 16488 H 1609.67 1.76196 2.40827 0
M  V30 16489 C 1608.42 0.33203 3.46111 0
M  V30 16490 H 1607.74 1.11117 3.84048 0
M  V30 16491 H 1609.18 0.151078 4.23731 0
M  V30 16492 C 1607.64 -0.945153 3.2337 0
M  V30 16493 O 1608.17 -2.0181 3.47326 0
M  V30 16494 N 1606.37 -0.881963 2.76893 0
M  V30 16495 H 1605.92 -0.00865768 2.57599 0
M  V30 16496 H 1605.88 -1.73706 2.62056 0
M  V30 16497 N 1609.65 -1.26251 0.943322 0
M  V30 16498 C 1610.58 -2.24687 0.398877 0
M  V30 16499 C 1611.56 -1.54279 -0.513498 0
M  V30 16500 O 1612.75 -1.83039 -0.450458 0
M  V30 16501 C 1609.87 -3.36002 -0.426657 0
M  V30 16502 C 1608.92 -4.24382 0.424497 0
M  V30 16503 S 1609.75 -5.02537 1.84977 0
M  V30 16504 C 1610.91 -6.17328 1.03235 0
M  V30 16505 H 1611.14 -2.7052 1.23313 0
M  V30 16506 H 1608.67 -1.3515 0.746587 0
M  V30 16507 H 1610.63 -4.00579 -0.897053 0
M  V30 16508 H 1609.29 -2.88776 -1.23561 0
M  V30 16509 H 1608.49 -5.0357 -0.208116 0
M  V30 16510 H 1608.09 -3.64682 0.829661 0
M  V30 16511 H 1610.38 -6.76939 0.275635 0
M  V30 16512 H 1611.32 -6.84899 1.79776 0
M  V30 16513 H 1611.73 -5.61641 0.567466 0
M  V30 16514 N 1611.13 -0.710588 -1.40671 0
M  V30 16515 C 1612.55 -0.383638 -1.54921 0
M  V30 16516 C 1612.75 1.10805 -1.68299 0
M  V30 16517 O 1611.8 1.89406 -1.66978 0
M  V30 16518 C 1613.11 -1.14532 -2.78034 0
M  V30 16519 C 1614.66 -1.13113 -2.91847 0
M  V30 16520 C 1615.14 -1.87487 -4.17867 0
M  V30 16521 N 1616.63 -1.8453 -4.24856 0
M  V30 16522 C 1617.36 -2.38904 -5.2126 0
M  V30 16523 N 1616.86 -3.01813 -6.23603 0
M  V30 16524 N 1618.65 -2.29075 -5.13304 0
M  V30 16525 H 1610.8 -1.67789 -1.30233 0
M  V30 16526 H 1613.07 -0.70892 -0.629393 0
M  V30 16527 H 1612.77 -2.19983 -2.74409 0
M  V30 16528 H 1612.65 -0.733669 -3.69996 0
M  V30 16529 H 1615.03 -0.0848347 -2.94978 0
M  V30 16530 H 1615.11 -1.58196 -2.01017 0
M  V30 16531 H 1614.76 -2.92104 -4.15497 0
M  V30 16532 H 1614.69 -1.39827 -5.07697 0
M  V30 16533 H 1617.18 -1.38679 -3.51535 0
M  V30 16534 H 1617.49 -3.40832 -6.9358 0
M  V30 16535 H 1615.84 -3.05896 -6.24062 0
M  V30 16536 H 1619.03 -1.79589 -4.32279 0
M  V30 16537 H 1619.2 -2.71752 -5.88264 0
M  V30 16538 N 1612.61 1.50847 -0.456408 0
M  V30 16539 C 1613.83 2.07139 0.104054 0
M  V30 16540 C 1614.26 1.31966 1.34039 0
M  V30 16541 O 1613.62 0.363038 1.77628 0
M  V30 16542 C 1613.66 3.5853 0.385794 0
M  V30 16543 O 1612.77 3.85351 1.46895 0
M  V30 16544 H 1612.11 0.663968 -0.00651246 0
M  V30 16545 H 1614.64 1.94226 -0.64323 0
M  V30 16546 H 1614.65 4.03097 0.630644 0
M  V30 16547 H 1613.32 4.12665 -0.51773 0
M  V30 16548 H 1611.9 3.52635 1.21256 0
M  V30 16549 N 1614.09 0.188454 1.56469 0
M  V30 16550 C 1615.33 -0.451165 1.97 0
M  V30 16551 C 1615.65 -1.6261 1.07624 0
M  V30 16552 O 1614.92 -1.95354 0.146125 0
M  V30 16553 H 1613.5 -0.16967 0.727476 0
M  V30 16554 H 1616.17 0.273638 1.9297 0
M  V30 16555 H 1615.26 -0.799741 3.0168 0
M  V30 16556 N 1615.56 -1.5737 -0.0851874 0
M  V30 16557 C 1616.5 -1.98027 -1.13404 0
M  V30 16558 C 1617.47 -0.855036 -1.38304 0
M  V30 16559 O 1618.66 -1.11619 -1.51899 0
M  V30 16560 C 1615.79 -2.30553 -2.48119 0
M  V30 16561 C 1614.83 -3.52947 -2.39438 0
M  V30 16562 S 1615.66 -5.04293 -1.80136 0
M  V30 16563 C 1616.82 -5.40006 -3.16456 0
M  V30 16564 H 1617.05 -2.86681 -0.787488 0
M  V30 16565 H 1614.59 -1.5159 -0.293234 0
M  V30 16566 H 1616.54 -2.49968 -3.25617 0
M  V30 16567 H 1615.21 -1.42452 -2.7994 0
M  V30 16568 H 1614.4 -3.73179 -3.38753 0
M  V30 16569 H 1614 -3.33094 -1.70072 0
M  V30 16570 H 1616.29 -5.37257 -4.12748 0
M  V30 16571 H 1617.24 -6.40932 -3.01018 0
M  V30 16572 H 1617.64 -4.67465 -3.16444 0
M  V30 16573 N 1617.04 0.356258 -1.53521 0
M  V30 16574 C 1617.97 1.45722 -1.76912 0
M  V30 16575 C 1618.99 1.49257 -0.650091 0
M  V30 16576 O 1620.18 1.52569 -0.926557 0
M  V30 16577 C 1617.28 2.84444 -1.84241 0
M  V30 16578 C 1616.45 3.04497 -3.14007 0
M  V30 16579 C 1615.51 4.23387 -3.12458 0
M  V30 16580 O 1614.53 4.18113 -3.86225 0
M  V30 16581 N 1615.74 5.31278 -2.33931 0
M  V30 16582 H 1618.5 1.26031 -2.71912 0
M  V30 16583 H 1616.06 0.546052 -1.52414 0
M  V30 16584 H 1618.05 3.62133 -1.80671 0
M  V30 16585 H 1616.62 2.97338 -0.96484 0
M  V30 16586 H 1615.84 2.14387 -3.30805 0
M  V30 16587 H 1617.13 3.14769 -3.99747 0
M  V30 16588 H 1616.53 5.38428 -1.73527 0
M  V30 16589 H 1615.09 6.07508 -2.36171 0
M  V30 16590 N 1618.52 1.45038 0.616577 0
M  V30 16591 C 1619.45 1.49023 1.7414 0
M  V30 16592 C 1620.46 0.381965 1.58256 0
M  V30 16593 O 1621.65 0.648527 1.66302 0
M  V30 16594 C 1618.75 1.32233 3.12038 0
M  V30 16595 C 1617.93 2.5657 3.54246 0
M  V30 16596 C 1616.99 2.34468 4.71075 0
M  V30 16597 O 1616.01 3.08035 4.78647 0
M  V30 16598 N 1617.21 1.38454 5.63747 0
M  V30 16599 H 1619.98 2.45997 1.71189 0
M  V30 16600 H 1617.54 1.40663 0.80159 0
M  V30 16601 H 1619.53 1.15271 3.87936 0
M  V30 16602 H 1618.1 0.435685 3.09549 0
M  V30 16603 H 1617.32 2.88709 2.68404 0
M  V30 16604 H 1618.61 3.39239 3.79203 0
M  V30 16605 H 1618.01 0.777236 5.60335 0
M  V30 16606 H 1616.56 1.27467 6.39215 0
M  V30 16607 N 1620 -0.858287 1.32179 0
M  V30 16608 C 1620.93 -1.97304 1.16636 0
M  V30 16609 C 1621.94 -1.62478 0.102311 0
M  V30 16610 O 1623.13 -1.75016 0.350926 0
M  V30 16611 C 1620.23 -3.30215 0.762337 0
M  V30 16612 C 1619.4 -3.93305 1.9139 0
M  V30 16613 C 1618.46 -5.04545 1.49402 0
M  V30 16614 O 1617.49 -5.24735 2.20548 0
M  V30 16615 N 1618.69 -5.79202 0.387984 0
M  V30 16616 H 1621.46 -2.11179 2.12658 0
M  V30 16617 H 1619.02 -1.03294 1.24668 0
M  V30 16618 H 1621.01 -4.02032 0.463922 0
M  V30 16619 H 1619.58 -3.12418 -0.10662 0
M  V30 16620 H 1618.8 -3.1432 2.37901 0
M  V30 16621 H 1620.09 -4.32192 2.68492 0
M  V30 16622 H 1619.49 -5.65331 -0.204252 0
M  V30 16623 H 1618.04 -6.51629 0.149158 0
M  V30 16624 N 1621.48 -1.1533 -1.07409 0
M  V30 16625 C 1622.72 -0.922348 -1.79376 0
M  V30 16626 C 1623.04 0.551929 -1.87652 0
M  V30 16627 O 1624.24 0.900444 -2.56133 0
M  V30 16628 C 1622.7 -1.60081 -3.22339 0
M  V30 16629 C 1622.31 -3.11206 -3.22265 0
M  V30 16630 C 1624.05 -1.45138 -3.98917 0
M  V30 16631 C 1621.96 -3.71842 -4.59878 0
M  V30 16632 H 1620.89 -0.341438 -0.672262 0
M  V30 16633 H 1623.54 -1.38336 -1.20562 0
M  V30 16634 H 1621.92 -1.06748 -3.81341 0
M  V30 16635 H 1623.1 -3.7129 -2.72911 0
M  V30 16636 H 1621.41 -3.25903 -2.59183 0
M  V30 16637 H 1624.01 -1.87832 -5.00623 0
M  V30 16638 H 1624.35 -0.398796 -4.14385 0
M  V30 16639 H 1624.88 -1.95564 -3.46409 0
M  V30 16640 H 1621.62 -4.76998 -4.49614 0
M  V30 16641 H 1621.14 -3.16541 -5.09472 0
M  V30 16642 H 1622.82 -3.72733 -5.28847 0
M  V30 16643 N 1622.95 1.25748 -0.950004 0
M  V30 16644 C 1624.18 1.97413 -0.61933 0
M  V30 16645 C 1624.6 1.70656 0.807591 0
M  V30 16646 O 1623.95 0.979899 1.53962 0
M  V30 16647 C 1624 3.51053 -0.862801 0
M  V30 16648 O 1623.73 3.76884 -2.23361 0
M  V30 16649 C 1625.23 4.39951 -0.543879 0
M  V30 16650 H 1622.45 0.629394 -0.232603 0
M  V30 16651 H 1624.99 1.60037 -1.27312 0
M  V30 16652 H 1623.15 3.86557 -0.255493 0
M  V30 16653 H 1623.56 4.71368 -2.30026 0
M  V30 16654 H 1625.03 5.46676 -0.764804 0
M  V30 16655 H 1625.51 4.36094 0.521421 0
M  V30 16656 H 1626.12 4.10005 -1.1303 0
M  V30 16657 N 1624.43 0.718038 1.40292 0
M  V30 16658 C 1625.84 0.330675 1.83748 0
M  V30 16659 C 1626.19 -1.13511 1.6003 0
M  V30 16660 O 1625.32 -1.87381 1.08247 0
M  V30 16661 C 1625.91 0.593398 3.33563 0
M  V30 16662 C 1624.47 0.259717 3.75503 0
M  V30 16663 C 1623.62 0.864537 2.63479 0
M  V30 16664 H 1626.57 0.917 1.29525 0
M  V30 16665 H 1626.59 -0.140544 3.8024 0
M  V30 16666 H 1626.1 1.66028 3.50794 0
M  V30 16667 H 1624.2 -0.802011 3.63866 0
M  V30 16668 H 1624.32 0.730427 4.73499 0
M  V30 16669 H 1622.68 0.292399 2.53016 0
M  V30 16670 H 1623.46 1.93574 2.83521 0
M  V30 16671 N 1625.91 -1.50602 0.464402 0
M  V30 16672 C 1626.84 -2.26203 -0.36943 0
M  V30 16673 C 1627.86 -1.31269 -0.962924 0
M  V30 16674 O 1629.04 -1.56829 -0.852465 0
M  V30 16675 C 1626.14 -3.02323 -1.53147 0
M  V30 16676 C 1625.32 -4.24561 -1.05198 0
M  V30 16677 C 1624.38 -4.83031 -2.08729 0
M  V30 16678 O 1623.4 -5.44131 -1.67062 0
M  V30 16679 N 1624.6 -4.6944 -3.41477 0
M  V30 16680 H 1627.37 -2.98402 0.278652 0
M  V30 16681 H 1624.93 -1.59193 0.294803 0
M  V30 16682 H 1626.92 -3.38319 -2.22086 0
M  V30 16683 H 1625.49 -2.32965 -2.08438 0
M  V30 16684 H 1624.71 -3.93748 -0.188705 0
M  V30 16685 H 1626 -5.0383 -0.709434 0
M  V30 16686 H 1625.4 -4.20832 -3.78044 0
M  V30 16687 H 1623.96 -5.09724 -4.06233 0
M  V30 16688 N 1627.39 -0.19675 -1.56367 0
M  V30 16689 C 1628.8 0.315555 -1.84014 0
M  V30 16690 C 1629.15 1.61267 -1.11747 0
M  V30 16691 O 1628.28 2.13058 -0.378824 0
M  V30 16692 C 1628.87 0.579307 -3.33811 0
M  V30 16693 C 1627.43 1.03598 -3.61862 0
M  V30 16694 C 1626.58 0.0854845 -2.77168 0
M  V30 16695 H 1629.53 -0.4205 -1.53028 0
M  V30 16696 H 1629.55 1.42841 -3.52671 0
M  V30 16697 H 1629.06 -0.364925 -3.86381 0
M  V30 16698 H 1627.16 1.99443 -3.14727 0
M  V30 16699 H 1627.27 0.927547 -4.70035 0
M  V30 16700 H 1625.64 0.58768 -2.47827 0
M  V30 16701 H 1626.42 -0.853221 -3.32528 0
M  V30 16702 N 1628.87 1.57413 0.0768405 0
M  V30 16703 C 1630.28 1.75776 0.629262 0
M  V30 16704 C 1630.63 0.821502 1.78173 0
M  V30 16705 O 1629.75 0.00437198 2.164 0
M  V30 16706 C 1630.35 3.18747 1.14828 0
M  V30 16707 C 1628.91 3.38472 1.64661 0
M  V30 16708 C 1628.05 2.71506 0.563884 0
M  V30 16709 H 1631.01 1.57996 -0.149312 0
M  V30 16710 H 1631.03 3.22628 2.01722 0
M  V30 16711 H 1630.54 3.86866 0.309282 0
M  V30 16712 H 1628.64 2.75461 2.50903 0
M  V30 16713 H 1628.75 4.4689 1.72703 0
M  V30 16714 H 1627.12 2.33917 1.00772 0
M  V30 16715 H 1627.9 3.42277 -0.264847 0
M  V30 16716 N 1630.34 -0.348112 1.53707 0
M  V30 16717 C 1631.27 -1.43296 1.8436 0
M  V30 16718 C 1632.26 -1.55102 0.698376 0
M  V30 16719 O 1633.44 -1.69385 0.949864 0
M  V30 16720 C 1630.57 -2.80407 2.04912 0
M  V30 16721 C 1629.52 -2.83412 3.20721 0
M  V30 16722 C 1628.85 -4.23365 3.26597 0
M  V30 16723 C 1630.15 -2.49358 4.58931 0
M  V30 16724 H 1631.84 -1.17892 2.75212 0
M  V30 16725 H 1629.39 -0.565692 1.32423 0
M  V30 16726 H 1631.34 -3.56343 2.24939 0
M  V30 16727 H 1630.07 -3.07236 1.10786 0
M  V30 16728 H 1628.73 -2.09929 3.00542 0
M  V30 16729 H 1628.37 -4.47297 2.30076 0
M  V30 16730 H 1628.07 -4.26287 4.04417 0
M  V30 16731 H 1629.6 -5.01149 3.4883 0
M  V30 16732 H 1631.01 -3.15006 4.79003 0
M  V30 16733 H 1629.41 -2.6357 5.3912 0
M  V30 16734 H 1630.48 -1.44557 4.62851 0
M  V30 16735 N 1631.82 -1.45363 -0.608876 0
M  V30 16736 C 1632.77 -1.54268 -1.7408 0
M  V30 16737 C 1633.76 -0.412752 -1.64295 0
M  V30 16738 O 1634.97 -0.58861 -1.70104 0
M  V30 16739 H 1631.35 -0.484528 -0.575097 0
M  V30 16740 H 1633.32 -2.49492 -1.63696 0
M  V30 16741 C 1632.07 -1.5253 -3.12458 0
M  V30 16742 H 1631.39 -2.38801 -3.20646 0
M  V30 16743 H 1632.83 -1.62819 -3.91492 0
M  V30 16744 C 1631.29 -0.249525 -3.35975 0
M  V30 16745 O 1631.82 0.671159 -3.96053 0
M  V30 16746 N 1630.02 -0.145625 -2.90235 0
M  V30 16747 H 1629.57 -0.895714 -2.41526 0
M  V30 16748 H 1629.53 0.707167 -3.06344 0
M  V30 16749 N 1633.3 0.851265 -1.32632 0
M  V30 16750 C 1634.26 1.94168 -1.21785 0
M  V30 16751 C 1635.26 1.60189 -0.140023 0
M  V30 16752 O 1636.45 1.69763 -0.390671 0
M  V30 16753 C 1633.59 3.29513 -0.873717 0
M  V30 16754 H 1634.78 2.05214 -2.18695 0
M  V30 16755 H 1632.33 1.04186 -1.16512 0
M  V30 16756 H 1633.07 3.24165 0.0934202 0
M  V30 16757 H 1632.85 3.55552 -1.65302 0
M  V30 16758 H 1634.34 4.09425 -0.822231 0
M  V30 16759 N 1634.78 1.15898 1.06796 0
M  V30 16760 C 1635.71 0.818654 2.14081 0
M  V30 16761 C 1636.72 -0.171847 1.6189 0
M  V30 16762 O 1637.91 0.052196 1.78424 0
M  V30 16763 C 1635.01 0.197283 3.38325 0
M  V30 16764 C 1634.19 1.22662 4.19849 0
M  V30 16765 C 1633.24 0.625985 5.22463 0
M  V30 16766 O 1632.27 1.29347 5.54309 0
M  V30 16767 N 1633.47 -0.589665 5.77497 0
M  V30 16768 H 1636.24 1.74196 2.43877 0
M  V30 16769 H 1633.8 1.05562 1.22753 0
M  V30 16770 H 1635.79 -0.217439 4.04115 0
M  V30 16771 H 1634.36 -0.629476 3.06197 0
M  V30 16772 H 1633.58 1.8177 3.49791 0
M  V30 16773 H 1634.87 1.92143 4.71125 0
M  V30 16774 H 1634.27 -1.15022 5.53883 0
M  V30 16775 H 1632.82 -0.946667 6.44889 0
M  V30 16776 N 1636.26 -1.25243 0.956659 0
M  V30 16777 C 1637.19 -2.24251 0.422686 0
M  V30 16778 C 1638.17 -1.54815 -0.497106 0
M  V30 16779 O 1639.35 -1.83506 -0.431019 0
M  V30 16780 C 1636.48 -3.36436 -0.390996 0
M  V30 16781 C 1635.52 -4.23908 0.469484 0
M  V30 16782 S 1636.36 -5.00547 1.90297 0
M  V30 16783 C 1637.51 -6.16198 1.09777 0
M  V30 16784 H 1637.75 -2.69197 1.26175 0
M  V30 16785 H 1635.28 -1.3435 0.76088 0
M  V30 16786 H 1637.24 -4.01508 -0.854516 0
M  V30 16787 H 1635.9 -2.9007 -1.20491 0
M  V30 16788 H 1635.09 -5.03763 -0.154694 0
M  V30 16789 H 1634.69 -3.63781 0.868294 0
M  V30 16790 H 1636.99 -6.76609 0.347418 0
M  V30 16791 H 1637.93 -6.82953 1.87031 0
M  V30 16792 H 1638.34 -5.61007 0.627003 0
M  V30 16793 N 1637.73 -0.725468 -1.3991 0
M  V30 16794 C 1638.66 -0.094211 -2.3331 0
M  V30 16795 C 1639.65 0.734728 -1.53414 0
M  V30 16796 O 1640.83 0.681647 -1.81844 0
M  V30 16797 C 1637.96 0.820958 -3.37457 0
M  V30 16798 C 1636.91 0.0968983 -4.2789 0
M  V30 16799 C 1636.24 1.12845 -5.22657 0
M  V30 16800 C 1637.54 -1.05483 -5.11537 0
M  V30 16801 H 1639.23 -0.874365 -2.86348 0
M  V30 16802 H 1636.78 -0.421913 -1.3768 0
M  V30 16803 H 1638.73 1.27203 -4.01743 0
M  V30 16804 H 1637.46 1.63312 -2.82837 0
M  V30 16805 H 1636.12 -0.334454 -3.65071 0
M  V30 16806 H 1635.76 1.93392 -4.64337 0
M  V30 16807 H 1635.46 0.648805 -5.84007 0
M  V30 16808 H 1636.99 1.57942 -5.89819 0
M  V30 16809 H 1638.4 -0.682657 -5.69221 0
M  V30 16810 H 1636.8 -1.46349 -5.81981 0
M  V30 16811 H 1637.87 -1.88095 -4.46932 0
M  V30 16812 N 1639.21 1.50354 -0.472382 0
M  V30 16813 C 1640.18 2.27096 0.30981 0
M  V30 16814 C 1641.18 1.3193 0.919306 0
M  V30 16815 O 1642.37 1.55344 0.788284 0
M  V30 16816 C 1639.5 3.08924 1.44149 0
M  V30 16817 H 1640.69 2.97692 -0.363228 0
M  V30 16818 H 1638.24 1.5465 -0.226483 0
M  V30 16819 H 1638.98 2.42828 2.14954 0
M  V30 16820 H 1638.76 3.78862 1.01023 0
M  V30 16821 H 1640.25 3.66961 1.99323 0
M  V30 16822 N 1640.69 0.205039 1.56261 0
M  V30 16823 C 1641.62 -0.743854 2.16794 0
M  V30 16824 C 1642.64 -1.16959 1.13245 0
M  V30 16825 O 1643.83 -1.1036 1.40296 0
M  V30 16826 C 1640.93 -2.01717 2.7233 0
M  V30 16827 C 1640.1 -1.74965 4.00882 0
M  V30 16828 C 1639.16 -2.86841 4.41145 0
M  V30 16829 O 1638.18 -2.5602 5.08372 0
M  V30 16830 N 1639.39 -4.15425 4.05466 0
M  V30 16831 H 1642.15 -0.226145 2.98846 0
M  V30 16832 H 1639.71 0.0234276 1.61883 0
M  V30 16833 H 1641.7 -2.7572 2.96244 0
M  V30 16834 H 1640.27 -2.44582 1.94675 0
M  V30 16835 H 1639.49 -0.846903 3.84995 0
M  V30 16836 H 1640.78 -1.54501 4.84775 0
M  V30 16837 H 1640.18 -4.43314 3.5141 0
M  V30 16838 H 1638.74 -4.86023 4.3431 0
M  V30 16839 N 1642.17 -1.57451 -0.0684915 0
M  V30 16840 C 1643.59 -1.53883 -0.423354 0
M  V30 16841 C 1643.79 -0.925698 -1.78978 0
M  V30 16842 O 1642.84 -0.529629 -2.46883 0
M  V30 16843 C 1644.15 -2.98521 -0.361386 0
M  V30 16844 C 1645.7 -3.09873 -0.441334 0
M  V30 16845 C 1646.18 -4.56168 -0.409239 0
M  V30 16846 N 1647.67 -4.60817 -0.469216 0
M  V30 16847 C 1648.4 -5.71498 -0.466648 0
M  V30 16848 N 1647.9 -6.91534 -0.4187 0
M  V30 16849 N 1649.69 -5.5975 -0.513452 0
M  V30 16850 H 1641.84 -1.95672 0.8262 0
M  V30 16851 H 1644.11 -0.895759 0.310354 0
M  V30 16852 H 1643.81 -3.46951 0.576035 0
M  V30 16853 H 1643.69 -3.58585 -1.17032 0
M  V30 16854 H 1646.07 -2.61414 -1.36918 0
M  V30 16855 H 1646.15 -2.52712 0.396237 0
M  V30 16856 H 1645.8 -5.05285 0.514772 0
M  V30 16857 H 1645.73 -5.11195 -1.26439 0
M  V30 16858 H 1648.22 -3.74438 -0.510387 0
M  V30 16859 H 1648.53 -7.71654 -0.420757 0
M  V30 16860 H 1646.88 -6.93931 -0.385338 0
M  V30 16861 H 1650.07 -4.64874 -0.548626 0
M  V30 16862 H 1650.24 -6.46006 -0.507982 0
M  V30 16863 N 1643.65 0.339955 -1.5389 0
M  V30 16864 C 1644.58 1.43837 -1.78448 0
M  V30 16865 C 1645.59 1.48559 -0.665885 0
M  V30 16866 O 1646.78 1.51577 -0.942686 0
M  V30 16867 C 1643.88 2.82474 -1.87248 0
M  V30 16868 C 1643.05 3.01149 -3.17219 0
M  V30 16869 C 1642.11 4.20049 -3.16931 0
M  V30 16870 O 1641.14 4.13994 -3.90638 0
M  V30 16871 N 1642.34 5.28767 -2.39553 0
M  V30 16872 H 1645.11 1.2314 -2.73234 0
M  V30 16873 H 1642.67 0.529855 -1.52984 0
M  V30 16874 H 1644.66 3.60196 -1.84502 0
M  V30 16875 H 1643.23 2.96297 -0.996322 0
M  V30 16876 H 1642.45 2.10867 -3.3306 0
M  V30 16877 H 1643.74 3.10511 -4.03063 0
M  V30 16878 H 1643.14 5.36557 -1.79228 0
M  V30 16879 H 1641.69 6.04969 -2.42601 0
M  V30 16880 N 1645.13 1.45684 0.601159 0
M  V30 16881 C 1646.54 1.30232 0.922598 0
M  V30 16882 C 1646.74 0.260086 1.99814 0
M  V30 16883 O 1645.8 -0.343753 2.50149 0
M  V30 16884 C 1647.11 2.68318 1.35743 0
M  V30 16885 C 1648.66 2.76264 1.47129 0
M  V30 16886 C 1649.13 4.1489 1.93986 0
M  V30 16887 N 1650.62 4.17216 2.01209 0
M  V30 16888 C 1651.36 5.21354 2.387 0
M  V30 16889 N 1650.86 6.35833 2.75114 0
M  V30 16890 N 1652.65 5.08714 2.39095 0
M  V30 16891 H 1644.8 2.12117 -0.109634 0
M  V30 16892 H 1647.06 0.947902 0.0136129 0
M  V30 16893 H 1646.77 3.45804 0.64127 0
M  V30 16894 H 1646.64 2.97206 2.32268 0
M  V30 16895 H 1649.03 1.99077 2.17835 0
M  V30 16896 H 1649.11 2.51082 0.489028 0
M  V30 16897 H 1648.75 4.92565 1.23864 0
M  V30 16898 H 1648.68 4.37468 2.93137 0
M  V30 16899 H 1651.18 3.34607 1.75632 0
M  V30 16900 H 1651.49 7.11084 3.02622 0
M  V30 16901 H 1649.83 6.39224 2.72795 0
M  V30 16902 H 1653.02 4.18322 2.10057 0
M  V30 16903 H 1653.2 5.89989 2.67987 0
M  V30 16904 N 1646.6 -0.84422 1.33082 0
M  V30 16905 C 1647.51 -1.9858 1.24913 0
M  V30 16906 C 1648.53 -1.73256 0.160708 0
M  V30 16907 O 1649.71 -1.97719 0.383313 0
M  V30 16908 C 1646.77 -3.32471 0.983063 0
M  V30 16909 C 1645.83 -3.70946 2.16096 0
M  V30 16910 C 1645.06 -4.98448 1.90749 0
M  V30 16911 O 1645.29 -5.63953 0.855173 0
M  V30 16912 O 1644.22 -5.34301 2.7714 0
M  V30 16913 H 1648.05 -2.0841 2.20905 0
M  V30 16914 H 1645.63 -0.976447 1.13075 0
M  V30 16915 H 1647.51 -4.12705 0.851612 0
M  V30 16916 H 1646.19 -3.23656 0.053384 0
M  V30 16917 H 1645.1 -2.91244 2.34793 0
M  V30 16918 H 1646.43 -3.8442 3.07379 0
M  V30 16919 N 1648.08 -1.16463 -1.0618 0
M  V30 16920 C 1649.01 -0.895399 -2.1565 0
M  V30 16921 C 1649.99 0.158729 -1.69358 0
M  V30 16922 O 1651.18 0.010586 -1.94197 0
M  V30 16923 C 1648.31 -0.396959 -3.45024 0
M  V30 16924 C 1647.26 -1.38913 -4.0483 0
M  V30 16925 C 1646.59 -0.749043 -5.29427 0
M  V30 16926 C 1647.89 -2.7591 -4.43476 0
M  V30 16927 H 1649.58 -1.81085 -2.38429 0
M  V30 16928 H 1647.13 -0.872098 -1.14588 0
M  V30 16929 H 1649.08 -0.196086 -4.20944 0
M  V30 16930 H 1647.8 0.554002 -3.21867 0
M  V30 16931 H 1646.46 -1.57657 -3.30968 0
M  V30 16932 H 1646.11 0.208439 -5.02568 0
M  V30 16933 H 1645.81 -1.41128 -5.704 0
M  V30 16934 H 1647.34 -0.558217 -6.08043 0
M  V30 16935 H 1648.75 -2.60942 -5.10473 0
M  V30 16936 H 1647.15 -3.38618 -4.95437 0
M  V30 16937 H 1648.22 -3.31076 -3.54284 0
M  V30 16938 N 1649.56 1.24734 -0.963288 0
M  V30 16939 C 1650.79 1.9646 -0.639305 0
M  V30 16940 C 1651.2 1.71708 0.794553 0
M  V30 16941 O 1650.54 0.995015 1.54419 0
M  V30 16942 C 1650.6 3.49818 -0.828696 0
M  V30 16943 C 1650.27 3.98262 -2.24135 0
M  V30 16944 C 1651.26 4.08281 -3.21874 0
M  V30 16945 C 1648.95 4.31701 -2.56786 0
M  V30 16946 C 1650.94 4.51067 -4.50352 0
M  V30 16947 C 1648.63 4.74172 -3.85492 0
M  V30 16948 C 1649.63 4.83819 -4.82087 0
M  V30 16949 O 1649.32 5.25344 -6.08497 0
M  V30 16950 H 1649.05 0.63276 -0.237888 0
M  V30 16951 H 1651.6 1.59635 -1.29251 0
M  V30 16952 H 1649.83 3.86519 -0.118332 0
M  V30 16953 H 1651.52 4.02753 -0.504465 0
M  V30 16954 H 1652.29 3.82668 -2.97976 0
M  V30 16955 H 1648.17 4.23414 -1.82323 0
M  V30 16956 H 1651.71 4.58512 -5.2575 0
M  V30 16957 H 1647.61 4.99231 -4.09192 0
M  V30 16958 H 1648.37 5.43506 -6.12 0
M  V30 16959 N 1651.04 0.732878 1.39523 0
M  V30 16960 C 1652.26 0.288717 2.05381 0
M  V30 16961 C 1652.69 -1.06727 1.5489 0
M  V30 16962 O 1652.05 -1.67585 0.691726 0
M  V30 16963 C 1652.09 0.297738 3.59369 0
M  V30 16964 O 1651.2 -0.715335 4.06149 0
M  V30 16965 H 1650.54 0.131696 0.650809 0
M  V30 16966 H 1653.07 0.998206 1.78597 0
M  V30 16967 H 1653.08 0.141391 4.07755 0
M  V30 16968 H 1651.75 1.28719 3.9548 0
M  V30 16969 H 1650.33 -0.525298 3.69182 0
M  V30 16970 N 1652.52 -1.50101 0.480349 0
M  V30 16971 C 1653.45 -2.26582 -0.345418 0
M  V30 16972 C 1654.46 -1.32283 -0.948947 0
M  V30 16973 O 1655.65 -1.57724 -0.835784 0
M  V30 16974 C 1652.75 -3.0393 -1.49932 0
M  V30 16975 C 1651.92 -4.25653 -1.00689 0
M  V30 16976 C 1650.98 -4.85217 -2.03594 0
M  V30 16977 O 1650.01 -5.45873 -1.61281 0
M  V30 16978 N 1651.21 -4.73035 -3.36479 0
M  V30 16979 H 1653.97 -2.98089 0.310285 0
M  V30 16980 H 1651.54 -1.58872 0.311671 0
M  V30 16981 H 1653.53 -3.40656 -2.18485 0
M  V30 16982 H 1652.1 -2.35162 -2.05955 0
M  V30 16983 H 1651.32 -3.93926 -0.146932 0
M  V30 16984 H 1652.61 -5.04554 -0.655957 0
M  V30 16985 H 1652 -4.24818 -3.73559 0
M  V30 16986 H 1650.56 -5.14004 -4.00804 0
M  V30 16987 N 1653.99 -0.213323 -1.5615 0
M  V30 16988 C 1654.93 0.732346 -2.17185 0
M  V30 16989 C 1655.94 1.16357 -1.13864 0
M  V30 16990 O 1657.13 1.09614 -1.40879 0
M  V30 16991 C 1654.23 2.0027 -2.73395 0
M  V30 16992 C 1653.4 1.72836 -4.01804 0
M  V30 16993 C 1652.46 2.84497 -4.4266 0
M  V30 16994 O 1651.49 2.5332 -5.09723 0
M  V30 16995 N 1652.69 4.13268 -4.07663 0
M  V30 16996 H 1655.45 0.210294 -2.98961 0
M  V30 16997 H 1653.01 -0.0320124 -1.61868 0
M  V30 16998 H 1655.01 2.74145 -2.97702 0
M  V30 16999 H 1653.58 2.43546 -1.9597 0
M  V30 17000 H 1652.8 0.826474 -3.85439 0
M  V30 17001 H 1654.08 1.51928 -4.85588 0
M  V30 17002 H 1653.48 4.41444 -3.53756 0
M  V30 17003 H 1652.04 4.83713 -4.36881 0
M  V30 17004 N 1655.47 1.57485 0.0601405 0
M  V30 17005 C 1656.42 2.00939 1.07739 0
M  V30 17006 C 1657.41 0.893348 1.33821 0
M  V30 17007 O 1658.6 1.15727 1.33927 0
M  V30 17008 C 1655.73 2.46657 2.38778 0
M  V30 17009 C 1654.81 3.65019 2.1592 0
M  V30 17010 N 1655.2 4.78807 1.63025 0
M  V30 17011 C 1653.5 3.71794 2.46344 0
M  V30 17012 C 1654.2 5.60599 1.55253 0
M  V30 17013 N 1653.18 5.04788 2.01718 0
M  V30 17014 H 1656.98 2.86349 0.661923 0
M  V30 17015 H 1654.5 1.6019 0.267017 0
M  V30 17016 H 1656.49 2.76032 3.12429 0
M  V30 17017 H 1655.15 1.62639 2.81031 0
M  V30 17018 H 1656.16 5.00868 1.31725 0
M  V30 17019 H 1652.84 2.98513 2.91884 0
M  V30 17020 H 1654.23 6.61966 1.1511 0
M  V30 17021 N 1656.95 -0.331789 1.54068 0
M  V30 17022 C 1658.37 -0.675628 1.44594 0
M  V30 17023 C 1658.57 -1.91976 0.612166 0
M  V30 17024 O 1657.62 -2.5227 0.107742 0
M  V30 17025 C 1658.94 -0.857303 2.8822 0
M  V30 17026 C 1660.48 -0.955171 2.9807 0
M  V30 17027 C 1660.96 -1.16908 4.42828 0
M  V30 17028 N 1662.45 -1.23601 4.46405 0
M  V30 17029 C 1663.18 -1.41924 5.55558 0
M  V30 17030 N 1662.68 -1.57345 6.74696 0
M  V30 17031 N 1664.47 -1.44566 5.43191 0
M  V30 17032 H 1656.62 0.486058 2.06764 0
M  V30 17033 H 1658.89 0.155605 0.935142 0
M  V30 17034 H 1658.59 -0.0144659 3.51697 0
M  V30 17035 H 1658.47 -1.75558 3.33855 0
M  V30 17036 H 1660.85 -1.78852 2.34725 0
M  V30 17037 H 1660.94 -0.0335425 2.55778 0
M  V30 17038 H 1660.58 -0.340612 5.06757 0
M  V30 17039 H 1660.51 -2.10445 4.82722 0
M  V30 17040 H 1663 -1.13161 3.60559 0
M  V30 17041 H 1663.31 -1.70995 7.53645 0
M  V30 17042 H 1661.66 -1.54458 6.77619 0
M  V30 17043 H 1664.85 -1.3211 4.49071 0
M  V30 17044 H 1665.02 -1.58505 6.28315 0
M  V30 17045 N 1658.43 -1.46001 -0.593424 0
M  V30 17046 C 1659.36 -1.51774 -1.71748 0
M  V30 17047 C 1660.37 -0.407093 -1.57628 0
M  V30 17048 O 1661.56 -0.674903 -1.65249 0
M  V30 17049 C 1658.66 -1.3718 -3.09895 0
M  V30 17050 C 1657.84 -2.62173 -3.5012 0
M  V30 17051 C 1656.89 -2.41933 -4.67285 0
M  V30 17052 O 1655.92 -3.15611 -4.73686 0
M  V30 17053 N 1657.12 -1.47405 -5.61473 0
M  V30 17054 H 1659.89 -2.48689 -1.67253 0
M  V30 17055 H 1657.45 -1.41921 -0.779111 0
M  V30 17056 H 1659.44 -1.21428 -3.86054 0
M  V30 17057 H 1658.01 -0.484876 -3.08817 0
M  V30 17058 H 1657.23 -2.92943 -2.63777 0
M  V30 17059 H 1658.52 -3.45229 -3.73758 0
M  V30 17060 H 1657.92 -0.866282 -5.59028 0
M  V30 17061 H 1656.47 -1.3762 -6.37106 0
M  V30 17062 N 1659.91 0.83715 -1.33527 0
M  V30 17063 C 1661.32 1.12809 -1.12899 0
M  V30 17064 C 1661.52 2.01345 0.0789761 0
M  V30 17065 O 1660.58 2.40831 0.758732 0
M  V30 17066 C 1661.89 1.78852 -2.41728 0
M  V30 17067 C 1663.44 1.91411 -2.47651 0
M  V30 17068 C 1663.91 2.6087 -3.76445 0
M  V30 17069 N 1665.41 2.68381 -3.77526 0
M  V30 17070 C 1666.14 3.22819 -4.73894 0
M  V30 17071 N 1665.64 3.77931 -5.80638 0
M  V30 17072 N 1667.43 3.21087 -4.61367 0
M  V30 17073 H 1659.58 0.247942 -2.10948 0
M  V30 17074 H 1661.84 0.172518 -0.93217 0
M  V30 17075 H 1661.55 1.21258 -3.30135 0
M  V30 17076 H 1661.42 2.78856 -2.54006 0
M  V30 17077 H 1663.81 2.48159 -1.59691 0
M  V30 17078 H 1663.89 0.903512 -2.39312 0
M  V30 17079 H 1663.54 2.0478 -4.64787 0
M  V30 17080 H 1663.47 3.62404 -3.82061 0
M  V30 17081 H 1665.96 2.29301 -3.00382 0
M  V30 17082 H 1666.27 4.17678 -6.50204 0
M  V30 17083 H 1664.61 3.76214 -5.8437 0
M  V30 17084 H 1667.81 2.7729 -3.77131 0
M  V30 17085 H 1667.98 3.6321 -5.3664 0
M  V30 17086 N 1661.38 1.17024 1.05561 0
M  V30 17087 C 1662.32 0.841314 2.13201 0
M  V30 17088 C 1663.33 -0.154667 1.62064 0
M  V30 17089 O 1664.52 0.0711173 1.78358 0
M  V30 17090 C 1661.62 0.233156 3.38097 0
M  V30 17091 C 1660.79 1.27108 4.18524 0
M  V30 17092 C 1659.85 0.681364 5.2177 0
M  V30 17093 O 1658.88 1.35219 5.52906 0
M  V30 17094 N 1660.08 -0.528381 5.7809 0
M  V30 17095 H 1662.84 1.76773 2.42015 0
M  V30 17096 H 1660.4 1.06858 1.21626 0
M  V30 17097 H 1662.4 -0.174565 4.04323 0
M  V30 17098 H 1660.97 -0.596965 3.06847 0
M  V30 17099 H 1660.19 1.85469 3.47843 0
M  V30 17100 H 1661.47 1.97129 4.6906 0
M  V30 17101 H 1660.87 -1.09141 5.55072 0
M  V30 17102 H 1659.43 -0.878214 6.45857 0
M  V30 17103 N 1662.86 -1.24221 0.969889 0
M  V30 17104 C 1663.79 -2.27619 0.520745 0
M  V30 17105 C 1664.77 -1.64291 -0.440731 0
M  V30 17106 O 1665.96 -1.91265 -0.336381 0
M  V30 17107 C 1663.09 -3.46792 -0.187768 0
M  V30 17108 C 1662.04 -4.22402 0.689945 0
M  V30 17109 C 1661.37 -5.34489 -0.150186 0
M  V30 17110 C 1662.67 -4.83494 1.97562 0
M  V30 17111 H 1664.36 -2.65441 1.38498 0
M  V30 17112 H 1661.91 -1.276 0.667398 0
M  V30 17113 H 1663.86 -4.18263 -0.513216 0
M  V30 17114 H 1662.59 -3.08002 -1.08637 0
M  V30 17115 H 1661.24 -3.52734 0.998696 0
M  V30 17116 H 1660.89 -4.9194 -1.049 0
M  V30 17117 H 1660.59 -5.85996 0.433891 0
M  V30 17118 H 1662.12 -6.08786 -0.470255 0
M  V30 17119 H 1663.53 -5.47028 1.71561 0
M  V30 17120 H 1661.93 -5.45243 2.5066 0
M  V30 17121 H 1663 -4.04826 2.66915 0
M  V30 17122 N 1664.34 -0.740267 -1.39132 0
M  V30 17123 C 1665.59 -0.287379 -1.99642 0
M  V30 17124 C 1665.9 1.13337 -1.59418 0
M  V30 17125 O 1667.11 1.68605 -2.12802 0
M  V30 17126 C 1665.56 -0.462859 -3.56911 0
M  V30 17127 C 1665.17 -1.89184 -4.06095 0
M  V30 17128 C 1666.92 -0.0720122 -4.24439 0
M  V30 17129 C 1664.82 -2.01659 -5.55957 0
M  V30 17130 H 1663.75 -0.103696 -0.746835 0
M  V30 17131 H 1666.4 -0.914902 -1.59065 0
M  V30 17132 H 1664.79 0.233644 -3.9531 0
M  V30 17133 H 1665.96 -2.62072 -3.79018 0
M  V30 17134 H 1664.28 -2.23638 -3.51248 0
M  V30 17135 H 1666.87 -0.144163 -5.34506 0
M  V30 17136 H 1667.22 0.973516 -4.04757 0
M  V30 17137 H 1667.75 -0.719868 -3.91232 0
M  V30 17138 H 1664.49 -3.04419 -5.80525 0
M  V30 17139 H 1664.01 -1.33214 -5.8482 0
M  V30 17140 H 1665.69 -1.80023 -6.2145 0
M  V30 17141 N 1665.82 1.49844 -0.488302 0
M  V30 17142 C 1666.75 2.26762 0.333396 0
M  V30 17143 C 1667.76 1.32785 0.941918 0
M  V30 17144 O 1668.95 1.58165 0.827407 0
M  V30 17145 C 1666.05 3.04721 1.48318 0
M  V30 17146 C 1665.23 4.26181 0.984303 0
M  V30 17147 C 1664.28 4.8629 2.01018 0
M  V30 17148 O 1663.31 5.4672 1.58384 0
M  V30 17149 N 1664.51 4.74813 3.33965 0
M  V30 17150 H 1667.28 2.97921 -0.32609 0
M  V30 17151 H 1664.84 1.58704 -0.320092 0
M  V30 17152 H 1666.83 3.4181 2.16676 0
M  V30 17153 H 1665.4 2.36251 2.04705 0
M  V30 17154 H 1664.62 3.93998 0.126039 0
M  V30 17155 H 1665.91 5.04895 0.62919 0
M  V30 17156 H 1665.31 4.26793 3.71301 0
M  V30 17157 H 1663.86 5.16122 3.98072 0
M  V30 17158 N 1667.3 0.221601 1.56034 0
M  V30 17159 C 1668.23 -0.720818 2.1757 0
M  V30 17160 C 1669.24 -1.15751 1.14479 0
M  V30 17161 O 1670.43 -1.08865 1.41459 0
M  V30 17162 C 1667.53 -1.98817 2.74454 0
M  V30 17163 C 1666.7 -1.70703 4.02715 0
M  V30 17164 C 1665.76 -2.82146 4.44162 0
M  V30 17165 O 1664.79 -2.50614 5.11059 0
M  V30 17166 N 1665.99 -4.11101 4.09849 0
M  V30 17167 H 1668.76 -0.194436 2.99069 0
M  V30 17168 H 1666.32 0.0405962 1.61849 0
M  V30 17169 H 1668.31 -2.72562 2.99152 0
M  V30 17170 H 1666.88 -2.42503 1.97258 0
M  V30 17171 H 1666.1 -0.806022 3.85872 0
M  V30 17172 H 1667.39 -1.49351 4.86387 0
M  V30 17173 H 1666.78 -4.39562 3.56092 0
M  V30 17174 H 1665.34 -4.81389 4.3944 0
M  V30 17175 N 1668.77 -1.57515 -0.0517878 0
M  V30 17176 C 1669.71 -2.01812 -1.08649 0
M  V30 17177 C 1670.72 -0.92719 -1.33817 0
M  V30 17178 O 1671.91 -1.20483 -1.31705 0
M  V30 17179 C 1669.01 -2.35903 -2.43316 0
M  V30 17180 C 1668.18 -3.67095 -2.37824 0
M  V30 17181 C 1667.24 -3.8863 -3.54758 0
M  V30 17182 O 1666.27 -4.59974 -3.3528 0
M  V30 17183 N 1667.47 -3.32516 -4.75829 0
M  V30 17184 H 1670.23 -2.91191 -0.709094 0
M  V30 17185 H 1667.79 -1.60109 -0.240125 0
M  V30 17186 H 1669.79 -2.47466 -3.20223 0
M  V30 17187 H 1668.36 -1.52312 -2.72983 0
M  V30 17188 H 1667.58 -3.66099 -1.46168 0
M  V30 17189 H 1668.86 -4.53199 -2.31275 0
M  V30 17190 H 1668.26 -2.74645 -4.94557 0
M  V30 17191 H 1666.82 -3.49496 -5.50178 0
M  V30 17192 N 1670.25 0.323614 -1.54242 0
M  V30 17193 C 1671.67 0.66795 -1.4495 0
M  V30 17194 C 1671.87 1.91649 -0.622338 0
M  V30 17195 O 1670.93 2.52209 -0.121119 0
M  V30 17196 C 1672.24 0.842006 -2.88671 0
M  V30 17197 C 1673.79 0.93935 -2.98572 0
M  V30 17198 C 1674.26 1.14557 -4.43442 0
M  V30 17199 N 1675.75 1.21231 -4.47054 0
M  V30 17200 C 1676.49 1.38976 -5.56303 0
M  V30 17201 N 1675.98 1.53764 -6.75521 0
M  V30 17202 N 1677.78 1.41684 -5.4395 0
M  V30 17203 H 1669.93 -0.497017 -2.06503 0
M  V30 17204 H 1672.19 -0.160563 -0.934304 0
M  V30 17205 H 1671.9 -0.00418568 -3.517 0
M  V30 17206 H 1671.77 1.73785 -3.34782 0
M  V30 17207 H 1674.16 1.77605 -2.35671 0
M  V30 17208 H 1674.24 0.0199775 -2.55792 0
M  V30 17209 H 1673.88 0.313732 -5.0693 0
M  V30 17210 H 1673.81 2.07882 -4.83831 0
M  V30 17211 H 1676.3 1.11247 -3.61154 0
M  V30 17212 H 1676.62 1.66996 -7.54541 0
M  V30 17213 H 1674.96 1.50862 -6.78429 0
M  V30 17214 H 1678.15 1.29726 -4.49765 0
M  V30 17215 H 1678.33 1.5517 -6.29147 0
M  V30 17216 N 1671.73 1.46313 0.585673 0
M  V30 17217 C 1672.69 1.56239 1.67696 0
M  V30 17218 C 1673.69 0.439808 1.54668 0
M  V30 17219 O 1674.88 0.704019 1.5934 0
M  V30 17220 C 1672.02 1.47986 3.07104 0
M  V30 17221 H 1673.21 2.53492 1.60255 0
M  V30 17222 H 1670.76 1.3408 0.803264 0
M  V30 17223 H 1671.5 0.520007 3.20104 0
M  V30 17224 H 1671.28 2.2943 3.17969 0
M  V30 17225 H 1672.77 1.5801 3.86552 0
M  V30 17226 N 1673.21 -0.830057 1.33969 0
M  V30 17227 C 1674.14 -1.94534 1.19297 0
M  V30 17228 C 1675.12 -1.62371 0.0862986 0
M  V30 17229 O 1676.3 -1.86833 0.250152 0
M  V30 17230 C 1673.43 -3.28329 0.831718 0
M  V30 17231 C 1672.48 -3.79459 1.94713 0
M  V30 17232 S 1673.31 -4.00075 3.5595 0
M  V30 17233 C 1674.47 -5.36808 3.21851 0
M  V30 17234 H 1674.7 -2.06683 2.13704 0
M  V30 17235 H 1672.23 -0.984833 1.18913 0
M  V30 17236 H 1674.19 -4.05636 0.630076 0
M  V30 17237 H 1672.85 -3.1396 -0.0939047 0
M  V30 17238 H 1672.04 -4.76297 1.64795 0
M  V30 17239 H 1671.65 -3.09076 2.10589 0
M  V30 17240 H 1673.94 -6.19964 2.73223 0
M  V30 17241 H 1674.88 -5.71705 4.17802 0
M  V30 17242 H 1675.29 -5.0198 2.58217 0
M  V30 17243 N 1674.69 -1.17582 -1.04939 0
M  V30 17244 C 1675.62 -0.918221 -2.14688 0
M  V30 17245 C 1676.6 0.140757 -1.69517 0
M  V30 17246 O 1677.78 -0.0100118 -1.94197 0
M  V30 17247 C 1674.91 -0.433531 -3.44584 0
M  V30 17248 C 1673.87 -1.43199 -4.03334 0
M  V30 17249 C 1673.19 -0.805154 -5.28603 0
M  V30 17250 C 1674.49 -2.80598 -4.40525 0
M  V30 17251 H 1676.19 -1.83604 -2.36495 0
M  V30 17252 H 1673.73 -0.884202 -1.13657 0
M  V30 17253 H 1675.69 -0.240722 -4.20712 0
M  V30 17254 H 1674.41 0.519832 -3.22437 0
M  V30 17255 H 1673.07 -1.61158 -3.29277 0
M  V30 17256 H 1672.72 0.155124 -5.02761 0
M  V30 17257 H 1672.42 -1.4717 -5.68871 0
M  V30 17258 H 1673.94 -0.622677 -6.07417 0
M  V30 17259 H 1675.36 -2.66341 -5.07676 0
M  V30 17260 H 1673.75 -3.43854 -4.91817 0
M  V30 17261 H 1674.82 -3.34815 -3.50752 0
M  V30 17262 N 1676.17 1.23705 -0.976463 0
M  V30 17263 C 1677.1 2.2355 -0.458309 0
M  V30 17264 C 1678.08 1.55586 0.472414 0
M  V30 17265 O 1679.26 1.84169 0.40177 0
M  V30 17266 C 1676.39 3.37015 0.337422 0
M  V30 17267 C 1675.43 4.23108 -0.536865 0
M  V30 17268 S 1676.27 4.97456 -1.98236 0
M  V30 17269 C 1677.42 6.14374 -1.19566 0
M  V30 17270 H 1677.66 2.67156 -1.30442 0
M  V30 17271 H 1675.19 1.33123 -0.782157 0
M  V30 17272 H 1677.15 4.02816 0.790531 0
M  V30 17273 H 1675.81 2.91951 1.15861 0
M  V30 17274 H 1675 5.03945 0.07453 0
M  V30 17275 H 1674.6 3.62354 -0.926058 0
M  V30 17276 H 1676.89 6.7597 -0.455017 0
M  V30 17277 H 1677.84 6.79891 -1.97872 0
M  V30 17278 H 1678.25 5.59939 -0.716175 0
M  V30 17279 N 1677.64 0.747635 1.38738 0
M  V30 17280 C 1679.06 0.424577 1.53849 0
M  V30 17281 C 1679.26 -1.06304 1.71177 0
M  V30 17282 O 1678.32 -1.84912 1.71941 0
M  V30 17283 C 1679.63 1.21863 2.749 0
M  V30 17284 C 1681.18 1.20811 2.88745 0
M  V30 17285 C 1681.65 1.985 4.12749 0
M  V30 17286 N 1683.14 1.9573 4.19814 0
M  V30 17287 C 1683.88 2.52641 5.14743 0
M  V30 17288 N 1683.37 3.18241 6.15382 0
M  V30 17289 N 1685.17 2.42604 5.0705 0
M  V30 17290 H 1677.32 1.71182 1.25739 0
M  V30 17291 H 1679.58 0.725358 0.610376 0
M  V30 17292 H 1679.29 2.27181 2.6848 0
M  V30 17293 H 1679.16 0.831509 3.67921 0
M  V30 17294 H 1681.55 0.163013 2.94649 0
M  V30 17295 H 1681.63 1.6347 1.96752 0
M  V30 17296 H 1681.27 3.03017 4.07606 0
M  V30 17297 H 1681.2 1.53239 5.03811 0
M  V30 17298 H 1683.69 1.4795 3.47734 0
M  V30 17299 H 1684.01 3.59101 6.843 0
M  V30 17300 H 1682.35 3.22334 6.15732 0
M  V30 17301 H 1685.54 1.90987 4.27366 0
M  V30 17302 H 1685.72 2.87253 5.80852 0
M  V30 17303 N 1679.12 -1.49583 0.496242 0
M  V30 17304 C 1680.05 -2.26936 -0.321366 0
M  V30 17305 C 1681.07 -1.33282 -0.934863 0
M  V30 17306 O 1682.26 -1.58602 -0.819008 0
M  V30 17307 C 1679.36 -3.05503 -1.467 0
M  V30 17308 C 1678.53 -4.26697 -0.961687 0
M  V30 17309 C 1677.59 -4.8735 -1.98436 0
M  V30 17310 O 1676.61 -5.47553 -1.55482 0
M  V30 17311 N 1677.82 -4.76577 -3.31443 0
M  V30 17312 H 1680.58 -2.97744 0.341884 0
M  V30 17313 H 1678.14 -1.58532 0.328504 0
M  V30 17314 H 1680.13 -3.42954 -2.1486 0
M  V30 17315 H 1678.7 -2.37334 -2.03449 0
M  V30 17316 H 1677.92 -3.9406 -0.105143 0
M  V30 17317 H 1679.21 -5.05221 -0.602405 0
M  V30 17318 H 1678.61 -4.28756 -3.69032 0
M  V30 17319 H 1677.17 -5.18226 -3.95329 0
M  V30 17320 N 1680.6 -0.229873 -1.55915 0
M  V30 17321 C 1681.53 0.70927 -2.1795 0
M  V30 17322 C 1682.54 1.15142 -1.15092 0
M  V30 17323 O 1683.73 1.08114 -1.42034 0
M  V30 17324 C 1680.83 1.97359 -2.75504 0
M  V30 17325 C 1680.01 1.68565 -4.03614 0
M  V30 17326 C 1679.07 2.79786 -4.45652 0
M  V30 17327 O 1678.09 2.479 -5.12381 0
M  V30 17328 N 1679.29 4.08921 -4.12024 0
M  V30 17329 H 1682.06 0.178573 -2.99168 0
M  V30 17330 H 1679.62 -0.0491789 -1.61825 0
M  V30 17331 H 1681.61 2.70972 -3.00593 0
M  V30 17332 H 1680.18 2.41454 -1.98542 0
M  V30 17333 H 1679.4 0.785547 -3.86294 0
M  V30 17334 H 1680.69 1.46769 -4.87172 0
M  V30 17335 H 1680.09 4.37667 -3.58419 0
M  V30 17336 H 1678.64 4.79052 -4.41987 0
M  V30 17337 N 1682.08 1.5754 0.0434337 0
M  V30 17338 C 1683.3 1.93247 0.753012 0
M  V30 17339 C 1683.73 0.828712 1.68861 0
M  V30 17340 O 1683.09 -0.216618 1.80001 0
M  V30 17341 C 1683.13 3.27989 1.49852 0
M  V30 17342 O 1682.24 3.19223 2.61094 0
M  V30 17343 H 1681.58 0.632032 0.203547 0
M  V30 17344 H 1684.11 2.046 0.00319776 0
M  V30 17345 H 1684.12 3.62539 1.87161 0
M  V30 17346 H 1682.79 4.07891 0.812251 0
M  V30 17347 H 1681.37 2.9628 2.26434 0
M  V30 17348 N 1683.56 -0.31543 1.54411 0
M  V30 17349 C 1684.8 -1.0524 1.73005 0
M  V30 17350 C 1685.13 -1.87747 0.50808 0
M  V30 17351 O 1684.39 -1.88935 -0.51012 0
M  V30 17352 C 1684.68 -1.99884 2.96279 0
M  V30 17353 C 1684.35 -1.33468 4.30694 0
M  V30 17354 C 1683.01 -1.15087 4.67235 0
M  V30 17355 C 1685.36 -0.858688 5.14078 0
M  V30 17356 C 1682.69 -0.47767 5.84752 0
M  V30 17357 C 1685.04 -0.199278 6.32286 0
M  V30 17358 C 1683.71 -0.00338158 6.675 0
M  V30 17359 H 1682.98 -0.385102 0.63307 0
M  V30 17360 H 1685.63 -0.328714 1.88658 0
M  V30 17361 H 1683.93 -2.78732 2.75347 0
M  V30 17362 H 1685.63 -2.56951 3.07859 0
M  V30 17363 H 1682.22 -1.48779 4.01949 0
M  V30 17364 H 1686.4 -0.98846 4.86357 0
M  V30 17365 H 1681.66 -0.314772 6.10589 0
M  V30 17366 H 1685.83 0.177517 6.96174 0
M  V30 17367 H 1683.46 0.52028 7.58418 0
M  V30 17368 N 1685.03 -1.46622 -0.577906 0
M  V30 17369 C 1686.28 -1.5188 -1.3333 0
M  V30 17370 C 1686.6 -0.173993 -1.94222 0
M  V30 17371 O 1685.87 0.799972 -1.78822 0
M  V30 17372 H 1684.45 -0.559401 -0.495055 0
M  V30 17373 H 1687.12 -1.82785 -0.676449 0
M  V30 17374 H 1686.21 -2.27411 -2.13754 0
M  V30 17375 N 1686.51 0.822941 -1.34408 0
M  V30 17376 C 1687.46 1.95524 -1.25988 0
M  V30 17377 C 1688.45 1.68662 -0.157994 0
M  V30 17378 O 1689.66 1.77079 -0.322966 0
M  V30 17379 H 1686.04 0.642117 -0.391394 0
M  V30 17380 H 1688.01 1.99747 -2.21683 0
M  V30 17381 C 1686.76 3.32026 -1.03218 0
M  V30 17382 H 1686.08 3.53244 -1.87239 0
M  V30 17383 H 1687.52 4.11706 -1.01363 0
M  V30 17384 C 1685.98 3.3586 0.264523 0
M  V30 17385 O 1686.51 3.81232 1.26589 0
M  V30 17386 N 1684.71 2.89072 0.297626 0
M  V30 17387 H 1684.26 2.52341 -0.517836 0
M  V30 17388 H 1684.22 2.92019 1.165 0
M  V30 17389 N 1687.99 1.18137 1.04314 0
M  V30 17390 C 1688.94 0.902484 2.14378 0
M  V30 17391 C 1689.93 -0.136289 1.68851 0
M  V30 17392 O 1691.14 0.0116256 1.79996 0
M  V30 17393 H 1687.51 0.274358 0.700165 0
M  V30 17394 H 1689.48 1.83768 2.35099 0
M  V30 17395 C 1688.23 0.441975 3.4488 0
M  V30 17396 H 1687.56 1.23279 3.80319 0
M  V30 17397 H 1689 0.285808 4.23036 0
M  V30 17398 C 1687.46 -0.841797 3.26214 0
M  V30 17399 O 1687.99 -1.90658 3.53571 0
M  V30 17400 N 1686.19 -0.793425 2.79559 0
M  V30 17401 H 1685.74 0.0732997 2.57496 0
M  V30 17402 H 1685.7 -1.65281 2.6745 0
M  V30 17403 N 1689.47 -1.23186 0.98301 0
M  V30 17404 C 1690.4 -2.27054 0.544858 0
M  V30 17405 C 1691.38 -1.64749 -0.423281 0
M  V30 17406 O 1692.56 -1.91611 -0.316075 0
M  V30 17407 C 1689.69 -3.46972 -0.150976 0
M  V30 17408 C 1688.65 -4.21647 0.734707 0
M  V30 17409 C 1687.97 -5.34618 -0.0934874 0
M  V30 17410 C 1689.27 -4.81372 2.02679 0
M  V30 17411 H 1690.97 -2.63957 1.41305 0
M  V30 17412 H 1688.51 -1.26885 0.680895 0
M  V30 17413 H 1690.47 -4.18784 -0.468825 0
M  V30 17414 H 1689.19 -3.09137 -1.05364 0
M  V30 17415 H 1687.85 -3.51655 1.03605 0
M  V30 17416 H 1687.5 -4.93025 -0.996768 0
M  V30 17417 H 1687.2 -5.85503 0.496019 0
M  V30 17418 H 1688.72 -6.09251 -0.405658 0
M  V30 17419 H 1690.14 -5.45178 1.77353 0
M  V30 17420 H 1688.53 -5.42554 2.56429 0
M  V30 17421 H 1689.6 -4.01972 2.71194 0
M  V30 17422 N 1690.95 -0.754982 -1.38339 0
M  V30 17423 C 1692.36 -0.379276 -1.82807 0
M  V30 17424 C 1692.71 1.09228 -1.62984 0
M  V30 17425 O 1691.83 1.84445 -1.13177 0
M  V30 17426 C 1692.43 -0.681628 -3.31872 0
M  V30 17427 C 1690.99 -0.359183 -3.74682 0
M  V30 17428 C 1690.13 -0.93409 -2.61094 0
M  V30 17429 H 1693.09 -0.951019 -1.27048 0
M  V30 17430 H 1693.11 0.0396803 -3.80479 0
M  V30 17431 H 1692.62 -1.75271 -3.46268 0
M  V30 17432 H 1690.72 0.705257 -3.65865 0
M  V30 17433 H 1690.83 -0.85571 -4.71396 0
M  V30 17434 H 1689.2 -0.359379 -2.52152 0
M  V30 17435 H 1689.98 -2.01023 -2.78289 0
M  V30 17436 N 1692.42 1.49318 -0.504168 0
M  V30 17437 C 1693.84 1.86612 -0.0571729 0
M  V30 17438 C 1694.19 1.4162 1.35787 0
M  V30 17439 O 1693.31 0.79548 2.01249 0
M  V30 17440 C 1693.91 3.38661 -0.0969773 0
M  V30 17441 C 1692.47 3.75245 0.294692 0
M  V30 17442 C 1691.61 2.7332 -0.468125 0
M  V30 17443 H 1694.56 1.4159 -0.716788 0
M  V30 17444 H 1694.58 3.74051 0.697569 0
M  V30 17445 H 1694.1 3.71377 -1.12698 0
M  V30 17446 H 1692.2 3.48138 1.32781 0
M  V30 17447 H 1692.31 4.79092 -0.0269621 0
M  V30 17448 H 1690.67 2.54567 0.0824379 0
M  V30 17449 H 1691.46 3.0888 -1.49827 0
M  V30 17450 N 1693.9 0.238138 1.5579 0
M  V30 17451 C 1695.13 -0.396409 2.03576 0
M  V30 17452 C 1695.55 -1.5138 1.11649 0
M  V30 17453 O 1694.91 -1.80979 0.107774 0
M  V30 17454 C 1694.96 -0.889749 3.49451 0
M  V30 17455 O 1694.06 -1.99997 3.60659 0
M  V30 17456 H 1693.4 -0.0876017 0.658196 0
M  V30 17457 H 1695.93 0.361632 2.01379 0
M  V30 17458 H 1695.94 -1.19526 3.901 0
M  V30 17459 H 1694.62 -0.0720136 4.15838 0
M  V30 17460 H 1693.2 -1.69983 3.31904 0
M  V30 17461 N 1695.38 -1.57561 -0.0350783 0
M  V30 17462 C 1696.61 -1.93644 -0.742753 0
M  V30 17463 C 1697.03 -0.837655 -1.68419 0
M  V30 17464 O 1696.39 0.207069 -1.80114 0
M  V30 17465 C 1696.44 -3.28779 -1.48111 0
M  V30 17466 O 1695.54 -3.20604 -2.59398 0
M  V30 17467 H 1694.88 -0.633103 -0.200192 0
M  V30 17468 H 1697.41 -2.04599 0.00765271 0
M  V30 17469 H 1697.42 -3.63527 -1.85236 0
M  V30 17470 H 1696.1 -4.08316 -0.790608 0
M  V30 17471 H 1694.67 -2.97477 -2.2486 0
M  V30 17472 N 1696.86 0.307236 -1.54576 0
M  V30 17473 C 1698.11 1.04115 -1.73218 0
M  V30 17474 C 1698.43 1.88008 -0.517482 0
M  V30 17475 O 1697.7 1.90219 0.468336 0
M  V30 17476 H 1696.28 0.387388 -0.638701 0
M  V30 17477 H 1698.94 0.339727 -1.91916 0
M  V30 17478 H 1698.04 1.69784 -2.61877 0
M  V30 17479 N 1698.34 1.46926 0.570122 0
M  V30 17480 C 1699.27 1.61311 1.68822 0
M  V30 17481 C 1700.25 0.462964 1.63678 0
M  V30 17482 O 1701.43 0.690745 1.815 0
M  V30 17483 C 1698.56 1.61499 3.07466 0
M  V30 17484 C 1697.52 2.7561 3.27449 0
M  V30 17485 C 1696.84 2.60865 4.66748 0
M  V30 17486 C 1698.14 4.17324 3.14067 0
M  V30 17487 H 1699.84 2.54909 1.5704 0
M  V30 17488 H 1697.38 1.22677 0.754077 0
M  V30 17489 H 1699.34 1.70155 3.8552 0
M  V30 17490 H 1698.06 0.64453 3.20177 0
M  V30 17491 H 1696.72 2.66444 2.51799 0
M  V30 17492 H 1696.37 1.61875 4.76241 0
M  V30 17493 H 1696.07 3.37411 4.81069 0
M  V30 17494 H 1697.59 2.7143 5.46954 0
M  V30 17495 H 1699 4.27534 3.81952 0
M  V30 17496 H 1697.4 4.94555 3.39905 0
M  V30 17497 H 1698.47 4.36596 2.10979 0
M  V30 17498 N 1699.82 -0.815801 1.34842 0
M  V30 17499 C 1701.23 -1.38911 1.24742 0
M  V30 17500 C 1701.58 -1.95807 -0.124101 0
M  V30 17501 O 1700.7 -1.906 -1.02472 0
M  V30 17502 C 1701.3 -2.52532 2.25861 0
M  V30 17503 C 1699.86 -3.05751 2.1953 0
M  V30 17504 C 1699 -1.78661 2.12075 0
M  V30 17505 H 1701.95 -0.619601 1.46105 0
M  V30 17506 H 1701.98 -3.30826 1.87974 0
M  V30 17507 H 1701.49 -2.11092 3.25671 0
M  V30 17508 H 1699.59 -3.51678 1.23099 0
M  V30 17509 H 1699.7 -3.64358 3.11095 0
M  V30 17510 H 1698.07 -1.99844 1.57907 0
M  V30 17511 H 1698.85 -1.39385 3.1373 0
M  V30 17512 N 1701.29 -1.18689 -1.03686 0
M  V30 17513 C 1702.54 -0.98606 -1.77214 0
M  V30 17514 C 1702.87 0.482788 -1.88103 0
M  V30 17515 O 1702.15 1.3585 -1.39194 0
M  V30 17516 C 1702.43 -1.64611 -3.20274 0
M  V30 17517 C 1702.28 -3.18808 -3.17304 0
M  V30 17518 C 1703.6 -1.36251 -4.18478 0
M  V30 17519 H 1700.72 -0.359634 -0.643298 0
M  V30 17520 H 1703.36 -1.46412 -1.21094 0
M  V30 17521 H 1701.51 -1.23964 -3.68192 0
M  V30 17522 H 1703.19 -3.68615 -2.77346 0
M  V30 17523 H 1701.43 -3.50769 -2.55232 0
M  V30 17524 H 1702.1 -3.60131 -4.18341 0
M  V30 17525 H 1704.58 -1.71476 -3.79124 0
M  V30 17526 H 1703.45 -1.84997 -5.16786 0
M  V30 17527 H 1703.71 -0.286113 -4.41173 0
M  V30 17528 N 1702.77 1.22662 -0.989529 0
M  V30 17529 C 1703.7 2.23784 -0.495301 0
M  V30 17530 C 1704.72 1.5761 0.40779 0
M  V30 17531 O 1705.91 1.77255 0.210464 0
M  V30 17532 C 1703.01 3.37553 0.301836 0
M  V30 17533 C 1702.18 4.33312 -0.596578 0
M  V30 17534 C 1701.24 5.25991 0.148272 0
M  V30 17535 O 1700.26 5.67296 -0.46519 0
M  V30 17536 N 1701.47 5.62571 1.43158 0
M  V30 17537 H 1704.23 2.66819 -1.36483 0
M  V30 17538 H 1701.79 1.36928 -0.863853 0
M  V30 17539 H 1703.78 3.96538 0.808701 0
M  V30 17540 H 1702.35 2.93628 1.07243 0
M  V30 17541 H 1701.57 3.72697 -1.28416 0
M  V30 17542 H 1702.86 4.94239 -1.20853 0
M  V30 17543 H 1702.26 5.30979 1.95136 0
M  V30 17544 H 1700.82 6.23987 1.8837 0
M  V30 17545 N 1704.25 0.762308 1.37937 0
M  V30 17546 C 1705.18 0.0886896 2.28028 0
M  V30 17547 C 1706.16 -0.719127 1.45833 0
M  V30 17548 O 1707.34 -0.695902 1.75184 0
M  V30 17549 C 1704.47 -0.880957 3.27043 0
M  V30 17550 C 1703.52 -0.158303 4.26206 0
M  V30 17551 S 1704.35 1.14705 5.23071 0
M  V30 17552 C 1705.51 0.180701 6.25639 0
M  V30 17553 H 1705.74 0.852627 2.84811 0
M  V30 17554 H 1703.27 0.555273 1.4407 0
M  V30 17555 H 1705.23 -1.43504 3.846 0
M  V30 17556 H 1703.89 -1.61793 2.69224 0
M  V30 17557 H 1703.08 -0.893012 4.96025 0
M  V30 17558 H 1702.69 0.324503 3.7259 0
M  V30 17559 H 1704.98 -0.650247 6.74372 0
M  V30 17560 H 1705.92 0.846801 7.03018 0
M  V30 17561 H 1706.33 -0.203883 5.64132 0
M  V30 17562 N 1705.73 -1.49049 0.51208 0
M  V30 17563 C 1706.98 -2.0208 -0.0284326 0
M  V30 17564 C 1707.3 -1.39303 -1.36454 0
M  V30 17565 O 1706.57 -0.552155 -1.87958 0
M  V30 17566 H 1705.15 -0.746878 -0.0134968 0
M  V30 17567 H 1707.81 -1.82954 0.671842 0
M  V30 17568 H 1706.9 -3.11739 -0.149966 0
M  V30 17569 N 1707.21 -0.246397 -1.55662 0
M  V30 17570 C 1708.15 0.66961 -2.22753 0
M  V30 17571 C 1709.15 1.18048 -1.21495 0
M  V30 17572 O 1710.35 1.13743 -1.39508 0
M  V30 17573 H 1706.73 0.234421 -0.714529 0
M  V30 17574 H 1708.7 0.0805962 -2.98291 0
M  V30 17575 C 1707.45 1.8558 -2.94033 0
M  V30 17576 H 1706.77 1.47184 -3.71721 0
M  V30 17577 H 1708.21 2.47397 -3.44341 0
M  V30 17578 C 1706.67 2.72664 -1.97879 0
M  V30 17579 O 1707.2 3.72177 -1.51154 0
M  V30 17580 N 1705.41 2.3922 -1.64991 0
M  V30 17581 H 1704.95 1.58348 -2.03184 0
M  V30 17582 H 1704.91 2.97762 -1.00922 0
M  V30 17583 N 1708.68 1.57577 0.026722 0
M  V30 17584 C 1710.09 1.77689 0.573022 0
M  V30 17585 C 1710.45 0.877771 1.7547 0
M  V30 17586 O 1709.57 0.0732156 2.16276 0
M  V30 17587 C 1710.17 3.22239 1.0463 0
M  V30 17588 C 1708.72 3.4354 1.5381 0
M  V30 17589 C 1707.87 2.73163 0.47722 0
M  V30 17590 H 1710.82 1.57441 -0.199502 0
M  V30 17591 H 1710.84 3.28882 1.91355 0
M  V30 17592 H 1710.36 3.87654 0.186047 0
M  V30 17593 H 1708.46 2.83304 2.42012 0
M  V30 17594 H 1708.57 4.52158 1.58398 0
M  V30 17595 H 1706.93 2.37004 0.932793 0
M  V30 17596 H 1707.72 3.41261 -0.373605 0
M  V30 17597 N 1710.16 -0.299034 1.54737 0
M  V30 17598 C 1711.58 -0.644805 1.45995 0
M  V30 17599 C 1711.78 -1.90634 0.652749 0
M  V30 17600 O 1710.83 -2.51985 0.161228 0
M  V30 17601 C 1712.15 -0.795974 2.89974 0
M  V30 17602 C 1713.69 -0.891731 3.00029 0
M  V30 17603 C 1714.17 -1.07488 4.45208 0
M  V30 17604 N 1715.66 -1.14104 4.48926 0
M  V30 17605 C 1716.4 -1.30108 5.58444 0
M  V30 17606 N 1715.89 -1.42998 6.77882 0
M  V30 17607 N 1717.68 -1.33012 5.46136 0
M  V30 17608 H 1709.84 0.529806 2.05686 0
M  V30 17609 H 1712.1 0.175406 0.931631 0
M  V30 17610 H 1711.8 0.0601375 3.51649 0
M  V30 17611 H 1711.68 -1.68437 3.37504 0
M  V30 17612 H 1714.07 -1.73833 2.38466 0
M  V30 17613 H 1714.15 0.0207194 2.55792 0
M  V30 17614 H 1713.79 -0.233045 5.07365 0
M  V30 17615 H 1713.72 -2.00159 4.87077 0
M  V30 17616 H 1716.21 -1.05488 3.62878 0
M  V30 17617 H 1716.52 -1.5497 7.57102 0
M  V30 17618 H 1714.87 -1.4005 6.80743 0
M  V30 17619 H 1718.06 -1.22555 4.51772 0
M  V30 17620 H 1718.23 -1.45141 6.31536 0
M  V30 17621 N 1711.64 -1.47227 -0.562322 0
M  V30 17622 C 1712.57 -1.62204 -1.67965 0
M  V30 17623 C 1713.55 -0.471638 -1.63431 0
M  V30 17624 O 1714.74 -0.70036 -1.81131 0
M  V30 17625 C 1711.87 -1.63127 -3.06605 0
M  V30 17626 C 1710.82 -2.77343 -3.25983 0
M  V30 17627 C 1710.15 -2.63336 -4.65358 0
M  V30 17628 C 1711.45 -4.18983 -3.1185 0
M  V30 17629 H 1713.14 -2.55739 -1.55686 0
M  V30 17630 H 1710.69 -1.23075 -0.747561 0
M  V30 17631 H 1712.64 -1.72197 -3.84612 0
M  V30 17632 H 1711.36 -0.661501 -3.19831 0
M  V30 17633 H 1710.02 -2.67776 -2.50383 0
M  V30 17634 H 1709.67 -1.64398 -4.75376 0
M  V30 17635 H 1709.37 -3.39957 -4.79273 0
M  V30 17636 H 1710.89 -2.74327 -5.45506 0
M  V30 17637 H 1712.31 -4.29554 -3.79679 0
M  V30 17638 H 1710.7 -4.96351 -3.37277 0
M  V30 17639 H 1711.77 -4.37709 -2.08661 0
M  V30 17640 N 1713.12 0.808639 -1.35273 0
M  V30 17641 C 1714.53 1.38248 -1.25477 0
M  V30 17642 C 1714.88 1.9587 0.113715 0
M  V30 17643 O 1714 1.91141 1.0146 0
M  V30 17644 C 1714.6 2.5133 -2.27197 0
M  V30 17645 C 1713.16 3.04582 -2.21148 0
M  V30 17646 C 1712.31 1.77534 -2.13019 0
M  V30 17647 H 1715.26 0.611844 -1.46431 0
M  V30 17648 H 1715.28 3.29825 -1.89726 0
M  V30 17649 H 1714.79 2.09362 -3.26786 0
M  V30 17650 H 1712.89 3.5102 -1.24963 0
M  V30 17651 H 1713 3.62703 -3.13023 0
M  V30 17652 H 1711.37 1.99004 -1.58964 0
M  V30 17653 H 1712.15 1.3772 -3.14465 0
M  V30 17654 N 1714.6 1.19237 1.03055 0
M  V30 17655 C 1715.53 0.886348 2.11368 0
M  V30 17656 C 1716.54 -0.120256 1.62355 0
M  V30 17657 O 1717.73 0.108934 1.78167 0
M  V30 17658 C 1714.83 0.304819 3.37526 0
M  V30 17659 C 1714 1.35957 4.15734 0
M  V30 17660 C 1713.06 0.791885 5.20207 0
M  V30 17661 O 1712.09 1.46916 5.49913 0
M  V30 17662 N 1713.29 -0.40564 5.79081 0
M  V30 17663 H 1716.06 1.81867 2.38211 0
M  V30 17664 H 1713.62 1.09414 1.19332 0
M  V30 17665 H 1715.61 -0.0887629 4.04603 0
M  V30 17666 H 1714.18 -0.531744 3.08044 0
M  V30 17667 H 1713.4 1.92806 3.43831 0
M  V30 17668 H 1714.69 2.07034 4.64773 0
M  V30 17669 H 1714.08 -0.973423 5.57262 0
M  V30 17670 H 1712.64 -0.741021 6.47574 0
M  V30 17671 N 1716.07 -1.22136 0.99602 0
M  V30 17672 C 1717.32 -1.9059 0.672303 0
M  V30 17673 C 1717.64 -1.77903 -0.798476 0
M  V30 17674 O 1716.91 -1.1682 -1.57257 0
M  V30 17675 H 1715.49 -0.705445 0.245676 0
M  V30 17676 H 1718.16 -1.48423 1.2632 0
M  V30 17677 H 1717.25 -2.97684 0.937577 0
M  V30 17678 N 1717.55 -0.769612 -1.37531 0
M  V30 17679 C 1718.52 -0.160716 -2.28636 0
M  V30 17680 C 1719.52 0.630362 -1.47929 0
M  V30 17681 O 1720.71 0.454265 -1.68173 0
M  V30 17682 C 1717.84 0.779904 -3.31859 0
M  V30 17683 H 1719.03 -0.963794 -2.83991 0
M  V30 17684 H 1716.58 -0.537678 -1.46761 0
M  V30 17685 H 1717.32 1.60807 -2.81623 0
M  V30 17686 H 1717.1 0.21485 -3.91511 0
M  V30 17687 H 1718.59 1.20143 -3.99944 0
M  V30 17688 N 1719.03 1.48775 -0.519977 0
M  V30 17689 C 1720.44 1.86541 -0.0769625 0
M  V30 17690 C 1720.79 1.43053 1.34277 0
M  V30 17691 O 1719.92 0.816781 2.00394 0
M  V30 17692 C 1720.51 3.38539 -0.132891 0
M  V30 17693 C 1719.07 3.75536 0.254875 0
M  V30 17694 C 1718.22 2.72808 -0.497088 0
M  V30 17695 H 1721.17 1.40822 -0.731765 0
M  V30 17696 H 1721.19 3.7477 0.657856 0
M  V30 17697 H 1720.7 3.70161 -1.1663 0
M  V30 17698 H 1718.8 3.49527 1.29081 0
M  V30 17699 H 1718.92 4.79037 -0.0777747 0
M  V30 17700 H 1717.28 2.5464 0.0554331 0
M  V30 17701 H 1718.06 3.07274 -1.53094 0
M  V30 17702 N 1720.51 0.254649 1.55529 0
M  V30 17703 C 1721.44 -0.674506 2.1905 0
M  V30 17704 C 1722.45 -1.13297 1.16909 0
M  V30 17705 O 1723.64 -1.0584 1.43736 0
M  V30 17706 C 1720.74 -1.92951 2.78609 0
M  V30 17707 C 1719.92 -1.62123 4.06245 0
M  V30 17708 C 1718.97 -2.72661 4.50047 0
M  V30 17709 O 1718 -2.39717 5.1626 0
M  V30 17710 N 1719.2 -4.02315 4.18477 0
M  V30 17711 H 1721.97 -0.130956 2.99414 0
M  V30 17712 H 1719.53 0.0749176 1.61727 0
M  V30 17713 H 1721.52 -2.66155 3.04866 0
M  V30 17714 H 1720.09 -2.38265 2.02358 0
M  V30 17715 H 1719.31 -0.723991 3.87495 0
M  V30 17716 H 1720.6 -1.39 4.89445 0
M  V30 17717 H 1720 -4.3191 3.65336 0
M  V30 17718 H 1718.55 -4.7196 4.49552 0
M  V30 17719 N 1721.99 -1.57589 -0.0183649 0
M  V30 17720 C 1722.92 -2.04071 -1.04343 0
M  V30 17721 C 1723.93 -0.955366 -1.3182 0
M  V30 17722 O 1725.12 -1.23249 -1.29119 0
M  V30 17723 C 1722.22 -2.41011 -2.38258 0
M  V30 17724 C 1721.39 -3.72057 -2.29984 0
M  V30 17725 C 1720.45 -3.96067 -3.46435 0
M  V30 17726 O 1719.48 -4.66982 -3.25447 0
M  V30 17727 N 1720.68 -3.42535 -4.68669 0
M  V30 17728 H 1723.45 -2.92629 -0.647168 0
M  V30 17729 H 1721.01 -1.60583 -0.20611 0
M  V30 17730 H 1723 -2.54203 -3.14902 0
M  V30 17731 H 1721.57 -1.58068 -2.69691 0
M  V30 17732 H 1720.79 -3.69117 -1.38369 0
M  V30 17733 H 1722.08 -4.58003 -2.2161 0
M  V30 17734 H 1721.47 -2.85073 -4.8862 0
M  V30 17735 H 1720.03 -3.61087 -5.42641 0
M  V30 17736 N 1723.46 0.290824 -1.54893 0
M  V30 17737 C 1724.71 1.02475 -1.74657 0
M  V30 17738 C 1725.04 1.86915 -0.537885 0
M  V30 17739 O 1724.29 1.89722 0.479998 0
M  V30 17740 C 1724.59 1.95145 -2.99422 0
M  V30 17741 C 1724.26 1.26599 -4.32763 0
M  V30 17742 C 1722.92 1.07639 -4.69007 0
M  V30 17743 C 1725.27 0.776794 -5.15379 0
M  V30 17744 C 1722.6 0.38458 -5.85438 0
M  V30 17745 C 1724.95 0.0986614 -6.32523 0
M  V30 17746 C 1723.62 -0.102812 -6.67421 0
M  V30 17747 H 1722.89 0.374982 -0.639116 0
M  V30 17748 H 1725.53 0.298659 -1.89157 0
M  V30 17749 H 1723.84 2.74316 -2.79746 0
M  V30 17750 H 1725.54 2.5202 -3.11908 0
M  V30 17751 H 1722.13 1.42365 -4.04265 0
M  V30 17752 H 1726.31 0.91096 -4.87868 0
M  V30 17753 H 1721.57 0.217593 -6.11013 0
M  V30 17754 H 1725.74 -0.28825 -6.95803 0
M  V30 17755 H 1723.37 -0.640872 -7.57494 0
M  V30 17756 N 1724.94 1.47523 0.554506 0
M  V30 17757 C 1726.35 1.48114 1.13662 0
M  V30 17758 C 1726.7 0.237321 1.94759 0
M  V30 17759 O 1725.83 -0.657558 2.06168 0
M  V30 17760 C 1726.42 2.68366 2.06797 0
M  V30 17761 C 1724.98 2.71908 2.60274 0
M  V30 17762 C 1724.13 2.41258 1.3671 0
M  V30 17763 H 1727.08 1.54994 0.34097 0
M  V30 17764 H 1727.1 2.4549 2.90714 0
M  V30 17765 H 1726.61 3.58877 1.47745 0
M  V30 17766 H 1724.72 1.85543 3.23117 0
M  V30 17767 H 1724.83 3.72673 3.01084 0
M  V30 17768 H 1723.19 1.91897 1.67474 0
M  V30 17769 H 1723.98 3.3398 0.794476 0
M  V30 17770 N 1726.42 -0.801453 1.357 0
M  V30 17771 C 1727.65 -1.58771 1.32194 0
M  V30 17772 C 1728.06 -1.88927 -0.101529 0
M  V30 17773 O 1727.4 -1.49649 -1.0654 0
M  V30 17774 C 1727.46 -2.94186 2.06627 0
M  V30 17775 C 1727.13 -2.86819 3.55786 0
M  V30 17776 C 1728.12 -2.59898 4.50276 0
M  V30 17777 C 1725.81 -3.05775 3.98506 0
M  V30 17778 C 1727.8 -2.52017 5.85462 0
M  V30 17779 C 1725.49 -2.97516 5.33786 0
M  V30 17780 C 1726.49 -2.70673 6.27076 0
M  V30 17781 O 1726.18 -2.62387 7.59874 0
M  V30 17782 H 1725.91 -0.499518 0.455475 0
M  V30 17783 H 1728.46 -1.00358 1.79213 0
M  V30 17784 H 1726.69 -3.54602 1.54253 0
M  V30 17785 H 1728.38 -3.55368 1.96133 0
M  V30 17786 H 1729.15 -2.44968 4.18588 0
M  V30 17787 H 1725.03 -3.25678 3.26274 0
M  V30 17788 H 1728.57 -2.30985 6.58249 0
M  V30 17789 H 1724.47 -3.12006 5.65086 0
M  V30 17790 H 1725.24 -2.77957 7.69859 0
M  V30 17791 N 1727.9 -1.19782 -1.02421 0
M  V30 17792 C 1729.31 -1.00493 -1.57347 0
M  V30 17793 C 1729.66 0.440854 -1.91183 0
M  V30 17794 O 1728.79 1.32102 -1.714 0
M  V30 17795 C 1729.38 -1.8179 -2.85898 0
M  V30 17796 C 1727.94 -1.66889 -3.3738 0
M  V30 17797 C 1727.09 -1.80199 -2.10769 0
M  V30 17798 H 1730.04 -1.34085 -0.848938 0
M  V30 17799 H 1730.06 -1.31676 -3.5699 0
M  V30 17800 H 1729.57 -2.87011 -2.6124 0
M  V30 17801 H 1727.67 -0.64274 -3.67014 0
M  V30 17802 H 1727.78 -2.47705 -4.10096 0
M  V30 17803 H 1726.15 -1.23308 -2.22862 0
M  V30 17804 H 1726.93 -2.86889 -1.88546 0
M  V30 17805 N 1729.38 1.21606 -1.00248 0
M  V30 17806 C 1730.79 1.72365 -0.717446 0
M  V30 17807 C 1731.14 1.80668 0.765078 0
M  V30 17808 O 1730.26 1.45951 1.59772 0
M  V30 17809 C 1730.86 3.13046 -1.29567 0
M  V30 17810 C 1729.42 3.61172 -1.05981 0
M  V30 17811 C 1728.57 2.38775 -1.41003 0
M  V30 17812 H 1731.52 1.06818 -1.17369 0
M  V30 17813 H 1731.54 3.74392 -0.679054 0
M  V30 17814 H 1731.05 3.0697 -2.37467 0
M  V30 17815 H 1729.15 3.726 0.00214307 0
M  V30 17816 H 1729.26 4.46778 -1.72993 0
M  V30 17817 H 1727.63 2.40839 -0.82877 0
M  V30 17818 H 1728.41 2.35352 -2.49928 0
M  V30 17819 N 1730.86 0.776895 1.37121 0
M  V30 17820 C 1731.8 0.154521 2.32086 0
M  V30 17821 C 1732.8 -0.679155 1.5519 0
M  V30 17822 O 1734 -0.575641 1.70547 0
M  V30 17823 H 1730.38 0.0311849 0.751353 0
M  V30 17824 H 1732.35 0.971125 2.82156 0
M  V30 17825 C 1731.1 -0.706165 3.40454 0
M  V30 17826 H 1730.42 -0.0740341 3.99731 0
M  V30 17827 H 1731.86 -1.10853 4.09253 0
M  V30 17828 C 1730.32 -1.85901 2.80967 0
M  V30 17829 O 1730.85 -2.95482 2.72128 0
M  V30 17830 N 1729.06 -1.66122 2.38436 0
M  V30 17831 H 1728.6 -0.769915 2.45825 0
M  V30 17832 H 1728.56 -2.43422 1.9898 0
M  V30 17833 N 1732.33 -1.48497 0.527859 0
M  V30 17834 C 1733.56 -2.066 -0.00302155 0
M  V30 17835 C 1733.97 -1.38505 -1.28892 0
M  V30 17836 O 1733.31 -0.465745 -1.77698 0
M  V30 17837 C 1733.38 -3.58249 -0.2997 0
M  V30 17838 C 1733.04 -4.48202 0.892405 0
M  V30 17839 C 1734.04 -4.88105 1.79023 0
M  V30 17840 C 1731.72 -4.90134 1.0988 0
M  V30 17841 C 1733.72 -5.68707 2.87838 0
M  V30 17842 C 1731.4 -5.70507 2.19009 0
M  V30 17843 C 1732.4 -6.09701 3.07821 0
M  V30 17844 O 1732.09 -6.88461 4.15062 0
M  V30 17845 H 1731.82 -0.675359 0.029422 0
M  V30 17846 H 1734.38 -1.91903 0.732286 0
M  V30 17847 H 1732.61 -3.71051 -1.08895 0
M  V30 17848 H 1734.29 -3.98483 -0.772407 0
M  V30 17849 H 1735.06 -4.56333 1.64271 0
M  V30 17850 H 1730.94 -4.59112 0.416808 0
M  V30 17851 H 1734.48 -5.99219 3.57187 0
M  V30 17852 H 1730.38 -6.01692 2.33746 0
M  V30 17853 H 1731.15 -7.06812 4.12746 0
M  V30 17854 N 1733.81 -0.262893 -1.55392 0
M  V30 17855 C 1735.06 0.35666 -1.98928 0
M  V30 17856 C 1735.38 1.5729 -1.1526 0
M  V30 17857 O 1734.65 1.94435 -0.239164 0
M  V30 17858 H 1733.23 0.134768 -0.734742 0
M  V30 17859 H 1735.89 -0.365394 -1.91444 0
M  V30 17860 H 1734.99 0.654895 -3.05152 0
M  V30 17861 N 1735.29 1.57597 0.0100073 0
M  V30 17862 C 1736.52 1.94402 0.708192 0
M  V30 17863 C 1736.93 0.864205 1.6786 0
M  V30 17864 O 1736.29 -0.157763 1.81817 0
M  V30 17865 C 1736.34 3.312 1.44876 0
M  V30 17866 O 1736.06 4.35035 0.517281 0
M  V30 17867 C 1737.56 3.82404 2.24237 0
M  V30 17868 H 1734.78 0.64116 0.197877 0
M  V30 17869 H 1737.33 2.04464 -0.0381373 0
M  V30 17870 H 1735.48 3.22476 2.1468 0
M  V30 17871 H 1735.9 5.14113 1.03868 0
M  V30 17872 H 1737.37 4.80578 2.71567 0
M  V30 17873 H 1737.85 3.14587 3.06483 0
M  V30 17874 H 1738.45 3.94271 1.59469 0
M  V30 17875 N 1736.77 -0.282606 1.55045 0
M  V30 17876 C 1737.72 -1.36902 1.88044 0
M  V30 17877 C 1738.71 -1.51603 0.755845 0
M  V30 17878 O 1739.92 -1.53501 0.940074 0
M  V30 17879 H 1736.29 -0.457666 0.596696 0
M  V30 17880 H 1738.26 -1.06317 2.78818 0
M  V30 17881 C 1737.01 -2.72426 2.16054 0
M  V30 17882 H 1736.33 -2.61903 3.02071 0
M  V30 17883 H 1737.77 -3.47409 2.43071 0
M  V30 17884 C 1736.23 -3.22784 0.964996 0
M  V30 17885 O 1736.76 -4.01228 0.194759 0
M  V30 17886 N 1734.97 -2.80341 0.765322 0
M  V30 17887 H 1734.52 -2.16665 1.39335 0
M  V30 17888 H 1734.47 -3.14383 -0.0330026 0
M  V30 17889 N 1738.25 -1.47815 -0.546675 0
M  V30 17890 C 1739.66 -1.48715 -1.12875 0
M  V30 17891 C 1740.01 -0.247647 -1.94631 0
M  V30 17892 O 1739.13 0.646615 -2.06514 0
M  V30 17893 C 1739.73 -2.69459 -2.05371 0
M  V30 17894 C 1738.29 -2.73285 -2.58829 0
M  V30 17895 C 1737.43 -2.4198 -1.35429 0
M  V30 17896 H 1740.38 -1.55172 -0.332746 0
M  V30 17897 H 1740.41 -2.47028 -2.89408 0
M  V30 17898 H 1739.92 -3.59656 -1.4584 0
M  V30 17899 H 1738.02 -1.87254 -3.22128 0
M  V30 17900 H 1738.13 -3.74265 -2.99103 0
M  V30 17901 H 1736.5 -1.92783 -1.66454 0
M  V30 17902 H 1737.28 -3.34397 -0.776753 0
M  V30 17903 N 1739.72 0.794246 -1.36123 0
M  V30 17904 C 1740.97 1.54885 -1.29827 0
M  V30 17905 C 1741.29 1.94608 0.123517 0
M  V30 17906 O 1740.56 1.6457 1.06272 0
M  V30 17907 H 1739.14 0.574398 -0.477573 0
M  V30 17908 H 1741.8 0.946658 -1.70365 0
M  V30 17909 H 1740.9 2.45863 -1.92244 0
M  V30 17910 N 1741.2 1.20323 1.01785 0
M  V30 17911 C 1742.43 1.03821 1.78966 0
M  V30 17912 C 1742.84 -0.412622 1.84236 0
M  V30 17913 O 1742.2 -1.2865 1.29443 0
M  V30 17914 C 1742.25 1.61352 3.23493 0
M  V30 17915 O 1741.97 3.00758 3.18553 0
M  V30 17916 C 1743.47 1.49786 4.17228 0
M  V30 17917 H 1740.69 0.365291 0.562853 0
M  V30 17918 H 1743.24 1.59383 1.2813 0
M  V30 17919 H 1741.39 1.09913 3.71481 0
M  V30 17920 H 1741.81 3.28034 4.09261 0
M  V30 17921 H 1743.28 1.94802 5.16484 0
M  V30 17922 H 1743.76 0.450143 4.36887 0
M  V30 17923 H 1744.36 2.00409 3.75122 0
M  V30 17924 N 1742.68 -1.21073 1.00892 0
M  V30 17925 C 1744.09 -1.71982 0.726576 0
M  V30 17926 C 1744.44 -1.81071 -0.755486 0
M  V30 17927 O 1743.57 -1.46797 -1.58996 0
M  V30 17928 C 1744.16 -3.12354 1.31226 0
M  V30 17929 C 1742.72 -3.60605 1.07895 0
M  V30 17930 C 1741.87 -2.38024 1.42267 0
M  V30 17931 H 1744.82 -1.06195 1.17934 0
M  V30 17932 H 1744.84 -3.74026 0.6989 0
M  V30 17933 H 1744.35 -3.05707 2.39092 0
M  V30 17934 H 1742.45 -3.72596 0.0176168 0
M  V30 17935 H 1742.57 -4.45854 1.7536 0
M  V30 17936 H 1740.93 -2.40396 0.841531 0
M  V30 17937 H 1741.71 -2.34024 2.51173 0
M  V30 17938 N 1744.16 -0.784156 -1.36707 0
M  V30 17939 C 1745.57 -0.417967 -1.81961 0
M  V30 17940 C 1745.92 1.05746 -1.65264 0
M  V30 17941 O 1745.05 1.82003 -1.17064 0
M  V30 17942 C 1745.64 -0.751869 -3.30352 0
M  V30 17943 C 1744.2 -0.438578 -3.73836 0
M  V30 17944 C 1743.35 -0.989262 -2.59054 0
M  V30 17945 H 1746.3 -0.977754 -1.25003 0
M  V30 17946 H 1746.32 -0.041034 -3.80478 0
M  V30 17947 H 1745.83 -1.82576 -3.42473 0
M  V30 17948 H 1743.93 0.627493 -3.67278 0
M  V30 17949 H 1744.04 -0.955508 -4.69475 0
M  V30 17950 H 1742.41 -0.412783 -2.51333 0
M  V30 17951 H 1743.19 -2.06881 -2.73962 0
M  V30 17952 N 1745.64 1.48215 -0.535727 0
M  V30 17953 C 1746.6 2.28206 0.213212 0
M  V30 17954 C 1747.6 1.3571 0.862522 0
M  V30 17955 O 1748.79 1.58547 0.721688 0
M  V30 17956 C 1745.92 3.1476 1.30917 0
M  V30 17957 H 1747.11 2.95884 -0.489163 0
M  V30 17958 H 1744.67 1.53551 -0.291872 0
M  V30 17959 H 1745.4 2.51726 2.04462 0
M  V30 17960 H 1745.19 3.82806 0.848633 0
M  V30 17961 H 1746.68 3.75085 1.83579 0
M  V30 17962 N 1747.11 0.27113 1.5525 0
M  V30 17963 C 1748.34 -0.353138 2.04371 0
M  V30 17964 C 1748.76 -1.48978 1.14835 0
M  V30 17965 O 1748.12 -1.8071 0.146138 0
M  V30 17966 C 1748.17 -0.815425 3.51259 0
M  V30 17967 O 1747.27 -1.92302 3.6482 0
M  V30 17968 H 1746.62 -0.0736207 0.659906 0
M  V30 17969 H 1749.15 0.404266 2.00566 0
M  V30 17970 H 1749.16 -1.11224 3.92547 0
M  V30 17971 H 1747.83 0.0162079 4.15897 0
M  V30 17972 H 1746.41 -1.62904 3.35435 0
M  V30 17973 N 1748.59 -1.576 -0.00164943 0
M  V30 17974 C 1749.82 -1.94775 -0.697872 0
M  V30 17975 C 1750.24 -0.873094 -1.67399 0
M  V30 17976 O 1749.59 0.148119 -1.81898 0
M  V30 17977 C 1749.64 -3.31963 -1.43117 0
M  V30 17978 O 1749.36 -4.35304 -0.494203 0
M  V30 17979 C 1750.87 -3.83588 -2.22206 0
M  V30 17980 H 1748.09 -0.6422 -0.194474 0
M  V30 17981 H 1750.63 -2.04441 0.04898 0
M  V30 17982 H 1748.78 -3.2361 -2.12967 0
M  V30 17983 H 1749.2 -5.14656 -1.0114 0
M  V30 17984 H 1750.67 -4.82012 -2.69014 0
M  V30 17985 H 1751.15 -3.16208 -3.0481 0
M  V30 17986 H 1751.76 -3.95111 -1.57376 0
M  V30 17987 N 1750.07 0.274379 -1.55193 0
M  V30 17988 C 1751.3 1.02871 -1.8009 0
M  V30 17989 C 1751.72 1.79202 -0.571676 0
M  V30 17990 O 1751.08 1.74867 0.478679 0
M  V30 17991 C 1751.13 1.96406 -3.02418 0
M  V30 17992 O 1750.23 3.05154 -2.77408 0
M  V30 17993 H 1749.57 0.294181 -0.595276 0
M  V30 17994 H 1752.1 0.303708 -2.02333 0
M  V30 17995 H 1752.11 2.38385 -3.31114 0
M  V30 17996 H 1750.79 1.40261 -3.91535 0
M  V30 17997 H 1749.36 2.675 -2.59805 0
M  V30 17998 N 1751.55 1.48103 0.538828 0
M  V30 17999 C 1752.96 1.49312 1.12085 0
M  V30 18000 C 1753.31 0.257965 1.94497 0
M  V30 18001 O 1752.44 -0.635654 2.06854 0
M  V30 18002 C 1753.03 2.70545 2.03939 0
M  V30 18003 C 1751.59 2.74654 2.57376 0
M  V30 18004 C 1750.74 2.42695 1.34144 0
M  V30 18005 H 1753.69 1.55347 0.324512 0
M  V30 18006 H 1753.71 2.4856 2.88094 0
M  V30 18007 H 1753.22 3.60424 1.4393 0
M  V30 18008 H 1751.32 1.8896 3.21131 0
M  V30 18009 H 1751.43 3.75846 2.97114 0
M  V30 18010 H 1749.8 1.93663 1.65429 0
M  V30 18011 H 1750.58 3.34804 0.759009 0
M  V30 18012 N 1753.03 -0.787016 1.36542 0
M  V30 18013 C 1754.27 -1.54499 1.30906 0
M  V30 18014 C 1754.6 -1.94183 -0.110963 0
M  V30 18015 O 1753.86 -1.63149 -1.08079 0
M  V30 18016 C 1754.16 -2.83235 2.17974 0
M  V30 18017 C 1753.82 -2.62677 3.66485 0
M  V30 18018 C 1752.48 -2.56779 4.06962 0
M  V30 18019 C 1754.84 -2.43853 4.60636 0
M  V30 18020 C 1752.16 -2.30026 5.39727 0
M  V30 18021 C 1754.52 -2.18626 5.93621 0
M  V30 18022 C 1753.18 -2.11162 6.33219 0
M  V30 18023 H 1752.45 -0.565352 0.479017 0
M  V30 18024 H 1755.1 -0.907794 1.68616 0
M  V30 18025 H 1753.4 -3.51435 1.73208 0
M  V30 18026 H 1755.1 -3.41038 2.10936 0
M  V30 18027 H 1751.69 -2.68125 3.34376 0
M  V30 18028 H 1755.87 -2.4741 4.30235 0
M  V30 18029 H 1751.13 -2.22731 5.69386 0
M  V30 18030 H 1755.3 -2.03056 6.66139 0
M  V30 18031 H 1752.93 -1.90195 7.36023 0
M  V30 18032 N 1754.5 -1.20861 -1.01145 0
M  V30 18033 C 1755.73 -1.04843 -1.78949 0
M  V30 18034 C 1756.15 0.397676 -1.83848 0
M  V30 18035 O 1755.51 1.28663 -1.27733 0
M  V30 18036 C 1755.56 -1.64267 -3.21012 0
M  V30 18037 O 1754.66 -0.883773 -4.02819 0
M  V30 18038 H 1754.01 -0.36941 -0.551754 0
M  V30 18039 H 1756.54 -1.60266 -1.27185 0
M  V30 18040 H 1756.55 -1.68218 -3.71708 0
M  V30 18041 H 1755.22 -2.69509 -3.16761 0
M  V30 18042 H 1753.8 -0.918866 -3.61402 0
M  V30 18043 N 1755.98 1.20536 -1.01532 0
M  V30 18044 C 1756.91 2.22683 -0.542658 0
M  V30 18045 C 1757.93 1.5844 0.374267 0
M  V30 18046 O 1759.12 1.77661 0.172818 0
M  V30 18047 C 1756.22 3.38117 0.230168 0
M  V30 18048 C 1755.39 4.3195 -0.688356 0
M  V30 18049 C 1754.45 5.26187 0.0366686 0
M  V30 18050 O 1753.47 5.66182 -0.585418 0
M  V30 18051 N 1754.68 5.65481 1.31193 0
M  V30 18052 H 1757.44 2.63864 -1.42111 0
M  V30 18053 H 1755 1.35065 -0.892703 0
M  V30 18054 H 1756.99 3.98164 0.724408 0
M  V30 18055 H 1755.56 2.95837 1.00991 0
M  V30 18056 H 1754.78 3.69889 -1.36292 0
M  V30 18057 H 1756.07 4.91564 -1.3131 0
M  V30 18058 H 1755.47 5.34998 1.83829 0
M  V30 18059 H 1754.03 6.27842 1.75092 0
M  V30 18060 N 1757.46 0.791395 1.36289 0
M  V30 18061 C 1758.39 0.205419 2.32595 0
M  V30 18062 C 1759.37 -0.660696 1.56744 0
M  V30 18063 O 1760.56 -0.594111 1.84889 0
M  V30 18064 C 1757.69 -0.659018 3.4099 0
M  V30 18065 C 1756.64 0.107364 4.27865 0
M  V30 18066 C 1755.97 -0.877795 5.27446 0
M  V30 18067 C 1757.27 1.29769 5.05922 0
M  V30 18068 H 1758.96 1.00999 2.8185 0
M  V30 18069 H 1756.51 0.487122 1.35511 0
M  V30 18070 H 1758.46 -1.07891 4.07354 0
M  V30 18071 H 1757.18 -1.49632 2.90307 0
M  V30 18072 H 1755.84 0.508253 3.6306 0
M  V30 18073 H 1755.49 -1.71018 4.73035 0
M  V30 18074 H 1755.19 -0.369429 5.86438 0
M  V30 18075 H 1756.71 -1.29621 5.96683 0
M  V30 18076 H 1758.13 0.953463 5.65316 0
M  V30 18077 H 1756.53 1.73949 5.74336 0
M  V30 18078 H 1757.6 2.09205 4.37449 0
M  V30 18079 N 1758.94 -1.47929 0.54358 0
M  V30 18080 C 1759.9 -2.28316 -0.201107 0
M  V30 18081 C 1760.9 -1.36165 -0.855313 0
M  V30 18082 O 1762.09 -1.58928 -0.71327 0
M  V30 18083 C 1759.22 -3.1545 -1.29245 0
M  V30 18084 H 1760.42 -2.9562 0.504848 0
M  V30 18085 H 1757.97 -1.53394 0.300011 0
M  V30 18086 H 1758.71 -2.52807 -2.03124 0
M  V30 18087 H 1758.49 -3.83251 -0.82832 0
M  V30 18088 H 1759.98 -3.76053 -1.81587 0
M  V30 18089 N 1760.42 -0.27936 -1.55104 0
M  V30 18090 C 1761.38 0.593214 -2.2139 0
M  V30 18091 C 1762.38 1.07807 -1.19308 0
M  V30 18092 O 1763.57 0.97756 -1.44185 0
M  V30 18093 C 1760.7 1.81889 -2.88321 0
M  V30 18094 H 1761.9 0.0143941 -2.99897 0
M  V30 18095 H 1759.45 -0.0300083 -1.56271 0
M  V30 18096 H 1760.18 2.43811 -2.13838 0
M  V30 18097 H 1759.97 1.4791 -3.63132 0
M  V30 18098 H 1761.46 2.4393 -3.38951 0
M  V30 18099 N 1761.9 1.57599 -0.0067085 0
M  V30 18100 C 1762.84 2.09973 1.00071 0
M  V30 18101 C 1763.84 1.02121 1.35158 0
M  V30 18102 O 1765.04 1.20579 1.33644 0
M  V30 18103 H 1761.42 0.670547 0.340398 0
M  V30 18104 H 1763.39 2.93593 0.533471 0
M  V30 18105 C 1762.14 2.62376 2.28153 0
M  V30 18106 H 1761.46 3.45002 2.02024 0
M  V30 18107 H 1762.9 3.02694 2.96905 0
M  V30 18108 C 1761.36 1.54093 2.99595 0
M  V30 18109 O 1761.89 0.927722 3.9084 0
M  V30 18110 N 1760.1 1.26676 2.61537 0
M  V30 18111 H 1759.64 1.76728 1.87417 0
M  V30 18112 H 1759.6 0.544464 3.0965 0
M  V30 18113 N 1763.37 -0.266145 1.55336 0
M  V30 18114 C 1764.78 -0.836683 1.66903 0
M  V30 18115 C 1765.14 -1.86781 0.600597 0
M  V30 18116 O 1764.26 -2.14872 -0.256674 0
M  V30 18117 C 1764.86 -1.52436 3.0257 0
M  V30 18118 C 1763.41 -2.04284 3.1614 0
M  V30 18119 C 1762.56 -0.887248 2.62723 0
M  V30 18120 H 1765.51 -0.0423472 1.58643 0
M  V30 18121 H 1765.53 -2.39163 2.95941 0
M  V30 18122 H 1765.05 -0.773649 3.80311 0
M  V30 18123 H 1763.15 -2.82296 2.43187 0
M  V30 18124 H 1763.26 -2.25345 4.22796 0
M  V30 18125 H 1761.62 -1.28251 2.20054 0
M  V30 18126 H 1762.41 -0.14993 3.42972 0
M  V30 18127 N 1764.85 -1.48386 -0.530967 0
M  V30 18128 C 1765.76 -1.65516 -1.66257 0
M  V30 18129 C 1766.78 -0.5377 -1.65483 0
M  V30 18130 O 1767.95 -0.808642 -1.84453 0
M  V30 18131 C 1765.02 -1.68999 -3.02722 0
M  V30 18132 C 1764.08 -2.92365 -3.14358 0
M  V30 18133 C 1763.31 -2.95672 -4.44313 0
M  V30 18134 O 1763.54 -2.07417 -5.31352 0
M  V30 18135 O 1762.47 -3.87831 -4.60294 0
M  V30 18136 H 1766.3 -2.61321 -1.54742 0
M  V30 18137 H 1763.88 -1.31776 -0.703946 0
M  V30 18138 H 1765.76 -1.73816 -3.83883 0
M  V30 18139 H 1764.44 -0.763675 -3.14563 0
M  V30 18140 H 1763.34 -2.93081 -2.32496 0
M  V30 18141 H 1764.68 -3.84378 -3.07433 0
M  V30 18142 N 1766.33 0.779763 -1.36958 0
M  V30 18143 C 1767.29 1.87439 -1.31906 0
M  V30 18144 C 1768.29 1.59222 -0.224739 0
M  V30 18145 O 1769.48 1.67453 -0.480109 0
M  V30 18146 C 1766.61 3.24419 -1.04716 0
M  V30 18147 H 1767.81 1.93333 -2.29265 0
M  V30 18148 H 1765.36 0.978634 -1.21871 0
M  V30 18149 H 1766.1 3.24205 -0.0785442 0
M  V30 18150 H 1765.88 3.4629 -1.83917 0
M  V30 18151 H 1767.37 4.04491 -1.0381 0
M  V30 18152 N 1767.81 1.21396 1.00503 0
M  V30 18153 C 1769.03 1.05791 1.7839 0
M  V30 18154 C 1769.46 -0.387921 1.84056 0
M  V30 18155 O 1768.82 -1.27983 1.28413 0
M  V30 18156 C 1768.86 1.65967 3.20137 0
M  V30 18157 O 1767.97 0.905123 4.02345 0
M  V30 18158 H 1767.31 0.372331 0.549787 0
M  V30 18159 H 1769.84 1.60938 1.26334 0
M  V30 18160 H 1769.85 1.70186 3.70811 0
M  V30 18161 H 1768.52 2.71185 3.15327 0
M  V30 18162 H 1767.1 0.938019 3.60909 0
M  V30 18163 N 1769.29 -1.19996 1.0217 0
M  V30 18164 C 1770.22 -2.25206 0.616818 0
M  V30 18165 C 1771.2 -1.66013 -0.370653 0
M  V30 18166 O 1772.38 -1.92519 -0.254956 0
M  V30 18167 C 1769.51 -3.47276 -0.0405129 0
M  V30 18168 C 1768.47 -4.19096 0.868479 0
M  V30 18169 C 1767.79 -5.34645 0.0766447 0
M  V30 18170 C 1769.09 -4.7468 2.1789 0
M  V30 18171 H 1770.79 -2.59328 1.49632 0
M  V30 18172 H 1768.33 -1.24655 0.720917 0
M  V30 18173 H 1770.28 -4.20063 -0.335355 0
M  V30 18174 H 1769.01 -3.12333 -0.954759 0
M  V30 18175 H 1767.67 -3.48181 1.1474 0
M  V30 18176 H 1767.32 -4.95946 -0.839411 0
M  V30 18177 H 1767.02 -5.83628 0.682041 0
M  V30 18178 H 1768.54 -6.10233 -0.211624 0
M  V30 18179 H 1769.95 -5.39259 1.94608 0
M  V30 18180 H 1768.35 -5.34121 2.7356 0
M  V30 18181 H 1769.42 -3.93141 2.83845 0
M  V30 18182 N 1770.76 -0.798611 -1.35867 0
M  V30 18183 C 1771.73 -0.209177 -2.28243 0
M  V30 18184 C 1772.73 0.598842 -1.49233 0
M  V30 18185 O 1773.92 0.418491 -1.69098 0
M  V30 18186 C 1771.05 0.709336 -3.33438 0
M  V30 18187 H 1772.24 -1.02382 -2.81883 0
M  V30 18188 H 1769.79 -0.568687 -1.45587 0
M  V30 18189 H 1770.53 1.54797 -2.84971 0
M  V30 18190 H 1770.31 0.131756 -3.91879 0
M  V30 18191 H 1771.8 1.11632 -4.02403 0
M  V30 18192 N 1772.24 1.47639 -0.551417 0
M  V30 18193 C 1773.19 2.31626 0.212654 0
M  V30 18194 C 1774.18 1.42567 0.914925 0
M  V30 18195 O 1775.39 1.59363 0.836869 0
M  V30 18196 H 1771.76 0.746898 0.0874493 0
M  V30 18197 H 1773.74 2.93923 -0.514976 0
M  V30 18198 C 1772.48 3.25098 1.23316 0
M  V30 18199 H 1771.81 3.93585 0.702196 0
M  V30 18200 H 1773.25 3.86707 1.73878 0
M  V30 18201 C 1771.71 2.48209 2.27802 0
M  V30 18202 O 1772.24 2.22235 3.34626 0
M  V30 18203 N 1770.44 2.09321 2.01577 0
M  V30 18204 H 1769.99 2.30645 1.14719 0
M  V30 18205 H 1769.95 1.58191 2.71704 0
M  V30 18206 N 1773.72 0.287581 1.54954 0
M  V30 18207 C 1775.14 -0.0662092 1.59463 0
M  V30 18208 C 1775.34 -1.53556 1.30471 0
M  V30 18209 O 1774.39 -2.28632 1.07161 0
M  V30 18210 C 1775.71 0.319651 2.98996 0
M  V30 18211 C 1777.25 0.2673 3.11857 0
M  V30 18212 C 1777.73 0.627784 4.53677 0
M  V30 18213 N 1779.22 0.579808 4.59557 0
M  V30 18214 C 1779.95 0.831377 5.67341 0
M  V30 18215 N 1779.45 1.14821 6.83219 0
M  V30 18216 N 1781.24 0.759337 5.56947 0
M  V30 18217 H 1773.39 1.24534 1.72062 0
M  V30 18218 H 1775.66 0.503969 0.802944 0
M  V30 18219 H 1775.36 1.34201 3.25089 0
M  V30 18220 H 1775.24 -0.333373 3.75724 0
M  V30 18221 H 1777.62 -0.745794 2.8552 0
M  V30 18222 H 1777.71 0.954759 2.37314 0
M  V30 18223 H 1777.35 1.63862 4.80741 0
M  V30 18224 H 1777.28 -0.0816007 5.26537 0
M  V30 18225 H 1779.77 0.34531 3.76319 0
M  V30 18226 H 1780.08 1.32651 7.6133 0
M  V30 18227 H 1778.43 1.18612 6.84804 0
M  V30 18228 H 1781.62 0.511563 4.65296 0
M  V30 18229 H 1781.79 0.95877 6.40868 0
M  V30 18230 N 1775.2 -1.57593 0.0150662 0
M  V30 18231 C 1776.15 -2.10501 -0.989557 0
M  V30 18232 C 1777.14 -1.02836 -1.34615 0
M  V30 18233 O 1778.35 -1.21286 -1.33002 0
M  V30 18234 H 1774.72 -0.672343 -0.336838 0
M  V30 18235 H 1776.69 -2.93871 -0.517893 0
M  V30 18236 C 1775.44 -2.63583 -2.26759 0
M  V30 18237 H 1774.76 -3.46069 -2.00191 0
M  V30 18238 H 1776.2 -3.04264 -2.95295 0
M  V30 18239 C 1774.66 -1.5568 -2.98773 0
M  V30 18240 O 1775.19 -0.948437 -3.90343 0
M  V30 18241 N 1773.4 -1.28062 -2.60861 0
M  V30 18242 H 1772.95 -1.77719 -1.86477 0
M  V30 18243 H 1772.9 -0.560878 -3.09357 0
M  V30 18244 N 1776.68 0.257904 -1.55475 0
M  V30 18245 C 1777.9 1.00955 -1.81171 0
M  V30 18246 C 1778.33 1.78586 -0.590651 0
M  V30 18247 O 1777.68 1.75365 0.460105 0
M  V30 18248 C 1777.73 1.93188 -3.04485 0
M  V30 18249 O 1776.84 3.02194 -2.80628 0
M  V30 18250 H 1776.18 0.28785 -0.598363 0
M  V30 18251 H 1778.71 0.28223 -2.02644 0
M  V30 18252 H 1778.72 2.3486 -3.33624 0
M  V30 18253 H 1777.39 1.361 -3.93001 0
M  V30 18254 H 1775.97 2.64729 -2.62627 0
M  V30 18255 N 1778.15 1.48666 0.52309 0
M  V30 18256 C 1779.09 1.58279 1.64387 0
M  V30 18257 C 1780.07 0.432873 1.56732 0
M  V30 18258 O 1781.25 0.645422 1.77106 0
M  V30 18259 C 1778.38 1.5172 3.02818 0
M  V30 18260 C 1777.42 2.71637 3.28809 0
M  V30 18261 S 1778.26 4.3354 3.14329 0
M  V30 18262 C 1779.41 4.29591 4.55195 0
M  V30 18263 H 1779.64 2.53093 1.55984 0
M  V30 18264 H 1777.18 1.37284 0.70658 0
M  V30 18265 H 1779.14 1.48623 3.82651 0
M  V30 18266 H 1777.8 0.582311 3.08655 0
M  V30 18267 H 1776.99 2.63206 4.29812 0
M  V30 18268 H 1776.59 2.72033 2.56659 0
M  V30 18269 H 1778.88 3.99949 5.46852 0
M  V30 18270 H 1779.83 5.30797 4.68679 0
M  V30 18271 H 1780.23 3.59964 4.3484 0
M  V30 18272 N 1779.63 -0.772489 1.37369 0
M  V30 18273 C 1780.88 -1.53329 1.32733 0
M  V30 18274 C 1781.21 -1.93999 -0.0882815 0
M  V30 18275 O 1780.49 -1.64014 -1.04545 0
M  V30 18276 C 1780.77 -2.79885 2.26575 0
M  V30 18277 C 1780.62 -2.45474 3.76912 0
M  V30 18278 C 1781.94 -3.81812 2.18878 0
M  V30 18279 H 1779.06 -0.55625 0.483482 0
M  V30 18280 H 1781.7 -0.886251 1.68064 0
M  V30 18281 H 1779.85 -3.35097 1.96576 0
M  V30 18282 H 1781.52 -1.96182 4.17505 0
M  V30 18283 H 1779.77 -1.78181 3.95517 0
M  V30 18284 H 1780.44 -3.35937 4.38007 0
M  V30 18285 H 1782.91 -3.36091 2.4532 0
M  V30 18286 H 1781.79 -4.68087 2.86681 0
M  V30 18287 H 1782.05 -4.26021 1.18146 0
M  V30 18288 N 1781.11 -1.21927 -0.998575 0
M  V30 18289 C 1782.34 -1.06735 -1.77827 0
M  V30 18290 C 1782.76 0.378154 -1.8426 0
M  V30 18291 O 1782.12 1.27301 -1.2909 0
M  V30 18292 C 1782.17 -1.67662 -3.19252 0
M  V30 18293 O 1781.27 -0.926448 -4.01859 0
M  V30 18294 H 1780.61 -0.375241 -0.547805 0
M  V30 18295 H 1783.14 -1.61605 -1.25478 0
M  V30 18296 H 1783.15 -1.72151 -3.69903 0
M  V30 18297 H 1781.83 -2.72854 -3.13885 0
M  V30 18298 H 1780.4 -0.957145 -3.60407 0
M  V30 18299 N 1782.59 1.19452 -1.02805 0
M  V30 18300 C 1784 1.41147 -0.744969 0
M  V30 18301 C 1784.2 1.90008 0.670765 0
M  V30 18302 O 1783.26 2.0763 1.43688 0
M  V30 18303 C 1784.57 2.42328 -1.78039 0
M  V30 18304 C 1786.12 2.56076 -1.79984 0
M  V30 18305 C 1786.6 3.6051 -2.82483 0
M  V30 18306 N 1788.09 3.68005 -2.81294 0
M  V30 18307 C 1788.82 4.48502 -3.57258 0
M  V30 18308 N 1788.32 5.32711 -4.42934 0
M  V30 18309 N 1790.11 4.43144 -3.45803 0
M  V30 18310 H 1782.26 0.860569 -1.94185 0
M  V30 18311 H 1784.53 0.44042 -0.839484 0
M  V30 18312 H 1784.23 2.13448 -2.79523 0
M  V30 18313 H 1784.11 3.41491 -1.60199 0
M  V30 18314 H 1786.49 2.84279 -0.791782 0
M  V30 18315 H 1786.57 1.57069 -2.01898 0
M  V30 18316 H 1786.22 3.33049 -3.83459 0
M  V30 18317 H 1786.15 4.59166 -2.57827 0
M  V30 18318 H 1788.64 3.07863 -2.19154 0
M  V30 18319 H 1788.95 5.9125 -4.97637 0
M  V30 18320 H 1787.3 5.32175 -4.47007 0
M  V30 18321 H 1790.49 3.76399 -2.78283 0
M  V30 18322 H 1790.66 5.0564 -4.05256 0
M  V30 18323 N 1784.07 0.805805 1.35442 0
M  V30 18324 C 1785.31 0.385046 1.98398 0
M  V30 18325 C 1785.64 -1.05114 1.64244 0
M  V30 18326 O 1784.91 -1.72711 0.924532 0
M  V30 18327 H 1783.49 0.139386 0.733881 0
M  V30 18328 H 1786.15 1.03147 1.65368 0
M  V30 18329 H 1785.24 0.490126 3.08227 0
M  V30 18330 N 1785.54 -1.47344 0.559239 0
M  V30 18331 C 1786.48 -2.26985 -0.235197 0
M  V30 18332 C 1787.46 -1.34177 -0.918443 0
M  V30 18333 O 1788.64 -1.63561 -0.937027 0
M  V30 18334 C 1785.77 -3.11267 -1.33532 0
M  V30 18335 C 1784.81 -4.19667 -0.760412 0
M  V30 18336 S 1785.65 -5.34044 0.394576 0
M  V30 18337 C 1786.8 -6.21891 -0.707314 0
M  V30 18338 H 1787.03 -2.94017 0.440606 0
M  V30 18339 H 1784.57 -1.50482 0.345606 0
M  V30 18340 H 1786.53 -3.60395 -1.96534 0
M  V30 18341 H 1785.19 -2.43593 -1.98296 0
M  V30 18342 H 1784.38 -4.78375 -1.58661 0
M  V30 18343 H 1783.98 -3.73429 -0.206528 0
M  V30 18344 H 1786.27 -6.58362 -1.59891 0
M  V30 18345 H 1787.22 -7.07925 -0.157535 0
M  V30 18346 H 1787.62 -5.55556 -1.0009 0
M  V30 18347 N 1787.02 -0.295795 -1.54799 0
M  V30 18348 C 1788.25 0.317763 -2.04445 0
M  V30 18349 C 1788.67 1.47915 -1.17331 0
M  V30 18350 O 1788.02 1.81425 -0.197811 0
M  V30 18351 C 1788.07 0.778995 -3.53007 0
M  V30 18352 O 1787.79 -0.33616 -4.36808 0
M  V30 18353 C 1789.3 1.45824 -4.18629 0
M  V30 18354 H 1786.52 0.0697871 -0.667361 0
M  V30 18355 H 1789.06 -0.433911 -1.99844 0
M  V30 18356 H 1787.21 1.4807 -3.57986 0
M  V30 18357 H 1787.63 0.0219928 -5.24495 0
M  V30 18358 H 1789.1 1.73218 -5.24118 0
M  V30 18359 H 1789.58 2.3966 -3.68049 0
M  V30 18360 H 1790.19 0.799847 -4.17711 0
M  V30 18361 N 1788.5 1.57583 -0.0234236 0
M  V30 18362 C 1789.75 1.91186 0.655152 0
M  V30 18363 C 1790.07 0.89988 1.72995 0
M  V30 18364 O 1789.34 -0.0594278 1.9581 0
M  V30 18365 H 1787.92 0.705686 0.244982 0
M  V30 18366 H 1790.58 1.94775 -0.0698824 0
M  V30 18367 H 1789.68 2.91636 1.11152 0
M  V30 18368 N 1789.98 -0.249655 1.5561 0
M  V30 18369 C 1790.93 -1.32883 1.90906 0
M  V30 18370 C 1791.92 -1.49965 0.787832 0
M  V30 18371 O 1793.13 -1.51473 0.972422 0
M  V30 18372 H 1789.5 -0.444907 0.606269 0
M  V30 18373 H 1791.47 -1.00379 2.8101 0
M  V30 18374 C 1790.22 -2.67782 2.21784 0
M  V30 18375 H 1789.55 -2.55436 3.07559 0
M  V30 18376 H 1790.99 -3.42175 2.50385 0
M  V30 18377 C 1789.44 -3.20664 1.03325 0
M  V30 18378 O 1789.97 -4.00724 0.279822 0
M  V30 18379 N 1788.18 -2.78655 0.824614 0
M  V30 18380 H 1787.73 -2.1366 1.43899 0
M  V30 18381 H 1787.69 -3.14382 0.03369 0
M  V30 18382 N 1791.46 -1.48941 -0.515198 0
M  V30 18383 C 1792.71 -1.5696 -1.26674 0
M  V30 18384 C 1793.02 -0.255062 -1.9393 0
M  V30 18385 O 1794.23 -0.213645 -2.70658 0
M  V30 18386 C 1792.68 -2.76877 -2.29928 0
M  V30 18387 C 1792.29 -4.15033 -1.68676 0
M  V30 18388 C 1794.03 -2.94218 -3.06 0
M  V30 18389 C 1791.94 -5.26191 -2.69957 0
M  V30 18390 H 1790.87 -0.584377 -0.476465 0
M  V30 18391 H 1793.52 -1.75303 -0.542322 0
M  V30 18392 H 1791.9 -2.51999 -3.05471 0
M  V30 18393 H 1793.08 -4.49991 -0.992215 0
M  V30 18394 H 1791.39 -4.02932 -1.05045 0
M  V30 18395 H 1793.99 -3.74433 -3.81712 0
M  V30 18396 H 1794.33 -2.04235 -3.62759 0
M  V30 18397 H 1794.87 -3.19068 -2.37572 0
M  V30 18398 H 1791.6 -6.18189 -2.17998 0
M  V30 18399 H 1791.12 -4.95705 -3.37694 0
M  V30 18400 H 1792.8 -5.54929 -3.32659 0
M  V30 18401 N 1792.94 0.765193 -1.37777 0
M  V30 18402 C 1794.18 1.52096 -1.33084 0
M  V30 18403 C 1794.5 1.94827 0.08221 0
M  V30 18404 O 1793.77 1.66787 1.02757 0
M  V30 18405 H 1792.35 0.564139 -0.489649 0
M  V30 18406 H 1795.02 0.910308 -1.72335 0
M  V30 18407 H 1794.11 2.4173 -1.97416 0
M  V30 18408 N 1794.41 1.22455 0.992094 0
M  V30 18409 C 1795.66 1.04752 1.72833 0
M  V30 18410 C 1795.98 -0.418152 1.90464 0
M  V30 18411 O 1795.25 -1.30072 1.46486 0
M  V30 18412 H 1793.83 0.384626 0.640368 0
M  V30 18413 H 1796.49 1.5398 1.19483 0
M  V30 18414 H 1795.59 1.52601 2.72249 0
M  V30 18415 N 1795.89 -1.18905 1.03437 0
M  V30 18416 C 1796.82 -2.21792 0.578016 0
M  V30 18417 C 1797.84 -1.59015 -0.349014 0
M  V30 18418 O 1799.03 -1.77914 -0.144532 0
M  V30 18419 C 1796.13 -3.38441 -0.176348 0
M  V30 18420 C 1795.3 -4.308 0.756988 0
M  V30 18421 C 1794.36 -5.26179 0.0470478 0
M  V30 18422 O 1793.38 -5.65179 0.675418 0
M  V30 18423 N 1794.59 -5.67497 -1.2218 0
M  V30 18424 H 1797.35 -2.6157 1.46291 0
M  V30 18425 H 1794.91 -1.33627 0.914078 0
M  V30 18426 H 1796.9 -3.99266 -0.660972 0
M  V30 18427 H 1795.47 -2.97406 -0.962715 0
M  V30 18428 H 1794.69 -3.67674 1.4216 0
M  V30 18429 H 1795.98 -4.89413 1.39113 0
M  V30 18430 H 1795.38 -5.37855 -1.75295 0
M  V30 18431 H 1793.94 -6.30548 -1.65081 0
M  V30 18432 N 1797.37 -0.812977 -1.35013 0
M  V30 18433 C 1798.62 -0.396345 -1.98583 0
M  V30 18434 C 1798.94 1.0381 -1.6448 0
M  V30 18435 O 1798.2 1.73604 -0.903344 0
M  V30 18436 C 1798.5 -0.534083 -3.53387 0
M  V30 18437 C 1798.16 -1.93278 -4.07375 0
M  V30 18438 C 1796.83 -2.31543 -4.21831 0
M  V30 18439 C 1799.18 -2.84756 -4.36535 0
M  V30 18440 C 1796.51 -3.60641 -4.62769 0
M  V30 18441 C 1798.86 -4.13308 -4.78915 0
M  V30 18442 C 1797.52 -4.51563 -4.91576 0
M  V30 18443 H 1796.79 -0.145033 -0.726668 0
M  V30 18444 H 1799.44 -1.035 -1.61121 0
M  V30 18445 H 1797.74 0.188002 -3.91349 0
M  V30 18446 H 1799.44 -0.192396 -4.00538 0
M  V30 18447 H 1796.03 -1.62551 -3.96579 0
M  V30 18448 H 1800.22 -2.56441 -4.24914 0
M  V30 18449 H 1795.47 -3.9012 -4.70761 0
M  V30 18450 H 1799.65 -4.84287 -5.00439 0
M  V30 18451 H 1797.27 -5.51649 -5.23056 0
M  V30 18452 N 1798.85 1.47045 -0.567045 0
M  V30 18453 C 1800.1 2.02046 -0.0465877 0
M  V30 18454 C 1800.42 1.44271 1.3119 0
M  V30 18455 O 1799.69 0.621533 1.85779 0
M  V30 18456 H 1798.27 0.746864 -0.0142323 0
M  V30 18457 H 1800.93 1.80335 -0.739281 0
M  V30 18458 H 1800.02 3.12081 0.0341623 0
M  V30 18459 N 1800.33 0.304 1.5464 0
M  V30 18460 C 1801.55 -0.306916 2.04611 0
M  V30 18461 C 1801.97 -1.4729 1.18114 0
M  V30 18462 O 1801.33 -1.81317 0.20743 0
M  V30 18463 C 1801.38 -0.760263 3.53415 0
M  V30 18464 O 1801.1 0.359321 4.36624 0
M  V30 18465 C 1802.6 -1.43602 4.19396 0
M  V30 18466 H 1799.82 -0.066247 0.667722 0
M  V30 18467 H 1802.36 0.444504 1.99611 0
M  V30 18468 H 1800.52 -1.4617 3.58766 0
M  V30 18469 H 1800.93 0.00582275 5.245 0
M  V30 18470 H 1802.41 -1.70436 5.25029 0
M  V30 18471 H 1802.88 -2.37705 3.69314 0
M  V30 18472 H 1803.49 -0.777683 4.18129 0
M  V30 18473 N 1801.8 -1.57568 0.0317802 0
M  V30 18474 C 1803.05 -1.91531 -0.645004 0
M  V30 18475 C 1803.37 -0.909042 -1.72515 0
M  V30 18476 O 1802.64 0.0490427 -1.95839 0
M  V30 18477 H 1801.22 -0.706976 -0.241236 0
M  V30 18478 H 1803.88 -1.94735 0.0802108 0
M  V30 18479 H 1802.98 -2.92221 -1.09604 0
M  V30 18480 N 1803.28 0.241399 -1.5574 0
M  V30 18481 C 1804.53 0.966607 -1.7703 0
M  V30 18482 C 1804.84 1.86275 -0.59673 0
M  V30 18483 O 1806.05 2.62513 -0.692775 0
M  V30 18484 C 1804.51 1.7688 -3.13435 0
M  V30 18485 C 1804.11 0.919775 -4.38457 0
M  V30 18486 C 1805.86 2.48641 -3.44061 0
M  V30 18487 C 1803.77 1.71817 -5.65891 0
M  V30 18488 H 1802.7 0.364644 -0.659963 0
M  V30 18489 H 1805.35 0.221088 -1.82163 0
M  V30 18490 H 1803.73 2.55648 -3.02424 0
M  V30 18491 H 1804.9 0.174036 -4.60471 0
M  V30 18492 H 1803.22 0.315234 -4.15205 0
M  V30 18493 H 1805.81 3.08839 -4.36489 0
M  V30 18494 H 1806.16 3.20534 -2.65638 0
M  V30 18495 H 1806.69 1.7688 -3.56312 0
M  V30 18496 H 1803.43 1.04289 -6.47151 0
M  V30 18497 H 1802.95 2.43905 -5.47969 0
M  V30 18498 H 1804.63 2.28392 -6.05348 0
M  V30 18499 N 1804.76 1.49212 0.507292 0
M  V30 18500 C 1805.71 1.65894 1.6304 0
M  V30 18501 C 1806.7 0.524951 1.61061 0
M  V30 18502 O 1807.91 0.704392 1.65645 0
M  V30 18503 H 1804.28 0.522994 0.540353 0
M  V30 18504 H 1806.25 2.60176 1.4612 0
M  V30 18505 C 1805 1.73692 3.01208 0
M  V30 18506 H 1804.33 2.60323 3.03434 0
M  V30 18507 H 1805.77 1.89402 3.79346 0
M  V30 18508 C 1804.23 0.480378 3.33458 0
M  V30 18509 O 1804.76 -0.396732 3.99736 0
M  V30 18510 N 1802.96 0.345216 2.88542 0
M  V30 18511 H 1802.51 1.05997 2.34782 0
M  V30 18512 H 1802.47 -0.494453 3.10488 0
M  V30 18513 N 1806.24 -0.757876 1.38181 0
M  V30 18514 C 1807.65 -1.33496 1.30521 0
M  V30 18515 C 1808 -1.96157 -0.0409405 0
M  V30 18516 O 1807.13 -1.94775 -0.942957 0
M  V30 18517 C 1807.72 -2.42725 2.36369 0
M  V30 18518 C 1806.28 -2.96165 2.323 0
M  V30 18519 C 1805.43 -1.69505 2.19461 0
M  V30 18520 H 1808.38 -0.557075 1.48601 0
M  V30 18521 H 1808.4 -3.22556 2.01836 0
M  V30 18522 H 1807.91 -1.97089 3.34331 0
M  V30 18523 H 1806.01 -3.4614 1.37904 0
M  V30 18524 H 1806.12 -3.50836 3.26269 0
M  V30 18525 H 1804.49 -1.92967 1.66241 0
M  V30 18526 H 1805.27 -1.25954 3.1936 0
M  V30 18527 N 1807.72 -1.22979 -0.985586 0
M  V30 18528 C 1808.65 -0.964185 -2.07933 0
M  V30 18529 C 1809.66 0.0599162 -1.6269 0
M  V30 18530 O 1810.85 -0.174984 -1.7764 0
M  V30 18531 C 1807.95 -0.429879 -3.36163 0
M  V30 18532 C 1807.12 -1.51293 -4.10401 0
M  V30 18533 C 1806.18 -0.984411 -5.1691 0
M  V30 18534 O 1805.21 -1.67225 -5.44081 0
M  V30 18535 N 1806.41 0.190439 -5.80188 0
M  V30 18536 H 1809.18 -1.90582 -2.31297 0
M  V30 18537 H 1806.74 -1.13767 -1.15189 0
M  V30 18538 H 1808.73 -0.0614639 -4.04653 0
M  V30 18539 H 1807.3 0.417049 -3.09806 0
M  V30 18540 H 1806.52 -2.05434 -3.36438 0
M  V30 18541 H 1807.81 -2.24141 -4.56769 0
M  V30 18542 H 1807.2 0.765928 -5.60491 0
M  V30 18543 H 1805.76 0.500168 -6.49878 0
M  V30 18544 N 1809.19 1.18355 -1.04066 0
M  V30 18545 C 1810.13 2.20807 -0.576164 0
M  V30 18546 C 1811.11 1.57871 0.389277 0
M  V30 18547 O 1812.29 1.86039 0.303581 0
M  V30 18548 C 1809.42 3.3833 0.158303 0
M  V30 18549 C 1808.46 4.19667 -0.760391 0
M  V30 18550 S 1809.3 4.86249 -2.24326 0
M  V30 18551 C 1810.45 6.07172 -1.51964 0
M  V30 18552 H 1810.68 2.59866 -1.4442 0
M  V30 18553 H 1808.22 1.2879 -0.851623 0
M  V30 18554 H 1810.18 4.0644 0.575896 0
M  V30 18555 H 1808.84 2.97682 1.00222 0
M  V30 18556 H 1808.03 5.03631 -0.192705 0
M  V30 18557 H 1807.63 3.56935 -1.11683 0
M  V30 18558 H 1809.92 6.72608 -0.812694 0
M  V30 18559 H 1810.87 6.68447 -2.33633 0
M  V30 18560 H 1811.27 5.55355 -1.01198 0
M  V30 18561 N 1810.67 0.820125 1.3458 0
M  V30 18562 C 1811.6 0.197556 2.28347 0
M  V30 18563 C 1812.62 -0.610956 1.50901 0
M  V30 18564 O 1813.81 -0.441096 1.72964 0
M  V30 18565 C 1810.91 -0.741893 3.3068 0
M  V30 18566 C 1810.08 0.0231854 4.37394 0
M  V30 18567 C 1809.14 -0.83677 5.19504 0
M  V30 18568 O 1808.16 -0.282772 5.68497 0
M  V30 18569 N 1809.37 -2.15696 5.38939 0
M  V30 18570 H 1812.13 1.00314 2.82413 0
M  V30 18571 H 1809.69 0.676827 1.47074 0
M  V30 18572 H 1811.68 -1.32173 3.82508 0
M  V30 18573 H 1810.25 -1.44823 2.77029 0
M  V30 18574 H 1809.47 0.784316 3.86319 0
M  V30 18575 H 1810.76 0.549958 5.05819 0
M  V30 18576 H 1810.16 -2.63083 5.00803 0
M  V30 18577 H 1808.72 -2.68572 5.93896 0
M  V30 18578 N 1812.15 -1.46743 0.574835 0
M  V30 18579 C 1813.08 -2.2832 -0.20062 0
M  V30 18580 C 1814.1 -1.3805 -0.862898 0
M  V30 18581 O 1815.28 -1.6272 -0.733785 0
M  V30 18582 C 1812.38 -3.1285 -1.303 0
M  V30 18583 C 1811.56 -4.31195 -0.734153 0
M  V30 18584 C 1810.62 -4.97183 -1.72324 0
M  V30 18585 O 1809.64 -5.55025 -1.26239 0
M  V30 18586 N 1810.84 -4.93476 -3.05714 0
M  V30 18587 H 1813.61 -2.95513 0.499231 0
M  V30 18588 H 1811.17 -1.56568 0.412077 0
M  V30 18589 H 1813.16 -3.53861 -1.96378 0
M  V30 18590 H 1811.73 -2.47784 -1.90583 0
M  V30 18591 H 1810.95 -3.94063 0.103888 0
M  V30 18592 H 1812.24 -5.07704 -0.333751 0
M  V30 18593 H 1811.64 -4.47715 -3.45786 0
M  V30 18594 H 1810.2 -5.38453 -3.67304 0
M  V30 18595 N 1813.63 -0.312197 -1.54477 0
M  V30 18596 C 1814.58 0.57453 -2.25393 0
M  V30 18597 C 1815.57 1.12789 -1.26392 0
M  V30 18598 O 1816.78 1.07724 -1.44207 0
M  V30 18599 H 1813.15 0.203904 -0.723828 0
M  V30 18600 H 1815.12 -0.0459918 -2.98365 0
M  V30 18601 C 1813.87 1.72942 -3.01639 0
M  V30 18602 H 1813.19 1.31286 -3.7763 0
M  V30 18603 H 1814.63 2.3257 -3.54524 0
M  V30 18604 C 1813.09 2.64026 -2.09266 0
M  V30 18605 O 1813.62 3.65431 -1.66803 0
M  V30 18606 N 1811.83 2.32007 -1.74989 0
M  V30 18607 H 1811.38 1.49588 -2.09717 0
M  V30 18608 H 1811.33 2.93213 -1.1346 0
M  V30 18609 N 1815.11 1.57549 -0.040136 0
M  V30 18610 C 1816.35 1.92535 0.637037 0
M  V30 18611 C 1816.69 0.917836 1.71141 0
M  V30 18612 O 1815.96 -0.057824 1.94414 0
M  V30 18613 C 1816.24 3.37955 1.24333 0
M  V30 18614 C 1816.1 4.49449 0.177761 0
M  V30 18615 C 1817.42 3.8355 2.15818 0
M  V30 18616 H 1814.53 0.700157 0.230107 0
M  V30 18617 H 1817.18 1.89739 -0.0996468 0
M  V30 18618 H 1815.33 3.40468 1.87119 0
M  V30 18619 H 1817 4.59065 -0.453507 0
M  V30 18620 H 1815.24 4.30961 -0.495486 0
M  V30 18621 H 1815.91 5.48256 0.641792 0
M  V30 18622 H 1818.39 3.82842 1.63006 0
M  V30 18623 H 1817.26 4.85974 2.55188 0
M  V30 18624 H 1817.53 3.19678 3.05382 0
M  V30 18625 N 1816.58 -0.233136 1.55866 0
M  V30 18626 C 1817.83 -0.959219 1.7834 0
M  V30 18627 C 1818.16 -1.84789 0.606886 0
M  V30 18628 O 1817.41 -1.91373 -0.409253 0
M  V30 18629 C 1817.71 -1.83897 3.06458 0
M  V30 18630 C 1817.38 -1.1045 4.37163 0
M  V30 18631 C 1816.04 -0.901577 4.72679 0
M  V30 18632 C 1818.39 -0.584979 5.17907 0
M  V30 18633 C 1815.72 -0.167034 5.86462 0
M  V30 18634 C 1818.07 0.136163 6.32453 0
M  V30 18635 C 1816.74 0.35045 6.66579 0
M  V30 18636 H 1816.01 -0.351003 0.652593 0
M  V30 18637 H 1818.65 -0.228249 1.90135 0
M  V30 18638 H 1816.96 -2.63744 2.89735 0
M  V30 18639 H 1818.66 -2.4027 3.21047 0
M  V30 18640 H 1815.25 -1.27263 4.0927 0
M  V30 18641 H 1819.43 -0.729263 4.90913 0
M  V30 18642 H 1814.69 0.00933042 6.11399 0
M  V30 18643 H 1818.86 0.546294 6.94254 0
M  V30 18644 H 1816.49 0.921569 7.54593 0
M  V30 18645 N 1818.06 -1.49479 -0.499372 0
M  V30 18646 C 1819 -1.6239 -1.61748 0
M  V30 18647 C 1820.01 -0.506515 -1.5472 0
M  V30 18648 O 1821.2 -0.778629 -1.60623 0
M  V30 18649 C 1818.3 -1.56611 -3.00543 0
M  V30 18650 C 1817.47 -2.83909 -3.32738 0
M  V30 18651 C 1816.53 -2.7116 -4.50953 0
M  V30 18652 O 1815.56 -3.45097 -4.52656 0
M  V30 18653 N 1816.76 -1.82815 -5.50962 0
M  V30 18654 H 1819.52 -2.58823 -1.51099 0
M  V30 18655 H 1817.08 -1.46588 -0.687277 0
M  V30 18656 H 1819.08 -1.45734 -3.7755 0
M  V30 18657 H 1817.65 -0.68029 -3.05108 0
M  V30 18658 H 1816.87 -3.09125 -2.44613 0
M  V30 18659 H 1818.15 -3.68299 -3.51046 0
M  V30 18660 H 1817.55 -1.22005 -5.52387 0
M  V30 18661 H 1816.11 -1.77859 -6.27064 0
M  V30 18662 N 1819.54 0.750537 -1.38581 0
M  V30 18663 C 1820.77 1.53755 -1.37996 0
M  V30 18664 C 1821.18 1.89174 0.0313394 0
M  V30 18665 O 1820.52 1.535 1.00912 0
M  V30 18666 C 1820.58 2.86315 -2.17403 0
M  V30 18667 C 1820.25 2.73417 -3.66186 0
M  V30 18668 C 1821.25 2.43008 -4.59612 0
M  V30 18669 C 1818.93 2.90774 -4.0958 0
M  V30 18670 C 1820.92 2.30114 -5.94413 0
M  V30 18671 C 1818.61 2.775 -5.4446 0
M  V30 18672 C 1819.61 2.47213 -6.3669 0
M  V30 18673 O 1819.3 2.34004 -7.69089 0
M  V30 18674 H 1819.03 0.482269 -0.473701 0
M  V30 18675 H 1821.58 0.936379 -1.82814 0
M  V30 18676 H 1819.81 3.48633 -1.67307 0
M  V30 18677 H 1821.5 3.47844 -2.09187 0
M  V30 18678 H 1822.27 2.29263 -4.27391 0
M  V30 18679 H 1818.15 3.13344 -3.38137 0
M  V30 18680 H 1821.69 2.06396 -6.66368 0
M  V30 18681 H 1817.59 2.90818 -5.76277 0
M  V30 18682 H 1818.36 2.49193 -7.79644 0
M  V30 18683 N 1821.02 1.235 0.979051 0
M  V30 18684 C 1822.43 1.06263 1.53509 0
M  V30 18685 C 1822.78 -0.369594 1.92687 0
M  V30 18686 O 1821.91 -1.25649 1.76185 0
M  V30 18687 C 1822.5 1.92276 2.78954 0
M  V30 18688 C 1821.06 1.79296 3.30953 0
M  V30 18689 C 1820.21 1.87898 2.03935 0
M  V30 18690 H 1823.16 1.37143 0.798588 0
M  V30 18691 H 1823.18 1.44835 3.51857 0
M  V30 18692 H 1822.69 2.96509 2.50408 0
M  V30 18693 H 1820.79 0.778512 3.64376 0
M  V30 18694 H 1820.91 2.62755 4.0062 0
M  V30 18695 H 1819.27 1.31494 2.18131 0
M  V30 18696 H 1820.05 2.93689 1.77769 0
M  V30 18697 N 1822.5 -1.17802 1.04693 0
M  V30 18698 C 1823.75 -1.87567 0.752534 0
M  V30 18699 C 1824.07 -1.81129 -0.722303 0
M  V30 18700 O 1823.34 -1.23385 -1.52161 0
M  V30 18701 H 1821.92 -0.69439 0.275376 0
M  V30 18702 H 1824.58 -1.42932 1.32501 0
M  V30 18703 H 1823.67 -2.9344 1.06299 0
M  V30 18704 N 1823.98 -0.827251 -1.34143 0
M  V30 18705 C 1824.94 -0.257543 -2.27748 0
M  V30 18706 C 1825.94 0.567053 -1.5047 0
M  V30 18707 O 1827.13 0.382529 -1.69948 0
M  V30 18708 C 1824.26 0.638449 -3.34868 0
M  V30 18709 H 1825.45 -1.08338 -2.79648 0
M  V30 18710 H 1823.01 -0.599441 -1.44348 0
M  V30 18711 H 1823.74 1.48717 -2.8819 0
M  V30 18712 H 1823.53 0.0486033 -3.9207 0
M  V30 18713 H 1825.02 1.03071 -4.0468 0
M  V30 18714 N 1825.45 1.46436 -0.582609 0
M  V30 18715 C 1826.7 2.01986 -0.0680147 0
M  V30 18716 C 1827.02 1.45654 1.29653 0
M  V30 18717 O 1826.29 0.641203 1.85109 0
M  V30 18718 H 1824.87 0.746671 -0.022153 0
M  V30 18719 H 1827.53 1.79541 -0.758367 0
M  V30 18720 H 1826.63 3.121 0.00106001 0
M  V30 18721 N 1826.93 0.320385 1.54309 0
M  V30 18722 C 1827.86 -0.589487 2.20455 0
M  V30 18723 C 1828.84 -1.11816 1.1805 0
M  V30 18724 O 1830.03 -1.18276 1.46776 0
M  V30 18725 C 1827.15 -1.80854 2.86373 0
M  V30 18726 C 1826.2 -1.41139 4.0247 0
M  V30 18727 S 1827.03 -0.450803 5.33599 0
M  V30 18728 C 1828.19 -1.67721 6.03009 0
M  V30 18729 H 1828.42 -0.0275989 2.97287 0
M  V30 18730 H 1825.95 0.104475 1.54046 0
M  V30 18731 H 1827.91 -2.50803 3.24974 0
M  V30 18732 H 1826.57 -2.34161 2.0935 0
M  V30 18733 H 1825.77 -2.31969 4.47444 0
M  V30 18734 H 1825.37 -0.791646 3.65526 0
M  V30 18735 H 1827.66 -2.6151 6.24995 0
M  V30 18736 H 1828.6 -1.26968 6.96624 0
M  V30 18737 H 1829.01 -1.86274 5.32881 0
M  V30 18738 N 1828.41 -1.57525 0.0484906 0
M  V30 18739 C 1829.66 -1.9287 -0.626817 0
M  V30 18740 C 1829.99 -0.926899 -1.70652 0
M  V30 18741 O 1829.26 0.0475129 -1.94442 0
M  V30 18742 C 1829.55 -3.38609 -1.22539 0
M  V30 18743 C 1829.4 -4.49537 -0.153923 0
M  V30 18744 C 1830.72 -3.84689 -2.13781 0
M  V30 18745 H 1827.84 -0.701367 -0.226391 0
M  V30 18746 H 1830.48 -1.89683 0.109708 0
M  V30 18747 H 1828.63 -3.41456 -1.85311 0
M  V30 18748 H 1830.3 -4.58818 0.477846 0
M  V30 18749 H 1828.54 -4.30692 0.518334 0
M  V30 18750 H 1829.22 -5.48589 -0.612708 0
M  V30 18751 H 1831.69 -3.83701 -1.60974 0
M  V30 18752 H 1830.57 -4.8732 -2.52607 0
M  V30 18753 H 1830.83 -3.21293 -3.03682 0
M  V30 18754 N 1829.89 0.224867 -1.55988 0
M  V30 18755 C 1831.3 0.792138 -1.69062 0
M  V30 18756 C 1831.65 1.85123 -0.649908 0
M  V30 18757 O 1830.77 2.15477 0.199614 0
M  V30 18758 C 1831.37 1.44361 -3.06505 0
M  V30 18759 C 1829.93 1.95831 -3.21446 0
M  V30 18760 C 1829.08 0.81728 -2.64983 0
M  V30 18761 H 1832.03 0.000270833 -1.587 0
M  V30 18762 H 1832.05 2.31233 -3.02178 0
M  V30 18763 H 1831.56 0.672544 -3.82228 0
M  V30 18764 H 1829.66 2.75749 -2.50586 0
M  V30 18765 H 1829.77 2.14056 -4.28622 0
M  V30 18766 H 1828.14 1.22371 -2.23377 0
M  V30 18767 H 1828.92 0.058944 -3.43249 0
M  V30 18768 N 1831.37 1.49742 0.491438 0
M  V30 18769 C 1832.3 1.63245 1.60884 0
M  V30 18770 C 1833.31 0.514713 1.54449 0
M  V30 18771 O 1834.5 0.787136 1.60207 0
M  V30 18772 C 1831.6 1.58202 2.99709 0
M  V30 18773 C 1830.77 2.8567 3.31227 0
M  V30 18774 C 1829.83 2.73548 4.49509 0
M  V30 18775 O 1828.86 3.47492 4.50819 0
M  V30 18776 N 1830.06 1.85734 5.49985 0
M  V30 18777 H 1832.82 2.5962 1.49724 0
M  V30 18778 H 1830.39 1.46951 0.679494 0
M  V30 18779 H 1832.38 1.47734 3.76771 0
M  V30 18780 H 1830.95 0.696461 3.04743 0
M  V30 18781 H 1830.17 3.10418 2.4297 0
M  V30 18782 H 1831.46 3.70156 3.49088 0
M  V30 18783 H 1830.85 1.24933 5.51732 0
M  V30 18784 H 1829.41 1.81182 6.26112 0
M  V30 18785 N 1832.84 -0.743177 1.38977 0
M  V30 18786 C 1834.09 -1.49959 1.35486 0
M  V30 18787 C 1834.41 -1.94933 -0.0512044 0
M  V30 18788 O 1833.68 -1.684 -1.0009 0
M  V30 18789 H 1832.26 -0.556277 0.498562 0
M  V30 18790 H 1834.93 -0.882776 1.73762 0
M  V30 18791 H 1834.02 -2.38559 2.01237 0
M  V30 18792 N 1834.32 -1.24018 -0.972487 0
M  V30 18793 C 1835.23 -1.04527 -2.10027 0
M  V30 18794 C 1836.25 0.0125372 -1.73995 0
M  V30 18795 O 1837.42 -0.184615 -2.00552 0
M  V30 18796 C 1834.49 -0.647264 -3.40604 0
M  V30 18797 C 1833.55 -1.78102 -3.90613 0
M  V30 18798 C 1832.78 -1.4019 -5.14959 0
M  V30 18799 O 1833.01 -0.289608 -5.69664 0
M  V30 18800 O 1831.94 -2.22583 -5.59232 0
M  V30 18801 H 1835.77 -1.99064 -2.29363 0
M  V30 18802 H 1833.35 -1.02794 -1.08414 0
M  V30 18803 H 1835.23 -0.436606 -4.19132 0
M  V30 18804 H 1833.91 0.269025 -3.2258 0
M  V30 18805 H 1832.82 -2.04638 -3.13168 0
M  V30 18806 H 1834.15 -2.67591 -4.13105 0
M  V30 18807 N 1835.8 1.17245 -1.05316 0
M  V30 18808 C 1836.76 2.19508 -0.659467 0
M  V30 18809 C 1837.76 1.58169 0.289697 0
M  V30 18810 O 1838.95 1.74045 0.0734019 0
M  V30 18811 C 1836.09 3.40886 0.0311886 0
M  V30 18812 H 1837.28 2.55852 -1.5646 0
M  V30 18813 H 1834.83 1.31348 -0.847193 0
M  V30 18814 H 1835.57 3.10088 0.949535 0
M  V30 18815 H 1835.35 3.86655 -0.651191 0
M  V30 18816 H 1836.84 4.16573 0.292702 0
M  V30 18817 N 1837.28 0.834353 1.33702 0
M  V30 18818 C 1838.23 0.252818 2.31222 0
M  V30 18819 C 1839.22 -0.612723 1.57931 0
M  V30 18820 O 1840.43 -0.502788 1.72835 0
M  V30 18821 H 1836.8 0.0630243 0.749354 0
M  V30 18822 H 1838.77 1.08992 2.77783 0
M  V30 18823 C 1837.52 -0.561132 3.43142 0
M  V30 18824 H 1836.84 0.0955723 3.99686 0
M  V30 18825 H 1838.28 -0.933951 4.13586 0
M  V30 18826 C 1836.74 -1.73817 2.88599 0
M  V30 18827 O 1837.27 -2.83674 2.84415 0
M  V30 18828 N 1835.48 -1.5586 2.45267 0
M  V30 18829 H 1835.03 -0.664959 2.4887 0
M  V30 18830 H 1834.98 -2.34764 2.09125 0
M  V30 18831 N 1838.76 -1.46125 0.590367 0
M  V30 18832 C 1840 -2.02346 0.0788814 0
M  V30 18833 C 1840.33 -1.46093 -1.28402 0
M  V30 18834 O 1839.59 -0.618875 -1.85657 0
M  V30 18835 C 1839.89 -3.57388 -0.0287217 0
M  V30 18836 C 1839.55 -4.32716 1.26758 0
M  V30 18837 C 1838.21 -4.53014 1.62271 0
M  V30 18838 C 1840.57 -4.7591 2.12507 0
M  V30 18839 C 1837.89 -5.13759 2.83318 0
M  V30 18840 C 1840.25 -5.37992 3.32787 0
M  V30 18841 C 1838.91 -5.56516 3.68573 0
M  V30 18842 H 1838.18 -0.740438 0.0288647 0
M  V30 18843 H 1840.83 -1.75402 0.768538 0
M  V30 18844 H 1839.13 -3.83513 -0.801551 0
M  V30 18845 H 1840.83 -3.98575 -0.440356 0
M  V30 18846 H 1837.42 -4.17219 0.981133 0
M  V30 18847 H 1841.6 -4.59977 1.86373 0
M  V30 18848 H 1836.86 -5.26291 3.11172 0
M  V30 18849 H 1841.03 -5.70418 3.99495 0
M  V30 18850 H 1838.66 -6.03355 4.62458 0
M  V30 18851 N 1840.23 -0.328564 -1.54137 0
M  V30 18852 C 1841.2 0.52248 -2.23165 0
M  V30 18853 C 1842.2 1.03956 -1.22677 0
M  V30 18854 O 1843.39 0.931193 -1.47222 0
M  V30 18855 C 1840.52 1.72624 -2.93962 0
M  V30 18856 H 1841.71 -0.081023 -2.99791 0
M  V30 18857 H 1839.27 -0.0797096 -1.56097 0
M  V30 18858 H 1840 2.36885 -2.21486 0
M  V30 18859 H 1839.79 1.36283 -3.67654 0
M  V30 18860 H 1841.28 2.33023 -3.4654 0
M  V30 18861 N 1841.71 1.57497 -0.0568439 0
M  V30 18862 C 1843.12 1.80477 0.478027 0
M  V30 18863 C 1843.47 0.969549 1.7057 0
M  V30 18864 O 1842.6 0.187756 2.15584 0
M  V30 18865 C 1843.19 3.27332 0.874013 0
M  V30 18866 C 1841.75 3.5121 1.35383 0
M  V30 18867 C 1840.9 2.75308 0.331752 0
M  V30 18868 H 1843.85 1.56162 -0.282678 0
M  V30 18869 H 1843.87 3.38563 1.73653 0
M  V30 18870 H 1843.38 3.88095 -0.019701 0
M  V30 18871 H 1841.49 2.95734 2.26655 0
M  V30 18872 H 1841.6 4.59919 1.34208 0
M  V30 18873 H 1839.96 2.41616 0.805851 0
M  V30 18874 H 1840.75 3.38801 -0.553975 0
M  V30 18875 N 1843.19 -0.216591 1.56105 0
M  V30 18876 C 1844.42 -0.961164 1.83784 0
M  V30 18877 C 1844.84 -1.76957 0.637792 0
M  V30 18878 O 1844.2 -1.76523 -0.413449 0
M  V30 18879 C 1844.25 -1.85047 3.095 0
M  V30 18880 O 1843.35 -2.94648 2.88542 0
M  V30 18881 H 1842.69 -0.271885 0.605784 0
M  V30 18882 H 1845.22 -0.228404 2.03321 0
M  V30 18883 H 1845.23 -2.25932 3.39733 0
M  V30 18884 H 1843.91 -1.25633 3.96471 0
M  V30 18885 H 1842.48 -2.57673 2.69554 0
M  V30 18886 N 1844.67 -1.5 -0.48349 0
M  V30 18887 C 1845.6 -1.70879 -1.5913 0
M  V30 18888 C 1846.58 -0.557606 -1.60701 0
M  V30 18889 O 1847.76 -0.79539 -1.77164 0
M  V30 18890 C 1844.89 -1.7915 -2.97527 0
M  V30 18891 C 1843.85 -2.94233 -3.10823 0
M  V30 18892 C 1843.17 -2.87634 -4.50745 0
M  V30 18893 C 1844.47 -4.34925 -2.89202 0
M  V30 18894 H 1846.17 -2.63632 -1.41911 0
M  V30 18895 H 1843.71 -1.26865 -0.68127 0
M  V30 18896 H 1845.67 -1.92342 -3.74943 0
M  V30 18897 H 1844.39 -0.830106 -3.15875 0
M  V30 18898 H 1843.05 -2.80672 -2.35837 0
M  V30 18899 H 1842.7 -1.89365 -4.65993 0
M  V30 18900 H 1842.4 -3.64885 -4.60579 0
M  V30 18901 H 1843.92 -3.02857 -5.30198 0
M  V30 18902 H 1845.34 -4.49076 -3.56376 0
M  V30 18903 H 1843.73 -5.13531 -3.10492 0
M  V30 18904 H 1844.8 -4.48154 -1.85165 0
M  V30 18905 N 1846.15 0.735796 -1.39369 0
M  V30 18906 C 1847.37 1.53013 -1.40007 0
M  V30 18907 C 1847.8 1.881 0.00368376 0
M  V30 18908 O 1847.15 1.51853 0.990469 0
M  V30 18909 C 1847.2 2.79474 -2.27874 0
M  V30 18910 O 1846.31 3.75364 -1.70808 0
M  V30 18911 H 1845.65 0.462117 -0.476806 0
M  V30 18912 H 1848.18 0.907868 -1.83355 0
M  V30 18913 H 1848.19 3.28217 -2.42358 0
M  V30 18914 H 1846.86 2.53268 -3.29891 0
M  V30 18915 H 1845.44 3.34131 -1.65562 0
M  V30 18916 N 1847.63 1.24532 0.965897 0
M  V30 18917 C 1849.04 1.07886 1.52373 0
M  V30 18918 C 1849.39 -0.349136 1.93069 0
M  V30 18919 O 1848.51 -1.23774 1.77508 0
M  V30 18920 C 1849.11 1.95224 2.76899 0
M  V30 18921 C 1847.67 1.82796 3.29033 0
M  V30 18922 C 1846.81 1.9005 2.01931 0
M  V30 18923 H 1849.76 1.37982 0.783997 0
M  V30 18924 H 1849.79 1.48558 3.50301 0
M  V30 18925 H 1849.3 2.99148 2.47249 0
M  V30 18926 H 1847.4 0.817115 3.6353 0
M  V30 18927 H 1847.51 2.66989 3.97811 0
M  V30 18928 H 1845.88 1.338 2.16725 0
M  V30 18929 H 1846.66 2.95558 1.74644 0
M  V30 18930 N 1849.1 -1.16685 1.05936 0
M  V30 18931 C 1850.35 -1.86758 0.772386 0
M  V30 18932 C 1850.67 -1.81885 -0.703051 0
M  V30 18933 O 1849.94 -1.24992 -1.50844 0
M  V30 18934 H 1848.52 -0.69143 0.282725 0
M  V30 18935 H 1851.18 -1.41518 1.3401 0
M  V30 18936 H 1850.28 -2.92296 1.09405 0
M  V30 18937 N 1850.58 -0.841432 -1.33258 0
M  V30 18938 C 1851.81 -0.45101 -2.02437 0
M  V30 18939 C 1852.23 0.940811 -1.62881 0
M  V30 18940 O 1851.59 1.61559 -0.82271 0
M  V30 18941 C 1851.64 -0.58237 -3.55866 0
M  V30 18942 O 1850.74 0.390326 -4.10549 0
M  V30 18943 H 1850.08 -0.182996 -0.638285 0
M  V30 18944 H 1852.61 -1.13697 -1.701 0
M  V30 18945 H 1852.62 -0.464967 -4.05342 0
M  V30 18946 H 1851.3 -1.59739 -3.84 0
M  V30 18947 H 1849.87 0.230266 -3.72188 0
M  V30 18948 N 1852.06 1.4581 -0.598108 0
M  V30 18949 C 1853.28 2.07188 -0.0938515 0
M  V30 18950 C 1853.71 1.44141 1.20851 0
M  V30 18951 O 1853.07 0.530689 1.73359 0
M  V30 18952 C 1853.12 3.60575 0.0423086 0
M  V30 18953 O 1852.22 3.97598 1.09496 0
M  V30 18954 H 1851.56 0.660324 -0.0697682 0
M  V30 18955 H 1854.09 1.87211 -0.825426 0
M  V30 18956 H 1854.1 4.07272 0.243566 0
M  V30 18957 H 1852.78 4.05852 -0.9087 0
M  V30 18958 H 1851.35 3.62587 0.87093 0
M  V30 18959 N 1853.54 0.336733 1.53961 0
M  V30 18960 C 1854.47 -0.566072 2.21068 0
M  V30 18961 C 1855.45 -1.10558 1.1923 0
M  V30 18962 O 1856.63 -1.16712 1.48022 0
M  V30 18963 C 1853.76 -1.77806 2.88275 0
M  V30 18964 C 1852.81 -1.36863 4.03944 0
M  V30 18965 S 1853.64 -0.394182 5.34047 0
M  V30 18966 C 1854.79 -1.61316 6.04754 0
M  V30 18967 H 1855.03 0.00393395 2.973 0
M  V30 18968 H 1852.56 0.120807 1.53927 0
M  V30 18969 H 1854.52 -2.47342 3.27616 0
M  V30 18970 H 1853.18 -2.31928 2.11822 0
M  V30 18971 H 1852.37 -2.2721 4.49879 0
M  V30 18972 H 1851.97 -0.752832 3.66345 0
M  V30 18973 H 1854.27 -2.54866 6.27734 0
M  V30 18974 H 1855.21 -1.19572 6.97931 0
M  V30 18975 H 1855.62 -1.80612 5.34827 0
M  V30 18976 N 1855.02 -1.57465 0.0651956 0
M  V30 18977 C 1856.26 -1.93524 -0.606325 0
M  V30 18978 C 1856.59 -0.944947 -1.6966 0
M  V30 18979 O 1855.87 0.0268871 -1.94481 0
M  V30 18980 C 1856.15 -3.3989 -1.18941 0
M  V30 18981 C 1856.01 -4.49675 -0.106235 0
M  V30 18982 C 1857.32 -3.86935 -2.09689 0
M  V30 18983 H 1854.44 -0.703729 -0.218939 0
M  V30 18984 H 1857.09 -1.89556 0.12982 0
M  V30 18985 H 1855.24 -3.43402 -1.81679 0
M  V30 18986 H 1856.91 -4.58286 0.526483 0
M  V30 18987 H 1855.15 -4.30118 0.563985 0
M  V30 18988 H 1855.82 -5.49208 -0.554488 0
M  V30 18989 H 1858.3 -3.85387 -1.56895 0
M  V30 18990 H 1857.17 -4.89972 -2.47424 0
M  V30 18991 H 1857.43 -3.24496 -3.00258 0
M  V30 18992 N 1856.49 0.20831 -1.56217 0
M  V30 18993 C 1857.9 0.774162 -1.69893 0
M  V30 18994 C 1858.26 1.84424 -0.669506 0
M  V30 18995 O 1857.38 2.15677 0.176748 0
M  V30 18996 C 1857.98 1.41102 -3.08019 0
M  V30 18997 C 1856.53 1.9241 -3.23505 0
M  V30 18998 C 1855.68 0.789129 -2.65835 0
M  V30 18999 H 1858.63 -0.0165614 -1.58691 0
M  V30 19000 H 1858.65 2.28015 -3.04614 0
M  V30 19001 H 1858.17 0.631966 -3.8292 0
M  V30 19002 H 1856.27 2.73076 -2.53496 0
M  V30 19003 H 1856.38 2.09497 -4.30868 0
M  V30 19004 H 1854.74 1.19995 -2.24663 0
M  V30 19005 H 1855.53 0.0225345 -3.43293 0
M  V30 19006 N 1857.97 1.50255 0.475528 0
M  V30 19007 C 1858.9 1.63428 1.59268 0
M  V30 19008 C 1859.88 0.482517 1.55276 0
M  V30 19009 O 1861.07 0.70144 1.74963 0
M  V30 19010 C 1858.19 1.61277 2.97838 0
M  V30 19011 C 1857.24 2.81961 3.20001 0
M  V30 19012 S 1858.07 4.43321 3.00378 0
M  V30 19013 C 1859.23 4.43855 4.41297 0
M  V30 19014 H 1859.46 2.57928 1.47853 0
M  V30 19015 H 1856.99 1.39462 0.662547 0
M  V30 19016 H 1858.95 1.60721 3.77729 0
M  V30 19017 H 1857.61 0.680212 3.06646 0
M  V30 19018 H 1856.81 2.76747 4.21221 0
M  V30 19019 H 1856.41 2.80061 2.47875 0
M  V30 19020 H 1858.7 4.17145 5.33851 0
M  V30 19021 H 1859.64 5.45439 4.51555 0
M  V30 19022 H 1860.05 3.73616 4.23168 0
M  V30 19023 N 1859.45 -0.728395 1.39758 0
M  V30 19024 C 1860.86 -1.30697 1.33323 0
M  V30 19025 C 1861.21 -1.962 0.000676614 0
M  V30 19026 O 1860.34 -1.96731 -0.90143 0
M  V30 19027 C 1860.93 -2.37656 2.41464 0
M  V30 19028 C 1859.49 -2.91171 2.3853 0
M  V30 19029 C 1858.64 -1.64812 2.23007 0
M  V30 19030 H 1861.59 -0.525429 1.4975 0
M  V30 19031 H 1861.61 -3.18202 2.08633 0
M  V30 19032 H 1861.12 -1.89953 3.38437 0
M  V30 19033 H 1859.22 -3.43137 1.45216 0
M  V30 19034 H 1859.34 -3.43836 3.33637 0
M  V30 19035 H 1857.7 -1.89397 1.70296 0
M  V30 19036 H 1858.48 -1.19151 3.21959 0
M  V30 19037 N 1860.93 -1.25042 -0.959279 0
M  V30 19038 C 1862.18 -1.08912 -1.69768 0
M  V30 19039 C 1862.49 0.370558 -1.92058 0
M  V30 19040 O 1863.7 0.652214 -2.6355 0
M  V30 19041 C 1862.15 -1.90075 -3.05613 0
M  V30 19042 C 1861.76 -3.40506 -2.91136 0
M  V30 19043 C 1863.5 -1.825 -3.83268 0
M  V30 19044 C 1861.41 -4.13982 -4.22343 0
M  V30 19045 H 1860.34 -0.403959 -0.636658 0
M  V30 19046 H 1862.99 -1.49198 -1.06828 0
M  V30 19047 H 1861.37 -1.42609 -3.6943 0
M  V30 19048 H 1862.55 -3.95612 -2.36279 0
M  V30 19049 H 1860.86 -3.49123 -2.2694 0
M  V30 19050 H 1863.46 -2.34693 -4.80441 0
M  V30 19051 H 1863.8 -0.791947 -4.08698 0
M  V30 19052 H 1864.34 -2.27691 -3.26192 0
M  V30 19053 H 1861.07 -5.17681 -4.02103 0
M  V30 19054 H 1860.59 -3.6366 -4.76982 0
M  V30 19055 H 1862.27 -4.21443 -4.90913 0
M  V30 19056 N 1862.41 1.16121 -1.06553 0
M  V30 19057 C 1863.82 1.68319 -0.807804 0
M  V30 19058 C 1864.17 1.8447 0.668234 0
M  V30 19059 O 1863.29 1.54215 1.51811 0
M  V30 19060 C 1863.89 3.05738 -1.45979 0
M  V30 19061 C 1862.45 3.55046 -1.24977 0
M  V30 19062 C 1861.59 2.30965 -1.53462 0
M  V30 19063 H 1864.55 1.00447 -1.22866 0
M  V30 19064 H 1864.57 3.70266 -0.876556 0
M  V30 19065 H 1864.08 2.93951 -2.53405 0
M  V30 19066 H 1862.18 3.72087 -0.195367 0
M  V30 19067 H 1862.29 4.36979 -1.96433 0
M  V30 19068 H 1860.66 2.36107 -0.955268 0
M  V30 19069 H 1861.44 2.21773 -2.62052 0
M  V30 19070 N 1863.88 0.848487 1.3281 0
M  V30 19071 C 1865.3 0.504307 1.7976 0
M  V30 19072 C 1865.65 -0.977408 1.70121 0
M  V30 19073 O 1864.77 -1.7621 1.25614 0
M  V30 19074 C 1865.37 0.908628 3.26388 0
M  V30 19075 C 1863.93 0.616441 3.71318 0
M  V30 19076 C 1863.07 1.11173 2.54039 0
M  V30 19077 H 1866.02 1.03628 1.20195 0
M  V30 19078 H 1866.04 0.222518 3.79849 0
M  V30 19079 H 1865.56 1.98708 3.33372 0
M  V30 19080 H 1863.66 -0.451545 3.69854 0
M  V30 19081 H 1863.77 1.17841 4.64382 0
M  V30 19082 H 1862.13 0.532227 2.49077 0
M  V30 19083 H 1862.92 2.19716 2.6378 0
M  V30 19084 N 1865.36 -1.4549 0.605832 0
M  V30 19085 C 1866.77 -1.85775 0.18559 0
M  V30 19086 C 1867.12 -1.50638 -1.25708 0
M  V30 19087 O 1866.25 -0.932227 -1.95291 0
M  V30 19088 C 1866.84 -3.37189 0.330043 0
M  V30 19089 C 1865.4 -3.76383 -0.0354934 0
M  V30 19090 C 1864.55 -2.69446 0.655297 0
M  V30 19091 H 1867.5 -1.36316 0.812624 0
M  V30 19092 H 1867.52 -3.77968 -0.438236 0
M  V30 19093 H 1867.03 -3.62731 1.38014 0
M  V30 19094 H 1865.14 -3.56458 -1.08483 0
M  V30 19095 H 1865.25 -4.77769 0.356935 0
M  V30 19096 H 1863.61 -2.5453 0.0931235 0
M  V30 19097 H 1864.4 -2.97825 1.70749 0
M  V30 19098 N 1866.84 -0.344893 -1.5378 0
M  V30 19099 C 1867.77 0.545646 -2.2261 0
M  V30 19100 C 1868.79 1.06288 -1.23315 0
M  V30 19101 O 1869.97 0.972802 -1.49662 0
M  V30 19102 C 1867.07 1.76379 -2.89385 0
M  V30 19103 C 1866.25 1.38162 -4.15006 0
M  V30 19104 C 1865.31 2.45958 -4.65179 0
M  V30 19105 O 1864.33 2.0921 -5.29358 0
M  V30 19106 N 1865.53 3.77232 -4.41221 0
M  V30 19107 H 1868.3 -0.043834 -2.99668 0
M  V30 19108 H 1865.86 -0.169081 -1.61015 0
M  V30 19109 H 1867.85 2.47928 -3.19865 0
M  V30 19110 H 1866.42 2.26061 -2.15905 0
M  V30 19111 H 1865.64 0.496839 -3.91056 0
M  V30 19112 H 1866.93 1.10227 -4.96717 0
M  V30 19113 H 1866.33 4.09875 -3.89896 0
M  V30 19114 H 1864.89 4.44947 -4.76304 0
M  V30 19115 N 1868.32 1.57428 -0.0735454 0
M  V30 19116 C 1869.54 1.98301 0.607591 0
M  V30 19117 C 1869.97 0.951686 1.62248 0
M  V30 19118 O 1869.33 -0.0825008 1.81112 0
M  V30 19119 C 1869.37 3.38201 1.2511 0
M  V30 19120 O 1868.48 3.37711 2.36696 0
M  V30 19121 H 1867.82 0.64539 0.156104 0
M  V30 19122 H 1870.35 2.0406 -0.148578 0
M  V30 19123 H 1870.36 3.75424 1.59753 0
M  V30 19124 H 1869.03 4.12793 0.50745 0
M  V30 19125 H 1867.61 3.1226 2.03833 0
M  V30 19126 N 1869.8 -0.200022 1.56326 0
M  V30 19127 C 1871.02 -0.941617 1.84793 0
M  V30 19128 C 1871.45 -1.76271 0.656525 0
M  V30 19129 O 1870.8 -1.76951 -0.394703 0
M  V30 19130 C 1870.85 -1.81754 3.11445 0
M  V30 19131 O 1869.96 -2.91571 2.91651 0
M  V30 19132 H 1869.3 -0.265444 0.608634 0
M  V30 19133 H 1871.83 -0.206826 2.03552 0
M  V30 19134 H 1871.84 -2.22316 3.4211 0
M  V30 19135 H 1870.51 -1.2142 3.97781 0
M  V30 19136 H 1869.09 -2.54799 2.72271 0
M  V30 19137 N 1871.27 -1.50505 -0.467553 0
M  V30 19138 C 1872.2 -1.72558 -1.57309 0
M  V30 19139 C 1873.19 -0.574619 -1.601 0
M  V30 19140 O 1874.37 -0.814135 -1.76311 0
M  V30 19141 C 1871.5 -1.82296 -2.9561 0
M  V30 19142 C 1870.45 -2.97513 -3.07685 0
M  V30 19143 C 1869.78 -2.92398 -4.47669 0
M  V30 19144 C 1871.08 -4.37968 -2.84573 0
M  V30 19145 H 1872.77 -2.65122 -1.39107 0
M  V30 19146 H 1870.32 -1.2758 -0.667776 0
M  V30 19147 H 1872.27 -1.96308 -3.72882 0
M  V30 19148 H 1871 -0.863562 -3.14976 0
M  V30 19149 H 1869.66 -2.83157 -2.32847 0
M  V30 19150 H 1869.3 -1.94297 -4.63959 0
M  V30 19151 H 1869 -3.69749 -4.56683 0
M  V30 19152 H 1870.53 -3.08464 -5.26956 0
M  V30 19153 H 1871.94 -4.52831 -3.51593 0
M  V30 19154 H 1870.34 -5.16796 -3.05028 0
M  V30 19155 H 1871.41 -4.50093 -1.80402 0
M  V30 19156 N 1872.75 0.720973 -1.40142 0
M  V30 19157 C 1873.68 1.84799 -1.42729 0
M  V30 19158 C 1874.66 1.67629 -0.288866 0
M  V30 19159 O 1875.85 1.8774 -0.496713 0
M  V30 19160 C 1872.98 3.22699 -1.28385 0
M  V30 19161 C 1871.93 3.54532 -2.39773 0
M  V30 19162 C 1871.26 4.91518 -2.10509 0
M  V30 19163 C 1872.56 3.56077 -3.82108 0
M  V30 19164 H 1874.25 1.82892 -2.37046 0
M  V30 19165 H 1871.8 0.8785 -1.14098 0
M  V30 19166 H 1873.75 4.0123 -1.28812 0
M  V30 19167 H 1872.48 3.25169 -0.305408 0
M  V30 19168 H 1871.13 2.78338 -2.38586 0
M  V30 19169 H 1870.78 4.90584 -1.11069 0
M  V30 19170 H 1870.48 5.13783 -2.85132 0
M  V30 19171 H 1872.01 5.72389 -2.1261 0
M  V30 19172 H 1873.42 4.24657 -3.85148 0
M  V30 19173 H 1871.82 3.89866 -4.56207 0
M  V30 19174 H 1872.89 2.55576 -4.12079 0
M  V30 19175 N 1874.23 1.25549 0.952634 0
M  V30 19176 C 1875.16 1.01898 2.05304 0
M  V30 19177 C 1876.18 -0.0167609 1.62791 0
M  V30 19178 O 1877.36 0.222021 1.77114 0
M  V30 19179 C 1874.46 0.518856 3.34905 0
M  V30 19180 C 1873.64 1.62121 4.06246 0
M  V30 19181 C 1872.7 1.12111 5.14118 0
M  V30 19182 O 1871.72 1.81591 5.39456 0
M  V30 19183 N 1872.92 -0.0365454 5.80488 0
M  V30 19184 H 1875.69 1.96648 2.26163 0
M  V30 19185 H 1873.25 1.16782 1.12132 0
M  V30 19186 H 1875.24 0.168729 4.04348 0
M  V30 19187 H 1873.81 -0.334763 3.10802 0
M  V30 19188 H 1873.03 2.14282 3.30873 0
M  V30 19189 H 1874.32 2.36173 4.50666 0
M  V30 19190 H 1873.72 -0.617055 5.62325 0
M  V30 19191 H 1872.28 -0.327688 6.50976 0
M  V30 19192 N 1875.71 -1.15554 1.07168 0
M  V30 19193 C 1876.64 -2.19841 0.648285 0
M  V30 19194 C 1877.65 -1.60045 -0.298247 0
M  V30 19195 O 1878.84 -1.78284 -0.0878565 0
M  V30 19196 C 1875.94 -3.38831 -0.068586 0
M  V30 19197 C 1875.12 -4.28173 0.89366 0
M  V30 19198 C 1874.17 -5.25763 0.214424 0
M  V30 19199 O 1873.2 -5.62744 0.854883 0
M  V30 19200 N 1874.4 -5.71096 -1.04063 0
M  V30 19201 H 1877.17 -2.56784 1.54539 0
M  V30 19202 H 1874.73 -1.30652 0.956127 0
M  V30 19203 H 1876.72 -4.01167 -0.533614 0
M  V30 19204 H 1875.29 -3.00319 -0.86761 0
M  V30 19205 H 1874.51 -3.62965 1.53785 0
M  V30 19206 H 1875.8 -4.84739 1.54613 0
M  V30 19207 H 1875.2 -5.4316 -1.58095 0
M  V30 19208 H 1873.75 -6.35481 -1.44937 0
M  V30 19209 N 1877.19 -0.855519 -1.32358 0
M  V30 19210 C 1878.42 -0.473331 -2.01413 0
M  V30 19211 C 1878.83 0.930206 -1.64294 0
M  V30 19212 O 1878.19 1.60714 -0.864705 0
M  V30 19213 C 1878.24 -0.603815 -3.56422 0
M  V30 19214 O 1877.96 -1.95207 -3.92207 0
M  V30 19215 C 1879.46 -0.220748 -4.4275 0
M  V30 19216 H 1876.68 -0.185962 -0.644716 0
M  V30 19217 H 1879.22 -1.1527 -1.68918 0
M  V30 19218 H 1877.38 0.0278263 -3.8739 0
M  V30 19219 H 1877.79 -1.94946 -4.86925 0
M  V30 19220 H 1879.27 -0.363048 -5.50805 0
M  V30 19221 H 1879.74 0.838881 -4.31114 0
M  V30 19222 H 1880.35 -0.827498 -4.17172 0
M  V30 19223 N 1878.67 1.45167 -0.61354 0
M  V30 19224 C 1880.08 1.85674 -0.19544 0
M  V30 19225 C 1880.43 1.51303 1.24908 0
M  V30 19226 O 1879.55 0.94257 1.94794 0
M  V30 19227 C 1880.15 3.37009 -0.347921 0
M  V30 19228 C 1878.71 3.76397 0.0155323 0
M  V30 19229 C 1877.85 2.69095 -0.669578 0
M  V30 19230 H 1880.8 1.35883 -0.819842 0
M  V30 19231 H 1880.83 3.78195 0.418185 0
M  V30 19232 H 1880.34 3.61994 -1.39935 0
M  V30 19233 H 1878.44 3.57028 1.06591 0
M  V30 19234 H 1878.55 4.77573 -0.382267 0
M  V30 19235 H 1876.92 2.54477 -0.10662 0
M  V30 19236 H 1877.7 2.96915 -1.72326 0
M  V30 19237 N 1880.14 0.353044 1.53595 0
M  V30 19238 C 1881.55 -0.128852 1.86255 0
M  V30 19239 C 1881.91 -1.49209 1.27402 0
M  V30 19240 O 1881.03 -2.08167 0.591222 0
M  V30 19241 C 1881.63 -0.240583 3.37945 0
M  V30 19242 C 1880.18 -0.66672 3.70448 0
M  V30 19243 C 1879.33 0.193757 2.76622 0
M  V30 19244 H 1882.28 0.5723 1.48022 0
M  V30 19245 H 1882.3 -1.06641 3.65251 0
M  V30 19246 H 1881.82 0.75174 3.8075 0
M  V30 19247 H 1879.92 -1.66773 3.33193 0
M  V30 19248 H 1880.03 -0.450026 4.76982 0
M  V30 19249 H 1878.39 -0.335406 2.52482 0
M  V30 19250 H 1879.18 1.18339 3.22259 0
M  V30 19251 N 1881.62 -1.57387 0.0818932 0
M  V30 19252 C 1882.58 -2.12162 -0.86718 0
M  V30 19253 C 1883.58 -1.04788 -1.21967 0
M  V30 19254 O 1884.77 -1.30733 -1.15128 0
M  V30 19255 C 1881.91 -2.63132 -2.16736 0
M  V30 19256 H 1883.1 -2.9733 -0.391788 0
M  V30 19257 H 1880.65 -1.55406 -0.166944 0
M  V30 19258 H 1881.39 -1.81446 -2.6879 0
M  V30 19259 H 1881.17 -3.41625 -1.92445 0
M  V30 19260 H 1882.66 -3.05549 -2.84657 0
M  V30 19261 N 1883.1 0.191729 -1.56429 0
M  V30 19262 C 1884.32 0.931804 -1.85289 0
M  V30 19263 C 1884.75 1.7592 -0.665864 0
M  V30 19264 O 1884.11 1.77158 0.385313 0
M  V30 19265 C 1884.16 1.801 -3.12404 0
M  V30 19266 O 1883.26 2.9002 -2.93193 0
M  V30 19267 H 1882.6 0.262213 -0.610033 0
M  V30 19268 H 1885.13 0.196028 -2.03659 0
M  V30 19269 H 1885.14 2.20499 -3.43285 0
M  V30 19270 H 1883.82 1.19309 -3.9842 0
M  V30 19271 H 1882.39 2.53352 -2.73619 0
M  V30 19272 N 1884.58 1.50751 0.459565 0
M  V30 19273 C 1885.83 1.61995 1.20839 0
M  V30 19274 C 1886.15 0.327782 1.92225 0
M  V30 19275 O 1885.42 -0.655341 1.84613 0
M  V30 19276 H 1884 0.596972 0.449036 0
M  V30 19277 H 1886.66 1.87582 0.52906 0
M  V30 19278 H 1885.75 2.43678 1.95006 0
M  V30 19279 N 1886.06 -0.713531 1.40522 0
M  V30 19280 C 1887.29 -1.50042 1.42024 0
M  V30 19281 C 1887.69 -1.89191 0.0188277 0
M  V30 19282 O 1887.04 -1.56122 -0.968071 0
M  V30 19283 C 1887.1 -2.8045 2.24918 0
M  V30 19284 C 1886.76 -2.63612 3.73306 0
M  V30 19285 C 1887.76 -2.30736 4.65893 0
M  V30 19286 C 1885.44 -2.79813 4.17145 0
M  V30 19287 C 1887.44 -2.14273 6.00305 0
M  V30 19288 C 1885.13 -2.62967 5.51626 0
M  V30 19289 C 1886.12 -2.30246 6.43021 0
M  V30 19290 O 1885.81 -2.1353 7.75023 0
M  V30 19291 H 1885.54 -0.46954 0.486321 0
M  V30 19292 H 1888.1 -0.887579 1.85233 0
M  V30 19293 H 1886.33 -3.44075 1.76492 0
M  V30 19294 H 1888.02 -3.42176 2.18336 0
M  V30 19295 H 1888.78 -2.17851 4.3332 0
M  V30 19296 H 1884.66 -3.04269 3.46325 0
M  V30 19297 H 1888.21 -1.88656 6.71606 0
M  V30 19298 H 1884.1 -2.75437 5.83785 0
M  V30 19299 H 1884.87 -2.28434 7.85977 0
M  V30 19300 N 1887.53 -1.26053 -0.945962 0
M  V30 19301 C 1888.47 -1.02985 -2.0476 0
M  V30 19302 C 1889.48 0.00812739 -1.62798 0
M  V30 19303 O 1890.67 -0.231411 -1.76994 0
M  V30 19304 C 1887.77 -0.536609 -3.34625 0
M  V30 19305 C 1886.94 -1.64273 -4.0538 0
M  V30 19306 C 1886 -1.14836 -5.13516 0
M  V30 19307 O 1885.03 -1.84449 -5.38486 0
M  V30 19308 N 1886.23 0.00576017 -5.805 0
M  V30 19309 H 1888.99 -1.97845 -2.25117 0
M  V30 19310 H 1886.55 -1.17375 -1.11512 0
M  V30 19311 H 1888.55 -0.19017 -4.04253 0
M  V30 19312 H 1887.12 0.318275 -3.10976 0
M  V30 19313 H 1886.34 -2.16034 -3.29732 0
M  V30 19314 H 1887.62 -2.3856 -4.49407 0
M  V30 19315 H 1887.02 0.587225 -5.62644 0
M  V30 19316 H 1885.58 0.293161 -6.5114 0
M  V30 19317 N 1889.01 1.14984 -1.07779 0
M  V30 19318 C 1890.24 1.90288 -0.824935 0
M  V30 19319 C 1890.66 1.77709 0.616524 0
M  V30 19320 O 1890.02 1.11281 1.4313 0
M  V30 19321 C 1890.07 3.38482 -1.24348 0
M  V30 19322 O 1889.17 4.10538 -0.391454 0
M  V30 19323 H 1888.51 0.592283 -0.300162 0
M  V30 19324 H 1891.04 1.45588 -1.43755 0
M  V30 19325 H 1891.05 3.89284 -1.22155 0
M  V30 19326 H 1889.73 3.46956 -2.29335 0
M  V30 19327 H 1888.3 3.69846 -0.476247 0
M  V30 19328 N 1890.49 0.862526 1.31902 0
M  V30 19329 C 1891.9 0.523345 1.79215 0
M  V30 19330 C 1892.25 -0.95931 1.71148 0
M  V30 19331 O 1891.38 -1.74868 1.27476 0
M  V30 19332 C 1891.97 0.943195 3.25406 0
M  V30 19333 C 1890.53 0.655789 3.70643 0
M  V30 19334 C 1889.68 1.13861 2.52846 0
M  V30 19335 H 1892.63 1.04897 1.19089 0
M  V30 19336 H 1892.65 0.262794 3.79591 0
M  V30 19337 H 1892.16 2.02233 3.31245 0
M  V30 19338 H 1890.26 -0.412291 3.70312 0
M  V30 19339 H 1890.38 1.2276 4.63106 0
M  V30 19340 H 1888.74 0.558615 2.48499 0
M  V30 19341 H 1889.52 2.22501 2.61434 0
M  V30 19342 N 1891.97 -1.4484 0.62123 0
M  V30 19343 C 1893.25 -1.95528 0.0531511 0
M  V30 19344 C 1893.63 -1.56342 -1.41846 0
M  V30 19345 O 1892.97 -0.832621 -2.1279 0
M  V30 19346 C 1893.18 -3.47988 0.2656 0
M  V30 19347 C 1894.53 -4.24322 0.153573 0
M  V30 19348 O 1895.56 -3.55658 0.19644 0
M  V30 19349 O 1894.41 -5.46477 0.05015 0
M  V30 19350 H 1891.51 -0.826527 -0.0279665 0
M  V30 19351 H 1894.05 -1.54939 0.692243 0
M  V30 19352 H 1892.83 -3.69525 1.28713 0
M  V30 19353 H 1892.45 -3.955 -0.408105 0
M  V30 19354 N 1893.45 -0.361184 -1.53405 0
M  V30 19355 C 1894.38 0.530831 -2.2194 0
M  V30 19356 C 1895.36 1.08647 -1.20974 0
M  V30 19357 O 1896.54 1.14343 -1.4986 0
M  V30 19358 C 1893.67 1.73198 -2.91067 0
M  V30 19359 C 1892.71 1.30419 -4.0607 0
M  V30 19360 S 1893.55 0.30917 -5.34607 0
M  V30 19361 C 1894.7 1.51675 -6.07244 0
M  V30 19362 H 1894.94 -0.0512313 -2.97256 0
M  V30 19363 H 1892.47 -0.145281 -1.53715 0
M  V30 19364 H 1894.43 2.42098 -3.3151 0
M  V30 19365 H 1893.09 2.28528 -2.15485 0
M  V30 19366 H 1892.28 2.20024 -4.53437 0
M  V30 19367 H 1891.88 0.694455 -3.67496 0
M  V30 19368 H 1894.18 2.44847 -6.31709 0
M  V30 19369 H 1895.12 1.08454 -6.99745 0
M  V30 19370 H 1895.53 1.7208 -5.37632 0
M  V30 19371 N 1894.92 1.57341 -0.0902386 0
M  V30 19372 C 1895.87 2.13756 0.870448 0
M  V30 19373 C 1896.84 1.05483 1.28306 0
M  V30 19374 O 1898.03 1.33245 1.36567 0
M  V30 19375 C 1895.17 2.71839 2.12597 0
M  V30 19376 C 1894.28 3.94329 1.76433 0
M  V30 19377 C 1893.41 4.40593 2.96734 0
M  V30 19378 C 1892.45 5.55684 2.56674 0
M  V30 19379 N 1891.59 5.96822 3.69794 0
M  V30 19380 H 1896.43 2.95535 0.3825 0
M  V30 19381 H 1893.97 1.4603 0.177134 0
M  V30 19382 H 1895.93 3.03632 2.86118 0
M  V30 19383 H 1894.56 1.92797 2.589 0
M  V30 19384 H 1893.61 3.68882 0.928996 0
M  V30 19385 H 1894.92 4.77871 1.42973 0
M  V30 19386 H 1894.07 4.74143 3.78514 0
M  V30 19387 H 1892.81 3.55942 3.33401 0
M  V30 19388 H 1891.82 5.21767 1.7332 0
M  V30 19389 H 1893.04 6.4208 2.21156 0
M  V30 19390 H 1890.99 5.15118 4.06189 0
M  V30 19391 H 1890.91 6.75148 3.40163 0
M  V30 19392 H 1892.17 6.35002 4.52099 0
M  V30 19393 N 1896.4 -0.183431 1.56529 0
M  V30 19394 C 1897.37 -1.21097 1.94597 0
M  V30 19395 C 1898.37 -1.37825 0.828305 0
M  V30 19396 O 1899.56 -1.35438 1.09555 0
M  V30 19397 C 1896.69 -2.57826 2.23021 0
M  V30 19398 H 1897.88 -0.885275 2.86536 0
M  V30 19399 H 1895.43 -0.425412 1.50399 0
M  V30 19400 H 1896.17 -2.95431 1.33758 0
M  V30 19401 H 1895.95 -2.47054 3.04478 0
M  V30 19402 H 1897.44 -3.31902 2.53437 0
M  V30 19403 N 1897.88 -1.50992 -0.451564 0
M  V30 19404 C 1899.13 -1.64161 -1.20095 0
M  V30 19405 C 1899.48 -0.346721 -1.8925 0
M  V30 19406 O 1898.77 0.656635 -1.79997 0
M  V30 19407 C 1898.97 -2.7732 -2.25452 0
M  V30 19408 C 1898.8 -4.17688 -1.66635 0
M  V30 19409 C 1897.57 -4.83824 -1.45749 0
M  V30 19410 C 1899.77 -5.01268 -1.15043 0
M  V30 19411 N 1897.75 -6.08347 -0.823804 0
M  V30 19412 C 1899.12 -6.16676 -0.641159 0
M  V30 19413 C 1901.17 -4.86899 -1.04083 0
M  V30 19414 C 1899.88 -7.19292 -0.0330732 0
M  V30 19415 C 1901.9 -5.89711 -0.446661 0
M  V30 19416 C 1901.26 -7.04381 0.0521393 0
M  V30 19417 H 1897.36 -0.654714 -0.427637 0
M  V30 19418 H 1899.95 -1.88176 -0.499779 0
M  V30 19419 H 1898.12 -2.54993 -2.92973 0
M  V30 19420 H 1899.85 -2.79743 -2.92448 0
M  V30 19421 H 1896.61 -4.41448 -1.71525 0
M  V30 19422 H 1897.03 -6.74963 -0.524811 0
M  V30 19423 H 1901.67 -3.98512 -1.41237 0
M  V30 19424 H 1899.39 -8.07339 0.350622 0
M  V30 19425 H 1902.98 -5.8066 -0.363957 0
M  V30 19426 H 1901.86 -7.82574 0.504692 0
M  V30 19427 N 1899.36 0.706069 -1.40899 0
M  V30 19428 C 1900.29 1.83119 -1.37841 0
M  V30 19429 C 1901.3 1.60335 -0.282253 0
M  V30 19430 O 1902.49 1.70032 -0.543263 0
M  V30 19431 C 1899.59 3.19696 -1.12461 0
M  V30 19432 C 1898.77 3.69598 -2.33915 0
M  V30 19433 C 1897.82 4.84815 -2.04551 0
M  V30 19434 O 1896.85 4.96973 -2.775 0
M  V30 19435 N 1898.05 5.71302 -1.0293 0
M  V30 19436 H 1900.82 1.86237 -2.34811 0
M  V30 19437 H 1898.38 0.887984 -1.35375 0
M  V30 19438 H 1900.37 3.94386 -0.90786 0
M  V30 19439 H 1898.94 3.11668 -0.241258 0
M  V30 19440 H 1898.16 2.85933 -2.7136 0
M  V30 19441 H 1899.45 3.99674 -3.14862 0
M  V30 19442 H 1898.85 5.64099 -0.425314 0
M  V30 19443 H 1897.4 6.45935 -0.872446 0
M  V30 19444 N 1900.84 1.26553 0.939264 0
M  V30 19445 C 1901.77 1.04069 2.04211 0
M  V30 19446 C 1902.78 0.000506291 1.628 0
M  V30 19447 O 1903.97 0.240794 1.76868 0
M  V30 19448 C 1901.07 0.554348 3.34335 0
M  V30 19449 C 1900.24 1.6642 4.04503 0
M  V30 19450 C 1899.3 1.17558 5.129 0
M  V30 19451 O 1898.33 1.87303 5.375 0
M  V30 19452 N 1899.53 0.0250252 5.80495 0
M  V30 19453 H 1902.3 1.99036 2.24065 0
M  V30 19454 H 1899.86 1.17964 1.10888 0
M  V30 19455 H 1901.85 0.211606 4.04146 0
M  V30 19456 H 1900.42 -0.301779 3.1114 0
M  V30 19457 H 1899.64 2.17779 3.28582 0
M  V30 19458 H 1900.93 2.4094 4.48136 0
M  V30 19459 H 1900.32 -0.557378 5.62947 0
M  V30 19460 H 1898.88 -0.258625 6.51287 0
M  V30 19461 N 1902.31 -1.14411 1.08387 0
M  V30 19462 C 1903.56 -1.85078 0.811826 0
M  V30 19463 C 1903.88 -1.83335 -0.664312 0
M  V30 19464 O 1903.15 -1.28164 -1.48158 0
M  V30 19465 H 1901.73 -0.685278 0.297328 0
M  V30 19466 H 1904.4 -1.38644 1.36981 0
M  V30 19467 H 1903.49 -2.89909 1.15581 0
M  V30 19468 N 1903.79 -0.869509 -1.31443 0
M  V30 19469 C 1904.76 -0.329869 -2.26814 0
M  V30 19470 C 1905.76 0.518895 -1.52198 0
M  V30 19471 O 1906.95 0.328267 -1.71079 0
M  V30 19472 C 1904.08 0.53159 -3.3673 0
M  V30 19473 H 1905.27 -1.1718 -2.7606 0
M  V30 19474 H 1902.82 -0.645061 -1.42368 0
M  V30 19475 H 1903.56 1.39473 -2.92776 0
M  V30 19476 H 1903.34 -0.0761553 -3.92026 0
M  V30 19477 H 1904.83 0.901447 -4.07754 0
M  V30 19478 N 1905.27 1.44508 -0.628902 0
M  V30 19479 C 1906.52 2.01281 -0.129966 0
M  V30 19480 C 1906.83 1.50041 1.25488 0
M  V30 19481 O 1908.04 1.98927 1.84771 0
M  V30 19482 C 1906.49 3.59442 -0.1816 0
M  V30 19483 C 1906.1 4.19678 -1.56762 0
M  V30 19484 C 1907.85 4.23697 0.260988 0
M  V30 19485 C 1905.75 5.70056 -1.57449 0
M  V30 19486 H 1904.68 0.752667 -0.0448215 0
M  V30 19487 H 1907.33 1.65749 -0.787372 0
M  V30 19488 H 1905.72 3.92261 0.542864 0
M  V30 19489 H 1906.89 3.98399 -2.31549 0
M  V30 19490 H 1905.21 3.67701 -1.9541 0
M  V30 19491 H 1907.8 5.33991 0.275356 0
M  V30 19492 H 1908.15 3.95878 1.28787 0
M  V30 19493 H 1908.68 3.95672 -0.410909 0
M  V30 19494 H 1905.42 6.02606 -2.57966 0
M  V30 19495 H 1904.94 5.93464 -0.869514 0
M  V30 19496 H 1906.62 6.33652 -1.30745 0
M  V30 19497 N 1906.75 0.369315 1.53212 0
M  V30 19498 C 1908 -0.218776 2.00912 0
M  V30 19499 C 1908.32 -1.48977 1.25821 0
M  V30 19500 O 1907.59 -1.92325 0.372538 0
M  V30 19501 H 1906.17 -0.0838334 0.742281 0
M  V30 19502 H 1908.83 0.496408 1.88472 0
M  V30 19503 H 1907.93 -0.443127 3.08938 0
M  V30 19504 N 1908.23 -1.57291 0.0985816 0
M  V30 19505 C 1909.18 -2.1545 -0.876584 0
M  V30 19506 C 1910.17 -1.09827 -1.28974 0
M  V30 19507 O 1911.38 -1.28166 -1.26386 0
M  V30 19508 H 1907.75 -0.689252 -0.300725 0
M  V30 19509 H 1909.72 -2.96204 -0.36139 0
M  V30 19510 C 1908.47 -2.75232 -2.12468 0
M  V30 19511 H 1907.79 -3.56194 -1.81565 0
M  V30 19512 H 1909.23 -3.19489 -2.78752 0
M  V30 19513 C 1907.69 -1.71298 -2.90101 0
M  V30 19514 O 1908.22 -1.15402 -3.84767 0
M  V30 19515 N 1906.43 -1.41709 -2.53706 0
M  V30 19516 H 1905.98 -1.87354 -1.76794 0
M  V30 19517 H 1905.93 -0.724072 -3.05949 0
M  V30 19518 N 1909.71 0.175127 -1.56624 0
M  V30 19519 C 1910.65 1.23623 -1.97028 0
M  V30 19520 C 1911.65 1.46036 -0.858485 0
M  V30 19521 O 1912.85 1.46661 -1.04358 0
M  V30 19522 H 1909.23 0.415474 -0.626806 0
M  V30 19523 H 1911.2 0.86857 -2.85479 0
M  V30 19524 C 1909.95 2.56896 -2.34307 0
M  V30 19525 H 1909.27 2.40471 -3.19396 0
M  V30 19526 H 1910.71 3.29839 -2.66425 0
M  V30 19527 C 1909.17 3.15369 -1.18506 0
M  V30 19528 O 1909.7 3.98933 -0.470694 0
M  V30 19529 N 1907.91 2.74403 -0.956625 0
M  V30 19530 H 1907.45 2.06551 -1.5393 0
M  V30 19531 H 1907.41 3.13863 -0.183647 0
M  V30 19532 N 1911.18 1.5123 0.44355 0
M  V30 19533 C 1912.13 1.7266 1.55857 0
M  V30 19534 C 1913.13 0.59279 1.5869 0
M  V30 19535 O 1914.33 0.774014 1.62509 0
M  V30 19536 H 1910.71 0.545442 0.517684 0
M  V30 19537 H 1912.68 2.66139 1.34954 0
M  V30 19538 C 1911.43 1.86311 2.9357 0
M  V30 19539 H 1910.75 2.72958 2.9212 0
M  V30 19540 H 1912.19 2.0532 3.70971 0
M  V30 19541 C 1910.65 0.621377 3.3112 0
M  V30 19542 O 1911.18 -0.226833 4.01059 0
M  V30 19543 N 1909.38 0.467286 2.86818 0
M  V30 19544 H 1908.93 1.15859 2.30075 0
M  V30 19545 H 1908.89 -0.36232 3.12305 0
M  V30 19546 N 1912.66 -0.698586 1.41271 0
M  V30 19547 C 1913.91 -1.46077 1.40674 0
M  V30 19548 C 1914.24 -1.94194 0.0146774 0
M  V30 19549 O 1913.52 -1.69325 -0.957036 0
M  V30 19550 C 1913.8 -2.67481 2.41093 0
M  V30 19551 C 1913.65 -2.25149 3.89394 0
M  V30 19552 C 1914.97 -3.69673 2.38809 0
M  V30 19553 H 1912.09 -0.529839 0.512288 0
M  V30 19554 H 1914.73 -0.795918 1.72526 0
M  V30 19555 H 1912.88 -3.24206 2.14062 0
M  V30 19556 H 1914.55 -1.73775 4.27317 0
M  V30 19557 H 1912.8 -1.56965 4.04406 0
M  V30 19558 H 1913.47 -3.12247 4.55199 0
M  V30 19559 H 1915.94 -3.22615 2.6279 0
M  V30 19560 H 1914.82 -4.52232 3.1109 0
M  V30 19561 H 1915.08 -4.1916 1.40562 0
M  V30 19562 N 1914.14 -1.27049 -0.93254 0
M  V30 19563 C 1915.39 -1.13103 -1.6797 0
M  V30 19564 C 1915.71 0.324047 -1.91782 0
M  V30 19565 O 1914.97 1.25381 -1.5026 0
M  V30 19566 C 1915.27 -1.8547 -3.05509 0
M  V30 19567 C 1914.93 -3.35342 -3.01424 0
M  V30 19568 C 1913.6 -3.76222 -3.00017 0
M  V30 19569 C 1915.95 -4.30993 -2.93078 0
M  V30 19570 C 1913.28 -5.11125 -2.88041 0
M  V30 19571 C 1915.63 -5.65946 -2.82644 0
M  V30 19572 C 1914.29 -6.06126 -2.79585 0
M  V30 19573 H 1913.56 -0.413872 -0.614647 0
M  V30 19574 H 1916.21 -1.57598 -1.08789 0
M  V30 19575 H 1914.51 -1.33469 -3.68366 0
M  V30 19576 H 1916.21 -1.72112 -3.62186 0
M  V30 19577 H 1912.8 -3.02828 -3.03303 0
M  V30 19578 H 1916.99 -4.00385 -2.93267 0
M  V30 19579 H 1912.24 -5.41408 -2.84056 0
M  V30 19580 H 1916.42 -6.39738 -2.75151 0
M  V30 19581 H 1914.04 -7.10613 -2.70061 0
M  V30 19582 N 1915.62 1.13835 -1.08993 0
M  V30 19583 C 1916.84 1.89402 -0.845071 0
M  V30 19584 C 1917.27 1.78353 0.597641 0
M  V30 19585 O 1916.63 1.12793 1.41942 0
M  V30 19586 C 1916.67 3.37144 -1.27931 0
M  V30 19587 O 1915.78 4.101 -0.434975 0
M  V30 19588 H 1915.12 0.589066 -0.306427 0
M  V30 19589 H 1917.65 1.44055 -1.45291 0
M  V30 19590 H 1917.66 3.87967 -1.26277 0
M  V30 19591 H 1916.33 3.44504 -2.33002 0
M  V30 19592 H 1914.91 3.6932 -0.515447 0
M  V30 19593 N 1917.1 0.876467 1.3098 0
M  V30 19594 C 1918.03 0.294228 2.27304 0
M  V30 19595 C 1919.04 -0.546404 1.53357 0
M  V30 19596 O 1920.23 -0.367339 1.74679 0
M  V30 19597 C 1917.33 -0.600972 3.33529 0
M  V30 19598 C 1916.5 0.208678 4.36902 0
M  V30 19599 C 1915.56 -0.615677 5.22586 0
M  V30 19600 O 1914.59 -0.0413981 5.69185 0
M  V30 19601 N 1915.79 -1.92644 5.47603 0
M  V30 19602 H 1918.55 1.12201 2.77905 0
M  V30 19603 H 1916.12 0.738597 1.44071 0
M  V30 19604 H 1918.11 -1.15831 3.8777 0
M  V30 19605 H 1916.68 -1.32943 2.82922 0
M  V30 19606 H 1915.9 0.947462 3.82644 0
M  V30 19607 H 1917.19 0.763998 5.03031 0
M  V30 19608 H 1916.58 -2.41605 5.11511 0
M  V30 19609 H 1915.14 -2.43141 6.04752 0
M  V30 19610 N 1918.57 -1.44173 0.636557 0
M  V30 19611 C 1919.54 -2.29133 -0.0554994 0
M  V30 19612 C 1920.54 -1.41329 -0.766986 0
M  V30 19613 O 1921.73 -1.63142 -0.610753 0
M  V30 19614 C 1918.86 -3.23031 -1.08922 0
M  V30 19615 H 1920.05 -2.91811 0.691829 0
M  V30 19616 H 1917.6 -1.51175 0.396956 0
M  V30 19617 H 1918.34 -2.65213 -1.86635 0
M  V30 19618 H 1918.12 -3.87743 -0.58291 0
M  V30 19619 H 1919.61 -3.8684 -1.57304 0
M  V30 19620 N 1920.05 -0.377435 -1.53014 0
M  V30 19621 C 1921.3 0.208838 -2.01722 0
M  V30 19622 C 1921.63 1.47446 -1.26385 0
M  V30 19623 O 1920.91 1.91122 -0.360903 0
M  V30 19624 C 1921.19 0.4888 -3.56767 0
M  V30 19625 C 1921.04 -0.791285 -4.42785 0
M  V30 19626 C 1922.36 1.28443 -4.2094 0
M  V30 19627 H 1919.48 0.0744281 -0.733232 0
M  V30 19628 H 1922.12 -0.504664 -1.83175 0
M  V30 19629 H 1920.27 1.09662 -3.72702 0
M  V30 19630 H 1921.94 -1.42848 -4.38625 0
M  V30 19631 H 1920.19 -1.40914 -4.10275 0
M  V30 19632 H 1920.86 -0.550199 -5.49251 0
M  V30 19633 H 1923.33 0.770147 -4.08911 0
M  V30 19634 H 1922.21 1.44906 -5.29427 0
M  V30 19635 H 1922.47 2.29631 -3.77786 0
M  V30 19636 N 1921.53 1.57237 -0.106922 0
M  V30 19637 C 1922.46 2.11718 0.877968 0
M  V30 19638 C 1923.48 1.0571 1.23812 0
M  V30 19639 O 1924.66 1.3312 1.18917 0
M  V30 19640 C 1921.76 2.59182 2.18352 0
M  V30 19641 C 1920.94 3.89156 1.99691 0
M  V30 19642 C 1920 4.22344 3.13866 0
M  V30 19643 O 1919.02 4.91367 2.87309 0
M  V30 19644 N 1920.22 3.78694 4.39967 0
M  V30 19645 H 1922.99 2.96846 0.412584 0
M  V30 19646 H 1920.55 1.61713 0.0778505 0
M  V30 19647 H 1922.54 2.78423 2.93706 0
M  V30 19648 H 1921.11 1.78999 2.56277 0
M  V30 19649 H 1920.33 3.78945 1.086 0
M  V30 19650 H 1921.62 4.74165 1.84514 0
M  V30 19651 H 1921.02 3.23 4.64422 0
M  V30 19652 H 1919.58 4.03067 5.12231 0
M  V30 19653 N 1923.01 -0.166818 1.56715 0
M  V30 19654 C 1923.96 -1.22576 1.97681 0
M  V30 19655 C 1924.95 -1.45578 0.866218 0
M  V30 19656 O 1926.16 -1.46105 1.05135 0
M  V30 19657 H 1922.53 -0.412144 0.629 0
M  V30 19658 H 1924.5 -0.853418 2.85936 0
M  V30 19659 C 1923.25 -2.55649 2.35667 0
M  V30 19660 H 1922.57 -2.38774 3.20666 0
M  V30 19661 H 1924.01 -3.28421 2.68171 0
M  V30 19662 C 1922.47 -3.14737 1.20177 0
M  V30 19663 O 1923 -3.98678 0.491844 0
M  V30 19664 N 1921.21 -2.73892 0.971164 0
M  V30 19665 H 1920.76 -2.05732 1.55023 0
M  V30 19666 H 1920.71 -3.13761 0.20029 0
M  V30 19667 N 1924.49 -1.51463 -0.435524 0
M  V30 19668 C 1925.42 -1.69104 -1.54715 0
M  V30 19669 C 1926.43 -0.571681 -1.52432 0
M  V30 19670 O 1927.62 -0.846054 -1.57176 0
M  V30 19671 C 1924.72 -1.69217 -2.9363 0
M  V30 19672 C 1923.89 -2.97766 -3.20397 0
M  V30 19673 C 1922.95 -2.90043 -4.39046 0
M  V30 19674 O 1921.98 -3.63985 -4.37611 0
M  V30 19675 N 1923.18 -2.06018 -5.42712 0
M  V30 19676 H 1925.95 -2.64998 -1.39985 0
M  V30 19677 H 1923.51 -1.49371 -0.624486 0
M  V30 19678 H 1925.5 -1.61616 -3.71029 0
M  V30 19679 H 1924.07 -0.809085 -3.01948 0
M  V30 19680 H 1923.29 -3.19222 -2.31282 0
M  V30 19681 H 1924.58 -3.82857 -3.35109 0
M  V30 19682 H 1923.97 -1.45324 -5.46715 0
M  V30 19683 H 1922.53 -2.04295 -6.18956 0
M  V30 19684 N 1925.96 0.691085 -1.4164 0
M  V30 19685 C 1927.38 1.27116 -1.36742 0
M  V30 19686 C 1927.73 1.96129 -0.0526953 0
M  V30 19687 O 1926.85 1.99052 0.848953 0
M  V30 19688 C 1927.45 2.31171 -2.4768 0
M  V30 19689 C 1926.01 2.84744 -2.46166 0
M  V30 19690 C 1925.15 1.58841 -2.27299 0
M  V30 19691 H 1928.1 0.485541 -1.5109 0
M  V30 19692 H 1928.12 3.12559 -2.16996 0
M  V30 19693 H 1927.64 1.80913 -3.43354 0
M  V30 19694 H 1925.74 3.39167 -1.54262 0
M  V30 19695 H 1925.85 3.34869 -3.42636 0
M  V30 19696 H 1924.21 1.84815 -1.75258 0
M  V30 19697 H 1925 1.10573 -3.25005 0
M  V30 19698 N 1927.44 1.27542 0.925789 0
M  V30 19699 C 1928.67 1.1681 1.70772 0
M  V30 19700 C 1929.09 -0.274824 1.86789 0
M  V30 19701 O 1928.44 -1.18694 1.38629 0
M  V30 19702 C 1928.49 1.84904 3.10633 0
M  V30 19703 O 1928.21 3.23559 2.95366 0
M  V30 19704 C 1929.72 1.80322 4.04968 0
M  V30 19705 H 1926.94 0.406036 0.534206 0
M  V30 19706 H 1929.48 1.68448 1.15955 0
M  V30 19707 H 1927.63 1.37166 3.62304 0
M  V30 19708 H 1928.05 3.57488 3.838 0
M  V30 19709 H 1929.52 2.32577 5.00611 0
M  V30 19710 H 1930 0.772975 4.32344 0
M  V30 19711 H 1930.61 2.27683 3.59222 0
M  V30 19712 N 1928.92 -1.13255 1.09595 0
M  V30 19713 C 1930.33 -1.66118 0.852147 0
M  V30 19714 C 1930.68 -1.86177 -0.61909 0
M  V30 19715 O 1929.81 -1.58186 -1.47669 0
M  V30 19716 C 1930.4 -3.0176 1.54034 0
M  V30 19717 C 1928.96 -3.51608 1.34347 0
M  V30 19718 C 1928.11 -2.26815 1.59531 0
M  V30 19719 H 1931.06 -0.971539 1.25486 0
M  V30 19720 H 1931.08 -3.67812 0.974418 0
M  V30 19721 H 1930.59 -2.87129 2.6111 0
M  V30 19722 H 1928.69 -3.71439 0.293951 0
M  V30 19723 H 1928.81 -4.31618 2.07949 0
M  V30 19724 H 1927.17 -2.33492 1.01753 0
M  V30 19725 H 1927.95 -2.14748 2.6784 0
M  V30 19726 N 1930.4 -0.883401 -1.30514 0
M  V30 19727 C 1931.36 -0.353908 -2.26451 0
M  V30 19728 C 1932.36 0.502723 -1.52739 0
M  V30 19729 O 1933.55 0.310104 -1.71418 0
M  V30 19730 C 1930.68 0.495846 -3.37275 0
M  V30 19731 H 1931.88 -1.20101 -2.74801 0
M  V30 19732 H 1929.43 -0.660124 -1.41676 0
M  V30 19733 H 1930.16 1.3636 -2.94239 0
M  V30 19734 H 1929.95 -0.117731 -3.91923 0
M  V30 19735 H 1931.44 0.858149 -4.08688 0
M  V30 19736 N 1931.88 1.43833 -0.644194 0
M  V30 19737 C 1932.81 2.29017 0.0914574 0
M  V30 19738 C 1933.82 1.4201 0.79605 0
M  V30 19739 O 1935.01 1.66036 0.655313 0
M  V30 19740 C 1932.11 3.18711 1.15225 0
M  V30 19741 C 1931.28 4.34206 0.527588 0
M  V30 19742 C 1930.34 5.04839 1.48406 0
M  V30 19743 O 1929.37 5.60416 0.996143 0
M  V30 19744 N 1930.57 5.075 2.81822 0
M  V30 19745 H 1933.34 2.92794 -0.639656 0
M  V30 19746 H 1930.9 1.54424 -0.486308 0
M  V30 19747 H 1932.89 3.62827 1.79272 0
M  V30 19748 H 1931.46 2.56595 1.78543 0
M  V30 19749 H 1930.68 3.93119 -0.291782 0
M  V30 19750 H 1931.97 5.08718 0.091139 0
M  V30 19751 H 1931.36 4.63703 3.24031 0
M  V30 19752 H 1929.92 5.55364 3.41195 0
M  V30 19753 N 1933.35 0.385544 1.52811 0
M  V30 19754 C 1934.77 -0.0893152 1.86486 0
M  V30 19755 C 1935.12 -1.46473 1.30538 0
M  V30 19756 O 1934.24 -2.06866 0.635244 0
M  V30 19757 C 1934.84 -0.168846 3.38379 0
M  V30 19758 C 1933.4 -0.587992 3.71779 0
M  V30 19759 C 1932.54 0.252389 2.76149 0
M  V30 19760 H 1935.49 0.603569 1.46774 0
M  V30 19761 H 1935.51 -0.988694 3.6743 0
M  V30 19762 H 1935.03 0.832334 3.7907 0
M  V30 19763 H 1933.13 -1.59668 3.36656 0
M  V30 19764 H 1933.24 -0.34875 4.77829 0
M  V30 19765 H 1931.6 -0.281775 2.53137 0
M  V30 19766 H 1932.39 1.25148 3.19676 0
M  V30 19767 N 1934.83 -1.57178 0.115259 0
M  V30 19768 C 1936.08 -1.94681 -0.542571 0
M  V30 19769 C 1936.4 -0.999211 -1.67454 0
M  V30 19770 O 1935.67 -0.054836 -1.95823 0
M  V30 19771 H 1934.25 -0.718769 -0.203421 0
M  V30 19772 H 1936.91 -1.94036 0.183323 0
M  V30 19773 H 1936.01 -2.9762 -0.939599 0
M  V30 19774 N 1936.31 0.158505 -1.56801 0
M  V30 19775 C 1937.56 0.874331 -1.82984 0
M  V30 19776 C 1937.89 1.81334 -0.695103 0
M  V30 19777 O 1937.17 1.9214 0.302091 0
M  V30 19778 C 1937.45 1.65886 -3.19615 0
M  V30 19779 C 1937.3 0.74211 -4.43636 0
M  V30 19780 C 1938.62 2.62382 -3.53332 0
M  V30 19781 H 1935.74 0.316412 -0.665622 0
M  V30 19782 H 1938.38 0.139988 -1.89484 0
M  V30 19783 H 1936.53 2.28488 -3.14206 0
M  V30 19784 H 1938.2 0.127969 -4.61122 0
M  V30 19785 H 1936.45 0.0509465 -4.3377 0
M  V30 19786 H 1937.12 1.32683 -5.35816 0
M  V30 19787 H 1939.59 2.09902 -3.59278 0
M  V30 19788 H 1938.47 3.14332 -4.49985 0
M  V30 19789 H 1938.73 3.43194 -2.78694 0
M  V30 19790 N 1937.79 1.51692 0.427485 0
M  V30 19791 C 1939.02 1.68424 1.19653 0
M  V30 19792 C 1939.43 0.385349 1.85234 0
M  V30 19793 O 1938.77 -0.646942 1.71931 0
M  V30 19794 C 1938.83 2.75033 2.31511 0
M  V30 19795 C 1938.5 4.1734 1.86216 0
M  V30 19796 C 1939.49 5.01794 1.3601 0
M  V30 19797 C 1937.18 4.63488 1.93608 0
M  V30 19798 C 1939.17 6.30461 0.937946 0
M  V30 19799 C 1936.86 5.92149 1.51004 0
M  V30 19800 C 1937.86 6.75464 1.0118 0
M  V30 19801 O 1937.55 8.01718 0.591843 0
M  V30 19802 H 1937.28 0.568142 0.36632 0
M  V30 19803 H 1939.83 1.98929 0.511527 0
M  V30 19804 H 1938.06 2.39865 3.03318 0
M  V30 19805 H 1939.75 2.80546 2.9334 0
M  V30 19806 H 1940.52 4.6734 1.29686 0
M  V30 19807 H 1936.4 3.98755 2.31334 0
M  V30 19808 H 1939.94 6.95441 0.548362 0
M  V30 19809 H 1935.84 6.26116 1.57001 0
M  V30 19810 H 1936.6 8.15355 0.716808 0
M  V30 19811 N 1939.27 -0.683564 1.42004 0
M  V30 19812 C 1940.22 -1.81859 1.45018 0
M  V30 19813 C 1941.21 -1.66217 0.326852 0
M  V30 19814 O 1942.42 -1.72932 0.499454 0
M  V30 19815 H 1938.79 -0.599489 0.454001 0
M  V30 19816 H 1940.76 -1.76435 2.40652 0
M  V30 19817 C 1939.51 -3.19959 1.36094 0
M  V30 19818 H 1938.83 -3.32618 2.21823 0
M  V30 19819 H 1940.27 -3.99421 1.42263 0
M  V30 19820 C 1938.73 -3.36817 0.074666 0
M  V30 19821 O 1939.26 -3.92032 -0.875984 0
M  V30 19822 N 1937.47 -2.906 -0.00533406 0
M  V30 19823 H 1937.02 -2.45853 0.769044 0
M  V30 19824 H 1936.97 -3.02257 -0.865343 0
M  V30 19825 N 1940.75 -1.28031 -0.919012 0
M  V30 19826 C 1941.69 -1.11355 -2.04213 0
M  V30 19827 C 1942.69 -0.0342517 -1.69365 0
M  V30 19828 O 1943.89 -0.192628 -1.78966 0
M  V30 19829 H 1940.27 -0.343397 -0.669016 0
M  V30 19830 H 1942.24 -2.06485 -2.15421 0
M  V30 19831 C 1940.99 -0.786653 -3.38684 0
M  V30 19832 H 1940.31 -1.6091 -3.65989 0
M  V30 19833 H 1941.75 -0.709897 -4.18015 0
M  V30 19834 C 1940.21 0.509383 -3.33027 0
M  V30 19835 O 1940.74 1.54125 -3.70956 0
M  V30 19836 N 1938.95 0.508188 -2.86122 0
M  V30 19837 H 1938.49 -0.331947 -2.55452 0
M  V30 19838 H 1938.45 1.37539 -2.82719 0
M  V30 19839 N 1942.22 1.12672 -1.10194 0
M  V30 19840 C 1943.16 2.17442 -0.692399 0
M  V30 19841 C 1944.13 1.59713 0.305045 0
M  V30 19842 O 1945.32 1.87387 0.204539 0
M  V30 19843 C 1942.45 3.38693 -0.0212605 0
M  V30 19844 C 1941.49 4.15046 -0.981778 0
M  V30 19845 S 1942.32 4.73674 -2.49786 0
M  V30 19846 C 1943.48 5.98263 -1.83936 0
M  V30 19847 H 1943.71 2.51845 -1.57991 0
M  V30 19848 H 1941.25 1.24094 -0.918694 0
M  V30 19849 H 1943.2 4.08922 0.359641 0
M  V30 19850 H 1941.87 3.02576 0.843018 0
M  V30 19851 H 1941.06 5.01902 -0.459398 0
M  V30 19852 H 1940.66 3.50513 -1.30447 0
M  V30 19853 H 1942.95 6.67354 -1.16809 0
M  V30 19854 H 1943.9 6.55123 -2.68738 0
M  V30 19855 H 1944.3 5.4921 -1.30494 0
M  V30 19856 N 1943.7 0.89031 1.30043 0
M  V30 19857 C 1944.93 0.525833 2.00623 0
M  V30 19858 C 1945.35 -0.87971 1.66261 0
M  V30 19859 O 1944.71 -1.58394 0.882105 0
M  V30 19860 C 1944.76 0.714046 3.5346 0
M  V30 19861 O 1943.86 -0.237685 4.11714 0
M  V30 19862 H 1943.2 0.20656 0.631054 0
M  V30 19863 H 1945.73 1.19932 1.65763 0
M  V30 19864 H 1945.74 0.615086 4.03337 0
M  V30 19865 H 1944.42 1.73881 3.77807 0
M  V30 19866 H 1942.99 -0.0919722 3.72787 0
M  V30 19867 N 1945.18 -1.43489 0.651812 0
M  V30 19868 C 1946.43 -2.01049 0.161972 0
M  V30 19869 C 1946.74 -1.52018 -1.23085 0
M  V30 19870 O 1947.95 -2.01842 -1.81583 0
M  V30 19871 C 1946.4 -3.59107 0.238761 0
M  V30 19872 C 1946.01 -4.17131 1.63419 0
M  V30 19873 C 1947.76 -4.24059 -0.193548 0
M  V30 19874 C 1945.66 -5.67479 1.66498 0
M  V30 19875 H 1944.59 -0.751858 0.0567901 0
M  V30 19876 H 1947.24 -1.64475 0.813641 0
M  V30 19877 H 1945.63 -3.93075 -0.48039 0
M  V30 19878 H 1946.8 -3.94665 2.37858 0
M  V30 19879 H 1945.11 -3.64546 2.01235 0
M  V30 19880 H 1947.71 -5.34361 -0.190368 0
M  V30 19881 H 1948.05 -3.97877 -1.22472 0
M  V30 19882 H 1948.59 -3.94968 0.473805 0
M  V30 19883 H 1945.33 -5.98426 2.6752 0
M  V30 19884 H 1944.85 -5.92006 0.963819 0
M  V30 19885 H 1946.53 -6.31492 1.40809 0
M  V30 19886 N 1946.66 -0.393643 -1.52605 0
M  V30 19887 C 1947.89 0.1871 -2.06052 0
M  V30 19888 C 1948.3 1.40154 -1.26501 0
M  V30 19889 O 1947.66 1.798 -0.31279 0
M  V30 19890 C 1947.71 0.552918 -3.57246 0
M  V30 19891 O 1947.43 -0.613274 -4.33786 0
M  V30 19892 C 1948.93 1.18906 -4.27055 0
M  V30 19893 H 1946.15 0.0272042 -0.670448 0
M  V30 19894 H 1948.69 -0.560126 -1.9668 0
M  V30 19895 H 1946.85 1.25004 -3.66678 0
M  V30 19896 H 1947.26 -0.311611 -5.23574 0
M  V30 19897 H 1948.74 1.39535 -5.34073 0
M  V30 19898 H 1949.21 2.15768 -3.82545 0
M  V30 19899 H 1949.82 0.532579 -4.21952 0
M  V30 19900 N 1948.14 1.57115 -0.123593 0
M  V30 19901 C 1949.38 1.95641 0.534082 0
M  V30 19902 C 1949.71 1.00726 1.66036 0
M  V30 19903 O 1948.99 0.045312 1.94447 0
M  V30 19904 C 1949.27 3.4407 1.06244 0
M  V30 19905 C 1949.13 4.49759 -0.0607321 0
M  V30 19906 C 1950.44 3.94451 1.95183 0
M  V30 19907 H 1947.56 0.71137 0.19267 0
M  V30 19908 H 1950.21 1.88944 -0.200083 0
M  V30 19909 H 1948.36 3.49909 1.68808 0
M  V30 19910 H 1950.03 4.56016 -0.69621 0
M  V30 19911 H 1948.27 4.27729 -0.723232 0
M  V30 19912 H 1948.94 5.50888 0.350271 0
M  V30 19913 H 1951.42 3.90945 1.42483 0
M  V30 19914 H 1950.29 4.98817 2.29069 0
M  V30 19915 H 1950.55 3.35417 2.88007 0
M  V30 19916 N 1949.61 -0.150187 1.56883 0
M  V30 19917 C 1950.84 -0.88235 1.87695 0
M  V30 19918 C 1951.26 -1.74093 0.712272 0
M  V30 19919 O 1950.62 -1.78118 -0.338207 0
M  V30 19920 C 1950.67 -1.71754 3.1707 0
M  V30 19921 O 1949.77 -2.82145 3.00779 0
M  V30 19922 H 1949.11 -0.245947 0.616771 0
M  V30 19923 H 1951.64 -0.141963 2.04107 0
M  V30 19924 H 1951.65 -2.1132 3.4901 0
M  V30 19925 H 1950.33 -1.08704 4.01443 0
M  V30 19926 H 1948.91 -2.46008 2.8024 0
M  V30 19927 N 1951.09 -1.51916 -0.419434 0
M  V30 19928 C 1952.03 -1.69227 -1.53093 0
M  V30 19929 C 1953 -0.539814 -1.53378 0
M  V30 19930 O 1954.19 -0.765893 -1.72239 0
M  V30 19931 C 1951.31 -1.7222 -2.91647 0
M  V30 19932 C 1950.36 -2.93643 -3.09315 0
M  V30 19933 S 1951.19 -4.54164 -2.83717 0
M  V30 19934 C 1952.35 -4.59928 -4.2452 0
M  V30 19935 H 1952.58 -2.63237 -1.38179 0
M  V30 19936 H 1950.12 -1.41825 -0.61033 0
M  V30 19937 H 1952.07 -1.7463 -3.71503 0
M  V30 19938 H 1950.73 -0.793553 -3.0391 0
M  V30 19939 H 1949.93 -2.9219 -4.10659 0
M  V30 19940 H 1949.53 -2.89068 -2.3731 0
M  V30 19941 H 1951.82 -4.36671 -5.18001 0
M  V30 19942 H 1952.76 -5.61822 -4.31 0
M  V30 19943 H 1953.17 -3.89064 -4.0901 0
M  V30 19944 N 1952.57 0.676023 -1.42365 0
M  V30 19945 C 1953.53 1.77138 -1.45446 0
M  V30 19946 C 1954.53 1.57116 -0.342226 0
M  V30 19947 O 1955.72 1.63431 -0.602999 0
M  V30 19948 C 1952.86 3.15757 -1.28492 0
M  V30 19949 H 1954.05 1.75794 -2.42974 0
M  V30 19950 H 1951.6 0.885538 -1.28794 0
M  V30 19951 H 1952.34 3.22729 -0.318815 0
M  V30 19952 H 1952.12 3.31694 -2.09097 0
M  V30 19953 H 1953.61 3.95677 -1.33528 0
M  V30 19954 N 1954.05 1.28517 0.912209 0
M  V30 19955 C 1955.3 1.15532 1.65822 0
M  V30 19956 C 1955.62 -0.296177 1.92738 0
M  V30 19957 O 1954.89 -1.20492 1.54462 0
M  V30 19958 H 1953.47 0.424573 0.614611 0
M  V30 19959 H 1956.13 1.61267 1.09448 0
M  V30 19960 H 1955.23 1.69606 2.61993 0
M  V30 19961 N 1955.53 -1.12086 1.1079 0
M  V30 19962 C 1956.77 -1.83314 0.850901 0
M  V30 19963 C 1957.1 -1.84703 -0.625275 0
M  V30 19964 O 1956.37 -1.31277 -1.45406 0
M  V30 19965 H 1954.95 -0.678817 0.311797 0
M  V30 19966 H 1957.61 -1.35707 1.39891 0
M  V30 19967 H 1956.7 -2.87393 1.21704 0
M  V30 19968 N 1957 -0.897194 -1.29569 0
M  V30 19969 C 1957.95 -0.362849 -2.29752 0
M  V30 19970 C 1958.95 0.536674 -1.60674 0
M  V30 19971 O 1960.15 0.419753 -1.75037 0
M  V30 19972 H 1956.53 -0.0987052 -0.745494 0
M  V30 19973 H 1958.5 -1.22122 -2.72266 0
M  V30 19974 C 1957.25 0.396775 -3.45429 0
M  V30 19975 H 1956.57 -0.286159 -3.98775 0
M  V30 19976 H 1958.01 0.73556 -4.17571 0
M  V30 19977 C 1956.47 1.59849 -2.96563 0
M  V30 19978 O 1957 2.69781 -2.97626 0
M  V30 19979 N 1955.21 1.4398 -2.52424 0
M  V30 19980 H 1954.75 0.545463 -2.51759 0
M  V30 19981 H 1954.71 2.24519 -2.20088 0
M  V30 19982 N 1958.48 1.43142 -0.659413 0
M  V30 19983 C 1959.71 2.06087 -0.183265 0
M  V30 19984 C 1960.13 1.49462 1.15354 0
M  V30 19985 O 1959.48 0.628341 1.71342 0
M  V30 19986 C 1959.53 3.61381 -0.0928701 0
M  V30 19987 O 1959.25 4.15902 -1.37684 0
M  V30 19988 C 1960.76 4.41413 0.408616 0
M  V30 19989 H 1957.98 0.664557 -0.092765 0
M  V30 19990 H 1960.52 1.83542 -0.901809 0
M  V30 19991 H 1958.67 3.8309 0.576268 0
M  V30 19992 H 1959.09 5.09629 -1.24009 0
M  V30 19993 H 1960.56 5.50394 0.420806 0
M  V30 19994 H 1961.04 4.14885 1.44108 0
M  V30 19995 H 1961.65 4.24687 -0.228247 0
M  V30 19996 N 1959.96 0.40173 1.52394 0
M  V30 19997 C 1960.91 -0.442142 2.28359 0
M  V30 19998 C 1961.9 -1.05228 1.32753 0
M  V30 19999 O 1963.11 -0.991332 1.50242 0
M  V30 20000 H 1959.48 -0.161356 0.734485 0
M  V30 20001 H 1961.45 0.219869 2.97589 0
M  V30 20002 C 1960.2 -1.55062 3.11209 0
M  V30 20003 H 1959.53 -1.09046 3.84642 0
M  V30 20004 H 1960.97 -2.11505 3.6748 0
M  V30 20005 C 1959.43 -2.51376 2.24303 0
M  V30 20006 O 1959.96 -3.55084 1.87825 0
M  V30 20007 N 1958.16 -2.2141 1.88218 0
M  V30 20008 H 1957.71 -1.37106 2.18082 0
M  V30 20009 H 1957.67 -2.861 1.30362 0
M  V30 20010 N 1961.44 -1.57047 0.131923 0
M  V30 20011 C 1962.68 -1.95921 -0.5237 0
M  V30 20012 C 1963.02 -1.01606 -1.65499 0
M  V30 20013 O 1962.29 -0.0556233 -1.9442 0
M  V30 20014 C 1962.58 -3.44629 -1.04418 0
M  V30 20015 C 1962.43 -4.4972 0.084583 0
M  V30 20016 C 1963.75 -3.9548 -1.93089 0
M  V30 20017 H 1960.87 -0.712382 -0.188894 0
M  V30 20018 H 1963.51 -1.88835 0.2101 0
M  V30 20019 H 1961.66 -3.50799 -1.6695 0
M  V30 20020 H 1963.33 -4.5564 0.720384 0
M  V30 20021 H 1961.57 -4.27339 0.745906 0
M  V30 20022 H 1962.24 -5.51066 -0.321051 0
M  V30 20023 H 1964.72 -3.91695 -1.40408 0
M  V30 20024 H 1963.6 -5.00025 -2.2642 0
M  V30 20025 H 1963.86 -3.36939 -2.86224 0
M  V30 20026 N 1962.92 0.141865 -1.5696 0
M  V30 20027 C 1963.85 1.20022 -1.95262 0
M  V30 20028 C 1964.86 1.38905 -0.849072 0
M  V30 20029 O 1966.05 1.38385 -1.12747 0
M  V30 20030 C 1963.15 2.56421 -2.21589 0
M  V30 20031 C 1962.32 2.58447 -3.52879 0
M  V30 20032 C 1961.38 3.76422 -3.67686 0
M  V30 20033 O 1960.41 3.61059 -4.40028 0
M  V30 20034 N 1961.61 4.94082 -3.04734 0
M  V30 20035 H 1964.38 0.87461 -2.86654 0
M  V30 20036 H 1961.94 0.331379 -1.58472 0
M  V30 20037 H 1963.93 3.33863 -2.28731 0
M  V30 20038 H 1962.5 2.81254 -1.36437 0
M  V30 20039 H 1961.72 1.66884 -3.57132 0
M  V30 20040 H 1963.01 2.56837 -4.39218 0
M  V30 20041 H 1962.4 5.09467 -2.45886 0
M  V30 20042 H 1960.96 5.69281 -3.1743 0
M  V30 20043 N 1964.39 1.52136 0.411372 0
M  V30 20044 C 1965.34 1.75927 1.52159 0
M  V30 20045 C 1966.34 0.626317 1.57396 0
M  V30 20046 O 1967.54 0.808311 1.6083 0
M  V30 20047 H 1963.92 0.5563 0.505998 0
M  V30 20048 H 1965.89 2.68942 1.29278 0
M  V30 20049 C 1964.64 1.92496 2.89552 0
M  V30 20050 H 1963.96 2.79093 2.86264 0
M  V30 20051 H 1965.4 2.13143 3.66532 0
M  V30 20052 C 1963.86 0.691473 3.29728 0
M  V30 20053 O 1964.39 -0.141712 4.0145 0
M  V30 20054 N 1962.6 0.528019 2.85763 0
M  V30 20055 H 1962.14 1.20713 2.27565 0
M  V30 20056 H 1962.1 -0.295994 3.13004 0
M  V30 20057 N 1965.87 -0.668464 1.42721 0
M  V30 20058 C 1966.81 -1.79325 1.41131 0
M  V30 20059 C 1967.78 -1.60262 0.274724 0
M  V30 20060 O 1968.97 -1.82651 0.465938 0
M  V30 20061 C 1966.1 -3.16415 1.20826 0
M  V30 20062 C 1965.14 -3.54213 2.37561 0
M  V30 20063 S 1965.97 -3.5592 4.00101 0
M  V30 20064 C 1967.13 -4.95693 3.82151 0
M  V30 20065 H 1967.36 -1.80401 2.36311 0
M  V30 20066 H 1964.9 -0.839714 1.29569 0
M  V30 20067 H 1966.85 -3.95543 1.09798 0
M  V30 20068 H 1965.52 -3.12918 0.272206 0
M  V30 20069 H 1964.71 -4.53876 2.19119 0
M  V30 20070 H 1964.31 -2.82461 2.45136 0
M  V30 20071 H 1966.6 -5.83944 3.43534 0
M  V30 20072 H 1967.55 -5.19183 4.81512 0
M  V30 20073 H 1967.95 -4.68509 3.14896 0
M  V30 20074 N 1967.35 -1.28999 -0.905381 0
M  V30 20075 C 1968.3 -1.13515 -2.0302 0
M  V30 20076 C 1969.29 -0.0522132 -1.6932 0
M  V30 20077 O 1970.5 -0.211599 -1.78752 0
M  V30 20078 H 1966.87 -0.350474 -0.665336 0
M  V30 20079 H 1968.85 -2.08758 -2.13219 0
M  V30 20080 C 1967.59 -0.822531 -3.37831 0
M  V30 20081 H 1966.92 -1.64783 -3.64262 0
M  V30 20082 H 1968.36 -0.754193 -4.17238 0
M  V30 20083 C 1966.82 0.474033 -3.33548 0
M  V30 20084 O 1967.35 1.50182 -3.7257 0
M  V30 20085 N 1965.55 0.477812 -2.86645 0
M  V30 20086 H 1965.1 -0.359023 -2.55086 0
M  V30 20087 H 1965.06 1.34533 -2.84162 0
M  V30 20088 N 1968.83 1.11497 -1.11383 0
M  V30 20089 C 1970.24 1.64742 -0.878467 0
M  V30 20090 C 1970.59 1.87138 0.589393 0
M  V30 20091 O 1969.72 1.60515 1.45134 0
M  V30 20092 C 1970.31 2.99271 -1.58815 0
M  V30 20093 C 1968.87 3.49426 -1.39923 0
M  V30 20094 C 1968.02 2.24248 -1.6312 0
M  V30 20095 H 1970.97 0.951453 -1.27016 0
M  V30 20096 H 1970.99 3.66215 -1.03281 0
M  V30 20097 H 1970.5 2.82939 -2.65645 0
M  V30 20098 H 1968.6 3.70924 -0.353006 0
M  V30 20099 H 1968.72 4.28255 -2.1479 0
M  V30 20100 H 1967.08 2.31843 -1.05455 0
M  V30 20101 H 1967.86 2.10459 -2.71223 0
M  V30 20102 N 1970.31 0.904053 1.29092 0
M  V30 20103 C 1971.24 0.329596 2.25807 0
M  V30 20104 C 1972.22 -0.560697 1.52627 0
M  V30 20105 O 1973.4 -0.50653 1.81567 0
M  V30 20106 C 1970.53 -0.529778 3.34531 0
M  V30 20107 C 1969.58 0.293796 4.25487 0
M  V30 20108 S 1970.41 1.69436 5.07988 0
M  V30 20109 C 1971.56 0.842029 6.2021 0
M  V30 20110 H 1971.8 1.14936 2.74184 0
M  V30 20111 H 1969.33 0.704675 1.37382 0
M  V30 20112 H 1971.29 -1.01981 3.97631 0
M  V30 20113 H 1969.95 -1.32382 2.8484 0
M  V30 20114 H 1969.14 -0.362868 5.02692 0
M  V30 20115 H 1968.74 0.717127 3.6706 0
M  V30 20116 H 1971.04 0.0673423 6.77467 0
M  V30 20117 H 1971.98 1.5863 6.90103 0
M  V30 20118 H 1972.39 0.394489 5.6312 0
M  V30 20119 N 1971.79 -1.4279 0.666995 0
M  V30 20120 C 1972.72 -2.28104 -0.0661771 0
M  V30 20121 C 1973.7 -1.4062 -0.816384 0
M  V30 20122 O 1974.88 -1.70061 -0.81312 0
M  V30 20123 C 1972.01 -3.20314 -1.10075 0
M  V30 20124 C 1971.05 -4.24151 -0.447018 0
M  V30 20125 S 1971.89 -5.29646 0.78963 0
M  V30 20126 C 1973.04 -6.25424 -0.244062 0
M  V30 20127 H 1973.28 -2.89939 0.657487 0
M  V30 20128 H 1970.81 -1.47504 0.456278 0
M  V30 20129 H 1972.77 -3.73981 -1.69259 0
M  V30 20130 H 1971.43 -2.57631 -1.79681 0
M  V30 20131 H 1970.62 -4.88826 -1.22739 0
M  V30 20132 H 1970.22 -3.73933 0.0710419 0
M  V30 20133 H 1972.51 -6.68409 -1.10615 0
M  V30 20134 H 1973.46 -7.07143 0.36802 0
M  V30 20135 H 1973.87 -5.6145 -0.586043 0
M  V30 20136 N 1973.26 -0.409806 -1.52179 0
M  V30 20137 C 1974.23 0.40345 -2.25621 0
M  V30 20138 C 1975.23 0.973072 -1.28015 0
M  V30 20139 O 1976.42 0.851845 -1.51951 0
M  V30 20140 C 1973.55 1.568 -3.02699 0
M  V30 20141 H 1974.74 -0.239822 -2.9894 0
M  V30 20142 H 1972.29 -0.162341 -1.55455 0
M  V30 20143 H 1973.03 2.24811 -2.33731 0
M  V30 20144 H 1972.81 1.16603 -3.74361 0
M  V30 20145 H 1974.3 2.14326 -3.58405 0
M  V30 20146 N 1974.74 1.56975 -0.14025 0
M  V30 20147 C 1975.67 2.13532 0.832862 0
M  V30 20148 C 1976.69 1.08312 1.21542 0
M  V30 20149 O 1977.88 1.35613 1.16067 0
M  V30 20150 C 1974.98 2.63756 2.12806 0
M  V30 20151 C 1974.15 3.93304 1.91392 0
M  V30 20152 C 1973.21 4.28907 3.04837 0
M  V30 20153 O 1972.23 4.97351 2.76822 0
M  V30 20154 N 1973.44 3.87941 4.31835 0
M  V30 20155 H 1976.2 2.97655 0.349525 0
M  V30 20156 H 1973.76 1.61841 0.0435313 0
M  V30 20157 H 1975.75 2.8459 2.87734 0
M  V30 20158 H 1974.32 1.84395 2.52423 0
M  V30 20159 H 1973.54 3.81164 1.00538 0
M  V30 20160 H 1974.83 4.77972 1.74414 0
M  V30 20161 H 1974.23 3.32779 4.57466 0
M  V30 20162 H 1972.79 4.13841 5.03566 0
M  V30 20163 N 1976.22 -0.133539 1.57033 0
M  V30 20164 C 1977.15 -1.1944 1.94446 0
M  V30 20165 C 1978.13 -1.40868 0.812103 0
M  V30 20166 O 1979.31 -1.5526 1.06895 0
M  V30 20167 C 1976.44 -2.55091 2.22814 0
M  V30 20168 C 1975.49 -2.50178 3.45417 0
M  V30 20169 S 1976.32 -1.95558 4.98515 0
M  V30 20170 C 1977.48 -3.32912 5.30019 0
M  V30 20171 H 1977.71 -0.875271 2.84124 0
M  V30 20172 H 1975.24 -0.33971 1.50616 0
M  V30 20173 H 1977.2 -3.3315 2.39837 0
M  V30 20174 H 1975.86 -2.84188 1.33777 0
M  V30 20175 H 1975.05 -3.50068 3.62586 0
M  V30 20176 H 1974.66 -1.80235 3.27706 0
M  V30 20177 H 1976.95 -4.29074 5.24311 0
M  V30 20178 H 1977.89 -3.20584 6.31373 0
M  V30 20179 H 1978.3 -3.30669 4.57513 0
M  V30 20180 N 1977.7 -1.52352 -0.403298 0
M  V30 20181 C 1978.63 -1.72347 -1.51093 0
M  V30 20182 C 1979.64 -0.603886 -1.51186 0
M  V30 20183 O 1980.83 -0.879203 -1.55346 0
M  V30 20184 C 1977.93 -1.75407 -2.89975 0
M  V30 20185 C 1977.1 -3.04495 -3.14009 0
M  V30 20186 C 1976.16 -2.9929 -4.32795 0
M  V30 20187 O 1975.19 -3.73185 -4.29792 0
M  V30 20188 N 1976.39 -2.17484 -5.3822 0
M  V30 20189 H 1979.16 -2.67908 -1.34333 0
M  V30 20190 H 1976.72 -1.50662 -0.592661 0
M  V30 20191 H 1978.71 -1.6945 -3.67517 0
M  V30 20192 H 1977.28 -0.87295 -3.00164 0
M  V30 20193 H 1976.5 -3.24056 -2.24458 0
M  V30 20194 H 1977.79 -3.89879 -3.26913 0
M  V30 20195 H 1977.19 -1.56888 -5.4351 0
M  V30 20196 H 1975.74 -2.17378 -6.14484 0
M  V30 20197 N 1979.18 0.660885 -1.43074 0
M  V30 20198 C 1980.11 1.78574 -1.4208 0
M  V30 20199 C 1981.09 1.60114 -0.283219 0
M  V30 20200 O 1982.27 1.82401 -0.475618 0
M  V30 20201 C 1979.4 3.1577 -1.22503 0
M  V30 20202 C 1978.44 3.52948 -2.39436 0
M  V30 20203 S 1979.28 3.53793 -4.01983 0
M  V30 20204 C 1980.43 4.93659 -3.84775 0
M  V30 20205 H 1980.67 1.79145 -2.37264 0
M  V30 20206 H 1978.2 0.832831 -1.30013 0
M  V30 20207 H 1980.16 3.94956 -1.11894 0
M  V30 20208 H 1978.82 3.1277 -0.288797 0
M  V30 20209 H 1978.01 4.52707 -2.21523 0
M  V30 20210 H 1977.61 2.81157 -2.46631 0
M  V30 20211 H 1979.9 5.82114 -3.46626 0
M  V30 20212 H 1980.85 5.16623 -4.84259 0
M  V30 20213 H 1981.26 4.66833 -3.17376 0
M  V30 20214 N 1980.65 1.29477 0.898527 0
M  V30 20215 C 1981.88 1.20529 1.68783 0
M  V30 20216 C 1982.3 -0.230536 1.86682 0
M  V30 20217 O 1981.66 -1.1664 1.38798 0
M  V30 20218 C 1981.71 1.92501 3.04919 0
M  V30 20219 O 1980.81 1.24286 3.93226 0
M  V30 20220 H 1980.16 0.417586 0.516254 0
M  V30 20221 H 1982.69 1.71066 1.1224 0
M  V30 20222 H 1982.7 2.01001 3.55053 0
M  V30 20223 H 1981.37 2.96934 2.9121 0
M  V30 20224 H 1979.95 1.24052 3.51661 0
M  V30 20225 N 1982.13 -1.10905 1.11972 0
M  V30 20226 C 1983.36 -1.87095 0.894991 0
M  V30 20227 C 1983.78 -1.79875 -0.550144 0
M  V30 20228 O 1983.14 -1.16517 -1.38901 0
M  V30 20229 C 1983.19 -3.33634 1.36825 0
M  V30 20230 O 1982.29 -4.08802 0.543553 0
M  V30 20231 H 1981.63 -0.580734 0.321938 0
M  V30 20232 H 1984.16 -1.40152 1.49059 0
M  V30 20233 H 1984.17 -3.84482 1.36519 0
M  V30 20234 H 1982.85 -3.38205 2.42054 0
M  V30 20235 H 1981.43 -3.67824 0.613185 0
M  V30 20236 N 1983.61 -0.910886 -1.2861 0
M  V30 20237 C 1984.54 -0.413998 -2.29801 0
M  V30 20238 C 1985.52 0.51689 -1.62056 0
M  V30 20239 O 1986.71 0.425236 -1.89487 0
M  V30 20240 C 1983.84 0.349336 -3.45539 0
M  V30 20241 C 1982.79 -0.49215 -4.25161 0
M  V30 20242 C 1982.12 0.399352 -5.33207 0
M  V30 20243 C 1983.42 -1.74792 -4.92184 0
M  V30 20244 H 1985.11 -1.25965 -2.71612 0
M  V30 20245 H 1982.66 -0.607149 -1.30575 0
M  V30 20246 H 1984.61 0.70777 -4.15414 0
M  V30 20247 H 1983.33 1.22887 -3.02599 0
M  V30 20248 H 1981.99 -0.833064 -3.57009 0
M  V30 20249 H 1981.64 1.27734 -4.86511 0
M  V30 20250 H 1981.34 -0.160062 -5.87382 0
M  V30 20251 H 1982.86 0.753731 -6.0593 0
M  V30 20252 H 1984.28 -1.45856 -5.54436 0
M  V30 20253 H 1982.68 -2.24952 -5.56342 0
M  V30 20254 H 1983.75 -2.4774 -4.16837 0
M  V30 20255 N 1985.09 1.42434 -0.674558 0
M  V30 20256 C 1986.02 2.2916 0.0428589 0
M  V30 20257 C 1987.03 1.43667 0.765749 0
M  V30 20258 O 1988.22 1.67388 0.619947 0
M  V30 20259 C 1985.32 3.21083 1.08439 0
M  V30 20260 C 1984.5 4.35228 0.435368 0
M  V30 20261 C 1983.55 5.07873 1.37665 0
M  V30 20262 O 1982.58 5.62402 0.877047 0
M  V30 20263 N 1983.78 5.13364 2.70994 0
M  V30 20264 H 1986.55 2.91372 -0.701618 0
M  V30 20265 H 1984.11 1.53357 -0.518954 0
M  V30 20266 H 1986.1 3.66548 1.71535 0
M  V30 20267 H 1984.67 2.60324 1.7306 0
M  V30 20268 H 1983.89 3.92411 -0.375103 0
M  V30 20269 H 1985.18 5.08797 -0.0167882 0
M  V30 20270 H 1984.58 4.70472 3.14122 0
M  V30 20271 H 1983.13 5.62476 3.29338 0
M  V30 20272 N 1986.57 0.417871 1.51959 0
M  V30 20273 C 1987.5 -0.448093 2.23757 0
M  V30 20274 C 1988.48 -1.04082 1.24923 0
M  V30 20275 O 1989.66 -1.08702 1.54 0
M  V30 20276 C 1986.79 -1.62276 2.97295 0
M  V30 20277 C 1985.83 -1.15258 4.10631 0
M  V30 20278 S 1986.67 -0.110541 5.35386 0
M  V30 20279 C 1987.82 -1.29033 6.12455 0
M  V30 20280 H 1988.06 0.161521 2.96861 0
M  V30 20281 H 1985.59 0.202231 1.5307 0
M  V30 20282 H 1987.55 -2.29628 3.40267 0
M  V30 20283 H 1986.21 -2.20373 2.23818 0
M  V30 20284 H 1985.4 -2.03044 4.61291 0
M  V30 20285 H 1985 -0.557582 3.6982 0
M  V30 20286 H 1987.3 -2.21233 6.40361 0
M  V30 20287 H 1988.24 -0.824085 7.03288 0
M  V30 20288 H 1988.65 -1.52008 5.43649 0
M  V30 20289 N 1988.04 -1.56898 0.148573 0
M  V30 20290 C 1989.46 -1.82957 -0.371991 0
M  V30 20291 C 1989.81 -1.06735 -1.64627 0
M  V30 20292 O 1988.93 -0.313128 -2.14123 0
M  V30 20293 C 1989.53 -3.31871 -0.681682 0
M  V30 20294 C 1988.09 -3.58506 -1.14676 0
M  V30 20295 C 1987.23 -2.76774 -0.170675 0
M  V30 20296 H 1990.18 -1.54248 0.373244 0
M  V30 20297 H 1990.2 -3.48112 -1.53618 0
M  V30 20298 H 1989.72 -3.8732 0.245938 0
M  V30 20299 H 1987.82 -3.08445 -2.09027 0
M  V30 20300 H 1987.93 -4.66961 -1.07165 0
M  V30 20301 H 1986.29 -2.45903 -0.663611 0
M  V30 20302 H 1987.08 -3.34995 0.750563 0
M  V30 20303 N 1989.52 0.125209 -1.57102 0
M  V30 20304 C 1990.77 0.832437 -1.8416 0
M  V30 20305 C 1991.09 1.80706 -0.732819 0
M  V30 20306 O 1990.36 1.94378 0.243723 0
M  V30 20307 H 1988.94 0.310405 -0.679454 0
M  V30 20308 H 1991.6 0.114013 -1.94566 0
M  V30 20309 H 1990.7 1.38145 -2.79861 0
M  V30 20310 N 1991 1.52564 0.395213 0
M  V30 20311 C 1991.93 1.71641 1.50382 0
M  V30 20312 C 1992.91 0.564147 1.525 0
M  V30 20313 O 1994.1 0.793198 1.70999 0
M  V30 20314 C 1991.22 1.76838 2.8887 0
M  V30 20315 C 1990.27 2.98527 3.04605 0
M  V30 20316 S 1991.1 4.5862 2.76456 0
M  V30 20317 C 1992.26 4.66624 4.17149 0
M  V30 20318 H 1992.49 2.65402 1.33973 0
M  V30 20319 H 1990.02 1.42778 0.587689 0
M  V30 20320 H 1991.98 1.80518 3.68678 0
M  V30 20321 H 1990.64 0.841802 3.02609 0
M  V30 20322 H 1989.84 2.98686 4.05959 0
M  V30 20323 H 1989.44 2.92806 2.32681 0
M  V30 20324 H 1991.73 4.44856 5.10988 0
M  V30 20325 H 1992.67 5.68608 4.22008 0
M  V30 20326 H 1993.08 3.95522 4.02768 0
M  V30 20327 N 1992.48 -0.653289 1.43422 0
M  V30 20328 C 1993.43 -1.78742 1.48842 0
M  V30 20329 C 1994.42 -1.65486 0.362035 0
M  V30 20330 O 1995.63 -1.71834 0.536023 0
M  V30 20331 H 1992 -0.589724 0.466614 0
M  V30 20332 H 1993.97 -1.7129 2.4434 0
M  V30 20333 C 1992.72 -3.17 1.4285 0
M  V30 20334 H 1992.04 -3.27838 2.28828 0
M  V30 20335 H 1993.48 -3.96314 1.50704 0
M  V30 20336 C 1991.94 -3.36583 0.146093 0
M  V30 20337 O 1992.47 -3.93802 -0.792631 0
M  V30 20338 N 1990.68 -2.90545 0.0563076 0
M  V30 20339 H 1990.23 -2.44166 0.82102 0
M  V30 20340 H 1990.18 -3.04024 -0.801035 0
M  V30 20341 N 1993.96 -1.29952 -0.891648 0
M  V30 20342 C 1995.18 -1.21297 -1.67615 0
M  V30 20343 C 1995.6 0.225203 -1.87452 0
M  V30 20344 O 1994.96 1.14977 -1.41727 0
M  V30 20345 C 1995.01 -1.93074 -3.05622 0
M  V30 20346 O 1994.73 -3.31276 -2.86684 0
M  V30 20347 C 1996.23 -1.90996 -4.00044 0
M  V30 20348 H 1993.45 -0.420057 -0.523253 0
M  V30 20349 H 1995.99 -1.71463 -1.11448 0
M  V30 20350 H 1994.15 -1.46724 -3.5854 0
M  V30 20351 H 1994.56 -3.67538 -3.74187 0
M  V30 20352 H 1996.04 -2.45768 -4.94269 0
M  V30 20353 H 1996.51 -0.887331 -4.30143 0
M  V30 20354 H 1997.12 -2.37127 -3.53059 0
M  V30 20355 N 1995.44 1.1031 -1.12559 0
M  V30 20356 C 1996.68 1.82567 -0.883005 0
M  V30 20357 C 1997.01 1.85031 0.589667 0
M  V30 20358 O 1996.29 1.3119 1.43595 0
M  V30 20359 C 1996.57 3.29171 -1.46009 0
M  V30 20360 C 1996.43 3.35032 -3.00122 0
M  V30 20361 C 1997.74 4.25591 -1.12073 0
M  V30 20362 H 1994.86 0.662829 -0.322221 0
M  V30 20363 H 1997.51 1.29276 -1.3924 0
M  V30 20364 H 1995.66 3.74684 -1.02685 0
M  V30 20365 H 1997.33 2.9799 -3.52135 0
M  V30 20366 H 1995.57 2.74892 -3.35584 0
M  V30 20367 H 1996.24 4.3827 -3.35595 0
M  V30 20368 H 1998.72 3.88318 -1.49494 0
M  V30 20369 H 1997.59 5.26528 -1.55112 0
M  V30 20370 H 1997.85 4.42088 -0.0331138 0
M  V30 20371 N 1996.91 0.917694 1.28125 0
M  V30 20372 C 1998.15 0.56005 1.96578 0
M  V30 20373 C 1998.52 -0.880571 1.70616 0
M  V30 20374 O 1999.72 -1.34599 2.32673 0
M  V30 20375 C 1997.99 0.865324 3.46766 0
M  V30 20376 S 1999.55 0.61469 4.34473 0
M  V30 20377 H 1996.37 0.207088 0.680173 0
M  V30 20378 H 1998.97 1.18399 1.5557 0
M  V30 20379 H 1997.67 1.91167 3.63157 0
M  V30 20380 H 1997.2 0.23019 3.92726 0
M  V30 20381 H 1999.22 -0.532159 4.93338 0
M  V30 20382 N 1998.39 -1.42074 0.682102 0
M  V30 20383 C 1999.8 -1.8453 0.283805 0
M  V30 20384 C 2000.15 -1.5709 -1.17547 0
M  V30 20385 O 1999.28 -1.03444 -1.90075 0
M  V30 20386 C 1999.87 -3.34965 0.508316 0
M  V30 20387 C 1998.43 -3.76042 0.164069 0
M  V30 20388 C 1997.58 -2.65594 0.797204 0
M  V30 20389 H 2000.53 -1.31817 0.88374 0
M  V30 20390 H 2000.55 -3.7976 -0.237267 0
M  V30 20391 H 2000.06 -3.54905 1.57047 0
M  V30 20392 H 1998.16 -3.61707 -0.894353 0
M  V30 20393 H 1998.28 -4.75205 0.609688 0
M  V30 20394 H 1996.64 -2.53678 0.227913 0
M  V30 20395 H 1997.42 -2.88355 1.86296 0
M  V30 20396 N 1999.87 -0.425924 -1.51735 0
M  V30 20397 C 2000.78 0.39769 -2.31205 0
M  V30 20398 C 2001.8 1.0382 -1.39633 0
M  V30 20399 O 2002.97 1.03606 -1.72707 0
M  V30 20400 C 2000.04 1.49033 -3.13033 0
M  V30 20401 C 1999.1 0.871143 -4.20368 0
M  V30 20402 C 1998.33 1.91172 -4.98286 0
M  V30 20403 O 1998.55 3.13232 -4.76699 0
M  V30 20404 O 1997.49 1.5086 -5.82688 0
M  V30 20405 H 2001.31 -0.25075 -3.02663 0
M  V30 20406 H 1998.9 -0.188723 -1.48203 0
M  V30 20407 H 2000.78 2.12428 -3.6394 0
M  V30 20408 H 1999.46 2.12307 -2.44351 0
M  V30 20409 H 1998.36 0.199453 -3.73568 0
M  V30 20410 H 1999.7 0.282077 -4.91391 0
M  V30 20411 N 2001.35 1.56817 -0.156891 0
M  V30 20412 C 2002.28 2.14404 0.810167 0
M  V30 20413 C 2003.29 1.09595 1.20386 0
M  V30 20414 O 2004.48 1.36836 1.14622 0
M  V30 20415 C 2001.58 2.65998 2.09996 0
M  V30 20416 C 2000.75 3.95312 1.87209 0
M  V30 20417 C 1999.81 4.32116 3.00271 0
M  V30 20418 O 1998.84 5.00259 2.71532 0
M  V30 20419 N 2000.04 3.925 4.27696 0
M  V30 20420 H 2002.81 2.98009 0.317935 0
M  V30 20421 H 2000.37 1.61879 0.0263634 0
M  V30 20422 H 2002.36 2.87626 2.84699 0
M  V30 20423 H 2000.93 1.87062 2.50453 0
M  V30 20424 H 2000.15 3.82209 0.964891 0
M  V30 20425 H 2001.44 4.79795 1.69335 0
M  V30 20426 H 2000.84 3.37612 4.5391 0
M  V30 20427 H 1999.39 4.19159 4.99148 0
M  V30 20428 N 2002.83 -0.116876 1.57166 0
M  V30 20429 C 2004.07 -0.822873 1.84151 0
M  V30 20430 C 2004.39 -1.80944 0.742867 0
M  V30 20431 O 2005.59 -2.56177 0.89919 0
M  V30 20432 C 2004.05 -1.51414 3.26499 0
M  V30 20433 C 2003.66 -0.568446 4.44379 0
M  V30 20434 C 2005.4 -2.20514 3.62731 0
M  V30 20435 C 2003.31 -1.26306 5.77755 0
M  V30 20436 H 2002.24 -0.311047 0.686852 0
M  V30 20437 H 2004.89 -0.0756323 1.83344 0
M  V30 20438 H 2003.27 -2.30807 3.21782 0
M  V30 20439 H 2004.45 0.192429 4.60398 0
M  V30 20440 H 2002.76 0.0157058 4.16397 0
M  V30 20441 H 2005.36 -2.73177 4.5965 0
M  V30 20442 H 2005.7 -2.98411 2.90269 0
M  V30 20443 H 2006.23 -1.48006 3.69241 0
M  V30 20444 H 2002.97 -0.525332 6.53392 0
M  V30 20445 H 2002.49 -1.99589 5.65618 0
M  V30 20446 H 2004.17 -1.79566 6.21583 0
M  V30 20447 N 2004.3 -1.52772 -0.387116 0
M  V30 20448 C 2005.25 -1.78325 -1.49341 0
M  V30 20449 C 2006.25 -0.651278 -1.5638 0
M  V30 20450 O 2007.45 -0.833795 -1.59524 0
M  V30 20451 H 2003.83 -0.56428 -0.497084 0
M  V30 20452 H 2005.8 -2.70965 -1.24983 0
M  V30 20453 C 2004.55 -1.97079 -2.86453 0
M  V30 20454 H 2003.87 -2.83612 -2.81788 0
M  V30 20455 H 2005.31 -2.18947 -3.63095 0
M  V30 20456 C 2003.77 -0.743842 -3.28586 0
M  V30 20457 O 2004.3 0.0778266 -4.01625 0
M  V30 20458 N 2002.5 -0.573415 -2.84886 0
M  V30 20459 H 2002.05 -1.24319 -2.25616 0
M  V30 20460 H 2002.01 0.24616 -3.13435 0
M  V30 20461 N 2005.78 0.645673 -1.43767 0
M  V30 20462 C 2007.06 1.40331 -1.3626 0
M  V30 20463 C 2007.44 2.11095 -0.0141031 0
M  V30 20464 O 2006.79 2.05321 1.00277 0
M  V30 20465 C 2007 2.38177 -2.55094 0
M  V30 20466 C 2008.34 3.01949 -2.98516 0
M  V30 20467 O 2009.37 2.48504 -2.55195 0
M  V30 20468 O 2008.23 3.98868 -3.73586 0
M  V30 20469 H 2005.32 0.627337 -0.538866 0
M  V30 20470 H 2007.87 0.671948 -1.5583 0
M  V30 20471 H 2006.64 1.84886 -3.44866 0
M  V30 20472 H 2006.26 3.18752 -2.37662 0
M  V30 20473 N 2007.26 1.30423 0.884744 0
M  V30 20474 C 2008.67 1.17357 1.45204 0
M  V30 20475 C 2009.02 -0.225645 1.94898 0
M  V30 20476 O 2008.15 -1.12234 1.8502 0
M  V30 20477 C 2008.74 2.12438 2.63923 0
M  V30 20478 C 2007.3 2.03351 3.16742 0
M  V30 20479 C 2006.45 2.02508 1.89436 0
M  V30 20480 H 2009.4 1.42689 0.694659 0
M  V30 20481 H 2009.42 1.70535 3.40144 0
M  V30 20482 H 2008.93 3.14267 2.27724 0
M  V30 20483 H 2007.03 1.04665 3.57597 0
M  V30 20484 H 2007.15 2.91748 3.80026 0
M  V30 20485 H 2005.51 1.47312 2.07777 0
M  V30 20486 H 2006.29 3.06066 1.55494 0
M  V30 20487 N 2008.74 -1.09711 1.13142 0
M  V30 20488 C 2009.7 -2.14443 0.809114 0
M  V30 20489 C 2010.7 -1.59789 -0.18005 0
M  V30 20490 O 2011.89 -1.74137 0.0466686 0
M  V30 20491 C 2009.02 -3.40291 0.203714 0
M  V30 20492 H 2010.22 -2.44466 1.73713 0
M  V30 20493 H 2007.77 -1.252 0.935663 0
M  V30 20494 H 2008.5 -3.15892 -0.733667 0
M  V30 20495 H 2008.29 -3.8125 0.916003 0
M  V30 20496 H 2009.78 -4.176 -0.00503851 0
M  V30 20497 N 2010.22 -0.924476 -1.27637 0
M  V30 20498 C 2011.15 -0.438348 -2.29349 0
M  V30 20499 C 2012.13 0.499673 -1.62595 0
M  V30 20500 O 2013.31 0.405114 -1.89928 0
M  V30 20501 C 2010.44 0.312668 -3.4589 0
M  V30 20502 C 2009.4 -0.537216 -4.24615 0
M  V30 20503 C 2008.72 0.342776 -5.336 0
M  V30 20504 C 2010.02 -1.80003 -4.90302 0
M  V30 20505 H 2011.72 -1.28838 -2.70261 0
M  V30 20506 H 2009.26 -0.620964 -1.29923 0
M  V30 20507 H 2011.22 0.66367 -4.16141 0
M  V30 20508 H 2009.94 1.1967 -3.03886 0
M  V30 20509 H 2008.6 -0.870883 -3.56106 0
M  V30 20510 H 2008.25 1.22567 -4.87838 0
M  V30 20511 H 2007.95 -0.222352 -5.87179 0
M  V30 20512 H 2009.47 0.689422 -6.06695 0
M  V30 20513 H 2010.88 -1.51729 -5.52857 0
M  V30 20514 H 2009.28 -2.3084 -5.53925 0
M  V30 20515 H 2010.35 -2.52148 -4.14186 0
M  V30 20516 N 2011.69 1.41711 -0.689627 0
M  V30 20517 C 2013.11 1.55473 -0.360597 0
M  V30 20518 C 2013.31 1.66635 1.13292 0
M  V30 20519 O 2012.37 1.64148 1.91864 0
M  V30 20520 C 2013.68 2.79704 -1.10392 0
M  V30 20521 C 2015.23 2.93494 -1.08768 0
M  V30 20522 C 2015.7 4.20604 -1.81263 0
M  V30 20523 N 2017.19 4.27549 -1.78203 0
M  V30 20524 C 2017.93 5.24749 -2.3114 0
M  V30 20525 N 2017.42 6.28015 -2.92522 0
M  V30 20526 N 2019.22 5.16648 -2.21429 0
M  V30 20527 H 2011.37 1.3271 -1.65837 0
M  V30 20528 H 2013.63 0.639848 -0.699499 0
M  V30 20529 H 2013.34 2.77645 -2.15885 0
M  V30 20530 H 2013.21 3.71044 -0.678662 0
M  V30 20531 H 2015.6 2.95071 -0.0410356 0
M  V30 20532 H 2015.68 2.03343 -1.55195 0
M  V30 20533 H 2015.32 4.19788 -2.85904 0
M  V30 20534 H 2015.25 5.09716 -1.32275 0
M  V30 20535 H 2017.74 3.53555 -1.33445 0
M  V30 20536 H 2018.06 6.98563 -3.30498 0
M  V30 20537 H 2016.4 6.28534 -2.96598 0
M  V30 20538 H 2019.59 4.34898 -1.73152 0
M  V30 20539 H 2019.77 5.92234 -2.62989 0
M  V30 20540 N 2013.17 0.433965 1.51507 0
M  V30 20541 C 2014.12 -0.397051 2.24516 0
M  V30 20542 C 2015.11 -0.992896 1.26611 0
M  V30 20543 O 2016.3 -0.911595 1.5172 0
M  V30 20544 C 2013.43 -1.49953 3.08819 0
M  V30 20545 C 2012.51 -0.913247 4.1415 0
M  V30 20546 N 2012.9 -0.0558268 5.05769 0
M  V30 20547 C 2011.2 -1.18118 4.30074 0
M  V30 20548 C 2011.9 0.27308 5.81059 0
M  V30 20549 N 2010.88 -0.342445 5.4252 0
M  V30 20550 H 2014.68 0.264043 2.92712 0
M  V30 20551 H 2012.2 0.245838 1.60528 0
M  V30 20552 H 2014.19 -2.1077 3.59696 0
M  V30 20553 H 2012.85 -2.163 2.42166 0
M  V30 20554 H 2013.86 0.310359 5.16969 0
M  V30 20555 H 2010.54 -1.84239 3.74649 0
M  V30 20556 H 2011.93 0.970595 6.64853 0
M  V30 20557 N 2014.65 -1.56732 0.165206 0
M  V30 20558 C 2015.88 -2.01069 -0.487749 0
M  V30 20559 C 2016.29 -1.04541 -1.57215 0
M  V30 20560 O 2015.65 -0.0452829 -1.82444 0
M  V30 20561 C 2015.7 -3.45249 -1.07169 0
M  V30 20562 O 2015.42 -4.38089 -0.0305845 0
M  V30 20563 C 2016.92 -4.04956 -1.80348 0
M  V30 20564 H 2014.14 -0.659179 -0.125394 0
M  V30 20565 H 2016.69 -2.02774 0.26514 0
M  V30 20566 H 2014.84 -3.44338 -1.77511 0
M  V30 20567 H 2015.26 -5.22471 -0.460866 0
M  V30 20568 H 2016.73 -5.07783 -2.16474 0
M  V30 20569 H 2017.21 -3.467 -2.69621 0
M  V30 20570 H 2017.81 -4.09552 -1.14662 0
M  V30 20571 N 2016.13 0.10854 -1.57226 0
M  V30 20572 C 2017.38 0.812858 -1.85033 0
M  V30 20573 C 2017.7 1.79919 -0.751944 0
M  V30 20574 O 2016.97 1.94626 0.223093 0
M  V30 20575 H 2015.55 0.303181 -0.682708 0
M  V30 20576 H 2018.21 0.0933699 -1.94676 0
M  V30 20577 H 2017.31 1.35169 -2.81311 0
M  V30 20578 N 2017.61 1.52975 0.379009 0
M  V30 20579 C 2018.54 1.81436 1.46981 0
M  V30 20580 C 2019.52 0.666985 1.56478 0
M  V30 20581 O 2020.7 0.915545 1.71264 0
M  V30 20582 C 2017.83 1.99221 2.84479 0
M  V30 20583 C 2016.79 3.14946 2.89816 0
M  V30 20584 C 2016.11 3.18001 4.2986 0
M  V30 20585 C 2017.41 4.53814 2.58554 0
M  V30 20586 H 2019.11 2.72781 1.23413 0
M  V30 20587 H 2016.65 1.31257 0.592257 0
M  V30 20588 H 2018.61 2.17714 3.60803 0
M  V30 20589 H 2017.33 1.04573 3.09406 0
M  V30 20590 H 2015.99 2.96251 2.15942 0
M  V30 20591 H 2015.64 2.21017 4.51841 0
M  V30 20592 H 2015.34 3.95746 4.34349 0
M  V30 20593 H 2016.86 3.38662 5.08075 0
M  V30 20594 H 2018.27 4.72559 3.24593 0
M  V30 20595 H 2016.67 5.33701 2.74379 0
M  V30 20596 H 2017.74 4.59845 1.53853 0
M  V30 20597 N 2019.08 -0.63804 1.44107 0
M  V30 20598 C 2020.31 -1.42303 1.49778 0
M  V30 20599 C 2020.72 -1.88825 0.119087 0
M  V30 20600 O 2020.07 -1.61034 -0.883953 0
M  V30 20601 C 2020.13 -2.68134 2.39467 0
M  V30 20602 C 2019.79 -2.43453 3.86755 0
M  V30 20603 C 2020.79 -2.05716 4.77469 0
M  V30 20604 C 2018.47 -2.57307 4.31391 0
M  V30 20605 C 2020.47 -1.82151 6.10819 0
M  V30 20606 C 2018.15 -2.33357 5.6479 0
M  V30 20607 C 2019.15 -1.95837 6.54322 0
M  V30 20608 O 2018.84 -1.72148 7.85252 0
M  V30 20609 H 2018.57 -0.443102 0.510526 0
M  V30 20610 H 2021.13 -0.788144 1.89677 0
M  V30 20611 H 2019.36 -3.34236 1.94483 0
M  V30 20612 H 2021.05 -3.30121 2.36167 0
M  V30 20613 H 2021.81 -1.94576 4.44258 0
M  V30 20614 H 2017.69 -2.85483 3.61967 0
M  V30 20615 H 2021.23 -1.5279 6.80662 0
M  V30 20616 H 2017.13 -2.44105 5.97564 0
M  V30 20617 H 2017.9 -1.8645 7.96981 0
M  V30 20618 N 2020.56 -1.3089 -0.877815 0
M  V30 20619 C 2021.8 -1.21417 -1.6443 0
M  V30 20620 C 2022.17 0.225958 -1.90666 0
M  V30 20621 O 2023.37 0.444054 -2.65107 0
M  V30 20622 C 2021.64 -2.02699 -2.9436 0
M  V30 20623 S 2023.2 -2.10002 -3.85285 0
M  V30 20624 H 2020.02 -0.432571 -0.564272 0
M  V30 20625 H 2022.62 -1.65456 -1.04138 0
M  V30 20626 H 2021.32 -3.06433 -2.72996 0
M  V30 20627 H 2020.85 -1.59349 -3.59682 0
M  V30 20628 H 2022.87 -1.23262 -4.80646 0
M  V30 20629 N 2022.04 1.0911 -1.13723 0
M  V30 20630 C 2022.99 2.17927 -0.813066 0
M  V30 20631 C 2023.98 1.68143 0.205993 0
M  V30 20632 O 2025.19 1.7989 0.0628131 0
M  V30 20633 H 2021.56 0.710911 -0.245171 0
M  V30 20634 H 2023.53 2.42497 -1.7389 0
M  V30 20635 C 2022.28 3.46412 -0.298989 0
M  V30 20636 H 2021.61 3.85091 -1.07447 0
M  V30 20637 H 2023.05 4.23856 -0.110638 0
M  V30 20638 C 2021.51 3.22454 0.975967 0
M  V30 20639 O 2022.04 3.45385 2.05115 0
M  V30 20640 N 2020.24 2.76039 0.908345 0
M  V30 20641 H 2019.79 2.57579 0.0332379 0
M  V30 20642 H 2019.75 2.60387 1.76199 0
M  V30 20643 N 2023.52 0.931232 1.27145 0
M  V30 20644 C 2024.45 0.39037 2.25851 0
M  V30 20645 C 2025.46 -0.480869 1.55536 0
M  V30 20646 O 2026.65 -0.292921 1.7608 0
M  V30 20647 C 2023.75 -0.458971 3.35778 0
M  V30 20648 C 2022.93 0.393796 4.35624 0
M  V30 20649 C 2021.98 -0.393477 5.24727 0
M  V30 20650 O 2021.01 0.20005 5.68848 0
M  V30 20651 N 2022.21 -1.69245 5.55281 0
M  V30 20652 H 2024.98 1.23887 2.72896 0
M  V30 20653 H 2022.54 0.799038 1.40808 0
M  V30 20654 H 2024.53 -0.992799 3.92334 0
M  V30 20655 H 2023.1 -1.20824 2.88306 0
M  V30 20656 H 2022.32 1.1089 3.78282 0
M  V30 20657 H 2023.61 0.976663 4.99338 0
M  V30 20658 H 2023.01 -2.19693 5.21298 0
M  V30 20659 H 2021.56 -2.17273 6.14521 0
M  V30 20660 N 2025 -1.41343 0.697132 0
M  V30 20661 C 2025.93 -2.33452 0.0471857 0
M  V30 20662 C 2026.91 -1.51902 -0.765488 0
M  V30 20663 O 2028.09 -1.80434 -0.718146 0
M  V30 20664 C 2025.22 -3.35735 -0.888781 0
M  V30 20665 C 2024.18 -4.27608 -0.183088 0
M  V30 20666 C 2023.5 -5.20277 -1.23352 0
M  V30 20667 C 2024.8 -5.13559 0.951558 0
M  V30 20668 H 2026.5 -2.88052 0.816496 0
M  V30 20669 H 2024.04 -1.38502 0.394089 0
M  V30 20670 H 2026 -3.99098 -1.35272 0
M  V30 20671 H 2024.72 -2.79489 -1.68977 0
M  V30 20672 H 2023.38 -3.65671 0.260833 0
M  V30 20673 H 2023.03 -4.60346 -2.02708 0
M  V30 20674 H 2022.73 -5.82581 -0.766336 0
M  V30 20675 H 2024.25 -5.86517 -1.69793 0
M  V30 20676 H 2025.67 -5.70481 0.567835 0
M  V30 20677 H 2024.06 -5.84812 1.34593 0
M  V30 20678 H 2025.13 -4.50631 1.79053 0
M  V30 20679 N 2026.48 -0.441993 -1.51275 0
M  V30 20680 C 2027.7 0.123815 -2.0703 0
M  V30 20681 C 2028.13 1.35293 -1.30681 0
M  V30 20682 O 2027.48 1.77966 -0.346072 0
M  V30 20683 C 2027.53 0.419988 -3.58146 0
M  V30 20684 O 2026.64 1.50565 -3.83932 0
M  V30 20685 H 2025.98 -0.00017643 -0.664 0
M  V30 20686 H 2028.51 -0.624668 -1.94831 0
M  V30 20687 H 2028.52 0.66908 -4.02476 0
M  V30 20688 H 2027.19 -0.478329 -4.1314 0
M  V30 20689 H 2025.77 1.24615 -3.51462 0
M  V30 20690 N 2027.95 1.56642 -0.173515 0
M  V30 20691 C 2029.18 2.01763 0.480249 0
M  V30 20692 C 2029.6 1.05294 1.55868 0
M  V30 20693 O 2028.96 0.0328468 1.8127 0
M  V30 20694 C 2029.01 3.45473 1.03349 0
M  V30 20695 O 2028.11 3.52081 2.14739 0
M  V30 20696 H 2027.45 0.654011 0.114743 0
M  V30 20697 H 2029.98 2.02702 -0.278052 0
M  V30 20698 H 2029.99 3.84823 1.35554 0
M  V30 20699 H 2028.67 4.15184 0.243902 0
M  V30 20700 H 2027.25 3.24591 1.83562 0
M  V30 20701 N 2029.43 -0.1002 1.57281 0
M  V30 20702 C 2030.66 -0.818307 1.9003 0
M  V30 20703 C 2031.07 -1.72531 0.766704 0
M  V30 20704 O 2030.43 -1.80616 -0.261577 0
M  V30 20705 C 2030.48 -1.63596 3.22364 0
M  V30 20706 O 2030.2 -0.765449 4.31361 0
M  V30 20707 C 2031.7 -2.45758 3.68942 0
M  V30 20708 H 2028.92 -0.234253 0.628782 0
M  V30 20709 H 2031.47 -0.0789616 2.04347 0
M  V30 20710 H 2029.62 -2.32787 3.09659 0
M  V30 20711 H 2030.04 -1.33126 5.07324 0
M  V30 20712 H 2031.51 -2.9863 4.64246 0
M  V30 20713 H 2031.99 -3.23987 2.96528 0
M  V30 20714 H 2032.59 -1.81776 3.84497 0
M  V30 20715 N 2030.91 -1.53174 -0.370891 0
M  V30 20716 C 2032.19 -1.59697 -1.12943 0
M  V30 20717 C 2032.57 -0.401233 -2.07252 0
M  V30 20718 O 2031.91 0.608973 -2.20236 0
M  V30 20719 C 2032.12 -2.94469 -1.87321 0
M  V30 20720 C 2033.47 -3.48856 -2.42043 0
M  V30 20721 O 2034.5 -2.96463 -1.97455 0
M  V30 20722 O 2033.36 -4.40436 -3.2354 0
M  V30 20723 H 2030.45 -0.644835 -0.5178 0
M  V30 20724 H 2033 -1.65514 -0.374583 0
M  V30 20725 H 2031.77 -3.72938 -1.18462 0
M  V30 20726 H 2031.39 -2.92119 -2.69727 0
M  V30 20727 N 2032.39 0.630389 -1.44443 0
M  V30 20728 C 2033.32 1.75348 -1.54192 0
M  V30 20729 C 2034.3 1.65453 -0.394887 0
M  V30 20730 O 2035.48 1.84201 -0.615103 0
M  V30 20731 C 2032.61 3.13881 -1.48647 0
M  V30 20732 C 2031.57 3.38566 -2.61835 0
M  V30 20733 C 2030.89 4.77136 -2.41341 0
M  V30 20734 C 2032.19 3.31055 -4.0398 0
M  V30 20735 H 2033.89 1.67446 -2.48198 0
M  V30 20736 H 2031.43 0.804159 -1.19454 0
M  V30 20737 H 2033.39 3.92226 -1.54068 0
M  V30 20738 H 2032.11 3.22568 -0.511585 0
M  V30 20739 H 2030.77 2.62602 -2.55805 0
M  V30 20740 H 2030.42 4.82527 -1.42043 0
M  V30 20741 H 2030.12 4.9461 -3.1723 0
M  V30 20742 H 2031.64 5.57709 -2.48581 0
M  V30 20743 H 2033.06 3.99304 -4.11375 0
M  V30 20744 H 2031.45 3.60064 -4.80077 0
M  V30 20745 H 2032.52 2.28852 -4.27498 0
M  V30 20746 N 2033.87 1.31354 0.870861 0
M  V30 20747 C 2034.8 1.21518 1.99388 0
M  V30 20748 C 2035.78 0.102582 1.6979 0
M  V30 20749 O 2036.96 0.287028 1.92067 0
M  V30 20750 C 2034.09 0.920813 3.34871 0
M  V30 20751 C 2033.05 1.99289 3.78772 0
M  V30 20752 C 2032.37 1.55123 5.11704 0
M  V30 20753 C 2033.67 3.40589 3.95975 0
M  V30 20754 H 2035.37 2.15473 2.07875 0
M  V30 20755 H 2032.91 1.03734 0.998761 0
M  V30 20756 H 2034.86 0.838612 4.12971 0
M  V30 20757 H 2033.59 -0.0543971 3.26555 0
M  V30 20758 H 2032.25 2.06496 3.0291 0
M  V30 20759 H 2031.9 0.563901 4.99829 0
M  V30 20760 H 2031.6 2.26842 5.42048 0
M  V30 20761 H 2033.12 1.48308 5.92315 0
M  V30 20762 H 2034.53 3.36061 4.64474 0
M  V30 20763 H 2032.93 4.10517 4.37716 0
M  V30 20764 H 2034 3.8144 2.99385 0
M  V30 20765 N 2035.34 -1.08505 1.143 0
M  V30 20766 C 2036.29 -2.15397 0.829011 0
M  V30 20767 C 2037.26 -1.64728 -0.213016 0
M  V30 20768 O 2038.45 -1.90619 -0.0831625 0
M  V30 20769 C 2035.59 -3.43691 0.311546 0
M  V30 20770 C 2034.7 -4.08212 1.41375 0
M  V30 20771 C 2033.83 -5.24296 0.853639 0
M  V30 20772 C 2032.87 -5.80757 1.93359 0
M  V30 20773 N 2032.01 -6.88188 1.39073 0
M  V30 20774 H 2036.85 -2.41597 1.74456 0
M  V30 20775 H 2034.39 -1.18566 0.870668 0
M  V30 20776 H 2036.34 -4.17199 -0.00667521 0
M  V30 20777 H 2034.97 -3.17779 -0.567106 0
M  V30 20778 H 2034.03 -3.32474 1.84839 0
M  V30 20779 H 2035.34 -4.46196 2.2296 0
M  V30 20780 H 2034.49 -6.0474 0.487261 0
M  V30 20781 H 2033.23 -4.877 0.00682778 0
M  V30 20782 H 2032.24 -4.98967 2.30893 0
M  V30 20783 H 2033.46 -6.19412 2.78398 0
M  V30 20784 H 2031.41 -6.53553 0.566079 0
M  V30 20785 H 2031.32 -7.24992 2.14296 0
M  V30 20786 H 2032.59 -7.72366 1.05222 0
M  V30 20787 N 2036.82 -0.937962 -1.26649 0
M  V30 20788 C 2038.05 -0.600464 -1.97995 0
M  V30 20789 C 2038.46 0.823838 -1.69877 0
M  V30 20790 O 2037.82 1.5489 -0.965163 0
M  V30 20791 C 2037.87 -0.829264 -3.5186 0
M  V30 20792 O 2037.59 -2.19754 -3.78998 0
M  V30 20793 C 2039.09 -0.501874 -4.4045 0
M  V30 20794 H 2036.31 -0.226587 -0.631585 0
M  V30 20795 H 2038.86 -1.25779 -1.61245 0
M  V30 20796 H 2037.01 -0.218596 -3.86783 0
M  V30 20797 H 2037.43 -2.25518 -4.73542 0
M  V30 20798 H 2038.9 -0.712605 -5.47381 0
M  V30 20799 H 2039.38 0.56301 -4.35576 0
M  V30 20800 H 2039.98 -1.09113 -4.11065 0
M  V30 20801 N 2038.3 1.40971 -0.704618 0
M  V30 20802 C 2039.21 2.34555 -0.0457738 0
M  V30 20803 C 2040.23 1.56717 0.756037 0
M  V30 20804 O 2041.4 1.89156 0.691518 0
M  V30 20805 C 2038.47 3.35534 0.872815 0
M  V30 20806 C 2037.53 4.29255 0.062192 0
M  V30 20807 C 2036.76 5.2541 0.937031 0
M  V30 20808 O 2036.98 5.27245 2.17644 0
M  V30 20809 O 2035.92 6.00687 0.381874 0
M  V30 20810 H 2039.74 2.92493 -0.817415 0
M  V30 20811 H 2037.33 1.41979 -0.465014 0
M  V30 20812 H 2039.21 3.97489 1.3993 0
M  V30 20813 H 2037.89 2.80026 1.62379 0
M  V30 20814 H 2036.79 3.7062 -0.509109 0
M  V30 20815 H 2038.13 4.87885 -0.65032 0
M  V30 20816 N 2039.78 0.45001 1.51039 0
M  V30 20817 C 2040.74 -0.343489 2.26612 0
M  V30 20818 C 2041.74 -0.938789 1.3055 0
M  V30 20819 O 2042.93 -0.811258 1.54157 0
M  V30 20820 C 2040.06 -1.48719 3.0675 0
M  V30 20821 H 2041.26 0.318996 2.98199 0
M  V30 20822 H 2038.81 0.2035 1.5497 0
M  V30 20823 H 2039.54 -2.18535 2.3961 0
M  V30 20824 H 2039.33 -1.06636 3.77321 0
M  V30 20825 H 2040.82 -2.04748 3.63961 0
M  V30 20826 N 2041.26 -1.56548 0.18182 0
M  V30 20827 C 2042.53 -1.88906 -0.507337 0
M  V30 20828 C 2042.91 -1.09334 -1.80581 0
M  V30 20829 O 2042.26 -0.190397 -2.27705 0
M  V30 20830 C 2042.47 -3.41085 -0.73904 0
M  V30 20831 C 2043.82 -4.11043 -1.06435 0
M  V30 20832 O 2044.84 -3.46461 -0.82722 0
M  V30 20833 O 2043.7 -5.2516 -1.51225 0
M  V30 20834 H 2040.8 -0.784135 -0.262794 0
M  V30 20835 H 2043.34 -1.68254 0.221041 0
M  V30 20836 H 2042.11 -3.90893 0.17847 0
M  V30 20837 H 2041.74 -3.67384 -1.52036 0
M  V30 20838 N 2042.73 0.0918577 -1.57332 0
M  V30 20839 C 2043.98 0.793187 -1.85884 0
M  V30 20840 C 2044.3 1.79111 -0.770985 0
M  V30 20841 O 2043.57 1.94851 0.202438 0
M  V30 20842 H 2042.15 0.295923 -0.685885 0
M  V30 20843 H 2044.82 0.0727166 -1.94764 0
M  V30 20844 H 2043.91 1.32178 -2.82728 0
M  V30 20845 N 2044.21 1.53368 0.362763 0
M  V30 20846 C 2045.44 1.73599 1.12565 0
M  V30 20847 C 2045.86 0.466247 1.82952 0
M  V30 20848 O 2045.21 -0.561016 1.73663 0
M  V30 20849 C 2045.26 2.90332 2.15382 0
M  V30 20850 O 2044.98 4.12394 1.4786 0
M  V30 20851 C 2046.49 3.22459 3.04196 0
M  V30 20852 H 2043.71 0.580544 0.336466 0
M  V30 20853 H 2046.25 2.00123 0.420823 0
M  V30 20854 H 2044.4 2.66195 2.81459 0
M  V30 20855 H 2044.82 4.77783 2.16387 0
M  V30 20856 H 2046.29 4.07537 3.72314 0
M  V30 20857 H 2046.77 2.37943 3.69161 0
M  V30 20858 H 2047.38 3.48532 2.43732 0
M  V30 20859 N 2045.69 -0.62272 1.44776 0
M  V30 20860 C 2046.62 -1.74771 1.48283 0
M  V30 20861 C 2047.64 -1.58416 0.375253 0
M  V30 20862 O 2048.82 -1.66575 0.641472 0
M  V30 20863 C 2045.92 -3.12596 1.30909 0
M  V30 20864 C 2045.1 -3.55331 2.55066 0
M  V30 20865 C 2044.16 -4.72064 2.32469 0
M  V30 20866 O 2043.18 -4.79949 3.06003 0
M  V30 20867 N 2044.38 -5.64329 1.36063 0
M  V30 20868 H 2047.15 -1.7223 2.45269 0
M  V30 20869 H 2044.71 -0.807546 1.40322 0
M  V30 20870 H 2046.7 -3.88422 1.13625 0
M  V30 20871 H 2045.27 -3.09731 0.422559 0
M  V30 20872 H 2044.49 -2.69625 2.87569 0
M  V30 20873 H 2045.78 -3.80637 3.37628 0
M  V30 20874 H 2045.18 -5.6066 0.753476 0
M  V30 20875 H 2043.74 -6.39749 1.24756 0
M  V30 20876 N 2047.17 -1.31814 -0.863883 0
M  V30 20877 C 2048.1 -1.15798 -1.97796 0
M  V30 20878 C 2049.11 -0.0954225 -1.6252 0
M  V30 20879 O 2050.3 -0.343504 -1.75164 0
M  V30 20880 C 2047.4 -0.748332 -3.30535 0
M  V30 20881 C 2046.58 -1.89721 -3.94113 0
M  V30 20882 C 2045.63 -1.47262 -5.05174 0
M  V30 20883 O 2044.66 -2.18322 -5.25666 0
M  V30 20884 N 2045.86 -0.363428 -5.79361 0
M  V30 20885 H 2048.63 -2.11761 -2.12079 0
M  V30 20886 H 2046.19 -1.24229 -1.03821 0
M  V30 20887 H 2048.18 -0.446875 -4.02225 0
M  V30 20888 H 2046.75 0.119862 -3.1237 0
M  V30 20889 H 2045.97 -2.36566 -3.15326 0
M  V30 20890 H 2047.26 -2.66657 -4.33326 0
M  V30 20891 H 2046.66 0.228215 -5.65239 0
M  V30 20892 H 2045.21 -0.121534 -6.51687 0
M  V30 20893 N 2048.65 1.07897 -1.14873 0
M  V30 20894 C 2049.89 1.80653 -0.921532 0
M  V30 20895 C 2050.23 1.8624 0.550287 0
M  V30 20896 O 2049.5 1.34206 1.4078 0
M  V30 20897 C 2049.78 3.26 -1.52958 0
M  V30 20898 C 2049.64 3.28591 -3.07161 0
M  V30 20899 C 2050.96 4.23118 -1.21076 0
M  V30 20900 H 2048.07 0.655845 -0.336208 0
M  V30 20901 H 2050.72 1.26293 -1.41951 0
M  V30 20902 H 2048.87 3.72421 -1.1061 0
M  V30 20903 H 2050.54 2.90454 -3.58377 0
M  V30 20904 H 2048.78 2.67712 -3.4134 0
M  V30 20905 H 2049.45 4.31053 -3.44815 0
M  V30 20906 H 2051.93 3.85059 -1.57697 0
M  V30 20907 H 2050.8 5.23119 -1.66246 0
M  V30 20908 H 2051.07 4.41918 -0.12688 0
M  V30 20909 N 2050.12 0.944665 1.2615 0
M  V30 20910 C 2051.06 0.414303 2.25424 0
M  V30 20911 C 2052.07 -0.464345 1.56037 0
M  V30 20912 O 2053.26 -0.274229 1.76381 0
M  V30 20913 C 2050.36 -0.423331 3.36246 0
M  V30 20914 C 2049.53 0.439977 4.35182 0
M  V30 20915 C 2048.59 -0.337801 5.25115 0
M  V30 20916 O 2047.62 0.260373 5.68604 0
M  V30 20917 N 2048.82 -1.63346 5.57044 0
M  V30 20918 H 2051.58 1.26775 2.71566 0
M  V30 20919 H 2049.14 0.813928 1.39953 0
M  V30 20920 H 2051.14 -0.951131 3.93364 0
M  V30 20921 H 2049.71 -1.17759 2.89571 0
M  V30 20922 H 2048.93 1.14896 3.77084 0
M  V30 20923 H 2050.21 1.02957 4.98274 0
M  V30 20924 H 2049.61 -2.14152 5.23599 0
M  V30 20925 H 2048.17 -2.10743 6.16791 0
M  V30 20926 N 2051.6 -1.40596 0.712085 0
M  V30 20927 C 2052.53 -2.29193 0.0179139 0
M  V30 20928 C 2053.55 -1.45646 -0.727389 0
M  V30 20929 O 2054.74 -1.68973 -0.575349 0
M  V30 20930 C 2051.84 -3.23845 -0.998876 0
M  V30 20931 C 2051.01 -4.36229 -0.319822 0
M  V30 20932 C 2050.07 -5.11344 -1.24151 0
M  V30 20933 O 2049.09 -5.6453 -0.727627 0
M  V30 20934 N 2050.3 -5.20369 -2.57287 0
M  V30 20935 H 2053.06 -2.89409 0.778623 0
M  V30 20936 H 2050.62 -1.51928 0.559432 0
M  V30 20937 H 2052.61 -3.70968 -1.61757 0
M  V30 20938 H 2051.18 -2.64821 -1.66098 0
M  V30 20939 H 2050.4 -3.91279 0.479012 0
M  V30 20940 H 2051.69 -5.08574 0.151681 0
M  V30 20941 H 2051.09 -4.78635 -3.01538 0
M  V30 20942 H 2049.65 -5.7101 -3.14309 0
M  V30 20943 N 2053.08 -0.458013 -1.50798 0
M  V30 20944 C 2054.33 0.101617 -2.02545 0
M  V30 20945 C 2054.66 1.4054 -1.34023 0
M  V30 20946 O 2053.93 1.88941 -0.461705 0
M  V30 20947 C 2054.22 0.298998 -3.58857 0
M  V30 20948 C 2054.07 -1.02488 -4.37968 0
M  V30 20949 C 2055.39 1.05949 -4.27157 0
M  V30 20950 H 2052.51 0.0354565 -0.736147 0
M  V30 20951 H 2055.15 -0.601052 -1.80243 0
M  V30 20952 H 2053.3 0.89752 -3.77991 0
M  V30 20953 H 2054.97 -1.65898 -4.30437 0
M  V30 20954 H 2053.22 -1.62464 -4.02229 0
M  V30 20955 H 2053.89 -0.840572 -5.45562 0
M  V30 20956 H 2056.36 0.55231 -4.12418 0
M  V30 20957 H 2055.24 1.16639 -5.36364 0
M  V30 20958 H 2055.5 2.09283 -3.89427 0
M  V30 20959 N 2054.56 1.56449 -0.190119 0
M  V30 20960 C 2055.49 2.16074 0.764507 0
M  V30 20961 C 2056.5 1.12124 1.18034 0
M  V30 20962 O 2057.69 1.39237 1.11693 0
M  V30 20963 C 2054.79 2.70392 2.04307 0
M  V30 20964 C 2053.97 3.99194 1.78782 0
M  V30 20965 C 2053.03 4.38388 2.91037 0
M  V30 20966 O 2052.05 5.05906 2.60859 0
M  V30 20967 N 2053.25 4.01483 4.19275 0
M  V30 20968 H 2056.02 2.98616 0.254652 0
M  V30 20969 H 2053.58 1.61898 -0.00797932 0
M  V30 20970 H 2055.57 2.936 2.78534 0
M  V30 20971 H 2054.14 1.92333 2.46428 0
M  V30 20972 H 2053.36 3.84169 0.883602 0
M  V30 20973 H 2054.65 4.83279 1.5912 0
M  V30 20974 H 2054.05 3.47164 4.46647 0
M  V30 20975 H 2052.6 4.29652 4.90145 0
M  V30 20976 N 2056.04 -0.0835127 1.57379 0
M  V30 20977 C 2057.28 -0.786031 1.86948 0
M  V30 20978 C 2057.62 -1.77811 0.780828 0
M  V30 20979 O 2056.89 -1.93362 -0.210075 0
M  V30 20980 C 2057.17 -1.50447 3.27166 0
M  V30 20981 C 2057.03 -0.529601 4.46671 0
M  V30 20982 C 2058.35 -2.45226 3.65448 0
M  V30 20983 H 2055.47 -0.284294 0.67996 0
M  V30 20984 H 2058.11 -0.0494231 1.89936 0
M  V30 20985 H 2056.26 -2.13237 3.24749 0
M  V30 20986 H 2057.93 0.0921842 4.61208 0
M  V30 20987 H 2056.17 0.156069 4.33519 0
M  V30 20988 H 2056.84 -1.06967 5.41537 0
M  V30 20989 H 2059.32 -1.92521 3.68883 0
M  V30 20990 H 2058.2 -2.92505 4.6447 0
M  V30 20991 H 2058.46 -3.29506 2.94751 0
M  V30 20992 N 2057.52 -1.53558 -0.354624 0
M  V30 20993 C 2058.76 -1.70271 -1.09609 0
M  V30 20994 C 2059.09 -0.460135 -1.88979 0
M  V30 20995 O 2058.35 0.558038 -1.87575 0
M  V30 20996 C 2058.64 -2.91096 -2.07359 0
M  V30 20997 C 2058.31 -4.27157 -1.44386 0
M  V30 20998 C 2056.97 -4.64155 -1.2694 0
M  V30 20999 C 2059.32 -5.11726 -0.989239 0
M  V30 21000 C 2056.65 -5.83347 -0.626331 0
M  V30 21001 C 2059 -6.31574 -0.360126 0
M  V30 21002 C 2057.67 -6.67275 -0.173255 0
M  V30 21003 H 2056.94 -0.623064 -0.401089 0
M  V30 21004 H 2059.59 -1.8776 -0.37662 0
M  V30 21005 H 2057.89 -2.68164 -2.85649 0
M  V30 21006 H 2059.59 -3.0122 -2.64702 0
M  V30 21007 H 2056.18 -3.98032 -1.5896 0
M  V30 21008 H 2060.36 -4.83684 -1.11191 0
M  V30 21009 H 2055.62 -6.0959 -0.470062 0
M  V30 21010 H 2059.79 -6.964 0.00028709 0
M  V30 21011 H 2057.42 -7.59496 0.327098 0
M  V30 21012 N 2058.99 0.615033 -1.45104 0
M  V30 21013 C 2059.96 1.7081 -1.52828 0
M  V30 21014 C 2060.96 1.55523 -0.408557 0
M  V30 21015 O 2062.15 1.60726 -0.671773 0
M  V30 21016 C 2059.28 3.10023 -1.41768 0
M  V30 21017 H 2060.47 1.6533 -2.50212 0
M  V30 21018 H 2058.02 0.830115 -1.32434 0
M  V30 21019 H 2058.76 3.21086 -0.455409 0
M  V30 21020 H 2058.54 3.22527 -2.22977 0
M  V30 21021 H 2060.03 3.89657 -1.5019 0
M  V30 21022 N 2060.47 1.3227 0.85688 0
M  V30 21023 C 2061.75 1.13324 1.59427 0
M  V30 21024 C 2062.13 -0.307216 2.08853 0
M  V30 21025 O 2061.48 -1.30347 1.87675 0
M  V30 21026 C 2061.69 2.15889 2.74213 0
M  V30 21027 C 2063.03 2.49103 3.4385 0
M  V30 21028 O 2064.06 2.14417 2.84436 0
M  V30 21029 O 2062.92 3.08555 4.51061 0
M  V30 21030 H 2060.01 0.437152 0.702016 0
M  V30 21031 H 2062.56 1.43793 0.901202 0
M  V30 21032 H 2061.33 3.12724 2.35201 0
M  V30 21033 H 2060.95 1.86401 3.51198 0
M  V30 21034 N 2061.95 -1.07287 1.15444 0
M  V30 21035 C 2063.2 -1.80162 0.931099 0
M  V30 21036 C 2063.53 -1.8653 -0.540402 0
M  V30 21037 O 2062.8 -1.34951 -1.40066 0
M  V30 21038 C 2063.09 -3.25184 1.54685 0
M  V30 21039 C 2062.94 -3.26957 3.089 0
M  V30 21040 C 2064.26 -4.2247 1.23318 0
M  V30 21041 H 2061.38 -0.654053 0.339682 0
M  V30 21042 H 2064.02 -1.25539 1.42619 0
M  V30 21043 H 2062.17 -3.7183 1.12583 0
M  V30 21044 H 2063.84 -2.88549 3.59912 0
M  V30 21045 H 2062.08 -2.65898 3.42755 0
M  V30 21046 H 2062.76 -4.29218 3.47097 0
M  V30 21047 H 2065.23 -3.84218 1.59737 0
M  V30 21048 H 2064.11 -5.2223 1.69018 0
M  V30 21049 H 2064.37 -4.41844 0.150314 0
M  V30 21050 N 2063.43 -0.951342 -1.25647 0
M  V30 21051 C 2064.36 -0.426252 -2.25202 0
M  V30 21052 C 2065.37 0.456064 -1.56281 0
M  V30 21053 O 2066.56 0.264871 -1.76524 0
M  V30 21054 C 2063.66 0.405493 -3.36465 0
M  V30 21055 C 2062.83 -0.46305 -4.34942 0
M  V30 21056 C 2061.89 0.309948 -5.25286 0
M  V30 21057 O 2060.92 -0.290524 -5.68458 0
M  V30 21058 N 2062.12 1.60389 -5.57903 0
M  V30 21059 H 2064.89 -1.28213 -2.7089 0
M  V30 21060 H 2062.45 -0.821338 -1.39519 0
M  V30 21061 H 2064.44 0.930256 -3.93863 0
M  V30 21062 H 2063.01 1.16222 -2.90192 0
M  V30 21063 H 2062.23 -1.16894 -3.7647 0
M  V30 21064 H 2063.52 -1.05598 -4.97721 0
M  V30 21065 H 2062.92 2.11372 -5.24727 0
M  V30 21066 H 2061.47 2.07469 -6.179 0
M  V30 21067 N 2064.91 1.40216 -0.719531 0
M  V30 21068 C 2066.15 2.02672 -0.265214 0
M  V30 21069 C 2066.51 1.55831 1.12164 0
M  V30 21070 O 2067.71 2.10377 1.67317 0
M  V30 21071 C 2065.98 3.55716 -0.346559 0
M  V30 21072 S 2067.54 4.3879 0.0301928 0
M  V30 21073 H 2064.36 0.703215 -0.104928 0
M  V30 21074 H 2066.96 1.71274 -0.942624 0
M  V30 21075 H 2065.66 3.87299 -1.35748 0
M  V30 21076 H 2065.2 3.91847 0.349197 0
M  V30 21077 H 2067.21 4.80169 1.25107 0
M  V30 21078 N 2066.38 0.466004 1.50553 0
M  V30 21079 C 2067.61 -0.0885768 2.0671 0
M  V30 21080 C 2068.03 -1.33958 1.33044 0
M  V30 21081 O 2067.38 -1.78102 0.398219 0
M  V30 21082 C 2067.43 -0.381842 3.59478 0
M  V30 21083 O 2067.16 0.81954 4.30366 0
M  V30 21084 C 2068.66 -0.98395 4.32242 0
M  V30 21085 H 2065.88 0.00481473 0.670983 0
M  V30 21086 H 2068.42 0.653327 1.93783 0
M  V30 21087 H 2066.58 -1.07367 3.72224 0
M  V30 21088 H 2066.99 0.56106 5.21491 0
M  V30 21089 H 2068.46 -1.13895 5.40122 0
M  V30 21090 H 2068.94 -1.97271 3.92404 0
M  V30 21091 H 2069.55 -0.330654 4.24013 0
M  V30 21092 N 2067.86 -1.56346 0.198413 0
M  V30 21093 C 2069.11 -1.97966 -0.440131 0
M  V30 21094 C 2069.44 -1.08533 -1.61041 0
M  V30 21095 O 2068.72 -0.138034 -1.9401 0
M  V30 21096 C 2069 -3.48747 -0.897069 0
M  V30 21097 C 2068.85 -4.48957 0.275249 0
M  V30 21098 C 2070.17 -4.03314 -1.76141 0
M  V30 21099 H 2067.29 -0.719752 -0.15851 0
M  V30 21100 H 2069.93 -1.87774 0.290003 0
M  V30 21101 H 2068.08 -3.57564 -1.51921 0
M  V30 21102 H 2069.75 -4.52175 0.912988 0
M  V30 21103 H 2068 -4.23791 0.926484 0
M  V30 21104 H 2068.67 -5.51931 -0.0870366 0
M  V30 21105 H 2071.14 -3.97297 -1.23669 0
M  V30 21106 H 2070.02 -5.09178 -2.05009 0
M  V30 21107 H 2070.28 -3.48776 -2.71676 0
M  V30 21108 N 2069.34 0.0751653 -1.57421 0
M  V30 21109 C 2070.29 1.10843 -2.04491 0
M  V30 21110 C 2071.28 1.4028 -0.94962 0
M  V30 21111 O 2072.49 1.39727 -1.13474 0
M  V30 21112 H 2068.86 0.37477 -0.651959 0
M  V30 21113 H 2070.83 0.685258 -2.90425 0
M  V30 21114 C 2069.58 2.41474 -2.50171 0
M  V30 21115 H 2068.91 2.19672 -3.34042 0
M  V30 21116 H 2070.35 3.12227 -2.86863 0
M  V30 21117 C 2068.81 3.07194 -1.38323 0
M  V30 21118 O 2069.34 3.95132 -0.723447 0
M  V30 21119 N 2067.54 2.67764 -1.1292 0
M  V30 21120 H 2067.09 1.96344 -1.66754 0
M  V30 21121 H 2067.05 3.1206 -0.382881 0
M  V30 21122 N 2070.82 1.53744 0.346476 0
M  V30 21123 C 2071.75 1.84512 1.43099 0
M  V30 21124 C 2072.73 0.700026 1.55028 0
M  V30 21125 O 2073.91 0.951666 1.69284 0
M  V30 21126 C 2071.04 2.0521 2.80189 0
M  V30 21127 C 2070 3.21022 2.8307 0
M  V30 21128 C 2069.32 3.27048 4.23018 0
M  V30 21129 C 2070.62 4.59196 2.4887 0
M  V30 21130 H 2072.32 2.75338 1.17599 0
M  V30 21131 H 2069.86 1.32483 0.564283 0
M  V30 21132 H 2071.82 2.25318 3.56103 0
M  V30 21133 H 2070.54 1.11113 3.07118 0
M  V30 21134 H 2069.2 3.00765 2.09609 0
M  V30 21135 H 2068.85 2.30551 4.47052 0
M  V30 21136 H 2068.55 4.0487 4.25857 0
M  V30 21137 H 2070.07 3.49363 5.00777 0
M  V30 21138 H 2071.49 4.79338 3.14496 0
M  V30 21139 H 2069.88 5.39401 2.62996 0
M  V30 21140 H 2070.95 4.63005 1.44064 0
M  V30 21141 N 2072.3 -0.607329 1.45428 0
M  V30 21142 C 2073.54 -1.36835 1.49679 0
M  V30 21143 C 2073.88 -1.93708 0.138148 0
M  V30 21144 O 2073.15 -1.75069 -0.847414 0
M  V30 21145 C 2073.43 -2.51607 2.57616 0
M  V30 21146 C 2073.29 -1.99929 4.02925 0
M  V30 21147 C 2074.61 -3.53738 2.61835 0
M  V30 21148 H 2071.72 -0.496187 0.544947 0
M  V30 21149 H 2074.37 -0.684587 1.77238 0
M  V30 21150 H 2072.52 -3.09936 2.34247 0
M  V30 21151 H 2074.19 -1.46247 4.37504 0
M  V30 21152 H 2072.43 -1.30929 4.1357 0
M  V30 21153 H 2073.1 -2.82666 4.74135 0
M  V30 21154 H 2075.58 -3.0525 2.82775 0
M  V30 21155 H 2074.45 -4.31533 3.39221 0
M  V30 21156 H 2074.72 -4.09372 1.66935 0
M  V30 21157 N 2073.77 -1.32722 -0.849853 0
M  V30 21158 C 2075.02 -1.23312 -1.60121 0
M  V30 21159 C 2075.34 0.203882 -1.93931 0
M  V30 21160 O 2074.61 1.12986 -1.60035 0
M  V30 21161 H 2073.19 -0.453413 -0.593654 0
M  V30 21162 H 2075.86 -1.66305 -1.0163 0
M  V30 21163 H 2074.95 -1.81913 -2.53602 0
M  V30 21164 N 2075.25 1.06673 -1.16011 0
M  V30 21165 C 2076.5 1.79046 -0.937394 0
M  V30 21166 C 2076.82 1.87476 0.536438 0
M  V30 21167 O 2076.09 1.38065 1.38977 0
M  V30 21168 H 2074.67 0.663167 -0.343829 0
M  V30 21169 H 2077.33 1.28878 -1.46207 0
M  V30 21170 H 2076.43 2.81259 -1.35278 0
M  V30 21171 N 2076.73 0.957992 1.25141 0
M  V30 21172 C 2078.01 0.531835 1.88231 0
M  V30 21173 C 2078.39 -0.990946 1.86396 0
M  V30 21174 O 2077.74 -1.85817 1.32983 0
M  V30 21175 C 2077.95 1.11229 3.30801 0
M  V30 21176 C 2079.29 1.19121 4.07548 0
M  V30 21177 O 2080.32 1.06409 3.39935 0
M  V30 21178 O 2079.18 1.39103 5.285 0
M  V30 21179 H 2076.27 0.175926 0.808071 0
M  V30 21180 H 2078.82 1.05164 1.33187 0
M  V30 21181 H 2077.59 2.15542 3.26584 0
M  V30 21182 H 2077.21 0.575942 3.93406 0
M  V30 21183 N 2078.21 -1.39832 0.726957 0
M  V30 21184 C 2079.62 -1.83534 0.342368 0
M  V30 21185 C 2079.97 -1.6075 -1.12489 0
M  V30 21186 O 2079.1 -1.09438 -1.86688 0
M  V30 21187 C 2079.69 -3.33178 0.614625 0
M  V30 21188 C 2078.25 -3.7533 0.283621 0
M  V30 21189 C 2077.4 -2.62923 0.881297 0
M  V30 21190 H 2080.35 -1.28939 0.925229 0
M  V30 21191 H 2080.37 -3.80322 -0.116329 0
M  V30 21192 H 2079.88 -3.49729 1.68259 0
M  V30 21193 H 2077.98 -3.64369 -0.778826 0
M  V30 21194 H 2078.09 -4.73025 0.760562 0
M  V30 21195 H 2076.46 -2.52825 0.308504 0
M  V30 21196 H 2077.24 -2.82282 1.95375 0
M  V30 21197 N 2079.69 -0.473982 -1.50304 0
M  V30 21198 C 2080.92 0.0775007 -2.06455 0
M  V30 21199 C 2081.32 1.33801 -1.33768 0
M  V30 21200 O 2080.67 1.79261 -0.401381 0
M  V30 21201 C 2080.73 0.428656 -3.56935 0
M  V30 21202 C 2080.39 -0.730244 -4.51128 0
M  V30 21203 C 2081.39 -1.6131 -4.94242 0
M  V30 21204 C 2079.08 -0.92139 -4.93777 0
M  V30 21205 C 2081.07 -2.67149 -5.78714 0
M  V30 21206 C 2078.76 -1.98299 -5.78032 0
M  V30 21207 C 2079.75 -2.85641 -6.20402 0
M  V30 21208 O 2079.44 -3.89973 -7.02977 0
M  V30 21209 H 2079.17 -0.00505561 -0.675981 0
M  V30 21210 H 2081.73 -0.662628 -1.94418 0
M  V30 21211 H 2079.96 1.22201 -3.66884 0
M  V30 21212 H 2081.65 0.915562 -3.95439 0
M  V30 21213 H 2082.41 -1.47713 -4.61959 0
M  V30 21214 H 2078.29 -0.251023 -4.60316 0
M  V30 21215 H 2081.84 -3.35352 -6.11706 0
M  V30 21216 H 2077.73 -2.11903 -6.09727 0
M  V30 21217 H 2078.5 -3.86996 -7.21232 0
M  V30 21218 N 2081.16 1.56239 -0.206702 0
M  V30 21219 C 2082.09 2.2262 0.704446 0
M  V30 21220 C 2083.08 1.19305 1.21245 0
M  V30 21221 O 2084.26 1.47846 1.25917 0
M  V30 21222 C 2081.39 2.89459 1.91913 0
M  V30 21223 C 2080.34 3.99119 1.54558 0
M  V30 21224 C 2079.67 4.53179 2.83783 0
M  V30 21225 C 2080.97 5.16934 0.746749 0
M  V30 21226 H 2082.66 2.99019 0.151028 0
M  V30 21227 H 2080.21 1.43824 0.0712004 0
M  V30 21228 H 2082.16 3.34584 2.56186 0
M  V30 21229 H 2080.89 2.10484 2.49728 0
M  V30 21230 H 2079.55 3.54702 0.926381 0
M  V30 21231 H 2079.19 3.70952 3.39711 0
M  V30 21232 H 2078.89 5.2718 2.59528 0
M  V30 21233 H 2080.42 5.01013 3.49024 0
M  V30 21234 H 2081.83 5.58532 1.29284 0
M  V30 21235 H 2080.23 5.97074 0.601876 0
M  V30 21236 H 2081.3 4.84256 -0.249783 0
M  V30 21237 N 2082.64 -0.0668159 1.57458 0
M  V30 21238 C 2083.59 -1.09757 2.05076 0
M  V30 21239 C 2084.58 -1.39775 0.957046 0
M  V30 21240 O 2085.79 -1.39123 1.14214 0
M  V30 21241 H 2082.17 -0.371308 0.653938 0
M  V30 21242 H 2084.14 -0.669846 2.90784 0
M  V30 21243 C 2082.89 -2.40144 2.51448 0
M  V30 21244 H 2082.21 -2.17898 3.35202 0
M  V30 21245 H 2083.65 -3.10702 2.88514 0
M  V30 21246 C 2082.11 -3.06457 1.3995 0
M  V30 21247 O 2082.64 -3.94743 0.744392 0
M  V30 21248 N 2080.84 -2.67161 1.14338 0
M  V30 21249 H 2080.39 -1.95457 1.67793 0
M  V30 21250 H 2080.35 -3.11852 0.399425 0
M  V30 21251 N 2084.12 -1.53926 -0.338317 0
M  V30 21252 C 2085.05 -1.78601 -1.43647 0
M  V30 21253 C 2086.07 -0.667465 -1.48488 0
M  V30 21254 O 2087.26 -0.944299 -1.51477 0
M  V30 21255 C 2084.36 -1.87548 -2.82274 0
M  V30 21256 C 2083.53 -3.17539 -3.00811 0
M  V30 21257 C 2082.59 -3.17377 -4.19712 0
M  V30 21258 O 2081.61 -3.91078 -4.13578 0
M  V30 21259 N 2082.82 -2.40116 -5.28512 0
M  V30 21260 H 2085.58 -2.73365 -1.22849 0
M  V30 21261 H 2083.14 -1.5304 -0.528227 0
M  V30 21262 H 2085.13 -1.84885 -3.6 0
M  V30 21263 H 2083.7 -0.999475 -2.96191 0
M  V30 21264 H 2082.92 -3.33284 -2.10512 0
M  V30 21265 H 2084.21 -4.03394 -3.10082 0
M  V30 21266 H 2083.61 -1.79799 -5.36366 0
M  V30 21267 H 2082.17 -2.43245 -6.04711 0
M  V30 21268 N 2085.6 0.599608 -1.45748 0
M  V30 21269 C 2087.01 1.18163 -1.44549 0
M  V30 21270 C 2087.36 1.95397 -0.17732 0
M  V30 21271 O 2086.49 2.04048 0.720645 0
M  V30 21272 C 2087.08 2.14951 -2.6188 0
M  V30 21273 C 2085.64 2.68513 -2.63776 0
M  V30 21274 C 2084.79 1.44065 -2.3694 0
M  V30 21275 H 2087.74 0.388471 -1.53872 0
M  V30 21276 H 2087.76 2.98126 -2.36434 0
M  V30 21277 H 2087.27 1.58711 -3.54164 0
M  V30 21278 H 2085.37 3.28669 -1.7552 0
M  V30 21279 H 2085.49 3.12401 -3.63239 0
M  V30 21280 H 2083.85 1.73296 -1.86657 0
M  V30 21281 H 2084.63 0.896802 -3.31379 0
M  V30 21282 N 2087.08 1.33171 0.842803 0
M  V30 21283 C 2088.33 1.24159 1.59464 0
M  V30 21284 C 2088.65 -0.193595 1.94037 0
M  V30 21285 O 2087.92 -1.12135 1.60632 0
M  V30 21286 H 2086.5 0.456555 0.591241 0
M  V30 21287 H 2089.16 1.66842 1.00746 0
M  V30 21288 H 2088.25 1.83255 2.52634 0
M  V30 21289 N 2088.56 -1.06056 1.16576 0
M  V30 21290 C 2089.97 -1.60363 0.956067 0
M  V30 21291 C 2090.32 -1.89737 -0.499436 0
M  V30 21292 O 2089.44 -1.67257 -1.3731 0
M  V30 21293 C 2090.04 -2.91353 1.72913 0
M  V30 21294 C 2088.6 -3.42352 1.56436 0
M  V30 21295 C 2087.74 -2.1621 1.73633 0
M  V30 21296 H 2090.69 -0.889768 1.31411 0
M  V30 21297 H 2090.72 -3.6087 1.20636 0
M  V30 21298 H 2090.23 -2.69942 2.78842 0
M  V30 21299 H 2088.33 -3.68817 0.529577 0
M  V30 21300 H 2088.44 -4.17519 2.34978 0
M  V30 21301 H 2086.81 -2.26548 1.16396 0
M  V30 21302 H 2087.59 -1.97279 2.80955 0
M  V30 21303 N 2090.03 -0.964615 -1.24631 0
M  V30 21304 C 2090.96 -0.511091 -2.27838 0
M  V30 21305 C 2091.94 0.447692 -1.64103 0
M  V30 21306 O 2093.13 0.344485 -1.9112 0
M  V30 21307 C 2090.26 0.202467 -3.46709 0
M  V30 21308 C 2089.21 -0.672032 -4.22691 0
M  V30 21309 C 2088.54 0.172842 -5.34421 0
M  V30 21310 C 2089.84 -1.9551 -4.84327 0
M  V30 21311 H 2091.53 -1.37371 -2.66025 0
M  V30 21312 H 2089.08 -0.661983 -1.27882 0
M  V30 21313 H 2091.03 0.530942 -4.18042 0
M  V30 21314 H 2089.76 1.09942 -3.07539 0
M  V30 21315 H 2088.42 -0.983734 -3.53155 0
M  V30 21316 H 2088.06 1.06985 -4.91491 0
M  V30 21317 H 2087.76 -0.409046 -5.86175 0
M  V30 21318 H 2089.29 0.496057 -6.08582 0
M  V30 21319 H 2090.7 -1.69241 -5.4775 0
M  V30 21320 H 2089.1 -2.48346 -5.46301 0
M  V30 21321 H 2090.17 -2.65197 -4.05954 0
M  V30 21322 N 2091.51 1.39445 -0.734362 0
M  V30 21323 C 2092.76 2.0013 -0.281468 0
M  V30 21324 C 2093.08 1.58562 1.13504 0
M  V30 21325 O 2092.35 0.833568 1.77281 0
M  V30 21326 H 2090.93 0.74013 -0.101076 0
M  V30 21327 H 2093.59 1.70503 -0.944178 0
M  V30 21328 H 2092.69 3.10357 -0.329356 0
M  V30 21329 N 2092.99 0.481946 1.5005 0
M  V30 21330 C 2094.22 -0.0666474 2.06793 0
M  V30 21331 C 2094.63 -1.3254 1.34457 0
M  V30 21332 O 2093.99 -1.7767 0.417087 0
M  V30 21333 C 2094.04 -0.343693 3.59862 0
M  V30 21334 O 2093.76 0.86514 4.29473 0
M  V30 21335 C 2095.26 -0.93805 4.33261 0
M  V30 21336 H 2092.48 0.0119311 0.670894 0
M  V30 21337 H 2095.03 0.673843 1.93079 0
M  V30 21338 H 2093.18 -1.03413 3.73342 0
M  V30 21339 H 2093.6 0.616339 5.20866 0
M  V30 21340 H 2095.07 -1.0816 5.413 0
M  V30 21341 H 2095.55 -1.93098 3.94474 0
M  V30 21342 H 2096.15 -0.285663 4.2434 0
M  V30 21343 N 2094.47 -1.56127 0.214985 0
M  V30 21344 C 2095.4 -2.17263 -0.730035 0
M  V30 21345 C 2096.41 -1.13988 -1.16235 0
M  V30 21346 O 2097.6 -1.40996 -1.09464 0
M  V30 21347 C 2094.7 -2.73608 -1.99979 0
M  V30 21348 C 2093.87 -4.01988 -1.72409 0
M  V30 21349 C 2092.93 -4.42962 -2.84026 0
M  V30 21350 O 2091.96 -5.09992 -2.52778 0
M  V30 21351 N 2093.16 -4.08103 -4.12834 0
M  V30 21352 H 2095.93 -2.98984 -0.207112 0
M  V30 21353 H 2093.49 -1.61865 0.0337349 0
M  V30 21354 H 2095.48 -2.97994 -2.73828 0
M  V30 21355 H 2094.05 -1.96229 -2.43337 0
M  V30 21356 H 2093.27 -3.85527 -0.822372 0
M  V30 21357 H 2094.56 -4.85749 -1.51411 0
M  V30 21358 H 2093.96 -3.54226 -4.41067 0
M  V30 21359 H 2092.51 -4.37396 -4.83248 0
M  V30 21360 N 2095.95 0.0584645 -1.57492 0
M  V30 21361 C 2096.89 1.06805 -2.04601 0
M  V30 21362 C 2097.86 1.37677 -0.929204 0
M  V30 21363 O 2099.05 1.48518 -1.19779 0
M  V30 21364 C 2096.19 2.37272 -2.50591 0
M  V30 21365 C 2095.3 2.12815 -3.75944 0
M  V30 21366 C 2094.44 3.36941 -4.10663 0
M  V30 21367 C 2093.47 3.07907 -5.29018 0
M  V30 21368 N 2092.61 4.24401 -5.5931 0
M  V30 21369 H 2097.45 0.659352 -2.90614 0
M  V30 21370 H 2094.99 0.313985 -1.4371 0
M  V30 21371 H 2096.95 3.13463 -2.75312 0
M  V30 21372 H 2095.58 2.75919 -1.67536 0
M  V30 21373 H 2094.63 1.27255 -3.58483 0
M  V30 21374 H 2095.94 1.87378 -4.62267 0
M  V30 21375 H 2095.09 4.21519 -4.36356 0
M  V30 21376 H 2093.83 3.65466 -3.22933 0
M  V30 21377 H 2092.84 2.21727 -5.03108 0
M  V30 21378 H 2094.06 2.80691 -6.18377 0
M  V30 21379 H 2092.01 4.52933 -4.7454 0
M  V30 21380 H 2091.93 4.02284 -6.40081 0
M  V30 21381 H 2093.19 5.09938 -5.89562 0
M  V30 21382 N 2097.42 1.54103 0.330149 0
M  V30 21383 C 2098.83 1.633 0.904982 0
M  V30 21384 C 2099.19 0.522849 1.89105 0
M  V30 21385 O 2098.31 -0.345304 2.13627 0
M  V30 21386 C 2098.91 2.96008 1.64817 0
M  V30 21387 C 2097.46 3.07423 2.17182 0
M  V30 21388 C 2096.61 2.58829 0.995126 0
M  V30 21389 H 2099.56 1.58333 0.10791 0
M  V30 21390 H 2099.58 2.85799 2.51196 0
M  V30 21391 H 2099.1 3.76786 0.930246 0
M  V30 21392 H 2097.2 2.31306 2.9211 0
M  V30 21393 H 2097.31 4.13117 2.42635 0
M  V30 21394 H 2095.67 2.14563 1.3724 0
M  V30 21395 H 2096.46 3.42059 0.291621 0
M  V30 21396 N 2098.9 -0.59187 1.46064 0
M  V30 21397 C 2100.13 -1.37666 1.54453 0
M  V30 21398 C 2100.55 -1.87916 0.18248 0
M  V30 21399 O 2099.9 -1.63106 -0.818692 0
M  V30 21400 C 2099.95 -2.57045 2.54185 0
M  V30 21401 O 2099.67 -2.08879 3.85099 0
M  V30 21402 C 2101.18 -3.49713 2.72426 0
M  V30 21403 H 2098.4 -0.420872 0.522597 0
M  V30 21404 H 2100.94 -0.720387 1.91391 0
M  V30 21405 H 2099.09 -3.18681 2.20276 0
M  V30 21406 H 2099.51 -2.86557 4.39301 0
M  V30 21407 H 2100.98 -4.29981 3.4615 0
M  V30 21408 H 2101.46 -4.01064 1.7901 0
M  V30 21409 H 2102.07 -2.9392 3.07395 0
M  V30 21410 N 2100.38 -1.33616 -0.835729 0
M  V30 21411 C 2101.61 -1.28444 -1.6284 0
M  V30 21412 C 2102.03 0.141205 -1.87569 0
M  V30 21413 O 2101.39 1.09885 -1.44205 0
M  V30 21414 C 2101.44 -2.0683 -2.95387 0
M  V30 21415 O 2100.54 -1.42905 -3.86849 0
M  V30 21416 H 2099.88 -0.441742 -0.495742 0
M  V30 21417 H 2102.41 -1.76226 -1.0395 0
M  V30 21418 H 2102.42 -2.17712 -3.45059 0
M  V30 21419 H 2101.1 -3.1049 -2.76711 0
M  V30 21420 H 2099.67 -1.40689 -3.45342 0
M  V30 21421 N 2101.86 1.05436 -1.17136 0
M  V30 21422 C 2103.11 1.78041 -0.956331 0
M  V30 21423 C 2103.43 1.88035 0.516524 0
M  V30 21424 O 2102.7 1.39532 1.37505 0
M  V30 21425 H 2101.28 0.659483 -0.350843 0
M  V30 21426 H 2103.94 1.2732 -1.47566 0
M  V30 21427 H 2103.04 2.79808 -1.38253 0
M  V30 21428 N 2103.34 0.971211 1.24118 0
M  V30 21429 C 2104.75 0.673347 1.74135 0
M  V30 21430 C 2105.1 -0.810809 1.78663 0
M  V30 21431 O 2104.22 -1.63435 1.41838 0
M  V30 21432 C 2104.82 1.21558 3.16242 0
M  V30 21433 C 2103.38 0.967552 3.63752 0
M  V30 21434 C 2102.52 1.34881 2.42286 0
M  V30 21435 H 2105.48 1.14613 1.09771 0
M  V30 21436 H 2105.5 0.583554 3.75999 0
M  V30 21437 H 2105.01 2.29578 3.12914 0
M  V30 21438 H 2103.11 -0.0969669 3.72474 0
M  V30 21439 H 2103.22 1.61567 4.51035 0
M  V30 21440 H 2101.59 0.767209 2.4287 0
M  V30 21441 H 2102.37 2.43858 2.41637 0
M  V30 21442 N 2104.81 -1.39054 0.741747 0
M  V30 21443 C 2105.75 -2.29103 0.0665251 0
M  V30 21444 C 2106.76 -1.47157 -0.696331 0
M  V30 21445 O 2107.95 -1.70156 -0.539378 0
M  V30 21446 C 2105.05 -3.25891 -0.929959 0
M  V30 21447 C 2104.22 -4.36809 -0.227219 0
M  V30 21448 C 2103.28 -5.13863 -1.13276 0
M  V30 21449 O 2102.31 -5.65946 -0.607718 0
M  V30 21450 N 2103.51 -5.25709 -2.46192 0
M  V30 21451 H 2106.27 -2.87692 0.839836 0
M  V30 21452 H 2103.83 -1.50707 0.591532 0
M  V30 21453 H 2105.83 -3.74315 -1.53851 0
M  V30 21454 H 2104.4 -2.68285 -1.60443 0
M  V30 21455 H 2103.62 -3.90175 0.5619 0
M  V30 21456 H 2104.9 -5.08138 0.259523 0
M  V30 21457 H 2104.3 -4.84923 -2.91318 0
M  V30 21458 H 2102.86 -5.77549 -3.02127 0
M  V30 21459 N 2106.29 -0.489897 -1.49792 0
M  V30 21460 C 2107.52 0.0556798 -2.06825 0
M  V30 21461 C 2107.94 1.31825 -1.35158 0
M  V30 21462 O 2107.29 1.77446 -0.426503 0
M  V30 21463 C 2107.34 0.324604 -3.6004 0
M  V30 21464 O 2107.06 -0.887904 -4.29008 0
M  V30 21465 C 2108.57 0.91506 -4.33753 0
M  V30 21466 H 2105.79 -0.0154889 -0.670821 0
M  V30 21467 H 2108.33 -0.684073 -1.92719 0
M  V30 21468 H 2106.48 1.01432 -3.73885 0
M  V30 21469 H 2106.9 -0.643954 -5.20532 0
M  V30 21470 H 2108.37 1.05288 -5.41866 0
M  V30 21471 H 2108.85 1.91003 -3.95493 0
M  V30 21472 H 2109.46 0.263155 -4.24485 0
M  V30 21473 N 2107.77 1.56011 -0.223262 0
M  V30 21474 C 2109.18 1.84523 0.284276 0
M  V30 21475 C 2109.53 1.14468 1.59347 0
M  V30 21476 O 2108.66 0.414932 2.12385 0
M  V30 21477 C 2109.25 3.34746 0.522566 0
M  V30 21478 C 2107.81 3.63569 0.974409 0
M  V30 21479 C 2106.96 2.77273 0.038428 0
M  V30 21480 H 2109.91 1.52292 -0.446413 0
M  V30 21481 H 2109.93 3.55044 1.36835 0
M  V30 21482 H 2109.44 3.85705 -0.430453 0
M  V30 21483 H 2107.54 3.18067 1.94073 0
M  V30 21484 H 2107.66 4.71542 0.847634 0
M  V30 21485 H 2106.02 2.48789 0.545532 0
M  V30 21486 H 2106.8 3.31032 -0.909539 0
M  V30 21487 N 2109.25 -0.0501116 1.5752 0
M  V30 21488 C 2110.18 -1.08434 2.01928 0
M  V30 21489 C 2111.19 -1.33718 0.928613 0
M  V30 21490 O 2112.38 -1.31576 1.20623 0
M  V30 21491 C 2109.48 -2.43065 2.36162 0
M  V30 21492 C 2108.66 -2.37433 3.67347 0
M  V30 21493 C 2107.71 -3.54345 3.89007 0
M  V30 21494 O 2106.74 -3.3479 4.60331 0
M  V30 21495 N 2107.94 -4.75475 3.33022 0
M  V30 21496 H 2110.71 -0.705995 2.91266 0
M  V30 21497 H 2108.27 -0.238421 1.60135 0
M  V30 21498 H 2110.26 -3.19959 2.47807 0
M  V30 21499 H 2108.83 -2.72821 1.52603 0
M  V30 21500 H 2108.05 -1.45778 3.66254 0
M  V30 21501 H 2109.34 -2.30792 4.53445 0
M  V30 21502 H 2108.74 -4.94264 2.75171 0
M  V30 21503 H 2107.29 -5.49806 3.50081 0
M  V30 21504 N 2110.73 -1.54276 -0.321972 0
M  V30 21505 C 2111.69 -1.83051 -1.37931 0
M  V30 21506 C 2112.69 -0.702392 -1.44648 0
M  V30 21507 O 2113.88 -0.970701 -1.44648 0
M  V30 21508 C 2111.01 -1.99197 -2.76647 0
M  V30 21509 H 2112.2 -2.77523 -1.1367 0
M  V30 21510 H 2109.76 -1.46018 -0.55754 0
M  V30 21511 H 2110.49 -1.06942 -3.0616 0
M  V30 21512 H 2110.28 -2.81289 -2.73164 0
M  V30 21513 H 2111.77 -2.22902 -3.53135 0
M  V30 21514 N 2112.2 0.584116 -1.46376 0
M  V30 21515 C 2113.14 1.70778 -1.52865 0
M  V30 21516 C 2114.15 1.57366 -0.417122 0
M  V30 21517 O 2115.34 1.64816 -0.685411 0
M  V30 21518 C 2112.44 3.09015 -1.39151 0
M  V30 21519 C 2111.61 3.48443 -2.64397 0
M  V30 21520 C 2110.67 4.65735 -2.44903 0
M  V30 21521 O 2109.7 4.71667 -3.1862 0
M  V30 21522 N 2110.9 5.60523 -1.50978 0
M  V30 21523 H 2113.66 1.65666 -2.49749 0
M  V30 21524 H 2111.22 0.770058 -1.42414 0
M  V30 21525 H 2113.22 3.85272 -1.23884 0
M  V30 21526 H 2111.79 3.08502 -0.50453 0
M  V30 21527 H 2111.01 2.61906 -2.94616 0
M  V30 21528 H 2112.29 3.71552 -3.47601 0
M  V30 21529 H 2111.69 5.58465 -0.90186 0
M  V30 21530 H 2110.25 6.36217 -1.41674 0
M  V30 21531 N 2113.68 1.34058 0.828631 0
M  V30 21532 C 2114.62 1.21002 1.94657 0
M  V30 21533 C 2115.63 0.138478 1.6221 0
M  V30 21534 O 2116.82 0.389824 1.74191 0
M  V30 21535 C 2113.92 0.835704 3.28434 0
M  V30 21536 C 2113.09 2.00103 3.88944 0
M  V30 21537 C 2112.15 1.60604 5.01092 0
M  V30 21538 O 2111.18 2.32182 5.19692 0
M  V30 21539 N 2112.38 0.516907 5.78194 0
M  V30 21540 H 2115.14 2.17309 2.0639 0
M  V30 21541 H 2112.7 1.26938 1.00491 0
M  V30 21542 H 2114.7 0.553361 4.00899 0
M  V30 21543 H 2113.27 -0.0370007 3.12578 0
M  V30 21544 H 2112.49 2.44843 3.08943 0
M  V30 21545 H 2113.77 2.78052 4.26104 0
M  V30 21546 H 2113.17 -0.0782718 5.65646 0
M  V30 21547 H 2111.73 0.294274 6.51135 0
M  V30 21548 N 2115.16 -1.04814 1.17694 0
M  V30 21549 C 2116.11 -2.12651 0.897118 0
M  V30 21550 C 2117.08 -1.65323 -0.160501 0
M  V30 21551 O 2118.26 -1.90787 -0.0224765 0
M  V30 21552 C 2115.4 -3.42526 0.420731 0
M  V30 21553 C 2114.52 -4.03508 1.54291 0
M  V30 21554 C 2113.65 -5.21315 1.02001 0
M  V30 21555 C 2112.69 -5.74311 2.11738 0
M  V30 21556 N 2111.83 -6.83415 1.60897 0
M  V30 21557 H 2116.67 -2.35925 1.82054 0
M  V30 21558 H 2114.2 -1.15736 0.907948 0
M  V30 21559 H 2116.16 -4.1701 0.126057 0
M  V30 21560 H 2114.79 -3.19423 -0.46572 0
M  V30 21561 H 2113.84 -3.26425 1.95323 0
M  V30 21562 H 2115.16 -4.38876 2.37042 0
M  V30 21563 H 2114.31 -6.02884 0.679408 0
M  V30 21564 H 2113.05 -4.87431 0.161982 0
M  V30 21565 H 2112.05 -4.91369 2.46651 0
M  V30 21566 H 2113.28 -6.10242 2.97963 0
M  V30 21567 H 2111.23 -6.51421 0.773715 0
M  V30 21568 H 2111.14 -7.17807 2.37252 0
M  V30 21569 H 2112.41 -7.68627 1.29741 0
M  V30 21570 N 2116.64 -0.977779 -1.23601 0
M  V30 21571 C 2117.86 -0.662789 -1.96524 0
M  V30 21572 C 2118.29 0.763086 -1.71926 0
M  V30 21573 O 2117.65 1.51941 -0.989123 0
M  V30 21574 C 2117.7 -0.95584 -3.47701 0
M  V30 21575 O 2116.8 -0.046501 -4.12374 0
M  V30 21576 H 2116.14 -0.249541 -0.615325 0
M  V30 21577 H 2118.67 -1.31066 -1.57108 0
M  V30 21578 H 2118.68 -0.891475 -3.98142 0
M  V30 21579 H 2117.36 -1.99494 -3.64932 0
M  V30 21580 H 2115.93 -0.165051 -3.72535 0
M  V30 21581 N 2118.12 1.38658 -0.749111 0
M  V30 21582 C 2119.05 2.33116 -0.133797 0
M  V30 21583 C 2120.03 1.54639 0.708583 0
M  V30 21584 O 2121.21 1.82975 0.650684 0
M  V30 21585 C 2118.34 3.38802 0.763563 0
M  V30 21586 C 2117.3 4.27993 0.0242578 0
M  V30 21587 C 2116.62 5.24497 1.03957 0
M  V30 21588 C 2117.92 5.09673 -1.14151 0
M  V30 21589 H 2119.62 2.84823 -0.922842 0
M  V30 21590 H 2117.16 1.36944 -0.445221 0
M  V30 21591 H 2119.12 4.03844 1.20366 0
M  V30 21592 H 2117.84 2.85568 1.58488 0
M  V30 21593 H 2116.5 3.64451 -0.39637 0
M  V30 21594 H 2116.15 4.67552 1.85483 0
M  V30 21595 H 2115.85 5.85024 0.549587 0
M  V30 21596 H 2117.37 5.92415 1.47908 0
M  V30 21597 H 2118.79 5.6798 -0.779174 0
M  V30 21598 H 2117.18 5.79413 -1.56206 0
M  V30 21599 H 2118.25 4.43675 -1.95654 0
M  V30 21600 N 2119.6 0.497834 1.49531 0
M  V30 21601 C 2120.53 -0.271671 2.31914 0
M  V30 21602 C 2121.51 -0.965521 1.40042 0
M  V30 21603 O 2122.69 -0.957536 1.68952 0
M  V30 21604 C 2119.82 -1.3384 3.20475 0
M  V30 21605 C 2118.78 -0.76461 4.21115 0
M  V30 21606 C 2118.1 -1.93162 4.98591 0
M  V30 21607 C 2119.4 0.242201 5.21738 0
M  V30 21608 H 2121.1 0.415979 2.96496 0
M  V30 21609 H 2118.64 0.201496 1.42583 0
M  V30 21610 H 2120.59 -1.88442 3.76918 0
M  V30 21611 H 2119.32 -2.05519 2.5383 0
M  V30 21612 H 2117.98 -0.240359 3.65811 0
M  V30 21613 H 2117.63 -2.63602 4.28396 0
M  V30 21614 H 2117.33 -1.55378 5.66685 0
M  V30 21615 H 2118.85 -2.48204 5.57877 0
M  V30 21616 H 2120.26 -0.215575 5.72895 0
M  V30 21617 H 2118.66 0.535707 5.97704 0
M  V30 21618 H 2119.73 1.15916 4.70841 0
M  V30 21619 N 2121.07 -1.5589 0.231532 0
M  V30 21620 C 2122.01 -2.18025 -0.70695 0
M  V30 21621 C 2123.02 -1.15214 -1.1502 0
M  V30 21622 O 2124.21 -1.42149 -1.07963 0
M  V30 21623 C 2121.31 -2.75714 -1.97066 0
M  V30 21624 C 2120.48 -4.03794 -1.68135 0
M  V30 21625 C 2119.54 -4.4595 -2.79312 0
M  V30 21626 O 2118.57 -5.12645 -2.47354 0
M  V30 21627 N 2119.77 -4.12459 -4.08483 0
M  V30 21628 H 2122.53 -2.99186 -0.175389 0
M  V30 21629 H 2120.09 -1.6182 0.0509009 0
M  V30 21630 H 2122.09 -3.00882 -2.70652 0
M  V30 21631 H 2120.66 -1.98799 -2.41242 0
M  V30 21632 H 2119.88 -3.86377 -0.781436 0
M  V30 21633 H 2121.16 -4.87328 -1.46251 0
M  V30 21634 H 2120.56 -3.58884 -4.37286 0
M  V30 21635 H 2119.12 -4.42496 -4.78581 0
M  V30 21636 N 2122.55 0.0417572 -1.57545 0
M  V30 21637 C 2123.48 1.07361 -2.025 0
M  V30 21638 C 2124.5 1.33224 -0.935692 0
M  V30 21639 O 2125.69 1.30935 -1.21319 0
M  V30 21640 C 2122.79 2.41809 -2.37448 0
M  V30 21641 C 2121.96 2.35482 -3.68601 0
M  V30 21642 C 2121.02 3.52277 -3.90881 0
M  V30 21643 O 2120.04 3.32344 -4.621 0
M  V30 21644 N 2121.25 4.73702 -3.35539 0
M  V30 21645 H 2124.01 0.690538 -2.91636 0
M  V30 21646 H 2121.57 0.229926 -1.60259 0
M  V30 21647 H 2123.56 3.18641 -2.495 0
M  V30 21648 H 2122.13 2.72008 -1.54047 0
M  V30 21649 H 2121.35 1.43834 -3.67022 0
M  V30 21650 H 2122.64 2.28384 -4.54663 0
M  V30 21651 H 2122.04 4.92798 -2.77788 0
M  V30 21652 H 2120.6 5.47941 -3.52992 0
M  V30 21653 N 2124.03 1.54445 0.313786 0
M  V30 21654 C 2124.96 1.87506 1.39153 0
M  V30 21655 C 2125.94 0.732752 1.53508 0
M  V30 21656 O 2127.13 0.98736 1.67227 0
M  V30 21657 C 2124.26 2.11107 2.75773 0
M  V30 21658 C 2123.21 3.26954 2.76197 0
M  V30 21659 C 2122.54 3.35947 4.15985 0
M  V30 21660 C 2123.84 4.64372 2.39073 0
M  V30 21661 H 2125.53 2.7777 1.11732 0
M  V30 21662 H 2123.08 1.33651 0.536054 0
M  V30 21663 H 2125.03 2.32821 3.51244 0
M  V30 21664 H 2123.75 1.17602 3.04692 0
M  V30 21665 H 2122.41 3.05144 2.03182 0
M  V30 21666 H 2122.06 2.39982 4.42061 0
M  V30 21667 H 2121.76 4.13812 4.17173 0
M  V30 21668 H 2123.28 3.59906 4.93254 0
M  V30 21669 H 2124.7 4.85901 3.04258 0
M  V30 21670 H 2123.09 5.44858 2.51496 0
M  V30 21671 H 2124.16 4.65956 1.34211 0
M  V30 21672 N 2125.51 -0.576345 1.46683 0
M  V30 21673 C 2126.44 -1.69505 1.60594 0
M  V30 21674 C 2127.42 -1.63873 0.456022 0
M  V30 21675 O 2128.6 -1.81791 0.683045 0
M  V30 21676 C 2125.73 -3.08148 1.60194 0
M  V30 21677 C 2124.69 -3.28615 2.7422 0
M  V30 21678 C 2124.01 -4.6785 2.58884 0
M  V30 21679 C 2125.31 -3.15834 4.15989 0
M  V30 21680 H 2127.01 -1.58119 2.54241 0
M  V30 21681 H 2124.55 -0.759271 1.22356 0
M  V30 21682 H 2126.51 -3.86237 1.68519 0
M  V30 21683 H 2125.23 -3.20447 0.630952 0
M  V30 21684 H 2123.89 -2.52927 2.65375 0
M  V30 21685 H 2123.54 -4.76923 1.59854 0
M  V30 21686 H 2123.24 -4.82495 3.35368 0
M  V30 21687 H 2124.76 -5.48099 2.69109 0
M  V30 21688 H 2126.18 -3.83761 4.25911 0
M  V30 21689 H 2124.57 -3.41998 4.9311 0
M  V30 21690 H 2125.64 -2.12828 4.35698 0
M  V30 21691 N 2126.99 -1.34495 -0.82151 0
M  V30 21692 C 2128.21 -1.30011 -1.60949 0
M  V30 21693 C 2128.63 0.125523 -1.88382 0
M  V30 21694 O 2127.99 1.07303 -1.47623 0
M  V30 21695 C 2128.04 -2.09003 -2.94957 0
M  V30 21696 O 2127.76 -3.46007 -2.68721 0
M  V30 21697 C 2129.26 -2.11933 -3.89358 0
M  V30 21698 H 2126.48 -0.447203 -0.500251 0
M  V30 21699 H 2129.02 -1.7713 -1.02202 0
M  V30 21700 H 2127.18 -1.65523 -3.50258 0
M  V30 21701 H 2127.59 -3.86856 -3.54179 0
M  V30 21702 H 2129.07 -2.71623 -4.80547 0
M  V30 21703 H 2129.54 -1.11409 -4.24835 0
M  V30 21704 H 2130.15 -2.55508 -3.39993 0
M  V30 21705 N 2128.46 1.04188 -1.18248 0
M  V30 21706 C 2129.37 2.15666 -0.923339 0
M  V30 21707 C 2130.39 1.73638 0.112112 0
M  V30 21708 O 2131.57 2.0128 -0.0695153 0
M  V30 21709 C 2128.63 3.43751 -0.451239 0
M  V30 21710 C 2127.69 4.00167 -1.55451 0
M  V30 21711 C 2126.93 5.22139 -1.10484 0
M  V30 21712 O 2127.15 5.70388 0.0369453 0
M  V30 21713 O 2126.08 5.71056 -1.90207 0
M  V30 21714 H 2129.91 2.40381 -1.85609 0
M  V30 21715 H 2127.49 1.14121 -0.9642 0
M  V30 21716 H 2129.38 4.20944 -0.195977 0
M  V30 21717 H 2128.05 3.20511 0.45323 0
M  V30 21718 H 2126.96 3.24368 -1.86377 0
M  V30 21719 H 2128.29 4.27745 -2.43506 0
M  V30 21720 O 2129.98 1.11298 1.17025 0
M  V30 21721 H 2130.67 0.818589 1.75553 0
M  V30 END ATOM
M  V30 BEGIN BOND
M  V30 END BOND
M  V30 END CTAB
M  END
$$$$
