drugbank_target|P04390 Type-2 restriction enzyme EcoRV (DB08651)
 OpenBabel12092120513D

  0  0  0     0  0            999 V3000
M  V30 BEGIN CTAB
M  V30 COUNTS 4030 4081 0 0 0
M  V30 BEGIN ATOM
M  V30 1 H -0.908 1.98254 -0.117106 0
M  V30 2 N 0 1.576 0 0
M  V30 3 C 0.933 2.03868 1.02534 0
M  V30 4 C 1.911 0.928543 1.3348 0
M  V30 5 O 3.095 1.19667 1.45644 0
M  V30 6 C 0.222 2.43627 2.35294 0
M  V30 7 C -0.732 3.65373 2.2001 0
M  V30 8 S 0.101 5.13292 1.52614 0
M  V30 9 C 1.257 5.56322 2.86805 0
M  V30 10 H 1.49 2.90518 0.631377 0
M  V30 11 H -0.977 1.52953 0.210867 0
M  V30 12 H 0.981 2.67203 3.11629 0
M  V30 13 H -0.358 1.57376 2.7183 0
M  V30 14 H -1.165 3.90944 3.18086 0
M  V30 15 H -1.563 3.418 1.51819 0
M  V30 16 H 0.729 5.58782 3.83104 0
M  V30 17 H 1.672 6.56266 2.65933 0
M  V30 18 H 2.08 4.83886 2.90714 0
M  V30 19 N 1.4781 -0.272755 1.55222 0
M  V30 20 C 2.7031 -1.02683 1.80197 0
M  V30 21 C 3.1281 -1.79142 0.573551 0
M  V30 22 O 2.4861 -1.74917 -0.476849 0
M  V30 23 C 2.5341 -1.9609 3.02624 0
M  V30 24 O 1.6381 -3.04863 2.77727 0
M  V30 25 H 0.9791 -0.293557 0.595584 0
M  V30 26 H 3.5091 -0.30159 2.02365 0
M  V30 27 H 3.5191 -2.38039 3.31363 0
M  V30 28 H 2.1941 -1.39851 3.91682 0
M  V30 29 H 0.7711 -2.67228 2.60084 0
M  V30 30 N 2.9562 -1.48159 -0.537278 0
M  V30 31 C 3.8862 -1.65029 -1.6519 0
M  V30 32 C 4.8672 -0.499281 -1.62607 0
M  V30 33 O 6.0522 -0.730972 -1.79918 0
M  V30 34 C 3.1822 -1.68303 -3.03795 0
M  V30 35 C 2.1362 -2.8283 -3.21234 0
M  V30 36 C 1.4622 -2.71189 -4.60826 0
M  V30 37 C 2.7622 -4.24211 -3.04701 0
M  V30 38 H 4.4562 -2.58341 -1.51328 0
M  V30 39 H 2.0022 -1.24325 -0.726585 0
M  V30 40 H 3.9552 -1.78693 -3.81637 0
M  V30 41 H 2.6792 -0.715635 -3.18663 0
M  V30 42 H 1.3382 -2.71983 -2.45807 0
M  V30 43 H 0.9862 -1.72435 -4.7252 0
M  V30 44 H 0.6862 -3.48035 -4.7344 0
M  V30 45 H 2.2102 -2.83537 -5.40777 0
M  V30 46 H 3.6242 -4.3593 -3.72341 0
M  V30 47 H 2.0212 -5.01998 -3.28813 0
M  V30 48 H 3.0912 -4.41184 -2.01209 0
M  V30 49 N 4.4343 0.785586 -1.36625 0
M  V30 50 C 5.8503 1.08419 -1.17122 0
M  V30 51 C 6.0503 2.015 0.00208491 0
M  V30 52 O 5.1063 2.43551 0.666278 0
M  V30 53 C 6.4193 1.69498 -2.48377 0
M  V30 54 C 7.9673 1.81821 -2.54775 0
M  V30 55 C 8.4423 2.46315 -3.86126 0
M  V30 56 N 9.9333 2.53779 -3.87492 0
M  V30 57 C 10.6683 3.045 -4.85868 0
M  V30 58 N 10.1643 3.55499 -5.94637 0
M  V30 59 N 11.9573 3.03247 -4.73284 0
M  V30 60 H 4.1083 0.167264 -2.1174 0
M  V30 61 H 6.3713 0.13682 -0.938075 0
M  V30 62 H 6.0773 1.08571 -3.34522 0
M  V30 63 H 5.9513 2.6896 -2.64462 0
M  V30 64 H 8.3383 2.41884 -1.69045 0
M  V30 65 H 8.4193 0.811532 -2.42586 0
M  V30 66 H 8.0633 1.86895 -4.72263 0
M  V30 67 H 7.9933 3.47561 -3.95612 0
M  V30 68 H 10.4843 2.17672 -3.08913 0
M  V30 69 H 10.7973 3.92562 -6.65669 0
M  V30 70 H 9.1423 3.5364 -5.98301 0
M  V30 71 H 12.3333 2.62696 -3.87438 0
M  V30 72 H 12.5063 3.42467 -5.50109 0
M  V30 73 N 5.9124 1.20967 1.01018 0
M  V30 74 C 7.1374 1.0503 1.78839 0
M  V30 75 C 7.5624 -0.395752 1.8389 0
M  V30 76 O 6.9204 -1.28529 1.27867 0
M  V30 77 C 6.9684 1.64602 3.2084 0
M  V30 78 O 6.0724 0.887988 4.02726 0
M  V30 79 H 5.4134 0.369987 0.551367 0
M  V30 80 H 7.9434 1.60399 1.27018 0
M  V30 81 H 7.9534 1.68607 3.71532 0
M  V30 82 H 6.6284 2.69841 3.16479 0
M  V30 83 H 5.2054 0.922648 3.61305 0
M  V30 84 N 7.3905 -1.2043 1.01659 0
M  V30 85 C 8.6675 -1.8548 0.621004 0
M  V30 86 C 9.0475 -1.9091 -0.900919 0
M  V30 87 O 8.3955 -1.41694 -1.79263 0
M  V30 88 C 8.6055 -3.25119 1.2688 0
M  V30 89 C 9.9535 -4.01403 1.38423 0
M  V30 90 O 10.9775 -3.34473 1.22501 0
M  V30 91 O 9.8365 -5.21265 1.64151 0
M  V30 92 H 6.9305 -0.798761 0.214266 0
M  V30 93 H 9.4765 -1.28019 1.11396 0
M  V30 94 H 8.2485 -3.15932 2.30873 0
M  V30 95 H 7.8715 -3.90212 0.762917 0
M  V30 96 N 8.8686 -0.792821 -1.36206 0
M  V30 97 C 9.7986 -0.207853 -2.32573 0
M  V30 98 C 10.7796 0.659055 -1.56813 0
M  V30 99 O 11.9646 0.592176 -1.84951 0
M  V30 100 C 9.0946 0.655449 -3.41059 0
M  V30 101 C 8.0486 -0.111842 -4.27854 0
M  V30 102 C 7.3746 0.872274 -5.27537 0
M  V30 103 C 8.6746 -1.30299 -5.05786 0
M  V30 104 H 10.3686 -1.01294 -2.81744 0
M  V30 105 H 7.9146 -0.48854 -1.3546 0
M  V30 106 H 9.8676 1.07464 -4.07467 0
M  V30 107 H 8.5916 1.49328 -2.90463 0
M  V30 108 H 7.2506 -0.512053 -3.63006 0
M  V30 109 H 6.8986 1.70523 -4.73214 0
M  V30 110 H 6.5986 0.363291 -5.86476 0
M  V30 111 H 8.1226 1.28996 -5.96818 0
M  V30 112 H 9.5366 -0.959379 -5.65216 0
M  V30 113 H 7.9336 -1.7455 -5.74154 0
M  V30 114 H 9.0036 -2.09663 -4.37229 0
M  V30 115 N 10.3467 1.47872 -0.545128 0
M  V30 116 C 11.5957 2.01695 -0.0145033 0
M  V30 117 C 11.9087 1.42609 1.33873 0
M  V30 118 O 13.1147 1.88021 1.95858 0
M  V30 119 C 11.5707 3.59892 0.0245068 0
M  V30 120 C 11.1787 4.27966 -1.32475 0
M  V30 121 C 12.9227 4.21507 0.50316 0
M  V30 122 C 10.8297 5.78136 -1.2455 0
M  V30 123 H 9.7597 0.753998 -0.00165172 0
M  V30 124 H 12.4107 1.69985 -0.691175 0
M  V30 125 H 10.7927 3.88509 0.766575 0
M  V30 126 H 11.9667 4.11003 -2.08357 0
M  V30 127 H 10.2817 3.78286 -1.74036 0
M  V30 128 H 12.8787 5.31538 0.580656 0
M  V30 129 H 13.2217 3.87855 1.51243 0
M  V30 130 H 13.7547 3.97376 -0.183681 0
M  V30 131 H 10.4937 6.16388 -2.23039 0
M  V30 132 H 10.0137 5.97469 -0.528282 0
M  V30 133 H 11.6927 6.40099 -0.942488 0
M  V30 134 N 11.8248 0.280983 1.55075 0
M  V30 135 C 12.7728 -0.619864 2.24188 0
M  V30 136 C 13.7668 -1.15315 1.24092 0
M  V30 137 O 14.9728 -1.1061 1.42005 0
M  V30 138 H 11.3478 -0.218459 0.719569 0
M  V30 139 H 13.3188 -0.0141831 2.98397 0
M  V30 140 C 12.0678 -1.7899 2.98091 0
M  V30 141 H 11.3908 -1.38874 3.74905 0
M  V30 142 H 12.8308 -2.39672 3.49762 0
M  V30 143 C 11.2898 -2.68192 2.03899 0
M  V30 144 O 11.8198 -3.6872 1.594 0
M  V30 145 N 10.0258 -2.35488 1.70275 0
M  V30 146 H 9.5728 -1.53787 2.06658 0
M  V30 147 H 9.5308 -2.95442 1.07524 0
M  V30 148 N 13.3029 -1.57598 0.00835791 0
M  V30 149 C 14.2659 -2.07884 -0.965242 0
M  V30 150 C 15.2659 -0.989825 -1.26725 0
M  V30 151 O 16.4559 -1.25218 -1.21104 0
M  V30 152 C 13.5879 -2.52731 -2.28779 0
M  V30 153 H 14.7809 -2.95178 -0.530112 0
M  V30 154 H 12.3339 -1.54458 -0.239283 0
M  V30 155 H 13.0689 -1.68705 -2.76964 0
M  V30 156 H 12.8539 -3.32272 -2.08177 0
M  V30 157 H 14.3439 -2.91933 -2.98605 0
M  V30 158 N 14.781 0.264519 -1.55364 0
M  V30 159 C 15.711 1.33121 -1.91836 0
M  V30 160 C 16.692 1.51101 -0.781192 0
M  V30 161 O 17.877 1.64003 -1.04003 0
M  V30 162 C 15.007 2.68921 -2.19769 0
M  V30 163 C 13.961 2.65661 -3.35571 0
M  V30 164 C 13.287 4.05093 -3.49004 0
M  V30 165 C 14.587 2.24187 -4.71739 0
M  V30 166 H 16.281 1.02844 -2.81182 0
M  V30 167 H 13.827 0.493286 -1.35287 0
M  V30 168 H 15.78 3.43663 -2.43872 0
M  V30 169 H 14.504 3.00799 -1.27231 0
M  V30 170 H 13.163 1.93377 -3.1145 0
M  V30 171 H 12.811 4.34206 -2.53917 0
M  V30 172 H 12.511 4.03804 -4.26868 0
M  V30 173 H 14.035 4.81561 -3.75408 0
M  V30 174 H 15.449 2.88654 -4.9533 0
M  V30 175 H 13.846 2.34044 -5.52579 0
M  V30 176 H 14.916 1.19327 -4.69988 0
M  V30 177 N 16.2591 1.48442 0.529413 0
M  V30 178 C 17.4891 1.59919 1.30804 0
M  V30 179 C 17.8971 0.258792 1.87422 0
M  V30 180 O 17.2401 -0.762096 1.67146 0
M  V30 181 C 17.3021 2.58693 2.49636 0
M  V30 182 C 16.9661 4.03745 2.14101 0
M  V30 183 C 17.9631 4.9141 1.6974 0
M  V30 184 C 15.6481 4.49285 2.24607 0
M  V30 185 C 17.6421 6.22645 1.36351 0
M  V30 186 C 15.3291 5.8054 1.9083 0
M  V30 187 C 16.3271 6.67043 1.46773 0
M  V30 188 O 16.0151 7.95856 1.1344 0
M  V30 189 H 15.7471 0.541981 0.404021 0
M  V30 190 H 18.3011 1.95 0.645309 0
M  V30 191 H 16.5311 2.18734 3.18892 0
M  V30 192 H 18.2201 2.59999 3.11698 0
M  V30 193 H 18.9861 4.57465 1.61094 0
M  V30 194 H 14.8651 3.82142 2.57854 0
M  V30 195 H 18.4091 6.90119 1.01891 0
M  V30 196 H 14.3061 6.14022 1.99117 0
M  V30 197 H 15.0741 8.08613 1.26832 0
M  V30 198 N 17.7372 -0.778329 1.37039 0
M  V30 199 C 19.0142 -1.52551 1.22424 0
M  V30 200 C 19.3942 -2.10288 -0.184964 0
M  V30 201 O 18.7422 -1.94953 -1.19187 0
M  V30 202 C 18.9522 -2.61164 2.31504 0
M  V30 203 C 20.3002 -3.28746 2.68721 0
M  V30 204 O 21.3242 -2.71455 2.30631 0
M  V30 205 O 20.1832 -4.3231 3.3432 0
M  V30 206 H 17.2772 -0.675343 0.477326 0
M  V30 207 H 19.8232 -0.815859 1.48801 0
M  V30 208 H 18.5952 -2.16574 3.25901 0
M  V30 209 H 18.2182 -3.39737 2.06554 0
M  V30 210 N 19.2153 -1.21501 -1.00376 0
M  V30 211 C 20.1253 -0.991447 -2.12621 0
M  V30 212 C 21.1413 0.0568446 -1.73907 0
M  V30 213 O 22.3173 -0.13348 -2.00957 0
M  V30 214 C 19.3823 -0.560312 -3.42142 0
M  V30 215 C 18.4433 -1.68096 -3.95022 0
M  V30 216 C 17.6763 -1.2703 -5.18362 0
M  V30 217 O 17.8993 -0.144438 -5.70217 0
M  V30 218 O 16.8333 -2.08269 -5.64719 0
M  V30 219 H 20.6593 -1.93158 -2.34358 0
M  V30 220 H 18.2443 -0.999999 -1.10997 0
M  V30 221 H 20.1263 -0.329724 -4.20108 0
M  V30 222 H 18.8013 0.351089 -3.2179 0
M  V30 223 H 17.7083 -1.96597 -3.18278 0
M  V30 224 H 19.0413 -2.56983 -4.19786 0
M  V30 225 N 20.6934 1.19889 -1.02296 0
M  V30 226 C 21.6414 2.24938 -0.592081 0
M  V30 227 C 22.6354 1.65257 0.372357 0
M  V30 228 O 23.8414 1.78371 0.241583 0
M  V30 229 H 20.2164 0.731787 -0.173182 0
M  V30 230 H 22.1874 2.58603 -1.48885 0
M  V30 231 C 20.9364 3.47668 0.047351 0
M  V30 232 H 20.2594 3.93875 -0.685772 0
M  V30 233 H 21.6994 4.22852 0.311862 0
M  V30 234 C 20.1584 3.11136 1.29212 0
M  V30 235 O 20.6884 3.2325 2.38479 0
M  V30 236 N 18.8944 2.65625 1.17863 0
M  V30 237 H 18.4414 2.55968 0.289493 0
M  V30 238 H 18.3994 2.41553 2.01245 0
M  V30 239 N 22.1715 0.800033 1.35784 0
M  V30 240 C 23.1035 0.163596 2.28615 0
M  V30 241 C 24.1165 -0.633317 1.49976 0
M  V30 242 O 25.3055 -0.466754 1.72289 0
M  V30 243 C 22.4055 -0.790958 3.29541 0
M  V30 244 C 21.5785 -0.0418255 4.3738 0
M  V30 245 C 20.6375 -0.91389 5.18203 0
M  V30 246 O 19.6635 -0.367234 5.68014 0
M  V30 247 N 20.8655 -2.23682 5.35674 0
M  V30 248 H 23.6305 0.96105 2.83873 0
M  V30 249 H 21.1915 0.654894 1.48063 0
M  V30 250 H 23.1835 -1.37844 3.80501 0
M  V30 251 H 21.7535 -1.48925 2.74846 0
M  V30 252 H 20.9735 0.726813 3.87442 0
M  V30 253 H 22.2615 0.474719 5.06581 0
M  V30 254 H 21.6595 -2.70497 4.96838 0
M  V30 255 H 20.2165 -2.77369 5.89839 0
M  V30 256 N 23.6496 -1.47581 0.552962 0
M  V30 257 C 24.5966 -2.29957 -0.197108 0
M  V30 258 C 25.5666 -1.38799 -0.912359 0
M  V30 259 O 26.7516 -1.67761 -0.908888 0
M  V30 260 C 23.8916 -3.22672 -1.22379 0
M  V30 261 C 23.0046 -4.28919 -0.515038 0
M  V30 262 C 22.1396 -5.0879 -1.52664 0
M  V30 263 C 21.1786 -6.06815 -0.802631 0
M  V30 264 N 20.3156 -6.7966 -1.76086 0
M  V30 265 H 25.1556 -2.93578 0.511486 0
M  V30 266 H 22.6926 -1.4471 0.264067 0
M  V30 267 H 24.6506 -3.74845 -1.83159 0
M  V30 268 H 23.2806 -2.60925 -1.90047 0
M  V30 269 H 22.3326 -3.79835 0.207192 0
M  V30 270 H 23.6446 -4.98773 0.0523425 0
M  V30 271 H 22.7986 -5.65091 -2.20809 0
M  V30 272 H 21.5376 -4.38828 -2.12794 0
M  V30 273 H 20.5426 -5.49695 -0.107238 0
M  V30 274 H 21.7676 -6.78784 -0.207135 0
M  V30 275 H 19.7136 -6.12432 -2.35081 0
M  V30 276 H 19.6306 -7.45669 -1.24552 0
M  V30 277 H 20.8986 -7.40538 -2.43359 0
M  V30 278 N 25.1277 -0.289203 -1.54924 0
M  V30 279 C 26.3577 0.325989 -2.04012 0
M  V30 280 C 26.7657 1.48961 -1.1665 0
M  V30 281 O 26.1087 1.82794 -0.1822 0
M  V30 282 C 26.1707 0.856112 -3.49158 0
M  V30 283 C 25.8347 -0.180697 -4.56643 0
M  V30 284 C 26.8317 -1.0051 -5.10092 0
M  V30 285 C 24.5167 -0.318998 -5.01286 0
M  V30 286 C 26.5107 -1.95385 -6.06715 0
M  V30 287 C 24.1977 -1.27121 -5.97732 0
M  V30 288 C 25.1957 -2.08713 -6.50329 0
M  V30 289 O 24.8837 -3.02322 -7.44887 0
M  V30 290 H 24.6157 0.0765276 -0.671654 0
M  V30 291 H 27.1697 -0.423254 -2.00992 0
M  V30 292 H 25.3997 1.65567 -3.49463 0
M  V30 293 H 27.0887 1.38591 -3.81507 0
M  V30 294 H 27.8547 -0.90906 -4.76404 0
M  V30 295 H 23.7337 0.306108 -4.59983 0
M  V30 296 H 27.2777 -2.59111 -6.47694 0
M  V30 297 H 23.1747 -1.36801 -6.30837 0
M  V30 298 H 23.9427 -2.97165 -7.6265 0
M  V30 299 N 26.6058 1.57591 -0.0167156 0
M  V30 300 C 27.8828 1.82547 0.702564 0
M  V30 301 C 28.2628 0.898018 1.91047 0
M  V30 302 O 27.6108 -0.0493456 2.28447 0
M  V30 303 C 27.8208 3.31459 1.09251 0
M  V30 304 C 29.1688 3.97622 1.48937 0
M  V30 305 O 30.1928 3.35881 1.18584 0
M  V30 306 O 29.0518 5.06415 2.05442 0
M  V30 307 H 26.1458 0.752268 0.343544 0
M  V30 308 H 28.6918 1.69644 -0.0434495 0
M  V30 309 H 27.4638 3.9061 0.23227 0
M  V30 310 H 27.0868 3.49422 1.89709 0
M  V30 311 N 28.0839 -0.256276 1.55502 0
M  V30 312 C 29.3299 -0.987079 1.77157 0
M  V30 313 C 29.6629 -1.85327 0.580315 0
M  V30 314 O 28.9379 -1.89874 -0.421686 0
M  V30 315 C 29.2209 -1.85553 3.08613 0
M  V30 316 C 29.0739 -1.01816 4.38125 0
M  V30 317 C 30.3929 -2.8397 3.36228 0
M  V30 318 H 27.5119 -0.357428 0.644526 0
M  V30 319 H 30.1539 -0.258239 1.88237 0
M  V30 320 H 28.3039 -2.47695 2.99298 0
M  V30 321 H 29.9759 -0.416159 4.59419 0
M  V30 322 H 28.2189 -0.322178 4.32602 0
M  V30 323 H 28.8899 -1.65939 5.26468 0
M  V30 324 H 31.3659 -2.31964 3.45445 0
M  V30 325 H 30.2419 -3.41864 4.29442 0
M  V30 326 H 30.5029 -3.59955 2.56681 0
M  V30 327 N 29.562 -1.4872 -0.521534 0
M  V30 328 C 30.802 -1.58771 -1.28729 0
M  V30 329 C 31.166 -0.259394 -1.9024 0
M  V30 330 O 32.367 -0.234942 -2.67771 0
M  V30 331 C 30.638 -2.70039 -2.34124 0
M  V30 332 S 32.197 -2.9991 -3.20312 0
M  V30 333 H 29.015 -0.560251 -0.437767 0
M  V30 334 H 31.617 -1.86283 -0.593188 0
M  V30 335 H 30.321 -3.65101 -1.87429 0
M  V30 336 H 29.852 -2.44455 -3.08229 0
M  V30 337 H 31.867 -2.39855 -4.34378 0
M  V30 338 N 31.0401 0.771051 -1.3745 0
M  V30 339 C 32.2881 1.52661 -1.32435 0
M  V30 340 C 32.6091 1.9479 0.0905024 0
M  V30 341 O 31.8791 1.66348 1.03466 0
M  V30 342 H 30.4591 0.566218 -0.487244 0
M  V30 343 H 33.1211 0.917636 -1.71946 0
M  V30 344 H 32.2171 2.42568 -1.96385 0
M  V30 345 N 32.5182 1.22032 0.997298 0
M  V30 346 C 33.7672 1.03637 1.73038 0
M  V30 347 C 34.0802 -0.429475 1.90827 0
M  V30 348 O 35.2862 -0.732995 2.61418 0
M  V30 349 C 33.7422 1.80582 3.11317 0
M  V30 350 C 33.3502 3.31387 3.01474 0
M  V30 351 C 35.0942 1.70621 3.88701 0
M  V30 352 C 33.0012 4.00791 4.3488 0
M  V30 353 H 31.9312 0.384179 0.648785 0
M  V30 354 H 34.5822 1.4584 1.11368 0
M  V30 355 H 32.9642 1.31175 3.73643 0
M  V30 356 H 34.1382 3.88155 2.4834 0
M  V30 357 H 32.4532 3.41976 2.37575 0
M  V30 358 H 35.0502 2.19799 4.87434 0
M  V30 359 H 35.3932 0.665823 4.10941 0
M  V30 360 H 35.9262 2.17547 3.33044 0
M  V30 361 H 32.6652 5.05064 4.1784 0
M  V30 362 H 32.1852 3.48811 4.87945 0
M  V30 363 H 33.8642 4.06139 5.03647 0
M  V30 364 N 33.9963 -1.19345 1.0293 0
M  V30 365 C 35.2453 -1.88363 0.721256 0
M  V30 366 C 35.5583 -1.80514 -0.753254 0
M  V30 367 O 36.7643 -2.44788 -1.17436 0
M  V30 368 C 35.2203 -3.37872 1.23978 0
M  V30 369 C 34.8283 -3.54278 2.74211 0
M  V30 370 C 36.5723 -4.12365 1.00775 0
M  V30 371 C 34.4793 -4.97682 3.19479 0
M  V30 372 H 33.4093 -0.705484 0.266098 0
M  V30 373 H 36.0603 -1.34928 1.24365 0
M  V30 374 H 34.4423 -3.90707 0.6453 0
M  V30 375 H 35.6163 -3.11769 3.39318 0
M  V30 376 H 33.9313 -2.93174 2.95699 0
M  V30 377 H 36.5283 -5.18119 1.32123 0
M  V30 378 H 36.8713 -4.16263 -0.0554308 0
M  V30 379 H 37.4043 -3.65668 1.56625 0
M  V30 380 H 34.1433 -4.98945 4.25128 0
M  V30 381 H 33.6633 -5.4095 2.591 0
M  V30 382 H 35.3423 -5.66337 3.12845 0
M  V30 383 N 35.4744 -0.807222 -1.35358 0
M  V30 384 C 36.6994 -0.399309 -2.0352 0
M  V30 385 C 37.1244 0.981986 -1.60433 0
M  V30 386 O 36.4824 1.63601 -0.781299 0
M  V30 387 C 36.5304 -0.491552 -3.57234 0
M  V30 388 O 35.6344 0.494754 -4.09421 0
M  V30 389 H 34.9754 -0.166682 -0.642739 0
M  V30 390 H 37.5054 -1.09328 -1.72941 0
M  V30 391 H 37.5154 -0.361588 -4.06395 0
M  V30 392 H 36.1904 -1.49907 -3.87944 0
M  V30 393 H 34.7674 0.324977 -3.71481 0
M  V30 394 N 36.9525 1.47285 -0.560781 0
M  V30 395 C 37.9155 2.28535 0.174488 0
M  V30 396 C 38.9155 1.37153 0.839388 0
M  V30 397 O 40.1055 1.59748 0.694702 0
M  V30 398 C 37.2375 3.16934 1.25561 0
M  V30 399 H 38.4305 2.95012 -0.539262 0
M  V30 400 H 35.9835 1.53034 -0.317865 0
M  V30 401 H 36.7185 2.55157 2.00164 0
M  V30 402 H 36.5035 3.8419 0.783604 0
M  V30 403 H 37.9935 3.78143 1.77193 0
M  V30 404 N 38.4306 0.297415 1.54768 0
M  V30 405 C 39.3406 -0.58983 2.27064 0
M  V30 406 C 40.3566 -1.15144 1.30453 0
M  V30 407 O 41.5326 -1.17699 1.63428 0
M  V30 408 C 38.5976 -1.74714 2.9946 0
M  V30 409 C 37.6586 -1.21997 4.11601 0
M  V30 410 C 36.8916 -2.32212 4.80535 0
M  V30 411 O 37.1146 -3.52036 4.48806 0
M  V30 412 O 36.0486 -1.99106 5.68014 0
M  V30 413 H 39.8746 -0.00348199 3.037 0
M  V30 414 H 37.4596 0.0640035 1.49263 0
M  V30 415 H 39.3416 -2.42147 3.44881 0
M  V30 416 H 38.0166 -2.32016 2.25722 0
M  V30 417 H 36.9236 -0.511458 3.70587 0
M  V30 418 H 38.2566 -0.692419 4.87305 0
M  V30 419 N 39.9087 -1.5758 0.0250728 0
M  V30 420 C 41.1567 -1.91255 -0.653151 0
M  V30 421 C 41.4777 -0.901691 -1.729 0
M  V30 422 O 40.7477 0.0573785 -1.95816 0
M  V30 423 H 39.3277 -0.705942 -0.244243 0
M  V30 424 H 41.9897 -1.94767 0.0719209 0
M  V30 425 H 41.0857 -2.91752 -1.10847 0
M  V30 426 N 41.3868 0.248026 -1.55636 0
M  V30 427 C 42.3338 1.30707 -1.90222 0
M  V30 428 C 43.3038 1.47881 -0.756332 0
M  V30 429 O 44.4888 1.61883 -1.00988 0
M  V30 430 C 41.6288 2.65769 -2.20138 0
M  V30 431 C 40.7418 2.56612 -3.47526 0
M  V30 432 C 39.8768 3.8402 -3.67017 0
M  V30 433 C 38.9158 3.69476 -4.8801 0
M  V30 434 N 38.0528 4.88774 -5.04029 0
M  V30 435 H 42.8928 1.00512 -2.80538 0
M  V30 436 H 40.4298 0.485055 -1.38873 0
M  V30 437 H 42.3878 3.44386 -2.35487 0
M  V30 438 H 41.0178 2.94115 -1.33027 0
M  V30 439 H 40.0698 1.69571 -3.40514 0
M  V30 440 H 41.3818 2.41774 -4.36287 0
M  V30 441 H 40.5358 4.7108 -3.8232 0
M  V30 442 H 39.2748 4.01754 -2.76487 0
M  V30 443 H 38.2798 2.80799 -4.72686 0
M  V30 444 H 39.5048 3.53238 -5.8 0
M  V30 445 H 37.4508 5.0687 -4.16435 0
M  V30 446 H 37.3678 4.76562 -5.86877 0
M  V30 447 H 38.6358 5.77335 -5.23741 0
M  V30 448 N 42.8649 1.48995 0.513639 0
M  V30 449 C 44.1139 1.57093 1.2651 0
M  V30 450 C 44.4269 0.257091 1.93903 0
M  V30 451 O 45.6329 0.216478 2.70636 0
M  V30 452 C 44.0889 2.77118 2.29638 0
M  V30 453 C 43.6969 4.15209 1.68241 0
M  V30 454 C 45.4409 2.94538 3.05692 0
M  V30 455 C 43.3479 5.26474 2.69406 0
M  V30 456 H 42.2779 0.584876 0.475854 0
M  V30 457 H 44.9289 1.7536 0.540487 0
M  V30 458 H 43.3109 2.52319 3.05207 0
M  V30 459 H 44.4849 4.50094 0.987505 0
M  V30 460 H 42.7999 4.03042 1.04623 0
M  V30 461 H 45.3969 3.74832 3.8132 0
M  V30 462 H 45.7399 2.04614 3.62545 0
M  V30 463 H 46.2729 3.19316 2.37238 0
M  V30 464 H 43.0119 6.18417 2.17351 0
M  V30 465 H 42.5319 4.96058 3.37175 0
M  V30 466 H 44.2109 5.55277 3.32078 0
M  V30 467 N 44.343 -0.763751 1.37857 0
M  V30 468 C 45.573 -1.55067 1.3652 0
M  V30 469 C 45.981 -1.89135 -0.0494227 0
M  V30 470 O 45.324 -1.52529 -1.02375 0
M  V30 471 C 45.386 -2.8838 2.14656 0
M  V30 472 C 45.05 -2.76905 3.63555 0
M  V30 473 C 46.047 -2.4739 4.57268 0
M  V30 474 C 43.732 -2.94676 4.06781 0
M  V30 475 C 45.726 -2.35786 5.92186 0
M  V30 476 C 43.413 -2.82692 5.41782 0
M  V30 477 C 44.411 -2.53289 6.34298 0
M  V30 478 O 44.099 -2.41345 7.66817 0
M  V30 479 H 43.831 -0.486776 0.469069 0
M  V30 480 H 46.385 -0.953812 1.81911 0
M  V30 481 H 44.615 -3.50217 1.63967 0
M  V30 482 H 46.304 -3.49828 2.05852 0
M  V30 483 H 47.07 -2.33339 4.2518 0
M  V30 484 H 42.949 -3.16563 3.35126 0
M  V30 485 H 46.493 -2.12757 6.64365 0
M  V30 486 H 42.39 -2.96314 5.7347 0
M  V30 487 H 43.158 -2.56634 7.77226 0
M  V30 488 N 45.8211 -1.22559 -0.990812 0
M  V30 489 C 47.2321 -1.04791 -1.54518 0
M  V30 490 C 47.5831 0.387998 -1.92325 0
M  V30 491 O 46.7081 1.27328 -1.74976 0
M  V30 492 C 47.3031 -1.896 -2.80779 0
M  V30 493 C 45.8621 -1.76124 -3.32652 0
M  V30 494 C 45.0091 -1.8594 -2.05722 0
M  V30 495 H 47.9601 -1.36374 -0.811662 0
M  V30 496 H 47.9811 -1.41464 -3.53225 0
M  V30 497 H 47.4931 -2.94101 -2.53231 0
M  V30 498 H 45.5941 -0.743643 -3.65104 0
M  V30 499 H 45.7071 -2.58913 -4.03114 0
M  V30 500 H 44.0711 -1.29403 -2.19379 0
M  V30 501 H 44.8541 -2.91976 -1.80568 0
M  V30 502 N 47.2992 1.18797 -1.03562 0
M  V30 503 C 48.2292 2.24472 -0.643019 0
M  V30 504 C 49.2102 1.66433 0.351283 0
M  V30 505 O 50.3952 1.92803 0.232505 0
M  V30 506 C 47.5252 3.473 4.24935e-05 0
M  V30 507 C 46.4792 4.18055 -0.917257 0
M  V30 508 C 45.8052 5.34519 -0.138941 0
M  V30 509 C 47.1052 4.72109 -2.23407 0
M  V30 510 H 48.7992 2.57566 -1.52643 0
M  V30 511 H 46.3452 1.23806 -0.735394 0
M  V30 512 H 48.2982 4.20426 0.286383 0
M  V30 513 H 47.0222 3.13424 0.918299 0
M  V30 514 H 45.6812 3.46821 -1.1879 0
M  V30 515 H 45.3292 4.96891 0.781562 0
M  V30 516 H 45.0292 5.82794 -0.750005 0
M  V30 517 H 46.5532 6.10438 0.1405 0
M  V30 518 H 47.9672 5.36955 -2.00879 0
M  V30 519 H 46.3642 5.30897 -2.79765 0
M  V30 520 H 47.4342 3.89807 -2.88407 0
M  V30 521 N 48.7773 0.814389 1.34928 0
M  V30 522 C 50.0253 0.397636 1.9815 0
M  V30 523 C 50.3463 -1.04069 1.64908 0
M  V30 524 O 49.6163 -1.72121 0.93548 0
M  V30 525 H 48.1963 0.144043 0.732981 0
M  V30 526 H 50.8583 1.04195 1.6471 0
M  V30 527 H 49.9543 0.509688 3.0791 0
M  V30 528 N 50.2554 -1.46986 0.568584 0
M  V30 529 C 51.4804 -2.07335 0.0520528 0
M  V30 530 C 51.9054 -1.41675 -1.23733 0
M  V30 531 O 51.2634 -0.495623 -1.74394 0
M  V30 532 C 51.3114 -3.60417 -0.11501 0
M  V30 533 O 50.4154 -3.95309 -1.17492 0
M  V30 534 H 49.7564 -0.661597 0.0564385 0
M  V30 535 H 52.2864 -1.88837 0.787507 0
M  V30 536 H 52.2964 -4.06698 -0.325644 0
M  V30 537 H 50.9714 -4.07601 0.826675 0
M  V30 538 H 49.5484 -3.60757 -0.943869 0
M  V30 539 N 51.7335 -0.305618 -1.54608 0
M  V30 540 C 53.0105 0.355652 -1.92339 0
M  V30 541 C 53.3905 1.71324 -1.23335 0
M  V30 542 O 52.7385 2.25473 -0.370702 0
M  V30 543 C 52.9485 0.46572 -3.45879 0
M  V30 544 C 54.2965 0.734426 -4.182 0
M  V30 545 O 55.3205 0.54935 -3.51938 0
M  V30 546 O 54.1795 1.09024 -5.35515 0
M  V30 547 H 51.2735 0.199666 -0.802535 0
M  V30 548 H 53.8195 -0.354017 -1.65966 0
M  V30 549 H 52.5915 -0.488461 -3.88239 0
M  V30 550 H 52.2145 1.22367 -3.78301 0
M  V30 551 N 53.2116 1.57565 -0.0334293 0
M  V30 552 C 54.4396 1.9628 0.654347 0
M  V30 553 C 54.8546 0.910138 1.65414 0
M  V30 554 O 54.2116 -0.107595 1.82183 0
M  V30 555 C 54.2626 3.35067 1.35693 0
M  V30 556 O 53.9836 4.36296 0.397191 0
M  V30 557 C 55.4846 3.88439 2.13613 0
M  V30 558 H 52.7046 0.646369 0.180132 0
M  V30 559 H 55.2486 2.04282 -0.0944721 0
M  V30 560 H 53.4036 3.2827 2.05712 0
M  V30 561 H 53.8176 5.1678 0.896597 0
M  V30 562 H 55.2916 4.8788 2.58219 0
M  V30 563 H 55.7686 3.22914 2.97696 0
M  V30 564 H 56.3746 3.98516 1.48543 0
M  V30 565 N 54.6897 -0.239769 1.55765 0
M  V30 566 C 55.6367 -1.29696 1.90913 0
M  V30 567 C 56.6067 -1.47478 0.764164 0
M  V30 568 O 57.7917 -1.61345 1.01845 0
M  V30 569 C 54.9317 -2.64598 2.21544 0
M  V30 570 C 54.0447 -2.54765 3.48882 0
M  V30 571 C 53.1797 -3.82069 3.69049 0
M  V30 572 C 52.2187 -3.66883 4.89963 0
M  V30 573 N 51.3557 -4.86094 5.06614 0
M  V30 574 H 56.1957 -0.990224 2.81067 0
M  V30 575 H 53.7327 -0.477684 1.39128 0
M  V30 576 H 55.6907 -3.43132 2.3731 0
M  V30 577 H 54.3207 -2.93405 1.34585 0
M  V30 578 H 53.3727 -1.67763 3.41409 0
M  V30 579 H 54.6847 -2.39457 4.37563 0
M  V30 580 H 53.8387 -4.69046 3.84812 0
M  V30 581 H 52.5777 -4.00282 2.78614 0
M  V30 582 H 51.5827 -2.78289 4.74168 0
M  V30 583 H 52.8077 -3.50157 5.81865 0
M  V30 584 H 50.7537 -5.04655 4.19117 0
M  V30 585 H 50.6707 -4.73443 5.89396 0
M  V30 586 H 51.9387 -5.74549 5.26795 0
M  V30 587 N 56.1678 -1.49265 -0.50573 0
M  V30 588 C 57.4138 -1.58748 -1.26202 0
M  V30 589 C 57.7468 -0.271227 -1.92297 0
M  V30 590 O 57.0218 0.724831 -1.80489 0
M  V30 591 C 57.3048 -2.74332 -2.33268 0
M  V30 592 C 57.1578 -4.15737 -1.71705 0
M  V30 593 C 58.4768 -2.85576 -3.34865 0
M  V30 594 H 55.5958 -0.577826 -0.457478 0
M  V30 595 H 58.2378 -1.81532 -0.560897 0
M  V30 596 H 56.3878 -2.55036 -2.93068 0
M  V30 597 H 58.0598 -4.46537 -1.15769 0
M  V30 598 H 56.3028 -4.21605 -1.02135 0
M  V30 599 H 56.9738 -4.92477 -2.49341 0
M  V30 600 H 59.4498 -3.03127 -2.8505 0
M  V30 601 H 58.3258 -3.68135 -4.07146 0
M  V30 602 H 58.5868 -1.94732 -3.96903 0
M  V30 603 N 57.6459 0.756429 -1.3826 0
M  V30 604 C 58.5759 1.88374 -1.37976 0
M  V30 605 C 59.5569 1.68311 -0.246082 0
M  V30 606 O 60.7419 1.88944 -0.44874 0
M  V30 607 C 57.8719 3.25864 -1.20125 0
M  V30 608 C 56.8259 3.60523 -2.30666 0
M  V30 609 C 56.1519 4.9672 -1.97923 0
M  V30 610 C 57.4519 3.65692 -3.72916 0
M  V30 611 H 59.1459 1.88869 -2.32312 0
M  V30 612 H 56.6919 0.907272 -1.11824 0
M  V30 613 H 58.6449 4.0438 -1.18552 0
M  V30 614 H 57.3689 3.25841 -0.222498 0
M  V30 615 H 56.0279 2.84324 -2.3142 0
M  V30 616 H 55.6759 4.93253 -0.985393 0
M  V30 617 H 55.3759 5.20878 -2.71955 0
M  V30 618 H 56.8999 5.77618 -1.97964 0
M  V30 619 H 58.3139 4.34328 -3.74208 0
M  V30 620 H 56.7109 4.01358 -4.4613 0
M  V30 621 H 57.7809 2.65987 -4.05436 0
M  V30 622 N 59.124 1.23083 0.984299 0
M  V30 623 C 60.349 1.088 1.76571 0
M  V30 624 C 60.774 -0.356657 1.84688 0
M  V30 625 O 60.132 -1.25788 1.30565 0
M  V30 626 C 60.18 1.71371 3.17277 0
M  V30 627 O 59.284 0.973213 4.00752 0
M  V30 628 H 58.625 0.381599 0.543395 0
M  V30 629 H 61.155 1.63057 1.23587 0
M  V30 630 H 61.165 1.76449 3.67872 0
M  V30 631 H 59.84 2.76493 3.10684 0
M  V30 632 H 58.417 0.999078 3.59267 0
M  V30 633 N 60.6021 -1.18246 1.0419 0
M  V30 634 C 61.8301 -1.92195 0.766072 0
M  V30 635 C 62.2451 -1.76247 -0.676933 0
M  V30 636 O 61.6021 -1.09293 -1.46155 0
M  V30 637 C 61.6531 -3.43568 1.12442 0
M  V30 638 O 61.3741 -3.59015 2.51078 0
M  V30 639 C 62.8751 -4.34613 0.873275 0
M  V30 640 H 60.0951 -0.610114 0.279288 0
M  V30 641 H 62.6391 -1.50007 1.38989 0
M  V30 642 H 60.7941 -3.8354 0.545542 0
M  V30 643 H 61.2081 -4.5273 2.64831 0
M  V30 644 H 62.6821 -5.39374 1.17385 0
M  V30 645 H 63.1591 -4.38781 -0.191909 0
M  V30 646 H 63.7651 -4.00341 1.43551 0
M  V30 647 N 62.0802 -0.821533 -1.34494 0
M  V30 648 C 63.3292 -0.405355 -1.97585 0
M  V30 649 C 63.6422 1.03677 -1.65863 0
M  V30 650 O 64.8482 1.55679 -2.22433 0
M  V30 651 C 63.3042 -0.673861 -3.53535 0
M  V30 652 C 62.9122 -2.12951 -3.94152 0
M  V30 653 C 64.6562 -0.32378 -4.23263 0
M  V30 654 C 62.5632 -2.34298 -5.43009 0
M  V30 655 H 61.4932 -0.147836 -0.739365 0
M  V30 656 H 64.1442 -1.00769 -1.53355 0
M  V30 657 H 62.5262 -0.00137554 -3.96 0
M  V30 658 H 63.7002 -2.84104 -3.62797 0
M  V30 659 H 62.0152 -2.44089 -3.37356 0
M  V30 660 H 64.6122 -0.461126 -5.32708 0
M  V30 661 H 64.9552 0.731586 -4.09821 0
M  V30 662 H 65.4882 -0.950786 -3.8627 0
M  V30 663 H 62.2272 -3.38335 -5.61435 0
M  V30 664 H 61.7472 -1.67687 -5.75883 0
M  V30 665 H 63.4262 -2.16588 -6.09671 0
M  V30 666 N 63.5583 1.46682 -0.576371 0
M  V30 667 C 64.8053 2.02412 -0.0595339 0
M  V30 668 C 65.1333 1.44859 1.29793 0
M  V30 669 O 64.3883 0.601099 1.8624 0
M  V30 670 C 64.6873 3.57345 0.062886 0
M  V30 671 C 64.3533 4.33908 -1.22616 0
M  V30 672 C 63.0153 4.54544 -1.57933 0
M  V30 673 C 65.3673 4.77919 -2.07948 0
M  V30 674 C 62.6953 5.16444 -2.78393 0
M  V30 675 C 65.0473 5.41149 -3.27629 0
M  V30 676 C 63.7113 5.60014 -3.63236 0
M  V30 677 H 62.9813 0.74068 -0.021785 0
M  V30 678 H 65.6283 1.76128 -0.751735 0
M  V30 679 H 63.9333 3.82729 0.838178 0
M  V30 680 H 65.6303 3.98136 0.478439 0
M  V30 681 H 62.2203 4.18138 -0.941202 0
M  V30 682 H 66.4043 4.61738 -1.81967 0
M  V30 683 H 61.6603 5.29242 -3.06126 0
M  V30 684 H 65.8343 5.74211 -3.94023 0
M  V30 685 H 63.4613 6.07748 -4.56669 0
M  V30 686 N 65.0364 0.313813 1.54444 0
M  V30 687 C 65.9464 -0.565714 2.27677 0
M  V30 688 C 66.9624 -1.13754 1.31666 0
M  V30 689 O 68.1384 -1.15959 1.64668 0
M  V30 690 C 65.2034 -1.71528 3.01296 0
M  V30 691 C 64.2644 -1.17624 4.12872 0
M  V30 692 C 63.4974 -2.27102 4.8297 0
M  V30 693 O 63.7204 -3.47256 4.52514 0
M  V30 694 O 62.6544 -1.9307 5.70094 0
M  V30 695 H 66.4804 0.0287296 3.03686 0
M  V30 696 H 64.0654 0.0798312 1.49187 0
M  V30 697 H 65.9474 -2.38476 3.4743 0
M  V30 698 H 64.6224 -2.29608 2.2817 0
M  V30 699 H 63.5294 -0.472124 3.71109 0
M  V30 700 H 64.8624 -0.640695 4.88012 0
M  V30 701 N 66.5145 -1.57545 0.0417849 0
M  V30 702 C 67.4445 -2.14009 -0.933929 0
M  V30 703 C 68.4255 -1.05938 -1.33083 0
M  V30 704 O 69.6105 -1.33833 -1.40721 0
M  V30 705 C 66.7405 -2.67747 -2.21199 0
M  V30 706 C 65.6945 -3.80718 -1.95544 0
M  V30 707 C 65.0205 -4.20935 -3.29724 0
M  V30 708 C 66.3205 -5.06258 -1.28452 0
M  V30 709 H 68.0145 -2.95788 -0.463645 0
M  V30 710 H 65.5605 -1.42285 -0.221573 0
M  V30 711 H 67.5135 -3.05886 -2.89848 0
M  V30 712 H 66.2375 -1.83147 -2.70416 0
M  V30 713 H 64.8965 -3.43037 -1.2931 0
M  V30 714 H 64.5445 -3.33298 -3.76724 0
M  V30 715 H 64.2445 -4.9707 -3.13361 0
M  V30 716 H 65.7685 -4.61666 -3.9962 0
M  V30 717 H 67.1825 -5.41903 -1.8712 0
M  V30 718 H 65.5795 -5.87475 -1.22445 0
M  V30 719 H 66.6495 -4.84207 -0.259219 0
M  V30 720 N 67.9926 0.231505 -1.5589 0
M  V30 721 C 69.2396 0.957352 -1.78441 0
M  V30 722 C 69.5676 1.84726 -0.60882 0
M  V30 723 O 68.8226 1.91416 0.40725 0
M  V30 724 C 69.1216 1.83577 -3.0665 0
M  V30 725 C 68.7876 1.09993 -4.37278 0
M  V30 726 C 67.4496 0.896629 -4.72773 0
M  V30 727 C 69.8016 0.579558 -5.17968 0
M  V30 728 C 67.1296 0.160896 -5.86479 0
M  V30 729 C 69.4816 -0.142783 -6.32439 0
M  V30 730 C 68.1456 -0.357427 -6.66542 0
M  V30 731 H 67.4156 0.35032 -0.65296 0
M  V30 732 H 70.0626 0.226259 -1.90159 0
M  V30 733 H 68.3676 2.63441 -2.90011 0
M  V30 734 H 70.0646 2.39934 -3.21298 0
M  V30 735 H 66.6546 1.26835 -4.09403 0
M  V30 736 H 70.8386 0.724125 -4.90989 0
M  V30 737 H 66.0946 -0.0157293 -6.11398 0
M  V30 738 H 70.2686 -0.553559 -6.94196 0
M  V30 739 H 67.8956 -0.929466 -7.54497 0
M  V30 740 N 69.4707 1.49531 0.497807 0
M  V30 741 C 70.6957 1.63159 1.28039 0
M  V30 742 C 71.1207 0.30418 1.85624 0
M  V30 743 O 70.4787 -0.728618 1.66015 0
M  V30 744 C 70.5267 2.70537 2.38416 0
M  V30 745 O 69.6307 2.29931 3.42353 0
M  V30 746 H 68.9717 0.546001 0.377861 0
M  V30 747 H 71.5017 1.9574 0.59558 0
M  V30 748 H 71.5117 2.92802 2.84132 0
M  V30 749 H 70.1867 3.6689 1.95869 0
M  V30 750 H 68.7637 2.18009 3.02533 0
M  V30 751 N 70.9488 -0.749086 1.3866 0
M  V30 752 C 72.3648 -1.05276 1.19955 0
M  V30 753 C 72.5648 -2.01435 0.05134 0
M  V30 754 O 71.6208 -2.45232 -0.60147 0
M  V30 755 C 72.9338 -1.62853 2.52783 0
M  V30 756 C 74.4818 -1.75002 2.59506 0
M  V30 757 C 74.9568 -2.35991 3.92521 0
M  V30 758 N 76.4478 -2.43416 3.94085 0
M  V30 759 C 77.1828 -2.91511 4.9377 0
M  V30 760 N 76.6788 -3.39608 6.03853 0
M  V30 761 N 78.4718 -2.90592 4.81157 0
M  V30 762 H 70.6228 -0.111066 2.12109 0
M  V30 763 H 72.8858 -0.111901 0.941373 0
M  V30 764 H 72.5918 -0.99664 3.37283 0
M  V30 765 H 72.4658 -2.61854 2.715 0
M  V30 766 H 74.8528 -2.37317 1.75398 0
M  V30 767 H 74.9338 -0.74693 2.44652 0
M  V30 768 H 74.5778 -1.74308 4.77053 0
M  V30 769 H 74.5078 -3.3695 4.04688 0
M  V30 770 H 76.9988 -2.09405 3.14576 0
M  V30 771 H 77.3118 -3.74775 6.75843 0
M  V30 772 H 75.6568 -3.37653 6.07466 0
M  V30 773 H 78.8478 -2.52332 3.94267 0
M  V30 774 H 79.0208 -3.27762 5.58996 0
M  V30 775 N 72.4269 -1.23603 -0.977757 0
M  V30 776 C 73.8379 -1.06424 -1.53398 0
M  V30 777 C 74.1889 0.367578 -1.92726 0
M  V30 778 O 73.3139 1.25465 -1.76316 0
M  V30 779 C 73.9089 -1.92568 -2.78753 0
M  V30 780 C 72.4679 -1.79642 -3.30765 0
M  V30 781 C 71.6149 -1.88111 -2.03739 0
M  V30 782 H 74.5659 -1.37227 -0.797152 0
M  V30 783 H 74.5869 -1.45203 -3.51705 0
M  V30 784 H 74.0989 -2.96771 -2.50098 0
M  V30 785 H 72.1999 -0.782325 -3.64294 0
M  V30 786 H 72.3129 -2.63174 -4.00345 0
M  V30 787 H 70.6769 -1.31723 -2.17994 0
M  V30 788 H 71.4599 -2.93875 -1.77461 0
M  V30 789 N 73.905 1.17692 -1.04816 0
M  V30 790 C 75.154 1.87192 -0.751132 0
M  V30 791 C 75.467 1.8169 0.724441 0
M  V30 792 O 76.673 2.46625 1.13527 0
M  V30 793 C 75.129 3.35857 -1.29338 0
M  V30 794 C 74.737 3.4987 -2.79812 0
M  V30 795 C 76.481 4.10709 -1.07322 0
M  V30 796 C 74.388 4.92536 -3.27356 0
M  V30 797 H 73.318 0.701162 -0.277288 0
M  V30 798 H 75.969 1.32932 -1.26496 0
M  V30 799 H 74.351 3.89631 -0.707376 0
M  V30 800 H 75.525 3.06332 -3.44235 0
M  V30 801 H 73.84 2.88433 -3.00325 0
M  V30 802 H 76.437 5.15952 -1.4035 0
M  V30 803 H 76.78 4.16299 -0.0108001 0
M  V30 804 H 77.313 3.6313 -1.62423 0
M  V30 805 H 74.052 4.92119 -4.33012 0
M  V30 806 H 73.572 5.3676 -2.67673 0
M  V30 807 H 75.251 5.61288 -3.21815 0
M  V30 808 N 75.3831 0.828654 1.34056 0
M  V30 809 C 76.6321 0.415828 1.97367 0
M  V30 810 C 76.9451 -1.02796 1.6641 0
M  V30 811 O 78.1511 -1.54497 2.23255 0
M  V30 812 C 76.6071 0.692601 3.53173 0
M  V30 813 C 76.2151 2.15038 3.93017 0
M  V30 814 C 77.9591 0.346222 4.23086 0
M  V30 815 C 75.8661 2.37174 5.41758 0
M  V30 816 H 74.7961 0.151755 0.738571 0
M  V30 817 H 77.4471 1.01581 1.52819 0
M  V30 818 H 75.8291 0.0223764 3.95994 0
M  V30 819 H 77.0031 2.86024 3.61285 0
M  V30 820 H 75.3181 2.45875 3.36057 0
M  V30 821 H 77.9151 0.48937 5.32456 0
M  V30 822 H 78.2581 -0.709842 4.10204 0
M  V30 823 H 78.7911 0.971258 3.85761 0
M  V30 824 H 75.5301 3.41308 5.59633 0
M  V30 825 H 75.0501 1.70738 5.74986 0
M  V30 826 H 76.7291 2.19818 6.08514 0
M  V30 827 N 76.8612 -1.46375 0.584142 0
M  V30 828 C 77.8092 -2.32042 -0.161047 0
M  V30 829 C 78.8032 -1.44569 -0.882966 0
M  V30 830 O 80.0092 -1.61186 -0.801191 0
M  V30 831 H 76.3842 -0.748659 -0.0708033 0
M  V30 832 H 78.3552 -2.92704 0.580269 0
M  V30 833 C 77.1042 -3.27762 -1.1605 0
M  V30 834 H 76.4272 -3.95051 -0.614419 0
M  V30 835 H 77.8672 -3.90481 -1.65228 0
M  V30 836 C 76.3262 -2.53218 -2.22221 0
M  V30 837 O 76.8562 -2.29628 -3.29597 0
M  V30 838 N 75.0622 -2.13756 -1.96868 0
M  V30 839 H 74.6092 -2.33142 -1.09557 0
M  V30 840 H 74.5672 -1.642 -2.68115 0
M  V30 841 N 78.3393 -0.321999 -1.54275 0
M  V30 842 C 79.2863 0.544664 -2.24281 0
M  V30 843 C 80.2563 1.1129 -1.23303 0
M  V30 844 O 81.4413 1.15354 -1.51981 0
M  V30 845 C 78.5813 1.70045 -3.00298 0
M  V30 846 C 77.6943 1.16159 -4.1609 0
M  V30 847 C 76.8293 2.28293 -4.79641 0
M  V30 848 C 75.8683 1.71648 -5.8754 0
M  V30 849 N 75.0053 2.77438 -6.44959 0
M  V30 850 H 79.8453 -0.0588907 -2.97942 0
M  V30 851 H 77.3823 -0.0408345 -1.47043 0
M  V30 852 H 79.3403 2.38054 -3.42616 0
M  V30 853 H 77.9703 2.27531 -2.28975 0
M  V30 854 H 77.0223 0.373092 -3.78566 0
M  V30 855 H 78.3343 0.707087 -4.93763 0
M  V30 856 H 77.4883 3.0421 -5.2492 0
M  V30 857 H 76.2273 2.77079 -4.01346 0
M  V30 858 H 75.2323 0.942282 -5.41665 0
M  V30 859 H 76.4573 1.23741 -6.67731 0
M  V30 860 H 74.4033 3.25519 -5.69538 0
M  V30 861 H 74.3203 2.36547 -7.1804 0
M  V30 862 H 75.5883 3.53189 -6.94894 0
M  V30 863 N 79.8174 1.5752 -0.0501392 0
M  V30 864 C 81.0664 1.91827 0.623328 0
M  V30 865 C 81.3794 0.930222 1.72065 0
M  V30 866 O 82.5854 1.1653 2.4522 0
M  V30 867 C 81.0414 3.40692 1.16003 0
M  V30 868 C 80.6494 4.479 0.0948811 0
M  V30 869 C 82.3934 3.84034 1.80881 0
M  V30 870 C 80.3004 5.87879 0.644411 0
M  V30 871 H 79.2304 0.715918 0.236596 0
M  V30 872 H 81.8814 1.83115 -0.118861 0
M  V30 873 H 80.2634 3.44405 1.9545 0
M  V30 874 H 81.4374 4.55775 -0.678675 0
M  V30 875 H 79.7524 4.13892 -0.45637 0
M  V30 876 H 82.3494 4.85984 2.22988 0
M  V30 877 H 82.6924 3.20225 2.6601 0
M  V30 878 H 83.2254 3.82833 1.0809 0
M  V30 879 H 79.9644 6.55282 -0.169229 0
M  V30 880 H 79.4844 5.83567 1.38598 0
M  V30 881 H 81.1634 6.37098 1.12763 0
M  V30 882 N 81.2955 -0.223234 1.56011 0
M  V30 883 C 82.2585 -1.26014 1.9145 0
M  V30 884 C 83.2585 -1.3989 0.792937 0
M  V30 885 O 84.4485 -1.38184 1.0607 0
M  V30 886 C 81.5805 -2.63422 2.16383 0
M  V30 887 H 82.7735 -0.95796 2.84189 0
M  V30 888 H 80.3265 -0.463576 1.49267 0
M  V30 889 H 81.0615 -2.98741 1.2619 0
M  V30 890 H 80.8465 -2.54728 2.98088 0
M  V30 891 H 82.3365 -3.38249 2.44903 0
M  V30 892 N 82.7736 -1.49793 -0.48987 0
M  V30 893 C 83.6836 -1.70036 -1.61632 0
M  V30 894 C 84.6996 -0.583102 -1.63939 0
M  V30 895 O 85.8756 -0.859169 -1.82154 0
M  V30 896 C 82.9406 -1.77277 -2.97949 0
M  V30 897 C 82.0016 -3.00918 -3.06181 0
M  V30 898 C 81.2346 -3.07804 -4.35996 0
M  V30 899 O 81.4576 -2.21982 -5.25433 0
M  V30 900 O 80.3916 -4.00369 -4.49431 0
M  V30 901 H 84.2176 -2.65486 -1.47482 0
M  V30 902 H 81.8026 -1.33666 -0.667362 0
M  V30 903 H 83.6846 -1.84329 -3.78947 0
M  V30 904 H 82.3596 -0.850076 -3.12339 0
M  V30 905 H 81.2666 -2.99377 -2.2433 0
M  V30 906 H 82.5996 -3.92704 -2.96723 0
M  V30 907 N 84.2517 0.741722 -1.39055 0
M  V30 908 C 85.1987 1.85566 -1.37237 0
M  V30 909 C 86.1687 1.64457 -0.233072 0
M  V30 910 O 87.3537 1.85957 -0.427147 0
M  V30 911 C 84.4937 3.23004 -1.215 0
M  V30 912 C 83.6067 3.55864 -2.44918 0
M  V30 913 C 82.7417 4.82669 -2.21821 0
M  V30 914 C 81.7807 5.08351 -3.40948 0
M  V30 915 N 80.9177 6.26356 -3.17211 0
M  V30 916 H 85.7577 1.86455 -2.32462 0
M  V30 917 H 83.2947 0.911176 -1.15482 0
M  V30 918 H 85.2527 4.02331 -1.10389 0
M  V30 919 H 83.8827 3.21411 -0.29908 0
M  V30 920 H 82.9347 2.7129 -2.66657 0
M  V30 921 H 84.2467 3.70765 -3.33668 0
M  V30 922 H 83.4007 5.69962 -2.07914 0
M  V30 923 H 82.1397 4.69929 -1.30454 0
M  V30 924 H 81.1447 4.19522 -3.55361 0
M  V30 925 H 82.3697 5.22981 -4.33207 0
M  V30 926 H 80.3157 6.14917 -2.28502 0
M  V30 927 H 80.2327 6.41813 -3.99515 0
M  V30 928 H 81.5007 7.16506 -3.06984 0
M  V30 929 N 85.7298 1.2412 0.971189 0
M  V30 930 C 86.6798 0.997551 2.05019 0
M  V30 931 C 87.6638 -0.0597747 1.60789 0
M  V30 932 O 88.8558 0.153516 1.76333 0
M  V30 933 C 85.9848 0.600557 3.38006 0
M  V30 934 C 85.0708 1.69377 3.88809 0
M  V30 935 N 85.4618 2.92586 4.12586 0
M  V30 936 C 83.7598 1.57048 4.17435 0
M  V30 937 C 84.4608 3.63431 4.54195 0
M  V30 938 N 83.4368 2.90979 4.59165 0
M  V30 939 H 87.2388 1.93316 2.21374 0
M  V30 940 H 84.7528 1.14194 1.1547 0
M  V30 941 H 86.7498 0.40725 4.14906 0
M  V30 942 H 85.4098 -0.327903 3.2304 0
M  V30 943 H 86.4208 3.288 4.00139 0
M  V30 944 H 83.0978 0.709798 4.11422 0
M  V30 945 H 84.4878 4.69102 4.81033 0
M  V30 946 N 87.2079 -1.17134 1.05439 0
M  V30 947 C 88.4559 -1.87085 0.764429 0
M  V30 948 C 88.7769 -1.81584 -0.710787 0
M  V30 949 O 88.0469 -1.24349 -1.51374 0
M  V30 950 H 86.6269 -0.692627 0.279779 0
M  V30 951 H 89.2889 -1.42087 1.33406 0
M  V30 952 H 88.3849 -2.92759 1.0816 0
M  V30 953 N 88.686 -0.835752 -1.33615 0
M  V30 954 C 89.916 -0.442701 -2.01801 0
M  V30 955 C 90.324 0.959807 -1.63047 0
M  V30 956 O 89.667 1.63468 -0.838088 0
M  V30 957 C 89.729 -0.480125 -3.56279 0
M  V30 958 C 89.393 -1.8382 -4.18401 0
M  V30 959 C 90.39 -2.80097 -4.37998 0
M  V30 960 C 88.075 -2.13019 -4.54894 0
M  V30 961 C 90.069 -4.03736 -4.9323 0
M  V30 962 C 87.756 -3.36916 -5.09834 0
M  V30 963 C 88.754 -4.32091 -5.28948 0
M  V30 964 O 88.442 -5.53797 -5.82721 0
M  V30 965 H 88.174 -0.17441 -0.653114 0
M  V30 966 H 90.728 -1.129 -1.71589 0
M  V30 967 H 88.958 0.262931 -3.85805 0
M  V30 968 H 90.647 -0.105335 -4.05763 0
M  V30 969 H 91.413 -2.58838 -4.10156 0
M  V30 970 H 87.292 -1.39733 -4.39313 0
M  V30 971 H 90.836 -4.78034 -5.08064 0
M  V30 972 H 86.733 -3.58033 -5.37106 0
M  V30 973 H 87.501 -5.55494 -6.0114 0
M  V30 974 N 90.1641 1.46063 -0.591896 0
M  V30 975 C 91.4131 2.01547 -0.0786637 0
M  V30 976 C 91.7261 1.46796 1.29268 0
M  V30 977 O 92.9321 1.94157 1.89777 0
M  V30 978 C 91.3881 3.59787 -0.0900024 0
M  V30 979 C 90.9961 4.23534 -1.46023 0
M  V30 980 C 92.7401 4.22895 0.368806 0
M  V30 981 C 90.6471 5.73881 -1.4288 0
M  V30 982 H 89.5771 0.753564 -0.0256388 0
M  V30 983 H 92.2281 1.677 -0.744905 0
M  V30 984 H 90.6101 3.90752 0.642586 0
M  V30 985 H 91.7841 4.04167 -2.21328 0
M  V30 986 H 90.0991 3.72558 -1.85982 0
M  V30 987 H 92.6961 5.33116 0.411258 0
M  V30 988 H 93.0391 3.9247 1.38827 0
M  V30 989 H 93.5721 3.9659 -0.31001 0
M  V30 990 H 90.3111 6.0898 -2.42536 0
M  V30 991 H 89.8311 5.95486 -0.718095 0
M  V30 992 H 91.5101 6.36776 -1.14565 0
M  V30 993 N 91.6422 0.330177 1.54103 0
M  V30 994 C 92.8882 -0.270806 2.00984 0
M  V30 995 C 93.2212 -1.51265 1.21789 0
M  V30 996 O 92.4962 -1.92142 0.301927 0
M  V30 997 C 92.7792 -0.598339 3.55094 0
M  V30 998 C 92.6322 0.654674 4.4501 0
M  V30 999 C 93.9512 -1.41334 4.16789 0
M  V30 1000 H 91.0702 -0.0969531 0.730595 0
M  V30 1001 H 93.7122 0.448066 1.84641 0
M  V30 1002 H 91.8622 -1.21078 3.69151 0
M  V30 1003 H 93.5342 1.29285 4.42813 0
M  V30 1004 H 91.7772 1.28224 4.14416 0
M  V30 1005 H 92.4482 0.380944 5.50684 0
M  V30 1006 H 94.9242 -0.895597 4.06347 0
M  V30 1007 H 93.8002 -1.61127 5.24718 0
M  V30 1008 H 94.0612 -2.41146 3.70541 0
M  V30 1009 N 93.1203 -1.57491 0.0584922 0
M  V30 1010 C 94.0303 -2.15448 -0.928414 0
M  V30 1011 C 95.0463 -1.11416 -1.3365 0
M  V30 1012 O 96.2223 -1.4362 -1.41193 0
M  V30 1013 C 93.2873 -2.69393 -2.18239 0
M  V30 1014 C 92.3483 -3.88249 -1.83196 0
M  V30 1015 C 91.5813 -4.39613 -3.02616 0
M  V30 1016 O 91.8043 -3.90023 -4.16219 0
M  V30 1017 O 90.7383 -5.31111 -2.83204 0
M  V30 1018 H 94.5643 -3.00112 -0.465483 0
M  V30 1019 H 92.1493 -1.48499 -0.163826 0
M  V30 1020 H 94.0313 -3.04026 -2.91798 0
M  V30 1021 H 92.7063 -1.87796 -2.63656 0
M  V30 1022 H 91.6133 -3.58492 -1.06931 0
M  V30 1023 H 92.9463 -4.71098 -1.42573 0
M  V30 1024 N 94.5984 0.214957 -1.56127 0
M  V30 1025 C 95.5084 1.28727 -1.96129 0
M  V30 1026 C 96.5244 1.50916 -0.866044 0
M  V30 1027 O 97.7004 1.63918 -1.17016 0
M  V30 1028 C 94.7654 2.61569 -2.27558 0
M  V30 1029 C 93.8264 2.47625 -3.50685 0
M  V30 1030 C 93.0594 3.74132 -3.80606 0
M  V30 1031 O 93.2824 4.77438 -3.12104 0
M  V30 1032 O 92.2164 3.70849 -4.74083 0
M  V30 1033 H 96.0424 0.977855 -2.87527 0
M  V30 1034 H 93.6274 0.418358 -1.43423 0
M  V30 1035 H 95.5094 3.40012 -2.48938 0
M  V30 1036 H 94.1844 2.92178 -1.39332 0
M  V30 1037 H 93.0914 1.67361 -3.34576 0
M  V30 1038 H 94.4244 2.21954 -4.39315 0
M  V30 1039 N 96.0765 1.50051 0.48192 0
M  V30 1040 C 97.4875 1.5348 1.06305 0
M  V30 1041 C 97.8385 0.331997 1.93371 0
M  V30 1042 O 96.9635 -0.556256 2.09129 0
M  V30 1043 C 97.5585 2.7813 1.93466 0
M  V30 1044 C 96.1175 2.84275 2.46707 0
M  V30 1045 C 95.2645 2.47637 1.24785 0
M  V30 1046 H 98.2155 1.56472 0.264995 0
M  V30 1047 H 98.2365 2.59372 2.78399 0
M  V30 1048 H 97.7485 3.65654 1.30072 0
M  V30 1049 H 95.8495 2.01077 3.13686 0
M  V30 1050 H 95.9625 3.8691 2.82555 0
M  V30 1051 H 94.3265 1.99835 1.57918 0
M  V30 1052 H 95.1095 3.37457 0.630694 0
M  V30 1053 N 97.5546 -0.734337 1.39446 0
M  V30 1054 C 98.5016 -1.84835 1.38219 0
M  V30 1055 C 99.4716 -1.64331 0.24179 0
M  V30 1056 O 100.657 -1.85728 0.437002 0
M  V30 1057 C 97.7966 -3.22355 1.23212 0
M  V30 1058 C 96.9096 -3.5456 2.46801 0
M  V30 1059 C 96.0446 -4.81485 2.24377 0
M  V30 1060 C 95.0836 -5.06536 3.43639 0
M  V30 1061 N 94.2206 -6.24665 3.20528 0
M  V30 1062 H 99.0606 -1.85219 2.33448 0
M  V30 1063 H 96.5976 -0.905039 1.15963 0
M  V30 1064 H 98.5556 -4.0174 1.12522 0
M  V30 1065 H 97.1856 -3.21248 0.316121 0
M  V30 1066 H 96.2376 -2.69872 2.68092 0
M  V30 1067 H 97.5496 -3.6899 3.3563 0
M  V30 1068 H 96.7036 -5.68852 2.10933 0
M  V30 1069 H 95.4426 -4.6923 1.32944 0
M  V30 1070 H 94.4476 -4.17632 3.5758 0
M  V30 1071 H 95.6726 -5.20676 4.35974 0
M  V30 1072 H 93.6186 -6.13696 2.3176 0
M  V30 1073 H 93.5356 -6.39685 4.02913 0
M  V30 1074 H 94.8036 -7.14868 3.10779 0
M  V30 1075 N 99.0327 -1.24633 -0.964593 0
M  V30 1076 C 99.9647 -0.999302 -2.06268 0
M  V30 1077 C 100.978 0.0323226 -1.62768 0
M  V30 1078 O 102.167 -0.205079 -1.77318 0
M  V30 1079 C 99.2667 -0.486816 -3.35385 0
M  V30 1080 C 98.4397 -1.5823 -4.07777 0
M  V30 1081 C 97.4987 -1.07191 -5.15166 0
M  V30 1082 O 96.5247 -1.76426 -5.41168 0
M  V30 1083 N 97.7267 0.0920373 -5.80427 0
M  V30 1084 H 100.492 -1.94477 -2.28033 0
M  V30 1085 H 98.0527 -1.15704 -1.13244 0
M  V30 1086 H 100.045 -0.130066 -4.04491 0
M  V30 1087 H 98.6147 0.364459 -3.10468 0
M  V30 1088 H 97.8347 -2.11109 -3.32906 0
M  V30 1089 H 99.1227 -2.31854 -4.52903 0
M  V30 1090 H 98.5207 0.670784 -5.61709 0
M  V30 1091 H 97.0777 0.389905 -6.50633 0
M  V30 1092 N 100.511 1.16574 -1.06058 0
M  V30 1093 C 101.443 2.2045 -0.627239 0
M  V30 1094 C 102.456 1.59752 0.313534 0
M  V30 1095 O 103.645 1.78192 0.104896 0
M  V30 1096 C 100.745 3.3875 0.100974 0
M  V30 1097 C 99.9178 4.29008 -0.852687 0
M  V30 1098 C 98.9768 5.25944 -0.164152 0
M  V30 1099 O 98.0028 5.63535 -0.801047 0
M  V30 1100 N 99.2048 5.70075 1.09518 0
M  V30 1101 H 101.97 2.58249 -1.52077 0
M  V30 1102 H 99.5308 1.3156 -0.943594 0
M  V30 1103 H 101.523 4.00638 0.57194 0
M  V30 1104 H 100.093 2.99476 0.89628 0
M  V30 1105 H 99.3128 3.64419 -1.50308 0
M  V30 1106 H 100.601 4.86195 -1.49972 0
M  V30 1107 H 99.9988 5.41624 1.6328 0
M  V30 1108 H 98.5558 6.34067 1.51006 0
M  V30 1109 N 101.989 0.842826 1.3317 0
M  V30 1110 C 102.937 0.267495 2.31057 0
M  V30 1111 C 103.931 -0.602682 1.58316 0
M  V30 1112 O 105.137 -0.491803 1.73151 0
M  V30 1113 H 101.512 0.0677813 0.748939 0
M  V30 1114 H 103.483 1.10754 2.77085 0
M  V30 1115 C 102.232 -0.539331 3.43492 0
M  V30 1116 H 101.555 0.12095 3.99617 0
M  V30 1117 H 102.995 -0.90767 4.14171 0
M  V30 1118 C 101.454 -1.71981 2.89697 0
M  V30 1119 O 101.984 -2.81862 2.86211 0
M  V30 1120 N 100.19 -1.54299 2.46252 0
M  V30 1121 H 99.7369 -0.649143 2.49287 0
M  V30 1122 H 99.6949 -2.33431 2.10612 0
M  V30 1123 N 103.467 -1.45747 0.599634 0
M  V30 1124 C 104.417 -2.27538 -0.145107 0
M  V30 1125 C 105.401 -1.3686 -0.846055 0
M  V30 1126 O 106.593 -1.6091 -0.737357 0
M  V30 1127 C 103.722 -3.23569 -1.14708 0
M  V30 1128 C 102.808 -4.21734 -0.447383 0
M  V30 1129 N 103.199 -5.03257 0.506535 0
M  V30 1130 C 101.497 -4.40536 -0.695966 0
M  V30 1131 C 102.198 -5.74426 0.917068 0
M  V30 1132 N 101.174 -5.42966 0.26253 0
M  V30 1133 H 104.976 -2.87965 0.587672 0
M  V30 1134 H 102.49 -1.56803 0.422697 0
M  V30 1135 H 104.487 -3.8089 -1.69495 0
M  V30 1136 H 103.147 -2.64702 -1.8805 0
M  V30 1137 H 104.158 -5.10319 0.882899 0
M  V30 1138 H 100.835 -3.92802 -1.41467 0
M  V30 1139 H 102.225 -6.4995 1.70338 0
M  V30 1140 N 104.945 -0.338344 -1.53925 0
M  V30 1141 C 106.175 0.260919 -2.04946 0
M  V30 1142 C 106.583 1.45174 -1.2133 0
M  V30 1143 O 105.926 1.82122 -0.240262 0
M  V30 1144 C 105.988 0.744596 -3.51704 0
M  V30 1145 C 105.652 -0.325883 -4.55837 0
M  V30 1146 C 106.649 -1.16687 -5.06636 0
M  V30 1147 C 104.334 -0.478317 -5.00017 0
M  V30 1148 C 106.328 -2.14588 -6.00192 0
M  V30 1149 C 104.015 -1.46073 -5.93385 0
M  V30 1150 C 105.013 -2.29297 -6.4336 0
M  V30 1151 O 104.701 -3.25867 -7.34892 0
M  V30 1152 H 104.433 0.0551207 -0.673749 0
M  V30 1153 H 106.987 -0.486984 -1.99544 0
M  V30 1154 H 105.217 1.54366 -3.54553 0
M  V30 1155 H 106.906 1.26383 -3.85723 0
M  V30 1156 H 107.672 -1.06016 -4.73271 0
M  V30 1157 H 103.551 0.159613 -4.60724 0
M  V30 1158 H 107.095 -2.79585 -6.39123 0
M  V30 1159 H 102.992 -1.56802 -6.26166 0
M  V30 1160 H 103.76 -3.21278 -7.5281 0
M  V30 1161 N 106.423 1.57458 -0.0668435 0
M  V30 1162 C 107.834 1.80776 0.466558 0
M  V30 1163 C 108.185 0.980361 1.69951 0
M  V30 1164 O 107.31 0.201441 2.1546 0
M  V30 1165 C 107.905 3.27881 0.85321 0
M  V30 1166 C 106.464 3.52062 1.3315 0
M  V30 1167 C 105.611 2.75513 0.314264 0
M  V30 1168 H 108.562 1.5598 -0.292588 0
M  V30 1169 H 108.583 3.39659 1.715 0
M  V30 1170 H 108.095 3.88075 -0.0443439 0
M  V30 1171 H 106.196 2.97167 2.24772 0
M  V30 1172 H 106.309 4.60762 1.31285 0
M  V30 1173 H 104.673 2.42123 0.790492 0
M  V30 1174 H 105.456 3.38442 -0.575477 0
M  V30 1175 N 107.901 -0.206675 1.56239 0
M  V30 1176 C 109.178 -0.954051 1.70755 0
M  V30 1177 C 109.558 -2.01841 0.618353 0
M  V30 1178 O 108.906 -2.25444 -0.372434 0
M  V30 1179 C 109.116 -1.551 3.12642 0
M  V30 1180 C 110.464 -2.03757 3.72516 0
M  V30 1181 O 111.488 -1.64965 3.15698 0
M  V30 1182 O 110.347 -2.75103 4.72208 0
M  V30 1183 H 107.441 -0.446636 0.696021 0
M  V30 1184 H 109.987 -0.197283 1.68549 0
M  V30 1185 H 108.759 -0.783212 3.83382 0
M  V30 1186 H 108.382 -2.37291 3.19028 0
M  V30 1187 N 109.379 -1.50304 -0.473955 0
M  V30 1188 C 110.626 -1.6115 -1.22625 0
M  V30 1189 C 110.954 -0.310517 -1.92005 0
M  V30 1190 O 110.209 0.703419 -1.82621 0
M  V30 1191 C 110.508 -2.73938 -2.29549 0
M  V30 1192 C 110.174 -4.14519 -1.7744 0
M  V30 1193 C 108.836 -4.5277 -1.62949 0
M  V30 1194 C 111.188 -5.02392 -1.3875 0
M  V30 1195 C 108.516 -5.76639 -1.08187 0
M  V30 1196 C 110.868 -6.26805 -0.854309 0
M  V30 1197 C 109.532 -6.63861 -0.696011 0
M  V30 1198 H 108.802 -0.589691 -0.448715 0
M  V30 1199 H 111.449 -1.84228 -0.522705 0
M  V30 1200 H 109.754 -2.44937 -3.05799 0
M  V30 1201 H 111.451 -2.79534 -2.87509 0
M  V30 1202 H 108.041 -3.8434 -1.89685 0
M  V30 1203 H 112.225 -4.73474 -1.4878 0
M  V30 1204 H 107.481 -6.04027 -0.946666 0
M  V30 1205 H 111.655 -6.94258 -0.545843 0
M  V30 1206 H 109.282 -7.59722 -0.26952 0
M  V30 1207 N 110.857 0.726932 -1.39834 0
M  V30 1208 C 112.085 1.51613 -1.40787 0
M  V30 1209 C 112.5 1.88799 -0.00451505 0
M  V30 1210 O 111.857 1.54662 0.968809 0
M  V30 1211 C 111.908 2.79863 -2.28821 0
M  V30 1212 O 111.629 2.44253 -3.63692 0
M  V30 1213 C 113.13 3.73837 -2.38245 0
M  V30 1214 H 110.35 0.468264 -0.480593 0
M  V30 1215 H 112.894 0.897607 -1.83748 0
M  V30 1216 H 111.049 3.38027 -1.89252 0
M  V30 1217 H 111.463 3.26695 -4.1033 0
M  V30 1218 H 112.937 4.60699 -3.04073 0
M  V30 1219 H 113.414 4.16153 -1.40403 0
M  V30 1220 H 114.02 3.21589 -2.78317 0
M  V30 1221 N 112.336 1.25143 0.95797 0
M  V30 1222 C 113.266 1.07711 2.07173 0
M  V30 1223 C 114.247 -0.0128462 1.70095 0
M  V30 1224 O 115.432 0.156061 1.93572 0
M  V30 1225 C 112.562 0.691503 3.40346 0
M  V30 1226 C 111.516 1.73132 3.9142 0
M  V30 1227 C 110.842 1.20049 5.21049 0
M  V30 1228 C 112.142 3.1294 4.1817 0
M  V30 1229 H 113.836 2.00873 2.22014 0
M  V30 1230 H 111.382 0.967191 1.06684 0
M  V30 1231 H 113.335 0.556505 4.17709 0
M  V30 1232 H 112.059 -0.275819 3.25433 0
M  V30 1233 H 110.718 1.8547 3.16222 0
M  V30 1234 H 110.366 0.223499 5.02503 0
M  V30 1235 H 110.066 1.89545 5.56189 0
M  V30 1236 H 111.59 1.07782 6.01012 0
M  V30 1237 H 113.004 3.03775 4.86203 0
M  V30 1238 H 111.401 3.79875 4.64559 0
M  V30 1239 H 112.471 3.6025 3.24573 0
M  V30 1240 N 113.814 -1.1601 1.06675 0
M  V30 1241 C 115.044 -1.90251 0.805497 0
M  V30 1242 C 115.452 -1.77891 -0.64431 0
M  V30 1243 O 114.795 -1.12383 -1.45313 0
M  V30 1244 C 114.857 -3.41419 1.12576 0
M  V30 1245 C 114.521 -3.77564 2.57477 0
M  V30 1246 C 115.518 -3.79161 3.55715 0
M  V30 1247 C 113.203 -4.08079 2.92877 0
M  V30 1248 C 115.197 -4.10767 4.8739 0
M  V30 1249 C 112.884 -4.39351 4.24751 0
M  V30 1250 C 113.882 -4.40675 5.21818 0
M  V30 1251 O 113.57 -4.71202 6.51325 0
M  V30 1252 H 113.302 -0.610018 0.291297 0
M  V30 1253 H 115.856 -1.47958 1.4247 0
M  V30 1254 H 114.086 -3.84079 0.449503 0
M  V30 1255 H 115.775 -3.9694 0.84814 0
M  V30 1256 H 116.541 -3.55693 3.29708 0
M  V30 1257 H 112.42 -4.06211 2.17976 0
M  V30 1258 H 115.964 -4.11715 5.63148 0
M  V30 1259 H 111.861 -4.62285 4.50514 0
M  V30 1260 H 112.629 -4.88996 6.56373 0
M  V30 1261 N 115.292 -0.849877 -1.32721 0
M  V30 1262 C 116.239 -0.289033 -2.28983 0
M  V30 1263 C 117.209 0.601324 -1.54833 0
M  V30 1264 O 118.394 0.537253 -1.8308 0
M  V30 1265 C 115.534 0.520623 -3.4115 0
M  V30 1266 C 114.647 -0.394989 -4.3019 0
M  V30 1267 C 113.782 0.426834 -5.29482 0
M  V30 1268 C 112.821 -0.486476 -6.10164 0
M  V30 1269 N 111.958 0.297879 -7.01468 0
M  V30 1270 H 116.798 -1.11519 -2.76347 0
M  V30 1271 H 114.335 -0.56138 -1.35967 0
M  V30 1272 H 116.293 1.00563 -4.04899 0
M  V30 1273 H 114.923 1.31165 -2.9495 0
M  V30 1274 H 113.975 -0.99836 -3.67065 0
M  V30 1275 H 115.287 -1.09612 -4.86607 0
M  V30 1276 H 114.441 0.975205 -5.98811 0
M  V30 1277 H 113.18 1.16136 -4.73671 0
M  V30 1278 H 112.185 -1.04677 -5.39743 0
M  V30 1279 H 113.41 -1.21953 -6.6806 0
M  V30 1280 H 111.356 1.01558 -6.48091 0
M  V30 1281 H 111.273 -0.344318 -7.55216 0
M  V30 1282 H 112.541 0.828131 -7.75089 0
M  V30 1283 N 116.77 1.45427 -0.607355 0
M  V30 1284 C 118.181 1.85756 -0.187535 0
M  V30 1285 C 118.532 1.5077 1.25551 0
M  V30 1286 O 117.657 0.93427 1.95193 0
M  V30 1287 C 118.252 3.37154 -0.333572 0
M  V30 1288 C 116.811 3.76387 0.0315542 0
M  V30 1289 C 115.958 2.69377 -0.658117 0
M  V30 1290 H 118.909 1.36231 -0.81405 0
M  V30 1291 H 118.93 3.78014 0.43428 0
M  V30 1292 H 118.442 3.62586 -1.38393 0
M  V30 1293 H 116.543 3.56571 1.0811 0
M  V30 1294 H 116.656 4.77731 -0.361935 0
M  V30 1295 H 115.02 2.5452 -0.0957873 0
M  V30 1296 H 115.803 2.97646 -1.7106 0
M  V30 1297 N 118.248 0.346503 1.53744 0
M  V30 1298 C 119.473 -0.253074 2.0585 0
M  V30 1299 C 119.898 -1.43202 1.21962 0
M  V30 1300 O 119.256 -1.79783 0.234073 0
M  V30 1301 C 119.304 -0.643193 3.54817 0
M  V30 1302 O 118.408 -1.74286 3.73762 0
M  V30 1303 H 117.749 -0.0413583 0.662711 0
M  V30 1304 H 120.279 0.501574 1.98357 0
M  V30 1305 H 120.289 -0.919526 3.97503 0
M  V30 1306 H 118.964 0.218966 4.15323 0
M  V30 1307 H 117.541 -1.46356 3.42979 0
M  V30 1308 N 119.726 -1.57421 0.075193 0
M  V30 1309 C 120.636 -2.1642 -0.905511 0
M  V30 1310 C 121.652 -1.12828 -1.32461 0
M  V30 1311 O 122.828 -1.45109 -1.39661 0
M  V30 1312 C 119.893 -2.71693 -2.15369 0
M  V30 1313 C 118.954 -3.90171 -1.79068 0
M  V30 1314 C 118.187 -4.42798 -2.97936 0
M  V30 1315 O 118.41 -3.94416 -4.12058 0
M  V30 1316 O 117.344 -5.34085 -2.77555 0
M  V30 1317 H 121.17 -3.00588 -0.433626 0
M  V30 1318 H 118.755 -1.48664 -0.148067 0
M  V30 1319 H 120.637 -3.07104 -2.88557 0
M  V30 1320 H 119.312 -1.90582 -2.61649 0
M  V30 1321 H 118.219 -3.59606 -1.03122 0
M  V30 1322 H 119.552 -4.72584 -1.37569 0
M  V30 1323 N 121.204 0.198386 -1.56346 0
M  V30 1324 C 122.615 0.763358 -1.70381 0
M  V30 1325 C 122.966 1.83995 -0.681203 0
M  V30 1326 O 122.091 2.15785 0.16305 0
M  V30 1327 C 122.686 1.39143 -3.08909 0
M  V30 1328 C 121.245 1.90352 -3.2472 0
M  V30 1329 C 120.392 0.772233 -2.6633 0
M  V30 1330 H 123.343 -0.0266377 -1.58678 0
M  V30 1331 H 123.364 2.26076 -3.06055 0
M  V30 1332 H 122.876 0.607638 -3.83314 0
M  V30 1333 H 120.977 2.71461 -2.55225 0
M  V30 1334 H 121.09 2.06757 -4.3219 0
M  V30 1335 H 119.454 1.18566 -2.2542 0
M  V30 1336 H 120.237 0.00073556 -3.433 0
M  V30 1337 N 122.682 1.50554 0.465978 0
M  V30 1338 C 123.63 1.70324 1.58406 0
M  V30 1339 C 124.624 0.569139 1.59553 0
M  V30 1340 O 125.83 0.749776 1.63641 0
M  V30 1341 H 122.205 0.537688 0.525734 0
M  V30 1342 H 124.176 2.64104 1.38894 0
M  V30 1343 C 122.925 1.81928 2.96307 0
M  V30 1344 H 122.248 2.68586 2.96144 0
M  V30 1345 H 123.688 1.99784 3.73982 0
M  V30 1346 C 122.147 0.572095 3.32007 0
M  V30 1347 O 122.677 -0.286416 4.00678 0
M  V30 1348 N 120.883 0.424606 2.87481 0
M  V30 1349 H 120.43 1.12427 2.31771 0
M  V30 1350 H 120.388 -0.408697 3.11732 0
M  V30 1351 N 124.16 -0.719506 1.40217 0
M  V30 1352 C 125.107 -1.83359 1.40172 0
M  V30 1353 C 126.077 -1.64065 0.259206 0
M  V30 1354 O 127.262 -1.85254 0.456677 0
M  V30 1355 C 124.402 -3.2103 1.26624 0
M  V30 1356 C 123.515 -3.51923 2.50548 0
M  V30 1357 C 122.65 -4.79079 2.29471 0
M  V30 1358 C 121.689 -5.02863 3.48992 0
M  V30 1359 N 120.826 -6.2123 3.27135 0
M  V30 1360 H 125.666 -1.82733 2.35399 0
M  V30 1361 H 123.203 -0.892688 1.16917 0
M  V30 1362 H 125.161 -4.00524 1.16776 0
M  V30 1363 H 123.791 -3.20895 0.350176 0
M  V30 1364 H 122.843 -2.67014 2.70939 0
M  V30 1365 H 124.155 -3.6541 3.39525 0
M  V30 1366 H 123.309 -5.66582 2.16955 0
M  V30 1367 H 122.048 -4.67794 1.37913 0
M  V30 1368 H 121.053 -4.13816 3.6199 0
M  V30 1369 H 122.278 -5.16023 4.41472 0
M  V30 1370 H 120.224 -6.11204 2.38256 0
M  V30 1371 H 120.141 -6.35375 4.09675 0
M  V30 1372 H 121.409 -7.11532 3.18344 0
M  V30 1373 N 125.638 -1.25649 -0.95132 0
M  V30 1374 C 126.585 -1.06323 -2.04851 0
M  V30 1375 C 127.555 0.0286491 -1.66075 0
M  V30 1376 O 128.74 -0.12917 -1.90362 0
M  V30 1377 C 125.88 -0.691529 -3.381 0
M  V30 1378 C 124.993 -1.85861 -3.89974 0
M  V30 1379 C 124.128 -1.43096 -5.11563 0
M  V30 1380 C 123.167 -2.56696 -5.55674 0
M  V30 1381 N 122.304 -2.14684 -6.68472 0
M  V30 1382 H 127.144 -2.00222 -2.20715 0
M  V30 1383 H 124.681 -0.997027 -1.08156 0
M  V30 1384 H 126.639 -0.456963 -4.1469 0
M  V30 1385 H 125.269 0.210474 -3.22113 0
M  V30 1386 H 124.321 -2.20639 -3.09875 0
M  V30 1387 H 125.633 -2.71161 -4.18657 0
M  V30 1388 H 124.787 -1.15624 -5.9558 0
M  V30 1389 H 123.526 -0.548722 -4.84603 0
M  V30 1390 H 122.531 -2.84909 -4.7022 0
M  V30 1391 H 123.756 -3.45503 -5.8464 0
M  V30 1392 H 121.702 -1.28881 -6.43215 0
M  V30 1393 H 121.619 -2.9353 -6.96689 0
M  V30 1394 H 122.887 -1.90397 -7.5589 0
M  V30 1395 N 127.117 1.15442 -1.07289 0
M  V30 1396 C 128.366 1.85557 -0.790669 0
M  V30 1397 C 128.679 1.83186 0.685739 0
M  V30 1398 O 129.885 2.48977 1.0827 0
M  V30 1399 C 128.341 3.33038 -1.36433 0
M  V30 1400 C 127.949 3.43856 -2.8717 0
M  V30 1401 C 129.693 4.0834 -1.1601 0
M  V30 1402 C 127.6 4.85482 -3.3773 0
M  V30 1403 H 126.53 0.695122 -0.292098 0
M  V30 1404 H 129.181 1.30219 -1.29287 0
M  V30 1405 H 127.563 3.88043 -0.789864 0
M  V30 1406 H 128.737 2.98961 -3.50655 0
M  V30 1407 H 127.052 2.81998 -3.06376 0
M  V30 1408 H 129.649 5.12859 -1.51262 0
M  V30 1409 H 129.992 4.16182 -0.0991007 0
M  V30 1410 H 130.525 3.59603 -1.70089 0
M  V30 1411 H 127.264 4.82823 -4.43353 0
M  V30 1412 H 126.784 5.30961 -2.78999 0
M  V30 1413 H 128.463 5.54335 -3.33648 0
M  V30 1414 N 128.595 0.856903 1.32268 0
M  V30 1415 C 129.558 0.308171 2.27119 0
M  V30 1416 C 130.558 -0.533421 1.51695 0
M  V30 1417 O 131.748 -0.344607 1.70757 0
M  V30 1418 C 128.88 -0.563757 3.36206 0
M  V30 1419 H 130.073 1.14535 2.77167 0
M  V30 1420 H 127.626 0.631421 1.42978 0
M  V30 1421 H 128.361 -1.42266 2.91429 0
M  V30 1422 H 128.146 0.0386749 3.92081 0
M  V30 1423 H 129.636 -0.940386 4.06874 0
M  V30 1424 N 130.073 -1.45103 0.615059 0
M  V30 1425 C 131.322 -2.01396 0.110718 0
M  V30 1426 C 131.635 -1.48834 -1.26916 0
M  V30 1427 O 132.841 -1.97152 -1.86664 0
M  V30 1428 C 131.297 -3.59599 0.14723 0
M  V30 1429 C 130.905 -4.21158 1.52743 0
M  V30 1430 C 132.649 -4.23428 -0.30148 0
M  V30 1431 C 130.556 -5.71535 1.51992 0
M  V30 1432 H 129.486 -0.753061 0.0376241 0
M  V30 1433 H 132.137 -1.66494 0.77149 0
M  V30 1434 H 130.519 -3.91724 -0.580339 0
M  V30 1435 H 131.693 -4.00594 2.2773 0
M  V30 1436 H 130.008 -3.69552 1.91886 0
M  V30 1437 H 132.605 -5.33703 -0.326392 0
M  V30 1438 H 132.948 -3.94629 -1.32565 0
M  V30 1439 H 133.481 -3.96047 0.373065 0
M  V30 1440 H 130.22 -6.05044 2.52193 0
M  V30 1441 H 129.74 -5.94268 0.81274 0
M  V30 1442 H 131.419 -6.34873 1.24681 0
M  V30 1443 N 131.551 -0.354651 -1.53558 0
M  V30 1444 C 132.828 0.294281 -1.93374 0
M  V30 1445 C 133.208 1.67313 -1.28723 0
M  V30 1446 O 132.556 2.24179 -0.442247 0
M  V30 1447 C 132.766 0.355445 -3.47185 0
M  V30 1448 C 134.114 0.601007 -4.20325 0
M  V30 1449 O 135.138 0.437106 -3.53508 0
M  V30 1450 O 133.997 0.919322 -5.38712 0
M  V30 1451 H 131.091 0.174033 -0.808481 0
M  V30 1452 H 133.637 -0.406638 -1.64756 0
M  V30 1453 H 132.409 -0.611729 -3.86489 0
M  V30 1454 H 132.032 1.1027 -3.82003 0
M  V30 1455 N 133.029 1.57378 -0.0835403 0
M  V30 1456 C 134.278 1.93106 0.582498 0
M  V30 1457 C 134.591 0.96651 1.70053 0
M  V30 1458 O 135.797 1.21705 2.42693 0
M  V30 1459 C 134.253 3.43076 1.08751 0
M  V30 1460 C 133.861 4.48 -0.000146404 0
M  V30 1461 C 135.605 3.87785 1.72694 0
M  V30 1462 C 133.512 5.89113 0.519568 0
M  V30 1463 H 132.442 0.720775 0.221358 0
M  V30 1464 H 135.093 1.82821 -0.157675 0
M  V30 1465 H 133.475 3.48474 1.88101 0
M  V30 1466 H 134.649 4.54233 -0.775199 0
M  V30 1467 H 132.964 4.1283 -0.54406 0
M  V30 1468 H 135.561 4.90604 2.1263 0
M  V30 1469 H 135.904 3.25796 2.59158 0
M  V30 1470 H 136.437 3.8504 0.999457 0
M  V30 1471 H 133.176 6.54775 -0.308186 0
M  V30 1472 H 132.696 5.86376 1.26188 0
M  V30 1473 H 134.375 6.39346 0.992237 0
M  V30 1474 N 134.507 -0.190092 1.56449 0
M  V30 1475 C 135.454 -1.23557 1.94942 0
M  V30 1476 C 136.424 -1.44972 0.810696 0
M  V30 1477 O 137.609 -1.58023 1.06927 0
M  V30 1478 C 134.749 -2.57416 2.2985 0
M  V30 1479 C 133.862 -2.43537 3.5681 0
M  V30 1480 C 132.997 -3.70134 3.81017 0
M  V30 1481 C 132.036 -3.51109 5.01387 0
M  V30 1482 N 131.173 -4.6973 5.21822 0
M  V30 1483 H 136.013 -0.900304 2.84075 0
M  V30 1484 H 133.55 -0.43318 1.40577 0
M  V30 1485 H 135.508 -3.35409 2.48106 0
M  V30 1486 H 134.138 -2.88975 1.43852 0
M  V30 1487 H 133.19 -1.56816 3.46573 0
M  V30 1488 H 134.502 -2.25415 4.4496 0
M  V30 1489 H 133.656 -4.56566 3.9954 0
M  V30 1490 H 132.395 -3.91215 2.91207 0
M  V30 1491 H 131.4 -2.63063 4.82782 0
M  V30 1492 H 132.625 -3.31468 5.9271 0
M  V30 1493 H 130.571 -4.91065 4.34961 0
M  V30 1494 H 130.488 -4.54452 6.0416 0
M  V30 1495 H 131.756 -5.57499 5.44808 0
M  V30 1496 N 135.985 -1.50799 -0.457987 0
M  V30 1497 C 137.213 -1.66218 -1.23203 0
M  V30 1498 C 137.628 -0.350894 -1.85511 0
M  V30 1499 O 136.985 0.668546 -1.69814 0
M  V30 1500 C 137.036 -2.76291 -2.33121 0
M  V30 1501 O 136.757 -4.02338 -1.73366 0
M  V30 1502 C 138.258 -3.028 -3.2377 0
M  V30 1503 H 135.478 -0.558361 -0.372121 0
M  V30 1504 H 138.022 -1.97099 -0.545179 0
M  V30 1505 H 136.177 -2.48068 -2.97558 0
M  V30 1506 H 136.591 -4.63312 -2.4585 0
M  V30 1507 H 138.065 -3.8345 -3.97077 0
M  V30 1508 H 138.542 -2.14385 -3.83322 0
M  V30 1509 H 139.148 -3.32604 -2.65056 0
M  V30 1510 N 137.463 0.71206 -1.40597 0
M  V30 1511 C 138.691 1.50111 -1.42388 0
M  V30 1512 C 139.106 1.88784 -0.0245395 0
M  V30 1513 O 138.463 1.55681 0.952351 0
M  V30 1514 C 138.514 2.7742 -2.31776 0
M  V30 1515 O 138.235 2.40382 -3.66262 0
M  V30 1516 C 139.736 3.7129 -2.42196 0
M  V30 1517 H 136.956 0.46314 -0.485533 0
M  V30 1518 H 139.5 0.878068 -1.8469 0
M  V30 1519 H 137.655 3.36001 -1.92827 0
M  V30 1520 H 138.069 3.22324 -4.13772 0
M  V30 1521 H 139.543 4.57448 -3.08943 0
M  V30 1522 H 140.02 4.14641 -1.44809 0
M  V30 1523 H 140.626 3.18619 -2.81712 0
M  V30 1524 N 138.941 1.26152 0.944643 0
M  V30 1525 C 140.171 1.14094 1.72239 0
M  V30 1526 C 140.579 -0.306931 1.86694 0
M  V30 1527 O 139.922 -1.22222 1.3714 0
M  V30 1528 C 139.984 1.73316 3.14963 0
M  V30 1529 C 139.648 3.2239 3.23904 0
M  V30 1530 C 140.645 4.19252 3.07447 0
M  V30 1531 C 138.33 3.62788 3.47405 0
M  V30 1532 C 140.324 5.54491 3.14353 0
M  V30 1533 C 138.011 4.98162 3.53947 0
M  V30 1534 C 139.009 5.93823 3.37436 0
M  V30 1535 O 138.697 7.26732 3.43679 0
M  V30 1536 H 138.429 0.398292 0.546205 0
M  V30 1537 H 140.983 1.67201 1.19301 0
M  V30 1538 H 139.213 1.14667 3.69308 0
M  V30 1539 H 140.902 1.56214 3.74636 0
M  V30 1540 H 141.668 3.8938 2.8915 0
M  V30 1541 H 137.547 2.88816 3.59313 0
M  V30 1542 H 141.091 6.29137 3.01384 0
M  V30 1543 H 136.988 5.27695 3.71763 0
M  V30 1544 H 137.756 7.3496 3.60245 0
M  V30 1545 N 140.419 -1.14872 1.07899 0
M  V30 1546 C 141.647 -1.89661 0.82683 0
M  V30 1547 C 142.062 -1.78312 -0.620519 0
M  V30 1548 O 141.419 -1.13888 -1.42604 0
M  V30 1549 C 141.47 -3.39817 1.23316 0
M  V30 1550 O 141.191 -3.50845 2.62372 0
M  V30 1551 C 142.692 -4.31615 1.0111 0
M  V30 1552 H 139.912 -0.60092 0.298557 0
M  V30 1553 H 142.456 -1.4551 1.43691 0
M  V30 1554 H 140.611 -3.8161 0.667286 0
M  V30 1555 H 141.025 -4.44076 2.79101 0
M  V30 1556 H 142.499 -5.35367 1.34486 0
M  V30 1557 H 142.976 -4.39169 -0.0522168 0
M  V30 1558 H 143.582 -3.95572 1.56215 0
M  V30 1559 N 141.898 -0.863906 -1.31812 0
M  V30 1560 C 142.846 -0.30422 -2.30602 0
M  V30 1561 C 143.84 0.577419 -1.59255 0
M  V30 1562 O 145.046 0.464194 -1.73912 0
M  V30 1563 H 141.421 -0.0796877 -0.747766 0
M  V30 1564 H 143.392 -1.15148 -2.75288 0
M  V30 1565 C 142.141 0.484617 -3.44306 0
M  V30 1566 H 141.464 -0.18451 -3.99374 0
M  V30 1567 H 142.904 0.841664 -4.15562 0
M  V30 1568 C 141.363 1.6735 -2.92396 0
M  V30 1569 O 141.893 2.77273 -2.90659 0
M  V30 1570 N 140.099 1.50362 -2.48676 0
M  V30 1571 H 139.646 0.609402 -2.50288 0
M  V30 1572 H 139.604 2.30051 -2.14299 0
M  V30 1573 N 143.376 1.44774 -0.622745 0
M  V30 1574 C 144.323 2.30635 0.0871679 0
M  V30 1575 C 145.293 1.42994 0.845097 0
M  V30 1576 O 146.478 1.71907 0.827812 0
M  V30 1577 C 143.618 3.28144 1.06844 0
M  V30 1578 C 142.731 4.30888 0.309809 0
M  V30 1579 C 141.866 5.15494 1.28215 0
M  V30 1580 C 140.905 6.09953 0.512198 0
M  V30 1581 N 140.042 6.87287 1.43458 0
M  V30 1582 H 144.882 2.90803 -0.650974 0
M  V30 1583 H 142.419 1.43286 -0.33281 0
M  V30 1584 H 144.377 3.83157 1.65066 0
M  V30 1585 H 143.007 2.69695 1.77382 0
M  V30 1586 H 142.059 3.78414 -0.388181 0
M  V30 1587 H 143.371 4.97955 -0.290254 0
M  V30 1588 H 142.525 5.74983 1.93596 0
M  V30 1589 H 141.264 4.48481 1.91614 0
M  V30 1590 H 140.269 5.49581 -0.155151 0
M  V30 1591 H 141.494 6.78999 -0.116958 0
M  V30 1592 H 139.44 6.2295 2.05594 0
M  V30 1593 H 139.357 7.50763 0.888335 0
M  V30 1594 H 140.625 7.51306 2.07749 0
M  V30 1595 N 144.854 0.36279 1.53368 0
M  V30 1596 C 145.764 -0.492994 2.29362 0
M  V30 1597 C 146.78 -1.09507 1.35219 0
M  V30 1598 O 147.956 -1.10662 1.68273 0
M  V30 1599 C 145.021 -1.61855 3.066 0
M  V30 1600 C 144.082 -1.04429 4.16405 0
M  V30 1601 C 143.315 -2.11621 4.89951 0
M  V30 1602 O 143.538 -3.32684 4.63333 0
M  V30 1603 O 142.472 -1.74835 5.75948 0
M  V30 1604 H 146.298 0.125331 3.03441 0
M  V30 1605 H 143.883 0.127253 1.48857 0
M  V30 1606 H 145.765 -2.27302 3.54841 0
M  V30 1607 H 144.44 -2.22233 2.3536 0
M  V30 1608 H 143.347 -0.353819 3.72423 0
M  V30 1609 H 144.68 -0.485113 4.89804 0
M  V30 1610 N 146.332 -1.57332 0.0918853 0
M  V30 1611 C 147.28 -2.15075 -0.885747 0
M  V30 1612 C 148.274 -1.09277 -1.29441 0
M  V30 1613 O 149.48 -1.27627 -1.26931 0
M  V30 1614 H 145.855 -0.687966 -0.303656 0
M  V30 1615 H 147.826 -2.96047 -0.373995 0
M  V30 1616 C 146.575 -2.74325 -2.13638 0
M  V30 1617 H 145.898 -3.55418 -1.8308 0
M  V30 1618 H 147.338 -3.183 -2.80109 0
M  V30 1619 C 145.797 -1.70062 -2.90827 0
M  V30 1620 O 146.327 -1.13763 -3.85254 0
M  V30 1621 N 144.533 -1.40628 -2.54307 0
M  V30 1622 H 144.08 -1.866 -1.7759 0
M  V30 1623 H 144.038 -0.711043 -3.06254 0
M  V30 1624 N 147.81 0.181792 -1.56548 0
M  V30 1625 C 148.72 1.24538 -1.98815 0
M  V30 1626 C 149.736 1.49045 -0.897861 0
M  V30 1627 O 150.912 1.61399 -1.20467 0
M  V30 1628 C 147.977 2.56683 -2.33055 0
M  V30 1629 C 147.038 2.40131 -3.55859 0
M  V30 1630 C 146.271 3.65975 -3.88456 0
M  V30 1631 O 146.494 4.70711 -3.22161 0
M  V30 1632 O 145.428 3.6071 -4.81842 0
M  V30 1633 H 149.254 0.916647 -2.89536 0
M  V30 1634 H 146.839 0.387842 -1.44278 0
M  V30 1635 H 148.721 3.34655 -2.56094 0
M  V30 1636 H 147.396 2.89157 -1.45498 0
M  V30 1637 H 146.303 1.60226 -3.38051 0
M  V30 1638 H 147.636 2.12585 -4.43924 0
M  V30 1639 N 149.288 1.51039 0.449983 0
M  V30 1640 C 150.235 1.71439 1.54523 0
M  V30 1641 C 151.205 0.555871 1.56522 0
M  V30 1642 O 152.39 0.788871 1.73728 0
M  V30 1643 C 149.53 1.83384 2.92343 0
M  V30 1644 C 148.643 3.10873 2.9997 0
M  V30 1645 C 147.778 3.13488 4.28834 0
M  V30 1646 C 146.817 4.35343 4.30282 0
M  V30 1647 N 145.954 4.35579 5.5065 0
M  V30 1648 H 150.794 2.64934 1.36433 0
M  V30 1649 H 148.331 1.31312 0.662982 0
M  V30 1650 H 150.289 1.88291 3.72293 0
M  V30 1651 H 148.919 0.933086 3.0902 0
M  V30 1652 H 147.971 3.15336 2.12761 0
M  V30 1653 H 149.283 4.00814 2.96901 0
M  V30 1654 H 148.437 3.17241 5.17149 0
M  V30 1655 H 147.176 2.21414 4.34543 0
M  V30 1656 H 146.181 4.3178 3.40362 0
M  V30 1657 H 147.406 5.28668 4.26248 0
M  V30 1658 H 145.352 3.46369 5.57104 0
M  V30 1659 H 145.269 5.19313 5.49409 0
M  V30 1660 H 146.537 4.43507 6.41032 0
M  V30 1661 N 150.766 -0.704594 1.40972 0
M  V30 1662 C 152.015 -1.46018 1.39146 0
M  V30 1663 C 152.328 -1.956 0.000589254 0
M  V30 1664 O 153.534 -2.71137 -0.1403 0
M  V30 1665 C 151.99 -2.63996 2.4461 0
M  V30 1666 C 151.598 -2.21238 3.89561 0
M  V30 1667 C 153.342 -3.41677 2.51907 0
M  V30 1668 C 151.249 -3.3612 4.86598 0
M  V30 1669 H 150.179 -0.548444 0.517422 0
M  V30 1670 H 152.83 -0.765784 1.66757 0
M  V30 1671 H 151.212 -3.3566 2.10115 0
M  V30 1672 H 152.386 -1.56923 4.33257 0
M  V30 1673 H 150.701 -1.56574 3.85841 0
M  V30 1674 H 153.298 -4.27182 3.2159 0
M  V30 1675 H 153.641 -3.86247 1.55303 0
M  V30 1676 H 154.174 -2.77064 2.85448 0
M  V30 1677 H 150.913 -2.96572 5.84573 0
M  V30 1678 H 150.433 -3.99315 4.47557 0
M  V30 1679 H 152.112 -4.02029 5.06934 0
M  V30 1680 N 152.244 -1.26651 -0.937939 0
M  V30 1681 C 153.191 -1.0849 -2.03712 0
M  V30 1682 C 154.161 0.011033 -1.66096 0
M  V30 1683 O 155.346 -0.149353 -1.90215 0
M  V30 1684 C 152.486 -0.72735 -3.37348 0
M  V30 1685 C 151.599 -1.89986 -3.87981 0
M  V30 1686 C 150.734 -1.48513 -5.10017 0
M  V30 1687 C 149.773 -2.62575 -5.5292 0
M  V30 1688 N 148.91 -2.21762 -6.66158 0
M  V30 1689 H 153.75 -2.02551 -2.18579 0
M  V30 1690 H 151.287 -1.00844 -1.07093 0
M  V30 1691 H 153.245 -0.50092 -4.14182 0
M  V30 1692 H 151.875 0.176298 -3.22318 0
M  V30 1693 H 150.927 -2.23913 -3.07518 0
M  V30 1694 H 152.239 -2.75586 -4.15757 0
M  V30 1695 H 151.393 -1.21934 -5.94321 0
M  V30 1696 H 150.132 -0.60009 -4.83994 0
M  V30 1697 H 149.137 -2.8988 -4.67172 0
M  V30 1698 H 150.362 -3.51685 -5.80943 0
M  V30 1699 H 148.308 -1.35696 -6.41812 0
M  V30 1700 H 148.225 -3.00903 -6.93537 0
M  V30 1701 H 149.493 -1.98403 -7.53828 0
M  V30 1702 N 153.722 1.14298 -1.08507 0
M  V30 1703 C 154.969 1.85359 -0.815373 0
M  V30 1704 C 155.297 1.83001 0.658865 0
M  V30 1705 O 154.552 1.25655 1.50031 0
M  V30 1706 C 154.851 3.33547 -1.28379 0
M  V30 1707 C 154.517 3.56093 -2.76602 0
M  V30 1708 C 153.179 3.61955 -3.17084 0
M  V30 1709 C 155.531 3.64834 -3.72217 0
M  V30 1710 C 152.859 3.74082 -4.51973 0
M  V30 1711 C 155.211 3.78487 -5.06883 0
M  V30 1712 C 153.875 3.82598 -5.46969 0
M  V30 1713 H 153.145 0.678276 -0.298366 0
M  V30 1714 H 155.792 1.35002 -1.35819 0
M  V30 1715 H 154.097 3.86191 -0.660593 0
M  V30 1716 H 155.794 3.86959 -1.05186 0
M  V30 1717 H 152.384 3.52179 -2.4427 0
M  V30 1718 H 156.568 3.59595 -3.42061 0
M  V30 1719 H 151.824 3.75527 -4.82483 0
M  V30 1720 H 155.998 3.84193 -5.80834 0
M  V30 1721 H 153.625 3.91747 -6.51489 0
M  V30 1722 N 155.201 0.870884 1.31352 0
M  V30 1723 C 156.429 0.49677 2.00848 0
M  V30 1724 C 156.844 -0.910998 1.65367 0
M  V30 1725 O 156.201 -1.59696 0.883374 0
M  V30 1726 C 156.252 0.645308 3.55694 0
M  V30 1727 O 155.973 1.99764 3.89905 0
M  V30 1728 C 157.474 0.272326 4.42463 0
M  V30 1729 H 154.694 0.193462 0.642506 0
M  V30 1730 H 157.238 1.1723 1.67563 0
M  V30 1731 H 155.393 0.0173176 3.87396 0
M  V30 1732 H 155.807 2.00607 4.84621 0
M  V30 1733 H 157.281 0.427208 5.50344 0
M  V30 1734 H 157.758 -0.788587 4.32062 0
M  V30 1735 H 158.364 0.876054 4.1618 0
M  V30 1736 N 156.679 -1.44442 0.630414 0
M  V30 1737 C 157.609 -2.33418 -0.0618083 0
M  V30 1738 C 158.59 -1.48165 -0.835541 0
M  V30 1739 O 159.775 -1.76886 -0.801564 0
M  V30 1740 C 156.905 -3.31222 -1.04449 0
M  V30 1741 C 155.859 -4.26288 -0.382436 0
M  V30 1742 C 155.185 -5.13954 -1.47497 0
M  V30 1743 C 156.485 -5.1744 0.710865 0
M  V30 1744 H 158.179 -2.91548 0.681184 0
M  V30 1745 H 155.725 -1.40191 0.329026 0
M  V30 1746 H 157.678 -3.92351 -1.53748 0
M  V30 1747 H 156.402 -2.71299 -1.81836 0
M  V30 1748 H 155.061 -3.6649 0.0899054 0
M  V30 1749 H 154.709 -4.50385 -2.2397 0
M  V30 1750 H 154.409 -5.7837 -1.03737 0
M  V30 1751 H 155.933 -5.77955 -1.96979 0
M  V30 1752 H 157.347 -5.72509 0.300996 0
M  V30 1753 H 155.744 -5.90455 1.07156 0
M  V30 1754 H 156.814 -4.58496 1.57829 0
M  V30 1755 N 158.157 -0.370918 -1.53173 0
M  V30 1756 C 159.405 0.216673 -2.00935 0
M  V30 1757 C 159.726 1.48845 -1.25977 0
M  V30 1758 O 158.996 1.92286 -0.374551 0
M  V30 1759 H 157.576 0.0830565 -0.742368 0
M  V30 1760 H 160.238 -0.49838 -1.8842 0
M  V30 1761 H 159.334 0.439893 -3.08984 0
M  V30 1762 N 159.635 1.57281 -0.100228 0
M  V30 1763 C 160.883 1.94153 0.561157 0
M  V30 1764 C 161.204 0.983157 1.68401 0
M  V30 1765 O 160.474 0.0361132 1.95867 0
M  V30 1766 H 159.054 0.716791 0.210283 0
M  V30 1767 H 161.716 1.94202 -0.164765 0
M  V30 1768 H 160.812 2.96709 0.968008 0
M  V30 1769 N 161.113 -0.173488 1.56642 0
M  V30 1770 C 162.343 -0.904781 1.85734 0
M  V30 1771 C 162.751 -1.76431 0.68328 0
M  V30 1772 O 162.094 -1.802 -0.356865 0
M  V30 1773 C 162.156 -1.83382 3.09211 0
M  V30 1774 C 161.82 -1.15411 4.42187 0
M  V30 1775 C 162.817 -0.520609 5.17287 0
M  V30 1776 C 160.502 -1.15151 4.88923 0
M  V30 1777 C 162.496 0.106412 6.37311 0
M  V30 1778 C 160.183 -0.520664 6.08878 0
M  V30 1779 C 161.181 0.107196 6.82916 0
M  V30 1780 O 160.869 0.728102 8.00596 0
M  V30 1781 H 160.601 -0.268408 0.62043 0
M  V30 1782 H 163.155 -0.179096 2.04618 0
M  V30 1783 H 161.385 -2.59976 2.86268 0
M  V30 1784 H 163.074 -2.43476 3.24768 0
M  V30 1785 H 163.84 -0.514606 4.82262 0
M  V30 1786 H 159.719 -1.62961 4.31236 0
M  V30 1787 H 163.263 0.597081 6.9504 0
M  V30 1788 H 159.16 -0.524242 6.43368 0
M  V30 1789 H 159.928 0.627138 8.16094 0
M  V30 1790 N 162.591 -1.51276 -0.441967 0
M  V30 1791 C 163.819 -1.67516 -1.21434 0
M  V30 1792 C 164.234 -0.37055 -1.85128 0
M  V30 1793 O 163.591 0.650498 -1.70513 0
M  V30 1794 C 163.642 -2.78748 -2.30177 0
M  V30 1795 O 163.363 -4.04154 -1.69089 0
M  V30 1796 C 164.864 -3.06217 -3.20541 0
M  V30 1797 H 162.084 -0.562276 -0.366178 0
M  V30 1798 H 164.628 -1.97666 -0.524244 0
M  V30 1799 H 162.783 -2.5121 -2.94911 0
M  V30 1800 H 163.197 -4.65894 -2.40922 0
M  V30 1801 H 164.671 -3.8764 -3.92987 0
M  V30 1802 H 165.148 -2.18439 -3.81026 0
M  V30 1803 H 165.754 -3.35397 -2.61513 0
M  V30 1804 N 164.069 0.697108 -1.41344 0
M  V30 1805 C 165.294 1.49096 -1.44171 0
M  V30 1806 C 165.719 1.88038 -0.0481568 0
M  V30 1807 O 165.077 1.54525 0.948243 0
M  V30 1808 C 165.125 2.73088 -2.3549 0
M  V30 1809 O 164.229 3.70514 -1.81088 0
M  V30 1810 H 163.57 0.448801 -0.489361 0
M  V30 1811 H 166.1 0.856992 -1.85787 0
M  V30 1812 H 166.11 3.21413 -2.51312 0
M  V30 1813 H 164.785 2.44081 -3.36745 0
M  V30 1814 H 163.362 3.29441 -1.74708 0
M  V30 1815 N 165.547 1.27147 0.931209 0
M  V30 1816 C 166.794 1.13278 1.67852 0
M  V30 1817 C 167.122 -0.32204 1.91815 0
M  V30 1818 O 166.377 -1.25224 1.50391 0
M  V30 1819 C 166.676 1.8579 3.05314 0
M  V30 1820 C 166.342 3.35657 3.01073 0
M  V30 1821 C 165.004 3.76536 2.99623 0
M  V30 1822 C 167.356 4.31299 2.92627 0
M  V30 1823 C 164.684 5.11426 2.87506 0
M  V30 1824 C 167.036 5.66242 2.82051 0
M  V30 1825 C 165.7 6.06418 2.7895 0
M  V30 1826 H 164.97 0.414515 0.614214 0
M  V30 1827 H 167.617 1.57712 1.08624 0
M  V30 1828 H 165.922 1.33854 3.68226 0
M  V30 1829 H 167.619 1.72491 3.62005 0
M  V30 1830 H 164.209 3.03146 3.02986 0
M  V30 1831 H 168.393 4.00692 2.92848 0
M  V30 1832 H 163.649 5.41705 2.83489 0
M  V30 1833 H 167.823 6.40026 2.74481 0
M  V30 1834 H 165.45 7.10895 2.69318 0
M  V30 1835 N 167.025 -1.13721 1.09112 0
M  V30 1836 C 168.274 -1.84275 0.82009 0
M  V30 1837 C 168.587 -1.84253 -0.656509 0
M  V30 1838 O 169.793 -2.50668 -1.04296 0
M  V30 1839 C 168.249 -3.30825 1.41714 0
M  V30 1840 C 167.857 -3.39244 2.92605 0
M  V30 1841 C 169.601 -4.06443 1.22492 0
M  V30 1842 C 167.508 -4.80047 3.45411 0
M  V30 1843 H 166.438 -0.690387 0.30312 0
M  V30 1844 H 169.089 -1.28146 1.31343 0
M  V30 1845 H 167.471 -3.86737 0.851498 0
M  V30 1846 H 168.645 -2.93344 3.55367 0
M  V30 1847 H 166.96 -2.77088 3.10823 0
M  V30 1848 H 169.557 -5.10387 1.59402 0
M  V30 1849 H 169.9 -4.15972 0.165299 0
M  V30 1850 H 170.433 -3.56852 1.75788 0
M  V30 1851 H 167.172 -4.75709 4.50978 0
M  V30 1852 H 166.692 -5.26455 2.87411 0
M  V30 1853 H 168.371 -5.48957 3.42425 0
M  V30 1854 N 168.503 -0.877838 -1.30888 0
M  V30 1855 C 169.919 -0.570844 -1.49042 0
M  V30 1856 C 170.119 0.893159 -1.80624 0
M  V30 1857 O 169.175 1.67485 -1.88958 0
M  V30 1858 C 170.488 -1.47784 -2.61878 0
M  V30 1859 C 172.036 -1.48071 -2.75761 0
M  V30 1860 C 172.511 -2.37347 -3.91702 0
M  V30 1861 N 174.002 -2.35271 -3.99001 0
M  V30 1862 C 174.737 -3.01063 -4.88004 0
M  V30 1863 N 174.233 -3.76055 -5.81854 0
M  V30 1864 N 176.026 -2.90332 -4.81315 0
M  V30 1865 H 168.177 -1.82502 -1.0866 0
M  V30 1866 H 170.44 -0.780797 -0.537644 0
M  V30 1867 H 170.146 -2.51993 -2.45341 0
M  V30 1868 H 170.02 -1.18215 -3.58197 0
M  V30 1869 H 172.407 -0.446166 -2.91708 0
M  V30 1870 H 172.488 -1.81668 -1.80085 0
M  V30 1871 H 172.132 -3.40883 -3.76512 0
M  V30 1872 H 172.062 -2.01071 -4.86701 0
M  V30 1873 H 174.553 -1.80768 -3.3186 0
M  V30 1874 H 174.866 -4.23366 -6.46514 0
M  V30 1875 H 173.211 -3.80163 -5.81808 0
M  V30 1876 H 176.402 -2.31278 -4.06974 0
M  V30 1877 H 176.575 -3.41885 -5.50471 0
M  V30 1878 N 169.982 1.44106 -0.638065 0
M  V30 1879 C 170.93 2.3248 0.0748149 0
M  V30 1880 C 171.924 1.47746 0.828702 0
M  V30 1881 O 173.13 1.64049 0.740816 0
M  V30 1882 H 169.505 0.750771 0.0429686 0
M  V30 1883 H 171.476 2.90348 -0.688504 0
M  V30 1884 C 170.225 3.31843 1.03805 0
M  V30 1885 H 169.548 3.97059 0.467375 0
M  V30 1886 H 170.988 3.96345 1.50622 0
M  V30 1887 C 169.447 2.61291 2.1267 0
M  V30 1888 O 169.977 2.41702 3.20847 0
M  V30 1889 N 168.183 2.20915 1.88798 0
M  V30 1890 H 167.73 2.37047 1.00829 0
M  V30 1891 H 167.688 1.74038 2.61836 0
M  V30 1892 N 171.46 0.379036 1.52974 0
M  V30 1893 C 172.408 -0.476033 2.27677 0
M  V30 1894 C 173.402 -1.0719 1.31174 0
M  V30 1895 O 174.608 -1.01355 1.48752 0
M  V30 1896 H 170.983 -0.172255 0.732006 0
M  V30 1897 H 172.954 0.175615 2.97883 0
M  V30 1898 C 171.703 -1.5967 3.0887 0
M  V30 1899 H 171.026 -1.1475 3.82978 0
M  V30 1900 H 172.466 -2.16943 3.64296 0
M  V30 1901 C 170.925 -2.54682 2.20542 0
M  V30 1902 O 171.455 -3.57836 1.82527 0
M  V30 1903 N 169.661 -2.24183 1.84907 0
M  V30 1904 H 169.208 -1.40333 2.1602 0
M  V30 1905 H 169.166 -2.88006 1.26096 0
M  V30 1906 N 172.938 -1.57226 0.108567 0
M  V30 1907 C 174.166 -1.99179 -0.559954 0
M  V30 1908 C 174.581 -0.988022 -1.60884 0
M  V30 1909 O 173.938 0.0205512 -1.82488 0
M  V30 1910 C 173.989 -3.41159 -1.19552 0
M  V30 1911 O 173.71 -4.37694 -0.188577 0
M  V30 1912 C 175.211 -3.98188 -1.94837 0
M  V30 1913 H 172.431 -0.654228 -0.149088 0
M  V30 1914 H 174.975 -2.03598 0.19183 0
M  V30 1915 H 173.13 -3.37711 -1.89815 0
M  V30 1916 H 173.544 -5.20469 -0.649014 0
M  V30 1917 H 175.018 -4.99644 -2.34648 0
M  V30 1918 H 175.495 -3.3675 -2.81951 0
M  V30 1919 H 176.101 -4.0515 -1.2936 0
M  V30 1920 N 174.416 0.165178 -1.56732 0
M  V30 1921 C 175.363 1.2044 -1.96883 0
M  V30 1922 C 176.333 1.43664 -0.833657 0
M  V30 1923 O 177.518 1.56302 -1.09427 0
M  V30 1924 C 174.658 2.53727 -2.33916 0
M  V30 1925 C 173.771 2.3783 -3.6064 0
M  V30 1926 C 172.906 3.64026 -3.86857 0
M  V30 1927 C 171.945 3.43088 -5.06909 0
M  V30 1928 N 171.082 4.61369 -5.29229 0
M  V30 1929 H 175.922 0.854996 -2.85471 0
M  V30 1930 H 173.459 0.41076 -1.41249 0
M  V30 1931 H 175.417 3.31419 -2.53411 0
M  V30 1932 H 174.047 2.8665 -1.48431 0
M  V30 1933 H 173.099 1.51282 -3.49024 0
M  V30 1934 H 174.411 2.18308 -4.4849 0
M  V30 1935 H 173.565 4.50152 -4.06753 0
M  V30 1936 H 172.304 3.86533 -2.97394 0
M  V30 1937 H 171.309 2.55349 -4.86906 0
M  V30 1938 H 172.534 3.21997 -5.97909 0
M  V30 1939 H 170.48 4.84084 -4.42718 0
M  V30 1940 H 170.397 4.44783 -6.11313 0
M  V30 1941 H 171.665 5.48761 -5.53608 0
M  V30 1942 N 175.894 1.51508 0.433938 0
M  V30 1943 C 176.842 1.73646 1.54757 0
M  V30 1944 C 177.836 0.602854 1.5831 0
M  V30 1945 O 179.042 0.784318 1.62014 0
M  V30 1946 H 175.417 0.548718 0.51421 0
M  V30 1947 H 177.388 2.66991 1.33261 0
M  V30 1948 C 176.137 1.88172 2.92381 0
M  V30 1949 H 175.46 2.74808 2.90381 0
M  V30 1950 H 176.9 2.07672 3.6966 0
M  V30 1951 C 175.359 0.64239 3.30719 0
M  V30 1952 O 175.889 -0.201362 4.01195 0
M  V30 1953 N 174.095 0.485489 2.86516 0
M  V30 1954 H 173.642 1.17318 2.29334 0
M  V30 1955 H 173.6 -0.342482 3.12529 0
M  V30 1956 N 177.372 -0.689602 1.41712 0
M  V30 1957 C 178.621 -1.44534 1.40686 0
M  V30 1958 C 178.934 -1.95588 0.0213352 0
M  V30 1959 O 180.14 -2.71271 -0.111534 0
M  V30 1960 C 178.596 -2.61387 2.47396 0
M  V30 1961 C 178.204 -2.17094 3.91885 0
M  V30 1962 C 179.948 -3.38986 2.55517 0
M  V30 1963 C 177.855 -3.3094 4.90135 0
M  V30 1964 H 176.785 -0.542925 0.52321 0
M  V30 1965 H 179.436 -0.748054 1.6756 0
M  V30 1966 H 177.818 -3.33412 2.13664 0
M  V30 1967 H 178.992 -1.52318 4.34897 0
M  V30 1968 H 177.307 -1.52473 3.8748 0
M  V30 1969 H 179.904 -4.23747 3.26102 0
M  V30 1970 H 180.247 -3.84578 1.59391 0
M  V30 1971 H 180.78 -2.74021 2.8837 0
M  V30 1972 H 177.519 -2.90355 5.87685 0
M  V30 1973 H 177.039 -3.94546 4.51767 0
M  V30 1974 H 178.718 -3.9663 5.11169 0
M  V30 1975 N 178.85 -1.27639 -0.924453 0
M  V30 1976 C 180.096 -1.14336 -1.67497 0
M  V30 1977 C 180.429 0.309465 -1.91718 0
M  V30 1978 O 179.704 1.22608 -1.50989 0
M  V30 1979 C 179.987 -1.93096 -3.0395 0
M  V30 1980 C 179.84 -3.46381 -2.8695 0
M  V30 1981 C 181.159 -1.73798 -4.0433 0
M  V30 1982 H 178.278 -0.416728 -0.607871 0
M  V30 1983 H 180.92 -1.56832 -1.07256 0
M  V30 1984 H 179.07 -1.56982 -3.55372 0
M  V30 1985 H 180.742 -3.92343 -2.42621 0
M  V30 1986 H 178.985 -3.72557 -2.22225 0
M  V30 1987 H 179.656 -3.96735 -3.83804 0
M  V30 1988 H 182.132 -2.05293 -3.61931 0
M  V30 1989 H 181.008 -2.31294 -4.97789 0
M  V30 1990 H 181.269 -0.686725 -4.36734 0
M  V30 1991 N 180.328 1.1314 -1.09713 0
M  V30 1992 C 181.558 1.88048 -0.855656 0
M  V30 1993 C 181.966 1.79537 0.596919 0
M  V30 1994 O 181.309 1.16196 1.42282 0
M  V30 1995 C 181.371 3.38314 -1.21589 0
M  V30 1996 C 181.035 3.70605 -2.67397 0
M  V30 1997 C 182.032 3.69596 -3.65643 0
M  V30 1998 C 179.717 4.0017 -3.03593 0
M  V30 1999 C 181.711 3.977 -4.9811 0
M  V30 2000 C 179.398 4.27935 -4.36251 0
M  V30 2001 C 180.396 4.26685 -5.33318 0
M  V30 2002 O 180.084 4.53767 -6.63589 0
M  V30 2003 H 179.816 0.60208 -0.307368 0
M  V30 2004 H 182.37 1.44128 -1.46343 0
M  V30 2005 H 180.6 3.82752 -0.551177 0
M  V30 2006 H 182.289 3.94552 -0.953083 0
M  V30 2007 H 183.055 3.46826 -3.39023 0
M  V30 2008 H 178.934 4.00289 -2.2867 0
M  V30 2009 H 182.478 3.9664 -5.73866 0
M  V30 2010 H 178.375 4.50178 -4.62613 0
M  V30 2011 H 179.143 4.71422 -6.69107 0
M  V30 2012 N 181.806 0.884767 1.30421 0
M  V30 2013 C 183.217 0.553656 1.78302 0
M  V30 2014 C 183.568 -0.930153 1.7275 0
M  V30 2015 O 182.693 -1.72681 1.30423 0
M  V30 2016 C 183.288 0.998234 3.2376 0
M  V30 2017 C 181.847 0.71854 3.69478 0
M  V30 2018 C 180.994 1.18132 2.50879 0
M  V30 2019 H 183.945 1.06901 1.17294 0
M  V30 2020 H 183.966 0.327118 3.79091 0
M  V30 2021 H 183.478 2.0782 3.27769 0
M  V30 2022 H 181.579 -0.349444 3.70958 0
M  V30 2023 H 181.692 1.30595 4.60958 0
M  V30 2024 H 180.056 0.600669 2.47516 0
M  V30 2025 H 180.839 2.26902 2.57624 0
M  V30 2026 N 183.284 -1.43765 0.645699 0
M  V30 2027 C 184.531 -2.01898 0.15604 0
M  V30 2028 C 184.859 -1.50887 -1.22733 0
M  V30 2029 O 184.114 -0.689271 -1.8316 0
M  V30 2030 C 184.413 -3.57238 0.107679 0
M  V30 2031 C 184.079 -4.27564 1.43178 0
M  V30 2032 C 182.741 -4.46492 1.7944 0
M  V30 2033 C 185.093 -4.67454 2.30513 0
M  V30 2034 C 182.421 -5.02573 3.02716 0
M  V30 2035 C 184.773 -5.24901 3.53074 0
M  V30 2036 C 183.437 -5.42046 3.89541 0
M  V30 2037 H 182.707 -0.738797 0.057099 0
M  V30 2038 H 185.354 -1.72341 0.834912 0
M  V30 2039 H 183.659 -3.86293 -0.654618 0
M  V30 2040 H 185.356 -3.99965 -0.287938 0
M  V30 2041 H 181.946 -4.13171 1.13963 0
M  V30 2042 H 186.13 -4.5253 2.0379 0
M  V30 2043 H 181.386 -5.14033 3.31028 0
M  V30 2044 H 185.56 -5.54758 4.20971 0
M  V30 2045 H 183.187 -5.85268 4.85145 0
M  V30 2046 N 184.763 -0.387143 -1.52771 0
M  V30 2047 C 186.04 0.253197 -1.93954 0
M  V30 2048 C 186.42 1.64545 -1.32243 0
M  V30 2049 O 185.768 2.23191 -0.489699 0
M  V30 2050 C 185.978 0.281722 -3.47861 0
M  V30 2051 C 187.326 0.511715 -4.21505 0
M  V30 2052 O 188.35 0.362023 -3.54356 0
M  V30 2053 O 187.209 0.804847 -5.40541 0
M  V30 2054 H 184.303 0.156845 -0.811991 0
M  V30 2055 H 186.849 -0.441494 -1.63856 0
M  V30 2056 H 185.621 -0.693571 -3.85104 0
M  V30 2057 H 185.244 1.02142 -3.84256 0
M  V30 2058 N 186.241 1.57166 -0.116904 0
M  V30 2059 C 187.173 2.12271 0.864507 0
M  V30 2060 C 188.186 1.06494 1.23138 0
M  V30 2061 O 189.375 1.33873 1.18069 0
M  V30 2062 C 186.475 2.60564 2.16702 0
M  V30 2063 C 185.648 3.90416 1.97216 0
M  V30 2064 C 184.707 4.24329 3.11178 0
M  V30 2065 O 183.733 4.93182 2.84184 0
M  V30 2066 N 184.935 3.8148 4.37554 0
M  V30 2067 H 187.7 2.97102 0.393726 0
M  V30 2068 H 185.261 1.61759 0.0675805 0
M  V30 2069 H 187.253 2.80282 2.91932 0
M  V30 2070 H 185.823 1.80623 2.55135 0
M  V30 2071 H 185.043 3.79627 1.06192 0
M  V30 2072 H 186.331 4.75327 1.81499 0
M  V30 2073 H 185.729 3.25943 4.62361 0
M  V30 2074 H 184.286 4.06311 5.09661 0
M  V30 2075 N 187.719 -0.156864 1.56817 0
M  V30 2076 C 188.949 -0.885031 1.86684 0
M  V30 2077 C 189.357 -1.75696 0.701954 0
M  V30 2078 O 188.7 -1.80569 -0.337732 0
M  V30 2079 C 188.762 -1.80092 3.11138 0
M  V30 2080 C 188.426 -1.10714 4.43386 0
M  V30 2081 C 189.423 -0.465714 5.1781 0
M  V30 2082 C 187.108 -1.09959 4.90117 0
M  V30 2083 C 189.102 0.174002 6.37162 0
M  V30 2084 C 186.789 -0.456055 6.09396 0
M  V30 2085 C 187.787 0.179622 6.82764 0
M  V30 2086 O 187.475 0.812975 7.99779 0
M  V30 2087 H 187.207 -0.261813 0.623242 0
M  V30 2088 H 189.761 -0.157383 2.04796 0
M  V30 2089 H 187.991 -2.56926 2.89009 0
M  V30 2090 H 189.68 -2.40018 3.27332 0
M  V30 2091 H 190.446 -0.463427 4.82781 0
M  V30 2092 H 186.325 -1.58378 4.3294 0
M  V30 2093 H 189.869 0.670765 6.94368 0
M  V30 2094 H 185.766 -0.455975 6.43888 0
M  V30 2095 H 186.534 0.71366 8.15383 0
M  V30 2096 N 189.197 -1.51736 -0.425897 0
M  V30 2097 C 190.446 -1.64201 -1.17136 0
M  V30 2098 C 190.759 -0.369705 -1.92074 0
M  V30 2099 O 191.965 -0.373898 -2.68913 0
M  V30 2100 C 190.421 -2.90035 -2.13091 0
M  V30 2101 C 190.029 -4.24312 -1.43747 0
M  V30 2102 C 191.773 -3.1186 -2.87999 0
M  V30 2103 C 189.68 -5.41285 -2.38253 0
M  V30 2104 H 188.61 -0.611624 -0.440944 0
M  V30 2105 H 191.261 -1.78212 -0.437328 0
M  V30 2106 H 189.643 -2.69684 -2.89977 0
M  V30 2107 H 190.817 -4.55086 -0.723408 0
M  V30 2108 H 189.132 -4.08456 -0.809465 0
M  V30 2109 H 191.729 -3.96427 -3.58817 0
M  V30 2110 H 192.072 -2.25403 -3.49999 0
M  V30 2111 H 192.605 -3.32605 -2.18217 0
M  V30 2112 H 189.344 -6.30037 -1.80925 0
M  V30 2113 H 188.864 -5.14872 -3.0768 0
M  V30 2114 H 190.543 -5.73694 -2.99139 0
M  V30 2115 N 190.675 0.682077 -1.42076 0
M  V30 2116 C 191.638 1.77756 -1.44691 0
M  V30 2117 C 192.638 1.5726 -0.335535 0
M  V30 2118 O 193.828 1.63686 -0.596037 0
M  V30 2119 C 190.96 3.16301 -1.27146 0
M  V30 2120 H 192.153 1.76826 -2.42224 0
M  V30 2121 H 189.706 0.891012 -1.28416 0
M  V30 2122 H 190.441 3.22862 -0.305075 0
M  V30 2123 H 190.226 3.32581 -2.07683 0
M  V30 2124 H 191.716 3.96241 -1.31843 0
M  V30 2125 N 192.153 1.28127 0.917671 0
M  V30 2126 C 193.103 1.08361 2.00604 0
M  V30 2127 C 194.087 0.00847518 1.60898 0
M  V30 2128 O 195.279 0.228167 1.75523 0
M  V30 2129 C 192.408 0.743376 3.35155 0
M  V30 2130 C 191.494 1.85716 3.81275 0
M  V30 2131 N 191.885 3.09822 3.99805 0
M  V30 2132 C 190.183 1.74612 4.10398 0
M  V30 2133 C 190.884 3.82368 4.38372 0
M  V30 2134 N 189.86 3.10192 4.4641 0
M  V30 2135 H 193.662 2.02531 2.12975 0
M  V30 2136 H 191.176 1.18989 1.10523 0
M  V30 2137 H 193.173 0.582859 4.12805 0
M  V30 2138 H 191.833 -0.190595 3.2414 0
M  V30 2139 H 192.844 3.45475 3.85833 0
M  V30 2140 H 189.521 0.883657 4.08041 0
M  V30 2141 H 190.911 4.89082 4.60704 0
M  V30 2142 N 193.631 -1.12557 1.10312 0
M  V30 2143 C 194.877 -1.84515 0.855901 0
M  V30 2144 C 195.232 -1.82409 -0.611936 0
M  V30 2145 O 194.525 -1.25778 -1.44535 0
M  V30 2146 C 194.719 -3.31462 1.33669 0
M  V30 2147 C 194.548 -3.47879 2.84974 0
M  V30 2148 C 193.318 -3.61589 3.52961 0
M  V30 2149 C 195.516 -3.43152 3.83081 0
M  V30 2150 N 193.498 -3.66359 4.926 0
M  V30 2151 C 194.869 -3.54401 5.08724 0
M  V30 2152 C 196.924 -3.2661 3.75807 0
M  V30 2153 C 195.627 -3.50815 6.2795 0
M  V30 2154 C 197.653 -3.24335 4.94531 0
M  V30 2155 C 197.015 -3.36144 6.19021 0
M  V30 2156 H 193.114 -0.690967 0.366182 0
M  V30 2157 H 195.698 -1.34763 1.40524 0
M  V30 2158 H 193.869 -3.7976 0.814686 0
M  V30 2159 H 195.601 -3.91272 1.03385 0
M  V30 2160 H 192.356 -3.63652 3.03404 0
M  V30 2161 H 192.78 -3.72411 5.65366 0
M  V30 2162 H 197.422 -3.16375 2.80476 0
M  V30 2163 H 195.14 -3.5982 7.23571 0
M  V30 2164 H 198.726 -3.12719 4.9061 0
M  V30 2165 H 197.606 -3.34357 7.09348 0
M  V30 2166 N 195.109 -0.891671 -1.2995 0
M  V30 2167 C 196.358 -0.509521 -1.95158 0
M  V30 2168 C 196.671 0.947388 -1.71125 0
M  V30 2169 O 197.877 1.43669 -2.30372 0
M  V30 2170 C 196.333 -0.860315 -3.49466 0
M  V30 2171 C 195.941 -2.33545 -3.8231 0
M  V30 2172 C 197.685 -0.547687 -4.20952 0
M  V30 2173 C 195.592 -2.62752 -5.29826 0
M  V30 2174 H 194.522 -0.18682 -0.730489 0
M  V30 2175 H 197.173 -1.08756 -1.47798 0
M  V30 2176 H 195.555 -0.211285 -3.95436 0
M  V30 2177 H 196.729 -3.02936 -3.47227 0
M  V30 2178 H 195.044 -2.61629 -3.23944 0
M  V30 2179 H 197.641 -0.742854 -5.29515 0
M  V30 2180 H 197.984 0.51332 -4.13123 0
M  V30 2181 H 198.517 -1.1542 -3.80688 0
M  V30 2182 H 195.256 -3.6762 -5.42712 0
M  V30 2183 H 194.776 -1.97977 -5.66185 0
M  V30 2184 H 196.455 -2.48601 -5.97333 0
M  V30 2185 N 196.587 1.43421 -0.653314 0
M  V30 2186 C 197.836 2.01032 -0.164076 0
M  V30 2187 C 198.149 1.52147 1.22926 0
M  V30 2188 O 199.355 2.02031 1.81371 0
M  V30 2189 C 197.811 3.59082 -0.24252 0
M  V30 2190 C 197.419 4.1696 -1.63855 0
M  V30 2191 C 199.163 4.24079 0.18911 0
M  V30 2192 C 197.07 5.67304 -1.67092 0
M  V30 2193 H 196 0.751798 -0.0575769 0
M  V30 2194 H 198.651 1.6439 -0.815362 0
M  V30 2195 H 197.033 3.93125 0.476276 0
M  V30 2196 H 198.207 3.94416 -2.38271 0
M  V30 2197 H 196.522 3.64335 -2.01616 0
M  V30 2198 H 199.119 5.34381 0.184775 0
M  V30 2199 H 199.462 3.98005 1.22056 0
M  V30 2200 H 199.995 3.94918 -0.477938 0
M  V30 2201 H 196.734 5.98145 -2.68146 0
M  V30 2202 H 196.254 5.91904 -0.970014 0
M  V30 2203 H 197.933 6.31344 -1.4147 0
M  V30 2204 N 198.065 0.39524 1.52563 0
M  V30 2205 C 199.313 -0.184678 2.01254 0
M  V30 2206 C 199.634 -1.46822 1.28329 0
M  V30 2207 O 198.904 -1.91666 0.405094 0
M  V30 2208 H 197.484 -0.0712355 0.743596 0
M  V30 2209 H 200.146 0.528293 1.87603 0
M  V30 2210 H 199.242 -0.390681 3.09645 0
M  V30 2211 N 199.544 -1.57102 0.125237 0
M  V30 2212 C 200.774 -1.99472 -0.538015 0
M  V30 2213 C 201.182 -1.00395 -1.60366 0
M  V30 2214 O 200.525 0.0103875 -1.83697 0
M  V30 2215 C 200.587 -3.38262 -1.21734 0
M  V30 2216 C 200.251 -4.56021 -0.298897 0
M  V30 2217 C 201.248 -5.17817 0.464943 0
M  V30 2218 C 198.933 -5.01869 -0.208149 0
M  V30 2219 C 200.927 -6.23852 1.3072 0
M  V30 2220 C 198.614 -6.07763 0.637736 0
M  V30 2221 C 199.612 -6.68622 1.39403 0
M  V30 2222 O 199.3 -7.7247 2.22586 0
M  V30 2223 H 199.032 -0.659934 -0.146501 0
M  V30 2224 H 201.586 -2.04321 0.210267 0
M  V30 2225 H 199.816 -3.30185 -2.01282 0
M  V30 2226 H 201.505 -3.6488 -1.77813 0
M  V30 2227 H 202.271 -4.83308 0.404741 0
M  V30 2228 H 198.15 -4.54241 -0.786522 0
M  V30 2229 H 201.694 -6.71284 1.898 0
M  V30 2230 H 197.591 -6.41701 0.699309 0
M  V30 2231 H 198.359 -7.89595 2.15596 0
M  V30 2232 N 201.022 0.148545 -1.56898 0
M  V30 2233 C 202.268 0.862694 -1.83536 0
M  V30 2234 C 202.601 1.80889 -0.706604 0
M  V30 2235 O 201.876 1.92328 0.289885 0
M  V30 2236 C 202.159 1.63853 -3.20662 0
M  V30 2237 C 202.012 0.713925 -4.44098 0
M  V30 2238 C 203.331 2.60133 -3.54991 0
M  V30 2239 H 200.45 0.312179 -0.667618 0
M  V30 2240 H 203.092 0.127953 -1.89569 0
M  V30 2241 H 201.242 2.26489 -3.1565 0
M  V30 2242 H 202.914 0.098686 -4.61194 0
M  V30 2243 H 201.157 0.0234019 -4.33794 0
M  V30 2244 H 201.828 1.29278 -5.36648 0
M  V30 2245 H 204.304 2.07616 -3.60603 0
M  V30 2246 H 203.18 3.11468 -4.51972 0
M  V30 2247 H 203.441 3.41417 -2.80868 0
M  V30 2248 N 202.5 1.5196 0.417844 0
M  V30 2249 C 203.73 1.69181 1.18581 0
M  V30 2250 C 204.138 0.397104 1.84986 0
M  V30 2251 O 203.481 -0.636011 1.72339 0
M  V30 2252 C 203.543 2.76497 2.29759 0
M  V30 2253 C 203.207 4.18514 1.83563 0
M  V30 2254 C 204.204 5.02648 1.32821 0
M  V30 2255 C 201.889 4.64708 1.90661 0
M  V30 2256 C 203.883 6.31044 0.897894 0
M  V30 2257 C 201.57 5.93096 1.47241 0
M  V30 2258 C 202.568 6.76093 0.968891 0
M  V30 2259 O 202.256 8.02078 0.540924 0
M  V30 2260 H 201.988 0.570457 0.362705 0
M  V30 2261 H 204.542 1.99249 0.498885 0
M  V30 2262 H 202.772 2.41786 3.01789 0
M  V30 2263 H 204.461 2.82403 2.91553 0
M  V30 2264 H 205.227 4.68154 1.26716 0
M  V30 2265 H 201.106 4.00216 2.28797 0
M  V30 2266 H 204.65 6.95776 0.504192 0
M  V30 2267 H 200.547 6.271 1.53022 0
M  V30 2268 H 201.315 8.15794 0.66502 0
M  V30 2269 N 203.978 -0.674533 1.42435 0
M  V30 2270 C 205.206 -1.46283 1.46317 0
M  V30 2271 C 205.621 -1.88653 0.0745836 0
M  V30 2272 O 204.978 -1.58151 -0.91074 0
M  V30 2273 C 205.029 -2.71178 2.3905 0
M  V30 2274 O 204.75 -2.30586 3.72507 0
M  V30 2275 C 206.251 -3.64738 2.51955 0
M  V30 2276 H 203.471 -0.450104 0.497642 0
M  V30 2277 H 206.015 -0.828792 1.86953 0
M  V30 2278 H 204.17 -3.3077 2.01667 0
M  V30 2279 H 204.584 -3.11241 4.22172 0
M  V30 2280 H 206.058 -4.49096 3.20962 0
M  V30 2281 H 206.535 -4.10656 1.55752 0
M  V30 2282 H 207.141 -3.11038 2.90061 0
M  V30 2283 N 205.456 -1.28612 -0.910864 0
M  V30 2284 C 206.872 -1.06381 -1.18976 0
M  V30 2285 C 207.072 0.191998 -2.00583 0
M  V30 2286 O 206.128 0.892869 -2.36187 0
M  V30 2287 C 207.441 -2.31295 -1.92154 0
M  V30 2288 C 208.989 -2.36503 -2.05025 0
M  V30 2289 C 209.464 -3.61191 -2.81612 0
M  V30 2290 N 210.955 -3.61847 -2.89172 0
M  V30 2291 C 211.69 -4.55004 -3.4894 0
M  V30 2292 N 211.186 -5.58482 -4.09963 0
M  V30 2293 N 212.979 -4.42594 -3.46506 0
M  V30 2294 H 205.13 -2.09221 -0.366094 0
M  V30 2295 H 207.393 -0.921003 -0.224629 0
M  V30 2296 H 207.099 -3.228 -1.39618 0
M  V30 2297 H 206.973 -2.37934 -2.9269 0
M  V30 2298 H 209.36 -1.45494 -2.5674 0
M  V30 2299 H 209.441 -2.33857 -1.03657 0
M  V30 2300 H 209.085 -4.52545 -2.30576 0
M  V30 2301 H 209.015 -3.61092 -3.83302 0
M  V30 2302 H 211.506 -2.87022 -2.45819 0
M  V30 2303 H 211.819 -6.25704 -4.53557 0
M  V30 2304 H 210.164 -5.62305 -4.08459 0
M  V30 2305 H 213.355 -3.60953 -2.98045 0
M  V30 2306 H 213.528 -5.15381 -3.92793 0
M  V30 2307 N 206.934 1.1197 -1.10907 0
M  V30 2308 C 208.18 1.8386 -0.855773 0
M  V30 2309 C 208.513 1.84134 0.617103 0
M  V30 2310 O 207.788 1.29041 1.45529 0
M  V30 2311 C 208.071 3.31305 -1.411 0
M  V30 2312 C 207.924 3.39456 -2.9511 0
M  V30 2313 C 209.243 4.2721 -1.05736 0
M  V30 2314 H 206.362 0.667545 -0.312334 0
M  V30 2315 H 209.004 1.31331 -1.37303 0
M  V30 2316 H 207.154 3.76169 -0.97105 0
M  V30 2317 H 208.826 3.03191 -3.47668 0
M  V30 2318 H 207.069 2.79849 -3.31462 0
M  V30 2319 H 207.74 4.43209 -3.29044 0
M  V30 2320 H 210.216 3.90497 -1.43706 0
M  V30 2321 H 209.092 5.28775 -1.47269 0
M  V30 2322 H 209.353 4.42088 0.0325958 0
M  V30 2323 N 208.412 0.89855 1.29475 0
M  V30 2324 C 209.375 0.380272 2.26023 0
M  V30 2325 C 210.375 -0.484891 1.53315 0
M  V30 2326 O 211.565 -0.290108 1.71767 0
M  V30 2327 C 208.697 -0.45651 3.3783 0
M  V30 2328 H 209.89 1.23295 2.73383 0
M  V30 2329 H 207.443 0.676589 1.40897 0
M  V30 2330 H 208.178 -1.32922 2.95808 0
M  V30 2331 H 207.963 0.163393 3.91759 0
M  V30 2332 H 209.453 -0.810466 4.0966 0
M  V30 2333 N 209.89 -1.43072 0.660911 0
M  V30 2334 C 211.118 -2.06067 0.185422 0
M  V30 2335 C 211.533 -1.49582 -1.15198 0
M  V30 2336 O 210.89 -0.630134 -1.71276 0
M  V30 2337 C 210.941 -3.61371 0.0966523 0
M  V30 2338 O 210.662 -4.15758 1.38119 0
M  V30 2339 C 212.163 -4.41455 -0.403996 0
M  V30 2340 H 209.383 -0.664459 0.0934604 0
M  V30 2341 H 211.927 -1.83447 0.90373 0
M  V30 2342 H 210.082 -3.8315 -0.572259 0
M  V30 2343 H 210.496 -5.09499 1.24542 0
M  V30 2344 H 211.97 -5.50437 -0.415045 0
M  V30 2345 H 212.447 -4.15036 -1.43674 0
M  V30 2346 H 213.053 -4.24663 0.232691 0
M  V30 2347 N 211.368 -0.403325 -1.52352 0
M  V30 2348 C 212.784 -0.0539281 -1.59509 0
M  V30 2349 C 212.984 1.43307 -1.41652 0
M  V30 2350 O 212.04 2.19924 -1.24056 0
M  V30 2351 C 213.353 -0.543654 -2.95745 0
M  V30 2352 C 214.901 -0.501125 -3.08962 0
M  V30 2353 C 215.376 -0.967267 -4.47669 0
M  V30 2354 N 216.867 -0.923849 -4.53893 0
M  V30 2355 C 217.602 -1.25578 -5.5948 0
M  V30 2356 N 217.098 -1.65889 -6.72646 0
M  V30 2357 N 218.891 -1.17613 -5.49658 0
M  V30 2358 H 211.042 -1.37123 -1.62206 0
M  V30 2359 H 213.305 -0.56294 -0.76276 0
M  V30 2360 H 213.011 -1.58275 -3.14073 0
M  V30 2361 H 212.885 0.0498042 -3.77167 0
M  V30 2362 H 215.272 0.528909 -2.90321 0
M  V30 2363 H 215.353 -1.13056 -2.2946 0
M  V30 2364 H 214.997 -1.9956 -4.67053 0
M  V30 2365 H 214.927 -0.314698 -5.25659 0
M  V30 2366 H 217.418 -0.627403 -3.72655 0
M  V30 2367 H 217.731 -1.89543 -7.49195 0
M  V30 2368 H 216.076 -1.69787 -6.73942 0
M  V30 2369 H 219.267 -0.860115 -4.6013 0
M  V30 2370 H 219.44 -1.43812 -6.3184 0
M  V30 2371 N 212.846 1.57033 -0.133567 0
M  V30 2372 C 213.793 2.16074 0.811208 0
M  V30 2373 C 214.763 1.08979 1.2535 0
M  V30 2374 O 215.948 1.36958 1.32843 0
M  V30 2375 C 213.088 2.77595 2.05024 0
M  V30 2376 C 212.201 3.99042 1.65498 0
M  V30 2377 C 211.336 4.48603 2.84479 0
M  V30 2378 C 210.375 5.62547 2.41262 0
M  V30 2379 N 209.512 6.06787 3.53206 0
M  V30 2380 H 214.352 2.96477 0.300906 0
M  V30 2381 H 211.889 1.46462 0.136822 0
M  V30 2382 H 213.847 3.11402 2.77642 0
M  V30 2383 H 212.477 1.99859 2.53488 0
M  V30 2384 H 211.529 3.71302 0.826981 0
M  V30 2385 H 212.841 4.81629 1.29748 0
M  V30 2386 H 211.995 4.84395 3.65303 0
M  V30 2387 H 210.734 3.64995 3.23465 0
M  V30 2388 H 209.739 5.26345 1.58874 0
M  V30 2389 H 210.964 6.47931 2.03377 0
M  V30 2390 H 208.91 5.26117 3.91838 0
M  V30 2391 H 208.827 6.84266 3.21427 0
M  V30 2392 H 210.095 6.4722 4.34427 0
M  V30 2393 N 214.325 -0.140222 1.56975 0
M  V30 2394 C 215.55 -0.870414 1.88251 0
M  V30 2395 C 215.975 -1.73637 0.723312 0
M  V30 2396 O 215.333 -1.78329 -0.32689 0
M  V30 2397 C 215.381 -1.69737 3.18154 0
M  V30 2398 O 214.485 -2.80229 3.02565 0
M  V30 2399 H 213.826 -0.242025 0.61832 0
M  V30 2400 H 216.356 -0.128999 2.04193 0
M  V30 2401 H 216.366 -2.09099 3.50345 0
M  V30 2402 H 215.041 -1.06152 4.02125 0
M  V30 2403 H 213.618 -2.44224 2.81796 0
M  V30 2404 N 215.803 -1.52179 -0.40978 0
M  V30 2405 C 217.028 -1.70347 -1.18308 0
M  V30 2406 C 217.453 -0.411887 -1.83535 0
M  V30 2407 O 216.811 0.630587 -1.6998 0
M  V30 2408 C 216.859 -2.83977 -2.22238 0
M  V30 2409 O 215.963 -2.495 -3.28365 0
M  V30 2410 H 215.304 -0.567103 -0.345384 0
M  V30 2411 H 217.834 -1.98879 -0.480445 0
M  V30 2412 H 217.844 -3.0887 -2.66577 0
M  V30 2413 H 216.519 -3.77685 -1.74146 0
M  V30 2414 H 215.096 -2.35277 -2.89308 0
M  V30 2415 N 217.281 0.66697 -1.42791 0
M  V30 2416 C 218.211 1.79218 -1.49677 0
M  V30 2417 C 219.192 1.66405 -0.352623 0
M  V30 2418 O 220.377 1.85708 -0.567993 0
M  V30 2419 C 217.507 3.17565 -1.40605 0
M  V30 2420 C 216.461 3.45124 -2.53127 0
M  V30 2421 C 215.787 4.83127 -2.29112 0
M  V30 2422 C 217.087 3.41236 -3.95418 0
M  V30 2423 H 218.781 1.73713 -2.43853 0
M  V30 2424 H 216.327 0.83432 -1.17367 0
M  V30 2425 H 218.28 3.96022 -1.44029 0
M  V30 2426 H 217.004 3.23767 -0.429271 0
M  V30 2427 H 215.663 2.69031 -2.49034 0
M  V30 2428 H 215.311 4.85988 -1.29709 0
M  V30 2429 H 215.011 5.02528 -3.04531 0
M  V30 2430 H 216.535 5.63859 -2.34297 0
M  V30 2431 H 217.949 4.09651 -4.01073 0
M  V30 2432 H 216.346 3.72173 -4.70752 0
M  V30 2433 H 217.416 2.39665 -4.21532 0
M  V30 2434 N 218.759 1.29093 0.90403 0
M  V30 2435 C 219.706 1.13853 2.00764 0
M  V30 2436 C 220.676 0.0330084 1.66067 0
M  V30 2437 O 221.861 0.199733 1.89752 0
M  V30 2438 C 219.001 0.816537 3.35301 0
M  V30 2439 C 218.114 2.00206 3.82807 0
M  V30 2440 C 217.249 1.61983 5.059 0
M  V30 2441 C 216.288 2.77143 5.45764 0
M  V30 2442 N 215.425 2.39346 6.60044 0
M  V30 2443 H 220.265 2.08276 2.13132 0
M  V30 2444 H 217.802 1.03648 1.04381 0
M  V30 2445 H 219.76 0.610557 4.12708 0
M  V30 2446 H 218.39 -0.090779 3.22672 0
M  V30 2447 H 217.442 2.31988 3.01473 0
M  V30 2448 H 218.754 2.86512 4.08304 0
M  V30 2449 H 217.908 1.37649 5.90879 0
M  V30 2450 H 216.647 0.728202 4.82233 0
M  V30 2451 H 215.652 3.02165 4.59322 0
M  V30 2452 H 216.877 3.66964 5.71414 0
M  V30 2453 H 214.823 1.52665 6.37989 0
M  V30 2454 H 214.74 3.19185 6.85315 0
M  V30 2455 H 216.008 2.1832 7.48303 0
M  V30 2456 N 220.237 -1.11381 1.11499 0
M  V30 2457 C 221.465 -1.86934 0.88675 0
M  V30 2458 C 221.88 -1.80195 -0.563476 0
M  V30 2459 O 221.237 -1.18367 -1.38908 0
M  V30 2460 C 221.288 -3.35722 1.34064 0
M  V30 2461 O 221.009 -3.4232 2.73401 0
M  V30 2462 C 222.51 -4.2818 1.14791 0
M  V30 2463 H 219.73 -0.591117 0.317523 0
M  V30 2464 H 222.274 -1.40865 1.48248 0
M  V30 2465 H 220.429 -3.79294 0.788355 0
M  V30 2466 H 220.843 -4.34971 2.93087 0
M  V30 2467 H 222.317 -5.30817 1.5145 0
M  V30 2468 H 222.794 -4.39113 0.0875279 0
M  V30 2469 H 223.4 -3.90402 1.68721 0
M  V30 2470 N 221.715 -0.905404 -1.28997 0
M  V30 2471 C 222.945 -0.549049 -1.99171 0
M  V30 2472 C 223.353 0.87203 -1.67906 0
M  V30 2473 O 222.696 1.58796 -0.923561 0
M  V30 2474 C 222.758 -0.668306 -3.53234 0
M  V30 2475 C 222.422 -2.0574 -4.08069 0
M  V30 2476 C 223.419 -3.0292 -4.22534 0
M  V30 2477 C 221.104 -2.36833 -4.42962 0
M  V30 2478 C 223.098 -4.29314 -4.71135 0
M  V30 2479 C 220.785 -3.63467 -4.91258 0
M  V30 2480 C 221.783 -4.59522 -5.053 0
M  V30 2481 O 221.471 -5.83907 -5.52546 0
M  V30 2482 H 221.203 -0.208784 -0.64295 0
M  V30 2483 H 223.757 -1.21836 -1.65363 0
M  V30 2484 H 221.987 0.0580547 -3.86656 0
M  V30 2485 H 223.676 -0.320273 -4.04634 0
M  V30 2486 H 224.442 -2.80216 -3.95859 0
M  V30 2487 H 220.321 -1.62824 -4.31288 0
M  V30 2488 H 223.865 -5.04293 -4.8201 0
M  V30 2489 H 219.762 -3.86 -5.17372 0
M  V30 2490 H 220.53 -5.86578 -5.70849 0
M  V30 2491 N 223.193 1.4272 -0.668489 0
M  V30 2492 C 224.141 2.32586 0.0254857 0
M  V30 2493 C 225.135 1.49471 0.797176 0
M  V30 2494 O 226.341 1.65583 0.705853 0
M  V30 2495 H 222.716 0.751514 0.0270339 0
M  V30 2496 H 224.687 2.88823 -0.749936 0
M  V30 2497 C 223.436 3.3397 0.967427 0
M  V30 2498 H 222.759 3.97961 0.383048 0
M  V30 2499 H 224.199 3.9945 1.42181 0
M  V30 2500 C 222.658 2.65744 2.0708 0
M  V30 2501 O 223.188 2.48454 3.15648 0
M  V30 2502 N 221.394 2.2487 1.8407 0
M  V30 2503 H 220.941 2.39132 0.95778 0
M  V30 2504 H 220.899 1.79552 2.58086 0
M  V30 2505 N 224.671 0.411399 1.52136 0
M  V30 2506 C 225.92 -0.165009 2.01024 0
M  V30 2507 C 226.233 -1.4603 1.30133 0
M  V30 2508 O 227.439 -2.1181 1.69849 0
M  V30 2509 C 225.895 -0.344618 3.58246 0
M  V30 2510 C 225.503 0.938716 4.38055 0
M  V30 2511 C 227.247 -0.876195 4.15359 0
M  V30 2512 C 225.154 0.726172 5.86925 0
M  V30 2513 H 224.084 -0.0654407 0.751155 0
M  V30 2514 H 226.735 0.537192 1.75461 0
M  V30 2515 H 225.117 -1.10921 3.80148 0
M  V30 2516 H 226.291 1.70963 4.27912 0
M  V30 2517 H 224.606 1.39688 3.92271 0
M  V30 2518 H 227.203 -1.05128 5.24263 0
M  V30 2519 H 227.546 -1.85152 3.7286 0
M  V30 2520 H 228.079 -0.170607 3.97434 0
M  V30 2521 H 224.818 1.67312 6.33788 0
M  V30 2522 H 224.338 -0.00540283 5.998 0
M  V30 2523 H 226.017 0.369231 6.45946 0
M  V30 2524 N 226.149 -1.5696 0.141893 0
M  V30 2525 C 227.097 -2.17784 -0.816874 0
M  V30 2526 C 228.091 -1.1334 -1.25899 0
M  V30 2527 O 229.297 -1.316 -1.22806 0
M  V30 2528 H 225.672 -0.697278 -0.281615 0
M  V30 2529 H 227.643 -2.97087 -0.279621 0
M  V30 2530 C 226.392 -2.80983 -2.04802 0
M  V30 2531 H 225.715 -3.61062 -1.7168 0
M  V30 2532 H 227.155 -3.2705 -2.69841 0
M  V30 2533 C 225.614 -1.79228 -2.8527 0
M  V30 2534 O 226.144 -1.25962 -3.8144 0
M  V30 2535 N 224.35 -1.48647 -2.49704 0
M  V30 2536 H 223.897 -1.92155 -1.71564 0
M  V30 2537 H 223.855 -0.808115 -3.03837 0
M  V30 2538 N 227.627 0.131896 -1.57047 0
M  V30 2539 C 228.537 1.1815 -2.02676 0
M  V30 2540 C 229.553 1.46113 -0.944824 0
M  V30 2541 O 230.729 1.57485 -1.25541 0
M  V30 2542 C 227.794 2.49139 -2.41103 0
M  V30 2543 C 226.855 2.28688 -3.63318 0
M  V30 2544 C 226.088 3.53431 -3.99903 0
M  V30 2545 O 226.311 4.60223 -3.36973 0
M  V30 2546 O 225.245 3.45198 -4.93074 0
M  V30 2547 H 229.071 0.824069 -2.92306 0
M  V30 2548 H 226.656 0.341745 -1.45439 0
M  V30 2549 H 228.538 3.26338 -2.66611 0
M  V30 2550 H 227.213 2.84382 -1.54624 0
M  V30 2551 H 226.12 1.4939 -3.42977 0
M  V30 2552 H 227.453 1.98355 -4.50462 0
M  V30 2553 N 229.106 1.52395 0.401703 0
M  V30 2554 C 230.036 1.79231 1.49661 0
M  V30 2555 C 231.017 0.643654 1.57452 0
M  V30 2556 O 232.202 0.889989 1.72606 0
M  V30 2557 C 229.332 1.94971 2.87409 0
M  V30 2558 C 228.286 3.10604 2.94465 0
M  V30 2559 C 227.612 3.11577 4.34538 0
M  V30 2560 C 228.912 4.49921 2.6527 0
M  V30 2561 H 230.606 2.70917 1.27454 0
M  V30 2562 H 228.152 1.30362 0.6117 0
M  V30 2563 H 230.105 2.12328 3.63999 0
M  V30 2564 H 228.829 0.999632 3.10926 0
M  V30 2565 H 227.488 2.93009 2.20321 0
M  V30 2566 H 227.136 2.14277 4.55076 0
M  V30 2567 H 226.836 3.89247 4.40183 0
M  V30 2568 H 228.36 3.31073 5.13053 0
M  V30 2569 H 229.774 4.67683 3.31581 0
M  V30 2570 H 228.171 5.29564 2.82281 0
M  V30 2571 H 229.241 4.57507 1.60671 0
M  V30 2572 N 230.584 -0.659388 1.43143 0
M  V30 2573 C 231.532 -1.79374 1.4808 0
M  V30 2574 C 232.526 -1.65639 0.354988 0
M  V30 2575 O 233.732 -1.7206 0.528704 0
M  V30 2576 H 230.107 -0.591705 0.4641 0
M  V30 2577 H 232.078 -1.72329 2.43609 0
M  V30 2578 C 230.827 -3.17606 1.41499 0
M  V30 2579 H 230.15 -3.28809 2.27431 0
M  V30 2580 H 231.59 -3.96951 1.49015 0
M  V30 2581 C 230.049 -3.36642 0.131765 0
M  V30 2582 O 230.579 -3.93461 -0.809386 0
M  V30 2583 N 228.785 -2.90567 0.0439396 0
M  V30 2584 H 228.332 -2.44513 0.810619 0
M  V30 2585 H 228.29 -3.03681 -0.813969 0
M  V30 2586 N 232.062 -1.29571 -0.897171 0
M  V30 2587 C 232.972 -1.16808 -2.03453 0
M  V30 2588 C 233.988 -0.0907471 -1.73763 0
M  V30 2589 O 235.164 -0.303312 -1.99103 0
M  V30 2590 C 232.229 -0.848264 -3.36163 0
M  V30 2591 C 231.29 -2.0097 -3.79354 0
M  V30 2592 C 230.523 -1.70505 -5.05731 0
M  V30 2593 O 230.746 -0.62718 -5.66941 0
M  V30 2594 O 229.68 -2.5538 -5.45036 0
M  V30 2595 H 233.506 -2.12325 -2.17144 0
M  V30 2596 H 231.091 -1.09047 -1.02123 0
M  V30 2597 H 232.973 -0.684581 -4.15802 0
M  V30 2598 H 231.648 0.0771071 -3.23608 0
M  V30 2599 H 230.555 -2.22863 -3.00471 0
M  V30 2600 H 231.888 -2.91636 -3.96496 0
M  V30 2601 N 233.54 1.10788 -1.12088 0
M  V30 2602 C 234.789 1.82036 -0.868659 0
M  V30 2603 C 235.102 1.85929 0.607426 0
M  V30 2604 O 236.308 2.53346 0.97613 0
M  V30 2605 C 234.764 3.26951 -1.50435 0
M  V30 2606 C 234.372 3.31367 -3.01496 0
M  V30 2607 C 236.116 4.03053 -1.33225 0
M  V30 2608 C 234.023 4.7072 -3.58017 0
M  V30 2609 H 232.953 0.682108 -0.321318 0
M  V30 2610 H 235.604 1.24618 -1.34694 0
M  V30 2611 H 233.986 3.84343 -0.953735 0
M  V30 2612 H 235.16 2.83819 -3.6302 0
M  V30 2613 H 233.475 2.6875 -3.18061 0
M  V30 2614 H 236.072 5.05981 -1.72878 0
M  V30 2615 H 236.415 4.15387 -0.275529 0
M  V30 2616 H 236.948 3.52066 -1.85188 0
M  V30 2617 H 233.687 4.63585 -4.63432 0
M  V30 2618 H 233.207 5.1865 -3.01268 0
M  V30 2619 H 234.886 5.39685 -3.56859 0
M  V30 2620 N 235.018 0.912232 1.28515 0
M  V30 2621 C 236.429 0.591352 1.77087 0
M  V30 2622 C 236.78 -0.8933 1.74684 0
M  V30 2623 O 235.905 -1.69876 1.34056 0
M  V30 2624 C 236.5 1.06668 3.2157 0
M  V30 2625 C 235.059 0.79675 3.67871 0
M  V30 2626 C 234.206 1.23427 2.48316 0
M  V30 2627 H 237.157 1.09365 1.15 0
M  V30 2628 H 237.178 0.407455 3.78312 0
M  V30 2629 H 236.69 2.14726 3.23287 0
M  V30 2630 H 234.791 -0.270679 3.71616 0
M  V30 2631 H 234.904 1.40343 4.58084 0
M  V30 2632 H 233.268 0.653036 2.46186 0
M  V30 2633 H 234.051 2.32316 2.52753 0
M  V30 2634 N 236.496 -1.42363 0.676048 0
M  V30 2635 C 237.443 -2.308 -0.00150904 0
M  V30 2636 C 238.413 -1.46032 -0.791444 0
M  V30 2637 O 239.598 -1.74861 -0.76344 0
M  V30 2638 C 236.738 -3.31883 -0.945919 0
M  V30 2639 C 235.851 -4.31741 -0.149675 0
M  V30 2640 C 234.986 -5.19898 -1.08995 0
M  V30 2641 C 234.025 -6.11434 -0.285465 0
M  V30 2642 N 233.162 -6.92138 -1.17851 0
M  V30 2643 H 238.002 -2.88187 0.758455 0
M  V30 2644 H 235.539 -1.41952 0.38576 0
M  V30 2645 H 237.497 -3.89019 -1.50731 0
M  V30 2646 H 236.127 -2.76093 -1.6725 0
M  V30 2647 H 235.179 -3.76713 0.528359 0
M  V30 2648 H 236.491 -4.96534 0.474866 0
M  V30 2649 H 235.645 -5.81772 -1.72123 0
M  V30 2650 H 234.384 -4.55284 -1.74837 0
M  V30 2651 H 233.389 -5.48627 0.359018 0
M  V30 2652 H 234.614 -6.78097 0.368883 0
M  V30 2653 H 232.56 -6.30152 -1.82332 0
M  V30 2654 H 232.477 -7.53542 -0.609082 0
M  V30 2655 H 233.745 -7.58499 -1.79722 0
M  V30 2656 N 237.974 -0.419461 -1.51915 0
M  V30 2657 C 239.385 0.0477853 -1.86639 0
M  V30 2658 C 239.736 1.43531 -1.33766 0
M  V30 2659 O 238.861 2.05401 -0.68113 0
M  V30 2660 C 239.456 0.0934885 -3.38671 0
M  V30 2661 C 238.015 0.505097 -3.72996 0
M  V30 2662 C 237.162 -0.313792 -2.75519 0
M  V30 2663 H 240.113 -0.636088 -1.45395 0
M  V30 2664 H 240.134 0.906667 -3.6954 0
M  V30 2665 H 239.646 -0.916501 -3.77123 0
M  V30 2666 H 237.747 1.52135 -3.40126 0
M  V30 2667 H 237.86 0.242309 -4.78487 0
M  V30 2668 H 236.224 0.225363 -2.53701 0
M  V30 2669 H 237.007 -1.32232 -3.16812 0
M  V30 2670 N 239.452 1.56882 -0.150215 0
M  V30 2671 C 240.682 2.00302 0.506213 0
M  V30 2672 C 241.09 1.02934 1.58749 0
M  V30 2673 O 240.433 0.0188384 1.8369 0
M  V30 2674 C 240.495 3.40156 1.16337 0
M  V30 2675 C 240.159 4.56439 0.226311 0
M  V30 2676 C 241.156 5.17012 -0.547265 0
M  V30 2677 C 238.841 5.02136 0.128279 0
M  V30 2678 C 240.835 6.21693 -1.40629 0
M  V30 2679 C 238.522 6.06672 -0.734345 0
M  V30 2680 C 239.52 6.6632 -1.50023 0
M  V30 2681 O 239.208 7.68831 -2.34848 0
M  V30 2682 H 238.94 0.662182 0.135984 0
M  V30 2683 H 241.494 2.03961 -0.242746 0
M  V30 2684 H 239.724 3.33346 1.96004 0
M  V30 2685 H 241.413 3.67663 1.71985 0
M  V30 2686 H 242.179 4.82603 -0.48158 0
M  V30 2687 H 238.058 4.55435 0.714157 0
M  V30 2688 H 241.602 6.68179 -2.00455 0
M  V30 2689 H 237.499 6.40507 -0.801309 0
M  V30 2690 H 238.267 7.86065 -2.28131 0
M  V30 2691 N 240.93 -0.123565 1.57115 0
M  V30 2692 C 241.877 -1.15177 2.00007 0
M  V30 2693 C 242.847 -1.41403 0.871454 0
M  V30 2694 O 244.032 -1.53346 1.13533 0
M  V30 2695 C 241.172 -2.47436 2.40561 0
M  V30 2696 C 240.285 -2.28184 3.66819 0
M  V30 2697 C 239.42 -3.53641 3.96373 0
M  V30 2698 C 238.459 -3.29528 5.15827 0
M  V30 2699 N 237.596 -4.47175 5.41275 0
M  V30 2700 H 242.436 -0.779008 2.87638 0
M  V30 2701 H 239.973 -0.373166 1.42288 0
M  V30 2702 H 241.931 -3.24584 2.62109 0
M  V30 2703 H 240.561 -2.82614 1.55978 0
M  V30 2704 H 239.613 -1.41976 3.52912 0
M  V30 2705 H 240.925 -2.0634 4.5412 0
M  V30 2706 H 240.079 -4.39209 4.18545 0
M  V30 2707 H 238.818 -3.78512 3.07538 0
M  V30 2708 H 237.823 -2.42349 4.93505 0
M  V30 2709 H 239.048 -3.06031 6.06236 0
M  V30 2710 H 236.994 -4.72175 4.55397 0
M  V30 2711 H 236.911 -4.28419 6.22891 0
M  V30 2712 H 238.179 -5.3389 5.67963 0
M  V30 2713 N 242.408 -1.52605 -0.393616 0
M  V30 2714 C 243.656 -1.67093 -1.13685 0
M  V30 2715 C 243.977 -0.411011 -1.90619 0
M  V30 2716 O 243.247 0.574491 -1.87287 0
M  V30 2717 H 241.827 -0.615923 -0.422668 0
M  V30 2718 H 244.489 -1.89704 -0.447039 0
M  V30 2719 H 243.585 -2.51922 -1.84232 0
M  V30 2720 N 243.887 0.651787 -1.4349 0
M  V30 2721 C 245.133 1.41376 -1.45398 0
M  V30 2722 C 245.466 1.94041 -0.0784823 0
M  V30 2723 O 244.741 1.72379 0.900878 0
M  V30 2724 C 245.024 2.59414 -2.49752 0
M  V30 2725 C 244.877 2.12232 -3.96582 0
M  V30 2726 C 246.196 3.61626 -2.50827 0
M  V30 2727 H 243.315 0.512719 -0.529422 0
M  V30 2728 H 245.957 0.738796 -1.75048 0
M  V30 2729 H 244.107 3.16997 -2.246 0
M  V30 2730 H 245.779 1.59639 -4.32797 0
M  V30 2731 H 244.022 1.43592 -4.09346 0
M  V30 2732 H 244.693 2.9712 -4.65214 0
M  V30 2733 H 247.169 3.13805 -2.7325 0
M  V30 2734 H 246.045 4.41766 -3.25783 0
M  V30 2735 H 246.306 4.14314 -1.5426 0
M  V30 2736 N 245.365 1.30045 0.890287 0
M  V30 2737 C 246.312 1.15976 1.99545 0
M  V30 2738 C 247.282 0.0506202 1.66023 0
M  V30 2739 O 248.467 0.219847 1.89529 0
M  V30 2740 C 245.607 0.852054 3.34416 0
M  V30 2741 C 244.72 2.04255 3.80662 0
M  V30 2742 C 243.855 1.6734 5.04154 0
M  V30 2743 C 242.894 2.82916 5.42794 0
M  V30 2744 N 242.031 2.46333 6.57468 0
M  V30 2745 H 246.871 2.10524 2.10911 0
M  V30 2746 H 244.408 1.04749 1.03276 0
M  V30 2747 H 246.366 0.654296 4.12037 0
M  V30 2748 H 244.996 -0.0565502 3.2275 0
M  V30 2749 H 244.048 2.35172 2.98995 0
M  V30 2750 H 245.36 2.90826 4.05242 0
M  V30 2751 H 244.514 1.43908 5.89386 0
M  V30 2752 H 243.253 0.779308 4.81433 0
M  V30 2753 H 242.258 3.0702 4.56091 0
M  V30 2754 H 243.483 3.73004 5.6749 0
M  V30 2755 H 241.429 1.59423 6.36334 0
M  V30 2756 H 241.346 3.26436 6.81891 0
M  V30 2757 H 242.614 2.26244 7.45945 0
M  V30 2758 N 246.843 -1.10192 1.12674 0
M  V30 2759 C 248.089 -1.82475 0.884915 0
M  V30 2760 C 248.422 -1.85093 -0.58773 0
M  V30 2761 O 247.697 -1.3134 -1.43457 0
M  V30 2762 C 247.98 -3.29018 1.46353 0
M  V30 2763 C 247.833 -3.34718 3.00473 0
M  V30 2764 C 249.152 -4.25473 1.12519 0
M  V30 2765 H 246.271 -0.662492 0.322915 0
M  V30 2766 H 248.913 -1.2913 1.39375 0
M  V30 2767 H 247.063 -3.74576 1.03077 0
M  V30 2768 H 248.735 -2.97622 3.52447 0
M  V30 2769 H 246.978 -2.74541 3.35872 0
M  V30 2770 H 247.649 -4.37918 3.36053 0
M  V30 2771 H 250.125 -3.88161 1.499 0
M  V30 2772 H 249.001 -5.26365 1.55663 0
M  V30 2773 H 249.262 -4.42084 0.0377407 0
M  V30 2774 N 248.321 -0.919034 -1.28029 0
M  V30 2775 C 249.568 -0.554934 -1.94748 0
M  V30 2776 C 249.896 0.90231 -1.72304 0
M  V30 2777 O 249.151 1.65767 -1.04018 0
M  V30 2778 C 249.45 -0.816855 -3.4794 0
M  V30 2779 C 249.116 -2.25448 -3.90492 0
M  V30 2780 C 247.778 -2.64752 -4.01821 0
M  V30 2781 C 250.13 -3.18977 -4.12193 0
M  V30 2782 C 247.458 -3.96727 -4.32232 0
M  V30 2783 C 249.81 -4.50523 -4.44086 0
M  V30 2784 C 248.474 -4.89673 -4.53626 0
M  V30 2785 H 247.744 -0.203065 -0.712633 0
M  V30 2786 H 250.391 -1.16136 -1.52265 0
M  V30 2787 H 248.696 -0.127677 -3.91592 0
M  V30 2788 H 250.393 -0.514238 -3.97689 0
M  V30 2789 H 246.983 -1.93952 -3.82205 0
M  V30 2790 H 251.167 -2.89817 -4.02889 0
M  V30 2791 H 246.423 -4.26754 -4.37825 0
M  V30 2792 H 250.597 -5.23005 -4.59825 0
M  V30 2793 H 248.224 -5.91969 -4.76946 0
M  V30 2794 N 249.799 1.42003 -0.683588 0
M  V30 2795 C 250.729 2.33487 -0.024866 0
M  V30 2796 C 251.71 1.51163 0.779975 0
M  V30 2797 O 252.895 1.79739 0.735362 0
M  V30 2798 C 250.025 3.3487 0.920836 0
M  V30 2799 C 248.979 4.27414 0.223958 0
M  V30 2800 C 248.305 5.19074 1.2832 0
M  V30 2801 C 249.605 5.14445 -0.90242 0
M  V30 2802 H 251.299 2.88819 -0.788921 0
M  V30 2803 H 248.845 1.38873 -0.38083 0
M  V30 2804 H 250.798 3.97787 1.39081 0
M  V30 2805 H 249.522 2.77861 1.71642 0
M  V30 2806 H 248.181 3.65904 -0.225864 0
M  V30 2807 H 247.829 4.58387 2.071 0
M  V30 2808 H 247.529 5.81822 0.821995 0
M  V30 2809 H 249.053 5.84867 1.75392 0
M  V30 2810 H 250.467 5.70998 -0.513272 0
M  V30 2811 H 248.864 5.86072 -1.28997 0
M  V30 2812 H 249.934 4.52322 -1.74737 0
M  V30 2813 N 251.277 0.427512 1.51691 0
M  V30 2814 C 252.209 -0.424521 2.25234 0
M  V30 2815 C 253.222 -0.994671 1.2888 0
M  V30 2816 O 254.411 -0.890483 1.54702 0
M  V30 2817 C 251.511 -1.60479 2.98496 0
M  V30 2818 C 250.684 -1.15527 4.21868 0
M  V30 2819 C 249.743 -2.20454 4.77793 0
M  V30 2820 O 248.769 -1.8029 5.39893 0
M  V30 2821 N 249.971 -3.52831 4.60967 0
M  V30 2822 H 252.736 0.205749 2.98993 0
M  V30 2823 H 250.297 0.255867 1.59865 0
M  V30 2824 H 252.289 -2.30276 3.32799 0
M  V30 2825 H 250.859 -2.14061 2.27809 0
M  V30 2826 H 250.079 -0.284736 3.9317 0
M  V30 2827 H 251.367 -0.832173 5.01949 0
M  V30 2828 H 250.765 -3.88201 4.11481 0
M  V30 2829 H 249.322 -4.18551 4.99658 0
M  V30 2830 N 252.755 -1.56801 0.158532 0
M  V30 2831 C 254.032 -1.88131 -0.535357 0
M  V30 2832 C 254.412 -1.06638 -1.82186 0
M  V30 2833 O 253.76 -0.156533 -2.27963 0
M  V30 2834 C 253.97 -3.39949 -0.789653 0
M  V30 2835 C 255.318 -4.09416 -1.12533 0
M  V30 2836 O 256.342 -3.45194 -0.878622 0
M  V30 2837 O 255.201 -5.22855 -1.59014 0
M  V30 2838 H 252.295 -0.780143 -0.27442 0
M  V30 2839 H 254.841 -1.68564 0.19601 0
M  V30 2840 H 253.613 -3.91115 0.120353 0
M  V30 2841 H 253.236 -3.65084 -1.57479 0
M  V30 2842 N 254.233 0.115231 -1.57178 0
M  V30 2843 C 255.18 1.14115 -2.00615 0
M  V30 2844 C 256.15 1.40939 -0.878941 0
M  V30 2845 O 257.335 1.52741 -1.14345 0
M  V30 2846 C 254.475 2.46156 -2.4187 0
M  V30 2847 C 253.588 2.26236 -3.68024 0
M  V30 2848 C 252.723 3.51534 -3.98243 0
M  V30 2849 C 251.762 3.26787 -5.17568 0
M  V30 2850 N 250.899 4.44298 -5.43639 0
M  V30 2851 H 255.739 0.763743 -2.88047 0
M  V30 2852 H 253.276 0.365615 -1.42484 0
M  V30 2853 H 255.234 3.23189 -2.63827 0
M  V30 2854 H 253.864 2.81783 -1.57475 0
M  V30 2855 H 252.916 1.40102 -3.5366 0
M  V30 2856 H 254.228 2.03929 -4.55208 0
M  V30 2857 H 253.382 4.36984 -4.20868 0
M  V30 2858 H 252.121 3.76876 -3.09541 0
M  V30 2859 H 251.126 2.39729 -4.94783 0
M  V30 2860 H 252.351 3.02812 -6.0785 0
M  V30 2861 H 250.297 4.69754 -4.57895 0
M  V30 2862 H 250.214 4.25109 -6.25154 0
M  V30 2863 H 251.482 5.3087 -5.70786 0
M  V30 2864 N 255.711 1.52812 0.385517 0
M  V30 2865 C 256.957 1.69225 1.12847 0
M  V30 2866 C 257.312 0.42864 1.87564 0
M  V30 2867 O 256.605 -0.57779 1.8268 0
M  V30 2868 C 256.799 2.86856 2.13187 0
M  V30 2869 C 256.628 4.24535 1.48325 0
M  V30 2870 C 255.398 4.89701 1.24585 0
M  V30 2871 C 257.596 5.05794 0.931501 0
M  V30 2872 N 255.578 6.11353 0.558644 0
M  V30 2873 C 256.949 6.1888 0.372552 0
M  V30 2874 C 259.004 4.90963 0.828248 0
M  V30 2875 C 257.707 7.18757 -0.279556 0
M  V30 2876 C 259.733 5.91095 0.189956 0
M  V30 2877 C 259.095 7.03489 -0.358207 0
M  V30 2878 H 255.194 0.67268 0.39878 0
M  V30 2879 H 257.778 1.9017 0.417528 0
M  V30 2880 H 255.949 2.67484 2.81614 0
M  V30 2881 H 257.681 2.92188 2.80014 0
M  V30 2882 H 254.436 4.48485 1.52178 0
M  V30 2883 H 254.86 6.76606 0.230983 0
M  V30 2884 H 259.502 4.04274 1.23784 0
M  V30 2885 H 257.22 8.05052 -0.701152 0
M  V30 2886 H 260.806 5.81694 0.111264 0
M  V30 2887 H 259.686 7.79642 -0.844314 0
M  V30 2888 N 257.189 -0.644168 1.43834 0
M  V30 2889 C 258.435 -1.40603 1.46146 0
M  V30 2890 C 258.768 -1.93997 0.0887717 0
M  V30 2891 O 258.043 -1.72854 -0.891724 0
M  V30 2892 C 258.326 -2.58086 2.51124 0
M  V30 2893 C 258.179 -2.10126 3.97702 0
M  V30 2894 C 259.498 -3.60291 2.52742 0
M  V30 2895 H 256.617 -0.509905 0.532134 0
M  V30 2896 H 259.259 -0.729502 1.75437 0
M  V30 2897 H 257.409 -3.15801 2.26278 0
M  V30 2898 H 259.081 -1.57342 4.33637 0
M  V30 2899 H 257.324 -1.41419 4.10101 0
M  V30 2900 H 257.995 -2.94649 4.66783 0
M  V30 2901 H 260.471 -3.12352 2.7491 0
M  V30 2902 H 259.347 -4.40032 3.28121 0
M  V30 2903 H 259.608 -4.1349 1.56455 0
M  V30 2904 N 258.668 -1.30515 -0.883378 0
M  V30 2905 C 259.917 -1.18795 -1.63005 0
M  V30 2906 C 260.23 0.255923 -1.93919 0
M  V30 2907 O 261.436 0.494654 -2.66956 0
M  V30 2908 C 259.892 -2.07878 -2.93794 0
M  V30 2909 C 259.5 -3.57184 -2.70414 0
M  V30 2910 C 261.244 -2.04924 -3.71761 0
M  V30 2911 C 259.151 -4.38317 -3.97029 0
M  V30 2912 H 258.081 -0.441031 -0.611562 0
M  V30 2913 H 260.732 -1.55275 -0.977854 0
M  V30 2914 H 259.114 -1.64283 -3.60315 0
M  V30 2915 H 260.288 -4.08937 -2.12384 0
M  V30 2916 H 258.603 -3.61976 -2.0582 0
M  V30 2917 H 261.2 -2.62792 -4.65665 0
M  V30 2918 H 261.543 -1.0331 -4.03277 0
M  V30 2919 H 262.076 -2.46649 -3.12104 0
M  V30 2920 H 258.815 -5.40632 -3.70671 0
M  V30 2921 H 258.335 -3.91326 -4.54559 0
M  V30 2922 H 260.014 -4.49834 -4.65036 0
M  V30 2923 N 260.146 1.09593 -1.13257 0
M  V30 2924 C 261.109 2.14359 -0.811358 0
M  V30 2925 C 262.109 1.59808 0.178377 0
M  V30 2926 O 263.299 1.74132 -0.0484911 0
M  V30 2927 C 260.431 3.40269 -0.207276 0
M  V30 2928 H 261.624 2.44284 -1.73969 0
M  V30 2929 H 259.177 1.25102 -0.936973 0
M  V30 2930 H 259.912 3.15969 0.73036 0
M  V30 2931 H 259.697 3.81154 -0.919992 0
M  V30 2932 H 261.187 4.176 0.000667944 0
M  V30 2933 N 261.624 0.925811 1.2754 0
M  V30 2934 C 262.872 0.564138 1.94067 0
M  V30 2935 C 263.193 -0.897188 1.73134 0
M  V30 2936 O 262.463 -1.63573 1.07799 0
M  V30 2937 H 261.043 0.205645 0.718136 0
M  V30 2938 H 263.705 1.1778 1.55287 0
M  V30 2939 H 262.801 0.76881 3.02483 0
M  V30 2940 N 263.102 -1.41638 0.69111 0
M  V30 2941 C 264.379 -1.95036 0.148421 0
M  V30 2942 C 264.759 -1.63072 -1.34055 0
M  V30 2943 O 264.107 -0.93538 -2.08478 0
M  V30 2944 C 264.317 -3.46279 0.434951 0
M  V30 2945 C 265.665 -4.23069 0.360275 0
M  V30 2946 O 266.689 -3.54277 0.369613 0
M  V30 2947 O 265.548 -5.45583 0.316534 0
M  V30 2948 H 262.642 -0.826908 0.0123654 0
M  V30 2949 H 265.188 -1.5138 0.766963 0
M  V30 2950 H 263.96 -3.6281 1.46576 0
M  V30 2951 H 263.583 -3.97019 -0.214787 0
M  V30 2952 N 264.58 -0.43555 -1.51462 0
M  V30 2953 C 265.51 0.367376 -2.30592 0
M  V30 2954 C 266.491 1.02263 -1.35928 0
M  V30 2955 O 267.676 1.02661 -1.64847 0
M  V30 2956 C 264.806 1.46983 -3.14664 0
M  V30 2957 C 263.76 0.938161 -4.17591 0
M  V30 2958 C 263.086 2.13622 -4.90173 0
M  V30 2959 C 264.386 -0.0261621 -5.22293 0
M  V30 2960 H 266.08 -0.292969 -2.97963 0
M  V30 2961 H 263.626 -0.14234 -1.43295 0
M  V30 2962 H 265.579 2.03873 -3.688 0
M  V30 2963 H 264.303 2.15843 -2.4511 0
M  V30 2964 H 262.962 0.391481 -3.64504 0
M  V30 2965 H 262.61 2.81098 -4.17124 0
M  V30 2966 H 262.31 1.78688 -5.59772 0
M  V30 2967 H 263.834 2.7107 -5.47132 0
M  V30 2968 H 265.248 0.452384 -5.71512 0
M  V30 2969 H 263.645 -0.287992 -5.99409 0
M  V30 2970 H 264.715 -0.963391 -4.75233 0
M  V30 2971 N 266.058 1.56714 -0.166846 0
M  V30 2972 C 267.021 2.16539 0.751232 0
M  V30 2973 C 268.021 1.11228 1.16125 0
M  V30 2974 O 269.211 1.36765 1.07894 0
M  V30 2975 C 266.343 2.74462 2.02196 0
M  V30 2976 H 267.536 2.99013 0.230499 0
M  V30 2977 H 265.089 1.56081 0.0826982 0
M  V30 2978 H 265.824 1.95709 2.58589 0
M  V30 2979 H 265.609 3.51527 1.73698 0
M  V30 2980 H 267.099 3.20489 2.67725 0
M  V30 2981 N 267.536 -0.106894 1.57237 0
M  V30 2982 C 268.784 -0.810921 1.85117 0
M  V30 2983 C 269.105 -1.7984 0.753827 0
M  V30 2984 O 268.375 -1.94649 -0.221056 0
M  V30 2985 H 266.955 -0.302466 0.683025 0
M  V30 2986 H 269.617 -0.0913324 1.94686 0
M  V30 2987 H 268.713 -1.34875 2.81452 0
M  V30 2988 N 269.014 -1.53014 -0.377408 0
M  V30 2989 C 270.239 -1.72818 -1.14668 0
M  V30 2990 C 270.664 -0.450725 -1.8262 0
M  V30 2991 O 270.022 0.59439 -1.7128 0
M  V30 2992 C 270.07 -2.88627 -2.16164 0
M  V30 2993 O 269.174 -2.56409 -3.22998 0
M  V30 2994 H 268.515 -0.574301 -0.333278 0
M  V30 2995 H 271.045 -1.99853 -0.438152 0
M  V30 2996 H 271.055 -3.14455 -2.59966 0
M  V30 2997 H 269.73 -3.81294 -1.66095 0
M  V30 2998 H 268.307 -2.4136 -2.84253 0
M  V30 2999 N 270.492 0.636531 -1.44174 0
M  V30 3000 C 271.74 1.39343 -1.46383 0
M  V30 3001 C 272.061 1.94766 -0.0955715 0
M  V30 3002 O 271.331 1.75452 0.871395 0
M  V30 3003 H 269.911 0.517199 -0.538994 0
M  V30 3004 H 272.573 0.74957 -1.7991 0
M  V30 3005 H 271.669 2.22746 -2.18611 0
M  V30 3006 N 271.97 1.30982 0.876444 0
M  V30 3007 C 272.918 1.18006 2.00443 0
M  V30 3008 C 273.912 0.0898871 1.69161 0
M  V30 3009 O 275.118 0.251333 1.78237 0
M  V30 3010 H 271.493 0.365196 0.65737 0
M  V30 3011 H 273.464 2.13453 2.0852 0
M  V30 3012 C 272.213 0.897521 3.35916 0
M  V30 3013 H 271.536 1.7285 3.60504 0
M  V30 3014 H 272.976 0.846874 4.15456 0
M  V30 3015 C 271.435 -0.399674 3.34521 0
M  V30 3016 O 271.965 -1.41852 3.7582 0
M  V30 3017 N 270.171 -0.413893 2.87637 0
M  V30 3018 H 269.718 0.41571 2.54224 0
M  V30 3019 H 269.676 -1.28175 2.87086 0
M  V30 3020 N 273.449 -1.08991 1.13837 0
M  V30 3021 C 274.677 -1.85011 0.926202 0
M  V30 3022 C 275.092 -1.8135 -0.525127 0
M  V30 3023 O 274.449 -1.21287 -1.36366 0
M  V30 3024 C 274.5 -3.32802 1.41155 0
M  V30 3025 O 274.221 -3.36444 2.80601 0
M  V30 3026 C 275.722 -4.25649 1.23847 0
M  V30 3027 H 272.942 -0.584249 0.32999 0
M  V30 3028 H 275.486 -1.37688 1.51202 0
M  V30 3029 H 273.641 -3.77536 0.868631 0
M  V30 3030 H 274.055 -4.28657 3.02248 0
M  V30 3031 H 275.529 -5.27485 1.62675 0
M  V30 3032 H 276.006 -4.38828 0.18065 0
M  V30 3033 H 276.612 -3.86735 1.76964 0
M  V30 3034 N 274.927 -0.932562 -1.27047 0
M  V30 3035 C 276.155 -0.592031 -1.98249 0
M  V30 3036 C 276.57 0.831062 -1.69525 0
M  V30 3037 O 275.927 1.55299 -0.958561 0
M  V30 3038 C 275.978 -0.814279 -3.5221 0
M  V30 3039 O 275.699 -2.18139 -3.7993 0
M  V30 3040 C 277.2 -0.483121 -4.4066 0
M  V30 3041 H 274.42 -0.223896 -0.632544 0
M  V30 3042 H 276.964 -1.25091 -1.61779 0
M  V30 3043 H 275.119 -0.20213 -3.86872 0
M  V30 3044 H 275.533 -2.235 -4.74498 0
M  V30 3045 H 277.007 -0.689298 -5.47679 0
M  V30 3046 H 277.484 0.581546 -4.35333 0
M  V30 3047 H 278.09 -1.07362 -4.11526 0
M  V30 3048 N 276.405 1.4127 -0.698611 0
M  V30 3049 C 277.353 2.32588 -0.023855 0
M  V30 3050 C 278.347 1.51128 0.765292 0
M  V30 3051 O 279.553 1.67043 0.670571 0
M  V30 3052 H 275.928 0.751918 0.0110871 0
M  V30 3053 H 277.899 2.87167 -0.811031 0
M  V30 3054 C 276.648 3.35947 0.896369 0
M  V30 3055 H 275.971 3.98684 0.298548 0
M  V30 3056 H 277.411 4.02376 1.33676 0
M  V30 3057 C 275.87 2.70076 2.01396 0
M  V30 3058 O 276.4 2.55093 3.10307 0
M  V30 3059 N 274.606 2.28724 1.79259 0
M  V30 3060 H 274.153 2.4111 0.906841 0
M  V30 3061 H 274.111 1.84986 2.54219 0
M  V30 3062 N 277.883 0.443576 1.51229 0
M  V30 3063 C 279.132 -0.122332 2.01329 0
M  V30 3064 C 279.445 -1.43237 1.33201 0
M  V30 3065 O 280.651 -2.0816 1.74304 0
M  V30 3066 C 279.107 -0.268551 3.58897 0
M  V30 3067 C 278.715 1.03142 4.35965 0
M  V30 3068 C 280.459 -0.787894 4.17124 0
M  V30 3069 C 278.366 0.850504 5.85252 0
M  V30 3070 H 277.296 -0.0494929 0.752374 0
M  V30 3071 H 279.947 0.574289 1.74282 0
M  V30 3072 H 278.329 -1.02832 3.82415 0
M  V30 3073 H 279.503 1.80001 4.24189 0
M  V30 3074 H 277.818 1.47977 3.89219 0
M  V30 3075 H 280.415 -0.939841 5.26375 0
M  V30 3076 H 280.758 -1.77201 3.76703 0
M  V30 3077 H 281.291 -0.0862669 3.97706 0
M  V30 3078 H 278.03 1.80718 6.30096 0
M  V30 3079 H 277.55 0.121825 5.99676 0
M  V30 3080 H 279.229 0.506163 6.45017 0
M  V30 3081 N 279.361 -1.56624 0.175154 0
M  V30 3082 C 280.609 -1.96609 -0.467885 0
M  V30 3083 C 280.93 -1.06238 -1.63519 0
M  V30 3084 O 280.2 -0.129523 -1.95471 0
M  V30 3085 H 278.78 -0.726008 -0.175845 0
M  V30 3086 H 281.442 -1.93195 0.257234 0
M  V30 3087 H 280.538 -3.00989 -0.825342 0
M  V30 3088 N 280.839 0.0985539 -1.57292 0
M  V30 3089 C 282.064 0.820196 -1.90493 0
M  V30 3090 C 282.489 1.71658 -0.769094 0
M  V30 3091 O 281.847 1.79133 0.279495 0
M  V30 3092 C 281.895 1.61242 -3.22542 0
M  V30 3093 O 280.999 2.72108 -3.09888 0
M  V30 3094 H 280.34 0.225547 -0.62452 0
M  V30 3095 H 282.87 0.0748159 -2.04463 0
M  V30 3096 H 282.88 1.99737 -3.55766 0
M  V30 3097 H 281.555 0.954535 -4.04798 0
M  V30 3098 H 280.132 2.36667 -2.88172 0
M  V30 3099 N 282.317 1.53212 0.369288 0
M  V30 3100 C 283.566 1.68436 1.10961 0
M  V30 3101 C 283.879 0.440738 1.9057 0
M  V30 3102 O 285.085 0.473446 2.6734 0
M  V30 3103 C 283.541 2.97744 2.0218 0
M  V30 3104 C 283.149 4.29355 1.279 0
M  V30 3105 C 284.893 3.22334 2.76226 0
M  V30 3106 C 282.8 5.49755 2.17999 0
M  V30 3107 H 281.73 0.627568 0.41794 0
M  V30 3108 H 284.381 1.79713 0.370884 0
M  V30 3109 H 282.763 2.8026 2.79768 0
M  V30 3110 H 283.937 4.57458 0.554007 0
M  V30 3111 H 282.252 4.11179 0.657311 0
M  V30 3112 H 284.849 4.09471 3.43857 0
M  V30 3113 H 285.192 2.38238 3.41392 0
M  V30 3114 H 285.725 3.40475 2.05723 0
M  V30 3115 H 282.464 6.36318 1.57417 0
M  V30 3116 H 281.984 5.25937 2.88359 0
M  V30 3117 H 283.663 5.84401 2.77641 0
M  V30 3118 N 283.795 -0.628877 1.44509 0
M  V30 3119 C 284.745 -1.7345 1.47983 0
M  V30 3120 C 285.729 -1.5715 0.345373 0
M  V30 3121 O 286.921 -1.66848 0.590829 0
M  V30 3122 C 284.05 -3.12143 1.42904 0
M  V30 3123 C 283.136 -3.33906 2.61472 0
M  V30 3124 N 283.527 -3.26024 3.86706 0
M  V30 3125 C 281.825 -3.64709 2.56716 0
M  V30 3126 C 282.526 -3.48536 4.65722 0
M  V30 3127 N 281.502 -3.71517 3.96832 0
M  V30 3128 H 285.304 -1.65818 2.42655 0
M  V30 3129 H 282.818 -0.831419 1.39503 0
M  V30 3130 H 284.815 -3.91433 1.43476 0
M  V30 3131 H 283.475 -3.2094 0.492717 0
M  V30 3132 H 284.486 -3.04893 4.18641 0
M  V30 3133 H 281.163 -3.80473 1.71891 0
M  V30 3134 H 282.553 -3.48016 5.74747 0
M  V30 3135 N 285.273 -1.31445 -0.869486 0
M  V30 3136 C 286.236 -1.19094 -1.9583 0
M  V30 3137 C 287.236 -0.117906 -1.60367 0
M  V30 3138 O 288.426 -0.367208 -1.70286 0
M  V30 3139 C 285.558 -0.828165 -3.30688 0
M  V30 3140 H 286.751 -2.15842 -2.08212 0
M  V30 3141 H 284.304 -1.15063 -1.05784 0
M  V30 3142 H 285.039 0.138142 -3.24006 0
M  V30 3143 H 284.824 -1.6038 -3.578 0
M  V30 3144 H 286.314 -0.765658 -4.10521 0
M  V30 3145 N 286.751 1.08385 -1.14413 0
M  V30 3146 C 287.701 2.13509 -0.79987 0
M  V30 3147 C 288.685 1.5951 0.211059 0
M  V30 3148 O 289.877 1.76995 0.0133694 0
M  V30 3149 C 287.006 3.42162 -0.279297 0
M  V30 3150 C 286.092 4.03042 -1.31976 0
M  V30 3151 N 286.483 4.38327 -2.52395 0
M  V30 3152 C 284.781 4.30379 -1.17004 0
M  V30 3153 C 285.482 4.86428 -3.19003 0
M  V30 3154 N 284.458 4.84547 -2.46405 0
M  V30 3155 H 288.26 2.38609 -1.7159 0
M  V30 3156 H 285.774 1.2572 -1.02802 0
M  V30 3157 H 287.771 4.16898 -0.0143688 0
M  V30 3158 H 286.431 3.18511 0.630923 0
M  V30 3159 H 287.442 4.29349 -2.89621 0
M  V30 3160 H 284.119 4.16281 -0.318854 0
M  V30 3161 H 285.509 5.23107 -4.21674 0
M  V30 3162 N 288.23 0.939286 1.26551 0
M  V30 3163 C 289.46 0.601663 1.97645 0
M  V30 3164 C 289.868 -0.827206 1.70159 0
M  V30 3165 O 289.211 -1.56291 0.965338 0
M  V30 3166 C 289.273 0.761725 3.51337 0
M  V30 3167 C 288.937 2.16487 4.0247 0
M  V30 3168 C 289.934 3.14016 4.14355 0
M  V30 3169 C 287.619 2.48494 4.36527 0
M  V30 3170 C 289.613 4.41654 4.59587 0
M  V30 3171 C 287.3 3.76364 4.81449 0
M  V30 3172 C 288.298 4.72758 4.92939 0
M  V30 3173 O 287.986 5.98352 5.36871 0
M  V30 3174 H 287.718 0.225758 0.637189 0
M  V30 3175 H 290.272 1.26178 1.62075 0
M  V30 3176 H 288.502 0.0444808 3.86674 0
M  V30 3177 H 290.191 0.427442 4.03643 0
M  V30 3178 H 290.957 2.90613 3.8829 0
M  V30 3179 H 286.836 1.74202 4.26819 0
M  V30 3180 H 290.38 5.16896 4.68471 0
M  V30 3181 H 286.277 3.99582 5.06956 0
M  V30 3182 H 287.045 6.01507 5.55096 0
M  V30 3183 N 289.708 -1.40897 0.706093 0
M  V30 3184 C 290.655 -2.30751 0.0474474 0
M  V30 3185 C 291.625 -1.47678 -0.76029 0
M  V30 3186 O 292.81 -1.76441 -0.726177 0
M  V30 3187 C 289.95 -3.33815 -0.875309 0
M  V30 3188 C 289.063 -4.31961 -0.0580623 0
M  V30 3189 C 288.198 -5.22093 -0.979425 0
M  V30 3190 C 287.237 -6.11902 -0.155706 0
M  V30 3191 N 286.374 -6.94482 -1.03144 0
M  V30 3192 H 291.214 -2.86513 0.819413 0
M  V30 3193 H 288.751 -1.41102 0.415783 0
M  V30 3194 H 290.709 -3.92129 -1.42446 0
M  V30 3195 H 289.339 -2.79579 -1.61356 0
M  V30 3196 H 288.391 -3.75507 0.608147 0
M  V30 3197 H 289.703 -4.95415 0.580082 0
M  V30 3198 H 288.857 -5.85292 -1.59744 0
M  V30 3199 H 287.596 -4.5889 -1.65141 0
M  V30 3200 H 286.601 -5.47742 0.475309 0
M  V30 3201 H 287.826 -6.77162 0.512635 0
M  V30 3202 H 285.772 -6.33877 -1.68924 0
M  V30 3203 H 285.689 -7.54665 -0.449108 0
M  V30 3204 H 286.957 -7.6214 -1.63593 0
M  V30 3205 N 291.186 -0.45159 -1.50991 0
M  V30 3206 C 292.463 0.170707 -1.94854 0
M  V30 3207 C 292.843 1.58788 -1.39103 0
M  V30 3208 O 292.191 2.20913 -0.583921 0
M  V30 3209 C 292.401 0.133929 -3.48743 0
M  V30 3210 C 293.749 0.33248 -4.23296 0
M  V30 3211 O 294.773 0.211403 -3.55572 0
M  V30 3212 O 293.632 0.57486 -5.43468 0
M  V30 3213 H 290.726 0.122264 -0.817912 0
M  V30 3214 H 293.272 -0.510594 -1.61836 0
M  V30 3215 H 292.044 -0.856283 -3.81816 0
M  V30 3216 H 291.667 0.857529 -3.88242 0
M  V30 3217 N 292.664 1.56529 -0.183458 0
M  V30 3218 C 293.911 1.97244 0.458357 0
M  V30 3219 C 294.239 1.06992 1.62428 0
M  V30 3220 O 293.494 0.106542 1.9541 0
M  V30 3221 C 293.793 3.43939 0.971637 0
M  V30 3222 C 293.459 4.5083 -0.0796784 0
M  V30 3223 C 292.121 4.79786 -0.368584 0
M  V30 3224 C 294.473 5.15138 -0.792638 0
M  V30 3225 C 291.801 5.70345 -1.37563 0
M  V30 3226 C 294.153 6.06784 -1.78875 0
M  V30 3227 C 292.817 6.34102 -2.08497 0
M  V30 3228 H 292.087 0.721768 0.167725 0
M  V30 3229 H 294.734 1.89472 -0.277976 0
M  V30 3230 H 293.039 3.48724 1.78602 0
M  V30 3231 H 294.736 3.72791 1.47744 0
M  V30 3232 H 291.326 4.28317 0.155668 0
M  V30 3233 H 295.51 4.92868 -0.582659 0
M  V30 3234 H 290.766 5.89789 -1.61118 0
M  V30 3235 H 294.94 6.55677 -2.3465 0
M  V30 3236 H 292.567 7.04074 -2.86678 0
M  V30 3237 N 294.142 -0.090211 1.57342 0
M  V30 3238 C 295.388 -0.793982 1.86611 0
M  V30 3239 C 295.721 -1.78142 0.773252 0
M  V30 3240 O 294.996 -1.93271 -0.218304 0
M  V30 3241 C 295.279 -1.51839 3.26523 0
M  V30 3242 C 295.132 -0.548609 4.46442 0
M  V30 3243 C 296.451 -2.46779 3.64401 0
M  V30 3244 H 293.57 -0.287186 0.678744 0
M  V30 3245 H 296.212 -0.0575076 1.89913 0
M  V30 3246 H 294.362 -2.14617 3.23839 0
M  V30 3247 H 296.034 0.0725513 4.61243 0
M  V30 3248 H 294.277 0.137614 4.33582 0
M  V30 3249 H 294.948 -1.09271 5.41076 0
M  V30 3250 H 297.424 -1.94089 3.68061 0
M  V30 3251 H 296.3 -2.94479 4.63221 0
M  V30 3252 H 296.561 -3.30758 2.93346 0
M  V30 3253 N 295.62 -1.53406 -0.361157 0
M  V30 3254 C 296.53 -1.83122 -1.4664 0
M  V30 3255 C 297.546 -0.719943 -1.58407 0
M  V30 3256 O 298.722 -1.01046 -1.74218 0
M  V30 3257 C 295.787 -2.01891 -2.81853 0
M  V30 3258 C 294.848 -3.25784 -2.79577 0
M  V30 3259 C 294.081 -3.43648 -4.0834 0
M  V30 3260 O 294.304 -2.65714 -5.0473 0
M  V30 3261 O 293.238 -4.37018 -4.13883 0
M  V30 3262 H 297.064 -2.7703 -1.24451 0
M  V30 3263 H 294.649 -1.38841 -0.551678 0
M  V30 3264 H 296.531 -2.15782 -3.61962 0
M  V30 3265 H 295.206 -1.11173 -3.0401 0
M  V30 3266 H 294.113 -3.17312 -1.98151 0
M  V30 3267 H 295.446 -4.16439 -2.62373 0
M  V30 3268 N 297.098 0.621204 -1.44841 0
M  V30 3269 C 298.346 1.37783 -1.47852 0
M  V30 3270 C 298.667 1.94653 -0.116224 0
M  V30 3271 O 297.937 1.76367 0.852737 0
M  V30 3272 H 296.517 0.511453 -0.544449 0
M  V30 3273 H 299.179 0.730446 -1.80694 0
M  V30 3274 H 298.275 2.20414 -2.20961 0
M  V30 3275 N 298.576 1.31904 0.862503 0
M  V30 3276 C 299.523 1.20182 1.9704 0
M  V30 3277 C 300.493 0.0858247 1.65878 0
M  V30 3278 O 301.678 0.26 1.8902 0
M  V30 3279 C 298.818 0.922797 3.32533 0
M  V30 3280 C 297.931 2.12284 3.76244 0
M  V30 3281 C 297.066 1.77996 5.00491 0
M  V30 3282 C 296.105 2.94366 5.36671 0
M  V30 3283 N 295.242 2.60223 6.52095 0
M  V30 3284 H 300.082 2.14951 2.06398 0
M  V30 3285 H 297.619 1.06917 1.01031 0
M  V30 3286 H 299.577 0.741548 4.10557 0
M  V30 3287 H 298.207 0.0119227 3.22798 0
M  V30 3288 H 297.259 2.41461 2.9394 0
M  V30 3289 H 298.571 2.99357 3.98982 0
M  V30 3290 H 297.725 1.56377 5.862 0
M  V30 3291 H 296.464 0.881252 4.79672 0
M  V30 3292 H 295.469 3.16625 4.49476 0
M  V30 3293 H 296.694 3.84957 5.59451 0
M  V30 3294 H 294.64 1.72884 6.32809 0
M  V30 3295 H 294.557 3.40827 6.74814 0
M  V30 3296 H 295.825 2.42016 7.40978 0
M  V30 3297 N 300.054 -1.07777 1.14986 0
M  V30 3298 C 301.302 -1.79934 0.920235 0
M  V30 3299 C 301.623 -1.86955 -0.554336 0
M  V30 3300 O 300.893 -1.36731 -1.40291 0
M  V30 3301 H 299.473 -0.666424 0.337473 0
M  V30 3302 H 302.135 -1.3027 1.44968 0
M  V30 3303 H 301.231 -2.82539 1.32583 0
M  V30 3304 N 301.532 -0.945985 -1.26051 0
M  V30 3305 C 302.781 -0.591836 -1.92822 0
M  V30 3306 C 303.094 0.873956 -1.7499 0
M  V30 3307 O 304.3 1.33769 -2.36259 0
M  V30 3308 C 302.756 -1.00776 -3.45503 0
M  V30 3309 C 302.364 -2.4955 -3.7206 0
M  V30 3310 C 304.108 -0.725735 -4.1825 0
M  V30 3311 C 302.015 -2.84988 -5.18205 0
M  V30 3312 H 300.945 -0.217635 -0.721908 0
M  V30 3313 H 303.596 -1.14927 -1.43052 0
M  V30 3314 H 301.978 -0.378812 -3.94184 0
M  V30 3315 H 303.152 -3.1739 -3.34066 0
M  V30 3316 H 301.467 -2.75133 -3.12555 0
M  V30 3317 H 304.064 -0.966771 -5.25887 0
M  V30 3318 H 304.407 0.337639 -4.14929 0
M  V30 3319 H 304.94 -1.31463 -3.7545 0
M  V30 3320 H 301.679 -3.90307 -5.26631 0
M  V30 3321 H 301.199 -2.21813 -5.57278 0
M  V30 3322 H 302.878 -2.73712 -5.86252 0
M  V30 3323 N 303.011 1.40521 -0.713556 0
M  V30 3324 C 304.258 2.00923 -0.25219 0
M  V30 3325 C 304.586 1.56571 1.15395 0
M  V30 3326 O 303.841 0.775874 1.79663 0
M  V30 3327 C 304.14 3.56317 -0.278 0
M  V30 3328 C 303.806 4.20246 -1.63415 0
M  V30 3329 C 302.468 4.37422 -2.00538 0
M  V30 3330 C 304.82 4.55923 -2.52554 0
M  V30 3331 C 302.148 4.87558 -3.2635 0
M  V30 3332 C 304.5 5.07458 -3.77716 0
M  V30 3333 C 303.164 5.22843 -4.14959 0
M  V30 3334 H 302.434 0.735231 -0.0922829 0
M  V30 3335 H 305.081 1.68161 -0.916188 0
M  V30 3336 H 303.386 3.88976 0.469567 0
M  V30 3337 H 305.083 4.00883 0.0967819 0
M  V30 3338 H 301.673 4.07263 -1.33546 0
M  V30 3339 H 305.857 4.42291 -2.25149 0
M  V30 3340 H 301.113 4.97654 -3.55176 0
M  V30 3341 H 305.287 5.34041 -4.4696 0
M  V30 3342 H 302.914 5.61454 -5.12516 0
M  V30 3343 N 304.489 0.459591 1.5075 0
M  V30 3344 C 305.766 -0.160371 1.94941 0
M  V30 3345 C 306.146 -1.58048 1.39943 0
M  V30 3346 O 305.494 -2.206 0.595629 0
M  V30 3347 C 305.704 -0.115432 3.48809 0
M  V30 3348 C 307.052 -0.310026 4.23467 0
M  V30 3349 O 308.076 -0.192543 3.55679 0
M  V30 3350 O 306.935 -0.546031 5.43765 0
M  V30 3351 H 304.029 -0.117925 0.818549 0
M  V30 3352 H 306.575 0.519169 1.61563 0
M  V30 3353 H 305.347 0.87652 3.81357 0
M  V30 3354 H 304.97 -0.836928 3.88692 0
M  V30 3355 N 305.967 -1.56429 0.191757 0
M  V30 3356 C 307.192 -2.02309 -0.456706 0
M  V30 3357 C 307.617 -1.07103 -1.5463 0
M  V30 3358 O 306.975 -0.0539677 -1.8122 0
M  V30 3359 C 307.023 -3.46654 -0.993159 0
M  V30 3360 O 306.127 -3.54559 -2.10622 0
M  V30 3361 H 305.468 -0.655303 -0.107114 0
M  V30 3362 H 307.998 -2.02364 0.301653 0
M  V30 3363 H 308.008 -3.86377 -1.31061 0
M  V30 3364 H 306.683 -4.1544 -0.195504 0
M  V30 3365 H 305.26 -3.26708 -1.79767 0
M  V30 3366 N 307.445 0.0818655 -1.57387 0
M  V30 3367 C 308.355 1.11642 -2.06333 0
M  V30 3368 C 309.371 1.43033 -0.99083 0
M  V30 3369 O 310.547 1.53411 -1.30488 0
M  V30 3370 C 307.612 2.41342 -2.48907 0
M  V30 3371 C 306.673 2.17014 -3.7041 0
M  V30 3372 C 305.906 3.4053 -4.10944 0
M  V30 3373 O 306.129 4.4927 -3.51444 0
M  V30 3374 O 305.063 3.29336 -5.03807 0
M  V30 3375 H 308.889 0.730657 -2.9478 0
M  V30 3376 H 306.474 0.295301 -1.46452 0
M  V30 3377 H 308.356 3.17691 -2.76858 0
M  V30 3378 H 307.031 2.79319 -1.63593 0
M  V30 3379 H 305.938 1.38403 -3.47556 0
M  V30 3380 H 307.271 1.83923 -4.56545 0
M  V30 3381 N 308.923 1.53595 0.353017 0
M  V30 3382 C 310.2 1.61002 1.11075 0
M  V30 3383 C 310.58 0.425356 2.0677 0
M  V30 3384 O 309.928 -0.583267 2.2093 0
M  V30 3385 C 310.138 2.96631 1.83877 0
M  V30 3386 C 311.486 3.51653 2.37961 0
M  V30 3387 O 312.51 2.98743 1.93987 0
M  V30 3388 O 311.369 4.44177 3.18386 0
M  V30 3389 H 308.463 0.650825 0.510251 0
M  V30 3390 H 311.009 1.6594 0.35527 0
M  V30 3391 H 309.781 3.74293 1.14108 0
M  V30 3392 H 309.404 2.95242 2.66304 0
M  V30 3393 N 310.401 -0.613514 1.45168 0
M  V30 3394 C 311.311 -1.75296 1.55912 0
M  V30 3395 C 312.327 -1.68244 0.443856 0
M  V30 3396 O 313.503 -1.88706 0.70371 0
M  V30 3397 C 310.568 -3.1174 1.5172 0
M  V30 3398 C 309.629 -3.30291 2.74238 0
M  V30 3399 C 308.862 -4.60226 2.70236 0
M  V30 3400 O 309.085 -5.42168 1.77229 0
M  V30 3401 O 308.019 -4.81361 3.61352 0
M  V30 3402 H 311.845 -1.69183 2.52212 0
M  V30 3403 H 309.43 -0.776886 1.27612 0
M  V30 3404 H 311.312 -3.93044 1.51968 0
M  V30 3405 H 309.987 -3.18357 0.585697 0
M  V30 3406 H 308.894 -2.48598 2.79553 0
M  V30 3407 H 310.227 -3.28547 3.66494 0
M  V30 3408 N 311.879 -1.3236 -0.855495 0
M  V30 3409 C 313.126 -1.22872 -1.60962 0
M  V30 3410 C 313.454 0.209658 -1.93367 0
M  V30 3411 O 312.709 1.16243 -1.57436 0
M  V30 3412 C 313.008 -2.03275 -2.93963 0
M  V30 3413 C 312.674 -3.5264 -2.80991 0
M  V30 3414 C 311.336 -3.93364 -2.7716 0
M  V30 3415 C 313.688 -4.47626 -2.66983 0
M  V30 3416 C 311.016 -5.27319 -2.572 0
M  V30 3417 C 313.368 -5.81723 -2.48558 0
M  V30 3418 C 312.032 -6.2165 -2.4312 0
M  V30 3419 H 311.302 -0.44962 -0.589001 0
M  V30 3420 H 313.949 -1.63777 -0.992442 0
M  V30 3421 H 312.254 -1.55095 -3.59795 0
M  V30 3422 H 313.951 -1.93303 -3.51333 0
M  V30 3423 H 310.541 -3.20295 -2.84797 0
M  V30 3424 H 314.725 -4.17084 -2.68988 0
M  V30 3425 H 309.981 -5.57311 -2.51424 0
M  V30 3426 H 314.155 -6.5494 -2.36699 0
M  V30 3427 H 311.782 -7.25388 -2.27412 0
M  V30 3428 N 313.357 1.07166 -1.15556 0
M  V30 3429 C 314.287 2.16403 -0.877046 0
M  V30 3430 C 315.268 1.69217 0.173111 0
M  V30 3431 O 316.453 1.94181 0.027084 0
M  V30 3432 C 313.583 3.45349 -0.367632 0
M  V30 3433 C 312.537 4.05995 -1.35468 0
M  V30 3434 C 311.863 5.30045 -0.704038 0
M  V30 3435 C 313.163 4.45804 -2.72132 0
M  V30 3436 H 314.857 2.39959 -1.79053 0
M  V30 3437 H 312.403 1.15325 -0.862331 0
M  V30 3438 H 314.356 4.21095 -0.160317 0
M  V30 3439 H 313.08 3.21385 0.581326 0
M  V30 3440 H 311.739 3.32296 -1.54839 0
M  V30 3441 H 311.387 5.02373 0.251128 0
M  V30 3442 H 311.087 5.71579 -1.36277 0
M  V30 3443 H 312.611 6.08495 -0.50654 0
M  V30 3444 H 314.025 5.12671 -2.56595 0
M  V30 3445 H 312.422 4.98296 -3.34397 0
M  V30 3446 H 313.492 3.57083 -3.28054 0
M  V30 3447 N 314.835 0.952656 1.25548 0
M  V30 3448 C 316.112 0.523818 1.88456 0
M  V30 3449 C 316.492 -0.998871 1.85973 0
M  V30 3450 O 315.84 -1.86381 1.3219 0
M  V30 3451 C 316.05 1.0982 3.31271 0
M  V30 3452 C 317.398 1.17385 4.08051 0
M  V30 3453 O 318.422 1.04961 3.40384 0
M  V30 3454 O 317.281 1.36852 5.29088 0
M  V30 3455 H 314.375 0.172485 0.808813 0
M  V30 3456 H 316.921 1.04596 1.33633 0
M  V30 3457 H 315.693 2.1415 3.27499 0
M  V30 3458 H 315.316 0.559191 3.93648 0
M  V30 3459 N 316.313 -1.40141 0.720998 0
M  V30 3460 C 317.543 -2.04798 0.27226 0
M  V30 3461 C 317.951 -1.54442 -1.09289 0
M  V30 3462 O 317.294 -0.698342 -1.69908 0
M  V30 3463 C 317.356 -3.59048 0.18027 0
M  V30 3464 C 317.02 -4.32317 1.48159 0
M  V30 3465 C 318.017 -4.59902 2.42458 0
M  V30 3466 C 315.702 -4.71125 1.74202 0
M  V30 3467 C 317.696 -5.25288 3.61042 0
M  V30 3468 C 315.383 -5.36242 2.93066 0
M  V30 3469 C 316.381 -5.63254 3.86308 0
M  V30 3470 O 316.069 -6.27024 5.03086 0
M  V30 3471 H 315.801 -0.665419 0.119139 0
M  V30 3472 H 318.355 -1.80436 0.981432 0
M  V30 3473 H 316.585 -3.82251 -0.58489 0
M  V30 3474 H 318.274 -4.05221 -0.234618 0
M  V30 3475 H 319.04 -4.30379 2.23604 0
M  V30 3476 H 314.919 -4.49466 1.02477 0
M  V30 3477 H 318.463 -5.46289 4.33837 0
M  V30 3478 H 314.36 -5.65185 3.11826 0
M  V30 3479 H 315.128 -6.4552 5.03235 0
M  V30 3480 N 317.792 -0.46758 -1.50504 0
M  V30 3481 C 319.038 0.0808869 -2.03239 0
M  V30 3482 C 319.393 1.37721 -1.34353 0
M  V30 3483 O 318.686 1.86016 -0.459194 0
M  V30 3484 C 318.88 0.323995 -3.55928 0
M  V30 3485 C 318.709 -0.947215 -4.39611 0
M  V30 3486 C 317.479 -1.48951 -4.82848 0
M  V30 3487 C 319.677 -1.84166 -4.80195 0
M  V30 3488 N 317.659 -2.71011 -5.50842 0
M  V30 3489 C 319.03 -2.90815 -5.47564 0
M  V30 3490 C 321.085 -1.85246 -4.62156 0
M  V30 3491 C 319.788 -3.98529 -5.98805 0
M  V30 3492 C 321.814 -2.91914 -5.14335 0
M  V30 3493 C 321.176 -3.97282 -5.81676 0
M  V30 3494 H 317.275 -0.0103394 -0.781932 0
M  V30 3495 H 319.859 -0.635003 -1.84054 0
M  V30 3496 H 318.03 1.00892 -3.75067 0
M  V30 3497 H 319.762 0.866492 -3.95315 0
M  V30 3498 H 316.517 -1.03918 -4.62058 0
M  V30 3499 H 316.941 -3.32988 -5.89447 0
M  V30 3500 H 321.583 -1.05103 -4.09528 0
M  V30 3501 H 319.301 -4.79491 -6.50472 0
M  V30 3502 H 322.887 -2.93729 -5.0221 0
M  V30 3503 H 321.767 -4.78462 -6.21324 0
M  V30 3504 N 319.27 1.56325 -0.20005 0
M  V30 3505 C 320.686 1.58839 0.155716 0
M  V30 3506 C 320.886 1.21636 1.60645 0
M  V30 3507 O 319.942 0.941437 2.34293 0
M  V30 3508 C 321.255 3.0032 -0.151124 0
M  V30 3509 C 322.803 3.12866 -0.0916284 0
M  V30 3510 C 323.278 4.56488 -0.371845 0
M  V30 3511 N 324.769 4.62089 -0.320641 0
M  V30 3512 C 325.504 5.71116 -0.511243 0
M  V30 3513 N 325 6.88592 -0.762461 0
M  V30 3514 N 326.793 5.60335 -0.445157 0
M  V30 3515 H 318.944 1.78788 -1.14668 0
M  V30 3516 H 321.207 0.829996 -0.458051 0
M  V30 3517 H 320.913 3.32117 -1.15721 0
M  V30 3518 H 320.787 3.73257 0.543986 0
M  V30 3519 H 323.174 2.80878 0.905065 0
M  V30 3520 H 323.255 2.42304 -0.81989 0
M  V30 3521 H 322.899 4.89189 -1.36588 0
M  V30 3522 H 322.829 5.25246 0.377362 0
M  V30 3523 H 325.32 3.77665 -0.13329 0
M  V30 3524 H 325.633 7.67581 -0.896576 0
M  V30 3525 H 323.978 6.90387 -0.799412 0
M  V30 3526 H 327.169 4.67436 -0.249278 0
M  V30 3527 H 327.342 6.45243 -0.597116 0
M  V30 3528 N 320.748 -0.0735177 1.57428 0
M  V30 3529 C 321.696 -1.10628 2.04607 0
M  V30 3530 C 322.69 -1.40181 0.951088 0
M  V30 3531 O 323.896 -1.39608 1.1362 0
M  V30 3532 H 320.271 -0.374088 0.652351 0
M  V30 3533 H 322.242 -0.682218 2.90497 0
M  V30 3534 C 320.991 -2.41212 2.50423 0
M  V30 3535 H 320.314 -2.19322 3.34272 0
M  V30 3536 H 321.754 -3.11927 2.87189 0
M  V30 3537 C 320.213 -3.0705 1.38644 0
M  V30 3538 O 320.743 -3.95056 0.727582 0
M  V30 3539 N 318.949 -2.67645 1.132 0
M  V30 3540 H 318.496 -1.96169 1.66959 0
M  V30 3541 H 318.454 -3.1202 0.386147 0
M  V30 3542 N 322.226 -1.5378 -0.344866 0
M  V30 3543 C 323.456 -1.74646 -1.10374 0
M  V30 3544 C 323.864 -0.48491 -1.8288 0
M  V30 3545 O 323.207 0.553062 -1.75177 0
M  V30 3546 C 323.269 -2.87145 -2.16306 0
M  V30 3547 C 322.933 -4.26795 -1.63386 0
M  V30 3548 C 323.93 -5.08412 -1.08688 0
M  V30 3549 C 321.615 -4.73276 -1.68272 0
M  V30 3550 C 323.609 -6.34609 -0.595792 0
M  V30 3551 C 321.296 -5.99446 -1.18776 0
M  V30 3552 C 322.294 -6.79946 -0.645215 0
M  V30 3553 O 321.982 -8.03745 -0.157626 0
M  V30 3554 H 321.714 -0.587112 -0.335075 0
M  V30 3555 H 324.268 -2.01403 -0.403252 0
M  V30 3556 H 322.498 -2.55909 -2.89909 0
M  V30 3557 H 324.187 -2.95992 -2.77747 0
M  V30 3558 H 324.953 -4.73666 -1.04236 0
M  V30 3559 H 320.832 -4.10677 -2.09442 0
M  V30 3560 H 324.376 -6.97389 -0.171654 0
M  V30 3561 H 320.273 -6.33687 -1.22928 0
M  V30 3562 H 321.041 -8.18038 -0.275037 0
M  V30 3563 N 323.704 0.605807 -1.45491 0
M  V30 3564 C 324.614 1.74466 -1.56839 0
M  V30 3565 C 325.63 1.68006 -0.452772 0
M  V30 3566 O 326.806 1.8833 -0.713708 0
M  V30 3567 C 323.871 3.10931 -1.53371 0
M  V30 3568 C 322.932 3.28832 -2.75986 0
M  V30 3569 C 322.165 4.58787 -2.72673 0
M  V30 3570 O 322.388 5.4122 -1.80102 0
M  V30 3571 O 321.322 4.79438 -3.63899 0
M  V30 3572 H 325.148 1.67843 -2.53106 0
M  V30 3573 H 322.733 0.770108 -1.28022 0
M  V30 3574 H 324.615 3.92233 -1.54051 0
M  V30 3575 H 323.29 3.18042 -0.602572 0
M  V30 3576 H 322.197 2.47112 -2.80867 0
M  V30 3577 H 323.53 3.26599 -3.68231 0
M  V30 3578 N 325.182 1.32811 0.848464 0
M  V30 3579 C 326.598 1.11937 1.13764 0
M  V30 3580 C 326.798 -0.0960789 2.01271 0
M  V30 3581 O 325.854 -0.779165 2.40178 0
M  V30 3582 C 327.167 2.402 1.809 0
M  V30 3583 C 328.715 2.46016 1.93508 0
M  V30 3584 C 329.19 3.74215 2.64059 0
M  V30 3585 N 330.681 3.75232 2.71579 0
M  V30 3586 C 331.416 4.71134 3.26833 0
M  V30 3587 N 330.912 5.77406 3.8285 0
M  V30 3588 N 332.705 4.58623 3.24995 0
M  V30 3589 H 324.856 2.1073 0.265855 0
M  V30 3590 H 327.119 0.930671 0.180431 0
M  V30 3591 H 326.825 3.29093 1.24058 0
M  V30 3592 H 326.699 2.51628 2.81004 0
M  V30 3593 H 329.086 1.57577 2.49506 0
M  V30 3594 H 329.167 2.38536 0.923811 0
M  V30 3595 H 328.811 4.63031 2.08722 0
M  V30 3596 H 328.741 3.78968 3.65637 0
M  V30 3597 H 331.232 2.98423 2.31845 0
M  V30 3598 H 331.545 6.46632 4.23187 0
M  V30 3599 H 329.89 5.81152 3.81165 0
M  V30 3600 H 333.081 3.74762 2.80484 0
M  V30 3601 H 333.254 5.33535 3.67756 0
M  V30 3602 N 326.66 -1.06551 1.16123 0
M  V30 3603 C 327.888 -1.83005 0.965237 0
M  V30 3604 C 328.303 -1.82423 -0.486542 0
M  V30 3605 O 327.66 -1.24152 -1.33763 0
M  V30 3606 C 327.711 -3.29733 1.48183 0
M  V30 3607 O 327.432 -3.30416 2.87674 0
M  V30 3608 C 328.933 -4.22926 1.32848 0
M  V30 3609 H 326.153 -0.577118 0.342309 0
M  V30 3610 H 328.697 -1.3445 1.54089 0
M  V30 3611 H 326.852 -3.75609 0.948517 0
M  V30 3612 H 327.266 -4.22149 3.11272 0
M  V30 3613 H 328.74 -5.23916 1.73827 0
M  V30 3614 H 329.217 -4.38346 0.273692 0
M  V30 3615 H 329.823 -3.82894 1.85127 0
M  V30 3616 N 328.138 -0.959301 -1.25041 0
M  V30 3617 C 329.363 -0.633507 -1.97488 0
M  V30 3618 C 329.788 0.788555 -1.70773 0
M  V30 3619 O 329.146 1.53394 -0.966431 0
M  V30 3620 C 329.194 -0.904057 -3.49083 0
M  V30 3621 O 328.298 0.0147939 -4.12397 0
M  V30 3622 H 327.639 -0.240368 -0.618966 0
M  V30 3623 H 330.169 -1.28717 -1.59038 0
M  V30 3624 H 330.179 -0.832203 -3.99423 0
M  V30 3625 H 328.854 -1.94048 -3.67856 0
M  V30 3626 H 327.431 -0.109664 -3.72739 0
M  V30 3627 N 329.616 1.39756 -0.72842 0
M  V30 3628 C 330.548 2.29157 -0.0446202 0
M  V30 3629 C 331.561 1.46484 0.710367 0
M  V30 3630 O 332.75 1.69632 0.55562 0
M  V30 3631 C 329.85 3.24987 0.961071 0
M  V30 3632 C 329.023 4.36572 0.268967 0
M  V30 3633 C 328.082 5.12756 1.18184 0
M  V30 3634 O 327.108 5.6534 0.661794 0
M  V30 3635 N 328.31 5.23331 2.51206 0
M  V30 3636 H 331.075 2.88482 -0.812295 0
M  V30 3637 H 328.636 1.51265 -0.577098 0
M  V30 3638 H 330.628 3.72827 1.57423 0
M  V30 3639 H 329.198 2.66739 1.63 0
M  V30 3640 H 328.418 3.90694 -0.524574 0
M  V30 3641 H 329.706 5.08363 -0.210934 0
M  V30 3642 H 329.104 4.82116 2.9594 0
M  V30 3643 H 327.661 5.74634 3.07634 0
M  V30 3644 N 331.094 0.475555 1.50254 0
M  V30 3645 C 332.024 -0.30611 2.31485 0
M  V30 3646 C 333.005 -0.986228 1.38591 0
M  V30 3647 O 334.19 -0.982541 1.67511 0
M  V30 3648 C 331.32 -1.38588 3.1845 0
M  V30 3649 C 330.274 -0.827115 4.19932 0
M  V30 3650 C 329.6 -2.00551 4.95665 0
M  V30 3651 C 330.9 0.16463 5.2204 0
M  V30 3652 H 332.594 0.371866 2.97082 0
M  V30 3653 H 330.14 0.180282 1.42867 0
M  V30 3654 H 332.093 -1.94023 3.74076 0
M  V30 3655 H 330.817 -2.09269 2.50747 0
M  V30 3656 H 329.476 -0.294702 3.65414 0
M  V30 3657 H 329.124 -2.6994 4.2443 0
M  V30 3658 H 328.824 -1.63784 5.64313 0
M  V30 3659 H 330.348 -2.56468 5.54127 0
M  V30 3660 H 331.762 -0.300699 5.72511 0
M  V30 3661 H 330.159 0.446813 5.98434 0
M  V30 3662 H 331.229 1.08905 4.72512 0
M  V30 3663 N 332.573 -1.56217 0.208337 0
M  V30 3664 C 333.989 -1.58919 -0.14729 0
M  V30 3665 C 334.189 -1.22486 -1.59998 0
M  V30 3666 O 333.245 -0.953849 -2.3379 0
M  V30 3667 C 334.558 -3.00236 0.167048 0
M  V30 3668 C 336.106 -3.12813 0.108219 0
M  V30 3669 C 336.581 -4.56284 0.396049 0
M  V30 3670 N 338.072 -4.61912 0.345142 0
M  V30 3671 C 338.807 -5.70837 0.541523 0
M  V30 3672 N 338.303 -6.88178 0.798968 0
M  V30 3673 N 340.096 -5.60091 0.474867 0
M  V30 3674 H 332.247 -1.78177 1.15614 0
M  V30 3675 H 334.51 -0.827555 0.462446 0
M  V30 3676 H 334.216 -3.31499 1.1748 0
M  V30 3677 H 334.09 -3.7354 -0.524184 0
M  V30 3678 H 336.477 -2.81354 -0.890157 0
M  V30 3679 H 336.558 -2.41866 0.832729 0
M  V30 3680 H 336.202 -4.88458 1.3918 0
M  V30 3681 H 336.132 -5.25439 -0.349502 0
M  V30 3682 H 338.623 -3.77589 0.153316 0
M  V30 3683 H 338.936 -7.67095 0.93727 0
M  V30 3684 H 337.281 -6.89953 0.836013 0
M  V30 3685 H 340.472 -4.67297 0.274064 0
M  V30 3686 H 340.645 -6.44917 0.631326 0
M  V30 3687 N 334.051 0.0651679 -1.57465 0
M  V30 3688 C 334.999 1.09542 -2.05191 0
M  V30 3689 C 335.993 1.39675 -0.958509 0
M  V30 3690 O 337.199 1.39003 -1.14359 0
M  V30 3691 H 333.574 0.370623 -0.654326 0
M  V30 3692 H 335.545 0.666802 -2.90854 0
M  V30 3693 C 334.294 2.39881 -2.51699 0
M  V30 3694 H 333.617 2.17547 -3.3543 0
M  V30 3695 H 335.057 3.104 -2.88839 0
M  V30 3696 C 333.516 3.0631 -1.40271 0
M  V30 3697 O 334.046 3.94664 -0.748523 0
M  V30 3698 N 332.252 2.67041 -1.14618 0
M  V30 3699 H 331.799 1.95281 -1.67997 0
M  V30 3700 H 331.757 3.1181 -0.402688 0
M  V30 3701 N 335.529 1.53961 0.336706 0
M  V30 3702 C 336.806 1.62171 1.09361 0
M  V30 3703 C 337.186 0.447263 2.06307 0
M  V30 3704 O 336.534 -0.559802 2.21537 0
M  V30 3705 C 336.744 2.98565 1.80721 0
M  V30 3706 C 338.092 3.54157 2.34218 0
M  V30 3707 O 339.116 3.00784 1.90807 0
M  V30 3708 O 337.975 4.47528 3.13657 0
M  V30 3709 H 335.069 0.6562 0.503319 0
M  V30 3710 H 337.615 1.66307 0.33765 0
M  V30 3711 H 336.387 3.75482 1.10132 0
M  V30 3712 H 336.01 2.9805 2.63158 0
M  V30 3713 N 337.007 -0.598083 1.45811 0
M  V30 3714 C 337.954 -1.7082 1.55207 0
M  V30 3715 C 338.924 -1.61278 0.39732 0
M  V30 3716 O 340.109 -1.80717 0.612038 0
M  V30 3717 C 337.249 -3.09144 1.53376 0
M  V30 3718 C 336.362 -3.29423 2.79472 0
M  V30 3719 C 335.497 -4.57907 2.69248 0
M  V30 3720 C 334.536 -4.71476 3.90354 0
M  V30 3721 N 333.673 -5.9127 3.78608 0
M  V30 3722 H 338.513 -1.62125 2.50039 0
M  V30 3723 H 336.05 -0.790389 1.24062 0
M  V30 3724 H 338.008 -3.89186 1.50301 0
M  V30 3725 H 336.638 -3.16773 0.620876 0
M  V30 3726 H 335.69 -2.43091 2.92594 0
M  V30 3727 H 337.002 -3.3532 3.69272 0
M  V30 3728 H 336.156 -5.46157 2.64192 0
M  V30 3729 H 334.895 -4.54423 1.77063 0
M  V30 3730 H 333.9 -3.81648 3.95759 0
M  V30 3731 H 335.125 -4.76751 4.83617 0
M  V30 3732 H 333.071 -5.88813 2.89199 0
M  V30 3733 H 332.988 -5.98369 4.6205 0
M  V30 3734 H 334.256 -6.81992 3.77501 0
M  V30 3735 N 338.485 -1.33259 -0.841409 0
M  V30 3736 C 339.715 -1.2742 -1.62628 0
M  V30 3737 C 340.123 0.157604 -1.88542 0
M  V30 3738 O 339.466 1.10938 -1.46419 0
M  V30 3739 C 339.528 -1.97797 -3.00194 0
M  V30 3740 C 339.192 -3.47109 -2.97261 0
M  V30 3741 C 340.189 -4.42358 -2.73159 0
M  V30 3742 C 337.874 -3.89247 -3.17478 0
M  V30 3743 C 339.868 -5.77718 -2.69296 0
M  V30 3744 C 337.555 -5.24713 -3.13241 0
M  V30 3745 C 338.553 -6.1876 -2.89181 0
M  V30 3746 O 338.241 -7.51745 -2.84843 0
M  V30 3747 H 337.973 -0.440436 -0.512827 0
M  V30 3748 H 340.527 -1.76153 -1.05638 0
M  V30 3749 H 338.757 -1.43652 -3.59028 0
M  V30 3750 H 340.446 -1.8549 -3.61038 0
M  V30 3751 H 341.212 -4.11127 -2.57294 0
M  V30 3752 H 337.091 -3.16456 -3.35226 0
M  V30 3753 H 340.635 -6.51097 -2.50436 0
M  V30 3754 H 336.532 -5.55569 -3.28654 0
M  V30 3755 H 337.3 -7.61262 -3.00702 0
M  V30 3756 N 339.963 1.05934 -1.16686 0
M  V30 3757 C 340.911 2.15603 -0.872817 0
M  V30 3758 C 341.905 1.68647 0.159576 0
M  V30 3759 O 343.111 1.79995 0.0132125 0
M  V30 3760 H 339.486 0.703885 -0.264671 0
M  V30 3761 H 341.457 2.37613 -1.80507 0
M  V30 3762 C 340.206 3.45457 -0.394344 0
M  V30 3763 H 339.529 3.81984 -1.18019 0
M  V30 3764 H 340.969 4.2339 -0.227408 0
M  V30 3765 C 339.428 3.25021 0.88673 0
M  V30 3766 O 339.958 3.50906 1.95519 0
M  V30 3767 N 338.164 2.78437 0.831925 0
M  V30 3768 H 337.711 2.57572 -0.0377619 0
M  V30 3769 H 337.669 2.65144 1.68956 0
M  V30 3770 N 341.441 0.965919 1.2453 0
M  V30 3771 C 342.389 0.486506 2.27455 0
M  V30 3772 C 343.383 -0.449041 1.6334 0
M  V30 3773 O 344.589 -0.324527 1.7705 0
M  V30 3774 H 340.964 0.138857 0.739069 0
M  V30 3775 H 342.935 1.3666 2.65267 0
M  V30 3776 C 341.684 -0.209481 3.47068 0
M  V30 3777 H 341.007 0.50129 3.96645 0
M  V30 3778 H 342.447 -0.508775 4.20936 0
M  V30 3779 C 340.906 -1.43586 3.0477 0
M  V30 3780 O 341.436 -2.53299 3.11773 0
M  V30 3781 N 339.642 -1.30126 2.59838 0
M  V30 3782 H 339.189 -0.408583 2.54339 0
M  V30 3783 H 339.147 -2.12294 2.31902 0
M  V30 3784 N 342.919 -1.39368 0.735821 0
M  V30 3785 C 344.168 -1.99733 0.281004 0
M  V30 3786 C 344.481 -1.59055 -1.13846 0
M  V30 3787 O 345.687 -2.12262 -1.69284 0
M  V30 3788 C 344.143 -3.57057 0.451462 0
M  V30 3789 C 343.751 -4.06697 1.87886 0
M  V30 3790 C 345.495 -4.2446 0.0584616 0
M  V30 3791 C 343.402 -5.56598 1.99883 0
M  V30 3792 H 342.332 -0.747163 0.101311 0
M  V30 3793 H 344.983 -1.59357 0.909819 0
M  V30 3794 H 343.365 -3.95234 -0.246263 0
M  V30 3795 H 344.539 -3.79853 2.60861 0
M  V30 3796 H 342.854 -3.5196 2.22515 0
M  V30 3797 H 345.451 -5.34549 0.127099 0
M  V30 3798 H 345.794 -4.04444 -0.986433 0
M  V30 3799 H 346.327 -3.9146 0.707374 0
M  V30 3800 H 343.066 -5.81494 3.02564 0
M  V30 3801 H 342.586 -5.85242 1.31346 0
M  V30 3802 H 344.265 -6.22022 1.78039 0
M  V30 3803 N 344.397 -0.483516 -1.5 0
M  V30 3804 C 345.622 0.0667119 -2.07293 0
M  V30 3805 C 346.047 1.3164 -1.3436 0
M  V30 3806 O 345.405 1.76945 -0.394987 0
M  V30 3807 C 345.453 0.321126 -3.59167 0
M  V30 3808 O 344.557 1.39927 -3.87936 0
M  V30 3809 H 343.898 -0.0184758 -0.663743 0
M  V30 3810 H 346.428 -0.678125 -1.93035 0
M  V30 3811 H 346.438 0.557906 -4.04168 0
M  V30 3812 H 345.113 -0.592007 -4.11665 0
M  V30 3813 H 343.69 1.14882 -3.54763 0
M  V30 3814 N 345.875 1.56104 -0.216619 0
M  V30 3815 C 346.785 2.23694 0.706982 0
M  V30 3816 C 347.801 1.24295 1.21765 0
M  V30 3817 O 348.977 1.57094 1.2603 0
M  V30 3818 C 346.042 2.8998 1.90033 0
M  V30 3819 C 345.103 4.04708 1.43213 0
M  V30 3820 C 344.336 4.67824 2.56859 0
M  V30 3821 O 344.559 4.29913 3.74874 0
M  V30 3822 O 343.493 5.56905 2.28343 0
M  V30 3823 H 347.319 3.03272 0.161235 0
M  V30 3824 H 344.904 1.49394 0.0136177 0
M  V30 3825 H 346.786 3.31837 2.59735 0
M  V30 3826 H 345.461 2.13365 2.43428 0
M  V30 3827 H 344.368 3.6743 0.70327 0
M  V30 3828 H 345.701 4.83051 0.944615 0
M  V30 3829 N 347.353 -0.0568162 1.57498 0
M  V30 3830 C 348.583 -0.764515 1.91934 0
M  V30 3831 C 348.991 -1.70877 0.81227 0
M  V30 3832 O 348.334 -1.82351 -0.222213 0
M  V30 3833 C 348.396 -1.5994 3.21962 0
M  V30 3834 C 348.06 -0.822925 4.4953 0
M  V30 3835 C 349.057 -0.135464 5.19723 0
M  V30 3836 C 346.742 -0.785666 4.96117 0
M  V30 3837 C 348.736 0.578861 6.34766 0
M  V30 3838 C 346.423 -0.0675784 6.11063 0
M  V30 3839 C 347.421 0.613471 6.80239 0
M  V30 3840 O 347.109 1.31996 7.92989 0
M  V30 3841 H 346.841 -0.221647 0.63863 0
M  V30 3842 H 349.395 -0.0268218 2.05382 0
M  V30 3843 H 347.625 -2.38026 3.04763 0
M  V30 3844 H 349.314 -2.18715 3.41934 0
M  V30 3845 H 350.08 -0.155458 4.84751 0
M  V30 3846 H 345.959 -1.30524 4.42136 0
M  V30 3847 H 349.503 1.111 6.88696 0
M  V30 3848 H 345.4 -0.0455636 6.45484 0
M  V30 3849 H 346.168 1.23077 8.09194 0
M  V30 3850 N 348.832 -1.54138 -0.328536 0
M  V30 3851 C 350.248 -1.44736 -0.672574 0
M  V30 3852 C 350.448 -0.616217 -1.91846 0
M  V30 3853 O 349.504 -0.113067 -2.52247 0
M  V30 3854 C 350.817 -2.884 -0.851217 0
M  V30 3855 C 352.365 -2.98271 -0.948877 0
M  V30 3856 C 352.84 -4.43074 -1.15973 0
M  V30 3857 N 354.331 -4.46665 -1.22658 0
M  V30 3858 C 355.066 -5.55857 -1.40751 0
M  V30 3859 N 354.562 -6.75026 -1.5592 0
M  V30 3860 N 356.355 -5.43495 -1.4342 0
M  V30 3861 H 348.506 -2.06661 0.490421 0
M  V30 3862 H 350.769 -0.934812 0.157579 0
M  V30 3863 H 350.475 -3.51699 -0.00704236 0
M  V30 3864 H 350.349 -3.34225 -1.74853 0
M  V30 3865 H 352.736 -2.35102 -1.78356 0
M  V30 3866 H 352.817 -2.55785 -0.0281435 0
M  V30 3867 H 352.461 -5.06827 -0.329915 0
M  V30 3868 H 352.391 -4.83165 -2.09426 0
M  V30 3869 H 354.882 -3.60797 -1.124 0
M  V30 3870 H 355.195 -7.54004 -1.69404 0
M  V30 3871 H 353.54 -6.77944 -1.53027 0
M  V30 3872 H 356.731 -4.49349 -1.31162 0
M  V30 3873 H 356.904 -6.28649 -1.57178 0
M  V30 3874 N 350.31 0.590341 -1.46126 0
M  V30 3875 C 351.258 1.72105 -1.5647 0
M  V30 3876 C 352.252 1.63756 -0.433612 0
M  V30 3877 O 353.458 1.69342 -0.610194 0
M  V30 3878 H 349.833 0.568889 -0.491802 0
M  V30 3879 H 351.804 1.6051 -2.51553 0
M  V30 3880 C 350.553 3.10493 -1.56491 0
M  V30 3881 H 349.876 3.17583 -2.4286 0
M  V30 3882 H 351.316 3.8939 -1.67785 0
M  V30 3883 C 349.775 3.3563 -0.292231 0
M  V30 3884 O 350.305 3.96875 0.620739 0
M  V30 3885 N 348.511 2.90026 -0.182523 0
M  V30 3886 H 348.058 2.40367 -0.926356 0
M  V30 3887 H 348.016 3.07218 0.668152 0
M  V30 3888 N 351.788 1.33704 0.83433 0
M  V30 3889 C 353.034 1.26612 1.59188 0
M  V30 3890 C 353.389 -0.165439 1.91687 0
M  V30 3891 O 352.682 -1.10873 1.56262 0
M  V30 3892 C 352.876 2.07926 2.90692 0
M  V30 3893 C 352.705 3.58844 2.71038 0
M  V30 3894 C 351.475 4.28148 2.68361 0
M  V30 3895 C 353.673 4.53082 2.43353 0
M  V30 3896 N 351.655 5.64987 2.40132 0
M  V30 3897 C 353.026 5.77843 2.24716 0
M  V30 3898 C 355.081 4.42119 2.28987 0
M  V30 3899 C 353.784 6.92877 1.9317 0
M  V30 3900 C 355.81 5.56973 1.98835 0
M  V30 3901 C 355.172 6.80745 1.81012 0
M  V30 3902 H 351.271 0.518517 0.585375 0
M  V30 3903 H 353.855 1.68294 0.979044 0
M  V30 3904 H 352.026 1.68558 3.49918 0
M  V30 3905 H 353.758 1.92568 3.55949 0
M  V30 3906 H 350.513 3.80469 2.82029 0
M  V30 3907 H 350.937 6.37133 2.28889 0
M  V30 3908 H 355.579 3.47058 2.41477 0
M  V30 3909 H 353.297 7.87931 1.79418 0
M  V30 3910 H 356.883 5.50428 1.88468 0
M  V30 3911 H 355.763 7.68115 1.58017 0
M  V30 3912 N 353.266 -1.05314 1.17247 0
M  V30 3913 C 354.515 -1.77685 0.954521 0
M  V30 3914 C 354.828 -1.88616 -0.518025 0
M  V30 3915 O 356.034 -2.57714 -0.854144 0
M  V30 3916 C 354.49 -3.19402 1.65863 0
M  V30 3917 C 354.098 -3.16605 3.16963 0
M  V30 3918 C 355.842 -3.96237 1.52303 0
M  V30 3919 C 353.749 -4.53103 3.80068 0
M  V30 3920 H 352.679 -0.666 0.353496 0
M  V30 3921 H 355.33 -1.1805 1.40486 0
M  V30 3922 H 353.712 -3.79355 1.13602 0
M  V30 3923 H 354.886 -2.66176 3.76148 0
M  V30 3924 H 353.201 -2.53268 3.30521 0
M  V30 3925 H 355.798 -4.97157 1.96822 0
M  V30 3926 H 356.141 -4.136 0.473401 0
M  V30 3927 H 356.674 -3.42829 2.01775 0
M  V30 3928 H 353.413 -4.40946 4.85023 0
M  V30 3929 H 352.933 -5.03686 3.2567 0
M  V30 3930 H 354.612 -5.22045 3.82202 0
M  V30 3931 N 354.744 -0.972509 -1.24016 0
M  V30 3932 C 355.974 -0.653853 -1.9598 0
M  V30 3933 C 356.382 0.781801 -1.72292 0
M  V30 3934 O 355.725 1.53677 -1.00644 0
M  V30 3935 C 355.787 -0.854608 -3.49194 0
M  V30 3936 C 355.451 -2.27082 -3.96589 0
M  V30 3937 C 356.448 -3.24892 -4.05883 0
M  V30 3938 C 354.133 -2.5998 -4.29786 0
M  V30 3939 C 356.127 -4.53684 -4.47716 0
M  V30 3940 C 353.814 -3.88997 -4.71301 0
M  V30 3941 C 354.812 -4.85661 -4.80232 0
M  V30 3942 O 354.5 -6.12376 -5.20818 0
M  V30 3943 H 354.232 -0.242572 -0.630979 0
M  V30 3944 H 356.786 -1.30431 -1.58673 0
M  V30 3945 H 355.016 -0.146985 -3.86421 0
M  V30 3946 H 356.705 -0.534311 -4.02368 0
M  V30 3947 H 357.471 -3.00805 -3.80449 0
M  V30 3948 H 353.35 -1.85457 -4.22051 0
M  V30 3949 H 356.894 -5.29135 -4.54601 0
M  V30 3950 H 352.791 -4.12882 -4.96184 0
M  V30 3951 H 353.559 -6.16013 -5.38953 0
M  V30 3952 N 356.222 1.38976 -0.743202 0
M  V30 3953 C 357.638 1.53984 -0.419664 0
M  V30 3954 C 357.838 1.70837 1.0685 0
M  V30 3955 O 356.894 1.7135 1.8546 0
M  V30 3956 C 358.207 2.75287 -1.20985 0
M  V30 3957 C 359.755 2.89129 -1.19889 0
M  V30 3958 C 360.23 4.13381 -1.97181 0
M  V30 3959 N 361.721 4.20437 -1.94389 0
M  V30 3960 C 362.456 5.15547 -2.50996 0
M  V30 3961 N 361.952 6.16395 -3.16274 0
M  V30 3962 N 363.745 5.07822 -2.40984 0
M  V30 3963 H 355.896 1.26285 -1.7078 0
M  V30 3964 H 358.159 0.612689 -0.723406 0
M  V30 3965 H 357.865 2.69204 -2.26323 0
M  V30 3966 H 357.739 3.68184 -0.819759 0
M  V30 3967 H 360.126 2.947 -0.153606 0
M  V30 3968 H 360.207 1.97272 -1.62841 0
M  V30 3969 H 359.851 4.08572 -3.01714 0
M  V30 3970 H 359.781 5.04298 -1.51629 0
M  V30 3971 H 362.272 3.48205 -1.46839 0
M  V30 3972 H 362.585 6.85443 -3.56915 0
M  V30 3973 H 360.93 6.16758 -3.20367 0
M  V30 3974 H 364.121 4.27973 -1.89622 0
M  V30 3975 H 364.294 5.81767 -2.85397 0
M  V30 3976 N 357.7 0.491464 1.49741 0
M  V30 3977 C 358.948 -0.0563141 2.02022 0
M  V30 3978 C 359.269 -1.38363 1.37407 0
M  V30 3979 O 358.539 -1.88702 0.526166 0
M  V30 3980 H 357.119 -0.0238014 0.746621 0
M  V30 3981 H 359.781 0.646533 1.83864 0
M  V30 3982 H 358.877 -0.192967 3.11503 0
M  V30 3983 N 359.178 -1.55987 0.224894 0
M  V30 3984 C 360.594 -1.59066 -0.130426 0
M  V30 3985 C 360.794 -1.24176 -1.5869 0
M  V30 3986 O 359.85 -0.978592 -2.32766 0
M  V30 3987 C 361.163 -3.00042 0.198883 0
M  V30 3988 C 362.711 -3.1268 0.141391 0
M  V30 3989 C 363.186 -4.55839 0.444422 0
M  V30 3990 N 364.677 -4.6152 0.394115 0
M  V30 3991 C 365.412 -5.70231 0.602038 0
M  V30 3992 N 364.908 -6.87291 0.871914 0
M  V30 3993 N 366.701 -5.59555 0.534245 0
M  V30 3994 H 358.852 -1.76941 1.17497 0
M  V30 3995 H 361.115 -0.822604 0.471197 0
M  V30 3996 H 360.821 -3.30234 1.2099 0
M  V30 3997 H 360.695 -3.74075 -0.484535 0
M  V30 3998 H 363.082 -2.82283 -0.860265 0
M  V30 3999 H 363.163 -2.40969 0.858335 0
M  V30 4000 H 362.807 -4.86954 1.44353 0
M  V30 4001 H 362.737 -5.2578 -0.293752 0
M  V30 4002 H 365.228 -3.77405 0.193356 0
M  V30 4003 H 365.541 -7.66058 1.01858 0
M  V30 4004 H 363.886 -6.89028 0.909145 0
M  V30 4005 H 367.077 -4.6698 0.323612 0
M  V30 4006 H 367.25 -6.44211 0.699693 0
M  V30 4007 N 360.656 0.0484629 -1.57525 0
M  V30 4008 C 361.603 1.05504 -2.05275 0
M  V30 4009 C 362.573 1.37084 -0.937927 0
M  V30 4010 O 363.758 1.47754 -1.2072 0
M  V30 4011 C 360.898 2.35676 -2.52093 0
M  V30 4012 C 360.011 2.10423 -3.77288 0
M  V30 4013 C 359.146 3.34327 -4.12794 0
M  V30 4014 C 358.185 3.04542 -5.30962 0
M  V30 4015 N 357.322 4.20841 -5.61994 0
M  V30 4016 H 362.162 0.640885 -2.91027 0
M  V30 4017 H 359.699 0.304854 -1.43906 0
M  V30 4018 H 361.657 3.11709 -2.77297 0
M  V30 4019 H 360.287 2.7485 -1.69285 0
M  V30 4020 H 359.339 1.24976 -3.59284 0
M  V30 4021 H 360.651 1.84438 -4.63448 0
M  V30 4022 H 359.805 4.1874 -4.39024 0
M  V30 4023 H 358.544 3.63408 -3.25247 0
M  V30 4024 H 357.549 2.18528 -5.04505 0
M  V30 4025 H 358.774 2.76758 -6.20146 0
M  V30 4026 H 356.72 4.4991 -4.77406 0
M  V30 4027 H 356.637 3.98212 -6.42622 0
M  V30 4028 H 357.905 5.06184 -5.92789 0
M  V30 4029 O 362.173 1.60359 0.191666 0
M  V30 4030 H 362.864 1.75005 0.830227 0
M  V30 END ATOM
M  V30 BEGIN BOND
M  V30 END BOND
M  V30 END CTAB
M  END
$$$$
