drugbank_target|P40429 60S ribosomal protein L13a (DB02494; DB07374; DB08437)
 OpenBabel12092120423D

  0  0  0     0  0            999 V3000
M  V30 BEGIN CTAB
M  V30 COUNTS 3474 3506 0 0 0
M  V30 BEGIN ATOM
M  V30 1 H -0.908 1.98254 -0.117106 0
M  V30 2 N 0 1.576 0 0
M  V30 3 C 0.933 2.03868 1.02534 0
M  V30 4 C 1.911 0.928543 1.3348 0
M  V30 5 O 3.095 1.19667 1.45644 0
M  V30 6 C 0.222 2.43627 2.35294 0
M  V30 7 C -0.732 3.65373 2.2001 0
M  V30 8 S 0.101 5.13292 1.52614 0
M  V30 9 C 1.257 5.56322 2.86805 0
M  V30 10 H 1.49 2.90518 0.631377 0
M  V30 11 H -0.977 1.52953 0.210867 0
M  V30 12 H 0.981 2.67203 3.11629 0
M  V30 13 H -0.358 1.57376 2.7183 0
M  V30 14 H -1.165 3.90944 3.18086 0
M  V30 15 H -1.563 3.418 1.51819 0
M  V30 16 H 0.729 5.58782 3.83104 0
M  V30 17 H 1.672 6.56266 2.65933 0
M  V30 18 H 2.08 4.83886 2.90714 0
M  V30 19 N 1.4781 -0.272755 1.55222 0
M  V30 20 C 2.4411 -1.32041 1.87344 0
M  V30 21 C 3.4411 -1.42342 0.74803 0
M  V30 22 O 4.6311 -1.41488 1.0162 0
M  V30 23 C 1.7631 -2.70173 2.07893 0
M  V30 24 H 2.9561 -1.04789 2.80997 0
M  V30 25 H 0.5091 -0.51083 1.47717 0
M  V30 26 H 1.2441 -3.02605 1.16622 0
M  V30 27 H 1.0291 -2.64082 2.89833 0
M  V30 28 H 2.5191 -3.45869 2.34017 0
M  V30 29 N 2.9562 -1.48159 -0.537278 0
M  V30 30 C 3.8662 -1.64807 -1.6696 0
M  V30 31 C 4.8822 -0.530651 -1.65711 0
M  V30 32 O 6.0582 -0.800784 -1.84796 0
M  V30 33 C 3.1232 -1.67708 -3.03438 0
M  V30 34 C 2.1842 -2.91025 -3.156 0
M  V30 35 C 1.4172 -2.93778 -4.45567 0
M  V30 36 O 1.6402 -2.05153 -5.3223 0
M  V30 37 O 0.5742 -3.85868 -4.61941 0
M  V30 38 H 4.4002 -2.6066 -1.55853 0
M  V30 39 H 1.9852 -1.31475 -0.709549 0
M  V30 40 H 3.8672 -1.7218 -3.84619 0
M  V30 41 H 2.5422 -0.750278 -3.14885 0
M  V30 42 H 1.4492 -2.92089 -2.33741 0
M  V30 43 H 2.7822 -3.83065 -3.09066 0
M  V30 44 N 4.4343 0.785586 -1.36625 0
M  V30 45 C 5.6803 1.54591 -1.31261 0
M  V30 46 C 6.0133 1.93906 0.106823 0
M  V30 47 O 5.2883 1.63007 1.06108 0
M  V30 48 C 5.5713 2.82038 -2.23889 0
M  V30 49 C 5.4243 2.49066 -3.74548 0
M  V30 50 C 6.7433 3.83887 -2.15217 0
M  V30 51 H 3.8623 0.560846 -0.478143 0
M  V30 52 H 6.5043 0.902278 -1.67209 0
M  V30 53 H 4.6543 3.36961 -1.93363 0
M  V30 54 H 6.3263 2.00164 -4.15611 0
M  V30 55 H 4.5693 1.81954 -3.93796 0
M  V30 56 H 5.2403 3.40109 -4.34776 0
M  V30 57 H 7.7163 3.38421 -2.42096 0
M  V30 58 H 6.5923 4.70806 -2.82193 0
M  V30 59 H 6.8533 4.27131 -1.14068 0
M  V30 60 N 5.9124 1.20967 1.01018 0
M  V30 61 C 6.8444 0.922059 2.09835 0
M  V30 62 C 7.8574 -0.0927106 1.62536 0
M  V30 63 O 9.0464 0.139127 1.77957 0
M  V30 64 C 6.1464 0.362004 3.36961 0
M  V30 65 C 5.3194 1.42986 4.13369 0
M  V30 66 C 4.3784 0.879976 5.1879 0
M  V30 67 O 3.4044 1.56219 5.47343 0
M  V30 68 N 4.6064 -0.307396 5.79686 0
M  V30 69 H 7.3714 1.8588 2.35093 0
M  V30 70 H 4.9324 1.11422 1.1746 0
M  V30 71 H 6.9244 -0.0201474 4.04695 0
M  V30 72 H 5.4944 -0.479437 3.08902 0
M  V30 73 H 4.7144 1.98608 3.40512 0
M  V30 74 H 6.0024 2.14885 4.61196 0
M  V30 75 H 5.4004 -0.878796 5.58832 0
M  V30 76 H 3.9574 -0.631115 6.48737 0
M  V30 77 N 7.3905 -1.2043 1.01659 0
M  V30 78 C 8.6365 -1.90079 0.706963 0
M  V30 79 C 8.9695 -1.78648 -0.761474 0
M  V30 80 O 8.2445 -1.17069 -1.55323 0
M  V30 81 C 8.5275 -3.41469 1.14327 0
M  V30 82 C 8.3805 -3.61833 2.67201 0
M  V30 83 C 9.6995 -4.34261 0.714529 0
M  V30 84 H 6.8185 -0.690254 0.2583 0
M  V30 85 H 9.4605 -1.41826 1.26433 0
M  V30 86 H 7.6105 -3.82696 0.669056 0
M  V30 87 H 9.2825 -3.2986 3.22475 0
M  V30 88 H 7.5255 -3.05304 3.08175 0
M  V30 89 H 8.1965 -4.67955 2.92783 0
M  V30 90 H 10.6725 -4.00682 1.12221 0
M  V30 91 H 9.5485 -5.38806 1.04784 0
M  V30 92 H 9.8095 -4.40431 -0.383799 0
M  V30 93 N 8.8686 -0.792821 -1.36206 0
M  V30 94 C 9.7986 -0.207853 -2.32573 0
M  V30 95 C 10.7796 0.659055 -1.56813 0
M  V30 96 O 11.9646 0.592176 -1.84951 0
M  V30 97 C 9.0946 0.655449 -3.41059 0
M  V30 98 C 8.0486 -0.111842 -4.27854 0
M  V30 99 C 7.3746 0.872274 -5.27537 0
M  V30 100 C 8.6746 -1.30299 -5.05786 0
M  V30 101 H 10.3686 -1.01294 -2.81744 0
M  V30 102 H 7.9146 -0.48854 -1.3546 0
M  V30 103 H 9.8676 1.07464 -4.07467 0
M  V30 104 H 8.5916 1.49328 -2.90463 0
M  V30 105 H 7.2506 -0.512053 -3.63006 0
M  V30 106 H 6.8986 1.70523 -4.73214 0
M  V30 107 H 6.5986 0.363291 -5.86476 0
M  V30 108 H 8.1226 1.28996 -5.96818 0
M  V30 109 H 9.5366 -0.959379 -5.65216 0
M  V30 110 H 7.9336 -1.7455 -5.74154 0
M  V30 111 H 9.0036 -2.09663 -4.37229 0
M  V30 112 N 10.3467 1.47872 -0.545128 0
M  V30 113 C 11.5927 2.02793 -0.0166104 0
M  V30 114 C 11.9257 1.41987 1.32489 0
M  V30 115 O 11.2007 0.571045 1.85928 0
M  V30 116 C 11.4837 3.59989 0.0893294 0
M  V30 117 C 11.3367 4.3125 -1.27841 0
M  V30 118 C 12.6557 4.32606 0.808724 0
M  V30 119 H 9.7747 0.736962 -0.00751035 0
M  V30 120 H 12.4167 1.76433 -0.705085 0
M  V30 121 H 10.5667 3.82579 0.675681 0
M  V30 122 H 12.2387 4.20035 -1.90704 0
M  V30 123 H 10.4817 3.92076 -1.85632 0
M  V30 124 H 11.1527 5.39736 -1.15713 0
M  V30 125 H 13.6287 4.14936 0.310992 0
M  V30 126 H 12.5047 5.42251 0.851782 0
M  V30 127 H 12.7657 4.00963 1.86229 0
M  V30 128 N 11.8248 0.280983 1.55075 0
M  V30 129 C 12.7548 -0.597469 2.25727 0
M  V30 130 C 13.7358 -1.15417 1.24952 0
M  V30 131 O 14.9208 -1.18722 1.53684 0
M  V30 132 C 12.0508 -1.7789 2.98283 0
M  V30 133 C 11.0048 -1.35347 4.06036 0
M  V30 134 C 10.3308 -2.61846 4.66198 0
M  V30 135 C 11.6308 -0.499354 5.19907 0
M  V30 136 H 13.3248 -0.00824265 2.99399 0
M  V30 137 H 10.8708 -0.0025244 1.44 0
M  V30 138 H 12.8238 -2.39937 3.46422 0
M  V30 139 H 11.5478 -2.39405 2.22155 0
M  V30 140 H 10.2068 -0.756156 3.58717 0
M  V30 141 H 9.8548 -3.21632 3.86732 0
M  V30 142 H 9.5548 -2.3409 5.38958 0
M  V30 143 H 11.0788 -3.24732 5.1709 0
M  V30 144 H 12.4928 -1.02498 5.64063 0
M  V30 145 H 10.8898 -0.316424 5.99265 0
M  V30 146 H 11.9598 0.480459 4.82514 0
M  V30 147 N 13.3029 -1.57598 0.00835791 0
M  V30 148 C 14.5799 -1.82172 -0.712235 0
M  V30 149 C 14.9599 -0.887873 -1.9152 0
M  V30 150 O 14.3079 0.06146 -2.28417 0
M  V30 151 C 14.5179 -3.30875 -1.11008 0
M  V30 152 C 15.8659 -3.96826 -1.51044 0
M  V30 153 O 16.8899 -3.35248 -1.20364 0
M  V30 154 O 15.7489 -5.05318 -2.08125 0
M  V30 155 H 12.8429 -0.750435 -0.347529 0
M  V30 156 H 15.3889 -1.69665 0.0344523 0
M  V30 157 H 14.1609 -3.90481 -0.252982 0
M  V30 158 H 13.7839 -3.48412 -1.9156 0
M  V30 159 N 14.781 0.264519 -1.55364 0
M  V30 160 C 16.029 0.993021 -1.76021 0
M  V30 161 C 16.35 1.86511 -0.569099 0
M  V30 162 O 15.62 1.91438 0.415735 0
M  V30 163 H 14.2 0.369639 -0.649135 0
M  V30 164 H 16.862 0.286707 -1.9278 0
M  V30 165 H 15.958 1.62502 -2.66457 0
M  V30 166 N 16.2591 1.48442 0.529413 0
M  V30 167 C 17.6751 1.34575 0.858004 0
M  V30 168 C 17.8751 0.3572 1.98309 0
M  V30 169 O 16.9311 -0.221379 2.51528 0
M  V30 170 C 18.2441 2.74617 1.22499 0
M  V30 171 C 19.7921 2.83109 1.33484 0
M  V30 172 C 20.2671 4.23854 1.73526 0
M  V30 173 N 21.7581 4.2653 1.80628 0
M  V30 174 C 22.4931 5.32372 2.12997 0
M  V30 175 N 21.9891 6.48491 2.43786 0
M  V30 176 N 23.7821 5.19766 2.14008 0
M  V30 177 H 15.9331 2.1133 -0.212925 0
M  V30 178 H 18.1961 0.947439 -0.0326199 0
M  V30 179 H 17.9021 3.4852 0.471905 0
M  V30 180 H 17.7761 3.08177 2.17501 0
M  V30 181 H 20.1631 2.09462 2.0787 0
M  V30 182 H 20.2441 2.53168 0.366027 0
M  V30 183 H 19.8881 4.98018 0.997013 0
M  V30 184 H 19.8181 4.5124 2.71459 0
M  V30 185 H 22.3091 3.42772 1.59108 0
M  V30 186 H 22.6221 7.24993 2.67592 0
M  V30 187 H 20.9671 6.51765 2.41304 0
M  V30 188 H 24.1581 4.28066 1.89412 0
M  V30 189 H 24.3311 6.02354 2.38902 0
M  V30 190 N 17.7372 -0.778329 1.37039 0
M  V30 191 C 18.9852 -1.53361 1.31623 0
M  V30 192 C 19.3062 -1.94739 -0.100831 0
M  V30 193 O 18.5762 -1.65797 -1.04347 0
M  V30 194 H 17.1562 -0.568794 0.484234 0
M  V30 195 H 19.8182 -0.926742 1.71457 0
M  V30 196 H 18.9142 -2.43606 1.95096 0
M  V30 197 N 19.2153 -1.21501 -1.00376 0
M  V30 198 C 20.1653 -0.942843 -2.07592 0
M  V30 199 C 21.1493 0.102384 -1.60574 0
M  V30 200 O 22.3413 -0.10671 -1.76678 0
M  V30 201 C 19.4703 -0.510729 -3.3948 0
M  V30 202 C 18.5563 -1.59009 -3.93163 0
M  V30 203 N 18.9473 -2.81544 -4.20198 0
M  V30 204 C 17.2453 -1.45925 -4.21452 0
M  V30 205 C 17.9463 -3.51261 -4.63671 0
M  V30 206 N 16.9223 -2.78703 -4.66718 0
M  V30 207 H 20.7243 -1.87378 -2.26421 0
M  V30 208 H 18.2383 -1.11093 -1.18458 0
M  V30 209 H 20.2353 -0.297101 -4.1584 0
M  V30 210 H 18.8953 0.413436 -3.22057 0
M  V30 211 H 19.9063 -3.18075 -4.08716 0
M  V30 212 H 16.5833 -0.600467 -4.13159 0
M  V30 213 H 17.9733 -4.56183 -4.93302 0
M  V30 214 N 20.6934 1.19889 -1.02296 0
M  V30 215 C 21.6234 2.25141 -0.619174 0
M  V30 216 C 22.6044 1.66051 0.368915 0
M  V30 217 O 23.7894 1.92546 0.252941 0
M  V30 218 C 20.9194 3.4728 0.0368783 0
M  V30 219 C 19.8734 4.19005 -0.872865 0
M  V30 220 C 19.1994 5.34637 -0.0822402 0
M  V30 221 C 20.4994 4.74452 -2.18387 0
M  V30 222 H 22.1934 2.59171 -1.49903 0
M  V30 223 H 19.7394 1.24579 -0.722222 0
M  V30 224 H 21.6924 4.20098 0.330958 0
M  V30 225 H 20.4164 3.12433 0.95149 0
M  V30 226 H 19.0754 3.48061 -1.15105 0
M  V30 227 H 18.7234 4.96034 0.83422 0
M  V30 228 H 18.4234 5.83557 -0.688149 0
M  V30 229 H 19.9474 6.10255 0.205238 0
M  V30 230 H 21.3614 5.39055 -1.95172 0
M  V30 231 H 19.7584 5.33834 -2.74119 0
M  V30 232 H 20.8284 3.92844 -2.84257 0
M  V30 233 N 22.1715 0.800033 1.35784 0
M  V30 234 C 23.1015 0.220184 2.3246 0
M  V30 235 C 24.0825 -0.65073 1.57161 0
M  V30 236 O 25.2675 -0.582359 1.85263 0
M  V30 237 C 22.3975 -0.637353 3.41402 0
M  V30 238 C 21.3515 0.134531 4.27789 0
M  V30 239 C 20.6775 -0.844285 5.27992 0
M  V30 240 C 21.9775 1.32979 5.05088 0
M  V30 241 H 23.6715 1.02787 2.81203 0
M  V30 242 H 21.2175 0.495717 1.35199 0
M  V30 243 H 23.1705 -1.05302 4.08031 0
M  V30 244 H 21.8945 -1.47785 2.91251 0
M  V30 245 H 20.5535 0.531296 3.6273 0
M  V30 246 H 20.2015 -1.68011 4.74111 0
M  V30 247 H 19.9015 -0.332184 5.8666 0
M  V30 248 H 21.4255 -1.2583 5.97494 0
M  V30 249 H 22.8395 0.98934 5.64699 0
M  V30 250 H 21.2365 1.77593 5.7322 0
M  V30 251 H 22.3065 2.11978 4.36111 0
M  V30 252 N 23.6496 -1.47581 0.552962 0
M  V30 253 C 24.8976 -2.02082 0.0272703 0
M  V30 254 C 25.2186 -1.4301 -1.32563 0
M  V30 255 O 24.4886 -0.603745 -1.86365 0
M  V30 256 H 23.0686 -0.746966 0.00709182 0
M  V30 257 H 25.7306 -1.81033 0.722008 0
M  V30 258 H 24.8266 -3.12034 -0.0639951 0
M  V30 259 N 25.1277 -0.289203 -1.54924 0
M  V30 260 C 26.5437 0.0645403 -1.59469 0
M  V30 261 C 26.7437 1.53419 -1.30632 0
M  V30 262 O 25.7997 2.2852 -1.074 0
M  V30 263 C 27.1127 -0.32278 -2.98963 0
M  V30 264 C 28.6607 -0.270564 -3.11828 0
M  V30 265 C 29.1357 -0.632532 -4.53611 0
M  V30 266 N 30.6267 -0.584617 -4.59496 0
M  V30 267 C 31.3617 -0.837314 -5.67254 0
M  V30 268 N 30.8577 -1.15536 -6.83098 0
M  V30 269 N 32.6507 -0.765166 -5.56868 0
M  V30 270 H 24.8017 -1.24714 -1.71931 0
M  V30 271 H 27.0647 -0.504809 -0.802416 0
M  V30 272 H 26.7707 -1.34541 -3.24948 0
M  V30 273 H 26.6447 0.32944 -3.75759 0
M  V30 274 H 29.0317 0.742805 -2.85598 0
M  V30 275 H 29.1127 -0.957242 -2.37214 0
M  V30 276 H 28.7567 -1.64365 -4.80569 0
M  V30 277 H 28.6867 0.07609 -5.26545 0
M  V30 278 H 31.1777 -0.349248 -3.76283 0
M  V30 279 H 31.4907 -1.33447 -7.61191 0
M  V30 280 H 29.8357 -1.19328 -6.84679 0
M  V30 281 H 33.0267 -0.516432 -4.65243 0
M  V30 282 H 33.1997 -0.965477 -6.40767 0
M  V30 283 N 26.6058 1.57591 -0.0167156 0
M  V30 284 C 27.5358 2.12496 0.967858 0
M  V30 285 C 28.5168 1.03807 1.34752 0
M  V30 286 O 29.7018 1.31577 1.42833 0
M  V30 287 C 26.8318 2.64194 2.25431 0
M  V30 288 C 25.7858 3.77559 2.01576 0
M  V30 289 C 25.1118 4.15636 3.36379 0
M  V30 290 C 26.4118 5.04151 1.36489 0
M  V30 291 H 28.1058 2.95013 0.510643 0
M  V30 292 H 25.6518 1.41915 0.244181 0
M  V30 293 H 27.6048 3.01236 2.94678 0
M  V30 294 H 26.3288 1.78821 2.73296 0
M  V30 295 H 24.9878 3.40937 1.34751 0
M  V30 296 H 24.6358 3.27263 3.81979 0
M  V30 297 H 24.3358 4.92022 3.21229 0
M  V30 298 H 25.8598 4.5525 4.06915 0
M  V30 299 H 27.2738 5.38857 1.95718 0
M  V30 300 H 25.6708 5.85453 1.31776 0
M  V30 301 H 26.7408 4.83733 0.336219 0
M  V30 302 N 28.0839 -0.256276 1.55502 0
M  V30 303 C 29.0469 -1.30047 1.88734 0
M  V30 304 C 30.0469 -1.4154 0.763086 0
M  V30 305 O 31.2369 -1.40403 1.03115 0
M  V30 306 C 28.3689 -2.67953 2.10747 0
M  V30 307 H 29.5619 -1.01802 2.82093 0
M  V30 308 H 27.1149 -0.495134 1.4825 0
M  V30 309 H 27.8499 -3.01351 1.19825 0
M  V30 310 H 27.6349 -2.60993 2.92617 0
M  V30 311 H 29.1249 -3.43368 2.37673 0
M  V30 312 N 29.562 -1.4872 -0.521534 0
M  V30 313 C 30.525 -1.63379 -1.60748 0
M  V30 314 C 31.525 -0.50661 -1.52611 0
M  V30 315 O 32.715 -0.772601 -1.5613 0
M  V30 316 C 29.847 -1.61192 -3.00383 0
M  V30 317 H 31.04 -2.60217 -1.49087 0
M  V30 318 H 28.593 -1.37444 -0.744235 0
M  V30 319 H 29.328 -0.65863 -3.17541 0
M  V30 320 H 29.113 -2.43032 -3.07698 0
M  V30 321 H 30.603 -1.7466 -3.7932 0
M  V30 322 N 31.0401 0.771051 -1.3745 0
M  V30 323 C 32.2891 1.52491 -1.3202 0
M  V30 324 C 32.6021 1.9538 0.0927347 0
M  V30 325 O 33.8081 2.70159 0.269503 0
M  V30 326 C 32.2641 2.75366 -2.31736 0
M  V30 327 C 31.8721 2.39573 -3.78562 0
M  V30 328 C 33.6161 3.53307 -2.35318 0
M  V30 329 C 31.5231 3.58954 -4.70007 0
M  V30 330 H 30.4531 0.572506 -0.490666 0
M  V30 331 H 33.1041 0.844474 -1.62914 0
M  V30 332 H 31.4861 3.45303 -1.93861 0
M  V30 333 H 32.6601 1.77415 -4.25277 0
M  V30 334 H 30.9751 1.74805 -3.77932 0
M  V30 335 H 33.5721 4.42039 -3.00842 0
M  V30 336 H 33.9151 3.93217 -1.36698 0
M  V30 337 H 34.4481 2.90367 -2.71904 0
M  V30 338 H 31.1871 3.24125 -5.69757 0
M  V30 339 H 30.7071 4.20214 -4.27996 0
M  V30 340 H 32.3861 4.25758 -4.87175 0
M  V30 341 N 32.5182 1.22032 0.997298 0
M  V30 342 C 33.7642 1.04376 1.73878 0
M  V30 343 C 34.0972 -0.420716 1.89588 0
M  V30 344 O 33.3722 -1.31202 1.43583 0
M  V30 345 C 33.6552 1.75047 3.14691 0
M  V30 346 C 33.5082 3.29062 3.06656 0
M  V30 347 C 34.8272 1.49928 4.13775 0
M  V30 348 H 31.9462 0.380578 0.631133 0
M  V30 349 H 34.5882 1.50312 1.16217 0
M  V30 350 H 32.7382 1.35996 3.63919 0
M  V30 351 H 34.4102 3.7753 2.65083 0
M  V30 352 H 32.6532 3.58967 2.43568 0
M  V30 353 H 33.3242 3.73683 4.06282 0
M  V30 354 H 35.8002 1.83842 3.73285 0
M  V30 355 H 34.6762 2.01878 5.10428 0
M  V30 356 H 34.9372 0.430929 4.39995 0
M  V30 357 N 33.9963 -1.19345 1.0293 0
M  V30 358 C 34.9593 -2.20793 0.615069 0
M  V30 359 C 35.9593 -1.57553 -0.321533 0
M  V30 360 O 37.1493 -1.73862 -0.108483 0
M  V30 361 C 34.2813 -3.40754 -0.0999222 0
M  V30 362 H 35.4743 -2.58955 1.51269 0
M  V30 363 H 33.0273 -1.3303 0.820534 0
M  V30 364 H 33.7623 -3.0811 -1.01187 0
M  V30 365 H 33.5473 -3.87889 0.57309 0
M  V30 366 H 35.0373 -4.15898 -0.376645 0
M  V30 367 N 35.4744 -0.807222 -1.35358 0
M  V30 368 C 36.4214 -0.216037 -2.29787 0
M  V30 369 C 37.3914 0.650278 -1.52842 0
M  V30 370 O 38.5764 0.595227 -1.81278 0
M  V30 371 C 35.7164 0.628893 -3.39321 0
M  V30 372 C 34.8294 -0.257927 -4.31229 0
M  V30 373 C 33.9644 0.595069 -5.27856 0
M  V30 374 C 33.0034 -0.292111 -6.11403 0
M  V30 375 N 32.1404 0.520895 -7.00165 0
M  V30 376 H 36.9804 -1.02671 -2.79755 0
M  V30 377 H 34.5174 -0.517839 -1.37684 0
M  V30 378 H 36.4754 1.13393 -4.01494 0
M  V30 379 H 35.1054 1.40482 -2.90628 0
M  V30 380 H 34.1574 -0.881076 -3.70056 0
M  V30 381 H 35.4694 -0.940759 -4.89848 0
M  V30 382 H 34.6234 1.16522 -5.95405 0
M  V30 383 H 33.3624 1.31146 -4.69736 0
M  V30 384 H 32.3674 -0.874525 -5.428 0
M  V30 385 H 33.5924 -1.00638 -6.71602 0
M  V30 386 H 31.5384 1.22125 -6.44532 0
M  V30 387 H 31.4554 -0.103877 -7.55929 0
M  V30 388 H 32.7234 1.0743 -7.72062 0
M  V30 389 N 36.9525 1.47285 -0.560781 0
M  V30 390 C 37.8845 2.28118 0.222438 0
M  V30 391 C 38.8975 1.37219 0.876056 0
M  V30 392 O 40.0865 1.62011 0.749307 0
M  V30 393 C 37.1865 3.1159 1.33285 0
M  V30 394 C 36.3595 4.30473 0.77534 0
M  V30 395 C 35.4185 4.95513 1.77069 0
M  V30 396 O 34.4445 5.53792 1.31539 0
M  V30 397 N 35.6465 4.90531 3.10418 0
M  V30 398 H 38.4115 2.95976 -0.470958 0
M  V30 399 H 35.9725 1.56955 -0.39709 0
M  V30 400 H 37.9645 3.51967 1.99752 0
M  V30 401 H 36.5345 2.45951 1.92943 0
M  V30 402 H 35.7545 3.94144 -0.0662113 0
M  V30 403 H 37.0425 5.07362 0.382272 0
M  V30 404 H 36.4405 4.44389 3.5005 0
M  V30 405 H 34.9975 5.34917 3.72434 0
M  V30 406 N 38.4306 0.297415 1.54768 0
M  V30 407 C 39.6766 -0.313376 2.00364 0
M  V30 408 C 40.0096 -1.53815 1.18553 0
M  V30 409 O 39.2846 -1.92739 0.261103 0
M  V30 410 C 39.5676 -0.673525 3.53745 0
M  V30 411 C 39.4206 0.560133 4.46299 0
M  V30 412 C 40.7396 -1.50143 4.13697 0
M  V30 413 H 37.8586 -0.112428 0.728374 0
M  V30 414 H 40.5006 0.4088 1.8555 0
M  V30 415 H 38.6506 -1.28881 3.665 0
M  V30 416 H 40.3226 1.19863 4.45455 0
M  V30 417 H 38.5656 1.19405 4.17043 0
M  V30 418 H 39.2366 0.26405 5.51368 0
M  V30 419 H 41.7126 -0.981588 4.04356 0
M  V30 420 H 40.5886 -1.72221 5.21182 0
M  V30 421 H 40.8496 -2.48952 3.65343 0
M  V30 422 N 39.9087 -1.5758 0.0250728 0
M  V30 423 C 40.8387 -2.13007 -0.956575 0
M  V30 424 C 41.8197 -1.0452 -1.342 0
M  V30 425 O 43.0047 -1.32332 -1.42133 0
M  V30 426 C 40.1347 -2.65386 -2.24026 0
M  V30 427 C 39.0887 -3.78623 -1.99571 0
M  V30 428 C 38.4147 -4.17414 -3.3417 0
M  V30 429 C 39.7147 -5.04867 -1.33814 0
M  V30 430 H 41.4087 -2.9528 -0.494991 0
M  V30 431 H 38.9547 -1.42042 -0.236651 0
M  V30 432 H 40.9077 -3.02794 -2.93076 0
M  V30 433 H 39.6317 -1.80268 -2.72343 0
M  V30 434 H 38.2907 -3.41646 -1.32941 0
M  V30 435 H 37.9387 -3.29284 -3.80238 0
M  V30 436 H 37.6387 -4.93719 -3.18615 0
M  V30 437 H 39.1627 -4.57402 -4.04495 0
M  V30 438 H 40.5767 -5.39888 -1.92857 0
M  V30 439 H 38.9737 -5.86144 -1.28669 0
M  V30 440 H 40.0437 -4.83904 -0.310561 0
M  V30 441 N 41.3868 0.248026 -1.55636 0
M  V30 442 C 42.3168 1.31079 -1.93237 0
M  V30 443 C 43.2978 1.50264 -0.797174 0
M  V30 444 O 44.4828 1.62891 -1.05737 0
M  V30 445 C 41.6128 2.66575 -2.22609 0
M  V30 446 C 40.5668 2.62087 -3.3837 0
M  V30 447 C 39.8928 4.01369 -3.53281 0
M  V30 448 C 41.1928 2.19171 -4.7409 0
M  V30 449 H 42.8868 0.998556 -2.82257 0
M  V30 450 H 40.4328 0.47891 -1.35803 0
M  V30 451 H 42.3858 3.41057 -2.47503 0
M  V30 452 H 41.1098 2.99432 -1.30414 0
M  V30 453 H 39.7688 1.90063 -3.13483 0
M  V30 454 H 39.4168 4.31489 -2.58508 0
M  V30 455 H 39.1168 3.99254 -4.31127 0
M  V30 456 H 40.6408 4.77552 -3.80495 0
M  V30 457 H 42.0548 2.83384 -4.98363 0
M  V30 458 H 40.4518 2.2817 -5.5503 0
M  V30 459 H 41.5218 1.14336 -4.71227 0
M  V30 460 N 42.8649 1.48995 0.513639 0
M  V30 461 C 44.1129 1.57531 1.26604 0
M  V30 462 C 44.4339 0.258236 1.93283 0
M  V30 463 O 43.7039 -0.721502 1.8213 0
M  V30 464 H 42.2839 0.580387 0.470276 0
M  V30 465 H 44.9459 1.85552 0.596373 0
M  V30 466 H 44.0419 2.36486 2.03669 0
M  V30 467 N 44.343 -0.763751 1.37857 0
M  V30 468 C 45.759 -1.06542 1.18832 0
M  V30 469 C 45.959 -2.01478 0.0299722 0
M  V30 470 O 45.015 -2.4458 -0.627447 0
M  V30 471 C 46.328 -1.65525 2.51042 0
M  V30 472 C 47.876 -1.77745 2.57635 0
M  V30 473 C 48.351 -2.4014 3.89996 0
M  V30 474 N 49.842 -2.47582 3.91481 0
M  V30 475 C 50.577 -2.96732 4.9065 0
M  V30 476 N 50.073 -3.45993 6.00217 0
M  V30 477 N 51.866 -2.95679 4.78048 0
M  V30 478 H 44.017 -0.133556 2.1198 0
M  V30 479 H 46.28 -0.121879 0.940133 0
M  V30 480 H 45.986 -1.03236 3.36207 0
M  V30 481 H 45.86 -2.64719 2.68707 0
M  V30 482 H 48.247 -2.39164 1.72872 0
M  V30 483 H 48.328 -0.772836 2.43846 0
M  V30 484 H 47.972 -1.79358 4.75177 0
M  V30 485 H 47.902 -3.41223 4.01092 0
M  V30 486 H 50.393 -2.1273 3.12337 0
M  V30 487 H 50.706 -3.81922 6.7183 0
M  V30 488 H 49.051 -3.44077 6.03851 0
M  V30 489 H 52.242 -2.56499 3.91568 0
M  V30 490 H 52.415 -3.33672 5.55488 0
M  V30 491 N 45.8211 -1.22559 -0.990812 0
M  V30 492 C 46.7681 -0.997519 -2.0813 0
M  V30 493 C 47.7381 0.0814702 -1.659 0
M  V30 494 O 48.9231 -0.0685424 -1.90677 0
M  V30 495 C 46.0631 -0.583615 -3.40129 0
M  V30 496 C 45.1761 -1.7336 -3.9569 0
M  V30 497 C 44.3111 -1.26748 -5.15857 0
M  V30 498 C 43.3501 -2.38888 -5.63559 0
M  V30 499 N 42.4871 -1.93308 -6.74964 0
M  V30 500 H 47.3271 -1.93099 -2.26973 0
M  V30 501 H 44.8641 -0.962114 -1.11273 0
M  V30 502 H 46.8221 -0.324801 -4.15934 0
M  V30 503 H 45.4521 0.312845 -3.2128 0
M  V30 504 H 44.5041 -2.10669 -3.16738 0
M  V30 505 H 45.8161 -2.57704 -4.27071 0
M  V30 506 H 44.9701 -0.966173 -5.98957 0
M  V30 507 H 43.7091 -0.394272 -4.86104 0
M  V30 508 H 42.7141 -2.69805 -4.79046 0
M  V30 509 H 43.9391 -3.26728 -5.95336 0
M  V30 510 H 41.8851 -1.08352 -6.4699 0
M  V30 511 H 41.8021 -2.71217 -7.05675 0
M  V30 512 H 43.0701 -1.66252 -7.61564 0
M  V30 513 N 47.2992 1.18797 -1.03562 0
M  V30 514 C 48.5452 1.8893 -0.737113 0
M  V30 515 C 48.8782 1.79837 0.732956 0
M  V30 516 O 48.1532 1.19525 1.5344 0
M  V30 517 C 48.4362 3.39607 -1.19745 0
M  V30 518 C 48.2892 3.57537 -2.72924 0
M  V30 519 C 49.6082 4.33069 -0.783526 0
M  V30 520 H 46.7272 0.686057 -0.269249 0
M  V30 521 H 49.3692 1.39797 -1.28673 0
M  V30 522 H 47.5192 3.81583 -0.729855 0
M  V30 523 H 49.1912 3.24688 -3.27682 0
M  V30 524 H 47.4342 3.00363 -3.12993 0
M  V30 525 H 48.1052 4.63238 -3.00191 0
M  V30 526 H 50.5812 3.98846 -1.18581 0
M  V30 527 H 49.4572 5.3707 -1.13343 0
M  V30 528 H 49.7182 4.40986 0.313681 0
M  V30 529 N 48.7773 0.814389 1.34928 0
M  V30 530 C 50.0233 0.399013 1.98836 0
M  V30 531 C 50.3563 -1.03314 1.64438 0
M  V30 532 O 49.6313 -1.71811 0.911659 0
M  V30 533 C 49.9143 0.591629 3.55207 0
M  V30 534 C 49.7673 2.06928 3.99376 0
M  V30 535 C 51.0863 0.022199 4.40094 0
M  V30 536 H 48.2053 0.146451 0.722303 0
M  V30 537 H 50.8473 1.02537 1.59957 0
M  V30 538 H 48.9973 0.0584441 3.88456 0
M  V30 539 H 50.6693 2.66544 3.76499 0
M  V30 540 H 48.9123 2.56287 3.49999 0
M  V30 541 H 49.5833 2.1549 5.08201 0
M  V30 542 H 52.0593 0.477643 4.13349 0
M  V30 543 H 50.9353 0.186832 5.48582 0
M  V30 544 H 51.1963 -1.07215 4.28902 0
M  V30 545 N 50.2554 -1.46986 0.568584 0
M  V30 546 C 51.5014 -2.02741 0.0488709 0
M  V30 547 C 51.8344 -1.44077 -1.30214 0
M  V30 548 O 51.1094 -0.600552 -1.84996 0
M  V30 549 C 51.3924 -3.60086 -0.032047 0
M  V30 550 C 51.2454 -4.29162 1.34686 0
M  V30 551 C 52.5644 -4.33838 -0.739798 0
M  V30 552 H 49.6834 -0.736749 0.0192338 0
M  V30 553 H 52.3254 -1.75289 0.733065 0
M  V30 554 H 50.4754 -3.83606 -0.61473 0
M  V30 555 H 52.1474 -4.16948 1.97362 0
M  V30 556 H 50.3904 -3.89073 1.91846 0
M  V30 557 H 51.0614 -5.37826 1.24285 0
M  V30 558 H 53.5374 -4.15378 -0.244939 0
M  V30 559 H 52.4134 -5.43537 -0.765406 0
M  V30 560 H 52.6744 -4.03875 -1.79827 0
M  V30 561 N 51.7335 -0.305618 -1.54608 0
M  V30 562 C 52.9795 0.302746 -2.00528 0
M  V30 563 C 53.3125 1.53184 -1.19367 0
M  V30 564 O 52.5875 1.92598 -0.271321 0
M  V30 565 C 52.8705 0.654756 -3.54097 0
M  V30 566 C 52.7235 -0.583793 -4.45995 0
M  V30 567 C 54.0425 1.47947 -4.14487 0
M  V30 568 H 51.1615 0.108564 -0.72896 0
M  V30 569 H 53.8035 -0.418634 -1.85331 0
M  V30 570 H 51.9535 1.26935 -3.67178 0
M  V30 571 H 53.6255 -1.22224 -4.44814 0
M  V30 572 H 51.8685 -1.21615 -4.16404 0
M  V30 573 H 52.5395 -0.293287 -5.5122 0
M  V30 574 H 55.0155 0.96013 -4.04871 0
M  V30 575 H 53.8915 1.69454 -5.22088 0
M  V30 576 H 54.1525 2.47011 -3.66658 0
M  V30 577 N 53.2116 1.57565 -0.0334293 0
M  V30 578 C 54.6276 1.56297 0.322997 0
M  V30 579 C 54.8276 1.03945 1.7262 0
M  V30 580 O 53.8836 0.688109 2.42943 0
M  V30 581 C 55.1966 3.00232 0.167664 0
M  V30 582 C 56.7446 3.12078 0.240107 0
M  V30 583 C 57.2196 4.57859 0.113513 0
M  V30 584 N 58.7106 4.62887 0.170359 0
M  V30 585 C 59.4456 5.73319 0.0962517 0
M  V30 586 N 58.9416 6.92794 -0.0291881 0
M  V30 587 N 60.7346 5.61898 0.150551 0
M  V30 588 H 52.8856 1.89923 -0.950956 0
M  V30 589 H 55.1486 0.873824 -0.367608 0
M  V30 590 H 54.8546 3.42501 -0.799102 0
M  V30 591 H 54.7286 3.654 0.936083 0
M  V30 592 H 57.1156 2.69718 1.19733 0
M  V30 593 H 57.1966 2.49623 -0.558763 0
M  V30 594 H 56.8406 5.009 -0.840314 0
M  V30 595 H 56.7706 5.18299 0.931302 0
M  V30 596 H 59.2616 3.76954 0.26728 0
M  V30 597 H 59.5746 7.7276 -0.0789252 0
M  V30 598 H 57.9196 6.94971 -0.0640299 0
M  V30 599 H 61.1106 4.67448 0.246981 0
M  V30 600 H 61.2836 6.47938 0.0893365 0
M  V30 601 N 54.6897 -0.239769 1.55765 0
M  V30 602 C 55.9297 -0.974076 1.79697 0
M  V30 603 C 56.2937 -1.82249 0.604088 0
M  V30 604 O 57.4947 -2.58913 0.722324 0
M  V30 605 C 55.7657 -1.80595 3.08416 0
M  V30 606 S 57.3247 -2.59838 3.53596 0
M  V30 607 H 54.1427 -0.327524 0.63107 0
M  V30 608 H 56.7447 -0.241277 1.94005 0
M  V30 609 H 55.4487 -1.17249 3.93295 0
M  V30 610 H 54.9797 -2.58137 2.96865 0
M  V30 611 H 56.9947 -3.82987 3.15492 0
M  V30 612 N 56.1678 -1.49265 -0.50573 0
M  V30 613 C 57.0778 -1.68312 -1.63427 0
M  V30 614 C 58.0938 -0.565682 -1.64548 0
M  V30 615 O 59.2698 -0.839801 -1.83055 0
M  V30 616 C 56.3348 -1.74107 -2.99813 0
M  V30 617 C 55.3958 -2.97653 -3.09356 0
M  V30 618 C 54.6288 -3.03163 -4.39236 0
M  V30 619 O 54.8518 -2.16396 -5.27758 0
M  V30 620 O 53.7858 -3.9558 -4.53652 0
M  V30 621 H 57.6118 -2.63907 -1.50289 0
M  V30 622 H 55.1968 -1.32951 -0.681502 0
M  V30 623 H 57.0788 -1.803 -3.80881 0
M  V30 624 H 55.7538 -0.816901 -3.13223 0
M  V30 625 H 54.6608 -2.96981 -2.27493 0
M  V30 626 H 55.9938 -3.89535 -3.00871 0
M  V30 627 N 57.6459 0.756429 -1.3826 0
M  V30 628 C 58.8939 1.51248 -1.34047 0
M  V30 629 C 59.2149 1.94875 0.0698372 0
M  V30 630 O 58.4849 1.67436 1.01696 0
M  V30 631 H 57.0649 0.561018 -0.493222 0
M  V30 632 H 59.7269 0.899347 -1.7291 0
M  V30 633 H 58.8229 2.40472 -1.98947 0
M  V30 634 N 59.124 1.23083 0.984299 0
M  V30 635 C 60.373 1.05466 1.71929 0
M  V30 636 C 60.686 -0.409211 1.91272 0
M  V30 637 O 61.892 -0.705226 2.62181 0
M  V30 638 C 60.348 1.83874 3.09384 0
M  V30 639 C 59.956 3.34566 2.97943 0
M  V30 640 C 61.7 1.74734 3.8687 0
M  V30 641 C 59.607 4.05381 4.30605 0
M  V30 642 H 58.537 0.391039 0.644674 0
M  V30 643 H 61.188 1.47013 1.09815 0
M  V30 644 H 59.57 1.35131 3.72231 0
M  V30 645 H 60.744 3.90767 2.44209 0
M  V30 646 H 59.059 3.44476 2.33934 0
M  V30 647 H 61.656 2.24957 4.85076 0
M  V30 648 H 61.999 0.709372 4.10212 0
M  V30 649 H 62.532 2.21067 3.30717 0
M  V30 650 H 59.271 5.09467 4.1246 0
M  V30 651 H 58.791 3.53967 4.84218 0
M  V30 652 H 60.47 4.11458 4.99311 0
M  V30 653 N 60.6021 -1.18246 1.0419 0
M  V30 654 C 61.5501 -2.23968 0.627792 0
M  V30 655 C 62.5441 -1.65828 -0.346019 0
M  V30 656 O 63.7501 -1.78733 -0.213175 0
M  V30 657 H 60.1251 -0.728939 0.184802 0
M  V30 658 H 62.0961 -2.56202 1.52981 0
M  V30 659 C 60.8451 -3.47699 0.00796591 0
M  V30 660 H 60.1681 -3.92734 0.748347 0
M  V30 661 H 61.6081 -4.23294 -0.24455 0
M  V30 662 C 60.0671 -3.13153 -1.24246 0
M  V30 663 O 60.5971 -3.27003 -2.33307 0
M  V30 664 N 58.8031 -2.67467 -1.13622 0
M  V30 665 H 58.3501 -2.56396 -0.248734 0
M  V30 666 H 58.3081 -2.44724 -1.97377 0
M  V30 667 N 62.0802 -0.821533 -1.34494 0
M  V30 668 C 63.3292 -0.405355 -1.97585 0
M  V30 669 C 63.6422 1.03677 -1.65863 0
M  V30 670 O 64.8482 1.55679 -2.22433 0
M  V30 671 C 63.3042 -0.673861 -3.53535 0
M  V30 672 C 62.9122 -2.12951 -3.94152 0
M  V30 673 C 64.6562 -0.32378 -4.23263 0
M  V30 674 C 62.5632 -2.34298 -5.43009 0
M  V30 675 H 61.4932 -0.147836 -0.739365 0
M  V30 676 H 64.1442 -1.00769 -1.53355 0
M  V30 677 H 62.5262 -0.00137554 -3.96 0
M  V30 678 H 63.7002 -2.84104 -3.62797 0
M  V30 679 H 62.0152 -2.44089 -3.37356 0
M  V30 680 H 64.6122 -0.461126 -5.32708 0
M  V30 681 H 64.9552 0.731586 -4.09821 0
M  V30 682 H 65.4882 -0.950786 -3.8627 0
M  V30 683 H 62.2272 -3.38335 -5.61435 0
M  V30 684 H 61.7472 -1.67687 -5.75883 0
M  V30 685 H 63.4262 -2.16588 -6.09671 0
M  V30 686 N 63.5583 1.46682 -0.576371 0
M  V30 687 C 64.7833 2.07304 -0.0630475 0
M  V30 688 C 65.2083 1.42329 1.2298 0
M  V30 689 O 64.5663 0.504865 1.74129 0
M  V30 690 C 64.6143 3.60472 0.095895 0
M  V30 691 O 63.7183 3.95927 1.15394 0
M  V30 692 H 63.0593 0.661288 -0.0599463 0
M  V30 693 H 65.5893 1.88417 -0.797511 0
M  V30 694 H 65.5993 4.06865 0.304071 0
M  V30 695 H 64.2743 4.07157 -0.84828 0
M  V30 696 H 62.8513 3.61252 0.924724 0
M  V30 697 N 65.0364 0.313813 1.54444 0
M  V30 698 C 66.2844 -0.291099 1.99993 0
M  V30 699 C 66.6054 -1.53418 1.20366 0
M  V30 700 O 65.8754 -1.93544 0.302927 0
M  V30 701 H 64.4554 -0.110552 0.738774 0
M  V30 702 H 67.1174 0.428106 1.9014 0
M  V30 703 H 66.2134 -0.554268 3.07139 0
M  V30 704 N 66.5145 -1.57545 0.0417849 0
M  V30 705 C 67.4625 -2.12148 -0.953723 0
M  V30 706 C 68.4565 -1.05104 -1.32852 0
M  V30 707 O 69.6625 -1.23524 -1.30927 0
M  V30 708 H 66.0375 -0.677957 -0.325389 0
M  V30 709 H 68.0085 -2.94707 -0.467991 0
M  V30 710 C 66.7575 -2.6739 -2.22257 0
M  V30 711 H 66.0805 -3.49413 -1.94295 0
M  V30 712 H 67.5205 -3.09227 -2.90094 0
M  V30 713 C 65.9795 -1.60723 -2.96091 0
M  V30 714 O 66.5095 -1.01449 -3.88679 0
M  V30 715 N 64.7155 -1.32466 -2.58652 0
M  V30 716 H 64.2625 -1.80856 -1.83437 0
M  V30 717 H 64.2205 -0.61325 -3.08361 0
M  V30 718 N 67.9926 0.231505 -1.5589 0
M  V30 719 C 69.2396 0.957352 -1.78441 0
M  V30 720 C 69.5676 1.84726 -0.60882 0
M  V30 721 O 68.8226 1.91416 0.40725 0
M  V30 722 C 69.1216 1.83577 -3.0665 0
M  V30 723 C 68.7876 1.09993 -4.37278 0
M  V30 724 C 67.4496 0.896629 -4.72773 0
M  V30 725 C 69.8016 0.579558 -5.17968 0
M  V30 726 C 67.1296 0.160896 -5.86479 0
M  V30 727 C 69.4816 -0.142783 -6.32439 0
M  V30 728 C 68.1456 -0.357427 -6.66542 0
M  V30 729 H 67.4156 0.35032 -0.65296 0
M  V30 730 H 70.0626 0.226259 -1.90159 0
M  V30 731 H 68.3676 2.63441 -2.90011 0
M  V30 732 H 70.0646 2.39934 -3.21298 0
M  V30 733 H 66.6546 1.26835 -4.09403 0
M  V30 734 H 70.8386 0.724125 -4.90989 0
M  V30 735 H 66.0946 -0.0157293 -6.11398 0
M  V30 736 H 70.2686 -0.553559 -6.94196 0
M  V30 737 H 67.8956 -0.929466 -7.54497 0
M  V30 738 N 69.4707 1.49531 0.497807 0
M  V30 739 C 70.7007 1.62657 1.27382 0
M  V30 740 C 71.1087 0.298488 1.86831 0
M  V30 741 O 70.4517 -0.72647 1.68725 0
M  V30 742 C 70.5137 2.6393 2.44093 0
M  V30 743 C 70.1777 4.08195 2.05489 0
M  V30 744 C 71.1747 4.949 1.59279 0
M  V30 745 C 68.8597 4.53948 2.15026 0
M  V30 746 C 70.8537 6.25397 1.23113 0
M  V30 747 C 68.5407 5.84458 1.78473 0
M  V30 748 C 69.5387 6.70006 1.32591 0
M  V30 749 O 69.2267 7.98083 0.965327 0
M  V30 750 H 68.9587 0.550429 0.392434 0
M  V30 751 H 71.5127 1.96325 0.603801 0
M  V30 752 H 69.7427 2.25449 3.14181 0
M  V30 753 H 71.4317 2.66552 3.06113 0
M  V30 754 H 72.1977 4.60779 1.51354 0
M  V30 755 H 68.0767 3.87525 2.4969 0
M  V30 756 H 71.6207 6.92125 0.872299 0
M  V30 757 H 67.5177 6.18107 1.86048 0
M  V30 758 H 68.2857 8.11122 1.09652 0
M  V30 759 N 70.9488 -0.749086 1.3866 0
M  V30 760 C 72.3648 -1.05276 1.19955 0
M  V30 761 C 72.5648 -2.01435 0.05134 0
M  V30 762 O 71.6208 -2.45232 -0.60147 0
M  V30 763 C 72.9338 -1.62853 2.52783 0
M  V30 764 C 74.4818 -1.75002 2.59506 0
M  V30 765 C 74.9568 -2.35991 3.92521 0
M  V30 766 N 76.4478 -2.43416 3.94085 0
M  V30 767 C 77.1828 -2.91511 4.9377 0
M  V30 768 N 76.6788 -3.39608 6.03853 0
M  V30 769 N 78.4718 -2.90592 4.81157 0
M  V30 770 H 70.6228 -0.111066 2.12109 0
M  V30 771 H 72.8858 -0.111901 0.941373 0
M  V30 772 H 72.5918 -0.99664 3.37283 0
M  V30 773 H 72.4658 -2.61854 2.715 0
M  V30 774 H 74.8528 -2.37317 1.75398 0
M  V30 775 H 74.9338 -0.74693 2.44652 0
M  V30 776 H 74.5778 -1.74308 4.77053 0
M  V30 777 H 74.5078 -3.3695 4.04688 0
M  V30 778 H 76.9988 -2.09405 3.14576 0
M  V30 779 H 77.3118 -3.74775 6.75843 0
M  V30 780 H 75.6568 -3.37653 6.07466 0
M  V30 781 H 78.8478 -2.52332 3.94267 0
M  V30 782 H 79.0208 -3.27762 5.58996 0
M  V30 783 N 72.4269 -1.23603 -0.977757 0
M  V30 784 C 73.3749 -1.01704 -2.09187 0
M  V30 785 C 74.3689 0.0448214 -1.69341 0
M  V30 786 O 75.5749 -0.108902 -1.7967 0
M  V30 787 H 71.9499 -0.311803 -0.684312 0
M  V30 788 H 73.9209 -1.96207 -2.24823 0
M  V30 789 C 72.6699 -0.627746 -3.41986 0
M  V30 790 H 71.9929 -1.43656 -3.73099 0
M  V30 791 H 73.4329 -0.514053 -4.20872 0
M  V30 792 C 71.8919 0.664238 -3.30287 0
M  V30 793 O 72.4219 1.71268 -3.6336 0
M  V30 794 N 70.6279 0.641156 -2.83439 0
M  V30 795 H 70.1749 -0.212376 -2.56723 0
M  V30 796 H 70.1329 1.50583 -2.75993 0
M  V30 797 N 73.905 1.17692 -1.04816 0
M  V30 798 C 74.852 2.21581 -0.645797 0
M  V30 799 C 75.822 1.62367 0.350159 0
M  V30 800 O 77.007 1.89254 0.242433 0
M  V30 801 C 74.147 3.45092 -0.0227568 0
M  V30 802 C 73.26 4.18613 -1.06709 0
M  V30 803 C 72.395 5.29602 -0.411767 0
M  V30 804 C 71.434 5.94904 -1.44067 0
M  V30 805 N 70.571 6.97414 -0.809781 0
M  V30 806 H 75.411 2.55353 -1.5362 0
M  V30 807 H 72.948 1.25438 -0.768364 0
M  V30 808 H 74.906 4.15679 0.35588 0
M  V30 809 H 73.536 3.11917 0.831122 0
M  V30 810 H 72.588 3.46779 -1.5636 0
M  V30 811 H 73.9 4.63293 -1.84827 0
M  V30 812 H 73.054 6.06696 0.0206623 0
M  V30 813 H 71.793 4.86045 0.401438 0
M  V30 814 H 70.798 5.16544 -1.88316 0
M  V30 815 H 72.023 6.40542 -2.25571 0
M  V30 816 H 69.969 6.55998 -0.0170186 0
M  V30 817 H 69.886 7.40386 -1.52856 0
M  V30 818 H 71.154 7.78463 -0.401999 0
M  V30 819 N 75.3831 0.828654 1.34056 0
M  V30 820 C 76.3131 0.269443 2.3194 0
M  V30 821 C 77.2941 -0.617247 1.58506 0
M  V30 822 O 78.4791 -0.542931 1.86456 0
M  V30 823 C 75.6091 -0.564793 3.42677 0
M  V30 824 C 74.5631 0.225241 4.27407 0
M  V30 825 C 73.8891 -0.7321 5.29664 0
M  V30 826 C 75.1891 1.43663 5.02154 0
M  V30 827 H 76.8831 1.08728 2.7896 0
M  V30 828 H 74.4291 0.524283 1.34117 0
M  V30 829 H 76.3821 -0.966233 4.10173 0
M  V30 830 H 75.1061 -1.41574 2.9432 0
M  V30 831 H 73.7651 0.608117 3.61521 0
M  V30 832 H 73.4131 -1.57916 4.77568 0
M  V30 833 H 73.1131 -0.20767 5.87233 0
M  V30 834 H 74.6371 -1.13128 6.00029 0
M  V30 835 H 76.0511 1.1089 5.62473 0
M  V30 836 H 74.4481 1.89711 5.69324 0
M  V30 837 H 75.5181 2.21181 4.31517 0
M  V30 838 N 76.8612 -1.46375 0.584142 0
M  V30 839 C 77.8082 -2.30323 -0.148286 0
M  V30 840 C 78.7782 -1.40703 -0.882713 0
M  V30 841 O 79.9632 -1.69651 -0.873099 0
M  V30 842 C 77.1032 -3.25196 -1.15507 0
M  V30 843 C 76.2162 -4.29915 -0.423943 0
M  V30 844 C 75.3512 -5.11914 -1.41838 0
M  V30 845 C 74.3902 -6.08381 -0.673736 0
M  V30 846 N 73.5272 -6.83242 -1.6163 0
M  V30 847 H 78.3672 -2.92427 0.573644 0
M  V30 848 H 75.9042 -1.44118 0.294703 0
M  V30 849 H 77.8622 -3.78646 -1.75166 0
M  V30 850 H 76.4922 -2.64898 -1.8447 0
M  V30 851 H 75.5442 -3.7931 0.287714 0
M  V30 852 H 76.8562 -4.98549 0.158128 0
M  V30 853 H 76.0102 -5.69648 -2.08773 0
M  V30 854 H 74.7492 -4.43243 -2.03438 0
M  V30 855 H 73.7542 -5.49799 0.00938483 0
M  V30 856 H 74.9792 -6.79071 -0.0631082 0
M  V30 857 H 72.9252 -6.1728 -2.22038 0
M  V30 858 H 72.8422 -7.48144 -1.08707 0
M  V30 859 H 74.1102 -7.45534 -2.27596 0
M  V30 860 N 78.3393 -0.321999 -1.54275 0
M  V30 861 C 79.5693 0.282642 -2.04658 0
M  V30 862 C 79.9773 1.46453 -1.19784 0
M  V30 863 O 79.3203 1.82367 -0.220932 0
M  V30 864 C 79.3823 0.781857 -3.50895 0
M  V30 865 C 79.0463 -0.277517 -4.56157 0
M  V30 866 C 80.0433 -1.11307 -5.07845 0
M  V30 867 C 77.7283 -0.425256 -5.00497 0
M  V30 868 C 79.7223 -2.08211 -6.02434 0
M  V30 869 C 77.4093 -1.39771 -5.94901 0
M  V30 870 C 78.4073 -2.2246 -6.45756 0
M  V30 871 O 78.0953 -3.18054 -7.38307 0
M  V30 872 H 77.8273 0.0622636 -0.673126 0
M  V30 873 H 80.3813 -0.465792 -2.00049 0
M  V30 874 H 78.6113 1.58118 -3.52896 0
M  V30 875 H 80.3003 1.30467 -3.84361 0
M  V30 876 H 81.0663 -1.00991 -4.74369 0
M  V30 877 H 76.9453 0.20847 -4.60528 0
M  V30 878 H 80.4893 -2.72791 -6.42052 0
M  V30 879 H 76.3863 -1.50152 -6.27794 0
M  V30 880 H 77.1543 -3.13275 -7.56175 0
M  V30 881 N 79.8174 1.5752 -0.0501392 0
M  V30 882 C 80.7474 2.14502 0.922566 0
M  V30 883 C 81.7284 1.06642 1.3252 0
M  V30 884 O 82.9134 1.34577 1.4001 0
M  V30 885 C 80.0434 2.68916 2.19776 0
M  V30 886 C 78.9974 3.8175 1.93523 0
M  V30 887 C 78.3234 4.22677 3.27487 0
M  V30 888 C 79.6234 5.06932 1.25765 0
M  V30 889 H 81.3174 2.9603 0.447952 0
M  V30 890 H 78.8634 1.42401 0.214024 0
M  V30 891 H 80.8164 3.07419 2.88222 0
M  V30 892 H 79.5404 1.84578 2.69441 0
M  V30 893 H 78.1994 3.43718 1.27489 0
M  V30 894 H 77.8474 3.35291 3.74952 0
M  V30 895 H 77.5474 4.98725 3.1072 0
M  V30 896 H 79.0714 4.63779 3.97166 0
M  V30 897 H 80.4854 5.42888 1.84244 0
M  V30 898 H 78.8824 5.88116 1.19328 0
M  V30 899 H 79.9524 4.84337 0.233536 0
M  V30 900 N 81.2955 -0.223234 1.56011 0
M  V30 901 C 82.2585 -1.26014 1.9145 0
M  V30 902 C 83.2585 -1.3989 0.792937 0
M  V30 903 O 84.4485 -1.38184 1.0607 0
M  V30 904 C 81.5805 -2.63422 2.16383 0
M  V30 905 H 82.7735 -0.95796 2.84189 0
M  V30 906 H 80.3265 -0.463576 1.49267 0
M  V30 907 H 81.0615 -2.98741 1.2619 0
M  V30 908 H 80.8465 -2.54728 2.98088 0
M  V30 909 H 82.3365 -3.38249 2.44903 0
M  V30 910 N 82.7736 -1.49793 -0.48987 0
M  V30 911 C 84.0206 -1.59841 -1.24327 0
M  V30 912 C 84.3486 -0.290135 -1.92324 0
M  V30 913 O 83.6036 0.722749 -1.81865 0
M  V30 914 C 83.9026 -2.71488 -2.32441 0
M  V30 915 C 83.5686 -4.12614 -1.81826 0
M  V30 916 C 82.2306 -4.51017 -1.67742 0
M  V30 917 C 84.5826 -5.00892 -1.4407 0
M  V30 918 C 81.9106 -5.75459 -1.14297 0
M  V30 919 C 84.2626 -6.25863 -0.920742 0
M  V30 920 C 82.9266 -6.63086 -0.766383 0
M  V30 921 H 82.1966 -0.584899 -0.454944 0
M  V30 922 H 84.8436 -1.83663 -0.542215 0
M  V30 923 H 83.1486 -2.4168 -3.0838 0
M  V30 924 H 84.8456 -2.76469 -2.90458 0
M  V30 925 H 81.4356 -3.82307 -1.93751 0
M  V30 926 H 85.6196 -4.7187 -1.53794 0
M  V30 927 H 80.8756 -6.02989 -1.01068 0
M  V30 928 H 85.0496 -6.9364 -0.619448 0
M  V30 929 H 82.6766 -7.59393 -0.350083 0
M  V30 930 N 84.2517 0.741722 -1.39055 0
M  V30 931 C 85.1817 1.869 -1.39966 0
M  V30 932 C 86.1627 1.6804 -0.26392 0
M  V30 933 O 87.3477 1.88458 -0.468755 0
M  V30 934 C 84.4777 3.24572 -1.23574 0
M  V30 935 C 83.4317 3.58056 -2.34477 0
M  V30 936 C 82.7577 4.94593 -2.0318 0
M  V30 937 C 84.0577 3.61716 -3.76774 0
M  V30 938 H 85.7517 1.86395 -2.34302 0
M  V30 939 H 83.2977 0.895361 -1.1278 0
M  V30 940 H 85.2507 4.031 -1.22834 0
M  V30 941 H 83.9747 3.25587 -0.257045 0
M  V30 942 H 82.6337 2.81854 -2.34423 0
M  V30 943 H 82.2817 4.92181 -1.03765 0
M  V30 944 H 81.9817 5.17964 -2.77465 0
M  V30 945 H 83.5057 5.75486 -2.04079 0
M  V30 946 H 84.9197 4.30335 -3.78794 0
M  V30 947 H 83.3167 3.96603 -4.50362 0
M  V30 948 H 84.3867 2.61672 -4.08235 0
M  V30 949 N 85.7298 1.2412 0.971189 0
M  V30 950 C 87.1458 1.00584 1.23916 0
M  V30 951 C 87.3458 -0.287481 1.99439 0
M  V30 952 O 86.4018 -1.00454 2.31658 0
M  V30 953 C 87.7148 2.21864 2.0297 0
M  V30 954 C 89.2628 2.26452 2.16076 0
M  V30 955 C 89.7378 3.47343 2.98524 0
M  V30 956 N 91.2288 3.47639 3.06107 0
M  V30 957 C 91.9638 4.37837 3.70251 0
M  V30 958 N 91.4598 5.38286 4.36142 0
M  V30 959 N 93.2528 4.25558 3.67228 0
M  V30 960 H 85.4038 2.07236 0.465499 0
M  V30 961 H 87.6668 0.909236 0.268315 0
M  V30 962 H 87.3728 3.15771 1.54861 0
M  V30 963 H 87.2468 2.23698 3.03709 0
M  V30 964 H 89.6338 1.33078 2.6339 0
M  V30 965 H 89.7148 2.28645 1.14696 0
M  V30 966 H 89.3588 4.41029 2.51905 0
M  V30 967 H 89.2888 3.42393 4.00093 0
M  V30 968 H 91.7798 2.74966 2.59233 0
M  V30 969 H 92.0928 6.03352 4.82894 0
M  V30 970 H 90.4378 5.42176 4.34822 0
M  V30 971 H 93.6288 3.46322 3.14927 0
M  V30 972 H 93.8018 4.96054 4.16935 0
M  V30 973 N 87.2079 -1.17134 1.05439 0
M  V30 974 C 88.1549 -2.21235 0.657539 0
M  V30 975 C 89.1249 -1.62551 -0.341543 0
M  V30 976 O 90.3099 -1.89379 -0.232393 0
M  V30 977 C 87.4499 -3.45076 0.0410575 0
M  V30 978 C 86.5629 -4.18042 1.08927 0
M  V30 979 C 85.6979 -5.29376 0.439848 0
M  V30 980 C 84.7369 -5.94132 1.4722 0
M  V30 981 N 83.8739 -6.96975 0.846756 0
M  V30 982 H 88.7139 -2.54534 1.54972 0
M  V30 983 H 86.2509 -1.25028 0.775006 0
M  V30 984 H 88.2089 -4.15862 -0.33383 0
M  V30 985 H 86.8389 -3.12353 -0.814568 0
M  V30 986 H 85.8909 -3.45945 1.58196 0
M  V30 987 H 87.2029 -4.62306 1.87282 0
M  V30 988 H 86.3569 -6.06699 0.0115125 0
M  V30 989 H 85.0959 -4.86251 -0.375656 0
M  V30 990 H 84.1009 -5.15538 1.91052 0
M  V30 991 H 85.3259 -6.39337 2.28965 0
M  V30 992 H 83.2719 -6.5598 0.0518075 0
M  V30 993 H 83.1889 -7.39565 1.5678 0
M  V30 994 H 84.4569 -7.78239 0.443277 0
M  V30 995 N 88.686 -0.835752 -1.33615 0
M  V30 996 C 90.102 -0.523139 -1.50783 0
M  V30 997 C 90.302 0.950171 -1.77691 0
M  V30 998 O 89.358 1.73411 -1.83534 0
M  V30 999 C 90.671 -1.39378 -2.66448 0
M  V30 1000 C 92.219 -1.39223 -2.80332 0
M  V30 1001 C 92.694 -2.24765 -3.99055 0
M  V30 1002 N 94.185 -2.22458 -4.06284 0
M  V30 1003 C 94.92 -2.85386 -4.97336 0
M  V30 1004 N 94.416 -3.57354 -5.93523 0
M  V30 1005 N 96.209 -2.74872 -4.90308 0
M  V30 1006 H 88.36 -1.78952 -1.14411 0
M  V30 1007 H 90.623 -0.763297 -0.562212 0
M  V30 1008 H 90.329 -2.44061 -2.53234 0
M  V30 1009 H 90.203 -1.0676 -3.61776 0
M  V30 1010 H 92.59 -0.353136 -2.92979 0
M  V30 1011 H 92.671 -1.75846 -1.85773 0
M  V30 1012 H 92.315 -3.28732 -3.87167 0
M  V30 1013 H 92.245 -1.85485 -4.92852 0
M  V30 1014 H 94.736 -1.70119 -3.37443 0
M  V30 1015 H 95.049 -4.02584 -6.59656 0
M  V30 1016 H 93.394 -3.61461 -5.93608 0
M  V30 1017 H 96.585 -2.18213 -4.14126 0
M  V30 1018 H 96.758 -3.24199 -5.61069 0
M  V30 1019 N 90.1641 1.46063 -0.591896 0
M  V30 1020 C 91.0971 2.27452 0.184617 0
M  V30 1021 C 92.0751 1.36188 0.888351 0
M  V30 1022 O 93.2591 1.65606 0.90039 0
M  V30 1023 C 90.3861 3.14162 1.26571 0
M  V30 1024 C 89.4321 4.21255 0.666814 0
M  V30 1025 S 90.2651 5.33034 -0.513345 0
M  V30 1026 C 91.4211 6.23311 0.56872 0
M  V30 1027 H 91.6541 2.92963 -0.505939 0
M  V30 1028 H 89.1871 1.49676 -0.379014 0
M  V30 1029 H 91.1451 3.6468 1.88463 0
M  V30 1030 H 89.8061 2.47946 1.92826 0
M  V30 1031 H 88.9991 4.81788 1.47974 0
M  V30 1032 H 88.6011 3.73797 0.123359 0
M  V30 1033 H 90.8931 6.61758 1.45198 0
M  V30 1034 H 91.8361 7.081 -7.23824e-05 0
M  V30 1035 H 92.2441 5.57646 0.876996 0
M  V30 1036 N 91.6422 0.330177 1.54103 0
M  V30 1037 C 92.5902 -0.548226 2.26047 0
M  V30 1038 C 93.5842 -1.11309 1.27698 0
M  V30 1039 O 94.7902 -1.06036 1.45452 0
M  V30 1040 H 91.1652 -0.195456 0.726155 0
M  V30 1041 H 93.1362 0.0807567 2.98291 0
M  V30 1042 C 91.8852 -1.69415 3.03634 0
M  V30 1043 H 91.2082 -1.26876 3.79134 0
M  V30 1044 H 92.6482 -2.28423 3.5721 0
M  V30 1045 C 91.1072 -2.61569 2.12328 0
M  V30 1046 O 91.6372 -3.63462 1.7105 0
M  V30 1047 N 89.8432 -2.29952 1.77681 0
M  V30 1048 H 89.3902 -1.47134 2.11446 0
M  V30 1049 H 89.3482 -2.91871 1.16869 0
M  V30 1050 N 93.1203 -1.57491 0.0584922 0
M  V30 1051 C 94.3483 -1.97296 -0.623037 0
M  V30 1052 C 94.7633 -0.936338 -1.63946 0
M  V30 1053 O 94.1203 0.0785981 -1.82331 0
M  V30 1054 C 94.1713 -3.37183 -1.30345 0
M  V30 1055 O 93.8923 -4.36872 -0.32773 0
M  V30 1056 C 95.3933 -3.91788 -2.07406 0
M  V30 1057 H 92.6133 -0.649153 -0.169826 0
M  V30 1058 H 95.1573 -2.04106 0.12696 0
M  V30 1059 H 93.3123 -3.31502 -2.00463 0
M  V30 1060 H 93.7263 -5.18141 -0.814269 0
M  V30 1061 H 95.2003 -4.91926 -2.50425 0
M  V30 1062 H 95.6773 -3.27609 -2.92521 0
M  V30 1063 H 96.2833 -4.00829 -1.42184 0
M  V30 1064 N 94.5984 0.214957 -1.56127 0
M  V30 1065 C 95.5464 1.28601 -1.93816 0
M  V30 1066 C 96.5404 1.48175 -0.821016 0
M  V30 1067 O 97.7464 1.49271 -1.0059 0
M  V30 1068 H 94.1214 0.431302 -0.616022 0
M  V30 1069 H 96.0924 0.940991 -2.83175 0
M  V30 1070 C 94.8414 2.62779 -2.27689 0
M  V30 1071 H 94.1644 2.48527 -3.13168 0
M  V30 1072 H 95.6044 3.36517 -2.57939 0
M  V30 1073 C 94.0634 3.18285 -1.10436 0
M  V30 1074 O 94.5934 4.00002 -0.368945 0
M  V30 1075 N 92.7994 2.7675 -0.886433 0
M  V30 1076 H 92.3464 2.10404 -1.48619 0
M  V30 1077 H 92.3044 3.14229 -0.103656 0
M  V30 1078 N 96.0765 1.50051 0.48192 0
M  V30 1079 C 97.4875 1.5348 1.06305 0
M  V30 1080 C 97.8385 0.331997 1.93371 0
M  V30 1081 O 96.9635 -0.556256 2.09129 0
M  V30 1082 C 97.5585 2.7813 1.93466 0
M  V30 1083 C 96.1175 2.84275 2.46707 0
M  V30 1084 C 95.2645 2.47637 1.24785 0
M  V30 1085 H 98.2155 1.56472 0.264995 0
M  V30 1086 H 98.2365 2.59372 2.78399 0
M  V30 1087 H 97.7485 3.65654 1.30072 0
M  V30 1088 H 95.8495 2.01077 3.13686 0
M  V30 1089 H 95.9625 3.8691 2.82555 0
M  V30 1090 H 94.3265 1.99835 1.57918 0
M  V30 1091 H 95.1095 3.37457 0.630694 0
M  V30 1092 N 97.5546 -0.734337 1.39446 0
M  V30 1093 C 98.7796 -1.52866 1.40167 0
M  V30 1094 C 99.2046 -1.881 -0.00171513 0
M  V30 1095 O 98.5626 -1.51957 -0.988879 0
M  V30 1096 C 98.6106 -2.79235 2.28167 0
M  V30 1097 O 97.7146 -3.75185 1.71201 0
M  V30 1098 H 97.0556 -0.461618 0.477289 0
M  V30 1099 H 99.5856 -0.905949 1.8345 0
M  V30 1100 H 99.5956 -3.27963 2.42702 0
M  V30 1101 H 98.2706 -2.52923 3.30156 0
M  V30 1102 H 96.8476 -3.33958 1.65912 0
M  V30 1103 N 99.0327 -1.24633 -0.964593 0
M  V30 1104 C 100.449 -1.01239 -1.2338 0
M  V30 1105 C 100.649 0.2769 -1.99588 0
M  V30 1106 O 99.7047 0.992241 -2.32187 0
M  V30 1107 C 101.018 -2.22937 -2.01791 0
M  V30 1108 C 102.566 -2.27594 -2.14872 0
M  V30 1109 C 103.041 -3.48921 -2.96678 0
M  V30 1110 N 104.532 -3.49257 -3.04259 0
M  V30 1111 C 105.267 -4.39795 -3.67924 0
M  V30 1112 N 104.763 -5.40591 -4.33281 0
M  V30 1113 N 106.556 -4.275 -3.64966 0
M  V30 1114 H 98.7067 -2.0748 -0.454502 0
M  V30 1115 H 100.97 -0.910647 -0.26349 0
M  V30 1116 H 100.676 -3.16587 -1.53184 0
M  V30 1117 H 100.55 -2.25306 -3.02518 0
M  V30 1118 H 102.937 -1.34473 -2.6268 0
M  V30 1119 H 103.018 -2.2925 -1.13482 0
M  V30 1120 H 102.662 -4.42359 -2.49562 0
M  V30 1121 H 102.592 -3.4451 -3.98272 0
M  V30 1122 H 105.083 -2.76337 -2.57771 0
M  V30 1123 H 105.396 -6.05904 -4.79687 0
M  V30 1124 H 103.741 -5.44475 -4.3194 0
M  V30 1125 H 106.932 -3.47987 -3.13086 0
M  V30 1126 H 107.105 -4.98258 -4.14298 0
M  V30 1127 N 100.511 1.16574 -1.06058 0
M  V30 1128 C 101.759 1.86677 -0.77434 0
M  V30 1129 C 102.08 1.81959 0.701147 0
M  V30 1130 O 101.35 1.2515 1.50713 0
M  V30 1131 H 99.9298 0.691134 -0.283449 0
M  V30 1132 H 102.592 1.41378 -1.34158 0
M  V30 1133 H 101.688 2.92181 -1.09711 0
M  V30 1134 N 101.989 0.842826 1.3317 0
M  V30 1135 C 103.4 0.496651 1.79973 0
M  V30 1136 C 103.751 -0.984641 1.69703 0
M  V30 1137 O 102.876 -1.76743 1.24863 0
M  V30 1138 C 103.471 0.894727 3.26772 0
M  V30 1139 C 102.03 0.600629 3.71577 0
M  V30 1140 C 101.177 1.10091 2.5451 0
M  V30 1141 H 104.128 1.03116 1.20635 0
M  V30 1142 H 104.149 0.206347 3.7994 0
M  V30 1143 H 103.661 1.97287 3.34215 0
M  V30 1144 H 101.762 -0.467284 3.69658 0
M  V30 1145 H 101.875 1.15863 4.64879 0
M  V30 1146 H 100.239 0.52162 2.49301 0
M  V30 1147 H 101.022 2.18591 2.64713 0
M  V30 1148 N 103.467 -1.45747 0.599634 0
M  V30 1149 C 104.697 -2.06369 0.0977132 0
M  V30 1150 C 105.105 -1.44624 -1.21985 0
M  V30 1151 O 104.448 -0.551831 -1.75216 0
M  V30 1152 C 104.51 -3.59284 -0.124673 0
M  V30 1153 C 104.174 -4.43318 1.10987 0
M  V30 1154 C 105.171 -4.78796 2.02609 0
M  V30 1155 C 102.856 -4.84194 1.33647 0
M  V30 1156 C 104.85 -5.53997 3.15224 0
M  V30 1157 C 102.537 -5.5915 2.46565 0
M  V30 1158 C 103.535 -5.93968 3.37182 0
M  V30 1159 O 103.223 -6.67405 4.48136 0
M  V30 1160 H 102.955 -0.673122 0.0623153 0
M  V30 1161 H 105.509 -1.88104 0.824981 0
M  V30 1162 H 103.739 -3.75919 -0.906745 0
M  V30 1163 H 105.428 -4.01775 -0.577201 0
M  V30 1164 H 106.194 -4.47781 1.86325 0
M  V30 1165 H 102.073 -4.56534 0.64016 0
M  V30 1166 H 105.617 -5.81091 3.85978 0
M  V30 1167 H 101.514 -5.89579 2.62805 0
M  V30 1168 H 102.282 -6.85847 4.46717 0
M  V30 1169 N 104.945 -0.338344 -1.53925 0
M  V30 1170 C 105.895 0.536712 -2.21593 0
M  V30 1171 C 106.879 1.07015 -1.20153 0
M  V30 1172 O 108.071 1.00471 -1.45721 0
M  V30 1173 C 105.2 1.68977 -2.98834 0
M  V30 1174 C 104.286 1.17052 -4.07627 0
M  V30 1175 N 104.677 0.372085 -5.0443 0
M  V30 1176 C 102.975 1.44789 -4.21844 0
M  V30 1177 C 103.676 0.0909171 -5.81629 0
M  V30 1178 N 102.652 0.681131 -5.39316 0
M  V30 1179 H 106.454 -0.0804298 -2.9379 0
M  V30 1180 H 103.968 -0.144943 -1.61752 0
M  V30 1181 H 105.965 2.32857 -3.45808 0
M  V30 1182 H 104.625 2.31024 -2.28162 0
M  V30 1183 H 105.636 0.0136217 -5.17898 0
M  V30 1184 H 102.313 2.07313 -3.62391 0
M  V30 1185 H 103.703 -0.552817 -6.69622 0
M  V30 1186 N 106.423 1.57458 -0.0668435 0
M  V30 1187 C 107.67 1.93301 0.603406 0
M  V30 1188 C 107.998 0.946486 1.69917 0
M  V30 1189 O 107.253 -0.0387021 1.95662 0
M  V30 1190 C 107.552 3.35784 1.22409 0
M  V30 1191 C 107.218 4.50179 0.254955 0
M  V30 1192 C 105.88 4.81199 -0.0116746 0
M  V30 1193 C 108.232 5.19598 -0.408338 0
M  V30 1194 C 105.56 5.78978 -0.94877 0
M  V30 1195 C 107.912 6.18381 -1.33372 0
M  V30 1196 C 106.576 6.47821 -1.60887 0
M  V30 1197 H 105.846 0.707338 0.220802 0
M  V30 1198 H 108.493 1.91012 -0.136665 0
M  V30 1199 H 106.798 3.34515 2.03978 0
M  V30 1200 H 108.495 3.60804 1.74989 0
M  V30 1201 H 105.085 4.25983 0.472954 0
M  V30 1202 H 109.269 4.95832 -0.215456 0
M  V30 1203 H 104.525 6.00115 -1.16925 0
M  V30 1204 H 108.699 6.71277 -1.85367 0
M  V30 1205 H 106.326 7.23399 -2.33661 0
M  V30 1206 N 107.901 -0.206675 1.56239 0
M  V30 1207 C 109.317 -0.557025 1.49564 0
M  V30 1208 C 109.517 -1.86424 0.764735 0
M  V30 1209 O 108.573 -2.50584 0.310491 0
M  V30 1210 C 109.886 -0.622478 2.94186 0
M  V30 1211 C 111.434 -0.712099 3.04792 0
M  V30 1212 C 111.909 -0.808767 4.50803 0
M  V30 1213 N 113.4 -0.8726 4.54907 0
M  V30 1214 C 114.135 -0.967365 5.65181 0
M  V30 1215 N 113.631 -1.02515 6.85173 0
M  V30 1216 N 115.424 -1.00366 5.53067 0
M  V30 1217 H 107.575 0.650943 2.02179 0
M  V30 1218 H 109.838 0.230387 0.919579 0
M  V30 1219 H 109.544 0.268727 3.50672 0
M  V30 1220 H 109.418 -1.4811 3.46905 0
M  V30 1221 H 111.805 -1.59374 2.48363 0
M  V30 1222 H 111.886 0.172489 2.55218 0
M  V30 1223 H 111.53 0.0684754 5.07854 0
M  V30 1224 H 111.46 -1.70899 4.98098 0
M  V30 1225 H 113.951 -0.837657 3.68499 0
M  V30 1226 H 114.264 -1.09765 7.64965 0
M  V30 1227 H 112.609 -0.994026 6.87855 0
M  V30 1228 H 115.8 -0.95527 4.58249 0
M  V30 1229 H 115.973 -1.07405 6.39037 0
M  V30 1230 N 109.379 -1.50304 -0.473955 0
M  V30 1231 C 110.342 -1.6841 -1.55469 0
M  V30 1232 C 111.342 -0.554905 -1.50922 0
M  V30 1233 O 112.532 -0.821882 -1.53593 0
M  V30 1234 C 109.664 -1.70667 -2.95102 0
M  V30 1235 H 110.857 -2.64828 -1.40733 0
M  V30 1236 H 108.41 -1.39742 -0.700132 0
M  V30 1237 H 109.145 -0.75932 -3.15285 0
M  V30 1238 H 108.93 -2.52698 -2.9981 0
M  V30 1239 H 110.42 -1.8664 -3.73571 0
M  V30 1240 N 110.857 0.726932 -1.39834 0
M  V30 1241 C 112.268 1.30558 -1.3346 0
M  V30 1242 C 112.619 1.962 -0.00273003 0
M  V30 1243 O 111.744 1.96826 0.899371 0
M  V30 1244 C 112.339 2.37404 -2.41713 0
M  V30 1245 C 110.898 2.90921 -2.38835 0
M  V30 1246 C 110.045 1.64578 -2.2318 0
M  V30 1247 H 112.996 0.523862 -1.49804 0
M  V30 1248 H 113.017 3.17984 -2.08966 0
M  V30 1249 H 112.529 1.89599 -3.38635 0
M  V30 1250 H 110.63 3.42985 -1.45575 0
M  V30 1251 H 110.743 3.43487 -3.33997 0
M  V30 1252 H 109.107 1.89219 -1.70494 0
M  V30 1253 H 109.89 1.18814 -3.22084 0
M  V30 1254 N 112.336 1.25143 0.95797 0
M  V30 1255 C 113.561 1.12521 1.74223 0
M  V30 1256 C 113.986 -0.317402 1.85403 0
M  V30 1257 O 113.344 -1.2299 1.33204 0
M  V30 1258 C 113.392 1.78062 3.1357 0
M  V30 1259 O 112.496 1.058 3.98598 0
M  V30 1260 H 111.837 0.39304 0.535178 0
M  V30 1261 H 114.367 1.65641 1.201 0
M  V30 1262 H 114.377 1.84213 3.64046 0
M  V30 1263 H 113.052 2.83021 3.04749 0
M  V30 1264 H 111.629 1.07506 3.57067 0
M  V30 1265 N 113.814 -1.1601 1.06675 0
M  V30 1266 C 115.23 -1.38622 0.790948 0
M  V30 1267 C 115.43 -1.92109 -0.607965 0
M  V30 1268 O 114.486 -2.12239 -1.36787 0
M  V30 1269 C 115.799 -2.36347 1.85905 0
M  V30 1270 C 117.347 -2.50023 1.88301 0
M  V30 1271 C 117.822 -3.51033 2.94176 0
M  V30 1272 N 119.313 -3.58563 2.93235 0
M  V30 1273 C 120.048 -4.36521 3.71803 0
M  V30 1274 N 119.544 -5.17869 4.602 0
M  V30 1275 N 121.337 -4.31541 3.60178 0
M  V30 1276 H 113.488 -0.796294 1.96908 0
M  V30 1277 H 115.751 -0.412597 0.853503 0
M  V30 1278 H 115.457 -2.04147 2.86386 0
M  V30 1279 H 115.331 -3.36042 1.71334 0
M  V30 1280 H 117.718 -2.81524 0.884769 0
M  V30 1281 H 117.799 -1.5035 2.06951 0
M  V30 1282 H 117.443 -3.20268 3.94196 0
M  V30 1283 H 117.373 -4.50445 2.72776 0
M  V30 1284 H 119.864 -3.00496 2.29152 0
M  V30 1285 H 120.177 -5.74578 5.16797 0
M  V30 1286 H 118.522 -5.17199 4.64253 0
M  V30 1287 H 121.713 -3.67051 2.90502 0
M  V30 1288 H 121.886 -4.9205 4.21653 0
M  V30 1289 N 115.292 -0.849877 -1.32721 0
M  V30 1290 C 116.541 -0.447175 -1.96681 0
M  V30 1291 C 116.854 1.00135 -1.68025 0
M  V30 1292 O 118.06 1.50926 -2.25685 0
M  V30 1293 C 116.516 -0.7487 -3.52026 0
M  V30 1294 C 116.124 -2.21264 -3.89546 0
M  V30 1295 C 117.868 -0.413487 -4.22481 0
M  V30 1296 C 115.775 -2.45763 -5.37917 0
M  V30 1297 H 114.705 -0.163486 -0.736063 0
M  V30 1298 H 117.356 -1.03999 -1.51183 0
M  V30 1299 H 115.738 -0.0853727 -3.95908 0
M  V30 1300 H 116.912 -2.91736 -3.56689 0
M  V30 1301 H 115.227 -2.5119 -3.32103 0
M  V30 1302 H 117.824 -0.574017 -5.3161 0
M  V30 1303 H 118.167 0.644492 -4.11281 0
M  V30 1304 H 118.7 -1.03251 -3.84167 0
M  V30 1305 H 115.439 -3.50168 -5.54132 0
M  V30 1306 H 114.959 -1.79864 -5.72197 0
M  V30 1307 H 116.638 -2.29471 -6.0494 0
M  V30 1308 N 116.77 1.45427 -0.607355 0
M  V30 1309 C 118.017 2.02241 -0.102455 0
M  V30 1310 C 118.345 1.4758 1.26691 0
M  V30 1311 O 117.6 0.640468 1.84923 0
M  V30 1312 C 117.899 3.57398 -0.0129263 0
M  V30 1313 C 117.565 4.3121 -1.31792 0
M  V30 1314 C 116.227 4.51092 -1.67539 0
M  V30 1315 C 118.579 4.73401 -2.18039 0
M  V30 1316 C 115.907 5.10422 -2.89285 0
M  V30 1317 C 118.259 5.34078 -3.39034 0
M  V30 1318 C 116.923 5.52184 -3.75033 0
M  V30 1319 H 116.193 0.740051 -0.037491 0
M  V30 1320 H 118.84 1.74494 -0.788926 0
M  V30 1321 H 117.145 3.84421 0.756806 0
M  V30 1322 H 118.842 3.99061 0.393881 0
M  V30 1323 H 115.432 4.16047 -1.02968 0
M  V30 1324 H 119.616 4.57774 -1.91721 0
M  V30 1325 H 114.872 5.22629 -3.17283 0
M  V30 1326 H 119.046 5.65724 -4.06115 0
M  V30 1327 H 116.673 5.97925 -4.69457 0
M  V30 1328 N 118.248 0.346503 1.53744 0
M  V30 1329 C 119.494 -0.242135 2.01954 0
M  V30 1330 C 119.849 -1.47962 1.22984 0
M  V30 1331 O 119.142 -1.89077 0.309924 0
M  V30 1332 C 119.336 -0.605809 3.52228 0
M  V30 1333 C 119.165 0.594882 4.45748 0
M  V30 1334 C 117.935 1.1011 4.93157 0
M  V30 1335 C 120.133 1.45425 4.93311 0
M  V30 1336 N 118.115 2.26381 5.70636 0
M  V30 1337 C 119.486 2.46383 5.68942 0
M  V30 1338 C 121.541 1.47935 4.75415 0
M  V30 1339 C 120.244 3.49684 6.28581 0
M  V30 1340 C 122.27 2.50119 5.35905 0
M  V30 1341 C 121.632 3.49803 6.11406 0
M  V30 1342 H 117.731 -0.0518296 0.780281 0
M  V30 1343 H 120.315 0.486736 1.88518 0
M  V30 1344 H 118.486 -1.30378 3.65864 0
M  V30 1345 H 120.218 -1.17789 3.87179 0
M  V30 1346 H 116.973 0.668721 4.68855 0
M  V30 1347 H 117.397 2.85094 6.14044 0
M  V30 1348 H 122.039 0.722274 4.16585 0
M  V30 1349 H 119.757 4.26285 6.86518 0
M  V30 1350 H 123.343 2.52892 5.23963 0
M  V30 1351 H 122.223 4.27576 6.5738 0
M  V30 1352 N 119.726 -1.57421 0.075193 0
M  V30 1353 C 121.142 -1.57099 -0.281444 0
M  V30 1354 C 121.342 -1.08486 -1.69803 0
M  V30 1355 O 120.398 -0.752279 -2.41033 0
M  V30 1356 C 121.711 -3.00571 -0.0880041 0
M  V30 1357 C 123.259 -3.12605 -0.157281 0
M  V30 1358 C 123.734 -4.57999 0.0079207 0
M  V30 1359 N 125.225 -4.63176 -0.0475725 0
M  V30 1360 C 125.96 -5.73373 0.0557876 0
M  V30 1361 N 125.456 -6.92473 0.21286 0
M  V30 1362 N 127.249 -5.621 -0.00152098 0
M  V30 1363 H 119.4 -1.87335 1.00098 0
M  V30 1364 H 121.663 -0.86377 0.390646 0
M  V30 1365 H 121.369 -3.40262 0.889629 0
M  V30 1366 H 121.243 -3.67754 -0.838875 0
M  V30 1367 H 123.63 -2.72798 -1.1254 0
M  V30 1368 H 123.711 -2.48053 0.62475 0
M  V30 1369 H 123.355 -4.98496 0.972824 0
M  V30 1370 H 123.285 -5.20586 -0.793556 0
M  V30 1371 H 125.776 -3.7753 -0.167244 0
M  V30 1372 H 126.089 -7.72279 0.283781 0
M  V30 1373 H 124.434 -6.94556 0.248267 0
M  V30 1374 H 127.625 -4.67938 -0.122958 0
M  V30 1375 H 127.798 -6.47948 0.0824844 0
M  V30 1376 N 121.204 0.198386 -1.56346 0
M  V30 1377 C 122.432 0.935572 -1.84539 0
M  V30 1378 C 122.847 1.76989 -0.657281 0
M  V30 1379 O 122.204 1.78626 0.374043 0
M  V30 1380 C 122.255 1.8344 -3.11499 0
M  V30 1381 O 121.976 1.03377 -4.25728 0
M  V30 1382 C 123.477 2.68355 -3.52846 0
M  V30 1383 H 120.697 0.273126 -0.612897 0
M  V30 1384 H 123.241 0.20663 -2.03453 0
M  V30 1385 H 121.396 2.51701 -2.94492 0
M  V30 1386 H 121.81 1.64599 -4.98003 0
M  V30 1387 H 123.284 3.27085 -4.44657 0
M  V30 1388 H 123.761 3.41901 -2.75681 0
M  V30 1389 H 124.367 2.05471 -3.72373 0
M  V30 1390 N 122.682 1.50554 0.465978 0
M  V30 1391 C 123.928 1.62038 1.21949 0
M  V30 1392 C 124.261 0.322116 1.9151 0
M  V30 1393 O 123.536 -0.676723 1.82348 0
M  V30 1394 C 123.819 2.80421 2.25912 0
M  V30 1395 C 123.672 4.20144 1.60622 0
M  V30 1396 C 124.991 2.94354 3.27176 0
M  V30 1397 H 122.11 0.589752 0.441998 0
M  V30 1398 H 124.752 1.82956 0.51257 0
M  V30 1399 H 122.902 2.62717 2.86203 0
M  V30 1400 H 124.574 4.49449 1.03889 0
M  V30 1401 H 122.817 4.24165 0.909211 0
M  V30 1402 H 123.488 4.98914 2.36196 0
M  V30 1403 H 125.964 3.10578 2.76913 0
M  V30 1404 H 124.84 3.788 3.97242 0
M  V30 1405 H 125.101 2.05186 3.916 0
M  V30 1406 N 124.16 -0.719506 1.40217 0
M  V30 1407 C 125.576 -1.02707 1.22161 0
M  V30 1408 C 125.776 -2.0128 0.0940557 0
M  V30 1409 O 124.832 -2.46452 -0.549318 0
M  V30 1410 C 126.145 -1.57454 2.56181 0
M  V30 1411 C 127.693 -1.69458 2.63159 0
M  V30 1412 C 128.168 -2.27611 3.97438 0
M  V30 1413 N 129.659 -2.35002 3.99159 0
M  V30 1414 C 130.394 -2.80972 4.99842 0
M  V30 1415 N 129.89 -3.26723 6.10921 0
M  V30 1416 N 131.683 -2.80321 4.87213 0
M  V30 1417 H 123.834 -0.0660492 2.12297 0
M  V30 1418 H 126.097 -0.0919077 0.943534 0
M  V30 1419 H 125.803 -0.924873 3.39321 0
M  V30 1420 H 125.677 -2.56036 2.76993 0
M  V30 1421 H 128.064 -2.33543 1.80393 0
M  V30 1422 H 128.145 -0.694867 2.46181 0
M  V30 1423 H 127.789 -1.6415 4.80643 0
M  V30 1424 H 127.719 -3.2829 4.11744 0
M  V30 1425 H 130.21 -2.02685 3.18947 0
M  V30 1426 H 130.523 -3.60355 6.8364 0
M  V30 1427 H 128.868 -3.24692 6.14492 0
M  V30 1428 H 132.059 -2.43912 3.9953 0
M  V30 1429 H 132.232 -3.15831 5.65822 0
M  V30 1430 N 125.638 -1.25649 -0.95132 0
M  V30 1431 C 126.886 -1.10375 -1.69298 0
M  V30 1432 C 127.207 0.355339 -1.91735 0
M  V30 1433 O 126.477 1.25188 -1.50681 0
M  V30 1434 H 125.057 -0.405461 -0.627384 0
M  V30 1435 H 127.719 -1.57823 -1.14358 0
M  V30 1436 H 126.815 -1.61465 -2.67087 0
M  V30 1437 N 127.117 1.15442 -1.07289 0
M  V30 1438 C 128.05 2.19135 -0.636798 0
M  V30 1439 C 129.028 1.58884 0.34562 0
M  V30 1440 O 130.212 1.86805 0.252195 0
M  V30 1441 C 127.339 3.38638 0.0650014 0
M  V30 1442 C 126.385 4.17412 -0.87576 0
M  V30 1443 S 127.218 4.79882 -2.37642 0
M  V30 1444 C 128.374 6.02753 -1.6864 0
M  V30 1445 H 128.607 2.55787 -1.51526 0
M  V30 1446 H 126.14 1.26394 -0.886793 0
M  V30 1447 H 128.098 4.07873 0.463664 0
M  V30 1448 H 126.759 3.00331 0.919801 0
M  V30 1449 H 125.952 5.02909 -0.33143 0
M  V30 1450 H 125.554 3.53722 -1.21478 0
M  V30 1451 H 127.846 6.70113 -0.997753 0
M  V30 1452 H 128.789 6.61754 -2.51967 0
M  V30 1453 H 129.197 5.52355 -1.16465 0
M  V30 1454 N 128.595 0.856903 1.32268 0
M  V30 1455 C 129.525 0.31858 2.31316 0
M  V30 1456 C 130.506 -0.583487 1.59779 0
M  V30 1457 O 131.691 -0.503259 1.87566 0
M  V30 1458 C 128.821 -0.491979 3.43798 0
M  V30 1459 C 127.775 0.315849 4.26833 0
M  V30 1460 C 127.101 -0.619586 5.31098 0
M  V30 1461 C 128.401 1.54282 4.98993 0
M  V30 1462 H 130.095 1.14621 2.76591 0
M  V30 1463 H 127.641 0.552613 1.32974 0
M  V30 1464 H 129.594 -0.879012 4.1213 0
M  V30 1465 H 128.318 -1.35299 2.97257 0
M  V30 1466 H 126.977 0.684664 3.6015 0
M  V30 1467 H 126.625 -1.47751 4.8081 0
M  V30 1468 H 126.325 -0.0830621 5.87541 0
M  V30 1469 H 127.849 -1.00375 6.02293 0
M  V30 1470 H 129.263 1.22796 5.59995 0
M  V30 1471 H 127.66 2.01745 5.65172 0
M  V30 1472 H 128.73 2.30285 4.26728 0
M  V30 1473 N 130.073 -1.45103 0.615059 0
M  V30 1474 C 131.484 -1.85654 0.197383 0
M  V30 1475 C 131.835 -1.51433 -1.24749 0
M  V30 1476 O 130.96 -0.944608 -1.94695 0
M  V30 1477 C 131.555 -3.36972 0.351448 0
M  V30 1478 C 130.114 -3.76398 -0.011593 0
M  V30 1479 C 129.261 -2.69024 0.672394 0
M  V30 1480 H 132.212 -1.35797 0.821263 0
M  V30 1481 H 132.233 -3.78239 -0.414227 0
M  V30 1482 H 131.745 -3.61847 1.40314 0
M  V30 1483 H 129.846 -3.5714 -1.06217 0
M  V30 1484 H 129.959 -4.77532 0.387265 0
M  V30 1485 H 128.323 -2.54465 0.109284 0
M  V30 1486 H 129.106 -2.96735 1.72636 0
M  V30 1487 N 131.551 -0.354651 -1.53558 0
M  V30 1488 C 132.501 0.513179 -2.2215 0
M  V30 1489 C 133.485 1.05734 -1.21281 0
M  V30 1490 O 134.677 0.989202 -1.46778 0
M  V30 1491 C 131.806 1.65798 -3.00609 0
M  V30 1492 C 130.892 1.12722 -4.08845 0
M  V30 1493 N 131.283 0.318563 -5.04796 0
M  V30 1494 C 129.581 1.40307 -4.23356 0
M  V30 1495 C 130.282 0.0292224 -5.81693 0
M  V30 1496 N 129.258 0.623891 -5.40008 0
M  V30 1497 H 133.06 -0.111586 -2.93688 0
M  V30 1498 H 130.574 -0.162091 -1.61589 0
M  V30 1499 H 132.571 2.29176 -3.48258 0
M  V30 1500 H 131.231 2.28591 -2.306 0
M  V30 1501 H 132.242 -0.0413091 -5.17884 0
M  V30 1502 H 128.919 2.03458 -3.6457 0
M  V30 1503 H 130.309 -0.623808 -6.68998 0
M  V30 1504 N 133.029 1.57378 -0.0835403 0
M  V30 1505 C 133.976 2.13384 0.879539 0
M  V30 1506 C 134.946 1.04936 1.28754 0
M  V30 1507 O 136.131 1.32662 1.37133 0
M  V30 1508 C 133.271 2.70932 2.13752 0
M  V30 1509 C 132.384 3.93575 1.7811 0
M  V30 1510 C 131.519 4.39326 2.98607 0
M  V30 1511 C 130.558 5.54587 2.59037 0
M  V30 1512 N 129.695 5.95243 3.72331 0
M  V30 1513 H 134.535 2.9537 0.395076 0
M  V30 1514 H 132.072 1.45953 0.183349 0
M  V30 1515 H 134.03 3.02411 2.87408 0
M  V30 1516 H 132.66 1.91693 2.59718 0
M  V30 1517 H 131.712 3.68483 0.94469 0
M  V30 1518 H 133.024 4.77258 1.45005 0
M  V30 1519 H 132.178 4.72528 3.80529 0
M  V30 1520 H 130.917 3.5452 3.34913 0
M  V30 1521 H 129.922 5.21024 1.75539 0
M  V30 1522 H 131.147 6.41133 2.23887 0
M  V30 1523 H 129.093 5.13385 4.08378 0
M  V30 1524 H 129.01 6.73694 3.43034 0
M  V30 1525 H 130.278 6.33072 4.54797 0
M  V30 1526 N 134.507 -0.190092 1.56449 0
M  V30 1527 C 135.735 -0.925772 1.85033 0
M  V30 1528 C 136.15 -1.76638 0.666658 0
M  V30 1529 O 135.507 -1.78822 -0.364565 0
M  V30 1530 C 135.558 -1.81786 3.12468 0
M  V30 1531 O 135.279 -1.01118 4.26271 0
M  V30 1532 C 136.78 -2.6648 3.54265 0
M  V30 1533 H 134 -0.269872 0.614337 0
M  V30 1534 H 136.544 -0.195837 2.0356 0
M  V30 1535 H 134.699 -2.50136 2.95822 0
M  V30 1536 H 135.113 -1.61956 4.98869 0
M  V30 1537 H 136.587 -3.24722 4.46385 0
M  V30 1538 H 137.064 -3.40434 2.77491 0
M  V30 1539 H 137.67 -2.03493 3.73458 0
M  V30 1540 N 135.985 -1.50799 -0.457987 0
M  V30 1541 C 136.932 -1.70617 -1.5543 0
M  V30 1542 C 137.902 -0.547562 -1.56815 0
M  V30 1543 O 139.087 -0.779647 -1.74144 0
M  V30 1544 C 136.227 -1.81831 -2.93311 0
M  V30 1545 C 135.34 -3.09278 -3.01615 0
M  V30 1546 C 134.475 -3.11209 -4.30491 0
M  V30 1547 C 133.514 -4.33055 -4.32585 0
M  V30 1548 N 132.651 -4.32652 -5.52952 0
M  V30 1549 H 137.491 -2.64207 -1.37836 0
M  V30 1550 H 135.028 -1.30959 -0.669937 0
M  V30 1551 H 136.986 -1.86314 -3.73287 0
M  V30 1552 H 135.616 -0.916685 -3.0951 0
M  V30 1553 H 134.668 -3.14203 -2.1443 0
M  V30 1554 H 135.98 -3.99233 -2.99022 0
M  V30 1555 H 135.134 -3.14494 -5.18824 0
M  V30 1556 H 133.873 -2.19106 -4.35711 0
M  V30 1557 H 132.878 -4.29969 -3.42647 0
M  V30 1558 H 134.103 -5.264 -4.29046 0
M  V30 1559 H 132.049 -3.43409 -5.58933 0
M  V30 1560 H 131.966 -5.16392 -5.52155 0
M  V30 1561 H 133.234 -4.40101 -6.43375 0
M  V30 1562 N 137.463 0.71206 -1.40597 0
M  V30 1563 C 138.879 1.02058 -1.22704 0
M  V30 1564 C 139.079 2.01228 -0.104729 0
M  V30 1565 O 138.135 2.4674 0.53624 0
M  V30 1566 C 139.448 1.56094 -2.57012 0
M  V30 1567 C 140.996 1.6806 -2.64054 0
M  V30 1568 C 141.471 2.25501 -3.9864 0
M  V30 1569 N 142.962 2.32882 -4.004 0
M  V30 1570 C 143.697 2.78317 -5.01325 0
M  V30 1571 N 143.193 3.23478 -6.12645 0
M  V30 1572 N 144.986 2.77733 -4.88693 0
M  V30 1573 H 137.137 0.0547896 -2.12329 0
M  V30 1574 H 139.4 0.0869027 -0.944008 0
M  V30 1575 H 139.106 0.906865 -3.39807 0
M  V30 1576 H 138.98 2.54564 -2.78347 0
M  V30 1577 H 141.367 2.32583 -1.81629 0
M  V30 1578 H 141.448 0.681802 -2.46546 0
M  V30 1579 H 141.092 1.61598 -4.81506 0
M  V30 1580 H 141.022 3.26102 -4.13479 0
M  V30 1581 H 143.513 2.00991 -3.20017 0
M  V30 1582 H 143.826 3.56725 -6.85542 0
M  V30 1583 H 142.171 3.21429 -6.16205 0
M  V30 1584 H 145.362 2.4179 -4.00818 0
M  V30 1585 H 145.535 3.12826 -5.67489 0
M  V30 1586 N 138.941 1.26152 0.944643 0
M  V30 1587 C 140.189 1.11271 1.6871 0
M  V30 1588 C 140.51 -0.345166 1.91921 0
M  V30 1589 O 139.78 -1.24387 1.51343 0
M  V30 1590 H 138.36 0.408783 0.625224 0
M  V30 1591 H 141.022 1.58427 1.1352 0
M  V30 1592 H 140.118 1.62879 2.66227 0
M  V30 1593 N 140.419 -1.14872 1.07899 0
M  V30 1594 C 141.351 -2.19425 0.662231 0
M  V30 1595 C 142.364 -1.60231 -0.288079 0
M  V30 1596 O 143.553 -1.78336 -0.076534 0
M  V30 1597 C 140.653 -3.38867 -0.0470695 0
M  V30 1598 C 139.826 -4.27597 0.920831 0
M  V30 1599 C 138.885 -5.25616 0.247805 0
M  V30 1600 O 137.911 -5.62189 0.890599 0
M  V30 1601 N 139.113 -5.71746 -1.00435 0
M  V30 1602 H 141.878 -2.55797 1.56166 0
M  V30 1603 H 139.439 -1.30042 0.964404 0
M  V30 1604 H 141.431 -4.01497 -0.50813 0
M  V30 1605 H 140.001 -3.00864 -0.848523 0
M  V30 1606 H 139.221 -3.61982 1.56087 0
M  V30 1607 H 140.509 -4.83748 1.57688 0
M  V30 1608 H 139.907 -5.44153 -1.54642 0
M  V30 1609 H 138.464 -6.36389 -1.40899 0
M  V30 1610 N 141.898 -0.863906 -1.31812 0
M  V30 1611 C 142.861 -0.320212 -2.26952 0
M  V30 1612 C 143.861 0.525369 -1.51975 0
M  V30 1613 O 145.051 0.335547 -1.70938 0
M  V30 1614 C 142.183 0.545919 -3.365 0
M  V30 1615 H 143.376 -1.16004 -2.76556 0
M  V30 1616 H 140.929 -0.638995 -1.42641 0
M  V30 1617 H 141.664 1.40718 -2.92179 0
M  V30 1618 H 141.449 -0.0594674 -3.92055 0
M  V30 1619 H 142.939 0.918796 -4.07367 0
M  V30 1620 N 143.376 1.44774 -0.622745 0
M  V30 1621 C 144.339 2.29069 0.0774015 0
M  V30 1622 C 145.339 1.4059 0.780461 0
M  V30 1623 O 146.529 1.62551 0.626322 0
M  V30 1624 C 143.661 3.21974 1.12006 0
M  V30 1625 H 144.854 2.92459 -0.663901 0
M  V30 1626 H 142.407 1.51548 -0.382486 0
M  V30 1627 H 143.142 2.63417 1.89162 0
M  V30 1628 H 142.927 3.87168 0.619951 0
M  V30 1629 H 144.417 3.85318 1.60995 0
M  V30 1630 N 144.854 0.36279 1.53368 0
M  V30 1631 C 145.784 -0.476976 2.28576 0
M  V30 1632 C 146.765 -1.08631 1.30894 0
M  V30 1633 O 147.95 -1.10409 1.59761 0
M  V30 1634 C 145.08 -1.61828 3.07293 0
M  V30 1635 C 144.034 -1.13633 4.1264 0
M  V30 1636 C 143.36 -2.36766 4.79423 0
M  V30 1637 C 144.66 -0.223061 5.21823 0
M  V30 1638 H 146.354 0.150474 2.99022 0
M  V30 1639 H 143.9 0.0738103 1.43811 0
M  V30 1640 H 145.853 -2.21237 3.58653 0
M  V30 1641 H 144.577 -2.27292 2.34533 0
M  V30 1642 H 143.236 -0.564945 3.62221 0
M  V30 1643 H 142.884 -3.0068 4.03238 0
M  V30 1644 H 142.584 -2.05192 5.50609 0
M  V30 1645 H 144.108 -2.96865 5.33576 0
M  V30 1646 H 145.522 -0.724545 5.68703 0
M  V30 1647 H 143.919 0.001678 6.001 0
M  V30 1648 H 144.989 0.735553 4.79289 0
M  V30 1649 N 146.332 -1.57332 0.0918853 0
M  V30 1650 C 147.609 -1.85691 -0.614668 0
M  V30 1651 C 147.989 -0.988146 -1.86545 0
M  V30 1652 O 147.337 -0.0597055 -2.28422 0
M  V30 1653 C 147.547 -3.36294 -0.933126 0
M  V30 1654 C 148.895 -4.04275 -1.29796 0
M  V30 1655 O 149.919 -3.41157 -1.02424 0
M  V30 1656 O 148.778 -5.1564 -1.81047 0
M  V30 1657 H 145.872 -0.767802 -0.307261 0
M  V30 1658 H 148.418 -1.69244 0.12434 0
M  V30 1659 H 147.19 -3.91273 -0.0456404 0
M  V30 1660 H 146.813 -3.58076 -1.72822 0
M  V30 1661 N 147.81 0.181792 -1.56548 0
M  V30 1662 C 149.226 0.53316 -1.50431 0
M  V30 1663 C 149.426 1.85184 -0.794297 0
M  V30 1664 O 148.482 2.50058 -0.350318 0
M  V30 1665 C 149.795 0.575597 -2.9514 0
M  V30 1666 C 151.343 0.663519 -3.05886 0
M  V30 1667 C 151.818 0.736946 -4.52032 0
M  V30 1668 N 153.309 0.800118 -4.56237 0
M  V30 1669 C 154.044 0.877327 -5.66649 0
M  V30 1670 N 153.54 0.916016 -6.86718 0
M  V30 1671 N 155.333 0.915542 -5.54594 0
M  V30 1672 H 147.484 -0.683025 -2.01118 0
M  V30 1673 H 149.747 -0.244988 -0.915797 0
M  V30 1674 H 149.453 -0.324482 -3.502 0
M  V30 1675 H 149.327 1.42572 -3.49218 0
M  V30 1676 H 151.714 1.55403 -2.50867 0
M  V30 1677 H 151.795 -0.21307 -2.54911 0
M  V30 1678 H 151.439 -0.149262 -5.07681 0
M  V30 1679 H 151.369 1.62953 -5.00753 0
M  V30 1680 H 153.86 0.778926 -3.69785 0
M  V30 1681 H 154.173 0.975813 -7.66614 0
M  V30 1682 H 152.518 0.884469 -6.89349 0
M  V30 1683 H 155.709 0.882245 -4.59711 0
M  V30 1684 H 155.882 0.972253 -6.40665 0
M  V30 1685 N 149.288 1.51039 0.449983 0
M  V30 1686 C 150.218 1.74379 1.55288 0
M  V30 1687 C 151.199 0.593236 1.5942 0
M  V30 1688 O 152.384 0.834625 1.7535 0
M  V30 1689 C 149.514 1.85728 2.93466 0
M  V30 1690 C 148.468 3.01078 3.04197 0
M  V30 1691 C 147.794 2.97595 4.44231 0
M  V30 1692 C 149.094 4.41254 2.7945 0
M  V30 1693 H 150.788 2.66725 1.36008 0
M  V30 1694 H 148.334 1.2835 0.652864 0
M  V30 1695 H 150.287 2.0064 3.70569 0
M  V30 1696 H 149.011 0.900207 3.13949 0
M  V30 1697 H 147.67 2.85851 2.29531 0
M  V30 1698 H 147.318 1.99691 4.61663 0
M  V30 1699 H 147.018 3.75046 4.52343 0
M  V30 1700 H 148.542 3.14583 5.23326 0
M  V30 1701 H 149.956 4.56897 3.46292 0
M  V30 1702 H 148.353 5.20315 2.98985 0
M  V30 1703 H 149.423 4.52164 1.75144 0
M  V30 1704 N 150.766 -0.704594 1.40972 0
M  V30 1705 C 151.713 -1.81862 1.42109 0
M  V30 1706 C 152.683 -1.63781 0.276593 0
M  V30 1707 O 153.868 -1.84759 0.4763 0
M  V30 1708 C 151.008 -3.19669 1.30022 0
M  V30 1709 C 150.121 -3.49246 2.54267 0
M  V30 1710 C 149.256 -4.76618 2.3454 0
M  V30 1711 C 148.295 -4.99133 3.54306 0
M  V30 1712 N 147.432 -6.17726 3.33706 0
M  V30 1713 H 152.272 -1.80226 2.37324 0
M  V30 1714 H 149.809 -0.880238 1.17857 0
M  V30 1715 H 151.767 -3.99263 1.21018 0
M  V30 1716 H 150.397 -3.20506 0.384192 0
M  V30 1717 H 149.449 -2.64125 2.73756 0
M  V30 1718 H 150.761 -3.61788 3.43381 0
M  V30 1719 H 149.915 -5.64249 2.22952 0
M  V30 1720 H 148.654 -4.66305 1.42867 0
M  V30 1721 H 147.659 -4.09953 3.66359 0
M  V30 1722 H 148.884 -5.11311 4.4692 0
M  V30 1723 H 146.83 -6.08642 2.44725 0
M  V30 1724 H 146.747 -6.30995 4.16391 0
M  V30 1725 H 148.015 -7.08115 3.25873 0
M  V30 1726 N 152.244 -1.26651 -0.937939 0
M  V30 1727 C 153.49 -1.12553 -1.687 0
M  V30 1728 C 153.823 0.329782 -1.91379 0
M  V30 1729 O 153.098 1.24202 -1.4968 0
M  V30 1730 C 153.381 -1.89862 -3.05981 0
M  V30 1731 C 153.234 -3.43318 -2.90607 0
M  V30 1732 C 154.553 -1.69499 -4.0615 0
M  V30 1733 H 151.672 -0.410257 -0.612257 0
M  V30 1734 H 154.314 -1.55685 -1.08913 0
M  V30 1735 H 152.464 -1.53204 -3.57017 0
M  V30 1736 H 154.136 -3.89747 -2.46769 0
M  V30 1737 H 152.379 -3.70179 -2.26164 0
M  V30 1738 H 153.05 -3.92642 -3.8799 0
M  V30 1739 H 155.526 -2.01442 -3.64088 0
M  V30 1740 H 154.402 -2.26002 -5.00214 0
M  V30 1741 H 154.663 -0.640365 -4.37438 0
M  V30 1742 N 153.722 1.14298 -1.08507 0
M  V30 1743 C 154.969 1.85359 -0.815373 0
M  V30 1744 C 155.297 1.83001 0.658865 0
M  V30 1745 O 154.552 1.25655 1.50031 0
M  V30 1746 C 154.851 3.33547 -1.28379 0
M  V30 1747 C 154.517 3.56093 -2.76602 0
M  V30 1748 C 153.179 3.61955 -3.17084 0
M  V30 1749 C 155.531 3.64834 -3.72217 0
M  V30 1750 C 152.859 3.74082 -4.51973 0
M  V30 1751 C 155.211 3.78487 -5.06883 0
M  V30 1752 C 153.875 3.82598 -5.46969 0
M  V30 1753 H 153.145 0.678276 -0.298366 0
M  V30 1754 H 155.792 1.35002 -1.35819 0
M  V30 1755 H 154.097 3.86191 -0.660593 0
M  V30 1756 H 155.794 3.86959 -1.05186 0
M  V30 1757 H 152.384 3.52179 -2.4427 0
M  V30 1758 H 156.568 3.59595 -3.42061 0
M  V30 1759 H 151.824 3.75527 -4.82483 0
M  V30 1760 H 155.998 3.84193 -5.80834 0
M  V30 1761 H 153.625 3.91747 -6.51489 0
M  V30 1762 N 155.201 0.870884 1.31352 0
M  V30 1763 C 156.478 0.402907 1.91405 0
M  V30 1764 C 156.858 -1.11512 1.79244 0
M  V30 1765 O 156.206 -1.94411 1.2007 0
M  V30 1766 C 156.416 0.885301 3.37585 0
M  V30 1767 C 157.764 0.911971 4.14691 0
M  V30 1768 O 158.788 0.831016 3.46371 0
M  V30 1769 O 157.647 1.02927 5.3672 0
M  V30 1770 H 154.741 0.120698 0.818145 0
M  V30 1771 H 157.287 0.958857 1.40014 0
M  V30 1772 H 156.059 1.92889 3.40455 0
M  V30 1773 H 155.682 0.307714 3.96407 0
M  V30 1774 N 156.679 -1.44442 0.630414 0
M  V30 1775 C 157.927 -2.01653 0.134351 0
M  V30 1776 C 158.248 -1.49836 -1.24796 0
M  V30 1777 O 157.518 -0.701684 -1.82902 0
M  V30 1778 H 156.098 -0.74554 0.0466769 0
M  V30 1779 H 158.76 -1.76952 0.816955 0
M  V30 1780 H 157.856 -3.11935 0.101498 0
M  V30 1781 N 158.157 -0.370918 -1.53173 0
M  V30 1782 C 159.406 0.218249 -2.00516 0
M  V30 1783 C 159.719 1.49429 -1.26215 0
M  V30 1784 O 160.925 2.16239 -1.64174 0
M  V30 1785 C 159.381 0.43948 -3.57207 0
M  V30 1786 C 158.989 -0.822244 -4.4039 0
M  V30 1787 C 160.733 0.986012 -4.1289 0
M  V30 1788 C 158.64 -0.570304 -5.88644 0
M  V30 1789 H 157.57 0.0853333 -0.749156 0
M  V30 1790 H 160.221 -0.490483 -1.76823 0
M  V30 1791 H 158.603 1.20961 -3.77074 0
M  V30 1792 H 159.777 -1.59557 -4.32294 0
M  V30 1793 H 158.092 -1.29238 -3.95836 0
M  V30 1794 H 160.689 1.18991 -5.21292 0
M  V30 1795 H 161.032 1.94972 -3.6782 0
M  V30 1796 H 161.565 0.27592 -3.96842 0
M  V30 1797 H 158.304 -1.50449 -6.38001 0
M  V30 1798 H 157.824 0.164427 -5.99575 0
M  V30 1799 H 159.503 -0.19784 -6.46697 0
M  V30 1800 N 159.635 1.57281 -0.100228 0
M  V30 1801 C 161.046 1.81725 0.428107 0
M  V30 1802 C 161.397 1.01619 1.67833 0
M  V30 1803 O 160.522 0.247098 2.14985 0
M  V30 1804 C 161.117 3.29617 0.78347 0
M  V30 1805 C 159.676 3.54808 1.25653 0
M  V30 1806 C 158.823 2.76118 0.255752 0
M  V30 1807 H 161.774 1.55324 -0.325608 0
M  V30 1808 H 161.795 3.4322 1.64256 0
M  V30 1809 H 161.307 3.87893 -0.12665 0
M  V30 1810 H 159.408 3.01868 2.18418 0
M  V30 1811 H 159.521 4.63443 1.21482 0
M  V30 1812 H 157.885 2.43745 0.738956 0
M  V30 1813 H 158.668 3.37145 -0.647136 0
M  V30 1814 N 161.113 -0.173488 1.56642 0
M  V30 1815 C 162.524 -0.736155 1.71574 0
M  V30 1816 C 162.875 -1.82888 0.710389 0
M  V30 1817 O 162 -2.16017 -0.1287 0
M  V30 1818 C 162.595 -1.34211 3.11083 0
M  V30 1819 C 161.154 -1.85162 3.27707 0
M  V30 1820 C 160.301 -0.729765 2.67525 0
M  V30 1821 H 163.252 0.0518786 1.58615 0
M  V30 1822 H 163.273 -2.21178 3.09613 0
M  V30 1823 H 162.785 -0.546579 3.84232 0
M  V30 1824 H 160.886 -2.67366 2.59512 0
M  V30 1825 H 160.999 -1.99855 4.35425 0
M  V30 1826 H 159.363 -1.14965 2.27278 0
M  V30 1827 H 160.146 0.0538806 3.43258 0
M  V30 1828 N 162.591 -1.51276 -0.441967 0
M  V30 1829 C 164.002 -1.56244 -1.02199 0
M  V30 1830 C 164.353 -0.383149 -1.92422 0
M  V30 1831 O 163.478 0.500613 -2.1053 0
M  V30 1832 C 164.073 -2.83162 -1.86024 0
M  V30 1833 C 162.632 -2.90716 -2.39084 0
M  V30 1834 C 161.779 -2.50858 -1.18175 0
M  V30 1835 H 164.73 -1.5712 -0.223416 0
M  V30 1836 H 164.751 -2.66663 -2.71425 0
M  V30 1837 H 164.263 -3.68974 -1.20331 0
M  V30 1838 H 162.364 -2.09323 -3.08244 0
M  V30 1839 H 162.477 -3.94266 -2.72198 0
M  V30 1840 H 160.841 -2.03951 -1.52565 0
M  V30 1841 H 161.624 -3.3901 -0.541001 0
M  V30 1842 N 164.069 0.697108 -1.41344 0
M  V30 1843 C 165.299 1.48377 -1.43763 0
M  V30 1844 C 165.707 1.89156 -0.0408726 0
M  V30 1845 O 165.05 1.57239 0.949812 0
M  V30 1846 C 165.112 2.7781 -2.2817 0
M  V30 1847 C 164.776 2.59244 -3.76353 0
M  V30 1848 C 165.773 2.25292 -4.68551 0
M  V30 1849 C 163.458 2.74933 -4.20378 0
M  V30 1850 C 165.452 2.07264 -6.02761 0
M  V30 1851 C 163.139 2.56521 -5.54653 0
M  V30 1852 C 164.137 2.22737 -6.4566 0
M  V30 1853 O 163.825 2.04485 -7.77458 0
M  V30 1854 H 163.557 0.463842 -0.491759 0
M  V30 1855 H 166.111 0.865934 -1.86255 0
M  V30 1856 H 164.341 3.41995 -1.8049 0
M  V30 1857 H 166.03 3.39608 -2.22309 0
M  V30 1858 H 166.796 2.12787 -4.35829 0
M  V30 1859 H 162.675 3.00213 -3.49848 0
M  V30 1860 H 166.219 1.80817 -6.73759 0
M  V30 1861 H 162.116 2.68616 -5.86955 0
M  V30 1862 H 162.884 2.1926 -7.88586 0
M  V30 1863 N 165.547 1.27147 0.931209 0
M  V30 1864 C 166.824 1.0401 1.65654 0
M  V30 1865 C 167.204 -0.426297 2.06751 0
M  V30 1866 O 166.552 -1.40879 1.79904 0
M  V30 1867 C 166.762 1.99834 2.86125 0
M  V30 1868 C 168.11 2.29007 3.57549 0
M  V30 1869 O 169.134 1.97779 2.96246 0
M  V30 1870 O 167.993 2.82222 4.67989 0
M  V30 1871 H 165.087 0.396239 0.725895 0
M  V30 1872 H 167.633 1.38397 0.982056 0
M  V30 1873 H 166.405 2.98744 2.52721 0
M  V30 1874 H 166.028 1.65987 3.61295 0
M  V30 1875 N 167.025 -1.13721 1.09112 0
M  V30 1876 C 167.972 -2.19031 0.727591 0
M  V30 1877 C 168.942 -1.63555 -0.289656 0
M  V30 1878 O 170.127 -1.90023 -0.172026 0
M  V30 1879 C 167.267 -3.4477 0.15082 0
M  V30 1880 C 166.38 -4.14365 1.22172 0
M  V30 1881 C 165.515 -5.27709 0.608042 0
M  V30 1882 C 164.554 -5.89147 1.66047 0
M  V30 1883 N 163.691 -6.93929 1.06806 0
M  V30 1884 H 168.531 -2.49475 1.62991 0
M  V30 1885 H 166.068 -1.22499 0.81439 0
M  V30 1886 H 168.026 -4.16714 -0.201358 0
M  V30 1887 H 166.656 -3.14787 -0.714783 0
M  V30 1888 H 165.708 -3.40737 1.69122 0
M  V30 1889 H 167.02 -4.56114 2.01895 0
M  V30 1890 H 166.174 -6.06355 0.204523 0
M  V30 1891 H 164.913 -4.872 -0.220769 0
M  V30 1892 H 163.918 -5.09198 2.07357 0
M  V30 1893 H 165.143 -6.31729 2.49189 0
M  V30 1894 H 163.089 -6.55483 0.260476 0
M  V30 1895 H 163.006 -7.34202 1.8023 0
M  V30 1896 H 164.274 -7.76434 0.690644 0
M  V30 1897 N 168.503 -0.877838 -1.30888 0
M  V30 1898 C 169.45 -0.337538 -2.28318 0
M  V30 1899 C 170.42 0.568346 -1.56074 0
M  V30 1900 O 171.605 0.498298 -1.84178 0
M  V30 1901 C 168.745 0.448142 -3.42178 0
M  V30 1902 C 167.858 -0.48615 -4.29256 0
M  V30 1903 C 166.993 0.314427 -5.30269 0
M  V30 1904 C 166.032 -0.615791 -6.08995 0
M  V30 1905 N 165.169 0.14902 -7.01942 0
M  V30 1906 H 170.009 -1.17356 -2.73919 0
M  V30 1907 H 167.546 -0.590094 -1.34745 0
M  V30 1908 H 169.504 0.919517 -4.06941 0
M  V30 1909 H 168.134 1.24879 -2.97666 0
M  V30 1910 H 167.186 -1.076 -3.64865 0
M  V30 1911 H 168.498 -1.19909 -4.84173 0
M  V30 1912 H 167.652 0.847969 -6.00745 0
M  V30 1913 H 166.391 1.06062 -4.76027 0
M  V30 1914 H 165.396 -1.16102 -5.37401 0
M  V30 1915 H 166.621 -1.36097 -6.65323 0
M  V30 1916 H 164.567 0.877884 -6.50099 0
M  V30 1917 H 164.484 -0.504433 -7.54315 0
M  V30 1918 H 165.752 0.663537 -7.76671 0
M  V30 1919 N 169.982 1.44106 -0.638065 0
M  V30 1920 C 170.929 2.30715 0.062701 0
M  V30 1921 C 171.899 1.43882 0.829883 0
M  V30 1922 O 173.084 1.72775 0.809532 0
M  V30 1923 C 170.224 3.29258 1.03358 0
M  V30 1924 C 169.337 4.31192 0.26409 0
M  V30 1925 C 168.472 5.16825 1.22741 0
M  V30 1926 C 167.511 6.10462 0.447475 0
M  V30 1927 N 166.648 6.8877 1.36161 0
M  V30 1928 H 171.488 2.90096 -0.681781 0
M  V30 1929 H 169.025 1.42925 -0.347988 0
M  V30 1930 H 170.983 3.84886 1.60992 0
M  V30 1931 H 169.613 2.71562 1.74511 0
M  V30 1932 H 168.665 3.77981 -0.428295 0
M  V30 1933 H 169.977 4.97619 -0.343052 0
M  V30 1934 H 169.131 5.77004 1.87487 0
M  V30 1935 H 167.87 4.50488 1.86847 0
M  V30 1936 H 166.875 5.49386 -0.213433 0
M  V30 1937 H 168.1 6.78837 -0.188968 0
M  V30 1938 H 166.046 6.25096 1.98975 0
M  V30 1939 H 165.963 7.51663 0.808656 0
M  V30 1940 H 167.231 7.53467 1.99769 0
M  V30 1941 N 171.46 0.379036 1.52974 0
M  V30 1942 C 172.876 0.0285448 1.59574 0
M  V30 1943 C 173.076 -1.45542 1.39355 0
M  V30 1944 O 172.132 -2.2187 1.20541 0
M  V30 1945 C 173.445 0.496535 2.96572 0
M  V30 1946 C 174.993 0.451909 3.0972 0
M  V30 1947 C 175.468 0.895924 4.49152 0
M  V30 1948 N 176.959 0.851522 4.55306 0
M  V30 1949 C 177.694 1.16661 5.61407 0
M  V30 1950 N 177.19 1.55166 6.752 0
M  V30 1951 N 178.983 1.08853 5.51459 0
M  V30 1952 H 171.134 1.34525 1.64367 0
M  V30 1953 H 173.397 0.550733 0.771619 0
M  V30 1954 H 173.103 1.53258 3.16552 0
M  V30 1955 H 172.977 -0.109802 3.7704 0
M  V30 1956 H 175.364 -0.575029 2.89443 0
M  V30 1957 H 175.445 1.09392 2.3123 0
M  V30 1958 H 175.089 1.92104 4.70168 0
M  V30 1959 H 175.019 0.23103 5.26093 0
M  V30 1960 H 177.51 0.568038 3.73606 0
M  V30 1961 H 177.823 1.776 7.52116 0
M  V30 1962 H 176.168 1.59044 6.76557 0
M  V30 1963 H 179.359 0.786803 4.6144 0
M  V30 1964 H 179.532 1.33742 6.34048 0
M  V30 1965 N 172.938 -1.57226 0.108567 0
M  V30 1966 C 173.871 -2.10447 -0.882464 0
M  V30 1967 C 174.849 -1.01829 -1.26766 0
M  V30 1968 O 176.033 -1.29415 -1.37054 0
M  V30 1969 C 173.16 -2.59258 -2.17952 0
M  V30 1970 C 172.206 -3.79662 -1.94318 0
M  V30 1971 S 173.039 -5.22586 -1.16892 0
M  V30 1972 C 174.195 -5.74758 -2.47799 0
M  V30 1973 H 174.428 -2.94178 -0.429745 0
M  V30 1974 H 171.961 -1.54043 -0.105 0
M  V30 1975 H 173.919 -2.88036 -2.92482 0
M  V30 1976 H 172.58 -1.75728 -2.60343 0
M  V30 1977 H 171.773 -4.11928 -2.90399 0
M  V30 1978 H 171.375 -3.51446 -1.27913 0
M  V30 1979 H 173.667 -5.83846 -3.43701 0
M  V30 1980 H 174.61 -6.73027 -2.20093 0
M  V30 1981 H 175.018 -5.02763 -2.56689 0
M  V30 1982 N 174.416 0.165178 -1.56732 0
M  V30 1983 C 175.662 0.882112 -1.82611 0
M  V30 1984 C 175.995 1.81628 -0.687378 0
M  V30 1985 O 175.27 1.92009 0.310267 0
M  V30 1986 C 175.553 1.67245 -3.18906 0
M  V30 1987 C 175.406 0.760987 -4.43316 0
M  V30 1988 C 176.725 2.63884 -3.52212 0
M  V30 1989 H 173.844 0.319242 -0.664269 0
M  V30 1990 H 176.486 0.148052 -1.89422 0
M  V30 1991 H 174.636 2.29824 -3.1323 0
M  V30 1992 H 176.308 0.147596 -4.61064 0
M  V30 1993 H 174.551 0.0694102 -4.33744 0
M  V30 1994 H 175.222 1.34962 -5.35247 0
M  V30 1995 H 177.698 2.11429 -3.58381 0
M  V30 1996 H 176.574 3.16245 -4.48643 0
M  V30 1997 H 176.835 3.44377 -2.77231 0
M  V30 1998 N 175.894 1.51508 0.433938 0
M  V30 1999 C 177.14 1.64588 1.18484 0
M  V30 2000 C 177.473 0.362666 1.90784 0
M  V30 2001 O 176.748 -0.637892 1.83742 0
M  V30 2002 C 177.031 2.85149 2.19913 0
M  V30 2003 C 176.884 4.23456 1.51674 0
M  V30 2004 C 178.203 3.01227 3.20858 0
M  V30 2005 H 175.322 0.598994 0.429389 0
M  V30 2006 H 177.964 1.84002 0.473647 0
M  V30 2007 H 176.114 2.68729 2.80566 0
M  V30 2008 H 177.786 4.51552 0.943322 0
M  V30 2009 H 176.029 4.25998 0.819035 0
M  V30 2010 H 176.7 5.03812 2.2556 0
M  V30 2011 H 179.176 3.16382 2.70263 0
M  V30 2012 H 178.052 3.87141 3.89118 0
M  V30 2013 H 178.313 2.13447 3.8716 0
M  V30 2014 N 177.372 -0.689602 1.41712 0
M  V30 2015 C 178.783 -1.26973 1.36875 0
M  V30 2016 C 179.134 -1.96124 0.054748 0
M  V30 2017 O 178.259 -1.99141 -0.84687 0
M  V30 2018 C 178.854 -2.30912 2.47922 0
M  V30 2019 C 177.413 -2.84486 2.46464 0
M  V30 2020 C 176.56 -1.58603 2.27465 0
M  V30 2021 H 179.511 -0.48396 1.51141 0
M  V30 2022 H 179.532 -3.12331 2.17323 0
M  V30 2023 H 179.044 -1.80554 3.43543 0
M  V30 2024 H 177.145 -3.39005 1.54617 0
M  V30 2025 H 177.258 -3.34511 3.42986 0
M  V30 2026 H 175.622 -1.84632 1.75451 0
M  V30 2027 H 176.405 -1.10233 3.25121 0
M  V30 2028 N 178.85 -1.27639 -0.924453 0
M  V30 2029 C 179.813 -1.10681 -2.00705 0
M  V30 2030 C 180.813 -0.0497823 -1.60723 0
M  V30 2031 O 182.003 -0.294654 -1.7169 0
M  V30 2032 C 179.135 -0.687164 -3.33902 0
M  V30 2033 H 180.328 -2.06817 -2.17179 0
M  V30 2034 H 177.881 -1.10473 -1.10569 0
M  V30 2035 H 178.616 0.275439 -3.23128 0
M  V30 2036 H 178.401 -1.45061 -3.6428 0
M  V30 2037 H 179.891 -0.590853 -4.13399 0
M  V30 2038 N 180.328 1.1314 -1.09713 0
M  V30 2039 C 181.291 2.16831 -0.742751 0
M  V30 2040 C 182.291 1.59159 0.229129 0
M  V30 2041 O 183.481 1.74199 0.00693237 0
M  V30 2042 C 180.613 3.40756 -0.0989168 0
M  V30 2043 H 181.806 2.49695 -1.66109 0
M  V30 2044 H 179.359 1.2802 -0.896699 0
M  V30 2045 H 180.094 3.13485 0.830514 0
M  V30 2046 H 179.879 3.83888 -0.798265 0
M  V30 2047 H 181.369 4.17386 0.133524 0
M  V30 2048 N 181.806 0.884767 1.30421 0
M  V30 2049 C 182.736 0.367574 2.30589 0
M  V30 2050 C 183.717 -0.549464 1.60981 0
M  V30 2051 O 184.902 -0.46336 1.88591 0
M  V30 2052 C 182.032 -0.418944 3.44764 0
M  V30 2053 C 180.986 0.406316 4.26067 0
M  V30 2054 C 180.312 -0.506793 5.32293 0
M  V30 2055 C 181.612 1.64832 4.95608 0
M  V30 2056 H 183.306 1.20462 2.74097 0
M  V30 2057 H 180.852 0.580695 1.31772 0
M  V30 2058 H 182.805 -0.791395 4.13902 0
M  V30 2059 H 181.529 -1.28964 3.0006 0
M  V30 2060 H 180.188 0.760903 3.58617 0
M  V30 2061 H 179.836 -1.37519 4.83836 0
M  V30 2062 H 179.536 0.0415828 5.87585 0
M  V30 2063 H 181.06 -0.875764 6.04287 0
M  V30 2064 H 182.474 1.34646 5.57264 0
M  V30 2065 H 180.871 2.13688 5.60765 0
M  V30 2066 H 181.941 2.39284 4.21748 0
M  V30 2067 N 183.284 -1.43765 0.645699 0
M  V30 2068 C 184.231 -2.30745 -0.0504648 0
M  V30 2069 C 185.201 -1.4432 -0.822241 0
M  V30 2070 O 186.386 -1.73202 -0.800358 0
M  V30 2071 C 183.526 -3.29802 -1.0161 0
M  V30 2072 C 182.639 -4.31326 -0.241219 0
M  V30 2073 C 181.774 -5.17469 -1.19998 0
M  V30 2074 C 180.813 -6.10691 -0.415094 0
M  V30 2075 N 179.95 -6.89483 -1.32506 0
M  V30 2076 H 184.79 -2.8973 0.697155 0
M  V30 2077 H 182.327 -1.42738 0.355563 0
M  V30 2078 H 184.285 -3.85734 -1.58949 0
M  V30 2079 H 182.915 -2.72483 -1.73069 0
M  V30 2080 H 181.967 -3.77749 0.448334 0
M  V30 2081 H 183.279 -4.9743 0.369437 0
M  V30 2082 H 182.433 -5.7799 -1.84424 0
M  V30 2083 H 181.172 -4.51473 -1.84455 0
M  V30 2084 H 180.177 -5.49265 0.242565 0
M  V30 2085 H 181.402 -6.78727 0.224966 0
M  V30 2086 H 179.348 -6.26142 -1.95657 0
M  V30 2087 H 179.265 -7.52081 -0.768783 0
M  V30 2088 H 180.533 -7.54516 -1.9577 0
M  V30 2089 N 184.763 -0.387143 -1.52771 0
M  V30 2090 C 186.009 0.196025 -2.0185 0
M  V30 2091 C 186.342 1.46641 -1.27319 0
M  V30 2092 O 185.617 1.90889 -0.373032 0
M  V30 2093 C 185.9 0.466136 -3.5707 0
M  V30 2094 C 185.753 -0.819385 -4.42274 0
M  V30 2095 C 187.072 1.25768 -4.21747 0
M  V30 2096 H 184.191 0.0697708 -0.73369 0
M  V30 2097 H 186.833 -0.516286 -1.82851 0
M  V30 2098 H 184.983 1.07293 -3.7339 0
M  V30 2099 H 186.655 -1.4563 -4.37709 0
M  V30 2100 H 184.898 -1.43517 -4.09372 0
M  V30 2101 H 185.569 -0.585065 -5.48891 0
M  V30 2102 H 188.045 0.744167 -4.09391 0
M  V30 2103 H 186.921 1.41541 -5.30337 0
M  V30 2104 H 187.182 2.27228 -3.79236 0
M  V30 2105 N 186.241 1.57166 -0.116904 0
M  V30 2106 C 187.487 1.95412 0.542405 0
M  V30 2107 C 187.82 1.00019 1.66463 0
M  V30 2108 O 187.095 0.0370346 1.94465 0
M  V30 2109 C 187.378 3.43615 1.07708 0
M  V30 2110 C 187.231 4.49781 -0.0415868 0
M  V30 2111 C 188.55 3.93616 1.96861 0
M  V30 2112 H 185.669 0.710543 0.195696 0
M  V30 2113 H 188.311 1.89027 -0.192038 0
M  V30 2114 H 186.461 3.49187 1.70296 0
M  V30 2115 H 188.133 4.56308 -0.676793 0
M  V30 2116 H 186.376 4.28033 -0.705019 0
M  V30 2117 H 187.047 5.50733 0.373717 0
M  V30 2118 H 189.523 3.90335 1.44146 0
M  V30 2119 H 188.399 4.97838 2.3119 0
M  V30 2120 H 188.66 3.34188 2.89432 0
M  V30 2121 N 187.719 -0.156864 1.56817 0
M  V30 2122 C 189.135 -0.50916 1.5126 0
M  V30 2123 C 189.335 -1.83897 0.823658 0
M  V30 2124 O 188.391 -2.49469 0.390055 0
M  V30 2125 C 189.704 -0.52857 2.96018 0
M  V30 2126 C 191.252 -0.614771 3.06903 0
M  V30 2127 C 191.727 -0.664938 4.53147 0
M  V30 2128 N 193.218 -0.727433 4.57452 0
M  V30 2129 C 193.953 -0.787067 5.67973 0
M  V30 2130 N 193.449 -0.806649 6.88088 0
M  V30 2131 N 195.242 -0.827195 5.5598 0
M  V30 2132 H 187.393 0.714935 2.00006 0
M  V30 2133 H 189.656 0.259526 0.911784 0
M  V30 2134 H 189.362 0.380154 3.49639 0
M  V30 2135 H 189.236 -1.36998 3.51442 0
M  V30 2136 H 191.623 -1.51392 2.53307 0
M  V30 2137 H 191.704 0.253597 2.5454 0
M  V30 2138 H 191.348 0.230011 5.07379 0
M  V30 2139 H 191.278 -1.54966 5.03282 0
M  V30 2140 H 193.769 -0.719998 3.70978 0
M  V30 2141 H 194.082 -0.853727 7.6807 0
M  V30 2142 H 192.427 -0.774687 6.90669 0
M  V30 2143 H 195.618 -0.808998 4.61056 0
M  V30 2144 H 195.791 -0.870206 6.4213 0
M  V30 2145 N 189.197 -1.51736 -0.425897 0
M  V30 2146 C 190.127 -1.76827 -1.52494 0
M  V30 2147 C 191.108 -0.618524 -1.58456 0
M  V30 2148 O 192.293 -0.862416 -1.74 0
M  V30 2149 C 189.423 -1.90374 -2.90474 0
M  V30 2150 C 188.377 -3.0588 -2.99369 0
M  V30 2151 C 187.703 -3.04625 -4.3944 0
M  V30 2152 C 189.003 -4.45644 -2.72394 0
M  V30 2153 H 190.697 -2.68855 -1.31748 0
M  V30 2154 H 188.243 -1.29372 -0.632362 0
M  V30 2155 H 190.196 -2.0651 -3.6733 0
M  V30 2156 H 188.92 -0.95004 -3.12477 0
M  V30 2157 H 187.579 -2.89467 -2.24954 0
M  V30 2158 H 187.227 -2.0701 -4.58428 0
M  V30 2159 H 186.927 -3.82195 -4.46319 0
M  V30 2160 H 188.451 -3.22869 -5.18255 0
M  V30 2161 H 189.865 -4.62348 -3.38979 0
M  V30 2162 H 188.262 -5.25006 -2.9067 0
M  V30 2163 H 189.332 -4.54893 -1.67929 0
M  V30 2164 N 190.675 0.682077 -1.42076 0
M  V30 2165 C 191.622 1.79578 -1.44984 0
M  V30 2166 C 192.592 1.6332 -0.302614 0
M  V30 2167 O 193.777 1.83978 -0.505633 0
M  V30 2168 C 190.917 3.1756 -1.35091 0
M  V30 2169 C 190.03 3.45156 -2.59791 0
M  V30 2170 C 189.165 4.72826 -2.42093 0
M  V30 2171 C 188.204 4.93433 -3.62202 0
M  V30 2172 N 187.341 6.12338 -3.43491 0
M  V30 2173 H 192.181 1.76427 -2.40161 0
M  V30 2174 H 189.718 0.861376 -1.19242 0
M  V30 2175 H 191.676 3.97287 -1.27354 0
M  V30 2176 H 190.306 3.19854 -0.435133 0
M  V30 2177 H 189.358 2.59736 -2.77923 0
M  V30 2178 H 190.67 3.5628 -3.49094 0
M  V30 2179 H 189.824 5.60631 -2.319 0
M  V30 2180 H 188.563 4.63973 -1.50268 0
M  V30 2181 H 187.568 4.04073 -3.72834 0
M  V30 2182 H 188.793 5.04136 -4.54998 0
M  V30 2183 H 186.739 6.04672 -2.54377 0
M  V30 2184 H 186.656 6.2429 -4.26377 0
M  V30 2185 H 187.924 7.02841 -3.37097 0
M  V30 2186 N 192.153 1.28127 0.917671 0
M  V30 2187 C 193.564 1.13622 1.48145 0
M  V30 2188 C 193.915 -0.275207 1.9426 0
M  V30 2189 O 193.04 -1.1691 1.82102 0
M  V30 2190 C 193.635 2.05648 2.69248 0
M  V30 2191 C 192.194 1.95219 3.21818 0
M  V30 2192 C 191.341 1.97618 1.94532 0
M  V30 2193 H 194.292 1.40874 0.730772 0
M  V30 2194 H 194.313 1.61818 3.44377 0
M  V30 2195 H 193.825 3.08365 2.35653 0
M  V30 2196 H 191.926 0.955244 3.60147 0
M  V30 2197 H 192.039 2.81976 3.87333 0
M  V30 2198 H 190.403 1.41973 2.11461 0
M  V30 2199 H 191.186 3.02007 1.63238 0
M  V30 2200 N 193.631 -1.12557 1.10312 0
M  V30 2201 C 194.859 -1.87864 0.866873 0
M  V30 2202 C 195.274 -1.79588 -0.582557 0
M  V30 2203 O 194.631 -1.16887 -1.40156 0
M  V30 2204 C 194.682 -3.37125 1.30496 0
M  V30 2205 O 194.403 -3.45201 2.69755 0
M  V30 2206 C 195.904 -4.29373 1.10243 0
M  V30 2207 H 193.124 -0.594452 0.311236 0
M  V30 2208 H 195.668 -1.42429 1.46745 0
M  V30 2209 H 193.823 -3.80109 0.748081 0
M  V30 2210 H 194.237 -4.38056 2.88457 0
M  V30 2211 H 195.711 -5.32394 1.45811 0
M  V30 2212 H 196.188 -4.39181 0.0409492 0
M  V30 2213 H 196.794 -3.92169 1.64571 0
M  V30 2214 N 195.109 -0.891671 -1.2995 0
M  V30 2215 C 196.525 -0.58662 -1.48428 0
M  V30 2216 C 196.725 0.873951 -1.81561 0
M  V30 2217 O 195.781 1.65471 -1.90724 0
M  V30 2218 C 197.094 -1.50553 -2.60296 0
M  V30 2219 C 198.642 -1.50988 -2.74175 0
M  V30 2220 C 199.117 -2.41488 -3.89163 0
M  V30 2221 N 200.608 -2.39489 -3.96483 0
M  V30 2222 C 201.343 -3.06223 -4.84784 0
M  V30 2223 N 200.839 -3.82206 -5.77833 0
M  V30 2224 N 202.632 -2.95421 -4.78208 0
M  V30 2225 H 194.783 -1.83644 -1.06718 0
M  V30 2226 H 197.046 -0.786455 -0.529332 0
M  V30 2227 H 196.752 -2.54581 -2.42654 0
M  V30 2228 H 196.626 -1.22008 -3.56923 0
M  V30 2229 H 199.013 -0.47708 -2.91218 0
M  V30 2230 H 199.094 -1.83567 -1.78148 0
M  V30 2231 H 198.738 -3.44857 -3.72876 0
M  V30 2232 H 198.668 -2.06222 -4.84541 0
M  V30 2233 H 201.159 -1.84278 -3.29924 0
M  V30 2234 H 201.472 -4.302 -6.41988 0
M  V30 2235 H 199.817 -3.86313 -5.77743 0
M  V30 2236 H 203.008 -2.35581 -4.04499 0
M  V30 2237 H 203.181 -3.47704 -5.46814 0
M  V30 2238 N 196.587 1.43421 -0.653314 0
M  V30 2239 C 197.534 2.30768 0.0382271 0
M  V30 2240 C 198.504 1.44755 0.814576 0
M  V30 2241 O 199.689 1.73624 0.791162 0
M  V30 2242 C 196.829 3.30336 0.998599 0
M  V30 2243 C 195.942 4.31448 0.218342 0
M  V30 2244 C 195.077 5.18098 1.17252 0
M  V30 2245 C 194.116 6.10902 0.382702 0
M  V30 2246 N 193.253 6.90176 1.28848 0
M  V30 2247 H 198.093 2.89357 -0.712511 0
M  V30 2248 H 195.63 1.42548 -0.363128 0
M  V30 2249 H 197.588 3.86572 1.56901 0
M  V30 2250 H 196.218 2.73397 1.71621 0
M  V30 2251 H 195.27 3.77506 -0.46836 0
M  V30 2252 H 196.582 4.97227 -0.395812 0
M  V30 2253 H 195.736 5.7896 1.81356 0
M  V30 2254 H 194.475 4.52444 1.82058 0
M  V30 2255 H 193.48 5.49128 -0.27169 0
M  V30 2256 H 194.705 6.78598 -0.260957 0
M  V30 2257 H 192.651 6.27171 1.92334 0
M  V30 2258 H 192.568 7.52478 0.728887 0
M  V30 2259 H 193.836 7.55543 1.91766 0
M  V30 2260 N 198.065 0.39524 1.52563 0
M  V30 2261 C 199.312 -0.185044 2.01653 0
M  V30 2262 C 199.64 -1.46317 1.28146 0
M  V30 2263 O 198.895 -1.9213 0.372074 0
M  V30 2264 C 199.194 -0.493444 3.53977 0
M  V30 2265 C 198.86 0.69384 4.4553 0
M  V30 2266 C 197.522 1.01954 4.70275 0
M  V30 2267 C 199.874 1.48785 4.99512 0
M  V30 2268 C 197.202 2.14069 5.46252 0
M  V30 2269 C 199.554 2.59965 5.76716 0
M  V30 2270 C 198.218 2.93037 5.99738 0
M  V30 2271 H 197.488 -0.0677123 0.7379 0
M  V30 2272 H 200.135 0.533807 1.8391 0
M  V30 2273 H 198.44 -1.29369 3.69825 0
M  V30 2274 H 200.137 -0.955163 3.89458 0
M  V30 2275 H 196.727 0.429987 4.26438 0
M  V30 2276 H 200.911 1.24946 4.80315 0
M  V30 2277 H 196.167 2.40056 5.62302 0
M  V30 2278 H 200.341 3.21887 6.17545 0
M  V30 2279 H 197.968 3.8003 6.58393 0
M  V30 2280 N 199.544 -1.57102 0.125237 0
M  V30 2281 C 200.507 -2.14471 -0.80838 0
M  V30 2282 C 201.507 -1.0811 -1.19033 0
M  V30 2283 O 202.697 -1.33856 -1.11482 0
M  V30 2284 C 199.829 -2.69005 -2.09402 0
M  V30 2285 H 201.022 -2.98297 -0.309696 0
M  V30 2286 H 198.575 -1.55807 -0.124051 0
M  V30 2287 H 199.31 -1.88785 -2.63687 0
M  V30 2288 H 199.095 -3.46799 -1.82957 0
M  V30 2289 H 200.585 -3.13278 -2.76128 0
M  V30 2290 N 201.022 0.148545 -1.56898 0
M  V30 2291 C 202.252 0.875118 -1.8715 0
M  V30 2292 C 202.66 1.75322 -0.711262 0
M  V30 2293 O 202.003 1.80745 0.328151 0
M  V30 2294 C 202.065 1.7844 -3.12089 0
M  V30 2295 C 201.729 1.08361 -4.43967 0
M  V30 2296 C 202.726 0.438247 -5.1805 0
M  V30 2297 C 200.411 1.07358 -4.90693 0
M  V30 2298 C 202.405 -0.20779 -6.37061 0
M  V30 2299 C 200.092 0.42373 -6.09629 0
M  V30 2300 C 201.09 -0.215829 -6.82659 0
M  V30 2301 O 200.778 -0.855378 -7.99336 0
M  V30 2302 H 200.51 0.258504 -0.624621 0
M  V30 2303 H 203.064 0.14652 -2.04877 0
M  V30 2304 H 201.294 2.55389 -2.90367 0
M  V30 2305 H 202.983 2.38279 -3.286 0
M  V30 2306 H 203.749 0.437817 -4.8302 0
M  V30 2307 H 199.628 1.5608 -4.33774 0
M  V30 2308 H 203.172 -0.70758 -6.94002 0
M  V30 2309 H 199.069 0.421822 -6.4412 0
M  V30 2310 H 199.837 -0.756892 -8.14993 0
M  V30 2311 N 202.5 1.5196 0.417844 0
M  V30 2312 C 203.43 1.77634 1.51554 0
M  V30 2313 C 204.411 0.626918 1.58126 0
M  V30 2314 O 205.596 0.871632 1.7354 0
M  V30 2315 C 202.726 1.91911 2.8946 0
M  V30 2316 C 201.68 3.07463 2.97743 0
M  V30 2317 C 201.006 3.06951 4.37819 0
M  V30 2318 C 202.306 4.47082 2.70027 0
M  V30 2319 H 204 2.6955 1.3032 0
M  V30 2320 H 201.546 1.29706 0.625492 0
M  V30 2321 H 203.499 2.08455 3.6623 0
M  V30 2322 H 202.223 0.966598 3.11969 0
M  V30 2323 H 200.882 2.90656 2.23416 0
M  V30 2324 H 200.53 2.09438 4.57323 0
M  V30 2325 H 200.23 3.84556 4.44286 0
M  V30 2326 H 201.754 3.25613 5.16535 0
M  V30 2327 H 203.168 4.6414 3.36522 0
M  V30 2328 H 201.565 5.2654 2.87881 0
M  V30 2329 H 202.635 4.55777 1.65514 0
M  V30 2330 N 203.978 -0.674533 1.42435 0
M  V30 2331 C 205.226 -1.43175 1.42637 0
M  V30 2332 C 205.547 -1.94951 0.0438992 0
M  V30 2333 O 204.817 -1.7308 -0.917607 0
M  V30 2334 H 203.397 -0.531307 0.525092 0
M  V30 2335 H 206.059 -0.797006 1.77859 0
M  V30 2336 H 205.155 -2.28463 2.12629 0
M  V30 2337 N 205.456 -1.28612 -0.910864 0
M  V30 2338 C 206.872 -1.06381 -1.18976 0
M  V30 2339 C 207.072 0.191998 -2.00583 0
M  V30 2340 O 206.128 0.892869 -2.36187 0
M  V30 2341 C 207.441 -2.31295 -1.92154 0
M  V30 2342 C 208.989 -2.36503 -2.05025 0
M  V30 2343 C 209.464 -3.61191 -2.81612 0
M  V30 2344 N 210.955 -3.61847 -2.89172 0
M  V30 2345 C 211.69 -4.55004 -3.4894 0
M  V30 2346 N 211.186 -5.58482 -4.09963 0
M  V30 2347 N 212.979 -4.42594 -3.46506 0
M  V30 2348 H 205.13 -2.09221 -0.366094 0
M  V30 2349 H 207.393 -0.921003 -0.224629 0
M  V30 2350 H 207.099 -3.228 -1.39618 0
M  V30 2351 H 206.973 -2.37934 -2.9269 0
M  V30 2352 H 209.36 -1.45494 -2.5674 0
M  V30 2353 H 209.441 -2.33857 -1.03657 0
M  V30 2354 H 209.085 -4.52545 -2.30576 0
M  V30 2355 H 209.015 -3.61092 -3.83302 0
M  V30 2356 H 211.506 -2.87022 -2.45819 0
M  V30 2357 H 211.819 -6.25704 -4.53557 0
M  V30 2358 H 210.164 -5.62305 -4.08459 0
M  V30 2359 H 213.355 -3.60953 -2.98045 0
M  V30 2360 H 213.528 -5.15381 -3.92793 0
M  V30 2361 N 206.934 1.1197 -1.10907 0
M  V30 2362 C 207.864 2.19928 -0.784473 0
M  V30 2363 C 208.845 1.6833 0.244726 0
M  V30 2364 O 210.03 1.93892 0.109418 0
M  V30 2365 C 207.16 3.46597 -0.220827 0
M  V30 2366 C 206.114 4.11376 -1.18127 0
M  V30 2367 C 205.44 5.32554 -0.478594 0
M  V30 2368 C 206.74 4.56945 -2.52979 0
M  V30 2369 H 208.434 2.47337 -1.68715 0
M  V30 2370 H 205.98 1.18879 -0.812642 0
M  V30 2371 H 207.933 4.21396 0.0184278 0
M  V30 2372 H 206.657 3.1863 0.717113 0
M  V30 2373 H 205.316 3.38564 -1.40606 0
M  V30 2374 H 204.964 5.00856 0.463976 0
M  V30 2375 H 204.664 5.76844 -1.11912 0
M  V30 2376 H 206.188 6.10096 -0.248 0
M  V30 2377 H 207.602 5.23093 -2.3462 0
M  V30 2378 H 205.999 5.1203 -3.12962 0
M  V30 2379 H 207.069 3.70676 -3.12614 0
M  V30 2380 N 208.412 0.89855 1.29475 0
M  V30 2381 C 209.375 0.380272 2.26023 0
M  V30 2382 C 210.375 -0.484891 1.53315 0
M  V30 2383 O 211.565 -0.290108 1.71767 0
M  V30 2384 C 208.697 -0.45651 3.3783 0
M  V30 2385 H 209.89 1.23295 2.73383 0
M  V30 2386 H 207.443 0.676589 1.40897 0
M  V30 2387 H 208.178 -1.32922 2.95808 0
M  V30 2388 H 207.963 0.163393 3.91759 0
M  V30 2389 H 209.453 -0.810466 4.0966 0
M  V30 2390 N 209.89 -1.43072 0.660911 0
M  V30 2391 C 210.84 -2.27948 -0.04847 0
M  V30 2392 C 211.824 -1.40325 -0.787246 0
M  V30 2393 O 213.016 -1.63893 -0.668446 0
M  V30 2394 C 210.145 -3.28143 -1.00881 0
M  V30 2395 C 209.231 -4.23252 -0.268108 0
M  V30 2396 N 209.622 -5.00656 0.719528 0
M  V30 2397 C 207.92 -4.43092 -0.508493 0
M  V30 2398 C 208.621 -5.70019 1.15988 0
M  V30 2399 N 207.597 -5.41364 0.492584 0
M  V30 2400 H 211.399 -2.85213 0.709279 0
M  V30 2401 H 208.913 -1.54869 0.488822 0
M  V30 2402 H 210.91 -3.87736 -1.53188 0
M  V30 2403 H 209.57 -2.7244 -1.76654 0
M  V30 2404 H 210.581 -5.06115 1.09855 0
M  V30 2405 H 207.258 -3.98449 -1.24679 0
M  V30 2406 H 208.648 -6.4214 1.97751 0
M  V30 2407 N 211.368 -0.403325 -1.52352 0
M  V30 2408 C 212.278 0.432009 -2.30588 0
M  V30 2409 C 213.294 1.05884 -1.38075 0
M  V30 2410 O 214.47 1.06161 -1.71148 0
M  V30 2411 C 211.535 1.53669 -3.10784 0
M  V30 2412 C 210.596 0.933525 -4.19027 0
M  V30 2413 C 209.829 1.98557 -4.9539 0
M  V30 2414 O 210.052 3.20283 -4.71991 0
M  V30 2415 O 208.986 1.59504 -5.80381 0
M  V30 2416 H 212.812 -0.205739 -3.03002 0
M  V30 2417 H 210.397 -0.166675 -1.48467 0
M  V30 2418 H 212.279 2.17814 -3.60742 0
M  V30 2419 H 210.954 2.15915 -2.41169 0
M  V30 2420 H 209.861 0.254954 -3.7323 0
M  V30 2421 H 211.194 0.35508 -4.90918 0
M  V30 2422 N 212.846 1.57033 -0.133567 0
M  V30 2423 C 214.092 1.95976 0.521649 0
M  V30 2424 C 214.425 1.01779 1.65393 0
M  V30 2425 O 213.7 0.0576581 1.94415 0
M  V30 2426 C 213.983 3.44738 1.04057 0
M  V30 2427 C 213.836 4.49711 -0.0892897 0
M  V30 2428 C 215.155 3.95682 1.92675 0
M  V30 2429 H 212.274 0.712579 0.188149 0
M  V30 2430 H 214.916 1.88813 -0.212076 0
M  V30 2431 H 213.066 3.50973 1.66583 0
M  V30 2432 H 214.738 4.55565 -0.725152 0
M  V30 2433 H 212.981 4.27261 -0.750378 0
M  V30 2434 H 213.652 5.51099 0.315284 0
M  V30 2435 H 216.128 3.91841 1.39998 0
M  V30 2436 H 215.004 5.00262 2.25897 0
M  V30 2437 H 215.265 3.37239 2.85872 0
M  V30 2438 N 214.325 -0.140222 1.56975 0
M  V30 2439 C 215.573 -0.850005 1.83356 0
M  V30 2440 C 215.894 -1.81399 0.71551 0
M  V30 2441 O 215.164 -1.94136 -0.262294 0
M  V30 2442 H 213.744 -0.316886 0.676456 0
M  V30 2443 H 216.406 -0.132608 1.94448 0
M  V30 2444 H 215.502 -1.40814 2.78528 0
M  V30 2445 N 215.803 -1.52179 -0.40978 0
M  V30 2446 C 217.049 -1.67408 -1.15525 0
M  V30 2447 C 217.404 -0.398746 -1.88223 0
M  V30 2448 O 216.697 0.60678 -1.81738 0
M  V30 2449 C 216.891 -2.83428 -2.17723 0
M  V30 2450 C 216.72 -4.22121 -1.55061 0
M  V30 2451 C 215.49 -4.87657 -1.3236 0
M  V30 2452 C 217.688 -5.04248 -1.01185 0
M  V30 2453 N 215.67 -6.10387 -0.655834 0
M  V30 2454 C 217.041 -6.18209 -0.470963 0
M  V30 2455 C 219.096 -4.89583 -0.906252 0
M  V30 2456 C 217.799 -7.1911 0.165172 0
M  V30 2457 C 219.825 -5.90718 -0.28397 0
M  V30 2458 C 219.187 -7.03969 0.246243 0
M  V30 2459 H 215.286 -0.666251 -0.409431 0
M  V30 2460 H 217.87 -1.89482 -0.447729 0
M  V30 2461 H 216.041 -2.6297 -2.85834 0
M  V30 2462 H 217.773 -2.87697 -2.84627 0
M  V30 2463 H 214.528 -4.46007 -1.59294 0
M  V30 2464 H 214.952 -6.76153 -0.338596 0
M  V30 2465 H 219.594 -4.02253 -1.302 0
M  V30 2466 H 217.312 -8.06066 0.572986 0
M  V30 2467 H 220.898 -5.81443 -0.203792 0
M  V30 2468 H 219.778 -7.80886 0.720173 0
M  V30 2469 N 217.281 0.66697 -1.42791 0
M  V30 2470 C 218.228 1.7803 -1.4688 0
M  V30 2471 C 219.198 1.6299 -0.319919 0
M  V30 2472 O 220.383 1.83432 -0.525118 0
M  V30 2473 C 217.523 3.1611 -1.38451 0
M  V30 2474 C 216.636 3.42381 -2.63437 0
M  V30 2475 C 215.771 4.70232 -2.47094 0
M  V30 2476 C 214.81 4.89564 -3.67415 0
M  V30 2477 N 213.947 6.08661 -3.49966 0
M  V30 2478 H 218.787 1.7387 -2.42019 0
M  V30 2479 H 216.324 0.84868 -1.20149 0
M  V30 2480 H 218.282 3.95914 -1.31561 0
M  V30 2481 H 216.912 3.19374 -0.469033 0
M  V30 2482 H 215.964 2.56774 -2.80662 0
M  V30 2483 H 217.276 3.52557 -3.52853 0
M  V30 2484 H 216.43 5.5814 -2.37834 0
M  V30 2485 H 215.169 4.62353 -1.5518 0
M  V30 2486 H 214.174 4.00096 -3.77099 0
M  V30 2487 H 215.399 4.99282 -4.6032 0
M  V30 2488 H 213.345 6.0194 -2.60776 0
M  V30 2489 H 213.262 6.19733 -4.32975 0
M  V30 2490 H 214.53 6.99226 -3.44532 0
M  V30 2491 N 218.759 1.29093 0.90403 0
M  V30 2492 C 219.989 1.19516 1.68522 0
M  V30 2493 C 220.397 -0.24738 1.87576 0
M  V30 2494 O 219.74 -1.17798 1.40959 0
M  V30 2495 C 219.802 1.83249 3.0929 0
M  V30 2496 C 219.466 3.32531 3.13484 0
M  V30 2497 C 220.463 4.28821 2.93953 0
M  V30 2498 C 218.148 3.73656 3.35688 0
M  V30 2499 C 220.142 5.64212 2.96553 0
M  V30 2500 C 217.829 5.0917 3.37919 0
M  V30 2501 C 218.827 6.04258 3.18373 0
M  V30 2502 O 218.515 7.37298 3.20385 0
M  V30 2503 H 218.247 0.415467 0.533257 0
M  V30 2504 H 220.801 1.70912 1.13922 0
M  V30 2505 H 219.031 1.26358 3.65473 0
M  V30 2506 H 220.72 1.68054 3.69476 0
M  V30 2507 H 221.486 3.98382 2.76616 0
M  V30 2508 H 217.365 3.00101 3.49943 0
M  V30 2509 H 220.909 6.38407 2.81216 0
M  V30 2510 H 216.806 5.39256 3.54787 0
M  V30 2511 H 217.574 7.46048 3.36681 0
M  V30 2512 N 220.237 -1.11381 1.11499 0
M  V30 2513 C 221.169 -2.17207 0.731704 0
M  V30 2514 C 222.182 -1.61066 -0.236957 0
M  V30 2515 O 223.371 -1.78489 -0.0197591 0
M  V30 2516 C 220.471 -3.38846 0.0607624 0
M  V30 2517 C 219.644 -4.24451 1.0564 0
M  V30 2518 C 218.703 -5.24562 0.4149 0
M  V30 2519 O 217.729 -5.59071 1.069 0
M  V30 2520 N 218.931 -5.74651 -0.821943 0
M  V30 2521 H 221.696 -2.50699 1.64225 0
M  V30 2522 H 219.257 -1.26908 1.00529 0
M  V30 2523 H 221.249 -4.02911 -0.380139 0
M  V30 2524 H 219.819 -3.03411 -0.752376 0
M  V30 2525 H 219.039 -3.56833 1.67524 0
M  V30 2526 H 220.327 -4.78486 1.72998 0
M  V30 2527 H 219.725 -5.48797 -1.37252 0
M  V30 2528 H 218.282 -6.40549 -1.20582 0
M  V30 2529 N 221.715 -0.905404 -1.28997 0
M  V30 2530 C 222.678 -0.392253 -2.25819 0
M  V30 2531 C 223.678 0.476753 -1.5357 0
M  V30 2532 O 224.868 0.280994 -1.71919 0
M  V30 2533 C 222 0.438588 -3.38067 0
M  V30 2534 H 223.193 -1.24743 -2.72725 0
M  V30 2535 H 220.746 -0.684051 -1.40536 0
M  V30 2536 H 221.481 1.31352 -2.96508 0
M  V30 2537 H 221.266 -0.184167 -3.91667 0
M  V30 2538 H 222.756 0.78873 -4.10084 0
M  V30 2539 N 223.193 1.4272 -0.668489 0
M  V30 2540 C 224.439 2.01923 -0.188419 0
M  V30 2541 C 224.772 1.52704 1.19979 0
M  V30 2542 O 224.047 0.726566 1.8042 0
M  V30 2543 C 224.33 3.59451 -0.216085 0
M  V30 2544 C 224.183 4.18864 -1.6393 0
M  V30 2545 C 225.502 4.37903 0.439179 0
M  V30 2546 H 222.621 0.733674 -0.0699412 0
M  V30 2547 H 225.263 1.69822 -0.852076 0
M  V30 2548 H 223.413 3.86929 0.349012 0
M  V30 2549 H 225.085 4.02362 -2.25616 0
M  V30 2550 H 223.328 3.74933 -2.18193 0
M  V30 2551 H 223.999 5.27987 -1.61039 0
M  V30 2552 H 226.475 4.16079 -0.0417878 0
M  V30 2553 H 225.351 5.47519 0.389157 0
M  V30 2554 H 225.612 4.15303 1.51577 0
M  V30 2555 N 224.671 0.411399 1.52136 0
M  V30 2556 C 225.899 -0.163076 2.06256 0
M  V30 2557 C 226.314 -1.3867 1.28125 0
M  V30 2558 O 225.671 -1.79423 0.333721 0
M  V30 2559 C 225.722 -0.511252 3.57867 0
M  V30 2560 O 225.443 0.66378 4.33042 0
M  V30 2561 C 226.944 -1.13921 4.28412 0
M  V30 2562 H 224.164 -0.0193897 0.67072 0
M  V30 2563 H 226.708 0.583007 1.96013 0
M  V30 2564 H 224.863 -1.20723 3.6811 0
M  V30 2565 H 225.277 0.372601 5.23175 0
M  V30 2566 H 226.751 -1.33302 5.35663 0
M  V30 2567 H 227.228 -2.11296 3.85033 0
M  V30 2568 H 227.834 -0.483373 4.22544 0
M  V30 2569 N 226.149 -1.5696 0.141893 0
M  V30 2570 C 227.112 -2.15316 -0.785587 0
M  V30 2571 C 228.112 -1.09366 -1.1788 0
M  V30 2572 O 229.302 -1.35031 -1.10056 0
M  V30 2573 C 226.434 -2.71211 -2.06537 0
M  V30 2574 H 227.627 -2.98608 -0.278041 0
M  V30 2575 H 225.18 -1.5593 -0.107519 0
M  V30 2576 H 225.915 -1.91571 -2.6167 0
M  V30 2577 H 225.7 -3.4872 -1.79268 0
M  V30 2578 H 227.19 -3.16189 -2.72789 0
M  V30 2579 N 227.627 0.131896 -1.57047 0
M  V30 2580 C 228.855 0.856461 -1.88341 0
M  V30 2581 C 229.27 1.74042 -0.731757 0
M  V30 2582 O 228.627 1.80051 0.297945 0
M  V30 2583 C 228.678 1.70064 -3.18999 0
M  V30 2584 O 228.399 0.852278 -4.2973 0
M  V30 2585 C 229.9 2.53148 -3.63911 0
M  V30 2586 H 227.12 0.246885 -0.62393 0
M  V30 2587 H 229.664 0.120152 -2.04147 0
M  V30 2588 H 227.819 2.38984 -3.04902 0
M  V30 2589 H 228.233 1.43329 -5.04537 0
M  V30 2590 H 229.707 3.07931 -4.58129 0
M  V30 2591 H 230.184 3.29901 -2.89935 0
M  V30 2592 H 230.79 1.89492 -3.80753 0
M  V30 2593 N 229.106 1.52395 0.401703 0
M  V30 2594 C 230.036 1.79231 1.49661 0
M  V30 2595 C 231.017 0.643654 1.57452 0
M  V30 2596 O 232.202 0.889989 1.72606 0
M  V30 2597 C 229.332 1.94971 2.87409 0
M  V30 2598 C 228.286 3.10604 2.94465 0
M  V30 2599 C 227.612 3.11577 4.34538 0
M  V30 2600 C 228.912 4.49921 2.6527 0
M  V30 2601 H 230.606 2.70917 1.27454 0
M  V30 2602 H 228.152 1.30362 0.6117 0
M  V30 2603 H 230.105 2.12328 3.63999 0
M  V30 2604 H 228.829 0.999632 3.10926 0
M  V30 2605 H 227.488 2.93009 2.20321 0
M  V30 2606 H 227.136 2.14277 4.55076 0
M  V30 2607 H 226.836 3.89247 4.40183 0
M  V30 2608 H 228.36 3.31073 5.13053 0
M  V30 2609 H 229.774 4.67683 3.31581 0
M  V30 2610 H 228.171 5.29564 2.82281 0
M  V30 2611 H 229.241 4.57507 1.60671 0
M  V30 2612 N 230.584 -0.659388 1.43143 0
M  V30 2613 C 231.494 -1.80167 1.50256 0
M  V30 2614 C 232.51 -1.69571 0.390106 0
M  V30 2615 O 233.686 -1.90849 0.643319 0
M  V30 2616 C 230.751 -3.16409 1.41725 0
M  V30 2617 C 229.812 -3.38848 2.63591 0
M  V30 2618 C 229.045 -4.68591 2.55458 0
M  V30 2619 O 229.268 -5.47532 1.59891 0
M  V30 2620 O 228.202 -4.92614 3.45854 0
M  V30 2621 H 232.028 -1.77121 2.46702 0
M  V30 2622 H 229.613 -0.817092 1.25076 0
M  V30 2623 H 231.495 -3.9768 1.39387 0
M  V30 2624 H 230.17 -3.20059 0.484118 0
M  V30 2625 H 229.077 -2.57366 2.71502 0
M  V30 2626 H 230.41 -3.4004 3.55856 0
M  V30 2627 N 232.062 -1.29571 -0.897171 0
M  V30 2628 C 232.972 -1.16808 -2.03453 0
M  V30 2629 C 233.988 -0.0907471 -1.73763 0
M  V30 2630 O 235.164 -0.303312 -1.99103 0
M  V30 2631 C 232.229 -0.848264 -3.36163 0
M  V30 2632 C 231.29 -2.0097 -3.79354 0
M  V30 2633 C 230.523 -1.70505 -5.05731 0
M  V30 2634 O 230.746 -0.62718 -5.66941 0
M  V30 2635 O 229.68 -2.5538 -5.45036 0
M  V30 2636 H 233.506 -2.12325 -2.17144 0
M  V30 2637 H 231.091 -1.09047 -1.02123 0
M  V30 2638 H 232.973 -0.684581 -4.15802 0
M  V30 2639 H 231.648 0.0771071 -3.23608 0
M  V30 2640 H 230.555 -2.22863 -3.00471 0
M  V30 2641 H 231.888 -2.91636 -3.96496 0
M  V30 2642 N 233.54 1.10788 -1.12088 0
M  V30 2643 C 234.487 2.17025 -0.785407 0
M  V30 2644 C 235.457 1.64265 0.246191 0
M  V30 2645 O 236.642 1.90412 0.121584 0
M  V30 2646 C 233.782 3.44249 -0.242177 0
M  V30 2647 C 232.895 4.1098 -1.33115 0
M  V30 2648 C 232.03 5.25911 -0.747741 0
M  V30 2649 C 231.069 5.84538 -1.81609 0
M  V30 2650 N 230.206 6.90853 -1.25167 0
M  V30 2651 H 235.046 2.45066 -1.69548 0
M  V30 2652 H 232.583 1.20297 -0.846582 0
M  V30 2653 H 234.541 4.17101 0.0908026 0
M  V30 2654 H 233.171 3.16571 0.631072 0
M  V30 2655 H 232.223 3.36133 -1.78097 0
M  V30 2656 H 233.535 4.50601 -2.13917 0
M  V30 2657 H 232.689 6.056 -0.365216 0
M  V30 2658 H 231.428 4.87614 0.0915188 0
M  V30 2659 H 230.433 5.03522 -2.20785 0
M  V30 2660 H 231.658 6.249 -2.6585 0
M  V30 2661 H 229.604 6.54562 -0.434174 0
M  V30 2662 H 229.521 7.29166 -1.99633 0
M  V30 2663 H 230.789 7.7433 -0.896259 0
M  V30 2664 N 235.018 0.912232 1.28515 0
M  V30 2665 C 236.434 0.610159 1.47476 0
M  V30 2666 C 236.634 -0.844955 1.82928 0
M  V30 2667 O 235.69 -1.62416 1.93332 0
M  V30 2668 C 237.003 1.54675 2.57868 0
M  V30 2669 C 238.551 1.55331 2.71738 0
M  V30 2670 C 239.026 2.47649 3.85272 0
M  V30 2671 N 240.517 2.45767 3.92623 0
M  V30 2672 C 241.252 3.13896 4.79851 0
M  V30 2673 N 240.748 3.9135 5.71679 0
M  V30 2674 N 242.541 3.02991 4.73448 0
M  V30 2675 H 234.692 1.85318 1.03783 0
M  V30 2676 H 236.955 0.794777 0.516753 0
M  V30 2677 H 236.661 2.5841 2.38574 0
M  V30 2678 H 236.535 1.27671 3.54937 0
M  V30 2679 H 238.922 0.52335 2.90422 0
M  V30 2680 H 239.003 1.86378 1.75205 0
M  V30 2681 H 238.647 3.50745 3.67342 0
M  V30 2682 H 238.577 2.13904 4.81199 0
M  V30 2683 H 241.068 1.89503 3.26951 0
M  V30 2684 H 241.381 4.40359 6.35062 0
M  V30 2685 H 239.726 3.95455 5.71524 0
M  V30 2686 H 242.917 2.41987 4.007 0
M  V30 2687 H 243.09 3.5636 5.41213 0
M  V30 2688 N 236.496 -1.42363 0.676048 0
M  V30 2689 C 237.443 -2.308 -0.00150904 0
M  V30 2690 C 238.413 -1.46032 -0.791444 0
M  V30 2691 O 239.598 -1.74861 -0.76344 0
M  V30 2692 C 236.738 -3.31883 -0.945919 0
M  V30 2693 C 235.851 -4.31741 -0.149675 0
M  V30 2694 C 234.986 -5.19898 -1.08995 0
M  V30 2695 C 234.025 -6.11434 -0.285465 0
M  V30 2696 N 233.162 -6.92138 -1.17851 0
M  V30 2697 H 238.002 -2.88187 0.758455 0
M  V30 2698 H 235.539 -1.41952 0.38576 0
M  V30 2699 H 237.497 -3.89019 -1.50731 0
M  V30 2700 H 236.127 -2.76093 -1.6725 0
M  V30 2701 H 235.179 -3.76713 0.528359 0
M  V30 2702 H 236.491 -4.96534 0.474866 0
M  V30 2703 H 235.645 -5.81772 -1.72123 0
M  V30 2704 H 234.384 -4.55284 -1.74837 0
M  V30 2705 H 233.389 -5.48627 0.359018 0
M  V30 2706 H 234.614 -6.78097 0.368883 0
M  V30 2707 H 232.56 -6.30152 -1.82332 0
M  V30 2708 H 232.477 -7.53542 -0.609082 0
M  V30 2709 H 233.745 -7.58499 -1.79722 0
M  V30 2710 N 237.974 -0.419461 -1.51915 0
M  V30 2711 C 238.884 0.407528 -2.31033 0
M  V30 2712 C 239.9 1.04413 -1.3919 0
M  V30 2713 O 241.076 1.0434 -1.72265 0
M  V30 2714 C 238.141 1.50365 -3.12396 0
M  V30 2715 C 237.202 0.889029 -4.19994 0
M  V30 2716 C 236.435 1.93291 -4.97468 0
M  V30 2717 O 236.658 3.15259 -4.75361 0
M  V30 2718 O 235.592 1.53339 -5.8204 0
M  V30 2719 H 239.418 -0.237865 -3.02767 0
M  V30 2720 H 237.003 -0.182413 -1.48282 0
M  V30 2721 H 238.885 2.13975 -3.63032 0
M  V30 2722 H 237.56 2.13345 -2.43445 0
M  V30 2723 H 236.467 0.215353 -3.7348 0
M  V30 2724 H 237.8 0.302991 -4.91267 0
M  V30 2725 N 239.452 1.56882 -0.150215 0
M  V30 2726 C 240.399 2.16922 0.788244 0
M  V30 2727 C 241.369 1.10303 1.24187 0
M  V30 2728 O 242.554 1.38359 1.31383 0
M  V30 2729 C 239.694 2.79754 2.02068 0
M  V30 2730 C 238.807 4.00775 1.61257 0
M  V30 2731 C 237.942 4.51595 2.79705 0
M  V30 2732 C 236.981 5.65074 2.35282 0
M  V30 2733 N 236.118 6.10499 3.4675 0
M  V30 2734 H 240.958 2.96779 0.269444 0
M  V30 2735 H 238.495 1.46599 0.12128 0
M  V30 2736 H 240.453 3.14329 2.74323 0
M  V30 2737 H 239.083 2.02536 2.51354 0
M  V30 2738 H 238.135 3.72158 0.787553 0
M  V30 2739 H 239.447 4.82978 1.24633 0
M  V30 2740 H 238.601 4.88242 3.60145 0
M  V30 2741 H 237.34 3.68406 3.19576 0
M  V30 2742 H 236.345 5.28 1.53283 0
M  V30 2743 H 237.57 6.50052 1.96493 0
M  V30 2744 H 235.516 5.30243 3.86236 0
M  V30 2745 H 235.433 6.87637 3.14152 0
M  V30 2746 H 236.701 6.51791 4.27537 0
M  V30 2747 N 240.93 -0.123565 1.57115 0
M  V30 2748 C 241.893 -1.13583 1.99076 0
M  V30 2749 C 242.893 -1.34564 0.880296 0
M  V30 2750 O 244.083 -1.31158 1.14644 0
M  V30 2751 C 241.215 -2.49128 2.32698 0
M  V30 2752 H 242.408 -0.775287 2.89706 0
M  V30 2753 H 239.961 -0.36771 1.51913 0
M  V30 2754 H 240.696 -2.90111 1.44934 0
M  V30 2755 H 240.481 -2.35255 3.13684 0
M  V30 2756 H 241.971 -3.2199 2.65918 0
M  V30 2757 N 242.408 -1.52605 -0.393616 0
M  V30 2758 C 243.355 -1.77055 -1.48054 0
M  V30 2759 C 244.325 -0.61358 -1.54352 0
M  V30 2760 O 245.51 -0.852806 -1.70681 0
M  V30 2761 C 242.65 -1.94108 -2.85335 0
M  V30 2762 C 241.763 -3.21792 -2.88226 0
M  V30 2763 C 240.898 -3.29188 -4.16904 0
M  V30 2764 C 239.937 -4.51013 -4.13828 0
M  V30 2765 N 239.074 -4.55716 -5.34105 0
M  V30 2766 H 243.914 -2.69815 -1.26506 0
M  V30 2767 H 241.451 -1.33683 -0.61379 0
M  V30 2768 H 243.409 -2.01979 -3.65049 0
M  V30 2769 H 242.039 -1.04713 -3.05344 0
M  V30 2770 H 241.091 -3.23015 -2.00911 0
M  V30 2771 H 242.403 -4.11557 -2.8182 0
M  V30 2772 H 241.557 -3.36216 -5.05018 0
M  V30 2773 H 240.296 -2.37389 -4.26026 0
M  V30 2774 H 239.301 -4.44115 -3.24102 0
M  V30 2775 H 240.526 -5.44123 -4.06333 0
M  V30 2776 H 238.472 -3.66807 -5.43865 0
M  V30 2777 H 238.389 -5.39346 -5.29756 0
M  V30 2778 H 239.657 -4.66993 -6.2413 0
M  V30 2779 N 243.887 0.651787 -1.4349 0
M  V30 2780 C 245.136 1.40754 -1.44469 0
M  V30 2781 C 245.449 1.95463 -0.0731845 0
M  V30 2782 O 246.655 2.71471 0.0395721 0
M  V30 2783 C 245.111 2.54735 -2.5424 0
M  V30 2784 C 244.719 2.06628 -3.97504 0
M  V30 2785 C 246.463 3.32092 -2.64414 0
M  V30 2786 C 244.37 3.17829 -4.98737 0
M  V30 2787 H 243.3 0.528862 -0.53742 0
M  V30 2788 H 245.951 0.703365 -1.69485 0
M  V30 2789 H 244.333 3.2763 -2.22428 0
M  V30 2790 H 245.507 1.40734 -4.38783 0
M  V30 2791 H 243.822 1.42146 -3.91387 0
M  V30 2792 H 246.419 4.14952 -3.37223 0
M  V30 2793 H 246.762 3.80217 -1.69532 0
M  V30 2794 H 247.295 2.66279 -2.95534 0
M  V30 2795 H 244.034 2.74671 -5.95177 0
M  V30 2796 H 243.554 3.82429 -4.62069 0
M  V30 2797 H 245.233 3.82937 -5.21505 0
M  V30 2798 N 245.365 1.30045 0.890287 0
M  V30 2799 C 246.315 1.12592 1.9826 0
M  V30 2800 C 247.299 0.0426021 1.60844 0
M  V30 2801 O 248.491 0.265346 1.75 0
M  V30 2802 C 245.62 0.814301 3.33503 0
M  V30 2803 C 244.706 1.93761 3.7725 0
M  V30 2804 N 245.097 3.18232 3.93143 0
M  V30 2805 C 243.395 1.83277 4.06602 0
M  V30 2806 C 244.096 3.9158 4.30163 0
M  V30 2807 N 243.072 3.19591 4.3973 0
M  V30 2808 H 246.874 2.07003 2.08631 0
M  V30 2809 H 244.388 1.21307 1.07974 0
M  V30 2810 H 246.385 0.67029 4.11476 0
M  V30 2811 H 245.045 -0.121797 3.24471 0
M  V30 2812 H 246.056 3.53581 3.78419 0
M  V30 2813 H 242.733 0.97001 4.06075 0
M  V30 2814 H 244.123 4.98744 4.50226 0
M  V30 2815 N 246.843 -1.10192 1.12674 0
M  V30 2816 C 248.073 -1.85713 0.905213 0
M  V30 2817 C 248.481 -1.81056 -0.549108 0
M  V30 2818 O 247.824 -1.19927 -1.39151 0
M  V30 2819 C 247.886 -3.34972 1.30516 0
M  V30 2820 C 247.55 -3.63385 2.77129 0
M  V30 2821 C 248.547 -3.59772 3.75313 0
M  V30 2822 C 246.232 -3.91981 3.14096 0
M  V30 2823 C 248.226 -3.84354 5.08479 0
M  V30 2824 C 245.913 -4.16218 4.47443 0
M  V30 2825 C 246.911 -4.12395 5.44444 0
M  V30 2826 O 246.599 -4.36014 6.75387 0
M  V30 2827 H 246.331 -0.593719 0.323223 0
M  V30 2828 H 248.885 -1.40198 1.50112 0
M  V30 2829 H 247.115 -3.81156 0.652463 0
M  V30 2830 H 248.804 -3.91886 1.05736 0
M  V30 2831 H 249.57 -3.37716 3.48099 0
M  V30 2832 H 245.449 -3.94085 2.39202 0
M  V30 2833 H 248.993 -3.81285 5.84181 0
M  V30 2834 H 244.89 -4.37754 4.74386 0
M  V30 2835 H 245.658 -4.53516 6.8137 0
M  V30 2836 N 248.321 -0.919034 -1.28029 0
M  V30 2837 C 249.737 -0.617972 -1.4715 0
M  V30 2838 C 249.937 0.835242 -1.83374 0
M  V30 2839 O 248.993 1.61388 -1.94191 0
M  V30 2840 C 250.306 -1.56041 -2.57044 0
M  V30 2841 C 251.854 -1.56769 -2.7091 0
M  V30 2842 C 252.329 -2.49688 -3.83953 0
M  V30 2843 N 253.82 -2.47845 -3.91314 0
M  V30 2844 C 254.555 -3.16437 -4.78179 0
M  V30 2845 N 254.051 -3.94376 -5.69596 0
M  V30 2846 N 255.844 -3.05498 -4.71834 0
M  V30 2847 H 247.995 -1.85866 -1.02798 0
M  V30 2848 H 250.258 -0.797506 -0.512531 0
M  V30 2849 H 249.964 -2.59671 -2.372 0
M  V30 2850 H 249.838 -1.29551 -3.54255 0
M  V30 2851 H 252.225 -0.538745 -2.90141 0
M  V30 2852 H 252.306 -1.87305 -1.74214 0
M  V30 2853 H 251.95 -3.52688 -3.65477 0
M  V30 2854 H 251.88 -2.16453 -4.80058 0
M  V30 2855 H 254.371 -1.91234 -3.25941 0
M  V30 2856 H 254.684 -4.43721 -6.32718 0
M  V30 2857 H 253.029 -3.98481 -5.69419 0
M  V30 2858 H 256.22 -2.44108 -3.99411 0
M  V30 2859 H 256.393 -3.59225 -5.39316 0
M  V30 2860 N 249.799 1.42003 -0.683588 0
M  V30 2861 C 250.746 2.30798 -0.0107309 0
M  V30 2862 C 251.716 1.4645 0.783688 0
M  V30 2863 O 252.901 1.75263 0.754156 0
M  V30 2864 C 250.041 3.3238 0.928306 0
M  V30 2865 C 249.154 4.31814 0.126776 0
M  V30 2866 C 248.289 5.20468 1.06236 0
M  V30 2867 C 247.328 6.11577 0.253035 0
M  V30 2868 N 246.465 6.92754 1.14179 0
M  V30 2869 H 251.305 2.8778 -0.773727 0
M  V30 2870 H 248.842 1.41745 -0.393283 0
M  V30 2871 H 250.8 3.89813 1.48666 0
M  V30 2872 H 249.43 2.76976 1.65783 0
M  V30 2873 H 248.482 3.76427 -0.54833 0
M  V30 2874 H 249.794 4.96276 -0.501192 0
M  V30 2875 H 248.948 5.82677 1.69035 0
M  V30 2876 H 247.687 4.56204 1.7242 0
M  V30 2877 H 246.692 5.48428 -0.388108 0
M  V30 2878 H 247.917 6.77892 -0.404839 0
M  V30 2879 H 245.863 6.3111 1.78987 0
M  V30 2880 H 245.78 7.53855 0.569111 0
M  V30 2881 H 247.048 7.59441 1.75697 0
M  V30 2882 N 251.277 0.427512 1.51691 0
M  V30 2883 C 252.224 -0.388867 2.275 0
M  V30 2884 C 253.194 -1.02532 1.30677 0
M  V30 2885 O 254.379 -1.0461 1.59566 0
M  V30 2886 C 251.519 -1.48954 3.11298 0
M  V30 2887 C 250.632 -0.872194 4.23104 0
M  V30 2888 C 249.767 -1.94709 4.94228 0
M  V30 2889 C 248.806 -1.30766 5.97969 0
M  V30 2890 N 247.943 -2.32349 6.62539 0
M  V30 2891 H 252.783 0.263997 2.96828 0
M  V30 2892 H 250.32 0.142033 1.46413 0
M  V30 2893 H 252.278 -2.13887 3.58201 0
M  V30 2894 H 250.908 -2.11217 2.44105 0
M  V30 2895 H 249.96 -0.111419 3.80237 0
M  V30 2896 H 251.272 -0.365264 4.97461 0
M  V30 2897 H 250.426 -2.67327 5.44629 0
M  V30 2898 H 249.165 -2.48773 4.1948 0
M  V30 2899 H 248.17 -0.566902 5.4687 0
M  V30 2900 H 249.395 -0.774483 6.74669 0
M  V30 2901 H 247.341 -2.85511 5.90609 0
M  V30 2902 H 247.258 -1.8652 7.3263 0
M  V30 2903 H 248.526 -3.04481 7.17574 0
M  V30 2904 N 252.755 -1.56801 0.158532 0
M  V30 2905 C 253.702 -2.17337 -0.776729 0
M  V30 2906 C 254.672 -1.1096 -1.23601 0
M  V30 2907 O 255.857 -1.39054 -1.30647 0
M  V30 2908 C 252.997 -2.80822 -2.00582 0
M  V30 2909 C 252.11 -4.01624 -1.59129 0
M  V30 2910 C 251.245 -4.53072 -2.77306 0
M  V30 2911 C 250.284 -5.66314 -2.32282 0
M  V30 2912 N 249.421 -6.12329 -3.43508 0
M  V30 2913 H 254.261 -2.96918 -0.253701 0
M  V30 2914 H 251.798 -1.46661 -0.113504 0
M  V30 2915 H 253.756 -3.15779 -2.72652 0
M  V30 2916 H 252.386 -2.03866 -2.50277 0
M  V30 2917 H 251.438 -3.72571 -0.767806 0
M  V30 2918 H 252.75 -4.83633 -1.2207 0
M  V30 2919 H 251.904 -4.90145 -3.57551 0
M  V30 2920 H 250.643 -3.70095 -3.17617 0
M  V30 2921 H 249.648 -5.28806 -1.5048 0
M  V30 2922 H 250.873 -6.51085 -1.93043 0
M  V30 2923 H 248.819 -5.32284 -3.83418 0
M  V30 2924 H 248.736 -6.89293 -3.105 0
M  V30 2925 H 250.004 -6.5405 -4.24075 0
M  V30 2926 N 254.233 0.115231 -1.57178 0
M  V30 2927 C 255.165 1.16694 -1.97269 0
M  V30 2928 C 256.178 1.37445 -0.872502 0
M  V30 2929 O 257.367 1.36454 -1.15077 0
M  V30 2930 C 254.467 2.52627 -2.25905 0
M  V30 2931 C 253.64 2.52427 -3.57211 0
M  V30 2932 C 252.699 3.70134 -3.74016 0
M  V30 2933 O 251.725 3.53546 -4.46087 0
M  V30 2934 N 252.927 4.88844 -3.13068 0
M  V30 2935 H 255.692 0.82588 -2.88096 0
M  V30 2936 H 253.253 0.304461 -1.59011 0
M  V30 2937 H 255.245 3.29937 -2.34359 0
M  V30 2938 H 253.815 2.789 -1.41186 0
M  V30 2939 H 253.035 1.60805 -3.5991 0
M  V30 2940 H 254.323 2.49353 -4.43509 0
M  V30 2941 H 253.721 5.05225 -2.54489 0
M  V30 2942 H 252.278 5.63817 -3.27037 0
M  V30 2943 N 255.711 1.52812 0.385517 0
M  V30 2944 C 256.641 1.80808 1.47752 0
M  V30 2945 C 257.622 0.660318 1.5676 0
M  V30 2946 O 258.807 0.908246 1.71652 0
M  V30 2947 C 255.937 1.98008 2.85324 0
M  V30 2948 C 254.891 3.13709 2.91154 0
M  V30 2949 C 254.217 3.16169 4.31209 0
M  V30 2950 C 255.517 4.52709 2.60483 0
M  V30 2951 H 257.211 2.72253 1.24573 0
M  V30 2952 H 254.757 1.31003 0.597839 0
M  V30 2953 H 256.71 2.16176 3.61726 0
M  V30 2954 H 255.434 1.03255 3.09848 0
M  V30 2955 H 254.093 2.95329 2.17201 0
M  V30 2956 H 253.741 2.19092 4.52778 0
M  V30 2957 H 253.441 3.93894 4.36029 0
M  V30 2958 H 254.965 3.36496 5.09512 0
M  V30 2959 H 256.379 4.71173 3.26602 0
M  V30 2960 H 254.776 5.32528 2.76648 0
M  V30 2961 H 255.846 4.59186 1.55809 0
M  V30 2962 N 257.189 -0.644168 1.43834 0
M  V30 2963 C 258.122 -1.76906 1.44151 0
M  V30 2964 C 259.1 -1.59774 0.301857 0
M  V30 2965 O 260.284 -1.81834 0.496841 0
M  V30 2966 C 257.411 -3.14321 1.26174 0
M  V30 2967 C 256.457 -3.50134 2.43533 0
M  V30 2968 S 257.29 -3.49085 4.06079 0
M  V30 2969 C 258.446 -4.89142 3.90501 0
M  V30 2970 H 258.679 -1.76368 2.39336 0
M  V30 2971 H 256.212 -0.817624 1.30974 0
M  V30 2972 H 258.17 -3.93625 1.16489 0
M  V30 2973 H 256.831 -3.12412 0.325224 0
M  V30 2974 H 256.024 -4.50095 2.26783 0
M  V30 2975 H 255.626 -2.78264 2.4989 0
M  V30 2976 H 257.918 -5.78036 3.53385 0
M  V30 2977 H 258.861 -5.10945 4.90246 0
M  V30 2978 H 259.269 -4.63102 3.22795 0
M  V30 2979 N 258.668 -1.30515 -0.883378 0
M  V30 2980 C 260.084 -1.08881 -1.16692 0
M  V30 2981 C 260.284 0.149409 -2.00945 0
M  V30 2982 O 259.34 0.84257 -2.38027 0
M  V30 2983 C 260.653 -2.35319 -1.87204 0
M  V30 2984 C 262.201 -2.40799 -1.99962 0
M  V30 2985 C 262.676 -3.67083 -2.73887 0
M  V30 2986 N 264.167 -3.679 -2.81432 0
M  V30 2987 C 264.902 -4.62303 -3.3921 0
M  V30 2988 N 264.398 -5.67052 -3.98025 0
M  V30 2989 N 266.191 -4.49845 -3.3704 0
M  V30 2990 H 258.342 -2.09951 -0.321633 0
M  V30 2991 H 260.605 -0.92556 -0.205043 0
M  V30 2992 H 260.311 -3.25689 -1.3274 0
M  V30 2993 H 260.185 -2.44089 -2.87577 0
M  V30 2994 H 262.572 -1.50907 -2.53597 0
M  V30 2995 H 262.653 -2.36003 -0.98673 0
M  V30 2996 H 262.297 -4.57334 -2.20925 0
M  V30 2997 H 262.227 -3.69141 -3.75556 0
M  V30 2998 H 264.718 -2.92171 -2.39676 0
M  V30 2999 H 265.031 -6.35184 -4.40183 0
M  V30 3000 H 263.376 -5.70842 -3.96439 0
M  V30 3001 H 266.567 -3.67194 -2.90321 0
M  V30 3002 H 266.74 -5.23597 -3.81772 0
M  V30 3003 N 260.146 1.09593 -1.13257 0
M  V30 3004 C 261.076 2.18214 -0.830946 0
M  V30 3005 C 262.057 1.68812 0.208966 0
M  V30 3006 O 263.242 1.9408 0.0682666 0
M  V30 3007 C 260.372 3.46051 -0.294296 0
M  V30 3008 C 259.326 4.08778 -1.26826 0
M  V30 3009 C 258.652 5.31419 -0.591449 0
M  V30 3010 C 259.952 4.51476 -2.62615 0
M  V30 3011 H 261.646 2.43703 -1.73923 0
M  V30 3012 H 259.192 1.17128 -0.837675 0
M  V30 3013 H 261.145 4.2134 -0.0709606 0
M  V30 3014 H 259.869 3.20079 0.649366 0
M  V30 3015 H 258.528 3.35505 -1.47756 0
M  V30 3016 H 258.176 5.01727 0.357633 0
M  V30 3017 H 257.876 5.74341 -1.24123 0
M  V30 3018 H 259.4 6.09433 -0.377355 0
M  V30 3019 H 260.814 5.17999 -2.45663 0
M  V30 3020 H 259.211 5.05277 -3.23752 0
M  V30 3021 H 260.281 3.63962 -3.20406 0
M  V30 3022 N 261.624 0.925811 1.2754 0
M  V30 3023 C 263.04 0.625767 1.46821 0
M  V30 3024 C 263.24 -0.825506 1.83814 0
M  V30 3025 O 262.296 -1.60356 1.95044 0
M  V30 3026 C 263.609 1.57402 2.56213 0
M  V30 3027 C 265.157 1.58204 2.70075 0
M  V30 3028 C 265.632 2.51721 3.82623 0
M  V30 3029 N 267.123 2.49917 3.89994 0
M  V30 3030 C 267.858 3.18968 4.76494 0
M  V30 3031 N 267.354 3.97391 5.67496 0
M  V30 3032 N 269.147 3.07996 4.70208 0
M  V30 3033 H 261.298 1.86409 1.01811 0
M  V30 3034 H 263.561 0.800213 0.508295 0
M  V30 3035 H 263.267 2.60925 2.35819 0
M  V30 3036 H 263.141 1.31428 3.53563 0
M  V30 3037 H 265.528 0.554124 2.89851 0
M  V30 3038 H 265.609 1.88226 1.73218 0
M  V30 3039 H 265.253 3.54622 3.63601 0
M  V30 3040 H 265.183 2.18996 4.78903 0
M  V30 3041 H 267.674 1.9296 3.24923 0
M  V30 3042 H 267.987 4.4707 6.30356 0
M  V30 3043 H 266.332 4.01495 5.67298 0
M  V30 3044 H 269.523 2.46223 3.9811 0
M  V30 3045 H 269.696 3.6208 5.37403 0
M  V30 3046 N 263.102 -1.41638 0.69111 0
M  V30 3047 C 264.049 -2.30789 0.0229705 0
M  V30 3048 C 265.019 -1.46863 -0.775911 0
M  V30 3049 O 266.204 -1.75661 -0.74485 0
M  V30 3050 C 263.344 -3.32868 -0.910666 0
M  V30 3051 C 262.457 -4.31875 -0.103874 0
M  V30 3052 C 261.592 -5.21024 -1.03475 0
M  V30 3053 C 260.631 -6.11702 -0.220598 0
M  V30 3054 N 259.768 -6.93349 -1.10504 0
M  V30 3055 H 264.608 -2.87366 0.788978 0
M  V30 3056 H 262.145 -1.41535 0.400794 0
M  V30 3057 H 264.103 -3.90596 -1.46597 0
M  V30 3058 H 262.733 -2.77851 -1.64312 0
M  V30 3059 H 261.785 -3.76131 0.568285 0
M  V30 3060 H 263.097 -4.96003 0.527504 0
M  V30 3061 H 262.251 -5.83565 -1.65943 0
M  V30 3062 H 260.99 -4.57112 -1.69999 0
M  V30 3063 H 259.995 -5.48215 0.417187 0
M  V30 3064 H 261.22 -6.77668 0.440784 0
M  V30 3065 H 259.166 -6.3205 -1.75638 0
M  V30 3066 H 259.083 -7.54146 -0.529125 0
M  V30 3067 H 260.351 -7.60362 -1.71667 0
M  V30 3068 N 264.58 -0.43555 -1.51462 0
M  V30 3069 C 265.512 0.41257 -2.25456 0
M  V30 3070 C 266.525 0.987822 -1.29406 0
M  V30 3071 O 267.714 0.882266 -1.55172 0
M  V30 3072 C 264.814 1.58894 -2.99342 0
M  V30 3073 C 263.987 1.13288 -4.22474 0
M  V30 3074 C 263.046 2.17917 -4.78956 0
M  V30 3075 O 262.072 1.77425 -5.40841 0
M  V30 3076 N 263.274 3.50382 -4.62832 0
M  V30 3077 H 266.039 -0.221603 -2.9888 0
M  V30 3078 H 263.6 -0.264342 -1.59727 0
M  V30 3079 H 265.592 2.28508 -3.34015 0
M  V30 3080 H 264.162 2.12849 -2.28941 0
M  V30 3081 H 263.382 0.263881 -3.93316 0
M  V30 3082 H 264.67 0.805542 -5.02383 0
M  V30 3083 H 264.068 3.86013 -4.13534 0
M  V30 3084 H 262.625 4.15895 -5.01871 0
M  V30 3085 N 266.058 1.56714 -0.166846 0
M  V30 3086 C 267.021 2.16539 0.751232 0
M  V30 3087 C 268.021 1.11228 1.16125 0
M  V30 3088 O 269.211 1.36765 1.07894 0
M  V30 3089 C 266.343 2.74462 2.02196 0
M  V30 3090 H 267.536 2.99013 0.230499 0
M  V30 3091 H 265.089 1.56081 0.0826982 0
M  V30 3092 H 265.824 1.95709 2.58589 0
M  V30 3093 H 265.609 3.51527 1.73698 0
M  V30 3094 H 267.099 3.20489 2.67725 0
M  V30 3095 N 267.536 -0.106894 1.57237 0
M  V30 3096 C 268.446 -1.14911 2.0453 0
M  V30 3097 C 269.462 -1.44592 0.96795 0
M  V30 3098 O 270.638 -1.55468 1.2803 0
M  V30 3099 C 267.703 -2.45272 2.45036 0
M  V30 3100 C 266.764 -2.22879 3.66911 0
M  V30 3101 C 265.997 -3.47024 4.05475 0
M  V30 3102 O 266.22 -4.54804 3.44252 0
M  V30 3103 O 265.154 -3.3731 4.98504 0
M  V30 3104 H 268.98 -0.777461 2.9358 0
M  V30 3105 H 266.565 -0.318563 1.45964 0
M  V30 3106 H 268.447 -3.22055 2.71769 0
M  V30 3107 H 267.122 -2.81886 1.59129 0
M  V30 3108 H 266.029 -1.43915 3.45311 0
M  V30 3109 H 267.362 -1.91163 4.53561 0
M  V30 3110 N 269.014 -1.53014 -0.377408 0
M  V30 3111 C 269.961 -1.78616 -1.46168 0
M  V30 3112 C 270.931 -0.629917 -1.53692 0
M  V30 3113 O 272.116 -0.870861 -1.69766 0
M  V30 3114 C 269.256 -1.97123 -2.8326 0
M  V30 3115 C 268.369 -3.24831 -2.84796 0
M  V30 3116 C 267.504 -3.33591 -4.13389 0
M  V30 3117 C 266.543 -4.55377 -4.09021 0
M  V30 3118 N 265.68 -4.61355 -5.29241 0
M  V30 3119 H 270.52 -2.71142 -1.23637 0
M  V30 3120 H 268.057 -1.34326 -0.599577 0
M  V30 3121 H 270.015 -2.05839 -3.62886 0
M  V30 3122 H 268.645 -1.07946 -3.04216 0
M  V30 3123 H 267.697 -3.25128 -1.97474 0
M  V30 3124 H 269.009 -4.14523 -2.77439 0
M  V30 3125 H 268.163 -3.41554 -5.01424 0
M  V30 3126 H 266.902 -2.41894 -4.23484 0
M  V30 3127 H 265.907 -4.47527 -3.19373 0
M  V30 3128 H 267.132 -5.48402 -4.00539 0
M  V30 3129 H 265.078 -3.72554 -5.39944 0
M  V30 3130 H 264.995 -5.44935 -5.24006 0
M  V30 3131 H 266.263 -4.73586 -6.19141 0
M  V30 3132 N 270.492 0.636531 -1.44174 0
M  V30 3133 C 271.44 1.76995 -1.50915 0
M  V30 3134 C 272.434 1.65053 -0.381295 0
M  V30 3135 O 273.64 1.71197 -0.55601 0
M  V30 3136 H 270.015 0.584247 -0.473455 0
M  V30 3137 H 271.986 1.68432 -2.4632 0
M  V30 3138 C 270.735 3.15314 -1.46534 0
M  V30 3139 H 270.058 3.25149 -2.32633 0
M  V30 3140 H 271.498 3.9453 -1.55312 0
M  V30 3141 C 269.957 3.3639 -0.185305 0
M  V30 3142 O 270.487 3.94699 0.746688 0
M  V30 3143 N 268.693 2.9046 -0.0901606 0
M  V30 3144 H 268.24 2.43193 -0.849416 0
M  V30 3145 H 268.198 3.04937 0.765553 0
M  V30 3146 N 271.97 1.30982 0.876444 0
M  V30 3147 C 273.216 1.20474 1.63138 0
M  V30 3148 C 273.549 -0.238096 1.92735 0
M  V30 3149 O 272.824 -1.1692 1.55435 0
M  V30 3150 C 273.107 2.04244 2.96574 0
M  V30 3151 C 272.96 3.56793 2.73896 0
M  V30 3152 C 274.279 1.88684 3.97601 0
M  V30 3153 H 271.398 0.439001 0.591985 0
M  V30 3154 H 274.04 1.60704 1.01361 0
M  V30 3155 H 272.19 1.70063 3.493 0
M  V30 3156 H 273.862 4.01077 2.27892 0
M  V30 3157 H 272.105 3.80548 2.08245 0
M  V30 3158 H 272.776 4.10706 3.68815 0
M  V30 3159 H 275.252 2.18584 3.54062 0
M  V30 3160 H 274.128 2.4961 4.88862 0
M  V30 3161 H 274.389 0.848343 4.33884 0
M  V30 3162 N 273.449 -1.08991 1.13837 0
M  V30 3163 C 274.359 -2.19301 0.833333 0
M  V30 3164 C 275.375 -1.73026 -0.183847 0
M  V30 3165 O 276.551 -2.01395 -0.0138092 0
M  V30 3166 C 273.616 -3.45323 0.308651 0
M  V30 3167 C 272.677 -4.06255 1.38764 0
M  V30 3168 C 271.91 -5.26262 0.887896 0
M  V30 3169 O 272.133 -5.69747 -0.27287 0
M  V30 3170 O 271.067 -5.78435 1.66421 0
M  V30 3171 H 274.893 -2.47854 1.75506 0
M  V30 3172 H 272.478 -1.18012 0.916166 0
M  V30 3173 H 274.36 -4.21394 0.0216739 0
M  V30 3174 H 273.035 -3.18362 -0.585431 0
M  V30 3175 H 271.942 -3.318 1.72799 0
M  V30 3176 H 273.275 -4.37452 2.25602 0
M  V30 3177 N 274.927 -0.932562 -1.27047 0
M  V30 3178 C 275.874 -0.434072 -2.26681 0
M  V30 3179 C 276.844 0.501639 -1.58344 0
M  V30 3180 O 278.029 0.419734 -1.86126 0
M  V30 3181 C 275.169 0.30261 -3.43771 0
M  V30 3182 C 274.282 -0.667774 -4.26808 0
M  V30 3183 C 273.417 0.0892393 -5.31125 0
M  V30 3184 C 272.456 -0.873532 -6.05835 0
M  V30 3185 N 271.593 -0.148832 -7.01942 0
M  V30 3186 H 276.433 -1.28868 -2.68695 0
M  V30 3187 H 273.97 -0.646713 -1.32121 0
M  V30 3188 H 275.928 0.746092 -4.10474 0
M  V30 3189 H 274.558 1.12142 -3.02695 0
M  V30 3190 H 273.61 -1.22978 -3.59973 0
M  V30 3191 H 274.922 -1.40337 -4.78651 0
M  V30 3192 H 274.076 0.592409 -6.03801 0
M  V30 3193 H 272.815 0.85777 -4.80097 0
M  V30 3194 H 271.82 -1.38791 -5.31994 0
M  V30 3195 H 273.045 -1.64193 -6.58952 0
M  V30 3196 H 270.991 0.601365 -6.53238 0
M  V30 3197 H 270.908 -0.82391 -7.51497 0
M  V30 3198 H 272.176 0.333527 -7.78786 0
M  V30 3199 N 276.405 1.4127 -0.698611 0
M  V30 3200 C 277.352 2.30773 -0.0352094 0
M  V30 3201 C 278.322 1.47273 0.768111 0
M  V30 3202 O 279.507 1.76053 0.735524 0
M  V30 3203 C 276.647 3.33346 0.893 0
M  V30 3204 C 275.76 4.31924 0.0809695 0
M  V30 3205 C 274.895 5.21566 1.0071 0
M  V30 3206 C 273.934 6.11811 0.188155 0
M  V30 3207 N 273.071 6.93926 1.06825 0
M  V30 3208 H 277.911 2.86943 -0.804207 0
M  V30 3209 H 275.448 1.4132 -0.408294 0
M  V30 3210 H 277.406 3.91368 1.44523 0
M  V30 3211 H 276.036 2.78719 1.62836 0
M  V30 3212 H 275.088 3.75825 -0.588224 0
M  V30 3213 H 276.4 4.95716 -0.553801 0
M  V30 3214 H 275.554 5.84437 1.62845 0
M  V30 3215 H 274.293 4.58008 1.67572 0
M  V30 3216 H 273.298 5.47986 -0.446254 0
M  V30 3217 H 274.523 6.77425 -0.476716 0
M  V30 3218 H 272.469 6.32973 1.72283 0
M  V30 3219 H 272.386 7.54416 0.489123 0
M  V30 3220 H 273.654 7.61262 1.67632 0
M  V30 3221 N 277.883 0.443576 1.51229 0
M  V30 3222 C 279.132 -0.122332 2.01329 0
M  V30 3223 C 279.445 -1.43237 1.33201 0
M  V30 3224 O 280.651 -2.0816 1.74304 0
M  V30 3225 C 279.107 -0.268551 3.58897 0
M  V30 3226 C 278.715 1.03142 4.35965 0
M  V30 3227 C 280.459 -0.787894 4.17124 0
M  V30 3228 C 278.366 0.850504 5.85252 0
M  V30 3229 H 277.296 -0.0494929 0.752374 0
M  V30 3230 H 279.947 0.574289 1.74282 0
M  V30 3231 H 278.329 -1.02832 3.82415 0
M  V30 3232 H 279.503 1.80001 4.24189 0
M  V30 3233 H 277.818 1.47977 3.89219 0
M  V30 3234 H 280.415 -0.939841 5.26375 0
M  V30 3235 H 280.758 -1.77201 3.76703 0
M  V30 3236 H 281.291 -0.0862669 3.97706 0
M  V30 3237 H 278.03 1.80718 6.30096 0
M  V30 3238 H 277.55 0.121825 5.99676 0
M  V30 3239 H 279.229 0.506163 6.45017 0
M  V30 3240 N 279.361 -1.56624 0.175154 0
M  V30 3241 C 280.638 -1.88688 -0.515373 0
M  V30 3242 C 281.018 -1.08564 -1.81044 0
M  V30 3243 O 280.366 -0.180703 -2.27784 0
M  V30 3244 C 280.576 -3.40768 -0.753552 0
M  V30 3245 C 281.924 -4.10587 -1.08184 0
M  V30 3246 O 282.948 -3.46106 -0.841961 0
M  V30 3247 O 281.807 -5.24512 -1.53459 0
M  V30 3248 H 278.901 -0.78301 -0.26613 0
M  V30 3249 H 281.447 -1.68347 0.213877 0
M  V30 3250 H 280.219 -3.90965 0.161829 0
M  V30 3251 H 279.842 -3.66733 -1.53598 0
M  V30 3252 N 280.839 0.0985539 -1.57292 0
M  V30 3253 C 281.786 1.11981 -2.01814 0
M  V30 3254 C 282.756 1.39999 -0.89384 0
M  V30 3255 O 283.941 1.5152 -1.15958 0
M  V30 3256 C 281.081 2.43577 -2.44467 0
M  V30 3257 C 280.194 2.2232 -3.70402 0
M  V30 3258 C 279.329 3.4729 -4.01949 0
M  V30 3259 C 278.368 3.2128 -5.21005 0
M  V30 3260 N 277.505 4.38507 -5.48321 0
M  V30 3261 H 282.345 0.733149 -2.88841 0
M  V30 3262 H 279.882 0.350482 -1.42864 0
M  V30 3263 H 281.84 3.20373 -2.6724 0
M  V30 3264 H 280.47 2.80097 -1.60455 0
M  V30 3265 H 279.522 1.36343 -3.55126 0
M  V30 3266 H 280.834 1.99089 -4.57345 0
M  V30 3267 H 279.988 4.32495 -4.25479 0
M  V30 3268 H 278.727 3.73572 -3.13521 0
M  V30 3269 H 277.732 2.34468 -4.97298 0
M  V30 3270 H 278.957 2.96348 -6.11028 0
M  V30 3271 H 276.903 4.64871 -4.62851 0
M  V30 3272 H 276.82 4.18455 -6.29628 0
M  V30 3273 H 278.088 5.24787 -5.76385 0
M  V30 3274 N 282.317 1.53212 0.369288 0
M  V30 3275 C 283.547 1.72868 1.13139 0
M  V30 3276 C 283.955 0.455754 1.83629 0
M  V30 3277 O 283.298 -0.580861 1.74275 0
M  V30 3278 C 283.36 2.83667 2.20847 0
M  V30 3279 C 283.024 4.24142 1.70155 0
M  V30 3280 C 284.021 5.06619 1.16763 0
M  V30 3281 C 281.706 4.70539 1.7578 0
M  V30 3282 C 283.7 6.33581 0.696678 0
M  V30 3283 C 281.387 5.97481 1.28297 0
M  V30 3284 C 282.385 6.78833 0.753307 0
M  V30 3285 O 282.073 8.03393 0.285475 0
M  V30 3286 H 281.805 0.581707 0.344373 0
M  V30 3287 H 284.359 2.00736 0.435243 0
M  V30 3288 H 282.589 2.51265 2.93944 0
M  V30 3289 H 284.278 2.91536 2.82421 0
M  V30 3290 H 285.044 4.71948 1.11758 0
M  V30 3291 H 280.923 4.07293 2.15949 0
M  V30 3292 H 284.467 6.97027 0.282581 0
M  V30 3293 H 280.364 6.31651 1.32994 0
M  V30 3294 H 281.132 8.17497 0.405145 0
M  V30 3295 N 283.795 -0.628877 1.44509 0
M  V30 3296 C 285.023 -1.41554 1.50897 0
M  V30 3297 C 285.438 -1.8832 0.134564 0
M  V30 3298 O 284.795 -1.60969 -0.859965 0
M  V30 3299 C 284.846 -2.63435 2.47556 0
M  V30 3300 O 284.567 -2.18619 3.79654 0
M  V30 3301 C 286.068 -3.56537 2.63431 0
M  V30 3302 H 283.288 -0.434044 0.511709 0
M  V30 3303 H 285.832 -0.768895 1.89495 0
M  V30 3304 H 283.987 -3.24187 2.12089 0
M  V30 3305 H 284.401 -2.97652 4.31861 0
M  V30 3306 H 285.875 -4.38657 3.35088 0
M  V30 3307 H 286.352 -4.05493 1.68738 0
M  V30 3308 H 286.958 -3.01653 2.9981 0
M  V30 3309 N 285.273 -1.31445 -0.869486 0
M  V30 3310 C 286.183 -1.21097 -2.0093 0
M  V30 3311 C 287.199 -0.127584 -1.73532 0
M  V30 3312 O 288.375 -0.345477 -1.98415 0
M  V30 3313 C 285.44 -0.919378 -3.34288 0
M  V30 3314 C 284.501 -2.08971 -3.75006 0
M  V30 3315 C 283.734 -1.81194 -5.02001 0
M  V30 3316 O 283.957 -0.747296 -5.65484 0
M  V30 3317 O 282.891 -2.66883 -5.39497 0
M  V30 3318 H 286.717 -2.16883 -2.12592 0
M  V30 3319 H 284.302 -1.11189 -0.997868 0
M  V30 3320 H 286.184 -0.772625 -4.14257 0
M  V30 3321 H 284.859 0.00844772 -3.23699 0
M  V30 3322 H 283.766 -2.29187 -2.95676 0
M  V30 3323 H 285.099 -2.9998 -3.90221 0
M  V30 3324 N 286.751 1.08385 -1.14413 0
M  V30 3325 C 287.997 1.81044 -0.913834 0
M  V30 3326 C 288.33 1.86004 0.558209 0
M  V30 3327 O 287.605 1.33606 1.4135 0
M  V30 3328 C 287.888 3.26648 -1.51569 0
M  V30 3329 C 287.741 3.29895 -3.0576 0
M  V30 3330 C 289.06 4.23629 -1.19273 0
M  V30 3331 H 286.179 0.65727 -0.333414 0
M  V30 3332 H 288.821 1.26896 -1.41412 0
M  V30 3333 H 286.971 3.72889 -1.09023 0
M  V30 3334 H 288.643 2.91977 -3.57137 0
M  V30 3335 H 286.886 2.69163 -3.40197 0
M  V30 3336 H 287.557 4.32516 -3.42977 0
M  V30 3337 H 290.033 3.85727 -1.56057 0
M  V30 3338 H 288.909 5.23822 -1.64017 0
M  V30 3339 H 289.17 4.41968 -0.108068 0
M  V30 3340 N 288.23 0.939286 1.26551 0
M  V30 3341 C 289.16 0.465044 2.28822 0
M  V30 3342 C 290.141 -0.480692 1.63167 0
M  V30 3343 O 291.326 -0.382955 1.90387 0
M  V30 3344 C 288.456 -0.27234 3.46231 0
M  V30 3345 C 287.41 0.58666 4.2396 0
M  V30 3346 C 286.736 -0.280573 5.33963 0
M  V30 3347 C 288.036 1.85704 4.88171 0
M  V30 3348 H 289.73 1.31979 2.68741 0
M  V30 3349 H 287.276 0.636061 1.29191 0
M  V30 3350 H 289.229 -0.615133 4.16886 0
M  V30 3351 H 287.953 -1.16121 3.0526 0
M  V30 3352 H 286.612 0.91232 3.55067 0
M  V30 3353 H 286.26 -1.16874 4.89234 0
M  V30 3354 H 285.96 0.29076 5.8688 0
M  V30 3355 H 287.484 -0.618678 6.07458 0
M  V30 3356 H 288.898 1.58161 5.51052 0
M  V30 3357 H 287.295 2.37279 5.51197 0
M  V30 3358 H 288.365 2.56957 4.11219 0
M  V30 3359 N 289.708 -1.40897 0.706093 0
M  V30 3360 C 290.655 -2.30751 0.0474474 0
M  V30 3361 C 291.625 -1.47678 -0.76029 0
M  V30 3362 O 292.81 -1.76441 -0.726177 0
M  V30 3363 C 289.95 -3.33815 -0.875309 0
M  V30 3364 C 289.063 -4.31961 -0.0580623 0
M  V30 3365 C 288.198 -5.22093 -0.979425 0
M  V30 3366 C 287.237 -6.11902 -0.155706 0
M  V30 3367 N 286.374 -6.94482 -1.03144 0
M  V30 3368 H 291.214 -2.86513 0.819413 0
M  V30 3369 H 288.751 -1.41102 0.415783 0
M  V30 3370 H 290.709 -3.92129 -1.42446 0
M  V30 3371 H 289.339 -2.79579 -1.61356 0
M  V30 3372 H 288.391 -3.75507 0.608147 0
M  V30 3373 H 289.703 -4.95415 0.580082 0
M  V30 3374 H 288.857 -5.85292 -1.59744 0
M  V30 3375 H 287.596 -4.5889 -1.65141 0
M  V30 3376 H 286.601 -5.47742 0.475309 0
M  V30 3377 H 287.826 -6.77162 0.512635 0
M  V30 3378 H 285.772 -6.33877 -1.68924 0
M  V30 3379 H 285.689 -7.54665 -0.449108 0
M  V30 3380 H 286.957 -7.6214 -1.63593 0
M  V30 3381 N 291.186 -0.45159 -1.50991 0
M  V30 3382 C 292.414 0.108334 -2.06616 0
M  V30 3383 C 292.829 1.35224 -1.31757 0
M  V30 3384 O 292.186 1.78475 -0.381174 0
M  V30 3385 C 292.237 0.41619 -3.59096 0
M  V30 3386 O 291.958 -0.778361 -4.3113 0
M  V30 3387 C 293.459 1.02523 -4.31282 0
M  V30 3388 H 290.679 0.00159995 -0.670998 0
M  V30 3389 H 293.223 -0.634771 -1.94399 0
M  V30 3390 H 291.378 1.10921 -3.71181 0
M  V30 3391 H 291.792 -0.511181 -5.22003 0
M  V30 3392 H 293.266 1.19053 -5.39009 0
M  V30 3393 H 293.743 2.01013 -3.905 0
M  V30 3394 H 294.349 0.371173 -4.23677 0
M  V30 3395 N 292.664 1.56529 -0.183458 0
M  V30 3396 C 293.614 2.1515 0.754605 0
M  V30 3397 C 294.598 1.08904 1.18443 0
M  V30 3398 O 295.79 1.34997 1.14476 0
M  V30 3399 C 292.919 2.80531 1.97881 0
M  V30 3400 C 292.005 3.93952 1.57043 0
M  V30 3401 N 292.396 4.98221 0.87231 0
M  V30 3402 C 290.694 4.05338 1.86057 0
M  V30 3403 C 291.395 5.77836 0.669377 0
M  V30 3404 N 290.371 5.29858 1.21454 0
M  V30 3405 H 294.173 2.93132 0.212387 0
M  V30 3406 H 291.687 1.62391 0.0167725 0
M  V30 3407 H 293.684 3.20914 2.6612 0
M  V30 3408 H 292.344 2.04035 2.52586 0
M  V30 3409 H 293.355 5.15191 0.529033 0
M  V30 3410 H 290.032 3.39957 2.42354 0
M  V30 3411 H 291.422 6.71799 0.116422 0
M  V30 3412 N 294.142 -0.090211 1.57342 0
M  V30 3413 C 295.39 -0.791241 1.85967 0
M  V30 3414 C 295.711 -1.7903 0.772859 0
M  V30 3415 O 294.981 -1.94872 -0.200398 0
M  V30 3416 H 293.561 -0.295205 0.686195 0
M  V30 3417 H 296.223 -0.0706782 1.94772 0
M  V30 3418 H 295.319 -1.31882 2.82867 0
M  V30 3419 N 295.62 -1.53406 -0.361157 0
M  V30 3420 C 296.55 -1.83136 -1.44857 0
M  V30 3421 C 297.531 -0.685174 -1.5569 0
M  V30 3422 O 298.716 -0.93544 -1.70186 0
M  V30 3423 C 295.846 -2.02522 -2.82138 0
M  V30 3424 C 294.8 -3.18302 -2.86126 0
M  V30 3425 C 294.126 -3.22989 -4.26125 0
M  V30 3426 C 295.426 -4.56796 -2.53248 0
M  V30 3427 H 297.12 -2.74201 -1.20226 0
M  V30 3428 H 294.666 -1.31938 -0.576922 0
M  V30 3429 H 296.619 -2.21904 -3.58241 0
M  V30 3430 H 295.343 -1.08172 -3.08166 0
M  V30 3431 H 294.002 -2.98747 -2.12475 0
M  V30 3432 H 293.65 -2.26267 -4.49235 0
M  V30 3433 H 293.35 -4.00781 -4.29708 0
M  V30 3434 H 294.874 -3.44559 -5.04094 0
M  V30 3435 H 296.288 -4.7631 -3.19064 0
M  V30 3436 H 294.685 -5.36862 -2.68141 0
M  V30 3437 H 295.755 -4.61606 -1.48484 0
M  V30 3438 N 297.098 0.621204 -1.44841 0
M  V30 3439 C 298.028 1.74366 -1.55303 0
M  V30 3440 C 299.009 1.65199 -0.405385 0
M  V30 3441 O 300.194 1.83807 -0.626787 0
M  V30 3442 C 297.324 3.12931 -1.50637 0
M  V30 3443 C 296.278 3.36896 -2.63979 0
M  V30 3444 C 295.604 4.75594 -2.44366 0
M  V30 3445 C 296.904 3.28483 -4.06074 0
M  V30 3446 H 298.598 1.65867 -2.49256 0
M  V30 3447 H 296.144 0.796558 -1.19962 0
M  V30 3448 H 298.097 3.9124 -1.56555 0
M  V30 3449 H 296.821 3.22237 -0.532057 0
M  V30 3450 H 295.48 2.60972 -2.57467 0
M  V30 3451 H 295.128 4.81616 -1.45105 0
M  V30 3452 H 294.828 4.92586 -3.20364 0
M  V30 3453 H 296.352 5.5612 -2.52117 0
M  V30 3454 H 297.766 3.96684 -4.13902 0
M  V30 3455 H 296.163 3.57008 -4.82354 0
M  V30 3456 H 297.233 2.26133 -4.28943 0
M  V30 3457 N 298.576 1.31904 0.862503 0
M  V30 3458 C 299.822 1.22197 1.61851 0
M  V30 3459 C 300.155 -0.217641 1.92977 0
M  V30 3460 O 299.43 -1.15264 1.56666 0
M  V30 3461 C 299.713 2.07378 2.94391 0
M  V30 3462 C 299.566 3.59678 2.70096 0
M  V30 3463 C 300.885 1.92891 3.95577 0
M  V30 3464 H 298.004 0.445255 0.587296 0
M  V30 3465 H 300.646 1.6177 0.99651 0
M  V30 3466 H 298.796 1.73758 3.47477 0
M  V30 3467 H 300.468 4.03472 2.23625 0
M  V30 3468 H 298.711 3.82735 2.04197 0
M  V30 3469 H 299.382 4.14595 3.64438 0
M  V30 3470 H 301.858 2.22327 3.51724 0
M  V30 3471 H 300.734 2.54781 4.86187 0
M  V30 3472 H 300.995 0.894315 4.3296 0
M  V30 3473 O 300.093 -0.999479 1.26857 0
M  V30 3474 H 300.784 -1.62077 1.0607 0
M  V30 END ATOM
M  V30 BEGIN BOND
M  V30 END BOND
M  V30 END CTAB
M  END
$$$$
