drugbank_target|Q92769 Histone deacetylase 2 (DB00175; DB00227; DB00277; DB00313; DB00641; DB01076; DB01095; DB01223; DB01303; DB02546; DB05223; DB06176; DB09091; DB11830)
 OpenBabel12092120103D

  0  0  0     0  0            999 V3000
M  V30 BEGIN CTAB
M  V30 COUNTS 7622 7708 0 0 0
M  V30 BEGIN ATOM
M  V30 1 H -0.908 1.98254 -0.117106 0
M  V30 2 N 0 1.576 0 0
M  V30 3 C 0.933 2.03868 1.02534 0
M  V30 4 C 1.911 0.928543 1.3348 0
M  V30 5 O 3.095 1.19667 1.45644 0
M  V30 6 C 0.222 2.43627 2.35294 0
M  V30 7 C -0.732 3.65373 2.2001 0
M  V30 8 S 0.101 5.13292 1.52614 0
M  V30 9 C 1.257 5.56322 2.86805 0
M  V30 10 H 1.49 2.90518 0.631377 0
M  V30 11 H -0.977 1.52953 0.210867 0
M  V30 12 H 0.981 2.67203 3.11629 0
M  V30 13 H -0.358 1.57376 2.7183 0
M  V30 14 H -1.165 3.90944 3.18086 0
M  V30 15 H -1.563 3.418 1.51819 0
M  V30 16 H 0.729 5.58782 3.83104 0
M  V30 17 H 1.672 6.56266 2.65933 0
M  V30 18 H 2.08 4.83886 2.90714 0
M  V30 19 N 1.4781 -0.272755 1.55222 0
M  V30 20 C 2.4411 -1.32041 1.87344 0
M  V30 21 C 3.4411 -1.42342 0.74803 0
M  V30 22 O 4.6311 -1.41488 1.0162 0
M  V30 23 C 1.7631 -2.70173 2.07893 0
M  V30 24 H 2.9561 -1.04789 2.80997 0
M  V30 25 H 0.5091 -0.51083 1.47717 0
M  V30 26 H 1.2441 -3.02605 1.16622 0
M  V30 27 H 1.0291 -2.64082 2.89833 0
M  V30 28 H 2.5191 -3.45869 2.34017 0
M  V30 29 N 2.9562 -1.48159 -0.537278 0
M  V30 30 C 4.1862 -1.59223 -1.3165 0
M  V30 31 C 4.5942 -0.248849 -1.87556 0
M  V30 32 O 3.9372 0.770949 -1.6674 0
M  V30 33 C 3.9992 -2.57365 -2.51005 0
M  V30 34 C 3.6632 -4.02603 -2.16239 0
M  V30 35 C 4.6602 -4.90503 -1.72344 0
M  V30 36 C 2.3452 -4.48088 -2.26986 0
M  V30 37 C 4.3392 -6.21913 -1.39651 0
M  V30 38 C 2.0262 -5.7952 -1.93906 0
M  V30 39 C 3.0242 -6.66255 -1.50309 0
M  V30 40 O 2.7122 -7.95243 -1.17659 0
M  V30 41 H 2.4442 -0.539831 -0.406889 0
M  V30 42 H 4.9982 -1.94655 -0.655641 0
M  V30 43 H 3.2282 -2.1704 -3.20048 0
M  V30 44 H 4.9172 -2.58342 -3.13072 0
M  V30 45 H 5.6832 -4.56604 -1.63517 0
M  V30 46 H 1.5622 -3.80769 -2.59877 0
M  V30 47 H 5.1062 -6.89569 -1.0555 0
M  V30 48 H 1.0032 -6.12957 -2.02371 0
M  V30 49 H 1.7712 -8.0793 -1.31119 0
M  V30 50 N 4.4343 0.785586 -1.36625 0
M  V30 51 C 5.6593 1.57963 -1.34397 0
M  V30 52 C 6.0843 1.87964 0.071526 0
M  V30 53 O 5.4423 1.48182 1.0446 0
M  V30 54 C 5.4903 2.87511 -2.17646 0
M  V30 55 O 4.5943 3.81281 -1.57158 0
M  V30 56 H 3.9353 0.479014 -0.459828 0
M  V30 57 H 6.4653 0.973411 -1.79961 0
M  V30 58 H 6.4753 3.36745 -2.30362 0
M  V30 59 H 5.1503 2.65002 -3.20541 0
M  V30 60 H 3.7273 3.39885 -1.53403 0
M  V30 61 N 5.9124 1.20967 1.01018 0
M  V30 62 C 6.8444 0.922059 2.09835 0
M  V30 63 C 7.8574 -0.0927106 1.62536 0
M  V30 64 O 9.0464 0.139127 1.77957 0
M  V30 65 C 6.1464 0.362004 3.36961 0
M  V30 66 C 5.3194 1.42986 4.13369 0
M  V30 67 C 4.3784 0.879976 5.1879 0
M  V30 68 O 3.4044 1.56219 5.47343 0
M  V30 69 N 4.6064 -0.307396 5.79686 0
M  V30 70 H 7.3714 1.8588 2.35093 0
M  V30 71 H 4.9324 1.11422 1.1746 0
M  V30 72 H 6.9244 -0.0201474 4.04695 0
M  V30 73 H 5.4944 -0.479437 3.08902 0
M  V30 74 H 4.7144 1.98608 3.40512 0
M  V30 75 H 6.0024 2.14885 4.61196 0
M  V30 76 H 5.4004 -0.878796 5.58832 0
M  V30 77 H 3.9574 -0.631115 6.48737 0
M  V30 78 N 7.3905 -1.2043 1.01659 0
M  V30 79 C 8.6385 -1.89423 0.704522 0
M  V30 80 C 8.9595 -1.79231 -0.768197 0
M  V30 81 O 8.2295 -1.1947 -1.55254 0
M  V30 82 H 6.8095 -0.701178 0.257602 0
M  V30 83 H 9.4715 -1.4626 1.28818 0
M  V30 84 H 8.5675 -2.96052 0.987916 0
M  V30 85 N 8.8686 -0.792821 -1.36206 0
M  V30 86 C 10.1166 -0.366062 -1.98757 0
M  V30 87 C 10.4376 1.0668 -1.63231 0
M  V30 88 O 9.7076 1.73587 -0.907978 0
M  V30 89 H 8.2876 -0.132364 -0.735179 0
M  V30 90 H 10.9496 -1.01562 -1.66347 0
M  V30 91 H 10.0456 -0.460638 -3.08682 0
M  V30 92 N 10.3467 1.47872 -0.545128 0
M  V30 93 C 11.5947 2.02093 -0.016553 0
M  V30 94 C 11.9157 1.42305 1.3332 0
M  V30 95 O 11.1857 0.593853 1.86682 0
M  V30 96 H 9.7657 0.746993 -0.00313038 0
M  V30 97 H 12.4277 1.81414 -0.712397 0
M  V30 98 H 11.5237 3.11996 0.0805422 0
M  V30 99 N 11.8248 0.280983 1.55075 0
M  V30 100 C 12.7718 -0.603937 2.22758 0
M  V30 101 C 13.7418 -1.1452 1.20309 0
M  V30 102 O 14.9268 -1.19343 1.48869 0
M  V30 103 C 12.0668 -1.77947 2.95684 0
M  V30 104 C 11.1798 -1.2715 4.12864 0
M  V30 105 C 10.3148 -2.4093 4.7342 0
M  V30 106 C 9.3538 -1.87165 5.82783 0
M  V30 107 N 8.4908 -2.94441 6.37377 0
M  V30 108 H 13.3308 -0.020124 2.97993 0
M  V30 109 H 10.8678 0.00183425 1.471 0
M  V30 110 H 12.8258 -2.47055 3.36184 0
M  V30 111 H 11.4558 -2.33522 2.22861 0
M  V30 112 H 10.5078 -0.473331 3.77444 0
M  V30 113 H 11.8198 -0.837751 4.91715 0
M  V30 114 H 10.9738 -3.18021 5.1667 0
M  V30 115 H 9.7128 -2.87623 3.93859 0
M  V30 116 H 8.7178 -1.08556 5.38976 0
M  V30 117 H 9.9428 -1.41401 6.64216 0
M  V30 118 H 7.8888 -3.40505 5.60707 0
M  V30 119 H 7.8058 -2.55501 7.11516 0
M  V30 120 H 9.0738 -3.71489 6.85285 0
M  V30 121 N 13.3029 -1.57598 0.00835791 0
M  V30 122 C 14.2499 -2.08945 -0.980346 0
M  V30 123 C 15.2199 -0.986738 -1.33614 0
M  V30 124 O 16.4049 -1.25968 -1.43306 0
M  V30 125 C 13.5449 -2.60425 -2.26435 0
M  V30 126 C 12.6579 -3.84628 -1.96685 0
M  V30 127 C 11.7929 -4.24579 -3.19228 0
M  V30 128 C 10.8319 -5.41596 -2.85202 0
M  V30 129 N 9.9689 -5.768 -4.00307 0
M  V30 130 H 14.8089 -2.93148 -0.535551 0
M  V30 131 H 12.3459 -1.44912 -0.252776 0
M  V30 132 H 14.3039 -2.88354 -3.01509 0
M  V30 133 H 12.9339 -1.79083 -2.68568 0
M  V30 134 H 11.9859 -3.63556 -1.11942 0
M  V30 135 H 13.2979 -4.69796 -1.67611 0
M  V30 136 H 12.4519 -4.53834 -4.02641 0
M  V30 137 H 11.1909 -3.38137 -3.51447 0
M  V30 138 H 10.1959 -5.12056 -2.00198 0
M  V30 139 H 11.4209 -6.29721 -2.54222 0
M  V30 140 H 9.3669 -4.93316 -4.32407 0
M  V30 141 H 9.2839 -6.5656 -3.74786 0
M  V30 142 H 10.5519 -6.10652 -4.84484 0
M  V30 143 N 14.781 0.264519 -1.55364 0
M  V30 144 C 15.728 1.32717 -1.88825 0
M  V30 145 C 16.698 1.48675 -0.740605 0
M  V30 146 O 17.883 1.62945 -0.992657 0
M  V30 147 C 15.023 2.68089 -2.17307 0
M  V30 148 C 14.136 2.60284 -3.44785 0
M  V30 149 C 13.271 3.87892 -3.62924 0
M  V30 150 C 12.31 3.74631 -4.84064 0
M  V30 151 N 11.447 4.94092 -4.98816 0
M  V30 152 H 16.287 1.03481 -2.79456 0
M  V30 153 H 13.824 0.499757 -1.3835 0
M  V30 154 H 15.782 3.46864 -2.31821 0
M  V30 155 H 14.412 2.95509 -1.299 0
M  V30 156 H 13.464 1.73173 -3.38697 0
M  V30 157 H 14.776 2.46388 -4.33698 0
M  V30 158 H 13.93 4.75109 -3.77302 0
M  V30 159 H 12.669 4.04664 -2.7221 0
M  V30 160 H 11.674 2.85797 -4.69681 0
M  V30 161 H 12.899 3.5937 -5.76221 0
M  V30 162 H 10.845 5.11259 -4.11036 0
M  V30 163 H 10.762 4.8276 -5.81789 0
M  V30 164 H 12.03 5.82857 -5.17588 0
M  V30 165 N 16.2591 1.48442 0.529413 0
M  V30 166 C 17.5051 1.5672 1.28711 0
M  V30 167 C 17.8381 0.2406 1.92704 0
M  V30 168 O 17.1131 -0.753454 1.79313 0
M  V30 169 C 17.3961 2.70587 2.37603 0
M  V30 170 C 17.2491 4.12953 1.78297 0
M  V30 171 C 18.5681 2.80212 3.39366 0
M  V30 172 H 15.6871 0.570474 0.466613 0
M  V30 173 H 18.3291 1.80617 0.589706 0
M  V30 174 H 16.4791 2.50342 2.97088 0
M  V30 175 H 18.1511 4.44639 1.22858 0
M  V30 176 H 16.3941 4.19927 1.0883 0
M  V30 177 H 17.0651 4.88448 2.57144 0
M  V30 178 H 19.5411 2.98553 2.89836 0
M  V30 179 H 18.4171 3.61611 4.12951 0
M  V30 180 H 18.6781 1.88393 3.99951 0
M  V30 181 N 17.7372 -0.778329 1.37039 0
M  V30 182 C 18.9772 -1.54973 1.33276 0
M  V30 183 C 19.3412 -1.91816 -0.0839376 0
M  V30 184 O 20.5422 -2.6767 -0.246228 0
M  V30 185 C 18.8132 -2.78517 2.23971 0
M  V30 186 S 20.3722 -3.6865 2.37997 0
M  V30 187 H 17.1902 -0.530639 0.473226 0
M  V30 188 H 19.7922 -0.915806 1.72723 0
M  V30 189 H 18.4962 -2.4952 3.25835 0
M  V30 190 H 18.0272 -3.46875 1.85584 0
M  V30 191 H 20.0422 -4.70182 1.58567 0
M  V30 192 N 19.2153 -1.21501 -1.00376 0
M  V30 193 C 20.4453 -1.05746 -1.77486 0
M  V30 194 C 20.8533 0.395655 -1.85017 0
M  V30 195 O 20.1963 1.28626 -1.31152 0
M  V30 196 C 20.2583 -1.58092 -3.22873 0
M  V30 197 C 19.9223 -3.06568 -3.38917 0
M  V30 198 C 20.9193 -4.04106 -3.271 0
M  V30 199 C 18.6043 -3.45799 -3.64319 0
M  V30 200 C 20.5983 -5.38862 -3.40451 0
M  V30 201 C 18.2853 -4.80707 -3.77311 0
M  V30 202 C 19.2833 -5.77047 -3.65384 0
M  V30 203 O 18.9713 -7.09507 -3.77961 0
M  V30 204 H 18.7033 -0.371778 -0.564586 0
M  V30 205 H 21.2573 -1.61319 -1.27143 0
M  V30 206 H 19.4873 -0.969163 -3.74358 0
M  V30 207 H 21.1763 -1.38162 -3.81662 0
M  V30 208 H 21.9423 -3.75141 -3.07399 0
M  V30 209 H 17.8213 -2.71344 -3.72684 0
M  V30 210 H 21.3653 -6.14041 -3.31058 0
M  V30 211 H 17.2623 -5.09357 -3.96517 0
M  V30 212 H 18.0303 -7.16935 -3.94901 0
M  V30 213 N 20.6934 1.19889 -1.02296 0
M  V30 214 C 21.9234 1.93109 -0.734332 0
M  V30 215 C 22.3314 1.75377 0.709889 0
M  V30 216 O 21.6744 1.06912 1.49384 0
M  V30 217 C 21.7364 3.45362 -0.99827 0
M  V30 218 C 21.4004 3.8686 -2.43287 0
M  V30 219 C 22.3974 3.92102 -3.41397 0
M  V30 220 C 20.0824 4.18668 -2.77529 0
M  V30 221 C 22.0764 4.28573 -4.71809 0
M  V30 222 C 19.7634 4.54813 -4.08153 0
M  V30 223 C 20.7614 4.59739 -5.05103 0
M  V30 224 O 20.4494 4.95051 -6.33388 0
M  V30 225 H 20.1814 0.620409 -0.268456 0
M  V30 226 H 22.7354 1.53144 -1.3688 0
M  V30 227 H 20.9654 3.85482 -0.306645 0
M  V30 228 H 22.6544 3.99814 -0.700234 0
M  V30 229 H 23.4204 3.67685 -3.1628 0
M  V30 230 H 19.2994 4.14021 -2.0275 0
M  V30 231 H 22.8434 4.32333 -5.4748 0
M  V30 232 H 18.7404 4.78687 -4.33047 0
M  V30 233 H 19.5084 5.1302 -6.37772 0
M  V30 234 N 22.1715 0.800033 1.35784 0
M  V30 235 C 23.4015 0.389041 2.02904 0
M  V30 236 C 23.8095 -1.0027 1.60445 0
M  V30 237 O 23.1525 -1.65633 0.794453 0
M  V30 238 C 23.2145 0.385495 3.57427 0
M  V30 239 C 22.8785 1.72662 4.23127 0
M  V30 240 C 23.8755 2.68385 4.4527 0
M  V30 241 C 21.5605 2.00883 4.60381 0
M  V30 242 C 23.5545 3.90517 5.03761 0
M  V30 243 C 21.2415 3.2328 5.18588 0
M  V30 244 C 22.2395 4.17915 5.40218 0
M  V30 245 O 21.9275 5.38153 5.97199 0
M  V30 246 H 21.6595 0.157032 0.657508 0
M  V30 247 H 24.2135 1.08311 1.74522 0
M  V30 248 H 22.4435 -0.365128 3.84972 0
M  V30 249 H 24.1325 -0.00228296 4.059 0
M  V30 250 H 24.8985 2.47872 4.16874 0
M  V30 251 H 20.7775 1.28037 4.42863 0
M  V30 252 H 24.3215 4.64395 5.2056 0
M  V30 253 H 20.2185 3.43667 5.4641 0
M  V30 254 H 20.9865 5.3936 6.15656 0
M  V30 255 N 23.6496 -1.47581 0.552962 0
M  V30 256 C 24.9266 -1.95563 -0.0381515 0
M  V30 257 C 25.3066 -1.49552 -1.48988 0
M  V30 258 O 24.6546 -0.732414 -2.16444 0
M  V30 259 C 24.8646 -3.48848 0.102919 0
M  V30 260 C 26.2126 -4.24577 -0.0446082 0
M  V30 261 O 27.2366 -3.56187 0.0302548 0
M  V30 262 O 26.0956 -5.46116 -0.204923 0
M  V30 263 H 23.1896 -0.824321 -0.0665067 0
M  V30 264 H 25.7356 -1.58001 0.619186 0
M  V30 265 H 24.5076 -3.75129 1.11328 0
M  V30 266 H 24.1306 -3.93165 -0.592224 0
M  V30 267 N 25.1277 -0.289203 -1.54924 0
M  V30 268 C 26.3757 0.322879 -1.99504 0
M  V30 269 C 26.6967 1.55313 -1.1791 0
M  V30 270 O 25.9667 1.94001 -0.272097 0
M  V30 271 H 24.5467 0.122291 -0.736922 0
M  V30 272 H 27.2087 -0.397802 -1.90797 0
M  V30 273 H 26.3047 0.603061 -3.06218 0
M  V30 274 N 26.6058 1.57591 -0.0167156 0
M  V30 275 C 27.8828 1.82547 0.702564 0
M  V30 276 C 28.2628 0.898018 1.91047 0
M  V30 277 O 27.6108 -0.0493456 2.28447 0
M  V30 278 C 27.8208 3.31459 1.09251 0
M  V30 279 C 29.1688 3.97622 1.48937 0
M  V30 280 O 30.1928 3.35881 1.18584 0
M  V30 281 O 29.0518 5.06415 2.05442 0
M  V30 282 H 26.1458 0.752268 0.343544 0
M  V30 283 H 28.6918 1.69644 -0.0434495 0
M  V30 284 H 27.4638 3.9061 0.23227 0
M  V30 285 H 27.0868 3.49422 1.89709 0
M  V30 286 N 28.0839 -0.256276 1.55502 0
M  V30 287 C 29.3329 -0.983486 1.76098 0
M  V30 288 C 29.6459 -1.86837 0.578896 0
M  V30 289 O 30.8519 -2.63163 0.667648 0
M  V30 290 C 29.3079 -1.79868 3.1173 0
M  V30 291 C 28.9159 -0.961648 4.37557 0
M  V30 292 C 30.6599 -2.51919 3.41668 0
M  V30 293 C 28.5669 -1.77219 5.64223 0
M  V30 294 H 27.4969 -0.370936 0.656447 0
M  V30 295 H 30.1479 -0.238492 1.81944 0
M  V30 296 H 28.5299 -2.58527 2.99966 0
M  V30 297 H 29.7039 -0.218048 4.60284 0
M  V30 298 H 28.0189 -0.354913 4.14885 0
M  V30 299 H 30.6159 -3.12998 4.33516 0
M  V30 300 H 30.9589 -3.23059 2.62562 0
M  V30 301 H 31.4919 -1.80278 3.54605 0
M  V30 302 H 28.2309 -1.10471 6.46124 0
M  V30 303 H 27.7509 -2.49132 5.45613 0
M  V30 304 H 29.4299 -2.34169 6.03137 0
M  V30 305 N 29.562 -1.4872 -0.521534 0
M  V30 306 C 30.81 -1.56857 -1.27437 0
M  V30 307 C 31.131 -0.247982 -1.93417 0
M  V30 308 O 30.401 0.731151 -1.81744 0
M  V30 309 H 28.981 -0.577885 -0.473347 0
M  V30 310 H 31.643 -1.85233 -0.606205 0
M  V30 311 H 30.739 -2.35402 -2.0492 0
M  V30 312 N 31.0401 0.771051 -1.3745 0
M  V30 313 C 31.9881 1.90574 -1.33358 0
M  V30 314 C 32.9821 1.67936 -0.22224 0
M  V30 315 O 34.1881 1.75717 -0.390304 0
M  V30 316 H 30.5631 0.626714 -0.415612 0
M  V30 317 H 32.5341 1.91142 -2.29144 0
M  V30 318 C 31.2831 3.27845 -1.15813 0
M  V30 319 H 30.6061 3.45842 -2.00583 0
M  V30 320 H 32.0461 4.07538 -1.17 0
M  V30 321 C 30.5051 3.36625 0.136165 0
M  V30 322 O 31.0351 3.85785 1.11949 0
M  V30 323 N 29.2411 2.89997 0.187099 0
M  V30 324 H 28.7881 2.50182 -0.613753 0
M  V30 325 H 28.7461 2.96252 1.05272 0
M  V30 326 N 32.5182 1.22032 0.997298 0
M  V30 327 C 33.7482 1.06686 1.76923 0
M  V30 328 C 34.1562 -0.385838 1.85224 0
M  V30 329 O 33.4992 -1.27929 1.31833 0
M  V30 330 C 33.5612 1.59802 3.22031 0
M  V30 331 C 33.2252 3.08362 3.37286 0
M  V30 332 C 34.2222 4.05835 3.24952 0
M  V30 333 C 31.9072 3.47727 3.6248 0
M  V30 334 C 33.9012 5.4066 3.37588 0
M  V30 335 C 31.5882 4.82701 3.74757 0
M  V30 336 C 32.5862 5.78977 3.62319 0
M  V30 337 O 32.2742 7.11502 3.74193 0
M  V30 338 H 32.0062 0.374767 0.562606 0
M  V30 339 H 34.5602 1.61991 1.26286 0
M  V30 340 H 32.7902 0.989003 3.73839 0
M  V30 341 H 34.4792 1.40184 3.80924 0
M  V30 342 H 35.2452 3.76766 3.05405 0
M  V30 343 H 31.1242 2.73317 3.7124 0
M  V30 344 H 34.6682 6.15788 3.27796 0
M  V30 345 H 30.5652 5.11453 3.9381 0
M  V30 346 H 31.3332 7.19019 3.91093 0
M  V30 347 N 33.9963 -1.19345 1.0293 0
M  V30 348 C 35.2263 -1.92717 0.744563 0
M  V30 349 C 35.6343 -1.75751 -0.700579 0
M  V30 350 O 34.9773 -1.07703 -1.48815 0
M  V30 351 C 35.0393 -3.44828 1.01657 0
M  V30 352 C 34.7033 -3.85564 2.45335 0
M  V30 353 C 35.7003 -3.90286 3.43472 0
M  V30 354 C 33.3853 -4.1719 2.79746 0
M  V30 355 C 35.3793 -4.26065 4.74075 0
M  V30 356 C 33.0663 -4.52642 4.10559 0
M  V30 357 C 34.0643 -4.57054 5.07534 0
M  V30 358 O 33.7523 -4.91685 6.36004 0
M  V30 359 H 33.4843 -0.618977 0.271742 0
M  V30 360 H 36.0383 -1.52415 1.37691 0
M  V30 361 H 34.2683 -3.85314 0.327084 0
M  V30 362 H 35.9573 -3.99437 0.721427 0
M  V30 363 H 36.7233 -3.66002 3.18225 0
M  V30 364 H 32.6023 -4.1294 2.04943 0
M  V30 365 H 36.1463 -4.29423 5.49765 0
M  V30 366 H 32.0433 -4.76383 4.35579 0
M  V30 367 H 32.8113 -5.09631 6.40483 0
M  V30 368 N 35.4744 -0.807222 -1.35358 0
M  V30 369 C 36.7044 -0.399796 -2.02695 0
M  V30 370 C 37.1124 0.994176 -1.60974 0
M  V30 371 O 36.4554 1.65209 -0.803226 0
M  V30 372 C 36.5174 -0.404445 -3.57218 0
M  V30 373 C 36.1814 -1.74904 -4.22206 0
M  V30 374 C 37.1784 -2.70743 -4.4384 0
M  V30 375 C 34.8634 -2.03322 -4.5931 0
M  V30 376 C 36.8574 -3.93183 -5.01683 0
M  V30 377 C 34.5444 -3.26026 -5.16866 0
M  V30 378 C 35.5424 -4.20774 -5.37994 0
M  V30 379 O 35.2304 -5.41312 -5.94337 0
M  V30 380 H 34.9624 -0.160517 -0.656666 0
M  V30 381 H 37.5164 -1.09235 -1.73945 0
M  V30 382 H 35.7464 0.344707 -3.85161 0
M  V30 383 H 37.4354 -0.0192429 -4.05895 0
M  V30 384 H 38.2014 -2.5008 -4.15554 0
M  V30 385 H 34.0804 -1.30384 -4.42178 0
M  V30 386 H 37.6244 -4.6715 -5.1809 0
M  V30 387 H 33.5214 -3.46559 -5.44579 0
M  V30 388 H 34.2894 -5.42618 -6.12787 0
M  V30 389 N 36.9525 1.47285 -0.560781 0
M  V30 390 C 38.2005 2.02064 -0.0379868 0
M  V30 391 C 38.5215 1.43711 1.31803 0
M  V30 392 O 37.7915 0.61362 1.86042 0
M  V30 393 H 36.3715 0.746918 -0.0110531 0
M  V30 394 H 39.0335 1.80648 -0.731598 0
M  V30 395 H 38.1295 3.12064 0.0474463 0
M  V30 396 N 38.4306 0.297415 1.54768 0
M  V30 397 C 39.3626 -0.613881 2.20826 0
M  V30 398 C 40.3756 -1.10032 1.19987 0
M  V30 399 O 41.5646 -1.01839 1.46598 0
M  V30 400 C 38.6646 -1.852 2.83821 0
M  V30 401 C 37.8376 -1.50865 4.10559 0
M  V30 402 C 36.8966 -2.60154 4.57391 0
M  V30 403 O 35.9226 -2.25398 5.2267 0
M  V30 404 N 37.1246 -3.90629 4.29406 0
M  V30 405 H 39.8896 -0.048389 2.99661 0
M  V30 406 H 37.4506 0.11946 1.61459 0
M  V30 407 H 39.4426 -2.57652 3.12086 0
M  V30 408 H 38.0126 -2.32597 2.08847 0
M  V30 409 H 37.2326 -0.616925 3.89343 0
M  V30 410 H 38.5206 -1.25458 4.9309 0
M  V30 411 H 37.9186 -4.21677 3.77101 0
M  V30 412 H 36.4756 -4.59391 4.62388 0
M  V30 413 N 39.9087 -1.5758 0.0250728 0
M  V30 414 C 41.1567 -1.91255 -0.653151 0
M  V30 415 C 41.4777 -0.901691 -1.729 0
M  V30 416 O 40.7477 0.0573785 -1.95816 0
M  V30 417 H 39.3277 -0.705942 -0.244243 0
M  V30 418 H 41.9897 -1.94767 0.0719209 0
M  V30 419 H 41.0857 -2.91752 -1.10847 0
M  V30 420 N 41.3868 0.248026 -1.55636 0
M  V30 421 C 42.3368 1.30994 -1.86614 0
M  V30 422 C 43.3208 1.43543 -0.726918 0
M  V30 423 O 44.5128 1.46804 -0.988818 0
M  V30 424 C 41.6418 2.6656 -2.16335 0
M  V30 425 C 40.7278 2.58019 -3.36581 0
M  V30 426 N 41.1188 2.1911 -4.55878 0
M  V30 427 C 39.4168 2.89035 -3.39669 0
M  V30 428 C 40.1178 2.21174 -5.38012 0
M  V30 429 N 39.0938 2.60632 -4.77045 0
M  V30 430 H 42.8958 0.999583 -2.76379 0
M  V30 431 H 40.4098 0.456652 -1.55848 0
M  V30 432 H 42.4068 3.43194 -2.36692 0
M  V30 433 H 41.0668 2.98463 -1.27867 0
M  V30 434 H 42.0778 1.90672 -4.81523 0
M  V30 435 H 38.7548 3.25485 -2.61469 0
M  V30 436 H 40.1448 1.9344 -6.43452 0
M  V30 437 N 42.8649 1.48995 0.513639 0
M  V30 438 C 44.2759 1.5119 1.09537 0
M  V30 439 C 44.6269 0.290906 1.94031 0
M  V30 440 O 43.7519 -0.60049 2.07902 0
M  V30 441 C 44.3469 2.73964 1.99322 0
M  V30 442 C 42.9059 2.78978 2.52682 0
M  V30 443 C 42.0529 2.44934 1.30009 0
M  V30 444 H 45.0039 1.55875 0.298125 0
M  V30 445 H 45.0249 2.53409 2.83838 0
M  V30 446 H 44.5369 3.62813 1.37799 0
M  V30 447 H 42.6379 1.94378 3.1788 0
M  V30 448 H 42.7509 3.8083 2.90698 0
M  V30 449 H 41.1149 1.9644 1.62122 0
M  V30 450 H 41.8979 3.36043 0.702131 0
M  V30 451 N 44.343 -0.763751 1.37857 0
M  V30 452 C 45.276 -1.88486 1.28639 0
M  V30 453 C 46.254 -1.61757 0.165363 0
M  V30 454 O 47.438 -1.85391 0.340948 0
M  V30 455 C 44.565 -3.23884 0.990811 0
M  V30 456 C 43.611 -3.69514 2.12983 0
M  V30 457 S 44.444 -3.82244 3.75033 0
M  V30 458 C 45.6 -5.20477 3.47641 0
M  V30 459 H 45.833 -1.96017 2.23527 0
M  V30 460 H 43.366 -0.925684 1.23574 0
M  V30 461 H 45.324 -4.02081 0.827101 0
M  V30 462 H 43.985 -3.14044 0.0592832 0
M  V30 463 H 43.178 -4.67696 1.87821 0
M  V30 464 H 42.78 -2.98441 2.25408 0
M  V30 465 H 45.072 -6.05905 3.03125 0
M  V30 466 H 46.015 -5.50655 4.4518 0
M  V30 467 H 46.423 -4.88793 2.82385 0
M  V30 468 N 45.8211 -1.22559 -0.990812 0
M  V30 469 C 46.7681 -0.997519 -2.0813 0
M  V30 470 C 47.7381 0.0814702 -1.659 0
M  V30 471 O 48.9231 -0.0685424 -1.90677 0
M  V30 472 C 46.0631 -0.583615 -3.40129 0
M  V30 473 C 45.1761 -1.7336 -3.9569 0
M  V30 474 C 44.3111 -1.26748 -5.15857 0
M  V30 475 C 43.3501 -2.38888 -5.63559 0
M  V30 476 N 42.4871 -1.93308 -6.74964 0
M  V30 477 H 47.3271 -1.93099 -2.26973 0
M  V30 478 H 44.8641 -0.962114 -1.11273 0
M  V30 479 H 46.8221 -0.324801 -4.15934 0
M  V30 480 H 45.4521 0.312845 -3.2128 0
M  V30 481 H 44.5041 -2.10669 -3.16738 0
M  V30 482 H 45.8161 -2.57704 -4.27071 0
M  V30 483 H 44.9701 -0.966173 -5.98957 0
M  V30 484 H 43.7091 -0.394272 -4.86104 0
M  V30 485 H 42.7141 -2.69805 -4.79046 0
M  V30 486 H 43.9391 -3.26728 -5.95336 0
M  V30 487 H 41.8851 -1.08352 -6.4699 0
M  V30 488 H 41.8021 -2.71217 -7.05675 0
M  V30 489 H 43.0701 -1.66252 -7.61564 0
M  V30 490 N 47.2992 1.18797 -1.03562 0
M  V30 491 C 48.7102 1.70322 -0.764676 0
M  V30 492 C 49.0612 1.82708 0.714996 0
M  V30 493 O 48.1862 1.50299 1.55689 0
M  V30 494 C 48.7812 3.09356 -1.38145 0
M  V30 495 C 47.3402 3.58114 -1.15895 0
M  V30 496 C 46.4872 2.34798 -1.4753 0
M  V30 497 H 49.4382 1.03543 -1.20268 0
M  V30 498 H 49.4592 3.72378 -0.781977 0
M  V30 499 H 48.9712 3.00309 -2.45837 0
M  V30 500 H 47.0722 3.72464 -0.100544 0
M  V30 501 H 47.1852 4.4184 -1.8524 0
M  V30 502 H 45.5492 2.38464 -0.894829 0
M  V30 503 H 46.3322 2.28375 -2.56319 0
M  V30 504 N 48.7773 0.814389 1.34928 0
M  V30 505 C 49.7273 0.202752 2.27097 0
M  V30 506 C 50.7113 -0.62799 1.48139 0
M  V30 507 O 51.9033 -0.483969 1.70255 0
M  V30 508 C 49.0323 -0.64146 3.37254 0
M  V30 509 C 48.1183 0.19944 4.23631 0
M  V30 510 N 48.5093 1.26628 4.89693 0
M  V30 511 C 46.8073 -0.0176433 4.45997 0
M  V30 512 C 47.5083 1.78031 5.53787 0
M  V30 513 N 46.4843 1.08553 5.32651 0
M  V30 514 H 50.2863 1.01893 2.75672 0
M  V30 515 H 47.8003 0.656332 1.48546 0
M  V30 516 H 49.7973 -1.09575 4.02243 0
M  V30 517 H 48.4573 -1.4559 2.9023 0
M  V30 518 H 49.4683 1.64901 4.90946 0
M  V30 519 H 46.1453 -0.800601 4.09752 0
M  V30 520 H 47.5353 2.67236 6.16469 0
M  V30 521 N 50.2554 -1.46986 0.568584 0
M  V30 522 C 51.6714 -1.57946 0.229189 0
M  V30 523 C 51.8714 -1.56567 -1.26843 0
M  V30 524 O 50.9274 -1.47511 -2.04931 0
M  V30 525 C 52.2404 -2.87963 0.865909 0
M  V30 526 C 53.7884 -3.01568 0.838188 0
M  V30 527 C 54.2634 -4.34301 1.45419 0
M  V30 528 N 55.7544 -4.40965 1.41788 0
M  V30 529 C 56.4894 -5.42256 1.86403 0
M  V30 530 N 55.9854 -6.50297 2.38926 0
M  V30 531 N 57.7784 -5.3337 1.77405 0
M  V30 532 H 49.9294 -1.46126 1.54146 0
M  V30 533 H 52.1924 -0.696156 0.643484 0
M  V30 534 H 51.8984 -2.94742 1.91886 0
M  V30 535 H 51.7724 -3.75423 0.365687 0
M  V30 536 H 54.1594 -2.94379 -0.206106 0
M  V30 537 H 54.2404 -2.1562 1.37629 0
M  V30 538 H 53.8844 -4.42247 2.49761 0
M  V30 539 H 53.8144 -5.19 0.891435 0
M  V30 540 H 56.3054 -3.63484 1.03381 0
M  V30 541 H 56.6184 -7.23777 2.70863 0
M  V30 542 H 54.9634 -6.51155 2.42944 0
M  V30 543 H 58.1544 -4.47865 1.3614 0
M  V30 544 H 58.3274 -6.12169 2.12492 0
M  V30 545 N 51.7335 -0.305618 -1.54608 0
M  V30 546 C 52.9825 0.303098 -1.9941 0
M  V30 547 C 53.2955 1.54648 -1.19764 0
M  V30 548 O 54.5015 2.23007 -1.54855 0
M  V30 549 C 52.9575 0.590588 -3.55021 0
M  V30 550 C 52.5655 -0.634719 -4.43481 0
M  V30 551 C 54.3095 1.16025 -4.08336 0
M  V30 552 C 52.2165 -0.320126 -5.90533 0
M  V30 553 H 51.1465 0.117031 -0.744862 0
M  V30 554 H 53.7975 -0.415045 -1.78745 0
M  V30 555 H 52.1795 1.36845 -3.71604 0
M  V30 556 H 53.3535 -1.41079 -4.38672 0
M  V30 557 H 51.6685 -1.12333 -4.00962 0
M  V30 558 H 54.2655 1.40994 -5.15776 0
M  V30 559 H 54.6085 2.10397 -3.5922 0
M  V30 560 H 55.1415 0.443985 -3.95315 0
M  V30 561 H 51.8805 -1.23254 -6.43808 0
M  V30 562 H 51.4005 0.418579 -5.98338 0
M  V30 563 H 53.0795 0.0766241 -6.46955 0
M  V30 564 N 53.2116 1.57565 -0.0334293 0
M  V30 565 C 54.6276 1.56297 0.322997 0
M  V30 566 C 54.8276 1.03945 1.7262 0
M  V30 567 O 53.8836 0.688109 2.42943 0
M  V30 568 C 55.1966 3.00232 0.167664 0
M  V30 569 C 56.7446 3.12078 0.240107 0
M  V30 570 C 57.2196 4.57859 0.113513 0
M  V30 571 N 58.7106 4.62887 0.170359 0
M  V30 572 C 59.4456 5.73319 0.0962517 0
M  V30 573 N 58.9416 6.92794 -0.0291881 0
M  V30 574 N 60.7346 5.61898 0.150551 0
M  V30 575 H 52.8856 1.89923 -0.950956 0
M  V30 576 H 55.1486 0.873824 -0.367608 0
M  V30 577 H 54.8546 3.42501 -0.799102 0
M  V30 578 H 54.7286 3.654 0.936083 0
M  V30 579 H 57.1156 2.69718 1.19733 0
M  V30 580 H 57.1966 2.49623 -0.558763 0
M  V30 581 H 56.8406 5.009 -0.840314 0
M  V30 582 H 56.7706 5.18299 0.931302 0
M  V30 583 H 59.2616 3.76954 0.26728 0
M  V30 584 H 59.5746 7.7276 -0.0789252 0
M  V30 585 H 57.9196 6.94971 -0.0640299 0
M  V30 586 H 61.1106 4.67448 0.246981 0
M  V30 587 H 61.2836 6.47938 0.0893365 0
M  V30 588 N 54.6897 -0.239769 1.55765 0
M  V30 589 C 55.6227 -1.32356 1.85895 0
M  V30 590 C 56.6007 -1.46053 0.714662 0
M  V30 591 O 57.7847 -1.62154 0.961157 0
M  V30 592 C 54.9117 -2.6962 2.04994 0
M  V30 593 C 53.9577 -2.73036 3.27648 0
M  V30 594 S 54.7907 -2.28929 4.84099 0
M  V30 595 C 55.9467 -3.68103 5.06212 0
M  V30 596 H 56.1797 -1.06601 2.77531 0
M  V30 597 H 53.7127 -0.441112 1.47965 0
M  V30 598 H 55.6707 -3.48653 2.16682 0
M  V30 599 H 54.3317 -2.92609 1.14188 0
M  V30 600 H 53.5247 -3.7386 3.38 0
M  V30 601 H 53.1267 -2.02052 3.14723 0
M  V30 602 H 55.4187 -4.63656 4.93993 0
M  V30 603 H 56.3617 -3.6268 6.08168 0
M  V30 604 H 56.7697 -3.60947 4.34025 0
M  V30 605 N 56.1678 -1.49265 -0.50573 0
M  V30 606 C 57.3958 -1.62215 -1.28429 0
M  V30 607 C 57.8108 -0.291697 -1.86533 0
M  V30 608 O 57.1678 0.722233 -1.67601 0
M  V30 609 C 57.2188 -2.68735 -2.41793 0
M  V30 610 O 56.9398 -3.96619 -1.86078 0
M  V30 611 C 58.4408 -2.92346 -3.3324 0
M  V30 612 H 55.6608 -0.546239 -0.389697 0
M  V30 613 H 58.2048 -1.95265 -0.607609 0
M  V30 614 H 56.3598 -2.38476 -3.053 0
M  V30 615 H 56.7738 -4.55256 -2.60465 0
M  V30 616 H 58.2478 -3.70623 -4.09075 0
M  V30 617 H 58.7248 -2.02081 -3.89948 0
M  V30 618 H 59.3308 -3.24003 -2.75503 0
M  V30 619 N 57.6459 0.756429 -1.3826 0
M  V30 620 C 58.5959 1.86069 -1.31766 0
M  V30 621 C 59.5799 1.59621 -0.202483 0
M  V30 622 O 60.7719 1.7149 -0.438211 0
M  V30 623 C 57.9009 3.23742 -1.1422 0
M  V30 624 C 56.9869 3.56091 -2.30348 0
M  V30 625 N 57.3779 3.59517 -3.55783 0
M  V30 626 C 55.6759 3.86341 -2.22838 0
M  V30 627 C 56.3769 3.89052 -4.32451 0
M  V30 628 N 55.3529 4.05736 -3.61772 0
M  V30 629 H 59.1549 1.86992 -2.26741 0
M  V30 630 H 56.6689 0.953643 -1.31451 0
M  V30 631 H 58.6659 4.02761 -1.07652 0
M  V30 632 H 57.3259 3.24073 -0.201763 0
M  V30 633 H 58.3369 3.41347 -3.89491 0
M  V30 634 H 55.0139 3.94404 -1.36937 0
M  V30 635 H 56.4039 3.98349 -5.4108 0
M  V30 636 N 59.124 1.23083 0.984299 0
M  V30 637 C 60.072 1.00593 2.09723 0
M  V30 638 C 61.066 -0.0538014 1.69315 0
M  V30 639 O 62.272 0.0993719 1.79725 0
M  V30 640 H 58.647 0.30817 0.685956 0
M  V30 641 H 60.618 1.95012 2.2586 0
M  V30 642 C 59.367 0.609601 3.42314 0
M  V30 643 H 58.69 1.41675 3.73856 0
M  V30 644 H 60.13 0.491726 4.21139 0
M  V30 645 C 58.589 -0.681745 3.2993 0
M  V30 646 O 59.119 -1.73192 3.62446 0
M  V30 647 N 57.325 -0.656178 2.83095 0
M  V30 648 H 56.872 0.198759 2.56832 0
M  V30 649 H 56.83 -1.52044 2.75191 0
M  V30 650 N 60.6021 -1.18246 1.0419 0
M  V30 651 C 61.5321 -2.24127 0.654914 0
M  V30 652 C 62.5131 -1.66617 -0.342451 0
M  V30 653 O 63.6981 -1.92924 -0.222277 0
M  V30 654 C 60.8281 -3.47295 0.0183757 0
M  V30 655 C 59.7821 -4.17563 0.939414 0
M  V30 656 C 59.1081 -5.34438 0.167286 0
M  V30 657 C 60.4081 -4.70917 2.25908 0
M  V30 658 H 62.1021 -2.56753 1.54007 0
M  V30 659 H 59.6481 -1.23414 0.74195 0
M  V30 660 H 61.6011 -4.20572 -0.264082 0
M  V30 661 H 60.3251 -3.13907 -0.901664 0
M  V30 662 H 58.9841 -3.46186 1.20628 0
M  V30 663 H 58.6321 -4.97298 -0.7552 0
M  V30 664 H 58.3321 -5.82388 0.780901 0
M  V30 665 H 59.8561 -6.10504 -0.108125 0
M  V30 666 H 61.2701 -5.35882 2.03724 0
M  V30 667 H 59.6671 -5.29406 2.82577 0
M  V30 668 H 60.7371 -3.88272 2.9047 0
M  V30 669 N 62.0802 -0.821533 -1.34494 0
M  V30 670 C 63.0102 -0.257138 -2.3208 0
M  V30 671 C 63.9912 0.625645 -1.58176 0
M  V30 672 O 65.1762 0.552811 -1.86166 0
M  V30 673 C 62.3062 0.582958 -3.42372 0
M  V30 674 C 61.2602 -0.202571 -4.2752 0
M  V30 675 C 60.5862 0.760179 -5.29269 0
M  V30 676 C 61.8862 -1.40998 -5.02908 0
M  V30 677 H 63.5802 -1.07247 -2.79532 0
M  V30 678 H 61.1262 -0.517163 -1.34393 0
M  V30 679 H 63.0792 0.987972 -4.09655 0
M  V30 680 H 61.8032 1.43133 -2.93565 0
M  V30 681 H 60.4622 -0.588936 -3.61838 0
M  V30 682 H 60.1102 1.60447 -4.76724 0
M  V30 683 H 59.8102 0.238809 -5.87115 0
M  V30 684 H 61.3342 1.16308 -5.9942 0
M  V30 685 H 62.7482 -1.07905 -5.63054 0
M  V30 686 H 61.1452 -1.86689 -5.70322 0
M  V30 687 H 62.2152 -2.1889 -4.32684 0
M  V30 688 N 63.5583 1.46682 -0.576371 0
M  V30 689 C 64.4883 2.33028 0.148397 0
M  V30 690 C 65.4693 1.44961 0.889956 0
M  V30 691 O 66.6543 1.73789 0.866662 0
M  V30 692 C 63.7843 3.27117 1.1667 0
M  V30 693 C 62.7383 4.24575 0.540386 0
M  V30 694 C 62.0643 5.08126 1.6647 0
M  V30 695 C 63.3643 5.19722 -0.518331 0
M  V30 696 H 65.0583 2.93875 -0.572509 0
M  V30 697 H 62.6043 1.41315 -0.276768 0
M  V30 698 H 64.5573 3.86374 1.68204 0
M  V30 699 H 63.2813 2.64364 1.9178 0
M  V30 700 H 61.9403 3.66571 0.0461769 0
M  V30 701 H 61.5883 4.41762 2.40531 0
M  V30 702 H 61.2883 5.74122 1.25131 0
M  V30 703 H 62.8123 5.70246 2.18293 0
M  V30 704 H 64.2263 5.73232 -0.0883058 0
M  V30 705 H 62.6233 5.94026 -0.851679 0
M  V30 706 H 63.6933 4.64037 -1.40703 0
M  V30 707 N 65.0364 0.313813 1.54444 0
M  V30 708 C 65.9844 -0.572171 2.25453 0
M  V30 709 C 66.9784 -1.12657 1.2651 0
M  V30 710 O 68.1844 -1.07573 1.44319 0
M  V30 711 H 64.5594 -0.203146 0.724041 0
M  V30 712 H 66.5304 0.0491145 2.9836 0
M  V30 713 C 65.2794 -1.72626 3.0182 0
M  V30 714 H 64.6024 -1.30891 3.77767 0
M  V30 715 H 66.0424 -2.32199 3.54767 0
M  V30 716 C 64.5014 -2.63806 2.09542 0
M  V30 717 O 65.0314 -3.65256 1.67185 0
M  V30 718 N 63.2374 -2.31824 1.75232 0
M  V30 719 H 62.7844 -1.49368 2.09873 0
M  V30 720 H 62.7424 -2.93095 1.13767 0
M  V30 721 N 66.5145 -1.57545 0.0417849 0
M  V30 722 C 67.7445 -1.96339 -0.642995 0
M  V30 723 C 68.1525 -0.917536 -1.65463 0
M  V30 724 O 67.4955 0.107747 -1.83384 0
M  V30 725 C 67.5575 -3.31333 -1.39494 0
M  V30 726 C 67.2215 -4.53796 -0.540204 0
M  V30 727 C 68.2185 -5.19553 0.189806 0
M  V30 728 C 65.9035 -5.0006 -0.473886 0
M  V30 729 C 67.8975 -6.29904 0.974674 0
M  V30 730 C 65.5845 -6.10289 0.314677 0
M  V30 731 C 66.5825 -6.75072 1.03765 0
M  V30 732 O 66.2705 -7.83183 1.81327 0
M  V30 733 H 66.0025 -0.651241 -0.181277 0
M  V30 734 H 68.5565 -2.05148 0.101665 0
M  V30 735 H 66.7865 -3.19052 -2.18502 0
M  V30 736 H 68.4755 -3.54942 -1.96904 0
M  V30 737 H 69.2415 -4.84774 0.147981 0
M  V30 738 H 65.1205 -4.49433 -1.0262 0
M  V30 739 H 68.6645 -6.80401 1.5395 0
M  V30 740 H 64.5615 -6.44506 0.358174 0
M  V30 741 H 65.3295 -7.99913 1.73438 0
M  V30 742 N 67.9926 0.231505 -1.5589 0
M  V30 743 C 69.2406 0.955461 -1.78088 0
M  V30 744 C 69.5616 1.85262 -0.608533 0
M  V30 745 O 68.8316 1.92277 0.375035 0
M  V30 746 H 67.4116 0.355787 -0.656829 0
M  V30 747 H 70.0736 0.245751 -1.93344 0
M  V30 748 H 69.1696 1.56814 -2.69844 0
M  V30 749 N 69.4707 1.49531 0.497807 0
M  V30 750 C 70.4007 1.6935 1.60757 0
M  V30 751 C 71.3817 0.542218 1.61227 0
M  V30 752 O 72.5667 0.778417 1.77917 0
M  V30 753 C 69.6967 1.76298 2.99226 0
M  V30 754 C 68.6507 2.91248 3.13622 0
M  V30 755 C 67.9767 2.83312 4.53474 0
M  V30 756 C 69.2767 4.3214 2.93346 0
M  V30 757 H 70.9707 2.62263 1.44425 0
M  V30 758 H 68.5167 1.26208 0.693367 0
M  V30 759 H 70.4697 1.88749 3.76765 0
M  V30 760 H 69.1937 0.799871 3.16654 0
M  V30 761 H 67.8527 2.78404 2.38509 0
M  V30 762 H 67.5007 1.84902 4.67782 0
M  V30 763 H 67.2007 3.60465 4.64046 0
M  V30 764 H 68.7247 2.97775 5.33069 0
M  V30 765 H 70.1387 4.45649 3.60652 0
M  V30 766 H 68.5357 5.1054 3.15387 0
M  V30 767 H 69.6057 4.46363 1.89441 0
M  V30 768 N 70.9488 -0.749086 1.3866 0
M  V30 769 C 72.1788 -1.53611 1.38157 0
M  V30 770 C 72.5868 -1.89177 -0.0293595 0
M  V30 771 O 71.9298 -1.53606 -1.00752 0
M  V30 772 C 71.9918 -2.86087 2.17702 0
M  V30 773 C 71.6558 -2.73034 3.66472 0
M  V30 774 C 72.6528 -2.42526 4.59866 0
M  V30 775 C 70.3378 -2.90345 4.09884 0
M  V30 776 C 72.3318 -2.29492 5.94653 0
M  V30 777 C 70.0188 -2.7693 5.4475 0
M  V30 778 C 71.0168 -2.46547 6.36949 0
M  V30 779 O 70.7048 -2.33199 7.69333 0
M  V30 780 H 70.4368 -0.481773 0.474205 0
M  V30 781 H 72.9908 -0.934465 1.82912 0
M  V30 782 H 71.2208 -3.48458 1.67672 0
M  V30 783 H 72.9098 -3.47625 2.09551 0
M  V30 784 H 73.6758 -2.28816 4.27631 0
M  V30 785 H 69.5548 -3.1299 3.38464 0
M  V30 786 H 73.0988 -2.05698 6.66584 0
M  V30 787 H 68.9958 -2.90215 5.76581 0
M  V30 788 H 69.7638 -2.48376 7.79905 0
M  V30 789 N 72.4269 -1.23603 -0.977757 0
M  V30 790 C 73.8429 -0.999251 -1.24447 0
M  V30 791 C 74.0429 0.298053 -1.99283 0
M  V30 792 O 73.0989 1.01681 -2.31122 0
M  V30 793 C 74.4119 -2.20784 -2.04144 0
M  V30 794 C 75.9599 -2.25303 -2.17273 0
M  V30 795 C 76.4349 -3.45755 -3.00362 0
M  V30 796 N 77.9259 -3.4601 -3.07947 0
M  V30 797 C 78.6609 -4.35868 -3.72568 0
M  V30 798 N 78.1569 -5.35966 -4.38991 0
M  V30 799 N 79.9499 -4.23605 -3.6948 0
M  V30 800 H 72.1009 -2.06986 -0.476483 0
M  V30 801 H 74.3639 -0.907801 -0.273134 0
M  V30 802 H 74.0699 -3.14945 -1.56533 0
M  V30 803 H 73.9439 -2.22085 -3.04891 0
M  V30 804 H 76.3309 -1.3168 -2.64092 0
M  V30 805 H 76.4119 -2.28033 -1.15907 0
M  V30 806 H 76.0559 -4.39687 -2.5424 0
M  V30 807 H 75.9859 -3.40266 -4.01904 0
M  V30 808 H 78.4769 -2.73588 -2.60688 0
M  V30 809 H 78.7899 -6.00783 -4.86086 0
M  V30 810 H 77.1349 -5.39863 -4.37691 0
M  V30 811 H 80.3259 -3.44647 -3.16759 0
M  V30 812 H 80.4989 -4.93836 -4.1956 0
M  V30 813 N 73.905 1.17692 -1.04816 0
M  V30 814 C 74.852 2.21581 -0.645797 0
M  V30 815 C 75.822 1.62367 0.350159 0
M  V30 816 O 77.007 1.89254 0.242433 0
M  V30 817 C 74.147 3.45092 -0.0227568 0
M  V30 818 C 73.26 4.18613 -1.06709 0
M  V30 819 C 72.395 5.29602 -0.411767 0
M  V30 820 C 71.434 5.94904 -1.44067 0
M  V30 821 N 70.571 6.97414 -0.809781 0
M  V30 822 H 75.411 2.55353 -1.5362 0
M  V30 823 H 72.948 1.25438 -0.768364 0
M  V30 824 H 74.906 4.15679 0.35588 0
M  V30 825 H 73.536 3.11917 0.831122 0
M  V30 826 H 72.588 3.46779 -1.5636 0
M  V30 827 H 73.9 4.63293 -1.84827 0
M  V30 828 H 73.054 6.06696 0.0206623 0
M  V30 829 H 71.793 4.86045 0.401438 0
M  V30 830 H 70.798 5.16544 -1.88316 0
M  V30 831 H 72.023 6.40542 -2.25571 0
M  V30 832 H 69.969 6.55998 -0.0170186 0
M  V30 833 H 69.886 7.40386 -1.52856 0
M  V30 834 H 71.154 7.78463 -0.401999 0
M  V30 835 N 75.3831 0.828654 1.34056 0
M  V30 836 C 76.3161 0.199763 2.27324 0
M  V30 837 C 77.2941 -0.647168 1.49166 0
M  V30 838 O 78.4781 -0.609661 1.78369 0
M  V30 839 C 75.6051 -0.720455 3.30949 0
M  V30 840 C 74.6511 0.0496888 4.26471 0
M  V30 841 S 75.4841 1.40072 5.16856 0
M  V30 842 C 76.6401 0.485527 6.24014 0
M  V30 843 H 76.8731 0.990478 2.80316 0
M  V30 844 H 74.4061 0.624857 1.41191 0
M  V30 845 H 76.3641 -1.24581 3.91139 0
M  V30 846 H 75.0251 -1.48474 2.76793 0
M  V30 847 H 74.2181 -0.650104 4.9979 0
M  V30 848 H 73.8201 0.505779 3.70564 0
M  V30 849 H 76.1121 -0.320672 6.76741 0
M  V30 850 H 77.0551 1.18856 6.98054 0
M  V30 851 H 77.4631 0.0714109 5.64455 0
M  V30 852 N 76.8612 -1.46375 0.584142 0
M  V30 853 C 77.7712 -2.34115 -0.150728 0
M  V30 854 C 78.7872 -1.49838 -0.884567 0
M  V30 855 O 79.9632 -1.82704 -0.847429 0
M  V30 856 C 77.0282 -3.2705 -1.15062 0
M  V30 857 C 76.0892 -4.27228 -0.421293 0
M  V30 858 C 75.3222 -5.15722 -1.37355 0
M  V30 859 O 75.5452 -5.07176 -2.61014 0
M  V30 860 O 74.4792 -5.95383 -0.883355 0
M  V30 861 H 78.3052 -2.98309 0.569708 0
M  V30 862 H 75.8902 -1.45373 0.344535 0
M  V30 863 H 77.7722 -3.84381 -1.72712 0
M  V30 864 H 76.4472 -2.65451 -1.8525 0
M  V30 865 H 75.3542 -3.7358 0.197085 0
M  V30 866 H 76.6872 -4.91616 0.239641 0
M  V30 867 N 78.3393 -0.321999 -1.54275 0
M  V30 868 C 79.5883 0.281931 -1.9972 0
M  V30 869 C 79.9013 1.53369 -1.21397 0
M  V30 870 O 81.1073 2.21352 -1.57211 0
M  V30 871 C 79.5633 0.5529 -3.55628 0
M  V30 872 C 79.1713 -0.681721 -4.42783 0
M  V30 873 C 80.9153 1.11687 -4.09544 0
M  V30 874 C 78.8223 -0.382742 -5.9016 0
M  V30 875 H 77.7523 0.109124 -0.746062 0
M  V30 876 H 80.4033 -0.43398 -1.78294 0
M  V30 877 H 78.7853 1.32896 -3.73035 0
M  V30 878 H 79.9593 -1.45723 -4.37151 0
M  V30 879 H 78.2743 -1.1658 -3.99748 0
M  V30 880 H 80.8713 1.35515 -5.17242 0
M  V30 881 H 81.2143 2.06575 -3.61431 0
M  V30 882 H 81.7473 0.402032 -3.95763 0
M  V30 883 H 78.4863 -1.30076 -6.42464 0
M  V30 884 H 78.0063 0.355094 -5.98748 0
M  V30 885 H 79.6853 0.00800157 -6.47 0
M  V30 886 N 79.8174 1.5752 -0.0501392 0
M  V30 887 C 81.0474 1.96678 0.632573 0
M  V30 888 C 81.4554 0.926298 1.64974 0
M  V30 889 O 80.7984 -0.09802 1.83438 0
M  V30 890 C 80.8604 3.32068 1.37735 0
M  V30 891 C 80.5244 4.54076 0.516131 0
M  V30 892 C 81.5214 5.19445 -0.217357 0
M  V30 893 C 79.2064 5.00304 0.44736 0
M  V30 894 C 81.2004 6.29378 -1.00807 0
M  V30 895 C 78.8874 6.10114 -0.347038 0
M  V30 896 C 79.8854 6.74512 -1.07344 0
M  V30 897 O 79.5734 7.82211 -1.85477 0
M  V30 898 H 79.3054 0.652193 0.177821 0
M  V30 899 H 81.8594 2.05091 -0.112543 0
M  V30 900 H 80.0894 3.20206 2.16807 0
M  V30 901 H 81.7784 3.55981 1.95019 0
M  V30 902 H 82.5444 4.84689 -0.173688 0
M  V30 903 H 78.4234 4.49971 1.00235 0
M  V30 904 H 81.9674 6.79575 -1.57556 0
M  V30 905 H 77.8644 6.44307 -0.392349 0
M  V30 906 H 78.6324 7.98982 -1.77678 0
M  V30 907 N 81.2955 -0.223234 1.56011 0
M  V30 908 C 82.7115 -0.572856 1.48965 0
M  V30 909 C 82.9115 -1.87225 0.74492 0
M  V30 910 O 81.9675 -2.50899 0.283896 0
M  V30 911 C 83.2805 -0.653646 2.9351 0
M  V30 912 C 84.8285 -0.744386 3.0402 0
M  V30 913 C 85.3035 -0.856535 4.49919 0
M  V30 914 N 86.7945 -0.9208 4.53955 0
M  V30 915 C 87.5295 -1.02726 5.64123 0
M  V30 916 N 87.0255 -1.09777 6.84047 0
M  V30 917 N 88.8185 -1.06226 5.51971 0
M  V30 918 H 80.9695 0.629462 2.02858 0
M  V30 919 H 83.2325 0.220621 0.921971 0
M  V30 920 H 82.9385 0.231518 3.50937 0
M  V30 921 H 82.8125 -1.51781 3.45315 0
M  V30 922 H 85.1995 -1.61999 2.46658 0
M  V30 923 H 85.2805 0.14541 2.55386 0
M  V30 924 H 84.9245 0.0146069 5.07898 0
M  V30 925 H 84.8545 -1.76172 4.96257 0
M  V30 926 H 87.3455 -0.876694 3.6759 0
M  V30 927 H 87.6585 -1.17872 7.63758 0
M  V30 928 H 86.0035 -1.06693 6.86762 0
M  V30 929 H 89.1945 -1.00382 4.5721 0
M  V30 930 H 89.3675 -1.14177 6.37862 0
M  V30 931 N 82.7736 -1.49793 -0.48987 0
M  V30 932 C 84.1846 -1.52914 -1.07118 0
M  V30 933 C 84.5356 -0.321738 -1.93544 0
M  V30 934 O 83.6606 0.567338 -2.08831 0
M  V30 935 C 84.2556 -2.771 -1.94938 0
M  V30 936 C 82.8146 -2.82963 -2.48212 0
M  V30 937 C 81.9616 -2.46972 -1.26096 0
M  V30 938 H 84.9126 -1.56329 -0.273289 0
M  V30 939 H 84.9336 -2.57892 -2.79771 0
M  V30 940 H 84.4456 -3.64959 -1.32009 0
M  V30 941 H 82.5466 -1.99411 -3.14748 0
M  V30 942 H 82.6596 -3.85406 -2.84603 0
M  V30 943 H 81.0236 -1.98994 -1.58976 0
M  V30 944 H 81.8066 -3.37118 -0.648581 0
M  V30 945 N 84.2517 0.741722 -1.39055 0
M  V30 946 C 85.2017 1.84661 -1.33732 0
M  V30 947 C 86.1857 1.59397 -0.219401 0
M  V30 948 O 87.3777 1.71015 -0.456375 0
M  V30 949 C 84.5067 3.22512 -1.17647 0
M  V30 950 C 83.5927 3.53628 -2.34112 0
M  V30 951 N 83.9837 3.55723 -3.59576 0
M  V30 952 C 82.2817 3.83956 -2.26923 0
M  V30 953 C 82.9827 3.84443 -4.36553 0
M  V30 954 N 81.9587 4.01877 -3.66055 0
M  V30 955 H 85.7607 1.84576 -2.28711 0
M  V30 956 H 83.2747 0.939647 -1.32455 0
M  V30 957 H 85.2717 4.01597 -1.11917 0
M  V30 958 H 83.9317 3.2384 -0.236124 0
M  V30 959 H 84.9427 3.37196 -3.93089 0
M  V30 960 H 81.6197 3.92929 -1.41113 0
M  V30 961 H 83.0097 3.92588 -5.45274 0
M  V30 962 N 85.7298 1.2412 0.971189 0
M  V30 963 C 86.6768 1.0305 2.06517 0
M  V30 964 C 87.6468 -0.0550666 1.66009 0
M  V30 965 O 88.8318 0.0988688 1.90544 0
M  V30 966 C 85.9718 0.637653 3.39158 0
M  V30 967 C 85.0848 1.79633 3.92882 0
M  V30 968 C 84.2198 1.34939 5.13775 0
M  V30 969 C 83.2588 2.47823 5.59687 0
M  V30 970 N 82.3958 2.04022 6.71803 0
M  V30 971 H 87.2358 1.96685 2.23873 0
M  V30 972 H 84.7728 0.979694 1.09729 0
M  V30 973 H 86.7308 0.390931 4.15364 0
M  V30 974 H 85.3608 -0.261693 3.21737 0
M  V30 975 H 84.4128 2.15681 3.13346 0
M  V30 976 H 85.7248 2.64466 4.22918 0
M  V30 977 H 84.8788 1.06134 5.97345 0
M  V30 978 H 83.6178 0.471557 4.85415 0
M  V30 979 H 82.6228 2.77392 4.74693 0
M  V30 980 H 83.8478 3.36158 5.90063 0
M  V30 981 H 81.7938 1.18632 6.45184 0
M  V30 982 H 81.7108 2.82409 7.01271 0
M  V30 983 H 82.9788 1.78347 7.58823 0
M  V30 984 N 87.2079 -1.17134 1.05439 0
M  V30 985 C 88.1709 -2.19439 0.661764 0
M  V30 986 C 89.1709 -1.58199 -0.288042 0
M  V30 987 O 90.3609 -1.74053 -0.0715803 0
M  V30 988 C 87.4929 -3.40889 -0.0276209 0
M  V30 989 H 88.6859 -2.55688 1.56728 0
M  V30 990 H 86.2389 -1.31259 0.848567 0
M  V30 991 H 86.9739 -3.10187 -0.94629 0
M  V30 992 H 86.7589 -3.86586 0.655238 0
M  V30 993 H 88.2489 -4.16603 -0.288342 0
M  V30 994 N 88.686 -0.835752 -1.33615 0
M  V30 995 C 89.914 -0.443344 -2.02094 0
M  V30 996 C 90.329 0.954522 -1.62894 0
M  V30 997 O 89.686 1.61982 -0.840723 0
M  V30 998 C 89.737 -0.550775 -3.5728 0
M  V30 999 O 89.458 -1.89356 -3.95065 0
M  V30 1000 C 90.959 -0.154919 -4.43029 0
M  V30 1001 H 88.179 -0.176359 -0.647409 0
M  V30 1002 H 90.723 -1.12746 -1.70612 0
M  V30 1003 H 88.878 0.0853997 -3.87306 0
M  V30 1004 H 89.292 -1.87687 -4.89769 0
M  V30 1005 H 90.766 -0.281144 -5.51284 0
M  V30 1006 H 91.243 0.902863 -4.2982 0
M  V30 1007 H 91.849 -0.765404 -4.18356 0
M  V30 1008 N 90.1641 1.46063 -0.591896 0
M  V30 1009 C 91.1271 2.28854 0.125973 0
M  V30 1010 C 92.1271 1.38903 0.810107 0
M  V30 1011 O 93.3171 1.61186 0.66066 0
M  V30 1012 C 90.4491 3.19526 1.1881 0
M  V30 1013 H 91.6421 2.93802 -0.601717 0
M  V30 1014 H 89.1951 1.52325 -0.350254 0
M  V30 1015 H 89.9301 2.59345 1.94707 0
M  V30 1016 H 89.7151 3.85766 0.701936 0
M  V30 1017 H 91.2051 3.81817 1.69132 0
M  V30 1018 N 91.6422 0.330177 1.54103 0
M  V30 1019 C 92.5522 -0.541534 2.28264 0
M  V30 1020 C 93.5682 -1.12351 1.32866 0
M  V30 1021 O 94.7442 -1.14206 1.65888 0
M  V30 1022 C 91.8092 -1.68322 3.03098 0
M  V30 1023 C 90.8702 -1.13238 4.14096 0
M  V30 1024 C 90.1032 -2.21966 4.85352 0
M  V30 1025 O 90.3262 -3.42437 4.56172 0
M  V30 1026 O 89.2602 -1.87013 5.7211 0
M  V30 1027 H 93.0862 0.060938 3.03639 0
M  V30 1028 H 90.6712 0.09565 1.49093 0
M  V30 1029 H 92.5532 -2.34777 3.49939 0
M  V30 1030 H 91.2282 -2.27176 2.30593 0
M  V30 1031 H 90.1352 -0.432736 3.71589 0
M  V30 1032 H 91.4682 -0.588898 4.88664 0
M  V30 1033 N 93.1203 -1.57491 0.0584922 0
M  V30 1034 C 94.0303 -2.15448 -0.928414 0
M  V30 1035 C 95.0463 -1.11416 -1.3365 0
M  V30 1036 O 96.2223 -1.4362 -1.41193 0
M  V30 1037 C 93.2873 -2.69393 -2.18239 0
M  V30 1038 C 92.3483 -3.88249 -1.83196 0
M  V30 1039 C 91.5813 -4.39613 -3.02616 0
M  V30 1040 O 91.8043 -3.90023 -4.16219 0
M  V30 1041 O 90.7383 -5.31111 -2.83204 0
M  V30 1042 H 94.5643 -3.00112 -0.465483 0
M  V30 1043 H 92.1493 -1.48499 -0.163826 0
M  V30 1044 H 94.0313 -3.04026 -2.91798 0
M  V30 1045 H 92.7063 -1.87796 -2.63656 0
M  V30 1046 H 91.6133 -3.58492 -1.06931 0
M  V30 1047 H 92.9463 -4.71098 -1.42573 0
M  V30 1048 N 94.5984 0.214957 -1.56127 0
M  V30 1049 C 95.5314 1.29382 -1.87977 0
M  V30 1050 C 96.5094 1.44897 -0.737807 0
M  V30 1051 O 97.6934 1.60605 -0.986833 0
M  V30 1052 C 94.8204 2.66325 -2.09258 0
M  V30 1053 C 93.8664 2.67789 -3.31951 0
M  V30 1054 S 94.6994 2.21198 -4.8768 0
M  V30 1055 C 95.8554 3.60003 -5.12004 0
M  V30 1056 H 96.0884 1.02173 -2.79192 0
M  V30 1057 H 93.6214 0.417516 -1.48648 0
M  V30 1058 H 95.5794 3.45162 -2.22201 0
M  V30 1059 H 94.2404 2.90755 -1.18829 0
M  V30 1060 H 93.4334 3.68436 -3.43906 0
M  V30 1061 H 93.0354 1.9702 -3.17898 0
M  V30 1062 H 95.3274 4.55739 -5.01307 0
M  V30 1063 H 96.2704 3.52959 -6.13861 0
M  V30 1064 H 96.6784 3.53996 -4.39712 0
M  V30 1065 N 96.0765 1.50051 0.48192 0
M  V30 1066 C 97.3045 1.64237 1.25832 0
M  V30 1067 C 97.7195 0.321336 1.86045 0
M  V30 1068 O 97.0765 -0.695478 1.68729 0
M  V30 1069 C 97.1275 2.72548 2.37487 0
M  V30 1070 O 96.8485 3.99529 1.79745 0
M  V30 1071 C 98.3495 2.9761 3.28547 0
M  V30 1072 H 95.5695 0.55237 0.380957 0
M  V30 1073 H 98.1135 1.96207 0.576467 0
M  V30 1074 H 96.2685 2.43303 3.01467 0
M  V30 1075 H 96.6825 4.59342 2.5319 0
M  V30 1076 H 98.1565 3.77084 4.03127 0
M  V30 1077 H 98.6335 2.0826 3.86684 0
M  V30 1078 H 99.2395 3.28345 2.70314 0
M  V30 1079 N 97.5546 -0.734337 1.39446 0
M  V30 1080 C 98.5016 -1.84835 1.38219 0
M  V30 1081 C 99.4716 -1.64331 0.24179 0
M  V30 1082 O 100.657 -1.85728 0.437002 0
M  V30 1083 C 97.7966 -3.22355 1.23212 0
M  V30 1084 C 96.9096 -3.5456 2.46801 0
M  V30 1085 C 96.0446 -4.81485 2.24377 0
M  V30 1086 C 95.0836 -5.06536 3.43639 0
M  V30 1087 N 94.2206 -6.24665 3.20528 0
M  V30 1088 H 99.0606 -1.85219 2.33448 0
M  V30 1089 H 96.5976 -0.905039 1.15963 0
M  V30 1090 H 98.5556 -4.0174 1.12522 0
M  V30 1091 H 97.1856 -3.21248 0.316121 0
M  V30 1092 H 96.2376 -2.69872 2.68092 0
M  V30 1093 H 97.5496 -3.6899 3.3563 0
M  V30 1094 H 96.7036 -5.68852 2.10933 0
M  V30 1095 H 95.4426 -4.6923 1.32944 0
M  V30 1096 H 94.4476 -4.17632 3.5758 0
M  V30 1097 H 95.6726 -5.20676 4.35974 0
M  V30 1098 H 93.6186 -6.13696 2.3176 0
M  V30 1099 H 93.5356 -6.39685 4.02913 0
M  V30 1100 H 94.8036 -7.14868 3.10779 0
M  V30 1101 N 99.0327 -1.24633 -0.964593 0
M  V30 1102 C 100.263 -1.11339 -1.74032 0
M  V30 1103 C 100.671 0.336593 -1.86182 0
M  V30 1104 O 100.014 1.24389 -1.35178 0
M  V30 1105 C 100.076 -1.68284 -3.1768 0
M  V30 1106 C 99.7397 -3.17196 -3.28992 0
M  V30 1107 C 100.737 -4.14308 -3.14078 0
M  V30 1108 C 98.4217 -3.57215 -3.53133 0
M  V30 1109 C 100.416 -5.4942 -3.23135 0
M  V30 1110 C 98.1027 -4.92468 -3.61827 0
M  V30 1111 C 99.1007 -5.8838 -3.46841 0
M  V30 1112 O 98.7887 -7.21173 -3.55197 0
M  V30 1113 H 98.5207 -0.389551 -0.552472 0
M  V30 1114 H 101.075 -1.65282 -1.21946 0
M  V30 1115 H 99.3047 -1.08777 -3.71085 0
M  V30 1116 H 100.994 -1.50234 -3.77074 0
M  V30 1117 H 101.76 -3.84731 -2.95308 0
M  V30 1118 H 97.6387 -2.83063 -3.63863 0
M  V30 1119 H 101.183 -6.24263 -3.11355 0
M  V30 1120 H 97.0797 -5.21714 -3.80111 0
M  V30 1121 H 97.8477 -7.29135 -3.71892 0
M  V30 1122 N 100.511 1.16574 -1.06058 0
M  V30 1123 C 101.461 2.18854 -0.63929 0
M  V30 1124 C 102.445 1.57505 0.328798 0
M  V30 1125 O 103.637 1.76408 0.144623 0
M  V30 1126 C 100.766 3.43291 -0.0247203 0
M  V30 1127 C 99.8518 4.11722 -1.01716 0
M  V30 1128 N 100.243 4.55841 -2.19186 0
M  V30 1129 C 98.5408 4.37872 -0.847569 0
M  V30 1130 C 99.2418 5.08751 -2.82042 0
M  V30 1131 N 98.2178 5.01489 -2.09784 0
M  V30 1132 H 102.02 2.5068 -1.53417 0
M  V30 1133 H 99.5338 1.32999 -0.931935 0
M  V30 1134 H 101.531 4.15856 0.294915 0
M  V30 1135 H 100.191 3.12954 0.865448 0
M  V30 1136 H 101.202 4.49649 -2.56975 0
M  V30 1137 H 97.8788 4.17499 -0.00918848 0
M  V30 1138 H 99.2688 5.52944 -3.81709 0
M  V30 1139 N 101.989 0.842826 1.3317 0
M  V30 1140 C 103.214 0.453129 2.02389 0
M  V30 1141 C 103.639 -0.939105 1.6298 0
M  V30 1142 O 102.997 -1.61472 0.8244 0
M  V30 1143 C 103.045 0.586094 3.55805 0
M  V30 1144 O 102.149 -0.386029 4.10589 0
M  V30 1145 H 101.49 0.183664 0.638094 0
M  V30 1146 H 104.02 1.13875 1.69981 0
M  V30 1147 H 104.03 0.469209 4.05293 0
M  V30 1148 H 102.705 1.6014 3.83833 0
M  V30 1149 H 101.282 -0.226371 3.72212 0
M  V30 1150 N 103.467 -1.45747 0.599634 0
M  V30 1151 C 104.744 -1.95585 0.0240846 0
M  V30 1152 C 105.124 -1.54217 -1.44154 0
M  V30 1153 O 104.472 -0.800903 -2.14004 0
M  V30 1154 C 104.682 -3.48344 0.21385 0
M  V30 1155 C 106.03 -4.24504 0.0904902 0
M  V30 1156 O 107.054 -3.55911 0.143558 0
M  V30 1157 O 105.913 -5.46491 -0.0310766 0
M  V30 1158 H 103.007 -0.82602 -0.0402478 0
M  V30 1159 H 105.553 -1.55951 0.669139 0
M  V30 1160 H 104.325 -3.71397 1.23206 0
M  V30 1161 H 103.948 -3.9485 -0.466842 0
M  V30 1162 N 104.945 -0.338344 -1.53925 0
M  V30 1163 C 105.855 0.529421 -2.28548 0
M  V30 1164 C 106.871 1.11645 -1.3346 0
M  V30 1165 O 108.047 1.13325 -1.66492 0
M  V30 1166 C 105.112 1.66713 -3.03987 0
M  V30 1167 C 104.173 1.11041 -4.14691 0
M  V30 1168 C 103.406 2.19389 -4.86522 0
M  V30 1169 O 103.629 3.40013 -4.57982 0
M  V30 1170 O 102.563 1.83976 -5.73094 0
M  V30 1171 H 106.389 -0.0770399 -3.03602 0
M  V30 1172 H 103.974 -0.103555 -1.49041 0
M  V30 1173 H 105.856 2.32918 -3.5118 0
M  V30 1174 H 104.531 2.25949 -2.31794 0
M  V30 1175 H 103.438 0.413024 -3.71813 0
M  V30 1176 H 104.771 0.562975 -4.8897 0
M  V30 1177 N 106.423 1.57458 -0.0668435 0
M  V30 1178 C 107.653 1.97337 0.611677 0
M  V30 1179 C 108.061 0.943744 1.63982 0
M  V30 1180 O 107.404 -0.0785584 1.83532 0
M  V30 1181 C 107.466 3.33511 1.34205 0
M  V30 1182 C 107.13 4.54598 0.467941 0
M  V30 1183 C 108.127 5.19186 -0.272439 0
M  V30 1184 C 105.812 5.0075 0.39427 0
M  V30 1185 C 107.806 6.28274 -1.07476 0
M  V30 1186 C 105.493 6.09711 -0.411729 0
M  V30 1187 C 106.491 6.73335 -1.14492 0
M  V30 1188 O 106.179 7.80199 -1.93763 0
M  V30 1189 H 105.911 0.654042 0.170893 0
M  V30 1190 H 108.465 2.04961 -0.134289 0
M  V30 1191 H 106.695 3.22487 2.13398 0
M  V30 1192 H 108.384 3.58029 1.91233 0
M  V30 1193 H 109.15 4.84477 -0.225086 0
M  V30 1194 H 105.029 4.51009 0.954569 0
M  V30 1195 H 108.573 6.77866 -1.64755 0
M  V30 1196 H 104.47 6.43854 -0.460664 0
M  V30 1197 H 105.238 7.97053 -1.86142 0
M  V30 1198 N 107.901 -0.206675 1.56239 0
M  V30 1199 C 109.15 -0.926964 1.79138 0
M  V30 1200 C 109.463 -1.84901 0.638043 0
M  V30 1201 O 110.669 -2.60906 0.751033 0
M  V30 1202 C 109.125 -1.6986 3.17294 0
M  V30 1203 C 108.733 -0.821956 4.40395 0
M  V30 1204 C 110.477 -2.40922 3.4951 0
M  V30 1205 C 108.384 -1.59179 5.69575 0
M  V30 1206 H 107.314 -0.349864 0.667915 0
M  V30 1207 H 109.965 -0.180487 1.8261 0
M  V30 1208 H 108.347 -2.48853 3.08039 0
M  V30 1209 H 109.521 -0.0715019 4.60745 0
M  V30 1210 H 107.836 -0.222741 4.15804 0
M  V30 1211 H 110.433 -2.99047 4.43255 0
M  V30 1212 H 110.776 -3.14542 2.72707 0
M  V30 1213 H 111.309 -1.68905 3.60161 0
M  V30 1214 H 108.048 -0.898589 6.49312 0
M  V30 1215 H 107.568 -2.31648 5.53262 0
M  V30 1216 H 109.247 -2.14862 6.10281 0
M  V30 1217 N 109.379 -1.50304 -0.473955 0
M  V30 1218 C 110.326 -1.68959 -1.57231 0
M  V30 1219 C 111.296 -0.530899 -1.57387 0
M  V30 1220 O 112.481 -0.761133 -1.74961 0
M  V30 1221 C 109.621 -1.7871 -2.95223 0
M  V30 1222 C 108.734 -3.06061 -3.04878 0
M  V30 1223 C 107.869 -3.06626 -4.33767 0
M  V30 1224 C 106.908 -4.28443 -4.37154 0
M  V30 1225 N 106.045 -4.26763 -5.5751 0
M  V30 1226 H 110.885 -2.6273 -1.40631 0
M  V30 1227 H 108.422 -1.30241 -0.683789 0
M  V30 1228 H 110.38 -1.82344 -3.75242 0
M  V30 1229 H 109.01 -0.883806 -3.10465 0
M  V30 1230 H 108.062 -3.11911 -2.17751 0
M  V30 1231 H 109.374 -3.96039 -3.0324 0
M  V30 1232 H 108.528 -3.08973 -5.22131 0
M  V30 1233 H 107.267 -2.14473 -4.3801 0
M  V30 1234 H 106.272 -4.2631 -3.47188 0
M  V30 1235 H 107.497 -5.2182 -4.34605 0
M  V30 1236 H 105.443 -3.37462 -5.62544 0
M  V30 1237 H 105.36 -5.10507 -5.57601 0
M  V30 1238 H 106.628 -4.33253 -6.48006 0
M  V30 1239 N 110.857 0.726932 -1.39834 0
M  V30 1240 C 112.104 1.48664 -1.37496 0
M  V30 1241 C 112.432 1.94482 0.0264678 0
M  V30 1242 O 111.687 1.67692 1.00886 0
M  V30 1243 C 111.986 2.73495 -2.30077 0
M  V30 1244 C 111.652 2.46502 -3.77555 0
M  V30 1245 C 110.314 2.3885 -4.17737 0
M  V30 1246 C 112.666 2.23604 -4.70798 0
M  V30 1247 C 109.994 2.06352 -5.49214 0
M  V30 1248 C 112.346 1.92622 -6.02561 0
M  V30 1249 C 111.01 1.83444 -6.41798 0
M  V30 1250 H 110.28 0.544001 -0.503135 0
M  V30 1251 H 112.927 0.833657 -1.72402 0
M  V30 1252 H 111.232 3.43575 -1.88317 0
M  V30 1253 H 112.929 3.31549 -2.25558 0
M  V30 1254 H 109.519 2.5334 -3.45712 0
M  V30 1255 H 113.703 2.28479 -4.40581 0
M  V30 1256 H 108.959 1.97776 -5.78528 0
M  V30 1257 H 113.133 1.73914 -6.74334 0
M  V30 1258 H 110.76 1.58029 -7.43593 0
M  V30 1259 N 112.336 1.25143 0.95797 0
M  V30 1260 C 113.266 1.07711 2.07173 0
M  V30 1261 C 114.247 -0.0128462 1.70095 0
M  V30 1262 O 115.432 0.156061 1.93572 0
M  V30 1263 C 112.562 0.691503 3.40346 0
M  V30 1264 C 111.516 1.73132 3.9142 0
M  V30 1265 C 110.842 1.20049 5.21049 0
M  V30 1266 C 112.142 3.1294 4.1817 0
M  V30 1267 H 113.836 2.00873 2.22014 0
M  V30 1268 H 111.382 0.967191 1.06684 0
M  V30 1269 H 113.335 0.556505 4.17709 0
M  V30 1270 H 112.059 -0.275819 3.25433 0
M  V30 1271 H 110.718 1.8547 3.16222 0
M  V30 1272 H 110.366 0.223499 5.02503 0
M  V30 1273 H 110.066 1.89545 5.56189 0
M  V30 1274 H 111.59 1.07782 6.01012 0
M  V30 1275 H 113.004 3.03775 4.86203 0
M  V30 1276 H 111.401 3.79875 4.64559 0
M  V30 1277 H 112.471 3.6025 3.24573 0
M  V30 1278 N 113.814 -1.1601 1.06675 0
M  V30 1279 C 115.23 -1.38622 0.790948 0
M  V30 1280 C 115.43 -1.92109 -0.607965 0
M  V30 1281 O 114.486 -2.12239 -1.36787 0
M  V30 1282 C 115.799 -2.36347 1.85905 0
M  V30 1283 C 117.347 -2.50023 1.88301 0
M  V30 1284 C 117.822 -3.51033 2.94176 0
M  V30 1285 N 119.313 -3.58563 2.93235 0
M  V30 1286 C 120.048 -4.36521 3.71803 0
M  V30 1287 N 119.544 -5.17869 4.602 0
M  V30 1288 N 121.337 -4.31541 3.60178 0
M  V30 1289 H 113.488 -0.796294 1.96908 0
M  V30 1290 H 115.751 -0.412597 0.853503 0
M  V30 1291 H 115.457 -2.04147 2.86386 0
M  V30 1292 H 115.331 -3.36042 1.71334 0
M  V30 1293 H 117.718 -2.81524 0.884769 0
M  V30 1294 H 117.799 -1.5035 2.06951 0
M  V30 1295 H 117.443 -3.20268 3.94196 0
M  V30 1296 H 117.373 -4.50445 2.72776 0
M  V30 1297 H 119.864 -3.00496 2.29152 0
M  V30 1298 H 120.177 -5.74578 5.16797 0
M  V30 1299 H 118.522 -5.17199 4.64253 0
M  V30 1300 H 121.713 -3.67051 2.90502 0
M  V30 1301 H 121.886 -4.9205 4.21653 0
M  V30 1302 N 115.292 -0.849877 -1.32721 0
M  V30 1303 C 116.517 -0.463856 -2.02146 0
M  V30 1304 C 116.942 0.930449 -1.63476 0
M  V30 1305 O 116.3 1.61033 -0.832952 0
M  V30 1306 C 116.348 -0.604955 -3.55489 0
M  V30 1307 O 115.452 0.36425 -4.10788 0
M  V30 1308 H 114.793 -0.187046 -0.637111 0
M  V30 1309 H 117.323 -1.14775 -1.69375 0
M  V30 1310 H 117.333 -0.490696 -4.05038 0
M  V30 1311 H 116.008 -1.62174 -3.82978 0
M  V30 1312 H 114.585 0.206628 -3.72327 0
M  V30 1313 N 116.77 1.45427 -0.607355 0
M  V30 1314 C 118.019 2.01452 -0.100036 0
M  V30 1315 C 118.332 1.48159 1.27704 0
M  V30 1316 O 119.538 1.96159 1.87707 0
M  V30 1317 C 117.994 3.59672 -0.128158 0
M  V30 1318 C 117.602 4.21962 -1.50507 0
M  V30 1319 C 119.346 4.23262 0.323932 0
M  V30 1320 C 117.253 5.72333 -1.48959 0
M  V30 1321 H 116.183 0.75325 -0.0336299 0
M  V30 1322 H 118.834 1.66901 -0.76265 0
M  V30 1323 H 117.216 3.91411 0.601105 0
M  V30 1324 H 118.39 4.01796 -2.25602 0
M  V30 1325 H 116.705 3.70565 -1.89923 0
M  V30 1326 H 119.302 5.33522 0.354691 0
M  V30 1327 H 119.645 3.93921 1.34656 0
M  V30 1328 H 120.178 3.96239 -0.352056 0
M  V30 1329 H 116.917 6.06373 -2.48981 0
M  V30 1330 H 116.437 5.94691 -0.781214 0
M  V30 1331 H 118.116 6.35525 -1.21313 0
M  V30 1332 N 118.248 0.346503 1.53744 0
M  V30 1333 C 119.664 -0.00530975 1.59599 0
M  V30 1334 C 119.864 -1.48465 1.36236 0
M  V30 1335 O 118.92 -2.24376 1.15808 0
M  V30 1336 C 120.233 0.433516 2.97559 0
M  V30 1337 C 121.781 0.386111 3.10609 0
M  V30 1338 C 122.256 0.800451 4.50951 0
M  V30 1339 N 123.747 0.754753 4.5701 0
M  V30 1340 C 124.482 1.04727 5.63755 0
M  V30 1341 N 123.978 1.4081 6.7834 0
M  V30 1342 N 125.771 0.971316 5.53644 0
M  V30 1343 H 117.922 1.31009 1.67184 0
M  V30 1344 H 120.185 0.534242 0.783128 0
M  V30 1345 H 119.891 1.46509 3.19731 0
M  V30 1346 H 119.765 -0.189753 3.76722 0
M  V30 1347 H 122.152 -0.636295 2.88158 0
M  V30 1348 H 122.233 1.04462 2.33498 0
M  V30 1349 H 121.877 1.82088 4.74137 0
M  V30 1350 H 121.807 0.119386 5.26465 0
M  V30 1351 H 124.298 0.488662 3.74727 0
M  V30 1352 H 124.611 1.61607 7.55714 0
M  V30 1353 H 122.956 1.44657 6.79779 0
M  V30 1354 H 126.147 0.688748 4.63005 0
M  V30 1355 H 126.32 1.20263 6.36742 0
M  V30 1356 N 119.726 -1.57421 0.075193 0
M  V30 1357 C 121.137 -1.81021 -0.456964 0
M  V30 1358 C 121.488 -0.98936 -1.69429 0
M  V30 1359 O 120.613 -0.212865 -2.15351 0
M  V30 1360 C 121.208 -3.28329 -0.83581 0
M  V30 1361 C 119.767 -3.52764 -1.31281 0
M  V30 1362 C 118.914 -2.75676 -0.299648 0
M  V30 1363 H 121.865 -1.55822 0.300856 0
M  V30 1364 H 121.886 -3.40564 -1.69696 0
M  V30 1365 H 121.398 -3.88046 0.0649238 0
M  V30 1366 H 119.499 -2.98355 -2.23193 0
M  V30 1367 H 119.612 -4.61451 -1.28839 0
M  V30 1368 H 117.976 -2.42538 -0.777641 0
M  V30 1369 H 118.759 -3.38132 0.593417 0
M  V30 1370 N 121.204 0.198386 -1.56346 0
M  V30 1371 C 122.481 0.944982 -1.71258 0
M  V30 1372 C 122.861 2.0151 -0.629048 0
M  V30 1373 O 122.209 2.25639 0.360473 0
M  V30 1374 C 122.419 1.5344 -3.1346 0
M  V30 1375 C 123.767 2.01778 -3.73591 0
M  V30 1376 O 124.791 1.63288 -3.16568 0
M  V30 1377 O 123.65 2.72594 -4.73661 0
M  V30 1378 H 120.744 0.442939 -0.69838 0
M  V30 1379 H 123.29 0.188342 -1.68652 0
M  V30 1380 H 122.062 0.762869 -3.83792 0
M  V30 1381 H 121.685 2.35596 -3.20282 0
M  V30 1382 N 122.682 1.50554 0.465978 0
M  V30 1383 C 123.63 1.70324 1.58406 0
M  V30 1384 C 124.624 0.569139 1.59553 0
M  V30 1385 O 125.83 0.749776 1.63641 0
M  V30 1386 H 122.205 0.537688 0.525734 0
M  V30 1387 H 124.176 2.64104 1.38894 0
M  V30 1388 C 122.925 1.81928 2.96307 0
M  V30 1389 H 122.248 2.68586 2.96144 0
M  V30 1390 H 123.688 1.99784 3.73982 0
M  V30 1391 C 122.147 0.572095 3.32007 0
M  V30 1392 O 122.677 -0.286416 4.00678 0
M  V30 1393 N 120.883 0.424606 2.87481 0
M  V30 1394 H 120.43 1.12427 2.31771 0
M  V30 1395 H 120.388 -0.408697 3.11732 0
M  V30 1396 N 124.16 -0.719506 1.40217 0
M  V30 1397 C 125.093 -1.84298 1.34571 0
M  V30 1398 C 126.071 -1.61149 0.216741 0
M  V30 1399 O 127.255 -1.84212 0.399756 0
M  V30 1400 C 124.382 -3.20568 1.09335 0
M  V30 1401 C 123.428 -3.62551 2.24631 0
M  V30 1402 S 124.261 -3.7012 3.87004 0
M  V30 1403 C 125.417 -5.09154 3.64024 0
M  V30 1404 H 125.65 -1.88807 2.2965 0
M  V30 1405 H 123.183 -0.885901 1.26456 0
M  V30 1406 H 125.141 -3.99246 0.954602 0
M  V30 1407 H 123.802 -3.13696 0.159164 0
M  V30 1408 H 122.995 -4.61483 2.02606 0
M  V30 1409 H 122.597 -2.91119 2.34789 0
M  V30 1410 H 124.889 -5.95955 3.22248 0
M  V30 1411 H 125.832 -5.36213 4.62473 0
M  V30 1412 H 126.24 -4.79562 2.97793 0
M  V30 1413 N 125.638 -1.25649 -0.95132 0
M  V30 1414 C 126.863 -1.13443 -1.73624 0
M  V30 1415 C 127.288 0.307565 -1.85568 0
M  V30 1416 O 126.646 1.22282 -1.33854 0
M  V30 1417 C 126.694 -1.79723 -3.12621 0
M  V30 1418 O 125.798 -1.07912 -3.98031 0
M  V30 1419 H 125.139 -0.395872 -0.533086 0
M  V30 1420 H 127.669 -1.66276 -1.1922 0
M  V30 1421 H 127.679 -1.86141 -3.63064 0
M  V30 1422 H 126.354 -2.84633 -3.03244 0
M  V30 1423 H 124.931 -1.09398 -3.56492 0
M  V30 1424 N 127.117 1.15442 -1.07289 0
M  V30 1425 C 128.027 2.23786 -0.704057 0
M  V30 1426 C 129.043 1.7166 0.284413 0
M  V30 1427 O 130.219 2.00972 0.131205 0
M  V30 1428 C 127.284 3.46535 -0.106792 0
M  V30 1429 C 126.345 4.13654 -1.14842 0
M  V30 1430 C 125.578 5.30544 -0.57956 0
M  V30 1431 O 125.801 5.67187 0.604585 0
M  V30 1432 O 124.735 5.87154 -1.32414 0
M  V30 1433 H 128.561 2.57664 -1.60757 0
M  V30 1434 H 126.146 1.23152 -0.845803 0
M  V30 1435 H 128.028 4.20804 0.224048 0
M  V30 1436 H 126.703 3.14407 0.770049 0
M  V30 1437 H 125.61 3.4131 -1.5316 0
M  V30 1438 H 126.943 4.49861 -1.99714 0
M  V30 1439 N 128.595 0.856903 1.32268 0
M  V30 1440 C 129.825 0.47475 2.01071 0
M  V30 1441 C 130.233 -0.933746 1.64553 0
M  V30 1442 O 129.576 -1.62114 0.863989 0
M  V30 1443 C 129.638 0.536746 3.55471 0
M  V30 1444 C 129.302 1.90453 4.15423 0
M  V30 1445 C 130.299 2.87029 4.33486 0
M  V30 1446 C 127.984 2.20229 4.51447 0
M  V30 1447 C 129.978 4.11532 4.86744 0
M  V30 1448 C 127.665 3.44984 5.0441 0
M  V30 1449 C 128.663 4.40452 5.22007 0
M  V30 1450 O 128.351 5.62998 5.73837 0
M  V30 1451 H 128.083 0.184778 0.650256 0
M  V30 1452 H 130.637 1.15615 1.69771 0
M  V30 1453 H 128.867 -0.20152 3.86175 0
M  V30 1454 H 130.556 0.169875 4.05544 0
M  V30 1455 H 131.322 2.6533 4.05986 0
M  V30 1456 H 127.201 1.46705 4.37034 0
M  V30 1457 H 130.745 4.86056 5.00395 0
M  V30 1458 H 126.642 3.66532 5.31342 0
M  V30 1459 H 127.41 5.64987 5.92226 0
M  V30 1460 N 130.073 -1.45103 0.615059 0
M  V30 1461 C 131.298 -2.07064 0.117988 0
M  V30 1462 C 131.723 -1.4554 -1.19163 0
M  V30 1463 O 131.081 -0.550855 -1.72729 0
M  V30 1464 C 131.129 -3.606 -0.000288387 0
M  V30 1465 O 130.233 -3.98847 -1.04856 0
M  V30 1466 H 129.574 -0.659467 0.0774581 0
M  V30 1467 H 132.104 -1.86236 0.847186 0
M  V30 1468 H 132.114 -4.07529 -0.196091 0
M  V30 1469 H 130.789 -4.04765 0.955932 0
M  V30 1470 H 129.366 -3.63577 -0.828619 0
M  V30 1471 N 131.551 -0.354651 -1.53558 0
M  V30 1472 C 132.498 0.496968 -2.25386 0
M  V30 1473 C 133.468 1.0865 -1.25636 0
M  V30 1474 O 134.653 1.12104 -1.54394 0
M  V30 1475 C 131.793 1.63637 -3.03837 0
M  V30 1476 C 130.906 1.07307 -4.18461 0
M  V30 1477 C 130.041 2.18068 -4.84376 0
M  V30 1478 C 129.08 1.59147 -5.91049 0
M  V30 1479 N 128.217 2.63695 -6.50699 0
M  V30 1480 H 133.057 -0.122075 -2.9775 0
M  V30 1481 H 130.594 -0.0720154 -1.46924 0
M  V30 1482 H 132.552 2.30734 -3.47589 0
M  V30 1483 H 131.182 2.22623 -2.33749 0
M  V30 1484 H 130.234 0.292708 -3.79272 0
M  V30 1485 H 131.546 0.602193 -4.95152 0
M  V30 1486 H 130.7 2.93007 -5.31255 0
M  V30 1487 H 129.439 2.68504 -4.07133 0
M  V30 1488 H 128.444 0.827175 -5.43542 0
M  V30 1489 H 129.669 1.09549 -6.70206 0
M  V30 1490 H 127.615 3.13365 -5.76315 0
M  V30 1491 H 127.532 2.21263 -7.22896 0
M  V30 1492 H 128.8 3.3837 -7.02229 0
M  V30 1493 N 133.029 1.57378 -0.0835403 0
M  V30 1494 C 133.961 2.10389 0.909338 0
M  V30 1495 C 134.974 1.03858 1.25369 0
M  V30 1496 O 136.163 1.31338 1.20882 0
M  V30 1497 C 133.263 2.55908 2.2218 0
M  V30 1498 C 132.436 3.86145 2.05453 0
M  V30 1499 C 131.495 4.17633 3.20108 0
M  V30 1500 O 130.521 4.87043 2.94581 0
M  V30 1501 N 131.723 3.72113 4.45547 0
M  V30 1502 H 134.488 2.962 0.456657 0
M  V30 1503 H 132.049 1.61579 0.101877 0
M  V30 1504 H 134.041 2.74027 2.97811 0
M  V30 1505 H 132.611 1.75171 2.58909 0
M  V30 1506 H 131.831 3.7729 1.1422 0
M  V30 1507 H 133.119 4.7137 1.91541 0
M  V30 1508 H 132.517 3.16062 4.69171 0
M  V30 1509 H 131.074 3.95409 5.18165 0
M  V30 1510 N 134.507 -0.190092 1.56449 0
M  V30 1511 C 135.44 -1.26375 1.90012 0
M  V30 1512 C 136.418 -1.43705 0.760765 0
M  V30 1513 O 137.602 -1.59014 1.01226 0
M  V30 1514 C 134.729 -2.62962 2.13468 0
M  V30 1515 C 133.775 -2.62474 3.36169 0
M  V30 1516 S 134.608 -2.13412 4.91137 0
M  V30 1517 C 135.764 -3.51812 5.17667 0
M  V30 1518 H 135.997 -0.977181 2.80782 0
M  V30 1519 H 133.53 -0.393814 1.49293 0
M  V30 1520 H 135.488 -3.41583 2.27664 0
M  V30 1521 H 134.149 -2.88828 1.23439 0
M  V30 1522 H 133.342 -3.62918 3.49723 0
M  V30 1523 H 132.944 -1.91937 3.20992 0
M  V30 1524 H 135.236 -4.47706 5.08494 0
M  V30 1525 H 136.179 -3.43148 6.19399 0
M  V30 1526 H 136.587 -3.46956 4.45288 0
M  V30 1527 N 135.985 -1.50799 -0.457987 0
M  V30 1528 C 136.917 -1.66786 -1.57211 0
M  V30 1529 C 137.93 -0.548962 -1.53265 0
M  V30 1530 O 139.119 -0.8226 -1.58416 0
M  V30 1531 C 136.219 -1.64834 -2.96113 0
M  V30 1532 C 135.392 -2.92971 -3.24787 0
M  V30 1533 C 134.451 -2.83485 -4.43309 0
M  V30 1534 O 133.477 -3.5744 -4.42973 0
M  V30 1535 N 134.679 -1.97929 -5.45714 0
M  V30 1536 H 137.444 -2.62889 -1.43909 0
M  V30 1537 H 135.005 -1.48427 -0.646617 0
M  V30 1538 H 136.997 -1.56084 -3.7339 0
M  V30 1539 H 135.567 -0.764118 -3.03117 0
M  V30 1540 H 134.787 -3.15749 -2.36 0
M  V30 1541 H 136.075 -3.77834 -3.40762 0
M  V30 1542 H 135.473 -1.37182 -5.48815 0
M  V30 1543 H 134.03 -1.95073 -6.21924 0
M  V30 1544 N 137.463 0.71206 -1.40597 0
M  V30 1545 C 138.879 1.02058 -1.22704 0
M  V30 1546 C 139.079 2.01228 -0.104729 0
M  V30 1547 O 138.135 2.4674 0.53624 0
M  V30 1548 C 139.448 1.56094 -2.57012 0
M  V30 1549 C 140.996 1.6806 -2.64054 0
M  V30 1550 C 141.471 2.25501 -3.9864 0
M  V30 1551 N 142.962 2.32882 -4.004 0
M  V30 1552 C 143.697 2.78317 -5.01325 0
M  V30 1553 N 143.193 3.23478 -6.12645 0
M  V30 1554 N 144.986 2.77733 -4.88693 0
M  V30 1555 H 137.137 0.0547896 -2.12329 0
M  V30 1556 H 139.4 0.0869027 -0.944008 0
M  V30 1557 H 139.106 0.906865 -3.39807 0
M  V30 1558 H 138.98 2.54564 -2.78347 0
M  V30 1559 H 141.367 2.32583 -1.81629 0
M  V30 1560 H 141.448 0.681802 -2.46546 0
M  V30 1561 H 141.092 1.61598 -4.81506 0
M  V30 1562 H 141.022 3.26102 -4.13479 0
M  V30 1563 H 143.513 2.00991 -3.20017 0
M  V30 1564 H 143.826 3.56725 -6.85542 0
M  V30 1565 H 142.171 3.21429 -6.16205 0
M  V30 1566 H 145.362 2.4179 -4.00818 0
M  V30 1567 H 145.535 3.12826 -5.67489 0
M  V30 1568 N 138.941 1.26152 0.944643 0
M  V30 1569 C 140.188 1.11492 1.69044 0
M  V30 1570 C 140.516 -0.342366 1.91463 0
M  V30 1571 O 139.771 -1.26812 1.49054 0
M  V30 1572 C 140.07 1.82541 3.07268 0
M  V30 1573 C 139.736 3.32445 3.04616 0
M  V30 1574 C 138.398 3.73337 3.036 0
M  V30 1575 C 140.75 4.28171 2.97185 0
M  V30 1576 C 138.078 5.08348 2.92915 0
M  V30 1577 C 140.43 5.63218 2.88041 0
M  V30 1578 C 139.094 6.03426 2.85366 0
M  V30 1579 H 138.364 0.407977 0.618576 0
M  V30 1580 H 141.011 1.56551 1.10291 0
M  V30 1581 H 139.316 1.29941 3.69625 0
M  V30 1582 H 141.013 1.68642 3.63815 0
M  V30 1583 H 137.603 2.99915 3.06185 0
M  V30 1584 H 141.787 3.97563 2.97081 0
M  V30 1585 H 137.043 5.38667 2.89219 0
M  V30 1586 H 141.217 6.37078 2.81254 0
M  V30 1587 H 138.844 7.07999 2.76842 0
M  V30 1588 N 140.419 -1.14872 1.07899 0
M  V30 1589 C 141.367 -2.21857 0.698727 0
M  V30 1590 C 142.361 -1.66845 -0.293086 0
M  V30 1591 O 143.567 -1.79321 -0.156204 0
M  V30 1592 H 139.942 -0.722691 0.207899 0
M  V30 1593 H 141.913 -2.51205 1.61054 0
M  V30 1594 C 140.662 -3.47498 0.11858 0
M  V30 1595 H 139.985 -3.90154 0.872914 0
M  V30 1596 H 141.425 -4.23858 -0.109759 0
M  V30 1597 C 139.884 -3.16947 -1.1422 0
M  V30 1598 O 140.414 -3.3426 -2.22785 0
M  V30 1599 N 138.62 -2.70946 -1.05055 0
M  V30 1600 H 138.167 -2.57058 -0.167038 0
M  V30 1601 H 138.125 -2.50879 -1.89491 0
M  V30 1602 N 141.898 -0.863906 -1.31812 0
M  V30 1603 C 143.144 -0.472535 -1.97218 0
M  V30 1604 C 143.477 0.971394 -1.68159 0
M  V30 1605 O 142.752 1.68309 -0.974798 0
M  V30 1606 C 143.035 -0.723054 -3.52766 0
M  V30 1607 C 142.888 -2.21608 -3.91421 0
M  V30 1608 C 144.207 -0.185522 -4.39709 0
M  V30 1609 H 141.326 -0.173158 -0.71637 0
M  V30 1610 H 143.968 -1.08403 -1.56041 0
M  V30 1611 H 142.118 -0.202577 -3.87971 0
M  V30 1612 H 143.79 -2.80334 -3.66347 0
M  V30 1613 H 142.033 -2.691 -3.40246 0
M  V30 1614 H 142.704 -2.34203 -4.99853 0
M  V30 1615 H 145.18 -0.630726 -4.11292 0
M  V30 1616 H 144.056 -0.390306 -5.47511 0
M  V30 1617 H 144.317 0.912229 -4.32586 0
M  V30 1618 N 143.376 1.44774 -0.622745 0
M  V30 1619 C 144.624 2.01721 -0.123655 0
M  V30 1620 C 144.945 1.49172 1.25589 0
M  V30 1621 O 144.215 0.691974 1.83272 0
M  V30 1622 H 142.795 0.745777 -0.0427225 0
M  V30 1623 H 145.457 1.77382 -0.807559 0
M  V30 1624 H 144.553 3.11984 -0.0849534 0
M  V30 1625 N 144.854 0.36279 1.53368 0
M  V30 1626 C 145.764 -0.492994 2.29362 0
M  V30 1627 C 146.78 -1.09507 1.35219 0
M  V30 1628 O 147.956 -1.10662 1.68273 0
M  V30 1629 C 145.021 -1.61855 3.066 0
M  V30 1630 C 144.082 -1.04429 4.16405 0
M  V30 1631 C 143.315 -2.11621 4.89951 0
M  V30 1632 O 143.538 -3.32684 4.63333 0
M  V30 1633 O 142.472 -1.74835 5.75948 0
M  V30 1634 H 146.298 0.125331 3.03441 0
M  V30 1635 H 143.883 0.127253 1.48857 0
M  V30 1636 H 145.765 -2.27302 3.54841 0
M  V30 1637 H 144.44 -2.22233 2.3536 0
M  V30 1638 H 143.347 -0.353819 3.72423 0
M  V30 1639 H 144.68 -0.485113 4.89804 0
M  V30 1640 N 146.332 -1.57332 0.0918853 0
M  V30 1641 C 147.609 -1.85691 -0.614668 0
M  V30 1642 C 147.989 -0.988146 -1.86545 0
M  V30 1643 O 147.337 -0.0597055 -2.28422 0
M  V30 1644 C 147.547 -3.36294 -0.933126 0
M  V30 1645 C 148.895 -4.04275 -1.29796 0
M  V30 1646 O 149.919 -3.41157 -1.02424 0
M  V30 1647 O 148.778 -5.1564 -1.81047 0
M  V30 1648 H 145.872 -0.767802 -0.307261 0
M  V30 1649 H 148.418 -1.69244 0.12434 0
M  V30 1650 H 147.19 -3.91273 -0.0456404 0
M  V30 1651 H 146.813 -3.58076 -1.72822 0
M  V30 1652 N 147.81 0.181792 -1.56548 0
M  V30 1653 C 149.05 0.906711 -1.83189 0
M  V30 1654 C 149.414 1.79882 -0.671312 0
M  V30 1655 O 150.615 2.56054 -0.81792 0
M  V30 1656 C 148.886 1.69023 -3.14906 0
M  V30 1657 S 150.445 2.46535 -3.62996 0
M  V30 1658 H 147.263 0.303877 -0.642791 0
M  V30 1659 H 149.865 0.169107 -1.94767 0
M  V30 1660 H 148.569 1.02571 -3.97376 0
M  V30 1661 H 148.1 2.46941 -3.06241 0
M  V30 1662 H 150.115 3.71014 -3.29489 0
M  V30 1663 N 149.288 1.51039 0.449983 0
M  V30 1664 C 150.699 1.557 1.03026 0
M  V30 1665 C 151.05 0.372939 1.92623 0
M  V30 1666 O 150.175 -0.511771 2.10261 0
M  V30 1667 C 150.77 2.82171 1.87523 0
M  V30 1668 C 149.329 2.89444 2.40622 0
M  V30 1669 C 148.476 2.50228 1.19504 0
M  V30 1670 H 151.427 1.56999 0.231745 0
M  V30 1671 H 151.448 2.65219 2.72835 0
M  V30 1672 H 150.96 3.68331 1.22286 0
M  V30 1673 H 149.061 2.07685 3.0935 0
M  V30 1674 H 149.174 3.92816 2.74285 0
M  V30 1675 H 147.538 2.03139 1.53644 0
M  V30 1676 H 148.321 3.38719 0.558972 0
M  V30 1677 N 150.766 -0.704594 1.40972 0
M  V30 1678 C 152.012 -1.46675 1.40051 0
M  V30 1679 C 152.345 -1.94199 0.00641102 0
M  V30 1680 O 151.62 -1.68916 -0.964235 0
M  V30 1681 C 151.903 -2.68505 2.39952 0
M  V30 1682 C 151.756 -2.26805 3.88432 0
M  V30 1683 C 153.075 -3.70686 2.37233 0
M  V30 1684 H 150.194 -0.532015 0.510028 0
M  V30 1685 H 152.836 -0.803255 1.72185 0
M  V30 1686 H 150.986 -3.25114 2.1268 0
M  V30 1687 H 152.658 -1.75592 4.26574 0
M  V30 1688 H 150.901 -1.58685 4.03734 0
M  V30 1689 H 151.572 -3.14181 4.53866 0
M  V30 1690 H 154.048 -3.23731 2.61415 0
M  V30 1691 H 152.924 -4.53553 3.09162 0
M  V30 1692 H 153.185 -4.19754 1.38777 0
M  V30 1693 N 152.244 -1.26651 -0.937939 0
M  V30 1694 C 153.491 -1.12387 -1.6845 0
M  V30 1695 C 153.819 0.332208 -1.91642 0
M  V30 1696 O 153.074 1.2602 -1.49725 0
M  V30 1697 C 153.373 -1.84168 -3.06295 0
M  V30 1698 C 153.039 -3.34056 -3.02849 0
M  V30 1699 C 151.701 -3.74942 -3.01616 0
M  V30 1700 C 154.053 -4.29741 -2.9491 0
M  V30 1701 C 151.381 -5.09894 -2.90215 0
M  V30 1702 C 153.733 -5.64738 -2.8505 0
M  V30 1703 C 152.397 -6.0493 -2.82162 0
M  V30 1704 H 151.667 -0.411252 -0.616403 0
M  V30 1705 H 154.314 -1.57134 -1.09459 0
M  V30 1706 H 152.619 -1.319 -3.6893 0
M  V30 1707 H 154.316 -1.70569 -3.62915 0
M  V30 1708 H 150.906 -3.01534 -3.0459 0
M  V30 1709 H 155.09 -3.99133 -2.94969 0
M  V30 1710 H 150.346 -5.40194 -2.86358 0
M  V30 1711 H 154.52 -6.38561 -2.77872 0
M  V30 1712 H 152.147 -7.09457 -2.73084 0
M  V30 1713 N 153.722 1.14298 -1.08507 0
M  V30 1714 C 154.999 1.81544 -0.728088 0
M  V30 1715 C 155.379 1.95838 0.78808 0
M  V30 1716 O 154.727 1.51904 1.70697 0
M  V30 1717 C 154.937 3.17169 -1.45619 0
M  V30 1718 C 156.285 3.9265 -1.61591 0
M  V30 1719 O 157.309 3.26762 -1.41793 0
M  V30 1720 O 156.168 5.10807 -1.94263 0
M  V30 1721 H 153.262 0.78491 -0.260471 0
M  V30 1722 H 155.808 1.21307 -1.18671 0
M  V30 1723 H 154.58 3.01934 -2.489 0
M  V30 1724 H 154.203 3.851 -0.989124 0
M  V30 1725 N 155.201 0.870884 1.31352 0
M  V30 1726 C 156.449 0.48132 1.96285 0
M  V30 1727 C 156.77 -0.969813 1.69173 0
M  V30 1728 O 156.04 -1.67998 1.00764 0
M  V30 1729 H 154.62 0.175002 0.726212 0
M  V30 1730 H 157.282 1.11087 1.60143 0
M  V30 1731 H 156.378 0.639825 3.05471 0
M  V30 1732 N 156.679 -1.44442 0.630414 0
M  V30 1733 C 157.609 -2.33418 -0.0618083 0
M  V30 1734 C 158.59 -1.48165 -0.835541 0
M  V30 1735 O 159.775 -1.76886 -0.801564 0
M  V30 1736 C 156.905 -3.31222 -1.04449 0
M  V30 1737 C 155.859 -4.26288 -0.382436 0
M  V30 1738 C 155.185 -5.13954 -1.47497 0
M  V30 1739 C 156.485 -5.1744 0.710865 0
M  V30 1740 H 158.179 -2.91548 0.681184 0
M  V30 1741 H 155.725 -1.40191 0.329026 0
M  V30 1742 H 157.678 -3.92351 -1.53748 0
M  V30 1743 H 156.402 -2.71299 -1.81836 0
M  V30 1744 H 155.061 -3.6649 0.0899054 0
M  V30 1745 H 154.709 -4.50385 -2.2397 0
M  V30 1746 H 154.409 -5.7837 -1.03737 0
M  V30 1747 H 155.933 -5.77955 -1.96979 0
M  V30 1748 H 157.347 -5.72509 0.300996 0
M  V30 1749 H 155.744 -5.90455 1.07156 0
M  V30 1750 H 156.814 -4.58496 1.57829 0
M  V30 1751 N 158.157 -0.370918 -1.53173 0
M  V30 1752 C 159.404 0.217102 -2.01333 0
M  V30 1753 C 159.732 1.48338 -1.25802 0
M  V30 1754 O 158.987 1.92698 -0.34146 0
M  V30 1755 C 159.286 0.549696 -3.53147 0
M  V30 1756 C 158.952 -0.622872 -4.46577 0
M  V30 1757 C 157.614 -0.944595 -4.71838 0
M  V30 1758 C 159.966 -1.40819 -5.01816 0
M  V30 1759 C 157.294 -2.05351 -5.49589 0
M  V30 1760 C 159.646 -2.50757 -5.80778 0
M  V30 1761 C 158.31 -2.83458 -6.04324 0
M  V30 1762 H 157.58 0.0794431 -0.736729 0
M  V30 1763 H 160.227 -0.504481 -1.84736 0
M  V30 1764 H 158.532 1.35237 -3.6772 0
M  V30 1765 H 160.229 1.017 -3.87889 0
M  V30 1766 H 156.819 -0.36209 -4.27068 0
M  V30 1767 H 161.003 -1.17289 -4.82242 0
M  V30 1768 H 156.259 -2.3108 -5.6605 0
M  V30 1769 H 160.433 -3.12022 -6.22588 0
M  V30 1770 H 158.06 -3.69508 -6.64355 0
M  V30 1771 N 159.635 1.57281 -0.100228 0
M  V30 1772 C 160.545 2.17833 0.870965 0
M  V30 1773 C 161.561 1.14921 1.30649 0
M  V30 1774 O 162.737 1.47313 1.37335 0
M  V30 1775 C 159.802 2.75085 2.1102 0
M  V30 1776 C 158.863 3.9297 1.72838 0
M  V30 1777 C 158.096 4.47482 2.90854 0
M  V30 1778 O 158.319 4.00922 4.05731 0
M  V30 1779 O 157.253 5.38433 2.69023 0
M  V30 1780 H 161.079 3.0124 0.38575 0
M  V30 1781 H 158.664 1.48881 0.124397 0
M  V30 1782 H 160.546 3.11656 2.83634 0
M  V30 1783 H 159.221 1.94721 2.58584 0
M  V30 1784 H 158.128 3.61201 0.973883 0
M  V30 1785 H 159.461 4.74713 1.30033 0
M  V30 1786 N 161.113 -0.173488 1.56642 0
M  V30 1787 C 162.36 -0.890465 1.81871 0
M  V30 1788 C 162.688 -1.82339 0.67696 0
M  V30 1789 O 161.943 -1.92795 -0.335926 0
M  V30 1790 C 162.242 -1.72069 3.13252 0
M  V30 1791 C 161.908 -0.936878 4.41059 0
M  V30 1792 C 160.57 -0.720545 4.75775 0
M  V30 1793 C 162.922 -0.386919 5.19762 0
M  V30 1794 C 160.25 0.0568829 5.86672 0
M  V30 1795 C 162.602 0.37741 6.31473 0
M  V30 1796 C 161.266 0.604563 6.64757 0
M  V30 1797 H 160.536 -0.325844 0.665512 0
M  V30 1798 H 163.183 -0.155527 1.90867 0
M  V30 1799 H 161.488 -2.52496 2.99588 0
M  V30 1800 H 163.185 -2.27844 3.29982 0
M  V30 1801 H 159.775 -1.11553 4.13828 0
M  V30 1802 H 163.959 -0.541398 4.93338 0
M  V30 1803 H 159.215 0.242635 6.10918 0
M  V30 1804 H 163.389 0.810825 6.91664 0
M  V30 1805 H 161.016 1.20885 7.50527 0
M  V30 1806 N 162.591 -1.51276 -0.441967 0
M  V30 1807 C 163.831 -1.65372 -1.20132 0
M  V30 1808 C 164.195 -0.359871 -1.88597 0
M  V30 1809 O 165.396 -0.376551 -2.66149 0
M  V30 1810 C 163.667 -2.8207 -2.1948 0
M  V30 1811 S 165.226 -3.16467 -3.03964 0
M  V30 1812 H 162.044 -0.582669 -0.407453 0
M  V30 1813 H 164.646 -1.89166 -0.493609 0
M  V30 1814 H 163.35 -3.74523 -1.67812 0
M  V30 1815 H 162.881 -2.6045 -2.94838 0
M  V30 1816 H 164.896 -2.62543 -4.21053 0
M  V30 1817 N 164.069 0.697108 -1.41344 0
M  V30 1818 C 165.001 1.8224 -1.39001 0
M  V30 1819 C 166.014 1.60152 -0.292428 0
M  V30 1820 O 167.203 1.69684 -0.554048 0
M  V30 1821 C 164.303 3.18976 -1.14489 0
M  V30 1822 C 163.476 3.68105 -2.36258 0
M  V30 1823 C 162.535 4.83506 -2.07625 0
M  V30 1824 O 161.561 4.95201 -2.8065 0
M  V30 1825 N 162.763 5.70637 -1.06555 0
M  V30 1826 H 165.528 1.84742 -2.35988 0
M  V30 1827 H 163.089 0.87937 -1.35936 0
M  V30 1828 H 165.081 3.93801 -0.932885 0
M  V30 1829 H 163.651 3.11508 -0.261043 0
M  V30 1830 H 162.871 2.84204 -2.7317 0
M  V30 1831 H 164.159 3.97667 -3.17393 0
M  V30 1832 H 163.557 5.63817 -0.461125 0
M  V30 1833 H 162.114 6.45368 -0.913444 0
M  V30 1834 N 165.547 1.27147 0.931209 0
M  V30 1835 C 166.477 1.12081 2.04842 0
M  V30 1836 C 167.458 0.0232364 1.70084 0
M  V30 1837 O 168.643 0.197085 1.93197 0
M  V30 1838 C 165.773 0.76354 3.38803 0
M  V30 1839 C 164.727 1.81396 3.87659 0
M  V30 1840 C 164.053 1.31075 5.18385 0
M  V30 1841 C 165.353 3.21739 4.11438 0
M  V30 1842 H 167.047 2.05537 2.17703 0
M  V30 1843 H 164.593 0.989603 1.04608 0
M  V30 1844 H 166.546 0.644982 4.16435 0
M  V30 1845 H 165.27 -0.206727 3.25945 0
M  V30 1846 H 163.929 1.92136 3.12217 0
M  V30 1847 H 163.577 0.330037 5.01916 0
M  V30 1848 H 163.277 2.013 5.52044 0
M  V30 1849 H 164.801 1.20506 5.98591 0
M  V30 1850 H 166.215 3.14019 4.79651 0
M  V30 1851 H 164.612 3.89644 4.56397 0
M  V30 1852 H 165.682 3.67054 3.16859 0
M  V30 1853 N 167.025 -1.13721 1.09112 0
M  V30 1854 C 168.25 -1.89314 0.847053 0
M  V30 1855 C 168.675 -1.78416 -0.595774 0
M  V30 1856 O 168.033 -1.12942 -1.41823 0
M  V30 1857 C 168.081 -3.3701 1.28284 0
M  V30 1858 O 167.185 -4.10054 0.439267 0
M  V30 1859 H 166.526 -0.588745 0.307044 0
M  V30 1860 H 169.056 -1.43902 1.45442 0
M  V30 1861 H 169.066 -3.87834 1.26683 0
M  V30 1862 H 167.741 -3.4426 2.33363 0
M  V30 1863 H 166.318 -3.69266 0.519312 0
M  V30 1864 N 168.503 -0.877838 -1.30888 0
M  V30 1865 C 169.731 -0.507414 -2.00581 0
M  V30 1866 C 170.146 0.902216 -1.65848 0
M  V30 1867 O 169.503 1.59225 -0.891831 0
M  V30 1868 C 169.554 -0.664162 -3.55347 0
M  V30 1869 O 169.275 -2.01829 -3.8884 0
M  V30 1870 C 170.776 -0.295787 -4.42312 0
M  V30 1871 H 167.996 -0.196866 -0.641471 0
M  V30 1872 H 170.54 -1.18117 -1.66939 0
M  V30 1873 H 168.695 -0.0378619 -3.87381 0
M  V30 1874 H 169.109 -2.03174 -4.8355 0
M  V30 1875 H 170.583 -0.456388 -5.5011 0
M  V30 1876 H 171.06 0.765663 -4.32475 0
M  V30 1877 H 171.666 -0.898113 -4.15709 0
M  V30 1878 N 169.982 1.44106 -0.638065 0
M  V30 1879 C 171.23 2.01579 -0.145043 0
M  V30 1880 C 171.551 1.50496 1.24 0
M  V30 1881 O 170.821 0.711374 1.82527 0
M  V30 1882 H 169.401 0.745282 -0.05063 0
M  V30 1883 H 172.063 1.76516 -0.826327 0
M  V30 1884 H 171.159 3.11877 -0.118039 0
M  V30 1885 N 171.46 0.379036 1.52974 0
M  V30 1886 C 172.708 -0.206014 2.01047 0
M  V30 1887 C 173.029 -1.48175 1.26765 0
M  V30 1888 O 172.299 -1.92085 0.384743 0
M  V30 1889 H 170.879 -0.0791184 0.742798 0
M  V30 1890 H 173.541 0.508366 1.88153 0
M  V30 1891 H 172.637 -0.423501 3.09213 0
M  V30 1892 N 172.938 -1.57226 0.108567 0
M  V30 1893 C 174.163 -1.99604 -0.563303 0
M  V30 1894 C 174.588 -0.987563 -1.6009 0
M  V30 1895 O 173.946 0.0421687 -1.81251 0
M  V30 1896 C 173.994 -3.40902 -1.17552 0
M  V30 1897 O 173.098 -3.42896 -2.2912 0
M  V30 1898 H 172.439 -0.648704 -0.1417 0
M  V30 1899 H 174.969 -2.03679 0.193961 0
M  V30 1900 H 174.979 -3.78886 -1.51357 0
M  V30 1901 H 173.654 -4.1382 -0.415445 0
M  V30 1902 H 172.231 -3.1672 -1.96832 0
M  V30 1903 N 174.416 0.165178 -1.56732 0
M  V30 1904 C 175.662 0.882112 -1.82611 0
M  V30 1905 C 175.995 1.81628 -0.687378 0
M  V30 1906 O 175.27 1.92009 0.310267 0
M  V30 1907 C 175.553 1.67245 -3.18906 0
M  V30 1908 C 175.406 0.760987 -4.43316 0
M  V30 1909 C 176.725 2.63884 -3.52212 0
M  V30 1910 H 173.844 0.319242 -0.664269 0
M  V30 1911 H 176.486 0.148052 -1.89422 0
M  V30 1912 H 174.636 2.29824 -3.1323 0
M  V30 1913 H 176.308 0.147596 -4.61064 0
M  V30 1914 H 174.551 0.0694102 -4.33744 0
M  V30 1915 H 175.222 1.34962 -5.35247 0
M  V30 1916 H 177.698 2.11429 -3.58381 0
M  V30 1917 H 176.574 3.16245 -4.48643 0
M  V30 1918 H 176.835 3.44377 -2.77231 0
M  V30 1919 N 175.894 1.51508 0.433938 0
M  V30 1920 C 176.857 1.72473 1.50949 0
M  V30 1921 C 177.857 0.594725 1.49398 0
M  V30 1922 O 179.047 0.862315 1.5136 0
M  V30 1923 C 176.179 1.78431 2.90474 0
M  V30 1924 H 177.372 2.68467 1.33662 0
M  V30 1925 H 174.925 1.41549 0.662836 0
M  V30 1926 H 175.66 0.842645 3.13161 0
M  V30 1927 H 175.445 2.60558 2.93005 0
M  V30 1928 H 176.935 1.96479 3.68491 0
M  V30 1929 N 177.372 -0.689602 1.41712 0
M  V30 1930 C 178.62 -1.4468 1.4111 0
M  V30 1931 C 178.941 -1.94986 0.0232196 0
M  V30 1932 O 178.211 -1.72097 -0.935913 0
M  V30 1933 H 176.791 -0.536847 0.519427 0
M  V30 1934 H 179.453 -0.815825 1.77004 0
M  V30 1935 H 178.549 -2.30706 2.10193 0
M  V30 1936 N 178.85 -1.27639 -0.924453 0
M  V30 1937 C 179.813 -1.10681 -2.00705 0
M  V30 1938 C 180.813 -0.0497823 -1.60723 0
M  V30 1939 O 182.003 -0.294654 -1.7169 0
M  V30 1940 C 179.135 -0.687164 -3.33902 0
M  V30 1941 H 180.328 -2.06817 -2.17179 0
M  V30 1942 H 177.881 -1.10473 -1.10569 0
M  V30 1943 H 178.616 0.275439 -3.23128 0
M  V30 1944 H 178.401 -1.45061 -3.6428 0
M  V30 1945 H 179.891 -0.590853 -4.13399 0
M  V30 1946 N 180.328 1.1314 -1.09713 0
M  V30 1947 C 181.574 1.84757 -0.836224 0
M  V30 1948 C 181.907 1.8347 0.636598 0
M  V30 1949 O 181.182 1.27491 1.46889 0
M  V30 1950 C 181.465 3.32782 -1.37578 0
M  V30 1951 C 181.318 3.42567 -2.91493 0
M  V30 1952 C 182.637 4.28307 -1.01198 0
M  V30 1953 H 179.756 0.67082 -0.305236 0
M  V30 1954 H 182.398 1.3278 -1.35903 0
M  V30 1955 H 180.548 3.77177 -0.931097 0
M  V30 1956 H 182.22 3.06862 -3.44432 0
M  V30 1957 H 180.463 2.83349 -3.28475 0
M  V30 1958 H 181.134 4.46674 -3.24324 0
M  V30 1959 H 183.61 3.91999 -1.39556 0
M  V30 1960 H 182.486 5.30307 -1.41653 0
M  V30 1961 H 182.747 4.42029 0.0794833 0
M  V30 1962 N 181.806 0.884767 1.30421 0
M  V30 1963 C 182.753 0.349642 2.28136 0
M  V30 1964 C 183.723 -0.560061 1.56373 0
M  V30 1965 O 184.908 -0.488524 1.8444 0
M  V30 1966 C 182.048 -0.42999 3.42411 0
M  V30 1967 C 181.161 0.508907 4.28992 0
M  V30 1968 C 180.296 -0.286301 5.30428 0
M  V30 1969 C 179.335 0.648079 6.08659 0
M  V30 1970 N 178.472 -0.111792 7.02011 0
M  V30 1971 H 183.312 1.18807 2.73293 0
M  V30 1972 H 180.849 0.597231 1.3443 0
M  V30 1973 H 182.807 -0.897923 4.07423 0
M  V30 1974 H 181.437 -1.23299 2.98324 0
M  V30 1975 H 180.489 1.09533 3.64289 0
M  V30 1976 H 181.801 1.22475 4.8353 0
M  V30 1977 H 180.955 -0.816098 6.01186 0
M  V30 1978 H 179.694 -1.03536 4.76583 0
M  V30 1979 H 178.699 1.18951 5.36778 0
M  V30 1980 H 179.924 1.39623 6.64592 0
M  V30 1981 H 177.87 -0.843395 6.50556 0
M  V30 1982 H 177.787 0.544429 7.54037 0
M  V30 1983 H 179.055 -0.622339 7.77012 0
M  V30 1984 N 183.284 -1.43765 0.645699 0
M  V30 1985 C 184.214 -2.33471 -0.0370477 0
M  V30 1986 C 185.195 -1.49042 -0.819779 0
M  V30 1987 O 186.38 -1.77726 -0.782758 0
M  V30 1988 C 183.51 -3.32311 -1.0093 0
M  V30 1989 C 182.464 -4.2667 -0.337201 0
M  V30 1990 C 181.79 -5.1549 -1.42037 0
M  V30 1991 C 183.09 -5.16657 0.765706 0
M  V30 1992 H 184.784 -2.90809 0.712069 0
M  V30 1993 H 182.33 -1.39834 0.343876 0
M  V30 1994 H 184.283 -3.9396 -1.49578 0
M  V30 1995 H 183.007 -2.73213 -1.78948 0
M  V30 1996 H 181.666 -3.66374 0.128771 0
M  V30 1997 H 181.314 -4.52735 -2.1918 0
M  V30 1998 H 181.014 -5.79438 -0.975966 0
M  V30 1999 H 182.538 -5.80012 -1.90838 0
M  V30 2000 H 183.952 -5.72158 0.361702 0
M  V30 2001 H 182.349 -5.89286 1.13413 0
M  V30 2002 H 183.419 -4.56796 1.62683 0
M  V30 2003 N 184.763 -0.387143 -1.52771 0
M  V30 2004 C 185.711 0.463953 -2.27926 0
M  V30 2005 C 186.705 1.06493 -1.31741 0
M  V30 2006 O 187.911 1.00565 -1.49287 0
M  V30 2007 H 184.286 0.16837 -0.732909 0
M  V30 2008 H 186.257 -0.19141 -2.97785 0
M  V30 2009 C 185.006 1.5803 -3.09713 0
M  V30 2010 H 184.329 1.12718 -3.83581 0
M  V30 2011 H 185.769 2.15008 -3.65442 0
M  V30 2012 C 184.228 2.53509 -2.2189 0
M  V30 2013 O 184.758 3.56863 -1.84422 0
M  V30 2014 N 182.964 2.23199 -1.86093 0
M  V30 2015 H 182.511 1.39185 -2.16761 0
M  V30 2016 H 182.469 2.87333 -1.27621 0
M  V30 2017 N 186.241 1.57166 -0.116904 0
M  V30 2018 C 187.657 1.5779 0.239693 0
M  V30 2019 C 187.857 1.1295 1.66867 0
M  V30 2020 O 186.913 0.81592 2.38954 0
M  V30 2021 C 188.226 3.00699 0.00828202 0
M  V30 2022 C 189.774 3.12912 0.0743438 0
M  V30 2023 C 190.249 4.57817 -0.129348 0
M  V30 2024 N 191.74 4.63139 -0.075247 0
M  V30 2025 C 192.475 5.73023 -0.207788 0
M  V30 2026 N 191.971 6.91665 -0.396382 0
M  V30 2027 N 193.764 5.61906 -0.14751 0
M  V30 2028 H 185.915 1.84615 -1.05029 0
M  V30 2029 H 188.178 0.85311 -0.41341 0
M  V30 2030 H 187.884 3.37784 -0.979531 0
M  V30 2031 H 187.758 3.69848 0.741077 0
M  V30 2032 H 190.145 2.75686 1.05268 0
M  V30 2033 H 190.226 2.4631 -0.690297 0
M  V30 2034 H 189.87 4.95742 -1.10465 0
M  V30 2035 H 189.8 5.22507 0.655253 0
M  V30 2036 H 192.291 3.7784 0.0670898 0
M  V30 2037 H 192.604 7.71255 -0.488437 0
M  V30 2038 H 190.949 6.93654 -0.432329 0
M  V30 2039 H 194.14 4.681 -0.00115036 0
M  V30 2040 H 194.313 6.47501 -0.254247 0
M  V30 2041 N 187.719 -0.156864 1.56817 0
M  V30 2042 C 188.651 -1.21883 1.94106 0
M  V30 2043 C 189.664 -1.3971 0.835754 0
M  V30 2044 O 190.853 -1.39457 1.11418 0
M  V30 2045 C 187.953 -2.58527 2.19127 0
M  V30 2046 C 187.126 -2.61809 3.50393 0
M  V30 2047 C 186.185 -3.7992 3.64071 0
M  V30 2048 O 185.211 -3.65249 4.36557 0
M  V30 2049 N 186.413 -4.96973 2.99997 0
M  V30 2050 H 189.178 -0.901974 2.85805 0
M  V30 2051 H 186.739 -0.346513 1.58148 0
M  V30 2052 H 188.731 -3.36034 2.25529 0
M  V30 2053 H 187.301 -2.82545 1.33742 0
M  V30 2054 H 186.521 -1.7029 3.5552 0
M  V30 2055 H 187.809 -2.61024 4.36742 0
M  V30 2056 H 187.207 -5.11794 2.41004 0
M  V30 2057 H 185.764 -5.7229 3.11974 0
M  V30 2058 N 189.197 -1.51736 -0.425897 0
M  V30 2059 C 190.129 -1.70083 -1.53638 0
M  V30 2060 C 191.142 -0.581349 -1.52066 0
M  V30 2061 O 192.331 -0.856017 -1.56635 0
M  V30 2062 C 189.431 -1.71078 -2.9255 0
M  V30 2063 C 188.604 -2.99795 -3.185 0
M  V30 2064 C 187.663 -2.92825 -4.37196 0
M  V30 2065 O 186.689 -3.66756 -4.35291 0
M  V30 2066 N 187.891 -2.0946 -5.41393 0
M  V30 2067 H 190.656 -2.65882 -1.383 0
M  V30 2068 H 188.217 -1.49765 -0.614988 0
M  V30 2069 H 190.209 -1.63969 -3.69995 0
M  V30 2070 H 188.779 -0.828242 -3.01428 0
M  V30 2071 H 187.999 -3.20684 -2.2925 0
M  V30 2072 H 189.287 -3.84977 -3.32671 0
M  V30 2073 H 188.685 -1.48792 -5.45781 0
M  V30 2074 H 187.242 -2.08221 -6.17647 0
M  V30 2075 N 190.675 0.682077 -1.42076 0
M  V30 2076 C 191.903 1.47057 -1.4554 0
M  V30 2077 C 192.318 1.8869 -0.0645779 0
M  V30 2078 O 191.675 1.57666 0.919115 0
M  V30 2079 C 191.726 2.72442 -2.37609 0
M  V30 2080 O 191.447 2.32559 -3.71279 0
M  V30 2081 C 192.948 3.66069 -2.50017 0
M  V30 2082 H 190.168 0.452737 -0.495248 0
M  V30 2083 H 192.712 0.838695 -1.8651 0
M  V30 2084 H 190.867 3.31835 -1.9991 0
M  V30 2085 H 191.281 3.13475 -4.20516 0
M  V30 2086 H 192.755 4.50792 -3.18576 0
M  V30 2087 H 193.232 4.11476 -1.53572 0
M  V30 2088 H 193.838 3.12572 -2.88407 0
M  V30 2089 N 192.153 1.28127 0.917671 0
M  V30 2090 C 193.43 1.05761 1.64542 0
M  V30 2091 C 193.81 -0.404344 2.07191 0
M  V30 2092 O 193.158 -1.38963 1.81388 0
M  V30 2093 C 193.368 2.02857 2.83989 0
M  V30 2094 C 194.716 2.32786 3.551 0
M  V30 2095 O 195.74 2.0091 2.94132 0
M  V30 2096 O 194.599 2.87169 4.64969 0
M  V30 2097 H 191.693 0.403916 0.721652 0
M  V30 2098 H 194.239 1.39431 0.967322 0
M  V30 2099 H 193.011 3.01407 2.49538 0
M  V30 2100 H 192.634 1.69809 3.59514 0
M  V30 2101 N 193.631 -1.12557 1.10312 0
M  V30 2102 C 194.564 -2.1737 0.694674 0
M  V30 2103 C 195.542 -1.59745 -0.303373 0
M  V30 2104 O 196.726 -1.87408 -0.202578 0
M  V30 2105 C 193.853 -3.38691 0.0248052 0
M  V30 2106 C 192.899 -4.14943 0.986121 0
M  V30 2107 S 193.732 -4.73413 2.50281 0
M  V30 2108 C 194.888 -5.9807 1.84562 0
M  V30 2109 H 195.121 -2.5168 1.58255 0
M  V30 2110 H 192.654 -1.23998 0.919992 0
M  V30 2111 H 194.612 -4.08959 -0.355361 0
M  V30 2112 H 193.273 -3.02664 -0.839851 0
M  V30 2113 H 192.466 -5.01854 0.464651 0
M  V30 2114 H 192.068 -3.50377 1.30813 0
M  V30 2115 H 194.36 -6.67232 1.17507 0
M  V30 2116 H 195.303 -6.54841 2.69423 0
M  V30 2117 H 195.711 -5.49073 1.31069 0
M  V30 2118 N 195.109 -0.891671 -1.2995 0
M  V30 2119 C 196.072 -0.36828 -2.26222 0
M  V30 2120 C 197.072 0.493014 -1.53056 0
M  V30 2121 O 198.262 0.299213 -1.71611 0
M  V30 2122 C 195.394 0.47442 -3.37583 0
M  V30 2123 H 196.587 -1.21844 -2.74033 0
M  V30 2124 H 194.14 -0.669107 -1.41254 0
M  V30 2125 H 194.875 1.34489 -2.95099 0
M  V30 2126 H 194.66 -0.142615 -3.91841 0
M  V30 2127 H 196.15 0.83218 -4.09224 0
M  V30 2128 N 196.587 1.43421 -0.653314 0
M  V30 2129 C 197.833 2.02111 -0.166992 0
M  V30 2130 C 198.166 1.51423 1.21592 0
M  V30 2131 O 197.441 0.707389 1.8118 0
M  V30 2132 C 197.724 3.5966 -0.177948 0
M  V30 2133 C 197.577 4.20579 -1.59478 0
M  V30 2134 C 198.896 4.37413 0.4856 0
M  V30 2135 H 196.015 0.734374 -0.0621557 0
M  V30 2136 H 198.657 1.70717 -0.834016 0
M  V30 2137 H 196.807 3.86537 0.390032 0
M  V30 2138 H 198.479 4.04732 -2.21336 0
M  V30 2139 H 196.722 3.77226 -2.14204 0
M  V30 2140 H 197.393 5.29665 -1.5543 0
M  V30 2141 H 199.869 4.161 0.00234528 0
M  V30 2142 H 198.745 5.47075 0.447207 0
M  V30 2143 H 199.006 4.13672 1.55974 0
M  V30 2144 N 198.065 0.39524 1.52563 0
M  V30 2145 C 199.013 -0.451859 2.28169 0
M  V30 2146 C 200.007 -1.05792 1.32304 0
M  V30 2147 O 201.213 -0.997718 1.49818 0
M  V30 2148 H 197.588 -0.164481 0.733792 0
M  V30 2149 H 199.559 0.207199 2.9768 0
M  V30 2150 C 198.308 -1.56385 3.10546 0
M  V30 2151 H 197.631 -1.10682 3.84174 0
M  V30 2152 H 199.071 -2.13067 3.66577 0
M  V30 2153 C 197.53 -2.52328 2.23231 0
M  V30 2154 O 198.06 -3.5588 1.86312 0
M  V30 2155 N 196.266 -2.22209 1.87274 0
M  V30 2156 H 195.813 -1.38033 2.17496 0
M  V30 2157 H 195.771 -2.86652 1.29143 0
M  V30 2158 N 199.544 -1.57102 0.125237 0
M  V30 2159 C 200.79 -1.96488 -0.525753 0
M  V30 2160 C 201.145 -1.00786 -1.6389 0
M  V30 2161 O 200.438 -0.038979 -1.9156 0
M  V30 2162 C 200.632 -3.40096 -1.09862 0
M  V30 2163 C 200.461 -4.4968 -0.0425004 0
M  V30 2164 C 199.231 -5.03781 0.391463 0
M  V30 2165 C 201.429 -5.08936 0.740829 0
M  V30 2166 N 199.411 -5.96948 1.4327 0
M  V30 2167 C 200.782 -5.98105 1.6331 0
M  V30 2168 C 202.837 -4.91576 0.791029 0
M  V30 2169 C 201.54 -6.71774 2.57122 0
M  V30 2170 C 203.566 -5.6593 1.71688 0
M  V30 2171 C 202.928 -6.5479 2.59672 0
M  V30 2172 H 199.027 -0.765072 -0.161831 0
M  V30 2173 H 201.611 -1.93511 0.214801 0
M  V30 2174 H 199.782 -3.43707 -1.80887 0
M  V30 2175 H 201.514 -3.66591 -1.71444 0
M  V30 2176 H 198.269 -4.736 -0.00213584 0
M  V30 2177 H 198.693 -6.48236 1.95243 0
M  V30 2178 H 203.335 -4.22615 0.124915 0
M  V30 2179 H 201.053 -7.39977 3.24744 0
M  V30 2180 H 204.639 -5.54501 1.76125 0
M  V30 2181 H 203.519 -7.11316 3.30149 0
M  V30 2182 N 201.022 0.148545 -1.56898 0
M  V30 2183 C 201.985 1.16736 -1.97244 0
M  V30 2184 C 202.985 1.35947 -0.858777 0
M  V30 2185 O 204.175 1.32966 -1.12542 0
M  V30 2186 C 201.307 2.52798 -2.28705 0
M  V30 2187 H 202.5 0.821279 -2.88435 0
M  V30 2188 H 200.053 0.391831 -1.51309 0
M  V30 2189 H 200.788 2.92381 -1.403 0
M  V30 2190 H 200.573 2.40216 -3.09901 0
M  V30 2191 H 202.063 3.26179 -2.60762 0
M  V30 2192 N 202.5 1.5196 0.417844 0
M  V30 2193 C 203.748 1.65263 1.16329 0
M  V30 2194 C 204.069 0.380634 1.91249 0
M  V30 2195 O 203.339 -0.604214 1.86349 0
M  V30 2196 H 201.919 0.60912 0.432414 0
M  V30 2197 H 204.581 1.88969 0.477162 0
M  V30 2198 H 203.677 2.4896 1.88217 0
M  V30 2199 N 203.978 -0.674533 1.42435 0
M  V30 2200 C 205.226 -1.43175 1.42637 0
M  V30 2201 C 205.547 -1.94951 0.0438992 0
M  V30 2202 O 204.817 -1.7308 -0.917607 0
M  V30 2203 H 203.397 -0.531307 0.525092 0
M  V30 2204 H 206.059 -0.797006 1.77859 0
M  V30 2205 H 205.155 -2.28463 2.12629 0
M  V30 2206 N 205.456 -1.28612 -0.910864 0
M  V30 2207 C 206.386 -1.15326 -2.03032 0
M  V30 2208 C 207.367 -0.0502924 -1.70026 0
M  V30 2209 O 208.552 -0.227797 -1.92859 0
M  V30 2210 C 205.682 -0.817343 -3.37545 0
M  V30 2211 C 204.636 -1.8754 -3.84724 0
M  V30 2212 C 203.962 -1.39305 -5.16235 0
M  V30 2213 C 205.262 -3.28244 -4.06267 0
M  V30 2214 H 206.956 -2.08975 -2.14406 0
M  V30 2215 H 204.502 -1.00612 -1.03021 0
M  V30 2216 H 206.455 -0.711151 -4.15356 0
M  V30 2217 H 205.179 0.154846 -3.26233 0
M  V30 2218 H 203.838 -1.97079 -3.09121 0
M  V30 2219 H 203.486 -0.409846 -5.01328 0
M  V30 2220 H 203.186 -2.10057 -5.48771 0
M  V30 2221 H 204.71 -1.30014 -5.96598 0
M  V30 2222 H 206.124 -3.21611 -4.74594 0
M  V30 2223 H 204.521 -3.96855 -4.5014 0
M  V30 2224 H 205.591 -3.72048 -3.10979 0
M  V30 2225 N 206.934 1.1197 -1.10907 0
M  V30 2226 C 207.884 2.15946 -0.731538 0
M  V30 2227 C 208.868 1.58758 0.261699 0
M  V30 2228 O 210.06 1.76863 0.0696722 0
M  V30 2229 C 207.189 3.42877 -0.170299 0
M  V30 2230 C 206.275 4.07037 -1.19087 0
M  V30 2231 N 206.666 4.46135 -2.38322 0
M  V30 2232 C 204.964 4.33884 -1.03252 0
M  V30 2233 C 205.665 4.96331 -3.03366 0
M  V30 2234 N 204.641 4.9214 -2.30865 0
M  V30 2235 H 208.443 2.43947 -1.63912 0
M  V30 2236 H 205.957 1.28927 -0.987505 0
M  V30 2237 H 207.954 4.16732 0.118271 0
M  V30 2238 H 206.614 3.16343 0.731935 0
M  V30 2239 H 207.625 4.38345 -2.75815 0
M  V30 2240 H 204.302 4.17084 -0.186256 0
M  V30 2241 H 205.692 5.36257 -4.04818 0
M  V30 2242 N 208.412 0.89855 1.29475 0
M  V30 2243 C 209.362 0.346767 2.25348 0
M  V30 2244 C 210.346 -0.532509 1.51833 0
M  V30 2245 O 211.538 -0.374714 1.72988 0
M  V30 2246 C 208.667 -0.425681 3.40651 0
M  V30 2247 C 207.753 0.46845 4.21505 0
M  V30 2248 N 208.144 1.57514 4.80648 0
M  V30 2249 C 206.442 0.26603 4.45206 0
M  V30 2250 C 207.143 2.12889 5.41344 0
M  V30 2251 N 206.119 1.42208 5.24669 0
M  V30 2252 H 209.921 1.19219 2.68634 0
M  V30 2253 H 207.435 0.749473 1.44072 0
M  V30 2254 H 209.432 -0.837716 4.08397 0
M  V30 2255 H 208.092 -1.26838 2.98902 0
M  V30 2256 H 209.103 1.95789 4.79465 0
M  V30 2257 H 205.78 -0.538394 4.14014 0
M  V30 2258 H 207.17 3.05901 5.98226 0
M  V30 2259 N 209.89 -1.43072 0.660911 0
M  V30 2260 C 210.853 -2.29194 -0.0166406 0
M  V30 2261 C 211.853 -1.42609 -0.742912 0
M  V30 2262 O 213.043 -1.64155 -0.583004 0
M  V30 2263 C 210.175 -3.24831 -1.0343 0
M  V30 2264 H 211.368 -2.90596 0.741208 0
M  V30 2265 H 208.921 -1.5048 0.422532 0
M  V30 2266 H 209.656 -2.68339 -1.82111 0
M  V30 2267 H 209.441 -3.88676 -0.517082 0
M  V30 2268 H 210.931 -3.89451 -1.50723 0
M  V30 2269 N 211.368 -0.403325 -1.52352 0
M  V30 2270 C 212.315 0.425011 -2.26853 0
M  V30 2271 C 213.285 1.04598 -1.29029 0
M  V30 2272 O 214.47 1.07135 -1.57882 0
M  V30 2273 C 211.61 1.53888 -3.08889 0
M  V30 2274 C 210.723 0.939396 -4.21663 0
M  V30 2275 C 209.858 2.02547 -4.91068 0
M  V30 2276 C 208.897 1.40263 -5.95813 0
M  V30 2277 N 208.034 2.4286 -6.58759 0
M  V30 2278 H 212.874 -0.21674 -2.97211 0
M  V30 2279 H 210.411 -0.118722 -1.4662 0
M  V30 2280 H 212.369 2.19558 -3.54753 0
M  V30 2281 H 210.999 2.15074 -2.40714 0
M  V30 2282 H 210.051 0.171898 -3.80011 0
M  V30 2283 H 211.363 0.44436 -4.96817 0
M  V30 2284 H 210.517 2.75958 -5.40308 0
M  V30 2285 H 209.256 2.55415 -4.15469 0
M  V30 2286 H 208.261 0.653833 -5.45898 0
M  V30 2287 H 209.486 0.881719 -6.73352 0
M  V30 2288 H 207.432 2.94871 -5.85992 0
M  V30 2289 H 207.349 1.98152 -7.2957 0
M  V30 2290 H 208.617 3.15858 -7.12639 0
M  V30 2291 N 212.846 1.57033 -0.133567 0
M  V30 2292 C 213.793 2.16074 0.811208 0
M  V30 2293 C 214.763 1.08979 1.2535 0
M  V30 2294 O 215.948 1.36958 1.32843 0
M  V30 2295 C 213.088 2.77595 2.05024 0
M  V30 2296 C 212.201 3.99042 1.65498 0
M  V30 2297 C 211.336 4.48603 2.84479 0
M  V30 2298 C 210.375 5.62547 2.41262 0
M  V30 2299 N 209.512 6.06787 3.53206 0
M  V30 2300 H 214.352 2.96477 0.300906 0
M  V30 2301 H 211.889 1.46462 0.136822 0
M  V30 2302 H 213.847 3.11402 2.77642 0
M  V30 2303 H 212.477 1.99859 2.53488 0
M  V30 2304 H 211.529 3.71302 0.826981 0
M  V30 2305 H 212.841 4.81629 1.29748 0
M  V30 2306 H 211.995 4.84395 3.65303 0
M  V30 2307 H 210.734 3.64995 3.23465 0
M  V30 2308 H 209.739 5.26345 1.58874 0
M  V30 2309 H 210.964 6.47931 2.03377 0
M  V30 2310 H 208.91 5.26117 3.91838 0
M  V30 2311 H 208.827 6.84266 3.21427 0
M  V30 2312 H 210.095 6.4722 4.34427 0
M  V30 2313 N 214.325 -0.140222 1.56975 0
M  V30 2314 C 215.55 -0.870414 1.88251 0
M  V30 2315 C 215.975 -1.73637 0.723312 0
M  V30 2316 O 215.333 -1.78329 -0.32689 0
M  V30 2317 C 215.381 -1.69737 3.18154 0
M  V30 2318 O 214.485 -2.80229 3.02565 0
M  V30 2319 H 213.826 -0.242025 0.61832 0
M  V30 2320 H 216.356 -0.128999 2.04193 0
M  V30 2321 H 216.366 -2.09099 3.50345 0
M  V30 2322 H 215.041 -1.06152 4.02125 0
M  V30 2323 H 213.618 -2.44224 2.81796 0
M  V30 2324 N 215.803 -1.52179 -0.40978 0
M  V30 2325 C 216.713 -1.78364 -1.52392 0
M  V30 2326 C 217.729 -0.669183 -1.60617 0
M  V30 2327 O 218.905 -0.954518 -1.77344 0
M  V30 2328 C 215.97 -1.92822 -2.88133 0
M  V30 2329 C 215.031 -3.16725 -2.898 0
M  V30 2330 C 214.264 -3.30483 -4.19067 0
M  V30 2331 O 214.487 -2.49522 -5.12928 0
M  V30 2332 O 213.421 -4.2363 -4.27576 0
M  V30 2333 H 217.247 -2.72931 -1.33201 0
M  V30 2334 H 214.832 -1.37016 -0.59557 0
M  V30 2335 H 216.714 -2.04157 -3.68643 0
M  V30 2336 H 215.389 -1.01444 -3.07393 0
M  V30 2337 H 214.296 -3.10848 -2.08146 0
M  V30 2338 H 215.629 -4.07881 -2.75489 0
M  V30 2339 N 217.281 0.66697 -1.42791 0
M  V30 2340 C 218.244 1.76211 -1.46568 0
M  V30 2341 C 219.244 1.56896 -0.352196 0
M  V30 2342 O 220.434 1.63044 -0.613364 0
M  V30 2343 C 217.566 3.14935 -1.30494 0
M  V30 2344 H 218.759 1.74247 -2.44086 0
M  V30 2345 H 216.312 0.877342 -1.29354 0
M  V30 2346 H 217.047 3.2252 -0.339301 0
M  V30 2347 H 216.832 3.30359 -2.11199 0
M  V30 2348 H 218.322 3.94821 -1.36038 0
M  V30 2349 N 218.759 1.29093 0.90403 0
M  V30 2350 C 219.984 1.19809 1.69294 0
M  V30 2351 C 220.409 -0.238481 1.86582 0
M  V30 2352 O 219.767 -1.1723 1.383 0
M  V30 2353 C 219.815 1.91202 3.05736 0
M  V30 2354 O 218.919 1.22611 3.93752 0
M  V30 2355 H 218.26 0.415385 0.518027 0
M  V30 2356 H 220.79 1.70586 1.12967 0
M  V30 2357 H 220.8 1.99487 3.55906 0
M  V30 2358 H 219.475 2.95692 2.92471 0
M  V30 2359 H 218.052 1.22554 3.52186 0
M  V30 2360 N 220.237 -1.11381 1.11499 0
M  V30 2361 C 221.485 -1.8277 0.862524 0
M  V30 2362 C 221.806 -1.85097 -0.613534 0
M  V30 2363 O 221.076 -1.32198 -1.4457 0
M  V30 2364 H 219.656 -0.676823 0.316101 0
M  V30 2365 H 222.318 -1.34816 1.4075 0
M  V30 2366 H 221.414 -2.86614 1.23527 0
M  V30 2367 N 221.715 -0.905404 -1.28997 0
M  V30 2368 C 222.962 -0.534248 -1.95325 0
M  V30 2369 C 223.29 0.920535 -1.71337 0
M  V30 2370 O 222.545 1.66861 -1.02254 0
M  V30 2371 C 222.844 -0.779906 -3.48787 0
M  V30 2372 C 222.51 -2.21293 -3.92861 0
M  V30 2373 C 221.172 -2.60475 -4.04606 0
M  V30 2374 C 223.524 -3.14587 -4.15553 0
M  V30 2375 C 220.852 -3.9212 -4.36416 0
M  V30 2376 C 223.204 -4.45787 -4.48839 0
M  V30 2377 C 221.868 -4.84834 -4.58794 0
M  V30 2378 H 221.138 -0.195495 -0.714747 0
M  V30 2379 H 223.785 -1.14514 -1.53488 0
M  V30 2380 H 222.09 -0.0861365 -3.91705 0
M  V30 2381 H 223.787 -0.472029 -3.98212 0
M  V30 2382 H 220.377 -1.89887 -3.84241 0
M  V30 2383 H 224.561 -2.85528 -4.0594 0
M  V30 2384 H 219.817 -4.22086 -4.42327 0
M  V30 2385 H 223.991 -5.18098 -4.65346 0
M  V30 2386 H 221.618 -5.86877 -4.83197 0
M  V30 2387 N 223.193 1.4272 -0.668489 0
M  V30 2388 C 224.433 2.03497 -0.19194 0
M  V30 2389 C 224.797 1.51684 1.17712 0
M  V30 2390 O 225.998 2.04205 1.74796 0
M  V30 2391 C 224.269 3.56734 -0.218032 0
M  V30 2392 S 225.828 4.38395 0.188438 0
M  V30 2393 H 222.646 0.706542 -0.0794959 0
M  V30 2394 H 225.248 1.74563 -0.880235 0
M  V30 2395 H 223.952 3.91943 -1.2169 0
M  V30 2396 H 223.483 3.90333 0.490303 0
M  V30 2397 H 225.498 4.75345 1.42345 0
M  V30 2398 N 224.671 0.411399 1.52136 0
M  V30 2399 C 225.901 -0.16284 2.05957 0
M  V30 2400 C 226.309 -1.3922 1.28119 0
M  V30 2401 O 225.652 -1.80768 0.326881 0
M  V30 2402 C 225.714 -0.575946 3.54856 0
M  V30 2403 C 225.378 0.542998 4.53763 0
M  V30 2404 C 226.375 1.40726 5.00492 0
M  V30 2405 C 224.06 0.716337 4.97166 0
M  V30 2406 C 226.054 2.4298 5.8927 0
M  V30 2407 C 223.741 1.74218 5.8574 0
M  V30 2408 C 224.739 2.59731 6.31687 0
M  V30 2409 O 224.427 3.60558 7.18507 0
M  V30 2410 H 224.159 -0.0229125 0.675612 0
M  V30 2411 H 226.713 0.581634 1.96993 0
M  V30 2412 H 224.943 -1.37274 3.61515 0
M  V30 2413 H 226.632 -1.07836 3.91313 0
M  V30 2414 H 227.398 1.28476 4.67674 0
M  V30 2415 H 223.277 0.0603857 4.6096 0
M  V30 2416 H 226.821 3.0976 6.25055 0
M  V30 2417 H 222.718 1.86498 6.17971 0
M  V30 2418 H 223.486 3.56829 7.36624 0
M  V30 2419 N 226.149 -1.5696 0.141893 0
M  V30 2420 C 227.395 -1.9625 -0.511248 0
M  V30 2421 C 227.728 -1.02654 -1.64851 0
M  V30 2422 O 227.003 -0.0679676 -1.94381 0
M  V30 2423 C 227.286 -3.45285 -1.02227 0
M  V30 2424 C 227.139 -4.49658 0.113138 0
M  V30 2425 C 228.458 -3.96698 -1.90574 0
M  V30 2426 H 225.577 -0.713567 -0.184367 0
M  V30 2427 H 228.219 -1.88698 0.222087 0
M  V30 2428 H 226.369 -3.51852 -1.64719 0
M  V30 2429 H 228.041 -4.55174 0.749302 0
M  V30 2430 H 226.284 -4.26857 0.773026 0
M  V30 2431 H 226.955 -5.51258 -0.286053 0
M  V30 2432 H 229.431 -3.92578 -1.37918 0
M  V30 2433 H 228.307 -5.01453 -2.2324 0
M  V30 2434 H 228.568 -3.3875 -2.84079 0
M  V30 2435 N 227.627 0.131896 -1.57047 0
M  V30 2436 C 228.575 1.18146 -2.0036 0
M  V30 2437 C 229.569 1.43614 -0.898406 0
M  V30 2438 O 230.775 1.43729 -1.08361 0
M  V30 2439 H 227.15 0.398042 -0.638018 0
M  V30 2440 H 229.121 0.789564 -2.87765 0
M  V30 2441 C 227.87 2.50341 -2.41298 0
M  V30 2442 H 227.193 2.31578 -3.25902 0
M  V30 2443 H 228.633 3.22371 -2.75414 0
M  V30 2444 C 227.092 3.11984 -1.27153 0
M  V30 2445 O 227.622 3.97484 -0.580459 0
M  V30 2446 N 225.828 2.71662 -1.03189 0
M  V30 2447 H 225.375 2.02231 -1.59564 0
M  V30 2448 H 225.333 3.13238 -0.270077 0
M  V30 2449 N 229.106 1.52395 0.401703 0
M  V30 2450 C 230.383 1.57387 1.16141 0
M  V30 2451 C 230.763 0.359359 2.08019 0
M  V30 2452 O 230.111 -0.65326 2.18963 0
M  V30 2453 C 230.321 2.90631 1.93221 0
M  V30 2454 C 231.669 3.43904 2.49028 0
M  V30 2455 O 232.693 2.92421 2.03393 0
M  V30 2456 O 231.552 4.33823 3.32356 0
M  V30 2457 H 228.646 0.634262 0.530698 0
M  V30 2458 H 231.192 1.64725 0.407883 0
M  V30 2459 H 229.964 3.70473 1.25958 0
M  V30 2460 H 229.587 2.8662 2.75563 0
M  V30 2461 N 230.584 -0.659388 1.43143 0
M  V30 2462 C 231.833 -1.41518 1.43721 0
M  V30 2463 C 232.146 -1.95499 0.0628176 0
M  V30 2464 O 233.352 -2.71446 -0.0539683 0
M  V30 2465 C 231.808 -2.5608 2.52885 0
M  V30 2466 C 231.416 -2.08733 3.96402 0
M  V30 2467 C 233.16 -3.3349 2.62649 0
M  V30 2468 C 231.067 -3.20469 4.97045 0
M  V30 2469 H 229.997 -0.531705 0.534608 0
M  V30 2470 H 232.648 -0.712343 1.69109 0
M  V30 2471 H 231.03 -3.28805 2.20688 0
M  V30 2472 H 232.204 -1.43059 4.3803 0
M  V30 2473 H 230.519 -1.44219 3.90627 0
M  V30 2474 H 233.116 -4.16734 3.35017 0
M  V30 2475 H 233.459 -3.8111 1.67513 0
M  V30 2476 H 233.992 -2.67842 2.94118 0
M  V30 2477 H 230.731 -2.77824 5.93712 0
M  V30 2478 H 230.251 -3.84874 4.60034 0
M  V30 2479 H 231.93 -3.85698 5.19467 0
M  V30 2480 N 232.062 -1.29571 -0.897171 0
M  V30 2481 C 233.308 -1.17863 -1.65034 0
M  V30 2482 C 233.641 0.268729 -1.92332 0
M  V30 2483 O 232.916 1.19378 -1.53555 0
M  V30 2484 C 233.199 -1.995 -2.99786 0
M  V30 2485 C 233.052 -3.5239 -2.79538 0
M  V30 2486 C 234.371 -1.82335 -4.00552 0
M  V30 2487 H 231.49 -0.429528 -0.598895 0
M  V30 2488 H 234.132 -1.59072 -1.03905 0
M  V30 2489 H 232.282 -1.64485 -3.51962 0
M  V30 2490 H 233.954 -3.97401 -2.34244 0
M  V30 2491 H 232.197 -3.77187 -2.14273 0
M  V30 2492 H 232.868 -4.04787 -3.75302 0
M  V30 2493 H 235.344 -2.12924 -3.57495 0
M  V30 2494 H 234.22 -2.41801 -4.92771 0
M  V30 2495 H 234.481 -0.779209 -4.35179 0
M  V30 2496 N 233.54 1.10788 -1.12088 0
M  V30 2497 C 234.47 2.19083 -0.807755 0
M  V30 2498 C 235.451 1.6858 0.226859 0
M  V30 2499 O 236.636 1.93997 0.0888475 0
M  V30 2500 C 233.766 3.46344 -0.257576 0
M  V30 2501 C 232.72 4.101 -1.22483 0
M  V30 2502 C 232.046 5.32016 -0.535052 0
M  V30 2503 C 233.346 4.54236 -2.57811 0
M  V30 2504 H 235.04 2.45534 -1.71328 0
M  V30 2505 H 232.586 1.1801 -0.825205 0
M  V30 2506 H 234.539 4.21392 -0.0262679 0
M  V30 2507 H 233.263 3.19373 0.683278 0
M  V30 2508 H 231.922 3.37054 -1.44189 0
M  V30 2509 H 231.57 5.01319 0.410827 0
M  V30 2510 H 231.27 5.75625 -1.18024 0
M  V30 2511 H 232.794 6.09799 -0.312695 0
M  V30 2512 H 234.208 5.20575 -2.40155 0
M  V30 2513 H 232.605 5.08682 -3.18375 0
M  V30 2514 H 233.675 3.6734 -3.16528 0
M  V30 2515 N 235.018 0.912232 1.28515 0
M  V30 2516 C 235.981 0.404223 2.25607 0
M  V30 2517 C 236.981 -0.468602 1.53821 0
M  V30 2518 O 238.171 -0.271873 1.72065 0
M  V30 2519 C 235.303 -0.420653 3.38295 0
M  V30 2520 H 236.496 1.26188 2.7206 0
M  V30 2521 H 234.049 0.691495 1.40171 0
M  V30 2522 H 234.784 -1.29777 2.97201 0
M  V30 2523 H 234.569 0.204935 3.91564 0
M  V30 2524 H 236.059 -0.766971 4.10496 0
M  V30 2525 N 236.496 -1.42363 0.676048 0
M  V30 2526 C 237.745 -2.00745 0.196037 0
M  V30 2527 C 238.058 -1.54083 -1.20489 0
M  V30 2528 O 239.264 -2.04891 -1.78134 0
M  V30 2529 C 237.72 -3.58651 0.299616 0
M  V30 2530 C 237.328 -4.143 1.70468 0
M  V30 2531 C 239.072 -4.24326 -0.121619 0
M  V30 2532 C 236.979 -5.64574 1.76096 0
M  V30 2533 H 235.909 -0.750787 0.0695301 0
M  V30 2534 H 238.56 -1.63072 0.841412 0
M  V30 2535 H 236.942 -3.93833 -0.413673 0
M  V30 2536 H 238.116 -3.90575 2.44515 0
M  V30 2537 H 236.431 -3.61081 2.07387 0
M  V30 2538 H 239.028 -5.34607 -0.0997362 0
M  V30 2539 H 239.371 -3.99897 -1.15708 0
M  V30 2540 H 239.904 -3.94108 0.540706 0
M  V30 2541 H 236.643 -5.93804 2.77628 0
M  V30 2542 H 236.163 -5.90286 1.06406 0
M  V30 2543 H 237.842 -6.29013 1.51496 0
M  V30 2544 N 237.974 -0.419461 -1.51915 0
M  V30 2545 C 238.904 0.391813 -2.30189 0
M  V30 2546 C 239.885 1.03699 -1.34836 0
M  V30 2547 O 241.07 1.04403 -1.63748 0
M  V30 2548 C 238.2 1.50312 -3.13087 0
M  V30 2549 C 237.154 0.9824 -4.16573 0
M  V30 2550 C 236.48 2.18809 -4.8788 0
M  V30 2551 C 237.78 0.0292356 -5.22292 0
M  V30 2552 H 239.474 -0.26135 -2.98257 0
M  V30 2553 H 237.02 -0.127134 -1.43438 0
M  V30 2554 H 238.973 2.07773 -3.66617 0
M  V30 2555 H 237.697 2.18431 -2.42807 0
M  V30 2556 H 236.356 0.430119 -3.64068 0
M  V30 2557 H 236.004 2.85507 -4.14119 0
M  V30 2558 H 235.704 1.84615 -5.57845 0
M  V30 2559 H 237.228 2.76858 -5.44226 0
M  V30 2560 H 238.642 0.512976 -5.71 0
M  V30 2561 H 237.039 -0.2244 -5.9968 0
M  V30 2562 H 238.109 -0.912931 -4.76228 0
M  V30 2563 N 239.452 1.56882 -0.150215 0
M  V30 2564 C 240.362 2.20494 0.801222 0
M  V30 2565 C 241.378 1.19019 1.26927 0
M  V30 2566 O 242.554 1.51607 1.32579 0
M  V30 2567 C 239.619 2.81659 2.02161 0
M  V30 2568 C 238.68 3.9827 1.60249 0
M  V30 2569 C 237.913 4.56508 2.7647 0
M  V30 2570 O 238.136 4.13627 3.92771 0
M  V30 2571 O 237.07 5.46719 2.51757 0
M  V30 2572 H 240.896 3.02315 0.289717 0
M  V30 2573 H 238.481 1.49202 0.0769684 0
M  V30 2574 H 240.363 3.20522 2.73576 0
M  V30 2575 H 239.038 2.02849 2.52258 0
M  V30 2576 H 237.945 3.64117 0.858477 0
M  V30 2577 H 239.278 4.78609 1.14864 0
M  V30 2578 N 240.93 -0.123565 1.57115 0
M  V30 2579 C 241.86 -1.15309 2.03042 0
M  V30 2580 C 242.841 -1.43454 0.914061 0
M  V30 2581 O 244.026 -1.53973 1.18347 0
M  V30 2582 C 241.156 -2.48043 2.43089 0
M  V30 2583 C 240.11 -2.3437 3.58127 0
M  V30 2584 C 239.436 -3.72026 3.84059 0
M  V30 2585 C 240.736 -1.80804 4.90007 0
M  V30 2586 H 242.43 -0.771102 2.893 0
M  V30 2587 H 239.976 -0.369479 1.39179 0
M  V30 2588 H 241.929 -3.20311 2.73823 0
M  V30 2589 H 240.653 -2.88122 1.53796 0
M  V30 2590 H 239.312 -1.64551 3.27595 0
M  V30 2591 H 238.96 -4.09582 2.91979 0
M  V30 2592 H 238.66 -3.63732 4.6149 0
M  V30 2593 H 240.184 -4.45806 4.1724 0
M  V30 2594 H 241.598 -2.42886 5.19307 0
M  V30 2595 H 239.995 -1.83343 5.71407 0
M  V30 2596 H 241.065 -0.76528 4.78823 0
M  V30 2597 N 242.408 -1.52605 -0.393616 0
M  V30 2598 C 243.338 -1.80022 -1.48709 0
M  V30 2599 C 244.319 -0.651995 -1.57108 0
M  V30 2600 O 245.504 -0.89913 -1.72132 0
M  V30 2601 C 242.634 -1.96492 -2.86371 0
M  V30 2602 C 241.588 -3.12161 -2.92813 0
M  V30 2603 C 240.914 -3.13877 -4.3288 0
M  V30 2604 C 242.214 -4.51322 -2.6288 0
M  V30 2605 H 243.908 -2.71589 -1.26015 0
M  V30 2606 H 241.454 -1.30684 -0.604778 0
M  V30 2607 H 243.407 -2.14255 -3.62867 0
M  V30 2608 H 242.131 -1.01611 -3.10391 0
M  V30 2609 H 240.79 -2.94173 -2.18764 0
M  V30 2610 H 240.438 -2.16687 -4.53933 0
M  V30 2611 H 240.138 -3.91576 -4.38112 0
M  V30 2612 H 241.662 -3.33789 -5.1129 0
M  V30 2613 H 243.076 -4.69435 -3.29096 0
M  V30 2614 H 241.473 -5.31053 -2.79468 0
M  V30 2615 H 242.543 -4.58353 -1.58242 0
M  V30 2616 N 243.887 0.651787 -1.4349 0
M  V30 2617 C 244.834 1.76462 -1.4876 0
M  V30 2618 C 245.804 1.62641 -0.337189 0
M  V30 2619 O 246.989 1.82864 -0.544544 0
M  V30 2620 C 244.129 3.14623 -1.41796 0
M  V30 2621 C 243.242 3.39568 -2.67053 0
M  V30 2622 C 242.377 4.67585 -2.52068 0
M  V30 2623 C 241.416 4.85639 -3.72587 0
M  V30 2624 N 240.553 6.04915 -3.56402 0
M  V30 2625 H 245.393 1.71293 -2.43849 0
M  V30 2626 H 242.93 0.835889 -1.21043 0
M  V30 2627 H 244.888 3.94496 -1.35753 0
M  V30 2628 H 243.518 3.18859 -0.50288 0
M  V30 2629 H 242.57 2.53783 -2.8337 0
M  V30 2630 H 243.882 3.48795 -3.56572 0
M  V30 2631 H 243.036 5.55586 -2.4374 0
M  V30 2632 H 241.775 4.60681 -1.60075 0
M  V30 2633 H 240.78 3.96073 -3.81321 0
M  V30 2634 H 242.005 4.94372 -4.65589 0
M  V30 2635 H 239.951 5.9914 -2.67146 0
M  V30 2636 H 239.868 6.15106 -4.39524 0
M  V30 2637 H 241.136 6.95533 -3.51929 0
M  V30 2638 N 245.365 1.30045 0.890287 0
M  V30 2639 C 246.595 1.21296 1.67245 0
M  V30 2640 C 247.003 -0.227471 1.87828 0
M  V30 2641 O 246.346 -1.16296 1.422 0
M  V30 2642 C 246.408 1.86519 3.07329 0
M  V30 2643 C 246.072 3.35837 3.09939 0
M  V30 2644 C 247.069 4.31915 2.89389 0
M  V30 2645 C 244.754 3.77196 3.31706 0
M  V30 2646 C 246.748 5.67325 2.90552 0
M  V30 2647 C 244.435 5.12725 3.32499 0
M  V30 2648 C 245.433 6.076 3.11947 0
M  V30 2649 O 245.121 7.40655 3.12547 0
M  V30 2650 H 244.853 0.4211 0.528821 0
M  V30 2651 H 247.407 1.72111 1.12103 0
M  V30 2652 H 245.637 1.30228 3.64112 0
M  V30 2653 H 247.326 1.71963 3.67673 0
M  V30 2654 H 248.092 4.01294 2.72375 0
M  V30 2655 H 243.971 3.03796 3.4674 0
M  V30 2656 H 247.515 6.41354 2.74429 0
M  V30 2657 H 243.412 5.42988 3.49047 0
M  V30 2658 H 244.18 7.49577 3.28749 0
M  V30 2659 N 246.843 -1.10192 1.12674 0
M  V30 2660 C 247.793 -2.14754 0.765801 0
M  V30 2661 C 248.777 -1.59154 -0.236409 0
M  V30 2662 O 249.969 -1.76951 -0.0415261 0
M  V30 2663 C 247.098 -3.42563 0.224827 0
M  V30 2664 C 246.184 -4.05091 1.25548 0
M  V30 2665 N 246.575 -4.42287 2.4539 0
M  V30 2666 C 244.873 -4.32186 1.10142 0
M  V30 2667 C 245.574 -4.91441 3.11224 0
M  V30 2668 N 244.55 -4.88405 2.38666 0
M  V30 2669 H 248.352 -2.41309 1.67772 0
M  V30 2670 H 245.866 -1.27339 1.00789 0
M  V30 2671 H 247.863 -4.16868 -0.0519578 0
M  V30 2672 H 246.523 -3.17467 -0.681515 0
M  V30 2673 H 247.534 -4.33902 2.82754 0
M  V30 2674 H 244.211 -4.16735 0.252587 0
M  V30 2675 H 245.601 -5.29749 4.13298 0
M  V30 2676 N 248.321 -0.919034 -1.28029 0
M  V30 2677 C 249.253 -0.368762 -2.26214 0
M  V30 2678 C 250.266 0.495716 -1.55069 0
M  V30 2679 O 251.455 0.30974 -1.75792 0
M  V30 2680 C 248.555 0.491049 -3.35324 0
M  V30 2681 C 247.728 -0.352133 -4.3598 0
M  V30 2682 C 246.787 0.443622 -5.24327 0
M  V30 2683 O 245.813 -0.14566 -5.69014 0
M  V30 2684 N 247.015 1.74545 -5.53637 0
M  V30 2685 H 249.78 -1.21273 -2.74068 0
M  V30 2686 H 247.341 -0.785541 -1.41566 0
M  V30 2687 H 249.333 1.03026 -3.91366 0
M  V30 2688 H 247.903 1.23574 -2.87138 0
M  V30 2689 H 247.123 -1.07269 -3.79324 0
M  V30 2690 H 248.411 -0.928883 -5.00249 0
M  V30 2691 H 247.809 2.24666 -5.19174 0
M  V30 2692 H 246.366 2.23138 -6.12416 0
M  V30 2693 N 249.799 1.42003 -0.683588 0
M  V30 2694 C 251.215 1.55625 -0.353976 0
M  V30 2695 C 251.415 1.66151 1.14 0
M  V30 2696 O 250.471 1.63329 1.92561 0
M  V30 2697 C 251.784 2.80171 -1.092 0
M  V30 2698 C 253.332 2.93954 -1.07518 0
M  V30 2699 C 253.807 4.21372 -1.79471 0
M  V30 2700 N 255.298 4.28303 -1.76381 0
M  V30 2701 C 256.033 5.25729 -2.28904 0
M  V30 2702 N 255.529 6.29254 -2.89846 0
M  V30 2703 N 257.322 5.17586 -2.19228 0
M  V30 2704 H 249.473 1.33415 -1.6527 0
M  V30 2705 H 251.736 0.64282 -0.696769 0
M  V30 2706 H 251.442 2.78561 -2.14701 0
M  V30 2707 H 251.316 3.7133 -0.662862 0
M  V30 2708 H 253.703 2.95086 -0.028475 0
M  V30 2709 H 253.784 2.04002 -1.54328 0
M  V30 2710 H 253.428 4.21001 -2.84114 0
M  V30 2711 H 253.358 5.10275 -1.30104 0
M  V30 2712 H 255.849 3.54119 -1.31939 0
M  V30 2713 H 256.162 6.99964 -3.27522 0
M  V30 2714 H 254.507 6.29791 -2.93919 0
M  V30 2715 H 257.698 4.35631 -1.71299 0
M  V30 2716 H 257.871 5.93348 -2.60466 0
M  V30 2717 N 251.277 0.427512 1.51691 0
M  V30 2718 C 252.523 -0.142439 2.02299 0
M  V30 2719 C 252.856 -1.43214 1.31162 0
M  V30 2720 O 252.131 -1.89833 0.423511 0
M  V30 2721 C 252.414 -0.371301 3.58181 0
M  V30 2722 C 252.267 0.936358 4.39946 0
M  V30 2723 C 253.586 -1.14542 4.24933 0
M  V30 2724 H 250.705 -0.0502937 0.735282 0
M  V30 2725 H 253.347 0.564584 1.81418 0
M  V30 2726 H 251.497 -0.973559 3.76104 0
M  V30 2727 H 253.169 1.57184 4.33694 0
M  V30 2728 H 251.412 1.5432 4.05423 0
M  V30 2729 H 252.083 0.730388 5.47147 0
M  V30 2730 H 254.559 -0.635362 4.11221 0
M  V30 2731 H 253.435 -1.27431 5.33903 0
M  V30 2732 H 253.696 -2.17093 3.85127 0
M  V30 2733 N 252.755 -1.56801 0.158532 0
M  V30 2734 C 253.685 -2.20347 -0.772609 0
M  V30 2735 C 254.666 -1.15518 -1.24859 0
M  V30 2736 O 255.851 -1.43902 -1.30406 0
M  V30 2737 C 252.981 -2.83417 -2.00729 0
M  V30 2738 C 251.935 -3.94174 -1.66765 0
M  V30 2739 C 251.261 -4.44233 -2.97592 0
M  V30 2740 C 252.561 -5.14392 -0.905447 0
M  V30 2741 H 254.255 -2.98413 -0.242959 0
M  V30 2742 H 251.801 -1.43537 -0.115419 0
M  V30 2743 H 253.754 -3.26543 -2.6636 0
M  V30 2744 H 252.478 -2.02701 -2.56086 0
M  V30 2745 H 251.137 -3.51684 -1.03508 0
M  V30 2746 H 250.785 -3.60325 -3.50963 0
M  V30 2747 H 250.485 -5.18945 -2.75626 0
M  V30 2748 H 252.009 -4.90037 -3.64274 0
M  V30 2749 H 253.423 -5.5429 -1.46408 0
M  V30 2750 H 251.82 -5.9494 -0.7853 0
M  V30 2751 H 252.89 -4.84795 0.100668 0
M  V30 2752 N 254.233 0.115231 -1.57178 0
M  V30 2753 C 255.463 0.835224 -1.88964 0
M  V30 2754 C 255.871 1.73774 -0.74829 0
M  V30 2755 O 255.214 1.81401 0.289739 0
M  V30 2756 C 255.276 1.7178 -3.15804 0
M  V30 2757 C 254.94 0.989198 -4.46166 0
M  V30 2758 C 255.937 0.328263 -5.18863 0
M  V30 2759 C 253.622 0.969256 -4.9286 0
M  V30 2760 C 255.616 -0.342873 -6.36477 0
M  V30 2761 C 253.303 0.294324 -6.10391 0
M  V30 2762 C 254.301 -0.360582 -6.82048 0
M  V30 2763 O 253.989 -1.02474 -7.97342 0
M  V30 2764 H 253.721 0.245197 -0.629964 0
M  V30 2765 H 256.275 0.10303 -2.05141 0
M  V30 2766 H 254.505 2.49173 -2.95719 0
M  V30 2767 H 256.194 2.31255 -3.33581 0
M  V30 2768 H 256.96 0.335263 -4.8384 0
M  V30 2769 H 252.839 1.46844 -4.36987 0
M  V30 2770 H 256.383 -0.854629 -6.92345 0
M  V30 2771 H 252.28 0.285099 -6.4487 0
M  V30 2772 H 253.048 -0.929594 -8.13204 0
M  V30 2773 N 255.711 1.52812 0.385517 0
M  V30 2774 C 256.96 1.67249 1.12741 0
M  V30 2775 C 257.273 0.4205 1.91027 0
M  V30 2776 O 258.479 0.445064 2.67827 0
M  V30 2777 C 256.935 2.95583 2.05326 0
M  V30 2778 C 256.543 4.27974 1.32447 0
M  V30 2779 C 258.287 3.19386 2.7963 0
M  V30 2780 C 256.194 5.47412 2.23818 0
M  V30 2781 H 255.124 0.6231 0.424573 0
M  V30 2782 H 257.775 1.79309 0.389924 0
M  V30 2783 H 256.157 2.77277 2.82725 0
M  V30 2784 H 257.331 4.56844 0.602495 0
M  V30 2785 H 255.646 4.10459 0.700885 0
M  V30 2786 H 258.243 4.05801 3.48181 0
M  V30 2787 H 258.586 2.34604 3.43899 0
M  V30 2788 H 259.119 3.38274 2.09322 0
M  V30 2789 H 255.858 6.34612 1.64157 0
M  V30 2790 H 255.378 5.22849 2.93921 0
M  V30 2791 H 257.057 5.81423 2.83824 0
M  V30 2792 N 257.189 -0.644168 1.43834 0
M  V30 2793 C 258.466 -1.40188 1.36406 0
M  V30 2794 C 258.846 -2.11094 0.0163124 0
M  V30 2795 O 258.194 -2.05426 -1.00062 0
M  V30 2796 C 258.404 -2.3791 2.55343 0
M  V30 2797 C 259.752 -3.01637 2.98832 0
M  V30 2798 O 260.776 -2.48237 2.55455 0
M  V30 2799 O 259.635 -3.98477 3.74003 0
M  V30 2800 H 256.729 -0.626773 0.539523 0
M  V30 2801 H 259.275 -0.670317 1.559 0
M  V30 2802 H 258.047 -1.84525 3.4506 0
M  V30 2803 H 257.67 -3.18503 2.37995 0
M  V30 2804 N 258.668 -1.30515 -0.883378 0
M  V30 2805 C 259.917 -1.18795 -1.63005 0
M  V30 2806 C 260.23 0.255923 -1.93919 0
M  V30 2807 O 261.436 0.494654 -2.66956 0
M  V30 2808 C 259.892 -2.07878 -2.93794 0
M  V30 2809 C 259.5 -3.57184 -2.70414 0
M  V30 2810 C 261.244 -2.04924 -3.71761 0
M  V30 2811 C 259.151 -4.38317 -3.97029 0
M  V30 2812 H 258.081 -0.441031 -0.611562 0
M  V30 2813 H 260.732 -1.55275 -0.977854 0
M  V30 2814 H 259.114 -1.64283 -3.60315 0
M  V30 2815 H 260.288 -4.08937 -2.12384 0
M  V30 2816 H 258.603 -3.61976 -2.0582 0
M  V30 2817 H 261.2 -2.62792 -4.65665 0
M  V30 2818 H 261.543 -1.0331 -4.03277 0
M  V30 2819 H 262.076 -2.46649 -3.12104 0
M  V30 2820 H 258.815 -5.40632 -3.70671 0
M  V30 2821 H 258.335 -3.91326 -4.54559 0
M  V30 2822 H 260.014 -4.49834 -4.65036 0
M  V30 2823 N 260.146 1.09593 -1.13257 0
M  V30 2824 C 261.423 1.78293 -0.804432 0
M  V30 2825 C 261.803 1.99004 0.70431 0
M  V30 2826 O 261.151 1.59007 1.641 0
M  V30 2827 C 261.361 3.10707 -1.5894 0
M  V30 2828 C 262.709 3.85443 -1.78099 0
M  V30 2829 O 263.733 3.20454 -1.55525 0
M  V30 2830 O 262.592 5.02108 -2.15753 0
M  V30 2831 H 259.686 0.773156 -0.293528 0
M  V30 2832 H 262.232 1.16164 -1.23709 0
M  V30 2833 H 261.004 2.91106 -2.61482 0
M  V30 2834 H 260.627 3.80558 -1.15157 0
M  V30 2835 N 261.624 0.925811 1.2754 0
M  V30 2836 C 262.873 0.561084 1.93739 0
M  V30 2837 C 263.186 -0.901685 1.73577 0
M  V30 2838 O 264.392 -1.37511 2.34101 0
M  V30 2839 C 262.848 0.952668 3.47062 0
M  V30 2840 C 262.456 2.43599 3.75983 0
M  V30 2841 C 264.2 0.659103 4.19352 0
M  V30 2842 C 262.107 2.76707 5.22673 0
M  V30 2843 H 261.037 0.206122 0.725279 0
M  V30 2844 H 263.688 1.12637 1.44863 0
M  V30 2845 H 262.07 0.316053 3.94737 0
M  V30 2846 H 263.244 3.12035 3.39073 0
M  V30 2847 H 261.559 2.70125 3.16893 0
M  V30 2848 H 264.156 0.882985 5.27359 0
M  V30 2849 H 264.499 -0.403607 4.14339 0
M  V30 2850 H 265.032 1.25473 3.77494 0
M  V30 2851 H 261.771 3.8188 5.32774 0
M  V30 2852 H 261.291 2.12919 5.60737 0
M  V30 2853 H 262.97 2.6435 5.90532 0
M  V30 2854 N 263.102 -1.41638 0.69111 0
M  V30 2855 C 264.052 -2.28 -0.000107832 0
M  V30 2856 C 265.036 -1.41964 -0.757304 0
M  V30 2857 O 266.228 -1.65274 -0.633532 0
M  V30 2858 C 263.357 -3.30209 -0.938983 0
M  V30 2859 C 262.443 -4.23725 -0.17827 0
M  V30 2860 N 262.834 -4.99017 0.825563 0
M  V30 2861 C 261.132 -4.44071 -0.414392 0
M  V30 2862 C 261.833 -5.67431 1.28052 0
M  V30 2863 N 260.809 -5.40197 0.607304 0
M  V30 2864 H 264.611 -2.83644 0.769617 0
M  V30 2865 H 262.125 -1.53797 0.521562 0
M  V30 2866 H 264.122 -3.90898 -1.44929 0
M  V30 2867 H 262.782 -2.76126 -1.70836 0
M  V30 2868 H 263.793 -5.03671 1.20566 0
M  V30 2869 H 260.47 -4.01004 -1.162 0
M  V30 2870 H 261.86 -6.37801 2.11327 0
M  V30 2871 N 264.58 -0.43555 -1.51462 0
M  V30 2872 C 265.53 0.394701 -2.24558 0
M  V30 2873 C 266.514 0.99157 -1.26715 0
M  V30 2874 O 267.706 0.910007 -1.51815 0
M  V30 2875 C 264.835 1.4963 -3.08975 0
M  V30 2876 C 263.921 0.908912 -4.14246 0
M  V30 2877 N 264.312 0.0505335 -5.05775 0
M  V30 2878 C 262.61 1.17668 -4.30198 0
M  V30 2879 C 263.311 -0.279161 -5.8103 0
M  V30 2880 N 262.287 0.336767 -5.42556 0
M  V30 2881 H 266.089 -0.267106 -2.92684 0
M  V30 2882 H 263.603 -0.247518 -1.60503 0
M  V30 2883 H 265.6 2.10394 -3.59917 0
M  V30 2884 H 264.26 2.16046 -2.42393 0
M  V30 2885 H 265.271 -0.31577 -5.16936 0
M  V30 2886 H 261.948 1.83847 -3.74842 0
M  V30 2887 H 263.338 -0.977553 -6.64751 0
M  V30 2888 N 266.058 1.56714 -0.166846 0
M  V30 2889 C 267.306 1.96358 0.478305 0
M  V30 2890 C 267.627 1.0537 1.6408 0
M  V30 2891 O 266.897 0.119154 1.95537 0
M  V30 2892 H 265.477 0.725065 0.179692 0
M  V30 2893 H 268.139 1.93329 -0.246985 0
M  V30 2894 H 267.235 3.00547 0.841292 0
M  V30 2895 N 267.536 -0.106894 1.57237 0
M  V30 2896 C 268.813 -0.843526 1.76477 0
M  V30 2897 C 269.193 -1.97499 0.745464 0
M  V30 2898 O 268.541 -2.27357 -0.228306 0
M  V30 2899 C 268.751 -1.34903 3.21873 0
M  V30 2900 C 270.099 -1.79654 3.8472 0
M  V30 2901 O 271.123 -1.44554 3.2555 0
M  V30 2902 O 269.982 -2.44515 4.88748 0
M  V30 2903 H 267.076 -0.401468 0.723016 0
M  V30 2904 H 269.622 -0.0896927 1.69463 0
M  V30 2905 H 268.394 -0.53781 3.87586 0
M  V30 2906 H 268.017 -2.16522 3.33473 0
M  V30 2907 N 269.014 -1.53014 -0.377408 0
M  V30 2908 C 270.262 -1.6829 -1.11906 0
M  V30 2909 C 270.583 -0.431206 -1.90173 0
M  V30 2910 O 269.853 0.554595 -1.87886 0
M  V30 2911 H 268.433 -0.620371 -0.416112 0
M  V30 2912 H 271.095 -1.90167 -0.426893 0
M  V30 2913 H 270.191 -2.53862 -1.8155 0
M  V30 2914 N 270.492 0.636531 -1.44174 0
M  V30 2915 C 271.738 1.39826 -1.4689 0
M  V30 2916 C 272.071 1.93947 -0.0990585 0
M  V30 2917 O 271.346 1.73325 0.882544 0
M  V30 2918 C 271.629 2.56751 -2.5249 0
M  V30 2919 C 271.482 2.08014 -3.98811 0
M  V30 2920 C 272.801 3.58946 -2.54649 0
M  V30 2921 H 269.92 0.507075 -0.53483 0
M  V30 2922 H 272.562 0.720188 -1.75822 0
M  V30 2923 H 270.712 3.14597 -2.2795 0
M  V30 2924 H 272.384 1.5504 -4.34466 0
M  V30 2925 H 270.627 1.39242 -4.10846 0
M  V30 2926 H 271.298 2.92169 -4.68339 0
M  V30 2927 H 273.774 3.1089 -2.76563 0
M  V30 2928 H 272.65 4.38286 -3.3045 0
M  V30 2929 H 272.911 4.12655 -1.58646 0
M  V30 2930 N 271.97 1.30982 0.876444 0
M  V30 2931 C 272.88 1.2003 2.01569 0
M  V30 2932 C 273.896 0.11838 1.73597 0
M  V30 2933 O 275.072 0.33495 1.98595 0
M  V30 2934 C 272.137 0.901637 3.34771 0
M  V30 2935 C 271.198 2.06979 3.76109 0
M  V30 2936 C 270.431 1.78529 5.02954 0
M  V30 2937 O 270.654 0.717296 5.65872 0
M  V30 2938 O 269.588 2.64019 5.40905 0
M  V30 2939 H 273.414 2.15753 2.13739 0
M  V30 2940 H 270.999 1.10658 1.00375 0
M  V30 2941 H 272.881 0.750645 4.1466 0
M  V30 2942 H 271.556 -0.0256141 3.2369 0
M  V30 2943 H 270.463 2.27616 2.96887 0
M  V30 2944 H 271.796 2.97907 3.91807 0
M  V30 2945 N 273.449 -1.08991 1.13837 0
M  V30 2946 C 274.359 -2.19301 0.833333 0
M  V30 2947 C 275.375 -1.73026 -0.183847 0
M  V30 2948 O 276.551 -2.01395 -0.0138092 0
M  V30 2949 C 273.616 -3.45323 0.308651 0
M  V30 2950 C 272.677 -4.06255 1.38764 0
M  V30 2951 C 271.91 -5.26262 0.887896 0
M  V30 2952 O 272.133 -5.69747 -0.27287 0
M  V30 2953 O 271.067 -5.78435 1.66421 0
M  V30 2954 H 274.893 -2.47854 1.75506 0
M  V30 2955 H 272.478 -1.18012 0.916166 0
M  V30 2956 H 274.36 -4.21394 0.0216739 0
M  V30 2957 H 273.035 -3.18362 -0.585431 0
M  V30 2958 H 271.942 -3.318 1.72799 0
M  V30 2959 H 273.275 -4.37452 2.25602 0
M  V30 2960 N 274.927 -0.932562 -1.27047 0
M  V30 2961 C 275.89 -0.440064 -2.24936 0
M  V30 2962 C 276.89 0.444071 -1.54547 0
M  V30 2963 O 278.08 0.244465 -1.72476 0
M  V30 2964 C 275.212 0.36678 -3.38921 0
M  V30 2965 H 276.405 -1.305 -2.70018 0
M  V30 2966 H 273.958 -0.713707 -1.39054 0
M  V30 2967 H 274.693 1.25033 -2.99228 0
M  V30 2968 H 274.478 -0.267204 -3.91188 0
M  V30 2969 H 275.968 0.701567 -4.11665 0
M  V30 2970 N 276.405 1.4127 -0.698611 0
M  V30 2971 C 277.652 2.0118 -0.230865 0
M  V30 2972 C 277.98 1.55338 1.17049 0
M  V30 2973 O 277.235 0.756775 1.80475 0
M  V30 2974 C 277.534 3.56592 -0.240192 0
M  V30 2975 C 277.2 4.21955 -1.58948 0
M  V30 2976 C 275.862 4.39524 -1.95887 0
M  V30 2977 C 278.214 4.58576 -2.47704 0
M  V30 2978 C 275.542 4.90992 -3.2116 0
M  V30 2979 C 277.894 5.11435 -3.72313 0
M  V30 2980 C 276.558 5.27215 -4.0939 0
M  V30 2981 H 275.828 0.736169 -0.0844796 0
M  V30 2982 H 278.475 1.69124 -0.8983 0
M  V30 2983 H 276.78 3.88456 0.510797 0
M  V30 2984 H 278.477 4.00758 0.139296 0
M  V30 2985 H 275.067 4.08657 -1.29219 0
M  V30 2986 H 279.251 4.44654 -2.20445 0
M  V30 2987 H 274.507 5.01393 -3.49878 0
M  V30 2988 H 278.681 5.38752 -4.4127 0
M  V30 2989 H 276.308 5.66859 -5.06533 0
M  V30 2990 N 277.883 0.443576 1.51229 0
M  V30 2991 C 279.113 -0.119117 2.06256 0
M  V30 2992 C 279.521 -1.36471 1.31043 0
M  V30 2993 O 278.864 -1.80034 0.365151 0
M  V30 2994 C 278.926 -0.500546 3.55998 0
M  V30 2995 C 278.59 0.639125 4.52509 0
M  V30 2996 C 279.587 1.51311 4.97394 0
M  V30 2997 C 277.272 0.821632 4.95535 0
M  V30 2998 C 279.266 2.55425 5.83984 0
M  V30 2999 C 276.953 1.86603 5.81913 0
M  V30 3000 C 277.951 2.73072 6.26036 0
M  V30 3001 O 277.639 3.75718 7.10698 0
M  V30 3002 H 277.371 -0.00857665 0.675946 0
M  V30 3003 H 279.925 0.623288 1.95715 0
M  V30 3004 H 278.155 -1.29575 3.64345 0
M  V30 3005 H 279.844 -0.995116 3.93513 0
M  V30 3006 H 280.61 1.38367 4.64844 0
M  V30 3007 H 276.489 0.158149 4.60729 0
M  V30 3008 H 280.033 3.22949 6.18344 0
M  V30 3009 H 275.93 1.99564 6.13876 0
M  V30 3010 H 276.698 3.72374 7.2889 0
M  V30 3011 N 279.361 -1.56624 0.175154 0
M  V30 3012 C 280.589 -2.01374 -0.474971 0
M  V30 3013 C 281.004 -1.05537 -1.56548 0
M  V30 3014 O 280.361 -0.0568668 -1.82411 0
M  V30 3015 C 280.412 -3.45923 -1.04975 0
M  V30 3016 O 280.133 -4.381 -0.00276605 0
M  V30 3017 C 281.634 -4.06093 -1.77773 0
M  V30 3018 H 278.854 -0.659962 -0.121206 0
M  V30 3019 H 281.398 -2.02601 0.27801 0
M  V30 3020 H 279.553 -3.45458 -1.75321 0
M  V30 3021 H 279.967 -5.22753 -0.427681 0
M  V30 3022 H 281.441 -5.09147 -2.13245 0
M  V30 3023 H 281.918 -3.48405 -2.67414 0
M  V30 3024 H 282.524 -4.10272 -1.12059 0
M  V30 3025 N 280.839 0.0985539 -1.57292 0
M  V30 3026 C 282.067 0.816318 -1.90115 0
M  V30 3027 C 282.482 1.72451 -0.768509 0
M  V30 3028 O 281.839 1.80643 0.259687 0
M  V30 3029 C 281.89 1.63259 -3.22535 0
M  V30 3030 O 281.611 0.760934 -4.31441 0
M  V30 3031 C 283.112 2.45372 -3.69199 0
M  V30 3032 H 280.332 0.233595 -0.629027 0
M  V30 3033 H 282.876 0.0768229 -2.04356 0
M  V30 3034 H 281.031 2.32463 -3.09903 0
M  V30 3035 H 281.445 1.32595 -5.07463 0
M  V30 3036 H 282.919 2.98144 -4.64558 0
M  V30 3037 H 283.396 3.23677 -2.96867 0
M  V30 3038 H 284.002 1.81373 -3.84687 0
M  V30 3039 N 282.317 1.53212 0.369288 0
M  V30 3040 C 283.594 1.59815 1.12776 0
M  V30 3041 C 283.974 0.403402 2.0721 0
M  V30 3042 O 283.322 -0.606667 2.20299 0
M  V30 3043 C 283.532 2.94664 1.87013 0
M  V30 3044 C 284.88 3.49109 2.41677 0
M  V30 3045 O 285.904 2.96669 1.97144 0
M  V30 3046 O 284.763 4.40775 3.23079 0
M  V30 3047 H 281.857 0.645376 0.517125 0
M  V30 3048 H 284.403 1.65553 0.37285 0
M  V30 3049 H 283.175 3.73061 1.18071 0
M  V30 3050 H 282.798 2.92401 2.69421 0
M  V30 3051 N 283.795 -0.628877 1.44509 0
M  V30 3052 C 285.211 -0.947305 1.28446 0
M  V30 3053 C 285.411 -2.00275 0.221872 0
M  V30 3054 O 284.467 -2.49447 -0.391471 0
M  V30 3055 C 285.78 -1.40843 2.65676 0
M  V30 3056 C 287.328 -1.52379 2.73404 0
M  V30 3057 C 287.803 -2.01875 4.11109 0
M  V30 3058 N 289.294 -2.09142 4.13296 0
M  V30 3059 C 290.029 -2.48615 5.16699 0
M  V30 3060 N 289.525 -2.87209 6.30462 0
M  V30 3061 N 291.318 -2.48768 5.04054 0
M  V30 3062 H 283.469 0.0690977 2.12288 0
M  V30 3063 H 285.732 -0.0317164 0.947469 0
M  V30 3064 H 285.438 -0.707206 3.44516 0
M  V30 3065 H 285.312 -2.37902 2.92716 0
M  V30 3066 H 287.699 -2.21598 1.9488 0
M  V30 3067 H 287.78 -0.536898 2.50102 0
M  V30 3068 H 287.424 -1.3325 4.90109 0
M  V30 3069 H 287.354 -3.0144 4.31789 0
M  V30 3070 H 289.845 -1.81991 3.31191 0
M  V30 3071 H 290.158 -3.16149 7.05174 0
M  V30 3072 H 288.503 -2.84955 6.33897 0
M  V30 3073 H 291.694 -2.18009 4.14234 0
M  V30 3074 H 291.867 -2.79207 5.84763 0
M  V30 3075 N 285.273 -1.31445 -0.869486 0
M  V30 3076 C 286.519 -1.21337 -1.62496 0
M  V30 3077 C 286.852 0.227872 -1.92858 0
M  V30 3078 O 286.127 1.16094 -1.56053 0
M  V30 3079 C 286.41 -2.05814 -2.95487 0
M  V30 3080 C 286.263 -3.5824 -2.72 0
M  V30 3081 C 287.582 -1.9079 -3.96594 0
M  V30 3082 H 284.701 -0.442135 -0.589649 0
M  V30 3083 H 287.343 -1.6124 -1.00507 0
M  V30 3084 H 285.493 -1.71913 -3.48394 0
M  V30 3085 H 287.165 -4.0228 -2.25762 0
M  V30 3086 H 285.408 -3.81647 -2.06224 0
M  V30 3087 H 286.079 -4.12657 -3.66631 0
M  V30 3088 H 288.555 -2.20459 -3.52898 0
M  V30 3089 H 287.431 -2.52199 -4.87531 0
M  V30 3090 H 287.692 -0.871341 -4.33428 0
M  V30 3091 N 286.751 1.08385 -1.14413 0
M  V30 3092 C 287.684 2.14642 -0.774871 0
M  V30 3093 C 288.662 1.60761 0.243876 0
M  V30 3094 O 289.846 1.88031 0.132883 0
M  V30 3095 C 286.973 3.38366 -0.150491 0
M  V30 3096 C 286.019 4.10997 -1.13945 0
M  V30 3097 S 286.852 4.63797 -2.67679 0
M  V30 3098 C 288.008 5.90808 -2.06631 0
M  V30 3099 H 288.241 2.45633 -1.67487 0
M  V30 3100 H 285.774 1.20498 -0.96538 0
M  V30 3101 H 287.732 4.09996 0.203334 0
M  V30 3102 H 286.393 3.05572 0.72694 0
M  V30 3103 H 285.586 4.99783 -0.65059 0
M  V30 3104 H 285.188 3.4528 -1.43727 0
M  V30 3105 H 287.48 6.62411 -1.4219 0
M  V30 3106 H 288.423 6.4439 -2.93542 0
M  V30 3107 H 288.831 5.4383 -1.51357 0
M  V30 3108 N 288.23 0.939286 1.26551 0
M  V30 3109 C 289.458 0.602536 1.97932 0
M  V30 3110 C 289.873 -0.82206 1.69964 0
M  V30 3111 O 289.23 -1.54789 0.966784 0
M  V30 3112 C 289.281 0.832946 3.51773 0
M  V30 3113 O 289.002 2.20151 3.78768 0
M  V30 3114 C 290.503 0.506483 4.40397 0
M  V30 3115 H 287.723 0.227248 0.631347 0
M  V30 3116 H 290.267 1.25948 1.61113 0
M  V30 3117 H 288.422 0.222644 3.8676 0
M  V30 3118 H 288.836 2.26013 4.73306 0
M  V30 3119 H 290.31 0.718333 5.47306 0
M  V30 3120 H 290.787 -0.558451 4.35635 0
M  V30 3121 H 291.393 1.09543 4.10951 0
M  V30 3122 N 289.708 -1.40897 0.706093 0
M  V30 3123 C 290.954 -2.01352 0.241889 0
M  V30 3124 C 291.287 -1.55832 -1.15888 0
M  V30 3125 O 290.562 -0.774145 -1.7843 0
M  V30 3126 C 290.845 -3.58752 0.311311 0
M  V30 3127 C 290.698 -4.1437 1.74978 0
M  V30 3128 C 292.017 -4.38914 -0.322922 0
M  V30 3129 H 289.136 -0.731562 0.0893687 0
M  V30 3130 H 291.778 -1.67504 0.896802 0
M  V30 3131 H 289.928 -3.87718 -0.246302 0
M  V30 3132 H 291.6 -3.96239 2.36205 0
M  V30 3133 H 289.843 -3.69016 2.28057 0
M  V30 3134 H 290.514 -5.23532 1.74981 0
M  V30 3135 H 292.99 -4.15822 0.152089 0
M  V30 3136 H 291.866 -5.48358 -0.243855 0
M  V30 3137 H 292.127 -4.19176 -1.40513 0
M  V30 3138 N 291.186 -0.45159 -1.50991 0
M  V30 3139 C 292.411 0.110667 -2.07105 0
M  V30 3140 C 292.836 1.3446 -1.31538 0
M  V30 3141 O 292.194 1.77743 -0.357365 0
M  V30 3142 C 292.242 0.397238 -3.58405 0
M  V30 3143 O 291.346 1.48124 -3.84881 0
M  V30 3144 H 290.687 -0.00439271 -0.663985 0
M  V30 3145 H 293.217 -0.637026 -1.9443 0
M  V30 3146 H 293.227 0.64351 -4.02893 0
M  V30 3147 H 291.902 -0.504553 -4.12828 0
M  V30 3148 H 290.479 1.22381 -3.52246 0
M  V30 3149 N 292.664 1.56529 -0.183458 0
M  V30 3150 C 293.911 1.97244 0.458357 0
M  V30 3151 C 294.239 1.06992 1.62428 0
M  V30 3152 O 293.494 0.106542 1.9541 0
M  V30 3153 C 293.793 3.43939 0.971637 0
M  V30 3154 C 293.459 4.5083 -0.0796784 0
M  V30 3155 C 292.121 4.79786 -0.368584 0
M  V30 3156 C 294.473 5.15138 -0.792638 0
M  V30 3157 C 291.801 5.70345 -1.37563 0
M  V30 3158 C 294.153 6.06784 -1.78875 0
M  V30 3159 C 292.817 6.34102 -2.08497 0
M  V30 3160 H 292.087 0.721768 0.167725 0
M  V30 3161 H 294.734 1.89472 -0.277976 0
M  V30 3162 H 293.039 3.48724 1.78602 0
M  V30 3163 H 294.736 3.72791 1.47744 0
M  V30 3164 H 291.326 4.28317 0.155668 0
M  V30 3165 H 295.51 4.92868 -0.582659 0
M  V30 3166 H 290.766 5.89789 -1.61118 0
M  V30 3167 H 294.94 6.55677 -2.3465 0
M  V30 3168 H 292.567 7.04074 -2.86678 0
M  V30 3169 N 294.142 -0.090211 1.57342 0
M  V30 3170 C 295.092 -1.11557 1.98844 0
M  V30 3171 C 296.076 -1.35503 0.867624 0
M  V30 3172 O 297.268 -1.36113 1.13148 0
M  V30 3173 C 294.397 -2.43446 2.42051 0
M  V30 3174 C 293.483 -2.22853 3.60828 0
M  V30 3175 N 293.874 -1.72141 4.75606 0
M  V30 3176 C 292.172 -2.53401 3.67021 0
M  V30 3177 C 292.873 -1.65932 5.57531 0
M  V30 3178 N 291.849 -2.11323 5.00843 0
M  V30 3179 H 295.651 -0.716499 2.85032 0
M  V30 3180 H 293.165 -0.297567 1.59651 0
M  V30 3181 H 295.162 -3.17644 2.70014 0
M  V30 3182 H 293.822 -2.84087 1.57241 0
M  V30 3183 H 294.833 -1.41268 4.98261 0
M  V30 3184 H 291.51 -2.97532 2.92884 0
M  V30 3185 H 292.9 -1.27733 6.59647 0
M  V30 3186 N 295.62 -1.53406 -0.361157 0
M  V30 3187 C 296.567 -1.80156 -1.44265 0
M  V30 3188 C 297.537 -0.646183 -1.53015 0
M  V30 3189 O 298.722 -0.888818 -1.68833 0
M  V30 3190 C 295.862 -2.00116 -2.81154 0
M  V30 3191 C 294.975 -3.27833 -2.81335 0
M  V30 3192 C 294.11 -3.37957 -4.09828 0
M  V30 3193 C 293.149 -4.59689 -4.04168 0
M  V30 3194 N 292.286 -4.66942 -5.24318 0
M  V30 3195 H 297.126 -2.72438 -1.20754 0
M  V30 3196 H 294.663 -1.34954 -0.585296 0
M  V30 3197 H 296.621 -2.09677 -3.60682 0
M  V30 3198 H 295.251 -1.11167 -3.03054 0
M  V30 3199 H 294.303 -3.27204 -1.94014 0
M  V30 3200 H 295.615 -4.17442 -2.73027 0
M  V30 3201 H 294.769 -3.46853 -4.97773 0
M  V30 3202 H 293.508 -2.46372 -4.20894 0
M  V30 3203 H 292.513 -4.50889 -3.14609 0
M  V30 3204 H 293.738 -5.5262 -3.947 0
M  V30 3205 H 291.684 -3.7826 -5.35962 0
M  V30 3206 H 291.601 -5.50462 -5.18197 0
M  V30 3207 H 292.869 -4.80127 -6.14084 0
M  V30 3208 N 297.098 0.621204 -1.44841 0
M  V30 3209 C 298.328 1.40548 -1.51426 0
M  V30 3210 C 298.736 1.88673 -0.141083 0
M  V30 3211 O 298.079 1.62053 0.865128 0
M  V30 3212 C 298.141 2.65325 -2.42576 0
M  V30 3213 C 297.805 2.3893 -3.89566 0
M  V30 3214 C 298.802 2.00138 -4.79834 0
M  V30 3215 C 296.487 2.52263 -4.3436 0
M  V30 3216 C 298.481 1.75021 -6.129 0
M  V30 3217 C 296.168 2.2676 -5.67471 0
M  V30 3218 C 297.166 1.88199 -6.56559 0
M  V30 3219 O 296.854 1.62986 -7.87204 0
M  V30 3220 H 296.586 0.437122 -0.515655 0
M  V30 3221 H 299.14 0.765987 -1.90583 0
M  V30 3222 H 297.37 3.31947 -1.98364 0
M  V30 3223 H 299.059 3.27347 -2.39998 0
M  V30 3224 H 299.825 1.89386 -4.46495 0
M  V30 3225 H 295.704 2.81246 -3.65269 0
M  V30 3226 H 299.248 1.44848 -6.82396 0
M  V30 3227 H 295.145 2.37125 -6.00368 0
M  V30 3228 H 295.913 1.7715 -7.991 0
M  V30 3229 N 298.576 1.31904 0.862503 0
M  V30 3230 C 299.824 1.21776 1.61292 0
M  V30 3231 C 300.145 -0.222413 1.93727 0
M  V30 3232 O 299.415 -1.1451 1.58947 0
M  V30 3233 H 297.995 0.447717 0.597962 0
M  V30 3234 H 300.657 1.65326 1.03215 0
M  V30 3235 H 299.753 1.7948 2.5533 0
M  V30 3236 N 300.054 -1.07777 1.14986 0
M  V30 3237 C 300.964 -2.18404 0.856546 0
M  V30 3238 C 301.98 -1.73211 -0.165485 0
M  V30 3239 O 303.156 -2.01399 0.00755219 0
M  V30 3240 C 300.221 -3.44977 0.34526 0
M  V30 3241 C 299.282 -4.0476 1.43065 0
M  V30 3242 C 298.515 -5.25291 0.943663 0
M  V30 3243 O 298.738 -5.70004 -0.212426 0
M  V30 3244 O 297.672 -5.76638 1.72547 0
M  V30 3245 H 301.498 -2.45978 1.78125 0
M  V30 3246 H 299.083 -1.17033 0.928631 0
M  V30 3247 H 300.965 -4.21348 0.0663671 0
M  V30 3248 H 299.64 -3.18965 -0.551631 0
M  V30 3249 H 298.547 -3.29949 1.76309 0
M  V30 3250 H 299.88 -4.35035 2.30229 0
M  V30 3251 N 301.532 -0.945985 -1.26051 0
M  V30 3252 C 302.762 -0.612136 -1.97323 0
M  V30 3253 C 303.17 0.818171 -1.70595 0
M  V30 3254 O 302.513 1.55777 -0.973613 0
M  V30 3255 C 302.575 -0.780347 -3.50929 0
M  V30 3256 C 302.239 -2.18619 -4.01317 0
M  V30 3257 C 303.236 -3.16209 -4.12683 0
M  V30 3258 C 300.921 -2.50805 -4.35203 0
M  V30 3259 C 302.915 -4.44085 -4.57238 0
M  V30 3260 C 300.602 -3.78912 -4.79446 0
M  V30 3261 C 301.6 -4.75365 -4.90425 0
M  V30 3262 O 301.288 -6.01191 -5.3369 0
M  V30 3263 H 301.02 -0.229134 -0.635982 0
M  V30 3264 H 303.574 -1.27036 -1.61404 0
M  V30 3265 H 301.804 -0.0649864 -3.86645 0
M  V30 3266 H 303.493 -0.448842 -4.03411 0
M  V30 3267 H 304.259 -2.92668 -3.86744 0
M  V30 3268 H 300.138 -1.76463 -4.2589 0
M  V30 3269 H 303.682 -5.19373 -4.65723 0
M  V30 3270 H 299.579 -4.02265 -5.0483 0
M  V30 3271 H 300.347 -6.04442 -5.51899 0
M  V30 3272 N 303.011 1.40521 -0.713556 0
M  V30 3273 C 304.258 2.00923 -0.25219 0
M  V30 3274 C 304.586 1.56571 1.15395 0
M  V30 3275 O 303.841 0.775874 1.79663 0
M  V30 3276 C 304.14 3.56317 -0.278 0
M  V30 3277 C 303.806 4.20246 -1.63415 0
M  V30 3278 C 302.468 4.37422 -2.00538 0
M  V30 3279 C 304.82 4.55923 -2.52554 0
M  V30 3280 C 302.148 4.87558 -3.2635 0
M  V30 3281 C 304.5 5.07458 -3.77716 0
M  V30 3282 C 303.164 5.22843 -4.14959 0
M  V30 3283 H 302.434 0.735231 -0.0922829 0
M  V30 3284 H 305.081 1.68161 -0.916188 0
M  V30 3285 H 303.386 3.88976 0.469567 0
M  V30 3286 H 305.083 4.00883 0.0967819 0
M  V30 3287 H 301.673 4.07263 -1.33546 0
M  V30 3288 H 305.857 4.42291 -2.25149 0
M  V30 3289 H 301.113 4.97654 -3.55176 0
M  V30 3290 H 305.287 5.34041 -4.4696 0
M  V30 3291 H 302.914 5.61454 -5.12516 0
M  V30 3292 N 304.489 0.459591 1.5075 0
M  V30 3293 C 305.9 0.00171547 1.867 0
M  V30 3294 C 306.251 -1.39934 1.37525 0
M  V30 3295 O 305.376 -2.03523 0.735349 0
M  V30 3296 C 305.971 -0.00366298 3.388 0
M  V30 3297 C 304.53 -0.406026 3.74204 0
M  V30 3298 C 303.677 0.38673 2.7459 0
M  V30 3299 H 306.628 0.674413 1.43657 0
M  V30 3300 H 306.649 -0.808371 3.71814 0
M  V30 3301 H 306.161 1.01617 3.74561 0
M  V30 3302 H 304.262 -1.43063 3.4404 0
M  V30 3303 H 304.375 -0.115362 4.78961 0
M  V30 3304 H 302.739 -0.158019 2.54209 0
M  V30 3305 H 303.522 1.40585 3.13194 0
M  V30 3306 N 305.967 -1.56429 0.191757 0
M  V30 3307 C 307.215 -1.97095 -0.447006 0
M  V30 3308 C 307.536 -1.07967 -1.62383 0
M  V30 3309 O 306.806 -0.150248 -1.95323 0
M  V30 3310 H 305.386 -0.727832 -0.168135 0
M  V30 3311 H 308.048 -1.92911 0.27771 0
M  V30 3312 H 307.144 -3.01848 -0.793371 0
M  V30 3313 N 307.445 0.0818655 -1.57387 0
M  V30 3314 C 308.673 0.796108 -1.9097 0
M  V30 3315 C 309.088 1.71626 -0.786757 0
M  V30 3316 O 308.445 1.80908 0.240513 0
M  V30 3317 C 308.496 1.59829 -3.24248 0
M  V30 3318 O 308.217 0.715131 -4.32224 0
M  V30 3319 C 309.718 2.41442 -3.7178 0
M  V30 3320 H 306.938 0.22691 -0.631469 0
M  V30 3321 H 309.482 0.0551439 -2.04426 0
M  V30 3322 H 307.637 2.29163 -3.12351 0
M  V30 3323 H 308.051 1.27205 -5.08841 0
M  V30 3324 H 309.525 2.932 -4.67694 0
M  V30 3325 H 310.002 3.2051 -3.00283 0
M  V30 3326 H 310.608 1.77283 -3.86589 0
M  V30 3327 N 308.923 1.53595 0.353017 0
M  V30 3328 C 310.171 1.70049 1.09215 0
M  V30 3329 C 310.492 0.461406 1.89463 0
M  V30 3330 O 309.762 -0.524633 1.88744 0
M  V30 3331 H 308.342 0.626912 0.40619 0
M  V30 3332 H 311.004 1.90822 0.396585 0
M  V30 3333 H 310.1 2.56718 1.77488 0
M  V30 3334 N 310.401 -0.613514 1.45168 0
M  V30 3335 C 311.678 -1.37263 1.39349 0
M  V30 3336 C 312.058 -2.11012 0.0610848 0
M  V30 3337 O 311.406 -2.07502 -0.956825 0
M  V30 3338 C 311.616 -2.3244 2.60332 0
M  V30 3339 C 312.964 -2.9523 3.05163 0
M  V30 3340 O 313.988 -2.42762 2.60663 0
M  V30 3341 O 312.847 -3.90454 3.82372 0
M  V30 3342 H 309.941 -0.615188 0.552696 0
M  V30 3343 H 312.487 -0.637097 1.57287 0
M  V30 3344 H 311.259 -1.77164 3.48896 0
M  V30 3345 H 310.882 -3.13383 2.44698 0
M  V30 3346 N 311.879 -1.3236 -0.855495 0
M  V30 3347 C 312.809 -1.23833 -1.97958 0
M  V30 3348 C 313.79 -0.122361 -1.69659 0
M  V30 3349 O 314.975 -0.30939 -1.9172 0
M  V30 3350 C 312.105 -0.959772 -3.33775 0
M  V30 3351 C 311.059 -2.03689 -3.76424 0
M  V30 3352 C 310.385 -1.61075 -5.09862 0
M  V30 3353 C 311.685 -3.4518 -3.9198 0
M  V30 3354 H 313.379 -2.1788 -2.0535 0
M  V30 3355 H 310.925 -1.04891 -0.986605 0
M  V30 3356 H 312.878 -0.886678 -4.11966 0
M  V30 3357 H 311.602 0.0163404 -3.26596 0
M  V30 3358 H 310.261 -2.10012 -3.00484 0
M  V30 3359 H 309.909 -0.622107 -4.99138 0
M  V30 3360 H 309.609 -2.33143 -5.39368 0
M  V30 3361 H 311.133 -1.55201 -5.90546 0
M  V30 3362 H 312.547 -3.4145 -4.60526 0
M  V30 3363 H 310.944 -4.1559 -4.32903 0
M  V30 3364 H 312.014 -3.84903 -2.94919 0
M  V30 3365 N 313.357 1.07166 -1.15556 0
M  V30 3366 C 314.773 1.31899 -0.898603 0
M  V30 3367 C 314.973 1.96333 0.453383 0
M  V30 3368 O 314.029 2.22438 1.19489 0
M  V30 3369 C 315.342 2.20826 -2.04099 0
M  V30 3370 C 316.89 2.34269 -2.07574 0
M  V30 3371 C 317.365 3.26546 -3.21141 0
M  V30 3372 N 318.856 3.34127 -3.20801 0
M  V30 3373 C 319.591 4.05595 -4.05315 0
M  V30 3374 N 319.087 4.79661 -4.99897 0
M  V30 3375 N 320.88 4.01555 -3.93332 0
M  V30 3376 H 313.031 0.637302 -2.02613 0
M  V30 3377 H 315.294 0.343468 -0.883591 0
M  V30 3378 H 315 1.80744 -3.01703 0
M  V30 3379 H 314.874 3.21364 -1.97496 0
M  V30 3380 H 317.261 2.73603 -1.10568 0
M  V30 3381 H 317.342 1.33429 -2.18244 0
M  V30 3382 H 316.986 2.87931 -4.184 0
M  V30 3383 H 316.916 4.27345 -3.07708 0
M  V30 3384 H 319.407 2.81336 -2.52306 0
M  V30 3385 H 319.72 5.31694 -5.60822 0
M  V30 3386 H 318.065 4.78671 -5.03884 0
M  V30 3387 H 321.256 3.42806 -3.18751 0
M  V30 3388 H 321.429 4.56987 -4.5942 0
M  V30 3389 N 314.835 0.952656 1.25548 0
M  V30 3390 C 316.112 0.523818 1.88456 0
M  V30 3391 C 316.492 -0.998871 1.85973 0
M  V30 3392 O 315.84 -1.86381 1.3219 0
M  V30 3393 C 316.05 1.0982 3.31271 0
M  V30 3394 C 317.398 1.17385 4.08051 0
M  V30 3395 O 318.422 1.04961 3.40384 0
M  V30 3396 O 317.281 1.36852 5.29088 0
M  V30 3397 H 314.375 0.172485 0.808813 0
M  V30 3398 H 316.921 1.04596 1.33633 0
M  V30 3399 H 315.693 2.1415 3.27499 0
M  V30 3400 H 315.316 0.559191 3.93648 0
M  V30 3401 N 316.313 -1.40141 0.720998 0
M  V30 3402 C 317.562 -2.0002 0.259804 0
M  V30 3403 C 317.875 -1.57839 -1.15526 0
M  V30 3404 O 319.081 -2.10455 -1.71525 0
M  V30 3405 C 317.537 -3.57516 0.413566 0
M  V30 3406 C 317.145 -4.08667 1.83562 0
M  V30 3407 C 318.889 -4.24498 0.0134387 0
M  V30 3408 C 316.796 -5.58686 1.93968 0
M  V30 3409 H 315.726 -0.748195 0.0933806 0
M  V30 3410 H 318.377 -1.60313 0.892866 0
M  V30 3411 H 316.759 -3.9495 -0.288169 0
M  V30 3412 H 317.933 -3.82598 2.56817 0
M  V30 3413 H 316.248 -3.543 2.1877 0
M  V30 3414 H 318.845 -5.34654 0.0703954 0
M  V30 3415 H 319.188 -4.03375 -1.02927 0
M  V30 3416 H 319.721 -3.92188 0.665815 0
M  V30 3417 H 316.46 -5.8467 2.96379 0
M  V30 3418 H 315.98 -5.86602 1.25131 0
M  V30 3419 H 317.659 -6.23875 1.71431 0
M  V30 3420 N 317.792 -0.46758 -1.50504 0
M  V30 3421 C 319.04 0.0884469 -2.01906 0
M  V30 3422 C 319.361 1.40532 -1.35188 0
M  V30 3423 O 318.631 1.89515 -0.496079 0
M  V30 3424 H 317.211 0.0356765 -0.746148 0
M  V30 3425 H 319.873 -0.6172 -1.84869 0
M  V30 3426 H 318.969 0.2425 -3.11156 0
M  V30 3427 N 319.27 1.56325 -0.20005 0
M  V30 3428 C 320.233 2.18084 0.705132 0
M  V30 3429 C 321.233 1.13666 1.1374 0
M  V30 3430 O 322.423 1.39023 1.04968 0
M  V30 3431 C 319.555 2.78689 1.96329 0
M  V30 3432 H 320.748 2.99435 0.167023 0
M  V30 3433 H 318.301 1.56221 0.0495725 0
M  V30 3434 H 319.036 2.0115 2.5438 0
M  V30 3435 H 318.821 3.55133 1.66202 0
M  V30 3436 H 320.311 3.26096 2.60866 0
M  V30 3437 N 320.748 -0.0735177 1.57428 0
M  V30 3438 C 321.996 -0.771472 1.86796 0
M  V30 3439 C 322.317 -1.78201 0.791804 0
M  V30 3440 O 321.587 -1.95074 -0.179718 0
M  V30 3441 H 320.167 -0.28791 0.689287 0
M  V30 3442 H 322.829 -0.0500161 1.94836 0
M  V30 3443 H 321.925 -1.28874 2.8425 0
M  V30 3444 N 322.226 -1.5378 -0.344866 0
M  V30 3445 C 323.173 -1.81676 -1.42346 0
M  V30 3446 C 324.143 -0.662376 -1.52321 0
M  V30 3447 O 325.328 -0.906675 -1.67881 0
M  V30 3448 C 322.468 -2.03087 -2.79015 0
M  V30 3449 C 321.581 -3.30799 -2.77842 0
M  V30 3450 C 320.716 -3.42285 -4.0622 0
M  V30 3451 C 319.755 -4.6395 -3.9927 0
M  V30 3452 N 318.892 -4.72477 -5.19336 0
M  V30 3453 H 323.732 -2.73703 -1.17858 0
M  V30 3454 H 321.269 -1.35568 -0.570949 0
M  V30 3455 H 323.227 -2.1349 -3.58438 0
M  V30 3456 H 321.857 -1.14375 -3.01858 0
M  V30 3457 H 320.909 -3.29244 -1.90533 0
M  V30 3458 H 322.221 -4.20314 -2.68584 0
M  V30 3459 H 321.375 -3.52113 -4.94066 0
M  V30 3460 H 320.114 -2.50823 -4.18258 0
M  V30 3461 H 319.119 -4.54201 -3.09809 0
M  V30 3462 H 320.344 -5.56775 -3.88817 0
M  V30 3463 H 318.29 -3.83924 -5.3192 0
M  V30 3464 H 318.207 -5.55927 -5.12329 0
M  V30 3465 H 319.475 -4.86613 -6.08957 0
M  V30 3466 N 323.704 0.605807 -1.45491 0
M  V30 3467 C 324.952 1.36207 -1.49305 0
M  V30 3468 C 325.273 1.94519 -0.136863 0
M  V30 3469 O 324.543 1.77261 0.833983 0
M  V30 3470 H 323.123 0.50565 -0.549843 0
M  V30 3471 H 325.785 0.711239 -1.81459 0
M  V30 3472 H 324.881 2.18058 -2.23287 0
M  V30 3473 N 325.182 1.32811 0.848464 0
M  V30 3474 C 326.129 1.22265 1.95755 0
M  V30 3475 C 327.099 0.103413 1.65778 0
M  V30 3476 O 328.284 0.280033 1.88734 0
M  V30 3477 C 325.424 0.958014 3.31536 0
M  V30 3478 C 324.537 2.16262 3.73971 0
M  V30 3479 C 323.672 1.83295 4.98575 0
M  V30 3480 C 322.711 3.00041 5.33518 0
M  V30 3481 N 321.848 2.67125 6.49299 0
M  V30 3482 H 326.688 2.17128 2.04107 0
M  V30 3483 H 324.225 1.07982 0.998913 0
M  V30 3484 H 326.183 0.785052 4.09747 0
M  V30 3485 H 324.813 0.046159 3.22767 0
M  V30 3486 H 323.865 2.44565 2.91362 0
M  V30 3487 H 325.177 3.03572 3.95785 0
M  V30 3488 H 324.331 1.62586 5.84509 0
M  V30 3489 H 323.07 0.932078 4.7871 0
M  V30 3490 H 322.075 3.21374 4.46093 0
M  V30 3491 H 323.3 3.90869 5.55336 0
M  V30 3492 H 321.246 1.79586 6.3094 0
M  V30 3493 H 321.163 3.47965 6.71161 0
M  V30 3494 H 322.431 2.49861 7.3837 0
M  V30 3495 N 326.66 -1.06551 1.16123 0
M  V30 3496 C 327.89 -1.8274 0.963838 0
M  V30 3497 C 328.298 -1.82712 -0.491228 0
M  V30 3498 O 327.641 -1.24294 -1.35265 0
M  V30 3499 C 327.703 -3.3065 1.41106 0
M  V30 3500 C 327.367 -3.54384 2.88549 0
M  V30 3501 C 328.364 -3.4765 3.86569 0
M  V30 3502 C 326.049 -3.81789 3.26408 0
M  V30 3503 C 328.043 -3.67982 5.2045 0
M  V30 3504 C 325.73 -4.01772 4.60459 0
M  V30 3505 C 326.728 -3.94866 5.57288 0
M  V30 3506 O 326.416 -4.14306 6.88916 0
M  V30 3507 H 326.148 -0.583136 0.341948 0
M  V30 3508 H 328.702 -1.35351 1.54497 0
M  V30 3509 H 326.932 -3.78887 0.773394 0
M  V30 3510 H 328.621 -3.88324 1.1815 0
M  V30 3511 H 329.387 -3.2647 3.58667 0
M  V30 3512 H 325.266 -3.86276 2.51619 0
M  V30 3513 H 328.81 -3.62507 5.96015 0
M  V30 3514 H 324.707 -4.2244 4.88072 0
M  V30 3515 H 325.475 -4.31609 6.95454 0
M  V30 3516 N 328.138 -0.959301 -1.25041 0
M  V30 3517 C 329.368 -0.63303 -1.96663 0
M  V30 3518 C 329.776 0.800031 -1.71453 0
M  V30 3519 O 329.119 1.54736 -0.99008 0
M  V30 3520 C 329.181 -0.817523 -3.50081 0
M  V30 3521 C 328.845 -2.22863 -3.98975 0
M  V30 3522 C 329.842 -3.20569 -4.09306 0
M  V30 3523 C 327.527 -2.55407 -4.32519 0
M  V30 3524 C 329.521 -4.4891 -4.52503 0
M  V30 3525 C 327.208 -3.83976 -4.754 0
M  V30 3526 C 328.206 -4.8054 -4.85356 0
M  V30 3527 O 327.894 -6.06817 -5.27284 0
M  V30 3528 H 327.626 -0.235866 -0.633516 0
M  V30 3529 H 330.18 -1.2874 -1.60047 0
M  V30 3530 H 328.41 -0.105992 -3.86555 0
M  V30 3531 H 330.099 -0.491604 -4.02912 0
M  V30 3532 H 330.865 -2.96753 -3.83618 0
M  V30 3533 H 326.744 -1.8097 -4.23994 0
M  V30 3534 H 330.288 -5.24283 -4.60188 0
M  V30 3535 H 326.185 -4.07596 -5.00535 0
M  V30 3536 H 326.953 -6.10262 -5.45457 0
M  V30 3537 N 329.616 1.39756 -0.72842 0
M  V30 3538 C 330.579 2.29012 -0.0927297 0
M  V30 3539 C 331.579 1.45992 0.674025 0
M  V30 3540 O 332.769 1.66749 0.50402 0
M  V30 3541 C 329.901 3.29396 0.878137 0
M  V30 3542 H 331.094 2.86729 -0.879011 0
M  V30 3543 H 328.647 1.48293 -0.493847 0
M  V30 3544 H 329.382 2.76722 1.69101 0
M  V30 3545 H 329.167 3.907 0.331051 0
M  V30 3546 H 330.657 3.96199 1.3197 0
M  V30 3547 N 331.094 0.475555 1.50254 0
M  V30 3548 C 332.34 -0.0780073 2.0265 0
M  V30 3549 C 332.673 -1.38968 1.35652 0
M  V30 3550 O 331.948 -1.8839 0.483691 0
M  V30 3551 C 332.231 -0.257161 3.59181 0
M  V30 3552 C 332.084 1.07585 4.36744 0
M  V30 3553 C 333.403 -1.00965 4.28362 0
M  V30 3554 H 330.522 -0.0268758 0.73651 0
M  V30 3555 H 333.164 0.622015 1.7953 0
M  V30 3556 H 331.314 -0.853412 3.79011 0
M  V30 3557 H 332.986 1.70902 4.28474 0
M  V30 3558 H 331.229 1.6714 4.00308 0
M  V30 3559 H 331.9 0.904088 5.44546 0
M  V30 3560 H 334.376 -0.504214 4.13034 0
M  V30 3561 H 333.252 -1.10381 5.37687 0
M  V30 3562 H 333.513 -2.04731 3.91839 0
M  V30 3563 N 332.573 -1.56217 0.208337 0
M  V30 3564 C 333.521 -2.21053 -0.723769 0
M  V30 3565 C 334.515 -1.18578 -1.20978 0
M  V30 3566 O 335.721 -1.36691 -1.17114 0
M  V30 3567 H 332.096 -0.708595 -0.251788 0
M  V30 3568 H 334.067 -2.98006 -0.153365 0
M  V30 3569 C 332.816 -2.89417 -1.927 0
M  V30 3570 H 332.139 -3.68019 -1.56212 0
M  V30 3571 H 333.579 -3.38201 -2.55727 0
M  V30 3572 C 332.038 -1.91166 -2.77411 0
M  V30 3573 O 332.568 -1.42026 -3.75754 0
M  V30 3574 N 330.774 -1.59105 -2.43175 0
M  V30 3575 H 330.321 -1.99259 -1.63259 0
M  V30 3576 H 330.279 -0.936255 -3.00136 0
M  V30 3577 N 334.051 0.0651679 -1.57465 0
M  V30 3578 C 335.298 0.763063 -1.87573 0
M  V30 3579 C 335.626 1.77242 -0.800961 0
M  V30 3580 O 334.881 1.94651 0.202316 0
M  V30 3581 C 335.18 1.50081 -3.24362 0
M  V30 3582 C 334.846 0.630816 -4.46466 0
M  V30 3583 C 333.508 0.391082 -4.79608 0
M  V30 3584 C 335.86 0.0279465 -5.21193 0
M  V30 3585 C 333.188 -0.460894 -5.84887 0
M  V30 3586 C 335.54 -0.811522 -6.27373 0
M  V30 3587 C 334.204 -1.06106 -6.59013 0
M  V30 3588 H 333.474 0.279224 -0.686378 0
M  V30 3589 H 336.121 0.0236726 -1.91485 0
M  V30 3590 H 334.426 2.31258 -3.16271 0
M  V30 3591 H 336.123 2.04571 -3.44894 0
M  V30 3592 H 332.713 0.8278 -4.2053 0
M  V30 3593 H 336.897 0.200262 -4.95896 0
M  V30 3594 H 332.153 -0.662907 -6.07796 0
M  V30 3595 H 336.327 -1.28537 -6.84435 0
M  V30 3596 H 333.954 -1.723 -7.40417 0
M  V30 3597 N 335.529 1.53961 0.336706 0
M  V30 3598 C 336.94 1.62914 0.911925 0
M  V30 3599 C 337.291 0.514795 1.89326 0
M  V30 3600 O 336.416 -0.354395 2.13478 0
M  V30 3601 C 337.011 2.95304 1.66076 0
M  V30 3602 C 335.57 3.06496 2.18489 0
M  V30 3603 C 334.717 2.58403 1.00613 0
M  V30 3604 H 337.668 1.58285 0.114649 0
M  V30 3605 H 337.689 2.84727 2.5241 0
M  V30 3606 H 337.201 3.76387 0.946276 0
M  V30 3607 H 335.302 2.3006 2.93092 0
M  V30 3608 H 335.415 4.1208 2.44391 0
M  V30 3609 H 333.779 2.13977 1.38152 0
M  V30 3610 H 334.562 3.41932 0.306179 0
M  V30 3611 N 337.007 -0.598083 1.45811 0
M  V30 3612 C 337.94 -1.7223 1.49706 0
M  V30 3613 C 338.918 -1.58732 0.352535 0
M  V30 3614 O 340.102 -1.80162 0.554438 0
M  V30 3615 C 337.229 -3.10148 1.3611 0
M  V30 3616 C 336.275 -3.42209 2.54549 0
M  V30 3617 S 337.108 -3.35989 4.16979 0
M  V30 3618 C 338.264 -4.76471 4.05865 0
M  V30 3619 H 338.497 -1.68665 2.44826 0
M  V30 3620 H 336.03 -0.775541 1.33509 0
M  V30 3621 H 337.988 -3.8972 1.28953 0
M  V30 3622 H 336.649 -3.11219 0.424451 0
M  V30 3623 H 335.842 -4.42652 2.40988 0
M  V30 3624 H 335.444 -2.70173 2.58617 0
M  V30 3625 H 337.736 -5.665 3.71596 0
M  V30 3626 H 338.679 -4.95089 5.06253 0
M  V30 3627 H 339.087 -4.52599 3.37364 0
M  V30 3628 N 338.485 -1.33259 -0.841409 0
M  V30 3629 C 339.901 -1.12538 -1.13169 0
M  V30 3630 C 340.101 0.0854037 -2.01319 0
M  V30 3631 O 339.157 0.766417 -2.40587 0
M  V30 3632 C 340.47 -2.41156 -1.79623 0
M  V30 3633 C 342.018 -2.47038 -1.922 0
M  V30 3634 C 342.493 -3.7561 -2.6207 0
M  V30 3635 N 343.984 -3.76667 -2.69585 0
M  V30 3636 C 344.719 -4.72861 -3.2433 0
M  V30 3637 N 344.215 -5.79428 -3.79783 0
M  V30 3638 N 346.008 -4.6034 -3.22558 0
M  V30 3639 H 338.159 -2.10868 -0.254676 0
M  V30 3640 H 340.422 -0.931615 -0.175493 0
M  V30 3641 H 340.128 -3.29747 -1.22311 0
M  V30 3642 H 340.002 -2.53114 -2.79666 0
M  V30 3643 H 342.389 -1.58898 -2.48667 0
M  V30 3644 H 342.47 -2.39022 -0.911148 0
M  V30 3645 H 342.114 -4.64131 -2.06263 0
M  V30 3646 H 342.044 -3.80902 -3.63622 0
M  V30 3647 H 344.535 -2.99648 -2.30259 0
M  V30 3648 H 344.848 -6.48867 -4.19752 0
M  V30 3649 H 343.193 -5.83166 -3.78078 0
M  V30 3650 H 346.384 -3.76244 -2.78492 0
M  V30 3651 H 346.557 -5.35478 -3.64921 0
M  V30 3652 N 339.963 1.05934 -1.16686 0
M  V30 3653 C 341.24 1.75643 -0.860747 0
M  V30 3654 C 341.62 2.01144 0.640641 0
M  V30 3655 O 340.968 1.64147 1.58959 0
M  V30 3656 C 341.178 3.05493 -1.68745 0
M  V30 3657 C 342.526 3.79581 -1.90271 0
M  V30 3658 O 343.55 3.15344 -1.65641 0
M  V30 3659 O 342.409 4.9499 -2.31618 0
M  V30 3660 H 339.503 0.763426 -0.317977 0
M  V30 3661 H 342.049 1.1217 -1.27342 0
M  V30 3662 H 340.821 2.8264 -2.70611 0
M  V30 3663 H 340.444 3.76702 -1.27206 0
M  V30 3664 N 341.441 0.965919 1.2453 0
M  V30 3665 C 342.689 0.625593 1.92174 0
M  V30 3666 C 343.01 -0.841652 1.75901 0
M  V30 3667 O 342.28 -1.60061 1.12948 0
M  V30 3668 H 340.86 0.228388 0.71123 0
M  V30 3669 H 343.522 1.2266 1.51461 0
M  V30 3670 H 342.618 0.864653 2.99884 0
M  V30 3671 N 342.919 -1.39368 0.735821 0
M  V30 3672 C 344.168 -1.99733 0.281004 0
M  V30 3673 C 344.481 -1.59055 -1.13846 0
M  V30 3674 O 345.687 -2.12262 -1.69284 0
M  V30 3675 C 344.143 -3.57057 0.451462 0
M  V30 3676 C 343.751 -4.06697 1.87886 0
M  V30 3677 C 345.495 -4.2446 0.0584616 0
M  V30 3678 C 343.402 -5.56598 1.99883 0
M  V30 3679 H 342.332 -0.747163 0.101311 0
M  V30 3680 H 344.983 -1.59357 0.909819 0
M  V30 3681 H 343.365 -3.95234 -0.246263 0
M  V30 3682 H 344.539 -3.79853 2.60861 0
M  V30 3683 H 342.854 -3.5196 2.22515 0
M  V30 3684 H 345.451 -5.34549 0.127099 0
M  V30 3685 H 345.794 -4.04444 -0.986433 0
M  V30 3686 H 346.327 -3.9146 0.707374 0
M  V30 3687 H 343.066 -5.81494 3.02564 0
M  V30 3688 H 342.586 -5.85242 1.31346 0
M  V30 3689 H 344.265 -6.22022 1.78039 0
M  V30 3690 N 344.397 -0.483516 -1.5 0
M  V30 3691 C 345.674 0.129337 -1.95172 0
M  V30 3692 C 346.054 1.55802 -1.4244 0
M  V30 3693 O 345.402 2.19625 -0.630649 0
M  V30 3694 C 345.612 0.0599251 -3.48949 0
M  V30 3695 C 346.96 0.242617 -4.23906 0
M  V30 3696 O 347.984 0.135933 -3.55941 0
M  V30 3697 O 346.843 0.459454 -5.44565 0
M  V30 3698 H 343.937 0.104887 -0.820322 0
M  V30 3699 H 346.483 -0.544807 -1.60717 0
M  V30 3700 H 345.255 -0.937079 -3.79914 0
M  V30 3701 H 344.878 0.774984 -3.89974 0
M  V30 3702 N 345.875 1.56104 -0.216619 0
M  V30 3703 C 347.152 1.89988 0.465165 0
M  V30 3704 C 347.532 1.13326 1.78102 0
M  V30 3705 O 346.88 0.241033 2.27225 0
M  V30 3706 C 347.09 3.42646 0.662939 0
M  V30 3707 C 348.438 4.13311 0.972602 0
M  V30 3708 O 349.462 3.48217 0.749901 0
M  V30 3709 O 348.321 5.28396 1.39499 0
M  V30 3710 H 345.415 0.78979 0.245276 0
M  V30 3711 H 347.961 1.67721 -0.258436 0
M  V30 3712 H 346.733 3.90399 -0.26543 0
M  V30 3713 H 346.356 3.70677 1.43821 0
M  V30 3714 N 347.353 -0.0568162 1.57498 0
M  V30 3715 C 348.263 -1.08346 2.08083 0
M  V30 3716 C 349.279 -1.41439 1.01346 0
M  V30 3717 O 350.455 -1.51316 1.32912 0
M  V30 3718 C 347.52 -2.37352 2.52715 0
M  V30 3719 C 346.581 -2.11093 3.73816 0
M  V30 3720 C 345.814 -3.33949 4.1631 0
M  V30 3721 O 346.037 -4.43622 3.58547 0
M  V30 3722 O 344.971 -3.21279 5.08983 0
M  V30 3723 H 348.797 -0.683667 2.95905 0
M  V30 3724 H 346.382 -0.271965 1.46904 0
M  V30 3725 H 348.264 -3.13246 2.81877 0
M  V30 3726 H 346.939 -2.76681 1.68016 0
M  V30 3727 H 345.846 -1.32856 3.49714 0
M  V30 3728 H 347.179 -1.76637 4.59413 0
M  V30 3729 N 348.832 -1.54138 -0.328536 0
M  V30 3730 C 350.057 -1.76378 -1.09112 0
M  V30 3731 C 350.482 -0.508596 -1.81094 0
M  V30 3732 O 349.84 0.539598 -1.73084 0
M  V30 3733 C 349.888 -2.95358 -2.06872 0
M  V30 3734 O 348.992 -2.66556 -3.14677 0
M  V30 3735 H 348.333 -0.584614 -0.314838 0
M  V30 3736 H 350.863 -2.01146 -0.374348 0
M  V30 3737 H 350.873 -3.22566 -2.4983 0
M  V30 3738 H 349.548 -3.86385 -1.5388 0
M  V30 3739 H 348.125 -2.50282 -2.7643 0
M  V30 3740 N 350.31 0.590341 -1.46126 0
M  V30 3741 C 351.54 1.37304 -1.54373 0
M  V30 3742 C 351.948 1.88332 -0.181071 0
M  V30 3743 O 351.291 1.63852 0.830559 0
M  V30 3744 C 351.353 2.6012 -2.48149 0
M  V30 3745 C 351.017 2.30613 -3.94546 0
M  V30 3746 C 352.014 1.89915 -4.83971 0
M  V30 3747 C 349.699 2.42993 -4.39613 0
M  V30 3748 C 351.693 1.61981 -6.16475 0
M  V30 3749 C 349.38 2.14672 -5.72153 0
M  V30 3750 C 350.378 1.7423 -6.60404 0
M  V30 3751 O 350.066 1.46251 -7.90485 0
M  V30 3752 H 349.798 0.426086 -0.524811 0
M  V30 3753 H 352.352 0.72539 -1.92165 0
M  V30 3754 H 350.582 3.27664 -2.05361 0
M  V30 3755 H 352.271 3.22182 -2.46887 0
M  V30 3756 H 353.037 1.79872 -4.50412 0
M  V30 3757 H 348.916 2.73435 -3.71153 0
M  V30 3758 H 352.46 1.30341 -6.85315 0
M  V30 3759 H 348.357 2.24337 -6.05263 0
M  V30 3760 H 349.125 1.6016 -8.02677 0
M  V30 3761 N 351.788 1.33704 0.83433 0
M  V30 3762 C 353.036 1.25169 1.58673 0
M  V30 3763 C 353.357 -0.18127 1.94156 0
M  V30 3764 O 352.627 -1.11113 1.6134 0
M  V30 3765 H 351.207 0.4603 0.58833 0
M  V30 3766 H 353.869 1.67478 0.996847 0
M  V30 3767 H 352.965 1.84856 2.51465 0
M  V30 3768 N 353.266 -1.05314 1.17247 0
M  V30 3769 C 354.198 -2.13023 0.845812 0
M  V30 3770 C 355.211 -1.62096 -0.151246 0
M  V30 3771 O 356.4 -1.78343 0.0748818 0
M  V30 3772 C 353.5 -3.38047 0.240292 0
M  V30 3773 C 352.673 -4.18255 1.27991 0
M  V30 3774 C 351.732 -5.21625 0.692375 0
M  V30 3775 O 350.758 -5.52619 1.36385 0
M  V30 3776 N 351.96 -5.78201 -0.516178 0
M  V30 3777 H 354.725 -2.41642 1.77283 0
M  V30 3778 H 352.286 -1.21401 1.07115 0
M  V30 3779 H 354.278 -4.04359 -0.16603 0
M  V30 3780 H 352.848 -3.06972 -0.590487 0
M  V30 3781 H 352.068 -3.47451 1.86203 0
M  V30 3782 H 353.356 -4.68643 1.98119 0
M  V30 3783 H 352.754 -5.55301 -1.07969 0
M  V30 3784 H 351.311 -6.4604 -0.86458 0
M  V30 3785 N 354.744 -0.972509 -1.24016 0
M  V30 3786 C 355.993 -0.632603 -1.91523 0
M  V30 3787 C 356.306 0.836641 -1.76804 0
M  V30 3788 O 357.512 1.28728 -2.39043 0
M  V30 3789 C 355.968 -1.08082 -3.43287 0
M  V30 3790 C 355.576 -2.57386 -3.66683 0
M  V30 3791 C 357.32 -0.814288 -4.16617 0
M  V30 3792 C 355.227 -2.95915 -5.12043 0
M  V30 3793 H 354.157 -0.232898 -0.717129 0
M  V30 3794 H 356.808 -1.17936 -1.40582 0
M  V30 3795 H 355.19 -0.462339 -3.93292 0
M  V30 3796 H 356.364 -3.24405 -3.27258 0
M  V30 3797 H 354.679 -2.81701 -3.06649 0
M  V30 3798 H 357.276 -1.0781 -5.23718 0
M  V30 3799 H 357.619 0.24955 -4.15551 0
M  V30 3800 H 358.152 -1.39397 -3.72577 0
M  V30 3801 H 354.891 -4.0139 -5.18234 0
M  V30 3802 H 354.411 -2.33584 -5.52448 0
M  V30 3803 H 356.09 -2.86086 -5.80314 0
M  V30 3804 N 356.222 1.38976 -0.743202 0
M  V30 3805 C 357.469 2.00343 -0.294752 0
M  V30 3806 C 357.797 1.58983 1.12047 0
M  V30 3807 O 357.052 0.813809 1.77977 0
M  V30 3808 C 357.351 3.55647 -0.353517 0
M  V30 3809 C 357.017 4.16685 -1.72292 0
M  V30 3810 C 355.679 4.3307 -2.09771 0
M  V30 3811 C 358.031 4.50464 -2.62168 0
M  V30 3812 C 355.359 4.80526 -3.36618 0
M  V30 3813 C 357.711 4.99332 -3.88395 0
M  V30 3814 C 356.375 5.13924 -4.25956 0
M  V30 3815 H 355.645 0.733108 -0.107857 0
M  V30 3816 H 358.292 1.6618 -0.951651 0
M  V30 3817 H 356.597 3.89884 0.386954 0
M  V30 3818 H 358.294 4.00998 0.0117269 0
M  V30 3819 H 354.884 4.04339 -1.42155 0
M  V30 3820 H 359.068 4.37416 -2.3448 0
M  V30 3821 H 354.324 4.90008 -3.65653 0
M  V30 3822 H 358.498 5.2444 -4.58187 0
M  V30 3823 H 356.125 5.50457 -5.2431 0
M  V30 3824 N 357.7 0.491464 1.49741 0
M  V30 3825 C 358.647 -0.292027 2.28945 0
M  V30 3826 C 359.617 -0.968973 1.34908 0
M  V30 3827 O 360.802 -0.97748 1.6386 0
M  V30 3828 C 357.942 -1.35617 3.17336 0
M  V30 3829 C 357.055 -0.691957 4.26422 0
M  V30 3830 C 356.19 -1.73572 5.02042 0
M  V30 3831 C 355.229 -1.05286 6.02977 0
M  V30 3832 N 354.366 -2.0404 6.71798 0
M  V30 3833 H 359.206 0.389654 2.95442 0
M  V30 3834 H 356.743 0.204003 1.45679 0
M  V30 3835 H 358.701 -1.98502 3.66951 0
M  V30 3836 H 357.331 -2.00674 2.52844 0
M  V30 3837 H 356.383 0.0499523 3.80367 0
M  V30 3838 H 357.695 -0.153946 4.98562 0
M  V30 3839 H 356.849 -2.43987 5.55478 0
M  V30 3840 H 355.588 -2.30757 4.29654 0
M  V30 3841 H 354.593 -0.334446 5.48782 0
M  V30 3842 H 355.818 -0.487636 6.77347 0
M  V30 3843 H 353.764 -2.60205 6.02187 0
M  V30 3844 H 353.681 -1.55279 7.39881 0
M  V30 3845 H 354.949 -2.73772 7.29842 0
M  V30 3846 N 359.178 -1.55987 0.224894 0
M  V30 3847 C 360.589 -1.84553 -0.282345 0
M  V30 3848 C 360.94 -1.14634 -1.59227 0
M  V30 3849 O 360.065 -0.417155 -2.12341 0
M  V30 3850 C 360.66 -3.348 -0.519062 0
M  V30 3851 C 359.219 -3.63671 -0.970604 0
M  V30 3852 C 358.366 -2.77277 -0.0355261 0
M  V30 3853 H 361.317 -1.52245 0.448006 0
M  V30 3854 H 361.338 -3.55187 -1.36463 0
M  V30 3855 H 360.85 -3.8566 0.43449 0
M  V30 3856 H 358.951 -3.1827 -1.9374 0
M  V30 3857 H 359.064 -4.71631 -0.842698 0
M  V30 3858 H 357.428 -2.48846 -0.542927 0
M  V30 3859 H 358.211 -3.30937 0.913003 0
M  V30 3860 N 360.656 0.0484629 -1.57525 0
M  V30 3861 C 361.905 0.742065 -1.87553 0
M  V30 3862 C 362.218 1.77545 -0.820802 0
M  V30 3863 O 363.424 2.52027 -1.00967 0
M  V30 3864 C 361.88 1.37081 -3.32771 0
M  V30 3865 C 361.488 0.374786 -4.4643 0
M  V30 3866 C 363.232 2.04542 -3.71972 0
M  V30 3867 C 361.139 1.01077 -5.82698 0
M  V30 3868 H 360.069 0.280903 -0.699721 0
M  V30 3869 H 362.72 -0.00411877 -1.835 0
M  V30 3870 H 361.102 2.16605 -3.31509 0
M  V30 3871 H 362.276 -0.392331 -4.59127 0
M  V30 3872 H 360.591 -0.196653 -4.15935 0
M  V30 3873 H 363.188 2.52943 -4.71088 0
M  V30 3874 H 363.531 2.85515 -3.02964 0
M  V30 3875 H 364.064 1.31819 -3.75325 0
M  V30 3876 H 360.803 0.240878 -6.55057 0
M  V30 3877 H 360.323 1.74819 -5.73758 0
M  V30 3878 H 362.002 1.52383 -6.28799 0
M  V30 3879 N 362.134 1.5431 0.320358 0
M  V30 3880 C 363.383 1.7188 1.05546 0
M  V30 3881 C 363.696 0.501143 1.89071 0
M  V30 3882 O 364.902 0.558258 2.65699 0
M  V30 3883 C 363.358 3.04025 1.92605 0
M  V30 3884 C 362.966 4.33207 1.14176 0
M  V30 3885 C 364.71 3.30959 2.65832 0
M  V30 3886 C 362.617 5.56412 2.00399 0
M  V30 3887 H 361.547 0.640547 0.397763 0
M  V30 3888 H 364.198 1.80802 0.313522 0
M  V30 3889 H 362.58 2.89019 2.7071 0
M  V30 3890 H 363.754 4.58989 0.40819 0
M  V30 3891 H 362.069 4.13062 0.526165 0
M  V30 3892 H 364.666 4.20203 3.30656 0
M  V30 3893 H 365.009 2.48979 3.33639 0
M  V30 3894 H 365.542 3.46847 1.94787 0
M  V30 3895 H 362.281 6.41004 1.37094 0
M  V30 3896 H 361.801 5.34844 2.7148 0
M  V30 3897 H 363.48 5.92938 2.58908 0
M  V30 3898 N 363.613 -0.582584 1.46437 0
M  V30 3899 C 364.838 -1.37168 1.55563 0
M  V30 3900 C 365.263 -1.87061 0.19743 0
M  V30 3901 O 364.621 -1.61572 -0.822451 0
M  V30 3902 C 364.669 -2.53511 2.56446 0
M  V30 3903 O 363.773 -3.54953 2.09958 0
M  V30 3904 H 363.114 -0.408494 0.523477 0
M  V30 3905 H 365.644 -0.706646 1.9201 0
M  V30 3906 H 365.654 -3.00426 2.76058 0
M  V30 3907 H 364.329 -2.16549 3.55076 0
M  V30 3908 H 362.906 -3.14516 2.00334 0
M  V30 3909 N 365.091 -1.34144 -0.827227 0
M  V30 3910 C 366.038 -1.25364 -1.93785 0
M  V30 3911 C 367.008 -0.129774 -1.65592 0
M  V30 3912 O 368.193 -0.310024 -1.88264 0
M  V30 3913 C 365.333 -1.01064 -3.2997 0
M  V30 3914 C 364.446 -2.22185 -3.70484 0
M  V30 3915 C 363.581 -1.91203 -4.95595 0
M  V30 3916 C 362.62 -3.08491 -5.28677 0
M  V30 3917 N 361.757 -2.77421 -6.44967 0
M  V30 3918 H 366.597 -2.20347 -2.00627 0
M  V30 3919 H 364.134 -1.09558 -0.981608 0
M  V30 3920 H 366.092 -0.850139 -4.08446 0
M  V30 3921 H 364.722 -0.0975026 -3.22653 0
M  V30 3922 H 363.774 -2.4917 -2.87434 0
M  V30 3923 H 365.086 -3.0983 -3.90905 0
M  V30 3924 H 364.24 -1.71864 -5.81848 0
M  V30 3925 H 362.979 -1.00812 -4.77167 0
M  V30 3926 H 361.984 -3.28431 -4.40923 0
M  V30 3927 H 363.209 -3.99655 -5.49047 0
M  V30 3928 H 361.155 -1.89601 -6.28003 0
M  V30 3929 H 361.072 -3.58598 -6.6554 0
M  V30 3930 H 362.34 -2.61577 -7.34301 0
M  V30 3931 N 366.569 1.04691 -1.17803 0
M  V30 3932 C 367.815 1.78045 -0.970969 0
M  V30 3933 C 368.148 1.87686 0.498751 0
M  V30 3934 O 367.423 1.38035 1.37027 0
M  V30 3935 C 367.706 3.2166 -1.61884 0
M  V30 3936 C 367.559 3.20001 -3.161 0
M  V30 3937 C 368.878 4.1962 -1.3269 0
M  V30 3938 H 365.997 0.64633 -0.354155 0
M  V30 3939 H 368.639 1.22333 -1.45378 0
M  V30 3940 H 366.789 3.69232 -1.20831 0
M  V30 3941 H 368.461 2.80467 -3.66246 0
M  V30 3942 H 366.704 2.58203 -3.48588 0
M  V30 3943 H 367.375 4.21386 -3.56564 0
M  V30 3944 H 369.851 3.80567 -1.68249 0
M  V30 3945 H 368.727 5.18339 -1.80599 0
M  V30 3946 H 368.988 4.414 -0.248622 0
M  V30 3947 N 368.047 0.979072 1.23499 0
M  V30 3948 C 368.98 0.463027 2.23453 0
M  V30 3949 C 369.958 -0.469128 1.55685 0
M  V30 3950 O 371.142 -0.397882 1.84253 0
M  V30 3951 C 368.269 -0.330308 3.37086 0
M  V30 3952 C 367.315 0.545795 4.22993 0
M  V30 3953 S 368.148 1.99285 4.97037 0
M  V30 3954 C 369.304 1.20862 6.1412 0
M  V30 3955 H 369.537 1.31005 2.6688 0
M  V30 3956 H 367.07 0.784965 1.32957 0
M  V30 3957 H 369.028 -0.782027 4.02982 0
M  V30 3958 H 367.689 -1.15244 2.92194 0
M  V30 3959 H 366.882 -0.0638928 5.03959 0
M  V30 3960 H 366.484 0.933705 3.62157 0
M  V30 3961 H 368.776 0.469284 6.75873 0
M  V30 3962 H 369.719 1.99307 6.79472 0
M  V30 3963 H 370.127 0.727992 5.59786 0
M  V30 3964 N 369.525 -1.3858 0.750561 0
M  V30 3965 C 370.435 -2.34278 0.122825 0
M  V30 3966 C 371.451 -1.59116 -0.704131 0
M  V30 3967 O 372.627 -1.91326 -0.628987 0
M  V30 3968 C 369.692 -3.38221 -0.762086 0
M  V30 3969 C 368.753 -4.29227 0.078896 0
M  V30 3970 C 367.986 -5.28205 -0.763874 0
M  V30 3971 O 368.209 -5.34112 -2.00201 0
M  V30 3972 O 367.143 -6.01618 -0.18428 0
M  V30 3973 H 370.969 -2.89649 0.913088 0
M  V30 3974 H 368.554 -1.40374 0.511417 0
M  V30 3975 H 370.436 -4.01872 -1.26793 0
M  V30 3976 H 369.111 -2.85211 -1.5309 0
M  V30 3977 H 368.018 -3.68747 0.630621 0
M  V30 3978 H 369.351 -4.85484 0.810289 0
M  V30 3979 N 371.003 -0.499398 -1.49478 0
M  V30 3980 C 371.936 0.326491 -2.25852 0
M  V30 3981 C 372.914 0.971776 -1.30366 0
M  V30 3982 O 374.098 1.00219 -1.59651 0
M  V30 3983 C 371.225 1.45969 -3.05632 0
M  V30 3984 C 370.271 0.928938 -4.16261 0
M  V30 3985 S 371.104 -0.179012 -5.35201 0
M  V30 3986 C 372.26 0.957389 -6.18534 0
M  V30 3987 H 372.493 -0.321746 -2.95554 0
M  V30 3988 H 370.026 -0.284674 -1.51753 0
M  V30 3989 H 371.984 2.109 -3.52181 0
M  V30 3990 H 370.645 2.07953 -2.35402 0
M  V30 3991 H 369.838 1.77813 -4.71592 0
M  V30 3992 H 369.44 0.356869 -3.72293 0
M  V30 3993 H 371.732 1.86296 -6.51383 0
M  V30 3994 H 372.675 0.442733 -7.06715 0
M  V30 3995 H 373.083 1.224 -5.5107 0
M  V30 3996 N 372.481 1.55866 -0.233164 0
M  V30 3997 C 373.711 2.02704 0.399325 0
M  V30 3998 C 374.119 1.11204 1.53069 0
M  V30 3999 O 373.462 0.116182 1.83332 0
M  V30 4000 C 373.524 3.45844 0.981429 0
M  V30 4001 C 373.188 4.56997 -0.0159561 0
M  V30 4002 C 374.185 5.13384 -0.820552 0
M  V30 4003 C 371.87 5.0211 -0.138072 0
M  V30 4004 C 373.864 6.13365 -1.73386 0
M  V30 4005 C 371.551 6.01926 -1.0549 0
M  V30 4006 C 372.549 6.57431 -1.85132 0
M  V30 4007 O 372.237 7.55302 -2.75272 0
M  V30 4008 H 371.969 0.668459 0.100692 0
M  V30 4009 H 374.523 2.02387 -0.35052 0
M  V30 4010 H 372.753 3.43267 1.78058 0
M  V30 4011 H 374.442 3.76262 1.52255 0
M  V30 4012 H 375.208 4.79372 -0.736721 0
M  V30 4013 H 371.087 4.5858 0.471737 0
M  V30 4014 H 374.631 6.56614 -2.35592 0
M  V30 4015 H 370.528 6.35359 -1.1397 0
M  V30 4016 H 371.296 7.72867 -2.69477 0
M  V30 4017 N 373.959 -0.0401083 1.57549 0
M  V30 4018 C 374.891 -1.07149 2.02612 0
M  V30 4019 C 375.904 -1.33126 0.937085 0
M  V30 4020 O 377.093 -1.30808 1.21456 0
M  V30 4021 C 374.193 -2.41561 2.37701 0
M  V30 4022 C 373.366 -2.35096 3.68848 0
M  V30 4023 C 372.425 -3.51867 3.91249 0
M  V30 4024 O 371.451 -3.3186 4.62447 0
M  V30 4025 N 372.653 -4.73351 3.36035 0
M  V30 4026 H 375.418 -0.687485 2.91708 0
M  V30 4027 H 372.979 -0.228248 1.60283 0
M  V30 4028 H 374.971 -3.18379 2.49833 0
M  V30 4029 H 373.541 -2.71846 1.54332 0
M  V30 4030 H 372.761 -1.4345 3.67173 0
M  V30 4031 H 374.049 -2.27908 4.54901 0
M  V30 4032 H 373.447 -4.92507 2.78304 0
M  V30 4033 H 372.004 -5.47572 3.53565 0
M  V30 4034 N 375.437 -1.54477 -0.31217 0
M  V30 4035 C 376.848 -1.64344 -0.885891 0
M  V30 4036 C 377.199 -0.54485 -1.88483 0
M  V30 4037 O 376.324 0.320387 -2.14015 0
M  V30 4038 C 376.919 -2.97908 -1.61357 0
M  V30 4039 C 375.478 -3.09933 -2.13585 0
M  V30 4040 C 374.625 -2.59971 -0.964897 0
M  V30 4041 H 377.576 -1.58448 -0.0894528 0
M  V30 4042 H 377.597 -2.88706 -2.47848 0
M  V30 4043 H 377.109 -3.77845 -0.886277 0
M  V30 4044 H 375.21 -2.34694 -2.89395 0
M  V30 4045 H 375.323 -4.15916 -2.37804 0
M  V30 4046 H 373.687 -2.16147 -1.34731 0
M  V30 4047 H 374.47 -3.42376 -0.251742 0
M  V30 4048 N 376.915 0.57481 -1.46744 0
M  V30 4049 C 378.14 1.36341 -1.56288 0
M  V30 4050 C 378.565 1.86954 -0.207347 0
M  V30 4051 O 377.923 1.62006 0.813871 0
M  V30 4052 C 377.971 2.52147 -2.57787 0
M  V30 4053 O 377.075 3.53834 -2.11838 0
M  V30 4054 H 376.416 0.405713 -0.525636 0
M  V30 4055 H 378.946 0.696453 -1.92382 0
M  V30 4056 H 378.956 2.98958 -2.77648 0
M  V30 4057 H 377.631 2.14663 -3.5622 0
M  V30 4058 H 376.208 3.1345 -2.01999 0
M  V30 4059 N 378.394 1.34581 0.820102 0
M  V30 4060 C 379.357 1.2628 1.91275 0
M  V30 4061 C 380.357 0.177344 1.59819 0
M  V30 4062 O 381.547 0.430156 1.68806 0
M  V30 4063 C 378.679 0.950327 3.27386 0
M  V30 4064 H 379.872 2.23421 2.00057 0
M  V30 4065 H 377.425 1.1891 1.0144 0
M  V30 4066 H 378.16 -0.0177938 3.24295 0
M  V30 4067 H 377.945 1.73549 3.51601 0
M  V30 4068 H 379.435 0.917492 4.07396 0
M  V30 4069 N 379.872 -1.04064 1.18357 0
M  V30 4070 C 381.118 -1.77528 0.980397 0
M  V30 4071 C 381.451 -1.87948 -0.48879 0
M  V30 4072 O 380.726 -1.3876 -1.36293 0
M  V30 4073 C 381.009 -3.20797 1.63588 0
M  V30 4074 C 380.862 -3.1832 3.17793 0
M  V30 4075 C 382.181 -4.18911 1.34914 0
M  V30 4076 H 379.3 -0.644443 0.357578 0
M  V30 4077 H 381.942 -1.2156 1.46024 0
M  V30 4078 H 380.092 -3.68586 1.22788 0
M  V30 4079 H 381.764 -2.78521 3.67728 0
M  V30 4080 H 380.007 -2.56351 3.49952 0
M  V30 4081 H 380.678 -4.19489 3.58794 0
M  V30 4082 H 383.154 -3.7967 1.70265 0
M  V30 4083 H 382.03 -5.17374 1.83346 0
M  V30 4084 H 382.291 -4.41262 0.272027 0
M  V30 4085 N 381.35 -0.985608 -1.22978 0
M  V30 4086 C 382.596 -0.65836 -1.91816 0
M  V30 4087 C 382.929 0.806692 -1.76653 0
M  V30 4088 O 382.204 1.58252 -1.13078 0
M  V30 4089 C 382.487 -1.056 -3.44268 0
M  V30 4090 C 382.34 -2.57906 -3.68516 0
M  V30 4091 C 383.659 -0.603781 -4.35939 0
M  V30 4092 H 380.778 -0.24065 -0.696604 0
M  V30 4093 H 383.42 -1.22783 -1.44998 0
M  V30 4094 H 381.57 -0.571445 -3.84274 0
M  V30 4095 H 383.242 -3.13976 -3.3796 0
M  V30 4096 H 381.485 -3.00305 -3.13048 0
M  V30 4097 H 382.156 -2.80779 -4.75255 0
M  V30 4098 H 384.632 -1.01987 -4.03408 0
M  V30 4099 H 383.508 -0.910383 -5.41298 0
M  V30 4100 H 383.769 0.495761 -4.39312 0
M  V30 4101 N 382.828 1.3818 -0.7579 0
M  V30 4102 C 383.758 2.33027 -0.148597 0
M  V30 4103 C 384.739 1.55085 0.69875 0
M  V30 4104 O 385.924 1.83384 0.639053 0
M  V30 4105 C 383.054 3.3928 0.742034 0
M  V30 4106 C 382.008 4.28 -0.00291946 0
M  V30 4107 C 381.334 5.25146 1.00625 0
M  V30 4108 C 382.634 5.08938 -1.17385 0
M  V30 4109 H 384.328 2.84231 -0.940909 0
M  V30 4110 H 381.874 1.36659 -0.453908 0
M  V30 4111 H 383.827 4.046 1.17799 0
M  V30 4112 H 382.551 2.86569 1.56671 0
M  V30 4113 H 381.21 3.64192 -0.419504 0
M  V30 4114 H 380.858 4.68721 1.8251 0
M  V30 4115 H 380.558 5.85361 0.512428 0
M  V30 4116 H 382.082 5.93342 1.44143 0
M  V30 4117 H 383.496 5.67474 -0.815224 0
M  V30 4118 H 381.893 5.7841 -1.59882 0
M  V30 4119 H 382.963 4.42424 -1.98468 0
M  V30 4120 N 384.306 0.507319 1.49211 0
M  V30 4121 C 385.238 -0.304532 2.27168 0
M  V30 4122 C 386.251 -0.924956 1.33972 0
M  V30 4123 O 387.44 -0.807227 1.59205 0
M  V30 4124 C 384.54 -1.44431 3.06583 0
M  V30 4125 C 383.713 -0.930026 4.27398 0
M  V30 4126 C 382.772 -1.94817 4.88807 0
M  V30 4127 O 381.798 -1.51418 5.4869 0
M  V30 4128 N 383 -3.279 4.79022 0
M  V30 4129 H 385.765 0.36395 2.97482 0
M  V30 4130 H 383.326 0.340249 1.58284 0
M  V30 4131 H 385.318 -2.12311 3.44537 0
M  V30 4132 H 383.888 -2.01684 2.38835 0
M  V30 4133 H 383.108 -0.0759244 3.94127 0
M  V30 4134 H 384.396 -0.564932 5.05654 0
M  V30 4135 H 383.794 -3.65843 4.3148 0
M  V30 4136 H 382.351 -3.91476 5.21142 0
M  V30 4137 N 385.784 -1.5574 0.241426 0
M  V30 4138 C 387.024 -2.00714 -0.38644 0
M  V30 4139 C 387.388 -1.12586 -1.55526 0
M  V30 4140 O 388.589 -1.46992 -2.25048 0
M  V30 4141 C 386.86 -3.48534 -0.791128 0
M  V30 4142 S 388.419 -4.15519 -1.41029 0
M  V30 4143 H 385.237 -0.700484 -0.121834 0
M  V30 4144 H 387.839 -1.92243 0.355377 0
M  V30 4145 H 386.543 -4.10342 0.0689225 0
M  V30 4146 H 386.074 -3.6092 -1.56526 0
M  V30 4147 H 388.089 -4.16352 -2.69936 0
M  V30 4148 N 387.262 0.0317525 -1.57568 0
M  V30 4149 C 388.51 0.721676 -1.88776 0
M  V30 4150 C 388.831 1.76039 -0.838772 0
M  V30 4151 O 388.101 1.95482 0.127935 0
M  V30 4152 H 386.681 0.269534 -0.696678 0
M  V30 4153 H 389.343 -0.00165879 -1.949 0
M  V30 4154 H 388.439 1.21293 -2.87566 0
M  V30 4155 N 388.74 1.54641 0.303973 0
M  V30 4156 C 389.703 1.84646 1.35789 0
M  V30 4157 C 390.703 0.7192 1.4382 0
M  V30 4158 O 391.893 0.987491 1.43507 0
M  V30 4159 C 389.025 2.02407 2.74307 0
M  V30 4160 H 390.218 2.78829 1.10429 0
M  V30 4161 H 387.771 1.46658 0.540487 0
M  V30 4162 H 388.506 1.10502 3.04893 0
M  V30 4163 H 388.291 2.84453 2.69868 0
M  V30 4164 H 389.781 2.27002 3.50514 0
M  V30 4165 N 390.218 -0.567019 1.47046 0
M  V30 4166 C 391.495 -1.3276 1.43646 0
M  V30 4167 C 391.875 -2.1071 0.128186 0
M  V30 4168 O 391.223 -2.10441 -0.890326 0
M  V30 4169 C 391.433 -2.2404 2.67595 0
M  V30 4170 C 392.781 -2.85372 3.14401 0
M  V30 4171 O 393.805 -2.34346 2.68254 0
M  V30 4172 O 392.664 -3.78091 3.946 0
M  V30 4173 H 389.758 -0.597293 0.571988 0
M  V30 4174 H 392.304 -0.586735 1.59234 0
M  V30 4175 H 391.076 -1.65975 3.54356 0
M  V30 4176 H 390.699 -3.05439 2.54544 0
M  V30 4177 N 391.696 -1.35014 -0.812953 0
M  V30 4178 C 392.921 -1.31187 -1.60639 0
M  V30 4179 C 393.346 0.109382 -1.87782 0
M  V30 4180 O 392.704 1.07424 -1.46047 0
M  V30 4181 C 392.752 -2.11809 -2.91838 0
M  V30 4182 O 391.856 -1.49444 -3.8437 0
M  V30 4183 H 391.197 -0.450084 -0.488181 0
M  V30 4184 H 393.727 -1.77963 -1.00947 0
M  V30 4185 H 393.737 -2.23531 -3.41318 0
M  V30 4186 H 392.412 -3.15137 -2.71407 0
M  V30 4187 H 390.989 -1.46524 -3.42907 0
M  V30 4188 N 393.175 1.03435 -1.18907 0
M  V30 4189 C 394.105 2.13503 -0.945448 0
M  V30 4190 C 395.086 1.69682 0.119189 0
M  V30 4191 O 396.271 1.94169 -0.034707 0
M  V30 4192 C 393.401 3.44004 -0.477316 0
M  V30 4193 C 392.355 4.0148 -1.48316 0
M  V30 4194 C 391.681 5.27537 -0.872311 0
M  V30 4195 C 392.981 4.36921 -2.86177 0
M  V30 4196 H 394.675 2.34141 -1.86597 0
M  V30 4197 H 392.221 1.12523 -0.898584 0
M  V30 4198 H 394.174 4.20372 -0.294204 0
M  V30 4199 H 392.898 3.23072 0.478786 0
M  V30 4200 H 391.557 3.27201 -1.65332 0
M  V30 4201 H 391.205 5.02917 0.0911752 0
M  V30 4202 H 390.905 5.66954 -1.54393 0
M  V30 4203 H 392.429 6.06576 -0.699871 0
M  V30 4204 H 393.843 5.04248 -2.72776 0
M  V30 4205 H 392.24 4.87405 -3.50081 0
M  V30 4206 H 393.31 3.46466 -3.39248 0
M  V30 4207 N 394.653 0.992116 1.22453 0
M  V30 4208 C 395.878 0.685644 1.95739 0
M  V30 4209 C 396.303 -0.743 1.72804 0
M  V30 4210 O 395.661 -1.50778 1.00676 0
M  V30 4211 C 395.709 0.996293 3.46564 0
M  V30 4212 O 394.813 0.0945512 4.12292 0
M  V30 4213 H 394.154 0.256694 0.612376 0
M  V30 4214 H 396.684 1.32888 1.5557 0
M  V30 4215 H 396.694 0.93781 3.97076 0
M  V30 4216 H 395.369 2.03733 3.62582 0
M  V30 4217 H 393.946 0.208451 3.72317 0
M  V30 4218 N 396.131 -1.37776 0.765217 0
M  V30 4219 C 397.379 -1.99454 0.325943 0
M  V30 4220 C 397.7 -1.61049 -1.09947 0
M  V30 4221 O 396.97 -0.872821 -1.75381 0
M  V30 4222 H 395.55 -0.737697 0.117525 0
M  V30 4223 H 398.212 -1.68359 0.981895 0
M  V30 4224 H 397.308 -3.09547 0.398353 0
M  V30 4225 N 397.609 -0.515225 -1.4894 0
M  V30 4226 C 398.886 0.0879088 -1.95402 0
M  V30 4227 C 399.266 1.52745 -1.45712 0
M  V30 4228 O 398.614 2.18238 -0.677093 0
M  V30 4229 C 398.824 -0.0141055 -3.48997 0
M  V30 4230 C 400.172 0.152646 -4.24326 0
M  V30 4231 O 401.196 0.0604025 -3.56149 0
M  V30 4232 O 400.055 0.34384 -5.45417 0
M  V30 4233 H 397.149 0.0874636 -0.822362 0
M  V30 4234 H 399.695 -0.578775 -1.59525 0
M  V30 4235 H 398.467 -1.01745 -3.77841 0
M  V30 4236 H 398.09 0.692091 -3.9153 0
M  V30 4237 N 399.087 1.5561 -0.249682 0
M  V30 4238 C 400.503 1.59254 0.105103 0
M  V30 4239 C 400.703 1.26685 1.56694 0
M  V30 4240 O 399.759 1.0155 2.31179 0
M  V30 4241 C 401.072 2.99687 -0.246592 0
M  V30 4242 C 402.62 3.12416 -0.191118 0
M  V30 4243 C 403.095 4.55074 -0.516885 0
M  V30 4244 N 404.586 4.60835 -0.467489 0
M  V30 4245 C 405.321 5.69201 -0.69268 0
M  V30 4246 N 404.817 6.85817 -0.981146 0
M  V30 4247 N 406.61 5.58635 -0.623198 0
M  V30 4248 H 398.761 1.75049 -1.20298 0
M  V30 4249 H 401.024 0.815003 -0.484225 0
M  V30 4250 H 400.73 3.28267 -1.26228 0
M  V30 4251 H 400.604 3.74798 0.424962 0
M  V30 4252 H 402.991 2.83615 0.815247 0
M  V30 4253 H 403.072 2.39573 -0.896563 0
M  V30 4254 H 402.716 4.84596 -1.52082 0
M  V30 4255 H 402.646 5.26181 0.210068 0
M  V30 4256 H 405.137 3.7705 -0.253373 0
M  V30 4257 H 405.45 7.64341 -1.14032 0
M  V30 4258 H 403.795 6.87494 -1.01865 0
M  V30 4259 H 406.986 4.66406 -0.397863 0
M  V30 4260 H 407.159 6.43017 -0.802093 0
M  V30 4261 N 400.565 -0.0233959 1.57583 0
M  V30 4262 C 401.495 -1.02162 2.09965 0
M  V30 4263 C 402.476 -1.3735 1.00344 0
M  V30 4264 O 403.661 -1.46135 1.27899 0
M  V30 4265 C 400.791 -2.32081 2.58371 0
M  V30 4266 C 399.745 -2.1112 3.72307 0
M  V30 4267 C 399.071 -3.46848 4.06941 0
M  V30 4268 C 400.371 -1.49276 5.00514 0
M  V30 4269 H 402.065 -0.585557 2.93618 0
M  V30 4270 H 399.611 -0.280218 1.41247 0
M  V30 4271 H 401.564 -3.02249 2.93639 0
M  V30 4272 H 400.288 -2.77758 1.71808 0
M  V30 4273 H 398.947 -1.43384 3.37397 0
M  V30 4274 H 398.595 -3.90184 3.17436 0
M  V30 4275 H 398.295 -3.33646 4.83688 0
M  V30 4276 H 399.819 -4.18369 4.44747 0
M  V30 4277 H 401.233 -2.09368 5.33702 0
M  V30 4278 H 399.63 -1.46632 5.8191 0
M  V30 4279 H 400.7 -0.459217 4.82721 0
M  V30 4280 N 402.043 -1.548 -0.295768 0
M  V30 4281 C 403.291 -1.73985 -1.02828 0
M  V30 4282 C 403.612 -0.531406 -1.87619 0
M  V30 4283 O 402.882 0.454221 -1.90561 0
M  V30 4284 H 401.462 -0.641556 -0.382642 0
M  V30 4285 H 404.124 -1.92163 -0.325489 0
M  V30 4286 H 403.22 -2.63129 -1.67838 0
M  V30 4287 N 403.521 0.559213 -1.47345 0
M  V30 4288 C 404.761 1.32728 -1.55444 0
M  V30 4289 C 405.125 1.90838 -0.210895 0
M  V30 4290 O 406.326 2.68282 -0.166719 0
M  V30 4291 C 404.597 2.4092 -2.63993 0
M  V30 4292 S 406.156 3.2784 -2.91661 0
M  V30 4293 H 402.974 0.451883 -0.548929 0
M  V30 4294 H 405.576 0.640404 -1.84714 0
M  V30 4295 H 404.28 1.9666 -3.60212 0
M  V30 4296 H 403.811 3.14351 -2.36531 0
M  V30 4297 H 405.826 4.40341 -2.28722 0
M  V30 4298 N 404.999 1.35443 0.805782 0
M  V30 4299 C 406.246 1.28761 1.56291 0
M  V30 4300 C 406.574 -0.137747 1.94012 0
M  V30 4301 O 405.829 -1.1032 1.61642 0
M  V30 4302 C 406.128 2.14045 2.86216 0
M  V30 4303 C 405.794 3.62826 2.67709 0
M  V30 4304 C 404.456 4.0338 2.6237 0
M  V30 4305 C 406.808 4.57227 2.50186 0
M  V30 4306 C 404.136 5.36501 2.37451 0
M  V30 4307 C 406.488 5.90547 2.26797 0
M  V30 4308 C 405.152 6.30245 2.1988 0
M  V30 4309 H 404.422 0.471171 0.571908 0
M  V30 4310 H 407.069 1.67347 0.930974 0
M  V30 4311 H 405.374 1.68342 3.53791 0
M  V30 4312 H 407.071 2.0621 3.43917 0
M  V30 4313 H 403.661 3.30644 2.72713 0
M  V30 4314 H 407.845 4.2678 2.53323 0
M  V30 4315 H 403.101 5.66259 2.30567 0
M  V30 4316 H 407.275 6.63274 2.12228 0
M  V30 4317 H 404.902 7.33328 2.00333 0
M  V30 4318 N 406.477 -1.02803 1.19454 0
M  V30 4319 C 407.425 -2.13213 0.929673 0
M  V30 4320 C 408.419 -1.69011 -0.114806 0
M  V30 4321 O 409.625 -1.79967 0.0345147 0
M  V30 4322 H 406 -0.69662 0.28324 0
M  V30 4323 H 407.971 -2.32744 1.86743 0
M  V30 4324 C 406.72 -3.4429 0.485797 0
M  V30 4325 H 406.043 -3.7872 1.28105 0
M  V30 4326 H 407.483 -4.22638 0.339582 0
M  V30 4327 C 405.942 -3.27258 -0.800244 0
M  V30 4328 O 406.472 -3.55967 -1.86146 0
M  V30 4329 N 404.678 -2.80545 -0.75781 0
M  V30 4330 H 404.225 -2.57382 0.106039 0
M  V30 4331 H 404.183 -2.6953 -1.61867 0
M  V30 4332 N 407.956 -0.998596 -1.21925 0
M  V30 4333 C 408.886 -0.573688 -2.26343 0
M  V30 4334 C 409.867 0.402296 -1.65274 0
M  V30 4335 O 411.052 0.291683 -1.91997 0
M  V30 4336 C 408.182 0.106839 -3.47136 0
M  V30 4337 C 407.136 -0.788269 -4.20678 0
M  V30 4338 C 406.462 0.0254927 -5.34694 0
M  V30 4339 C 407.762 -2.08784 -4.78755 0
M  V30 4340 H 409.456 -1.44651 -2.62138 0
M  V30 4341 H 407.002 -0.696975 -1.26009 0
M  V30 4342 H 408.955 0.415531 -4.19346 0
M  V30 4343 H 407.679 1.01424 -3.10452 0
M  V30 4344 H 406.338 -1.08069 -3.50309 0
M  V30 4345 H 405.986 0.933989 -4.94253 0
M  V30 4346 H 405.686 -0.570437 -5.84825 0
M  V30 4347 H 407.21 0.328147 -6.09718 0
M  V30 4348 H 408.624 -1.84272 -5.42878 0
M  V30 4349 H 407.021 -2.63307 -5.39249 0
M  V30 4350 H 408.091 -2.76284 -3.98491 0
M  V30 4351 N 409.434 1.37368 -0.772513 0
M  V30 4352 C 410.662 2.03942 -0.348588 0
M  V30 4353 C 411.077 1.58264 1.02947 0
M  V30 4354 O 410.434 0.764246 1.65727 0
M  V30 4355 C 410.485 3.5946 -0.38351 0
M  V30 4356 O 410.206 4.03468 -1.70721 0
M  V30 4357 C 411.707 4.4327 0.0519152 0
M  V30 4358 H 408.927 0.654931 -0.145966 0
M  V30 4359 H 411.471 1.75686 -1.04665 0
M  V30 4360 H 409.626 3.86486 0.265978 0
M  V30 4361 H 410.04 4.97991 -1.64636 0
M  V30 4362 H 411.514 5.51995 -0.0236733 0
M  V30 4363 H 411.991 4.2514 1.10238 0
M  V30 4364 H 412.597 4.21471 -0.569415 0
M  V30 4365 N 410.912 0.523116 1.48665 0
M  V30 4366 C 412.158 -0.0134963 2.02796 0
M  V30 4367 C 412.491 -1.34582 1.40004 0
M  V30 4368 O 411.766 -1.86756 0.543381 0
M  V30 4369 C 412.049 -0.14276 3.59817 0
M  V30 4370 C 411.902 1.21425 4.331 0
M  V30 4371 C 413.221 -0.872856 4.31357 0
M  V30 4372 H 410.34 -0.00343074 0.736992 0
M  V30 4373 H 412.982 0.678816 1.7746 0
M  V30 4374 H 411.132 -0.732401 3.81534 0
M  V30 4375 H 412.804 1.84447 4.2282 0
M  V30 4376 H 411.047 1.79791 3.94788 0
M  V30 4377 H 411.718 1.07687 5.41394 0
M  V30 4378 H 414.194 -0.372555 4.14429 0
M  V30 4379 H 413.07 -0.932185 5.40927 0
M  V30 4380 H 413.331 -1.92161 3.98154 0
M  V30 4381 N 412.39 -1.55475 0.257931 0
M  V30 4382 C 413.337 -2.21837 -0.636939 0
M  V30 4383 C 414.307 -1.18596 -1.16294 0
M  V30 4384 O 415.492 -1.47081 -1.21539 0
M  V30 4385 C 412.632 -2.9301 -1.82317 0
M  V30 4386 C 411.745 -4.10931 -1.33265 0
M  V30 4387 C 410.88 -4.69791 -2.47931 0
M  V30 4388 C 409.919 -5.7994 -1.95796 0
M  V30 4389 N 409.056 -6.32935 -3.0387 0
M  V30 4390 H 413.896 -2.9793 -0.0643591 0
M  V30 4391 H 411.433 -1.47086 -0.0200031 0
M  V30 4392 H 413.391 -3.3248 -2.52018 0
M  V30 4393 H 412.021 -2.1937 -2.36805 0
M  V30 4394 H 411.073 -3.76699 -0.52931 0
M  V30 4395 H 412.385 -4.90417 -0.910654 0
M  V30 4396 H 411.539 -5.11892 -3.25656 0
M  V30 4397 H 410.278 -3.89545 -2.93438 0
M  V30 4398 H 409.283 -5.37305 -1.16546 0
M  V30 4399 H 410.508 -6.62043 -1.51246 0
M  V30 4400 H 408.454 -5.55591 -3.48791 0
M  V30 4401 H 408.371 -7.07645 -2.66035 0
M  V30 4402 H 409.639 -6.79695 -3.81621 0
M  V30 4403 N 413.868 0.0150385 -1.57593 0
M  V30 4404 C 415.116 0.701613 -1.8953 0
M  V30 4405 C 415.437 1.75139 -0.857396 0
M  V30 4406 O 414.707 1.95607 0.107194 0
M  V30 4407 H 413.287 0.26213 -0.699498 0
M  V30 4408 H 415.949 -0.0223304 -1.94887 0
M  V30 4409 H 415.045 1.18236 -2.88837 0
M  V30 4410 N 415.346 1.54954 0.287554 0
M  V30 4411 C 416.296 1.8322 1.357 0
M  V30 4412 C 417.28 0.690152 1.45347 0
M  V30 4413 O 418.472 0.951137 1.49273 0
M  V30 4414 C 415.601 2.09481 2.71979 0
M  V30 4415 C 414.687 3.29906 2.66502 0
M  V30 4416 N 415.078 4.50154 2.30641 0
M  V30 4417 C 413.376 3.32203 2.97585 0
M  V30 4418 C 414.077 5.32209 2.34794 0
M  V30 4419 N 413.053 4.70258 2.72688 0
M  V30 4420 H 416.855 2.73746 1.0696 0
M  V30 4421 H 414.369 1.54635 0.496167 0
M  V30 4422 H 416.366 2.27882 3.49107 0
M  V30 4423 H 415.026 1.2023 3.0162 0
M  V30 4424 H 416.037 4.76515 2.02865 0
M  V30 4425 H 412.714 2.53101 3.32034 0
M  V30 4426 H 414.104 6.38321 2.09753 0
M  V30 4427 N 416.824 -0.551391 1.4764 0
M  V30 4428 C 417.787 -1.64007 1.60107 0
M  V30 4429 C 418.787 -1.53601 0.47576 0
M  V30 4430 O 419.977 -1.57655 0.740988 0
M  V30 4431 C 417.109 -3.03569 1.55108 0
M  V30 4432 H 418.302 -1.543 2.57161 0
M  V30 4433 H 415.855 -0.771776 1.35917 0
M  V30 4434 H 416.59 -3.18804 0.594519 0
M  V30 4435 H 416.375 -3.12532 2.36783 0
M  V30 4436 H 417.865 -3.82762 1.66982 0
M  V30 4437 N 418.302 -1.35869 -0.798587 0
M  V30 4438 C 419.249 -1.29446 -1.91082 0
M  V30 4439 C 420.219 -0.16487 -1.6528 0
M  V30 4440 O 421.404 -0.349888 -1.87564 0
M  V30 4441 C 418.544 -1.0804 -3.27752 0
M  V30 4442 C 417.657 -2.29993 -3.65687 0
M  V30 4443 C 416.792 -2.01673 -4.91428 0
M  V30 4444 C 415.831 -3.19636 -5.22015 0
M  V30 4445 N 414.968 -2.91039 -6.38937 0
M  V30 4446 H 419.808 -2.24553 -1.95907 0
M  V30 4447 H 417.345 -1.11615 -0.958148 0
M  V30 4448 H 419.303 -0.936586 -4.06551 0
M  V30 4449 H 417.933 -0.16592 -3.22373 0
M  V30 4450 H 416.985 -2.55211 -2.82085 0
M  V30 4451 H 418.297 -3.18052 -3.84245 0
M  V30 4452 H 417.451 -1.84168 -5.78072 0
M  V30 4453 H 416.19 -1.10911 -4.74921 0
M  V30 4454 H 415.195 -3.37709 -4.33858 0
M  V30 4455 H 416.42 -4.11211 -5.40447 0
M  V30 4456 H 414.366 -2.0288 -6.2384 0
M  V30 4457 H 414.283 -3.72635 -6.57784 0
M  V30 4458 H 415.551 -2.77093 -7.28587 0
M  V30 4459 N 419.78 1.02168 -1.19998 0
M  V30 4460 C 421.02 1.77232 -1.01825 0
M  V30 4461 C 421.384 1.86833 0.442428 0
M  V30 4462 O 422.585 2.58293 0.744189 0
M  V30 4463 C 420.856 3.15601 -1.67722 0
M  V30 4464 S 422.415 4.06765 -1.64584 0
M  V30 4465 H 419.233 0.610021 -0.365233 0
M  V30 4466 H 421.835 1.22368 -1.52467 0
M  V30 4467 H 420.539 3.06235 -2.73218 0
M  V30 4468 H 420.07 3.7554 -1.17189 0
M  V30 4469 H 422.085 4.91586 -0.67511 0
M  V30 4470 N 421.258 1.00505 1.21394 0
M  V30 4471 C 422.504 0.688793 1.90745 0
M  V30 4472 C 422.837 -0.778486 1.77914 0
M  V30 4473 O 422.112 -1.56433 1.15581 0
M  V30 4474 C 422.395 1.11063 3.42545 0
M  V30 4475 C 422.248 2.63737 3.64367 0
M  V30 4476 C 423.567 0.673059 4.34923 0
M  V30 4477 H 420.686 0.251702 0.692687 0
M  V30 4478 H 423.328 1.25074 1.43026 0
M  V30 4479 H 421.478 0.632508 3.83317 0
M  V30 4480 H 423.15 3.19313 3.32922 0
M  V30 4481 H 421.393 3.05248 3.08231 0
M  V30 4482 H 422.064 2.88305 4.70727 0
M  V30 4483 H 424.54 1.08392 4.01734 0
M  V30 4484 H 423.416 0.996383 5.39781 0
M  V30 4485 H 423.677 -0.425808 4.40045 0
M  V30 4486 N 422.737 -1.36956 0.779787 0
M  V30 4487 C 423.647 -2.33965 0.172491 0
M  V30 4488 C 424.663 -1.60574 -0.670222 0
M  V30 4489 O 425.839 -1.92617 -0.588263 0
M  V30 4490 C 422.904 -3.39761 -0.690173 0
M  V30 4491 C 421.965 -4.28964 0.169924 0
M  V30 4492 C 421.198 -5.29707 -0.651662 0
M  V30 4493 O 421.421 -5.38238 -1.88827 0
M  V30 4494 O 420.355 -6.01873 -0.0566264 0
M  V30 4495 H 424.181 -2.87647 0.974321 0
M  V30 4496 H 421.766 -1.39258 0.541078 0
M  V30 4497 H 423.648 -4.04471 -1.1824 0
M  V30 4498 H 422.323 -2.88394 -1.47006 0
M  V30 4499 H 421.23 -3.67326 0.708696 0
M  V30 4500 H 422.563 -4.83656 0.913085 0
M  V30 4501 N 424.215 -0.530993 -1.48385 0
M  V30 4502 C 425.461 0.00274135 -2.028 0
M  V30 4503 C 425.794 1.33838 -1.40716 0
M  V30 4504 O 425.069 1.86465 -0.553277 0
M  V30 4505 C 425.352 0.123676 -3.59888 0
M  V30 4506 C 425.205 -1.2372 -4.3245 0
M  V30 4507 C 426.524 0.849967 -4.31814 0
M  V30 4508 H 423.643 -0.000477758 -0.737 0
M  V30 4509 H 426.285 -0.688217 -1.77098 0
M  V30 4510 H 424.435 0.712157 -3.81917 0
M  V30 4511 H 426.107 -1.86687 -4.21836 0
M  V30 4512 H 424.35 -1.81882 -3.93829 0
M  V30 4513 H 425.021 -1.10557 -5.40815 0
M  V30 4514 H 427.497 0.350572 -4.14621 0
M  V30 4515 H 426.373 0.903486 -5.41413 0
M  V30 4516 H 426.634 1.90047 -3.99167 0
M  V30 4517 N 425.693 1.55336 -0.266172 0
M  V30 4518 C 426.939 1.99692 0.353681 0
M  V30 4519 C 427.272 1.1543 1.56172 0
M  V30 4520 O 426.547 0.222218 1.93226 0
M  V30 4521 C 426.83 3.52316 0.74466 0
M  V30 4522 C 426.683 4.47337 -0.470101 0
M  V30 4523 C 428.002 4.10588 1.58447 0
M  V30 4524 H 425.121 0.725961 0.12708 0
M  V30 4525 H 427.763 1.86336 -0.371333 0
M  V30 4526 H 425.913 3.63829 1.36239 0
M  V30 4527 H 427.585 4.4778 -1.10864 0
M  V30 4528 H 425.828 4.19364 -1.10978 0
M  V30 4529 H 426.499 5.51788 -0.15291 0
M  V30 4530 H 428.975 4.02297 1.06286 0
M  V30 4531 H 427.851 5.17607 1.82686 0
M  V30 4532 H 428.112 3.60253 2.56262 0
M  V30 4533 N 427.171 -0.0066808 1.57599 0
M  V30 4534 C 428.118 -1.00024 2.08 0
M  V30 4535 C 429.088 -1.34549 0.973943 0
M  V30 4536 O 430.273 -1.44502 1.24595 0
M  V30 4537 C 427.413 -2.2891 2.58252 0
M  V30 4538 C 426.526 -2.00346 3.82734 0
M  V30 4539 C 425.661 -3.23265 4.21513 0
M  V30 4540 C 424.7 -2.90357 5.3885 0
M  V30 4541 N 423.837 -4.05793 5.72954 0
M  V30 4542 H 428.677 -0.563499 2.92624 0
M  V30 4543 H 426.214 -0.266592 1.44664 0
M  V30 4544 H 428.172 -3.04247 2.85464 0
M  V30 4545 H 426.802 -2.70265 1.76512 0
M  V30 4546 H 425.854 -1.15406 3.62471 0
M  V30 4547 H 427.166 -1.72086 4.68175 0
M  V30 4548 H 426.32 -4.06953 4.49971 0
M  V30 4549 H 425.059 -3.54657 3.34768 0
M  V30 4550 H 424.064 -2.05075 5.10122 0
M  V30 4551 H 425.289 -2.60219 6.27266 0
M  V30 4552 H 423.235 -4.37094 4.89167 0
M  V30 4553 H 423.152 -3.81034 6.52954 0
M  V30 4554 H 424.42 -4.90289 6.06001 0
M  V30 4555 N 428.649 -1.55105 -0.279332 0
M  V30 4556 C 429.877 -1.7943 -1.03017 0
M  V30 4557 C 430.292 -0.564456 -1.80165 0
M  V30 4558 O 429.649 0.466326 -1.76442 0
M  V30 4559 C 429.7 -3.0155 -1.99374 0
M  V30 4560 O 429.421 -4.19784 -1.25352 0
M  V30 4561 C 430.922 -3.3843 -2.86321 0
M  V30 4562 H 428.142 -0.597882 -0.304594 0
M  V30 4563 H 430.686 -2.02105 -0.312035 0
M  V30 4564 H 428.841 -2.81019 -2.66659 0
M  V30 4565 H 429.255 -4.88781 -1.90246 0
M  V30 4566 H 430.729 -4.27066 -3.49741 0
M  V30 4567 H 431.206 -2.57549 -3.5576 0
M  V30 4568 H 431.812 -3.61197 -2.24536 0
M  V30 4569 N 430.127 0.543554 -1.4793 0
M  V30 4570 C 431.374 1.30008 -1.55255 0
M  V30 4571 C 431.702 1.93245 -0.220612 0
M  V30 4572 O 430.957 1.79141 0.787843 0
M  V30 4573 C 431.256 2.42078 -2.62932 0
M  V30 4574 C 430.922 1.96583 -4.0579 0
M  V30 4575 C 429.584 1.83893 -4.44676 0
M  V30 4576 C 431.936 1.62034 -4.95373 0
M  V30 4577 C 429.264 1.34969 -5.70964 0
M  V30 4578 C 431.616 1.14577 -6.22137 0
M  V30 4579 C 430.28 1.00493 -6.59892 0
M  V30 4580 H 429.55 0.475735 -0.568117 0
M  V30 4581 H 432.197 0.608075 -1.81589 0
M  V30 4582 H 430.502 3.16892 -2.30406 0
M  V30 4583 H 432.199 3.00236 -2.65818 0
M  V30 4584 H 428.789 2.07407 -3.75074 0
M  V30 4585 H 432.973 1.70705 -4.66019 0
M  V30 4586 H 428.229 1.2274 -5.98953 0
M  V30 4587 H 432.403 0.869109 -6.90955 0
M  V30 4588 H 430.03 0.623624 -7.57638 0
M  V30 4589 N 431.605 1.3629 0.791371 0
M  V30 4590 C 432.553 1.30514 1.92533 0
M  V30 4591 C 433.547 0.197285 1.68247 0
M  V30 4592 O 434.753 0.364176 1.76278 0
M  V30 4593 H 431.128 0.406263 0.632815 0
M  V30 4594 H 433.099 2.26282 1.94523 0
M  V30 4595 C 431.848 1.10933 3.29529 0
M  V30 4596 H 431.171 1.95427 3.48781 0
M  V30 4597 H 432.611 1.10937 4.0923 0
M  V30 4598 C 431.07 -0.186123 3.36385 0
M  V30 4599 O 431.6 -1.17664 3.84081 0
M  V30 4600 N 429.806 -0.230128 2.89687 0
M  V30 4601 H 429.353 0.576545 2.51065 0
M  V30 4602 H 429.311 -1.09658 2.94657 0
M  V30 4603 N 433.083 -1.0153 1.20538 0
M  V30 4604 C 434.013 -2.11972 0.979295 0
M  V30 4605 C 434.994 -1.6985 -0.0921787 0
M  V30 4606 O 436.179 -1.94089 0.0655932 0
M  V30 4607 C 433.309 -3.43201 0.531984 0
M  V30 4608 C 432.263 -3.9907 1.54685 0
M  V30 4609 C 431.589 -5.26082 0.956127 0
M  V30 4610 C 432.889 -4.32313 2.93092 0
M  V30 4611 H 434.583 -2.31143 1.90298 0
M  V30 4612 H 432.129 -1.11079 0.916372 0
M  V30 4613 H 434.082 -4.1985 0.361044 0
M  V30 4614 H 432.806 -3.23792 -0.427327 0
M  V30 4615 H 431.465 -3.2453 1.70517 0
M  V30 4616 H 431.113 -5.02999 -0.0111538 0
M  V30 4617 H 430.813 -5.64426 1.63393 0
M  V30 4618 H 432.337 -6.05386 0.796284 0
M  V30 4619 H 433.751 -4.99845 2.80763 0
M  V30 4620 H 432.148 -4.81774 3.57791 0
M  V30 4621 H 433.218 -3.41025 3.44717 0
M  V30 4622 N 434.561 -1.01147 -1.20859 0
M  V30 4623 C 435.972 -0.730205 -1.71828 0
M  V30 4624 C 436.323 0.751662 -1.8123 0
M  V30 4625 O 435.448 1.58686 -1.47132 0
M  V30 4626 C 436.043 -1.31885 -3.12077 0
M  V30 4627 C 434.602 -1.08656 -3.60376 0
M  V30 4628 C 433.749 -1.42769 -2.37723 0
M  V30 4629 H 436.7 -1.18158 -1.05945 0
M  V30 4630 H 436.721 -0.706793 -3.73878 0
M  V30 4631 H 436.233 -2.39737 -3.05201 0
M  V30 4632 H 434.334 -0.0254814 -3.72591 0
M  V30 4633 H 434.447 -1.76301 -4.45483 0
M  V30 4634 H 432.811 -0.846603 -2.40218 0
M  V30 4635 H 433.594 -2.51666 -2.33493 0
M  V30 4636 N 436.039 1.36541 -0.78704 0
M  V30 4637 C 436.969 2.32659 -0.197992 0
M  V30 4638 C 437.95 1.56533 0.665697 0
M  V30 4639 O 439.135 1.84698 0.60001 0
M  V30 4640 C 436.265 3.40778 0.669901 0
M  V30 4641 C 435.219 4.27897 -0.0937039 0
M  V30 4642 C 434.545 5.27163 0.894629 0
M  V30 4643 C 435.845 5.06334 -1.28154 0
M  V30 4644 H 437.539 2.82171 -1.00099 0
M  V30 4645 H 435.085 1.35665 -0.482793 0
M  V30 4646 H 437.038 4.07008 1.09191 0
M  V30 4647 H 435.762 2.89827 1.50558 0
M  V30 4648 H 434.421 3.6322 -0.49666 0
M  V30 4649 H 434.069 4.72486 1.72527 0
M  V30 4650 H 433.769 5.86317 0.388149 0
M  V30 4651 H 435.293 5.96266 1.31525 0
M  V30 4652 H 436.707 5.65617 -0.93541 0
M  V30 4653 H 435.104 5.74888 -1.72115 0
M  V30 4654 H 436.174 4.38114 -2.07807 0
M  V30 4655 N 437.518 0.538854 1.48102 0
M  V30 4656 C 438.448 -0.207654 2.32575 0
M  V30 4657 C 439.429 -0.926559 1.4265 0
M  V30 4658 O 440.614 -0.91061 1.71527 0
M  V30 4659 C 437.744 -1.24957 3.24042 0
M  V30 4660 C 436.698 -0.648263 4.23062 0
M  V30 4661 C 436.024 -1.79348 5.03725 0
M  V30 4662 C 437.324 0.385897 5.20872 0
M  V30 4663 H 439.018 0.497534 2.95237 0
M  V30 4664 H 436.564 0.240715 1.41974 0
M  V30 4665 H 438.517 -1.77983 3.81969 0
M  V30 4666 H 437.241 -1.98446 2.59397 0
M  V30 4667 H 435.9 -0.139452 3.66335 0
M  V30 4668 H 435.548 -2.51696 4.35498 0
M  V30 4669 H 435.248 -1.39702 5.70751 0
M  V30 4670 H 436.772 -2.32735 5.64506 0
M  V30 4671 H 438.186 -0.057607 5.73271 0
M  V30 4672 H 436.583 0.700227 5.96001 0
M  V30 4673 H 437.653 1.28848 4.67468 0
M  V30 4674 N 438.996 -1.55193 0.274407 0
M  V30 4675 C 439.929 -2.18606 -0.654712 0
M  V30 4676 C 440.907 -1.14677 -1.15273 0
M  V30 4677 O 442.091 -1.43198 -1.22583 0
M  V30 4678 C 439.218 -2.80875 -1.89281 0
M  V30 4679 C 438.264 -3.981 -1.53032 0
M  V30 4680 S 439.097 -5.32025 -0.609107 0
M  V30 4681 C 440.253 -5.97761 -1.85559 0
M  V30 4682 H 440.486 -2.97074 -0.115894 0
M  V30 4683 H 438.019 -1.54288 0.05867 0
M  V30 4684 H 439.977 -3.17381 -2.60345 0
M  V30 4685 H 438.638 -2.02302 -2.40277 0
M  V30 4686 H 437.831 -4.40356 -2.45158 0
M  V30 4687 H 437.433 -3.63013 -0.899874 0
M  V30 4688 H 439.725 -6.16951 -2.7996 0
M  V30 4689 H 440.668 -6.92545 -1.47605 0
M  V30 4690 H 441.076 -5.27113 -2.02021 0
M  V30 4691 N 440.474 -0.00167713 -1.576 0
M  V30 4692 C 441.404 0.988091 -2.11563 0
M  V30 4693 C 442.385 1.35736 -1.02517 0
M  V30 4694 O 443.57 1.44082 -1.30208 0
M  V30 4695 C 440.7 2.27941 -2.62031 0
M  V30 4696 C 439.654 2.0517 -3.75619 0
M  V30 4697 C 438.98 3.4033 -4.12407 0
M  V30 4698 C 440.28 1.41294 -5.02825 0
M  V30 4699 H 441.974 0.538771 -2.94513 0
M  V30 4700 H 439.52 0.257712 -1.41675 0
M  V30 4701 H 441.473 2.97539 -2.9841 0
M  V30 4702 H 440.197 2.74989 -1.76205 0
M  V30 4703 H 438.856 1.37998 -3.39635 0
M  V30 4704 H 438.504 3.85085 -3.23603 0
M  V30 4705 H 438.204 3.25909 -4.88935 0
M  V30 4706 H 439.728 4.1124 -4.51347 0
M  V30 4707 H 441.142 2.00851 -5.36965 0
M  V30 4708 H 439.539 1.37356 -5.84169 0
M  V30 4709 H 440.609 0.382362 -4.8339 0
M  V30 4710 N 441.952 1.55251 0.271103 0
M  V30 4711 C 443.2 1.75599 1.00047 0
M  V30 4712 C 443.521 0.561188 1.8675 0
M  V30 4713 O 442.791 -0.423846 1.9126 0
M  V30 4714 H 441.371 0.647562 0.372387 0
M  V30 4715 H 444.033 1.92656 0.294876 0
M  V30 4716 H 443.129 2.65766 1.6363 0
M  V30 4717 N 443.43 -0.535701 1.48216 0
M  V30 4718 C 444.678 -1.28928 1.55634 0
M  V30 4719 C 444.999 -1.93645 0.229514 0
M  V30 4720 O 444.269 -1.81038 -0.74846 0
M  V30 4721 H 442.849 -0.47884 0.573342 0
M  V30 4722 H 445.511 -0.623853 1.84646 0
M  V30 4723 H 444.607 -2.07157 2.33436 0
M  V30 4724 N 444.908 -1.36708 -0.784132 0
M  V30 4725 C 446.156 -1.30972 -1.53918 0
M  V30 4726 C 446.477 0.109086 -1.94695 0
M  V30 4727 O 445.747 1.05048 -1.65353 0
M  V30 4728 H 444.327 -0.481819 -0.570841 0
M  V30 4729 H 446.989 -1.71063 -0.934002 0
M  V30 4730 H 446.085 -1.94061 -2.44431 0
M  V30 4731 N 446.386 1.0089 -1.21074 0
M  V30 4732 C 447.634 1.74262 -1.02358 0
M  V30 4733 C 447.955 1.89869 0.444393 0
M  V30 4734 O 447.225 1.44677 1.32081 0
M  V30 4735 H 445.805 0.645615 -0.375754 0
M  V30 4736 H 448.467 1.21596 -1.52317 0
M  V30 4737 H 447.563 2.74328 -1.4883 0
M  V30 4738 N 447.864 1.01787 1.20321 0
M  V30 4739 C 449.094 0.72614 1.93419 0
M  V30 4740 C 449.502 -0.717317 1.75075 0
M  V30 4741 O 448.845 -1.49836 1.06278 0
M  V30 4742 C 448.907 0.983621 3.45782 0
M  V30 4743 C 448.571 2.41645 3.87888 0
M  V30 4744 C 449.568 3.39732 3.93545 0
M  V30 4745 C 447.253 2.75752 4.19841 0
M  V30 4746 C 449.247 4.69988 4.30569 0
M  V30 4747 C 446.934 4.06221 4.56539 0
M  V30 4748 C 447.932 5.0315 4.61876 0
M  V30 4749 O 447.62 6.31284 4.97731 0
M  V30 4750 H 447.352 0.265824 0.621541 0
M  V30 4751 H 449.906 1.3623 1.53722 0
M  V30 4752 H 448.136 0.290301 3.85609 0
M  V30 4753 H 449.825 0.683279 4.00108 0
M  V30 4754 H 450.591 3.14718 3.69022 0
M  V30 4755 H 446.47 2.00993 4.14877 0
M  V30 4756 H 450.014 5.45642 4.3465 0
M  V30 4757 H 445.911 4.31013 4.80518 0
M  V30 4758 H 446.679 6.35591 5.15719 0
M  V30 4759 N 449.342 -1.36122 0.79427 0
M  V30 4760 C 450.57 -2.03362 0.380989 0
M  V30 4761 C 450.985 -1.59881 -1.00416 0
M  V30 4762 O 450.342 -0.790515 -1.6449 0
M  V30 4763 C 450.393 -3.58804 0.440649 0
M  V30 4764 O 450.114 -4.007 1.77118 0
M  V30 4765 C 451.615 -4.43296 0.0186117 0
M  V30 4766 H 448.835 -0.652526 0.156367 0
M  V30 4767 H 451.379 -1.73998 1.07447 0
M  V30 4768 H 449.534 -3.8686 -0.204458 0
M  V30 4769 H 449.948 -4.95309 1.72538 0
M  V30 4770 H 451.422 -5.51887 0.111488 0
M  V30 4771 H 451.899 -4.2684 -1.03461 0
M  V30 4772 H 452.505 -4.20512 0.636395 0
M  V30 4773 N 450.82 -0.546701 -1.47814 0
M  V30 4774 C 452.069 -0.0166497 -2.01693 0
M  V30 4775 C 452.382 1.33721 -1.42752 0
M  V30 4776 O 453.588 1.95658 -1.8823 0
M  V30 4777 C 452.044 0.0206769 -3.59894 0
M  V30 4778 C 451.652 -1.3293 -4.27824 0
M  V30 4779 C 453.396 0.498674 -4.21561 0
M  V30 4780 C 451.303 -1.25165 -5.78003 0
M  V30 4781 H 450.233 -0.0024541 -0.753996 0
M  V30 4782 H 452.884 -0.692984 -1.69912 0
M  V30 4783 H 451.266 0.76244 -3.88591 0
M  V30 4784 H 452.44 -2.08795 -4.10781 0
M  V30 4785 H 450.755 -1.74438 -3.78101 0
M  V30 4786 H 453.352 0.575 -5.31599 0
M  V30 4787 H 453.695 1.5083 -3.88016 0
M  V30 4788 H 454.228 -0.18791 -3.97356 0
M  V30 4789 H 450.967 -2.23695 -6.1615 0
M  V30 4790 H 450.487 -0.53464 -5.97412 0
M  V30 4791 H 452.166 -0.949299 -6.39998 0
M  V30 4792 N 452.299 1.55045 -0.282633 0
M  V30 4793 C 453.715 1.59441 0.0712997 0
M  V30 4794 C 453.915 1.2998 1.53972 0
M  V30 4795 O 452.971 1.06431 2.28973 0
M  V30 4796 C 454.284 2.99097 -0.310104 0
M  V30 4797 C 455.832 3.1194 -0.257343 0
M  V30 4798 C 456.307 4.53875 -0.613297 0
M  V30 4799 N 457.798 4.5974 -0.565134 0
M  V30 4800 C 458.533 5.67603 -0.81326 0
M  V30 4801 N 458.029 6.83582 -1.1264 0
M  V30 4802 N 459.822 5.57187 -0.741553 0
M  V30 4803 H 451.973 1.72458 -1.23984 0
M  V30 4804 H 454.236 0.804549 -0.501403 0
M  V30 4805 H 453.942 3.25516 -1.33163 0
M  V30 4806 H 453.816 3.75616 0.345366 0
M  V30 4807 H 456.203 2.85281 0.754905 0
M  V30 4808 H 456.284 2.37618 -0.947178 0
M  V30 4809 H 455.928 4.81261 -1.62327 0
M  V30 4810 H 455.858 5.26508 0.09841 0
M  V30 4811 H 458.349 3.76427 -0.333294 0
M  V30 4812 H 458.662 7.6175 -1.30219 0
M  V30 4813 H 457.007 6.85179 -1.16425 0
M  V30 4814 H 460.198 4.65457 -0.496705 0
M  V30 4815 H 460.371 6.41171 -0.938306 0
M  V30 4816 N 453.777 0.010035 1.57597 0
M  V30 4817 C 454.725 -0.996272 2.10184 0
M  V30 4818 C 455.719 -1.34942 1.02406 0
M  V30 4819 O 456.925 -1.33389 1.20861 0
M  V30 4820 H 453.3 -0.338982 0.671264 0
M  V30 4821 H 455.271 -0.527272 2.93705 0
M  V30 4822 C 454.02 -2.27599 2.62857 0
M  V30 4823 H 453.343 -2.01295 3.45428 0
M  V30 4824 H 454.783 -2.96265 3.0332 0
M  V30 4825 C 453.242 -2.99269 1.54725 0
M  V30 4826 O 453.772 -3.90644 0.93597 0
M  V30 4827 N 451.978 -2.61269 1.27228 0
M  V30 4828 H 451.525 -1.87043 1.77123 0
M  V30 4829 H 451.483 -3.09534 0.550999 0
M  V30 4830 N 455.255 -1.55392 -0.262866 0
M  V30 4831 C 456.501 -1.76737 -0.99458 0
M  V30 4832 C 456.834 -0.572453 -1.85571 0
M  V30 4833 O 456.109 0.429732 -1.89693 0
M  V30 4834 C 456.392 -3.07824 -1.8686 0
M  V30 4835 C 456.245 -4.3769 -1.03672 0
M  V30 4836 C 457.564 -3.35021 -2.85393 0
M  V30 4837 H 454.683 -0.643005 -0.360157 0
M  V30 4838 H 457.325 -1.88126 -0.266216 0
M  V30 4839 H 455.475 -2.98245 -2.48962 0
M  V30 4840 H 457.147 -4.59238 -0.43563 0
M  V30 4841 H 455.39 -4.32461 -0.340513 0
M  V30 4842 H 456.061 -5.25759 -1.6817 0
M  V30 4843 H 458.537 -3.44458 -2.33426 0
M  V30 4844 H 457.413 -4.27989 -3.43681 0
M  V30 4845 H 457.674 -2.55153 -3.61039 0
M  V30 4846 N 456.733 0.527833 -1.48498 0
M  V30 4847 C 457.696 1.61439 -1.62696 0
M  V30 4848 C 458.696 1.52824 -0.500136 0
M  V30 4849 O 459.886 1.56456 -0.765976 0
M  V30 4850 C 457.018 3.01063 -1.59918 0
M  V30 4851 H 458.211 1.50189 -2.59583 0
M  V30 4852 H 455.764 0.750055 -1.37127 0
M  V30 4853 H 456.499 3.17818 -0.645163 0
M  V30 4854 H 456.284 3.08725 -2.41726 0
M  V30 4855 H 457.774 3.80057 -1.73051 0
M  V30 4856 N 458.211 1.37122 0.776871 0
M  V30 4857 C 459.627 1.1781 1.07671 0
M  V30 4858 C 459.827 0.0107454 2.01497 0
M  V30 4859 O 458.883 -0.650756 2.4397 0
M  V30 4860 C 460.196 2.49451 1.67913 0
M  V30 4861 C 461.744 2.55927 1.80195 0
M  V30 4862 C 462.219 3.87686 2.43851 0
M  V30 4863 N 463.71 3.891 2.51307 0
M  V30 4864 C 464.445 4.87797 3.014 0
M  V30 4865 N 463.941 5.96888 3.51705 0
M  V30 4866 N 465.734 4.75205 3.00227 0
M  V30 4867 H 457.885 2.11843 0.153778 0
M  V30 4868 H 460.148 0.938927 0.130844 0
M  V30 4869 H 459.854 3.35207 1.06439 0
M  V30 4870 H 459.728 2.66169 2.67271 0
M  V30 4871 H 462.115 1.70582 2.40803 0
M  V30 4872 H 462.196 2.43097 0.796069 0
M  V30 4873 H 461.84 4.73444 1.83884 0
M  V30 4874 H 461.77 3.97817 3.45035 0
M  V30 4875 H 464.261 3.10293 2.157 0
M  V30 4876 H 464.574 6.68155 3.88316 0
M  V30 4877 H 462.919 6.0054 3.49824 0
M  V30 4878 H 466.11 3.89103 2.60224 0
M  V30 4879 H 466.283 5.52279 3.38957 0
M  V30 4880 N 459.689 -1.00246 1.21608 0
M  V30 4881 C 460.929 -1.75589 1.04631 0
M  V30 4882 C 461.293 -1.87513 -0.412648 0
M  V30 4883 O 462.494 -2.59444 -0.703003 0
M  V30 4884 C 460.765 -3.12893 1.72722 0
M  V30 4885 S 462.324 -4.04095 1.71034 0
M  V30 4886 H 459.142 -0.604133 0.374892 0
M  V30 4887 H 461.744 -1.19927 1.54395 0
M  V30 4888 H 460.448 -3.0185 2.78055 0
M  V30 4889 H 459.979 -3.73628 1.23149 0
M  V30 4890 H 461.994 -4.9045 0.753231 0
M  V30 4891 N 461.167 -1.02423 -1.1978 0
M  V30 4892 C 462.413 -0.72878 -1.89896 0
M  V30 4893 C 462.768 0.734248 -1.77839 0
M  V30 4894 O 462.061 1.52733 -1.15685 0
M  V30 4895 C 462.255 -1.1088 -3.39765 0
M  V30 4896 C 462.084 -2.60722 -3.66407 0
M  V30 4897 C 460.854 -3.27623 -3.84696 0
M  V30 4898 C 463.052 -3.58924 -3.68345 0
M  V30 4899 N 461.034 -4.66617 -3.98926 0
M  V30 4900 C 462.405 -4.83514 -3.8809 0
M  V30 4901 C 464.46 -3.52788 -3.51347 0
M  V30 4902 C 463.163 -6.0271 -3.92598 0
M  V30 4903 C 465.189 -4.71394 -3.5713 0
M  V30 4904 C 464.551 -5.94796 -3.77356 0
M  V30 4905 H 460.65 -0.318473 -0.714212 0
M  V30 4906 H 463.234 -1.3106 -1.43984 0
M  V30 4907 H 461.405 -0.555233 -3.84411 0
M  V30 4908 H 463.137 -0.766082 -3.97383 0
M  V30 4909 H 459.892 -2.7804 -3.83393 0
M  V30 4910 H 460.316 -5.38805 -4.099 0
M  V30 4911 H 464.958 -2.58372 -3.3467 0
M  V30 4912 H 462.676 -6.97499 -4.08069 0
M  V30 4913 H 466.262 -4.6827 -3.45275 0
M  V30 4914 H 465.142 -6.85037 -3.81699 0
M  V30 4915 N 462.645 1.35699 -0.801477 0
M  V30 4916 C 463.873 2.03157 -0.391768 0
M  V30 4917 C 464.288 1.60412 0.995668 0
M  V30 4918 O 463.645 0.799228 1.64069 0
M  V30 4919 C 463.696 3.58566 -0.459671 0
M  V30 4920 O 463.417 3.99756 -1.7924 0
M  V30 4921 C 464.918 4.4328 -0.0421205 0
M  V30 4922 H 462.138 0.651688 -0.159825 0
M  V30 4923 H 464.682 1.73426 -1.08368 0
M  V30 4924 H 462.837 3.86963 0.183939 0
M  V30 4925 H 463.251 4.94387 -1.75162 0
M  V30 4926 H 464.725 5.51821 -0.140754 0
M  V30 4927 H 465.202 4.27383 1.01196 0
M  V30 4928 H 465.808 4.20168 -0.658687 0
M  V30 4929 N 464.123 0.554532 1.47522 0
M  V30 4930 C 465.353 0.0342074 2.06572 0
M  V30 4931 C 465.761 -1.26375 1.40805 0
M  V30 4932 O 465.104 -1.7683 0.49769 0
M  V30 4933 C 465.166 -0.235096 3.5873 0
M  V30 4934 C 464.83 0.973024 4.46521 0
M  V30 4935 C 465.827 1.8779 4.848 0
M  V30 4936 C 463.512 1.18694 4.88075 0
M  V30 4937 C 465.506 2.98039 5.63428 0
M  V30 4938 C 463.193 2.29254 5.66468 0
M  V30 4939 C 464.191 3.18757 6.04055 0
M  V30 4940 O 463.879 4.27401 6.8087 0
M  V30 4941 H 463.611 0.041587 0.67472 0
M  V30 4942 H 466.165 0.766748 1.90552 0
M  V30 4943 H 464.395 -1.02191 3.72953 0
M  V30 4944 H 466.084 -0.700477 3.9981 0
M  V30 4945 H 466.85 1.72467 4.53299 0
M  V30 4946 H 462.729 0.49947 4.58286 0
M  V30 4947 H 466.273 3.67926 5.92685 0
M  V30 4948 H 462.17 2.4455 5.97382 0
M  V30 4949 H 462.938 4.25415 6.9926 0
M  V30 4950 N 465.601 -1.54893 0.290851 0
M  V30 4951 C 466.511 -2.26812 -0.59945 0
M  V30 4952 C 467.527 -1.29963 -1.15696 0
M  V30 4953 O 468.703 -1.62928 -1.18391 0
M  V30 4954 C 465.768 -2.98716 -1.75982 0
M  V30 4955 C 464.829 -4.1108 -1.2374 0
M  V30 4956 C 464.062 -4.79546 -2.34246 0
M  V30 4957 O 464.285 -4.47309 -3.53936 0
M  V30 4958 O 463.219 -5.67165 -2.01512 0
M  V30 4959 H 467.045 -3.03696 -0.0163561 0
M  V30 4960 H 464.63 -1.49289 0.0576755 0
M  V30 4961 H 466.512 -3.43851 -2.43607 0
M  V30 4962 H 465.187 -2.24737 -2.3297 0
M  V30 4963 H 464.094 -3.70367 -0.527163 0
M  V30 4964 H 465.427 -4.87007 -0.71307 0
M  V30 4965 N 467.08 -0.0183926 -1.57589 0
M  V30 4966 C 468.308 0.673046 -1.95647 0
M  V30 4967 C 468.723 1.66275 -0.894312 0
M  V30 4968 O 468.08 1.82072 0.124975 0
M  V30 4969 C 468.131 1.38884 -3.33756 0
M  V30 4970 O 467.852 0.438806 -4.35897 0
M  V30 4971 C 469.353 2.1731 -3.86383 0
M  V30 4972 H 466.573 0.186292 -0.644621 0
M  V30 4973 H 469.117 -0.0749748 -2.04363 0
M  V30 4974 H 467.272 2.08835 -3.26293 0
M  V30 4975 H 467.686 0.945869 -5.15901 0
M  V30 4976 H 469.16 2.62863 -4.85394 0
M  V30 4977 H 469.637 3.00764 -3.20059 0
M  V30 4978 H 470.243 1.52339 -3.97081 0
M  V30 4979 N 468.558 1.5553 0.254621 0
M  V30 4980 C 469.521 1.88872 1.29846 0
M  V30 4981 C 470.521 0.764591 1.41459 0
M  V30 4982 O 471.711 1.03265 1.40293 0
M  V30 4983 C 468.843 2.11032 2.67728 0
M  V30 4984 H 470.036 2.82201 1.01502 0
M  V30 4985 H 467.589 1.48303 0.493556 0
M  V30 4986 H 468.324 1.20146 3.01223 0
M  V30 4987 H 468.109 2.92895 2.60682 0
M  V30 4988 H 469.599 2.38038 3.43115 0
M  V30 4989 N 470.036 -0.519951 1.48776 0
M  V30 4990 C 471.282 -1.27711 1.57536 0
M  V30 4991 C 471.615 -1.92547 0.252866 0
M  V30 4992 O 470.89 -1.7979 -0.742021 0
M  V30 4993 C 471.173 -2.35875 2.72094 0
M  V30 4994 C 471.026 -1.75664 4.1408 0
M  V30 4995 C 472.345 -3.37575 2.82367 0
M  V30 4996 H 469.464 -0.462971 0.573434 0
M  V30 4997 H 472.106 -0.578194 1.80989 0
M  V30 4998 H 470.256 -2.95488 2.52228 0
M  V30 4999 H 471.928 -1.20025 4.45412 0
M  V30 5000 H 470.171 -1.06154 4.20611 0
M  V30 5001 H 470.842 -2.54029 4.90075 0
M  V30 5002 H 473.318 -2.87929 3.00393 0
M  V30 5003 H 472.194 -4.1064 3.64233 0
M  V30 5004 H 472.455 -3.98743 1.90936 0
M  V30 5005 N 471.514 -1.37532 -0.769588 0
M  V30 5006 C 472.477 -1.33292 -1.86456 0
M  V30 5007 C 473.477 -0.236537 -1.59051 0
M  V30 5008 O 474.667 -0.492511 -1.67093 0
M  V30 5009 C 471.799 -1.07118 -3.23633 0
M  V30 5010 H 472.992 -2.30692 -1.91628 0
M  V30 5011 H 470.545 -1.22593 -0.969572 0
M  V30 5012 H 471.28 -0.102578 -3.24138 0
M  V30 5013 H 471.065 -1.86479 -3.44917 0
M  V30 5014 H 472.555 -1.06806 -4.03711 0
M  V30 5015 N 472.992 0.995999 -1.22138 0
M  V30 5016 C 473.922 2.10387 -1.01289 0
M  V30 5017 C 474.903 1.69975 0.0651454 0
M  V30 5018 O 476.088 1.9396 -0.0964628 0
M  V30 5019 C 473.218 3.42312 -0.586517 0
M  V30 5020 C 472.172 3.96558 -1.61014 0
M  V30 5021 C 471.498 5.24494 -1.0397 0
M  V30 5022 C 472.798 4.27595 -2.99933 0
M  V30 5023 H 474.492 2.28086 -1.93951 0
M  V30 5024 H 472.038 1.09607 -0.933928 0
M  V30 5025 H 473.991 4.19223 -0.427793 0
M  V30 5026 H 472.715 3.24431 0.375761 0
M  V30 5027 H 471.374 3.21776 -1.75658 0
M  V30 5028 H 471.022 5.02953 -0.0688703 0
M  V30 5029 H 470.722 5.61755 -1.72352 0
M  V30 5030 H 472.246 6.04042 -0.892494 0
M  V30 5031 H 473.66 4.95315 -2.8868 0
M  V30 5032 H 472.057 4.76021 -3.6541 0
M  V30 5033 H 473.127 3.35498 -3.50099 0
M  V30 5034 N 474.47 1.03057 1.19235 0
M  V30 5035 C 475.747 0.642608 1.84743 0
M  V30 5036 C 476.127 -0.878577 1.91948 0
M  V30 5037 O 475.475 -1.77597 1.43776 0
M  V30 5038 C 475.685 1.30665 3.23616 0
M  V30 5039 C 477.033 1.43098 3.9976 0
M  V30 5040 O 478.057 1.26396 3.3302 0
M  V30 5041 O 476.916 1.70223 5.19313 0
M  V30 5042 H 474.01 0.223573 0.796206 0
M  V30 5043 H 476.556 1.12883 1.26711 0
M  V30 5044 H 475.328 2.34544 3.13217 0
M  V30 5045 H 474.951 0.808405 3.89295 0
M  V30 5046 N 475.948 -1.35272 0.808662 0
M  V30 5047 C 477.188 -2.00534 0.395668 0
M  V30 5048 C 477.552 -1.62755 -1.01857 0
M  V30 5049 O 478.753 -2.20752 -1.53368 0
M  V30 5050 C 477.024 -3.52732 0.575771 0
M  V30 5051 S 478.583 -4.38067 0.253507 0
M  V30 5052 H 475.401 -0.694962 0.150165 0
M  V30 5053 H 478.003 -1.64823 1.05137 0
M  V30 5054 H 476.707 -3.77714 1.60499 0
M  V30 5055 H 476.238 -3.93285 -0.0951739 0
M  V30 5056 H 478.253 -4.87252 -0.938068 0
M  V30 5057 N 477.426 -0.562348 -1.47226 0
M  V30 5058 C 478.336 0.185466 -2.33866 0
M  V30 5059 C 479.352 0.906713 -1.48508 0
M  V30 5060 O 480.528 0.874458 -1.81425 0
M  V30 5061 C 477.593 1.19904 -3.25306 0
M  V30 5062 C 476.654 0.484669 -4.26555 0
M  V30 5063 C 475.887 1.44996 -5.13626 0
M  V30 5064 O 476.11 2.68515 -5.03245 0
M  V30 5065 O 475.044 0.971642 -5.94006 0
M  V30 5066 H 478.87 -0.525361 -2.99121 0
M  V30 5067 H 476.455 -0.322916 -1.45868 0
M  V30 5068 H 478.337 1.78399 -3.81774 0
M  V30 5069 H 477.012 1.8917 -2.62672 0
M  V30 5070 H 475.919 -0.141605 -3.73832 0
M  V30 5071 H 477.252 -0.166634 -4.91918 0
M  V30 5072 N 478.904 1.54736 -0.299062 0
M  V30 5073 C 480.153 1.99279 0.311549 0
M  V30 5074 C 480.466 1.19107 1.55154 0
M  V30 5075 O 481.672 1.53908 2.23662 0
M  V30 5076 C 480.128 3.54768 0.605632 0
M  V30 5077 C 479.736 4.43746 -0.615914 0
M  V30 5078 C 481.48 4.07841 1.17754 0
M  V30 5079 C 479.387 5.90663 -0.29509 0
M  V30 5080 H 478.317 0.744359 0.120187 0
M  V30 5081 H 480.968 1.78919 -0.407464 0
M  V30 5082 H 479.35 3.71021 1.38419 0
M  V30 5083 H 480.524 4.39267 -1.39218 0
M  V30 5084 H 478.839 4.01434 -1.10633 0
M  V30 5085 H 481.436 5.15174 1.43179 0
M  V30 5086 H 481.779 3.58324 2.11918 0
M  V30 5087 H 482.312 3.95123 0.460739 0
M  V30 5088 H 479.051 6.44325 -1.20524 0
M  V30 5089 H 478.571 5.98155 0.44394 0
M  V30 5090 H 480.25 6.46916 0.104048 0
M  V30 5091 N 480.382 0.0267497 1.57577 0
M  V30 5092 C 481.793 -0.512413 1.79531 0
M  V30 5093 C 482.144 -1.72391 0.936791 0
M  V30 5094 O 481.269 -2.15903 0.146543 0
M  V30 5095 C 481.864 -0.936378 3.25603 0
M  V30 5096 C 480.423 -1.42067 3.4856 0
M  V30 5097 C 479.57 -0.384278 2.74624 0
M  V30 5098 H 482.521 0.252797 1.56674 0
M  V30 5099 H 482.542 -1.80088 3.35184 0
M  V30 5100 H 482.054 -0.0544332 3.88062 0
M  V30 5101 H 480.155 -2.32262 2.9135 0
M  V30 5102 H 480.268 -1.42968 4.57271 0
M  V30 5103 H 478.632 -0.851855 2.40032 0
M  V30 5104 H 479.415 0.489159 3.39797 0
M  V30 5105 N 481.861 -1.55662 -0.24637 0
M  V30 5106 C 482.809 -1.91186 -1.3248 0
M  V30 5107 C 483.803 -0.790996 -1.49799 0
M  V30 5108 O 485.009 -0.975617 -1.51267 0
M  V30 5109 H 481.384 -0.607207 -0.443626 0
M  V30 5110 H 483.355 -2.81221 -0.997853 0
M  V30 5111 C 482.104 -2.22349 -2.67313 0
M  V30 5112 H 481.427 -3.08097 -2.54786 0
M  V30 5113 H 482.867 -2.51107 -3.41645 0
M  V30 5114 C 481.326 -1.04001 -3.20446 0
M  V30 5115 O 481.856 -0.28828 -4.00664 0
M  V30 5116 N 480.062 -0.830494 -2.7848 0
M  V30 5117 H 479.609 -1.4435 -2.13356 0
M  V30 5118 H 479.567 -0.0403258 -3.14374 0
M  V30 5119 N 483.339 0.512053 -1.4905 0
M  V30 5120 C 484.249 1.64139 -1.67617 0
M  V30 5121 C 485.265 1.64786 -0.558701 0
M  V30 5122 O 486.441 1.8341 -0.832034 0
M  V30 5123 C 483.506 3.00548 -1.72835 0
M  V30 5124 C 482.567 3.10615 -2.96339 0
M  V30 5125 C 481.8 4.40517 -3.01298 0
M  V30 5126 O 482.023 5.28671 -2.14157 0
M  V30 5127 O 480.957 4.55325 -3.93653 0
M  V30 5128 H 484.783 1.51407 -2.63267 0
M  V30 5129 H 482.368 0.687131 -1.32661 0
M  V30 5130 H 484.25 3.81641 -1.78683 0
M  V30 5131 H 482.925 3.13566 -0.803616 0
M  V30 5132 H 481.832 2.2875 -2.96014 0
M  V30 5133 H 483.165 3.0252 -3.88256 0
M  V30 5134 N 484.817 1.37938 0.762283 0
M  V30 5135 C 485.747 1.37176 1.88958 0
M  V30 5136 C 486.728 0.238945 1.68413 0
M  V30 5137 O 487.913 0.440726 1.89133 0
M  V30 5138 C 485.043 1.18742 3.2637 0
M  V30 5139 C 483.997 2.29136 3.61498 0
M  V30 5140 C 483.323 1.95816 4.97554 0
M  V30 5141 C 484.623 3.71363 3.6727 0
M  V30 5142 H 486.317 2.31509 1.89853 0
M  V30 5143 H 483.863 1.11438 0.912005 0
M  V30 5144 H 485.816 1.16837 4.04879 0
M  V30 5145 H 484.54 0.208683 3.25933 0
M  V30 5146 H 483.199 2.30213 2.85303 0
M  V30 5147 H 482.847 0.964475 4.93667 0
M  V30 5148 H 482.547 2.69745 5.22026 0
M  V30 5149 H 484.071 1.95513 5.78452 0
M  V30 5150 H 485.485 3.72364 4.35911 0
M  V30 5151 H 483.882 4.44425 4.03245 0
M  V30 5152 H 484.952 4.04305 2.67704 0
M  V30 5153 N 486.295 -0.989507 1.22664 0
M  V30 5154 C 487.706 -1.54406 1.04955 0
M  V30 5155 C 488.057 -1.92366 -0.385951 0
M  V30 5156 O 487.182 -1.75111 -1.27142 0
M  V30 5157 C 487.777 -2.80578 1.89899 0
M  V30 5158 C 486.336 -3.32464 1.76478 0
M  V30 5159 C 485.483 -2.05524 1.86159 0
M  V30 5160 H 488.434 -0.810211 1.3646 0
M  V30 5161 H 488.455 -3.53075 1.4184 0
M  V30 5162 H 487.967 -2.52918 2.94371 0
M  V30 5163 H 486.068 -3.65024 0.747528 0
M  V30 5164 H 486.181 -4.02838 2.59342 0
M  V30 5165 H 484.545 -2.19241 1.29636 0
M  V30 5166 H 485.328 -1.80258 2.92168 0
M  V30 5167 N 487.773 -1.03688 -1.18687 0
M  V30 5168 C 489.003 -0.756819 -1.92239 0
M  V30 5169 C 489.411 0.689374 -1.76194 0
M  V30 5170 O 488.754 1.48126 -1.08648 0
M  V30 5171 C 488.816 -1.03851 -3.44173 0
M  V30 5172 C 488.48 -2.47785 -3.83994 0
M  V30 5173 C 489.477 -3.4595 -3.88091 0
M  V30 5174 C 487.162 -2.82397 -4.154 0
M  V30 5175 C 489.156 -4.76779 -4.23038 0
M  V30 5176 C 486.843 -4.13433 -4.50018 0
M  V30 5177 C 487.841 -5.10434 -4.53813 0
M  V30 5178 O 487.529 -6.39122 -4.87625 0
M  V30 5179 H 487.261 -0.275678 -0.617234 0
M  V30 5180 H 489.815 -1.38658 -1.51536 0
M  V30 5181 H 488.045 -0.351612 -3.85098 0
M  V30 5182 H 489.734 -0.746846 -3.9897 0
M  V30 5183 H 490.5 -3.20549 -3.63969 0
M  V30 5184 H 486.379 -2.07568 -4.11627 0
M  V30 5185 H 489.923 -5.52488 -4.25914 0
M  V30 5186 H 485.82 -4.38604 -4.736 0
M  V30 5187 H 486.588 -6.43715 -5.05542 0
M  V30 5188 N 489.251 1.34841 -0.815825 0
M  V30 5189 C 490.199 2.31549 -0.220888 0
M  V30 5190 C 491.193 1.5707 0.634457 0
M  V30 5191 O 492.399 1.72125 0.526589 0
M  V30 5192 H 488.774 0.750153 -0.0526782 0
M  V30 5193 H 490.745 2.7926 -1.05149 0
M  V30 5194 C 489.494 3.42335 0.608427 0
M  V30 5195 H 488.817 3.9978 -0.0404121 0
M  V30 5196 H 490.257 4.12258 0.990931 0
M  V30 5197 C 488.716 2.86173 1.77782 0
M  V30 5198 O 489.246 2.80474 2.87571 0
M  V30 5199 N 487.452 2.43093 1.59229 0
M  V30 5200 H 486.999 2.47928 0.699237 0
M  V30 5201 H 486.957 2.05866 2.37627 0
M  V30 5202 N 490.729 0.570148 1.46925 0
M  V30 5203 C 492.006 -0.0153259 1.95594 0
M  V30 5204 C 492.386 -1.47232 1.51281 0
M  V30 5205 O 491.734 -2.15574 0.757624 0
M  V30 5206 C 491.944 0.143624 3.48704 0
M  V30 5207 C 493.292 0.00494484 4.246 0
M  V30 5208 O 494.316 0.0718214 3.56128 0
M  V30 5209 O 493.175 -0.141175 5.46318 0
M  V30 5210 H 490.269 -0.0568819 0.825041 0
M  V30 5211 H 492.815 0.637583 1.57267 0
M  V30 5212 H 491.587 1.15699 3.73804 0
M  V30 5213 H 491.21 -0.5463 3.93829 0
M  V30 5214 N 492.207 -1.54576 0.307264 0
M  V30 5215 C 493.437 -2.04378 -0.302158 0
M  V30 5216 C 493.845 -1.18381 -1.47589 0
M  V30 5217 O 493.188 -0.20352 -1.82569 0
M  V30 5218 C 493.25 -3.50133 -0.815305 0
M  V30 5219 C 492.914 -4.56401 0.233977 0
M  V30 5220 C 493.911 -5.08884 1.06456 0
M  V30 5221 C 491.596 -5.0088 0.377478 0
M  V30 5222 C 493.59 -6.04394 2.02452 0
M  V30 5223 C 491.277 -5.96208 1.34088 0
M  V30 5224 C 492.275 -6.47849 2.16288 0
M  V30 5225 O 491.963 -7.41308 3.10994 0
M  V30 5226 H 491.695 -0.672502 -0.0686839 0
M  V30 5227 H 494.249 -2.00484 0.446682 0
M  V30 5228 H 492.479 -3.51371 -1.61478 0
M  V30 5229 H 494.168 -3.83098 -1.34129 0
M  V30 5230 H 494.934 -4.75311 0.964596 0
M  V30 5231 H 490.813 -4.60309 -0.252405 0
M  V30 5232 H 494.357 -6.44626 2.66652 0
M  V30 5233 H 490.254 -6.29198 1.44154 0
M  V30 5234 H 491.022 -7.5913 3.06045 0
M  V30 5235 N 493.685 -0.035106 -1.57561 0
M  V30 5236 C 494.932 0.642229 -1.92046 0
M  V30 5237 C 495.26 1.7179 -0.91206 0
M  V30 5238 O 494.515 1.95544 0.0781153 0
M  V30 5239 C 494.814 1.29149 -3.3325 0
M  V30 5240 C 494.48 0.345604 -4.49574 0
M  V30 5241 C 493.142 0.0852775 -4.81124 0
M  V30 5242 C 495.494 -0.303569 -5.20315 0
M  V30 5243 C 492.822 -0.831927 -5.80772 0
M  V30 5244 C 495.174 -1.20886 -6.20942 0
M  V30 5245 C 493.838 -1.47802 -6.50931 0
M  V30 5246 H 493.108 0.235008 -0.702746 0
M  V30 5247 H 495.755 -0.0981529 -1.91248 0
M  V30 5248 H 494.06 2.10676 -3.30337 0
M  V30 5249 H 495.757 1.82223 -3.57205 0
M  V30 5250 H 492.347 0.558683 -4.24943 0
M  V30 5251 H 496.531 -0.115515 -4.96166 0
M  V30 5252 H 491.787 -1.0481 -6.02349 0
M  V30 5253 H 495.961 -1.71804 -6.74875 0
M  V30 5254 H 493.588 -2.19039 -7.2796 0
M  V30 5255 N 495.163 1.55791 0.238111 0
M  V30 5256 C 496.073 1.94196 1.31625 0
M  V30 5257 C 497.089 0.843545 1.52185 0
M  V30 5258 O 498.265 1.1457 1.65637 0
M  V30 5259 C 495.33 2.2365 2.64918 0
M  V30 5260 C 494.391 3.46971 2.52804 0
M  V30 5261 C 493.624 3.7501 3.79741 0
M  V30 5262 O 493.847 3.04982 4.82019 0
M  V30 5263 O 492.781 4.68525 3.77846 0
M  V30 5264 H 496.607 2.86044 1.02043 0
M  V30 5265 H 494.192 1.42786 0.439603 0
M  V30 5266 H 496.074 2.43863 3.4367 0
M  V30 5267 H 494.749 1.34979 2.94215 0
M  V30 5268 H 493.656 3.32055 1.72309 0
M  V30 5269 H 494.989 4.35971 2.28451 0
M  V30 5270 N 496.642 -0.504142 1.49319 0
M  V30 5271 C 497.872 -1.28071 1.62116 0
M  V30 5272 C 498.28 -1.86955 0.290566 0
M  V30 5273 O 497.623 -1.68415 -0.733616 0
M  V30 5274 C 497.685 -2.4521 2.62893 0
M  V30 5275 C 497.349 -2.07218 4.0732 0
M  V30 5276 C 498.346 -1.61375 4.94221 0
M  V30 5277 C 496.031 -2.16949 4.53033 0
M  V30 5278 C 498.025 -1.25763 6.2487 0
M  V30 5279 C 495.712 -1.80949 5.83696 0
M  V30 5280 C 496.71 -1.3543 6.69438 0
M  V30 5281 O 496.398 -0.99915 7.97667 0
M  V30 5282 H 496.13 -0.394763 0.54876 0
M  V30 5283 H 498.684 -0.612118 1.96067 0
M  V30 5284 H 496.914 -3.15134 2.24115 0
M  V30 5285 H 498.603 -3.0724 2.65252 0
M  V30 5286 H 499.369 -1.53306 4.60133 0
M  V30 5287 H 495.248 -2.5133 3.86463 0
M  V30 5288 H 498.792 -0.901631 6.91749 0
M  V30 5289 H 494.689 -1.88667 6.17313 0
M  V30 5290 H 495.457 -1.13089 8.1065 0
M  V30 5291 N 498.12 -1.38341 -0.754957 0
M  V30 5292 C 499.367 -1.34473 -1.51404 0
M  V30 5293 C 499.695 0.0656458 -1.94389 0
M  V30 5294 O 498.95 1.04244 -1.65625 0
M  V30 5295 C 499.249 -2.2452 -2.78075 0
M  V30 5296 C 498.915 -3.72512 -2.54059 0
M  V30 5297 C 497.577 -4.1284 -2.47218 0
M  V30 5298 C 499.929 -4.66197 -2.33044 0
M  V30 5299 C 497.257 -5.44945 -2.17376 0
M  V30 5300 C 499.609 -5.98558 -2.04723 0
M  V30 5301 C 498.273 -6.37972 -1.96337 0
M  V30 5302 H 497.543 -0.492072 -0.554027 0
M  V30 5303 H 500.19 -1.70687 -0.868223 0
M  V30 5304 H 498.495 -1.81357 -3.473 0
M  V30 5305 H 500.192 -2.18832 -3.36026 0
M  V30 5306 H 496.782 -3.40538 -2.60253 0
M  V30 5307 H 500.966 -4.35888 -2.37309 0
M  V30 5308 H 496.222 -5.74426 -2.09391 0
M  V30 5309 H 500.396 -6.70693 -1.87465 0
M  V30 5310 H 498.023 -7.40258 -1.72978 0
M  V30 5311 N 499.598 0.982988 -1.23187 0
M  V30 5312 C 500.846 1.72052 -1.06031 0
M  V30 5313 C 501.167 1.90769 0.404019 0
M  V30 5314 O 500.437 1.47446 1.28982 0
M  V30 5315 H 499.017 0.637499 -0.389363 0
M  V30 5316 H 501.679 1.18338 -1.54862 0
M  V30 5317 H 500.775 2.7111 -1.54615 0
M  V30 5318 N 501.076 1.04316 1.18135 0
M  V30 5319 C 502.487 0.775505 1.69832 0
M  V30 5320 C 502.838 -0.703348 1.8316 0
M  V30 5321 O 501.963 -1.54729 1.51287 0
M  V30 5322 C 502.558 1.40112 3.0847 0
M  V30 5323 C 501.117 1.18172 3.57368 0
M  V30 5324 C 500.264 1.49022 2.33854 0
M  V30 5325 H 503.215 1.20925 1.02775 0
M  V30 5326 H 503.236 0.805672 3.71873 0
M  V30 5327 H 502.748 2.47744 2.98738 0
M  V30 5328 H 500.849 0.124258 3.72393 0
M  V30 5329 H 500.962 1.8805 4.40652 0
M  V30 5330 H 499.326 0.909995 2.37889 0
M  V30 5331 H 500.109 2.57768 2.26738 0
M  V30 5332 N 502.554 -1.34406 0.822964 0
M  V30 5333 C 503.831 -1.92733 0.333641 0
M  V30 5334 C 504.211 -1.75107 -1.17901 0
M  V30 5335 O 503.559 -1.12983 -1.98613 0
M  V30 5336 C 503.769 -3.40557 0.763023 0
M  V30 5337 C 505.117 -4.17709 0.761879 0
M  V30 5338 O 506.141 -3.49141 0.705606 0
M  V30 5339 O 505 -5.40082 0.835109 0
M  V30 5340 H 502.094 -0.821964 0.0911249 0
M  V30 5341 H 504.64 -1.4338 0.907757 0
M  V30 5342 H 503.412 -3.47187 1.8049 0
M  V30 5343 H 503.035 -3.97259 0.164605 0
M  V30 5344 N 504.032 -0.577932 -1.46621 0
M  V30 5345 C 505.279 -0.0616879 -2.02406 0
M  V30 5346 C 505.607 1.29638 -1.44997 0
M  V30 5347 O 504.862 1.86176 -0.60308 0
M  V30 5348 C 505.161 0.0590832 -3.57351 0
M  V30 5349 C 504.827 -1.23077 -4.33777 0
M  V30 5350 C 503.489 -1.58416 -4.54376 0
M  V30 5351 C 505.841 -2.08457 -4.77698 0
M  V30 5352 C 503.169 -2.78943 -5.16147 0
M  V30 5353 C 505.521 -3.28204 -5.408 0
M  V30 5354 C 504.185 -3.63832 -5.59627 0
M  V30 5355 H 503.455 -0.0225732 -0.740656 0
M  V30 5356 H 506.102 -0.753609 -1.76048 0
M  V30 5357 H 504.407 0.834104 -3.82818 0
M  V30 5358 H 506.104 0.474202 -3.98186 0
M  V30 5359 H 502.694 -0.945652 -4.18038 0
M  V30 5360 H 506.878 -1.82459 -4.61544 0
M  V30 5361 H 502.134 -3.06689 -5.28916 0
M  V30 5362 H 506.308 -3.94634 -5.73792 0
M  V30 5363 H 503.935 -4.57315 -6.07262 0
M  V30 5364 N 505.51 1.54411 -0.315457 0
M  V30 5365 C 506.457 2.24048 0.554166 0
M  V30 5366 C 507.427 1.2283 1.11812 0
M  V30 5367 O 508.612 1.51491 1.15997 0
M  V30 5368 C 505.752 2.99574 1.71316 0
M  V30 5369 C 504.865 4.15594 1.17922 0
M  V30 5370 C 504 4.78669 2.30324 0
M  V30 5371 C 503.039 5.86807 1.74137 0
M  V30 5372 N 502.176 6.43777 2.8017 0
M  V30 5373 H 507.016 2.97964 -0.0462602 0
M  V30 5374 H 504.553 1.47059 -0.0346009 0
M  V30 5375 H 506.511 3.41604 2.39505 0
M  V30 5376 H 505.141 2.28008 2.285 0
M  V30 5377 H 504.193 3.78404 0.389136 0
M  V30 5378 H 505.505 4.93459 0.728012 0
M  V30 5379 H 504.659 5.23626 3.06433 0
M  V30 5380 H 503.398 4.00168 2.78778 0
M  V30 5381 H 502.403 5.41261 0.965236 0
M  V30 5382 H 503.628 6.67201 1.2657 0
M  V30 5383 H 501.574 5.68153 3.2793 0
M  V30 5384 H 501.491 7.17031 2.39588 0
M  V30 5385 H 502.759 6.9339 3.56132 0
M  V30 5386 N 506.988 0.0434614 1.5754 0
M  V30 5387 C 507.918 -0.931651 2.14109 0
M  V30 5388 C 508.899 -1.32971 1.06079 0
M  V30 5389 O 510.084 -1.40579 1.33982 0
M  V30 5390 C 507.214 -2.20914 2.67982 0
M  V30 5391 C 506.168 -1.95139 3.80926 0
M  V30 5392 C 505.494 -3.29276 4.21285 0
M  V30 5393 C 506.794 -1.27913 5.06395 0
M  V30 5394 H 508.488 -0.460497 2.95837 0
M  V30 5395 H 506.034 -0.220058 1.42309 0
M  V30 5396 H 507.987 -2.89522 3.06194 0
M  V30 5397 H 506.711 -2.70221 1.83434 0
M  V30 5398 H 505.37 -1.28945 3.43175 0
M  V30 5399 H 505.018 -3.76369 3.33699 0
M  V30 5400 H 504.718 -3.12831 4.97404 0
M  V30 5401 H 506.242 -3.99129 4.62091 0
M  V30 5402 H 507.656 -1.86544 5.42102 0
M  V30 5403 H 506.053 -1.2182 5.87605 0
M  V30 5404 H 507.123 -0.254066 4.84234 0
M  V30 5405 N 508.466 -1.55915 -0.229846 0
M  V30 5406 C 509.416 -1.8813 -1.28807 0
M  V30 5407 C 510.4 -0.743621 -1.42685 0
M  V30 5408 O 511.592 -1.00588 -1.4564 0
M  V30 5409 C 508.721 -2.19431 -2.64017 0
M  V30 5410 C 507.807 -3.39569 -2.54074 0
M  V30 5411 N 508.198 -4.58404 -2.13774 0
M  V30 5412 C 506.496 -3.43019 -2.85051 0
M  V30 5413 C 507.197 -5.40557 -2.1488 0
M  V30 5414 N 506.173 -4.80054 -2.55047 0
M  V30 5415 H 509.975 -2.77527 -0.967261 0
M  V30 5416 H 507.489 -1.5637 -0.438433 0
M  V30 5417 H 509.486 -2.40681 -3.40409 0
M  V30 5418 H 508.146 -1.31341 -2.9695 0
M  V30 5419 H 509.157 -4.83716 -1.8504 0
M  V30 5420 H 505.834 -2.65249 -3.22411 0
M  V30 5421 H 507.224 -6.45666 -1.85918 0
M  V30 5422 N 509.944 0.496216 -1.49584 0
M  V30 5423 C 511.193 1.24668 -1.58558 0
M  V30 5424 C 511.506 1.9359 -0.279703 0
M  V30 5425 O 512.712 2.70365 -0.248048 0
M  V30 5426 C 511.168 2.26388 -2.79779 0
M  V30 5427 C 510.776 1.63384 -4.17145 0
M  V30 5428 C 512.52 3.02233 -2.98086 0
M  V30 5429 C 510.427 2.63243 -5.29582 0
M  V30 5430 H 509.357 0.468995 -0.590389 0
M  V30 5431 H 512.008 0.519985 -1.75978 0
M  V30 5432 H 510.39 3.02241 -2.55863 0
M  V30 5433 H 511.564 0.93491 -4.51216 0
M  V30 5434 H 509.879 0.999121 -4.04236 0
M  V30 5435 H 512.476 3.76919 -3.79257 0
M  V30 5436 H 512.819 3.60132 -2.08831 0
M  V30 5437 H 513.352 2.33495 -3.22063 0
M  V30 5438 H 510.091 2.10119 -6.20911 0
M  V30 5439 H 509.611 3.31363 -4.99959 0
M  V30 5440 H 511.29 3.25575 -5.59115 0
M  V30 5441 N 511.423 1.38739 0.74761 0
M  V30 5442 C 512.648 1.38702 1.54197 0
M  V30 5443 C 513.073 -0.019664 1.8809 0
M  V30 5444 O 512.431 -1.00333 1.51006 0
M  V30 5445 C 512.479 2.25492 2.814 0
M  V30 5446 O 511.583 1.67613 3.76802 0
M  V30 5447 H 510.924 0.472863 0.466151 0
M  V30 5448 H 513.454 1.82577 0.923413 0
M  V30 5449 H 513.464 2.39561 3.30264 0
M  V30 5450 H 512.139 3.27727 2.56062 0
M  V30 5451 H 510.716 1.62718 3.35526 0
M  V30 5452 N 512.901 -0.976442 1.23707 0
M  V30 5453 C 514.312 -1.53284 1.06587 0
M  V30 5454 C 514.663 -1.92765 -0.365526 0
M  V30 5455 O 513.788 -1.7645 -1.25277 0
M  V30 5456 C 514.383 -2.78548 1.92864 0
M  V30 5457 C 512.942 -3.30574 1.79994 0
M  V30 5458 C 512.089 -2.03538 1.88328 0
M  V30 5459 H 515.04 -0.795692 1.37311 0
M  V30 5460 H 515.061 -3.5155 1.45577 0
M  V30 5461 H 514.573 -2.49782 2.97037 0
M  V30 5462 H 512.674 -3.64211 0.786202 0
M  V30 5463 H 512.787 -4.00065 2.636 0
M  V30 5464 H 511.151 -2.17853 1.31954 0
M  V30 5465 H 511.934 -1.77149 2.94063 0
M  V30 5466 N 514.379 -1.04941 -1.1758 0
M  V30 5467 C 515.604 -0.778253 -1.92245 0
M  V30 5468 C 516.029 0.659707 -1.76152 0
M  V30 5469 O 515.387 1.45803 -1.07755 0
M  V30 5470 C 515.435 -1.16051 -3.41416 0
M  V30 5471 O 514.539 -0.291153 -4.11371 0
M  V30 5472 H 513.88 -0.285619 -0.599431 0
M  V30 5473 H 516.41 -1.40159 -1.49052 0
M  V30 5474 H 516.42 -1.12619 -3.92149 0
M  V30 5475 H 515.095 -2.208 -3.52449 0
M  V30 5476 H 513.672 -0.385851 -3.70898 0
M  V30 5477 N 515.857 1.33968 -0.830081 0
M  V30 5478 C 516.805 2.31301 -0.245435 0
M  V30 5479 C 517.799 1.57734 0.617762 0
M  V30 5480 O 519.005 1.72674 0.508303 0
M  V30 5481 H 515.38 0.749552 -0.0606316 0
M  V30 5482 H 517.351 2.78129 -1.08105 0
M  V30 5483 C 516.1 3.42961 0.572084 0
M  V30 5484 H 515.423 3.99714 -0.0828118 0
M  V30 5485 H 516.863 4.13286 0.94715 0
M  V30 5486 C 515.322 2.88043 1.74737 0
M  V30 5487 O 515.852 2.83508 2.8458 0
M  V30 5488 N 514.058 2.44768 1.56642 0
M  V30 5489 H 513.605 2.48656 0.672901 0
M  V30 5490 H 513.563 2.08375 2.3543 0
M  V30 5491 N 517.335 0.585699 1.46312 0
M  V30 5492 C 518.268 -0.194257 2.27372 0
M  V30 5493 C 519.246 -0.894116 1.3581 0
M  V30 5494 O 520.43 -0.907402 1.65222 0
M  V30 5495 C 517.557 -1.27901 3.13622 0
M  V30 5496 C 516.603 -0.684666 4.20969 0
M  V30 5497 S 517.436 0.490745 5.33247 0
M  V30 5498 C 518.592 -0.595137 6.23064 0
M  V30 5499 H 518.825 0.493515 2.93175 0
M  V30 5500 H 516.358 0.372666 1.49835 0
M  V30 5501 H 518.316 -1.90008 3.63878 0
M  V30 5502 H 516.977 -1.93875 2.47126 0
M  V30 5503 H 516.17 -1.50015 4.81156 0
M  V30 5504 H 515.772 -0.139204 3.73741 0
M  V30 5505 H 518.064 -1.48002 6.61137 0
M  V30 5506 H 519.007 -0.0299446 7.08094 0
M  V30 5507 H 519.415 -0.900627 5.57269 0
M  V30 5508 N 518.813 -1.54241 0.323641 0
M  V30 5509 C 520.041 -2.04985 -0.280871 0
M  V30 5510 C 520.456 -1.19978 -1.45777 0
M  V30 5511 O 519.813 -0.230471 -1.81039 0
M  V30 5512 C 519.864 -3.54353 -0.715258 0
M  V30 5513 O 519.585 -4.36132 0.414817 0
M  V30 5514 C 521.086 -4.21189 -1.38257 0
M  V30 5515 H 518.306 -0.66851 -0.0577502 0
M  V30 5516 H 520.85 -1.99029 0.469852 0
M  V30 5517 H 519.005 -3.60596 -1.41596 0
M  V30 5518 H 519.419 -5.2445 0.0725227 0
M  V30 5519 H 520.893 -5.27154 -1.63745 0
M  V30 5520 H 521.37 -3.72307 -2.32989 0
M  V30 5521 H 521.976 -4.19085 -0.724447 0
M  V30 5522 N 520.291 -0.0518155 -1.57515 0
M  V30 5523 C 521.239 0.940195 -2.12751 0
M  V30 5524 C 522.233 1.3218 -1.05948 0
M  V30 5525 O 523.439 1.30138 -1.24355 0
M  V30 5526 H 519.814 0.321066 -0.680015 0
M  V30 5527 H 521.785 0.449217 -2.94999 0
M  V30 5528 C 520.534 2.2055 -2.68799 0
M  V30 5529 H 519.857 1.92066 -3.50643 0
M  V30 5530 H 521.297 2.88119 -3.11068 0
M  V30 5531 C 519.756 2.95061 -1.62605 0
M  V30 5532 O 520.286 3.88025 -1.03921 0
M  V30 5533 N 518.492 2.57804 -1.34111 0
M  V30 5534 H 518.039 1.82281 -1.8202 0
M  V30 5535 H 517.997 3.07964 -0.632872 0
M  V30 5536 N 521.769 1.56035 0.221574 0
M  V30 5537 C 522.701 1.889 1.29805 0
M  V30 5538 C 523.714 0.777269 1.43047 0
M  V30 5539 O 524.903 1.05557 1.43945 0
M  V30 5540 C 522.003 2.0825 2.67367 0
M  V30 5541 C 521.176 3.39267 2.76073 0
M  V30 5542 C 520.235 3.48049 3.94649 0
M  V30 5543 O 519.261 4.2108 3.82988 0
M  V30 5544 N 520.463 2.79191 5.08953 0
M  V30 5545 H 523.228 2.81831 1.01938 0
M  V30 5546 H 520.789 1.5658 0.411612 0
M  V30 5547 H 522.781 2.11441 3.45072 0
M  V30 5548 H 521.351 1.21944 2.87834 0
M  V30 5549 H 520.571 3.48175 1.84846 0
M  V30 5550 H 521.859 4.25575 2.7886 0
M  V30 5551 H 521.257 2.19635 5.21322 0
M  V30 5552 H 519.814 2.88043 5.84701 0
M  V30 5553 N 523.247 -0.488276 1.49845 0
M  V30 5554 C 524.195 -1.60917 1.67954 0
M  V30 5555 C 525.189 -1.6038 0.54539 0
M  V30 5556 O 526.395 -1.64736 0.7254 0
M  V30 5557 H 522.77 -0.533658 0.529824 0
M  V30 5558 H 524.741 -1.428 2.62013 0
M  V30 5559 C 523.49 -2.98975 1.77509 0
M  V30 5560 H 522.813 -3.00099 2.6416 0
M  V30 5561 H 524.253 -3.76906 1.9421 0
M  V30 5562 C 522.712 -3.3282 0.522745 0
M  V30 5563 O 523.242 -4.00208 -0.345866 0
M  V30 5564 N 521.448 -2.8808 0.381882 0
M  V30 5565 H 520.995 -2.33415 1.08974 0
M  V30 5566 H 520.953 -3.11091 -0.454929 0
M  V30 5567 N 524.725 -1.39134 -0.740242 0
M  V30 5568 C 525.953 -1.39334 -1.5295 0
M  V30 5569 C 526.368 0.0135008 -1.88795 0
M  V30 5570 O 525.725 0.983524 -1.5373 0
M  V30 5571 C 525.776 -2.2614 -2.82034 0
M  V30 5572 O 525.497 -3.61345 -2.47712 0
M  V30 5573 C 526.998 -2.34666 -3.76094 0
M  V30 5574 H 524.218 -0.476103 -0.472828 0
M  V30 5575 H 526.762 -1.82883 -0.9151 0
M  V30 5576 H 524.917 -1.86018 -3.39818 0
M  V30 5577 H 525.331 -4.07194 -3.30595 0
M  V30 5578 H 526.805 -2.99663 -4.63579 0
M  V30 5579 H 527.282 -1.36426 -4.17474 0
M  V30 5580 H 527.888 -2.75236 -3.2423 0
M  V30 5581 N 526.204 0.969867 -1.24223 0
M  V30 5582 C 527.615 1.52717 -1.07399 0
M  V30 5583 C 527.966 1.92956 0.355298 0
M  V30 5584 O 527.091 1.77112 1.2434 0
M  V30 5585 C 527.686 2.77521 -1.94339 0
M  V30 5586 C 526.245 3.29615 -1.81744 0
M  V30 5587 C 525.392 2.02537 -1.89405 0
M  V30 5588 H 528.343 0.788399 -1.37732 0
M  V30 5589 H 528.364 3.50773 -1.47439 0
M  V30 5590 H 527.876 2.48203 -2.98357 0
M  V30 5591 H 525.977 3.63789 -0.805505 0
M  V30 5592 H 526.09 3.98661 -2.65718 0
M  V30 5593 H 524.454 2.17151 -1.33108 0
M  V30 5594 H 525.237 1.75587 -2.94999 0
M  V30 5595 N 527.682 1.05563 1.17022 0
M  V30 5596 C 528.592 0.670758 2.24807 0
M  V30 5597 C 529.608 -0.309865 1.71219 0
M  V30 5598 O 530.784 -0.161025 2.00755 0
M  V30 5599 C 527.849 0.055337 3.46656 0
M  V30 5600 C 526.91 1.08688 4.15314 0
M  V30 5601 C 526.143 0.500736 5.31346 0
M  V30 5602 O 526.366 -0.688718 5.66227 0
M  V30 5603 O 525.3 1.23683 5.89055 0
M  V30 5604 H 529.126 1.56914 2.60023 0
M  V30 5605 H 526.711 0.827428 1.24395 0
M  V30 5606 H 528.593 -0.286492 4.20425 0
M  V30 5607 H 527.268 -0.816638 3.13229 0
M  V30 5608 H 526.175 1.48077 3.43546 0
M  V30 5609 H 527.508 1.93014 4.52777 0
M  V30 5610 N 529.16 -1.33526 0.837174 0
M  V30 5611 C 530.39 -2.01754 0.444848 0
M  V30 5612 C 530.798 -1.63149 -0.958072 0
M  V30 5613 O 530.141 -0.839827 -1.63379 0
M  V30 5614 C 530.203 -3.56228 0.483917 0
M  V30 5615 C 529.867 -4.18205 1.84265 0
M  V30 5616 C 530.864 -4.37699 2.80563 0
M  V30 5617 C 528.549 -4.54667 2.13503 0
M  V30 5618 C 530.543 -4.928 4.04261 0
M  V30 5619 C 528.23 -5.09475 3.37458 0
M  V30 5620 C 529.228 -5.28488 4.32654 0
M  V30 5621 O 528.916 -5.82132 5.54417 0
M  V30 5622 H 528.648 -0.652928 0.175104 0
M  V30 5623 H 531.202 -1.71469 1.13082 0
M  V30 5624 H 529.432 -3.85833 -0.258826 0
M  V30 5625 H 531.121 -4.05752 0.109653 0
M  V30 5626 H 531.887 -4.0988 2.59274 0
M  V30 5627 H 527.766 -4.39164 1.40201 0
M  V30 5628 H 531.31 -5.07555 4.78574 0
M  V30 5629 H 527.207 -5.36725 3.58604 0
M  V30 5630 H 527.975 -6.00548 5.56133 0
M  V30 5631 N 530.638 -0.59345 -1.46 0
M  V30 5632 C 531.571 0.182196 -2.27472 0
M  V30 5633 C 532.549 0.886901 -1.36282 0
M  V30 5634 O 533.733 0.898627 -1.65701 0
M  V30 5635 C 530.86 1.26236 -3.14296 0
M  V30 5636 C 529.906 0.662331 -4.21326 0
M  V30 5637 S 530.739 -0.519017 -5.32979 0
M  V30 5638 C 531.895 0.562086 -6.23371 0
M  V30 5639 H 532.128 -0.509056 -2.92909 0
M  V30 5640 H 529.661 -0.380607 -1.49635 0
M  V30 5641 H 531.619 1.88075 -3.64881 0
M  V30 5642 H 530.28 1.92562 -2.48151 0
M  V30 5643 H 529.473 1.47461 -4.81945 0
M  V30 5644 H 529.075 0.119381 -3.73809 0
M  V30 5645 H 531.367 1.44494 -6.61912 0
M  V30 5646 H 532.31 -0.00760776 -7.081 0
M  V30 5647 H 532.718 0.871061 -5.57739 0
M  V30 5648 N 532.116 1.54067 -0.331816 0
M  V30 5649 C 533.026 2.28322 0.539104 0
M  V30 5650 C 534.042 1.32985 1.1221 0
M  V30 5651 O 535.218 1.6601 1.1403 0
M  V30 5652 C 532.283 3.03277 1.68 0
M  V30 5653 C 531.344 4.14216 1.12798 0
M  V30 5654 C 530.577 4.85588 2.2145 0
M  V30 5655 O 530.8 4.56536 3.41952 0
M  V30 5656 O 529.734 5.72309 1.86404 0
M  V30 5657 H 533.56 3.03632 -0.0641692 0
M  V30 5658 H 531.145 1.49083 -0.0972365 0
M  V30 5659 H 533.027 3.50189 2.34405 0
M  V30 5660 H 531.702 2.30834 2.2693 0
M  V30 5661 H 530.609 3.71635 0.428782 0
M  V30 5662 H 531.942 4.88727 0.583698 0
M  V30 5663 N 533.594 0.0601682 1.57485 0
M  V30 5664 C 534.541 -0.91112 2.12055 0
M  V30 5665 C 535.511 -1.30298 1.03013 0
M  V30 5666 O 536.696 -1.39087 1.30612 0
M  V30 5667 C 533.836 -2.1775 2.67729 0
M  V30 5668 C 532.949 -1.83933 3.90887 0
M  V30 5669 C 532.084 -3.05096 4.34845 0
M  V30 5670 C 531.123 -2.67241 5.5068 0
M  V30 5671 N 530.26 -3.81127 5.8965 0
M  V30 5672 H 535.1 -0.43888 2.9475 0
M  V30 5673 H 532.637 -0.204995 1.45665 0
M  V30 5674 H 534.595 -2.91866 2.98111 0
M  V30 5675 H 533.225 -2.62535 1.87816 0
M  V30 5676 H 532.277 -0.999287 3.6704 0
M  V30 5677 H 533.589 -1.52074 4.75052 0
M  V30 5678 H 532.743 -3.87502 4.66827 0
M  V30 5679 H 531.482 -3.40139 3.49509 0
M  V30 5680 H 530.487 -1.83254 5.18361 0
M  V30 5681 H 531.712 -2.3338 6.37738 0
M  V30 5682 H 529.658 -4.15954 5.07266 0
M  V30 5683 H 529.575 -3.52997 6.68528 0
M  V30 5684 H 530.843 -4.64145 6.2625 0
M  V30 5685 N 535.072 -1.5615 -0.213296 0
M  V30 5686 C 536.321 -1.78743 -0.93455 0
M  V30 5687 C 536.634 -0.630199 -1.8517 0
M  V30 5688 O 537.84 -0.739966 -2.61222 0
M  V30 5689 C 536.296 -3.16571 -1.71203 0
M  V30 5690 C 535.904 -4.40043 -0.840617 0
M  V30 5691 C 537.648 -3.48485 -2.42401 0
M  V30 5692 C 535.555 -5.68895 -1.61592 0
M  V30 5693 H 534.485 -0.666426 -0.352692 0
M  V30 5694 H 537.136 -1.82532 -0.188227 0
M  V30 5695 H 535.518 -3.06981 -2.50157 0
M  V30 5696 H 536.692 -4.6071 -0.0910326 0
M  V30 5697 H 535.007 -4.15706 -0.240365 0
M  V30 5698 H 537.604 -4.41983 -3.00924 0
M  V30 5699 H 537.947 -2.71371 -3.15695 0
M  V30 5700 H 538.48 -3.59442 -1.7043 0
M  V30 5701 H 535.219 -6.48925 -0.926106 0
M  V30 5702 H 534.739 -5.52275 -2.33991 0
M  V30 5703 H 536.418 -6.09365 -2.17447 0
M  V30 5704 N 536.55 0.480323 -1.50102 0
M  V30 5705 C 537.497 1.57946 -1.6829 0
M  V30 5706 C 538.467 1.57611 -0.524223 0
M  V30 5707 O 539.652 1.75282 -0.753709 0
M  V30 5708 C 536.792 2.95978 -1.77457 0
M  V30 5709 C 535.905 3.06173 -3.04766 0
M  V30 5710 C 535.04 4.35063 -3.04784 0
M  V30 5711 C 534.079 4.38966 -4.26586 0
M  V30 5712 N 533.216 5.59314 -4.24396 0
M  V30 5713 H 538.056 1.41743 -2.62131 0
M  V30 5714 H 535.593 0.689304 -1.2995 0
M  V30 5715 H 537.551 3.76011 -1.80752 0
M  V30 5716 H 536.181 3.10837 -0.870637 0
M  V30 5717 H 535.233 2.19071 -3.10986 0
M  V30 5718 H 536.545 3.04916 -3.9475 0
M  V30 5719 H 535.699 5.23436 -3.06757 0
M  V30 5720 H 534.438 4.38915 -2.12614 0
M  V30 5721 H 533.443 3.48992 -4.24835 0
M  V30 5722 H 534.668 4.36813 -5.19972 0
M  V30 5723 H 532.614 5.63969 -3.35074 0
M  V30 5724 H 532.531 5.5976 -5.08138 0
M  V30 5725 H 533.799 6.49837 -4.30502 0
M  V30 5726 N 538.028 1.39524 0.732853 0
M  V30 5727 C 538.96 1.34318 1.85718 0
M  V30 5728 C 539.973 0.251576 1.60844 0
M  V30 5729 O 541.162 0.510685 1.71039 0
M  V30 5730 C 538.262 1.06334 3.21786 0
M  V30 5731 C 537.435 2.26813 3.73998 0
M  V30 5732 C 536.494 1.95253 4.88634 0
M  V30 5733 O 535.52 2.67957 5.02183 0
M  V30 5734 N 536.722 0.919984 5.73164 0
M  V30 5735 H 539.487 2.3121 1.90688 0
M  V30 5736 H 537.048 1.33654 0.91368 0
M  V30 5737 H 539.04 0.832363 3.96048 0
M  V30 5738 H 537.61 0.181682 3.12072 0
M  V30 5739 H 536.83 2.65849 2.91064 0
M  V30 5740 H 538.118 3.0717 4.05616 0
M  V30 5741 H 537.516 0.317487 5.64808 0
M  V30 5742 H 536.073 0.748905 6.47483 0
M  V30 5743 N 539.506 -0.963266 1.24736 0
M  V30 5744 C 540.922 -1.23273 1.01371 0
M  V30 5745 C 541.122 -1.99618 -0.274776 0
M  V30 5746 O 540.178 -2.32293 -0.989769 0
M  V30 5747 C 541.491 -2.01554 2.23152 0
M  V30 5748 C 543.039 -2.14629 2.27823 0
M  V30 5749 C 543.514 -2.96307 3.49237 0
M  V30 5750 N 545.005 -3.03887 3.49581 0
M  V30 5751 C 545.74 -3.67456 4.40186 0
M  V30 5752 N 545.236 -4.32706 5.41052 0
M  V30 5753 N 547.029 -3.64511 4.27888 0
M  V30 5754 H 539.18 -0.452294 2.07528 0
M  V30 5755 H 541.443 -0.262521 0.910926 0
M  V30 5756 H 541.149 -1.52847 3.1675 0
M  V30 5757 H 541.023 -3.02278 2.25628 0
M  V30 5758 H 543.41 -2.62537 1.34753 0
M  V30 5759 H 543.491 -1.13238 2.2937 0
M  V30 5760 H 543.135 -2.49091 4.42624 0
M  V30 5761 H 543.065 -3.97905 3.44933 0
M  V30 5762 H 545.556 -2.57477 2.76611 0
M  V30 5763 H 545.869 -4.79042 6.06415 0
M  V30 5764 H 544.214 -4.31361 5.44934 0
M  V30 5765 H 547.405 -3.12715 3.4832 0
M  V30 5766 H 547.578 -4.13768 4.98698 0
M  V30 5767 N 540.985 -1.06182 -1.16461 0
M  V30 5768 C 541.915 -0.692861 -2.22984 0
M  V30 5769 C 542.896 0.314122 -1.67174 0
M  V30 5770 O 544.081 0.189499 -1.93273 0
M  V30 5771 C 541.211 -0.07732 -3.47214 0
M  V30 5772 C 540.165 -1.01015 -4.15909 0
M  V30 5773 C 539.491 -0.257973 -5.34077 0
M  V30 5774 C 540.791 -2.33868 -4.67015 0
M  V30 5775 H 542.485 -1.58343 -2.54102 0
M  V30 5776 H 540.031 -0.76279 -1.22137 0
M  V30 5777 H 541.984 0.19266 -4.20959 0
M  V30 5778 H 540.708 0.848254 -3.15392 0
M  V30 5779 H 539.367 -1.26486 -3.44088 0
M  V30 5780 H 539.015 0.670684 -4.98509 0
M  V30 5781 H 538.715 -0.879638 -5.80979 0
M  V30 5782 H 540.239 0.00448788 -6.106 0
M  V30 5783 H 541.653 -2.1279 -5.32347 0
M  V30 5784 H 540.05 -2.91522 -5.24533 0
M  V30 5785 H 541.12 -2.97019 -3.83286 0
M  V30 5786 N 542.463 1.3308 -0.844243 0
M  V30 5787 C 543.71 1.97605 -0.44255 0
M  V30 5788 C 544.038 1.66856 0.999458 0
M  V30 5789 O 543.293 0.943586 1.7145 0
M  V30 5790 C 543.592 3.52045 -0.616354 0
M  V30 5791 C 543.258 4.02757 -2.02726 0
M  V30 5792 C 541.92 4.16316 -2.41317 0
M  V30 5793 C 544.272 4.29776 -2.9486 0
M  V30 5794 C 541.6 4.54232 -3.71335 0
M  V30 5795 C 543.952 4.69146 -4.24364 0
M  V30 5796 C 542.616 4.80911 -4.62904 0
M  V30 5797 H 541.886 0.723088 -0.161941 0
M  V30 5798 H 544.533 1.58663 -1.0723 0
M  V30 5799 H 542.838 3.91681 0.0966812 0
M  V30 5800 H 544.535 3.99981 -0.285756 0
M  V30 5801 H 541.125 3.9268 -1.71756 0
M  V30 5802 H 545.309 4.18818 -2.6628 0
M  V30 5803 H 540.565 4.61535 -4.00993 0
M  V30 5804 H 544.739 4.89008 -4.95827 0
M  V30 5805 H 542.366 5.10048 -5.63698 0
M  V30 5806 N 543.941 0.601185 1.45683 0
M  V30 5807 C 544.851 -0.123395 2.34275 0
M  V30 5808 C 545.867 -0.86702 1.5086 0
M  V30 5809 O 547.043 -0.826049 1.8368 0
M  V30 5810 C 544.108 -1.11237 3.2837 0
M  V30 5811 C 543.169 -0.371405 4.2769 0
M  V30 5812 C 542.402 -1.31327 5.1729 0
M  V30 5813 O 542.625 -2.55078 5.10188 0
M  V30 5814 O 541.559 -0.813811 5.96373 0
M  V30 5815 H 545.385 0.604483 2.97623 0
M  V30 5816 H 542.97 0.361477 1.44961 0
M  V30 5817 H 544.852 -1.68214 3.8637 0
M  V30 5818 H 543.527 -1.82139 2.67595 0
M  V30 5819 H 542.434 0.24067 3.73325 0
M  V30 5820 H 543.767 0.296998 4.91303 0
M  V30 5821 N 545.419 -1.53889 0.339982 0
M  V30 5822 C 546.367 -2.26391 -0.533822 0
M  V30 5823 C 547.361 -1.28404 -1.10493 0
M  V30 5824 O 548.567 -1.46124 -1.05108 0
M  V30 5825 H 544.942 -0.727385 -0.190828 0
M  V30 5826 H 546.913 -2.98233 0.0997484 0
M  V30 5827 C 545.662 -3.04707 -1.67479 0
M  V30 5828 H 544.985 -3.79934 -1.2446 0
M  V30 5829 H 546.425 -3.58657 -2.26144 0
M  V30 5830 C 544.884 -2.13989 -2.60212 0
M  V30 5831 O 545.414 -1.73361 -3.62366 0
M  V30 5832 N 543.62 -1.79141 -2.28816 0
M  V30 5833 H 543.167 -2.12378 -1.45785 0
M  V30 5834 H 543.125 -1.18725 -2.91121 0
M  V30 5835 N 546.897 -0.0685191 -1.57451 0
M  V30 5836 C 547.827 0.89747 -2.15564 0
M  V30 5837 C 548.808 1.31266 -1.08181 0
M  V30 5838 O 549.993 1.38429 -1.36202 0
M  V30 5839 C 547.123 2.16623 -2.71463 0
M  V30 5840 C 546.077 1.89054 -3.83982 0
M  V30 5841 C 545.403 3.22532 -4.26471 0
M  V30 5842 C 546.703 1.1984 -5.08366 0
M  V30 5843 H 548.397 0.413373 -2.96533 0
M  V30 5844 H 545.943 0.197391 -1.42641 0
M  V30 5845 H 547.896 2.84614 -3.10761 0
M  V30 5846 H 546.62 2.67269 -1.8771 0
M  V30 5847 H 545.279 1.23469 -3.45183 0
M  V30 5848 H 544.927 3.71013 -3.39644 0
M  V30 5849 H 544.627 3.04879 -5.02317 0
M  V30 5850 H 546.151 3.91727 -4.68383 0
M  V30 5851 H 547.565 1.77896 -5.45001 0
M  V30 5852 H 545.962 1.12456 -5.89469 0
M  V30 5853 H 547.032 0.176996 -4.84577 0
M  V30 5854 N 548.375 1.56261 0.205012 0
M  V30 5855 C 549.791 1.49623 0.555433 0
M  V30 5856 C 549.991 0.766719 1.86343 0
M  V30 5857 O 549.047 0.313158 2.50551 0
M  V30 5858 C 550.36 2.94253 0.619347 0
M  V30 5859 C 551.908 3.04868 0.708855 0
M  V30 5860 C 552.383 4.50888 0.803969 0
M  V30 5861 N 553.874 4.54999 0.867758 0
M  V30 5862 C 554.609 5.65284 0.96135 0
M  V30 5863 N 554.105 6.85282 1.01786 0
M  V30 5864 N 555.898 5.53174 0.997771 0
M  V30 5865 H 548.049 2.0211 -0.653094 0
M  V30 5866 H 550.312 0.919333 -0.231366 0
M  V30 5867 H 550.018 3.50643 -0.272458 0
M  V30 5868 H 549.892 3.47063 1.47741 0
M  V30 5869 H 552.279 2.48532 1.5911 0
M  V30 5870 H 552.36 2.55199 -0.175205 0
M  V30 5871 H 552.004 5.07846 -0.0738798 0
M  V30 5872 H 551.934 4.98279 1.70369 0
M  V30 5873 H 554.425 3.68588 0.833735 0
M  V30 5874 H 554.738 7.65081 1.08951 0
M  V30 5875 H 553.083 6.8796 0.986706 0
M  V30 5876 H 556.274 4.5835 0.950392 0
M  V30 5877 H 556.447 6.39151 1.06725 0
M  V30 5878 N 549.853 -0.472356 1.50355 0
M  V30 5879 C 550.786 -1.58923 1.63764 0
M  V30 5880 C 551.764 -1.55173 0.485793 0
M  V30 5881 O 552.948 -1.74815 0.705132 0
M  V30 5882 C 550.075 -2.97497 1.61905 0
M  V30 5883 C 549.121 -3.19405 2.82635 0
M  V30 5884 S 549.954 -2.99441 4.43954 0
M  V30 5885 C 551.11 -4.40359 4.44786 0
M  V30 5886 H 551.343 -1.47309 2.58239 0
M  V30 5887 H 548.876 -0.659601 1.39602 0
M  V30 5888 H 550.834 -3.77389 1.61518 0
M  V30 5889 H 549.495 -3.06502 0.686683 0
M  V30 5890 H 548.688 -4.20636 2.77636 0
M  V30 5891 H 548.29 -2.47283 2.80583 0
M  V30 5892 H 550.582 -5.32969 4.1827 0
M  V30 5893 H 551.525 -4.50403 5.46391 0
M  V30 5894 H 551.933 -4.22378 3.74509 0
M  V30 5895 N 551.331 -1.39911 -0.725443 0
M  V30 5896 C 552.261 -1.42138 -1.85254 0
M  V30 5897 C 553.242 -0.283513 -1.67721 0
M  V30 5898 O 554.427 -0.490717 -1.87898 0
M  V30 5899 C 551.557 -1.27354 -3.23107 0
M  V30 5900 C 550.511 -2.3864 -3.55296 0
M  V30 5901 C 549.837 -2.08939 -4.92188 0
M  V30 5902 C 551.137 -3.8097 -3.57295 0
M  V30 5903 H 552.831 -2.36461 -1.83648 0
M  V30 5904 H 550.377 -1.13817 -0.882138 0
M  V30 5905 H 552.33 -1.2753 -4.01639 0
M  V30 5906 H 551.054 -0.295025 -3.25265 0
M  V30 5907 H 549.713 -2.37696 -2.79099 0
M  V30 5908 H 549.361 -1.09502 -4.90936 0
M  V30 5909 H 549.061 -2.83491 -5.14691 0
M  V30 5910 H 550.585 -2.10781 -5.73065 0
M  V30 5911 H 551.999 -3.8379 -4.25885 0
M  V30 5912 H 550.396 -4.5496 -3.9132 0
M  V30 5913 H 551.466 -4.11261 -2.5689 0
M  V30 5914 N 552.809 0.956637 -1.25245 0
M  V30 5915 C 554.22 1.51569 -1.09012 0
M  V30 5916 C 554.571 1.93322 0.334813 0
M  V30 5917 O 553.696 1.78421 1.22454 0
M  V30 5918 C 554.291 2.75444 -1.97271 0
M  V30 5919 C 552.85 3.27669 -1.8523 0
M  V30 5920 C 551.997 2.00517 -1.91542 0
M  V30 5921 H 554.948 0.773746 -1.3856 0
M  V30 5922 H 554.969 3.4919 -1.51151 0
M  V30 5923 H 554.481 2.45024 -3.00973 0
M  V30 5924 H 552.582 3.62914 -0.844045 0
M  V30 5925 H 552.695 3.9582 -2.69932 0
M  V30 5926 H 551.059 2.15727 -1.35404 0
M  V30 5927 H 551.842 1.72448 -2.96844 0
M  V30 5928 N 554.287 1.06798 1.15896 0
M  V30 5929 C 555.237 0.653213 2.18443 0
M  V30 5930 C 556.221 -0.318763 1.57711 0
M  V30 5931 O 557.413 -0.133388 1.76497 0
M  V30 5932 C 554.542 0.0465785 3.43268 0
M  V30 5933 C 553.628 1.04336 4.11066 0
M  V30 5934 N 554.019 2.22084 4.54436 0
M  V30 5935 C 552.317 0.875433 4.37324 0
M  V30 5936 C 553.018 2.85276 5.06944 0
M  V30 5937 N 551.994 2.12973 5.00143 0
M  V30 5938 H 555.796 1.55011 2.49698 0
M  V30 5939 H 553.31 0.940384 1.32403 0
M  V30 5940 H 555.307 -0.26843 4.16035 0
M  V30 5941 H 553.967 -0.845504 3.13499 0
M  V30 5942 H 554.978 2.59833 4.48004 0
M  V30 5943 H 551.655 0.0357721 4.17485 0
M  V30 5944 H 553.045 3.85223 5.50503 0
M  V30 5945 N 555.766 -1.3263 0.851289 0
M  V30 5946 C 556.729 -2.27247 0.298541 0
M  V30 5947 C 557.729 -1.51467 -0.539847 0
M  V30 5948 O 558.919 -1.7061 -0.351843 0
M  V30 5949 C 556.051 -3.35964 -0.578004 0
M  V30 5950 H 557.244 -2.7765 1.13359 0
M  V30 5951 H 554.797 -1.43245 0.625354 0
M  V30 5952 H 555.532 -2.90823 -1.435 0
M  V30 5953 H 555.317 -3.92094 0.0220539 0
M  V30 5954 H 556.807 -4.06472 -0.957626 0
M  V30 5955 N 557.244 -0.608902 -1.45362 0
M  V30 5956 C 558.655 -0.189511 -1.85736 0
M  V30 5957 C 559.006 1.2539 -1.50903 0
M  V30 5958 O 558.131 1.95094 -0.936347 0
M  V30 5959 C 558.726 -0.33716 -3.37118 0
M  V30 5960 C 557.285 0.0275487 -3.7639 0
M  V30 5961 C 556.432 -0.660983 -2.69307 0
M  V30 5962 H 559.383 -0.815499 -1.36144 0
M  V30 5963 H 559.404 0.430257 -3.7806 0
M  V30 5964 H 558.916 -1.38779 -3.62439 0
M  V30 5965 H 557.017 1.0773 -3.56686 0
M  V30 5966 H 557.13 -0.367018 -4.77692 0
M  V30 5967 H 555.494 -0.0984958 -2.54509 0
M  V30 5968 H 556.277 -1.71377 -2.97464 0
M  V30 5969 N 558.722 1.53707 -0.348139 0
M  V30 5970 C 559.97 2.00591 0.246478 0
M  V30 5971 C 560.291 1.23753 1.50699 0
M  V30 5972 O 559.561 0.345964 1.92821 0
M  V30 5973 H 558.141 0.741053 0.0940679 0
M  V30 5974 H 560.803 1.89139 -0.470354 0
M  V30 5975 H 559.899 3.08297 0.485714 0
M  V30 5976 N 560.2 0.0768682 1.57412 0
M  V30 5977 C 561.446 -0.591961 1.93968 0
M  V30 5978 C 561.779 -1.68954 0.9575 0
M  V30 5979 O 561.054 -1.94496 -0.0124675 0
M  V30 5980 C 561.337 -1.16418 3.40762 0
M  V30 5981 C 561.19 -0.0728933 4.49741 0
M  V30 5982 C 562.509 -2.06814 3.88479 0
M  V30 5983 H 559.628 -0.213716 0.705333 0
M  V30 5984 H 562.27 0.14387 1.89455 0
M  V30 5985 H 560.42 -1.79128 3.4474 0
M  V30 5986 H 562.092 0.560446 4.57883 0
M  V30 5987 H 560.335 0.595859 4.29688 0
M  V30 5988 H 561.006 -0.513755 5.49604 0
M  V30 5989 H 563.482 -1.54033 3.8654 0
M  V30 5990 H 562.358 -2.43785 4.91793 0
M  V30 5991 H 562.619 -2.97844 3.26713 0
M  V30 5992 N 561.678 -1.56367 -0.196722 0
M  V30 5993 C 562.61 -1.90941 -1.26784 0
M  V30 5994 C 563.623 -0.799928 -1.41792 0
M  V30 5995 O 564.812 -1.07833 -1.42247 0
M  V30 5996 C 561.912 -2.12477 -2.6402 0
M  V30 5997 C 561.085 -3.43616 -2.70641 0
M  V30 5998 C 560.144 -3.54284 -3.89062 0
M  V30 5999 O 559.17 -4.2712 -3.76241 0
M  V30 6000 N 560.372 -2.87252 -5.04447 0
M  V30 6001 H 563.137 -2.83417 -0.974417 0
M  V30 6002 H 560.698 -1.57215 -0.386649 0
M  V30 6003 H 562.69 -2.16904 -3.41665 0
M  V30 6004 H 561.26 -1.26508 -2.85857 0
M  V30 6005 H 560.48 -3.51072 -1.79283 0
M  V30 6006 H 561.768 -4.29958 -2.72054 0
M  V30 6007 H 561.166 -2.27901 -5.17762 0
M  V30 6008 H 559.723 -2.97308 -5.80044 0
M  V30 6009 N 563.156 0.464375 -1.50603 0
M  V30 6010 C 564.089 1.58052 -1.64605 0
M  V30 6011 C 565.067 1.54914 -0.494016 0
M  V30 6012 O 566.251 1.74438 -0.714393 0
M  V30 6013 C 563.378 2.96634 -1.63481 0
M  V30 6014 C 562.424 3.17901 -2.84325 0
M  V30 6015 S 563.257 2.97083 -4.45536 0
M  V30 6016 C 564.413 4.37994 -4.47115 0
M  V30 6017 H 564.646 1.45937 -2.59017 0
M  V30 6018 H 562.179 0.652189 -1.39949 0
M  V30 6019 H 564.137 3.76527 -1.63517 0
M  V30 6020 H 562.798 3.06134 -0.702928 0
M  V30 6021 H 561.991 4.19158 -2.79862 0
M  V30 6022 H 561.593 2.45792 -2.81891 0
M  V30 6023 H 563.885 5.30743 -4.21091 0
M  V30 6024 H 564.828 4.47499 -5.48772 0
M  V30 6025 H 565.236 4.20386 -3.76743 0
M  V30 6026 N 564.634 1.40294 0.718013 0
M  V30 6027 C 565.566 1.36281 1.84283 0
M  V30 6028 C 566.579 0.268621 1.60569 0
M  V30 6029 O 567.768 0.528798 1.70487 0
M  V30 6030 C 564.868 1.09741 3.2064 0
M  V30 6031 C 564.041 2.30767 3.71571 0
M  V30 6032 C 563.1 2.00424 4.86535 0
M  V30 6033 O 562.126 2.73268 4.99313 0
M  V30 6034 N 563.328 0.980724 5.72156 0
M  V30 6035 H 566.093 2.3322 1.88225 0
M  V30 6036 H 563.654 1.34616 0.899453 0
M  V30 6037 H 565.646 0.874322 3.95143 0
M  V30 6038 H 564.216 0.214771 3.11861 0
M  V30 6039 H 563.436 2.68921 2.88228 0
M  V30 6040 H 564.724 3.11455 4.02335 0
M  V30 6041 H 564.122 0.377375 5.6444 0
M  V30 6042 H 562.679 0.817538 6.46653 0
M  V30 6043 N 566.112 -0.949982 1.2575 0
M  V30 6044 C 567.075 -2.02894 1.06615 0
M  V30 6045 C 568.075 -1.60791 0.0173905 0
M  V30 6046 O 569.265 -1.72249 0.260003 0
M  V30 6047 C 566.397 -3.35219 0.619751 0
M  V30 6048 H 567.59 -2.21302 2.02399 0
M  V30 6049 H 565.143 -1.12772 1.08223 0
M  V30 6050 H 565.878 -3.22508 -0.340486 0
M  V30 6051 H 565.663 -3.67129 1.37692 0
M  V30 6052 H 567.153 -4.14505 0.507443 0
M  V30 6053 N 567.59 -1.07411 -1.15328 0
M  V30 6054 C 568.839 -0.792643 -1.85473 0
M  V30 6055 C 569.152 0.683789 -1.83259 0
M  V30 6056 O 570.358 1.08005 -2.49093 0
M  V30 6057 C 568.814 -1.36787 -3.32892 0
M  V30 6058 C 568.422 -2.87536 -3.43551 0
M  V30 6059 C 570.166 -1.16444 -4.08217 0
M  V30 6060 C 568.073 -3.38247 -4.85122 0
M  V30 6061 H 567.003 -0.292838 -0.694811 0
M  V30 6062 H 569.654 -1.29426 -1.30082 0
M  V30 6063 H 568.036 -0.793993 -3.87958 0
M  V30 6064 H 569.21 -3.50973 -2.98588 0
M  V30 6065 H 567.525 -3.06676 -2.81672 0
M  V30 6066 H 570.122 -1.51808 -5.12697 0
M  V30 6067 H 570.465 -0.10353 -4.16171 0
M  V30 6068 H 570.998 -1.70472 -3.59422 0
M  V30 6069 H 567.737 -4.43866 -4.82351 0
M  V30 6070 H 567.257 -2.79564 -5.30664 0
M  V30 6071 H 568.936 -3.34238 -5.5398 0
M  V30 6072 N 569.068 1.32177 -0.85831 0
M  V30 6073 C 570.479 1.79381 -0.517621 0
M  V30 6074 C 570.83 1.70841 0.964769 0
M  V30 6075 O 569.955 1.26917 1.75274 0
M  V30 6076 C 570.55 3.25706 -0.932801 0
M  V30 6077 C 569.109 3.70851 -0.643953 0
M  V30 6078 C 568.256 2.53208 -1.13054 0
M  V30 6079 H 571.207 1.19424 -1.04516 0
M  V30 6080 H 571.228 3.79673 -0.250674 0
M  V30 6081 H 570.74 3.31889 -2.01174 0
M  V30 6082 H 568.841 3.70178 0.424112 0
M  V30 6083 H 568.954 4.63495 -1.21281 0
M  V30 6084 H 567.318 2.48676 -0.550679 0
M  V30 6085 H 568.101 2.62143 -2.21666 0
M  V30 6086 N 570.547 0.616602 1.45037 0
M  V30 6087 C 571.457 -0.0985401 2.34393 0
M  V30 6088 C 572.473 -0.850971 1.51771 0
M  V30 6089 O 573.649 -0.806521 1.84546 0
M  V30 6090 C 570.714 -1.07748 3.29532 0
M  V30 6091 C 569.775 -0.326022 4.2806 0
M  V30 6092 C 569.008 -1.25833 5.18654 0
M  V30 6093 O 569.231 -2.49652 5.12864 0
M  V30 6094 O 568.165 -0.750512 5.97203 0
M  V30 6095 H 571.991 0.636016 2.96966 0
M  V30 6096 H 569.576 0.376832 1.44569 0
M  V30 6097 H 571.458 -1.64107 3.88133 0
M  V30 6098 H 570.133 -1.79291 2.69512 0
M  V30 6099 H 569.04 0.280253 3.73049 0
M  V30 6100 H 570.373 0.349091 4.9096 0
M  V30 6101 N 572.025 -1.5352 0.356285 0
M  V30 6102 C 573.302 -1.93405 -0.292223 0
M  V30 6103 C 573.682 -1.28901 -1.67176 0
M  V30 6104 O 573.03 -0.444632 -2.24132 0
M  V30 6105 C 573.24 -3.47223 -0.35175 0
M  V30 6106 C 574.588 -4.20389 -0.596534 0
M  V30 6107 O 575.612 -3.53554 -0.433344 0
M  V30 6108 O 574.471 -5.3881 -0.913589 0
M  V30 6109 H 571.565 -0.808666 -0.173172 0
M  V30 6110 H 574.111 -1.64713 0.408391 0
M  V30 6111 H 572.883 -3.86423 0.615841 0
M  V30 6112 H 572.506 -3.8212 -1.09864 0
M  V30 6113 N 573.503 -0.0852151 -1.57369 0
M  V30 6114 C 574.466 0.8627 -2.12344 0
M  V30 6115 C 575.466 1.21746 -1.05046 0
M  V30 6116 O 576.656 1.14852 -1.30976 0
M  V30 6117 C 573.788 2.1618 -2.63589 0
M  V30 6118 H 574.981 0.385511 -2.97412 0
M  V30 6119 H 572.534 0.163663 -1.55441 0
M  V30 6120 H 573.269 2.68406 -1.82013 0
M  V30 6121 H 573.054 1.91723 -3.4203 0
M  V30 6122 H 574.544 2.84011 -3.06149 0
M  V30 6123 N 574.981 1.5647 0.188427 0
M  V30 6124 C 576.227 1.81281 0.909124 0
M  V30 6125 C 576.56 0.66034 1.82628 0
M  V30 6126 O 575.835 -0.338737 1.91528 0
M  V30 6127 C 576.118 3.16388 1.7196 0
M  V30 6128 C 575.971 4.42137 0.826714 0
M  V30 6129 C 577.29 3.48256 2.69083 0
M  V30 6130 H 574.409 0.659457 0.329068 0
M  V30 6131 H 577.051 1.89182 0.176156 0
M  V30 6132 H 575.201 3.09784 2.34448 0
M  V30 6133 H 576.873 4.60794 0.216025 0
M  V30 6134 H 575.116 4.33594 0.133792 0
M  V30 6135 H 575.787 5.33184 1.42893 0
M  V30 6136 H 578.263 3.55203 2.16726 0
M  V30 6137 H 577.139 4.43899 3.2287 0
M  V30 6138 H 577.4 2.72088 3.48455 0
M  V30 6139 N 576.459 -0.456382 1.50847 0
M  V30 6140 C 577.409 -1.55045 1.67168 0
M  V30 6141 C 578.393 -1.52061 0.525958 0
M  V30 6142 O 579.585 -1.58836 0.781036 0
M  V30 6143 C 576.714 -2.93386 1.78268 0
M  V30 6144 C 575.8 -3.01198 2.98564 0
M  V30 6145 N 576.191 -2.78792 4.22029 0
M  V30 6146 C 574.489 -3.32346 2.97426 0
M  V30 6147 C 575.19 -2.91953 5.03128 0
M  V30 6148 N 574.166 -3.22797 4.37382 0
M  V30 6149 H 577.968 -1.36444 2.60308 0
M  V30 6150 H 575.482 -0.663375 1.48233 0
M  V30 6151 H 577.479 -3.72071 1.88067 0
M  V30 6152 H 576.139 -3.13022 0.862965 0
M  V30 6153 H 577.15 -2.54087 4.51287 0
M  V30 6154 H 573.827 -3.57877 2.15012 0
M  V30 6155 H 575.217 -2.78745 6.11351 0
M  V30 6156 N 577.937 -1.40673 -0.710563 0
M  V30 6157 C 578.847 -1.43663 -1.85467 0
M  V30 6158 C 579.863 -0.328721 -1.70867 0
M  V30 6159 O 581.039 -0.574098 -1.93044 0
M  V30 6160 C 578.104 -1.30226 -3.21313 0
M  V30 6161 C 577.165 -2.51204 -3.48131 0
M  V30 6162 C 576.398 -2.38398 -4.77495 0
M  V30 6163 O 576.621 -1.40048 -5.5294 0
M  V30 6164 O 575.555 -3.2787 -5.04762 0
M  V30 6165 H 579.381 -2.40156 -1.859 0
M  V30 6166 H 576.966 -1.22049 -0.861652 0
M  V30 6167 H 578.848 -1.2496 -4.02446 0
M  V30 6168 H 577.523 -0.368419 -3.21597 0
M  V30 6169 H 576.43 -2.62048 -2.66987 0
M  V30 6170 H 577.763 -3.43366 -3.52648 0
M  V30 6171 N 579.415 0.9433 -1.26252 0
M  V30 6172 C 580.692 1.66639 -1.02424 0
M  V30 6173 C 581.072 2.06335 0.446006 0
M  V30 6174 O 580.42 1.78551 1.42589 0
M  V30 6175 C 580.63 2.88019 -1.97094 0
M  V30 6176 C 581.978 3.59718 -2.25584 0
M  V30 6177 O 583.002 2.9812 -1.94943 0
M  V30 6178 O 581.861 4.7066 -2.77743 0
M  V30 6179 H 578.955 0.729643 -0.389294 0
M  V30 6180 H 581.501 0.995218 -1.37454 0
M  V30 6181 H 580.273 2.5556 -2.96319 0
M  V30 6182 H 579.896 3.62863 -1.62532 0
M  V30 6183 N 580.893 1.08022 1.14757 0
M  V30 6184 C 582.118 0.82895 1.90114 0
M  V30 6185 C 582.543 -0.612772 1.77839 0
M  V30 6186 O 581.901 -1.42895 1.11583 0
M  V30 6187 C 581.949 1.25062 3.38219 0
M  V30 6188 O 581.053 0.400119 4.10454 0
M  V30 6189 H 580.394 0.301412 0.591648 0
M  V30 6190 H 582.924 1.44062 1.45284 0
M  V30 6191 H 582.934 1.22977 3.89025 0
M  V30 6192 H 581.609 2.30067 3.46471 0
M  V30 6193 H 580.186 0.484052 3.69745 0
M  V30 6194 N 582.371 -1.3172 0.865308 0
M  V30 6195 C 583.619 -1.96487 0.472995 0
M  V30 6196 C 583.94 -1.68761 -0.976975 0
M  V30 6197 O 583.21 -1.00051 -1.68424 0
M  V30 6198 H 581.79 -0.726947 0.171922 0
M  V30 6199 H 584.452 -1.60612 1.10407 0
M  V30 6200 H 583.548 -3.0574 0.62687 0
M  V30 6201 N 583.85 -0.624285 -1.44708 0
M  V30 6202 C 585.127 -0.0572781 -1.95516 0
M  V30 6203 C 585.507 1.41516 -1.56641 0
M  V30 6204 O 584.855 2.12614 -0.837111 0
M  V30 6205 C 585.065 -0.272944 -3.47931 0
M  V30 6206 C 586.413 -0.162529 -4.24289 0
M  V30 6207 O 587.437 -0.203946 -3.55616 0
M  V30 6208 O 586.296 -0.0616847 -5.46465 0
M  V30 6209 H 583.389 0.0262219 -0.826584 0
M  V30 6210 H 585.936 -0.695512 -1.54793 0
M  V30 6211 H 584.707 -1.29492 -3.69253 0
M  V30 6212 H 584.331 0.399756 -3.95585 0
M  V30 6213 N 585.328 1.53329 -0.364422 0
M  V30 6214 C 586.238 2.29414 0.490552 0
M  V30 6215 C 587.254 1.35335 1.09363 0
M  V30 6216 O 588.43 1.68391 1.10483 0
M  V30 6217 C 585.495 3.06772 1.61529 0
M  V30 6218 C 584.556 4.16516 1.03986 0
M  V30 6219 C 583.789 4.90176 2.111 0
M  V30 6220 O 584.012 4.63687 3.32191 0
M  V30 6221 O 582.946 5.76134 1.74222 0
M  V30 6222 H 586.772 3.03428 -0.12856 0
M  V30 6223 H 584.357 1.48843 -0.128837 0
M  V30 6224 H 586.239 3.55082 2.26924 0
M  V30 6225 H 584.914 2.35596 2.21983 0
M  V30 6226 H 583.821 3.7246 0.349856 0
M  V30 6227 H 585.154 4.89855 0.4799 0
M  V30 6228 N 586.806 0.0935595 1.57322 0
M  V30 6229 C 588.083 -0.612692 1.85756 0
M  V30 6230 C 588.463 -1.86439 0.99013 0
M  V30 6231 O 587.811 -2.28416 0.0621362 0
M  V30 6232 C 588.021 -0.929547 3.36393 0
M  V30 6233 C 589.369 -1.29366 4.04413 0
M  V30 6234 O 590.393 -1.02061 3.41265 0
M  V30 6235 O 589.252 -1.80498 5.15832 0
M  V30 6236 H 586.346 -0.306444 0.768128 0
M  V30 6237 H 588.892 0.126141 1.69231 0
M  V30 6238 H 587.664 -0.0414766 3.91278 0
M  V30 6239 H 587.287 -1.72441 3.5826 0
M  V30 6240 N 588.284 -1.56567 -0.180126 0
M  V30 6241 C 589.532 -1.81133 -0.896392 0
M  V30 6242 C 589.853 -0.669114 -1.83161 0
M  V30 6243 O 589.123 0.311616 -1.93406 0
M  V30 6244 H 587.703 -0.668172 -0.333999 0
M  V30 6245 H 590.365 -1.94048 -0.182051 0
M  V30 6246 H 589.461 -2.74854 -1.47857 0
M  V30 6247 N 589.762 0.448376 -1.51087 0
M  V30 6248 C 590.672 1.56882 -1.74428 0
M  V30 6249 C 591.688 1.62268 -0.62809 0
M  V30 6250 O 592.864 1.79716 -0.909075 0
M  V30 6251 C 589.929 2.92947 -1.85426 0
M  V30 6252 C 588.99 2.97766 -3.09247 0
M  V30 6253 C 588.223 4.27341 -3.19711 0
M  V30 6254 O 588.446 5.19112 -2.36387 0
M  V30 6255 O 587.38 4.38219 -4.12611 0
M  V30 6256 H 591.206 1.40104 -2.69452 0
M  V30 6257 H 588.791 0.630247 -1.35456 0
M  V30 6258 H 590.673 3.73719 -1.94709 0
M  V30 6259 H 589.348 3.09876 -0.935887 0
M  V30 6260 H 588.255 2.15989 -3.0545 0
M  V30 6261 H 589.588 2.8578 -4.00738 0
M  V30 6262 N 591.24 1.41047 0.703093 0
M  V30 6263 C 592.517 1.30493 1.45708 0
M  V30 6264 C 592.897 -0.0709892 2.10981 0
M  V30 6265 O 592.245 -1.08471 2.01113 0
M  V30 6266 C 592.455 2.45287 2.48265 0
M  V30 6267 C 593.803 2.86104 3.13735 0
M  V30 6268 O 594.827 2.44971 2.58587 0
M  V30 6269 O 593.686 3.57206 4.13601 0
M  V30 6270 H 590.78 0.513144 0.648546 0
M  V30 6271 H 593.326 1.52995 0.734208 0
M  V30 6272 H 592.098 3.37135 1.98635 0
M  V30 6273 H 591.721 2.24622 3.28071 0
M  V30 6274 N 592.718 -0.936591 1.26751 0
M  V30 6275 C 594.129 -1.49816 1.1141 0
M  V30 6276 C 594.48 -1.9383 -0.304015 0
M  V30 6277 O 593.605 -1.80346 -1.196 0
M  V30 6278 C 594.2 -2.72271 2.01629 0
M  V30 6279 C 592.759 -3.2468 1.9042 0
M  V30 6280 C 591.906 -1.97444 1.94708 0
M  V30 6281 H 594.857 -0.751604 1.39773 0
M  V30 6282 H 594.878 -3.46741 1.56688 0
M  V30 6283 H 594.39 -2.40205 3.04833 0
M  V30 6284 H 592.491 -3.61525 0.901674 0
M  V30 6285 H 592.604 -3.91476 2.76195 0
M  V30 6286 H 590.968 -2.13545 1.38818 0
M  V30 6287 H 591.751 -1.67703 2.9955 0
M  V30 6288 N 594.196 -1.08629 -1.14182 0
M  V30 6289 C 595.473 -0.73002 -1.81466 0
M  V30 6290 C 595.853 0.785996 -1.95922 0
M  V30 6291 O 595.201 1.70535 -1.52086 0
M  V30 6292 C 595.411 -1.45957 -3.17014 0
M  V30 6293 C 596.759 -1.62008 -3.92477 0
M  V30 6294 O 597.783 -1.42141 -3.26611 0
M  V30 6295 O 596.642 -1.94806 -5.106 0
M  V30 6296 H 593.736 -0.261307 -0.784632 0
M  V30 6297 H 596.282 -1.188 -1.2118 0
M  V30 6298 H 595.054 -2.49221 -3.01669 0
M  V30 6299 H 594.677 -0.993222 -3.84995 0
M  V30 6300 N 595.674 1.31259 -0.872281 0
M  V30 6301 C 596.621 2.28459 -0.327857 0
M  V30 6302 C 597.591 1.55831 0.574957 0
M  V30 6303 O 598.776 1.83965 0.506101 0
M  V30 6304 C 595.916 3.41985 0.462644 0
M  V30 6305 C 595.029 4.29458 -0.467949 0
M  V30 6306 C 594.164 5.30131 0.336903 0
M  V30 6307 C 593.203 6.0925 -0.58997 0
M  V30 6308 N 592.34 7.01872 0.178775 0
M  V30 6309 H 597.18 2.74414 -1.16193 0
M  V30 6310 H 594.717 1.34994 -0.584376 0
M  V30 6311 H 596.675 4.06547 0.936759 0
M  V30 6312 H 595.305 2.97134 1.2614 0
M  V30 6313 H 594.357 3.65318 -1.06052 0
M  V30 6314 H 595.669 4.84677 -1.17856 0
M  V30 6315 H 594.823 6.0038 0.873427 0
M  V30 6316 H 593.562 4.75573 1.08079 0
M  V30 6317 H 592.567 5.37889 -1.13823 0
M  V30 6318 H 593.792 6.65894 -1.33275 0
M  V30 6319 H 591.738 6.49721 0.905435 0
M  V30 6320 H 591.655 7.54522 -0.472452 0
M  V30 6321 H 592.923 7.76382 0.696454 0
M  V30 6322 N 597.152 0.631951 1.44375 0
M  V30 6323 C 598.568 0.297642 1.568 0
M  V30 6324 C 598.768 -1.19916 1.61934 0
M  V30 6325 O 597.824 -1.98324 1.56281 0
M  V30 6326 C 599.137 0.990286 2.83926 0
M  V30 6327 C 600.685 0.968507 2.97639 0
M  V30 6328 C 601.16 1.64163 4.27568 0
M  V30 6329 N 602.651 1.60826 4.34384 0
M  V30 6330 C 603.386 2.09802 5.33639 0
M  V30 6331 N 602.882 2.66973 6.39294 0
M  V30 6332 N 604.675 2.00426 5.25153 0
M  V30 6333 H 596.826 1.60353 1.39286 0
M  V30 6334 H 599.089 0.673142 0.667521 0
M  V30 6335 H 598.795 2.04519 2.8612 0
M  V30 6336 H 598.669 0.528563 3.73478 0
M  V30 6337 H 601.056 -0.0779247 2.94997 0
M  V30 6338 H 601.137 1.46873 2.09433 0
M  V30 6339 H 600.781 2.68752 4.3097 0
M  V30 6340 H 600.711 1.11624 5.14634 0
M  V30 6341 H 603.202 1.19087 3.58646 0
M  V30 6342 H 603.515 3.02074 7.11316 0
M  V30 6343 H 601.86 2.71024 6.39977 0
M  V30 6344 H 605.051 1.55483 4.41523 0
M  V30 6345 H 605.224 2.38906 6.02352 0
M  V30 6346 N 598.631 -1.53133 0.372548 0
M  V30 6347 C 599.88 -2.00539 -0.216115 0
M  V30 6348 C 600.193 -1.26374 -1.49295 0
M  V30 6349 O 601.399 -1.64404 -2.16064 0
M  V30 6350 C 599.855 -3.57253 -0.435678 0
M  V30 6351 C 599.463 -4.40302 0.82693 0
M  V30 6352 C 601.207 -4.12995 -0.981618 0
M  V30 6353 C 599.114 -5.88583 0.576567 0
M  V30 6354 H 598.044 -0.749246 -0.084536 0
M  V30 6355 H 600.695 -1.76771 0.492364 0
M  V30 6356 H 599.077 -3.77202 -1.20559 0
M  V30 6357 H 600.251 -4.32124 1.60017 0
M  V30 6358 H 598.566 -3.95699 1.29659 0
M  V30 6359 H 601.163 -5.21418 -1.18436 0
M  V30 6360 H 601.506 -3.68027 -1.94581 0
M  V30 6361 H 602.039 -3.96871 -0.271696 0
M  V30 6362 H 598.778 -6.37841 1.51128 0
M  V30 6363 H 598.298 -5.99592 -0.158047 0
M  V30 6364 H 599.977 -6.46676 0.204722 0
M  V30 6365 N 600.109 -0.101901 -1.5727 0
M  V30 6366 C 601.334 0.571759 -1.99363 0
M  V30 6367 C 601.759 1.60507 -0.980768 0
M  V30 6368 O 601.117 1.81231 0.0498517 0
M  V30 6369 C 601.165 1.18996 -3.404 0
M  V30 6370 O 600.269 2.30572 -3.41922 0
M  V30 6371 H 599.61 0.144449 -0.648098 0
M  V30 6372 H 602.14 -0.185325 -2.03759 0
M  V30 6373 H 602.15 1.52962 -3.78241 0
M  V30 6374 H 600.825 0.432984 -4.1364 0
M  V30 6375 H 599.402 1.98173 -3.15883 0
M  V30 6376 N 601.587 1.56661 0.17182 0
M  V30 6377 C 602.836 1.81158 0.886831 0
M  V30 6378 C 603.149 0.679072 1.83434 0
M  V30 6379 O 604.355 0.808964 2.59168 0
M  V30 6380 C 602.811 3.20999 1.6275 0
M  V30 6381 C 602.419 4.42117 0.723652 0
M  V30 6382 C 604.163 3.5479 2.33076 0
M  V30 6383 C 602.07 5.7298 1.46452 0
M  V30 6384 H 601 0.675543 0.334899 0
M  V30 6385 H 603.651 1.82967 0.139765 0
M  V30 6386 H 602.033 3.13506 2.4193 0
M  V30 6387 H 603.207 4.60789 -0.0311485 0
M  V30 6388 H 601.522 4.16197 0.130063 0
M  V30 6389 H 604.119 4.49806 2.89099 0
M  V30 6390 H 604.462 2.79646 3.08389 0
M  V30 6391 H 604.995 3.63834 1.6084 0
M  V30 6392 H 601.734 6.51152 0.753729 0
M  V30 6393 H 601.254 5.58285 2.19266 0
M  V30 6394 H 602.933 6.14916 2.01214 0
M  V30 6395 N 603.065 -0.440357 1.51323 0
M  V30 6396 C 604.481 -0.7766 1.39431 0
M  V30 6397 C 604.681 -1.95838 0.474296 0
M  V30 6398 O 603.737 -2.52398 -0.0716692 0
M  V30 6399 C 605.05 -1.05981 2.81405 0
M  V30 6400 C 606.598 -1.16442 2.90534 0
M  V30 6401 C 607.073 -1.48058 4.33408 0
M  V30 6402 N 608.564 -1.54988 4.36501 0
M  V30 6403 C 609.299 -1.81017 5.44078 0
M  V30 6404 N 608.795 -2.04858 6.61819 0
M  V30 6405 N 610.588 -1.82774 5.31554 0
M  V30 6406 H 602.739 0.338006 2.09693 0
M  V30 6407 H 605.002 0.0888072 0.943831 0
M  V30 6408 H 604.708 -0.264173 3.50706 0
M  V30 6409 H 604.582 -1.98822 3.20546 0
M  V30 6410 H 606.969 -1.95068 2.21432 0
M  V30 6411 H 607.05 -0.215088 2.54894 0
M  V30 6412 H 606.694 -0.699605 5.03059 0
M  V30 6413 H 606.624 -2.44192 4.66559 0
M  V30 6414 H 609.115 -1.38479 3.51613 0
M  V30 6415 H 609.428 -2.2408 7.396 0
M  V30 6416 H 607.773 -2.02187 6.6494 0
M  V30 6417 H 610.964 -1.63665 4.38556 0
M  V30 6418 H 611.137 -2.02722 6.15474 0
M  V30 6419 N 604.543 -1.41418 -0.695603 0
M  V30 6420 C 605.506 -1.42988 -1.79129 0
M  V30 6421 C 606.506 -0.320514 -1.57573 0
M  V30 6422 O 607.696 -0.58039 -1.64247 0
M  V30 6423 C 604.828 -1.24122 -3.175 0
M  V30 6424 H 606.021 -2.40526 -1.7913 0
M  V30 6425 H 603.574 -1.2756 -0.903225 0
M  V30 6426 H 604.309 -0.274253 -3.23138 0
M  V30 6427 H 604.094 -2.045 -3.34547 0
M  V30 6428 H 605.584 -1.28056 -3.97481 0
M  V30 6429 N 606.021 0.929856 -1.27246 0
M  V30 6430 C 607.246 1.71674 -1.16374 0
M  V30 6431 C 607.671 1.86064 0.276024 0
M  V30 6432 O 607.029 1.3591 1.19992 0
M  V30 6433 C 607.077 3.09526 -1.85003 0
M  V30 6434 O 606.181 3.96142 -1.14653 0
M  V30 6435 H 605.522 0.52629 -0.404863 0
M  V30 6436 H 608.052 1.16381 -1.68276 0
M  V30 6437 H 608.062 3.59852 -1.92276 0
M  V30 6438 H 606.737 2.98369 -2.89739 0
M  V30 6439 H 605.314 3.54584 -1.15433 0
M  V30 6440 N 607.499 1.09233 1.13605 0
M  V30 6441 C 608.776 0.739633 1.81077 0
M  V30 6442 C 609.156 -0.775595 1.96336 0
M  V30 6443 O 608.504 -1.69726 1.52988 0
M  V30 6444 C 608.714 1.47636 3.16235 0
M  V30 6445 C 610.062 1.64087 3.91613 0
M  V30 6446 O 611.086 1.43871 3.25852 0
M  V30 6447 O 609.945 1.97511 5.0956 0
M  V30 6448 H 607.039 0.265464 0.783236 0
M  V30 6449 H 609.585 1.19441 1.20549 0
M  V30 6450 H 608.357 2.50818 3.00344 0
M  V30 6451 H 607.98 1.01362 3.84462 0
M  V30 6452 N 608.977 -1.30795 0.87923 0
M  V30 6453 C 609.924 -2.28282 0.339968 0
M  V30 6454 C 610.894 -1.56134 -0.566685 0
M  V30 6455 O 612.079 -1.84231 -0.496338 0
M  V30 6456 C 609.219 -3.42225 -0.444501 0
M  V30 6457 C 608.332 -4.29204 0.490717 0
M  V30 6458 C 607.467 -5.30302 -0.308784 0
M  V30 6459 C 606.506 -6.08929 0.622272 0
M  V30 6460 N 605.643 -7.01957 -0.14155 0
M  V30 6461 H 610.483 -2.73794 1.17647 0
M  V30 6462 H 608.02 -1.34682 0.591527 0
M  V30 6463 H 609.978 -4.07038 -0.915186 0
M  V30 6464 H 608.608 -2.97799 -1.24562 0
M  V30 6465 H 607.66 -3.6475 1.07988 0
M  V30 6466 H 608.972 -4.84045 1.20425 0
M  V30 6467 H 608.126 -6.00835 -0.841575 0
M  V30 6468 H 606.865 -4.7614 -1.05556 0
M  V30 6469 H 605.87 -5.37278 1.16674 0
M  V30 6470 H 607.095 -6.65178 1.36804 0
M  V30 6471 H 605.041 -6.50192 -0.870966 0
M  V30 6472 H 604.958 -7.54261 0.51246 0
M  V30 6473 H 606.226 -7.76741 -0.655271 0
M  V30 6474 N 610.455 -0.639598 -1.44038 0
M  V30 6475 C 611.871 -0.305953 -1.5664 0
M  V30 6476 C 612.071 1.19055 -1.62567 0
M  V30 6477 O 611.127 1.97492 -1.57331 0
M  V30 6478 C 612.44 -1.00533 -2.83397 0
M  V30 6479 C 613.988 -0.984278 -2.97121 0
M  V30 6480 C 614.463 -1.66428 -4.26691 0
M  V30 6481 N 615.954 -1.63127 -4.33525 0
M  V30 6482 C 616.689 -2.12629 -5.32519 0
M  V30 6483 N 616.185 -2.70359 -6.3787 0
M  V30 6484 N 617.978 -2.03208 -5.24083 0
M  V30 6485 H 610.129 -1.6109 -1.38434 0
M  V30 6486 H 612.392 -0.676672 -0.663942 0
M  V30 6487 H 612.098 -2.06034 -2.85032 0
M  V30 6488 H 611.972 -0.548362 -3.73193 0
M  V30 6489 H 614.359 0.0622792 -2.95034 0
M  V30 6490 H 614.44 -1.47981 -2.08651 0
M  V30 6491 H 614.084 -2.71034 -4.29538 0
M  V30 6492 H 614.014 -1.14351 -5.14034 0
M  V30 6493 H 616.505 -1.20987 -3.58009 0
M  V30 6494 H 616.818 -3.05842 -7.09704 0
M  V30 6495 H 615.163 -2.74414 -6.38531 0
M  V30 6496 H 618.354 -1.57823 -4.40692 0
M  V30 6497 H 618.527 -2.42097 -6.01077 0
M  V30 6498 N 611.933 1.52934 -0.380664 0
M  V30 6499 C 613.182 2.00651 0.205477 0
M  V30 6500 C 613.495 1.27164 1.48623 0
M  V30 6501 O 614.701 1.65547 2.15189 0
M  V30 6502 C 613.157 3.57479 0.416726 0
M  V30 6503 C 612.765 4.39857 -0.850268 0
M  V30 6504 C 614.509 4.13509 0.959702 0
M  V30 6505 C 612.416 5.88269 -0.607773 0
M  V30 6506 H 611.346 0.749684 0.0805614 0
M  V30 6507 H 613.997 1.76508 -0.501732 0
M  V30 6508 H 612.379 3.77836 1.18557 0
M  V30 6509 H 613.553 4.31269 -1.62307 0
M  V30 6510 H 611.868 3.95005 -1.31756 0
M  V30 6511 H 614.465 5.22039 1.15669 0
M  V30 6512 H 614.808 3.69054 1.92626 0
M  V30 6513 H 615.341 3.9701 0.250645 0
M  V30 6514 H 612.08 6.3703 -1.54509 0
M  V30 6515 H 611.6 5.99667 0.126247 0
M  V30 6516 H 613.279 6.46558 -0.239014 0
M  V30 6517 N 613.412 0.11024 1.57214 0
M  V30 6518 C 614.375 -0.828808 2.1369 0
M  V30 6519 C 615.375 -1.20059 1.06969 0
M  V30 6520 O 616.565 -1.12754 1.32786 0
M  V30 6521 C 613.697 -2.11959 2.66994 0
M  V30 6522 H 614.89 -0.338146 2.97988 0
M  V30 6523 H 612.443 -0.138913 1.55681 0
M  V30 6524 H 613.178 -2.65476 1.8626 0
M  V30 6525 H 612.963 -1.86258 3.45037 0
M  V30 6526 H 614.453 -2.79105 3.10629 0
M  V30 6527 N 614.89 -1.56749 -0.16351 0
M  V30 6528 C 616.13 -1.84234 -0.885271 0
M  V30 6529 C 616.494 -0.692259 -1.79086 0
M  V30 6530 O 617.695 -0.847747 -2.55082 0
M  V30 6531 C 615.966 -3.16857 -1.65337 0
M  V30 6532 S 617.525 -3.65848 -2.42282 0
M  V30 6533 H 614.343 -0.646293 -0.296354 0
M  V30 6534 H 616.945 -1.94951 -0.146365 0
M  V30 6535 H 615.649 -3.98546 -0.979266 0
M  V30 6536 H 615.18 -3.09102 -2.4335 0
M  V30 6537 H 617.195 -3.33796 -3.67143 0
M  V30 6538 N 616.368 0.432326 -1.51554 0
M  V30 6539 C 617.645 1.19288 -1.55015 0
M  V30 6540 C 618.025 2.08701 -0.317375 0
M  V30 6541 O 617.373 2.17602 0.697243 0
M  V30 6542 C 617.583 1.99037 -2.86679 0
M  V30 6543 C 618.931 2.55907 -3.38817 0
M  V30 6544 O 619.955 2.09243 -2.88263 0
M  V30 6545 O 618.814 3.41029 -4.27038 0
M  V30 6546 H 615.908 0.543369 -0.623441 0
M  V30 6547 H 618.454 0.440988 -1.6387 0
M  V30 6548 H 617.226 1.33397 -3.6786 0
M  V30 6549 H 616.849 2.81281 -2.8101 0
M  V30 6550 N 617.846 1.41785 0.688094 0
M  V30 6551 C 618.756 1.46596 1.83158 0
M  V30 6552 C 619.772 0.355862 1.70322 0
M  V30 6553 O 620.948 0.604737 1.92106 0
M  V30 6554 C 618.013 1.35322 3.192 0
M  V30 6555 C 617.074 2.56711 3.4409 0
M  V30 6556 C 616.307 2.45965 4.73642 0
M  V30 6557 O 616.53 1.48827 5.50642 0
M  V30 6558 O 615.464 3.35859 4.99482 0
M  V30 6559 H 619.29 2.43083 1.82056 0
M  V30 6560 H 616.875 1.23404 0.842126 0
M  V30 6561 H 618.757 1.31347 4.00407 0
M  V30 6562 H 617.432 0.419536 3.2097 0
M  V30 6563 H 616.339 2.66262 2.62784 0
M  V30 6564 H 617.672 3.48933 3.47141 0
M  V30 6565 N 619.324 -0.923095 1.27737 0
M  V30 6566 C 620.234 -2.05765 1.12685 0
M  V30 6567 C 621.25 -1.73911 0.0557197 0
M  V30 6568 O 622.426 -1.99674 0.263137 0
M  V30 6569 C 619.491 -3.37804 0.780363 0
M  V30 6570 C 618.552 -3.83326 1.93286 0
M  V30 6571 C 617.785 -5.09064 1.60281 0
M  V30 6572 O 618.008 -5.6809 0.512828 0
M  V30 6573 O 616.942 -5.50071 2.44347 0
M  V30 6574 H 620.768 -2.21378 2.07907 0
M  V30 6575 H 618.353 -1.04299 1.06968 0
M  V30 6576 H 620.235 -4.17097 0.600668 0
M  V30 6577 H 618.91 -3.23387 -0.142291 0
M  V30 6578 H 617.817 -3.049 2.16764 0
M  V30 6579 H 619.15 -4.02292 2.83588 0
M  V30 6580 N 620.802 -1.09834 -1.13024 0
M  V30 6581 C 622.049 -0.83695 -1.84395 0
M  V30 6582 C 622.377 0.637463 -1.83757 0
M  V30 6583 O 621.632 1.48554 -1.27398 0
M  V30 6584 C 621.931 -1.32263 -3.32026 0
M  V30 6585 C 621.597 -2.80739 -3.52841 0
M  V30 6586 C 620.259 -3.21286 -3.5823 0
M  V30 6587 C 622.611 -3.76449 -3.60466 0
M  V30 6588 C 619.939 -4.56308 -3.68781 0
M  V30 6589 C 622.291 -5.11266 -3.72546 0
M  V30 6590 C 620.955 -5.51397 -3.76189 0
M  V30 6591 H 620.225 -0.306262 -0.674748 0
M  V30 6592 H 622.872 -1.37385 -1.33408 0
M  V30 6593 H 621.177 -0.705618 -3.85394 0
M  V30 6594 H 622.874 -1.09695 -3.85705 0
M  V30 6595 H 619.464 -2.48363 -3.49305 0
M  V30 6596 H 623.648 -3.46234 -3.55578 0
M  V30 6597 H 618.904 -4.86832 -3.69871 0
M  V30 6598 H 623.078 -5.85279 -3.77388 0
M  V30 6599 H 620.705 -6.56017 -3.84117 0
M  V30 6600 N 622.28 1.30327 -0.886154 0
M  V30 6601 C 623.505 2.0079 -0.519425 0
M  V30 6602 C 623.93 1.65979 0.885013 0
M  V30 6603 O 623.288 0.877043 1.58675 0
M  V30 6604 C 623.336 3.53686 -0.702758 0
M  V30 6605 O 622.44 4.11637 0.250828 0
M  V30 6606 H 621.781 0.63171 -0.204544 0
M  V30 6607 H 624.311 1.66145 -1.19402 0
M  V30 6608 H 624.321 4.03531 -0.602207 0
M  V30 6609 H 622.996 3.78361 -1.72673 0
M  V30 6610 H 621.573 3.72755 0.103873 0
M  V30 6611 N 623.758 0.647228 1.43697 0
M  V30 6612 C 625.035 0.0883758 1.954 0
M  V30 6613 C 625.415 -1.39006 1.58873 0
M  V30 6614 O 624.763 -2.11255 0.87083 0
M  V30 6615 C 624.973 0.328263 3.47453 0
M  V30 6616 C 626.321 0.230009 4.23977 0
M  V30 6617 O 627.345 0.260496 3.55246 0
M  V30 6618 O 626.204 0.148615 5.46298 0
M  V30 6619 H 623.298 -0.0130683 0.826897 0
M  V30 6620 H 625.844 0.72005 1.53666 0
M  V30 6621 H 624.616 1.3535 3.67146 0
M  V30 6622 H 624.239 -0.336772 3.96171 0
M  V30 6623 N 625.236 -1.5273 0.388769 0
M  V30 6624 C 626.461 -2.0647 -0.19621 0
M  V30 6625 C 626.886 -1.25865 -1.39784 0
M  V30 6626 O 626.244 -0.283562 -1.79069 0
M  V30 6627 C 626.292 -3.56456 -0.5451 0
M  V30 6628 O 625.396 -3.78426 -1.63912 0
M  V30 6629 H 624.737 -0.663599 -0.023067 0
M  V30 6630 H 627.267 -1.96898 0.556084 0
M  V30 6631 H 627.277 -3.99888 -0.809557 0
M  V30 6632 H 625.952 -4.14561 0.333417 0
M  V30 6633 H 624.529 -3.46884 -1.36842 0
M  V30 6634 N 626.714 -0.118576 -1.57153 0
M  V30 6635 C 627.624 0.845484 -2.18835 0
M  V30 6636 C 628.64 1.29299 -1.16438 0
M  V30 6637 O 629.816 1.35607 -1.48905 0
M  V30 6638 C 626.881 2.07795 -2.77529 0
M  V30 6639 C 625.942 1.6824 -3.9496 0
M  V30 6640 C 625.175 2.85612 -4.50845 0
M  V30 6641 O 625.398 4.01025 -4.05629 0
M  V30 6642 O 624.332 2.62721 -5.41536 0
M  V30 6643 H 628.158 0.350568 -3.0167 0
M  V30 6644 H 625.743 0.107013 -1.49016 0
M  V30 6645 H 627.625 2.79978 -3.14945 0
M  V30 6646 H 626.3 2.56294 -1.97725 0
M  V30 6647 H 625.207 0.931663 -3.62313 0
M  V30 6648 H 626.54 1.24484 -4.76198 0
M  V30 6649 N 628.193 1.56834 0.155195 0
M  V30 6650 C 629.47 1.73799 0.897395 0
M  V30 6651 C 629.85 0.684379 1.99698 0
M  V30 6652 O 629.198 -0.298111 2.26547 0
M  V30 6653 C 629.408 3.17572 1.44737 0
M  V30 6654 C 630.756 3.79014 1.91399 0
M  V30 6655 O 631.78 3.20951 1.54496 0
M  V30 6656 O 630.639 4.80998 2.59429 0
M  V30 6657 H 627.733 0.710329 0.423511 0
M  V30 6658 H 630.279 1.69107 0.141761 0
M  V30 6659 H 629.051 3.85749 0.656741 0
M  V30 6660 H 628.674 3.26657 2.26674 0
M  V30 6661 N 629.671 -0.424282 1.51781 0
M  V30 6662 C 630.581 -1.54087 1.76902 0
M  V30 6663 C 631.597 -1.61249 0.653826 0
M  V30 6664 O 632.773 -1.78247 0.937552 0
M  V30 6665 C 629.838 -2.8996 1.90063 0
M  V30 6666 C 628.899 -2.92809 3.13945 0
M  V30 6667 C 628.132 -4.22201 3.26469 0
M  V30 6668 O 628.355 -5.15286 2.44616 0
M  V30 6669 O 627.289 -4.31599 4.1953 0
M  V30 6670 H 631.115 -1.358 2.71647 0
M  V30 6671 H 628.7 -0.608618 1.36441 0
M  V30 6672 H 630.582 -3.70575 2.0063 0
M  V30 6673 H 629.257 -3.08347 0.985067 0
M  V30 6674 H 628.164 -2.11102 3.08847 0
M  V30 6675 H 629.497 -2.79369 4.05233 0
M  V30 6676 N 631.149 -1.42148 -0.680565 0
M  V30 6677 C 632.397 -1.42029 -1.43779 0
M  V30 6678 C 632.718 -0.0356347 -1.94967 0
M  V30 6679 O 631.988 0.924936 -1.7269 0
M  V30 6680 H 630.568 -0.522835 -0.533529 0
M  V30 6681 H 633.23 -1.7752 -0.804538 0
M  V30 6682 H 632.326 -2.11658 -2.29363 0
M  V30 6683 N 632.627 0.916307 -1.28225 0
M  V30 6684 C 633.537 2.05165 -1.13775 0
M  V30 6685 C 634.553 1.73879 -0.0649418 0
M  V30 6686 O 635.729 1.99531 -0.273722 0
M  V30 6687 C 632.794 3.37385 -0.798267 0
M  V30 6688 C 631.855 3.82296 -1.95316 0
M  V30 6689 C 631.088 5.08206 -1.62978 0
M  V30 6690 O 631.311 5.6781 -0.542948 0
M  V30 6691 O 630.245 5.48768 -2.47261 0
M  V30 6692 H 634.071 2.20273 -2.09078 0
M  V30 6693 H 631.656 1.0373 -1.07519 0
M  V30 6694 H 633.538 4.16773 -0.62278 0
M  V30 6695 H 632.213 3.23458 0.125139 0
M  V30 6696 H 631.12 3.03746 -2.18378 0
M  V30 6697 H 632.453 4.00782 -2.85718 0
M  V30 6698 N 634.105 1.10431 1.1244 0
M  V30 6699 C 635.353 0.845045 1.83585 0
M  V30 6700 C 635.674 -0.631168 1.84503 0
M  V30 6701 O 634.944 -1.45825 1.30813 0
M  V30 6702 H 633.524 0.309628 0.679809 0
M  V30 6703 H 636.186 1.39458 1.36153 0
M  V30 6704 H 635.282 1.20786 2.8778 0
M  V30 6705 N 635.583 -1.29855 0.893053 0
M  V30 6706 C 636.831 -1.9544 0.514566 0
M  V30 6707 C 637.152 -1.70795 -0.940959 0
M  V30 6708 O 636.422 -1.03601 -1.66264 0
M  V30 6709 H 635.002 -0.723137 0.187302 0
M  V30 6710 H 637.664 -1.58234 1.13789 0
M  V30 6711 H 636.76 -3.04341 0.691581 0
M  V30 6712 N 637.061 -0.65484 -1.43351 0
M  V30 6713 C 638.477 -0.32255 -1.56307 0
M  V30 6714 C 638.677 1.17324 -1.63821 0
M  V30 6715 O 637.733 1.95813 -1.59417 0
M  V30 6716 C 639.046 -1.03533 -2.82314 0
M  V30 6717 C 640.594 -1.01574 -2.9606 0
M  V30 6718 C 641.069 -1.70945 -4.24902 0
M  V30 6719 N 642.56 -1.67716 -4.3177 0
M  V30 6720 C 643.295 -2.18265 -5.30234 0
M  V30 6721 N 642.791 -2.7711 -6.34966 0
M  V30 6722 N 644.584 -2.08756 -5.21898 0
M  V30 6723 H 636.735 -1.62549 -1.36717 0
M  V30 6724 H 638.998 -0.683676 -0.656727 0
M  V30 6725 H 638.704 -2.09045 -2.8283 0
M  V30 6726 H 638.578 -0.587913 -3.7259 0
M  V30 6727 H 640.965 0.0309834 -2.95084 0
M  V30 6728 H 641.046 -1.50186 -2.07069 0
M  V30 6729 H 640.69 -2.75574 -4.26639 0
M  V30 6730 H 640.62 -1.19797 -5.12793 0
M  V30 6731 H 643.111 -1.24777 -3.56706 0
M  V30 6732 H 643.424 -3.13353 -7.06421 0
M  V30 6733 H 641.769 -2.81171 -6.35585 0
M  V30 6734 H 644.96 -1.62488 -4.38994 0
M  V30 6735 H 645.133 -2.48459 -5.98475 0
M  V30 6736 N 638.539 1.52521 -0.396863 0
M  V30 6737 C 639.955 1.5953 -0.0471659 0
M  V30 6738 C 640.155 1.41044 1.43906 0
M  V30 6739 O 639.211 1.23122 2.20448 0
M  V30 6740 C 640.524 2.95972 -0.531113 0
M  V30 6741 C 642.072 3.09172 -0.488024 0
M  V30 6742 C 642.547 4.48075 -0.948281 0
M  V30 6743 N 644.038 4.54281 -0.9046 0
M  V30 6744 C 644.773 5.60007 -1.23205 0
M  V30 6745 N 644.269 6.73343 -1.63036 0
M  V30 6746 N 646.062 5.50151 -1.15282 0
M  V30 6747 H 638.213 1.62786 -1.36435 0
M  V30 6748 H 640.476 0.76514 -0.559701 0
M  V30 6749 H 640.182 3.14741 -1.56942 0
M  V30 6750 H 640.056 3.77143 0.0657922 0
M  V30 6751 H 642.443 2.90095 0.541211 0
M  V30 6752 H 642.524 2.29937 -1.12083 0
M  V30 6753 H 642.168 4.67894 -1.97578 0
M  V30 6754 H 642.098 5.25788 -0.292412 0
M  V30 6755 H 644.589 3.72918 -0.6116 0
M  V30 6756 H 644.902 7.49992 -1.86365 0
M  V30 6757 H 643.247 6.74655 -1.66929 0
M  V30 6758 H 646.438 4.6049 -0.840602 0
M  V30 6759 H 646.611 6.32444 -1.41133 0
M  V30 6760 N 640.017 0.126909 1.57088 0
M  V30 6761 C 640.965 -0.837618 2.16995 0
M  V30 6762 C 641.959 -1.26974 1.12133 0
M  V30 6763 O 643.165 -1.24056 1.30423 0
M  V30 6764 H 639.54 -0.288256 0.694559 0
M  V30 6765 H 641.511 -0.307957 2.96807 0
M  V30 6766 C 640.26 -2.07474 2.79016 0
M  V30 6767 H 639.583 -1.75117 3.59408 0
M  V30 6768 H 641.023 -2.72949 3.24461 0
M  V30 6769 C 639.482 -2.86967 1.76498 0
M  V30 6770 O 640.012 -3.82625 1.22316 0
M  V30 6771 N 638.218 -2.51111 1.46258 0
M  V30 6772 H 637.765 -1.73389 1.90509 0
M  V30 6773 H 637.723 -3.04594 0.779085 0
M  V30 6774 N 641.495 -1.56914 -0.146875 0
M  V30 6775 C 642.741 -1.83628 -0.860741 0
M  V30 6776 C 643.074 -0.708528 -1.80813 0
M  V30 6777 O 642.349 0.287838 -1.92358 0
M  V30 6778 C 642.632 -3.20836 -1.63511 0
M  V30 6779 C 642.485 -4.44174 -0.709199 0
M  V30 6780 C 643.804 -3.55268 -2.59756 0
M  V30 6781 H 640.923 -0.667949 -0.311468 0
M  V30 6782 H 643.565 -1.89582 -0.125936 0
M  V30 6783 H 641.715 -3.15891 -2.26153 0
M  V30 6784 H 643.387 -4.61205 -0.0937781 0
M  V30 6785 H 641.63 -4.33796 -0.0187856 0
M  V30 6786 H 642.301 -5.36785 -1.28707 0
M  V30 6787 H 644.777 -3.60824 -2.07232 0
M  V30 6788 H 643.653 -4.52303 -3.10987 0
M  V30 6789 H 643.914 -2.81231 -3.41118 0
M  V30 6790 N 642.974 0.416227 -1.52004 0
M  V30 6791 C 643.937 1.48926 -1.74223 0
M  V30 6792 C 644.937 1.48693 -0.612119 0
M  V30 6793 O 646.127 1.50343 -0.879921 0
M  V30 6794 C 643.259 2.88372 -1.81809 0
M  V30 6795 H 644.452 1.3052 -2.70008 0
M  V30 6796 H 642.005 0.646271 -1.42313 0
M  V30 6797 H 642.74 3.12157 -0.879135 0
M  V30 6798 H 642.525 2.89944 -2.6396 0
M  V30 6799 H 644.015 3.66173 -2.00766 0
M  V30 6800 N 644.452 1.42507 0.673017 0
M  V30 6801 C 645.729 1.33554 1.42908 0
M  V30 6802 C 646.109 -0.0262211 2.11084 0
M  V30 6803 O 645.457 -1.04181 2.03368 0
M  V30 6804 C 645.667 2.50498 2.43006 0
M  V30 6805 C 647.015 2.92694 3.07596 0
M  V30 6806 O 648.039 2.50401 2.53333 0
M  V30 6807 O 646.898 3.65899 4.05931 0
M  V30 6808 H 643.992 0.526785 0.637516 0
M  V30 6809 H 646.538 1.54518 0.701591 0
M  V30 6810 H 645.31 3.41272 1.9144 0
M  V30 6811 H 644.933 2.3153 3.23233 0
M  V30 6812 N 645.93 -0.909495 1.28709 0
M  V30 6813 C 646.88 -1.9991 1.09636 0
M  V30 6814 C 647.864 -1.60889 0.01872 0
M  V30 6815 O 649.056 -1.75374 0.239338 0
M  V30 6816 C 646.185 -3.34675 0.764702 0
M  V30 6817 C 645.271 -3.80085 1.8814 0
M  V30 6818 N 645.662 -3.97824 3.12361 0
M  V30 6819 C 643.96 -4.09278 1.77221 0
M  V30 6820 C 644.661 -4.35928 3.85151 0
M  V30 6821 N 643.637 -4.44426 3.13028 0
M  V30 6822 H 647.439 -2.11681 2.03883 0
M  V30 6823 H 644.953 -1.09763 1.1969 0
M  V30 6824 H 646.95 -4.12426 0.609132 0
M  V30 6825 H 645.61 -3.24255 -0.169952 0
M  V30 6826 H 646.621 -3.83626 3.47925 0
M  V30 6827 H 643.298 -4.0747 0.909621 0
M  V30 6828 H 644.688 -4.57581 4.92006 0
M  V30 6829 N 647.408 -1.11026 -1.11852 0
M  V30 6830 C 648.355 -0.764662 -2.17765 0
M  V30 6831 C 649.325 0.261854 -1.64023 0
M  V30 6832 O 650.51 0.139748 -1.90288 0
M  V30 6833 C 647.65 -0.209317 -3.44465 0
M  V30 6834 C 646.763 -1.29187 -4.12231 0
M  V30 6835 C 645.898 -0.697523 -5.266 0
M  V30 6836 C 644.937 -1.76023 -5.86244 0
M  V30 6837 N 644.074 -1.18569 -6.92016 0
M  V30 6838 H 648.914 -1.67202 -2.46673 0
M  V30 6839 H 646.451 -0.835065 -1.21099 0
M  V30 6840 H 648.409 0.130599 -4.16996 0
M  V30 6841 H 647.039 0.661251 -3.15955 0
M  V30 6842 H 646.091 -1.74881 -3.37818 0
M  V30 6843 H 647.403 -2.09607 -4.52622 0
M  V30 6844 H 646.557 -0.307412 -6.05921 0
M  V30 6845 H 645.296 0.138044 -4.87505 0
M  V30 6846 H 644.301 -2.1597 -5.05606 0
M  V30 6847 H 645.526 -2.59875 -6.27409 0
M  V30 6848 H 643.472 -0.371695 -6.54946 0
M  V30 6849 H 643.389 -1.92666 -7.31038 0
M  V30 6850 H 644.657 -0.82233 -7.7515 0
M  V30 6851 N 648.886 1.2938 -0.899927 0
M  V30 6852 C 649.833 2.27713 -0.376243 0
M  V30 6853 C 650.803 1.57016 0.541774 0
M  V30 6854 O 651.988 1.84997 0.466966 0
M  V30 6855 C 649.128 3.42889 0.39 0
M  V30 6856 C 648.241 4.28369 -0.558938 0
M  V30 6857 C 647.376 5.30726 0.224379 0
M  V30 6858 C 646.415 6.07862 -0.719068 0
M  V30 6859 N 645.552 7.02094 0.0298569 0
M  V30 6860 H 650.392 2.71888 -1.21988 0
M  V30 6861 H 647.929 1.33724 -0.612879 0
M  V30 6862 H 649.887 4.08443 0.850314 0
M  V30 6863 H 648.517 2.99743 1.19809 0
M  V30 6864 H 647.569 3.62986 -1.13777 0
M  V30 6865 H 648.881 4.82068 -1.2811 0
M  V30 6866 H 648.035 6.02098 0.745881 0
M  V30 6867 H 646.774 4.77759 0.979674 0
M  V30 6868 H 645.779 5.35353 -1.25207 0
M  V30 6869 H 647.004 6.62917 -1.4737 0
M  V30 6870 H 644.95 6.51496 0.767415 0
M  V30 6871 H 644.867 7.5335 -0.632391 0
M  V30 6872 H 646.135 7.77685 0.531615 0
M  V30 6873 N 650.364 0.662433 1.43002 0
M  V30 6874 C 651.612 0.179237 2.01304 0
M  V30 6875 C 651.933 -1.21428 1.52579 0
M  V30 6876 O 651.203 -1.81294 0.742252 0
M  V30 6877 H 649.783 0.0632725 0.744316 0
M  V30 6878 H 652.445 0.856169 1.75088 0
M  V30 6879 H 651.541 0.170957 3.11631 0
M  V30 6880 N 651.842 -1.52309 0.404946 0
M  V30 6881 C 652.805 -2.25491 -0.410651 0
M  V30 6882 C 653.805 -1.27704 -0.977154 0
M  V30 6883 O 654.995 -1.51679 -0.856691 0
M  V30 6884 C 652.127 -3.02197 -1.57765 0
M  V30 6885 H 653.32 -2.99015 0.230277 0
M  V30 6886 H 650.873 -1.55506 0.157377 0
M  V30 6887 H 651.608 -2.33013 -2.25556 0
M  V30 6888 H 651.393 -3.73987 -1.17797 0
M  V30 6889 H 652.883 -3.57719 -2.15469 0
M  V30 6890 N 653.32 -0.135238 -1.57019 0
M  V30 6891 C 654.267 0.808908 -2.1616 0
M  V30 6892 C 655.237 1.25234 -1.09113 0
M  V30 6893 O 656.422 1.32697 -1.37099 0
M  V30 6894 C 653.562 2.04729 -2.77813 0
M  V30 6895 C 652.675 1.65074 -3.99218 0
M  V30 6896 C 651.81 2.84002 -4.48906 0
M  V30 6897 C 650.849 2.40663 -5.62803 0
M  V30 6898 N 649.986 3.5256 -6.07162 0
M  V30 6899 H 654.826 0.297751 -2.96509 0
M  V30 6900 H 652.363 0.135264 -1.46477 0
M  V30 6901 H 654.321 2.7731 -3.11697 0
M  V30 6902 H 652.951 2.53275 -2.00128 0
M  V30 6903 H 652.003 0.823029 -3.7139 0
M  V30 6904 H 653.315 1.29236 -4.81767 0
M  V30 6905 H 652.469 3.64788 -4.84783 0
M  V30 6906 H 651.208 3.23076 -3.65339 0
M  V30 6907 H 650.213 1.58314 -5.26514 0
M  V30 6908 H 651.438 2.02687 -6.48147 0
M  V30 6909 H 649.384 3.91278 -5.26534 0
M  V30 6910 H 649.301 3.20699 -6.84608 0
M  V30 6911 H 650.569 4.33738 -6.47682 0
M  V30 6912 N 654.798 1.5699 0.138552 0
M  V30 6913 C 655.745 1.98899 1.17081 0
M  V30 6914 C 656.715 0.857922 1.42228 0
M  V30 6915 O 657.9 1.12065 1.54422 0
M  V30 6916 C 655.04 2.38189 2.4972 0
M  V30 6917 C 654.153 3.64624 2.31674 0
M  V30 6918 C 653.288 3.9298 3.57407 0
M  V30 6919 C 652.327 5.1266 3.34435 0
M  V30 6920 N 651.464 5.36983 4.5232 0
M  V30 6921 H 656.304 2.86881 0.80642 0
M  V30 6922 H 653.841 1.41925 0.386727 0
M  V30 6923 H 655.799 2.59 3.2707 0
M  V30 6924 H 654.429 1.53275 2.84089 0
M  V30 6925 H 653.481 3.51542 1.45337 0
M  V30 6926 H 654.793 4.52131 2.10664 0
M  V30 6927 H 653.947 4.14335 4.43183 0
M  V30 6928 H 652.686 3.03912 3.8143 0
M  V30 6929 H 651.691 4.9117 2.47048 0
M  V30 6930 H 652.916 6.03288 3.11802 0
M  V30 6931 H 650.862 4.50871 4.76499 0
M  V30 6932 H 650.779 6.18775 4.34343 0
M  V30 6933 H 652.047 5.62842 5.39285 0
M  V30 6934 N 656.276 -0.40816 1.52223 0
M  V30 6935 C 657.239 -1.48 1.7501 0
M  V30 6936 C 658.239 -1.48367 0.619996 0
M  V30 6937 O 659.429 -1.49874 0.887881 0
M  V30 6938 C 656.561 -2.87403 1.83336 0
M  V30 6939 H 657.754 -1.29086 2.70697 0
M  V30 6940 H 655.307 -0.638715 1.42654 0
M  V30 6941 H 656.042 -3.11686 0.895677 0
M  V30 6942 H 655.827 -2.8854 2.65494 0
M  V30 6943 H 657.317 -3.65103 2.02705 0
M  V30 6944 N 657.755 -1.42862 -0.66545 0
M  V30 6945 C 659.171 -1.25993 -0.979687 0
M  V30 6946 C 659.371 -0.170831 -2.00775 0
M  V30 6947 O 658.427 0.454827 -2.4837 0
M  V30 6948 C 659.74 -2.62005 -1.47559 0
M  V30 6949 C 661.288 -2.69437 -1.59288 0
M  V30 6950 C 661.763 -4.05838 -2.12272 0
M  V30 6951 N 663.254 -4.0784 -2.19592 0
M  V30 6952 C 663.989 -5.10205 -2.61684 0
M  V30 6953 N 663.485 -6.22949 -3.03161 0
M  V30 6954 N 665.278 -4.9756 -2.61516 0
M  V30 6955 H 657.429 -2.12395 0.0150493 0
M  V30 6956 H 659.692 -0.946355 -0.0558187 0
M  V30 6957 H 659.398 -3.42605 -0.794654 0
M  V30 6958 H 659.272 -2.86566 -2.45275 0
M  V30 6959 H 661.659 -1.89178 -2.26486 0
M  V30 6960 H 661.74 -2.48655 -0.600374 0
M  V30 6961 H 661.384 -4.86559 -1.4568 0
M  V30 6962 H 661.314 -4.23977 -3.12331 0
M  V30 6963 H 663.805 -3.26452 -1.90361 0
M  V30 6964 H 664.118 -6.96899 -3.33993 0
M  V30 6965 H 662.463 -6.2644 -3.00995 0
M  V30 6966 H 665.654 -4.08551 -2.28481 0
M  V30 6967 H 665.827 -5.77468 -2.93999 0
M  V30 6968 N 659.233 0.902656 -1.29189 0
M  V30 6969 C 660.482 1.6475 -1.16362 0
M  V30 6970 C 660.795 1.93517 0.284682 0
M  V30 6971 O 662.001 2.66192 0.534229 0
M  V30 6972 C 660.457 2.96848 -2.03493 0
M  V30 6973 C 660.065 2.75687 -3.5313 0
M  V30 6974 C 661.809 3.74762 -1.99383 0
M  V30 6975 C 659.716 4.03492 -4.32375 0
M  V30 6976 H 658.646 0.618041 -0.431904 0
M  V30 6977 H 661.297 1.0008 -1.53806 0
M  V30 6978 H 659.679 3.62715 -1.58916 0
M  V30 6979 H 660.853 2.18431 -4.05739 0
M  V30 6980 H 659.168 2.11171 -3.58881 0
M  V30 6981 H 661.765 4.69515 -2.5585 0
M  V30 6982 H 662.108 4.04767 -0.973123 0
M  V30 6983 H 662.641 3.15732 -2.41988 0
M  V30 6984 H 659.38 3.78656 -5.3507 0
M  V30 6985 H 658.9 4.60318 -3.84535 0
M  V30 6986 H 660.579 4.71662 -4.42881 0
M  V30 6987 N 660.711 1.11618 1.11262 0
M  V30 6988 C 661.621 0.78898 2.20935 0
M  V30 6989 C 662.637 -0.21867 1.7262 0
M  V30 6990 O 663.813 -0.0543826 2.01327 0
M  V30 6991 C 660.878 0.239014 3.45875 0
M  V30 6992 C 659.939 1.3055 4.08968 0
M  V30 6993 C 659.172 0.781687 5.27944 0
M  V30 6994 O 659.395 -0.387605 5.69082 0
M  V30 6995 O 658.329 1.54734 5.81671 0
M  V30 6996 H 662.155 1.70477 2.51339 0
M  V30 6997 H 659.74 0.892203 1.19834 0
M  V30 6998 H 661.622 -0.0632312 4.21353 0
M  V30 6999 H 660.297 -0.649454 3.17118 0
M  V30 7000 H 659.204 1.66079 3.35214 0
M  V30 7001 H 660.537 2.16743 4.41909 0
M  V30 7002 N 662.189 -1.289 0.906776 0
M  V30 7003 C 663.099 -2.31256 0.394707 0
M  V30 7004 C 664.115 -1.66231 -0.514121 0
M  V30 7005 O 665.291 -1.97347 -0.401994 0
M  V30 7006 C 662.356 -3.44792 -0.363191 0
M  V30 7007 C 661.417 -4.25391 0.578012 0
M  V30 7008 C 660.65 -5.33506 -0.143811 0
M  V30 7009 O 660.873 -5.53786 -1.36665 0
M  V30 7010 O 659.807 -5.99673 0.5173 0
M  V30 7011 H 663.633 -2.77051 1.24405 0
M  V30 7012 H 661.218 -1.33466 0.671346 0
M  V30 7013 H 663.1 -4.139 -0.791503 0
M  V30 7014 H 661.775 -3.01093 -1.18848 0
M  V30 7015 H 660.682 -3.58899 1.05558 0
M  V30 7016 H 662.015 -4.72752 1.36992 0
M  V30 7017 N 663.667 -0.670007 -1.42649 0
M  V30 7018 C 664.944 -0.119451 -1.95235 0
M  V30 7019 C 665.324 1.36461 -1.61064 0
M  V30 7020 O 664.672 2.09843 -0.904329 0
M  V30 7021 C 664.882 -0.383498 -3.46887 0
M  V30 7022 C 666.23 -0.297431 -4.23557 0
M  V30 7023 O 667.254 -0.31698 -3.54787 0
M  V30 7024 O 666.113 -0.235507 -5.45992 0
M  V30 7025 H 663.207 -8.85474e-05 -0.827 0
M  V30 7026 H 665.753 -0.744406 -1.52501 0
M  V30 7027 H 664.525 -1.41174 -3.64946 0
M  V30 7028 H 664.148 0.273702 -3.96657 0
M  V30 7029 N 665.145 1.52092 -0.413018 0
M  V30 7030 C 666.092 2.27119 0.410558 0
M  V30 7031 C 667.062 1.29692 1.03774 0
M  V30 7032 O 668.247 1.58561 1.06128 0
M  V30 7033 C 665.387 3.09863 1.51918 0
M  V30 7034 C 664.5 4.22252 0.912528 0
M  V30 7035 C 663.635 4.92348 1.99417 0
M  V30 7036 C 662.674 5.96694 1.36466 0
M  V30 7037 N 661.811 6.60292 2.38661 0
M  V30 7038 H 666.651 2.97067 -0.235661 0
M  V30 7039 H 664.188 1.46542 -0.128055 0
M  V30 7040 H 666.146 3.56144 2.17295 0
M  V30 7041 H 664.776 2.42078 2.13537 0
M  V30 7042 H 663.828 3.80113 0.147697 0
M  V30 7043 H 665.14 4.9709 0.412717 0
M  V30 7044 H 664.294 5.42054 2.72512 0
M  V30 7045 H 663.033 4.17087 2.52764 0
M  V30 7046 H 662.038 5.46304 0.61906 0
M  V30 7047 H 663.263 6.73899 0.838827 0
M  V30 7048 H 661.209 5.87858 2.91134 0
M  V30 7049 H 661.126 7.30816 1.93503 0
M  V30 7050 H 662.394 7.14635 3.11314 0
M  V30 7051 N 666.623 0.143563 1.56945 0
M  V30 7052 C 667.57 -0.797433 2.16586 0
M  V30 7053 C 668.54 -1.24654 1.09775 0
M  V30 7054 O 669.725 -1.31968 1.37801 0
M  V30 7055 C 666.865 -2.03253 2.78895 0
M  V30 7056 C 665.978 -1.62954 4.00087 0
M  V30 7057 C 665.113 -2.81617 4.50406 0
M  V30 7058 C 664.152 -2.37675 5.64072 0
M  V30 7059 N 663.289 -3.49335 6.09023 0
M  V30 7060 H 668.129 -0.282023 2.96662 0
M  V30 7061 H 665.666 -0.127494 1.46546 0
M  V30 7062 H 667.624 -2.75653 3.13163 0
M  V30 7063 H 666.254 -2.52211 2.01469 0
M  V30 7064 H 665.306 -0.803322 3.71821 0
M  V30 7065 H 666.618 -1.26679 4.82446 0
M  V30 7066 H 665.772 -3.62212 4.86711 0
M  V30 7067 H 664.511 -3.21134 3.67048 0
M  V30 7068 H 663.516 -1.55519 5.27346 0
M  V30 7069 H 664.741 -1.99247 6.49213 0
M  V30 7070 H 662.687 -3.8848 5.28601 0
M  V30 7071 H 662.604 -3.17064 6.86299 0
M  V30 7072 H 663.872 -4.30297 6.49973 0
M  V30 7073 N 668.101 -1.57061 -0.130224 0
M  V30 7074 C 669.011 -2.02802 -1.17934 0
M  V30 7075 C 670.027 -0.946378 -1.46013 0
M  V30 7076 O 671.203 -1.25708 -1.57351 0
M  V30 7077 C 668.268 -2.41368 -2.48882 0
M  V30 7078 C 667.329 -3.63561 -2.28301 0
M  V30 7079 C 666.562 -4.00279 -3.53005 0
M  V30 7080 O 666.785 -3.37463 -4.59864 0
M  V30 7081 O 665.719 -4.93441 -3.44673 0
M  V30 7082 H 669.545 -2.92394 -0.820958 0
M  V30 7083 H 667.13 -1.45475 -0.340197 0
M  V30 7084 H 669.012 -2.66958 -3.26054 0
M  V30 7085 H 667.687 -1.54926 -2.84217 0
M  V30 7086 H 666.594 -3.43136 -1.49025 0
M  V30 7087 H 667.927 -4.50673 -1.97875 0
M  V30 7088 N 669.579 0.400081 -1.52437 0
M  V30 7089 C 670.807 1.16768 -1.70801 0
M  V30 7090 C 671.222 1.84036 -0.421462 0
M  V30 7091 O 670.579 1.72242 0.603228 0
M  V30 7092 C 670.63 2.22403 -2.8499 0
M  V30 7093 O 670.351 1.57879 -4.08663 0
M  V30 7094 C 671.852 3.11974 -3.1494 0
M  V30 7095 H 669.072 0.350533 -0.57216 0
M  V30 7096 H 671.616 0.469534 -1.99037 0
M  V30 7097 H 669.771 2.87871 -2.59247 0
M  V30 7098 H 670.185 2.27982 -4.7236 0
M  V30 7099 H 671.659 3.82148 -3.9833 0
M  V30 7100 H 672.136 3.74858 -2.28863 0
M  V30 7101 H 672.742 2.52165 -3.42481 0
M  V30 7102 N 671.057 1.43213 0.657864 0
M  V30 7103 C 671.967 1.50448 1.80007 0
M  V30 7104 C 672.983 0.39191 1.69529 0
M  V30 7105 O 674.159 0.645349 1.90781 0
M  V30 7106 C 671.224 1.42062 3.16258 0
M  V30 7107 C 670.285 2.63951 3.38568 0
M  V30 7108 C 669.518 2.55956 4.68318 0
M  V30 7109 O 669.741 1.60473 5.47361 0
M  V30 7110 O 668.675 3.46378 4.92245 0
M  V30 7111 H 672.501 2.4689 1.76858 0
M  V30 7112 H 670.086 1.25163 0.81576 0
M  V30 7113 H 671.968 1.3981 3.97531 0
M  V30 7114 H 670.643 0.487524 3.20008 0
M  V30 7115 H 669.55 2.71776 2.57077 0
M  V30 7116 H 670.883 3.56217 3.39662 0
M  V30 7117 N 672.536 -0.895792 1.29666 0
M  V30 7118 C 673.813 -1.62723 1.08538 0
M  V30 7119 C 674.193 -2.07848 -0.369119 0
M  V30 7120 O 673.541 -1.8372 -1.35864 0
M  V30 7121 C 673.751 -2.80505 2.07648 0
M  V30 7122 C 675.099 -3.51098 2.3878 0
M  V30 7123 O 676.123 -2.90679 2.05874 0
M  V30 7124 O 674.982 -4.60028 2.9502 0
M  V30 7125 H 672.076 -0.714692 0.416106 0
M  V30 7126 H 674.622 -0.943517 1.41053 0
M  V30 7127 H 673.394 -2.44386 3.05599 0
M  V30 7128 H 673.017 -3.5658 1.75887 0
M  V30 7129 N 674.014 -1.12206 -1.10668 0
M  V30 7130 C 674.961 -0.787716 -2.16942 0
M  V30 7131 C 675.931 0.244442 -1.64291 0
M  V30 7132 O 677.116 0.119558 -1.90425 0
M  V30 7133 C 674.256 -0.24584 -3.44223 0
M  V30 7134 C 673.369 -1.33552 -4.10838 0
M  V30 7135 C 672.504 -0.753337 -5.25831 0
M  V30 7136 C 671.543 -1.82231 -5.84344 0
M  V30 7137 N 670.68 -1.25902 -6.90719 0
M  V30 7138 H 675.52 -1.69809 -2.44885 0
M  V30 7139 H 673.057 -0.847862 -1.20207 0
M  V30 7140 H 675.015 0.0863639 -4.17111 0
M  V30 7141 H 673.645 0.627702 -3.16638 0
M  V30 7142 H 672.697 -1.78454 -3.35944 0
M  V30 7143 H 674.009 -2.14396 -4.50373 0
M  V30 7144 H 673.163 -0.37166 -6.05561 0
M  V30 7145 H 671.902 0.0863297 -4.87624 0
M  V30 7146 H 670.907 -2.2132 -5.03287 0
M  V30 7147 H 672.132 -2.66515 -6.24617 0
M  V30 7148 H 670.078 -0.44114 -6.54515 0
M  V30 7149 H 669.995 -2.00408 -7.28953 0
M  V30 7150 H 671.263 -0.904498 -7.74235 0
M  V30 7151 N 675.492 1.28418 -0.913599 0
M  V30 7152 C 676.439 2.27301 -0.400373 0
M  V30 7153 C 677.409 1.57582 0.52509 0
M  V30 7154 O 678.594 1.85482 0.447318 0
M  V30 7155 C 675.734 3.43284 0.35361 0
M  V30 7156 C 674.847 4.27752 -0.604341 0
M  V30 7157 C 673.982 5.30934 0.168075 0
M  V30 7158 C 673.021 6.07065 -0.783499 0
M  V30 7159 N 672.158 7.02086 -0.0446112 0
M  V30 7160 H 676.998 2.70579 -1.24865 0
M  V30 7161 H 674.535 1.33067 -0.627028 0
M  V30 7162 H 676.493 4.09322 0.806945 0
M  V30 7163 H 675.123 3.00997 1.16623 0
M  V30 7164 H 674.175 3.61759 -1.17621 0
M  V30 7165 H 675.487 4.80682 -1.33216 0
M  V30 7166 H 674.641 6.02855 0.681979 0
M  V30 7167 H 673.38 4.78771 0.928947 0
M  V30 7168 H 672.385 5.33995 -1.30878 0
M  V30 7169 H 673.61 6.61317 -1.54392 0
M  V30 7170 H 671.556 6.52273 0.698272 0
M  V30 7171 H 671.473 7.52637 -0.712258 0
M  V30 7172 H 672.741 7.78205 0.449102 0
M  V30 7173 N 676.97 0.677563 1.42291 0
M  V30 7174 C 678.198 0.209459 2.05837 0
M  V30 7175 C 678.613 -1.13444 1.50917 0
M  V30 7176 O 677.97 -1.70529 0.65008 0
M  V30 7177 C 678.021 0.138819 3.61233 0
M  V30 7178 O 677.742 1.42962 4.14118 0
M  V30 7179 C 679.243 -0.352449 4.41897 0
M  V30 7180 H 676.463 0.101209 0.663323 0
M  V30 7181 H 679.007 0.925077 1.8238 0
M  V30 7182 H 677.162 -0.527505 3.83792 0
M  V30 7183 H 677.576 1.3048 5.08011 0
M  V30 7184 H 679.05 -0.350778 5.50884 0
M  V30 7185 H 679.527 -1.3882 4.16684 0
M  V30 7186 H 680.133 0.282236 4.24362 0
M  V30 7187 N 678.448 -1.51871 0.421078 0
M  V30 7188 C 679.725 -1.9447 -0.20993 0
M  V30 7189 C 680.105 -1.35875 -1.61558 0
M  V30 7190 O 679.453 -0.539294 -2.22045 0
M  V30 7191 C 679.663 -3.48402 -0.204165 0
M  V30 7192 C 681.011 -4.2254 -0.417696 0
M  V30 7193 O 682.035 -3.55074 -0.282999 0
M  V30 7194 O 680.894 -5.422 -0.684239 0
M  V30 7195 H 677.988 -0.815283 -0.138718 0
M  V30 7196 H 680.534 -1.62832 0.477884 0
M  V30 7197 H 679.306 -3.83464 0.779183 0
M  V30 7198 H 678.929 -3.86436 -0.935576 0
M  V30 7199 N 679.926 -0.151884 -1.56866 0
M  V30 7200 C 681.172 0.498742 -1.96572 0
M  V30 7201 C 681.505 1.64194 -1.03702 0
M  V30 7202 O 680.78 1.94334 -0.0803432 0
M  V30 7203 C 681.063 1.00027 -3.45929 0
M  V30 7204 C 680.916 -0.141767 -4.49577 0
M  V30 7205 C 682.235 1.88044 -3.97904 0
M  V30 7206 H 679.354 0.17982 -0.714726 0
M  V30 7207 H 681.996 -0.234097 -1.88552 0
M  V30 7208 H 680.146 1.62476 -3.52894 0
M  V30 7209 H 681.818 -0.778269 -4.54687 0
M  V30 7210 H 680.061 -0.80019 -4.26356 0
M  V30 7211 H 680.732 0.250947 -5.51429 0
M  V30 7212 H 683.208 1.35416 -3.93449 0
M  V30 7213 H 682.084 2.20043 -5.02864 0
M  V30 7214 H 682.345 2.81916 -3.40552 0
M  V30 7215 N 681.404 1.57128 0.121893 0
M  V30 7216 C 682.351 2.0013 1.14964 0
M  V30 7217 C 683.321 0.872959 1.4131 0
M  V30 7218 O 684.506 1.13696 1.53225 0
M  V30 7219 C 681.646 2.40824 2.4718 0
M  V30 7220 C 680.759 3.67061 2.27794 0
M  V30 7221 C 679.894 3.96749 3.53219 0
M  V30 7222 C 678.933 5.16178 3.28978 0
M  V30 7223 N 678.07 5.41751 4.46599 0
M  V30 7224 H 682.91 2.8772 0.775947 0
M  V30 7225 H 680.447 1.42328 0.371652 0
M  V30 7226 H 682.405 2.62454 3.24305 0
M  V30 7227 H 681.035 1.56279 2.82448 0
M  V30 7228 H 680.087 3.53063 1.416 0
M  V30 7229 H 681.399 4.5434 2.05857 0
M  V30 7230 H 680.553 4.19012 4.38764 0
M  V30 7231 H 679.292 3.07941 3.78185 0
M  V30 7232 H 678.297 4.93762 2.41824 0
M  V30 7233 H 679.522 6.06561 3.05386 0
M  V30 7234 H 677.468 4.55899 4.71691 0
M  V30 7235 H 677.385 6.23347 4.27756 0
M  V30 7236 H 678.653 5.68531 5.33285 0
M  V30 7237 N 682.882 -0.391992 1.52647 0
M  V30 7238 C 683.792 -1.503 1.80131 0
M  V30 7239 C 684.808 -1.59825 0.687882 0
M  V30 7240 O 685.984 -1.76218 0.975149 0
M  V30 7241 C 683.049 -2.85863 1.96171 0
M  V30 7242 C 682.11 -2.86084 3.20085 0
M  V30 7243 C 681.343 -4.15181 3.35351 0
M  V30 7244 O 681.566 -5.09981 2.55491 0
M  V30 7245 O 680.5 -4.22603 4.28591 0
M  V30 7246 H 684.326 -1.30007 2.74466 0
M  V30 7247 H 681.911 -0.579539 1.37701 0
M  V30 7248 H 683.793 -3.66236 2.08445 0
M  V30 7249 H 682.468 -3.06189 1.05025 0
M  V30 7250 H 681.375 -2.04504 3.13256 0
M  V30 7251 H 682.708 -2.7071 4.11068 0
M  V30 7252 N 684.36 -1.4356 -0.65026 0
M  V30 7253 C 685.27 -1.514 -1.79207 0
M  V30 7254 C 686.286 -0.400895 -1.69319 0
M  V30 7255 O 687.462 -0.655458 -1.90436 0
M  V30 7256 C 684.527 -1.43737 -3.155 0
M  V30 7257 C 683.588 -2.65743 -3.37163 0
M  V30 7258 C 682.821 -2.58436 -4.66954 0
M  V30 7259 O 683.044 -1.63374 -5.46503 0
M  V30 7260 O 681.978 -3.48984 -4.90402 0
M  V30 7261 H 685.804 -2.47825 -1.75547 0
M  V30 7262 H 683.389 -1.25594 -0.809111 0
M  V30 7263 H 685.271 -1.41916 -3.96784 0
M  V30 7264 H 683.946 -0.504488 -3.19745 0
M  V30 7265 H 682.853 -2.73136 -2.55632 0
M  V30 7266 H 684.186 -3.58014 -3.37768 0
M  V30 7267 N 685.838 0.888903 -1.30139 0
M  V30 7268 C 687.115 1.62145 -1.094 0
M  V30 7269 C 687.495 2.08041 0.358091 0
M  V30 7270 O 686.843 1.84438 1.34888 0
M  V30 7271 C 687.053 2.794 -2.09133 0
M  V30 7272 C 688.401 3.49826 -2.40638 0
M  V30 7273 O 689.425 2.89583 -2.07412 0
M  V30 7274 O 688.284 4.58457 -2.97455 0
M  V30 7275 H 685.378 0.712475 -0.41989 0
M  V30 7276 H 687.924 0.936023 -1.41551 0
M  V30 7277 H 686.696 2.42762 -3.06891 0
M  V30 7278 H 686.319 3.55643 -1.77776 0
M  V30 7279 N 687.317 1.12792 1.10072 0
M  V30 7280 C 688.264 0.79921 2.16521 0
M  V30 7281 C 689.234 -0.235726 1.64419 0
M  V30 7282 O 690.419 -0.109457 1.90486 0
M  V30 7283 C 687.559 0.264091 3.44088 0
M  V30 7284 C 686.672 1.35729 4.10124 0
M  V30 7285 C 685.807 0.781212 5.25424 0
M  V30 7286 C 684.846 1.85327 5.8337 0
M  V30 7287 N 683.983 1.29564 6.90042 0
M  V30 7288 H 688.823 1.71105 2.43981 0
M  V30 7289 H 686.36 0.854225 1.19756 0
M  V30 7290 H 688.318 -0.0642423 4.17151 0
M  V30 7291 H 686.948 -0.610901 3.16967 0
M  V30 7292 H 686 1.80234 3.34993 0
M  V30 7293 H 687.312 2.16782 4.4923 0
M  V30 7294 H 686.466 0.403769 6.05355 0
M  V30 7295 H 685.205 -0.0604686 4.87663 0
M  V30 7296 H 684.21 2.23986 5.02106 0
M  V30 7297 H 685.435 2.69824 6.23195 0
M  V30 7298 H 683.381 0.475844 6.54272 0
M  V30 7299 H 683.298 2.04271 7.2788 0
M  V30 7300 H 684.566 0.945545 7.73744 0
M  V30 7301 N 688.795 -1.27931 0.920396 0
M  V30 7302 C 690.02 -1.99343 0.572478 0
M  V30 7303 C 690.445 -1.68267 -0.840696 0
M  V30 7304 O 689.803 -0.918805 -1.56294 0
M  V30 7305 C 689.851 -3.51698 0.796284 0
M  V30 7306 O 688.955 -4.12157 -0.141602 0
M  V30 7307 H 688.296 -0.626065 0.221221 0
M  V30 7308 H 690.826 -1.62921 1.23765 0
M  V30 7309 H 690.836 -4.01793 0.708984 0
M  V30 7310 H 689.511 -3.73649 1.82644 0
M  V30 7311 H 688.088 -3.729 -0.005007 0
M  V30 7312 N 690.273 -0.685099 -1.4193 0
M  V30 7313 C 691.22 -0.0131869 -2.30796 0
M  V30 7314 C 692.19 0.782129 -1.46533 0
M  V30 7315 O 693.375 0.75229 -1.75343 0
M  V30 7316 C 690.515 0.924768 -3.32479 0
M  V30 7317 C 689.628 0.122181 -4.31827 0
M  V30 7318 C 688.763 1.05682 -5.20581 0
M  V30 7319 C 687.802 0.246526 -6.11603 0
M  V30 7320 N 686.939 1.13442 -6.92875 0
M  V30 7321 H 691.779 -0.776789 -2.87698 0
M  V30 7322 H 689.316 -0.394791 -1.41703 0
M  V30 7323 H 691.274 1.48251 -3.89971 0
M  V30 7324 H 689.904 1.65488 -2.77152 0
M  V30 7325 H 688.956 -0.552335 -3.76369 0
M  V30 7326 H 690.268 -0.506473 -4.96222 0
M  V30 7327 H 689.422 1.68415 -5.82856 0
M  V30 7328 H 688.161 1.71935 -4.56388 0
M  V30 7329 H 687.166 -0.393944 -5.48387 0
M  V30 7330 H 688.391 -0.412053 -6.77849 0
M  V30 7331 H 686.337 1.78316 -6.313 0
M  V30 7332 H 686.254 0.561089 -7.53915 0
M  V30 7333 H 687.522 1.74889 -7.59628 0
M  V30 7334 N 691.751 1.51645 -0.429126 0
M  V30 7335 C 693.028 1.94579 0.199614 0
M  V30 7336 C 693.408 1.3673 1.60836 0
M  V30 7337 O 692.756 0.551062 2.21756 0
M  V30 7338 C 692.966 3.48506 0.185685 0
M  V30 7339 C 694.314 4.22756 0.395282 0
M  V30 7340 O 695.338 3.55219 0.264165 0
M  V30 7341 O 694.197 5.42555 0.655475 0
M  V30 7342 H 691.291 0.816007 0.134393 0
M  V30 7343 H 693.837 1.62577 -0.486513 0
M  V30 7344 H 692.609 3.83045 -0.799508 0
M  V30 7345 H 692.232 3.86927 0.91507 0
M  V30 7346 N 693.229 0.160201 1.56784 0
M  V30 7347 C 694.177 -0.791402 2.18723 0
M  V30 7348 C 695.171 -1.24567 1.14801 0
M  V30 7349 O 696.377 -1.21262 1.33025 0
M  V30 7350 H 692.752 -0.273458 0.700517 0
M  V30 7351 H 694.723 -0.244931 2.97393 0
M  V30 7352 C 693.472 -2.01509 2.83354 0
M  V30 7353 H 692.795 -1.67454 3.63041 0
M  V30 7354 H 694.235 -2.66006 3.30177 0
M  V30 7355 C 692.694 -2.83159 1.82545 0
M  V30 7356 O 693.224 -3.79944 1.30405 0
M  V30 7357 N 691.43 -2.47953 1.51552 0
M  V30 7358 H 690.977 -1.69309 1.94144 0
M  V30 7359 H 690.935 -3.02873 0.843519 0
M  V30 7360 N 694.707 -1.5719 -0.113559 0
M  V30 7361 C 695.932 -1.89702 -0.838336 0
M  V30 7362 C 696.357 -0.752679 -1.72384 0
M  V30 7363 O 695.715 0.296575 -1.78858 0
M  V30 7364 C 695.763 -3.20989 -1.64312 0
M  V30 7365 O 694.867 -3.07278 -2.75053 0
M  V30 7366 H 694.208 -0.622339 -0.231496 0
M  V30 7367 H 696.738 -2.04382 -0.0943228 0
M  V30 7368 H 696.748 -3.53843 -2.03123 0
M  V30 7369 H 695.423 -4.03869 -0.993119 0
M  V30 7370 H 694 -2.85901 -2.39406 0
M  V30 7371 N 696.185 0.383891 -1.52853 0
M  V30 7372 C 697.433 1.12619 -1.67814 0
M  V30 7373 C 697.754 1.90354 -0.423141 0
M  V30 7374 O 697.024 1.87649 0.562554 0
M  V30 7375 H 695.604 0.418738 -0.618601 0
M  V30 7376 H 698.266 0.43495 -1.89985 0
M  V30 7377 H 697.362 1.82624 -2.5309 0
M  V30 7378 N 697.663 1.43903 0.642637 0
M  V30 7379 C 698.573 1.52349 1.78401 0
M  V30 7380 C 699.589 0.409869 1.69104 0
M  V30 7381 O 700.765 0.665548 1.90085 0
M  V30 7382 C 697.83 1.45408 3.14734 0
M  V30 7383 C 696.891 2.67528 3.35749 0
M  V30 7384 C 696.124 2.60909 4.65577 0
M  V30 7385 O 696.347 1.6627 5.45628 0
M  V30 7386 O 695.281 3.5158 4.88544 0
M  V30 7387 H 699.107 2.48752 1.7423 0
M  V30 7388 H 696.692 1.26021 0.802439 0
M  V30 7389 H 698.574 1.44019 3.96026 0
M  V30 7390 H 697.249 0.521437 3.19473 0
M  V30 7391 H 696.156 2.74487 2.5418 0
M  V30 7392 H 697.489 3.598 3.35864 0
M  V30 7393 N 699.141 -0.881989 1.30609 0
M  V30 7394 C 700.088 -1.98803 1.17244 0
M  V30 7395 C 701.058 -1.65987 0.0611905 0
M  V30 7396 O 702.243 -1.89385 0.231911 0
M  V30 7397 C 699.383 -3.33867 0.87333 0
M  V30 7398 C 698.496 -3.79354 2.06675 0
M  V30 7399 C 697.631 -5.03078 1.70547 0
M  V30 7400 C 696.67 -5.40981 2.86366 0
M  V30 7401 N 695.807 -6.55886 2.50514 0
M  V30 7402 H 700.647 -2.09566 2.11863 0
M  V30 7403 H 698.184 -1.02607 1.05405 0
M  V30 7404 H 700.142 -4.11612 0.680519 0
M  V30 7405 H 698.772 -3.2278 -0.0359983 0
M  V30 7406 H 697.824 -2.97492 2.37071 0
M  V30 7407 H 699.136 -4.03382 2.93401 0
M  V30 7408 H 698.29 -5.88457 1.47658 0
M  V30 7409 H 697.029 -4.80927 0.809947 0
M  V30 7410 H 696.034 -4.54127 3.09917 0
M  V30 7411 H 697.259 -5.65104 3.76609 0
M  V30 7412 H 695.205 -6.35306 1.63471 0
M  V30 7413 H 695.122 -6.79799 3.30771 0
M  V30 7414 H 696.39 -7.44489 2.30989 0
M  V30 7415 N 700.619 -1.13374 -1.09472 0
M  V30 7416 C 701.847 -0.918351 -1.85402 0
M  V30 7417 C 702.262 0.53281 -1.81126 0
M  V30 7418 O 701.619 1.36879 -1.20708 0
M  V30 7419 C 701.67 -1.39743 -3.33398 0
M  V30 7420 O 701.391 -2.79172 -3.37631 0
M  V30 7421 C 702.892 -1.22042 -4.2617 0
M  V30 7422 H 700.112 -0.327511 -0.585643 0
M  V30 7423 H 702.656 -1.50617 -1.38328 0
M  V30 7424 H 700.811 -0.852619 -3.77901 0
M  V30 7425 H 701.225 -3.00428 -4.29934 0
M  V30 7426 H 702.699 -1.60438 -5.2817 0
M  V30 7427 H 703.176 -0.162047 -4.38901 0
M  V30 7428 H 703.782 -1.75323 -3.87482 0
M  V30 7429 N 702.098 1.27442 -0.927168 0
M  V30 7430 C 703.375 1.89473 -0.485742 0
M  V30 7431 C 703.755 1.83922 1.03614 0
M  V30 7432 O 703.103 1.28409 1.89007 0
M  V30 7433 C 703.313 3.33417 -1.03123 0
M  V30 7434 C 704.661 4.10333 -1.0914 0
M  V30 7435 O 705.685 3.4243 -0.98082 0
M  V30 7436 O 704.544 5.31737 -1.26165 0
M  V30 7437 H 701.638 0.812124 -0.156154 0
M  V30 7438 H 704.184 1.35713 -1.01882 0
M  V30 7439 H 702.956 3.31747 -2.07508 0
M  V30 7440 H 702.579 3.94695 -0.479767 0
M  V30 7441 N 703.576 0.692616 1.41565 0
M  V30 7442 C 704.804 0.231279 2.05603 0
M  V30 7443 C 705.219 -1.11837 1.52111 0
M  V30 7444 O 704.576 -1.6983 0.66813 0
M  V30 7445 C 704.627 0.177125 3.61066 0
M  V30 7446 O 704.348 1.47346 4.12578 0
M  V30 7447 C 705.849 -0.30556 4.42246 0
M  V30 7448 H 703.069 0.108238 0.662213 0
M  V30 7449 H 705.613 0.944369 1.81389 0
M  V30 7450 H 703.768 -0.486769 3.8433 0
M  V30 7451 H 704.182 1.35861 5.06599 0
M  V30 7452 H 705.656 -0.29233 5.51225 0
M  V30 7453 H 706.133 -1.34393 4.18133 0
M  V30 7454 H 706.739 0.327229 4.24039 0
M  V30 7455 N 705.054 -1.51416 0.437162 0
M  V30 7456 C 706.001 -2.27743 -0.374374 0
M  V30 7457 C 706.971 -1.31327 -1.01698 0
M  V30 7458 O 708.156 -1.60229 -1.03592 0
M  V30 7459 C 705.296 -3.12241 -1.46969 0
M  V30 7460 C 704.409 -4.23651 -0.845236 0
M  V30 7461 C 703.544 -4.95458 -1.91559 0
M  V30 7462 C 702.583 -5.98789 -1.26956 0
M  V30 7463 N 701.72 -6.64005 -2.28126 0
M  V30 7464 H 706.56 -2.96654 0.282892 0
M  V30 7465 H 704.097 -1.46319 0.151352 0
M  V30 7466 H 706.055 -3.59556 -2.11602 0
M  V30 7467 H 704.685 -2.45445 -2.09659 0
M  V30 7468 H 703.737 -3.803 -0.0872059 0
M  V30 7469 H 705.049 -4.97683 -0.333582 0
M  V30 7470 H 704.203 -5.46321 -2.63854 0
M  V30 7471 H 702.942 -4.21055 -2.46097 0
M  V30 7472 H 701.947 -5.47219 -0.53207 0
M  V30 7473 H 703.172 -6.75149 -0.731509 0
M  V30 7474 H 701.118 -5.92415 -2.81745 0
M  V30 7475 H 701.035 -7.33802 -1.81852 0
M  V30 7476 H 702.303 -7.19498 -2.99905 0
M  V30 7477 N 706.532 -0.168513 -1.56696 0
M  V30 7478 C 707.78 0.476216 -1.96409 0
M  V30 7479 C 708.101 1.63968 -1.05544 0
M  V30 7480 O 707.371 1.95525 -0.121235 0
M  V30 7481 H 705.951 0.178921 -0.725256 0
M  V30 7482 H 708.613 -0.249042 -1.93302 0
M  V30 7483 H 707.709 0.838094 -3.00637 0
M  V30 7484 N 708.01 1.57248 0.105221 0
M  V30 7485 C 709.238 1.89768 0.82437 0
M  V30 7486 C 709.653 0.761192 1.72775 0
M  V30 7487 O 709.01 -0.267342 1.80531 0
M  V30 7488 C 709.061 3.2184 1.64625 0
M  V30 7489 O 708.782 4.31115 0.779217 0
M  V30 7490 C 710.283 3.68155 2.46935 0
M  V30 7491 H 707.503 0.628031 0.236259 0
M  V30 7492 H 710.047 2.04321 0.085485 0
M  V30 7493 H 708.202 3.08915 2.33775 0
M  V30 7494 H 708.616 5.06897 1.34745 0
M  V30 7495 H 710.09 4.6329 3.00111 0
M  V30 7496 H 710.567 2.95492 3.24932 0
M  V30 7497 H 711.173 3.83914 1.83002 0
M  V30 7498 N 709.488 -0.375779 1.53054 0
M  V30 7499 C 710.435 -1.45978 1.78771 0
M  V30 7500 C 711.405 -1.53625 0.631552 0
M  V30 7501 O 712.59 -1.69674 0.872667 0
M  V30 7502 C 709.73 -2.8305 1.97425 0
M  V30 7503 C 708.843 -2.84451 3.25134 0
M  V30 7504 C 707.978 -4.13034 3.34031 0
M  V30 7505 C 707.017 -4.08536 4.55812 0
M  V30 7506 N 706.154 -5.2875 4.61918 0
M  V30 7507 H 710.994 -1.23349 2.71273 0
M  V30 7508 H 708.531 -0.598147 1.3439 0
M  V30 7509 H 710.489 -3.62666 2.06225 0
M  V30 7510 H 709.119 -3.04101 1.0827 0
M  V30 7511 H 708.171 -1.97127 3.25338 0
M  V30 7512 H 709.483 -2.76998 4.14818 0
M  V30 7513 H 708.637 -5.0106 3.42087 0
M  V30 7514 H 707.376 -4.23226 2.42345 0
M  V30 7515 H 706.381 -3.18897 4.47867 0
M  V30 7516 H 707.606 -3.99955 5.48828 0
M  V30 7517 H 705.552 -5.39547 3.73129 0
M  V30 7518 H 705.469 -5.23426 5.45492 0
M  V30 7519 H 706.737 -6.18637 4.74245 0
M  V30 7520 N 710.966 -1.44241 -0.634997 0
M  V30 7521 C 712.191 -1.50516 -1.42687 0
M  V30 7522 C 712.616 -0.129864 -1.87651 0
M  V30 7523 O 711.974 0.880164 -1.58502 0
M  V30 7524 C 712.022 -2.4714 -2.62591 0
M  V30 7525 O 711.126 -1.97025 -3.62291 0
M  V30 7526 H 710.467 -0.50841 -0.427101 0
M  V30 7527 H 712.997 -1.89337 -0.775408 0
M  V30 7528 H 713.007 -2.65048 -3.10183 0
M  V30 7529 H 711.682 -3.47039 -2.29209 0
M  V30 7530 H 710.259 -1.88866 -3.21534 0
M  V30 7531 N 712.444 0.87505 -1.31075 0
M  V30 7532 C 713.354 2.01441 -1.20244 0
M  V30 7533 C 714.37 1.73584 -0.120227 0
M  V30 7534 O 715.546 1.98559 -0.337063 0
M  V30 7535 C 712.611 3.34675 -0.905199 0
M  V30 7536 C 711.672 3.75889 -2.0738 0
M  V30 7537 C 710.905 5.02764 -1.79064 0
M  V30 7538 O 711.128 5.65795 -0.723318 0
M  V30 7539 O 710.062 5.40623 -2.64594 0
M  V30 7540 H 713.888 2.13509 -2.1598 0
M  V30 7541 H 711.473 1.00257 -1.10765 0
M  V30 7542 H 713.355 4.1458 -0.755057 0
M  V30 7543 H 712.03 3.23692 0.0221695 0
M  V30 7544 H 710.937 2.96645 -2.27931 0
M  V30 7545 H 712.27 3.91489 -2.98324 0
M  V30 7546 N 713.922 1.13953 1.08869 0
M  V30 7547 C 714.854 0.779906 2.15523 0
M  V30 7548 C 715.867 -0.20102 1.61554 0
M  V30 7549 O 717.056 0.0200049 1.78489 0
M  V30 7550 C 714.156 0.136226 3.38626 0
M  V30 7551 C 713.329 1.15069 4.21993 0
M  V30 7552 C 712.388 0.531645 5.23507 0
M  V30 7553 O 711.414 1.19327 5.56552 0
M  V30 7554 N 712.616 -0.693734 5.7634 0
M  V30 7555 H 715.381 1.69769 2.46979 0
M  V30 7556 H 712.942 1.03331 1.24637 0
M  V30 7557 H 714.934 -0.290295 4.03658 0
M  V30 7558 H 713.504 -0.684603 3.05011 0
M  V30 7559 H 712.724 1.75431 3.53012 0
M  V30 7560 H 714.012 1.83614 4.74514 0
M  V30 7561 H 713.41 -1.24994 5.51718 0
M  V30 7562 H 711.967 -1.06283 6.43076 0
M  V30 7563 N 715.4 -1.26948 0.933913 0
M  V30 7564 C 716.33 -2.29017 0.45534 0
M  V30 7565 C 717.311 -1.62961 -0.487605 0
M  V30 7566 O 718.496 -1.90223 -0.391022 0
M  V30 7567 C 715.626 -3.46112 -0.287015 0
M  V30 7568 C 714.58 -4.24205 0.568682 0
M  V30 7569 C 713.906 -5.3384 -0.303206 0
M  V30 7570 C 715.206 -4.88954 1.83633 0
M  V30 7571 H 716.9 -2.69298 1.30839 0
M  V30 7572 H 714.446 -1.29459 0.630579 0
M  V30 7573 H 716.399 -4.16622 -0.6328 0
M  V30 7574 H 715.123 -3.04765 -1.17414 0
M  V30 7575 H 713.782 -3.5545 0.897261 0
M  V30 7576 H 713.43 -4.88734 -1.18947 0
M  V30 7577 H 713.13 -5.86998 0.265879 0
M  V30 7578 H 714.654 -6.0719 -0.644423 0
M  V30 7579 H 716.068 -5.51717 1.55823 0
M  V30 7580 H 714.465 -5.52198 2.34941 0
M  V30 7581 H 715.535 -4.12305 2.55211 0
M  V30 7582 N 716.879 -0.700114 -1.41195 0
M  V30 7583 C 718.104 -0.240704 -2.05998 0
M  V30 7584 C 718.529 1.10313 -1.52357 0
M  V30 7585 O 717.887 1.69154 -0.652424 0
M  V30 7586 C 717.935 -0.213783 -3.59966 0
M  V30 7587 O 717.039 0.809933 -4.04368 0
M  V30 7588 H 716.38 -0.116471 -0.653705 0
M  V30 7589 H 718.91 -0.956251 -1.80878 0
M  V30 7590 H 718.92 -0.0461852 -4.07974 0
M  V30 7591 H 717.595 -1.19454 -3.98376 0
M  V30 7592 H 716.172 0.611319 -3.67855 0
M  V30 7593 N 718.357 1.51182 -0.445186 0
M  V30 7594 C 719.305 2.29531 0.376597 0
M  V30 7595 C 720.299 1.35711 1.01385 0
M  V30 7596 O 721.505 1.53018 0.947922 0
M  V30 7597 H 717.88 0.738803 0.140267 0
M  V30 7598 H 719.851 2.96838 -0.304958 0
M  V30 7599 C 718.6 3.1552 1.4609 0
M  V30 7600 H 717.923 3.87605 0.979912 0
M  V30 7601 H 719.363 3.73384 2.009 0
M  V30 7602 C 717.822 2.31406 2.44852 0
M  V30 7603 O 718.352 1.97912 3.49562 0
M  V30 7604 N 716.558 1.94478 2.15932 0
M  V30 7605 H 716.105 2.21917 1.30808 0
M  V30 7606 H 716.063 1.38498 2.82251 0
M  V30 7607 N 719.835 0.176821 1.56605 0
M  V30 7608 C 721.246 -0.338963 1.83597 0
M  V30 7609 C 721.597 -1.62677 1.09684 0
M  V30 7610 O 720.722 -2.13524 0.351661 0
M  V30 7611 C 721.317 -0.62177 3.33046 0
M  V30 7612 C 719.876 -1.08198 3.60514 0
M  V30 7613 C 719.023 -0.120774 2.77037 0
M  V30 7614 H 721.974 0.400978 1.53551 0
M  V30 7615 H 721.995 -1.47321 3.50823 0
M  V30 7616 H 721.507 0.315692 3.86814 0
M  V30 7617 H 719.608 -2.03435 3.12162 0
M  V30 7618 H 719.721 -0.987329 4.68816 0
M  V30 7619 H 718.085 -0.619192 2.47059 0
M  V30 7620 H 718.868 0.810806 3.33588 0
M  V30 7621 O 721.352 -1.61453 0.0391262 0
M  V30 7622 H 722.043 -1.85062 -0.571999 0
M  V30 END ATOM
M  V30 BEGIN BOND
M  V30 END BOND
M  V30 END CTAB
M  END
$$$$
