drugbank_target|P26827 Cyclomaltodextrin glucanotransferase (DB02379; DB03773)
 OpenBabel12092119593D

  0  0  0     0  0            999 V3000
M  V30 BEGIN CTAB
M  V30 COUNTS 10843 10983 0 0 0
M  V30 BEGIN ATOM
M  V30 1 H -0.908 1.98254 -0.117106 0
M  V30 2 N 0 1.576 0 0
M  V30 3 C 0.933 2.03868 1.02534 0
M  V30 4 C 1.911 0.928543 1.3348 0
M  V30 5 O 3.095 1.19667 1.45644 0
M  V30 6 C 0.222 2.43627 2.35294 0
M  V30 7 C -0.732 3.65373 2.2001 0
M  V30 8 S 0.101 5.13292 1.52614 0
M  V30 9 C 1.257 5.56322 2.86805 0
M  V30 10 H 1.49 2.90518 0.631377 0
M  V30 11 H -0.977 1.52953 0.210867 0
M  V30 12 H 0.981 2.67203 3.11629 0
M  V30 13 H -0.358 1.57376 2.7183 0
M  V30 14 H -1.165 3.90944 3.18086 0
M  V30 15 H -1.563 3.418 1.51819 0
M  V30 16 H 0.729 5.58782 3.83104 0
M  V30 17 H 1.672 6.56266 2.65933 0
M  V30 18 H 2.08 4.83886 2.90714 0
M  V30 19 N 1.4781 -0.272755 1.55222 0
M  V30 20 C 2.4251 -1.33716 1.88119 0
M  V30 21 C 3.3951 -1.49066 0.73271 0
M  V30 22 O 4.5801 -1.63469 0.984002 0
M  V30 23 C 1.7201 -2.69238 2.15882 0
M  V30 24 C 0.8331 -2.62108 3.43399 0
M  V30 25 C -0.0319 -3.89811 3.60861 0
M  V30 26 C -0.9929 -3.77193 4.8207 0
M  V30 27 N -1.8559 -4.9673 4.96189 0
M  V30 28 H 2.9841 -1.04962 2.78903 0
M  V30 29 H 0.5211 -0.507088 1.38083 0
M  V30 30 H 2.4791 -3.48089 2.29978 0
M  V30 31 H 1.1091 -2.96194 1.28331 0
M  V30 32 H 0.1611 -1.74967 3.37773 0
M  V30 33 H 1.4731 -2.48685 4.32386 0
M  V30 34 H 0.6271 -4.77103 3.74777 0
M  V30 35 H -0.6339 -4.06102 2.7006 0
M  V30 36 H -1.6289 -2.88284 4.68159 0
M  V30 37 H -0.4039 -3.62421 5.74307 0
M  V30 38 H -2.4579 -5.13431 4.08319 0
M  V30 39 H -2.5409 -4.85839 5.79221 0
M  V30 40 H -1.2729 -5.85594 5.1449 0
M  V30 41 N 2.9562 -1.48159 -0.537278 0
M  V30 42 C 3.9032 -1.62138 -1.64256 0
M  V30 43 C 4.8732 -0.463668 -1.59497 0
M  V30 44 O 6.0582 -0.686241 -1.78032 0
M  V30 45 C 3.1982 -1.66028 -3.02537 0
M  V30 46 C 2.3112 -2.92855 -3.17585 0
M  V30 47 C 1.4462 -2.87952 -4.46382 0
M  V30 48 C 0.4852 -4.09516 -4.54932 0
M  V30 49 N -0.3778 -4.02733 -5.75109 0
M  V30 50 H 4.4622 -2.56529 -1.51647 0
M  V30 51 H 1.9992 -1.27224 -0.738414 0
M  V30 52 H 3.9572 -1.66265 -3.82638 0
M  V30 53 H 2.5872 -0.751331 -3.13934 0
M  V30 54 H 1.6392 -3.02395 -2.30784 0
M  V30 55 H 2.9512 -3.82822 -3.19764 0
M  V30 56 H 2.1052 -2.8655 -5.34765 0
M  V30 57 H 0.8442 -1.95702 -4.46712 0
M  V30 58 H -0.1508 -4.11201 -3.64957 0
M  V30 59 H 1.0742 -5.02917 -4.56346 0
M  V30 60 H -0.9798 -3.13299 -5.76351 0
M  V30 61 H -1.0628 -4.86397 -5.78752 0
M  V30 62 H 0.2052 -4.05379 -6.65799 0
M  V30 63 N 4.4343 0.785586 -1.36625 0
M  V30 64 C 5.6623 1.57448 -1.3423 0
M  V30 65 C 6.0773 1.88649 0.0755653 0
M  V30 66 O 5.4343 1.50414 1.03354 0
M  V30 67 C 5.4853 2.89316 -2.16745 0
M  V30 68 O 5.2063 2.59459 -3.53005 0
M  V30 69 C 6.7073 3.83606 -2.22174 0
M  V30 70 H 3.9273 0.488226 -0.4603 0
M  V30 71 H 6.4713 0.974733 -1.79775 0
M  V30 72 H 4.6263 3.4575 -1.74745 0
M  V30 73 H 5.0403 3.43804 -3.96105 0
M  V30 74 H 6.5143 4.73181 -2.8426 0
M  V30 75 H 6.9913 4.21734 -1.22627 0
M  V30 76 H 7.5973 3.33104 -2.64427 0
M  V30 77 N 5.9124 1.20967 1.01018 0
M  V30 78 C 7.1594 1.02374 1.74716 0
M  V30 79 C 7.4874 -0.443375 1.89379 0
M  V30 80 O 6.7424 -1.34535 1.42123 0
M  V30 81 C 7.0414 1.65997 3.16512 0
M  V30 82 C 6.7074 3.15831 3.2181 0
M  V30 83 C 5.3694 3.56719 3.22963 0
M  V30 84 C 7.7214 4.11816 3.19464 0
M  V30 85 C 5.0494 4.92107 3.19449 0
M  V30 86 C 7.4014 5.47158 3.17491 0
M  V30 87 C 6.0654 5.87451 3.16951 0
M  V30 88 H 5.3354 0.374614 0.639332 0
M  V30 89 H 7.9824 1.50485 1.18434 0
M  V30 90 H 6.2874 1.10166 3.75993 0
M  V30 91 H 7.9844 1.49119 3.72242 0
M  V30 92 H 4.5744 2.83263 3.21652 0
M  V30 93 H 8.7584 3.81257 3.17737 0
M  V30 94 H 4.0144 5.22579 3.17366 0
M  V30 95 H 8.1884 6.21274 3.14629 0
M  V30 96 H 5.8154 6.92329 3.13983 0
M  V30 97 N 7.3905 -1.2043 1.01659 0
M  V30 98 C 8.3375 -2.23215 0.586822 0
M  V30 99 C 9.3075 -1.61382 -0.393085 0
M  V30 100 O 10.4925 -1.88544 -0.292525 0
M  V30 101 C 7.6325 -3.45032 -0.0687464 0
M  V30 102 C 6.7455 -4.21296 0.955724 0
M  V30 103 C 5.8805 -5.30507 0.271208 0
M  V30 104 C 4.9195 -5.98515 1.28244 0
M  V30 105 N 4.0565 -6.99316 0.62459 0
M  V30 106 H 8.8965 -2.59336 1.46796 0
M  V30 107 H 6.4335 -1.27431 0.734836 0
M  V30 108 H 8.3915 -4.1459 -0.465965 0
M  V30 109 H 7.0215 -3.09604 -0.913529 0
M  V30 110 H 6.0735 -3.50803 1.4711 0
M  V30 111 H 7.3855 -4.6803 1.72479 0
M  V30 112 H 6.5395 -6.06428 -0.18151 0
M  V30 113 H 5.2785 -4.8481 -0.530163 0
M  V30 114 H 4.2835 -5.21355 1.74554 0
M  V30 115 H 5.5085 -6.46298 2.08509 0
M  V30 116 H 3.4545 -6.55812 -0.156914 0
M  V30 117 H 3.3715 -7.44178 1.33172 0
M  V30 118 H 4.6395 -7.79255 0.195462 0
M  V30 119 N 8.8686 -0.792821 -1.36206 0
M  V30 120 C 9.7986 -0.207853 -2.32573 0
M  V30 121 C 10.7796 0.659055 -1.56813 0
M  V30 122 O 11.9646 0.592176 -1.84951 0
M  V30 123 C 9.0946 0.655449 -3.41059 0
M  V30 124 C 8.0486 -0.111842 -4.27854 0
M  V30 125 C 7.3746 0.872274 -5.27537 0
M  V30 126 C 8.6746 -1.30299 -5.05786 0
M  V30 127 H 10.3686 -1.01294 -2.81744 0
M  V30 128 H 7.9146 -0.48854 -1.3546 0
M  V30 129 H 9.8676 1.07464 -4.07467 0
M  V30 130 H 8.5916 1.49328 -2.90463 0
M  V30 131 H 7.2506 -0.512053 -3.63006 0
M  V30 132 H 6.8986 1.70523 -4.73214 0
M  V30 133 H 6.5986 0.363291 -5.86476 0
M  V30 134 H 8.1226 1.28996 -5.96818 0
M  V30 135 H 9.5366 -0.959379 -5.65216 0
M  V30 136 H 7.9336 -1.7455 -5.74154 0
M  V30 137 H 9.0036 -2.09663 -4.37229 0
M  V30 138 N 10.3467 1.47872 -0.545128 0
M  V30 139 C 11.5957 2.01695 -0.0145033 0
M  V30 140 C 11.9087 1.42609 1.33873 0
M  V30 141 O 13.1147 1.88021 1.95858 0
M  V30 142 C 11.5707 3.59892 0.0245068 0
M  V30 143 C 11.1787 4.27966 -1.32475 0
M  V30 144 C 12.9227 4.21507 0.50316 0
M  V30 145 C 10.8297 5.78136 -1.2455 0
M  V30 146 H 9.7597 0.753998 -0.00165172 0
M  V30 147 H 12.4107 1.69985 -0.691175 0
M  V30 148 H 10.7927 3.88509 0.766575 0
M  V30 149 H 11.9667 4.11003 -2.08357 0
M  V30 150 H 10.2817 3.78286 -1.74036 0
M  V30 151 H 12.8787 5.31538 0.580656 0
M  V30 152 H 13.2217 3.87855 1.51243 0
M  V30 153 H 13.7547 3.97376 -0.183681 0
M  V30 154 H 10.4937 6.16388 -2.23039 0
M  V30 155 H 10.0137 5.97469 -0.528282 0
M  V30 156 H 11.6927 6.40099 -0.942488 0
M  V30 157 N 11.8248 0.280983 1.55075 0
M  V30 158 C 12.7548 -0.597469 2.25727 0
M  V30 159 C 13.7358 -1.15417 1.24952 0
M  V30 160 O 14.9208 -1.18722 1.53684 0
M  V30 161 C 12.0508 -1.7789 2.98283 0
M  V30 162 C 11.0048 -1.35347 4.06036 0
M  V30 163 C 10.3308 -2.61846 4.66198 0
M  V30 164 C 11.6308 -0.499354 5.19907 0
M  V30 165 H 13.3248 -0.00824265 2.99399 0
M  V30 166 H 10.8708 -0.0025244 1.44 0
M  V30 167 H 12.8238 -2.39937 3.46422 0
M  V30 168 H 11.5478 -2.39405 2.22155 0
M  V30 169 H 10.2068 -0.756156 3.58717 0
M  V30 170 H 9.8548 -3.21632 3.86732 0
M  V30 171 H 9.5548 -2.3409 5.38958 0
M  V30 172 H 11.0788 -3.24732 5.1709 0
M  V30 173 H 12.4928 -1.02498 5.64063 0
M  V30 174 H 10.8898 -0.316424 5.99265 0
M  V30 175 H 11.9598 0.480459 4.82514 0
M  V30 176 N 13.3029 -1.57598 0.00835791 0
M  V30 177 C 14.5489 -1.91211 -0.675732 0
M  V30 178 C 14.8819 -0.883139 -1.72958 0
M  V30 179 O 14.1569 0.097016 -1.94258 0
M  V30 180 C 14.4399 -3.35379 -1.31123 0
M  V30 181 C 14.2929 -4.48999 -0.268356 0
M  V30 182 C 15.6119 -3.7912 -2.23508 0
M  V30 183 H 12.7309 -0.695374 -0.244179 0
M  V30 184 H 15.3729 -1.89901 0.0613655 0
M  V30 185 H 13.5229 -3.36626 -1.93946 0
M  V30 186 H 15.1949 -4.59887 0.360844 0
M  V30 187 H 13.4379 -4.31873 0.408482 0
M  V30 188 H 14.1089 -5.46851 -0.752218 0
M  V30 189 H 16.5849 -3.79477 -1.70693 0
M  V30 190 H 15.4609 -4.80729 -2.64936 0
M  V30 191 H 15.7219 -3.13455 -3.11766 0
M  V30 192 N 14.781 0.264519 -1.55364 0
M  V30 193 C 15.711 1.33121 -1.91836 0
M  V30 194 C 16.692 1.51101 -0.781192 0
M  V30 195 O 17.877 1.64003 -1.04003 0
M  V30 196 C 15.007 2.68921 -2.19769 0
M  V30 197 C 13.961 2.65661 -3.35571 0
M  V30 198 C 13.287 4.05093 -3.49004 0
M  V30 199 C 14.587 2.24187 -4.71739 0
M  V30 200 H 16.281 1.02844 -2.81182 0
M  V30 201 H 13.827 0.493286 -1.35287 0
M  V30 202 H 15.78 3.43663 -2.43872 0
M  V30 203 H 14.504 3.00799 -1.27231 0
M  V30 204 H 13.163 1.93377 -3.1145 0
M  V30 205 H 12.811 4.34206 -2.53917 0
M  V30 206 H 12.511 4.03804 -4.26868 0
M  V30 207 H 14.035 4.81561 -3.75408 0
M  V30 208 H 15.449 2.88654 -4.9533 0
M  V30 209 H 13.846 2.34044 -5.52579 0
M  V30 210 H 14.916 1.19327 -4.69988 0
M  V30 211 N 16.2591 1.48442 0.529413 0
M  V30 212 C 17.1921 1.57577 1.65059 0
M  V30 213 C 18.1701 0.426198 1.56915 0
M  V30 214 O 19.3541 0.637877 1.77379 0
M  V30 215 C 16.4811 1.5043 3.03461 0
M  V30 216 C 15.5271 2.70235 3.29962 0
M  V30 217 S 16.3601 4.32198 3.16172 0
M  V30 218 C 17.5161 4.2765 4.57019 0
M  V30 219 H 17.7491 2.52427 1.5706 0
M  V30 220 H 15.2821 1.36982 0.712417 0
M  V30 221 H 17.2401 1.46992 3.8328 0
M  V30 222 H 15.9011 0.569167 3.089 0
M  V30 223 H 15.0941 2.61374 4.30929 0
M  V30 224 H 14.6961 2.70938 2.57815 0
M  V30 225 H 16.9881 3.97618 5.48549 0
M  V30 226 H 17.9311 5.28797 4.70934 0
M  V30 227 H 18.3391 3.5811 4.36368 0
M  V30 228 N 17.7372 -0.778329 1.37039 0
M  V30 229 C 18.6672 -1.90546 1.34962 0
M  V30 230 C 19.6482 -1.68681 0.219274 0
M  V30 231 O 20.8332 -1.89634 0.418624 0
M  V30 232 C 17.9632 -3.27734 1.14925 0
M  V30 233 C 16.9172 -3.64147 2.24902 0
M  V30 234 C 16.2432 -4.99806 1.89996 0
M  V30 235 C 17.5432 -3.71579 3.67051 0
M  V30 236 H 19.2372 -1.92541 2.29277 0
M  V30 237 H 16.7832 -0.924948 1.10366 0
M  V30 238 H 18.7362 -4.06215 1.12104 0
M  V30 239 H 17.4602 -3.26154 0.170631 0
M  V30 240 H 16.1192 -2.8797 2.26868 0
M  V30 241 H 15.7672 -4.94759 0.906796 0
M  V30 242 H 15.4672 -5.25139 2.63634 0
M  V30 243 H 16.9912 -5.80694 1.88749 0
M  V30 244 H 18.4052 -4.40227 3.67251 0
M  V30 245 H 16.8022 -4.08405 4.39688 0
M  V30 246 H 17.8722 -2.72404 4.01154 0
M  V30 247 N 19.2153 -1.21501 -1.00376 0
M  V30 248 C 20.4403 -1.05977 -1.78279 0
M  V30 249 C 20.8653 0.385994 -1.84097 0
M  V30 250 O 20.2233 1.27849 -1.28547 0
M  V30 251 C 20.2713 -1.66302 -3.19963 0
M  V30 252 O 19.3753 -0.909333 -4.0225 0
M  V30 253 H 18.7163 -0.372906 -0.549397 0
M  V30 254 H 21.2463 -1.6107 -1.26165 0
M  V30 255 H 21.2563 -1.70574 -3.70632 0
M  V30 256 H 19.9313 -2.71515 -3.15043 0
M  V30 257 H 18.5083 -0.941795 -3.60811 0
M  V30 258 N 20.6934 1.19889 -1.02296 0
M  V30 259 C 21.6234 2.25141 -0.619174 0
M  V30 260 C 22.6044 1.66051 0.368915 0
M  V30 261 O 23.7894 1.92546 0.252941 0
M  V30 262 C 20.9194 3.4728 0.0368783 0
M  V30 263 C 19.8734 4.19005 -0.872865 0
M  V30 264 C 19.1994 5.34637 -0.0822402 0
M  V30 265 C 20.4994 4.74452 -2.18387 0
M  V30 266 H 22.1934 2.59171 -1.49903 0
M  V30 267 H 19.7394 1.24579 -0.722222 0
M  V30 268 H 21.6924 4.20098 0.330958 0
M  V30 269 H 20.4164 3.12433 0.95149 0
M  V30 270 H 19.0754 3.48061 -1.15105 0
M  V30 271 H 18.7234 4.96034 0.83422 0
M  V30 272 H 18.4234 5.83557 -0.688149 0
M  V30 273 H 19.9474 6.10255 0.205238 0
M  V30 274 H 21.3614 5.39055 -1.95172 0
M  V30 275 H 19.7584 5.33834 -2.74119 0
M  V30 276 H 20.8284 3.92844 -2.84257 0
M  V30 277 N 22.1715 0.800033 1.35784 0
M  V30 278 C 23.3995 0.389606 2.03199 0
M  V30 279 C 23.8145 -0.997375 1.60306 0
M  V30 280 O 23.1715 -1.64154 0.797481 0
M  V30 281 C 23.2225 0.455855 3.58614 0
M  V30 282 O 22.9435 1.78815 3.99946 0
M  V30 283 C 24.4445 0.0374032 4.43284 0
M  V30 284 H 21.6645 0.159132 0.651857 0
M  V30 285 H 24.2085 1.08183 1.73541 0
M  V30 286 H 22.3635 -0.188057 3.86943 0
M  V30 287 H 22.7775 1.74636 4.94573 0
M  V30 288 H 24.2515 0.134882 5.51835 0
M  V30 289 H 24.7285 -1.01651 4.27275 0
M  V30 290 H 25.3345 0.654215 4.20238 0
M  V30 291 N 23.6496 -1.47581 0.552962 0
M  V30 292 C 24.5796 -2.32762 -0.185451 0
M  V30 293 C 25.5606 -1.43527 -0.912905 0
M  V30 294 O 26.7456 -1.72388 -0.894201 0
M  V30 295 C 23.8756 -3.25219 -1.21859 0
M  V30 296 C 22.8296 -4.23661 -0.607864 0
M  V30 297 C 22.1556 -5.05413 -1.74533 0
M  V30 298 C 23.4556 -5.20481 0.435582 0
M  V30 299 H 25.1496 -2.94749 0.525684 0
M  V30 300 H 22.6956 -1.41738 0.254251 0
M  V30 301 H 24.6486 -3.8365 -1.7433 0
M  V30 302 H 23.3726 -2.61279 -1.95961 0
M  V30 303 H 22.0316 -3.66451 -0.104489 0
M  V30 304 H 21.6796 -4.3788 -2.47529 0
M  V30 305 H 21.3796 -5.72059 -1.34249 0
M  V30 306 H 22.9036 -5.66701 -2.27338 0
M  V30 307 H 24.3176 -5.733 -0.00290157 0
M  V30 308 H 22.7146 -5.95305 0.757067 0
M  V30 309 H 23.7846 -4.66217 1.33303 0
M  V30 310 N 25.1277 -0.289203 -1.54924 0
M  V30 311 C 26.3737 0.323998 -2.00195 0
M  V30 312 C 26.7067 1.54441 -1.17735 0
M  V30 313 O 25.9817 1.92875 -0.250878 0
M  V30 314 C 26.2647 0.692276 -3.53383 0
M  V30 315 C 26.1177 -0.536457 -4.46589 0
M  V30 316 C 27.4367 1.52335 -4.12895 0
M  V30 317 H 24.5557 0.116289 -0.727768 0
M  V30 318 H 27.1977 -0.398954 -1.85764 0
M  V30 319 H 25.3477 1.30822 -3.65811 0
M  V30 320 H 27.0197 -1.17499 -4.46085 0
M  V30 321 H 25.2627 -1.17192 -4.1767 0
M  V30 322 H 25.9337 -0.234806 -5.515 0
M  V30 323 H 28.4097 1.00302 -4.0383 0
M  V30 324 H 27.2857 1.74982 -5.20262 0
M  V30 325 H 27.5467 2.50886 -3.64018 0
M  V30 326 N 26.6058 1.57591 -0.0167156 0
M  V30 327 C 27.8528 1.91283 0.664597 0
M  V30 328 C 28.1808 0.891949 1.72842 0
M  V30 329 O 27.4358 -0.100931 1.9544 0
M  V30 330 C 27.7348 3.3172 1.33029 0
M  V30 331 C 27.4008 4.4914 0.398047 0
M  V30 332 C 26.0628 4.80992 0.141421 0
M  V30 333 C 28.4148 5.20634 -0.242825 0
M  V30 334 C 25.7428 5.81703 -0.764092 0
M  V30 335 C 28.0948 6.22311 -1.13632 0
M  V30 336 C 26.7588 6.52611 -1.40196 0
M  V30 337 H 26.0288 0.699956 0.243193 0
M  V30 338 H 28.6758 1.9135 -0.0758267 0
M  V30 339 H 26.9808 3.27856 2.14517 0
M  V30 340 H 28.6778 3.55055 1.86379 0
M  V30 341 H 25.2678 4.24262 0.608238 0
M  V30 342 H 29.4518 4.96267 -0.0576019 0
M  V30 343 H 24.7078 6.03532 -0.977732 0
M  V30 344 H 28.8818 6.76834 -1.63917 0
M  V30 345 H 26.5088 7.30467 -2.10529 0
M  V30 346 N 28.0839 -0.256276 1.55502 0
M  V30 347 C 29.3319 -0.983672 1.76545 0
M  V30 348 C 29.6529 -1.86206 0.578982 0
M  V30 349 O 28.9229 -1.91656 -0.405577 0
M  V30 350 H 27.5029 -0.366191 0.651086 0
M  V30 351 H 30.1649 -0.276479 1.92929 0
M  V30 352 H 29.2609 -1.61087 2.67315 0
M  V30 353 N 29.562 -1.4872 -0.521534 0
M  V30 354 C 30.492 -1.66771 -1.63431 0
M  V30 355 C 31.473 -0.516499 -1.62069 0
M  V30 356 O 32.658 -0.750013 -1.79132 0
M  V30 357 C 29.788 -1.71515 -3.01993 0
M  V30 358 C 28.742 -2.86222 -3.18216 0
M  V30 359 C 28.068 -2.76061 -4.57924 0
M  V30 360 C 29.368 -4.27419 -3.00184 0
M  V30 361 H 31.062 -2.59932 -1.48579 0
M  V30 362 H 28.608 -1.25089 -0.713358 0
M  V30 363 H 30.561 -1.82731 -3.7972 0
M  V30 364 H 29.285 -0.749393 -3.17886 0
M  V30 365 H 27.944 -2.74575 -2.42908 0
M  V30 366 H 27.592 -1.77437 -4.70665 0
M  V30 367 H 27.292 -3.53037 -4.69722 0
M  V30 368 H 28.816 -2.89256 -5.37739 0
M  V30 369 H 30.23 -4.39855 -3.67697 0
M  V30 370 H 28.627 -5.05458 -3.2347 0
M  V30 371 H 29.697 -4.43293 -1.96518 0
M  V30 372 N 31.0401 0.771051 -1.3745 0
M  V30 373 C 32.2681 1.56015 -1.35893 0
M  V30 374 C 32.6831 1.88718 0.0555523 0
M  V30 375 O 32.0401 1.51502 1.01752 0
M  V30 376 C 32.0911 2.87001 -2.19801 0
M  V30 377 O 31.8121 2.557 -3.55738 0
M  V30 378 C 33.3131 3.81228 -2.26231 0
M  V30 379 H 30.5331 0.483317 -0.465453 0
M  V30 380 H 33.0771 0.955611 -1.80799 0
M  V30 381 H 31.2321 3.43877 -1.78402 0
M  V30 382 H 31.6461 3.39584 -3.99729 0
M  V30 383 H 33.1201 4.70139 -2.89263 0
M  V30 384 H 33.5971 4.20409 -1.27093 0
M  V30 385 H 34.2031 3.30281 -2.67945 0
M  V30 386 N 32.5182 1.22032 0.997298 0
M  V30 387 C 33.4812 0.987909 2.06816 0
M  V30 388 C 34.4812 -0.0440084 1.6074 0
M  V30 389 O 35.6712 0.194053 1.73116 0
M  V30 390 C 32.8032 0.49132 3.37341 0
M  V30 391 H 33.9962 1.93803 2.28868 0
M  V30 392 H 31.5492 1.03838 1.16822 0
M  V30 393 H 32.2842 -0.463364 3.20973 0
M  V30 394 H 32.0692 1.23575 3.72118 0
M  V30 395 H 33.5592 0.348824 4.16141 0
M  V30 396 N 33.9963 -1.19345 1.0293 0
M  V30 397 C 35.4073 -1.70725 0.755633 0
M  V30 398 C 35.7583 -1.82326 -0.724676 0
M  V30 399 O 34.8833 -1.49471 -1.56484 0
M  V30 400 C 35.4783 -3.10084 1.36503 0
M  V30 401 C 34.0373 -3.58723 1.13994 0
M  V30 402 C 33.1843 -2.35577 1.46283 0
M  V30 403 H 36.1353 -1.0418 1.19718 0
M  V30 404 H 36.1563 -3.72787 0.762217 0
M  V30 405 H 35.6683 -3.01609 2.44241 0
M  V30 406 H 33.7693 -3.72512 0.0807901 0
M  V30 407 H 33.8823 -4.42816 1.82894 0
M  V30 408 H 32.2463 -2.38935 0.88217 0
M  V30 409 H 33.0293 -2.29731 2.55105 0
M  V30 410 N 35.4744 -0.807222 -1.35358 0
M  V30 411 C 36.7234 -0.384376 -1.98004 0
M  V30 412 C 37.0364 1.0543 -1.64754 0
M  V30 413 O 38.2424 1.58029 -2.20769 0
M  V30 414 C 36.6984 -0.636326 -3.5423 0
M  V30 415 C 36.3064 -2.08759 -3.96388 0
M  V30 416 C 38.0504 -0.278869 -4.23583 0
M  V30 417 C 35.9574 -2.28525 -5.45463 0
M  V30 418 H 34.8874 -0.139986 -0.740891 0
M  V30 419 H 37.5384 -0.991369 -1.54415 0
M  V30 420 H 35.9204 0.0406256 -3.95979 0
M  V30 421 H 37.0944 -2.8024 -3.6579 0
M  V30 422 H 35.4094 -2.40497 -3.39926 0
M  V30 423 H 38.0064 -0.404599 -5.33167 0
M  V30 424 H 38.3494 0.775012 -4.09022 0
M  V30 425 H 38.8824 -0.909764 -3.87257 0
M  V30 426 H 35.6214 -3.32361 -5.64992 0
M  V30 427 H 35.1414 -1.61569 -5.77629 0
M  V30 428 H 36.8204 -2.10109 -6.11934 0
M  V30 429 N 36.9525 1.47285 -0.560781 0
M  V30 430 C 37.8845 2.28118 0.222438 0
M  V30 431 C 38.8975 1.37219 0.876056 0
M  V30 432 O 40.0865 1.62011 0.749307 0
M  V30 433 C 37.1865 3.1159 1.33285 0
M  V30 434 C 36.3595 4.30473 0.77534 0
M  V30 435 C 35.4185 4.95513 1.77069 0
M  V30 436 O 34.4445 5.53792 1.31539 0
M  V30 437 N 35.6465 4.90531 3.10418 0
M  V30 438 H 38.4115 2.95976 -0.470958 0
M  V30 439 H 35.9725 1.56955 -0.39709 0
M  V30 440 H 37.9645 3.51967 1.99752 0
M  V30 441 H 36.5345 2.45951 1.92943 0
M  V30 442 H 35.7545 3.94144 -0.0662113 0
M  V30 443 H 37.0425 5.07362 0.382272 0
M  V30 444 H 36.4405 4.44389 3.5005 0
M  V30 445 H 34.9975 5.34917 3.72434 0
M  V30 446 N 38.4306 0.297415 1.54768 0
M  V30 447 C 39.3936 -0.567375 2.22066 0
M  V30 448 C 40.3936 -1.06409 1.20556 0
M  V30 449 O 41.5836 -0.960691 1.45315 0
M  V30 450 C 38.7156 -1.78517 2.90421 0
M  V30 451 H 39.9086 0.0205534 2.99893 0
M  V30 452 H 37.4616 0.0482163 1.56226 0
M  V30 453 H 38.1966 -2.41303 2.16664 0
M  V30 454 H 37.9816 -1.43669 3.64831 0
M  V30 455 H 39.4716 -2.39964 3.41771 0
M  V30 456 N 39.9087 -1.5758 0.0250728 0
M  V30 457 C 40.8717 -2.08896 -0.943139 0
M  V30 458 C 41.8717 -1.00321 -1.25668 0
M  V30 459 O 43.0617 -1.26495 -1.19769 0
M  V30 460 C 40.1937 -2.55143 -2.26086 0
M  V30 461 H 41.3867 -2.95723 -0.498775 0
M  V30 462 H 38.9397 -1.54703 -0.222888 0
M  V30 463 H 39.6747 -1.71633 -2.75159 0
M  V30 464 H 39.4597 -3.34461 -2.04641 0
M  V30 465 H 40.9497 -2.95083 -2.95492 0
M  V30 466 N 41.3868 0.248026 -1.55636 0
M  V30 467 C 42.6118 0.998028 -1.81808 0
M  V30 468 C 43.0368 1.78207 -0.601979 0
M  V30 469 O 42.3948 1.75653 0.448961 0
M  V30 470 C 42.4428 1.9125 -3.05705 0
M  V30 471 O 41.5468 3.00406 -2.82542 0
M  V30 472 H 40.8878 0.284045 -0.600179 0
M  V30 473 H 43.4178 0.269357 -2.02819 0
M  V30 474 H 43.4278 2.32737 -3.35108 0
M  V30 475 H 42.1028 1.33602 -3.93857 0
M  V30 476 H 40.6798 2.63056 -2.64303 0
M  V30 477 N 42.8649 1.48995 0.513639 0
M  V30 478 C 44.1419 1.48338 1.27495 0
M  V30 479 C 44.5219 0.204065 2.10111 0
M  V30 480 O 43.8699 -0.813881 2.13514 0
M  V30 481 C 44.0799 2.75498 2.14247 0
M  V30 482 C 45.4279 3.24484 2.73852 0
M  V30 483 O 46.4519 2.76528 2.24523 0
M  V30 484 O 45.3109 4.07974 3.6362 0
M  V30 485 H 42.4049 0.593149 0.576284 0
M  V30 486 H 44.9509 1.61246 0.528948 0
M  V30 487 H 43.7229 3.60109 1.53092 0
M  V30 488 H 43.3459 2.6539 2.96064 0
M  V30 489 N 44.343 -0.763751 1.37857 0
M  V30 490 C 45.571 -1.55293 1.36718 0
M  V30 491 C 45.986 -1.88745 -0.0455434 0
M  V30 492 O 45.343 -1.52039 -1.00947 0
M  V30 493 C 45.394 -2.85831 2.2132 0
M  V30 494 O 45.115 -2.5381 3.57089 0
M  V30 495 C 46.616 -3.80023 2.28249 0
M  V30 496 H 43.836 -0.480841 0.468009 0
M  V30 497 H 46.38 -0.946009 1.81303 0
M  V30 498 H 44.535 -3.42926 1.80223 0
M  V30 499 H 44.949 -3.37459 4.01524 0
M  V30 500 H 46.423 -4.68599 2.91752 0
M  V30 501 H 46.9 -4.1973 1.2932 0
M  V30 502 H 47.506 -3.28855 2.69693 0
M  V30 503 N 45.8211 -1.22559 -0.990812 0
M  V30 504 C 46.7841 -0.998863 -2.0629 0
M  V30 505 C 47.7841 0.0354834 -1.60761 0
M  V30 506 O 48.9741 -0.203231 -1.7301 0
M  V30 507 C 46.1061 -0.509203 -3.37076 0
M  V30 508 H 47.2991 -1.95014 -2.27837 0
M  V30 509 H 44.8521 -1.04456 -1.16269 0
M  V30 510 H 45.5871 0.446335 -3.21214 0
M  V30 511 H 45.3721 -1.25547 -3.71457 0
M  V30 512 H 46.8621 -0.370888 -4.1595 0
M  V30 513 N 47.2992 1.18797 -1.03562 0
M  V30 514 C 48.5452 1.8893 -0.737113 0
M  V30 515 C 48.8782 1.79837 0.732956 0
M  V30 516 O 48.1532 1.19525 1.5344 0
M  V30 517 C 48.4362 3.39607 -1.19745 0
M  V30 518 C 48.2892 3.57537 -2.72924 0
M  V30 519 C 49.6082 4.33069 -0.783526 0
M  V30 520 H 46.7272 0.686057 -0.269249 0
M  V30 521 H 49.3692 1.39797 -1.28673 0
M  V30 522 H 47.5192 3.81583 -0.729855 0
M  V30 523 H 49.1912 3.24688 -3.27682 0
M  V30 524 H 47.4342 3.00363 -3.12993 0
M  V30 525 H 48.1052 4.63238 -3.00191 0
M  V30 526 H 50.5812 3.98846 -1.18581 0
M  V30 527 H 49.4572 5.3707 -1.13343 0
M  V30 528 H 49.7182 4.40986 0.313681 0
M  V30 529 N 48.7773 0.814389 1.34928 0
M  V30 530 C 50.0023 0.410097 2.03305 0
M  V30 531 C 50.4273 -0.973464 1.60951 0
M  V30 532 O 49.7853 -1.63185 0.789964 0
M  V30 533 C 49.8333 0.51049 3.56968 0
M  V30 534 O 48.9373 -0.473035 4.09678 0
M  V30 535 H 48.2783 0.170088 0.641846 0
M  V30 536 H 50.8083 1.10244 1.72358 0
M  V30 537 H 50.8183 0.383135 4.06197 0
M  V30 538 H 49.4933 1.51963 3.87144 0
M  V30 539 H 48.0703 -0.305272 3.71648 0
M  V30 540 N 50.2554 -1.46986 0.568584 0
M  V30 541 C 51.2034 -2.31858 -0.185649 0
M  V30 542 C 52.1974 -1.43624 -0.898249 0
M  V30 543 O 53.4034 -1.60327 -0.818242 0
M  V30 544 H 49.7784 -0.747866 -0.0787399 0
M  V30 545 H 51.7494 -2.93303 0.549191 0
M  V30 546 C 50.4984 -3.26513 -1.19519 0
M  V30 547 H 49.8214 -3.94377 -0.656285 0
M  V30 548 H 51.2614 -3.88707 -1.6936 0
M  V30 549 C 49.7204 -2.50847 -2.24894 0
M  V30 550 O 50.2504 -2.26119 -3.32014 0
M  V30 551 N 48.4564 -2.11656 -1.99124 0
M  V30 552 H 48.0034 -2.31966 -1.12024 0
M  V30 553 H 47.9614 -1.61347 -2.69842 0
M  V30 554 N 51.7335 -0.305618 -1.54608 0
M  V30 555 C 52.9795 0.302746 -2.00528 0
M  V30 556 C 53.3125 1.53184 -1.19367 0
M  V30 557 O 52.5875 1.92598 -0.271321 0
M  V30 558 C 52.8705 0.654756 -3.54097 0
M  V30 559 C 52.7235 -0.583793 -4.45995 0
M  V30 560 C 54.0425 1.47947 -4.14487 0
M  V30 561 H 51.1615 0.108564 -0.72896 0
M  V30 562 H 53.8035 -0.418634 -1.85331 0
M  V30 563 H 51.9535 1.26935 -3.67178 0
M  V30 564 H 53.6255 -1.22224 -4.44814 0
M  V30 565 H 51.8685 -1.21615 -4.16404 0
M  V30 566 H 52.5395 -0.293287 -5.5122 0
M  V30 567 H 55.0155 0.96013 -4.04871 0
M  V30 568 H 53.8915 1.69454 -5.22088 0
M  V30 569 H 54.1525 2.47011 -3.66658 0
M  V30 570 N 53.2116 1.57565 -0.0334293 0
M  V30 571 C 54.4576 1.92262 0.645226 0
M  V30 572 C 54.7906 0.910543 1.71531 0
M  V30 573 O 54.0656 -0.066099 1.94388 0
M  V30 574 C 54.3486 3.37422 1.2577 0
M  V30 575 C 54.2016 4.49369 0.196891 0
M  V30 576 C 55.5206 3.82628 2.17449 0
M  V30 577 H 52.6396 0.699171 0.233085 0
M  V30 578 H 55.2816 1.89779 -0.0915694 0
M  V30 579 H 53.4316 3.39669 1.88566 0
M  V30 580 H 55.1036 4.59254 -0.433962 0
M  V30 581 H 53.3466 4.31168 -0.477137 0
M  V30 582 H 54.0176 5.47978 0.665124 0
M  V30 583 H 56.4936 3.82145 1.64634 0
M  V30 584 H 55.3696 4.84883 2.57254 0
M  V30 585 H 55.6306 3.18376 3.0674 0
M  V30 586 N 54.6897 -0.239769 1.55765 0
M  V30 587 C 55.6377 -1.31668 1.91745 0
M  V30 588 C 56.6317 -1.49462 0.797338 0
M  V30 589 O 57.8377 -1.50852 0.982021 0
M  V30 590 H 54.2127 -0.441048 0.609082 0
M  V30 591 H 56.1837 -0.985923 2.81642 0
M  V30 592 C 54.9327 -2.66368 2.2348 0
M  V30 593 H 54.2557 -2.53478 3.09175 0
M  V30 594 H 55.6957 -3.40578 2.52553 0
M  V30 595 C 54.1547 -3.20002 1.05359 0
M  V30 596 O 54.6847 -4.00538 0.305261 0
M  V30 597 N 52.8907 -2.78126 0.842292 0
M  V30 598 H 52.4377 -2.12742 1.45253 0
M  V30 599 H 52.3957 -3.14354 0.053652 0
M  V30 600 N 56.1678 -1.49265 -0.50573 0
M  V30 601 C 57.3978 -1.61979 -1.28243 0
M  V30 602 C 57.8058 -0.288576 -1.86986 0
M  V30 603 O 57.1488 0.735408 -1.68337 0
M  V30 604 C 57.2108 -2.62632 -2.45489 0
M  V30 605 C 56.8748 -4.071 -2.07651 0
M  V30 606 C 57.8718 -4.94049 -1.61901 0
M  V30 607 C 55.5568 -4.52801 -2.17431 0
M  V30 608 C 57.5508 -6.24736 -1.26428 0
M  V30 609 C 55.2378 -5.83503 -1.8157 0
M  V30 610 C 56.2358 -6.69294 -1.36142 0
M  V30 611 O 55.9238 -7.9756 -1.00764 0
M  V30 612 H 55.6558 -0.54834 -0.395347 0
M  V30 613 H 58.2098 -1.96002 -0.614204 0
M  V30 614 H 56.4398 -2.2378 -3.15372 0
M  V30 615 H 58.1288 -2.64925 -3.07522 0
M  V30 616 H 58.8948 -4.5997 -1.53795 0
M  V30 617 H 54.7738 -3.86196 -2.51742 0
M  V30 618 H 58.3178 -6.91652 -0.908992 0
M  V30 619 H 54.2148 -6.17112 -1.89324 0
M  V30 620 H 54.9828 -8.10529 -1.13952 0
M  V30 621 N 57.6459 0.756429 -1.3826 0
M  V30 622 C 58.8709 1.55077 -1.37717 0
M  V30 623 C 59.2959 1.88073 0.03164 0
M  V30 624 O 58.6539 1.50364 1.01293 0
M  V30 625 C 58.7019 2.8283 -2.23695 0
M  V30 626 O 57.8059 3.77862 -1.6521 0
M  V30 627 H 57.1469 0.469152 -0.469885 0
M  V30 628 H 59.6769 0.935019 -1.81985 0
M  V30 629 H 59.6869 3.31783 -2.37453 0
M  V30 630 H 58.3619 2.58144 -3.2609 0
M  V30 631 H 56.9389 3.36555 -1.60578 0
M  V30 632 N 59.124 1.23083 0.984299 0
M  V30 633 C 60.352 1.08714 1.76037 0
M  V30 634 C 60.767 -0.361691 1.85303 0
M  V30 635 O 60.124 -1.25034 1.32939 0
M  V30 636 C 60.175 1.70206 3.18923 0
M  V30 637 O 59.896 3.09423 3.10144 0
M  V30 638 C 61.397 1.61227 4.12941 0
M  V30 639 H 58.617 0.380664 0.552572 0
M  V30 640 H 61.161 1.62853 1.23689 0
M  V30 641 H 59.316 1.20109 3.6831 0
M  V30 642 H 59.73 3.39188 4.00065 0
M  V30 643 H 61.204 2.08962 5.10919 0
M  V30 644 H 61.681 0.570375 4.35481 0
M  V30 645 H 62.287 2.10671 3.69456 0
M  V30 646 N 60.6021 -1.18246 1.0419 0
M  V30 647 C 61.8791 -1.84121 0.660208 0
M  V30 648 C 62.2591 -1.92778 -0.860221 0
M  V30 649 O 61.6071 -1.45464 -1.76217 0
M  V30 650 C 61.8171 -3.22355 1.33747 0
M  V30 651 C 63.1651 -3.98376 1.46906 0
M  V30 652 O 64.1891 -3.31799 1.29568 0
M  V30 653 O 63.0481 -5.17665 1.75171 0
M  V30 654 H 60.1421 -0.794036 0.231161 0
M  V30 655 H 62.6881 -1.25628 1.14087 0
M  V30 656 H 61.4601 -3.10964 2.37522 0
M  V30 657 H 61.0831 -3.88506 0.845515 0
M  V30 658 N 62.0802 -0.821533 -1.34494 0
M  V30 659 C 63.3262 -0.409552 -1.98622 0
M  V30 660 C 63.6592 1.0244 -1.64984 0
M  V30 661 O 62.9342 1.71325 -0.920758 0
M  V30 662 C 63.2172 -0.610458 -3.54888 0
M  V30 663 C 63.0702 -2.09043 -3.98273 0
M  V30 664 C 64.3892 -0.0455379 -4.40076 0
M  V30 665 H 61.5082 -0.15028 -0.721516 0
M  V30 666 H 64.1502 -1.03384 -1.59411 0
M  V30 667 H 62.3002 -0.079044 -3.8842 0
M  V30 668 H 63.9722 -2.68537 -3.75081 0
M  V30 669 H 62.2152 -2.58139 -3.48635 0
M  V30 670 H 62.8862 -2.18182 -5.07051 0
M  V30 671 H 65.3622 -0.499557 -4.1309 0
M  V30 672 H 64.2382 -0.215922 -5.48475 0
M  V30 673 H 64.4992 1.04939 -4.29465 0
M  V30 674 N 63.5583 1.46682 -0.576371 0
M  V30 675 C 64.8073 2.01619 -0.0572825 0
M  V30 676 C 65.1203 1.45417 1.30818 0
M  V30 677 O 66.3263 1.92133 1.91825 0
M  V30 678 C 64.7823 3.59863 -0.0518371 0
M  V30 679 C 64.3903 4.25059 -1.41523 0
M  V30 680 C 66.1343 4.2248 0.413639 0
M  V30 681 C 64.0413 5.75364 -1.36785 0
M  V30 682 H 62.9713 0.753794 -0.0176448 0
M  V30 683 H 65.6223 1.68481 -0.727076 0
M  V30 684 H 64.0043 3.90048 0.683994 0
M  V30 685 H 65.1783 4.06491 -2.17029 0
M  V30 686 H 63.4933 3.7451 -1.8202 0
M  V30 687 H 66.0903 5.3265 0.467779 0
M  V30 688 H 66.4333 3.90976 1.42982 0
M  V30 689 H 66.9663 3.96897 -0.267929 0
M  V30 690 H 63.7053 6.11518 -2.36063 0
M  V30 691 H 63.2253 5.96214 -0.654895 0
M  V30 692 H 64.9043 6.37955 -1.07805 0
M  V30 693 N 65.0364 0.313813 1.54444 0
M  V30 694 C 66.2664 -0.293491 2.04505 0
M  V30 695 C 66.6744 -1.47086 1.19005 0
M  V30 696 O 66.0174 -1.82481 0.211257 0
M  V30 697 C 66.0794 -0.800455 3.50475 0
M  V30 698 C 65.7434 0.253322 4.56297 0
M  V30 699 C 66.7404 1.08612 5.08428 0
M  V30 700 C 64.4254 0.398708 5.00715 0
M  V30 701 C 66.4194 2.05013 6.0353 0
M  V30 702 C 64.1064 1.36614 5.95634 0
M  V30 703 C 65.1044 2.19033 6.46926 0
M  V30 704 O 64.7924 3.14134 7.39983 0
M  V30 705 H 64.5244 -0.0658325 0.672787 0
M  V30 706 H 67.0784 0.455177 2.00293 0
M  V30 707 H 65.3084 -1.59987 3.52053 0
M  V30 708 H 66.9974 -1.32504 3.83663 0
M  V30 709 H 67.7634 0.984736 4.74898 0
M  V30 710 H 63.6424 -0.23289 4.60411 0
M  V30 711 H 67.1864 2.69382 6.4349 0
M  V30 712 H 63.0834 1.4682 6.28581 0
M  V30 713 H 63.8514 3.0926 7.57826 0
M  V30 714 N 66.5145 -1.57545 0.0417849 0
M  V30 715 C 67.4465 -2.07904 -0.964799 0
M  V30 716 C 68.4595 -1.00497 -1.28079 0
M  V30 717 O 69.6485 -1.28087 -1.24322 0
M  V30 718 C 66.7485 -2.49928 -2.28887 0
M  V30 719 C 65.9215 -3.80562 -2.15619 0
M  V30 720 C 64.9805 -4.08999 -3.31069 0
M  V30 721 O 64.0065 -4.79061 -3.0739 0
M  V30 722 N 65.2085 -3.6017 -4.55256 0
M  V30 723 H 67.9735 -2.94886 -0.535029 0
M  V30 724 H 65.5345 -1.61252 -0.144681 0
M  V30 725 H 67.5265 -2.66034 -3.04972 0
M  V30 726 H 66.0965 -1.68245 -2.63463 0
M  V30 727 H 65.3165 -3.74129 -1.24183 0
M  V30 728 H 66.6045 -4.66126 -2.03971 0
M  V30 729 H 66.0025 -3.03512 -4.77386 0
M  V30 730 H 64.5595 -3.81532 -5.28466 0
M  V30 731 N 67.9926 0.231505 -1.5589 0
M  V30 732 C 69.2416 0.955346 -1.7764 0
M  V30 733 C 69.5546 1.85893 -0.608546 0
M  V30 734 O 70.7606 2.62067 -0.70943 0
M  V30 735 C 69.2166 1.74886 -3.14552 0
M  V30 736 C 68.8246 0.891915 -4.39032 0
M  V30 737 C 70.5686 2.46452 -3.45633 0
M  V30 738 C 68.4756 1.68221 -5.66971 0
M  V30 739 H 67.4056 0.360446 -0.662265 0
M  V30 740 H 70.0566 0.209516 -1.823 0
M  V30 741 H 68.4386 2.53723 -3.04041 0
M  V30 742 H 69.6126 0.144793 -4.60572 0
M  V30 743 H 67.9276 0.288863 -4.15397 0
M  V30 744 H 70.5246 3.06061 -4.38441 0
M  V30 745 H 70.8676 3.18841 -2.67668 0
M  V30 746 H 71.4006 1.74613 -3.57428 0
M  V30 747 H 68.1396 1.00178 -6.478 0
M  V30 748 H 67.6596 2.4042 -5.49507 0
M  V30 749 H 69.3386 2.24544 -6.06786 0
M  V30 750 N 69.4707 1.49531 0.497807 0
M  V30 751 C 70.7167 1.59415 1.25358 0
M  V30 752 C 71.0497 0.281422 1.9215 0
M  V30 753 O 70.3247 -0.715249 1.80871 0
M  V30 754 C 70.6077 2.75566 2.3181 0
M  V30 755 C 70.4607 4.16642 1.69498 0
M  V30 756 C 71.7797 2.87347 3.33346 0
M  V30 757 H 68.8987 0.580244 0.454408 0
M  V30 758 H 71.5407 1.81827 0.551262 0
M  V30 759 H 69.6907 2.56587 2.91711 0
M  V30 760 H 71.3627 4.47145 1.13399 0
M  V30 761 H 69.6057 4.22141 0.998978 0
M  V30 762 H 70.2767 4.93792 2.46725 0
M  V30 763 H 72.7527 3.04634 2.83438 0
M  V30 764 H 71.6287 3.70289 4.05188 0
M  V30 765 H 71.8897 1.96834 3.95865 0
M  V30 766 N 70.9488 -0.749086 1.3866 0
M  V30 767 C 72.1768 -1.53834 1.38358 0
M  V30 768 C 72.5918 -1.88783 -0.0255219 0
M  V30 769 O 71.9488 -1.53101 -0.993292 0
M  V30 770 C 71.9998 -2.83468 2.2434 0
M  V30 771 O 71.7208 -2.50008 3.5976 0
M  V30 772 C 73.2218 -3.7758 2.32267 0
M  V30 773 H 70.4418 -0.47585 0.473083 0
M  V30 774 H 72.9858 -0.926726 1.82297 0
M  V30 775 H 71.1408 -3.40995 1.83851 0
M  V30 776 H 71.5548 -3.33182 4.05081 0
M  V30 777 H 73.0288 -4.65478 2.96706 0
M  V30 778 H 73.5058 -4.18334 1.33765 0
M  V30 779 H 74.1118 -3.25976 2.73166 0
M  V30 780 N 72.4269 -1.23603 -0.977757 0
M  V30 781 C 73.7039 -0.977897 -1.69401 0
M  V30 782 C 74.0839 0.502738 -2.05026 0
M  V30 783 O 73.4319 1.47459 -1.74551 0
M  V30 784 C 73.6419 -1.89077 -2.93345 0
M  V30 785 C 74.9899 -2.15579 -3.65802 0
M  V30 786 O 76.0139 -1.86648 -3.03383 0
M  V30 787 O 74.8729 -2.64658 -4.78141 0
M  V30 788 H 71.9669 -0.369025 -0.740101 0
M  V30 789 H 74.5129 -1.34657 -1.03274 0
M  V30 790 H 73.2849 -2.89158 -2.63634 0
M  V30 791 H 72.9079 -1.52463 -3.67207 0
M  V30 792 N 73.905 1.17692 -1.04816 0
M  V30 793 C 75.321 1.39863 -0.768794 0
M  V30 794 C 75.521 1.91118 0.638451 0
M  V30 795 O 74.577 2.10036 1.40146 0
M  V30 796 C 75.89 2.39274 -1.82122 0
M  V30 797 C 77.438 2.52987 -1.843 0
M  V30 798 C 77.913 3.55669 -2.88555 0
M  V30 799 N 79.404 3.63183 -2.87493 0
M  V30 800 C 80.139 4.42381 -3.64811 0
M  V30 801 N 79.635 5.25125 -4.51903 0
M  V30 802 N 81.428 4.37217 -3.53267 0
M  V30 803 H 73.579 0.82752 -1.95617 0
M  V30 804 H 75.842 0.426123 -0.846831 0
M  V30 805 H 75.548 2.08678 -2.83102 0
M  V30 806 H 75.422 3.38725 -1.65967 0
M  V30 807 H 77.809 2.82896 -0.839869 0
M  V30 808 H 77.89 1.53623 -2.04532 0
M  V30 809 H 77.534 3.26499 -3.89051 0
M  V30 810 H 77.464 4.54728 -2.65575 0
M  V30 811 H 79.955 3.04103 -2.24343 0
M  V30 812 H 80.268 5.82728 -5.07591 0
M  V30 813 H 78.613 5.24519 -4.55966 0
M  V30 814 H 81.804 3.71626 -2.84625 0
M  V30 815 H 81.977 4.98696 -4.13771 0
M  V30 816 N 75.3831 0.828654 1.34056 0
M  V30 817 C 76.6301 0.419458 1.98108 0
M  V30 818 C 76.9581 -1.01886 1.65679 0
M  V30 819 O 76.2131 -1.72539 0.923512 0
M  V30 820 C 76.5121 0.575226 3.52741 0
M  V30 821 C 76.1781 1.98012 4.05095 0
M  V30 822 C 74.8401 2.36442 4.19104 0
M  V30 823 C 77.1921 2.89824 4.33188 0
M  V30 824 C 74.5201 3.66009 4.58535 0
M  V30 825 C 76.8721 4.1886 4.74066 0
M  V30 826 C 75.5361 4.5726 4.86281 0
M  V30 827 H 74.8061 0.153491 0.724929 0
M  V30 828 H 77.4531 1.05371 1.59904 0
M  V30 829 H 75.7581 -0.142385 3.91541 0
M  V30 830 H 77.4551 0.239057 4.00287 0
M  V30 831 H 74.0451 1.67162 3.94658 0
M  V30 832 H 78.2291 2.61375 4.21897 0
M  V30 833 H 73.4851 3.95579 4.66184 0
M  V30 834 H 77.6591 4.90086 4.94761 0
M  V30 835 H 75.2861 5.57707 5.16592 0
M  V30 836 N 76.8612 -1.46375 0.584142 0
M  V30 837 C 78.1072 -2.02678 0.0703716 0
M  V30 838 C 78.4402 -1.4545 -1.28678 0
M  V30 839 O 77.7152 -0.62014 -1.84349 0
M  V30 840 C 77.9982 -3.60099 0.00614674 0
M  V30 841 C 77.8512 -4.27709 1.3923 0
M  V30 842 C 79.1702 -4.34598 -0.693742 0
M  V30 843 H 76.2892 -0.736504 0.027047 0
M  V30 844 H 78.9312 -1.74501 0.751615 0
M  V30 845 H 77.0812 -3.84236 -0.574009 0
M  V30 846 H 78.7532 -4.14832 2.01773 0
M  V30 847 H 76.9962 -3.87016 1.95962 0
M  V30 848 H 77.6672 -5.36478 1.29982 0
M  V30 849 H 80.1432 -4.15615 -0.200869 0
M  V30 850 H 79.0192 -5.44318 -0.707714 0
M  V30 851 H 79.2802 -4.05759 -1.75533 0
M  V30 852 N 78.3393 -0.321999 -1.54275 0
M  V30 853 C 79.6163 0.335232 -1.92706 0
M  V30 854 C 79.9963 1.70006 -1.25145 0
M  V30 855 O 79.3443 2.25067 -0.394596 0
M  V30 856 C 79.5543 0.429008 -3.46353 0
M  V30 857 C 80.9023 0.690029 -4.18956 0
M  V30 858 O 81.9263 0.511992 -3.52501 0
M  V30 859 O 80.7853 1.03338 -5.36641 0
M  V30 860 H 77.8793 0.191143 -0.804608 0
M  V30 861 H 80.4253 -0.3716 -1.65581 0
M  V30 862 H 79.1973 -0.529611 -3.87699 0
M  V30 863 H 78.8203 1.18348 -3.79578 0
M  V30 864 N 79.8174 1.5752 -0.0501392 0
M  V30 865 C 81.0654 1.9227 0.622642 0
M  V30 866 C 81.3864 0.929083 1.71444 0
M  V30 867 O 80.6564 -0.0262186 1.95882 0
M  V30 868 H 79.2364 0.709739 0.232981 0
M  V30 869 H 81.8984 1.94628 -0.102898 0
M  V30 870 H 80.9944 2.93479 1.06191 0
M  V30 871 N 81.2955 -0.223234 1.56011 0
M  V30 872 C 82.2435 -1.29627 1.93131 0
M  V30 873 C 83.2375 -1.48608 0.813146 0
M  V30 874 O 84.4435 -1.49802 0.997966 0
M  V30 875 H 80.8185 -0.434563 0.613726 0
M  V30 876 H 82.7895 -0.955995 2.82672 0
M  V30 877 C 81.5385 -2.63983 2.26292 0
M  V30 878 H 80.8615 -2.50185 3.11846 0
M  V30 879 H 82.3015 -3.3788 2.56151 0
M  V30 880 C 80.7605 -3.18866 1.08747 0
M  V30 881 O 81.2905 -4.00192 0.347727 0
M  V30 882 N 79.4965 -2.77217 0.871743 0
M  V30 883 H 79.0435 -2.1119 1.47501 0
M  V30 884 H 79.0015 -3.1428 0.0869905 0
M  V30 885 N 82.7736 -1.49793 -0.48987 0
M  V30 886 C 84.0016 -1.63568 -1.26701 0
M  V30 887 C 84.4166 -0.311465 -1.86213 0
M  V30 888 O 83.7736 0.704416 -1.68357 0
M  V30 889 C 83.8246 -2.71284 -2.38929 0
M  V30 890 O 83.5456 -3.9857 -1.81861 0
M  V30 891 C 85.0466 -2.95864 -3.3012 0
M  V30 892 H 82.2666 -0.550342 -0.383881 0
M  V30 893 H 84.8106 -1.95898 -0.586864 0
M  V30 894 H 82.9656 -2.417 -3.02753 0
M  V30 895 H 83.3796 -4.57993 -2.55622 0
M  V30 896 H 84.8536 -3.74941 -4.05121 0
M  V30 897 H 85.3306 -2.06206 -3.87783 0
M  V30 898 H 85.9366 -3.26907 -2.72051 0
M  V30 899 N 84.2517 0.741722 -1.39055 0
M  V30 900 C 85.4767 1.53607 -1.39354 0
M  V30 901 C 85.9017 1.88096 0.0116905 0
M  V30 902 O 85.2597 1.5143 0.996924 0
M  V30 903 C 85.3077 2.80441 -2.26682 0
M  V30 904 O 84.4117 3.76088 -1.69208 0
M  V30 905 H 83.7527 0.464142 -0.474835 0
M  V30 906 H 86.2827 0.915665 -1.82967 0
M  V30 907 H 86.2927 3.29246 -2.40959 0
M  V30 908 H 84.9677 2.5467 -3.2881 0
M  V30 909 H 83.5447 3.34833 -1.64138 0
M  V30 910 N 85.7298 1.2412 0.971189 0
M  V30 911 C 86.6778 1.02812 2.08644 0
M  V30 912 C 87.6718 -0.0358403 1.69362 0
M  V30 913 O 88.8778 0.118429 1.7961 0
M  V30 914 H 85.2528 0.315428 0.682649 0
M  V30 915 H 87.2238 1.97397 2.23779 0
M  V30 916 C 85.9728 0.645874 3.41649 0
M  V30 917 H 85.2958 1.45632 3.72332 0
M  V30 918 H 86.7358 0.536366 4.20594 0
M  V30 919 C 85.1948 -0.646713 3.30635 0
M  V30 920 O 85.7248 -1.69338 3.64263 0
M  V30 921 N 83.9308 -0.626115 2.83775 0
M  V30 922 H 83.4778 0.225988 2.56607 0
M  V30 923 H 83.4358 -1.49117 2.76788 0
M  V30 924 N 87.2079 -1.17134 1.05439 0
M  V30 925 C 88.1559 -2.23289 0.651511 0
M  V30 926 C 89.1499 -1.66186 -0.328411 0
M  V30 927 O 90.3559 -1.78949 -0.194206 0
M  V30 928 H 86.7309 -0.726938 0.192523 0
M  V30 929 H 88.7019 -2.54565 1.55689 0
M  V30 930 C 87.4509 -3.47671 0.0448436 0
M  V30 931 H 86.7739 -3.91918 0.78996 0
M  V30 932 H 88.2139 -4.2353 -0.19964 0
M  V30 933 C 86.6729 -3.14453 -1.20918 0
M  V30 934 O 87.2029 -3.29459 -2.29825 0
M  V30 935 N 85.4089 -2.68657 -1.10779 0
M  V30 936 H 84.9559 -2.56646 -0.221526 0
M  V30 937 H 84.9139 -2.46804 -1.9477 0
M  V30 938 N 88.686 -0.835752 -1.33615 0
M  V30 939 C 90.097 -0.487099 -1.80234 0
M  V30 940 C 90.448 0.993627 -1.69179 0
M  V30 941 O 89.573 1.77403 -1.23924 0
M  V30 942 C 90.168 -0.877385 -3.27242 0
M  V30 943 C 88.727 -0.580915 -3.7189 0
M  V30 944 C 87.874 -1.0874 -2.5509 0
M  V30 945 H 90.825 -1.02474 -1.2118 0
M  V30 946 H 90.846 -0.186195 -3.80044 0
M  V30 947 H 90.358 -1.95512 -3.35256 0
M  V30 948 H 88.459 0.486881 -3.69405 0
M  V30 949 H 88.572 -1.13396 -4.65487 0
M  V30 950 H 86.936 -0.508392 -2.49575 0
M  V30 951 H 87.719 -2.17184 -2.65868 0
M  V30 952 N 90.1641 1.46063 -0.591896 0
M  V30 953 C 91.3921 2.06717 -0.0868936 0
M  V30 954 C 91.8071 1.43916 1.22203 0
M  V30 955 O 91.1641 0.547698 1.74088 0
M  V30 956 C 91.2151 3.6142 0.0758725 0
M  V30 957 O 90.9361 4.21874 -1.18126 0
M  V30 958 C 92.4371 4.39025 0.61416 0
M  V30 959 H 89.6571 0.668162 -0.0616518 0
M  V30 960 H 92.2011 1.8755 -0.815175 0
M  V30 961 H 90.3561 3.79983 0.754413 0
M  V30 962 H 90.7701 5.14861 -1.00092 0
M  V30 963 H 92.2441 5.4783 0.677193 0
M  V30 964 H 92.7211 4.07708 1.63312 0
M  V30 965 H 93.3271 4.2529 -0.0298142 0
M  V30 966 N 91.6422 0.330177 1.54103 0
M  V30 967 C 92.8902 -0.269871 2.0029 0
M  V30 968 C 93.2112 -1.52133 1.21986 0
M  V30 969 O 92.4812 -1.93212 0.323438 0
M  V30 970 H 91.0612 -0.10271 0.739905 0
M  V30 971 H 93.7232 0.448249 1.89675 0
M  V30 972 H 92.8192 -0.52166 3.07709 0
M  V30 973 N 93.1203 -1.57491 0.0584922 0
M  V30 974 C 94.3973 -1.84346 -0.653918 0
M  V30 975 C 94.7773 -0.948355 -1.88599 0
M  V30 976 O 94.1253 -0.0112403 -2.28497 0
M  V30 977 C 94.3353 -3.34239 -1.00425 0
M  V30 978 C 95.6833 -4.01431 -1.38342 0
M  V30 979 O 96.7073 -3.38907 -1.09637 0
M  V30 980 O 95.5663 -5.11683 -1.91943 0
M  V30 981 H 92.6603 -0.761112 -0.323478 0
M  V30 982 H 95.2063 -1.6947 0.0884125 0
M  V30 983 H 93.9783 -3.91089 -0.128625 0
M  V30 984 H 93.6013 -3.54329 -1.80378 0
M  V30 985 N 94.5984 0.214957 -1.56127 0
M  V30 986 C 95.5284 1.2695 -1.95974 0
M  V30 987 C 96.5094 1.48539 -0.828868 0
M  V30 988 O 97.6944 1.60611 -1.09168 0
M  V30 989 C 94.8244 2.61794 -2.28214 0
M  V30 990 C 93.7784 2.54851 -3.43853 0
M  V30 991 C 93.1044 3.93785 -3.61715 0
M  V30 992 C 94.4044 2.09065 -4.78632 0
M  V30 993 H 96.0984 0.93846 -2.84312 0
M  V30 994 H 93.6444 0.449996 -1.36788 0
M  V30 995 H 95.5974 3.35731 -2.54682 0
M  V30 996 H 94.3214 2.96599 -1.36736 0
M  V30 997 H 92.9804 1.8337 -3.17444 0
M  V30 998 H 92.6284 4.25908 -2.67602 0
M  V30 999 H 92.3284 3.90019 -4.39498 0
M  V30 1000 H 93.8524 4.69374 -3.90539 0
M  V30 1001 H 95.2664 2.7275 -5.04262 0
M  V30 1002 H 93.6634 2.16346 -5.59745 0
M  V30 1003 H 94.7334 1.04315 -4.73547 0
M  V30 1004 N 96.0765 1.50051 0.48192 0
M  V30 1005 C 97.3065 1.63999 1.2565 0
M  V30 1006 C 97.7145 0.318288 1.86504 0
M  V30 1007 O 97.0575 -0.708534 1.69486 0
M  V30 1008 C 97.1195 2.66504 2.4128 0
M  V30 1009 C 96.7835 4.10352 2.01148 0
M  V30 1010 C 97.7805 4.96562 1.54021 0
M  V30 1011 C 95.4655 4.56203 2.10199 0
M  V30 1012 C 97.4595 6.26668 1.16473 0
M  V30 1013 C 95.1465 5.86318 1.72264 0
M  V30 1014 C 96.1445 6.71375 1.25477 0
M  V30 1015 O 95.8325 7.99062 0.880626 0
M  V30 1016 H 95.5645 0.55456 0.386574 0
M  V30 1017 H 98.1185 1.96954 0.582944 0
M  V30 1018 H 96.3485 2.28769 3.11772 0
M  V30 1019 H 98.0375 2.69783 3.03268 0
M  V30 1020 H 98.8035 4.62358 1.46458 0
M  V30 1021 H 94.6825 3.90152 2.45566 0
M  V30 1022 H 98.2265 6.93011 0.798841 0
M  V30 1023 H 94.1235 6.20046 1.79482 0
M  V30 1024 H 94.8915 8.12239 1.01043 0
M  V30 1025 N 97.5546 -0.734337 1.39446 0
M  V30 1026 C 98.8316 -1.48579 1.27215 0
M  V30 1027 C 99.2116 -2.1077 -0.117968 0
M  V30 1028 O 98.5596 -1.98646 -1.12924 0
M  V30 1029 C 98.7696 -2.53667 2.39696 0
M  V30 1030 C 100.118 -3.20031 2.79044 0
M  V30 1031 O 101.142 -2.6398 2.39151 0
M  V30 1032 O 100.001 -4.21455 3.47905 0
M  V30 1033 H 97.0946 -0.659816 0.49857 0
M  V30 1034 H 99.6406 -0.768106 1.51322 0
M  V30 1035 H 98.4126 -2.06096 3.32626 0
M  V30 1036 H 98.0356 -3.32994 2.17258 0
M  V30 1037 N 99.0327 -1.24633 -0.964593 0
M  V30 1038 C 100.444 -1.08045 -1.5226 0
M  V30 1039 C 100.795 0.347116 -1.93105 0
M  V30 1040 O 99.9197 1.23588 -1.77637 0
M  V30 1041 C 100.515 -1.95514 -2.76695 0
M  V30 1042 C 99.0737 -1.8314 -3.28841 0
M  V30 1043 C 98.2207 -1.90262 -2.01732 0
M  V30 1044 H 101.172 -1.38064 -0.782553 0
M  V30 1045 H 101.193 -1.48925 -3.50145 0
M  V30 1046 H 100.705 -2.99407 -2.46936 0
M  V30 1047 H 98.8057 -0.82092 -3.63444 0
M  V30 1048 H 98.9187 -2.67406 -3.97531 0
M  V30 1049 H 97.2827 -1.34027 -2.16584 0
M  V30 1050 H 98.0657 -2.9574 -1.74334 0
M  V30 1051 N 100.511 1.16574 -1.06058 0
M  V30 1052 C 101.739 1.90952 -0.796552 0
M  V30 1053 C 102.154 1.77302 0.648808 0
M  V30 1054 O 101.511 1.11605 1.44397 0
M  V30 1055 C 101.562 3.41736 -1.17894 0
M  V30 1056 O 101.283 3.54975 -2.56758 0
M  V30 1057 C 102.784 4.33169 -0.942308 0
M  V30 1058 H 100.004 0.605594 -0.288959 0
M  V30 1059 H 102.548 1.47777 -1.41358 0
M  V30 1060 H 100.703 3.82623 -0.606491 0
M  V30 1061 H 101.117 4.4846 -2.72 0
M  V30 1062 H 102.591 5.37439 -1.25952 0
M  V30 1063 H 103.068 4.3903 0.122078 0
M  V30 1064 H 103.674 3.98007 -1.49902 0
M  V30 1065 N 101.989 0.842826 1.3317 0
M  V30 1066 C 102.939 0.250877 2.26616 0
M  V30 1067 C 103.923 -0.596427 1.49437 0
M  V30 1068 O 105.115 -0.447747 1.71243 0
M  V30 1069 C 102.244 -0.569779 3.38539 0
M  V30 1070 C 101.33 0.289254 4.23112 0
M  V30 1071 N 101.721 1.36987 4.86897 0
M  V30 1072 C 100.019 0.0769631 4.45934 0
M  V30 1073 C 100.72 1.89737 5.49886 0
M  V30 1074 N 99.6959 1.19827 5.30229 0
M  V30 1075 H 103.498 1.07718 2.73448 0
M  V30 1076 H 101.012 0.687693 1.47121 0
M  V30 1077 H 103.009 -1.01018 4.04476 0
M  V30 1078 H 101.669 -1.39401 2.93253 0
M  V30 1079 H 102.68 1.75277 4.87338 0
M  V30 1080 H 99.3569 -0.713507 4.11358 0
M  V30 1081 H 100.747 2.80253 6.10662 0
M  V30 1082 N 103.467 -1.45747 0.599634 0
M  V30 1083 C 104.695 -2.06668 0.0978551 0
M  V30 1084 C 105.11 -1.44562 -1.21439 0
M  V30 1085 O 104.467 -0.556923 -1.73795 0
M  V30 1086 C 104.518 -3.61456 -0.0567044 0
M  V30 1087 O 104.239 -4.21242 1.20361 0
M  V30 1088 C 105.74 -4.39345 -0.590869 0
M  V30 1089 H 102.96 -0.667825 0.0651943 0
M  V30 1090 H 105.504 -1.87115 0.82511 0
M  V30 1091 H 103.659 -3.80378 -0.734251 0
M  V30 1092 H 104.073 -5.14323 1.02821 0
M  V30 1093 H 105.547 -5.48182 -0.648131 0
M  V30 1094 H 106.024 -4.08568 -1.61147 0
M  V30 1095 H 106.63 -4.25268 0.0523679 0
M  V30 1096 N 104.945 -0.338344 -1.53925 0
M  V30 1097 C 106.17 0.263987 -2.05713 0
M  V30 1098 C 106.595 1.43847 -1.21201 0
M  V30 1099 O 105.953 1.79904 -0.224535 0
M  V30 1100 C 106.001 0.662 -3.54471 0
M  V30 1101 O 105.105 1.76265 -3.72833 0
M  V30 1102 H 104.446 0.0448722 -0.662482 0
M  V30 1103 H 106.976 -0.491048 -1.9862 0
M  V30 1104 H 106.986 0.940594 -3.9701 0
M  V30 1105 H 105.661 -0.196937 -4.15433 0
M  V30 1106 H 104.238 1.48173 -3.42198 0
M  V30 1107 N 106.423 1.57458 -0.0668435 0
M  V30 1108 C 107.353 2.15468 0.899764 0
M  V30 1109 C 108.334 1.08042 1.31381 0
M  V30 1110 O 109.519 1.36054 1.38574 0
M  V30 1111 C 106.649 2.71232 2.16911 0
M  V30 1112 C 105.603 3.83781 1.89463 0
M  V30 1113 C 104.929 4.26127 3.22986 0
M  V30 1114 C 106.229 5.08238 1.20381 0
M  V30 1115 H 107.923 2.96488 0.416529 0
M  V30 1116 H 105.469 1.4262 0.198908 0
M  V30 1117 H 107.422 3.10458 2.84945 0
M  V30 1118 H 106.146 1.87426 2.67468 0
M  V30 1119 H 104.805 3.45051 1.23836 0
M  V30 1120 H 104.453 3.39249 3.71374 0
M  V30 1121 H 104.153 5.01993 3.05413 0
M  V30 1122 H 105.677 4.67966 3.92225 0
M  V30 1123 H 107.091 5.44811 1.78475 0
M  V30 1124 H 105.488 5.89349 1.13083 0
M  V30 1125 H 106.558 4.84558 0.182153 0
M  V30 1126 N 107.901 -0.206675 1.56239 0
M  V30 1127 C 108.848 -1.25617 1.93621 0
M  V30 1128 C 109.818 -1.45824 0.795274 0
M  V30 1129 O 111.003 -1.59148 1.05245 0
M  V30 1130 C 108.143 -2.59839 2.27107 0
M  V30 1131 C 107.256 -2.47308 3.54207 0
M  V30 1132 C 106.391 -3.74155 3.7707 0
M  V30 1133 C 105.43 -3.56407 4.97635 0
M  V30 1134 N 104.567 -4.75238 5.1681 0
M  V30 1135 H 109.407 -0.930383 2.83104 0
M  V30 1136 H 106.944 -0.448065 1.4011 0
M  V30 1137 H 108.902 -3.38021 2.44535 0
M  V30 1138 H 107.532 -2.90485 1.40778 0
M  V30 1139 H 106.584 -1.60483 3.4489 0
M  V30 1140 H 107.896 -2.30122 4.42544 0
M  V30 1141 H 107.05 -4.60778 3.94675 0
M  V30 1142 H 105.789 -3.94282 2.87042 0
M  V30 1143 H 104.794 -2.68168 4.79964 0
M  V30 1144 H 106.019 -3.37736 5.89161 0
M  V30 1145 H 103.965 -4.95651 4.29728 0
M  V30 1146 H 103.882 -4.60835 5.99306 0
M  V30 1147 H 105.15 -5.63246 5.38864 0
M  V30 1148 N 109.379 -1.50304 -0.473955 0
M  V30 1149 C 110.326 -1.68959 -1.57231 0
M  V30 1150 C 111.296 -0.530899 -1.57387 0
M  V30 1151 O 112.481 -0.761133 -1.74961 0
M  V30 1152 C 109.621 -1.7871 -2.95223 0
M  V30 1153 C 108.734 -3.06061 -3.04878 0
M  V30 1154 C 107.869 -3.06626 -4.33767 0
M  V30 1155 C 106.908 -4.28443 -4.37154 0
M  V30 1156 N 106.045 -4.26763 -5.5751 0
M  V30 1157 H 110.885 -2.6273 -1.40631 0
M  V30 1158 H 108.422 -1.30241 -0.683789 0
M  V30 1159 H 110.38 -1.82344 -3.75242 0
M  V30 1160 H 109.01 -0.883806 -3.10465 0
M  V30 1161 H 108.062 -3.11911 -2.17751 0
M  V30 1162 H 109.374 -3.96039 -3.0324 0
M  V30 1163 H 108.528 -3.08973 -5.22131 0
M  V30 1164 H 107.267 -2.14473 -4.3801 0
M  V30 1165 H 106.272 -4.2631 -3.47188 0
M  V30 1166 H 107.497 -5.2182 -4.34605 0
M  V30 1167 H 105.443 -3.37462 -5.62544 0
M  V30 1168 H 105.36 -5.10507 -5.57601 0
M  V30 1169 H 106.628 -4.33253 -6.48006 0
M  V30 1170 N 110.857 0.726932 -1.39834 0
M  V30 1171 C 112.087 1.51393 -1.40583 0
M  V30 1172 C 112.495 1.892 -0.000740625 0
M  V30 1173 O 111.838 1.55189 0.982951 0
M  V30 1174 C 111.9 2.82588 -2.22226 0
M  V30 1175 C 111.564 2.67169 -3.70769 0
M  V30 1176 C 112.561 2.3518 -4.63666 0
M  V30 1177 C 110.246 2.83788 -4.14451 0
M  V30 1178 C 112.24 2.20002 -5.98229 0
M  V30 1179 C 109.927 2.68229 -5.49087 0
M  V30 1180 C 110.925 2.36382 -6.4079 0
M  V30 1181 O 110.613 2.2093 -7.72946 0
M  V30 1182 H 110.345 0.474168 -0.48181 0
M  V30 1183 H 112.899 0.905247 -1.84376 0
M  V30 1184 H 111.129 3.45746 -1.73195 0
M  V30 1185 H 112.818 3.44247 -2.15055 0
M  V30 1186 H 113.584 2.21984 -4.31217 0
M  V30 1187 H 109.463 3.07566 -3.43401 0
M  V30 1188 H 113.007 1.95067 -6.69772 0
M  V30 1189 H 108.904 2.81006 -5.81125 0
M  V30 1190 H 109.672 2.35937 -7.83757 0
M  V30 1191 N 112.336 1.25143 0.95797 0
M  V30 1192 C 113.583 1.09692 1.70217 0
M  V30 1193 C 113.911 -0.362654 1.91089 0
M  V30 1194 O 113.166 -1.28386 1.47701 0
M  V30 1195 C 113.465 1.79272 3.09187 0
M  V30 1196 C 113.131 3.29196 3.08125 0
M  V30 1197 C 111.793 3.70096 3.07543 0
M  V30 1198 C 114.145 4.24995 3.0171 0
M  V30 1199 C 111.473 5.05213 2.9829 0
M  V30 1200 C 113.825 5.60132 2.93999 0
M  V30 1201 C 112.489 6.00365 2.9175 0
M  V30 1202 H 111.759 0.401393 0.622868 0
M  V30 1203 H 114.406 1.55372 1.11945 0
M  V30 1204 H 112.711 1.26014 3.70982 0
M  V30 1205 H 114.408 1.64773 3.65583 0
M  V30 1206 H 110.998 2.96651 3.09348 0
M  V30 1207 H 115.182 3.9439 3.01281 0
M  V30 1208 H 110.438 5.35569 2.94916 0
M  V30 1209 H 114.612 6.3406 2.87996 0
M  V30 1210 H 112.239 7.05023 2.84336 0
M  V30 1211 N 113.814 -1.1601 1.06675 0
M  V30 1212 C 115.062 -1.86264 0.784229 0
M  V30 1213 C 115.383 -1.82328 -0.691488 0
M  V30 1214 O 114.653 -1.25947 -1.50047 0
M  V30 1215 H 113.233 -0.689621 0.28711 0
M  V30 1216 H 115.895 -1.40664 1.34906 0
M  V30 1217 H 114.991 -2.91595 1.11259 0
M  V30 1218 N 115.292 -0.849877 -1.32721 0
M  V30 1219 C 116.54 -0.450032 -1.97026 0
M  V30 1220 C 116.861 0.996604 -1.67609 0
M  V30 1221 O 116.131 1.6958 -0.980786 0
M  V30 1222 H 114.711 -0.163426 -0.728904 0
M  V30 1223 H 117.373 -1.08526 -1.6189 0
M  V30 1224 H 116.469 -0.591146 -3.0645 0
M  V30 1225 N 116.77 1.45427 -0.607355 0
M  V30 1226 C 118.047 1.9557 -0.0344566 0
M  V30 1227 C 118.427 1.54979 1.43334 0
M  V30 1228 O 117.775 0.812241 2.13576 0
M  V30 1229 C 117.985 3.48226 -0.232321 0
M  V30 1230 C 119.333 4.2445 -0.113001 0
M  V30 1231 O 120.357 3.55829 -0.162431 0
M  V30 1232 O 119.216 5.465 0.00209442 0
M  V30 1233 H 116.31 0.826222 0.0358667 0
M  V30 1234 H 118.856 1.55594 -0.6774 0
M  V30 1235 H 117.628 3.70739 -1.25174 0
M  V30 1236 H 117.251 3.95092 0.445896 0
M  V30 1237 N 118.248 0.346503 1.53744 0
M  V30 1238 C 119.494 -0.242135 2.01954 0
M  V30 1239 C 119.849 -1.47962 1.22984 0
M  V30 1240 O 119.142 -1.89077 0.309924 0
M  V30 1241 C 119.336 -0.605809 3.52228 0
M  V30 1242 C 119.165 0.594882 4.45748 0
M  V30 1243 C 117.935 1.1011 4.93157 0
M  V30 1244 C 120.133 1.45425 4.93311 0
M  V30 1245 N 118.115 2.26381 5.70636 0
M  V30 1246 C 119.486 2.46383 5.68942 0
M  V30 1247 C 121.541 1.47935 4.75415 0
M  V30 1248 C 120.244 3.49684 6.28581 0
M  V30 1249 C 122.27 2.50119 5.35905 0
M  V30 1250 C 121.632 3.49803 6.11406 0
M  V30 1251 H 117.731 -0.0518296 0.780281 0
M  V30 1252 H 120.315 0.486736 1.88518 0
M  V30 1253 H 118.486 -1.30378 3.65864 0
M  V30 1254 H 120.218 -1.17789 3.87179 0
M  V30 1255 H 116.973 0.668721 4.68855 0
M  V30 1256 H 117.397 2.85094 6.14044 0
M  V30 1257 H 122.039 0.722274 4.16585 0
M  V30 1258 H 119.757 4.26285 6.86518 0
M  V30 1259 H 123.343 2.52892 5.23963 0
M  V30 1260 H 122.223 4.27576 6.5738 0
M  V30 1261 N 119.726 -1.57421 0.075193 0
M  V30 1262 C 120.658 -2.09904 -0.920483 0
M  V30 1263 C 121.671 -1.03191 -1.25918 0
M  V30 1264 O 122.86 -1.30695 -1.21577 0
M  V30 1265 C 119.96 -2.54726 -2.23534 0
M  V30 1266 C 119.133 -3.8505 -2.07498 0
M  V30 1267 C 118.192 -4.15929 -3.22319 0
M  V30 1268 O 117.218 -4.85474 -2.9716 0
M  V30 1269 N 118.42 -3.69745 -4.47514 0
M  V30 1270 H 121.185 -2.95954 -0.472359 0
M  V30 1271 H 118.746 -1.61523 -0.110444 0
M  V30 1272 H 120.738 -2.72443 -2.9926 0
M  V30 1273 H 119.308 -1.73795 -2.59835 0
M  V30 1274 H 118.528 -3.76679 -1.16219 0
M  V30 1275 H 119.816 -4.70348 -1.94038 0
M  V30 1276 H 119.214 -3.13569 -4.7084 0
M  V30 1277 H 117.771 -3.92655 -5.20255 0
M  V30 1278 N 121.204 0.198386 -1.56346 0
M  V30 1279 C 122.452 0.91747 -1.80075 0
M  V30 1280 C 122.773 1.83929 -0.647692 0
M  V30 1281 O 122.043 1.93029 0.334166 0
M  V30 1282 H 120.623 0.341774 -0.664228 0
M  V30 1283 H 123.285 0.204684 -1.93822 0
M  V30 1284 H 122.381 1.51055 -2.7311 0
M  V30 1285 N 122.682 1.50554 0.465978 0
M  V30 1286 C 123.931 1.61038 1.21448 0
M  V30 1287 C 124.244 0.31865 1.92987 0
M  V30 1288 O 125.45 0.302469 2.6981 0
M  V30 1289 C 123.906 2.84283 2.20706 0
M  V30 1290 C 123.514 4.20352 1.54946 0
M  V30 1291 C 125.258 3.04115 2.96166 0
M  V30 1292 C 123.165 5.34778 2.5252 0
M  V30 1293 H 122.095 0.599718 0.457005 0
M  V30 1294 H 124.746 1.7699 0.484424 0
M  V30 1295 H 123.128 2.61901 2.97025 0
M  V30 1296 H 124.302 4.53008 0.843811 0
M  V30 1297 H 122.617 4.06167 0.917475 0
M  V30 1298 H 125.214 3.86774 3.69202 0
M  V30 1299 H 125.557 2.16045 3.55852 0
M  V30 1300 H 126.09 3.26702 2.26959 0
M  V30 1301 H 122.829 6.25018 1.97566 0
M  V30 1302 H 122.349 5.06534 3.21222 0
M  V30 1303 H 124.028 5.65561 3.14245 0
M  V30 1304 N 124.16 -0.719506 1.40217 0
M  V30 1305 C 125.409 -1.47486 1.37589 0
M  V30 1306 C 125.722 -1.9559 -0.0201568 0
M  V30 1307 O 126.928 -2.70973 -0.169049 0
M  V30 1308 C 125.384 -2.66575 2.41796 0
M  V30 1309 C 124.992 -2.25358 3.87192 0
M  V30 1310 C 126.736 -3.4433 2.48269 0
M  V30 1311 C 124.643 -3.41262 4.83005 0
M  V30 1312 H 123.573 -0.553901 0.511576 0
M  V30 1313 H 126.224 -0.783427 1.65936 0
M  V30 1314 H 124.606 -3.3787 2.06543 0
M  V30 1315 H 125.78 -1.61509 4.31569 0
M  V30 1316 H 124.095 -1.60657 3.84159 0
M  V30 1317 H 126.692 -4.30569 3.17041 0
M  V30 1318 H 127.035 -3.87872 1.51198 0
M  V30 1319 H 127.568 -2.80076 2.82493 0
M  V30 1320 H 124.307 -3.02755 5.81394 0
M  V30 1321 H 123.827 -4.0404 4.43297 0
M  V30 1322 H 125.506 -4.07383 5.02641 0
M  V30 1323 N 125.638 -1.25649 -0.95132 0
M  V30 1324 C 126.586 -1.06118 -2.06982 0
M  V30 1325 C 127.58 0.00889169 -1.69398 0
M  V30 1326 O 128.786 -0.146988 -1.79399 0
M  V30 1327 H 125.161 -0.326248 -0.677544 0
M  V30 1328 H 127.132 -2.00932 -2.2061 0
M  V30 1329 C 125.881 -0.700145 -3.40578 0
M  V30 1330 H 125.204 -1.51537 -3.69968 0
M  V30 1331 H 126.644 -0.603211 -4.19687 0
M  V30 1332 C 125.103 0.59403 -3.31622 0
M  V30 1333 O 125.633 1.63522 -3.66911 0
M  V30 1334 N 123.839 0.58089 -2.84735 0
M  V30 1335 H 123.386 -0.266783 -2.56215 0
M  V30 1336 H 123.344 1.44695 -2.79125 0
M  V30 1337 N 127.117 1.15442 -1.07289 0
M  V30 1338 C 128.064 2.20161 -0.692653 0
M  V30 1339 C 129.034 1.63073 0.31564 0
M  V30 1340 O 130.219 1.89725 0.202235 0
M  V30 1341 C 127.359 3.44967 -0.0959509 0
M  V30 1342 C 126.472 4.16256 -1.15564 0
M  V30 1343 C 125.607 5.28609 -0.524011 0
M  V30 1344 C 124.646 5.91715 -1.56653 0
M  V30 1345 N 123.783 6.9554 -0.957531 0
M  V30 1346 H 128.623 2.52037 -1.59002 0
M  V30 1347 H 126.16 1.2378 -0.794798 0
M  V30 1348 H 128.118 4.16341 0.267628 0
M  V30 1349 H 126.748 3.1361 0.764772 0
M  V30 1350 H 125.8 3.43385 -1.6368 0
M  V30 1351 H 127.112 4.59268 -1.94613 0
M  V30 1352 H 126.266 6.06604 -0.108032 0
M  V30 1353 H 125.005 4.86787 0.29825 0
M  V30 1354 H 124.01 5.12433 -1.9923 0
M  V30 1355 H 125.235 6.35614 -2.39107 0
M  V30 1356 H 123.181 6.55814 -0.156162 0
M  V30 1357 H 123.098 7.36977 -1.68526 0
M  V30 1358 H 124.366 7.77435 -0.567032 0
M  V30 1359 N 128.595 0.856903 1.32268 0
M  V30 1360 C 129.844 0.457599 1.96441 0
M  V30 1361 C 130.157 -0.992426 1.68553 0
M  V30 1362 O 131.363 -1.49727 2.26482 0
M  V30 1363 C 129.819 0.767358 3.51624 0
M  V30 1364 C 129.427 2.23326 3.88367 0
M  V30 1365 C 131.171 0.435887 4.22256 0
M  V30 1366 C 129.078 2.48613 5.36606 0
M  V30 1367 H 128.008 0.167387 0.735185 0
M  V30 1368 H 130.659 1.048 1.5063 0
M  V30 1369 H 129.041 0.106367 3.95857 0
M  V30 1370 H 130.215 2.93623 3.55137 0
M  V30 1371 H 128.53 2.52948 3.30766 0
M  V30 1372 H 131.127 0.602202 5.31298 0
M  V30 1373 H 131.47 -0.622672 4.11617 0
M  V30 1374 H 132.003 1.05286 3.83614 0
M  V30 1375 H 128.742 3.53101 5.52268 0
M  V30 1376 H 128.262 1.82896 5.71235 0
M  V30 1377 H 129.941 2.32676 6.03714 0
M  V30 1378 N 130.073 -1.45103 0.615059 0
M  V30 1379 C 131.021 -2.32331 -0.111791 0
M  V30 1380 C 132.015 -1.46409 -0.852102 0
M  V30 1381 O 133.221 -1.62849 -0.766821 0
M  V30 1382 H 129.596 -0.749993 -0.0549072 0
M  V30 1383 H 131.567 -2.91407 0.642225 0
M  V30 1384 C 130.316 -3.3015 -1.09071 0
M  V30 1385 H 129.639 -3.96265 -0.530485 0
M  V30 1386 H 131.079 -3.93898 -1.56908 0
M  V30 1387 C 129.538 -2.57875 -2.168 0
M  V30 1388 O 130.068 -2.36567 -3.24652 0
M  V30 1389 N 128.274 -2.17884 -1.92289 0
M  V30 1390 H 127.821 -2.35413 -1.04587 0
M  V30 1391 H 127.779 -1.6985 -2.64572 0
M  V30 1392 N 131.551 -0.354651 -1.53558 0
M  V30 1393 C 132.828 0.294281 -1.93374 0
M  V30 1394 C 133.208 1.67313 -1.28723 0
M  V30 1395 O 132.556 2.24179 -0.442247 0
M  V30 1396 C 132.766 0.355445 -3.47185 0
M  V30 1397 C 134.114 0.601007 -4.20325 0
M  V30 1398 O 135.138 0.437106 -3.53508 0
M  V30 1399 O 133.997 0.919322 -5.38712 0
M  V30 1400 H 131.091 0.174033 -0.808481 0
M  V30 1401 H 133.637 -0.406638 -1.64756 0
M  V30 1402 H 132.409 -0.611729 -3.86489 0
M  V30 1403 H 132.032 1.1027 -3.82003 0
M  V30 1404 N 133.029 1.57378 -0.0835403 0
M  V30 1405 C 134.277 1.93547 0.581718 0
M  V30 1406 C 134.598 0.96524 1.69435 0
M  V30 1407 O 133.868 0.0153369 1.95894 0
M  V30 1408 H 132.448 0.714521 0.217874 0
M  V30 1409 H 135.11 1.94366 -0.144158 0
M  V30 1410 H 134.206 2.95665 0.999423 0
M  V30 1411 N 134.507 -0.190092 1.56449 0
M  V30 1412 C 135.737 -0.92443 1.84764 0
M  V30 1413 C 136.145 -1.77146 0.664529 0
M  V30 1414 O 135.488 -1.79812 -0.375957 0
M  V30 1415 C 135.55 -1.86651 3.07248 0
M  V30 1416 C 135.214 -1.20094 4.40938 0
M  V30 1417 C 136.211 -0.575445 5.16706 0
M  V30 1418 C 133.896 -1.2033 4.87674 0
M  V30 1419 C 135.89 0.0388111 6.37388 0
M  V30 1420 C 133.577 -0.585214 6.08291 0
M  V30 1421 C 134.575 0.0347578 6.82991 0
M  V30 1422 O 134.263 0.643147 8.01323 0
M  V30 1423 H 133.995 -0.274974 0.617548 0
M  V30 1424 H 136.549 -0.200788 2.04416 0
M  V30 1425 H 134.779 -2.62998 2.83494 0
M  V30 1426 H 136.468 -2.46907 3.22167 0
M  V30 1427 H 137.234 -0.565728 4.81689 0
M  V30 1428 H 133.113 -1.67526 4.29484 0
M  V30 1429 H 136.657 0.523329 6.95634 0
M  V30 1430 H 132.554 -0.592451 6.42775 0
M  V30 1431 H 133.322 0.540545 8.16713 0
M  V30 1432 N 135.985 -1.50799 -0.457987 0
M  V30 1433 C 136.915 -1.73553 -1.5621 0
M  V30 1434 C 137.896 -0.584774 -1.59732 0
M  V30 1435 O 139.081 -0.825314 -1.7579 0
M  V30 1436 C 136.211 -1.84169 -2.94447 0
M  V30 1437 C 135.165 -2.99461 -3.0579 0
M  V30 1438 C 134.491 -2.95235 -4.45803 0
M  V30 1439 C 135.791 -4.39766 -2.81786 0
M  V30 1440 H 137.485 -2.66 -1.37421 0
M  V30 1441 H 135.031 -1.28002 -0.659662 0
M  V30 1442 H 136.984 -1.98672 -3.71628 0
M  V30 1443 H 135.708 -0.883545 -3.14422 0
M  V30 1444 H 134.367 -2.8463 -2.31044 0
M  V30 1445 H 134.015 -1.97239 -4.62715 0
M  V30 1446 H 133.715 -3.72642 -4.54326 0
M  V30 1447 H 135.239 -3.11803 -5.24987 0
M  V30 1448 H 136.653 -4.55054 -3.4871 0
M  V30 1449 H 135.05 -5.18722 -3.0174 0
M  V30 1450 H 136.12 -4.51229 -1.7754 0
M  V30 1451 N 137.463 0.71206 -1.40597 0
M  V30 1452 C 138.691 1.50111 -1.42388 0
M  V30 1453 C 139.106 1.88784 -0.0245395 0
M  V30 1454 O 138.463 1.55681 0.952351 0
M  V30 1455 C 138.514 2.7742 -2.31776 0
M  V30 1456 O 138.235 2.40382 -3.66262 0
M  V30 1457 C 139.736 3.7129 -2.42196 0
M  V30 1458 H 136.956 0.46314 -0.485533 0
M  V30 1459 H 139.5 0.878068 -1.8469 0
M  V30 1460 H 137.655 3.36001 -1.92827 0
M  V30 1461 H 138.069 3.22324 -4.13772 0
M  V30 1462 H 139.543 4.57448 -3.08943 0
M  V30 1463 H 140.02 4.14641 -1.44809 0
M  V30 1464 H 140.626 3.18619 -2.81712 0
M  V30 1465 N 138.941 1.26152 0.944643 0
M  V30 1466 C 140.189 1.11271 1.6871 0
M  V30 1467 C 140.51 -0.345166 1.91921 0
M  V30 1468 O 139.78 -1.24387 1.51343 0
M  V30 1469 H 138.36 0.408783 0.625224 0
M  V30 1470 H 141.022 1.58427 1.1352 0
M  V30 1471 H 140.118 1.62879 2.66227 0
M  V30 1472 N 140.419 -1.14872 1.07899 0
M  V30 1473 C 141.352 -2.18794 0.64841 0
M  V30 1474 C 142.33 -1.59065 -0.337189 0
M  V30 1475 O 143.514 -1.86936 -0.242284 0
M  V30 1476 C 140.641 -3.38667 -0.0470417 0
M  V30 1477 C 139.687 -4.16942 0.897884 0
M  V30 1478 S 140.52 -4.78615 2.40183 0
M  V30 1479 C 141.676 -6.0185 1.71834 0
M  V30 1480 H 141.909 -2.5498 1.52881 0
M  V30 1481 H 139.442 -1.25922 0.893484 0
M  V30 1482 H 141.4 -4.08113 -0.442027 0
M  V30 1483 H 140.061 -3.00814 -0.903861 0
M  V30 1484 H 139.254 -5.02726 0.358096 0
M  V30 1485 H 138.856 -3.53073 1.23352 0
M  V30 1486 H 141.148 -6.69574 1.03328 0
M  V30 1487 H 142.091 -6.60408 2.55473 0
M  V30 1488 H 142.499 -5.5173 1.19392 0
M  V30 1489 N 141.898 -0.863906 -1.31812 0
M  V30 1490 C 143.146 -0.470904 -1.96537 0
M  V30 1491 C 143.467 0.978771 -1.68657 0
M  V30 1492 O 142.737 1.6853 -0.998717 0
M  V30 1493 H 141.317 -0.171148 -0.72713 0
M  V30 1494 H 143.979 -1.10236 -1.60729 0
M  V30 1495 H 143.075 -0.623616 -3.05806 0
M  V30 1496 N 143.376 1.44774 -0.622745 0
M  V30 1497 C 144.622 2.0242 -0.124083 0
M  V30 1498 C 144.955 1.4881 1.24777 0
M  V30 1499 O 144.23 0.668799 1.8264 0
M  V30 1500 C 144.513 3.59957 -0.101619 0
M  V30 1501 C 144.366 4.23867 -1.50521 0
M  V30 1502 C 145.685 4.36284 0.578272 0
M  V30 1503 H 142.804 0.735528 -0.0465645 0
M  V30 1504 H 145.446 1.72447 -0.797617 0
M  V30 1505 H 143.596 3.85623 0.471934 0
M  V30 1506 H 145.268 4.09336 -2.12701 0
M  V30 1507 H 143.511 3.81684 -2.06154 0
M  V30 1508 H 144.182 5.32843 -1.4416 0
M  V30 1509 H 146.658 4.16001 0.0906057 0
M  V30 1510 H 145.534 5.46004 0.563149 0
M  V30 1511 H 145.795 4.10271 1.64713 0
M  V30 1512 N 144.854 0.36279 1.53368 0
M  V30 1513 C 146.082 -0.228613 2.05633 0
M  V30 1514 C 146.497 -1.42676 1.23649 0
M  V30 1515 O 145.854 -1.80394 0.27647 0
M  V30 1516 C 145.905 -0.624845 3.56059 0
M  V30 1517 O 145.626 0.525675 4.34935 0
M  V30 1518 C 147.127 -1.27493 4.24571 0
M  V30 1519 H 144.347 -0.0407183 0.669763 0
M  V30 1520 H 146.891 0.520352 1.97769 0
M  V30 1521 H 145.046 -1.32373 3.64083 0
M  V30 1522 H 145.46 0.205969 5.24095 0
M  V30 1523 H 146.934 -1.50277 5.31151 0
M  V30 1524 H 147.411 -2.23439 3.78116 0
M  V30 1525 H 148.017 -0.617558 4.20792 0
M  V30 1526 N 146.332 -1.57332 0.0918853 0
M  V30 1527 C 147.295 -2.12708 -0.85369 0
M  V30 1528 C 148.295 -1.05561 -1.213 0
M  V30 1529 O 149.485 -1.31461 -1.14296 0
M  V30 1530 C 146.617 -2.64503 -2.15061 0
M  V30 1531 H 147.81 -2.97573 -0.3729 0
M  V30 1532 H 145.363 -1.55509 -0.157072 0
M  V30 1533 H 146.098 -1.83149 -2.67632 0
M  V30 1534 H 145.883 -3.4284 -1.90272 0
M  V30 1535 H 147.373 -3.07351 -2.82711 0
M  V30 1536 N 147.81 0.181792 -1.56548 0
M  V30 1537 C 149.059 0.898348 -1.8059 0
M  V30 1538 C 149.372 1.83862 -0.667379 0
M  V30 1539 O 150.578 2.59678 -0.792446 0
M  V30 1540 C 149.034 1.64791 -3.19956 0
M  V30 1541 C 148.642 0.751789 -4.41647 0
M  V30 1542 C 150.386 2.35331 -3.53298 0
M  V30 1543 C 148.293 1.50098 -5.72035 0
M  V30 1544 H 147.223 0.339194 -0.673397 0
M  V30 1545 H 149.874 0.151413 -1.82874 0
M  V30 1546 H 148.256 2.43921 -3.11959 0
M  V30 1547 H 149.43 -0.0018076 -4.608 0
M  V30 1548 H 147.745 0.156562 -4.16106 0
M  V30 1549 H 150.342 2.91958 -4.47956 0
M  V30 1550 H 150.685 3.10164 -2.77676 0
M  V30 1551 H 151.218 1.63154 -3.62803 0
M  V30 1552 H 147.957 0.795175 -6.50659 0
M  V30 1553 H 147.477 2.22817 -5.56878 0
M  V30 1554 H 149.156 2.05125 -6.13622 0
M  V30 1555 N 149.288 1.51039 0.449983 0
M  V30 1556 C 150.534 1.64287 1.19923 0
M  V30 1557 C 150.889 0.348701 1.89214 0
M  V30 1558 O 150.182 -0.654751 1.80065 0
M  V30 1559 C 150.376 2.77556 2.25161 0
M  V30 1560 C 150.205 4.17862 1.66198 0
M  V30 1561 C 148.975 4.83976 1.45243 0
M  V30 1562 C 151.173 5.01388 1.14519 0
M  V30 1563 N 149.155 6.08433 0.817437 0
M  V30 1564 C 150.526 6.16743 0.634705 0
M  V30 1565 C 152.581 4.87008 1.03574 0
M  V30 1566 C 151.284 7.19295 0.0255452 0
M  V30 1567 C 153.31 5.89757 0.440489 0
M  V30 1568 C 152.672 7.04375 -0.0595112 0
M  V30 1569 H 148.771 0.655161 0.426952 0
M  V30 1570 H 151.355 1.88228 0.49781 0
M  V30 1571 H 149.526 2.553 2.92706 0
M  V30 1572 H 151.258 2.80049 2.92155 0
M  V30 1573 H 148.013 4.41627 1.71063 0
M  V30 1574 H 148.437 6.75017 0.517747 0
M  V30 1575 H 153.079 3.9866 1.4082 0
M  V30 1576 H 150.797 8.07302 -0.359071 0
M  V30 1577 H 154.383 5.80698 0.35788 0
M  V30 1578 H 153.263 7.82521 -0.512882 0
M  V30 1579 N 150.766 -0.704594 1.40972 0
M  V30 1580 C 152.015 -1.46018 1.39146 0
M  V30 1581 C 152.328 -1.956 0.000589254 0
M  V30 1582 O 153.534 -2.71137 -0.1403 0
M  V30 1583 C 151.99 -2.63996 2.4461 0
M  V30 1584 C 151.598 -2.21238 3.89561 0
M  V30 1585 C 153.342 -3.41677 2.51907 0
M  V30 1586 C 151.249 -3.3612 4.86598 0
M  V30 1587 H 150.179 -0.548444 0.517422 0
M  V30 1588 H 152.83 -0.765784 1.66757 0
M  V30 1589 H 151.212 -3.3566 2.10115 0
M  V30 1590 H 152.386 -1.56923 4.33257 0
M  V30 1591 H 150.701 -1.56574 3.85841 0
M  V30 1592 H 153.298 -4.27182 3.2159 0
M  V30 1593 H 153.641 -3.86247 1.55303 0
M  V30 1594 H 154.174 -2.77064 2.85448 0
M  V30 1595 H 150.913 -2.96572 5.84573 0
M  V30 1596 H 150.433 -3.99315 4.47557 0
M  V30 1597 H 152.112 -4.02029 5.06934 0
M  V30 1598 N 152.244 -1.26651 -0.937939 0
M  V30 1599 C 153.469 -1.15279 -1.72411 0
M  V30 1600 C 153.894 0.287866 -1.85884 0
M  V30 1601 O 153.252 1.20855 -1.35143 0
M  V30 1602 C 153.3 -1.83028 -3.10698 0
M  V30 1603 O 152.404 -1.12128 -3.96864 0
M  V30 1604 H 151.745 -0.401504 -0.528858 0
M  V30 1605 H 154.275 -1.67531 -1.1745 0
M  V30 1606 H 154.285 -1.89981 -3.6107 0
M  V30 1607 H 152.96 -2.87833 -3.00208 0
M  V30 1608 H 151.537 -1.13173 -3.55312 0
M  V30 1609 N 153.722 1.14298 -1.08507 0
M  V30 1610 C 154.654 2.1907 -0.673859 0
M  V30 1611 C 155.667 1.60381 0.279577 0
M  V30 1612 O 156.856 1.78374 0.0670754 0
M  V30 1613 C 153.956 3.38888 0.0290979 0
M  V30 1614 C 153.129 4.27103 -0.943494 0
M  V30 1615 C 152.188 5.25477 -0.275676 0
M  V30 1616 O 151.214 5.61709 -0.920401 0
M  V30 1617 N 152.416 5.7227 0.974013 0
M  V30 1618 H 155.181 2.54965 -1.57521 0
M  V30 1619 H 152.742 1.29528 -0.971287 0
M  V30 1620 H 154.734 4.01761 0.48683 0
M  V30 1621 H 153.304 3.01309 0.832555 0
M  V30 1622 H 152.524 3.61149 -1.58004 0
M  V30 1623 H 153.812 4.82905 -1.60251 0
M  V30 1624 H 153.21 5.44965 1.51755 0
M  V30 1625 H 151.767 6.37127 1.37522 0
M  V30 1626 N 155.201 0.870884 1.31352 0
M  V30 1627 C 156.612 0.534714 1.78879 0
M  V30 1628 C 156.963 -0.948423 1.71754 0
M  V30 1629 O 156.088 -1.74055 1.28584 0
M  V30 1630 C 156.683 0.963839 3.24801 0
M  V30 1631 C 155.242 0.679311 3.70219 0
M  V30 1632 C 154.389 1.15465 2.52117 0
M  V30 1633 H 157.34 1.05651 1.18421 0
M  V30 1634 H 157.361 0.286892 3.79417 0
M  V30 1635 H 156.873 2.04332 3.29955 0
M  V30 1636 H 154.974 -0.388769 3.70566 0
M  V30 1637 H 155.087 1.25698 4.62317 0
M  V30 1638 H 153.451 0.574383 2.48139 0
M  V30 1639 H 154.234 2.24157 2.60016 0
M  V30 1640 N 156.679 -1.44442 0.630414 0
M  V30 1641 C 157.925 -2.02351 0.134816 0
M  V30 1642 C 158.258 -1.4947 -1.23986 0
M  V30 1643 O 157.533 -0.678475 -1.82283 0
M  V30 1644 C 157.816 -3.59898 0.120707 0
M  V30 1645 C 157.669 -4.23063 1.52767 0
M  V30 1646 C 158.988 -4.36585 -0.555127 0
M  V30 1647 H 156.107 -0.73527 0.0504646 0
M  V30 1648 H 158.749 -1.72022 0.806751 0
M  V30 1649 H 156.899 -3.85868 -0.451477 0
M  V30 1650 H 158.571 -4.08202 2.14869 0
M  V30 1651 H 156.814 -3.80586 2.08175 0
M  V30 1652 H 157.485 -5.32071 1.46984 0
M  V30 1653 H 159.961 -4.16044 -0.0685429 0
M  V30 1654 H 158.837 -5.46294 -0.534185 0
M  V30 1655 H 159.098 -4.11138 -1.62535 0
M  V30 1656 N 158.157 -0.370918 -1.53173 0
M  V30 1657 C 159.067 0.480823 -2.2962 0
M  V30 1658 C 160.083 1.08789 -1.35798 0
M  V30 1659 O 161.259 1.09768 -1.68858 0
M  V30 1660 C 158.324 1.60227 -3.07454 0
M  V30 1661 C 157.385 1.0222 -4.16953 0
M  V30 1662 C 156.618 2.0902 -4.91066 0
M  V30 1663 O 156.841 3.30222 -4.65091 0
M  V30 1664 O 155.775 1.71778 -5.76867 0
M  V30 1665 H 159.601 -0.141421 -3.03371 0
M  V30 1666 H 157.186 -0.135146 -1.48787 0
M  V30 1667 H 159.068 2.25417 -3.56041 0
M  V30 1668 H 157.743 2.20982 -2.36535 0
M  V30 1669 H 156.65 0.334064 -3.72605 0
M  V30 1670 H 157.983 0.459131 -4.90054 0
M  V30 1671 N 159.635 1.57281 -0.100228 0
M  V30 1672 C 160.583 2.15542 0.874328 0
M  V30 1673 C 161.577 1.09962 1.28859 0
M  V30 1674 O 162.783 1.28298 1.26252 0
M  V30 1675 H 159.158 0.689567 0.300003 0
M  V30 1676 H 161.129 2.96241 0.35829 0
M  V30 1677 C 159.878 2.75454 2.1218 0
M  V30 1678 H 159.201 3.56384 1.81193 0
M  V30 1679 H 160.641 3.19781 2.78417 0
M  V30 1680 C 159.1 1.71602 2.89921 0
M  V30 1681 O 159.63 1.15804 3.84646 0
M  V30 1682 N 157.836 1.41975 2.53558 0
M  V30 1683 H 157.383 1.87539 1.76598 0
M  V30 1684 H 157.341 0.727274 3.05873 0
M  V30 1685 N 161.113 -0.173488 1.56642 0
M  V30 1686 C 162.362 -0.888758 1.81063 0
M  V30 1687 C 162.675 -1.83506 0.67712 0
M  V30 1688 O 163.881 -2.59254 0.806206 0
M  V30 1689 C 162.337 -1.63091 3.20826 0
M  V30 1690 C 161.945 -0.728357 4.4204 0
M  V30 1691 C 163.689 -2.33454 3.54541 0
M  V30 1692 C 161.596 -1.47062 5.72823 0
M  V30 1693 H 160.526 -0.335618 0.675186 0
M  V30 1694 H 163.177 -0.141712 1.82952 0
M  V30 1695 H 161.559 -2.42263 3.13248 0
M  V30 1696 H 162.733 0.0262449 4.60793 0
M  V30 1697 H 161.048 -0.134492 4.16183 0
M  V30 1698 H 163.645 -2.89578 4.49498 0
M  V30 1699 H 163.988 -3.08687 2.79317 0
M  V30 1700 H 164.521 -1.61227 3.63663 0
M  V30 1701 H 161.26 -0.760658 6.51072 0
M  V30 1702 H 160.78 -2.1986 5.58052 0
M  V30 1703 H 162.459 -2.01868 6.14702 0
M  V30 1704 N 162.591 -1.51276 -0.441967 0
M  V30 1705 C 163.821 -1.67273 -1.21257 0
M  V30 1706 C 164.229 -0.367624 -1.85594 0
M  V30 1707 O 163.572 0.663349 -1.71305 0
M  V30 1708 C 163.634 -2.72807 -2.34129 0
M  V30 1709 C 163.298 -4.1554 -1.90198 0
M  V30 1710 C 164.295 -5.00471 -1.40801 0
M  V30 1711 C 161.98 -4.61616 -1.9803 0
M  V30 1712 C 163.974 -6.29536 -0.998174 0
M  V30 1713 C 161.661 -5.90679 -1.56658 0
M  V30 1714 C 162.659 -6.74466 -1.07633 0
M  V30 1715 O 162.347 -8.01116 -0.668459 0
M  V30 1716 H 162.079 -0.564614 -0.371734 0
M  V30 1717 H 164.633 -1.9843 -0.530521 0
M  V30 1718 H 162.863 -2.36954 -3.05597 0
M  V30 1719 H 164.552 -2.77729 -2.96009 0
M  V30 1720 H 165.318 -4.66079 -1.34148 0
M  V30 1721 H 161.197 -3.96526 -2.35135 0
M  V30 1722 H 164.741 -6.94885 -0.61482 0
M  V30 1723 H 160.638 -6.24586 -1.62979 0
M  V30 1724 H 161.406 -8.14633 -0.794722 0
M  V30 1725 N 164.069 0.697108 -1.41344 0
M  V30 1726 C 165.032 1.79281 -1.42797 0
M  V30 1727 C 166.032 1.57607 -0.318837 0
M  V30 1728 O 167.222 1.64309 -0.578642 0
M  V30 1729 C 164.354 3.17632 -1.23785 0
M  V30 1730 H 165.547 1.79385 -2.40335 0
M  V30 1731 H 163.1 0.904582 -1.27464 0
M  V30 1732 H 163.835 3.23167 -0.270814 0
M  V30 1733 H 163.62 3.34765 -2.04144 0
M  V30 1734 H 165.11 3.97617 -1.27633 0
M  V30 1735 N 165.547 1.27147 0.931209 0
M  V30 1736 C 166.793 1.13446 1.68101 0
M  V30 1737 C 167.126 -0.319628 1.91552 0
M  V30 1738 O 166.401 -1.23407 1.50336 0
M  V30 1739 C 166.684 1.91482 3.0497 0
M  V30 1740 C 166.537 3.44855 2.88782 0
M  V30 1741 C 167.856 1.71651 4.05246 0
M  V30 1742 H 164.975 0.413498 0.610072 0
M  V30 1743 H 167.617 1.56261 1.08086 0
M  V30 1744 H 165.767 1.55095 3.56199 0
M  V30 1745 H 167.439 3.9105 2.44698 0
M  V30 1746 H 165.682 3.71373 2.24198 0
M  V30 1747 H 166.353 3.94694 3.85902 0
M  V30 1748 H 168.829 2.0337 3.63015 0
M  V30 1749 H 167.705 2.28651 4.99009 0
M  V30 1750 H 167.966 0.663555 4.37092 0
M  V30 1751 N 167.025 -1.13721 1.09112 0
M  V30 1752 C 167.955 -2.21148 0.749385 0
M  V30 1753 C 168.936 -1.6792 -0.271475 0
M  V30 1754 O 170.121 -1.93693 -0.140251 0
M  V30 1755 C 167.251 -3.46905 0.165659 0
M  V30 1756 C 166.205 -4.13203 1.11567 0
M  V30 1757 C 165.531 -5.33248 0.393809 0
M  V30 1758 C 166.831 -4.60912 2.45678 0
M  V30 1759 H 168.525 -2.4999 1.64758 0
M  V30 1760 H 166.071 -1.20156 0.793626 0
M  V30 1761 H 168.024 -4.21313 -0.085466 0
M  V30 1762 H 166.748 -3.17449 -0.767714 0
M  V30 1763 H 165.407 -3.40758 1.35202 0
M  V30 1764 H 165.055 -5.00054 -0.543599 0
M  V30 1765 H 164.755 -5.78552 1.02721 0
M  V30 1766 H 166.279 -6.10413 0.150908 0
M  V30 1767 H 167.693 -5.26759 2.26269 0
M  V30 1768 H 166.09 -5.16944 3.04776 0
M  V30 1769 H 167.16 -3.75603 3.06677 0
M  V30 1770 N 168.503 -0.877838 -1.30888 0
M  V30 1771 C 169.914 -0.544193 -1.78593 0
M  V30 1772 C 170.265 0.939301 -1.72254 0
M  V30 1773 O 169.39 1.7337 -1.29505 0
M  V30 1774 C 169.985 -0.98105 -3.24285 0
M  V30 1775 C 168.544 -0.698935 -3.69854 0
M  V30 1776 C 167.691 -1.168 -2.51502 0
M  V30 1777 H 170.642 -1.06278 -1.17859 0
M  V30 1778 H 170.663 -0.307009 -3.79259 0
M  V30 1779 H 170.175 -2.06079 -3.28866 0
M  V30 1780 H 168.276 0.369112 -3.70767 0
M  V30 1781 H 168.389 -1.28148 -4.61644 0
M  V30 1782 H 166.753 -0.587535 -2.47831 0
M  V30 1783 H 167.536 -2.25533 -2.58824 0
M  V30 1784 N 169.982 1.44106 -0.638065 0
M  V30 1785 C 171.259 1.95453 -0.0759321 0
M  V30 1786 C 171.639 1.57984 1.40015 0
M  V30 1787 O 170.987 0.857361 2.11806 0
M  V30 1788 C 171.197 3.47655 -0.306132 0
M  V30 1789 C 172.545 4.24114 -0.203008 0
M  V30 1790 O 173.569 3.55405 -0.237871 0
M  V30 1791 O 172.428 5.46381 -0.113827 0
M  V30 1792 H 169.522 0.826797 0.0183332 0
M  V30 1793 H 172.068 1.54122 -0.710251 0
M  V30 1794 H 170.84 3.68 -1.3301 0
M  V30 1795 H 170.463 3.95949 0.361991 0
M  V30 1796 N 171.46 0.379036 1.52974 0
M  V30 1797 C 172.685 -0.209353 2.06341 0
M  V30 1798 C 173.11 -1.40583 1.24972 0
M  V30 1799 O 172.468 -1.79246 0.272155 0
M  V30 1800 C 172.516 -0.567786 3.56102 0
M  V30 1801 O 171.62 -1.66318 3.77375 0
M  V30 1802 H 170.961 -0.0272919 0.663439 0
M  V30 1803 H 173.491 0.543536 1.97248 0
M  V30 1804 H 173.501 -0.835003 3.99364 0
M  V30 1805 H 172.176 0.307013 4.14765 0
M  V30 1806 H 170.753 -1.39048 3.46006 0
M  V30 1807 N 172.938 -1.57226 0.108567 0
M  V30 1808 C 174.166 -1.99179 -0.559954 0
M  V30 1809 C 174.581 -0.988022 -1.60884 0
M  V30 1810 O 173.938 0.0205512 -1.82488 0
M  V30 1811 C 173.989 -3.41159 -1.19552 0
M  V30 1812 O 173.71 -4.37694 -0.188577 0
M  V30 1813 C 175.211 -3.98188 -1.94837 0
M  V30 1814 H 172.431 -0.654228 -0.149088 0
M  V30 1815 H 174.975 -2.03598 0.19183 0
M  V30 1816 H 173.13 -3.37711 -1.89815 0
M  V30 1817 H 173.544 -5.20469 -0.649014 0
M  V30 1818 H 175.018 -4.99644 -2.34648 0
M  V30 1819 H 175.495 -3.3675 -2.81951 0
M  V30 1820 H 176.101 -4.0515 -1.2936 0
M  V30 1821 N 174.416 0.165178 -1.56732 0
M  V30 1822 C 175.663 0.880807 -1.8234 0
M  V30 1823 C 175.991 1.81977 -0.686621 0
M  V30 1824 O 175.246 1.92971 0.325697 0
M  V30 1825 C 175.545 1.70405 -3.1416 0
M  V30 1826 C 175.211 0.913475 -4.4155 0
M  V30 1827 C 173.873 0.695303 -4.7615 0
M  V30 1828 C 176.225 0.359349 -5.1996 0
M  V30 1829 C 173.553 -0.0879947 -5.86634 0
M  V30 1830 C 175.905 -0.410893 -6.31264 0
M  V30 1831 C 174.569 -0.639808 -6.64427 0
M  V30 1832 H 173.839 0.32231 -0.667231 0
M  V30 1833 H 176.486 0.145402 -1.90947 0
M  V30 1834 H 174.791 2.50903 -3.00923 0
M  V30 1835 H 176.488 2.26091 -3.31186 0
M  V30 1836 H 173.078 1.09357 -4.14414 0
M  V30 1837 H 177.262 0.515228 -4.93618 0
M  V30 1838 H 172.518 -0.27503 -6.10781 0
M  V30 1839 H 176.692 -0.847494 -6.91224 0
M  V30 1840 H 174.319 -1.24864 -7.49875 0
M  V30 1841 N 175.894 1.51508 0.433938 0
M  V30 1842 C 177.142 1.6402 1.18075 0
M  V30 1843 C 177.463 0.360328 1.91642 0
M  V30 1844 O 176.733 -0.623945 1.85698 0
M  V30 1845 H 175.313 0.6045 0.43885 0
M  V30 1846 H 177.975 1.88452 0.497178 0
M  V30 1847 H 177.071 2.46949 1.90847 0
M  V30 1848 N 177.372 -0.689602 1.41712 0
M  V30 1849 C 178.62 -1.4468 1.4111 0
M  V30 1850 C 178.941 -1.94986 0.0232196 0
M  V30 1851 O 178.211 -1.72097 -0.935913 0
M  V30 1852 H 176.791 -0.536847 0.519427 0
M  V30 1853 H 179.453 -0.815825 1.77004 0
M  V30 1854 H 178.549 -2.30706 2.10193 0
M  V30 1855 N 178.85 -1.27639 -0.924453 0
M  V30 1856 C 180.075 -1.17101 -1.71179 0
M  V30 1857 C 180.5 0.268134 -1.86179 0
M  V30 1858 O 179.858 1.19415 -1.36418 0
M  V30 1859 C 179.906 -1.86313 -3.08739 0
M  V30 1860 O 179.01 -1.16331 -3.95652 0
M  V30 1861 H 178.351 -0.407091 -0.524569 0
M  V30 1862 H 180.881 -1.68767 -1.15666 0
M  V30 1863 H 180.891 -1.938 -3.59034 0
M  V30 1864 H 179.566 -2.91001 -2.97138 0
M  V30 1865 H 178.143 -1.16935 -3.54091 0
M  V30 1866 N 180.328 1.1314 -1.09713 0
M  V30 1867 C 181.556 1.88321 -0.856898 0
M  V30 1868 C 181.971 1.79276 0.592073 0
M  V30 1869 O 181.328 1.16142 1.40774 0
M  V30 1870 C 181.379 3.37812 -1.28706 0
M  V30 1871 O 181.1 3.46627 -2.67921 0
M  V30 1872 C 182.601 4.29952 -1.07964 0
M  V30 1873 H 179.821 0.596094 -0.308079 0
M  V30 1874 H 182.365 1.43205 -1.45988 0
M  V30 1875 H 180.52 3.805 -0.727912 0
M  V30 1876 H 180.934 4.39579 -2.8613 0
M  V30 1877 H 182.408 5.33159 -1.42986 0
M  V30 1878 H 182.885 4.39196 -0.0176577 0
M  V30 1879 H 183.491 3.93036 -1.62489 0
M  V30 1880 N 181.806 0.884767 1.30421 0
M  V30 1881 C 183.031 0.517288 2.00845 0
M  V30 1882 C 183.456 -0.886779 1.65885 0
M  V30 1883 O 182.814 -1.58768 0.875354 0
M  V30 1884 C 182.862 0.698994 3.5376 0
M  V30 1885 O 181.966 -0.255208 4.1161 0
M  V30 1886 H 181.307 0.203872 0.631927 0
M  V30 1887 H 183.837 1.19225 1.66272 0
M  V30 1888 H 183.847 0.597912 4.03595 0
M  V30 1889 H 182.522 1.72271 3.78544 0
M  V30 1890 H 181.099 -0.10784 3.72744 0
M  V30 1891 N 183.284 -1.43765 0.645699 0
M  V30 1892 C 184.514 -2.05953 0.163318 0
M  V30 1893 C 184.922 -1.48432 -1.17322 0
M  V30 1894 O 184.265 -0.607295 -1.73371 0
M  V30 1895 C 184.327 -3.59499 -0.0103065 0
M  V30 1896 C 183.991 -4.39563 1.25035 0
M  V30 1897 C 184.988 -4.72108 2.17739 0
M  V30 1898 C 182.673 -4.79697 1.48983 0
M  V30 1899 C 184.667 -5.43688 3.3269 0
M  V30 1900 C 182.354 -5.51023 2.64229 0
M  V30 1901 C 183.352 -5.8294 3.55908 0
M  V30 1902 O 183.04 -6.5281 4.69142 0
M  V30 1903 H 182.772 -0.670798 0.0836986 0
M  V30 1904 H 185.326 -1.85384 0.884407 0
M  V30 1905 H 183.556 -3.78613 -0.78669 0
M  V30 1906 H 185.245 -4.03408 -0.449087 0
M  V30 1907 H 186.011 -4.41627 2.00476 0
M  V30 1908 H 181.89 -4.54266 0.785078 0
M  V30 1909 H 185.434 -5.68517 4.04269 0
M  V30 1910 H 181.331 -5.8092 2.81429 0
M  V30 1911 H 182.099 -6.71288 4.6831 0
M  V30 1912 N 184.763 -0.387143 -1.52771 0
M  V30 1913 C 185.713 0.465942 -2.23188 0
M  V30 1914 C 186.697 1.03138 -1.23496 0
M  V30 1915 O 187.889 0.957845 -1.48843 0
M  V30 1916 C 185.018 1.59384 -3.04059 0
M  V30 1917 C 184.104 1.04024 -4.11144 0
M  V30 1918 N 184.495 0.211416 -5.05358 0
M  V30 1919 C 182.793 1.31295 -4.26237 0
M  V30 1920 C 183.494 -0.0941698 -5.81624 0
M  V30 1921 N 182.47 0.509207 -5.4121 0
M  V30 1922 H 186.272 -0.173856 -2.93385 0
M  V30 1923 H 183.786 -0.19633 -1.61209 0
M  V30 1924 H 185.783 2.21738 -3.53041 0
M  V30 1925 H 184.443 2.23648 -2.35397 0
M  V30 1926 H 185.454 -0.151151 -5.17679 0
M  V30 1927 H 182.131 1.95679 -3.68803 0
M  V30 1928 H 183.521 -0.765572 -6.67524 0
M  V30 1929 N 186.241 1.57166 -0.116904 0
M  V30 1930 C 187.489 1.94737 0.540533 0
M  V30 1931 C 187.81 1.00096 1.67349 0
M  V30 1932 O 187.08 0.0568854 1.95817 0
M  V30 1933 H 185.66 0.718981 0.202669 0
M  V30 1934 H 188.322 1.94017 -0.185353 0
M  V30 1935 H 187.418 2.97719 0.936483 0
M  V30 1936 N 187.719 -0.156864 1.56817 0
M  V30 1937 C 188.949 -0.885031 1.86684 0
M  V30 1938 C 189.357 -1.75696 0.701954 0
M  V30 1939 O 188.7 -1.80569 -0.337732 0
M  V30 1940 C 188.762 -1.80092 3.11138 0
M  V30 1941 C 188.426 -1.10714 4.43386 0
M  V30 1942 C 189.423 -0.465714 5.1781 0
M  V30 1943 C 187.108 -1.09959 4.90117 0
M  V30 1944 C 189.102 0.174002 6.37162 0
M  V30 1945 C 186.789 -0.456055 6.09396 0
M  V30 1946 C 187.787 0.179622 6.82764 0
M  V30 1947 O 187.475 0.812975 7.99779 0
M  V30 1948 H 187.207 -0.261813 0.623242 0
M  V30 1949 H 189.761 -0.157383 2.04796 0
M  V30 1950 H 187.991 -2.56926 2.89009 0
M  V30 1951 H 189.68 -2.40018 3.27332 0
M  V30 1952 H 190.446 -0.463427 4.82781 0
M  V30 1953 H 186.325 -1.58378 4.3294 0
M  V30 1954 H 189.869 0.670765 6.94368 0
M  V30 1955 H 185.766 -0.455975 6.43888 0
M  V30 1956 H 186.534 0.71366 8.15383 0
M  V30 1957 N 189.197 -1.51736 -0.425897 0
M  V30 1958 C 190.443 -1.66174 -1.17294 0
M  V30 1959 C 190.798 -0.37876 -1.88635 0
M  V30 1960 O 190.091 0.626021 -1.81084 0
M  V30 1961 C 190.285 -2.81103 -2.20717 0
M  V30 1962 C 190.114 -4.20453 -1.59529 0
M  V30 1963 C 188.884 -4.86225 -1.37525 0
M  V30 1964 C 191.082 -5.03146 -1.06528 0
M  V30 1965 N 189.064 -6.09657 -0.720537 0
M  V30 1966 C 190.435 -6.17674 -0.536506 0
M  V30 1967 C 192.49 -4.88594 -0.958127 0
M  V30 1968 C 191.193 -7.19245 0.0888917 0
M  V30 1969 C 193.219 -5.90383 -0.346608 0
M  V30 1970 C 192.581 -7.04191 0.171564 0
M  V30 1971 H 188.68 -0.661871 -0.416475 0
M  V30 1972 H 191.264 -1.88997 -0.467801 0
M  V30 1973 H 189.435 -2.59924 -2.88607 0
M  V30 1974 H 191.167 -2.84662 -2.87663 0
M  V30 1975 H 187.922 -4.44293 -1.64015 0
M  V30 1976 H 188.346 -6.75756 -0.410292 0
M  V30 1977 H 192.988 -4.0085 -1.34459 0
M  V30 1978 H 190.706 -8.06628 0.48746 0
M  V30 1979 H 194.292 -5.81194 -0.265451 0
M  V30 1980 H 193.172 -7.81606 0.637309 0
M  V30 1981 N 190.675 0.682077 -1.42076 0
M  V30 1982 C 191.638 1.77756 -1.44691 0
M  V30 1983 C 192.638 1.5726 -0.335535 0
M  V30 1984 O 193.828 1.63686 -0.596037 0
M  V30 1985 C 190.96 3.16301 -1.27146 0
M  V30 1986 H 192.153 1.76826 -2.42224 0
M  V30 1987 H 189.706 0.891012 -1.28416 0
M  V30 1988 H 190.441 3.22862 -0.305075 0
M  V30 1989 H 190.226 3.32581 -2.07683 0
M  V30 1990 H 191.716 3.96241 -1.31843 0
M  V30 1991 N 192.153 1.28127 0.917671 0
M  V30 1992 C 193.569 1.05749 1.19538 0
M  V30 1993 C 193.769 -0.202633 2.00479 0
M  V30 1994 O 192.825 -0.905382 2.3571 0
M  V30 1995 C 194.138 2.30273 1.93378 0
M  V30 1996 C 195.686 2.35412 2.06277 0
M  V30 1997 C 196.161 3.59692 2.83524 0
M  V30 1998 N 197.652 3.60309 2.91087 0
M  V30 1999 C 198.387 4.53147 3.51348 0
M  V30 2000 N 197.883 5.563 4.12919 0
M  V30 2001 N 199.676 4.40751 3.48849 0
M  V30 2002 H 191.827 2.09024 0.377184 0
M  V30 2003 H 194.09 0.919798 0.22951 0
M  V30 2004 H 193.796 3.22055 1.41328 0
M  V30 2005 H 193.67 2.36378 2.93947 0
M  V30 2006 H 196.057 1.4413 2.57508 0
M  V30 2007 H 196.138 2.33304 1.04895 0
M  V30 2008 H 195.782 4.51316 2.32973 0
M  V30 2009 H 195.712 3.59054 3.85211 0
M  V30 2010 H 198.203 2.85714 2.47338 0
M  V30 2011 H 198.516 6.2329 4.56869 0
M  V30 2012 H 196.861 5.60131 4.11435 0
M  V30 2013 H 200.052 3.59367 2.99955 0
M  V30 2014 H 200.225 5.13291 3.9552 0
M  V30 2015 N 193.631 -1.12557 1.10312 0
M  V30 2016 C 194.908 -1.80363 0.756878 0
M  V30 2017 C 195.288 -1.97067 -0.756824 0
M  V30 2018 O 194.636 -1.54601 -1.68259 0
M  V30 2019 C 194.846 -3.14812 1.50647 0
M  V30 2020 C 196.194 -3.90029 1.67817 0
M  V30 2021 O 197.218 -3.24464 1.46974 0
M  V30 2022 O 196.077 -5.07652 2.02365 0
M  V30 2023 H 193.171 -0.780667 0.272926 0
M  V30 2024 H 195.717 -1.19404 1.20586 0
M  V30 2025 H 194.489 -2.97936 2.53672 0
M  V30 2026 H 194.112 -3.83478 1.05026 0
M  V30 2027 N 195.109 -0.891671 -1.2995 0
M  V30 2028 C 196.356 -0.513501 -1.95881 0
M  V30 2029 C 196.684 0.938655 -1.70351 0
M  V30 2030 O 195.939 1.67936 -1.00478 0
M  V30 2031 C 196.238 -0.742868 -3.49594 0
M  V30 2032 C 195.904 -2.17114 -3.95186 0
M  V30 2033 C 194.566 -2.56169 -4.07346 0
M  V30 2034 C 196.918 -3.10162 -4.18866 0
M  V30 2035 C 194.246 -3.87469 -4.4055 0
M  V30 2036 C 196.598 -4.41001 -4.53542 0
M  V30 2037 C 195.262 -4.79941 -4.63911 0
M  V30 2038 H 194.532 -0.187903 -0.71678 0
M  V30 2039 H 197.179 -1.1288 -1.54694 0
M  V30 2040 H 195.484 -0.044586 -3.91775 0
M  V30 2041 H 197.181 -0.429767 -3.9869 0
M  V30 2042 H 193.771 -1.85801 -3.86233 0
M  V30 2043 H 197.955 -2.81206 -4.08946 0
M  V30 2044 H 193.211 -4.17371 -4.46779 0
M  V30 2045 H 197.385 -5.13133 -4.70815 0
M  V30 2046 H 195.012 -5.81719 -4.89395 0
M  V30 2047 N 196.587 1.43421 -0.653314 0
M  V30 2048 C 197.534 2.30768 0.0382271 0
M  V30 2049 C 198.504 1.44755 0.814576 0
M  V30 2050 O 199.689 1.73624 0.791162 0
M  V30 2051 C 196.829 3.30336 0.998599 0
M  V30 2052 C 195.942 4.31448 0.218342 0
M  V30 2053 C 195.077 5.18098 1.17252 0
M  V30 2054 C 194.116 6.10902 0.382702 0
M  V30 2055 N 193.253 6.90176 1.28848 0
M  V30 2056 H 198.093 2.89357 -0.712511 0
M  V30 2057 H 195.63 1.42548 -0.363128 0
M  V30 2058 H 197.588 3.86572 1.56901 0
M  V30 2059 H 196.218 2.73397 1.71621 0
M  V30 2060 H 195.27 3.77506 -0.46836 0
M  V30 2061 H 196.582 4.97227 -0.395812 0
M  V30 2062 H 195.736 5.7896 1.81356 0
M  V30 2063 H 194.475 4.52444 1.82058 0
M  V30 2064 H 193.48 5.49128 -0.27169 0
M  V30 2065 H 194.705 6.78598 -0.260957 0
M  V30 2066 H 192.651 6.27171 1.92334 0
M  V30 2067 H 192.568 7.52478 0.728887 0
M  V30 2068 H 193.836 7.55543 1.91766 0
M  V30 2069 N 198.065 0.39524 1.52563 0
M  V30 2070 C 199.481 0.0454682 1.59535 0
M  V30 2071 C 199.681 -1.44056 1.4089 0
M  V30 2072 O 198.737 -2.20579 1.22888 0
M  V30 2073 C 200.05 0.527963 2.96029 0
M  V30 2074 C 201.598 0.484733 3.09224 0
M  V30 2075 C 202.073 0.943512 4.48176 0
M  V30 2076 N 203.564 0.899765 4.54377 0
M  V30 2077 C 204.299 1.22609 5.60138 0
M  V30 2078 N 203.795 1.62319 6.73516 0
M  V30 2079 N 205.588 1.14696 5.50274 0
M  V30 2080 H 197.739 1.36261 1.62931 0
M  V30 2081 H 200.002 0.558887 0.765735 0
M  V30 2082 H 199.708 1.56607 3.14908 0
M  V30 2083 H 199.582 -0.0698056 3.77135 0
M  V30 2084 H 201.969 -0.544298 2.90037 0
M  V30 2085 H 202.05 1.11838 2.30056 0
M  V30 2086 H 201.694 1.9708 4.68104 0
M  V30 2087 H 201.624 0.286817 5.25818 0
M  V30 2088 H 204.115 0.607632 3.72983 0
M  V30 2089 H 204.428 1.85567 7.5019 0
M  V30 2090 H 202.773 1.66211 6.74833 0
M  V30 2091 H 205.964 0.835701 4.6058 0
M  V30 2092 H 206.137 1.40459 6.32594 0
M  V30 2093 N 199.544 -1.57102 0.125237 0
M  V30 2094 C 200.772 -1.99761 -0.538797 0
M  V30 2095 C 201.187 -1.00503 -1.59827 0
M  V30 2096 O 200.544 0.00119474 -1.825 0
M  V30 2097 C 200.595 -3.42408 -1.15927 0
M  V30 2098 O 200.316 -4.37869 -0.142143 0
M  V30 2099 C 201.817 -4.00232 -1.90602 0
M  V30 2100 H 199.037 -0.655772 -0.14214 0
M  V30 2101 H 201.581 -2.03383 0.213413 0
M  V30 2102 H 199.736 -3.39706 -1.86223 0
M  V30 2103 H 200.15 -5.21128 -0.593775 0
M  V30 2104 H 201.624 -5.02105 -2.29335 0
M  V30 2105 H 202.101 -3.39721 -2.78363 0
M  V30 2106 H 202.707 -4.06499 -1.25055 0
M  V30 2107 N 201.022 0.148545 -1.56898 0
M  V30 2108 C 201.97 1.20265 -1.99096 0
M  V30 2109 C 202.964 1.44559 -0.883123 0
M  V30 2110 O 204.17 1.4487 -1.0683 0
M  V30 2111 H 200.545 0.404786 -0.63376 0
M  V30 2112 H 202.516 0.82004 -2.86911 0
M  V30 2113 C 201.265 2.52886 -2.3863 0
M  V30 2114 H 200.588 2.35021 -3.23427 0
M  V30 2115 H 202.028 3.25274 -2.7198 0
M  V30 2116 C 200.487 3.13315 -1.23837 0
M  V30 2117 O 201.017 3.98077 -0.538268 0
M  V30 2118 N 199.223 2.72742 -1.00301 0
M  V30 2119 H 198.77 2.03912 -1.5741 0
M  V30 2120 H 198.728 3.13507 -0.236838 0
M  V30 2121 N 202.5 1.5196 0.417844 0
M  V30 2122 C 203.911 1.57851 0.997 0
M  V30 2123 C 204.262 0.413714 1.91789 0
M  V30 2124 O 203.387 -0.467057 2.113 0
M  V30 2125 C 203.982 2.86085 1.81496 0
M  V30 2126 C 202.541 2.94483 2.34428 0
M  V30 2127 C 201.688 2.52707 1.14169 0
M  V30 2128 H 204.639 1.57455 0.198392 0
M  V30 2129 H 204.66 2.70947 2.67148 0
M  V30 2130 H 204.172 3.70842 1.14446 0
M  V30 2131 H 202.273 2.142 3.04875 0
M  V30 2132 H 202.386 3.98546 2.65891 0
M  V30 2133 H 200.75 2.06353 1.49301 0
M  V30 2134 H 201.533 3.39828 0.486999 0
M  V30 2135 N 203.978 -0.674533 1.42435 0
M  V30 2136 C 205.208 -1.46071 1.46105 0
M  V30 2137 C 205.616 -1.89067 0.0709605 0
M  V30 2138 O 204.959 -1.58731 -0.924677 0
M  V30 2139 C 205.021 -2.74145 2.32561 0
M  V30 2140 C 204.685 -2.53224 3.8043 0
M  V30 2141 C 205.682 -2.17809 4.72075 0
M  V30 2142 C 203.367 -2.6821 4.24698 0
M  V30 2143 C 205.361 -1.97648 6.05982 0
M  V30 2144 C 203.048 -2.47665 5.58664 0
M  V30 2145 C 204.046 -2.12437 6.49122 0
M  V30 2146 O 203.734 -1.9209 7.80613 0
M  V30 2147 H 203.466 -0.455959 0.499076 0
M  V30 2148 H 206.02 -0.836193 1.87609 0
M  V30 2149 H 204.25 -3.3908 1.85908 0
M  V30 2150 H 205.939 -3.36028 2.27683 0
M  V30 2151 H 206.705 -2.05826 4.39159 0
M  V30 2152 H 202.584 -2.94609 3.54579 0
M  V30 2153 H 206.128 -1.70075 6.7655 0
M  V30 2154 H 202.025 -2.59244 5.91154 0
M  V30 2155 H 202.793 -2.06686 7.91974 0
M  V30 2156 N 205.456 -1.28612 -0.910864 0
M  V30 2157 C 206.703 -1.15934 -1.66029 0
M  V30 2158 C 207.031 0.291483 -1.92303 0
M  V30 2159 O 206.286 1.22816 -1.52364 0
M  V30 2160 C 206.585 -1.90624 -3.0232 0
M  V30 2161 C 206.251 -3.40405 -2.95695 0
M  V30 2162 C 204.913 -3.81255 -2.93595 0
M  V30 2163 C 207.265 -4.359 -2.85728 0
M  V30 2164 C 204.593 -5.15936 -2.79334 0
M  V30 2165 C 206.945 -5.70657 -2.73007 0
M  V30 2166 C 205.609 -6.10779 -2.69267 0
M  V30 2167 H 204.879 -0.424234 -0.607541 0
M  V30 2168 H 207.526 -1.5942 -1.06101 0
M  V30 2169 H 205.831 -1.39696 -3.6605 0
M  V30 2170 H 207.528 -1.78228 -3.59215 0
M  V30 2171 H 204.118 -3.07927 -2.98125 0
M  V30 2172 H 208.302 -4.053 -2.86436 0
M  V30 2173 H 203.558 -5.46146 -2.74835 0
M  V30 2174 H 207.732 -6.44311 -2.64264 0
M  V30 2175 H 205.359 -7.1509 -2.57974 0
M  V30 2176 N 206.934 1.1197 -1.10907 0
M  V30 2177 C 208.182 1.83225 -0.852819 0
M  V30 2178 C 208.503 1.84769 0.623341 0
M  V30 2179 O 207.773 1.3143 1.45269 0
M  V30 2180 H 206.353 0.67849 -0.312507 0
M  V30 2181 H 209.015 1.3556 -1.40033 0
M  V30 2182 H 208.111 2.87265 -1.22005 0
M  V30 2183 N 208.412 0.89855 1.29475 0
M  V30 2184 C 209.637 0.538561 2.00285 0
M  V30 2185 C 210.062 -0.869135 1.66816 0
M  V30 2186 O 209.42 -1.57831 0.892145 0
M  V30 2187 C 209.468 0.736475 3.52999 0
M  V30 2188 O 208.572 -0.211537 4.11857 0
M  V30 2189 H 207.913 0.210563 0.62973 0
M  V30 2190 H 210.443 1.20982 1.64998 0
M  V30 2191 H 210.453 0.640685 4.02938 0
M  V30 2192 H 209.128 1.76276 3.76696 0
M  V30 2193 H 207.705 -0.0682991 3.72837 0
M  V30 2194 N 209.89 -1.43072 0.660911 0
M  V30 2195 C 211.137 -2.01721 0.177445 0
M  V30 2196 C 211.465 -1.5218 -1.21126 0
M  V30 2197 O 210.72 -0.708659 -1.82419 0
M  V30 2198 C 211.019 -3.57103 0.145563 0
M  V30 2199 C 210.685 -4.26021 1.47705 0
M  V30 2200 C 209.347 -4.44563 1.84165 0
M  V30 2201 C 211.699 -4.64983 2.35458 0
M  V30 2202 C 209.027 -4.99334 3.0803 0
M  V30 2203 C 211.379 -5.21127 3.58622 0
M  V30 2204 C 210.043 -5.37884 3.95268 0
M  V30 2205 H 209.313 -0.73815 0.0649317 0
M  V30 2206 H 211.96 -1.71446 0.853144 0
M  V30 2207 H 210.265 -3.86965 -0.61361 0
M  V30 2208 H 211.962 -4.00248 -0.2455 0
M  V30 2209 H 208.552 -4.11939 1.18339 0
M  V30 2210 H 212.736 -4.50343 2.08579 0
M  V30 2211 H 207.992 -5.10493 3.36462 0
M  V30 2212 H 212.166 -5.50262 4.26831 0
M  V30 2213 H 209.793 -5.80089 4.91325 0
M  V30 2214 N 211.368 -0.403325 -1.52352 0
M  V30 2215 C 212.596 0.174012 -2.06167 0
M  V30 2216 C 213.011 1.39347 -1.27388 0
M  V30 2217 O 212.368 1.79597 -0.324201 0
M  V30 2218 C 212.419 0.530223 -3.5759 0
M  V30 2219 O 212.14 -0.640806 -4.33388 0
M  V30 2220 C 213.641 1.16192 -4.27802 0
M  V30 2221 H 210.861 0.0229464 -0.670608 0
M  V30 2222 H 213.405 -0.572604 -1.9632 0
M  V30 2223 H 211.56 1.22673 -3.67464 0
M  V30 2224 H 211.974 -0.344851 -5.23365 0
M  V30 2225 H 213.448 1.36141 -5.34948 0
M  V30 2226 H 213.925 2.13335 -3.83907 0
M  V30 2227 H 214.531 0.505775 -4.22282 0
M  V30 2228 N 212.846 1.57033 -0.133567 0
M  V30 2229 C 214.123 1.87256 0.56522 0
M  V30 2230 C 214.503 1.03726 1.83859 0
M  V30 2231 O 213.851 0.120247 2.28183 0
M  V30 2232 C 214.061 3.3865 0.843636 0
M  V30 2233 C 215.409 4.07574 1.19032 0
M  V30 2234 O 216.433 3.43752 0.933429 0
M  V30 2235 O 215.292 5.20259 1.67312 0
M  V30 2236 H 212.386 0.775678 0.286796 0
M  V30 2237 H 214.932 1.68855 -0.169168 0
M  V30 2238 H 213.704 3.91257 -0.0581149 0
M  V30 2239 H 213.327 3.62532 1.63268 0
M  V30 2240 N 214.325 -0.140222 1.56975 0
M  V30 2241 C 215.572 -0.851687 1.83719 0
M  V30 2242 C 215.9 -1.80862 0.715485 0
M  V30 2243 O 215.155 -1.93464 -0.294956 0
M  V30 2244 C 215.454 -1.65386 3.16832 0
M  V30 2245 C 215.12 -0.843112 4.42947 0
M  V30 2246 C 213.782 -0.619464 4.77196 0
M  V30 2247 C 216.134 -0.276582 5.20466 0
M  V30 2248 C 213.462 0.181312 5.8642 0
M  V30 2249 C 215.814 0.51127 6.30531 0
M  V30 2250 C 214.478 0.745432 6.63325 0
M  V30 2251 H 213.748 -0.311654 0.672274 0
M  V30 2252 H 216.395 -0.115006 1.91154 0
M  V30 2253 H 214.7 -2.46084 3.04877 0
M  V30 2254 H 216.397 -2.20793 3.34741 0
M  V30 2255 H 212.987 -1.0275 4.16101 0
M  V30 2256 H 217.171 -0.436632 4.94376 0
M  V30 2257 H 212.427 0.372165 6.10266 0
M  V30 2258 H 216.601 0.957354 6.89788 0
M  V30 2259 H 214.228 1.36778 7.47794 0
M  V30 2260 N 215.803 -1.52179 -0.40978 0
M  V30 2261 C 216.735 -1.71703 -1.51825 0
M  V30 2262 C 217.748 -0.597445 -1.51441 0
M  V30 2263 O 218.937 -0.872582 -1.55719 0
M  V30 2264 C 216.037 -1.74171 -2.90719 0
M  V30 2265 C 215.21 -3.03156 -3.15302 0
M  V30 2266 C 214.269 -2.97445 -4.34065 0
M  V30 2267 O 213.295 -3.71352 -4.31377 0
M  V30 2268 N 214.497 -2.15191 -5.39141 0
M  V30 2269 H 217.262 -2.67334 -1.35472 0
M  V30 2270 H 214.823 -1.50409 -0.599069 0
M  V30 2271 H 216.815 -1.67884 -3.68235 0
M  V30 2272 H 215.385 -0.860166 -3.00533 0
M  V30 2273 H 214.605 -3.23097 -2.25836 0
M  V30 2274 H 215.893 -3.88484 -3.28569 0
M  V30 2275 H 215.291 -1.54573 -5.44173 0
M  V30 2276 H 213.848 -2.1476 -6.15403 0
M  V30 2277 N 217.281 0.66697 -1.42791 0
M  V30 2278 C 218.229 1.80157 -1.47127 0
M  V30 2279 C 219.223 1.65825 -0.346199 0
M  V30 2280 O 220.429 1.72338 -0.519572 0
M  V30 2281 H 216.804 0.594158 -0.460956 0
M  V30 2282 H 218.775 1.73619 -2.42692 0
M  V30 2283 C 217.524 3.18351 -1.39813 0
M  V30 2284 H 216.847 3.3001 -2.25684 0
M  V30 2285 H 218.287 3.97736 -1.46908 0
M  V30 2286 C 216.746 3.36707 -0.11391 0
M  V30 2287 O 217.276 3.93027 0.830241 0
M  V30 2288 N 215.482 2.90586 -0.0285295 0
M  V30 2289 H 215.029 2.4494 -0.79764 0
M  V30 2290 H 214.987 3.03245 0.830063 0
M  V30 2291 N 218.759 1.29093 0.90403 0
M  V30 2292 C 219.689 1.16401 2.02418 0
M  V30 2293 C 220.67 0.0593085 1.69997 0
M  V30 2294 O 221.855 0.238021 1.92736 0
M  V30 2295 C 218.985 0.835233 3.37107 0
M  V30 2296 C 217.939 1.89578 3.83724 0
M  V30 2297 C 217.265 1.42041 5.15489 0
M  V30 2298 C 218.565 3.30394 4.04521 0
M  V30 2299 H 220.259 2.10109 2.13295 0
M  V30 2300 H 217.805 1.01157 1.02486 0
M  V30 2301 H 219.758 0.733169 4.14973 0
M  V30 2302 H 218.482 -0.137543 3.2631 0
M  V30 2303 H 217.141 1.98715 3.08071 0
M  V30 2304 H 216.789 0.436426 5.01103 0
M  V30 2305 H 216.489 2.12964 5.4765 0
M  V30 2306 H 218.013 1.33176 5.959 0
M  V30 2307 H 219.427 3.24123 4.72882 0
M  V30 2308 H 217.824 3.99237 4.48029 0
M  V30 2309 H 218.894 3.73692 3.09002 0
M  V30 2310 N 220.237 -1.11381 1.11499 0
M  V30 2311 C 221.486 -1.82494 0.858993 0
M  V30 2312 C 221.799 -1.85605 -0.617278 0
M  V30 2313 O 223.005 -2.52824 -0.989552 0
M  V30 2314 C 221.461 -3.27745 1.48699 0
M  V30 2315 C 221.069 -3.32961 2.99735 0
M  V30 2316 C 222.813 -4.03754 1.31085 0
M  V30 2317 C 220.72 -4.72612 3.55516 0
M  V30 2318 H 219.65 -0.683802 0.317696 0
M  V30 2319 H 222.301 -1.25331 1.34031 0
M  V30 2320 H 220.683 -3.84844 0.933339 0
M  V30 2321 H 221.857 -2.85741 3.61509 0
M  V30 2322 H 220.172 -2.70433 3.16631 0
M  V30 2323 H 222.769 -5.06891 1.70192 0
M  V30 2324 H 223.112 -4.15527 0.253496 0
M  V30 2325 H 223.645 -3.53043 1.83318 0
M  V30 2326 H 220.384 -4.66036 4.60967 0
M  V30 2327 H 219.904 -5.2024 2.98513 0
M  V30 2328 H 221.583 -5.4157 3.53992 0
M  V30 2329 N 221.715 -0.905404 -1.28997 0
M  V30 2330 C 222.663 -0.377431 -2.29517 0
M  V30 2331 C 223.657 0.526461 -1.61012 0
M  V30 2332 O 224.863 0.40863 -1.753 0
M  V30 2333 H 221.238 -0.103437 -0.744852 0
M  V30 2334 H 223.209 -1.23848 -2.71485 0
M  V30 2335 C 221.958 0.374833 -3.45674 0
M  V30 2336 H 221.281 -0.311474 -3.98585 0
M  V30 2337 H 222.721 0.70903 -4.1803 0
M  V30 2338 C 221.18 1.57963 -2.97572 0
M  V30 2339 O 221.71 2.67886 -2.99333 0
M  V30 2340 N 219.916 1.42375 -2.53333 0
M  V30 2341 H 219.463 0.529466 -2.521 0
M  V30 2342 H 219.421 2.23117 -2.21509 0
M  V30 2343 N 223.193 1.4272 -0.668489 0
M  V30 2344 C 224.421 2.05966 -0.196348 0
M  V30 2345 C 224.836 1.50191 1.14403 0
M  V30 2346 O 224.193 0.639208 1.7094 0
M  V30 2347 C 224.244 3.61314 -0.115815 0
M  V30 2348 O 223.965 4.1502 -1.40322 0
M  V30 2349 C 225.466 4.41663 0.380579 0
M  V30 2350 H 222.686 0.663954 -0.0969829 0
M  V30 2351 H 225.23 1.82966 -0.913446 0
M  V30 2352 H 223.385 3.83448 0.551931 0
M  V30 2353 H 223.799 5.08832 -1.27243 0
M  V30 2354 H 225.273 5.5065 0.385848 0
M  V30 2355 H 225.75 4.15792 1.41471 0
M  V30 2356 H 226.356 4.24534 -0.255209 0
M  V30 2357 N 224.671 0.411399 1.52136 0
M  V30 2358 C 225.634 -0.401089 2.25663 0
M  V30 2359 C 226.634 -0.971732 1.28117 0
M  V30 2360 O 227.824 -0.850254 1.52041 0
M  V30 2361 C 224.956 -1.56483 3.02863 0
M  V30 2362 H 226.149 0.24295 2.98914 0
M  V30 2363 H 223.702 0.163968 1.55438 0
M  V30 2364 H 224.437 -2.24567 2.33967 0
M  V30 2365 H 224.222 -1.16211 3.74483 0
M  V30 2366 H 225.712 -2.13951 3.58629 0
M  V30 2367 N 226.149 -1.5696 0.141893 0
M  V30 2368 C 227.099 -2.13074 -0.811383 0
M  V30 2369 C 228.083 -1.05726 -1.21288 0
M  V30 2370 O 229.275 -1.31914 -1.18015 0
M  V30 2371 C 226.404 -2.75186 -2.0525 0
M  V30 2372 C 225.49 -3.8965 -1.67432 0
M  V30 2373 N 225.881 -4.95733 -1.0041 0
M  V30 2374 C 224.179 -4.00262 -1.96739 0
M  V30 2375 C 224.88 -5.75858 -0.822345 0
M  V30 2376 N 223.856 -5.26452 -1.3546 0
M  V30 2377 H 227.658 -2.92465 -0.290031 0
M  V30 2378 H 225.172 -1.6229 -0.0598218 0
M  V30 2379 H 227.169 -3.13745 -2.74535 0
M  V30 2380 H 225.829 -1.97266 -2.57907 0
M  V30 2381 H 226.84 -5.13607 -0.665441 0
M  V30 2382 H 223.517 -3.33412 -2.51282 0
M  V30 2383 H 224.907 -6.71254 -0.294496 0
M  V30 2384 N 227.627 0.131896 -1.57047 0
M  V30 2385 C 228.59 1.14638 -1.98471 0
M  V30 2386 C 229.59 1.35029 -0.873148 0
M  V30 2387 O 230.78 1.31764 -1.13946 0
M  V30 2388 C 227.912 2.50358 -2.31373 0
M  V30 2389 H 229.105 0.79064 -2.8929 0
M  V30 2390 H 226.658 0.375761 -1.51716 0
M  V30 2391 H 227.393 2.90876 -1.43393 0
M  V30 2392 H 227.178 2.36915 -3.12432 0
M  V30 2393 H 228.668 3.23395 -2.64207 0
M  V30 2394 N 229.106 1.52395 0.401703 0
M  V30 2395 C 230.056 1.72649 1.48917 0
M  V30 2396 C 231.04 0.580436 1.50066 0
M  V30 2397 O 232.232 0.83779 1.55917 0
M  V30 2398 C 229.361 1.88729 2.86769 0
M  V30 2399 C 228.447 3.09228 2.90239 0
M  V30 2400 N 228.838 4.31805 2.63396 0
M  V30 2401 C 227.136 3.09214 3.21408 0
M  V30 2402 C 227.837 5.13326 2.73625 0
M  V30 2403 N 226.813 4.48735 3.06819 0
M  V30 2404 H 230.615 2.65058 1.26971 0
M  V30 2405 H 228.129 1.50528 0.609504 0
M  V30 2406 H 230.126 2.01358 3.65049 0
M  V30 2407 H 228.786 0.975252 3.09708 0
M  V30 2408 H 229.797 4.60154 2.37653 0
M  V30 2409 H 226.474 2.27774 3.49893 0
M  V30 2410 H 227.864 6.21003 2.56524 0
M  V30 2411 N 230.584 -0.659388 1.43143 0
M  V30 2412 C 231.532 -1.79374 1.4808 0
M  V30 2413 C 232.526 -1.65639 0.354988 0
M  V30 2414 O 233.732 -1.7206 0.528704 0
M  V30 2415 H 230.107 -0.591705 0.4641 0
M  V30 2416 H 232.078 -1.72329 2.43609 0
M  V30 2417 C 230.827 -3.17606 1.41499 0
M  V30 2418 H 230.15 -3.28809 2.27431 0
M  V30 2419 H 231.59 -3.96951 1.49015 0
M  V30 2420 C 230.049 -3.36642 0.131765 0
M  V30 2421 O 230.579 -3.93461 -0.809386 0
M  V30 2422 N 228.785 -2.90567 0.0439396 0
M  V30 2423 H 228.332 -2.44513 0.810619 0
M  V30 2424 H 228.29 -3.03681 -0.813969 0
M  V30 2425 N 232.062 -1.29571 -0.897171 0
M  V30 2426 C 233.311 -1.1706 -1.64256 0
M  V30 2427 C 233.624 0.276476 -1.93636 0
M  V30 2428 O 234.83 0.52294 -2.66416 0
M  V30 2429 C 233.286 -2.0475 -2.95982 0
M  V30 2430 C 232.894 -3.54295 -2.74187 0
M  V30 2431 C 234.638 -2.0097 -3.73914 0
M  V30 2432 C 232.545 -4.34081 -4.01656 0
M  V30 2433 H 231.475 -0.43452 -0.616205 0
M  V30 2434 H 234.126 -1.54229 -0.994268 0
M  V30 2435 H 232.508 -1.60452 -3.62038 0
M  V30 2436 H 233.682 -4.06662 -2.1671 0
M  V30 2437 H 231.997 -3.59773 -2.09648 0
M  V30 2438 H 234.594 -2.57838 -4.68427 0
M  V30 2439 H 234.937 -0.990273 -4.0435 0
M  V30 2440 H 235.47 -2.43325 -3.14703 0
M  V30 2441 H 232.209 -5.36671 -3.76384 0
M  V30 2442 H 231.729 -3.86483 -4.58684 0
M  V30 2443 H 233.408 -4.44877 -4.69781 0
M  V30 2444 N 233.54 1.10788 -1.12088 0
M  V30 2445 C 234.487 2.17025 -0.785407 0
M  V30 2446 C 235.457 1.64265 0.246191 0
M  V30 2447 O 236.642 1.90412 0.121584 0
M  V30 2448 C 233.782 3.44249 -0.242177 0
M  V30 2449 C 232.895 4.1098 -1.33115 0
M  V30 2450 C 232.03 5.25911 -0.747741 0
M  V30 2451 C 231.069 5.84538 -1.81609 0
M  V30 2452 N 230.206 6.90853 -1.25167 0
M  V30 2453 H 235.046 2.45066 -1.69548 0
M  V30 2454 H 232.583 1.20297 -0.846582 0
M  V30 2455 H 234.541 4.17101 0.0908026 0
M  V30 2456 H 233.171 3.16571 0.631072 0
M  V30 2457 H 232.223 3.36133 -1.78097 0
M  V30 2458 H 233.535 4.50601 -2.13917 0
M  V30 2459 H 232.689 6.056 -0.365216 0
M  V30 2460 H 231.428 4.87614 0.0915188 0
M  V30 2461 H 230.433 5.03522 -2.20785 0
M  V30 2462 H 231.658 6.249 -2.6585 0
M  V30 2463 H 229.604 6.54562 -0.434174 0
M  V30 2464 H 229.521 7.29166 -1.99633 0
M  V30 2465 H 230.789 7.7433 -0.896259 0
M  V30 2466 N 235.018 0.912232 1.28515 0
M  V30 2467 C 236.264 0.545405 1.95328 0
M  V30 2468 C 236.597 -0.908313 1.71649 0
M  V30 2469 O 235.872 -1.64575 1.03659 0
M  V30 2470 C 236.155 0.853483 3.4984 0
M  V30 2471 C 236.008 2.35982 3.82926 0
M  V30 2472 C 237.327 0.348589 4.38717 0
M  V30 2473 H 234.446 0.199626 0.709449 0
M  V30 2474 H 237.088 1.1412 1.5191 0
M  V30 2475 H 235.238 0.34643 3.86952 0
M  V30 2476 H 236.91 2.93738 3.55691 0
M  V30 2477 H 235.153 2.81543 3.30024 0
M  V30 2478 H 235.824 2.52593 4.90816 0
M  V30 2479 H 238.3 0.78294 4.08668 0
M  V30 2480 H 237.176 0.593242 5.45685 0
M  V30 2481 H 237.437 -0.751049 4.35674 0
M  V30 2482 N 236.496 -1.42363 0.676048 0
M  V30 2483 C 237.745 -2.00745 0.196037 0
M  V30 2484 C 238.058 -1.54083 -1.20489 0
M  V30 2485 O 239.264 -2.04891 -1.78134 0
M  V30 2486 C 237.72 -3.58651 0.299616 0
M  V30 2487 C 237.328 -4.143 1.70468 0
M  V30 2488 C 239.072 -4.24326 -0.121619 0
M  V30 2489 C 236.979 -5.64574 1.76096 0
M  V30 2490 H 235.909 -0.750787 0.0695301 0
M  V30 2491 H 238.56 -1.63072 0.841412 0
M  V30 2492 H 236.942 -3.93833 -0.413673 0
M  V30 2493 H 238.116 -3.90575 2.44515 0
M  V30 2494 H 236.431 -3.61081 2.07387 0
M  V30 2495 H 239.028 -5.34607 -0.0997362 0
M  V30 2496 H 239.371 -3.99897 -1.15708 0
M  V30 2497 H 239.904 -3.94108 0.540706 0
M  V30 2498 H 236.643 -5.93804 2.77628 0
M  V30 2499 H 236.163 -5.90286 1.06406 0
M  V30 2500 H 237.842 -6.29013 1.51496 0
M  V30 2501 N 237.974 -0.419461 -1.51915 0
M  V30 2502 C 239.223 0.154346 -2.01109 0
M  V30 2503 C 239.536 1.45338 -1.30905 0
M  V30 2504 O 240.742 2.10906 -1.7097 0
M  V30 2505 C 239.198 0.325615 -3.58424 0
M  V30 2506 C 238.806 -0.961934 -4.37551 0
M  V30 2507 C 240.55 0.854155 -4.15818 0
M  V30 2508 C 238.457 -0.757287 -5.86531 0
M  V30 2509 H 237.387 0.0614563 -0.751491 0
M  V30 2510 H 240.038 -0.54649 -1.75173 0
M  V30 2511 H 238.42 1.08903 -3.80731 0
M  V30 2512 H 239.594 -1.7323 -4.26999 0
M  V30 2513 H 237.909 -1.41766 -3.91524 0
M  V30 2514 H 240.506 1.02346 -5.24814 0
M  V30 2515 H 240.849 1.83172 -3.73837 0
M  V30 2516 H 241.382 0.149528 -3.97519 0
M  V30 2517 H 238.121 -1.70671 -6.32892 0
M  V30 2518 H 237.641 -0.0264061 -5.99794 0
M  V30 2519 H 239.32 -0.403482 -6.45741 0
M  V30 2520 N 239.452 1.56882 -0.150215 0
M  V30 2521 C 240.729 1.87844 0.545327 0
M  V30 2522 C 241.109 1.0567 1.82749 0
M  V30 2523 O 240.457 0.144442 2.28043 0
M  V30 2524 C 240.667 3.39526 0.80767 0
M  V30 2525 C 242.015 4.08814 1.14703 0
M  V30 2526 O 243.039 3.44723 0.896917 0
M  V30 2527 O 241.898 5.22004 1.61784 0
M  V30 2528 H 238.992 0.778677 0.278553 0
M  V30 2529 H 241.538 1.68666 -0.187068 0
M  V30 2530 H 240.31 3.91173 -0.0996096 0
M  V30 2531 H 239.933 3.64243 1.59413 0
M  V30 2532 N 240.93 -0.123565 1.57115 0
M  V30 2533 C 242.177 -0.832153 1.84612 0
M  V30 2534 C 242.505 -1.80093 0.734627 0
M  V30 2535 O 241.76 -1.93766 -0.27442 0
M  V30 2536 C 242.059 -1.62016 3.18568 0
M  V30 2537 C 241.725 -0.796084 4.43817 0
M  V30 2538 C 240.387 -0.568816 4.77826 0
M  V30 2539 C 242.739 -0.221364 5.2073 0
M  V30 2540 C 240.067 0.243499 5.86194 0
M  V30 2541 C 242.419 0.578117 6.29953 0
M  V30 2542 C 241.083 0.815744 6.62497 0
M  V30 2543 H 240.353 -0.304507 0.675542 0
M  V30 2544 H 243 -0.0947248 1.91266 0
M  V30 2545 H 241.305 -2.42837 3.0747 0
M  V30 2546 H 243.002 -2.17231 3.37064 0
M  V30 2547 H 239.592 -0.983307 4.17168 0
M  V30 2548 H 243.776 -0.384173 4.94811 0
M  V30 2549 H 239.032 0.436871 6.09837 0
M  V30 2550 H 243.206 1.03046 6.88734 0
M  V30 2551 H 240.833 1.44701 7.46301 0
M  V30 2552 N 242.408 -1.52605 -0.393616 0
M  V30 2553 C 243.371 -1.76415 -1.46323 0
M  V30 2554 C 244.371 -0.634126 -1.47768 0
M  V30 2555 O 245.561 -0.902142 -1.4902 0
M  V30 2556 C 242.693 -1.8607 -2.85641 0
M  V30 2557 H 243.886 -2.71916 -1.26498 0
M  V30 2558 H 241.439 -1.43257 -0.625073 0
M  V30 2559 H 242.174 -0.925378 -3.10817 0
M  V30 2560 H 241.959 -2.68235 -2.85993 0
M  V30 2561 H 243.449 -2.06179 -3.63153 0
M  V30 2562 N 243.887 0.651787 -1.4349 0
M  V30 2563 C 245.298 1.233 -1.40193 0
M  V30 2564 C 245.649 1.9591 -0.106727 0
M  V30 2565 O 244.774 2.01316 0.793773 0
M  V30 2566 C 245.369 2.24257 -2.53957 0
M  V30 2567 C 243.928 2.77852 -2.5392 0
M  V30 2568 C 243.075 1.52517 -2.3159 0
M  V30 2569 H 246.026 0.443717 -1.52371 0
M  V30 2570 H 246.047 3.0646 -2.25528 0
M  V30 2571 H 245.559 1.71382 -3.4821 0
M  V30 2572 H 243.66 3.34786 -1.63551 0
M  V30 2573 H 243.773 3.25299 -3.51735 0
M  V30 2574 H 242.137 1.79915 -1.80285 0
M  V30 2575 H 242.92 1.01574 -3.27929 0
M  V30 2576 N 245.365 1.30045 0.890287 0
M  V30 2577 C 246.313 1.15873 2.01683 0
M  V30 2578 C 247.307 0.0719403 1.69247 0
M  V30 2579 O 248.513 0.232414 1.78493 0
M  V30 2580 H 244.888 0.358203 0.661207 0
M  V30 2581 H 246.859 2.11229 2.10772 0
M  V30 2582 C 245.608 0.861842 3.36849 0
M  V30 2583 H 244.931 1.69016 3.62317 0
M  V30 2584 H 246.371 0.802762 4.16331 0
M  V30 2585 C 244.83 -0.435132 3.34078 0
M  V30 2586 O 245.36 -1.4583 3.74295 0
M  V30 2587 N 243.566 -0.444377 2.87182 0
M  V30 2588 H 243.113 0.388723 2.5465 0
M  V30 2589 H 243.071 -1.31213 2.85711 0
M  V30 2590 N 246.843 -1.10192 1.12674 0
M  V30 2591 C 247.793 -2.14754 0.765801 0
M  V30 2592 C 248.777 -1.59154 -0.236409 0
M  V30 2593 O 249.969 -1.76951 -0.0415261 0
M  V30 2594 C 247.098 -3.42563 0.224827 0
M  V30 2595 C 246.184 -4.05091 1.25548 0
M  V30 2596 N 246.575 -4.42287 2.4539 0
M  V30 2597 C 244.873 -4.32186 1.10142 0
M  V30 2598 C 245.574 -4.91441 3.11224 0
M  V30 2599 N 244.55 -4.88405 2.38666 0
M  V30 2600 H 248.352 -2.41309 1.67772 0
M  V30 2601 H 245.866 -1.27339 1.00789 0
M  V30 2602 H 247.863 -4.16868 -0.0519578 0
M  V30 2603 H 246.523 -3.17467 -0.681515 0
M  V30 2604 H 247.534 -4.33902 2.82754 0
M  V30 2605 H 244.211 -4.16735 0.252587 0
M  V30 2606 H 245.601 -5.29749 4.13298 0
M  V30 2607 N 248.321 -0.919034 -1.28029 0
M  V30 2608 C 249.549 -0.570971 -1.98866 0
M  V30 2609 C 249.964 0.848996 -1.68634 0
M  V30 2610 O 249.321 1.56307 -0.942036 0
M  V30 2611 C 249.372 -0.776876 -3.53054 0
M  V30 2612 O 249.093 -2.14097 -3.82222 0
M  V30 2613 C 250.594 -0.436356 -4.41147 0
M  V30 2614 H 247.814 -0.217175 -0.634883 0
M  V30 2615 H 250.358 -1.23368 -1.63097 0
M  V30 2616 H 248.513 -0.161085 -3.87065 0
M  V30 2617 H 248.927 -2.18455 -4.76841 0
M  V30 2618 H 250.401 -0.63117 -5.4838 0
M  V30 2619 H 250.878 0.627686 -4.34692 0
M  V30 2620 H 251.484 -1.02991 -4.12641 0
M  V30 2621 N 249.799 1.42003 -0.683588 0
M  V30 2622 C 251.024 2.06265 -0.216647 0
M  V30 2623 C 251.449 1.51059 1.12083 0
M  V30 2624 O 250.807 0.632638 1.69904 0
M  V30 2625 C 250.855 3.60191 -0.171759 0
M  V30 2626 O 249.959 4.03396 0.857069 0
M  V30 2627 H 249.3 0.65502 -0.108834 0
M  V30 2628 H 251.83 1.81982 -0.935077 0
M  V30 2629 H 251.84 4.08 0.0014303 0
M  V30 2630 H 250.515 3.99743 -1.14796 0
M  V30 2631 H 249.092 3.67117 0.654208 0
M  V30 2632 N 251.277 0.427512 1.51691 0
M  V30 2633 C 252.688 -0.0378867 1.86662 0
M  V30 2634 C 253.039 -1.42819 1.34525 0
M  V30 2635 O 252.164 -2.05037 0.692014 0
M  V30 2636 C 252.759 -0.0755266 3.38716 0
M  V30 2637 C 251.318 -0.485309 3.73258 0
M  V30 2638 C 250.465 0.328399 2.75349 0
M  V30 2639 H 253.416 0.64379 1.45055 0
M  V30 2640 H 253.437 -0.887056 3.70016 0
M  V30 2641 H 252.949 0.936487 3.76632 0
M  V30 2642 H 251.05 -1.50329 3.40928 0
M  V30 2643 H 251.163 -0.21693 4.78609 0
M  V30 2644 H 249.527 -0.211905 2.53817 0
M  V30 2645 H 250.31 1.3391 3.16106 0
M  V30 2646 N 252.755 -1.56801 0.158532 0
M  V30 2647 C 253.718 -2.16138 -0.762705 0
M  V30 2648 C 254.718 -1.1061 -1.16713 0
M  V30 2649 O 255.908 -1.36191 -1.08617 0
M  V30 2650 C 253.04 -2.73386 -2.03649 0
M  V30 2651 H 254.233 -2.98886 -0.246354 0
M  V30 2652 H 251.786 -1.56035 -0.0909744 0
M  V30 2653 H 252.521 -1.94335 -2.59623 0
M  V30 2654 H 252.306 -3.50601 -1.75559 0
M  V30 2655 H 253.796 -3.19065 -2.6942 0
M  V30 2656 N 254.233 0.115231 -1.57178 0
M  V30 2657 C 255.458 0.840354 -1.89612 0
M  V30 2658 C 255.883 1.72464 -0.750845 0
M  V30 2659 O 255.241 1.78826 0.298478 0
M  V30 2660 C 255.289 1.64654 -3.20814 0
M  V30 2661 O 254.393 2.7538 -3.06985 0
M  V30 2662 H 253.734 0.232158 -0.622092 0
M  V30 2663 H 256.264 0.0964977 -2.04372 0
M  V30 2664 H 256.274 2.03499 -3.53627 0
M  V30 2665 H 254.949 0.997416 -4.03763 0
M  V30 2666 H 253.526 2.3971 -2.85646 0
M  V30 2667 N 255.711 1.52812 0.385517 0
M  V30 2668 C 256.621 1.80766 1.49535 0
M  V30 2669 C 257.637 0.694651 1.59532 0
M  V30 2670 O 258.813 0.982611 1.75803 0
M  V30 2671 C 255.878 1.97381 2.85029 0
M  V30 2672 C 254.939 3.21295 2.84724 0
M  V30 2673 C 254.172 3.37108 4.13756 0
M  V30 2674 O 254.395 2.5765 5.08893 0
M  V30 2675 O 253.329 4.30378 4.20783 0
M  V30 2676 H 257.155 2.75015 1.28842 0
M  V30 2677 H 254.74 1.37946 0.573697 0
M  V30 2678 H 256.622 2.09996 3.65349 0
M  V30 2679 H 255.297 1.06322 3.05741 0
M  V30 2680 H 254.204 3.1412 2.03174 0
M  V30 2681 H 255.537 4.12212 2.68965 0
M  V30 2682 N 257.189 -0.644168 1.43834 0
M  V30 2683 C 258.417 -1.43147 1.49387 0
M  V30 2684 C 258.832 -1.88452 0.114583 0
M  V30 2685 O 258.189 -1.60047 -0.876989 0
M  V30 2686 C 258.24 -2.66046 2.44748 0
M  V30 2687 O 257.961 -2.22633 3.77314 0
M  V30 2688 C 259.462 -3.59311 2.59635 0
M  V30 2689 H 256.682 -0.439447 0.507077 0
M  V30 2690 H 259.226 -0.78895 1.88669 0
M  V30 2691 H 257.381 -3.26418 2.08638 0
M  V30 2692 H 257.795 -3.02216 4.28679 0
M  V30 2693 H 259.269 -4.42187 3.30416 0
M  V30 2694 H 259.746 -4.07259 1.64427 0
M  V30 2695 H 260.352 -3.04816 2.96593 0
M  V30 2696 N 258.668 -1.30515 -0.883378 0
M  V30 2697 C 259.945 -1.10086 -1.6168 0
M  V30 2698 C 260.325 0.349269 -2.08191 0
M  V30 2699 O 259.673 1.34105 -1.85008 0
M  V30 2700 C 259.883 -2.10315 -2.78511 0
M  V30 2701 C 261.231 -2.42119 -3.48803 0
M  V30 2702 O 262.255 -2.08638 -2.88702 0
M  V30 2703 O 261.114 -2.99396 -4.57192 0
M  V30 2704 H 258.208 -0.422907 -0.710689 0
M  V30 2705 H 260.754 -1.41947 -0.930015 0
M  V30 2706 H 259.526 -3.07917 -2.41459 0
M  V30 2707 H 259.149 -1.79282 -3.54886 0
M  V30 2708 N 260.146 1.09593 -1.13257 0
M  V30 2709 C 261.557 1.63229 -0.906274 0
M  V30 2710 C 261.908 1.8811 0.557578 0
M  V30 2711 O 261.033 1.62953 1.42391 0
M  V30 2712 C 261.628 2.96535 -1.63867 0
M  V30 2713 C 260.187 3.47003 -1.45828 0
M  V30 2714 C 259.334 2.2145 -1.66898 0
M  V30 2715 H 262.285 0.92978 -1.28611 0
M  V30 2716 H 262.306 3.64411 -1.09476 0
M  V30 2717 H 261.818 2.78394 -2.70404 0
M  V30 2718 H 259.919 3.70272 -0.415848 0
M  V30 2719 H 260.032 4.24551 -2.2202 0
M  V30 2720 H 258.396 2.30022 -1.09371 0
M  V30 2721 H 259.179 2.0583 -2.74752 0
M  V30 2722 N 261.624 0.925811 1.2754 0
M  V30 2723 C 262.852 0.581509 1.9856 0
M  V30 2724 C 263.267 -0.840041 1.69082 0
M  V30 2725 O 262.624 -1.55805 0.950312 0
M  V30 2726 C 262.675 0.795589 3.52637 0
M  V30 2727 O 262.396 2.16121 3.81082 0
M  V30 2728 C 263.897 0.459744 4.4091 0
M  V30 2729 H 261.117 0.220538 0.633722 0
M  V30 2730 H 263.661 1.24232 1.6244 0
M  V30 2731 H 261.816 0.18161 3.86974 0
M  V30 2732 H 262.23 2.2098 4.75676 0
M  V30 2733 H 263.704 0.660244 5.48037 0
M  V30 2734 H 264.181 -0.604625 4.35018 0
M  V30 2735 H 264.787 1.05178 4.12089 0
M  V30 2736 N 263.102 -1.41638 0.69111 0
M  V30 2737 C 264.332 -2.0533 0.228758 0
M  V30 2738 C 264.74 -1.52089 -1.12541 0
M  V30 2739 O 264.083 -0.662145 -1.71351 0
M  V30 2740 C 264.145 -3.59349 0.10407 0
M  V30 2741 C 263.809 -4.35362 1.38956 0
M  V30 2742 C 264.806 -4.64942 2.32648 0
M  V30 2743 C 262.491 -4.74714 1.64169 0
M  V30 2744 C 264.485 -5.32828 3.49818 0
M  V30 2745 C 262.172 -5.42338 2.81625 0
M  V30 2746 C 263.17 -5.71322 3.74273 0
M  V30 2747 O 262.858 -6.37554 4.89673 0
M  V30 2748 H 262.59 -0.667796 0.104997 0
M  V30 2749 H 265.144 -1.82477 0.942938 0
M  V30 2750 H 263.374 -3.80924 -0.665839 0
M  V30 2751 H 265.063 -4.04633 -0.320519 0
M  V30 2752 H 265.829 -4.35025 2.14425 0
M  V30 2753 H 261.708 -4.51538 0.929202 0
M  V30 2754 H 265.252 -5.55368 4.22152 0
M  V30 2755 H 261.149 -5.71673 2.99768 0
M  V30 2756 H 261.917 -6.56049 4.8943 0
M  V30 2757 N 264.58 -0.43555 -1.51462 0
M  V30 2758 C 265.543 0.365137 -2.26273 0
M  V30 2759 C 266.543 0.951227 -1.29647 0
M  V30 2760 O 267.733 0.825958 -1.53374 0
M  V30 2761 C 264.865 1.51645 -3.05314 0
M  V30 2762 H 266.058 -0.290474 -2.9849 0
M  V30 2763 H 263.611 -0.188676 -1.55157 0
M  V30 2764 H 264.346 2.20816 -2.3751 0
M  V30 2765 H 264.131 1.10238 -3.76284 0
M  V30 2766 H 265.621 2.08218 -3.61987 0
M  V30 2767 N 266.058 1.56714 -0.166846 0
M  V30 2768 C 266.968 2.21331 0.777791 0
M  V30 2769 C 267.984 1.20358 1.25658 0
M  V30 2770 O 269.16 1.53005 1.30964 0
M  V30 2771 C 266.225 2.83787 1.99163 0
M  V30 2772 C 265.286 3.99947 1.56016 0
M  V30 2773 C 264.519 4.59415 2.71613 0
M  V30 2774 O 264.742 4.17769 3.88362 0
M  V30 2775 O 263.676 5.49359 2.45945 0
M  V30 2776 H 267.502 3.02605 0.257636 0
M  V30 2777 H 265.087 1.49275 0.0611393 0
M  V30 2778 H 266.969 3.23405 2.70161 0
M  V30 2779 H 265.644 2.05513 2.50092 0
M  V30 2780 H 264.551 3.65007 0.819809 0
M  V30 2781 H 265.884 4.79801 1.09782 0
M  V30 2782 N 267.536 -0.106894 1.57237 0
M  V30 2783 C 268.484 -1.14944 2.02215 0
M  V30 2784 C 269.478 -1.42167 0.92114 0
M  V30 2785 O 270.684 -1.41987 1.10634 0
M  V30 2786 H 267.059 -0.387841 0.64427 0
M  V30 2787 H 269.03 -0.743683 2.88984 0
M  V30 2788 C 267.779 -2.4647 2.4525 0
M  V30 2789 H 267.102 -2.26363 3.29545 0
M  V30 2790 H 268.542 -3.17948 2.80508 0
M  V30 2791 C 267.001 -3.09921 1.321 0
M  V30 2792 O 267.531 -3.9651 0.643622 0
M  V30 2793 N 265.737 -2.69986 1.07497 0
M  V30 2794 H 265.284 -1.99667 1.62761 0
M  V30 2795 H 265.242 -3.12769 0.319876 0
M  V30 2796 N 269.014 -1.53014 -0.377408 0
M  V30 2797 C 270.262 -1.6829 -1.11906 0
M  V30 2798 C 270.583 -0.431206 -1.90173 0
M  V30 2799 O 269.853 0.554595 -1.87886 0
M  V30 2800 H 268.433 -0.620371 -0.416112 0
M  V30 2801 H 271.095 -1.90167 -0.426893 0
M  V30 2802 H 270.191 -2.53862 -1.8155 0
M  V30 2803 N 270.492 0.636531 -1.44174 0
M  V30 2804 C 271.908 0.954104 -1.27941 0
M  V30 2805 C 272.108 2.0039 -0.211248 0
M  V30 2806 O 271.164 2.49236 0.404695 0
M  V30 2807 C 272.477 1.4225 -2.64925 0
M  V30 2808 C 274.025 1.53827 -2.72592 0
M  V30 2809 C 274.5 2.04053 -4.10032 0
M  V30 2810 N 275.991 2.11331 -4.12182 0
M  V30 2811 C 276.726 2.51352 -5.15374 0
M  V30 2812 N 276.222 2.90549 -6.2893 0
M  V30 2813 N 278.015 2.51438 -5.02728 0
M  V30 2814 H 270.166 -0.0578386 -2.12321 0
M  V30 2815 H 272.429 0.0367406 -0.947288 0
M  V30 2816 H 272.135 0.725466 -3.44136 0
M  V30 2817 H 272.009 2.39451 -2.9145 0
M  V30 2818 H 274.396 2.22628 -1.93702 0
M  V30 2819 H 274.477 0.550154 -2.49814 0
M  V30 2820 H 274.121 1.35848 -4.89395 0
M  V30 2821 H 274.051 3.03726 -4.30184 0
M  V30 2822 H 276.542 1.83745 -3.30222 0
M  V30 2823 H 276.855 3.19884 -7.03487 0
M  V30 2824 H 275.2 2.88313 -6.32377 0
M  V30 2825 H 278.391 2.20203 -4.13072 0
M  V30 2826 H 278.564 2.82304 -5.83274 0
M  V30 2827 N 271.97 1.30982 0.876444 0
M  V30 2828 C 272.9 1.20668 1.99903 0
M  V30 2829 C 273.881 0.095354 1.69833 0
M  V30 2830 O 275.066 0.27885 1.92188 0
M  V30 2831 C 272.196 0.90655 3.3526 0
M  V30 2832 C 271.15 1.97675 3.79617 0
M  V30 2833 C 270.476 1.52943 5.1236 0
M  V30 2834 C 271.776 3.389 3.97422 0
M  V30 2835 H 273.47 2.14586 2.0879 0
M  V30 2836 H 271.016 1.03308 1.00317 0
M  V30 2837 H 272.969 0.821025 4.13324 0
M  V30 2838 H 271.693 -0.0682969 3.26529 0
M  V30 2839 H 270.352 2.05205 3.03787 0
M  V30 2840 H 270 0.54262 5.00065 0
M  V30 2841 H 269.7 2.24532 5.43009 0
M  V30 2842 H 271.224 1.45786 5.92941 0
M  V30 2843 H 272.638 3.34081 4.659 0
M  V30 2844 H 271.035 4.0865 4.3946 0
M  V30 2845 H 272.105 3.80163 3.01006 0
M  V30 2846 N 273.449 -1.08991 1.13837 0
M  V30 2847 C 274.679 -1.84743 0.924859 0
M  V30 2848 C 275.087 -1.81629 -0.529874 0
M  V30 2849 O 274.43 -1.21397 -1.37872 0
M  V30 2850 C 274.492 -3.33568 1.34061 0
M  V30 2851 C 274.156 -3.60425 2.80968 0
M  V30 2852 C 275.153 -3.55771 3.79108 0
M  V30 2853 C 272.838 -3.88627 3.18236 0
M  V30 2854 C 274.832 -3.78939 5.12527 0
M  V30 2855 C 272.519 -4.11449 4.51833 0
M  V30 2856 C 273.517 -4.06598 5.48787 0
M  V30 2857 O 273.205 -4.28826 6.79973 0
M  V30 2858 H 272.937 -0.590258 0.329502 0
M  V30 2859 H 275.491 -1.38598 1.51591 0
M  V30 2860 H 273.721 -3.80442 0.692853 0
M  V30 2861 H 275.41 -3.90743 1.09886 0
M  V30 2862 H 276.176 -3.34005 3.51661 0
M  V30 2863 H 272.055 -3.91526 2.43369 0
M  V30 2864 H 275.599 -3.75068 5.88192 0
M  V30 2865 H 271.496 -4.32698 4.79002 0
M  V30 2866 H 272.264 -4.46264 6.86142 0
M  V30 2867 N 274.927 -0.932562 -1.27047 0
M  V30 2868 C 276.204 -0.49377 -1.89265 0
M  V30 2869 C 276.584 1.02833 -1.8436 0
M  V30 2870 O 275.932 1.88461 -1.29209 0
M  V30 2871 C 276.142 -1.04536 -3.32976 0
M  V30 2872 C 277.49 -1.10879 -4.09867 0
M  V30 2873 O 278.514 -0.995327 -3.42011 0
M  V30 2874 O 277.373 -1.28417 -5.31198 0
M  V30 2875 H 274.467 -0.159596 -0.811454 0
M  V30 2876 H 277.013 -1.02457 -1.3528 0
M  V30 2877 H 275.785 -2.08913 -3.30864 0
M  V30 2878 H 275.408 -0.496494 -3.94488 0
M  V30 2879 N 276.405 1.4127 -0.698611 0
M  V30 2880 C 277.353 2.32588 -0.023855 0
M  V30 2881 C 278.347 1.51128 0.765292 0
M  V30 2882 O 279.553 1.67043 0.670571 0
M  V30 2883 H 275.928 0.751918 0.0110871 0
M  V30 2884 H 277.899 2.87167 -0.811031 0
M  V30 2885 C 276.648 3.35947 0.896369 0
M  V30 2886 H 275.971 3.98684 0.298548 0
M  V30 2887 H 277.411 4.02376 1.33676 0
M  V30 2888 C 275.87 2.70076 2.01396 0
M  V30 2889 O 276.4 2.55093 3.10307 0
M  V30 2890 N 274.606 2.28724 1.79259 0
M  V30 2891 H 274.153 2.4111 0.906841 0
M  V30 2892 H 274.111 1.84986 2.54219 0
M  V30 2893 N 277.883 0.443576 1.51229 0
M  V30 2894 C 279.131 -0.120557 2.0174 0
M  V30 2895 C 279.452 -1.42665 1.32935 0
M  V30 2896 O 278.722 -1.9028 0.465866 0
M  V30 2897 H 277.302 -0.0475426 0.745486 0
M  V30 2898 H 279.964 0.587711 1.85828 0
M  V30 2899 H 279.06 -0.291972 3.10731 0
M  V30 2900 N 279.361 -1.56624 0.175154 0
M  V30 2901 C 280.589 -2.01374 -0.474971 0
M  V30 2902 C 281.004 -1.05537 -1.56548 0
M  V30 2903 O 280.361 -0.0568668 -1.82411 0
M  V30 2904 C 280.412 -3.45923 -1.04975 0
M  V30 2905 O 280.133 -4.381 -0.00276605 0
M  V30 2906 C 281.634 -4.06093 -1.77773 0
M  V30 2907 H 278.854 -0.659962 -0.121206 0
M  V30 2908 H 281.398 -2.02601 0.27801 0
M  V30 2909 H 279.553 -3.45458 -1.75321 0
M  V30 2910 H 279.967 -5.22753 -0.427681 0
M  V30 2911 H 281.441 -5.09147 -2.13245 0
M  V30 2912 H 281.918 -3.48405 -2.67414 0
M  V30 2913 H 282.524 -4.10272 -1.12059 0
M  V30 2914 N 280.839 0.0985539 -1.57292 0
M  V30 2915 C 281.769 1.12064 -2.04851 0
M  V30 2916 C 282.75 1.41981 -0.936767 0
M  V30 2917 O 283.935 1.52071 -1.20781 0
M  V30 2918 C 281.065 2.44144 -2.47004 0
M  V30 2919 C 280.019 2.28643 -3.6181 0
M  V30 2920 C 279.345 3.65869 -3.89929 0
M  V30 2921 C 280.645 1.72986 -4.92822 0
M  V30 2922 H 282.339 0.724979 -2.9049 0
M  V30 2923 H 279.885 0.34729 -1.39749 0
M  V30 2924 H 281.838 3.15914 -2.78884 0
M  V30 2925 H 280.562 2.85639 -1.5836 0
M  V30 2926 H 279.221 1.59318 -3.30172 0
M  V30 2927 H 278.869 4.04885 -2.98458 0
M  V30 2928 H 278.569 3.56344 -4.67218 0
M  V30 2929 H 280.093 4.39112 -4.2428 0
M  V30 2930 H 281.507 2.34593 -5.23105 0
M  V30 2931 H 279.904 1.74229 -5.74251 0
M  V30 2932 H 280.974 0.689007 -4.7998 0
M  V30 2933 N 282.317 1.53212 0.369288 0
M  V30 2934 C 283.247 1.82365 1.45826 0
M  V30 2935 C 284.228 0.676907 1.56051 0
M  V30 2936 O 285.413 0.926401 1.70679 0
M  V30 2937 C 282.543 2.01023 2.83208 0
M  V30 2938 C 281.497 3.1678 2.8781 0
M  V30 2939 C 280.823 3.20724 4.27832 0
M  V30 2940 C 282.123 4.55447 2.55667 0
M  V30 2941 H 283.817 2.73559 1.21678 0
M  V30 2942 H 281.363 1.3163 0.583911 0
M  V30 2943 H 283.316 2.20001 3.59413 0
M  V30 2944 H 282.04 1.06536 3.08736 0
M  V30 2945 H 280.699 2.97616 2.14056 0
M  V30 2946 H 280.347 2.23882 4.50429 0
M  V30 2947 H 280.047 3.98496 4.31827 0
M  V30 2948 H 281.571 3.41881 5.05915 0
M  V30 2949 H 282.985 4.74611 3.21586 0
M  V30 2950 H 281.382 5.35432 2.70984 0
M  V30 2951 H 282.452 4.60812 1.5093 0
M  V30 2952 N 283.795 -0.628877 1.44509 0
M  V30 2953 C 285.043 -1.38565 1.4712 0
M  V30 2954 C 285.364 -1.94712 0.105899 0
M  V30 2955 O 284.634 -1.75912 -0.862079 0
M  V30 2956 H 283.214 -0.514333 0.541729 0
M  V30 2957 H 285.876 -0.740018 1.80305 0
M  V30 2958 H 284.972 -2.21583 2.19789 0
M  V30 2959 N 285.273 -1.31445 -0.869486 0
M  V30 2960 C 286.521 -1.20918 -1.61936 0
M  V30 2961 C 286.842 0.232683 -1.93607 0
M  V30 2962 O 286.112 1.15352 -1.58338 0
M  V30 2963 H 284.692 -0.44454 -0.600328 0
M  V30 2964 H 287.354 -1.64776 -1.0409 0
M  V30 2965 H 286.45 -1.78124 -2.56278 0
M  V30 2966 N 286.751 1.08385 -1.14413 0
M  V30 2967 C 287.981 1.8425 -0.934644 0
M  V30 2968 C 288.389 1.81907 0.520234 0
M  V30 2969 O 287.732 1.22126 1.37226 0
M  V30 2970 C 287.794 3.32853 -1.35828 0
M  V30 2971 C 287.458 3.5893 -2.82875 0
M  V30 2972 C 288.455 3.53756 -3.80989 0
M  V30 2973 C 286.14 3.86934 -3.20293 0
M  V30 2974 C 288.134 3.76216 -5.14529 0
M  V30 2975 C 285.821 4.09047 -4.54008 0
M  V30 2976 C 286.819 4.03682 -5.50936 0
M  V30 2977 O 286.507 4.25214 -6.82238 0
M  V30 2978 H 286.239 0.588502 -0.332628 0
M  V30 2979 H 288.793 1.37792 -1.52324 0
M  V30 2980 H 287.023 3.8007 -0.713019 0
M  V30 2981 H 288.712 3.90154 -1.11957 0
M  V30 2982 H 289.478 3.32135 -3.53428 0
M  V30 2983 H 285.357 3.9023 -2.45442 0
M  V30 2984 H 288.901 3.71943 -5.90173 0
M  V30 2985 H 284.798 4.30151 -4.8129 0
M  V30 2986 H 285.566 4.42619 -6.88499 0
M  V30 2987 N 288.23 0.939286 1.26551 0
M  V30 2988 C 289.458 0.602536 1.97932 0
M  V30 2989 C 289.873 -0.82206 1.69964 0
M  V30 2990 O 289.23 -1.54789 0.966784 0
M  V30 2991 C 289.281 0.832946 3.51773 0
M  V30 2992 O 289.002 2.20151 3.78768 0
M  V30 2993 C 290.503 0.506483 4.40397 0
M  V30 2994 H 287.723 0.227248 0.631347 0
M  V30 2995 H 290.267 1.25948 1.61113 0
M  V30 2996 H 288.422 0.222644 3.8676 0
M  V30 2997 H 288.836 2.26013 4.73306 0
M  V30 2998 H 290.31 0.718333 5.47306 0
M  V30 2999 H 290.787 -0.558451 4.35635 0
M  V30 3000 H 291.393 1.09543 4.10951 0
M  V30 3001 N 289.708 -1.40897 0.706093 0
M  V30 3002 C 290.656 -2.32572 0.0361893 0
M  V30 3003 C 291.65 -1.51532 -0.757266 0
M  V30 3004 O 292.856 -1.67396 -0.661703 0
M  V30 3005 H 289.231 -0.751966 -0.00709935 0
M  V30 3006 H 291.202 -2.86733 0.826249 0
M  V30 3007 C 289.951 -3.36418 -0.87854 0
M  V30 3008 H 289.274 -3.98836 -0.277401 0
M  V30 3009 H 290.714 -4.0308 -1.3154 0
M  V30 3010 C 289.173 -2.71141 -1.99961 0
M  V30 3011 O 289.703 -2.56735 -3.0895 0
M  V30 3012 N 287.909 -2.29671 -1.78043 0
M  V30 3013 H 287.456 -2.41588 -0.894042 0
M  V30 3014 H 287.414 -1.86332 -2.53235 0
M  V30 3015 N 291.186 -0.45159 -1.50991 0
M  V30 3016 C 292.463 0.170707 -1.94854 0
M  V30 3017 C 292.843 1.58788 -1.39103 0
M  V30 3018 O 292.191 2.20913 -0.583921 0
M  V30 3019 C 292.401 0.133929 -3.48743 0
M  V30 3020 C 293.749 0.33248 -4.23296 0
M  V30 3021 O 294.773 0.211403 -3.55572 0
M  V30 3022 O 293.632 0.57486 -5.43468 0
M  V30 3023 H 290.726 0.122264 -0.817912 0
M  V30 3024 H 293.272 -0.510594 -1.61836 0
M  V30 3025 H 292.044 -0.856283 -3.81816 0
M  V30 3026 H 291.667 0.857529 -3.88242 0
M  V30 3027 N 292.664 1.56529 -0.183458 0
M  V30 3028 C 293.892 2.01623 0.464285 0
M  V30 3029 C 294.307 1.06366 1.55986 0
M  V30 3030 O 293.664 0.0665398 1.82379 0
M  V30 3031 C 293.715 3.46475 1.03139 0
M  V30 3032 O 293.436 4.38095 -0.0204675 0
M  V30 3033 C 294.937 4.0703 1.75617 0
M  V30 3034 H 292.157 0.660596 0.117704 0
M  V30 3035 H 294.701 2.02451 -0.288751 0
M  V30 3036 H 292.856 3.46383 1.73486 0
M  V30 3037 H 293.27 5.22973 0.399952 0
M  V30 3038 H 294.744 5.10271 2.10542 0
M  V30 3039 H 295.221 3.49819 2.65563 0
M  V30 3040 H 295.827 4.1086 1.09882 0
M  V30 3041 N 294.142 -0.090211 1.57342 0
M  V30 3042 C 295.09 -1.12792 2.03422 0
M  V30 3043 C 296.084 -1.41182 0.936166 0
M  V30 3044 O 297.29 -1.40805 1.12133 0
M  V30 3045 H 293.665 -0.380986 0.648347 0
M  V30 3046 H 295.636 -0.71299 2.89757 0
M  V30 3047 C 294.385 -2.43855 2.47851 0
M  V30 3048 H 293.708 -2.22855 3.31927 0
M  V30 3049 H 295.148 -3.14955 2.83865 0
M  V30 3050 C 293.607 -3.08503 1.3538 0
M  V30 3051 O 294.137 -3.95805 0.685641 0
M  V30 3052 N 292.343 -2.68831 1.10355 0
M  V30 3053 H 291.89 -1.97929 1.64869 0
M  V30 3054 H 291.848 -3.12412 0.353031 0
M  V30 3055 N 295.62 -1.53406 -0.361157 0
M  V30 3056 C 296.868 -1.69467 -1.10115 0
M  V30 3057 C 297.189 -0.451352 -1.89705 0
M  V30 3058 O 296.459 0.534636 -1.88463 0
M  V30 3059 H 295.039 -0.624749 -0.409508 0
M  V30 3060 H 297.701 -1.90609 -0.406699 0
M  V30 3061 H 296.797 -2.55774 -1.78847 0
M  V30 3062 N 297.098 0.621204 -1.44841 0
M  V30 3063 C 298.328 1.40548 -1.51426 0
M  V30 3064 C 298.736 1.88673 -0.141083 0
M  V30 3065 O 298.079 1.62053 0.865128 0
M  V30 3066 C 298.141 2.65325 -2.42576 0
M  V30 3067 C 297.805 2.3893 -3.89566 0
M  V30 3068 C 298.802 2.00138 -4.79834 0
M  V30 3069 C 296.487 2.52263 -4.3436 0
M  V30 3070 C 298.481 1.75021 -6.129 0
M  V30 3071 C 296.168 2.2676 -5.67471 0
M  V30 3072 C 297.166 1.88199 -6.56559 0
M  V30 3073 O 296.854 1.62986 -7.87204 0
M  V30 3074 H 296.586 0.437122 -0.515655 0
M  V30 3075 H 299.14 0.765987 -1.90583 0
M  V30 3076 H 297.37 3.31947 -1.98364 0
M  V30 3077 H 299.059 3.27347 -2.39998 0
M  V30 3078 H 299.825 1.89386 -4.46495 0
M  V30 3079 H 295.704 2.81246 -3.65269 0
M  V30 3080 H 299.248 1.44848 -6.82396 0
M  V30 3081 H 295.145 2.37125 -6.00368 0
M  V30 3082 H 295.913 1.7715 -7.991 0
M  V30 3083 N 298.576 1.31904 0.862503 0
M  V30 3084 C 299.823 1.22017 1.61611 0
M  V30 3085 C 300.151 -0.21991 1.93253 0
M  V30 3086 O 299.406 -1.17076 1.56817 0
M  V30 3087 C 299.705 2.01713 2.95037 0
M  V30 3088 C 299.371 3.51145 2.82857 0
M  V30 3089 C 298.033 3.91889 2.79243 0
M  V30 3090 C 300.385 4.46204 2.69353 0
M  V30 3091 C 297.713 5.25947 2.59993 0
M  V30 3092 C 300.065 5.80397 2.5164 0
M  V30 3093 C 298.729 6.20352 2.46413 0
M  V30 3094 H 297.999 0.44649 0.591378 0
M  V30 3095 H 300.646 1.63248 1.00111 0
M  V30 3096 H 298.951 1.53185 3.60613 0
M  V30 3097 H 300.648 1.91437 3.52353 0
M  V30 3098 H 297.238 3.1878 2.86491 0
M  V30 3099 H 301.422 4.15652 2.71196 0
M  V30 3100 H 296.678 5.5597 2.54376 0
M  V30 3101 H 300.852 6.53676 2.40169 0
M  V30 3102 H 298.479 7.24172 2.31256 0
M  V30 3103 N 300.054 -1.07777 1.14986 0
M  V30 3104 C 301.004 -2.13082 0.811181 0
M  V30 3105 C 301.988 -1.59619 -0.202597 0
M  V30 3106 O 303.18 -1.77 -0.00398275 0
M  V30 3107 C 300.309 -3.42009 0.297439 0
M  V30 3108 C 299.395 -4.02337 1.34112 0
M  V30 3109 N 299.786 -4.36982 2.54716 0
M  V30 3110 C 298.084 -4.29752 1.19285 0
M  V30 3111 C 298.785 -4.84729 3.21578 0
M  V30 3112 N 297.761 -4.83233 2.48972 0
M  V30 3113 H 301.563 -2.37696 1.72853 0
M  V30 3114 H 299.077 -1.25173 1.03468 0
M  V30 3115 H 301.074 -4.16884 0.0364777 0
M  V30 3116 H 299.734 -3.18841 -0.614022 0
M  V30 3117 H 300.745 -4.27807 2.91894 0
M  V30 3118 H 297.422 -4.16106 0.340926 0
M  V30 3119 H 298.812 -5.20863 4.24442 0
M  V30 3120 N 301.532 -0.945985 -1.26051 0
M  V30 3121 C 302.482 -0.430164 -2.23905 0
M  V30 3122 C 303.466 0.47579 -1.53704 0
M  V30 3123 O 304.658 0.310252 -1.7426 0
M  V30 3124 C 301.787 0.298957 -3.41996 0
M  V30 3125 C 300.873 -0.624566 -4.19476 0
M  V30 3126 N 301.264 -1.75245 -4.74471 0
M  V30 3127 C 299.562 -0.431082 -4.43912 0
M  V30 3128 C 300.263 -2.32834 -5.3307 0
M  V30 3129 N 299.239 -1.61583 -5.1903 0
M  V30 3130 H 303.041 -1.29107 -2.64024 0
M  V30 3131 H 300.555 -0.802428 -1.41191 0
M  V30 3132 H 302.552 0.685565 -4.11225 0
M  V30 3133 H 301.212 1.15657 -3.03403 0
M  V30 3134 H 302.223 -2.13449 -4.71868 0
M  V30 3135 H 298.9 0.384364 -4.15727 0
M  V30 3136 H 300.29 -3.27893 -5.86461 0
M  V30 3137 N 303.011 1.40521 -0.713556 0
M  V30 3138 C 304.241 2.0494 -0.261395 0
M  V30 3139 C 304.649 1.53861 1.10107 0
M  V30 3140 O 303.992 0.689321 1.70276 0
M  V30 3141 C 304.054 3.59138 -0.161227 0
M  V30 3142 C 303.718 4.33096 -1.45865 0
M  V30 3143 C 304.715 4.61182 -2.40016 0
M  V30 3144 C 302.4 4.72043 -1.71701 0
M  V30 3145 C 304.394 5.27196 -3.58251 0
M  V30 3146 C 302.081 5.37789 -2.90218 0
M  V30 3147 C 303.079 5.65295 -3.83315 0
M  V30 3148 O 302.767 6.29683 -4.99754 0
M  V30 3149 H 302.499 0.666041 -0.115608 0
M  V30 3150 H 305.053 1.80954 -0.971849 0
M  V30 3151 H 303.283 3.81936 0.605153 0
M  V30 3152 H 304.972 4.05091 0.256105 0
M  V30 3153 H 305.738 4.31559 -2.21318 0
M  V30 3154 H 301.617 4.50003 -1.00092 0
M  V30 3155 H 305.161 5.48582 -4.30934 0
M  V30 3156 H 301.058 5.66831 -3.08825 0
M  V30 3157 H 301.826 6.4818 -4.99805 0
M  V30 3158 N 304.489 0.459591 1.5075 0
M  V30 3159 C 305.737 -0.0991532 2.01857 0
M  V30 3160 C 306.058 -1.41247 1.34441 0
M  V30 3161 O 305.328 -1.89775 0.486022 0
M  V30 3162 H 303.908 -0.039633 0.745948 0
M  V30 3163 H 306.57 0.607387 1.85194 0
M  V30 3164 H 305.666 -0.258998 3.11023 0
M  V30 3165 N 305.967 -1.56429 0.191757 0
M  V30 3166 C 307.215 -1.97095 -0.447006 0
M  V30 3167 C 307.536 -1.07967 -1.62383 0
M  V30 3168 O 306.806 -0.150248 -1.95323 0
M  V30 3169 H 305.386 -0.727832 -0.168135 0
M  V30 3170 H 308.048 -1.92911 0.27771 0
M  V30 3171 H 307.144 -3.01848 -0.793371 0
M  V30 3172 N 307.445 0.0818655 -1.57387 0
M  V30 3173 C 308.673 0.796108 -1.9097 0
M  V30 3174 C 309.088 1.71626 -0.786757 0
M  V30 3175 O 308.445 1.80908 0.240513 0
M  V30 3176 C 308.496 1.59829 -3.24248 0
M  V30 3177 O 308.217 0.715131 -4.32224 0
M  V30 3178 C 309.718 2.41442 -3.7178 0
M  V30 3179 H 306.938 0.22691 -0.631469 0
M  V30 3180 H 309.482 0.0551439 -2.04426 0
M  V30 3181 H 307.637 2.29163 -3.12351 0
M  V30 3182 H 308.051 1.27205 -5.08841 0
M  V30 3183 H 309.525 2.932 -4.67694 0
M  V30 3184 H 310.002 3.2051 -3.00283 0
M  V30 3185 H 310.608 1.77283 -3.86589 0
M  V30 3186 N 308.923 1.53595 0.353017 0
M  V30 3187 C 310.2 1.61002 1.11075 0
M  V30 3188 C 310.58 0.425356 2.0677 0
M  V30 3189 O 309.928 -0.583267 2.2093 0
M  V30 3190 C 310.138 2.96631 1.83877 0
M  V30 3191 C 311.486 3.51653 2.37961 0
M  V30 3192 O 312.51 2.98743 1.93987 0
M  V30 3193 O 311.369 4.44177 3.18386 0
M  V30 3194 H 308.463 0.650825 0.510251 0
M  V30 3195 H 311.009 1.6594 0.35527 0
M  V30 3196 H 309.781 3.74293 1.14108 0
M  V30 3197 H 309.404 2.95242 2.66304 0
M  V30 3198 N 310.401 -0.613514 1.45168 0
M  V30 3199 C 311.648 -1.37268 1.48875 0
M  V30 3200 C 311.976 -1.94077 0.128161 0
M  V30 3201 O 311.231 -1.75178 -0.872416 0
M  V30 3202 C 311.53 -2.54347 2.51083 0
M  V30 3203 C 311.196 -2.1572 3.95949 0
M  V30 3204 C 309.858 -2.04899 4.35396 0
M  V30 3205 C 312.21 -1.85485 4.87078 0
M  V30 3206 C 309.538 -1.62057 5.63875 0
M  V30 3207 C 311.89 -1.4413 6.15962 0
M  V30 3208 C 310.554 -1.31863 6.54346 0
M  V30 3209 H 309.824 -0.502299 0.544773 0
M  V30 3210 H 312.471 -0.694021 1.78481 0
M  V30 3211 H 310.776 -3.27524 2.15024 0
M  V30 3212 H 312.473 -3.12577 2.51191 0
M  V30 3213 H 309.063 -2.25066 3.64751 0
M  V30 3214 H 313.247 -1.92745 4.57343 0
M  V30 3215 H 308.503 -1.51177 5.92415 0
M  V30 3216 H 312.677 -1.19778 6.86022 0
M  V30 3217 H 310.304 -0.984392 7.538 0
M  V30 3218 N 311.879 -1.3236 -0.855495 0
M  V30 3219 C 313.104 -1.2601 -1.64731 0
M  V30 3220 C 313.529 0.169068 -1.87339 0
M  V30 3221 O 312.887 1.12016 -1.42556 0
M  V30 3222 C 312.935 -2.02417 -2.98429 0
M  V30 3223 O 312.039 -1.3714 -3.8893 0
M  V30 3224 H 311.38 -0.434325 -0.502253 0
M  V30 3225 H 313.91 -1.74661 -1.06558 0
M  V30 3226 H 313.92 -2.12559 -3.48257 0
M  V30 3227 H 312.595 -3.06343 -2.81295 0
M  V30 3228 H 311.172 -1.3554 -3.47395 0
M  V30 3229 N 313.357 1.07166 -1.15556 0
M  V30 3230 C 314.582 1.84053 -0.955988 0
M  V30 3231 C 315.007 1.81586 0.490739 0
M  V30 3232 O 314.365 1.21018 1.34997 0
M  V30 3233 C 314.413 3.28957 -1.47714 0
M  V30 3234 O 313.517 4.06795 -0.677593 0
M  V30 3235 H 312.858 0.569842 -0.340847 0
M  V30 3236 H 315.388 1.35178 -1.53584 0
M  V30 3237 H 315.398 3.79788 -1.4908 0
M  V30 3238 H 314.073 3.30068 -2.53037 0
M  V30 3239 H 312.65 3.6561 -0.733721 0
M  V30 3240 N 314.835 0.952656 1.25548 0
M  V30 3241 C 316.065 0.622592 1.96996 0
M  V30 3242 C 316.473 -0.809112 1.71026 0
M  V30 3243 O 315.816 -1.55258 0.981861 0
M  V30 3244 C 315.878 0.798946 3.5051 0
M  V30 3245 C 315.542 2.20744 4.00151 0
M  V30 3246 C 316.539 3.18394 4.11001 0
M  V30 3247 C 314.224 2.5311 4.33867 0
M  V30 3248 C 316.218 4.46504 4.54877 0
M  V30 3249 C 313.905 3.8145 4.7743 0
M  V30 3250 C 314.903 4.77959 4.87897 0
M  V30 3251 O 314.591 6.04012 5.30494 0
M  V30 3252 H 314.323 0.232503 0.634758 0
M  V30 3253 H 316.877 1.2789 1.60728 0
M  V30 3254 H 315.107 0.0854903 3.86605 0
M  V30 3255 H 316.796 0.47023 4.03167 0
M  V30 3256 H 317.562 2.94715 3.85186 0
M  V30 3257 H 313.441 1.78719 4.24948 0
M  V30 3258 H 316.985 5.21835 4.62962 0
M  V30 3259 H 312.882 4.04936 5.0269 0
M  V30 3260 H 313.65 6.0736 5.48685 0
M  V30 3261 N 316.313 -1.40141 0.720998 0
M  V30 3262 C 317.223 -2.34486 0.0731031 0
M  V30 3263 C 318.239 -1.57587 -0.737723 0
M  V30 3264 O 319.415 -1.89949 -0.669429 0
M  V30 3265 C 316.48 -3.36528 -0.833656 0
M  V30 3266 C 315.541 -4.29298 -0.0121673 0
M  V30 3267 C 314.774 -5.26466 -0.875742 0
M  V30 3268 O 314.997 -5.29745 -2.11485 0
M  V30 3269 O 313.931 -6.01092 -0.31185 0
M  V30 3270 H 317.757 -2.9152 0.851444 0
M  V30 3271 H 315.342 -1.41427 0.481527 0
M  V30 3272 H 317.224 -3.99093 -1.35289 0
M  V30 3273 H 315.899 -2.81899 -1.59105 0
M  V30 3274 H 314.806 -3.70001 0.552262 0
M  V30 3275 H 316.139 -4.87094 0.707129 0
M  V30 3276 N 317.792 -0.46758 -1.50504 0
M  V30 3277 C 319.069 0.15003 -1.95024 0
M  V30 3278 C 319.449 1.57304 -1.40779 0
M  V30 3279 O 318.797 2.20281 -0.607319 0
M  V30 3280 C 319.007 0.0969324 -3.48865 0
M  V30 3281 C 320.355 0.287565 -4.23625 0
M  V30 3282 O 321.379 0.173678 -3.55776 0
M  V30 3283 O 320.238 0.517186 -5.44047 0
M  V30 3284 H 317.332 0.113582 -0.819163 0
M  V30 3285 H 319.878 -0.52773 -1.61286 0
M  V30 3286 H 318.65 -0.896732 -3.80886 0
M  V30 3287 H 318.273 0.816303 -3.8913 0
M  V30 3288 N 319.27 1.56325 -0.20005 0
M  V30 3289 C 320.518 1.97329 0.436547 0
M  V30 3290 C 320.839 1.08826 1.61808 0
M  V30 3291 O 320.109 0.160604 1.95241 0
M  V30 3292 H 318.689 0.728714 0.164272 0
M  V30 3293 H 321.351 1.92761 -0.287937 0
M  V30 3294 H 320.447 3.02264 0.777353 0
M  V30 3295 N 320.748 -0.0735177 1.57428 0
M  V30 3296 C 321.997 -0.771809 1.86349 0
M  V30 3297 C 322.31 -1.78828 0.792452 0
M  V30 3298 O 323.516 -2.53602 0.96945 0
M  V30 3299 C 321.972 -1.42358 3.30548 0
M  V30 3300 C 321.58 -0.445761 4.45777 0
M  V30 3301 C 323.324 -2.10434 3.6867 0
M  V30 3302 C 321.231 -1.10335 5.81016 0
M  V30 3303 H 320.161 -0.291999 0.695164 0
M  V30 3304 H 322.812 -0.0250749 1.83483 0
M  V30 3305 H 321.194 -2.21852 3.28021 0
M  V30 3306 H 322.368 0.319239 4.59693 0
M  V30 3307 H 320.683 0.130457 4.16196 0
M  V30 3308 H 323.28 -2.60405 4.67004 0
M  V30 3309 H 323.623 -2.90298 2.98383 0
M  V30 3310 H 324.156 -1.37773 3.7318 0
M  V30 3311 H 320.895 -0.345061 6.54591 0
M  V30 3312 H 320.415 -1.83925 5.70904 0
M  V30 3313 H 322.094 -1.62367 6.26295 0
M  V30 3314 N 322.226 -1.5378 -0.344866 0
M  V30 3315 C 323.456 -1.74646 -1.10374 0
M  V30 3316 C 323.864 -0.48491 -1.8288 0
M  V30 3317 O 323.207 0.553062 -1.75177 0
M  V30 3318 C 323.269 -2.87145 -2.16306 0
M  V30 3319 C 322.933 -4.26795 -1.63386 0
M  V30 3320 C 323.93 -5.08412 -1.08688 0
M  V30 3321 C 321.615 -4.73276 -1.68272 0
M  V30 3322 C 323.609 -6.34609 -0.595792 0
M  V30 3323 C 321.296 -5.99446 -1.18776 0
M  V30 3324 C 322.294 -6.79946 -0.645215 0
M  V30 3325 O 321.982 -8.03745 -0.157626 0
M  V30 3326 H 321.714 -0.587112 -0.335075 0
M  V30 3327 H 324.268 -2.01403 -0.403252 0
M  V30 3328 H 322.498 -2.55909 -2.89909 0
M  V30 3329 H 324.187 -2.95992 -2.77747 0
M  V30 3330 H 324.953 -4.73666 -1.04236 0
M  V30 3331 H 320.832 -4.10677 -2.09442 0
M  V30 3332 H 324.376 -6.97389 -0.171654 0
M  V30 3333 H 320.273 -6.33687 -1.22928 0
M  V30 3334 H 321.041 -8.18038 -0.275037 0
M  V30 3335 N 323.704 0.605807 -1.45491 0
M  V30 3336 C 325.12 0.926751 -1.29936 0
M  V30 3337 C 325.32 1.99896 -0.253706 0
M  V30 3338 O 324.376 2.50038 0.351737 0
M  V30 3339 C 325.689 1.36599 -2.67883 0
M  V30 3340 C 327.237 1.4801 -2.75793 0
M  V30 3341 C 327.712 1.95309 -4.14268 0
M  V30 3342 N 329.203 2.0254 -4.16571 0
M  V30 3343 C 329.938 2.40363 -5.20589 0
M  V30 3344 N 329.434 2.77143 -6.34952 0
M  V30 3345 N 331.227 2.40718 -5.07948 0
M  V30 3346 H 323.378 -0.102862 -2.12151 0
M  V30 3347 H 325.641 0.016639 -0.947854 0
M  V30 3348 H 325.347 0.652306 -3.45598 0
M  V30 3349 H 325.221 2.33215 -2.96463 0
M  V30 3350 H 327.608 2.1847 -1.98381 0
M  V30 3351 H 327.689 0.497041 -2.50925 0
M  V30 3352 H 327.333 1.25436 -4.92167 0
M  V30 3353 H 327.263 2.94532 -4.3653 0
M  V30 3354 H 329.754 1.76699 -3.34045 0
M  V30 3355 H 330.067 3.0489 -7.10114 0
M  V30 3356 H 328.412 2.74834 -6.3835 0
M  V30 3357 H 331.603 2.11392 -4.1765 0
M  V30 3358 H 331.776 2.69869 -5.89131 0
M  V30 3359 N 325.182 1.32811 0.848464 0
M  V30 3360 C 326.13 1.22231 1.97895 0
M  V30 3361 C 327.124 0.125749 1.68933 0
M  V30 3362 O 328.33 0.289083 1.77663 0
M  V30 3363 H 324.705 0.379058 0.649476 0
M  V30 3364 H 326.676 2.17828 2.03945 0
M  V30 3365 C 325.425 0.968572 3.33937 0
M  V30 3366 H 324.748 1.80458 3.56756 0
M  V30 3367 H 326.188 0.934808 4.13567 0
M  V30 3368 C 324.647 -0.328628 3.35293 0
M  V30 3369 O 325.177 -1.33848 3.78745 0
M  V30 3370 N 323.383 -0.352788 2.88451 0
M  V30 3371 H 322.93 0.469541 2.53285 0
M  V30 3372 H 322.888 -1.22057 2.89741 0
M  V30 3373 N 326.66 -1.06551 1.16123 0
M  V30 3374 C 327.59 -2.15935 0.88851 0
M  V30 3375 C 328.571 -1.69306 -0.164135 0
M  V30 3376 O 329.756 -1.94193 -0.0167857 0
M  V30 3377 C 326.886 -3.45149 0.385942 0
M  V30 3378 C 325.84 -4.05271 1.3762 0
M  V30 3379 C 325.166 -5.29664 0.732137 0
M  V30 3380 C 326.466 -4.44355 2.74493 0
M  V30 3381 H 328.16 -2.39006 1.80323 0
M  V30 3382 H 325.706 -1.14866 0.868435 0
M  V30 3383 H 327.659 -4.21004 0.182647 0
M  V30 3384 H 326.383 -3.21689 -0.564274 0
M  V30 3385 H 325.042 -3.3147 1.56599 0
M  V30 3386 H 324.69 -5.02499 -0.224483 0
M  V30 3387 H 324.39 -5.70848 1.39307 0
M  V30 3388 H 325.914 -6.08218 0.538802 0
M  V30 3389 H 327.328 -5.11303 2.59311 0
M  V30 3390 H 325.725 -4.96515 3.37035 0
M  V30 3391 H 326.795 -3.55339 3.29943 0
M  V30 3392 N 328.138 -0.959301 -1.25041 0
M  V30 3393 C 329.385 -0.616611 -1.92884 0
M  V30 3394 C 329.713 0.847036 -1.75087 0
M  V30 3395 O 328.968 1.62374 -1.09239 0
M  V30 3396 C 329.267 -0.927136 -3.45165 0
M  V30 3397 C 328.933 -2.37757 -3.83122 0
M  V30 3398 C 327.595 -2.77402 -3.93194 0
M  V30 3399 C 329.947 -3.31929 -4.01836 0
M  V30 3400 C 327.275 -4.10277 -4.19392 0
M  V30 3401 C 329.627 -4.64423 -4.29528 0
M  V30 3402 C 328.291 -5.03857 -4.37818 0
M  V30 3403 H 327.561 -0.225634 -0.705812 0
M  V30 3404 H 330.208 -1.20921 -1.48493 0
M  V30 3405 H 328.513 -0.252195 -3.90987 0
M  V30 3406 H 330.21 -0.6405 -3.95852 0
M  V30 3407 H 326.8 -2.06013 -3.75841 0
M  V30 3408 H 330.984 -3.02488 -3.93465 0
M  V30 3409 H 326.24 -4.40467 -4.24027 0
M  V30 3410 H 330.414 -5.37369 -4.42953 0
M  V30 3411 H 328.041 -6.06843 -4.57871 0
M  V30 3412 N 329.616 1.39756 -0.72842 0
M  V30 3413 C 330.893 1.94574 -0.200079 0
M  V30 3414 C 331.273 1.66569 1.29684 0
M  V30 3415 O 330.621 0.990326 2.05924 0
M  V30 3416 C 330.831 3.45004 -0.526608 0
M  V30 3417 C 332.179 4.21965 -0.472318 0
M  V30 3418 O 333.203 3.53173 -0.463413 0
M  V30 3419 O 332.062 5.44552 -0.461075 0
M  V30 3420 H 329.156 0.826289 -0.0342851 0
M  V30 3421 H 331.702 1.49293 -0.806829 0
M  V30 3422 H 330.474 3.58796 -1.56144 0
M  V30 3423 H 330.097 3.97449 0.109449 0
M  V30 3424 N 331.094 0.475555 1.50254 0
M  V30 3425 C 332.024 -0.30611 2.31485 0
M  V30 3426 C 333.005 -0.986228 1.38591 0
M  V30 3427 O 334.19 -0.982541 1.67511 0
M  V30 3428 C 331.32 -1.38588 3.1845 0
M  V30 3429 C 330.274 -0.827115 4.19932 0
M  V30 3430 C 329.6 -2.00551 4.95665 0
M  V30 3431 C 330.9 0.16463 5.2204 0
M  V30 3432 H 332.594 0.371866 2.97082 0
M  V30 3433 H 330.14 0.180282 1.42867 0
M  V30 3434 H 332.093 -1.94023 3.74076 0
M  V30 3435 H 330.817 -2.09269 2.50747 0
M  V30 3436 H 329.476 -0.294702 3.65414 0
M  V30 3437 H 329.124 -2.6994 4.2443 0
M  V30 3438 H 328.824 -1.63784 5.64313 0
M  V30 3439 H 330.348 -2.56468 5.54127 0
M  V30 3440 H 331.762 -0.300699 5.72511 0
M  V30 3441 H 330.159 0.446813 5.98434 0
M  V30 3442 H 331.229 1.08905 4.72512 0
M  V30 3443 N 332.573 -1.56217 0.208337 0
M  V30 3444 C 333.536 -2.18455 -0.693557 0
M  V30 3445 C 334.536 -1.14268 -1.13135 0
M  V30 3446 O 335.726 -1.39577 -1.0423 0
M  V30 3447 C 332.858 -2.79727 -1.94848 0
M  V30 3448 H 334.051 -2.99519 -0.15114 0
M  V30 3449 H 331.604 -1.56245 -0.041287 0
M  V30 3450 H 332.339 -2.02497 -2.53309 0
M  V30 3451 H 332.124 -3.56009 -1.64316 0
M  V30 3452 H 333.614 -3.27475 -2.59133 0
M  V30 3453 N 334.051 0.0651679 -1.57465 0
M  V30 3454 C 335.328 0.79644 -1.78651 0
M  V30 3455 C 335.708 1.95454 -0.797566 0
M  V30 3456 O 335.056 2.27882 0.167946 0
M  V30 3457 C 335.266 1.26322 -3.25337 0
M  V30 3458 C 336.614 1.6939 -3.89348 0
M  V30 3459 O 337.638 1.35872 -3.29268 0
M  V30 3460 O 336.497 2.31471 -4.95059 0
M  V30 3461 H 333.591 0.382157 -0.733407 0
M  V30 3462 H 336.137 0.0447311 -1.69641 0
M  V30 3463 H 334.909 0.434859 -3.88876 0
M  V30 3464 H 334.532 2.07604 -3.39096 0
M  V30 3465 N 335.529 1.53961 0.336706 0
M  V30 3466 C 336.459 1.85417 1.41925 0
M  V30 3467 C 337.44 0.709856 1.5458 0
M  V30 3468 O 338.625 0.962396 1.68676 0
M  V30 3469 C 335.755 2.06985 2.78881 0
M  V30 3470 C 334.709 3.22813 2.81026 0
M  V30 3471 C 334.035 3.29727 4.20932 0
M  V30 3472 C 335.335 4.60767 2.45949 0
M  V30 3473 H 337.029 2.76079 1.15848 0
M  V30 3474 H 334.575 1.32839 0.555859 0
M  V30 3475 H 336.528 2.27575 3.54665 0
M  V30 3476 H 335.252 1.13061 3.06406 0
M  V30 3477 H 333.911 3.0209 2.07695 0
M  V30 3478 H 333.559 2.33385 4.45579 0
M  V30 3479 H 333.259 4.07566 4.23277 0
M  V30 3480 H 334.783 3.52536 4.98549 0
M  V30 3481 H 336.197 4.81325 3.11446 0
M  V30 3482 H 334.594 5.4106 2.59566 0
M  V30 3483 H 335.664 4.6391 1.41122 0
M  V30 3484 N 337.007 -0.598083 1.45811 0
M  V30 3485 C 337.955 -1.72932 1.55555 0
M  V30 3486 C 338.949 -1.63984 0.424921 0
M  V30 3487 O 340.155 -1.69663 0.601205 0
M  V30 3488 H 336.53 -0.571489 0.488779 0
M  V30 3489 H 338.501 -1.61842 2.50699 0
M  V30 3490 C 337.25 -3.11318 1.54843 0
M  V30 3491 H 336.573 -3.18867 2.41172 0
M  V30 3492 H 338.013 -3.90274 1.65717 0
M  V30 3493 C 336.472 -3.3578 0.274427 0
M  V30 3494 O 337.002 -3.9654 -0.641778 0
M  V30 3495 N 335.208 -2.90119 0.167139 0
M  V30 3496 H 334.755 -2.40855 0.913596 0
M  V30 3497 H 334.713 -3.0686 -0.684435 0
M  V30 3498 N 338.485 -1.33259 -0.841409 0
M  V30 3499 C 339.417 -1.19136 -1.95804 0
M  V30 3500 C 340.43 -0.122965 -1.62335 0
M  V30 3501 O 341.619 -0.373154 -1.74556 0
M  V30 3502 C 338.719 -0.804268 -3.29218 0
M  V30 3503 C 337.892 -1.96376 -3.90839 0
M  V30 3504 C 336.951 -1.55806 -5.02604 0
M  V30 3505 O 335.977 -2.27203 -5.21888 0
M  V30 3506 N 337.179 -0.461609 -5.78662 0
M  V30 3507 H 339.944 -2.15326 -2.08458 0
M  V30 3508 H 337.505 -1.25971 -1.017 0
M  V30 3509 H 339.497 -0.51501 -4.0141 0
M  V30 3510 H 338.067 0.0668809 -3.12528 0
M  V30 3511 H 337.287 -2.41879 -3.11269 0
M  V30 3512 H 338.575 -2.73966 -4.28742 0
M  V30 3513 H 337.973 0.132343 -5.65545 0
M  V30 3514 H 336.53 -0.232013 -6.51387 0
M  V30 3515 N 339.963 1.05934 -1.16686 0
M  V30 3516 C 340.895 2.13468 -0.834503 0
M  V30 3517 C 341.908 1.62013 0.15984 0
M  V30 3518 O 343.097 1.7838 -0.0654228 0
M  V30 3519 C 340.197 3.3817 -0.222361 0
M  V30 3520 C 339.37 4.18928 -1.25771 0
M  V30 3521 C 338.429 5.21985 -0.664703 0
M  V30 3522 O 337.455 5.53334 -1.33453 0
M  V30 3523 N 338.657 5.77919 0.546834 0
M  V30 3524 H 341.422 2.42578 -1.75999 0
M  V30 3525 H 338.983 1.21967 -1.06469 0
M  V30 3526 H 340.975 4.04266 0.187472 0
M  V30 3527 H 339.545 3.06655 0.606758 0
M  V30 3528 H 338.765 3.48433 -1.84358 0
M  V30 3529 H 340.053 4.69687 -1.95631 0
M  V30 3530 H 339.451 5.54721 1.10912 0
M  V30 3531 H 338.008 6.45573 0.898829 0
M  V30 3532 N 341.441 0.965919 1.2453 0
M  V30 3533 C 342.389 0.486506 2.27455 0
M  V30 3534 C 343.383 -0.449041 1.6334 0
M  V30 3535 O 344.589 -0.324527 1.7705 0
M  V30 3536 H 340.964 0.138857 0.739069 0
M  V30 3537 H 342.935 1.3666 2.65267 0
M  V30 3538 C 341.684 -0.209481 3.47068 0
M  V30 3539 H 341.007 0.50129 3.96645 0
M  V30 3540 H 342.447 -0.508775 4.20936 0
M  V30 3541 C 340.906 -1.43586 3.0477 0
M  V30 3542 O 341.436 -2.53299 3.11773 0
M  V30 3543 N 339.642 -1.30126 2.59838 0
M  V30 3544 H 339.189 -0.408583 2.54339 0
M  V30 3545 H 339.147 -2.12294 2.31902 0
M  V30 3546 N 342.919 -1.39368 0.735821 0
M  V30 3547 C 344.144 -2.05319 0.293052 0
M  V30 3548 C 344.569 -1.55115 -1.064 0
M  V30 3549 O 343.927 -0.695261 -1.67439 0
M  V30 3550 C 343.975 -3.59305 0.305323 0
M  V30 3551 O 343.079 -4.06299 -0.706761 0
M  V30 3552 H 342.42 -0.650529 0.13307 0
M  V30 3553 H 344.95 -1.78386 1.00197 0
M  V30 3554 H 344.96 -4.07724 0.149997 0
M  V30 3555 H 343.635 -3.95207 1.29553 0
M  V30 3556 H 342.212 -3.69292 -0.517504 0
M  V30 3557 N 344.397 -0.483516 -1.5 0
M  V30 3558 C 345.625 0.0644831 -2.06799 0
M  V30 3559 C 346.04 1.32399 -1.34596 0
M  V30 3560 O 345.397 1.77626 -0.418946 0
M  V30 3561 C 345.448 0.339927 -3.59898 0
M  V30 3562 O 345.169 -0.869635 -4.29382 0
M  V30 3563 C 346.67 0.933515 -4.33359 0
M  V30 3564 H 343.89 -0.0126333 -0.670881 0
M  V30 3565 H 346.434 -0.675864 -1.93009 0
M  V30 3566 H 344.589 1.03022 -3.7345 0
M  V30 3567 H 345.003 -0.62179 -5.20801 0
M  V30 3568 H 346.477 1.07593 -5.41413 0
M  V30 3569 H 346.954 1.92685 -3.94676 0
M  V30 3570 H 347.56 0.281221 -4.24369 0
M  V30 3571 N 345.875 1.56104 -0.216619 0
M  V30 3572 C 347.124 1.97348 0.416744 0
M  V30 3573 C 347.437 1.10715 1.6125 0
M  V30 3574 O 348.643 1.41836 2.31506 0
M  V30 3575 C 347.099 3.51059 0.792835 0
M  V30 3576 C 346.707 4.46387 -0.379828 0
M  V30 3577 C 348.451 4.01026 1.39208 0
M  V30 3578 C 346.358 5.91397 0.0184223 0
M  V30 3579 H 345.288 0.736942 0.159475 0
M  V30 3580 H 347.939 1.80827 -0.31205 0
M  V30 3581 H 346.321 3.63162 1.57891 0
M  V30 3582 H 347.495 4.46029 -1.15737 0
M  V30 3583 H 345.81 4.06734 -0.891979 0
M  V30 3584 H 348.407 5.0686 1.70286 0
M  V30 3585 H 348.75 3.46587 2.30614 0
M  V30 3586 H 349.283 3.92125 0.669537 0
M  V30 3587 H 346.022 6.49807 -0.862002 0
M  V30 3588 H 345.542 5.94961 0.760384 0
M  V30 3589 H 347.221 6.45455 0.446818 0
M  V30 3590 N 347.353 -0.0568162 1.57498 0
M  V30 3591 C 348.63 -0.786954 1.79071 0
M  V30 3592 C 349.01 -1.95028 0.80792 0
M  V30 3593 O 348.358 -2.27968 -0.155858 0
M  V30 3594 C 348.568 -1.24594 3.26002 0
M  V30 3595 C 349.916 -1.67323 3.90241 0
M  V30 3596 O 350.94 -1.34124 3.29984 0
M  V30 3597 O 349.799 -2.28842 4.9628 0
M  V30 3598 H 346.893 -0.378262 0.735423 0
M  V30 3599 H 349.439 -0.035734 1.69662 0
M  V30 3600 H 348.211 -0.41423 3.89101 0
M  V30 3601 H 347.834 -2.05803 3.40192 0
M  V30 3602 N 348.832 -1.54138 -0.328536 0
M  V30 3603 C 350.057 -1.76378 -1.09112 0
M  V30 3604 C 350.482 -0.508596 -1.81094 0
M  V30 3605 O 349.84 0.539598 -1.73084 0
M  V30 3606 C 349.888 -2.95358 -2.06872 0
M  V30 3607 O 348.992 -2.66556 -3.14677 0
M  V30 3608 H 348.333 -0.584614 -0.314838 0
M  V30 3609 H 350.863 -2.01146 -0.374348 0
M  V30 3610 H 350.873 -3.22566 -2.4983 0
M  V30 3611 H 349.548 -3.86385 -1.5388 0
M  V30 3612 H 348.125 -2.50282 -2.7643 0
M  V30 3613 N 350.31 0.590341 -1.46126 0
M  V30 3614 C 351.54 1.37304 -1.54373 0
M  V30 3615 C 351.948 1.88332 -0.181071 0
M  V30 3616 O 351.291 1.63852 0.830559 0
M  V30 3617 C 351.353 2.6012 -2.48149 0
M  V30 3618 C 351.017 2.30613 -3.94546 0
M  V30 3619 C 352.014 1.89915 -4.83971 0
M  V30 3620 C 349.699 2.42993 -4.39613 0
M  V30 3621 C 351.693 1.61981 -6.16475 0
M  V30 3622 C 349.38 2.14672 -5.72153 0
M  V30 3623 C 350.378 1.7423 -6.60404 0
M  V30 3624 O 350.066 1.46251 -7.90485 0
M  V30 3625 H 349.798 0.426086 -0.524811 0
M  V30 3626 H 352.352 0.72539 -1.92165 0
M  V30 3627 H 350.582 3.27664 -2.05361 0
M  V30 3628 H 352.271 3.22182 -2.46887 0
M  V30 3629 H 353.037 1.79872 -4.50412 0
M  V30 3630 H 348.916 2.73435 -3.71153 0
M  V30 3631 H 352.46 1.30341 -6.85315 0
M  V30 3632 H 348.357 2.24337 -6.05263 0
M  V30 3633 H 349.125 1.6016 -8.02677 0
M  V30 3634 N 351.788 1.33704 0.83433 0
M  V30 3635 C 352.718 1.26967 1.95963 0
M  V30 3636 C 353.699 0.149337 1.69443 0
M  V30 3637 O 354.884 0.339852 1.91203 0
M  V30 3638 C 352.014 1.01275 3.32206 0
M  V30 3639 C 350.968 2.09652 3.73136 0
M  V30 3640 C 350.294 1.69166 5.07235 0
M  V30 3641 C 351.594 3.51372 3.86439 0
M  V30 3642 H 353.288 2.2112 2.01857 0
M  V30 3643 H 350.834 1.06447 0.969793 0
M  V30 3644 H 352.787 0.952106 4.10503 0
M  V30 3645 H 351.511 0.0356203 3.26581 0
M  V30 3646 H 350.17 2.14766 2.97104 0
M  V30 3647 H 349.818 0.701437 4.98085 0
M  V30 3648 H 349.518 2.41694 5.35591 0
M  V30 3649 H 351.042 1.64576 5.88003 0
M  V30 3650 H 352.456 3.48734 4.55036 0
M  V30 3651 H 350.853 4.22425 4.26236 0
M  V30 3652 H 351.923 3.89546 2.88759 0
M  V30 3653 N 353.266 -1.05314 1.17247 0
M  V30 3654 C 354.213 -2.13031 0.888058 0
M  V30 3655 C 355.183 -1.65253 -0.167537 0
M  V30 3656 O 356.368 -1.90775 -0.0305974 0
M  V30 3657 C 353.508 -3.42702 0.406147 0
M  V30 3658 C 352.621 -4.04161 1.52572 0
M  V30 3659 C 351.756 -5.21744 0.997808 0
M  V30 3660 C 350.795 -5.75207 2.09291 0
M  V30 3661 N 349.932 -6.84094 1.57986 0
M  V30 3662 H 354.772 -2.36698 1.81048 0
M  V30 3663 H 352.309 -1.16121 0.903013 0
M  V30 3664 H 354.267 -4.17059 0.108305 0
M  V30 3665 H 352.897 -3.19222 -0.479313 0
M  V30 3666 H 351.949 -3.27253 1.93931 0
M  V30 3667 H 353.261 -4.39881 2.35172 0
M  V30 3668 H 352.415 -6.03168 0.653739 0
M  V30 3669 H 351.154 -4.87495 0.141232 0
M  V30 3670 H 350.159 -4.92414 2.44557 0
M  V30 3671 H 351.384 -6.11505 2.95362 0
M  V30 3672 H 349.33 -6.51745 0.74598 0
M  V30 3673 H 349.247 -7.18811 2.34195 0
M  V30 3674 H 350.515 -7.69172 1.26468 0
M  V30 3675 N 354.744 -0.972509 -1.24016 0
M  V30 3676 C 355.969 -0.654417 -1.96805 0
M  V30 3677 C 356.394 0.770398 -1.716 0
M  V30 3678 O 355.752 1.52361 -0.982647 0
M  V30 3679 C 355.8 -0.941031 -3.48105 0
M  V30 3680 O 354.904 -0.0289472 -4.1239 0
M  V30 3681 H 354.245 -0.24692 -0.616382 0
M  V30 3682 H 356.775 -1.30396 -1.57664 0
M  V30 3683 H 356.785 -0.87452 -3.98517 0
M  V30 3684 H 355.46 -1.97939 -3.65777 0
M  V30 3685 H 354.037 -0.149192 -3.72601 0
M  V30 3686 N 356.222 1.38976 -0.743202 0
M  V30 3687 C 357.185 2.28901 -0.117014 0
M  V30 3688 C 358.185 1.46698 0.658503 0
M  V30 3689 O 359.375 1.67274 0.486305 0
M  V30 3690 C 356.507 3.30309 0.84315 0
M  V30 3691 H 357.7 2.8578 -0.909373 0
M  V30 3692 H 355.253 1.47761 -0.509547 0
M  V30 3693 H 355.988 2.785 1.66157 0
M  V30 3694 H 355.773 3.91029 0.289594 0
M  V30 3695 H 357.263 3.97577 1.2776 0
M  V30 3696 N 357.7 0.491464 1.49741 0
M  V30 3697 C 358.949 -0.0582189 2.01616 0
M  V30 3698 C 359.262 -1.38927 1.3769 0
M  V30 3699 O 360.468 -2.02509 1.80838 0
M  V30 3700 C 358.924 -0.154235 3.59569 0
M  V30 3701 C 358.532 1.1696 4.32463 0
M  V30 3702 C 360.276 -0.65479 4.1942 0
M  V30 3703 C 358.183 1.03627 5.8225 0
M  V30 3704 H 357.113 -0.0255317 0.753568 0
M  V30 3705 H 359.764 0.629445 1.72367 0
M  V30 3706 H 358.146 -0.906138 3.85493 0
M  V30 3707 H 359.32 1.93405 4.18248 0
M  V30 3708 H 357.635 1.60285 3.84315 0
M  V30 3709 H 360.232 -0.771903 5.29099 0
M  V30 3710 H 360.575 -1.65127 3.8215 0
M  V30 3711 H 361.108 0.040304 3.9778 0
M  V30 3712 H 357.847 2.00672 6.24028 0
M  V30 3713 H 357.367 0.312546 5.98985 0
M  V30 3714 H 359.046 0.711114 6.4308 0
M  V30 3715 N 359.178 -1.55987 0.224894 0
M  V30 3716 C 360.125 -2.20436 -0.68385 0
M  V30 3717 C 361.095 -1.16102 -1.18783 0
M  V30 3718 O 362.28 -1.4447 -1.24632 0
M  V30 3719 C 359.42 -2.89076 -1.88491 0
M  V30 3720 C 358.533 -4.08012 -1.41951 0
M  V30 3721 C 357.668 -4.64426 -2.5784 0
M  V30 3722 C 356.707 -5.75656 -2.08053 0
M  V30 3723 N 355.844 -6.26347 -3.17227 0
M  V30 3724 H 360.684 -2.97727 -0.12754 0
M  V30 3725 H 358.221 -1.47011 -0.0511978 0
M  V30 3726 H 360.179 -3.27059 -2.59014 0
M  V30 3727 H 358.809 -2.14298 -2.41405 0
M  V30 3728 H 357.861 -3.75492 -0.609095 0
M  V30 3729 H 359.173 -4.88375 -1.01447 0
M  V30 3730 H 358.327 -5.04869 -3.3644 0
M  V30 3731 H 357.066 -3.83233 -3.01635 0
M  V30 3732 H 356.071 -5.34712 -1.27916 0
M  V30 3733 H 357.296 -6.58686 -1.65255 0
M  V30 3734 H 355.242 -5.48067 -3.60497 0
M  V30 3735 H 355.159 -7.01843 -2.80986 0
M  V30 3736 H 356.427 -6.71447 -3.95953 0
M  V30 3737 N 360.656 0.0484629 -1.57525 0
M  V30 3738 C 361.902 0.744226 -1.88651 0
M  V30 3739 C 362.235 1.76029 -0.820212 0
M  V30 3740 O 361.51 1.93782 0.166985 0
M  V30 3741 C 361.793 1.43128 -3.30434 0
M  V30 3742 C 361.646 0.43005 -4.47739 0
M  V30 3743 C 362.965 2.37031 -3.70816 0
M  V30 3744 H 360.084 0.269089 -0.68612 0
M  V30 3745 H 362.726 0.00713532 -1.89999 0
M  V30 3746 H 360.876 2.05956 -3.29415 0
M  V30 3747 H 362.548 -0.194816 -4.60888 0
M  V30 3748 H 360.791 -0.252522 -4.33064 0
M  V30 3749 H 361.462 0.948874 -5.43783 0
M  V30 3750 H 363.938 1.84263 -3.73077 0
M  V30 3751 H 362.814 2.82094 -4.70865 0
M  V30 3752 H 363.075 3.22864 -3.02012 0
M  V30 3753 N 362.134 1.5431 0.320358 0
M  V30 3754 C 363.38 1.73859 1.05568 0
M  V30 3755 C 363.735 0.507807 1.85578 0
M  V30 3756 O 363.028 -0.499789 1.84967 0
M  V30 3757 C 363.222 2.95639 2.00828 0
M  V30 3758 C 363.051 4.30444 1.30186 0
M  V30 3759 C 361.821 4.94544 1.03703 0
M  V30 3760 C 364.019 5.0929 0.716138 0
M  V30 3761 N 362.001 6.13172 0.298846 0
M  V30 3762 C 363.372 6.19903 0.109729 0
M  V30 3763 C 365.427 4.94034 0.619269 0
M  V30 3764 C 364.13 7.16924 -0.584153 0
M  V30 3765 C 366.156 5.91369 -0.0609184 0
M  V30 3766 C 365.518 7.01336 -0.656258 0
M  V30 3767 H 361.617 0.688988 0.36989 0
M  V30 3768 H 364.201 1.9177 0.336494 0
M  V30 3769 H 362.372 2.79188 2.70016 0
M  V30 3770 H 364.104 3.03802 2.6737 0
M  V30 3771 H 360.859 4.54536 1.33019 0
M  V30 3772 H 361.283 6.76977 -0.0561964 0
M  V30 3773 H 365.925 4.0916 1.06526 0
M  V30 3774 H 363.643 8.01354 -1.04197 0
M  V30 3775 H 367.229 5.81642 -0.135552 0
M  V30 3776 H 366.109 7.75359 -1.17423 0
M  V30 3777 N 363.613 -0.582584 1.46437 0
M  V30 3778 C 364.543 -1.70187 1.59871 0
M  V30 3779 C 365.524 -1.64066 0.449042 0
M  V30 3780 O 366.709 -1.82081 0.6753 0
M  V30 3781 C 363.839 -3.08827 1.58881 0
M  V30 3782 C 362.793 -3.29779 2.72819 0
M  V30 3783 C 362.119 -4.68947 2.5689 0
M  V30 3784 C 363.419 -3.17601 4.1464 0
M  V30 3785 H 365.113 -1.592 2.53566 0
M  V30 3786 H 362.659 -0.764472 1.22032 0
M  V30 3787 H 364.612 -3.86951 1.66873 0
M  V30 3788 H 363.336 -3.20713 0.617306 0
M  V30 3789 H 361.995 -2.54054 2.64296 0
M  V30 3790 H 361.643 -4.77599 1.57823 0
M  V30 3791 H 361.343 -4.83919 3.33312 0
M  V30 3792 H 362.867 -5.4924 2.66773 0
M  V30 3793 H 364.281 -3.8557 4.24274 0
M  V30 3794 H 362.678 -3.44094 4.9165 0
M  V30 3795 H 363.748 -2.14681 4.34788 0
M  V30 3796 N 365.091 -1.34144 -0.827227 0
M  V30 3797 C 366.368 -1.16844 -1.56865 0
M  V30 3798 C 366.748 0.260654 -2.09485 0
M  V30 3799 O 366.096 1.26138 -1.9053 0
M  V30 3800 C 366.306 -2.21939 -2.6934 0
M  V30 3801 C 367.654 -2.56695 -3.3822 0
M  V30 3802 O 368.678 -2.20695 -2.79593 0
M  V30 3803 O 367.537 -3.18518 -4.44082 0
M  V30 3804 H 364.631 -0.452669 -0.692112 0
M  V30 3805 H 367.177 -1.45763 -0.868973 0
M  V30 3806 H 365.949 -3.17882 -2.28182 0
M  V30 3807 H 365.572 -1.94172 -3.46962 0
M  V30 3808 N 366.569 1.04691 -1.17803 0
M  V30 3809 C 367.502 2.12068 -0.842765 0
M  V30 3810 C 368.48 1.61455 0.192608 0
M  V30 3811 O 369.664 1.88359 0.072995 0
M  V30 3812 C 366.791 3.37715 -0.258063 0
M  V30 3813 C 365.837 4.07164 -1.26962 0
M  V30 3814 S 366.67 4.55047 -2.82299 0
M  V30 3815 C 367.826 5.83935 -2.25323 0
M  V30 3816 H 368.059 2.4018 -1.75217 0
M  V30 3817 H 365.592 1.17366 -1.00323 0
M  V30 3818 H 367.55 4.10435 0.0727935 0
M  V30 3819 H 366.211 3.0773 0.629357 0
M  V30 3820 H 365.404 4.9746 -0.809263 0
M  V30 3821 H 365.006 3.40533 -1.54639 0
M  V30 3822 H 367.298 6.57552 -1.63192 0
M  V30 3823 H 368.241 6.34725 -3.13894 0
M  V30 3824 H 368.649 5.3874 -1.68582 0
M  V30 3825 N 368.047 0.979072 1.23499 0
M  V30 3826 C 369.295 0.645941 1.91499 0
M  V30 3827 C 369.616 -0.822948 1.76784 0
M  V30 3828 O 368.886 -1.58854 1.14639 0
M  V30 3829 H 367.466 0.235919 0.708767 0
M  V30 3830 H 370.128 1.2426 1.50152 0
M  V30 3831 H 369.224 0.896411 2.9895 0
M  V30 3832 N 369.525 -1.3858 0.750561 0
M  V30 3833 C 370.774 -1.99424 0.302172 0
M  V30 3834 C 371.087 -1.60254 -1.12152 0
M  V30 3835 O 372.293 -2.14046 -1.67023 0
M  V30 3836 C 370.749 -3.56558 0.489307 0
M  V30 3837 C 370.357 -4.04682 1.92189 0
M  V30 3838 C 372.101 -4.24374 0.103478 0
M  V30 3839 C 370.008 -5.54446 2.05775 0
M  V30 3840 H 368.938 -0.746046 0.10923 0
M  V30 3841 H 371.589 -1.58383 0.92667 0
M  V30 3842 H 369.971 -3.95472 -0.204329 0
M  V30 3843 H 371.145 -3.77065 2.64875 0
M  V30 3844 H 369.46 -3.4958 2.26236 0
M  V30 3845 H 372.057 -5.34384 0.183787 0
M  V30 3846 H 372.4 -4.05468 -0.943481 0
M  V30 3847 H 372.933 -3.90688 0.748854 0
M  V30 3848 H 369.672 -5.78252 3.08714 0
M  V30 3849 H 369.192 -5.83816 1.37546 0
M  V30 3850 H 370.871 -6.20099 1.84626 0
M  V30 3851 N 371.003 -0.499398 -1.49478 0
M  V30 3852 C 372.28 0.108629 -1.95298 0
M  V30 3853 C 372.66 1.54282 -1.44084 0
M  V30 3854 O 372.008 2.18944 -0.653908 0
M  V30 3855 C 372.218 0.0229111 -3.48992 0
M  V30 3856 C 373.566 0.197643 -4.2414 0
M  V30 3857 O 374.59 0.0981735 -3.56065 0
M  V30 3858 O 373.449 0.401669 -5.45022 0
M  V30 3859 H 370.543 0.096181 -0.821388 0
M  V30 3860 H 373.089 -0.561822 -1.6013 0
M  V30 3861 H 371.861 -0.977321 -3.78899 0
M  V30 3862 H 371.484 0.733579 -3.90774 0
M  V30 3863 N 372.481 1.55866 -0.233164 0
M  V30 3864 C 373.729 1.9821 0.394593 0
M  V30 3865 C 374.05 1.12234 1.59463 0
M  V30 3866 O 373.32 0.201981 1.94856 0
M  V30 3867 H 371.9 0.732034 0.148778 0
M  V30 3868 H 374.562 1.92107 -0.32876 0
M  V30 3869 H 373.658 3.03845 0.713063 0
M  V30 3870 N 373.959 -0.0401083 1.57549 0
M  V30 3871 C 375.208 -0.732108 1.87944 0
M  V30 3872 C 375.521 -1.77107 0.830206 0
M  V30 3873 O 376.727 -2.51488 1.02302 0
M  V30 3874 C 375.183 -1.35315 3.33494 0
M  V30 3875 C 374.791 -0.351105 4.46622 0
M  V30 3876 C 376.535 -2.02566 3.73051 0
M  V30 3877 C 374.442 -0.979859 5.83226 0
M  V30 3878 H 373.372 -0.277188 0.701201 0
M  V30 3879 H 376.023 0.0138501 1.83495 0
M  V30 3880 H 374.405 -2.14844 3.32653 0
M  V30 3881 H 375.579 0.416674 4.58912 0
M  V30 3882 H 373.894 0.218708 4.15825 0
M  V30 3883 H 376.491 -2.50441 4.72423 0
M  V30 3884 H 376.834 -2.83904 3.04474 0
M  V30 3885 H 377.367 -1.29827 3.76018 0
M  V30 3886 H 374.106 -0.206135 6.55176 0
M  V30 3887 H 373.626 -1.71774 5.74677 0
M  V30 3888 H 375.305 -1.49046 6.29599 0
M  V30 3889 N 375.437 -1.54477 -0.31217 0
M  V30 3890 C 376.853 -1.45442 -0.657185 0
M  V30 3891 C 377.053 -0.63653 -1.91182 0
M  V30 3892 O 376.109 -0.139815 -2.52113 0
M  V30 3893 C 377.422 -2.89287 -0.82058 0
M  V30 3894 C 378.97 -2.9926 -0.917188 0
M  V30 3895 C 379.445 -4.44279 -1.11267 0
M  V30 3896 N 380.936 -4.4794 -1.17914 0
M  V30 3897 C 381.671 -5.57318 -1.34848 0
M  V30 3898 N 381.167 -6.76642 -1.48752 0
M  V30 3899 N 382.96 -5.44986 -1.37647 0
M  V30 3900 H 375.111 -2.06129 0.512313 0
M  V30 3901 H 377.374 -0.933088 0.167485 0
M  V30 3902 H 377.08 -3.51687 0.0302604 0
M  V30 3903 H 376.954 -3.36061 -1.71298 0
M  V30 3904 H 379.341 -2.36981 -1.75852 0
M  V30 3905 H 379.422 -2.558 -0.00101257 0
M  V30 3906 H 379.066 -5.07149 -0.27614 0
M  V30 3907 H 378.996 -4.85359 -2.04289 0
M  V30 3908 H 381.487 -3.61969 -1.08567 0
M  V30 3909 H 381.8 -7.55758 -1.61397 0
M  V30 3910 H 380.145 -6.79529 -1.45828 0
M  V30 3911 H 383.336 -4.50715 -1.26388 0
M  V30 3912 H 383.509 -6.3028 -1.50501 0
M  V30 3913 N 376.915 0.57481 -1.46744 0
M  V30 3914 C 377.845 1.69337 -1.60771 0
M  V30 3915 C 378.826 1.63825 -0.457736 0
M  V30 3916 O 380.011 1.8172 -0.684947 0
M  V30 3917 C 377.141 3.0798 -1.60517 0
M  V30 3918 C 376.095 3.28327 -2.74564 0
M  V30 3919 C 375.421 4.67578 -2.59373 0
M  V30 3920 C 376.721 3.15398 -4.16319 0
M  V30 3921 H 378.415 1.57853 -2.54407 0
M  V30 3922 H 375.961 0.75799 -1.22436 0
M  V30 3923 H 377.914 3.86061 -1.68923 0
M  V30 3924 H 376.638 3.20381 -0.634305 0
M  V30 3925 H 375.297 2.52649 -2.65639 0
M  V30 3926 H 374.945 4.76755 -1.60353 0
M  V30 3927 H 374.645 4.82144 -3.35873 0
M  V30 3928 H 376.169 5.47817 -2.69682 0
M  V30 3929 H 377.583 3.83315 -4.26313 0
M  V30 3930 H 375.98 3.41482 -4.93468 0
M  V30 3931 H 377.05 2.12372 -4.3592 0
M  V30 3932 N 378.394 1.34581 0.820102 0
M  V30 3933 C 379.671 1.17675 1.56244 0
M  V30 3934 C 380.051 -0.249541 2.0962 0
M  V30 3935 O 379.399 -1.25125 1.91196 0
M  V30 3936 C 379.609 2.23364 2.6816 0
M  V30 3937 C 380.957 2.58485 3.36854 0
M  V30 3938 O 381.981 2.22175 2.78418 0
M  V30 3939 O 380.84 3.20868 4.42386 0
M  V30 3940 H 377.934 0.456333 0.689702 0
M  V30 3941 H 380.48 1.46222 0.861231 0
M  V30 3942 H 379.252 3.19087 2.26493 0
M  V30 3943 H 378.875 1.96009 3.45928 0
M  V30 3944 N 379.872 -1.04064 1.18357 0
M  V30 3945 C 380.835 -2.10243 0.912707 0
M  V30 3946 C 381.835 -1.60477 -0.101928 0
M  V30 3947 O 383.025 -1.73703 0.131517 0
M  V30 3948 C 380.157 -3.38893 0.369387 0
M  V30 3949 H 381.35 -2.35706 1.85426 0
M  V30 3950 H 378.903 -1.20489 0.995594 0
M  V30 3951 H 379.638 -3.19094 -0.578776 0
M  V30 3952 H 379.423 -3.76331 1.1008 0
M  V30 3953 H 380.913 -4.17128 0.198575 0
M  V30 3954 N 381.35 -0.985608 -1.22978 0
M  V30 3955 C 382.596 -0.65836 -1.91816 0
M  V30 3956 C 382.929 0.806692 -1.76653 0
M  V30 3957 O 382.204 1.58252 -1.13078 0
M  V30 3958 C 382.487 -1.056 -3.44268 0
M  V30 3959 C 382.34 -2.57906 -3.68516 0
M  V30 3960 C 383.659 -0.603781 -4.35939 0
M  V30 3961 H 380.778 -0.24065 -0.696604 0
M  V30 3962 H 383.42 -1.22783 -1.44998 0
M  V30 3963 H 381.57 -0.571445 -3.84274 0
M  V30 3964 H 383.242 -3.13976 -3.3796 0
M  V30 3965 H 381.485 -3.00305 -3.13048 0
M  V30 3966 H 382.156 -2.80779 -4.75255 0
M  V30 3967 H 384.632 -1.01987 -4.03408 0
M  V30 3968 H 383.508 -0.910383 -5.41298 0
M  V30 3969 H 383.769 0.495761 -4.39312 0
M  V30 3970 N 382.828 1.3818 -0.7579 0
M  V30 3971 C 383.775 2.30416 -0.133057 0
M  V30 3972 C 384.745 1.50398 0.704957 0
M  V30 3973 O 385.93 1.79014 0.660192 0
M  V30 3974 C 383.07 3.36834 0.750813 0
M  V30 3975 C 382.183 4.31879 -0.102297 0
M  V30 3976 C 381.318 5.25368 0.784979 0
M  V30 3977 C 380.357 6.12058 -0.0715046 0
M  V30 3978 N 379.494 6.97832 0.772972 0
M  V30 3979 H 384.334 2.83274 -0.925186 0
M  V30 3980 H 381.871 1.39461 -0.467866 0
M  V30 3981 H 383.829 3.97145 1.27794 0
M  V30 3982 H 382.459 2.85374 1.50868 0
M  V30 3983 H 381.511 3.72991 -0.747095 0
M  V30 3984 H 382.823 4.92921 -0.763552 0
M  V30 3985 H 381.977 5.90818 1.37911 0
M  V30 3986 H 380.716 4.64703 1.47996 0
M  V30 3987 H 379.721 5.456 -0.678272 0
M  V30 3988 H 380.946 6.74793 -0.763606 0
M  V30 3989 H 378.892 6.3971 1.45282 0
M  V30 3990 H 378.809 7.55812 0.168709 0
M  V30 3991 H 380.077 7.67687 1.35194 0
M  V30 3992 N 384.306 0.507319 1.49211 0
M  V30 3993 C 385.256 -0.287112 2.26185 0
M  V30 3994 C 386.24 -0.929983 1.31302 0
M  V30 3995 O 387.432 -0.836538 1.55984 0
M  V30 3996 C 384.561 -1.34718 3.15763 0
M  V30 3997 C 383.647 -0.710235 4.18111 0
M  V30 3998 N 384.038 0.190836 5.0544 0
M  V30 3999 C 382.336 -0.97009 4.35322 0
M  V30 4000 C 383.037 0.55606 5.79036 0
M  V30 4001 N 382.013 -0.0775232 5.43545 0
M  V30 4002 H 385.815 0.406445 2.91076 0
M  V30 4003 H 383.329 0.323814 1.59139 0
M  V30 4004 H 385.326 -1.92982 3.69545 0
M  V30 4005 H 383.986 -2.04235 2.52424 0
M  V30 4006 H 384.997 0.562047 5.14841 0
M  V30 4007 H 381.674 -1.65753 3.83187 0
M  V30 4008 H 383.064 1.2936 6.5933 0
M  V30 4009 N 385.784 -1.5574 0.241426 0
M  V30 4010 C 386.717 -2.17168 -0.700935 0
M  V30 4011 C 387.695 -1.12206 -1.1768 0
M  V30 4012 O 388.879 -1.40565 -1.25593 0
M  V30 4013 C 386.006 -2.76796 -1.95196 0
M  V30 4014 C 385.052 -3.94764 -1.61442 0
M  V30 4015 S 385.885 -5.30613 -0.72182 0
M  V30 4016 C 387.041 -5.93691 -1.98197 0
M  V30 4017 H 387.274 -2.96761 -0.178882 0
M  V30 4018 H 384.807 -1.54378 0.0259299 0
M  V30 4019 H 386.765 -3.11787 -2.67019 0
M  V30 4020 H 385.426 -1.9716 -2.44514 0
M  V30 4021 H 384.619 -4.35057 -2.54443 0
M  V30 4022 H 384.221 -3.61022 -0.976672 0
M  V30 4023 H 386.513 -6.10874 -2.92983 0
M  V30 4024 H 387.456 -6.89258 -1.62262 0
M  V30 4025 H 387.864 -5.22709 -2.13156 0
M  V30 4026 N 387.262 0.0317525 -1.57568 0
M  V30 4027 C 388.673 0.578692 -1.77505 0
M  V30 4028 C 389.024 1.75749 -0.872164 0
M  V30 4029 O 388.149 2.16298 -0.0663106 0
M  V30 4030 C 388.744 1.05658 -3.21904 0
M  V30 4031 C 387.303 1.54906 -3.43047 0
M  V30 4032 C 386.45 0.485939 -2.73009 0
M  V30 4033 H 389.401 -0.194475 -1.57504 0
M  V30 4034 H 389.422 1.92404 -3.28269 0
M  V30 4035 H 388.934 0.198422 -3.87592 0
M  V30 4036 H 387.035 2.42915 -2.82529 0
M  V30 4037 H 387.148 1.59841 -4.5165 0
M  V30 4038 H 385.512 0.940354 -2.36705 0
M  V30 4039 H 386.295 -0.362709 -3.41379 0
M  V30 4040 N 388.74 1.54641 0.303973 0
M  V30 4041 C 389.987 1.7378 1.03955 0
M  V30 4042 C 390.315 0.521986 1.87365 0
M  V30 4043 O 389.57 -0.496099 1.89308 0
M  V30 4044 C 389.869 2.97753 1.97681 0
M  V30 4045 C 389.535 4.31671 1.30271 0
M  V30 4046 C 388.197 4.68075 1.11619 0
M  V30 4047 C 390.549 5.147 0.82055 0
M  V30 4048 C 387.877 5.8509 0.434304 0
M  V30 4049 C 390.229 6.32416 0.152395 0
M  V30 4050 C 388.893 6.67484 -0.0461067 0
M  V30 4051 H 388.163 0.635908 0.380398 0
M  V30 4052 H 390.81 1.88896 0.314718 0
M  V30 4053 H 389.115 2.77406 2.76682 0
M  V30 4054 H 390.812 3.09756 2.54661 0
M  V30 4055 H 387.402 4.03041 1.45795 0
M  V30 4056 H 391.586 4.87077 0.952374 0
M  V30 4057 H 386.842 6.10806 0.269495 0
M  V30 4058 H 391.016 6.96023 -0.229126 0
M  V30 4059 H 388.643 7.58011 -0.576494 0
M  V30 4060 N 390.218 -0.567019 1.47046 0
M  V30 4061 C 391.466 -1.322 1.52864 0
M  V30 4062 C 391.787 -1.94088 0.188388 0
M  V30 4063 O 391.057 -1.7941 -0.786693 0
M  V30 4064 H 389.637 -0.490894 0.563056 0
M  V30 4065 H 392.299 -0.662879 1.83281 0
M  V30 4066 H 391.395 -2.12062 2.2899 0
M  V30 4067 N 391.696 -1.35014 -0.812953 0
M  V30 4068 C 392.942 -1.29129 -1.57154 0
M  V30 4069 C 393.297 0.134922 -1.91926 0
M  V30 4070 O 392.59 1.08373 -1.58006 0
M  V30 4071 C 392.784 -2.12524 -2.87347 0
M  V30 4072 C 392.613 -3.6311 -2.65294 0
M  V30 4073 C 391.383 -4.32363 -2.61516 0
M  V30 4074 C 393.581 -4.56897 -2.36114 0
M  V30 4075 N 391.563 -5.68735 -2.31113 0
M  V30 4076 C 392.934 -5.81345 -2.15494 0
M  V30 4077 C 394.989 -4.45706 -2.21925 0
M  V30 4078 C 393.692 -6.95862 -1.82122 0
M  V30 4079 C 395.718 -5.60066 -1.89948 0
M  V30 4080 C 395.08 -6.83539 -1.7016 0
M  V30 4081 H 391.179 -0.527764 -0.577052 0
M  V30 4082 H 393.763 -1.6983 -0.952146 0
M  V30 4083 H 391.934 -1.74104 -3.47192 0
M  V30 4084 H 393.666 -1.98207 -3.5284 0
M  V30 4085 H 390.421 -3.84907 -2.75941 0
M  V30 4086 H 390.845 -6.40694 -2.18724 0
M  V30 4087 H 395.487 -3.50855 -2.35925 0
M  V30 4088 H 393.205 -7.90685 -1.6686 0
M  V30 4089 H 396.791 -5.53357 -1.79687 0
M  V30 4090 H 395.671 -7.70531 -1.45777 0
M  V30 4091 N 393.175 1.03435 -1.18907 0
M  V30 4092 C 394.107 2.1165 -0.879595 0
M  V30 4093 C 395.12 1.62316 0.125439 0
M  V30 4094 O 396.309 1.78201 -0.103245 0
M  V30 4095 C 393.409 3.37622 -0.294042 0
M  V30 4096 C 392.582 4.16166 -1.34629 0
M  V30 4097 C 391.641 5.20457 -0.775274 0
M  V30 4098 O 390.667 5.50379 -1.4516 0
M  V30 4099 N 391.869 5.78949 0.424126 0
M  V30 4100 H 394.634 2.38791 -1.81105 0
M  V30 4101 H 392.195 1.19681 -1.09032 0
M  V30 4102 H 394.187 4.04572 0.101679 0
M  V30 4103 H 392.757 3.07873 0.541575 0
M  V30 4104 H 391.977 3.44444 -1.91707 0
M  V30 4105 H 393.265 4.65432 -2.05549 0
M  V30 4106 H 392.663 5.56948 0.991209 0
M  V30 4107 H 391.22 6.47334 0.761691 0
M  V30 4108 N 394.653 0.992116 1.22453 0
M  V30 4109 C 395.6 0.541731 2.24352 0
M  V30 4110 C 396.57 -0.425519 1.60557 0
M  V30 4111 O 397.755 -0.330453 1.87917 0
M  V30 4112 C 394.895 -0.138248 3.44823 0
M  V30 4113 C 394.008 0.870649 4.23136 0
M  V30 4114 C 393.143 0.164269 5.30946 0
M  V30 4115 C 392.182 1.16159 6.00977 0
M  V30 4116 N 391.319 0.483568 7.00433 0
M  V30 4117 H 396.159 1.41541 2.62241 0
M  V30 4118 H 393.696 0.709013 1.28885 0
M  V30 4119 H 395.654 -0.5494 4.13567 0
M  V30 4120 H 394.284 -0.975721 3.077 0
M  V30 4121 H 393.336 1.40013 3.53696 0
M  V30 4122 H 394.648 1.63014 4.7141 0
M  V30 4123 H 393.802 -0.303653 6.0594 0
M  V30 4124 H 392.541 -0.627733 4.83643 0
M  V30 4125 H 391.546 1.64015 5.24766 0
M  V30 4126 H 392.771 1.95445 6.50368 0
M  V30 4127 H 390.717 -0.289012 6.55363 0
M  V30 4128 H 390.634 1.18152 7.4671 0
M  V30 4129 H 391.902 0.0384219 7.79491 0
M  V30 4130 N 396.131 -1.37776 0.765217 0
M  V30 4131 C 397.079 -2.32209 0.134798 0
M  V30 4132 C 398.073 -1.54607 -0.692315 0
M  V30 4133 O 399.279 -1.70052 -0.590109 0
M  V30 4134 H 395.654 -0.751591 0.0248005 0
M  V30 4135 H 397.625 -2.8297 0.947119 0
M  V30 4136 C 396.374 -3.39841 -0.735063 0
M  V30 4137 H 395.697 -3.99654 -0.107991 0
M  V30 4138 H 397.137 -4.08296 -1.14326 0
M  V30 4139 C 395.596 -2.79378 -1.88281 0
M  V30 4140 O 396.126 -2.69608 -2.97783 0
M  V30 4141 N 394.332 -2.37016 -1.68142 0
M  V30 4142 H 393.879 -2.45162 -0.790772 0
M  V30 4143 H 393.837 -1.96905 -2.45104 0
M  V30 4144 N 397.609 -0.515225 -1.4894 0
M  V30 4145 C 398.856 0.024215 -2.02486 0
M  V30 4146 C 399.184 1.35671 -1.39368 0
M  V30 4147 O 398.439 1.88566 -0.523574 0
M  V30 4148 C 398.738 0.210595 -3.56779 0
M  V30 4149 C 398.404 -1.04569 -4.38607 0
M  V30 4150 C 397.066 -1.39002 -4.60686 0
M  V30 4151 C 399.418 -1.88008 -4.86109 0
M  V30 4152 C 396.746 -2.568 -5.27514 0
M  V30 4153 C 399.098 -3.04972 -5.54234 0
M  V30 4154 C 397.762 -3.39768 -5.74555 0
M  V30 4155 H 397.032 0.00886088 -0.740947 0
M  V30 4156 H 399.679 -0.678263 -1.79086 0
M  V30 4157 H 397.984 0.99572 -3.78936 0
M  V30 4158 H 399.681 0.642659 -3.95817 0
M  V30 4159 H 396.271 -0.767497 -4.21672 0
M  V30 4160 H 400.455 -1.62719 -4.68867 0
M  V30 4161 H 395.711 -2.8398 -5.41447 0
M  V30 4162 H 399.885 -3.69943 -5.90013 0
M  V30 4163 H 397.512 -4.31148 -6.26112 0
M  V30 4164 N 399.087 1.5561 -0.249682 0
M  V30 4165 C 400.02 2.17537 0.689408 0
M  V30 4166 C 400.998 1.12829 1.17083 0
M  V30 4167 O 402.182 1.41229 1.24846 0
M  V30 4168 C 399.309 2.77828 1.93725 0
M  V30 4169 C 398.355 3.95615 1.59346 0
M  V30 4170 S 399.188 5.30988 0.69367 0
M  V30 4171 C 400.344 5.94734 1.95046 0
M  V30 4172 H 400.577 2.96852 0.163142 0
M  V30 4173 H 398.11 1.54362 -0.0341166 0
M  V30 4174 H 400.068 3.13199 2.65361 0
M  V30 4175 H 398.729 1.98454 2.43465 0
M  V30 4176 H 397.922 4.364 2.52132 0
M  V30 4177 H 397.524 3.61535 0.957512 0
M  V30 4178 H 399.816 6.12419 2.89739 0
M  V30 4179 H 400.759 6.90109 1.58604 0
M  V30 4180 H 401.167 5.23832 2.10381 0
M  V30 4181 N 400.565 -0.0233959 1.57583 0
M  V30 4182 C 401.842 -0.748794 1.807 0
M  V30 4183 C 402.222 -1.9327 0.849106 0
M  V30 4184 O 401.57 -2.28247 -0.107468 0
M  V30 4185 C 401.78 -1.17651 3.28571 0
M  V30 4186 C 403.128 -1.59008 3.93702 0
M  V30 4187 O 404.152 -1.27094 3.32755 0
M  V30 4188 O 403.011 -2.18264 5.01022 0
M  V30 4189 H 400.105 -0.362578 0.743281 0
M  V30 4190 H 402.651 0.000261958 1.697 0
M  V30 4191 H 401.423 -0.331603 3.89892 0
M  V30 4192 H 401.046 -1.98541 3.44481 0
M  V30 4193 N 402.043 -1.548 -0.295768 0
M  V30 4194 C 403.268 -1.78653 -1.05346 0
M  V30 4195 C 403.693 -0.546894 -1.79974 0
M  V30 4196 O 403.051 0.502763 -1.7419 0
M  V30 4197 C 403.099 -2.99679 -2.00561 0
M  V30 4198 O 402.203 -2.7317 -3.08953 0
M  V30 4199 H 401.544 -0.59116 -0.302367 0
M  V30 4200 H 404.074 -2.01895 -0.331598 0
M  V30 4201 H 404.084 -3.27793 -2.42932 0
M  V30 4202 H 402.759 -3.89562 -1.4565 0
M  V30 4203 H 401.336 -2.56089 -2.71059 0
M  V30 4204 N 403.521 0.559213 -1.47345 0
M  V30 4205 C 404.77 1.31281 -1.53128 0
M  V30 4206 C 405.083 1.94602 -0.197344 0
M  V30 4207 O 406.289 2.71173 -0.133154 0
M  V30 4208 C 404.745 2.38051 -2.69925 0
M  V30 4209 C 404.353 1.8093 -4.0984 0
M  V30 4210 C 406.097 3.14604 -2.84999 0
M  V30 4211 C 404.004 2.85468 -5.1794 0
M  V30 4212 H 402.934 0.493614 -0.569966 0
M  V30 4213 H 405.585 0.594155 -1.73615 0
M  V30 4214 H 403.967 3.12822 -2.42814 0
M  V30 4215 H 405.141 1.12544 -4.46845 0
M  V30 4216 H 403.456 1.16967 -3.99634 0
M  V30 4217 H 406.053 3.92666 -3.62929 0
M  V30 4218 H 406.396 3.68665 -1.93369 0
M  V30 4219 H 406.929 2.46945 -3.1187 0
M  V30 4220 H 403.668 2.36264 -6.1144 0
M  V30 4221 H 403.188 3.52269 -4.85455 0
M  V30 4222 H 404.867 3.48996 -5.44803 0
M  V30 4223 N 404.999 1.35443 0.805782 0
M  V30 4224 C 405.929 1.31095 1.93226 0
M  V30 4225 C 406.91 0.185244 1.69088 0
M  V30 4226 O 408.095 0.380332 1.90439 0
M  V30 4227 C 405.225 1.08299 3.29983 0
M  V30 4228 C 404.179 2.17519 3.68605 0
M  V30 4229 C 403.505 1.79887 5.03532 0
M  V30 4230 C 404.805 3.5949 3.78898 0
M  V30 4231 H 406.499 2.25352 1.97122 0
M  V30 4232 H 404.045 1.0848 0.946996 0
M  V30 4233 H 405.998 1.03897 4.08391 0
M  V30 4234 H 404.722 0.104885 3.26432 0
M  V30 4235 H 403.381 2.2102 2.92482 0
M  V30 4236 H 403.029 0.80693 4.96485 0
M  V30 4237 H 402.729 2.53001 5.30344 0
M  V30 4238 H 404.253 1.77011 5.84379 0
M  V30 4239 H 405.667 3.58307 4.47536 0
M  V30 4240 H 404.064 4.31371 4.1718 0
M  V30 4241 H 405.134 3.95584 2.80431 0
M  V30 4242 N 406.477 -1.02803 1.19454 0
M  V30 4243 C 407.702 -1.80378 1.02364 0
M  V30 4244 C 408.127 -1.83282 -0.423007 0
M  V30 4245 O 407.485 -1.25945 -1.30413 0
M  V30 4246 C 407.533 -3.23248 1.59821 0
M  V30 4247 O 406.637 -4.04 0.828105 0
M  V30 4248 H 405.978 -0.556799 0.361761 0
M  V30 4249 H 408.508 -1.29385 1.58495 0
M  V30 4250 H 408.518 -3.73994 1.63073 0
M  V30 4251 H 407.193 -3.2045 2.65113 0
M  V30 4252 H 405.77 -3.62635 0.86891 0
M  V30 4253 N 407.956 -0.998596 -1.21925 0
M  V30 4254 C 409.186 -0.695276 -1.94549 0
M  V30 4255 C 409.594 0.745079 -1.73911 0
M  V30 4256 O 408.937 1.51507 -1.03881 0
M  V30 4257 C 408.999 -0.928485 -3.47303 0
M  V30 4258 C 408.663 -2.35443 -3.91683 0
M  V30 4259 C 409.66 -3.33428 -3.98901 0
M  V30 4260 C 407.345 -2.69038 -4.24174 0
M  V30 4261 C 409.339 -4.63079 -4.37992 0
M  V30 4262 C 407.026 -3.98906 -4.62944 0
M  V30 4263 C 408.024 -4.95738 -4.69822 0
M  V30 4264 O 407.712 -6.23285 -5.07711 0
M  V30 4265 H 407.444 -0.255902 -0.625692 0
M  V30 4266 H 409.998 -1.33767 -1.5587 0
M  V30 4267 H 408.228 -0.228917 -3.86022 0
M  V30 4268 H 409.917 -0.619539 -4.01144 0
M  V30 4269 H 410.683 -3.08807 -3.73983 0
M  V30 4270 H 406.562 -1.94367 -4.18022 0
M  V30 4271 H 410.106 -5.38658 -4.43275 0
M  V30 4272 H 406.003 -4.23314 -4.87314 0
M  V30 4273 H 406.771 -6.27306 -5.25766 0
M  V30 4274 N 409.434 1.37368 -0.772513 0
M  V30 4275 C 410.85 1.53059 -0.452231 0
M  V30 4276 C 411.05 1.73065 1.03203 0
M  V30 4277 O 410.106 1.75245 1.81784 0
M  V30 4278 C 411.419 2.72659 -1.26797 0
M  V30 4279 C 412.967 2.86521 -1.25995 0
M  V30 4280 C 413.442 4.09105 -2.05905 0
M  V30 4281 N 414.933 4.16219 -2.03263 0
M  V30 4282 C 415.668 5.10107 -2.61875 0
M  V30 4283 N 415.164 6.09547 -3.29278 0
M  V30 4284 N 416.957 5.02596 -2.51701 0
M  V30 4285 H 409.108 1.22634 -1.7342 0
M  V30 4286 H 411.371 0.597206 -0.736239 0
M  V30 4287 H 411.077 2.64343 -2.31982 0
M  V30 4288 H 410.951 3.66363 -0.897672 0
M  V30 4289 H 413.338 2.94308 -0.216081 0
M  V30 4290 H 413.419 1.93774 -1.66989 0
M  V30 4291 H 413.063 4.0208 -3.10313 0
M  V30 4292 H 412.993 5.00968 -1.62292 0
M  V30 4293 H 415.484 3.45012 -1.54192 0
M  V30 4294 H 415.797 6.77718 -3.71374 0
M  V30 4295 H 414.142 6.09824 -3.33377 0
M  V30 4296 H 417.333 4.23855 -1.98657 0
M  V30 4297 H 417.506 5.75582 -2.97673 0
M  V30 4298 N 410.912 0.523116 1.48665 0
M  V30 4299 C 412.323 0.0808997 1.86525 0
M  V30 4300 C 412.674 -1.33975 1.43336 0
M  V30 4301 O 411.799 -2.00221 0.821009 0
M  V30 4302 C 412.394 0.140037 3.3851 0
M  V30 4303 C 410.953 -0.246948 3.75589 0
M  V30 4304 C 410.1 0.502845 2.72703 0
M  V30 4305 H 413.051 0.734736 1.40667 0
M  V30 4306 H 413.072 -0.649945 3.74908 0
M  V30 4307 H 412.584 1.17412 3.69914 0
M  V30 4308 H 410.685 -1.28343 3.49798 0
M  V30 4309 H 410.798 0.0878859 4.79019 0
M  V30 4310 H 409.162 -0.0500581 2.54651 0
M  V30 4311 H 409.945 1.53743 3.0695 0
M  V30 4312 N 412.39 -1.55475 0.257931 0
M  V30 4313 C 413.636 -1.99502 -0.364266 0
M  V30 4314 C 413.969 -1.146 -1.56782 0
M  V30 4315 O 413.244 -0.211968 -1.93342 0
M  V30 4316 C 413.527 -3.51917 -0.763333 0
M  V30 4317 C 413.38 -4.4758 0.446371 0
M  V30 4318 C 414.699 -4.09742 -1.60623 0
M  V30 4319 H 411.818 -0.725277 -0.130929 0
M  V30 4320 H 414.46 -1.8653 0.361446 0
M  V30 4321 H 412.61 -3.63101 -1.38166 0
M  V30 4322 H 414.282 -4.48362 1.08487 0
M  V30 4323 H 412.525 -4.19947 1.08753 0
M  V30 4324 H 413.196 -5.51862 0.123645 0
M  V30 4325 H 415.672 -4.01727 -1.08418 0
M  V30 4326 H 414.548 -5.16631 -1.85429 0
M  V30 4327 H 414.809 -3.58889 -2.58169 0
M  V30 4328 N 413.868 0.0150385 -1.57593 0
M  V30 4329 C 415.115 0.703001 -1.89906 0
M  V30 4330 C 415.443 1.74604 -0.856944 0
M  V30 4331 O 414.698 1.95197 0.140287 0
M  V30 4332 C 414.997 1.39686 -3.28972 0
M  V30 4333 C 414.663 0.488457 -4.48246 0
M  V30 4334 C 413.325 0.2383 -4.8061 0
M  V30 4335 C 415.677 -0.137881 -5.21018 0
M  V30 4336 C 413.005 -0.646738 -5.83125 0
M  V30 4337 C 415.357 -1.0107 -6.24474 0
M  V30 4338 C 414.021 -1.27019 -6.55303 0
M  V30 4339 H 413.291 0.257246 -0.694914 0
M  V30 4340 H 415.938 -0.037259 -1.91464 0
M  V30 4341 H 414.243 2.21079 -3.23468 0
M  V30 4342 H 415.94 1.93495 -3.51227 0
M  V30 4343 H 412.53 0.693593 -4.22951 0
M  V30 4344 H 416.714 0.0423953 -4.96282 0
M  V30 4345 H 411.97 -0.855937 -6.05379 0
M  V30 4346 H 416.144 -1.50247 -6.79999 0
M  V30 4347 H 413.771 -1.95769 -7.3456 0
M  V30 4348 N 415.346 1.54954 0.287554 0
M  V30 4349 C 416.574 1.78881 1.03967 0
M  V30 4350 C 416.989 0.554894 1.80462 0
M  V30 4351 O 416.346 -0.475676 1.76192 0
M  V30 4352 C 416.397 3.00488 2.0097 0
M  V30 4353 O 416.118 4.19113 1.27577 0
M  V30 4354 C 417.619 3.36907 2.88112 0
M  V30 4355 H 414.839 0.596259 0.307761 0
M  V30 4356 H 417.383 2.01937 0.322749 0
M  V30 4357 H 415.538 2.79601 2.68145 0
M  V30 4358 H 415.952 4.87765 1.92835 0
M  V30 4359 H 417.426 4.25205 3.52001 0
M  V30 4360 H 417.903 2.55659 3.57121 0
M  V30 4361 H 418.509 3.60001 2.26449 0
M  V30 4362 N 416.824 -0.551391 1.4764 0
M  V30 4363 C 418.071 -1.3083 1.54563 0
M  V30 4364 C 418.399 -1.93359 0.210361 0
M  V30 4365 O 417.654 -1.78721 -0.797332 0
M  V30 4366 C 417.953 -2.43469 2.61644 0
M  V30 4367 C 417.619 -1.98732 4.04742 0
M  V30 4368 C 416.281 -1.86248 4.43695 0
M  V30 4369 C 418.633 -1.64659 4.94507 0
M  V30 4370 C 415.961 -1.37995 5.70241 0
M  V30 4371 C 418.313 -1.17875 6.21521 0
M  V30 4372 C 416.977 -1.03992 6.5935 0
M  V30 4373 H 416.247 -0.478741 0.565587 0
M  V30 4374 H 418.894 -0.617697 1.81264 0
M  V30 4375 H 417.199 -3.18109 2.28722 0
M  V30 4376 H 418.896 -3.01642 2.64222 0
M  V30 4377 H 415.486 -2.09393 3.73968 0
M  V30 4378 H 419.67 -1.73174 4.65107 0
M  V30 4379 H 414.926 -1.25915 5.98294 0
M  V30 4380 H 419.1 -0.905739 6.90485 0
M  V30 4381 H 416.727 -0.663794 7.57296 0
M  V30 4382 N 418.302 -1.35869 -0.798587 0
M  V30 4383 C 419.55 -1.29332 -1.55298 0
M  V30 4384 C 419.871 0.129729 -1.94568 0
M  V30 4385 O 419.141 1.06796 -1.6423 0
M  V30 4386 H 417.721 -0.475737 -0.57592 0
M  V30 4387 H 420.383 -1.70062 -0.952093 0
M  V30 4388 H 419.479 -1.91458 -2.46476 0
M  V30 4389 N 419.78 1.02168 -1.19998 0
M  V30 4390 C 420.69 2.14069 -0.959774 0
M  V30 4391 C 421.706 1.73804 0.082655 0
M  V30 4392 O 422.882 2.01133 -0.103633 0
M  V30 4393 C 419.947 3.42936 -0.509459 0
M  V30 4394 C 419.008 3.97474 -1.62213 0
M  V30 4395 C 418.241 5.2019 -1.19321 0
M  V30 4396 O 418.464 5.70369 -0.0597726 0
M  V30 4397 O 417.398 5.67749 -1.99863 0
M  V30 4398 H 421.224 2.37199 -1.89658 0
M  V30 4399 H 418.809 1.12469 -0.983411 0
M  V30 4400 H 420.691 4.20551 -0.267322 0
M  V30 4401 H 419.366 3.21234 0.398821 0
M  V30 4402 H 418.273 3.21161 -1.9185 0
M  V30 4403 H 419.606 4.23555 -2.50723 0
M  V30 4404 N 421.258 1.00505 1.21394 0
M  V30 4405 C 422.504 0.698477 1.91031 0
M  V30 4406 C 422.859 -0.762448 1.76648 0
M  V30 4407 O 422.152 -1.54554 1.13241 0
M  V30 4408 C 422.346 1.0546 3.41486 0
M  V30 4409 C 422.175 2.5486 3.70508 0
M  V30 4410 C 420.945 3.21461 3.8986 0
M  V30 4411 C 423.143 3.53019 3.74008 0
M  V30 4412 N 421.125 4.60211 4.06299 0
M  V30 4413 C 422.496 4.77279 3.95733 0
M  V30 4414 C 424.551 3.47154 3.56915 0
M  V30 4415 C 423.254 5.96388 4.02137 0
M  V30 4416 C 425.28 4.65652 3.64585 0
M  V30 4417 C 424.642 5.88717 3.86771 0
M  V30 4418 H 420.741 0.30707 0.719189 0
M  V30 4419 H 423.325 1.28753 1.46051 0
M  V30 4420 H 421.496 0.494007 3.85246 0
M  V30 4421 H 423.228 0.702765 3.98552 0
M  V30 4422 H 419.983 2.71906 3.87768 0
M  V30 4423 H 420.407 5.32216 4.1842 0
M  V30 4424 H 425.049 2.53015 3.38738 0
M  V30 4425 H 422.767 6.90919 4.19114 0
M  V30 4426 H 426.353 4.62717 3.52681 0
M  V30 4427 H 425.233 6.78877 3.92549 0
M  V30 4428 N 422.737 -1.36956 0.779787 0
M  V30 4429 C 423.984 -1.99491 0.347766 0
M  V30 4430 C 424.312 -1.61898 -1.07793 0
M  V30 4431 O 423.567 -0.86071 -1.75756 0
M  V30 4432 C 423.866 -3.54585 0.447686 0
M  V30 4433 C 423.532 -4.1197 1.83279 0
M  V30 4434 C 422.194 -4.27356 2.2118 0
M  V30 4435 C 424.546 -4.43354 2.74019 0
M  V30 4436 C 421.874 -4.71432 3.4924 0
M  V30 4437 C 424.226 -4.88858 4.01497 0
M  V30 4438 C 422.89 -5.0245 4.39432 0
M  V30 4439 H 422.16 -0.729991 0.127257 0
M  V30 4440 H 424.807 -1.63599 0.995376 0
M  V30 4441 H 423.112 -3.90773 -0.283447 0
M  V30 4442 H 424.809 -4.00888 0.0945948 0
M  V30 4443 H 421.399 -4.00428 1.52825 0
M  V30 4444 H 425.583 -4.31045 2.45995 0
M  V30 4445 H 420.839 -4.80141 3.78516 0
M  V30 4446 H 425.013 -5.12108 4.71931 0
M  V30 4447 H 422.64 -5.36362 5.38721 0
M  V30 4448 N 424.215 -0.530993 -1.48385 0
M  V30 4449 C 425.145 0.219985 -2.32461 0
M  V30 4450 C 426.126 0.934111 -1.42156 0
M  V30 4451 O 427.311 0.919694 -1.71042 0
M  V30 4452 C 424.441 1.26674 -3.23375 0
M  V30 4453 C 423.395 0.67069 -4.22712 0
M  V30 4454 C 422.721 1.82017 -5.02766 0
M  V30 4455 C 424.021 -0.358268 -5.2107 0
M  V30 4456 H 425.715 -0.48187 -2.95497 0
M  V30 4457 H 423.261 -0.233182 -1.42099 0
M  V30 4458 H 425.214 1.80006 -3.81019 0
M  V30 4459 H 423.938 1.99818 -2.58341 0
M  V30 4460 H 422.597 0.158878 -3.66256 0
M  V30 4461 H 422.245 2.54002 -4.34157 0
M  V30 4462 H 421.945 1.42727 -5.70003 0
M  V30 4463 H 423.469 2.35725 -5.63264 0
M  V30 4464 H 424.883 0.0880081 -5.73232 0
M  V30 4465 H 423.28 -0.66861 -5.96364 0
M  V30 4466 H 424.35 -1.26367 -4.68145 0
M  V30 4467 N 425.693 1.55336 -0.266172 0
M  V30 4468 C 426.941 1.99003 0.35246 0
M  V30 4469 C 427.262 1.15591 1.57047 0
M  V30 4470 O 426.532 0.243268 1.94384 0
M  V30 4471 H 425.112 0.735025 0.133217 0
M  V30 4472 H 427.774 1.91367 -0.369434 0
M  V30 4473 H 426.87 3.05289 0.648453 0
M  V30 4474 N 427.171 -0.0066808 1.57599 0
M  V30 4475 C 428.399 -0.704087 1.94551 0
M  V30 4476 C 428.814 -1.67677 0.867746 0
M  V30 4477 O 428.171 -1.8185 -0.153925 0
M  V30 4478 C 428.222 -1.44177 3.31505 0
M  V30 4479 O 427.943 -0.508097 4.35144 0
M  V30 4480 C 429.444 -2.23429 3.82876 0
M  V30 4481 H 426.664 -0.196523 0.641576 0
M  V30 4482 H 429.208 0.042453 2.04456 0
M  V30 4483 H 427.363 -2.13999 3.22929 0
M  V30 4484 H 427.777 -1.02782 5.14331 0
M  V30 4485 H 429.251 -2.70552 4.8115 0
M  V30 4486 H 429.728 -3.05818 3.15233 0
M  V30 4487 H 430.334 -1.58636 3.94607 0
M  V30 4488 N 428.649 -1.55105 -0.279332 0
M  V30 4489 C 429.597 -1.88333 -1.36505 0
M  V30 4490 C 430.591 -0.759043 -1.51443 0
M  V30 4491 O 431.797 -0.943312 -1.53302 0
M  V30 4492 H 428.172 -0.59766 -0.456406 0
M  V30 4493 H 430.143 -2.79041 -1.05728 0
M  V30 4494 C 428.892 -2.16628 -2.7197 0
M  V30 4495 H 428.215 -3.02624 -2.61264 0
M  V30 4496 H 429.655 -2.43803 -3.46895 0
M  V30 4497 C 428.114 -0.971807 -3.22579 0
M  V30 4498 O 428.644 -0.203228 -4.01186 0
M  V30 4499 N 426.85 -0.771238 -2.80179 0
M  V30 4500 H 426.397 -1.39792 -2.1637 0
M  V30 4501 H 426.355 0.0263667 -3.14389 0
M  V30 4502 N 430.127 0.543554 -1.4793 0
M  V30 4503 C 431.037 1.67657 -1.64098 0
M  V30 4504 C 432.053 1.65934 -0.523622 0
M  V30 4505 O 433.229 1.85133 -0.792943 0
M  V30 4506 C 430.294 3.04146 -1.66421 0
M  V30 4507 C 429.355 3.16831 -2.89684 0
M  V30 4508 C 428.588 4.46809 -2.91886 0
M  V30 4509 O 428.811 5.33095 -2.02895 0
M  V30 4510 O 427.745 4.63573 -3.83906 0
M  V30 4511 H 431.571 1.56957 -2.59997 0
M  V30 4512 H 429.156 0.715116 -1.31173 0
M  V30 4513 H 431.038 3.85346 -1.70548 0
M  V30 4514 H 429.713 3.152 -0.736923 0
M  V30 4515 H 428.62 2.34977 -2.91095 0
M  V30 4516 H 429.953 3.10687 -3.81752 0
M  V30 4517 N 431.605 1.3629 0.791371 0
M  V30 4518 C 432.854 1.29742 1.54434 0
M  V30 4519 C 433.167 -0.121729 1.95221 0
M  V30 4520 O 434.373 -0.309579 2.69729 0
M  V30 4521 C 432.829 2.27623 2.78776 0
M  V30 4522 C 432.437 3.74963 2.45166 0
M  V30 4523 C 434.181 2.30047 3.56761 0
M  V30 4524 C 432.088 4.64626 3.65891 0
M  V30 4525 H 431.018 0.482113 0.579727 0
M  V30 4526 H 433.669 1.61642 0.868565 0
M  V30 4527 H 432.051 1.88714 3.48142 0
M  V30 4528 H 433.225 4.22596 1.83709 0
M  V30 4529 H 431.54 3.75295 1.80396 0
M  V30 4530 H 434.137 2.94247 4.46456 0
M  V30 4531 H 434.48 1.30846 3.95203 0
M  V30 4532 H 435.013 2.67563 2.94372 0
M  V30 4533 H 431.752 5.64883 3.32547 0
M  V30 4534 H 431.272 4.2171 4.26521 0
M  V30 4535 H 432.951 4.80801 4.32943 0
M  V30 4536 N 433.083 -1.0153 1.20538 0
M  V30 4537 C 434.36 -1.72327 0.925343 0
M  V30 4538 C 434.74 -2.03383 -0.565547 0
M  V30 4539 O 434.088 -1.69934 -1.52757 0
M  V30 4540 C 434.298 -2.9902 1.79967 0
M  V30 4541 C 435.646 -3.72258 2.04228 0
M  V30 4542 O 436.67 -3.08979 1.77231 0
M  V30 4543 O 435.529 -4.86053 2.4983 0
M  V30 4544 H 432.623 -0.751099 0.346092 0
M  V30 4545 H 435.169 -1.07366 1.31417 0
M  V30 4546 H 433.941 -2.72402 2.80915 0
M  V30 4547 H 433.564 -3.71721 1.41099 0
M  V30 4548 N 434.561 -1.01147 -1.20859 0
M  V30 4549 C 435.807 -0.698899 -1.90377 0
M  V30 4550 C 436.14 0.76904 -1.78324 0
M  V30 4551 O 435.415 1.55817 -1.16409 0
M  V30 4552 C 435.698 -1.12878 -3.41951 0
M  V30 4553 C 435.551 -2.65665 -3.62963 0
M  V30 4554 C 436.87 -0.696114 -4.3456 0
M  V30 4555 H 433.989 -0.255372 -0.691342 0
M  V30 4556 H 436.631 -1.25831 -1.42361 0
M  V30 4557 H 434.781 -0.652827 -3.82976 0
M  V30 4558 H 436.453 -3.21074 -3.31224 0
M  V30 4559 H 434.696 -3.06878 -3.06608 0
M  V30 4560 H 435.367 -2.90797 -4.69192 0
M  V30 4561 H 437.843 -1.10521 -4.01154 0
M  V30 4562 H 436.719 -1.025 -5.39245 0
M  V30 4563 H 436.98 0.402465 -4.40264 0
M  V30 4564 N 436.039 1.36541 -0.78704 0
M  V30 4565 C 436.987 2.31965 -0.171724 0
M  V30 4566 C 437.981 1.55689 0.667631 0
M  V30 4567 O 439.187 1.70969 0.562981 0
M  V30 4568 H 435.562 0.751101 -0.0367545 0
M  V30 4569 H 437.533 2.81428 -0.992017 0
M  V30 4570 C 436.282 3.40968 0.680904 0
M  V30 4571 H 435.605 3.99775 0.0443961 0
M  V30 4572 H 437.045 4.10063 1.07815 0
M  V30 4573 C 435.504 2.82338 1.83813 0
M  V30 4574 O 436.034 2.74311 2.93456 0
M  V30 4575 N 434.24 2.39661 1.6435 0
M  V30 4576 H 433.787 2.46389 0.751668 0
M  V30 4577 H 433.745 2.00779 2.4194 0
M  V30 4578 N 437.518 0.538854 1.48102 0
M  V30 4579 C 438.466 -0.232325 2.31437 0
M  V30 4580 C 439.46 -0.927004 1.41785 0
M  V30 4581 O 440.666 -0.850378 1.58646 0
M  V30 4582 H 437.041 -0.0937916 0.746128 0
M  V30 4583 H 439.012 0.489986 2.9435 0
M  V30 4584 C 437.761 -1.26074 3.24038 0
M  V30 4585 H 437.084 -0.735609 3.92974 0
M  V30 4586 H 438.524 -1.77157 3.85216 0
M  V30 4587 C 436.983 -2.29902 2.46265 0
M  V30 4588 O 437.513 -3.36502 2.19384 0
M  V30 4589 N 435.719 -2.03348 2.07601 0
M  V30 4590 H 435.266 -1.16675 2.29662 0
M  V30 4591 H 435.224 -2.73038 1.55877 0
M  V30 4592 N 438.996 -1.55193 0.274407 0
M  V30 4593 C 440.224 -2.03987 -0.345943 0
M  V30 4594 C 440.639 -1.15279 -1.4952 0
M  V30 4595 O 439.996 -0.172759 -1.8168 0
M  V30 4596 C 440.047 -3.51898 -0.827631 0
M  V30 4597 O 439.768 -4.37231 0.275855 0
M  V30 4598 C 441.269 -4.16577 -1.51587 0
M  V30 4599 H 438.489 -0.666335 -0.0789892 0
M  V30 4600 H 441.033 -2.00423 0.406294 0
M  V30 4601 H 439.188 -3.55909 -1.52996 0
M  V30 4602 H 439.602 -5.24415 -0.0943638 0
M  V30 4603 H 441.076 -5.21678 -1.80433 0
M  V30 4604 H 441.553 -3.64707 -2.44716 0
M  V30 4605 H 442.159 -4.16568 -0.857409 0
M  V30 4606 N 440.474 -0.00167713 -1.576 0
M  V30 4607 C 441.704 0.692754 -1.94639 0
M  V30 4608 C 442.112 1.67744 -0.87513 0
M  V30 4609 O 441.455 1.8305 0.154382 0
M  V30 4610 C 441.517 1.47881 -3.27676 0
M  V30 4611 C 441.181 0.655518 -4.52274 0
M  V30 4612 C 442.178 -0.0575214 -5.19868 0
M  V30 4613 C 439.863 0.600994 -4.98692 0
M  V30 4614 C 441.857 -0.814052 -6.3218 0
M  V30 4615 C 439.544 -0.15926 -6.10892 0
M  V30 4616 C 440.542 -0.865515 -6.77494 0
M  V30 4617 O 440.23 -1.61336 -7.87544 0
M  V30 4618 H 439.962 0.197792 -0.646417 0
M  V30 4619 H 442.516 -0.049423 -2.05341 0
M  V30 4620 H 440.746 2.2655 -3.13388 0
M  V30 4621 H 442.435 2.05874 -3.49816 0
M  V30 4622 H 443.201 -0.0245611 -4.84994 0
M  V30 4623 H 439.08 1.14025 -4.46676 0
M  V30 4624 H 442.624 -1.36584 -6.84098 0
M  V30 4625 H 438.521 -0.194035 -6.45208 0
M  V30 4626 H 439.289 -1.53025 -8.04068 0
M  V30 4627 N 441.952 1.55251 0.271103 0
M  V30 4628 C 443.199 1.75946 1.00245 0
M  V30 4629 C 443.527 0.561611 1.86215 0
M  V30 4630 O 442.782 -0.455832 1.90317 0
M  V30 4631 C 443.081 3.01879 1.91321 0
M  V30 4632 C 442.747 4.34337 1.21086 0
M  V30 4633 C 441.409 4.70338 1.01666 0
M  V30 4634 C 443.761 5.16325 0.71119 0
M  V30 4635 C 441.089 5.8588 0.310099 0
M  V30 4636 C 443.441 6.32597 0.0182157 0
M  V30 4637 C 442.105 6.67236 -0.18768 0
M  V30 4638 H 441.375 0.643833 0.366824 0
M  V30 4639 H 444.022 1.89521 0.27458 0
M  V30 4640 H 442.327 2.83212 2.70736 0
M  V30 4641 H 444.024 3.15088 2.48033 0
M  V30 4642 H 440.614 4.06043 1.37213 0
M  V30 4643 H 444.798 4.88987 0.848844 0
M  V30 4644 H 440.054 6.1124 0.139873 0
M  V30 4645 H 444.228 6.9538 -0.376711 0
M  V30 4646 H 441.855 7.56618 -0.73715 0
M  V30 4647 N 443.43 -0.535701 1.48216 0
M  V30 4648 C 444.393 -1.623 1.61838 0
M  V30 4649 C 445.393 -1.53087 0.492024 0
M  V30 4650 O 446.583 -1.5686 0.757668 0
M  V30 4651 C 443.715 -3.01907 1.58319 0
M  V30 4652 H 444.908 -1.51564 2.58783 0
M  V30 4653 H 442.461 -0.757317 1.36727 0
M  V30 4654 H 443.196 -3.18155 0.628299 0
M  V30 4655 H 442.981 -3.10003 2.40085 0
M  V30 4656 H 444.471 -3.80969 1.71033 0
M  V30 4657 N 444.908 -1.36708 -0.784132 0
M  V30 4658 C 445.856 -1.31533 -1.91838 0
M  V30 4659 C 446.85 -0.206205 -1.6814 0
M  V30 4660 O 448.056 -0.373519 -1.76082 0
M  V30 4661 H 444.431 -0.409613 -0.630651 0
M  V30 4662 H 446.402 -2.2731 -1.9332 0
M  V30 4663 C 445.151 -1.12679 -3.28936 0
M  V30 4664 H 444.474 -1.97274 -3.4774 0
M  V30 4665 H 445.914 -1.13106 -4.08636 0
M  V30 4666 C 444.373 0.168281 -3.36479 0
M  V30 4667 O 444.903 1.15625 -3.84699 0
M  V30 4668 N 443.109 0.214762 -2.89805 0
M  V30 4669 H 442.656 -0.589852 -2.50756 0
M  V30 4670 H 442.614 1.08094 -2.95234 0
M  V30 4671 N 446.386 1.0089 -1.21074 0
M  V30 4672 C 447.296 2.13039 -0.982425 0
M  V30 4673 C 448.312 1.73881 0.0642161 0
M  V30 4674 O 449.488 2.01012 -0.12496 0
M  V30 4675 C 446.553 3.42377 -0.545803 0
M  V30 4676 C 445.614 3.95731 -1.6642 0
M  V30 4677 C 444.847 5.18896 -1.24832 0
M  V30 4678 O 445.07 5.70273 -0.120265 0
M  V30 4679 O 444.004 5.65597 -2.05873 0
M  V30 4680 H 447.83 2.35175 -1.92163 0
M  V30 4681 H 445.415 1.1142 -0.995285 0
M  V30 4682 H 447.297 4.20244 -0.311912 0
M  V30 4683 H 445.972 3.21639 0.364727 0
M  V30 4684 H 444.879 3.19108 -1.95246 0
M  V30 4685 H 446.212 4.20872 -2.55201 0
M  V30 4686 N 447.864 1.01787 1.20321 0
M  V30 4687 C 449.089 0.727009 1.9424 0
M  V30 4688 C 449.514 -0.706179 1.74341 0
M  V30 4689 O 448.872 -1.48609 1.03852 0
M  V30 4690 C 448.92 1.06958 3.44372 0
M  V30 4691 O 448.024 0.181983 4.11998 0
M  V30 4692 H 447.365 0.269626 0.606793 0
M  V30 4693 H 449.895 1.36158 1.52716 0
M  V30 4694 H 449.905 1.02182 3.94997 0
M  V30 4695 H 448.58 2.11378 3.58179 0
M  V30 4696 H 447.157 0.287378 3.71791 0
M  V30 4697 N 449.342 -1.36122 0.79427 0
M  V30 4698 C 450.59 -1.98718 0.368177 0
M  V30 4699 C 450.911 -1.63345 -1.06506 0
M  V30 4700 O 450.181 -0.909825 -1.73491 0
M  V30 4701 H 448.761 -0.735038 0.133146 0
M  V30 4702 H 451.423 -1.66239 1.01739 0
M  V30 4703 H 450.519 -3.08633 0.463923 0
M  V30 4704 N 450.82 -0.546701 -1.47814 0
M  V30 4705 C 451.753 0.254472 -2.26777 0
M  V30 4706 C 452.731 0.929809 -1.33392 0
M  V30 4707 O 453.915 0.950889 -1.62759 0
M  V30 4708 C 451.042 1.36171 -3.10121 0
M  V30 4709 C 450.088 0.796038 -4.19005 0
M  V30 4710 S 450.921 -0.349191 -5.3436 0
M  V30 4711 C 452.077 0.760122 -6.21267 0
M  V30 4712 H 452.31 -0.415612 -2.94381 0
M  V30 4713 H 449.843 -0.332809 -1.5077 0
M  V30 4714 H 451.801 1.99588 -3.58713 0
M  V30 4715 H 450.462 2.00359 -2.41899 0
M  V30 4716 H 449.655 1.62719 -4.7701 0
M  V30 4717 H 449.257 0.238246 -3.7324 0
M  V30 4718 H 451.549 1.65479 -6.5698 0
M  V30 4719 H 452.492 0.217673 -7.07765 0
M  V30 4720 H 452.9 1.04806 -5.54685 0
M  V30 4721 N 452.299 1.55045 -0.282633 0
M  V30 4722 C 453.524 2.04628 0.337977 0
M  V30 4723 C 453.949 1.15937 1.48123 0
M  V30 4724 O 453.307 0.159532 1.80597 0
M  V30 4725 C 453.355 3.51854 0.78936 0
M  V30 4726 O 452.459 3.66236 1.89592 0
M  V30 4727 H 451.8 0.660434 0.0687261 0
M  V30 4728 H 454.33 2.00261 -0.419124 0
M  V30 4729 H 454.34 3.93361 1.08311 0
M  V30 4730 H 453.015 4.15873 -0.0470419 0
M  V30 4731 H 451.592 3.36633 1.60413 0
M  V30 4732 N 453.777 0.010035 1.57597 0
M  V30 4733 C 454.707 -0.976857 2.12084 0
M  V30 4734 C 455.688 -1.35191 1.03235 0
M  V30 4735 O 456.873 -1.43389 1.3097 0
M  V30 4736 C 454.003 -2.26548 2.63236 0
M  V30 4737 C 452.957 -2.03175 3.76701 0
M  V30 4738 C 452.283 -3.38138 4.14206 0
M  V30 4739 C 453.583 -1.38625 5.03568 0
M  V30 4740 H 455.277 -0.523145 2.94794 0
M  V30 4741 H 452.823 -0.250195 1.4181 0
M  V30 4742 H 454.776 -2.95952 2.99984 0
M  V30 4743 H 453.5 -2.74051 1.77661 0
M  V30 4744 H 452.159 -1.36195 3.40362 0
M  V30 4745 H 451.807 -3.83363 3.25641 0
M  V30 4746 H 451.507 -3.23312 4.90656 0
M  V30 4747 H 453.031 -4.08841 4.53521 0
M  V30 4748 H 454.445 -1.98 5.38023 0
M  V30 4749 H 452.842 -1.34256 5.84889 0
M  V30 4750 H 453.912 -0.356722 4.83586 0
M  V30 4751 N 455.255 -1.55392 -0.262866 0
M  V30 4752 C 456.185 -1.91978 -1.32917 0
M  V30 4753 C 457.166 -0.7828 -1.51017 0
M  V30 4754 O 458.351 -1.04178 -1.63892 0
M  V30 4755 C 455.481 -2.20055 -2.68687 0
M  V30 4756 C 454.435 -3.35854 -2.65304 0
M  V30 4757 C 453.761 -3.49435 -4.04721 0
M  V30 4758 C 455.061 -4.71977 -2.23685 0
M  V30 4759 H 456.755 -2.81292 -1.02544 0
M  V30 4760 H 454.301 -1.3534 -0.491846 0
M  V30 4761 H 456.254 -2.44237 -3.43404 0
M  V30 4762 H 454.978 -1.27551 -3.00663 0
M  V30 4763 H 453.637 -3.11655 -1.93045 0
M  V30 4764 H 453.285 -2.54379 -4.33936 0
M  V30 4765 H 452.985 -4.27297 -4.0335 0
M  V30 4766 H 454.509 -3.7592 -4.81161 0
M  V30 4767 H 455.923 -4.95637 -2.88127 0
M  V30 4768 H 454.32 -5.52828 -2.33456 0
M  V30 4769 H 455.39 -4.70115 -1.18827 0
M  V30 4770 N 456.733 0.527833 -1.48498 0
M  V30 4771 C 458.01 1.28905 -1.47115 0
M  V30 4772 C 458.39 2.10297 -0.184007 0
M  V30 4773 O 457.738 2.12728 0.834218 0
M  V30 4774 C 457.948 2.16866 -2.73441 0
M  V30 4775 C 459.296 2.76936 -3.21857 0
M  V30 4776 O 460.32 2.27152 -2.74373 0
M  V30 4777 O 459.179 3.67496 -4.04486 0
M  V30 4778 H 456.273 0.581918 -0.587623 0
M  V30 4779 H 458.819 0.544311 -1.60734 0
M  V30 4780 H 457.591 1.56521 -3.58632 0
M  V30 4781 H 457.214 2.98583 -2.62553 0
M  V30 4782 N 458.211 1.37122 0.776871 0
M  V30 4783 C 459.458 1.32047 1.53524 0
M  V30 4784 C 459.786 -0.0965631 1.9426 0
M  V30 4785 O 459.041 -1.06866 1.63945 0
M  V30 4786 C 459.34 2.20068 2.81611 0
M  V30 4787 C 459.006 3.68423 2.59953 0
M  V30 4788 C 457.668 4.08854 2.53755 0
M  V30 4789 C 460.02 4.62431 2.40431 0
M  V30 4790 C 457.348 5.41417 2.26018 0
M  V30 4791 C 459.7 5.95225 2.14219 0
M  V30 4792 C 458.364 6.34767 2.06462 0
M  V30 4793 H 457.634 0.483196 0.561785 0
M  V30 4794 H 460.281 1.69284 0.895268 0
M  V30 4795 H 458.586 1.75809 3.50141 0
M  V30 4796 H 460.283 2.13458 3.39465 0
M  V30 4797 H 456.873 3.36354 2.65638 0
M  V30 4798 H 461.057 4.32057 2.44213 0
M  V30 4799 H 456.313 5.71022 2.18504 0
M  V30 4800 H 460.487 6.67626 1.98112 0
M  V30 4801 H 458.114 7.37413 1.84733 0
M  V30 4802 N 459.689 -1.00246 1.21608 0
M  V30 4803 C 461.105 -1.26435 0.973975 0
M  V30 4804 C 461.305 -1.98642 -0.338143 0
M  V30 4805 O 460.361 -2.29026 -1.06317 0
M  V30 4806 C 461.674 -2.08551 2.16626 0
M  V30 4807 C 463.222 -2.21769 2.20879 0
M  V30 4808 C 463.697 -3.07267 3.39633 0
M  V30 4809 N 465.188 -3.14855 3.39736 0
M  V30 4810 C 465.923 -3.81274 4.28273 0
M  V30 4811 N 465.419 -4.497 5.27012 0
M  V30 4812 N 467.212 -3.7794 4.16074 0
M  V30 4813 H 459.363 -0.518089 2.05984 0
M  V30 4814 H 461.626 -0.291368 0.902113 0
M  V30 4815 H 461.332 -1.62847 3.11727 0
M  V30 4816 H 461.206 -3.09303 2.15897 0
M  V30 4817 H 463.593 -2.66691 1.26332 0
M  V30 4818 H 463.674 -1.20478 2.25652 0
M  V30 4819 H 463.318 -2.63047 4.34475 0
M  V30 4820 H 463.248 -4.08678 3.321 0
M  V30 4821 H 465.739 -2.66147 2.6828 0
M  V30 4822 H 466.052 -4.98092 5.90867 0
M  V30 4823 H 464.397 -4.48479 5.30935 0
M  V30 4824 H 467.588 -3.23638 3.38195 0
M  V30 4825 H 467.761 -4.29424 4.85282 0
M  V30 4826 N 461.167 -1.02423 -1.1978 0
M  V30 4827 C 462.414 -0.717988 -1.89344 0
M  V30 4828 C 462.742 0.753036 -1.79331 0
M  V30 4829 O 461.997 1.56355 -1.17692 0
M  V30 4830 C 462.296 -1.1088 -3.39765 0
M  V30 4831 C 461.962 -2.57731 -3.6998 0
M  V30 4832 C 460.624 -2.97854 -3.77937 0
M  V30 4833 C 462.976 -3.52763 -3.83677 0
M  V30 4834 C 460.304 -4.31931 -3.97054 0
M  V30 4835 C 462.656 -4.86538 -4.04306 0
M  V30 4836 C 461.32 -5.26356 -4.10494 0
M  V30 4837 H 460.59 -0.26273 -0.692859 0
M  V30 4838 H 463.237 -1.28623 -1.41875 0
M  V30 4839 H 461.542 -0.459094 -3.89101 0
M  V30 4840 H 463.239 -0.849432 -3.919 0
M  V30 4841 H 459.829 -2.25646 -3.64393 0
M  V30 4842 H 464.013 -3.2292 -3.76877 0
M  V30 4843 H 459.269 -4.62324 -4.00083 0
M  V30 4844 H 463.443 -5.60093 -4.13846 0
M  V30 4845 H 461.07 -6.3026 -4.2506 0
M  V30 4846 N 462.645 1.35699 -0.801477 0
M  V30 4847 C 463.87 2.03687 -0.390678 0
M  V30 4848 C 464.295 1.60015 0.988778 0
M  V30 4849 O 463.653 0.774357 1.63931 0
M  V30 4850 C 463.701 3.57439 -0.476404 0
M  V30 4851 O 462.805 4.09208 0.512106 0
M  V30 4852 H 462.146 0.64344 -0.163956 0
M  V30 4853 H 464.676 1.73403 -1.08594 0
M  V30 4854 H 464.686 4.06544 -0.344357 0
M  V30 4855 H 463.361 3.88576 -1.48262 0
M  V30 4856 H 461.938 3.7134 0.340721 0
M  V30 4857 N 464.123 0.554532 1.47522 0
M  V30 4858 C 465.055 -0.232106 2.28022 0
M  V30 4859 C 466.068 -0.881865 1.36847 0
M  V30 4860 O 467.257 -0.756168 1.61692 0
M  V30 4861 C 464.357 -1.34604 3.11022 0
M  V30 4862 C 463.53 -0.793582 4.30141 0
M  V30 4863 C 462.589 -1.79168 4.94758 0
M  V30 4864 O 461.615 -1.33886 5.5323 0
M  V30 4865 N 462.817 -3.12495 4.89211 0
M  V30 4866 H 465.582 0.458407 2.96173 0
M  V30 4867 H 463.143 0.390433 1.57122 0
M  V30 4868 H 465.135 -2.01243 3.51118 0
M  V30 4869 H 463.705 -1.93983 2.45131 0
M  V30 4870 H 462.925 0.0495025 3.94169 0
M  V30 4871 H 464.213 -0.403776 5.07195 0
M  V30 4872 H 463.611 -3.51931 4.42901 0
M  V30 4873 H 462.168 -3.74698 5.33333 0
M  V30 4874 N 465.601 -1.54893 0.290851 0
M  V30 4875 C 466.548 -2.23138 -0.58974 0
M  V30 4876 C 467.518 -1.21036 -1.13752 0
M  V30 4877 O 468.703 -1.49626 -1.18392 0
M  V30 4878 C 465.843 -2.96811 -1.76061 0
M  V30 4879 C 464.956 -4.13665 -1.24519 0
M  V30 4880 C 464.091 -4.74944 -2.3791 0
M  V30 4881 C 463.13 -5.83963 -1.83451 0
M  V30 4882 N 462.267 -6.39239 -2.90376 0
M  V30 4883 H 467.107 -2.98 -0.00114915 0
M  V30 4884 H 464.644 -1.47096 0.0112006 0
M  V30 4885 H 466.602 -3.37751 -2.44909 0
M  V30 4886 H 465.232 -2.24344 -2.32098 0
M  V30 4887 H 464.284 -3.77737 -0.449288 0
M  V30 4888 H 465.596 -4.92238 -0.806424 0
M  V30 4889 H 464.75 -5.18684 -3.14724 0
M  V30 4890 H 463.489 -3.95682 -2.85109 0
M  V30 4891 H 462.494 -5.39657 -1.05122 0
M  V30 4892 H 463.719 -6.65103 -1.37169 0
M  V30 4893 H 461.665 -5.62864 -3.36927 0
M  V30 4894 H 461.582 -7.13129 -2.50965 0
M  V30 4895 H 462.85 -6.87637 -3.67118 0
M  V30 4896 N 467.08 -0.0183926 -1.57589 0
M  V30 4897 C 468.326 0.663543 -1.91638 0
M  V30 4898 C 468.659 1.72392 -0.894134 0
M  V30 4899 O 467.934 1.94316 0.0846449 0
M  V30 4900 C 468.217 1.28984 -3.36207 0
M  V30 4901 C 468.07 0.239761 -4.49161 0
M  V30 4902 C 469.389 2.2109 -3.80536 0
M  V30 4903 H 466.508 0.239746 -0.696915 0
M  V30 4904 H 469.15 -0.073456 -1.89858 0
M  V30 4905 H 467.3 1.91799 -3.37854 0
M  V30 4906 H 468.972 -0.390119 -4.59647 0
M  V30 4907 H 467.215 -0.435972 -4.31604 0
M  V30 4908 H 467.886 0.717383 -5.47319 0
M  V30 4909 H 470.362 1.68273 -3.80557 0
M  V30 4910 H 469.238 2.61869 -4.82406 0
M  V30 4911 H 469.499 3.09764 -3.15434 0
M  V30 4912 N 468.558 1.5553 0.254621 0
M  V30 4913 C 469.974 1.4778 0.602753 0
M  V30 4914 C 470.174 0.707047 1.88688 0
M  V30 4915 O 469.23 0.233288 2.5142 0
M  V30 4916 C 470.543 2.92133 0.712648 0
M  V30 4917 C 472.091 3.02458 0.805488 0
M  V30 4918 C 472.566 4.48102 0.947009 0
M  V30 4919 N 474.057 4.52008 1.01207 0
M  V30 4920 C 474.792 5.61939 1.1407 0
M  V30 4921 N 474.288 6.81697 1.23536 0
M  V30 4922 N 476.081 5.49719 1.17325 0
M  V30 4923 H 468.232 2.04085 -0.588463 0
M  V30 4924 H 470.495 0.926229 -0.202001 0
M  V30 4925 H 470.201 3.51332 -0.160766 0
M  V30 4926 H 470.075 3.42187 1.58707 0
M  V30 4927 H 472.462 2.43344 1.66936 0
M  V30 4928 H 472.543 2.55627 -0.0939266 0
M  V30 4929 H 472.187 5.07824 0.087725 0
M  V30 4930 H 472.117 4.92607 1.86135 0
M  V30 4931 H 474.608 3.65749 0.950577 0
M  V30 4932 H 474.921 7.61228 1.33236 0
M  V30 4933 H 473.266 6.84473 1.20508 0
M  V30 4934 H 476.457 4.55095 1.09573 0
M  V30 4935 H 476.63 6.35432 1.27005 0
M  V30 4936 N 470.036 -0.519951 1.48776 0
M  V30 4937 C 470.968 -1.63973 1.60142 0
M  V30 4938 C 471.981 -1.55404 0.485117 0
M  V30 4939 O 473.17 -1.61682 0.756391 0
M  V30 4940 C 470.27 -3.02676 1.52449 0
M  V30 4941 C 469.443 -3.36624 2.79291 0
M  V30 4942 C 468.502 -4.54652 2.64912 0
M  V30 4943 O 467.528 -4.57374 3.38818 0
M  V30 4944 N 468.73 -5.53432 1.75195 0
M  V30 4945 H 471.495 -1.54656 2.56713 0
M  V30 4946 H 469.056 -0.707439 1.45626 0
M  V30 4947 H 471.048 -3.79525 1.4051 0
M  V30 4948 H 469.618 -3.06018 0.638125 0
M  V30 4949 H 468.838 -2.48855 3.0572 0
M  V30 4950 H 470.126 -3.56094 3.6342 0
M  V30 4951 H 469.524 -5.54018 1.14371 0
M  V30 4952 H 468.081 -6.29459 1.69189 0
M  V30 4953 N 471.514 -1.37532 -0.769588 0
M  V30 4954 C 472.76 -1.33057 -1.53048 0
M  V30 4955 C 473.093 0.0841865 -1.94017 0
M  V30 4956 O 472.368 1.04198 -1.64235 0
M  V30 4957 C 472.651 -2.27166 -2.79406 0
M  V30 4958 C 472.504 -3.77429 -2.44677 0
M  V30 4959 C 473.823 -2.19683 -3.81349 0
M  V30 4960 H 470.942 -0.484655 -0.555228 0
M  V30 4961 H 473.584 -1.68251 -0.882702 0
M  V30 4962 H 471.734 -1.97283 -3.34682 0
M  V30 4963 H 473.406 -4.17918 -1.953 0
M  V30 4964 H 471.649 -3.95892 -1.77346 0
M  V30 4965 H 472.32 -4.38716 -3.35011 0
M  V30 4966 H 474.796 -2.46029 -3.35573 0
M  V30 4967 H 473.672 -2.87668 -4.67481 0
M  V30 4968 H 473.933 -1.19045 -4.25771 0
M  V30 4969 N 472.992 0.995999 -1.22138 0
M  V30 4970 C 474.239 1.7351 -1.04406 0
M  V30 4971 C 474.567 1.89884 0.421244 0
M  V30 4972 O 473.822 1.43683 1.32867 0
M  V30 4973 C 474.121 3.14553 -1.6968 0
M  V30 4974 C 473.787 3.18102 -3.19565 0
M  V30 4975 C 472.449 3.18778 -3.60464 0
M  V30 4976 C 474.801 3.14636 -4.15516 0
M  V30 4977 C 472.129 3.13684 -4.95801 0
M  V30 4978 C 474.481 3.11084 -5.50826 0
M  V30 4979 C 473.145 3.10074 -5.91109 0
M  V30 4980 H 472.415 0.634916 -0.38205 0
M  V30 4981 H 475.062 1.1667 -1.51857 0
M  V30 4982 H 473.367 3.74682 -1.14546 0
M  V30 4983 H 475.064 3.70477 -1.53454 0
M  V30 4984 H 471.654 3.18324 -2.86998 0
M  V30 4985 H 475.838 3.13266 -3.84939 0
M  V30 4986 H 471.094 3.11245 -5.26247 0
M  V30 4987 H 475.268 3.07357 -6.24904 0
M  V30 4988 H 472.895 3.05882 -6.95946 0
M  V30 4989 N 474.47 1.03057 1.19235 0
M  V30 4990 C 475.886 0.747947 1.40989 0
M  V30 4991 C 476.086 -0.666752 1.90149 0
M  V30 4992 O 475.142 -1.43249 2.07933 0
M  V30 4993 C 476.455 1.7855 2.41951 0
M  V30 4994 C 478.003 1.80524 2.55695 0
M  V30 4995 C 478.478 2.83243 3.59913 0
M  V30 4996 N 479.969 2.8207 3.67411 0
M  V30 4997 C 480.704 3.58204 4.47747 0
M  V30 4998 N 480.2 4.44057 5.31775 0
M  V30 4999 N 481.993 3.46738 4.42413 0
M  V30 5000 H 474.144 1.94367 0.856468 0
M  V30 5001 H 476.407 0.840412 0.438647 0
M  V30 5002 H 476.113 2.79973 2.12857 0
M  V30 5003 H 475.987 1.6092 3.41152 0
M  V30 5004 H 478.374 0.79778 2.84112 0
M  V30 5005 H 478.455 2.02229 1.56643 0
M  V30 5006 H 478.099 3.84161 3.32239 0
M  V30 5007 H 478.029 2.58795 4.5862 0
M  V30 5008 H 480.52 2.19803 3.074 0
M  V30 5009 H 480.833 4.98884 5.90199 0
M  V30 5010 H 479.178 4.48129 5.3123 0
M  V30 5011 H 482.369 2.79077 3.75811 0
M  V30 5012 H 482.542 4.06322 5.04783 0
M  V30 5013 N 475.948 -1.35272 0.808662 0
M  V30 5014 C 477.225 -1.93077 0.313181 0
M  V30 5015 C 477.605 -1.73847 -1.19752 0
M  V30 5016 O 476.953 -1.1087 -1.998 0
M  V30 5017 C 477.163 -3.41347 0.726859 0
M  V30 5018 C 478.511 -4.18493 0.717532 0
M  V30 5019 O 479.535 -3.4987 0.668535 0
M  V30 5020 O 478.394 -5.40937 0.777779 0
M  V30 5021 H 475.488 -0.822885 0.0824018 0
M  V30 5022 H 478.034 -1.44335 0.892499 0
M  V30 5023 H 476.806 -3.49082 1.76797 0
M  V30 5024 H 476.429 -3.97411 0.122461 0
M  V30 5025 N 477.426 -0.562348 -1.47226 0
M  V30 5026 C 478.374 0.195476 -2.31777 0
M  V30 5027 C 479.368 0.90433 -1.43242 0
M  V30 5028 O 480.574 0.825031 -1.59979 0
M  V30 5029 H 476.949 0.0819095 -0.747526 0
M  V30 5030 H 478.92 -0.536753 -2.93533 0
M  V30 5031 C 477.669 1.20902 -3.26003 0
M  V30 5032 H 476.992 0.672997 -3.94095 0
M  V30 5033 H 478.432 1.71006 -3.87986 0
M  V30 5034 C 476.891 2.25955 -2.49891 0
M  V30 5035 O 477.421 3.32969 -2.2471 0
M  V30 5036 N 475.627 2.00019 -2.1081 0
M  V30 5037 H 475.174 1.13006 -2.31489 0
M  V30 5038 H 475.132 2.70523 -1.60201 0
M  V30 5039 N 478.904 1.54736 -0.299062 0
M  V30 5040 C 480.132 2.04512 0.313447 0
M  V30 5041 C 480.547 1.17643 1.47667 0
M  V30 5042 O 479.904 0.20164 1.81383 0
M  V30 5043 C 479.955 3.53171 0.771542 0
M  V30 5044 O 479.676 4.36736 -0.345379 0
M  V30 5045 C 481.177 4.18936 1.4494 0
M  V30 5046 H 478.397 0.667507 0.0683784 0
M  V30 5047 H 480.941 1.99752 -0.438129 0
M  V30 5048 H 479.096 3.58298 1.47314 0
M  V30 5049 H 479.51 5.24499 0.0109219 0
M  V30 5050 H 480.984 5.24482 1.72111 0
M  V30 5051 H 481.461 3.68554 2.38883 0
M  V30 5052 H 482.067 4.17879 0.791028 0
M  V30 5053 N 480.382 0.0267497 1.57577 0
M  V30 5054 C 481.659 -0.690926 1.82991 0
M  V30 5055 C 482.039 -1.90471 0.910164 0
M  V30 5056 O 481.387 -2.28474 -0.0347985 0
M  V30 5057 C 481.597 -1.07139 3.32148 0
M  V30 5058 C 482.945 -1.46402 3.98562 0
M  V30 5059 O 483.969 -1.16443 3.36629 0
M  V30 5060 O 482.828 -2.02214 5.07712 0
M  V30 5061 H 479.922 -0.338747 0.75444 0
M  V30 5062 H 482.468 0.0542506 1.69613 0
M  V30 5063 H 481.24 -0.207394 3.9075 0
M  V30 5064 H 480.863 -1.87481 3.50623 0
M  V30 5065 N 481.861 -1.55662 -0.24637 0
M  V30 5066 C 483.089 -1.81575 -0.991876 0
M  V30 5067 C 483.504 -0.602545 -1.78927 0
M  V30 5068 O 482.861 0.428795 -1.77391 0
M  V30 5069 C 482.912 -3.05711 -1.92933 0
M  V30 5070 O 482.633 -4.22348 -1.1642 0
M  V30 5071 C 484.134 -3.44428 -2.79078 0
M  V30 5072 H 481.354 -0.604209 -0.291844 0
M  V30 5073 H 483.898 -2.02722 -0.269095 0
M  V30 5074 H 482.053 -2.86612 -2.60638 0
M  V30 5075 H 482.467 -4.92706 -1.79835 0
M  V30 5076 H 483.941 -4.34388 -3.40603 0
M  V30 5077 H 484.418 -2.65037 -3.50217 0
M  V30 5078 H 485.024 -3.65879 -2.16824 0
M  V30 5079 N 483.339 0.512053 -1.4905 0
M  V30 5080 C 484.272 1.63209 -1.59493 0
M  V30 5081 C 485.25 1.56407 -0.444481 0
M  V30 5082 O 486.434 1.76623 -0.658535 0
M  V30 5083 C 483.561 3.01685 -1.53961 0
M  V30 5084 C 482.607 3.26786 -2.74068 0
M  V30 5085 S 483.44 3.11107 -4.35859 0
M  V30 5086 C 484.596 4.51997 -4.32954 0
M  V30 5087 H 484.829 1.54104 -2.54243 0
M  V30 5088 H 482.362 0.696382 -1.37804 0
M  V30 5089 H 484.32 3.81538 -1.51455 0
M  V30 5090 H 482.981 3.08215 -0.605178 0
M  V30 5091 H 482.174 4.27849 -2.66386 0
M  V30 5092 H 481.776 2.54635 -2.73928 0
M  V30 5093 H 484.068 5.43871 -4.03993 0
M  V30 5094 H 485.011 4.64731 -5.34257 0
M  V30 5095 H 485.419 4.32159 -3.63178 0
M  V30 5096 N 484.817 1.37938 0.762283 0
M  V30 5097 C 486.047 1.36685 1.54922 0
M  V30 5098 C 486.455 -0.0474099 1.89141 0
M  V30 5099 O 485.798 -1.02213 1.52638 0
M  V30 5100 C 485.86 2.14963 2.88152 0
M  V30 5101 C 485.524 3.6385 2.76518 0
M  V30 5102 C 486.521 4.57531 2.46904 0
M  V30 5103 C 484.206 4.07095 2.94243 0
M  V30 5104 C 486.2 5.92436 2.35156 0
M  V30 5105 C 483.887 5.42083 2.82116 0
M  V30 5106 C 484.885 6.34567 2.52614 0
M  V30 5107 O 484.573 7.67073 2.40529 0
M  V30 5108 H 484.305 0.469586 0.486276 0
M  V30 5109 H 486.859 1.82012 0.951876 0
M  V30 5110 H 485.089 1.6434 3.50042 0
M  V30 5111 H 486.778 2.06224 3.49609 0
M  V30 5112 H 487.544 4.25428 2.32886 0
M  V30 5113 H 483.423 3.35462 3.16206 0
M  V30 5114 H 486.967 6.64591 2.12049 0
M  V30 5115 H 482.864 5.73785 2.95704 0
M  V30 5116 H 483.632 7.77499 2.55807 0
M  V30 5117 N 486.295 -0.989507 1.22664 0
M  V30 5118 C 487.543 -1.72612 1.05117 0
M  V30 5119 C 487.864 -1.90552 -0.414131 0
M  V30 5120 O 487.134 -1.4676 -1.29762 0
M  V30 5121 H 485.714 -0.639555 0.385977 0
M  V30 5122 H 488.376 -1.19158 1.54232 0
M  V30 5123 H 487.472 -2.71926 1.53175 0
M  V30 5124 N 487.773 -1.03688 -1.18687 0
M  V30 5125 C 488.703 -0.645407 -2.24403 0
M  V30 5126 C 489.684 0.349511 -1.66471 0
M  V30 5127 O 490.869 0.230453 -1.92828 0
M  V30 5128 C 487.999 -0.00365337 -3.473 0
M  V30 5129 C 486.953 -0.921705 -4.17958 0
M  V30 5130 C 486.279 -0.144629 -5.34504 0
M  V30 5131 C 487.579 -2.23909 -4.71871 0
M  V30 5132 H 489.273 -1.52917 -2.57404 0
M  V30 5133 H 486.819 -0.736711 -1.23728 0
M  V30 5134 H 488.772 0.281908 -4.20456 0
M  V30 5135 H 487.496 0.914963 -3.13522 0
M  V30 5136 H 486.155 -1.19159 -3.46694 0
M  V30 5137 H 485.803 0.776274 -4.96974 0
M  V30 5138 H 485.503 -0.756206 -5.82714 0
M  V30 5139 H 487.027 0.134004 -6.10453 0
M  V30 5140 H 488.441 -2.0145 -5.36741 0
M  V30 5141 H 486.838 -2.8033 -5.30599 0
M  V30 5142 H 487.908 -2.88822 -3.895 0
M  V30 5143 N 489.251 1.34841 -0.815825 0
M  V30 5144 C 490.528 1.92908 -0.323416 0
M  V30 5145 C 490.908 1.74479 1.18828 0
M  V30 5146 O 490.256 1.11928 1.99209 0
M  V30 5147 C 490.466 3.40957 -0.744952 0
M  V30 5148 C 491.814 4.18107 -0.739716 0
M  V30 5149 O 492.838 3.49511 -0.68708 0
M  V30 5150 O 491.697 5.40517 -0.806456 0
M  V30 5151 H 488.791 0.822436 -0.0867646 0
M  V30 5152 H 491.337 1.4386 -0.90014 0
M  V30 5153 H 490.109 3.4814 -1.78646 0
M  V30 5154 H 489.732 3.97341 -0.143535 0
M  V30 5155 N 490.729 0.570148 1.46925 0
M  V30 5156 C 491.954 0.0542592 2.07329 0
M  V30 5157 C 492.379 -1.23582 1.41806 0
M  V30 5158 O 491.737 -1.74341 0.497479 0
M  V30 5159 C 491.785 -0.111175 3.60429 0
M  V30 5160 O 490.889 -1.17071 3.95434 0
M  V30 5161 H 490.23 0.0571425 0.661537 0
M  V30 5162 H 492.76 0.789516 1.88753 0
M  V30 5163 H 492.77 -0.321315 4.06733 0
M  V30 5164 H 491.445 0.831012 4.07513 0
M  V30 5165 H 490.022 -0.940029 3.60857 0
M  V30 5166 N 492.207 -1.54576 0.307264 0
M  V30 5167 C 493.14 -2.19946 -0.608195 0
M  V30 5168 C 494.118 -1.17096 -1.12815 0
M  V30 5169 O 495.302 -1.45766 -1.19518 0
M  V30 5170 C 492.429 -2.84826 -1.8328 0
M  V30 5171 C 491.475 -4.01256 -1.44554 0
M  V30 5172 S 492.308 -5.33197 -0.49612 0
M  V30 5173 C 493.464 -6.01563 -1.72838 0
M  V30 5174 H 493.697 -2.97253 -0.0528544 0
M  V30 5175 H 491.23 -1.54129 0.0913837 0
M  V30 5176 H 493.188 -3.22832 -2.53554 0
M  V30 5177 H 491.849 -2.07353 -2.35931 0
M  V30 5178 H 491.042 -4.45457 -2.35762 0
M  V30 5179 H 490.644 -3.6484 -0.822671 0
M  V30 5180 H 492.936 -6.22751 -2.6681 0
M  V30 5181 H 493.879 -6.9552 -1.32882 0
M  V30 5182 H 494.287 -5.31279 -1.90795 0
M  V30 5183 N 493.685 -0.035106 -1.57561 0
M  V30 5184 C 494.934 0.641604 -1.91223 0
M  V30 5185 C 495.247 1.72944 -0.913761 0
M  V30 5186 O 496.453 2.46321 -1.14185 0
M  V30 5187 C 494.909 1.19249 -3.3957 0
M  V30 5188 C 494.517 0.137616 -4.47789 0
M  V30 5189 C 496.261 1.84537 -3.82291 0
M  V30 5190 C 494.168 0.700478 -5.87237 0
M  V30 5191 H 493.098 0.243417 -0.713627 0
M  V30 5192 H 495.749 -0.101382 -1.8322 0
M  V30 5193 H 494.131 1.98728 -3.42525 0
M  V30 5194 H 495.305 -0.635153 -4.56402 0
M  V30 5195 H 493.62 -0.416855 -4.14308 0
M  V30 5196 H 496.217 2.27616 -4.83834 0
M  V30 5197 H 496.56 2.69054 -3.17672 0
M  V30 5198 H 497.093 1.11739 -3.81784 0
M  V30 5199 H 493.832 -0.106693 -6.55413 0
M  V30 5200 H 493.352 1.4416 -5.82218 0
M  V30 5201 H 495.031 1.18837 -6.35993 0
M  V30 5202 N 495.163 1.55791 0.238111 0
M  V30 5203 C 496.095 1.87513 1.31802 0
M  V30 5204 C 497.108 0.762053 1.43863 0
M  V30 5205 O 498.297 1.04024 1.45056 0
M  V30 5206 C 495.397 2.05402 2.69561 0
M  V30 5207 C 494.57 3.3632 2.79656 0
M  V30 5208 C 493.629 3.43844 3.98319 0
M  V30 5209 O 492.655 4.16994 3.87433 0
M  V30 5210 N 493.857 2.73777 5.11885 0
M  V30 5211 H 496.622 2.80734 1.04922 0
M  V30 5212 H 494.183 1.56135 0.428196 0
M  V30 5213 H 496.175 2.07769 3.47296 0
M  V30 5214 H 494.745 1.18884 2.89111 0
M  V30 5215 H 493.965 3.46195 1.88528 0
M  V30 5216 H 495.253 4.22594 2.83358 0
M  V30 5217 H 494.651 2.14094 5.23622 0
M  V30 5218 H 493.208 2.81825 5.87723 0
M  V30 5219 N 496.642 -0.504142 1.49319 0
M  V30 5220 C 497.867 -1.28729 1.62615 0
M  V30 5221 C 498.292 -1.85752 0.296309 0
M  V30 5222 O 497.65 -1.65704 -0.735649 0
M  V30 5223 C 497.698 -2.39561 2.69524 0
M  V30 5224 O 496.802 -3.43324 2.28478 0
M  V30 5225 H 496.143 -0.380172 0.544395 0
M  V30 5226 H 498.673 -0.603872 1.95485 0
M  V30 5227 H 498.683 -2.8537 2.91595 0
M  V30 5228 H 497.358 -1.97423 3.66056 0
M  V30 5229 H 495.935 -3.03455 2.16725 0
M  V30 5230 N 498.12 -1.38341 -0.754957 0
M  V30 5231 C 499.348 -1.37704 -1.54419 0
M  V30 5232 C 499.763 0.0335243 -1.8877 0
M  V30 5233 O 499.12 0.999773 -1.52679 0
M  V30 5234 C 499.171 -2.23136 -2.84416 0
M  V30 5235 O 498.892 -3.58697 -2.51531 0
M  V30 5236 C 500.393 -2.30664 -3.78562 0
M  V30 5237 H 497.613 -0.471061 -0.477852 0
M  V30 5238 H 500.157 -1.81902 -0.934446 0
M  V30 5239 H 498.312 -1.82403 -3.41772 0
M  V30 5240 H 498.726 -4.03665 -3.34896 0
M  V30 5241 H 500.2 -2.9473 -4.66732 0
M  V30 5242 H 500.677 -1.3199 -4.18898 0
M  V30 5243 H 501.283 -2.71781 -3.27131 0
M  V30 5244 N 499.598 0.982988 -1.23187 0
M  V30 5245 C 500.561 2.05649 -1.01198 0
M  V30 5246 C 501.561 1.6078 0.0252464 0
M  V30 5247 O 502.751 1.72878 -0.214243 0
M  V30 5248 C 499.883 3.36744 -0.530656 0
M  V30 5249 H 501.076 2.2659 -1.96461 0
M  V30 5250 H 498.629 1.15602 -1.05195 0
M  V30 5251 H 499.364 3.21492 0.425873 0
M  V30 5252 H 499.149 3.7065 -1.2791 0
M  V30 5253 H 500.639 4.15705 -0.397366 0
M  V30 5254 N 501.076 1.04316 1.18135 0
M  V30 5255 C 502.301 0.768047 1.92655 0
M  V30 5256 C 502.726 -0.66904 1.758 0
M  V30 5257 O 502.084 -1.46372 1.06981 0
M  V30 5258 C 502.132 1.14239 3.42026 0
M  V30 5259 O 501.236 0.269333 4.1152 0
M  V30 5260 H 500.577 0.282436 0.600937 0
M  V30 5261 H 503.107 1.39367 1.49793 0
M  V30 5262 H 503.117 1.10538 3.92741 0
M  V30 5263 H 501.792 2.18928 3.53615 0
M  V30 5264 H 500.369 0.366175 3.71098 0
M  V30 5265 N 502.554 -1.34406 0.822964 0
M  V30 5266 C 503.831 -1.92733 0.333641 0
M  V30 5267 C 504.211 -1.75107 -1.17901 0
M  V30 5268 O 503.559 -1.12983 -1.98613 0
M  V30 5269 C 503.769 -3.40557 0.763023 0
M  V30 5270 C 505.117 -4.17709 0.761879 0
M  V30 5271 O 506.141 -3.49141 0.705606 0
M  V30 5272 O 505 -5.40082 0.835109 0
M  V30 5273 H 502.094 -0.821964 0.0911249 0
M  V30 5274 H 504.64 -1.4338 0.907757 0
M  V30 5275 H 503.412 -3.47187 1.8049 0
M  V30 5276 H 503.035 -3.97259 0.164605 0
M  V30 5277 N 504.032 -0.577932 -1.46621 0
M  V30 5278 C 505.262 -0.0670668 -2.06491 0
M  V30 5279 C 505.67 1.24119 -1.42798 0
M  V30 5280 O 505.013 1.76016 -0.525759 0
M  V30 5281 C 505.075 0.177995 -3.59059 0
M  V30 5282 C 504.739 -1.04394 -4.44917 0
M  V30 5283 C 505.736 -1.95479 -4.81751 0
M  V30 5284 C 503.421 -1.26444 -4.86125 0
M  V30 5285 C 505.415 -3.06965 -5.58615 0
M  V30 5286 C 503.102 -2.38237 -5.62749 0
M  V30 5287 C 504.1 -3.28327 -5.98908 0
M  V30 5288 O 503.788 -4.38179 -6.73984 0
M  V30 5289 H 503.52 -0.0523159 -0.673973 0
M  V30 5290 H 506.074 -0.796966 -1.89308 0
M  V30 5291 H 504.304 0.962451 -3.74531 0
M  V30 5292 H 505.993 0.636782 -4.00874 0
M  V30 5293 H 506.759 -1.79657 -4.50498 0
M  V30 5294 H 502.638 -0.572316 -4.57434 0
M  V30 5295 H 506.182 -3.77309 -5.86757 0
M  V30 5296 H 502.079 -2.54023 -5.93416 0
M  V30 5297 H 502.847 -4.36486 -6.92403 0
M  V30 5298 N 505.51 1.54411 -0.315457 0
M  V30 5299 C 506.458 2.25514 0.569771 0
M  V30 5300 C 507.452 1.2663 1.12522 0
M  V30 5301 O 508.658 1.44434 1.07419 0
M  V30 5302 H 505.033 0.724257 0.202376 0
M  V30 5303 H 507.004 2.98354 -0.0522895 0
M  V30 5304 C 505.753 3.02004 1.72305 0
M  V30 5305 H 505.076 3.77906 1.30488 0
M  V30 5306 H 506.516 3.55014 2.31821 0
M  V30 5307 C 504.975 2.09822 2.63583 0
M  V30 5308 O 505.505 1.67574 3.65078 0
M  V30 5309 N 503.711 1.75478 2.31637 0
M  V30 5310 H 503.258 2.10032 1.49145 0
M  V30 5311 H 503.216 1.14079 2.92973 0
M  V30 5312 N 506.988 0.0434614 1.5754 0
M  V30 5313 C 508.235 -0.632035 1.92384 0
M  V30 5314 C 508.563 -1.71304 0.921157 0
M  V30 5315 O 507.818 -1.95583 -0.067744 0
M  V30 5316 C 508.117 -1.2738 3.3393 0
M  V30 5317 C 507.783 -0.321757 4.49751 0
M  V30 5318 C 506.445 -0.0597611 4.81163 0
M  V30 5319 C 508.797 0.331158 5.20147 0
M  V30 5320 C 506.125 0.862715 5.80322 0
M  V30 5321 C 508.477 1.24178 6.20292 0
M  V30 5322 C 507.141 1.51252 6.50138 0
M  V30 5323 H 506.411 -0.231278 0.703983 0
M  V30 5324 H 509.058 0.108294 1.91194 0
M  V30 5325 H 507.363 -2.08921 3.3145 0
M  V30 5326 H 509.06 -1.80326 3.58167 0
M  V30 5327 H 505.65 -0.53614 4.25233 0
M  V30 5328 H 509.834 0.141826 4.96097 0
M  V30 5329 H 505.09 1.08003 6.01785 0
M  V30 5330 H 509.264 1.75381 6.73954 0
M  V30 5331 H 506.891 2.22897 7.26788 0
M  V30 5332 N 508.466 -1.55915 -0.229846 0
M  V30 5333 C 509.715 -1.77742 -0.953455 0
M  V30 5334 C 510.028 -0.610524 -1.85828 0
M  V30 5335 O 511.234 -0.712219 -2.61992 0
M  V30 5336 C 509.69 -3.14738 -1.74551 0
M  V30 5337 C 509.298 -4.39126 -0.887242 0
M  V30 5338 C 511.042 -3.45895 -2.46084 0
M  V30 5339 C 508.949 -5.67149 -1.67617 0
M  V30 5340 H 507.879 -0.662648 -0.359741 0
M  V30 5341 H 510.53 -1.82322 -0.207576 0
M  V30 5342 H 508.912 -3.04311 -2.53399 0
M  V30 5343 H 510.086 -4.60588 -0.139892 0
M  V30 5344 H 508.401 -4.15427 -0.284443 0
M  V30 5345 H 510.998 -4.38767 -3.05594 0
M  V30 5346 H 511.341 -2.68007 -3.18556 0
M  V30 5347 H 511.874 -3.57614 -1.74233 0
M  V30 5348 H 508.613 -6.47906 -0.994881 0
M  V30 5349 H 508.133 -5.49763 -2.39836 0
M  V30 5350 H 509.812 -6.07025 -2.23898 0
M  V30 5351 N 509.944 0.496216 -1.49584 0
M  V30 5352 C 510.892 1.61805 -1.67098 0
M  V30 5353 C 511.886 1.60667 -0.536877 0
M  V30 5354 O 513.092 1.65118 -0.716654 0
M  V30 5355 H 509.467 0.53646 -0.526986 0
M  V30 5356 H 511.438 1.44187 -2.61252 0
M  V30 5357 C 510.187 2.99912 -1.75921 0
M  V30 5358 H 509.51 3.01496 -2.62565 0
M  V30 5359 H 510.95 3.77931 -1.92209 0
M  V30 5360 C 509.409 3.33092 -0.505088 0
M  V30 5361 O 509.939 4.00019 0.367085 0
M  V30 5362 N 508.145 2.88278 -0.366599 0
M  V30 5363 H 507.692 2.33989 -1.07735 0
M  V30 5364 H 507.65 3.10846 0.47142 0
M  V30 5365 N 511.423 1.38739 0.74761 0
M  V30 5366 C 512.7 1.25791 1.49786 0
M  V30 5367 C 513.08 -0.138075 2.10648 0
M  V30 5368 O 512.428 -1.14815 1.9756 0
M  V30 5369 C 512.638 2.37265 2.55942 0
M  V30 5370 C 513.986 2.75978 3.22679 0
M  V30 5371 O 515.01 2.36621 2.6625 0
M  V30 5372 O 513.869 3.43867 4.24756 0
M  V30 5373 H 510.963 0.492251 0.664543 0
M  V30 5374 H 513.509 1.50582 0.782511 0
M  V30 5375 H 512.281 3.30644 2.0926 0
M  V30 5376 H 511.904 2.14071 3.35051 0
M  V30 5377 N 512.901 -0.976442 1.23707 0
M  V30 5378 C 513.834 -2.06793 0.964973 0
M  V30 5379 C 514.812 -1.62304 -0.0981472 0
M  V30 5380 O 515.996 -1.88464 0.0369477 0
M  V30 5381 C 513.123 -3.35636 0.454522 0
M  V30 5382 C 512.169 -3.99069 1.50485 0
M  V30 5383 S 513.002 -4.37814 3.0835 0
M  V30 5384 C 514.158 -5.69805 2.58985 0
M  V30 5385 H 514.391 -2.29556 1.88922 0
M  V30 5386 H 511.924 -1.11317 1.06995 0
M  V30 5387 H 513.882 -4.10162 0.166626 0
M  V30 5388 H 512.543 -3.10876 -0.448871 0
M  V30 5389 H 511.736 -4.91896 1.09792 0
M  V30 5390 H 511.338 -3.30938 1.7423 0
M  V30 5391 H 513.63 -6.46919 2.01252 0
M  V30 5392 H 514.573 -6.15345 3.50366 0
M  V30 5393 H 514.981 -5.27994 1.99705 0
M  V30 5394 N 514.379 -1.04941 -1.1758 0
M  V30 5395 C 515.625 -0.759112 -1.88057 0
M  V30 5396 C 515.958 0.711918 -1.8068 0
M  V30 5397 O 515.233 1.52035 -1.21308 0
M  V30 5398 C 515.516 -1.237 -3.38187 0
M  V30 5399 C 515.369 -2.77078 -3.54327 0
M  V30 5400 C 516.688 -0.834014 -4.32125 0
M  V30 5401 H 513.807 -0.277237 -0.682868 0
M  V30 5402 H 516.449 -1.30296 -1.38286 0
M  V30 5403 H 514.599 -0.774337 -3.80705 0
M  V30 5404 H 516.271 -3.31449 -3.20842 0
M  V30 5405 H 514.514 -3.16477 -2.96689 0
M  V30 5406 H 515.185 -3.05577 -4.59703 0
M  V30 5407 H 517.661 -1.23228 -3.97434 0
M  V30 5408 H 516.537 -1.19603 -5.35711 0
M  V30 5409 H 516.798 0.262195 -4.41322 0
M  V30 5410 N 515.857 1.33968 -0.830081 0
M  V30 5411 C 517.085 2.0228 -0.434773 0
M  V30 5412 C 517.5 1.62487 0.961419 0
M  V30 5413 O 516.857 0.833849 1.62337 0
M  V30 5414 C 516.908 3.5751 -0.535625 0
M  V30 5415 O 516.629 3.95864 -1.87679 0
M  V30 5416 C 518.13 4.43091 -0.136137 0
M  V30 5417 H 515.35 0.648151 -0.173613 0
M  V30 5418 H 517.894 1.71089 -1.12022 0
M  V30 5419 H 516.049 3.87266 0.101817 0
M  V30 5420 H 516.463 4.9056 -1.85609 0
M  V30 5421 H 517.937 5.51398 -0.257772 0
M  V30 5422 H 518.414 4.29433 0.921076 0
M  V30 5423 H 519.02 4.18677 -0.747662 0
M  V30 5424 N 517.335 0.585699 1.46312 0
M  V30 5425 C 518.582 0.0724211 2.0237 0
M  V30 5426 C 518.91 -1.28868 1.45683 0
M  V30 5427 O 518.165 -1.85853 0.612945 0
M  V30 5428 C 518.464 -0.0401312 3.57377 0
M  V30 5429 C 518.13 1.25376 4.33119 0
M  V30 5430 C 516.792 1.60824 4.5353 0
M  V30 5431 C 519.144 2.10987 4.76586 0
M  V30 5432 C 516.472 2.81676 5.14661 0
M  V30 5433 C 518.824 3.31068 5.39052 0
M  V30 5434 C 517.488 3.66794 5.5769 0
M  V30 5435 H 516.758 0.0265007 0.740526 0
M  V30 5436 H 519.405 0.762935 1.75646 0
M  V30 5437 H 517.71 -0.813791 3.83255 0
M  V30 5438 H 519.407 -0.453078 3.98432 0
M  V30 5439 H 515.997 0.967808 4.1753 0
M  V30 5440 H 520.181 1.84904 4.60569 0
M  V30 5441 H 515.437 3.0949 5.27282 0
M  V30 5442 H 519.611 3.97672 5.71691 0
M  V30 5443 H 517.238 4.60529 6.04828 0
M  V30 5444 N 518.813 -1.54241 0.323641 0
M  V30 5445 C 520.062 -1.9975 -0.279806 0
M  V30 5446 C 520.375 -1.2156 -1.5324 0
M  V30 5447 O 521.581 -1.57447 -2.21185 0
M  V30 5448 C 520.037 -3.55686 -0.549115 0
M  V30 5449 C 519.645 -4.4271 0.686432 0
M  V30 5450 C 521.389 -4.09663 -1.11251 0
M  V30 5451 C 519.296 -5.90119 0.389022 0
M  V30 5452 H 518.226 -0.746177 -0.10833 0
M  V30 5453 H 520.877 -1.78248 0.435877 0
M  V30 5454 H 519.259 -3.73176 -1.32499 0
M  V30 5455 H 520.433 -4.36996 1.46188 0
M  V30 5456 H 518.748 -3.99623 1.17005 0
M  V30 5457 H 521.345 -5.17386 -1.34965 0
M  V30 5458 H 521.688 -3.61651 -2.06191 0
M  V30 5459 H 522.221 -3.95806 -0.39782 0
M  V30 5460 H 518.96 -6.42326 1.30759 0
M  V30 5461 H 518.48 -5.98785 -0.348722 0
M  V30 5462 H 520.159 -6.47 -0.0011164 0
M  V30 5463 N 520.291 -0.0518155 -1.57515 0
M  V30 5464 C 521.568 0.661727 -1.84067 0
M  V30 5465 C 521.948 1.88999 -0.940351 0
M  V30 5466 O 521.296 2.285 -0.00155404 0
M  V30 5467 C 521.506 1.01841 -3.3381 0
M  V30 5468 C 522.854 1.40043 -4.00841 0
M  V30 5469 O 523.878 1.11073 -3.38439 0
M  V30 5470 O 522.737 1.94111 -5.10865 0
M  V30 5471 H 519.831 0.326702 -0.759733 0
M  V30 5472 H 522.377 -0.0812277 -1.69505 0
M  V30 5473 H 521.149 0.145202 -3.91031 0
M  V30 5474 H 520.772 1.81879 -3.53562 0
M  V30 5475 N 521.769 1.56035 0.221574 0
M  V30 5476 C 522.717 1.93269 1.29421 0
M  V30 5477 C 523.711 0.814727 1.48521 0
M  V30 5478 O 524.917 0.999559 1.49696 0
M  V30 5479 H 521.292 0.614188 0.43391 0
M  V30 5480 H 523.263 2.82773 0.952987 0
M  V30 5481 C 522.012 2.26573 2.63742 0
M  V30 5482 H 521.335 3.12112 2.49853 0
M  V30 5483 H 522.775 2.5651 3.37607 0
M  V30 5484 C 521.234 1.09086 3.1875 0
M  V30 5485 O 521.764 0.351985 4.00155 0
M  V30 5486 N 519.97 0.874693 2.77124 0
M  V30 5487 H 519.517 1.47726 2.11033 0
M  V30 5488 H 519.475 0.0903349 3.1427 0
M  V30 5489 N 523.247 -0.488276 1.49845 0
M  V30 5490 C 524.197 -1.58556 1.63842 0
M  V30 5491 C 525.181 -1.53142 0.493586 0
M  V30 5492 O 526.373 -1.60457 0.747169 0
M  V30 5493 C 523.502 -2.97101 1.72005 0
M  V30 5494 C 522.588 -3.07463 2.92108 0
M  V30 5495 N 522.979 -2.87681 4.16021 0
M  V30 5496 C 521.277 -3.3858 2.90309 0
M  V30 5497 C 521.978 -3.0256 4.96822 0
M  V30 5498 N 520.954 -3.32002 4.30437 0
M  V30 5499 H 524.756 -1.41935 2.57355 0
M  V30 5500 H 522.27 -0.694668 1.46793 0
M  V30 5501 H 524.267 -3.75976 1.80132 0
M  V30 5502 H 522.927 -3.14782 0.796375 0
M  V30 5503 H 523.938 -2.63603 4.45796 0
M  V30 5504 H 520.615 -3.62357 2.07372 0
M  V30 5505 H 522.005 -2.9165 6.05301 0
M  V30 5506 N 524.725 -1.39134 -0.740242 0
M  V30 5507 C 526.002 -1.26584 -1.49117 0
M  V30 5508 C 526.382 0.126902 -2.10718 0
M  V30 5509 O 525.73 1.13765 -1.98166 0
M  V30 5510 C 525.94 -2.38619 -2.54681 0
M  V30 5511 C 527.288 -2.77685 -3.21211 0
M  V30 5512 O 528.312 -2.38029 -2.64991 0
M  V30 5513 O 527.171 -3.46115 -4.22926 0
M  V30 5514 H 524.265 -0.495769 -0.661923 0
M  V30 5515 H 526.811 -1.50995 -0.774514 0
M  V30 5516 H 525.583 -3.3175 -2.07504 0
M  V30 5517 H 525.206 -2.15845 -3.33911 0
M  V30 5518 N 526.204 0.969867 -1.24223 0
M  V30 5519 C 527.137 2.06279 -0.975926 0
M  V30 5520 C 528.115 1.62353 0.0895385 0
M  V30 5521 O 529.299 1.88442 -0.0469418 0
M  V30 5522 C 526.426 3.35391 -0.472315 0
M  V30 5523 C 525.472 3.98266 -1.526 0
M  V30 5524 S 526.305 4.36172 -3.10667 0
M  V30 5525 C 527.461 5.68423 -2.62003 0
M  V30 5526 H 527.694 2.28551 -1.90137 0
M  V30 5527 H 525.227 1.10748 -1.07584 0
M  V30 5528 H 527.185 4.10068 -0.188376 0
M  V30 5529 H 525.846 3.1111 0.432378 0
M  V30 5530 H 525.039 4.91307 -1.12399 0
M  V30 5531 H 524.641 3.30009 -1.75983 0
M  V30 5532 H 526.933 6.45842 -2.0468 0
M  V30 5533 H 527.876 6.13478 -3.53625 0
M  V30 5534 H 528.284 5.26928 -2.02502 0
M  V30 5535 N 527.682 1.05563 1.17022 0
M  V30 5536 C 528.959 0.68165 1.83338 0
M  V30 5537 C 529.339 -0.837665 1.93769 0
M  V30 5538 O 528.687 -1.74507 1.47511 0
M  V30 5539 C 528.897 1.375 3.20772 0
M  V30 5540 C 530.245 1.51545 3.96635 0
M  V30 5541 O 531.269 1.33431 3.30264 0
M  V30 5542 O 530.128 1.812 5.15586 0
M  V30 5543 H 527.222 0.240412 0.791285 0
M  V30 5544 H 529.768 1.15545 1.24288 0
M  V30 5545 H 528.54 2.41135 3.08171 0
M  V30 5546 H 528.163 0.890798 3.87493 0
M  V30 5547 N 529.16 -1.33526 0.837174 0
M  V30 5548 C 530.576 -1.50727 0.524743 0
M  V30 5549 C 530.776 -1.77792 -0.948279 0
M  V30 5550 O 529.832 -1.83719 -1.73216 0
M  V30 5551 C 531.145 -2.66299 1.39661 0
M  V30 5552 C 532.693 -2.80183 1.39521 0
M  V30 5553 C 533.168 -3.98815 2.25189 0
M  V30 5554 N 534.659 -4.06047 2.2289 0
M  V30 5555 C 535.394 -4.97032 2.85915 0
M  V30 5556 N 534.89 -5.93143 3.57985 0
M  V30 5557 N 536.683 -4.90015 2.75394 0
M  V30 5558 H 528.834 -1.1422 1.79074 0
M  V30 5559 H 531.097 -0.561399 0.763894 0
M  V30 5560 H 530.803 -2.52974 2.4433 0
M  V30 5561 H 530.677 -3.61663 1.07145 0
M  V30 5562 H 533.064 -2.92942 0.356253 0
M  V30 5563 H 533.145 -1.85586 1.76044 0
M  V30 5564 H 532.789 -3.86817 3.29143 0
M  V30 5565 H 532.719 -4.92654 1.86009 0
M  V30 5566 H 535.21 -3.37262 1.70478 0
M  V30 5567 H 535.523 -6.59227 4.03286 0
M  V30 5568 H 533.868 -5.93223 3.62093 0
M  V30 5569 H 537.059 -4.13894 2.18654 0
M  V30 5570 H 537.232 -5.60724 3.24796 0
M  V30 5571 N 530.638 -0.59345 -1.46 0
M  V30 5572 C 531.885 -0.0831523 -2.02329 0
M  V30 5573 C 532.213 1.28093 -1.46364 0
M  V30 5574 O 531.468 1.85526 -0.622793 0
M  V30 5575 C 531.767 0.021178 -3.57394 0
M  V30 5576 C 531.433 -1.27671 -4.32448 0
M  V30 5577 C 530.095 -1.63227 -4.5267 0
M  V30 5578 C 532.447 -2.13511 -4.7546 0
M  V30 5579 C 529.775 -2.84401 -5.1316 0
M  V30 5580 C 532.127 -3.33922 -5.37289 0
M  V30 5581 C 530.791 -3.69747 -5.55737 0
M  V30 5582 H 530.061 -0.0304276 -0.740375 0
M  V30 5583 H 532.708 -0.772239 -1.75239 0
M  V30 5584 H 531.013 0.793454 -3.83682 0
M  V30 5585 H 532.71 0.431942 -3.98667 0
M  V30 5586 H 529.3 -0.989937 -4.17011 0
M  V30 5587 H 533.484 -1.87344 -4.59582 0
M  V30 5588 H 528.74 -3.12282 -5.25633 0
M  V30 5589 H 532.914 -4.00698 -5.69574 0
M  V30 5590 H 530.541 -4.6373 -6.02377 0
M  V30 5591 N 532.116 1.54067 -0.331816 0
M  V30 5592 C 533.346 2.04833 0.269605 0
M  V30 5593 C 533.754 1.20714 1.45687 0
M  V30 5594 O 533.097 0.232539 1.82222 0
M  V30 5595 C 533.159 3.51386 0.759499 0
M  V30 5596 C 532.823 4.55971 -0.306557 0
M  V30 5597 C 533.82 5.07126 -1.14538 0
M  V30 5598 C 531.505 5.00216 -0.457116 0
M  V30 5599 C 533.499 6.01096 -2.12042 0
M  V30 5600 C 531.186 5.93999 -1.43556 0
M  V30 5601 C 532.184 6.44326 -2.26568 0
M  V30 5602 O 531.872 7.36267 -3.22749 0
M  V30 5603 H 531.604 0.673509 0.0579763 0
M  V30 5604 H 534.158 1.99748 -0.478521 0
M  V30 5605 H 532.388 3.53896 1.55867 0
M  V30 5606 H 534.077 3.85184 1.28017 0
M  V30 5607 H 534.843 4.73716 -1.04009 0
M  V30 5608 H 530.722 4.60652 0.179142 0
M  V30 5609 H 534.266 6.40302 -2.76873 0
M  V30 5610 H 530.163 6.26825 -1.54146 0
M  V30 5611 H 530.931 7.54165 -3.18083 0
M  V30 5612 N 533.594 0.0601682 1.57485 0
M  V30 5613 C 534.542 -0.928899 2.13247 0
M  V30 5614 C 535.536 -1.31616 1.06647 0
M  V30 5615 O 536.742 -1.29476 1.25043 0
M  V30 5616 H 533.117 -0.317455 0.681708 0
M  V30 5617 H 535.088 -0.433566 2.95233 0
M  V30 5618 C 533.837 -2.19121 2.69965 0
M  V30 5619 H 533.16 -1.90204 3.51657 0
M  V30 5620 H 534.6 -2.86465 3.12592 0
M  V30 5621 C 533.059 -2.94195 1.64168 0
M  V30 5622 O 533.589 -3.87468 1.05978 0
M  V30 5623 N 531.795 -2.57089 1.35476 0
M  V30 5624 H 531.342 -1.81314 1.82984 0
M  V30 5625 H 531.3 -3.07624 0.649196 0
M  V30 5626 N 535.072 -1.5615 -0.213296 0
M  V30 5627 C 536.32 -1.79191 -0.934612 0
M  V30 5628 C 536.641 -0.630112 -1.84539 0
M  V30 5629 O 535.911 0.35257 -1.92701 0
M  V30 5630 H 534.491 -0.660937 -0.348097 0
M  V30 5631 H 537.153 -1.93618 -0.22317 0
M  V30 5632 H 536.249 -2.71656 -1.53654 0
M  V30 5633 N 536.55 0.480323 -1.50102 0
M  V30 5634 C 537.798 1.23063 -1.60312 0
M  V30 5635 C 538.119 1.92659 -0.301226 0
M  V30 5636 O 537.389 1.83691 0.680753 0
M  V30 5637 H 535.969 0.457231 -0.590719 0
M  V30 5638 H 538.631 0.554893 -1.86834 0
M  V30 5639 H 537.727 1.9835 -2.40964 0
M  V30 5640 N 538.028 1.39524 0.732853 0
M  V30 5641 C 539.253 1.40329 1.52717 0
M  V30 5642 C 539.678 0.000286574 1.881 0
M  V30 5643 O 539.036 -0.987262 1.52062 0
M  V30 5644 C 539.084 2.28464 2.78992 0
M  V30 5645 O 538.188 1.716 3.75003 0
M  V30 5646 H 537.529 0.47778 0.461109 0
M  V30 5647 H 540.059 1.83546 0.903996 0
M  V30 5648 H 540.069 2.43051 3.27705 0
M  V30 5649 H 538.744 3.30425 2.52572 0
M  V30 5650 H 537.321 1.66267 3.33781 0
M  V30 5651 N 539.506 -0.963266 1.24736 0
M  V30 5652 C 540.734 -1.74166 1.11686 0
M  V30 5653 C 541.149 -1.8589 -0.330187 0
M  V30 5654 O 540.506 -1.35042 -1.2276 0
M  V30 5655 C 540.557 -3.15989 1.75595 0
M  V30 5656 O 540.278 -3.04847 3.14642 0
M  V30 5657 C 541.779 -4.10145 1.68213 0
M  V30 5658 H 538.999 -0.546031 0.389989 0
M  V30 5659 H 541.543 -1.20907 1.64929 0
M  V30 5660 H 539.698 -3.66219 1.26343 0
M  V30 5661 H 540.112 -3.9425 3.4593 0
M  V30 5662 H 541.586 -5.07299 2.17604 0
M  V30 5663 H 542.063 -4.3445 0.644208 0
M  V30 5664 H 542.669 -3.65827 2.16912 0
M  V30 5665 N 540.985 -1.06182 -1.16461 0
M  V30 5666 C 542.401 -0.785065 -1.38956 0
M  V30 5667 C 542.601 0.616103 -1.9185 0
M  V30 5668 O 541.657 1.37686 -2.11657 0
M  V30 5669 C 542.97 -1.84902 -2.37132 0
M  V30 5670 C 544.518 -1.8724 -2.50819 0
M  V30 5671 C 544.993 -2.92686 -3.52277 0
M  V30 5672 N 546.484 -2.91712 -3.59803 0
M  V30 5673 C 547.219 -3.69949 -4.38093 0
M  V30 5674 N 546.715 -4.58 -5.19815 0
M  V30 5675 N 548.508 -3.58346 -4.33064 0
M  V30 5676 H 540.659 -1.96569 -0.804634 0
M  V30 5677 H 542.922 -0.851747 -0.416211 0
M  V30 5678 H 542.628 -2.85518 -2.0536 0
M  V30 5679 H 542.502 -1.69908 -3.36766 0
M  V30 5680 H 544.889 -0.872827 -2.81897 0
M  V30 5681 H 544.97 -2.06311 -1.51226 0
M  V30 5682 H 544.614 -3.92835 -3.21937 0
M  V30 5683 H 544.544 -2.70864 -4.51598 0
M  V30 5684 H 547.035 -2.27876 -3.01464 0
M  V30 5685 H 547.348 -5.14357 -5.76764 0
M  V30 5686 H 545.693 -4.62056 -5.19162 0
M  V30 5687 H 548.884 -2.88943 -3.68279 0
M  V30 5688 H 549.057 -4.19563 -4.93833 0
M  V30 5689 N 542.463 1.3308 -0.844243 0
M  V30 5690 C 543.874 1.7992 -0.498566 0
M  V30 5691 C 544.225 1.69808 0.982834 0
M  V30 5692 O 543.35 1.25051 1.7661 0
M  V30 5693 C 543.945 3.26677 -0.898204 0
M  V30 5694 C 542.504 3.71513 -0.604583 0
M  V30 5695 C 541.651 2.54393 -1.10362 0
M  V30 5696 H 544.602 1.20526 -1.03244 0
M  V30 5697 H 544.623 3.79918 -0.21039 0
M  V30 5698 H 544.135 3.34004 -1.97643 0
M  V30 5699 H 542.236 3.69708 0.46335 0
M  V30 5700 H 542.349 4.64755 -1.16358 0
M  V30 5701 H 540.713 2.49246 -0.524273 0
M  V30 5702 H 541.496 2.6448 -2.18873 0
M  V30 5703 N 543.941 0.601185 1.45683 0
M  V30 5704 C 545.187 0.0940202 2.02582 0
M  V30 5705 C 545.52 -1.26972 1.46941 0
M  V30 5706 O 544.795 -1.83613 0.641612 0
M  V30 5707 C 545.078 0.0481715 3.60068 0
M  V30 5708 C 544.931 1.44212 4.26055 0
M  V30 5709 C 546.25 -0.642975 4.35378 0
M  V30 5710 H 543.369 0.0356404 0.736138 0
M  V30 5711 H 546.011 0.771929 1.73612 0
M  V30 5712 H 544.161 -0.529128 3.8488 0
M  V30 5713 H 545.833 2.06601 4.12449 0
M  V30 5714 H 544.076 2.00465 3.84703 0
M  V30 5715 H 544.747 1.36234 5.34925 0
M  V30 5716 H 547.223 -0.152351 4.15821 0
M  V30 5717 H 546.099 -0.644141 5.45107 0
M  V30 5718 H 546.36 -1.70785 4.0778 0
M  V30 5719 N 545.419 -1.53889 0.339982 0
M  V30 5720 C 546.329 -2.28604 -0.526988 0
M  V30 5721 C 547.345 -1.33578 -1.11503 0
M  V30 5722 O 548.521 -1.66612 -1.13148 0
M  V30 5723 C 545.586 -3.04164 -1.66389 0
M  V30 5724 C 544.647 -4.14809 -1.10599 0
M  V30 5725 C 543.88 -4.86756 -2.18871 0
M  V30 5726 O 544.103 -4.58343 -3.39526 0
M  V30 5727 O 543.037 -5.73289 -1.83366 0
M  V30 5728 H 546.863 -3.03594 0.0802707 0
M  V30 5729 H 544.448 -1.4903 0.105141 0
M  V30 5730 H 546.33 -3.51427 -2.32544 0
M  V30 5731 H 545.005 -2.32035 -2.25703 0
M  V30 5732 H 543.912 -3.71857 -0.409067 0
M  V30 5733 H 545.245 -4.89029 -0.557771 0
M  V30 5734 N 546.897 -0.0685191 -1.57451 0
M  V30 5735 C 547.829 0.929372 -2.09512 0
M  V30 5736 C 548.842 1.26354 -1.02657 0
M  V30 5737 O 550.031 1.2213 -1.30179 0
M  V30 5738 C 547.131 2.24612 -2.53777 0
M  V30 5739 C 546.304 2.09128 -3.84167 0
M  V30 5740 C 545.363 3.24079 -4.14559 0
M  V30 5741 O 544.389 2.99215 -4.8421 0
M  V30 5742 N 545.591 4.49077 -3.67845 0
M  V30 5743 H 548.356 0.484901 -2.95751 0
M  V30 5744 H 545.917 0.11729 -1.61475 0
M  V30 5745 H 547.909 3.00412 -2.71172 0
M  V30 5746 H 546.479 2.60569 -1.72692 0
M  V30 5747 H 545.699 1.17815 -3.76182 0
M  V30 5748 H 546.987 1.9603 -4.69521 0
M  V30 5749 H 546.385 4.72165 -3.11571 0
M  V30 5750 H 544.942 5.21915 -3.90446 0
M  V30 5751 N 548.375 1.56261 0.205012 0
M  V30 5752 C 549.338 1.92908 1.23771 0
M  V30 5753 C 550.338 0.809208 1.38955 0
M  V30 5754 O 551.528 1.07676 1.36936 0
M  V30 5755 C 548.66 2.19442 2.60879 0
M  V30 5756 H 549.853 2.85287 0.924728 0
M  V30 5757 H 547.406 1.49798 0.446125 0
M  V30 5758 H 548.141 1.29668 2.97248 0
M  V30 5759 H 547.926 3.0104 2.51232 0
M  V30 5760 H 549.416 2.48833 3.35368 0
M  V30 5761 N 549.853 -0.472356 1.50355 0
M  V30 5762 C 550.783 -1.57859 1.72055 0
M  V30 5763 C 551.764 -1.60283 0.569505 0
M  V30 5764 O 552.949 -1.7657 0.808503 0
M  V30 5765 C 550.079 -2.96191 1.81351 0
M  V30 5766 C 549.033 -3.08633 2.96529 0
M  V30 5767 C 548.359 -4.486 2.90968 0
M  V30 5768 C 549.659 -2.85969 4.37057 0
M  V30 5769 H 551.353 -1.39953 2.64676 0
M  V30 5770 H 548.899 -0.671846 1.27367 0
M  V30 5771 H 550.852 -3.73507 1.95117 0
M  V30 5772 H 549.576 -3.15251 0.853502 0
M  V30 5773 H 548.235 -2.33749 2.82413 0
M  V30 5774 H 547.883 -4.64577 1.92815 0
M  V30 5775 H 547.583 -4.57861 3.68289 0
M  V30 5776 H 549.107 -5.27938 3.0678 0
M  V30 5777 H 550.521 -3.53036 4.51706 0
M  V30 5778 H 548.918 -3.06677 5.15819 0
M  V30 5779 H 549.988 -1.81838 4.49514 0
M  V30 5780 N 551.331 -1.39911 -0.725443 0
M  V30 5781 C 552.294 -1.39156 -1.82121 0
M  V30 5782 C 553.294 -0.287018 -1.58218 0
M  V30 5783 O 554.484 -0.545421 -1.65441 0
M  V30 5784 C 551.616 -1.1736 -3.20062 0
M  V30 5785 H 552.809 -2.36672 -1.84191 0
M  V30 5786 H 550.362 -1.25615 -0.930079 0
M  V30 5787 H 551.097 -0.205648 -3.23647 0
M  V30 5788 H 550.882 -1.97358 -3.3881 0
M  V30 5789 H 552.372 -1.19596 -4.00108 0
M  V30 5790 N 552.809 0.956637 -1.25245 0
M  V30 5791 C 554.056 1.701 -1.09874 0
M  V30 5792 C 554.384 1.91128 0.36062 0
M  V30 5793 O 553.639 1.47837 1.28229 0
M  V30 5794 C 553.938 3.08996 -1.79601 0
M  V30 5795 C 553.604 3.07774 -3.29523 0
M  V30 5796 C 552.266 3.07149 -3.70423 0
M  V30 5797 C 554.618 3.01257 -4.25316 0
M  V30 5798 C 551.946 2.97752 -5.0553 0
M  V30 5799 C 554.298 2.93403 -5.60444 0
M  V30 5800 C 552.962 2.91111 -6.00675 0
M  V30 5801 H 552.232 0.62244 -0.402056 0
M  V30 5802 H 554.879 1.1178 -1.55491 0
M  V30 5803 H 553.184 3.70848 -1.26408 0
M  V30 5804 H 554.881 3.65407 -1.65162 0
M  V30 5805 H 551.471 3.09032 -2.9698 0
M  V30 5806 H 555.655 3.00861 -3.9471 0
M  V30 5807 H 550.911 2.94346 -5.35883 0
M  V30 5808 H 555.085 2.87321 -6.34366 0
M  V30 5809 H 552.712 2.83586 -7.05325 0
M  V30 5810 N 554.287 1.06798 1.15896 0
M  V30 5811 C 555.515 0.808694 1.90441 0
M  V30 5812 C 555.93 -0.637506 1.77711 0
M  V30 5813 O 555.287 -1.43684 1.12522 0
M  V30 5814 C 555.338 1.20068 3.40978 0
M  V30 5815 O 555.059 2.59013 3.53333 0
M  V30 5816 C 556.56 0.96987 4.3256 0
M  V30 5817 H 553.78 0.292809 0.603742 0
M  V30 5818 H 556.324 1.42296 1.46874 0
M  V30 5819 H 554.479 0.630842 3.82229 0
M  V30 5820 H 554.893 2.7485 4.46719 0
M  V30 5821 H 556.367 1.29371 5.36626 0
M  V30 5822 H 556.844 -0.0941209 4.39099 0
M  V30 5823 H 557.45 1.52433 3.97044 0
M  V30 5824 N 555.766 -1.3263 0.851289 0
M  V30 5825 C 556.696 -2.31449 0.308771 0
M  V30 5826 C 557.677 -1.59531 -0.590255 0
M  V30 5827 O 558.862 -1.87351 -0.511205 0
M  V30 5828 C 555.992 -3.43586 -0.506548 0
M  V30 5829 C 554.946 -4.26963 0.297753 0
M  V30 5830 C 554.272 -5.30831 -0.642094 0
M  V30 5831 C 555.572 -4.99643 1.52166 0
M  V30 5832 H 557.266 -2.77074 1.13447 0
M  V30 5833 H 554.812 -1.33207 0.546971 0
M  V30 5834 H 556.765 -4.11754 -0.896474 0
M  V30 5835 H 555.489 -2.96681 -1.36558 0
M  V30 5836 H 554.148 -3.60437 0.669391 0
M  V30 5837 H 553.796 -4.8018 -1.49788 0
M  V30 5838 H 553.496 -5.87501 -0.107968 0
M  V30 5839 H 555.02 -6.01862 -1.02927 0
M  V30 5840 H 556.434 -5.6051 1.20421 0
M  V30 5841 H 554.831 -5.66022 1.99347 0
M  V30 5842 H 555.901 -4.27701 2.28474 0
M  V30 5843 N 557.244 -0.608902 -1.45362 0
M  V30 5844 C 558.472 -0.111013 -2.06602 0
M  V30 5845 C 558.887 1.20516 -1.45332 0
M  V30 5846 O 558.244 1.73437 -0.567978 0
M  V30 5847 C 558.295 0.033688 -3.61484 0
M  V30 5848 O 558.016 -1.23041 -4.20467 0
M  V30 5849 C 559.517 0.562882 -4.39712 0
M  V30 5850 H 556.737 -0.0694453 -0.667397 0
M  V30 5851 H 559.281 -0.837008 -1.86586 0
M  V30 5852 H 557.436 0.710016 -3.80838 0
M  V30 5853 H 557.85 -1.06094 -5.13658 0
M  V30 5854 H 559.324 0.613213 -5.48583 0
M  V30 5855 H 559.801 1.58543 -4.09586 0
M  V30 5856 H 560.407 -0.0794454 -4.25226 0
M  V30 5857 N 558.722 1.53707 -0.348139 0
M  V30 5858 C 559.947 2.05877 0.250883 0
M  V30 5859 C 560.372 1.22115 1.43072 0
M  V30 5860 O 559.73 0.235986 1.79758 0
M  V30 5861 C 559.778 3.54886 0.639416 0
M  V30 5862 O 558.882 3.73948 1.73888 0
M  V30 5863 H 558.223 0.662754 0.040653 0
M  V30 5864 H 560.753 1.98303 -0.503685 0
M  V30 5865 H 560.763 3.97601 0.915295 0
M  V30 5866 H 559.438 4.153 -0.223386 0
M  V30 5867 H 558.015 3.43134 1.45991 0
M  V30 5868 N 560.2 0.0768682 1.57412 0
M  V30 5869 C 561.616 -0.279772 1.57129 0
M  V30 5870 C 561.816 -1.69688 1.08666 0
M  V30 5871 O 560.872 -2.40953 0.754843 0
M  V30 5872 C 562.185 -0.0848055 3.0058 0
M  V30 5873 C 563.733 -0.153954 3.12621 0
M  V30 5874 C 564.208 0.0127946 4.57998 0
M  V30 5875 N 565.699 -0.0426435 4.6318 0
M  V30 5876 C 566.434 0.0618892 5.73367 0
M  V30 5877 N 565.93 0.220229 6.9245 0
M  V30 5878 N 567.723 0.00446072 5.621 0
M  V30 5879 H 559.874 1.00297 1.87228 0
M  V30 5880 H 562.137 0.391565 0.863354 0
M  V30 5881 H 561.843 0.89325 3.40168 0
M  V30 5882 H 561.717 -0.834961 3.67843 0
M  V30 5883 H 564.104 -1.1225 2.72917 0
M  V30 5884 H 564.185 0.627389 2.47987 0
M  V30 5885 H 563.829 0.978128 4.98392 0
M  V30 5886 H 563.759 -0.788016 5.20671 0
M  V30 5887 H 566.25 -0.163226 3.77547 0
M  V30 5888 H 566.563 0.291999 7.72248 0
M  V30 5889 H 564.908 0.255658 6.9453 0
M  V30 5890 H 568.099 -0.117979 4.67951 0
M  V30 5891 H 568.272 0.0893796 6.47938 0
M  V30 5892 N 561.678 -1.56367 -0.196722 0
M  V30 5893 C 562.926 -1.80172 -0.915554 0
M  V30 5894 C 563.247 -0.649649 -1.8386 0
M  V30 5895 O 562.517 0.332111 -1.93064 0
M  V30 5896 H 561.097 -0.664592 -0.341067 0
M  V30 5897 H 563.759 -1.93844 -0.202622 0
M  V30 5898 H 562.855 -2.7327 -1.50764 0
M  V30 5899 N 563.156 0.464375 -1.50603 0
M  V30 5900 C 564.402 1.21776 -1.62168 0
M  V30 5901 C 564.735 1.91476 -0.324154 0
M  V30 5902 O 564.01 1.8242 0.674782 0
M  V30 5903 C 564.293 2.25614 -2.80661 0
M  V30 5904 C 564.146 1.60175 -4.20314 0
M  V30 5905 C 565.465 3.26862 -2.94702 0
M  V30 5906 H 562.584 0.44137 -0.590222 0
M  V30 5907 H 565.226 0.510623 -1.8301 0
M  V30 5908 H 563.376 2.85923 -2.63021 0
M  V30 5909 H 565.048 1.03411 -4.4956 0
M  V30 5910 H 563.291 0.904697 -4.24261 0
M  V30 5911 H 563.962 2.35665 -4.99165 0
M  V30 5912 H 566.438 2.76582 -3.10872 0
M  V30 5913 H 565.314 3.96839 -3.79223 0
M  V30 5914 H 565.575 3.91382 -2.05603 0
M  V30 5915 N 564.634 1.40294 0.718013 0
M  V30 5916 C 566.045 1.34289 1.29705 0
M  V30 5917 C 566.396 0.0152228 1.96194 0
M  V30 5918 O 565.521 -0.88682 1.97394 0
M  V30 5919 C 566.116 2.43219 2.3586 0
M  V30 5920 C 564.675 2.40682 2.89394 0
M  V30 5921 C 563.822 2.24223 1.63154 0
M  V30 5922 H 566.773 1.50135 0.514312 0
M  V30 5923 H 566.794 2.10986 3.16647 0
M  V30 5924 H 566.306 3.39836 1.87439 0
M  V30 5925 H 564.407 1.47756 3.42051 0
M  V30 5926 H 564.52 3.36177 3.41353 0
M  V30 5927 H 562.884 1.71696 1.88129 0
M  V30 5928 H 563.667 3.22834 1.16761 0
M  V30 5929 N 566.112 -0.949982 1.2575 0
M  V30 5930 C 567.075 -2.02894 1.06615 0
M  V30 5931 C 568.075 -1.60791 0.0173905 0
M  V30 5932 O 569.265 -1.72249 0.260003 0
M  V30 5933 C 566.397 -3.35219 0.619751 0
M  V30 5934 H 567.59 -2.21302 2.02399 0
M  V30 5935 H 565.143 -1.12772 1.08223 0
M  V30 5936 H 565.878 -3.22508 -0.340486 0
M  V30 5937 H 565.663 -3.67129 1.37692 0
M  V30 5938 H 567.153 -4.14505 0.507443 0
M  V30 5939 N 567.59 -1.07411 -1.15328 0
M  V30 5940 C 568.839 -0.792643 -1.85473 0
M  V30 5941 C 569.152 0.683789 -1.83259 0
M  V30 5942 O 570.358 1.08005 -2.49093 0
M  V30 5943 C 568.814 -1.36787 -3.32892 0
M  V30 5944 C 568.422 -2.87536 -3.43551 0
M  V30 5945 C 570.166 -1.16444 -4.08217 0
M  V30 5946 C 568.073 -3.38247 -4.85122 0
M  V30 5947 H 567.003 -0.292838 -0.694811 0
M  V30 5948 H 569.654 -1.29426 -1.30082 0
M  V30 5949 H 568.036 -0.793993 -3.87958 0
M  V30 5950 H 569.21 -3.50973 -2.98588 0
M  V30 5951 H 567.525 -3.06676 -2.81672 0
M  V30 5952 H 570.122 -1.51808 -5.12697 0
M  V30 5953 H 570.465 -0.10353 -4.16171 0
M  V30 5954 H 570.998 -1.70472 -3.59422 0
M  V30 5955 H 567.737 -4.43866 -4.82351 0
M  V30 5956 H 567.257 -2.79564 -5.30664 0
M  V30 5957 H 568.936 -3.34238 -5.5398 0
M  V30 5958 N 569.068 1.32177 -0.85831 0
M  V30 5959 C 570.298 2.01021 -0.476889 0
M  V30 5960 C 570.706 1.64653 0.931995 0
M  V30 5961 O 570.049 0.865713 1.62022 0
M  V30 5962 C 570.111 3.55413 -0.540528 0
M  V30 5963 C 569.775 4.1522 -1.90895 0
M  V30 5964 C 570.772 4.3318 -2.87491 0
M  V30 5965 C 568.457 4.51212 -2.20709 0
M  V30 5966 C 570.451 4.86306 -4.1205 0
M  V30 5967 C 568.138 5.04042 -3.45521 0
M  V30 5968 C 569.136 5.21538 -4.41007 0
M  V30 5969 O 568.824 5.73238 -5.63608 0
M  V30 5970 H 568.556 0.650059 -0.18547 0
M  V30 5971 H 571.11 1.69648 -1.15796 0
M  V30 5972 H 569.34 3.86196 0.19741 0
M  V30 5973 H 571.029 4.05526 -0.174191 0
M  V30 5974 H 571.795 4.05704 -2.65762 0
M  V30 5975 H 567.674 4.36878 -1.4717 0
M  V30 5976 H 571.218 4.99877 -4.86589 0
M  V30 5977 H 567.115 5.30952 -3.67098 0
M  V30 5978 H 567.883 5.91625 -5.65617 0
M  V30 5979 N 570.547 0.616602 1.45037 0
M  V30 5980 C 571.777 0.121791 2.06241 0
M  V30 5981 C 572.185 -1.20289 1.46038 0
M  V30 5982 O 571.528 -1.7456 0.572242 0
M  V30 5983 C 571.59 -0.0827345 3.59405 0
M  V30 5984 C 571.254 1.16153 4.41993 0
M  V30 5985 C 572.251 2.08183 4.76399 0
M  V30 5986 C 569.936 1.39288 4.82601 0
M  V30 5987 C 571.93 3.21668 5.5028 0
M  V30 5988 C 569.617 2.53073 5.56235 0
M  V30 5989 C 570.615 3.44091 5.89992 0
M  V30 5990 O 570.303 4.55894 6.6213 0
M  V30 5991 H 570.035 0.0701667 0.672349 0
M  V30 5992 H 572.589 0.846877 1.87129 0
M  V30 5993 H 570.819 -0.862812 3.76952 0
M  V30 5994 H 572.508 -0.530273 4.02421 0
M  V30 5995 H 573.274 1.91538 4.45576 0
M  V30 5996 H 569.153 0.693396 4.55755 0
M  V30 5997 H 572.697 3.92733 5.76547 0
M  V30 5998 H 568.594 2.69667 5.86472 0
M  V30 5999 H 569.362 4.5469 6.80587 0
M  V30 6000 N 572.025 -1.5352 0.356285 0
M  V30 6001 C 573.273 -2.00719 -0.235837 0
M  V30 6002 C 573.594 -1.24551 -1.5004 0
M  V30 6003 O 572.864 -0.356185 -1.92635 0
M  V30 6004 H 571.444 -0.741542 -0.0901366 0
M  V30 6005 H 574.106 -1.88887 0.480378 0
M  V30 6006 H 573.202 -3.08551 -0.469357 0
M  V30 6007 N 573.503 -0.0852151 -1.57369 0
M  V30 6008 C 574.731 0.58946 -1.98325 0
M  V30 6009 C 575.146 1.62333 -0.96403 0
M  V30 6010 O 574.503 1.82438 0.0476395 0
M  V30 6011 C 574.554 1.24604 -3.39347 0
M  V30 6012 O 574.275 0.253532 -4.37366 0
M  V30 6013 C 575.776 2.00726 -3.95252 0
M  V30 6014 H 572.996 0.158783 -0.651942 0
M  V30 6015 H 575.54 -0.161584 -2.03861 0
M  V30 6016 H 573.695 1.94808 -3.34856 0
M  V30 6017 H 574.109 0.726207 -5.19448 0
M  V30 6018 H 575.583 2.42039 -4.96106 0
M  V30 6019 H 576.06 2.86919 -3.32527 0
M  V30 6020 H 576.666 1.3536 -4.03185 0
M  V30 6021 N 574.981 1.5647 0.188427 0
M  V30 6022 C 575.891 1.98285 1.2538 0
M  V30 6023 C 576.907 0.891535 1.49424 0
M  V30 6024 O 578.083 1.19782 1.61908 0
M  V30 6025 C 575.148 2.31965 2.57669 0
M  V30 6026 C 574.209 3.54838 2.41638 0
M  V30 6027 C 573.442 3.86901 3.67618 0
M  V30 6028 O 573.665 3.20163 4.72072 0
M  V30 6029 O 572.599 4.80309 3.62749 0
M  V30 6030 H 576.425 2.89145 0.928912 0
M  V30 6031 H 574.01 1.44112 0.393955 0
M  V30 6032 H 575.892 2.54673 3.35737 0
M  V30 6033 H 574.567 1.44271 2.89771 0
M  V30 6034 H 573.474 3.37369 1.61658 0
M  V30 6035 H 574.807 4.43019 2.14465 0
M  V30 6036 N 576.459 -0.456382 1.50847 0
M  V30 6037 C 577.391 -1.57033 1.66953 0
M  V30 6038 C 578.404 -1.53207 0.550593 0
M  V30 6039 O 579.593 -1.58328 0.824285 0
M  V30 6040 C 576.693 -2.95937 1.65149 0
M  V30 6041 C 575.866 -3.24475 2.93317 0
M  V30 6042 C 574.925 -4.43007 2.83957 0
M  V30 6043 O 573.951 -4.42592 3.57912 0
M  V30 6044 N 575.153 -5.45503 1.9851 0
M  V30 6045 H 577.918 -1.43629 2.63042 0
M  V30 6046 H 575.479 -0.645037 1.48495 0
M  V30 6047 H 577.471 -3.73224 1.56481 0
M  V30 6048 H 576.041 -3.03036 0.767343 0
M  V30 6049 H 575.261 -2.35664 3.16 0
M  V30 6050 H 576.549 -3.4036 3.78196 0
M  V30 6051 H 575.947 -5.48668 1.37766 0
M  V30 6052 H 574.504 -6.21716 1.95735 0
M  V30 6053 N 577.937 -1.40673 -0.710563 0
M  V30 6054 C 579.167 -1.4234 -1.49742 0
M  V30 6055 C 579.575 -0.022821 -1.89186 0
M  V30 6056 O 578.918 0.964773 -1.56326 0
M  V30 6057 C 578.98 -2.25509 -2.79975 0
M  V30 6058 C 578.644 -3.73862 -2.62824 0
M  V30 6059 C 579.641 -4.66379 -2.29752 0
M  V30 6060 C 577.326 -4.17735 -2.78932 0
M  V30 6061 C 579.32 -6.00756 -2.13006 0
M  V30 6062 C 577.007 -5.5218 -2.61802 0
M  V30 6063 C 578.005 -6.43505 -2.28888 0
M  V30 6064 O 577.693 -7.75472 -2.11894 0
M  V30 6065 H 577.425 -0.487311 -0.468513 0
M  V30 6066 H 579.979 -1.8542 -0.883668 0
M  V30 6067 H 578.209 -1.77218 -3.43701 0
M  V30 6068 H 579.898 -2.19058 -3.41714 0
M  V30 6069 H 580.664 -4.33778 -2.16936 0
M  V30 6070 H 576.543 -3.46967 -3.03537 0
M  V30 6071 H 580.087 -6.72003 -1.87237 0
M  V30 6072 H 575.984 -5.84365 -2.74204 0
M  V30 6073 H 576.752 -7.86458 -2.26775 0
M  V30 6074 N 579.415 0.9433 -1.26252 0
M  V30 6075 C 580.348 2.04162 -1.01946 0
M  V30 6076 C 581.326 1.62507 0.0550808 0
M  V30 6077 O 582.51 1.883 -0.0869025 0
M  V30 6078 C 579.637 3.34313 -0.54335 0
M  V30 6079 C 578.683 3.94939 -1.61013 0
M  V30 6080 S 579.516 4.29484 -3.19849 0
M  V30 6081 C 580.672 5.62738 -2.74001 0
M  V30 6082 H 580.905 2.24466 -1.94942 0
M  V30 6083 H 578.438 1.08441 -1.09909 0
M  V30 6084 H 580.396 4.09576 -0.275315 0
M  V30 6085 H 579.057 3.11957 0.36629 0
M  V30 6086 H 578.25 4.88812 -1.22795 0
M  V30 6087 H 577.852 3.26202 -1.82943 0
M  V30 6088 H 580.144 6.41356 -2.18333 0
M  V30 6089 H 581.087 6.05839 -3.66558 0
M  V30 6090 H 581.495 5.22514 -2.13634 0
M  V30 6091 N 580.893 1.08022 1.14757 0
M  V30 6092 C 582.121 0.828847 1.89572 0
M  V30 6093 C 582.536 -0.618621 1.78377 0
M  V30 6094 O 581.893 -1.42482 1.1404 0
M  V30 6095 C 581.944 1.23677 3.39685 0
M  V30 6096 O 581.665 2.62746 3.50566 0
M  V30 6097 C 583.166 1.01569 4.31507 0
M  V30 6098 H 580.386 0.299196 0.600602 0
M  V30 6099 H 582.93 1.43846 1.45357 0
M  V30 6100 H 581.085 0.671347 3.81539 0
M  V30 6101 H 581.499 2.79573 4.43778 0
M  V30 6102 H 582.973 1.35055 5.35223 0
M  V30 6103 H 583.45 -0.0475433 4.39174 0
M  V30 6104 H 584.056 1.56636 3.95405 0
M  V30 6105 N 582.371 -1.3172 0.865308 0
M  V30 6106 C 583.619 -1.96487 0.472995 0
M  V30 6107 C 583.94 -1.68761 -0.976975 0
M  V30 6108 O 583.21 -1.00051 -1.68424 0
M  V30 6109 H 581.79 -0.726947 0.171922 0
M  V30 6110 H 584.452 -1.60612 1.10407 0
M  V30 6111 H 583.548 -3.0574 0.62687 0
M  V30 6112 N 583.85 -0.624285 -1.44708 0
M  V30 6113 C 584.798 0.0969952 -2.32398 0
M  V30 6114 C 585.792 0.842762 -1.46949 0
M  V30 6115 O 586.998 0.756436 -1.63334 0
M  V30 6116 H 583.373 0.0501306 -0.750327 0
M  V30 6117 H 585.344 -0.660767 -2.90992 0
M  V30 6118 C 584.093 1.06967 -3.30837 0
M  V30 6119 H 583.416 0.505242 -3.96595 0
M  V30 6120 H 584.856 1.54397 -3.94889 0
M  V30 6121 C 583.315 2.15153 -2.5925 0
M  V30 6122 O 583.845 3.23139 -2.3863 0
M  V30 6123 N 582.051 1.90898 -2.19103 0
M  V30 6124 H 581.598 1.03086 -2.36074 0
M  V30 6125 H 581.556 2.63485 -1.71531 0
M  V30 6126 N 585.328 1.53329 -0.364422 0
M  V30 6127 C 586.576 2.00842 0.225189 0
M  V30 6128 C 586.897 1.25345 1.49378 0
M  V30 6129 O 586.167 0.366396 1.92443 0
M  V30 6130 H 584.747 0.742009 0.0862027 0
M  V30 6131 H 587.409 1.8863 -0.490389 0
M  V30 6132 H 586.505 3.08795 0.452987 0
M  V30 6133 N 586.806 0.0935595 1.57322 0
M  V30 6134 C 588.083 -0.612692 1.85756 0
M  V30 6135 C 588.463 -1.86439 0.99013 0
M  V30 6136 O 587.811 -2.28416 0.0621362 0
M  V30 6137 C 588.021 -0.929547 3.36393 0
M  V30 6138 C 589.369 -1.29366 4.04413 0
M  V30 6139 O 590.393 -1.02061 3.41265 0
M  V30 6140 O 589.252 -1.80498 5.15832 0
M  V30 6141 H 586.346 -0.306444 0.768128 0
M  V30 6142 H 588.892 0.126141 1.69231 0
M  V30 6143 H 587.664 -0.0414766 3.91278 0
M  V30 6144 H 587.287 -1.72441 3.5826 0
M  V30 6145 N 588.284 -1.56567 -0.180126 0
M  V30 6146 C 589.695 -1.7126 -0.743422 0
M  V30 6147 C 590.046 -0.70263 -1.83187 0
M  V30 6148 O 589.171 0.137856 -2.1596 0
M  V30 6149 C 589.766 -3.10512 -1.35528 0
M  V30 6150 C 588.325 -3.26919 -1.8655 0
M  V30 6151 C 587.472 -2.67213 -0.741099 0
M  V30 6152 H 590.423 -1.58636 0.0451543 0
M  V30 6153 H 590.444 -3.08673 -2.22489 0
M  V30 6154 H 589.956 -3.83997 -0.562862 0
M  V30 6155 H 588.057 -2.58376 -2.68464 0
M  V30 6156 H 588.17 -4.34574 -2.01699 0
M  V30 6157 H 586.534 -2.26788 -1.15927 0
M  V30 6158 H 587.317 -3.43277 0.0393291 0
M  V30 6159 N 589.762 0.448376 -1.51087 0
M  V30 6160 C 590.992 1.21965 -1.66757 0
M  V30 6161 C 591.4 1.85748 -0.359753 0
M  V30 6162 O 590.743 1.71022 0.670604 0
M  V30 6163 C 590.805 2.35284 -2.71812 0
M  V30 6164 C 590.469 1.91957 -4.1473 0
M  V30 6165 C 591.466 1.42921 -4.9987 0
M  V30 6166 C 589.151 1.99985 -4.60772 0
M  V30 6167 C 591.145 1.02485 -6.29107 0
M  V30 6168 C 588.832 1.5916 -5.90009 0
M  V30 6169 C 589.83 1.10491 -6.74004 0
M  V30 6170 O 589.518 0.702413 -8.00825 0
M  V30 6171 H 589.25 0.374125 -0.563034 0
M  V30 6172 H 591.804 0.538927 -1.98204 0
M  V30 6173 H 590.034 3.06599 -2.35657 0
M  V30 6174 H 591.723 2.97184 -2.76472 0
M  V30 6175 H 592.489 1.36123 -4.65506 0
M  V30 6176 H 588.368 2.36814 -3.95525 0
M  V30 6177 H 591.912 0.644271 -6.94619 0
M  V30 6178 H 587.809 1.65626 -6.2389 0
M  V30 6179 H 588.577 0.829248 -8.14288 0
M  V30 6180 N 591.24 1.41047 0.703093 0
M  V30 6181 C 592.188 1.42494 1.83843 0
M  V30 6182 C 593.182 0.303885 1.66652 0
M  V30 6183 O 594.388 0.475544 1.73605 0
M  V30 6184 H 590.763 0.445685 0.605697 0
M  V30 6185 H 592.734 2.38194 1.79739 0
M  V30 6186 C 591.483 1.31666 3.21807 0
M  V30 6187 H 590.806 2.17212 3.35647 0
M  V30 6188 H 592.246 1.36738 4.01346 0
M  V30 6189 C 590.705 0.0281828 3.36888 0
M  V30 6190 O 591.235 -0.929995 3.90786 0
M  V30 6191 N 589.441 -0.0454322 2.90564 0
M  V30 6192 H 588.988 0.735046 2.4689 0
M  V30 6193 H 588.946 -0.906968 3.01034 0
M  V30 6194 N 592.718 -0.936591 1.26751 0
M  V30 6195 C 594.134 -1.21095 1.03963 0
M  V30 6196 C 594.334 -2.00156 -0.232372 0
M  V30 6197 O 593.39 -2.3434 -0.940274 0
M  V30 6198 C 594.703 -1.96775 2.27377 0
M  V30 6199 C 596.251 -2.09749 2.32324 0
M  V30 6200 C 596.726 -2.88832 3.55443 0
M  V30 6201 N 598.217 -2.96404 3.55948 0
M  V30 6202 C 598.952 -3.58036 4.47881 0
M  V30 6203 N 598.448 -4.21132 5.50109 0
M  V30 6204 N 600.241 -3.55353 4.35523 0
M  V30 6205 H 592.392 -0.408173 2.08441 0
M  V30 6206 H 594.655 -0.243139 0.91629 0
M  V30 6207 H 594.361 -1.46094 3.19921 0
M  V30 6208 H 594.235 -2.97424 2.31989 0
M  V30 6209 H 596.622 -2.5962 1.40291 0
M  V30 6210 H 596.703 -1.08347 2.31721 0
M  V30 6211 H 596.347 -2.39647 4.47808 0
M  V30 6212 H 596.277 -3.90499 3.53296 0
M  V30 6213 H 598.768 -2.51552 2.82011 0
M  V30 6214 H 599.081 -4.66071 6.16439 0
M  V30 6215 H 597.426 -4.19705 5.53961 0
M  V30 6216 H 600.617 -3.05256 3.54875 0
M  V30 6217 H 600.79 -4.03097 5.07363 0
M  V30 6218 N 594.196 -1.08629 -1.14182 0
M  V30 6219 C 595.159 -0.722027 -2.1753 0
M  V30 6220 C 596.159 0.244305 -1.58933 0
M  V30 6221 O 597.349 0.0235545 -1.74184 0
M  V30 6222 C 594.481 -0.0663966 -3.40835 0
M  V30 6223 H 595.674 -1.63719 -2.51269 0
M  V30 6224 H 593.227 -0.884442 -1.28869 0
M  V30 6225 H 593.962 0.860389 -3.12678 0
M  V30 6226 H 593.747 -0.761598 -3.84632 0
M  V30 6227 H 595.237 0.173346 -4.1724 0
M  V30 6228 N 595.674 1.31259 -0.872281 0
M  V30 6229 C 596.607 2.26544 -0.274394 0
M  V30 6230 C 597.585 1.51213 0.597776 0
M  V30 6231 O 598.769 1.80277 0.550687 0
M  V30 6232 C 595.896 3.33139 0.611256 0
M  V30 6233 C 594.942 4.26077 -0.189876 0
M  V30 6234 S 595.775 5.11971 -1.56989 0
M  V30 6235 C 596.931 6.2208 -0.690427 0
M  V30 6236 H 597.164 2.76908 -1.0821 0
M  V30 6237 H 594.697 1.3906 -0.670939 0
M  V30 6238 H 596.655 3.95024 1.11654 0
M  V30 6239 H 595.316 2.81525 1.39294 0
M  V30 6240 H 594.509 5.01657 0.485433 0
M  V30 6241 H 594.111 3.68701 -0.627339 0
M  V30 6242 H 596.403 6.77429 0.098001 0
M  V30 6243 H 597.346 6.93768 -1.41742 0
M  V30 6244 H 597.754 5.63915 -0.256953 0
M  V30 6245 N 597.152 0.631951 1.44375 0
M  V30 6246 C 598.085 -0.121822 2.27875 0
M  V30 6247 C 599.063 -0.850457 1.38586 0
M  V30 6248 O 600.247 -0.854378 1.68026 0
M  V30 6249 C 597.374 -1.17859 3.17533 0
M  V30 6250 C 596.42 -0.550391 4.22934 0
M  V30 6251 S 597.253 0.660145 5.31415 0
M  V30 6252 C 598.409 -0.396613 6.24642 0
M  V30 6253 H 598.642 0.586537 2.91457 0
M  V30 6254 H 596.175 0.420146 1.48574 0
M  V30 6255 H 598.133 -1.78335 3.69739 0
M  V30 6256 H 596.794 -1.85915 2.53169 0
M  V30 6257 H 595.987 -1.34631 4.85685 0
M  V30 6258 H 595.589 -0.0202306 3.73995 0
M  V30 6259 H 597.881 -1.26893 6.65511 0
M  V30 6260 H 598.824 0.195345 7.0783 0
M  V30 6261 H 599.232 -0.72288 5.59852 0
M  V30 6262 N 598.631 -1.53133 0.372548 0
M  V30 6263 C 599.859 -2.05774 -0.215515 0
M  V30 6264 C 600.274 -1.24555 -1.41886 0
M  V30 6265 O 599.631 -0.287951 -1.80214 0
M  V30 6266 C 599.682 -3.5645 -0.602161 0
M  V30 6267 O 599.403 -4.34591 0.553359 0
M  V30 6268 C 600.904 -4.25374 -1.24787 0
M  V30 6269 H 598.124 -0.670009 -0.0364529 0
M  V30 6270 H 600.668 -1.97434 0.532934 0
M  V30 6271 H 598.823 -3.64918 -1.30052 0
M  V30 6272 H 599.237 -5.23954 0.239336 0
M  V30 6273 H 600.711 -5.32097 -1.46891 0
M  V30 6274 H 601.188 -3.79531 -2.21026 0
M  V30 6275 H 601.794 -4.21177 -0.590752 0
M  V30 6276 N 600.109 -0.101901 -1.5727 0
M  V30 6277 C 601.334 0.571759 -1.99363 0
M  V30 6278 C 601.759 1.60507 -0.980768 0
M  V30 6279 O 601.117 1.81231 0.0498517 0
M  V30 6280 C 601.165 1.18996 -3.404 0
M  V30 6281 O 600.269 2.30572 -3.41922 0
M  V30 6282 H 599.61 0.144449 -0.648098 0
M  V30 6283 H 602.14 -0.185325 -2.03759 0
M  V30 6284 H 602.15 1.52962 -3.78241 0
M  V30 6285 H 600.825 0.432984 -4.1364 0
M  V30 6286 H 599.402 1.98173 -3.15883 0
M  V30 6287 N 601.587 1.56661 0.17182 0
M  V30 6288 C 602.834 1.81965 0.888529 0
M  V30 6289 C 603.162 0.6789 1.82267 0
M  V30 6290 O 602.417 -0.333875 1.92831 0
M  V30 6291 C 602.716 3.13435 1.71736 0
M  V30 6292 C 602.382 4.41159 0.932184 0
M  V30 6293 C 601.044 4.75851 0.715481 0
M  V30 6294 C 603.396 5.19803 0.381387 0
M  V30 6295 C 600.724 5.86666 -0.063126 0
M  V30 6296 C 603.076 6.31433 -0.384129 0
M  V30 6297 C 601.74 6.64692 -0.611637 0
M  V30 6298 H 601.01 0.665859 0.325136 0
M  V30 6299 H 603.657 1.90884 0.153495 0
M  V30 6300 H 601.962 2.99857 2.52177 0
M  V30 6301 H 603.659 3.30224 2.27493 0
M  V30 6302 H 600.249 4.13947 1.11112 0
M  V30 6303 H 604.433 4.93396 0.536148 0
M  V30 6304 H 599.689 6.10892 -0.249136 0
M  V30 6305 H 603.863 6.91577 -0.818185 0
M  V30 6306 H 601.49 7.50398 -1.21684 0
M  V30 6307 N 603.065 -0.440357 1.51323 0
M  V30 6308 C 604.013 -1.55492 1.72988 0
M  V30 6309 C 605.007 -1.58564 0.596138 0
M  V30 6310 O 606.213 -1.62345 0.777443 0
M  V30 6311 H 602.588 -0.516532 0.546533 0
M  V30 6312 H 604.559 -1.34392 2.66423 0
M  V30 6313 C 603.308 -2.93176 1.86931 0
M  V30 6314 H 602.631 -2.91543 2.73574 0
M  V30 6315 H 604.071 -3.70537 2.06103 0
M  V30 6316 C 602.53 -3.30988 0.628365 0
M  V30 6317 O 603.06 -4.01106 -0.218367 0
M  V30 6318 N 601.266 -2.86719 0.473339 0
M  V30 6319 H 600.813 -2.2983 1.16345 0
M  V30 6320 H 600.771 -3.12381 -0.355727 0
M  V30 6321 N 604.543 -1.41418 -0.695603 0
M  V30 6322 C 605.771 -1.4413 -1.48439 0
M  V30 6323 C 606.186 -0.0465698 -1.88743 0
M  V30 6324 O 605.543 0.934117 -1.56782 0
M  V30 6325 C 605.594 -2.34998 -2.74696 0
M  V30 6326 O 605.315 -3.69043 -2.36091 0
M  V30 6327 C 606.816 -2.46513 -3.68438 0
M  V30 6328 H 604.036 -0.490905 -0.457442 0
M  V30 6329 H 606.58 -1.85702 -0.856454 0
M  V30 6330 H 604.735 -1.96735 -3.33728 0
M  V30 6331 H 605.149 -4.17505 -3.17474 0
M  V30 6332 H 606.623 -3.1426 -4.53811 0
M  V30 6333 H 607.1 -1.49638 -4.12922 0
M  V30 6334 H 607.706 -2.85412 -3.1531 0
M  V30 6335 N 606.021 0.929856 -1.27246 0
M  V30 6336 C 607.246 1.71674 -1.16374 0
M  V30 6337 C 607.671 1.86064 0.276024 0
M  V30 6338 O 607.029 1.3591 1.19992 0
M  V30 6339 C 607.077 3.09526 -1.85003 0
M  V30 6340 O 606.181 3.96142 -1.14653 0
M  V30 6341 H 605.522 0.52629 -0.404863 0
M  V30 6342 H 608.052 1.16381 -1.68276 0
M  V30 6343 H 608.062 3.59852 -1.92276 0
M  V30 6344 H 606.737 2.98369 -2.89739 0
M  V30 6345 H 605.314 3.54584 -1.15433 0
M  V30 6346 N 607.499 1.09233 1.13605 0
M  V30 6347 C 608.727 0.848908 1.88683 0
M  V30 6348 C 609.142 -0.599667 1.79024 0
M  V30 6349 O 608.499 -1.41265 1.15544 0
M  V30 6350 C 608.55 1.27273 3.38355 0
M  V30 6351 O 608.271 2.66449 3.47759 0
M  V30 6352 C 609.772 1.0614 4.30406 0
M  V30 6353 H 606.992 0.305549 0.597395 0
M  V30 6354 H 609.536 1.4538 1.43823 0
M  V30 6355 H 607.691 0.711776 3.80805 0
M  V30 6356 H 608.105 2.84264 4.40788 0
M  V30 6357 H 609.579 1.40725 5.33761 0
M  V30 6358 H 610.056 -0.000960332 4.392 0
M  V30 6359 H 610.662 1.60821 3.93722 0
M  V30 6360 N 608.977 -1.30795 0.87923 0
M  V30 6361 C 610.205 -2.00527 0.509548 0
M  V30 6362 C 610.62 -1.65944 -0.90045 0
M  V30 6363 O 609.977 -0.893525 -1.5913 0
M  V30 6364 C 610.028 -3.55276 0.667943 0
M  V30 6365 O 609.749 -3.88625 2.02242 0
M  V30 6366 C 611.25 -4.4228 0.300494 0
M  V30 6367 H 608.47 -0.641261 0.197549 0
M  V30 6368 H 611.014 -1.66813 1.18295 0
M  V30 6369 H 609.169 -3.87377 0.0419843 0
M  V30 6370 H 609.583 -4.83334 2.03688 0
M  V30 6371 H 611.057 -5.50061 0.462242 0
M  V30 6372 H 611.534 -4.32556 -0.76106 0
M  V30 6373 H 612.14 -4.15613 0.902536 0
M  V30 6374 N 610.455 -0.639598 -1.44038 0
M  V30 6375 C 611.418 0.0506628 -2.29144 0
M  V30 6376 C 612.418 0.764001 -1.41491 0
M  V30 6377 O 613.608 0.607309 -1.63271 0
M  V30 6378 C 610.74 1.0824 -3.2326 0
M  V30 6379 H 611.933 -0.697987 -2.91664 0
M  V30 6380 H 609.486 -0.400146 -1.51091 0
M  V30 6381 H 610.221 1.86075 -2.65606 0
M  V30 6382 H 610.006 0.574725 -3.87865 0
M  V30 6383 H 611.496 1.56487 -3.87171 0
M  V30 6384 N 611.933 1.52934 -0.380664 0
M  V30 6385 C 613.163 2.05587 0.204302 0
M  V30 6386 C 613.571 1.25288 1.41773 0
M  V30 6387 O 612.914 0.290394 1.8139 0
M  V30 6388 C 612.976 3.53624 0.647324 0
M  V30 6389 C 612.64 4.54765 -0.451465 0
M  V30 6390 C 613.637 5.03226 -1.30614 0
M  V30 6391 C 611.322 4.98508 -0.616025 0
M  V30 6392 C 613.316 5.94046 -2.31058 0
M  V30 6393 C 611.003 5.89131 -1.62381 0
M  V30 6394 C 612.001 6.36792 -2.46952 0
M  V30 6395 O 611.689 7.25626 -3.46009 0
M  V30 6396 H 611.421 0.675013 0.0365198 0
M  V30 6397 H 613.975 1.98125 -0.541827 0
M  V30 6398 H 612.205 3.58676 1.44529 0
M  V30 6399 H 613.894 3.89061 1.15698 0
M  V30 6400 H 614.66 4.70167 -1.19027 0
M  V30 6401 H 610.539 4.60989 0.0324987 0
M  V30 6402 H 614.083 6.3117 -2.97104 0
M  V30 6403 H 609.98 6.21603 -1.7401 0
M  V30 6404 H 610.748 7.43664 -3.41916 0
M  V30 6405 N 613.412 0.11024 1.57214 0
M  V30 6406 C 614.36 -0.860586 2.16094 0
M  V30 6407 C 615.354 -1.28156 1.1078 0
M  V30 6408 O 616.56 -1.25433 1.29099 0
M  V30 6409 H 612.935 -0.295606 0.691463 0
M  V30 6410 H 614.906 -0.33942 2.96463 0
M  V30 6411 C 613.655 -2.10421 2.768 0
M  V30 6412 H 612.978 -1.7892 3.5753 0
M  V30 6413 H 614.418 -2.76375 3.21547 0
M  V30 6414 C 612.877 -2.88823 1.73444 0
M  V30 6415 O 613.407 -3.839 1.18251 0
M  V30 6416 N 611.613 -2.52649 1.43586 0
M  V30 6417 H 611.16 -1.754 1.8866 0
M  V30 6418 H 611.118 -3.05403 0.746735 0
M  V30 6419 N 614.89 -1.56749 -0.16351 0
M  V30 6420 C 616.136 -1.82704 -0.880168 0
M  V30 6421 C 616.469 -0.689311 -1.81555 0
M  V30 6422 O 615.744 0.308224 -1.92042 0
M  V30 6423 C 616.027 -3.19084 -1.66905 0
M  V30 6424 C 615.88 -4.43397 -0.756269 0
M  V30 6425 C 617.199 -3.52493 -2.63509 0
M  V30 6426 H 614.318 -0.664608 -0.318535 0
M  V30 6427 H 616.96 -1.89438 -0.146036 0
M  V30 6428 H 615.11 -3.13475 -2.2949 0
M  V30 6429 H 616.782 -4.61079 -0.14269 0
M  V30 6430 H 615.025 -4.33752 -0.0647944 0
M  V30 6431 H 615.696 -5.3539 -1.34393 0
M  V30 6432 H 618.172 -3.58606 -2.11047 0
M  V30 6433 H 617.048 -4.48979 -3.15767 0
M  V30 6434 H 617.309 -2.77597 -3.44082 0
M  V30 6435 N 616.368 0.432326 -1.51554 0
M  V30 6436 C 617.617 1.17831 -1.63703 0
M  V30 6437 C 617.93 1.92229 -0.36156 0
M  V30 6438 O 619.136 2.69069 -0.362495 0
M  V30 6439 C 617.592 2.14318 -2.89129 0
M  V30 6440 C 617.2 1.45544 -4.23699 0
M  V30 6441 C 618.944 2.89319 -3.10636 0
M  V30 6442 C 616.851 2.40545 -5.4027 0
M  V30 6443 H 615.781 0.443533 -0.60975 0
M  V30 6444 H 618.432 0.444878 -1.78026 0
M  V30 6445 H 616.814 2.91117 -2.68452 0
M  V30 6446 H 617.988 0.742693 -4.54775 0
M  V30 6447 H 616.303 0.826772 -4.0811 0
M  V30 6448 H 618.9 3.60495 -3.94902 0
M  V30 6449 H 619.243 3.50951 -2.23918 0
M  V30 6450 H 619.776 2.19625 -3.31677 0
M  V30 6451 H 616.515 1.83594 -6.29264 0
M  V30 6452 H 616.035 3.09859 -5.13563 0
M  V30 6453 H 617.714 3.01569 -5.72421 0
M  V30 6454 N 617.846 1.41785 0.688094 0
M  V30 6455 C 618.793 1.44221 1.80191 0
M  V30 6456 C 619.763 0.295688 1.63447 0
M  V30 6457 O 620.948 0.49783 1.84191 0
M  V30 6458 C 618.088 1.33743 3.1813 0
M  V30 6459 C 617.201 2.58325 3.46254 0
M  V30 6460 C 616.336 2.40086 4.73848 0
M  V30 6461 C 615.375 3.60107 4.94964 0
M  V30 6462 N 614.512 3.40892 6.13789 0
M  V30 6463 H 619.352 2.39411 1.77444 0
M  V30 6464 H 616.889 1.18876 0.866423 0
M  V30 6465 H 618.847 1.25669 3.97823 0
M  V30 6466 H 617.477 0.42157 3.20035 0
M  V30 6467 H 616.529 2.7682 2.60912 0
M  V30 6468 H 617.841 3.4758 3.57756 0
M  V30 6469 H 616.995 2.29522 5.61609 0
M  V30 6470 H 615.734 1.483 4.64606 0
M  V30 6471 H 614.739 3.71118 4.05649 0
M  V30 6472 H 615.964 4.52857 5.06061 0
M  V30 6473 H 613.91 2.51812 6.05745 0
M  V30 6474 H 613.827 4.23727 6.26092 0
M  V30 6475 H 615.095 3.34114 7.04264 0
M  V30 6476 N 619.324 -0.923095 1.27737 0
M  V30 6477 C 620.271 -2.02432 1.1086 0
M  V30 6478 C 621.241 -1.66098 0.00835195 0
M  V30 6479 O 622.426 -1.90027 0.171542 0
M  V30 6480 C 619.566 -3.36476 0.766671 0
M  V30 6481 C 618.679 -3.85737 1.94501 0
M  V30 6482 C 617.814 -5.08249 1.54455 0
M  V30 6483 C 616.853 -5.49818 2.6901 0
M  V30 6484 N 615.99 -6.63524 2.29521 0
M  V30 6485 H 620.83 -2.16201 2.05089 0
M  V30 6486 H 618.367 -1.05909 1.02087 0
M  V30 6487 H 620.325 -4.13569 0.549223 0
M  V30 6488 H 618.955 -3.22502 -0.13867 0
M  V30 6489 H 618.007 -3.04883 2.27487 0
M  V30 6490 H 619.319 -4.12513 2.80419 0
M  V30 6491 H 618.473 -5.92857 1.28862 0
M  V30 6492 H 617.212 -4.83261 0.656534 0
M  V30 6493 H 616.217 -4.63757 2.95313 0
M  V30 6494 H 617.442 -5.76799 3.5844 0
M  V30 6495 H 615.388 -6.40185 1.43177 0
M  V30 6496 H 615.305 -6.89978 3.08977 0
M  V30 6497 H 616.573 -7.51461 2.07187 0
M  V30 6498 N 620.802 -1.09834 -1.13024 0
M  V30 6499 C 621.732 -0.763451 -2.20666 0
M  V30 6500 C 622.713 0.260778 -1.68089 0
M  V30 6501 O 623.898 0.127915 -1.93778 0
M  V30 6502 C 621.028 -0.187744 -3.46792 0
M  V30 6503 C 619.982 -1.14196 -4.12484 0
M  V30 6504 C 619.308 -0.427755 -5.32986 0
M  V30 6505 C 620.608 -2.48607 -4.59338 0
M  V30 6506 H 622.302 -1.66347 -2.48936 0
M  V30 6507 H 619.848 -0.801261 -1.19649 0
M  V30 6508 H 621.801 0.0586375 -4.21359 0
M  V30 6509 H 620.525 0.747485 -3.17931 0
M  V30 6510 H 619.184 -1.37369 -3.3989 0
M  V30 6511 H 618.832 0.511747 -5.0039 0
M  V30 6512 H 618.532 -1.06403 -5.77886 0
M  V30 6513 H 620.056 -0.189772 -6.10305 0
M  V30 6514 H 621.47 -2.29618 -5.25308 0
M  V30 6515 H 619.867 -3.08062 -5.14993 0
M  V30 6516 H 620.937 -3.09062 -3.73642 0
M  V30 6517 N 622.28 1.30327 -0.886154 0
M  V30 6518 C 623.243 2.26376 -0.358687 0
M  V30 6519 C 624.243 1.52845 0.499498 0
M  V30 6520 O 625.433 1.71483 0.306485 0
M  V30 6521 C 622.565 3.37379 0.488726 0
M  V30 6522 H 623.758 2.74547 -1.20681 0
M  V30 6523 H 621.311 1.41536 -0.663113 0
M  V30 6524 H 622.046 2.94526 1.35739 0
M  V30 6525 H 621.831 3.91897 -0.126003 0
M  V30 6526 H 623.321 4.08868 0.84952 0
M  V30 6527 N 623.758 0.647228 1.43697 0
M  V30 6528 C 625.169 0.238689 1.85168 0
M  V30 6529 C 625.52 -1.21345 1.54175 0
M  V30 6530 O 624.645 -1.92542 0.987743 0
M  V30 6531 C 625.24 0.426422 3.36106 0
M  V30 6532 C 623.799 0.0722541 3.76331 0
M  V30 6533 C 622.946 0.732153 2.6746 0
M  V30 6534 H 625.897 0.851309 1.33934 0
M  V30 6535 H 625.918 -0.32987 3.79067 0
M  V30 6536 H 625.43 1.48339 3.58632 0
M  V30 6537 H 623.531 -0.982355 3.59417 0
M  V30 6538 H 623.644 0.493541 4.76551 0
M  V30 6539 H 622.008 0.16594 2.54159 0
M  V30 6540 H 622.791 1.79204 2.92816 0
M  V30 6541 N 625.236 -1.5273 0.388769 0
M  V30 6542 C 626.166 -2.29353 -0.438111 0
M  V30 6543 C 627.147 -1.32719 -1.06394 0
M  V30 6544 O 628.332 -1.61612 -1.07681 0
M  V30 6545 C 625.462 -3.09995 -1.56589 0
M  V30 6546 C 624.416 -4.14509 -1.06613 0
M  V30 6547 C 623.742 -4.83372 -2.28594 0
M  V30 6548 C 625.042 -5.22127 -0.134459 0
M  V30 6549 H 626.736 -2.98723 0.201206 0
M  V30 6550 H 624.282 -1.43665 0.0982089 0
M  V30 6551 H 626.235 -3.62357 -2.15118 0
M  V30 6552 H 624.959 -2.38357 -2.23279 0
M  V30 6553 H 623.618 -3.63128 -0.503383 0
M  V30 6554 H 623.266 -4.08283 -2.93792 0
M  V30 6555 H 622.966 -5.54012 -1.95817 0
M  V30 6556 H 624.49 -5.38538 -2.87766 0
M  V30 6557 H 625.904 -5.69851 -0.627914 0
M  V30 6558 H 624.301 -6.00011 0.103534 0
M  V30 6559 H 625.371 -4.77971 0.816798 0
M  V30 6560 N 626.714 -0.118576 -1.57153 0
M  V30 6561 C 628.13 0.238014 -1.57815 0
M  V30 6562 C 628.33 1.66747 -1.13127 0
M  V30 6563 O 627.386 2.38867 -0.818462 0
M  V30 6564 C 628.699 0.00508207 -3.007 0
M  V30 6565 C 630.247 0.0710139 -3.12919 0
M  V30 6566 C 630.722 -0.13422 -4.57803 0
M  V30 6567 N 632.213 -0.0801755 -4.63131 0
M  V30 6568 C 632.948 -0.213885 -5.73001 0
M  V30 6569 N 632.444 -0.403742 -6.91623 0
M  V30 6570 N 634.237 -0.15349 -5.6189 0
M  V30 6571 H 626.388 -1.05226 -1.84503 0
M  V30 6572 H 628.651 -0.414318 -0.852669 0
M  V30 6573 H 628.357 -0.983125 -3.3768 0
M  V30 6574 H 628.231 0.73714 -3.69927 0
M  V30 6575 H 630.618 1.04975 -2.75798 0
M  V30 6576 H 630.699 -0.692918 -2.46236 0
M  V30 6577 H 630.343 -1.10992 -4.95624 0
M  V30 6578 H 630.273 0.649692 -5.22577 0
M  V30 6579 H 632.764 0.0630689 -3.77847 0
M  V30 6580 H 633.077 -0.496645 -7.71202 0
M  V30 6581 H 631.422 -0.43971 -6.93608 0
M  V30 6582 H 634.613 -0.00613174 -4.681 0
M  V30 6583 H 634.786 -0.261138 -6.47474 0
M  V30 6584 N 628.193 1.56834 0.155195 0
M  V30 6585 C 629.14 1.97646 1.19184 0
M  V30 6586 C 630.11 0.842788 1.4313 0
M  V30 6587 O 631.295 1.1042 1.55602 0
M  V30 6588 C 628.435 2.35527 2.52232 0
M  V30 6589 C 627.548 3.62147 2.35529 0
M  V30 6590 C 626.683 3.89167 3.61555 0
M  V30 6591 C 625.722 5.09084 3.39853 0
M  V30 6592 N 624.859 5.32156 4.5799 0
M  V30 6593 H 629.699 2.8601 0.836802 0
M  V30 6594 H 627.236 1.41507 0.401758 0
M  V30 6595 H 629.194 2.55516 3.29799 0
M  V30 6596 H 627.824 1.50253 2.85699 0
M  V30 6597 H 626.876 3.4998 1.49057 0
M  V30 6598 H 628.188 4.49871 2.15448 0
M  V30 6599 H 627.342 4.09611 4.47553 0
M  V30 6600 H 626.081 2.9985 3.84632 0
M  V30 6601 H 625.086 4.88522 2.52243 0
M  V30 6602 H 626.311 5.99947 3.18183 0
M  V30 6603 H 624.257 4.45791 4.81255 0
M  V30 6604 H 624.174 6.14133 4.40882 0
M  V30 6605 H 625.442 5.57091 5.45225 0
M  V30 6606 N 629.671 -0.424282 1.51781 0
M  V30 6607 C 630.896 -1.19928 1.6921 0
M  V30 6608 C 631.321 -1.8392 0.394355 0
M  V30 6609 O 630.679 -1.69371 -0.646778 0
M  V30 6610 C 630.727 -2.24937 2.81843 0
M  V30 6611 O 629.831 -3.3073 2.46356 0
M  V30 6612 H 629.172 -0.35078 0.563781 0
M  V30 6613 H 631.702 -0.499401 1.98412 0
M  V30 6614 H 631.712 -2.69512 3.06312 0
M  V30 6615 H 630.387 -1.77742 3.76006 0
M  V30 6616 H 628.964 -2.9154 2.32505 0
M  V30 6617 N 631.149 -1.42148 -0.680565 0
M  V30 6618 C 632.097 -1.45401 -1.81552 0
M  V30 6619 C 633.091 -0.33036 -1.66147 0
M  V30 6620 O 634.297 -0.503103 -1.72826 0
M  V30 6621 H 630.672 -0.455265 -0.59853 0
M  V30 6622 H 632.643 -2.41024 -1.75926 0
M  V30 6623 C 631.392 -1.36769 -3.19671 0
M  V30 6624 H 630.715 -2.22525 -3.32149 0
M  V30 6625 H 632.155 -1.43106 -3.9912 0
M  V30 6626 C 630.614 -0.0817752 -3.36801 0
M  V30 6627 O 631.144 0.867707 -3.92216 0
M  V30 6628 N 629.35 -0.000799811 -2.906 0
M  V30 6629 H 628.897 -0.774231 -2.4569 0
M  V30 6630 H 628.855 0.858961 -3.02439 0
M  V30 6631 N 632.627 0.916307 -1.28225 0
M  V30 6632 C 634.038 1.48024 -1.13779 0
M  V30 6633 C 634.389 1.94289 0.273139 0
M  V30 6634 O 633.514 1.82226 1.16716 0
M  V30 6635 C 634.109 2.69029 -2.05935 0
M  V30 6636 C 632.668 3.2161 -1.95561 0
M  V30 6637 C 631.815 1.94321 -1.97825 0
M  V30 6638 H 634.766 0.729272 -1.40951 0
M  V30 6639 H 634.787 3.44204 -1.62184 0
M  V30 6640 H 634.299 2.35325 -3.08616 0
M  V30 6641 H 632.4 3.60045 -0.959076 0
M  V30 6642 H 632.513 3.87032 -2.82388 0
M  V30 6643 H 630.877 2.1131 -1.42198 0
M  V30 6644 H 631.66 1.62917 -3.0218 0
M  V30 6645 N 634.105 1.10431 1.1244 0
M  V30 6646 C 635.068 0.756542 2.16354 0
M  V30 6647 C 636.068 -0.21899 1.59302 0
M  V30 6648 O 637.258 0.00415969 1.742 0
M  V30 6649 C 634.39 0.120612 3.40687 0
M  V30 6650 H 635.583 1.67696 2.48632 0
M  V30 6651 H 633.136 0.904832 1.27446 0
M  V30 6652 H 633.871 -0.810536 3.14008 0
M  V30 6653 H 633.656 0.822693 3.83372 0
M  V30 6654 H 635.146 -0.106945 4.17463 0
M  V30 6655 N 635.583 -1.29855 0.893053 0
M  V30 6656 C 636.832 -1.95104 0.511597 0
M  V30 6657 C 637.145 -1.71226 -0.945567 0
M  V30 6658 O 638.351 -2.30525 -1.43424 0
M  V30 6659 C 636.807 -3.49374 0.864034 0
M  V30 6660 C 636.415 -3.82061 2.33952 0
M  V30 6661 C 638.159 -4.20894 0.552167 0
M  V30 6662 C 636.066 -5.29546 2.63316 0
M  V30 6663 H 634.996 -0.73029 0.187597 0
M  V30 6664 H 637.647 -1.47682 1.08914 0
M  V30 6665 H 636.029 -3.95413 0.215493 0
M  V30 6666 H 637.203 -3.46904 3.03305 0
M  V30 6667 H 635.518 -3.23665 2.61973 0
M  V30 6668 H 638.115 -5.29435 0.748489 0
M  V30 6669 H 638.458 -4.13178 -0.508924 0
M  V30 6670 H 638.991 -3.80564 1.15825 0
M  V30 6671 H 635.73 -5.4232 3.68197 0
M  V30 6672 H 635.25 -5.65974 1.9858 0
M  V30 6673 H 636.929 -5.97068 2.49236 0
M  V30 6674 N 637.061 -0.65484 -1.43351 0
M  V30 6675 C 638.024 0.0263562 -2.29185 0
M  V30 6676 C 639.024 0.748951 -1.42293 0
M  V30 6677 O 640.214 0.589957 -1.63906 0
M  V30 6678 C 637.346 1.04806 -3.2439 0
M  V30 6679 H 638.539 -0.728883 -2.90908 0
M  V30 6680 H 636.092 -0.416149 -1.50658 0
M  V30 6681 H 636.827 1.83247 -2.67565 0
M  V30 6682 H 636.612 0.533554 -3.88453 0
M  V30 6683 H 638.102 1.52372 -3.88809 0
M  V30 6684 N 638.539 1.52521 -0.396863 0
M  V30 6685 C 639.769 2.05792 0.182485 0
M  V30 6686 C 640.177 1.26784 1.40436 0
M  V30 6687 O 639.52 0.309617 1.81072 0
M  V30 6688 C 639.582 3.54291 0.609781 0
M  V30 6689 C 639.246 4.5426 -0.499674 0
M  V30 6690 C 640.243 5.01812 -1.35944 0
M  V30 6691 C 637.928 4.97827 -0.668864 0
M  V30 6692 C 639.922 5.91562 -2.37346 0
M  V30 6693 C 637.609 5.87376 -1.68621 0
M  V30 6694 C 638.607 6.34137 -2.53692 0
M  V30 6695 O 638.295 7.21915 -3.53686 0
M  V30 6696 H 638.027 0.675362 0.0293583 0
M  V30 6697 H 640.581 1.97539 -0.56281 0
M  V30 6698 H 638.811 3.60188 1.40717 0
M  V30 6699 H 640.5 3.90267 1.11565 0
M  V30 6700 H 641.266 4.68879 -1.24008 0
M  V30 6701 H 637.145 4.60997 -0.0163971 0
M  V30 6702 H 640.689 6.27983 -3.03782 0
M  V30 6703 H 636.586 6.19723 -1.80593 0
M  V30 6704 H 637.354 7.39996 -3.49784 0
M  V30 6705 N 640.017 0.126909 1.57088 0
M  V30 6706 C 641.265 -0.528123 1.95078 0
M  V30 6707 C 641.586 -1.66708 1.0116 0
M  V30 6708 O 640.856 -1.95777 0.0693527 0
M  V30 6709 H 639.436 -0.198087 0.720257 0
M  V30 6710 H 642.098 0.197703 1.93895 0
M  V30 6711 H 641.194 -0.917507 2.98309 0
M  V30 6712 N 641.495 -1.56914 -0.146875 0
M  V30 6713 C 642.723 -1.87515 -0.874394 0
M  V30 6714 C 643.138 -0.715116 -1.74733 0
M  V30 6715 O 642.495 0.315113 -1.79759 0
M  V30 6716 C 642.546 -3.17362 -1.731 0
M  V30 6717 O 642.267 -4.28897 -0.893245 0
M  V30 6718 C 643.768 -3.61479 -2.56609 0
M  V30 6719 H 640.988 -0.621546 -0.252827 0
M  V30 6720 H 643.532 -2.04023 -0.139627 0
M  V30 6721 H 641.687 -3.02608 -2.41883 0
M  V30 6722 H 642.101 -5.03146 -1.48137 0
M  V30 6723 H 643.575 -4.5517 -3.12289 0
M  V30 6724 H 644.052 -2.86773 -3.32653 0
M  V30 6725 H 644.658 -3.78927 -1.93117 0
M  V30 6726 N 642.974 0.416227 -1.52004 0
M  V30 6727 C 644.202 1.18573 -1.69553 0
M  V30 6728 C 644.617 1.84472 -0.401919 0
M  V30 6729 O 643.974 1.71593 0.621463 0
M  V30 6730 C 644.025 2.25413 -2.82615 0
M  V30 6731 O 643.746 1.62205 -4.06966 0
M  V30 6732 C 645.247 3.15297 -3.11613 0
M  V30 6733 H 642.467 0.356582 -0.56841 0
M  V30 6734 H 645.011 0.490618 -1.98528 0
M  V30 6735 H 643.166 2.90604 -2.56179 0
M  V30 6736 H 643.58 2.3298 -4.69916 0
M  V30 6737 H 645.054 3.86351 -3.94255 0
M  V30 6738 H 645.531 3.77264 -2.24874 0
M  V30 6739 H 646.137 2.55783 -3.39787 0
M  V30 6740 N 644.452 1.42507 0.673017 0
M  V30 6741 C 645.384 1.42074 1.79854 0
M  V30 6742 C 646.397 0.319569 1.59633 0
M  V30 6743 O 647.586 0.582769 1.68719 0
M  V30 6744 C 644.686 1.19886 3.16987 0
M  V30 6745 C 643.859 2.42471 3.64042 0
M  V30 6746 C 642.918 2.15802 4.79913 0
M  V30 6747 O 641.944 2.89015 4.90366 0
M  V30 6748 N 643.146 1.16225 5.68746 0
M  V30 6749 H 645.911 2.3909 1.8071 0
M  V30 6750 H 643.472 1.37409 0.856171 0
M  V30 6751 H 645.464 0.999591 3.92161 0
M  V30 6752 H 644.034 0.313879 3.1102 0
M  V30 6753 H 643.254 2.77954 2.79526 0
M  V30 6754 H 644.542 3.24097 3.92223 0
M  V30 6755 H 643.94 0.556756 5.62954 0
M  V30 6756 H 642.497 1.02285 6.43724 0
M  V30 6757 N 645.93 -0.909495 1.28709 0
M  V30 6758 C 646.862 -2.01729 1.08804 0
M  V30 6759 C 647.875 -1.62755 0.0384739 0
M  V30 6760 O 649.064 -1.76259 0.281977 0
M  V30 6761 C 646.164 -3.32952 0.63217 0
M  V30 6762 C 645.337 -4.00512 1.75809 0
M  V30 6763 C 644.396 -5.10019 1.29488 0
M  V30 6764 O 643.422 -5.32986 1.99787 0
M  V30 6765 N 644.624 -5.80278 0.1604 0
M  V30 6766 H 647.389 -2.19362 2.04207 0
M  V30 6767 H 644.95 -1.08106 1.20518 0
M  V30 6768 H 646.942 -4.03543 0.305802 0
M  V30 6769 H 645.512 -3.11759 -0.229134 0
M  V30 6770 H 644.732 -3.23413 2.25383 0
M  V30 6771 H 646.02 -4.42395 2.51325 0
M  V30 6772 H 645.418 -5.64094 -0.425937 0
M  V30 6773 H 643.975 -6.51713 -0.106663 0
M  V30 6774 N 647.408 -1.11026 -1.11852 0
M  V30 6775 C 648.824 -0.843294 -1.35502 0
M  V30 6776 C 649.024 0.534179 -1.9429 0
M  V30 6777 O 648.08 1.28585 -2.17307 0
M  V30 6778 C 649.393 -1.94793 -2.29077 0
M  V30 6779 C 650.941 -1.97709 -2.42652 0
M  V30 6780 C 651.416 -3.07364 -3.39546 0
M  V30 6781 N 652.907 -3.0671 -3.47107 0
M  V30 6782 C 653.642 -3.88197 -4.22008 0
M  V30 6783 N 653.138 -4.79635 -4.99922 0
M  V30 6784 N 654.931 -3.76391 -4.17476 0
M  V30 6785 H 647.082 -1.99805 -0.720538 0
M  V30 6786 H 649.345 -0.868633 -0.379711 0
M  V30 6787 H 649.051 -2.93971 -1.93065 0
M  V30 6788 H 648.925 -1.84039 -3.29256 0
M  V30 6789 H 651.312 -0.991604 -2.77941 0
M  V30 6790 H 651.393 -2.1254 -1.4234 0
M  V30 6791 H 651.037 -4.06136 -3.04985 0
M  V30 6792 H 650.967 -2.89774 -4.39703 0
M  V30 6793 H 653.458 -2.40457 -2.91528 0
M  V30 6794 H 653.771 -5.38357 -5.54429 0
M  V30 6795 H 652.116 -4.8366 -4.99097 0
M  V30 6796 H 655.307 -3.04303 -3.55693 0
M  V30 6797 H 655.48 -4.40131 -4.75593 0
M  V30 6798 N 648.886 1.2938 -0.899927 0
M  V30 6799 C 650.132 1.96206 -0.536153 0
M  V30 6800 C 650.487 1.69647 0.90761 0
M  V30 6801 O 649.78 0.999089 1.63489 0
M  V30 6802 C 649.974 3.49114 -0.765113 0
M  V30 6803 C 649.803 3.90538 -2.22958 0
M  V30 6804 C 648.573 4.15395 -2.87706 0
M  V30 6805 C 650.771 4.0224 -3.20479 0
M  V30 6806 N 648.753 4.43389 -4.24593 0
M  V30 6807 C 650.124 4.34288 -4.42486 0
M  V30 6808 C 652.179 3.84716 -3.16066 0
M  V30 6809 C 650.882 4.50638 -5.6064 0
M  V30 6810 C 652.908 4.02276 -4.33507 0
M  V30 6811 C 652.27 4.34684 -5.54283 0
M  V30 6812 H 648.369 0.742364 -0.245804 0
M  V30 6813 H 650.953 1.56314 -1.16078 0
M  V30 6814 H 649.124 3.88028 -0.169861 0
M  V30 6815 H 650.856 4.03035 -0.366751 0
M  V30 6816 H 647.611 4.09164 -2.385 0
M  V30 6817 H 648.035 4.61494 -4.95331 0
M  V30 6818 H 652.677 3.58724 -2.23778 0
M  V30 6819 H 650.395 4.75467 -6.5342 0
M  V30 6820 H 653.981 3.90169 -4.31578 0
M  V30 6821 H 652.861 4.47988 -6.43643 0
M  V30 6822 N 650.364 0.662433 1.43002 0
M  V30 6823 C 651.613 0.176873 2.00923 0
M  V30 6824 C 651.926 -1.21954 1.52927 0
M  V30 6825 O 653.132 -1.80081 2.03182 0
M  V30 6826 C 651.588 0.265379 3.5892 0
M  V30 6827 C 651.196 1.66507 4.15908 0
M  V30 6828 C 652.94 -0.162103 4.2419 0
M  V30 6829 C 650.847 1.707 5.66229 0
M  V30 6830 H 649.777 0.0623627 0.751417 0
M  V30 6831 H 652.428 0.825813 1.63868 0
M  V30 6832 H 650.81 -0.451235 3.93421 0
M  V30 6833 H 651.984 2.40777 3.92891 0
M  V30 6834 H 650.299 2.03932 3.63044 0
M  V30 6835 H 652.896 -0.150745 5.34487 0
M  V30 6836 H 653.239 -1.19519 3.98774 0
M  V30 6837 H 653.772 0.503075 3.94606 0
M  V30 6838 H 650.511 2.7195 5.96426 0
M  V30 6839 H 650.031 1.00768 5.91275 0
M  V30 6840 H 651.71 1.45487 6.3043 0
M  V30 6841 N 651.842 -1.52309 0.404946 0
M  V30 6842 C 652.79 -2.28452 -0.437321 0
M  V30 6843 C 653.784 -1.32975 -1.04948 0
M  V30 6844 O 654.99 -1.50451 -0.988159 0
M  V30 6845 H 651.365 -0.734824 -0.159805 0
M  V30 6846 H 653.336 -2.97542 0.22615 0
M  V30 6847 C 652.085 -3.11536 -1.54404 0
M  V30 6848 H 651.408 -3.84871 -1.08233 0
M  V30 6849 H 652.848 -3.67926 -2.10729 0
M  V30 6850 C 651.307 -2.24833 -2.50902 0
M  V30 6851 O 651.837 -1.88574 -3.54687 0
M  V30 6852 N 650.043 -1.88685 -2.21012 0
M  V30 6853 H 649.59 -2.18371 -1.36646 0
M  V30 6854 H 649.548 -1.30966 -2.85824 0
M  V30 6855 N 653.32 -0.135238 -1.57019 0
M  V30 6856 C 654.268 0.826099 -2.17436 0
M  V30 6857 C 655.262 1.26378 -1.12805 0
M  V30 6858 O 656.468 1.23363 -1.31079 0
M  V30 6859 H 652.843 0.284568 -0.696078 0
M  V30 6860 H 654.814 0.292212 -2.96966 0
M  V30 6861 C 653.563 2.05991 -2.80112 0
M  V30 6862 H 652.886 1.73209 -3.60331 0
M  V30 6863 H 654.326 2.71225 -3.25903 0
M  V30 6864 C 652.785 2.86027 -1.78017 0
M  V30 6865 O 653.315 3.81971 -1.24344 0
M  V30 6866 N 651.521 2.50332 -1.47588 0
M  V30 6867 H 651.068 1.72377 -1.91426 0
M  V30 6868 H 651.026 3.04177 -0.795228 0
M  V30 6869 N 654.798 1.5699 0.138552 0
M  V30 6870 C 656.075 1.74741 0.87891 0
M  V30 6871 C 656.455 0.705522 1.98961 0
M  V30 6872 O 655.803 -0.274066 2.2685 0
M  V30 6873 C 656.013 3.1909 1.4136 0
M  V30 6874 C 657.361 3.81023 1.87368 0
M  V30 6875 O 658.385 3.22571 1.51084 0
M  V30 6876 O 657.244 4.83722 2.54312 0
M  V30 6877 H 654.338 0.714781 0.415953 0
M  V30 6878 H 656.884 1.69248 0.123817 0
M  V30 6879 H 655.656 3.86424 0.61579 0
M  V30 6880 H 655.279 3.29043 2.23196 0
M  V30 6881 N 656.276 -0.40816 1.52223 0
M  V30 6882 C 657.522 -1.15673 1.66576 0
M  V30 6883 C 657.855 -1.90141 0.394996 0
M  V30 6884 O 657.13 -1.84798 -0.606613 0
M  V30 6885 C 657.413 -2.15042 2.88841 0
M  V30 6886 C 657.266 -1.44465 4.25969 0
M  V30 6887 C 658.585 -3.15699 3.0663 0
M  V30 6888 H 655.704 -0.41916 0.606196 0
M  V30 6889 H 658.346 -0.442348 1.84779 0
M  V30 6890 H 656.496 -2.75964 2.73452 0
M  V30 6891 H 658.168 -0.866544 4.53088 0
M  V30 6892 H 656.411 -0.746612 4.27327 0
M  V30 6893 H 657.082 -2.16976 5.07568 0
M  V30 6894 H 659.558 -2.64854 3.20923 0
M  V30 6895 H 658.434 -3.82491 3.9369 0
M  V30 6896 H 658.695 -3.83481 2.19987 0
M  V30 6897 N 657.755 -1.42862 -0.66545 0
M  V30 6898 C 658.985 -1.47032 -1.45138 0
M  V30 6899 C 659.393 -0.0829977 -1.89018 0
M  V30 6900 O 658.736 0.914551 -1.59316 0
M  V30 6901 C 658.798 -2.34302 -2.72659 0
M  V30 6902 C 658.462 -3.82034 -2.50796 0
M  V30 6903 C 659.459 -4.73453 -2.14799 0
M  V30 6904 C 657.144 -4.26397 -2.655 0
M  V30 6905 C 659.138 -6.07228 -1.93785 0
M  V30 6906 C 656.825 -5.6023 -2.44103 0
M  V30 6907 C 657.823 -6.50462 -2.08299 0
M  V30 6908 O 657.511 -7.8182 -1.87116 0
M  V30 6909 H 657.243 -0.501969 -0.452772 0
M  V30 6910 H 659.797 -1.88137 -0.82423 0
M  V30 6911 H 658.027 -1.88063 -3.37889 0
M  V30 6912 H 659.716 -2.29818 -3.34572 0
M  V30 6913 H 660.482 -4.4046 -2.03026 0
M  V30 6914 H 656.361 -3.56448 -2.92345 0
M  V30 6915 H 659.905 -6.7762 -1.65763 0
M  V30 6916 H 655.802 -5.92793 -2.55475 0
M  V30 6917 H 656.57 -7.93274 -2.01639 0
M  V30 6918 N 659.233 0.902656 -1.29189 0
M  V30 6919 C 660.482 1.6475 -1.16362 0
M  V30 6920 C 660.795 1.93517 0.284682 0
M  V30 6921 O 662.001 2.66192 0.534229 0
M  V30 6922 C 660.457 2.96848 -2.03493 0
M  V30 6923 C 660.065 2.75687 -3.5313 0
M  V30 6924 C 661.809 3.74762 -1.99383 0
M  V30 6925 C 659.716 4.03492 -4.32375 0
M  V30 6926 H 658.646 0.618041 -0.431904 0
M  V30 6927 H 661.297 1.0008 -1.53806 0
M  V30 6928 H 659.679 3.62715 -1.58916 0
M  V30 6929 H 660.853 2.18431 -4.05739 0
M  V30 6930 H 659.168 2.11171 -3.58881 0
M  V30 6931 H 661.765 4.69515 -2.5585 0
M  V30 6932 H 662.108 4.04767 -0.973123 0
M  V30 6933 H 662.641 3.15732 -2.41988 0
M  V30 6934 H 659.38 3.78656 -5.3507 0
M  V30 6935 H 658.9 4.60318 -3.84535 0
M  V30 6936 H 660.579 4.71662 -4.42881 0
M  V30 6937 N 660.711 1.11618 1.11262 0
M  V30 6938 C 661.941 0.88745 1.86569 0
M  V30 6939 C 662.349 -0.56636 1.80524 0
M  V30 6940 O 661.692 -1.40289 1.18594 0
M  V30 6941 C 661.754 1.27313 3.36202 0
M  V30 6942 C 661.418 2.73649 3.66013 0
M  V30 6943 C 662.415 3.71863 3.63337 0
M  V30 6944 C 660.1 3.10342 3.9496 0
M  V30 6945 C 662.094 5.04788 3.89188 0
M  V30 6946 C 659.781 4.43451 4.20469 0
M  V30 6947 C 660.779 5.40484 4.17572 0
M  V30 6948 O 660.467 6.71195 4.42439 0
M  V30 6949 H 660.199 0.317543 0.596777 0
M  V30 6950 H 662.753 1.48768 1.41624 0
M  V30 6951 H 660.983 0.616062 3.81761 0
M  V30 6952 H 662.672 1.01991 3.92877 0
M  V30 6953 H 663.438 3.44861 3.41022 0
M  V30 6954 H 659.317 2.35431 3.9635 0
M  V30 6955 H 662.861 5.80516 3.86842 0
M  V30 6956 H 658.758 4.70187 4.42261 0
M  V30 6957 H 659.526 6.77012 4.59997 0
M  V30 6958 N 662.189 -1.289 0.906776 0
M  V30 6959 C 663.099 -2.31256 0.394707 0
M  V30 6960 C 664.115 -1.66231 -0.514121 0
M  V30 6961 O 665.291 -1.97347 -0.401994 0
M  V30 6962 C 662.356 -3.44792 -0.363191 0
M  V30 6963 C 661.417 -4.25391 0.578012 0
M  V30 6964 C 660.65 -5.33506 -0.143811 0
M  V30 6965 O 660.873 -5.53786 -1.36665 0
M  V30 6966 O 659.807 -5.99673 0.5173 0
M  V30 6967 H 663.633 -2.77051 1.24405 0
M  V30 6968 H 661.218 -1.33466 0.671346 0
M  V30 6969 H 663.1 -4.139 -0.791503 0
M  V30 6970 H 661.775 -3.01093 -1.18848 0
M  V30 6971 H 660.682 -3.58899 1.05558 0
M  V30 6972 H 662.015 -4.72752 1.36992 0
M  V30 6973 N 663.667 -0.670007 -1.42649 0
M  V30 6974 C 665.083 -0.33911 -1.55956 0
M  V30 6975 C 665.283 1.1558 -1.65056 0
M  V30 6976 O 664.339 1.94111 -1.61485 0
M  V30 6977 C 665.652 -1.06522 -2.812 0
M  V30 6978 C 667.2 -1.04708 -2.94966 0
M  V30 6979 C 667.675 -1.75442 -4.23065 0
M  V30 6980 N 669.166 -1.72286 -4.29967 0
M  V30 6981 C 669.901 -2.23877 -5.27889 0
M  V30 6982 N 669.397 -2.83829 -6.31991 0
M  V30 6983 N 671.19 -2.14279 -5.19654 0
M  V30 6984 H 663.341 -1.6399 -1.34986 0
M  V30 6985 H 665.604 -0.690603 -0.649439 0
M  V30 6986 H 665.31 -2.12033 -2.80597 0
M  V30 6987 H 665.184 -0.627398 -3.71946 0
M  V30 6988 H 667.571 -0.000315966 -2.951 0
M  V30 6989 H 667.652 -1.52374 -2.05465 0
M  V30 6990 H 667.296 -2.80084 -4.23693 0
M  V30 6991 H 667.226 -1.25229 -5.11493 0
M  V30 6992 H 669.717 -1.28554 -3.55362 0
M  V30 6993 H 670.03 -3.20827 -7.03057 0
M  V30 6994 H 668.375 -2.87896 -6.32567 0
M  V30 6995 H 671.566 -1.67135 -4.37245 0
M  V30 6996 H 671.739 -2.54792 -5.95806 0
M  V30 6997 N 665.145 1.52092 -0.413018 0
M  V30 6998 C 666.092 2.27119 0.410558 0
M  V30 6999 C 667.062 1.29692 1.03774 0
M  V30 7000 O 668.247 1.58561 1.06128 0
M  V30 7001 C 665.387 3.09863 1.51918 0
M  V30 7002 C 664.5 4.22252 0.912528 0
M  V30 7003 C 663.635 4.92348 1.99417 0
M  V30 7004 C 662.674 5.96694 1.36466 0
M  V30 7005 N 661.811 6.60292 2.38661 0
M  V30 7006 H 666.651 2.97067 -0.235661 0
M  V30 7007 H 664.188 1.46542 -0.128055 0
M  V30 7008 H 666.146 3.56144 2.17295 0
M  V30 7009 H 664.776 2.42078 2.13537 0
M  V30 7010 H 663.828 3.80113 0.147697 0
M  V30 7011 H 665.14 4.9709 0.412717 0
M  V30 7012 H 664.294 5.42054 2.72512 0
M  V30 7013 H 663.033 4.17087 2.52764 0
M  V30 7014 H 662.038 5.46304 0.61906 0
M  V30 7015 H 663.263 6.73899 0.838827 0
M  V30 7016 H 661.209 5.87858 2.91134 0
M  V30 7017 H 661.126 7.30816 1.93503 0
M  V30 7018 H 662.394 7.14635 3.11314 0
M  V30 7019 N 666.623 0.143563 1.56945 0
M  V30 7020 C 667.87 -0.508407 1.96014 0
M  V30 7021 C 668.198 -1.65099 1.02824 0
M  V30 7022 O 667.453 -1.95618 0.0567764 0
M  V30 7023 C 667.752 -1.05885 3.41355 0
M  V30 7024 C 667.418 -0.0350809 4.50886 0
M  V30 7025 C 666.08 0.246362 4.80569 0
M  V30 7026 C 668.432 0.661282 5.16988 0
M  V30 7027 C 665.76 1.23003 5.73661 0
M  V30 7028 C 668.112 1.63375 6.11139 0
M  V30 7029 C 666.776 1.92292 6.39203 0
M  V30 7030 H 666.046 -0.186039 0.717266 0
M  V30 7031 H 668.693 0.229667 1.90118 0
M  V30 7032 H 666.998 -1.87419 3.44066 0
M  V30 7033 H 668.695 -1.57183 3.6891 0
M  V30 7034 H 665.285 -0.264622 4.27782 0
M  V30 7035 H 669.469 0.457038 4.94191 0
M  V30 7036 H 664.725 1.46056 5.93698 0
M  V30 7037 H 668.899 2.17887 6.61436 0
M  V30 7038 H 666.526 2.68666 7.11142 0
M  V30 7039 N 668.101 -1.57061 -0.130224 0
M  V30 7040 C 669.349 -1.83893 -0.838313 0
M  V30 7041 C 669.67 -0.727046 -1.80939 0
M  V30 7042 O 668.94 0.249927 -1.94299 0
M  V30 7043 H 667.52 -0.67846 -0.312573 0
M  V30 7044 H 670.182 -1.94529 -0.120224 0
M  V30 7045 H 669.278 -2.79419 -1.39038 0
M  V30 7046 N 669.579 0.400081 -1.52437 0
M  V30 7047 C 670.527 1.50851 -1.7705 0
M  V30 7048 C 671.521 1.56928 -0.637969 0
M  V30 7049 O 672.727 1.60226 -0.820212 0
M  V30 7050 H 669.102 0.50186 -0.560036 0
M  V30 7051 H 671.073 1.27281 -2.69893 0
M  V30 7052 C 669.822 2.88117 -1.94638 0
M  V30 7053 H 669.145 2.84187 -2.81208 0
M  V30 7054 H 670.585 3.64942 -2.15855 0
M  V30 7055 C 669.044 3.29206 -0.715899 0
M  V30 7056 O 669.574 4.01544 0.111944 0
M  V30 7057 N 667.78 2.85363 -0.549191 0
M  V30 7058 H 667.327 2.26664 -1.22397 0
M  V30 7059 H 667.285 3.13214 0.27278 0
M  V30 7060 N 671.057 1.43213 0.657864 0
M  V30 7061 C 672.005 1.48271 1.79216 0
M  V30 7062 C 672.999 0.35675 1.65601 0
M  V30 7063 O 674.205 0.530535 1.72004 0
M  V30 7064 H 670.58 0.464729 0.591211 0
M  V30 7065 H 672.551 2.43792 1.7207 0
M  V30 7066 C 671.3 1.41837 3.17455 0
M  V30 7067 H 670.623 2.27781 3.28567 0
M  V30 7068 H 672.063 1.49438 3.96793 0
M  V30 7069 C 670.522 0.135347 3.36628 0
M  V30 7070 O 671.052 -0.805199 3.93547 0
M  V30 7071 N 669.258 0.0470316 2.90562 0
M  V30 7072 H 668.805 0.813221 2.44427 0
M  V30 7073 H 668.763 -0.810737 3.03767 0
M  V30 7074 N 672.536 -0.895792 1.29666 0
M  V30 7075 C 673.782 -1.64908 1.18039 0
M  V30 7076 C 674.115 -1.9236 -0.266682 0
M  V30 7077 O 673.39 -1.53682 -1.19214 0
M  V30 7078 C 673.673 -2.99574 1.99819 0
M  V30 7079 C 673.526 -2.79163 3.52687 0
M  V30 7080 C 674.845 -4.00358 1.82761 0
M  V30 7081 H 671.964 -0.598437 0.430165 0
M  V30 7082 H 674.606 -1.03736 1.59182 0
M  V30 7083 H 672.756 -3.51786 1.64859 0
M  V30 7084 H 674.428 -2.33821 3.9765 0
M  V30 7085 H 672.671 -2.13871 3.77414 0
M  V30 7086 H 673.342 -3.74871 4.05186 0
M  V30 7087 H 675.818 -3.57268 2.13304 0
M  V30 7088 H 674.694 -4.92514 2.42325 0
M  V30 7089 H 674.955 -4.35096 0.783839 0
M  V30 7090 N 674.014 -1.12206 -1.10668 0
M  V30 7091 C 674.977 -0.790867 -2.15123 0
M  V30 7092 C 675.977 0.193618 -1.5963 0
M  V30 7093 O 677.167 -0.0318728 -1.74171 0
M  V30 7094 C 674.299 -0.174797 -3.40452 0
M  V30 7095 H 675.492 -1.7163 -2.45933 0
M  V30 7096 H 673.045 -0.924993 -1.2599 0
M  V30 7097 H 673.78 0.760478 -3.15257 0
M  V30 7098 H 673.565 -0.88358 -3.82015 0
M  V30 7099 H 675.055 0.0405162 -4.1758 0
M  V30 7100 N 675.492 1.28418 -0.913599 0
M  V30 7101 C 676.422 2.29713 -0.418847 0
M  V30 7102 C 677.403 1.62165 0.513469 0
M  V30 7103 O 678.588 1.89576 0.421235 0
M  V30 7104 C 675.718 3.45612 0.342042 0
M  V30 7105 C 674.672 4.25056 -0.501123 0
M  V30 7106 C 673.998 5.3329 0.388097 0
M  V30 7107 C 675.298 4.91814 -1.75831 0
M  V30 7108 H 676.992 2.71346 -1.26538 0
M  V30 7109 H 674.538 1.30446 -0.609903 0
M  V30 7110 H 676.491 4.15562 0.699 0
M  V30 7111 H 675.215 3.02858 1.22248 0
M  V30 7112 H 673.874 3.56833 -0.840598 0
M  V30 7113 H 673.522 4.8678 1.26707 0
M  V30 7114 H 673.222 5.87347 -0.172459 0
M  V30 7115 H 674.746 6.06088 0.74094 0
M  V30 7116 H 676.16 5.54126 -1.47026 0
M  V30 7117 H 674.557 5.55866 -2.26126 0
M  V30 7118 H 675.627 4.16313 -2.4862 0
M  V30 7119 N 676.97 0.677563 1.42291 0
M  V30 7120 C 678.216 0.201272 2.01799 0
M  V30 7121 C 678.549 -1.19004 1.53465 0
M  V30 7122 O 677.824 -1.79953 0.738039 0
M  V30 7123 C 678.107 0.238968 3.59306 0
M  V30 7124 C 677.96 1.66594 4.17812 0
M  V30 7125 C 679.279 -0.411287 4.38174 0
M  V30 7126 H 676.398 0.0746114 0.733214 0
M  V30 7127 H 679.04 0.862872 1.69276 0
M  V30 7128 H 677.19 -0.324368 3.87144 0
M  V30 7129 H 678.862 2.28173 4.00917 0
M  V30 7130 H 677.105 2.20576 3.73536 0
M  V30 7131 H 677.776 1.64398 5.26951 0
M  V30 7132 H 680.252 0.0682804 4.16044 0
M  V30 7133 H 679.128 -0.354286 5.47755 0
M  V30 7134 H 679.389 -1.4893 4.1626 0
M  V30 7135 N 678.448 -1.51871 0.421078 0
M  V30 7136 C 679.411 -2.25914 -0.386712 0
M  V30 7137 C 680.411 -1.28733 -0.963555 0
M  V30 7138 O 681.601 -1.52579 -0.840556 0
M  V30 7139 C 678.733 -3.03853 -1.54551 0
M  V30 7140 H 679.926 -2.98754 0.261978 0
M  V30 7141 H 677.479 -1.5533 0.173862 0
M  V30 7142 H 678.214 -2.35392 -2.23072 0
M  V30 7143 H 677.999 -3.75215 -1.13824 0
M  V30 7144 H 679.489 -3.59984 -2.11663 0
M  V30 7145 N 679.926 -0.151884 -1.56866 0
M  V30 7146 C 681.175 0.497992 -1.95456 0
M  V30 7147 C 681.488 1.6569 -1.03953 0
M  V30 7148 O 682.694 2.37173 -1.32142 0
M  V30 7149 C 681.15 0.93732 -3.4748 0
M  V30 7150 C 680.758 -0.194921 -4.47576 0
M  V30 7151 C 682.502 1.55671 -3.94926 0
M  V30 7152 C 680.409 0.26295 -5.90815 0
M  V30 7153 H 679.339 0.189811 -0.729717 0
M  V30 7154 H 681.99 -0.237011 -1.81963 0
M  V30 7155 H 680.372 1.72773 -3.56322 0
M  V30 7156 H 681.546 -0.971951 -4.50433 0
M  V30 7157 H 679.861 -0.72303 -4.10075 0
M  V30 7158 H 682.458 1.91099 -4.99385 0
M  V30 7159 H 682.801 2.44748 -3.36755 0
M  V30 7160 H 683.334 0.831109 -3.89021 0
M  V30 7161 H 680.073 -0.592568 -6.52816 0
M  V30 7162 H 679.593 1.00575 -5.91308 0
M  V30 7163 H 681.272 0.713333 -6.43056 0
M  V30 7164 N 681.404 1.57128 0.121893 0
M  V30 7165 C 682.352 2.01109 1.16868 0
M  V30 7166 C 683.346 0.907532 1.43039 0
M  V30 7167 O 684.552 1.09274 1.43036 0
M  V30 7168 H 680.927 0.640539 0.393971 0
M  V30 7169 H 682.898 2.88261 0.771224 0
M  V30 7170 C 681.647 2.42887 2.48799 0
M  V30 7171 H 680.97 3.2737 2.29498 0
M  V30 7172 H 682.41 2.77461 3.20611 0
M  V30 7173 C 680.869 1.29137 3.11168 0
M  V30 7174 O 681.399 0.605756 3.97106 0
M  V30 7175 N 679.605 1.04916 2.71 0
M  V30 7176 H 679.152 1.60848 2.01211 0
M  V30 7177 H 679.11 0.290016 3.1306 0
M  V30 7178 N 682.882 -0.391992 1.52647 0
M  V30 7179 C 684.298 -0.731848 1.41831 0
M  V30 7180 C 684.498 -1.9423 0.536361 0
M  V30 7181 O 683.554 -2.52499 0.00866571 0
M  V30 7182 C 684.867 -0.969743 2.84634 0
M  V30 7183 C 686.415 -1.0714 2.94092 0
M  V30 7184 C 686.89 -1.34195 4.37899 0
M  V30 7185 N 688.381 -1.41023 4.41211 0
M  V30 7186 C 689.116 -1.63616 5.49561 0
M  V30 7187 N 688.612 -1.83699 6.68002 0
M  V30 7188 N 690.405 -1.65771 5.371 0
M  V30 7189 H 682.556 0.404547 2.08512 0
M  V30 7190 H 684.819 0.11879 0.940528 0
M  V30 7191 H 684.525 -0.152465 3.51369 0
M  V30 7192 H 684.399 -1.88523 3.26709 0
M  V30 7193 H 686.786 -1.87925 2.27526 0
M  V30 7194 H 686.867 -0.133887 2.55449 0
M  V30 7195 H 686.511 -0.539207 5.0503 0
M  V30 7196 H 686.441 -2.29226 4.74092 0
M  V30 7197 H 688.932 -1.27223 3.55841 0
M  V30 7198 H 689.245 -2.00437 7.46354 0
M  V30 7199 H 687.59 -1.8093 6.71036 0
M  V30 7200 H 690.781 -1.4963 4.43541 0
M  V30 7201 H 690.954 -1.83038 6.21612 0
M  V30 7202 N 684.36 -1.4356 -0.65026 0
M  V30 7203 C 685.308 -1.49219 -1.78427 0
M  V30 7204 C 686.302 -0.365528 -1.65409 0
M  V30 7205 O 687.508 -0.539649 -1.7172 0
M  V30 7206 H 683.883 -0.467858 -0.588738 0
M  V30 7207 H 685.854 -2.44701 -1.70774 0
M  V30 7208 C 684.603 -1.43519 -3.16698 0
M  V30 7209 H 683.926 -2.2952 -3.27354 0
M  V30 7210 H 685.366 -1.5154 -3.95995 0
M  V30 7211 C 683.825 -0.153197 -3.36552 0
M  V30 7212 O 684.355 0.784317 -3.93969 0
M  V30 7213 N 682.561 -0.0624402 -2.90533 0
M  V30 7214 H 682.108 -0.826172 -2.43992 0
M  V30 7215 H 682.066 0.794616 -3.04193 0
M  V30 7216 N 685.838 0.888903 -1.30139 0
M  V30 7217 C 686.768 2.01046 -1.18755 0
M  V30 7218 C 687.749 1.69916 -0.0791438 0
M  V30 7219 O 688.934 1.92445 -0.260498 0
M  V30 7220 C 686.064 3.36109 -0.874518 0
M  V30 7221 C 685.018 3.81486 -1.94043 0
M  V30 7222 C 684.344 5.13796 -1.48047 0
M  V30 7223 C 685.644 4.00637 -3.35093 0
M  V30 7224 H 687.338 2.10828 -2.12584 0
M  V30 7225 H 684.884 1.01298 -1.02346 0
M  V30 7226 H 686.837 4.14089 -0.781548 0
M  V30 7227 H 685.561 3.26449 0.0994519 0
M  V30 7228 H 684.22 3.05731 -2.02297 0
M  V30 7229 H 683.868 5.0056 -0.494878 0
M  V30 7230 H 683.568 5.45127 -2.19341 0
M  V30 7231 H 685.092 5.94305 -1.40121 0
M  V30 7232 H 686.506 4.69067 -3.2962 0
M  V30 7233 H 684.903 4.43339 -4.04438 0
M  V30 7234 H 685.973 3.0462 -3.77273 0
M  V30 7235 N 687.317 1.12792 1.10072 0
M  V30 7236 C 688.542 0.908838 1.86427 0
M  V30 7237 C 688.967 -0.536793 1.80278 0
M  V30 7238 O 688.325 -1.38033 1.17543 0
M  V30 7239 C 688.373 1.39295 3.3261 0
M  V30 7240 O 687.477 0.573846 4.08388 0
M  V30 7241 H 686.818 0.326234 0.578331 0
M  V30 7242 H 689.348 1.50094 1.39043 0
M  V30 7243 H 689.358 1.39366 3.83459 0
M  V30 7244 H 688.033 2.44555 3.36401 0
M  V30 7245 H 686.61 0.640438 3.67359 0
M  V30 7246 N 688.795 -1.27931 0.920396 0
M  V30 7247 C 690.023 -1.98805 0.573087 0
M  V30 7248 C 690.438 -1.68724 -0.847201 0
M  V30 7249 O 689.795 -0.943699 -1.56207 0
M  V30 7250 C 689.846 -3.52971 0.780633 0
M  V30 7251 O 689.567 -3.81994 2.14504 0
M  V30 7252 C 691.068 -4.411 0.44105 0
M  V30 7253 H 688.288 -0.634651 0.21785 0
M  V30 7254 H 690.832 -1.62965 1.23542 0
M  V30 7255 H 688.987 -3.87048 0.165204 0
M  V30 7256 H 689.401 -4.76609 2.18962 0
M  V30 7257 H 690.875 -5.48312 0.637006 0
M  V30 7258 H 691.352 -4.34758 -0.62306 0
M  V30 7259 H 691.958 -4.12532 1.0343 0
M  V30 7260 N 690.273 -0.685099 -1.4193 0
M  V30 7261 C 691.498 -0.218842 -2.06242 0
M  V30 7262 C 691.923 1.11923 -1.51178 0
M  V30 7263 O 691.281 1.69837 -0.634446 0
M  V30 7264 C 691.329 -0.175592 -3.60172 0
M  V30 7265 O 690.433 0.852776 -4.03487 0
M  V30 7266 H 689.774 -0.109531 -0.654904 0
M  V30 7267 H 692.304 -0.937013 -1.81882 0
M  V30 7268 H 692.314 -0.00291151 -4.08 0
M  V30 7269 H 690.989 -1.15222 -3.99621 0
M  V30 7270 H 689.566 0.650301 -3.67186 0
M  V30 7271 N 691.751 1.51645 -0.429126 0
M  V30 7272 C 692.981 2.06133 0.138793 0
M  V30 7273 C 693.389 1.29735 1.37716 0
M  V30 7274 O 692.732 0.347955 1.80375 0
M  V30 7275 C 692.794 3.55504 0.534493 0
M  V30 7276 C 692.458 4.53098 -0.595917 0
M  V30 7277 C 693.455 4.98815 -1.46558 0
M  V30 7278 C 691.14 4.96296 -0.774309 0
M  V30 7279 C 693.134 5.86394 -2.4984 0
M  V30 7280 C 690.821 5.83667 -1.81042 0
M  V30 7281 C 691.819 6.28613 -2.67086 0
M  V30 7282 O 691.507 7.14251 -3.68919 0
M  V30 7283 H 691.239 0.675833 0.0150263 0
M  V30 7284 H 693.793 1.96301 -0.604584 0
M  V30 7285 H 692.023 3.63092 1.33045 0
M  V30 7286 H 693.712 3.92545 1.03262 0
M  V30 7287 H 694.478 4.66143 -1.33925 0
M  V30 7288 H 690.357 4.60859 -0.114178 0
M  V30 7289 H 693.901 6.21398 -3.17034 0
M  V30 7290 H 689.798 6.15753 -1.93698 0
M  V30 7291 H 690.566 7.3241 -3.65402 0
M  V30 7292 N 693.229 0.160201 1.56784 0
M  V30 7293 C 694.177 -0.791402 2.18723 0
M  V30 7294 C 695.171 -1.24567 1.14801 0
M  V30 7295 O 696.377 -1.21262 1.33025 0
M  V30 7296 H 692.752 -0.273458 0.700517 0
M  V30 7297 H 694.723 -0.244931 2.97393 0
M  V30 7298 C 693.472 -2.01509 2.83354 0
M  V30 7299 H 692.795 -1.67454 3.63041 0
M  V30 7300 H 694.235 -2.66006 3.30177 0
M  V30 7301 C 692.694 -2.83159 1.82545 0
M  V30 7302 O 693.224 -3.79944 1.30405 0
M  V30 7303 N 691.43 -2.47953 1.51552 0
M  V30 7304 H 690.977 -1.69309 1.94144 0
M  V30 7305 H 690.935 -3.02873 0.843519 0
M  V30 7306 N 694.707 -1.5719 -0.113559 0
M  V30 7307 C 695.956 -1.84325 -0.818984 0
M  V30 7308 C 696.269 -0.746685 -1.80787 0
M  V30 7309 O 697.475 -0.904596 -2.55987 0
M  V30 7310 C 695.931 -3.26818 -1.50724 0
M  V30 7311 C 695.539 -4.44498 -0.559065 0
M  V30 7312 C 697.283 -3.63196 -2.19748 0
M  V30 7313 C 695.19 -5.7802 -1.25086 0
M  V30 7314 H 694.12 -0.687507 -0.309596 0
M  V30 7315 H 696.771 -1.8336 -0.0717621 0
M  V30 7316 H 695.153 -3.22269 -2.30128 0
M  V30 7317 H 696.327 -4.60356 0.202146 0
M  V30 7318 H 694.642 -4.16393 0.024495 0
M  V30 7319 H 697.239 -4.60226 -2.72206 0
M  V30 7320 H 697.582 -2.90899 -2.97798 0
M  V30 7321 H 698.115 -3.69553 -1.47226 0
M  V30 7322 H 694.854 -6.53501 -0.511539 0
M  V30 7323 H 694.374 -5.66038 -1.98395 0
M  V30 7324 H 696.053 -6.2196 -1.78253 0
M  V30 7325 N 696.185 0.383891 -1.52853 0
M  V30 7326 C 697.413 1.1495 -1.7203 0
M  V30 7327 C 697.828 1.83578 -0.440957 0
M  V30 7328 O 697.185 1.72872 0.584925 0
M  V30 7329 C 697.236 2.19368 -2.87333 0
M  V30 7330 O 696.957 1.53536 -4.10315 0
M  V30 7331 C 698.458 3.08616 -3.18231 0
M  V30 7332 H 695.678 0.344445 -0.575846 0
M  V30 7333 H 698.222 0.448397 -1.99524 0
M  V30 7334 H 696.377 2.85105 -2.62286 0
M  V30 7335 H 696.791 2.2296 -4.74752 0
M  V30 7336 H 698.265 3.77902 -4.02361 0
M  V30 7337 H 698.742 3.72409 -2.32826 0
M  V30 7338 H 699.348 2.48518 -3.45136 0
M  V30 7339 N 697.663 1.43903 0.642637 0
M  V30 7340 C 698.911 1.45791 1.39962 0
M  V30 7341 C 699.232 0.0873144 1.94804 0
M  V30 7342 O 698.502 -0.878825 1.75081 0
M  V30 7343 H 697.082 0.536797 0.519479 0
M  V30 7344 H 699.744 1.7959 0.757189 0
M  V30 7345 H 698.84 2.17665 2.2367 0
M  V30 7346 N 699.141 -0.881989 1.30609 0
M  V30 7347 C 700.071 -2.00413 1.1982 0
M  V30 7348 C 701.052 -1.69871 0.0881538 0
M  V30 7349 O 702.237 -1.92304 0.2707 0
M  V30 7350 C 699.367 -3.35641 0.89233 0
M  V30 7351 C 698.321 -3.80451 1.96064 0
M  V30 7352 C 697.647 -5.13003 1.5077 0
M  V30 7353 C 698.947 -3.98855 3.37213 0
M  V30 7354 H 700.641 -2.09698 2.13699 0
M  V30 7355 H 698.187 -1.00754 1.02882 0
M  V30 7356 H 700.14 -4.13669 0.803497 0
M  V30 7357 H 698.864 -3.26497 -0.0821381 0
M  V30 7358 H 697.523 -3.04654 2.03916 0
M  V30 7359 H 697.171 -5.0029 0.521417 0
M  V30 7360 H 696.871 -5.43956 2.22229 0
M  V30 7361 H 698.395 -5.93554 1.43271 0
M  V30 7362 H 699.809 -4.67312 3.32103 0
M  V30 7363 H 698.206 -4.41188 4.06784 0
M  V30 7364 H 699.276 -3.02614 3.78883 0
M  V30 7365 N 700.619 -1.13374 -1.09472 0
M  V30 7366 C 701.849 -0.917019 -1.85133 0
M  V30 7367 C 702.257 0.537568 -1.81402 0
M  V30 7368 O 701.6 1.38385 -1.20811 0
M  V30 7369 C 701.662 -1.32646 -3.34134 0
M  V30 7370 C 701.326 -2.79437 -3.61613 0
M  V30 7371 C 702.323 -3.77596 -3.57375 0
M  V30 7372 C 700.008 -3.16586 -3.89973 0
M  V30 7373 C 702.002 -5.10916 -3.81108 0
M  V30 7374 C 699.689 -4.50085 -4.13361 0
M  V30 7375 C 700.687 -5.47059 -4.0892 0
M  V30 7376 O 700.375 -6.78149 -4.31705 0
M  V30 7377 H 700.107 -0.326997 -0.591649 0
M  V30 7378 H 702.661 -1.51002 -1.39239 0
M  V30 7379 H 700.891 -0.676719 -3.80733 0
M  V30 7380 H 702.58 -1.08229 -3.91205 0
M  V30 7381 H 703.346 -3.50242 -3.35493 0
M  V30 7382 H 699.225 -2.41707 -3.92554 0
M  V30 7383 H 702.769 -5.86597 -3.77558 0
M  V30 7384 H 698.666 -4.77163 -4.34724 0
M  V30 7385 H 699.434 -6.84244 -4.49168 0
M  V30 7386 N 702.098 1.27442 -0.927168 0
M  V30 7387 C 703.326 1.98498 -0.583622 0
M  V30 7388 C 703.741 1.69171 0.838241 0
M  V30 7389 O 703.098 0.951969 1.55704 0
M  V30 7390 C 703.149 3.52552 -0.799341 0
M  V30 7391 O 702.87 3.80851 -2.16527 0
M  V30 7392 C 704.371 4.4086 -0.464436 0
M  V30 7393 H 701.591 0.633487 -0.221213 0
M  V30 7394 H 704.135 1.62308 -1.24404 0
M  V30 7395 H 702.29 3.86955 -0.185728 0
M  V30 7396 H 702.704 4.75441 -2.21487 0
M  V30 7397 H 704.178 5.47967 -0.666075 0
M  V30 7398 H 704.655 4.35082 0.599995 0
M  V30 7399 H 705.261 4.11977 -1.05617 0
M  V30 7400 N 703.576 0.692616 1.41565 0
M  V30 7401 C 704.539 0.0344174 2.29174 0
M  V30 7402 C 705.539 -0.710961 1.44229 0
M  V30 7403 O 706.729 -0.546293 1.65412 0
M  V30 7404 C 703.861 -0.961682 3.27054 0
M  V30 7405 H 705.054 0.805755 2.88873 0
M  V30 7406 H 702.607 0.455947 1.49502 0
M  V30 7407 H 703.342 -1.76089 2.72329 0
M  V30 7408 H 703.127 -0.430375 3.89731 0
M  V30 7409 H 704.617 -1.4201 3.92712 0
M  V30 7410 N 705.054 -1.51416 0.437162 0
M  V30 7411 C 705.984 -2.30631 -0.364922 0
M  V30 7412 C 706.965 -1.36037 -1.02118 0
M  V30 7413 O 708.15 -1.64956 -1.02485 0
M  V30 7414 C 705.28 -3.1482 -1.46648 0
M  V30 7415 C 704.234 -4.17691 -0.933717 0
M  V30 7416 C 703.56 -4.904 -2.13101 0
M  V30 7417 C 704.86 -5.2229 0.0317201 0
M  V30 7418 H 706.554 -2.97932 0.29614 0
M  V30 7419 H 704.1 -1.4328 0.143865 0
M  V30 7420 H 706.053 -3.69017 -2.03481 0
M  V30 7421 H 704.777 -2.4534 -2.15583 0
M  V30 7422 H 703.436 -3.64545 -0.387602 0
M  V30 7423 H 703.084 -4.17423 -2.80654 0
M  V30 7424 H 702.784 -5.59962 -1.78092 0
M  V30 7425 H 704.308 -5.4742 -2.70487 0
M  V30 7426 H 705.722 -5.7156 -0.446302 0
M  V30 7427 H 704.119 -5.99378 0.29437 0
M  V30 7428 H 705.189 -4.75131 0.968447 0
M  V30 7429 N 706.532 -0.168513 -1.56696 0
M  V30 7430 C 707.943 0.348694 -1.83415 0
M  V30 7431 C 708.294 1.63257 -1.0882 0
M  V30 7432 O 707.419 2.13707 -0.340333 0
M  V30 7433 C 708.014 0.639423 -3.32711 0
M  V30 7434 C 706.573 1.10108 -3.59935 0
M  V30 7435 C 705.72 0.135464 -2.76969 0
M  V30 7436 H 708.671 -0.392829 -1.53761 0
M  V30 7437 H 708.692 1.49179 -3.50037 0
M  V30 7438 H 708.204 -0.295173 -3.86976 0
M  V30 7439 H 706.305 2.05088 -3.11079 0
M  V30 7440 H 706.418 1.01218 -4.68286 0
M  V30 7441 H 704.782 0.632286 -2.46727 0
M  V30 7442 H 705.565 -0.793104 -3.34013 0
M  V30 7443 N 708.01 1.57248 0.105221 0
M  V30 7444 C 708.973 2.00388 1.11252 0
M  V30 7445 C 709.973 0.89594 1.33527 0
M  V30 7446 O 711.163 1.16166 1.29811 0
M  V30 7447 C 708.295 2.35589 2.46395 0
M  V30 7448 H 709.488 2.90591 0.741424 0
M  V30 7449 H 707.041 1.52332 0.349956 0
M  V30 7450 H 707.776 1.4831 2.884 0
M  V30 7451 H 707.561 3.16408 2.31578 0
M  V30 7452 H 709.051 2.69658 3.18864 0
M  V30 7453 N 709.488 -0.375779 1.53054 0
M  V30 7454 C 710.736 -1.11727 1.68409 0
M  V30 7455 C 711.057 -1.90127 0.43323 0
M  V30 7456 O 710.327 -1.87945 -0.552595 0
M  V30 7457 H 708.907 -0.415451 0.620813 0
M  V30 7458 H 711.569 -0.424869 1.90213 0
M  V30 7459 H 710.665 -1.8128 2.54055 0
M  V30 7460 N 710.966 -1.44241 -0.634997 0
M  V30 7461 C 712.194 -1.50296 -1.42193 0
M  V30 7462 C 712.609 -0.12658 -1.88375 0
M  V30 7463 O 711.966 0.86678 -1.60603 0
M  V30 7464 C 712.017 -2.46437 -2.64482 0
M  V30 7465 O 711.738 -3.78724 -2.20226 0
M  V30 7466 C 713.239 -2.61918 -3.57651 0
M  V30 7467 H 710.459 -0.509865 -0.43621 0
M  V30 7468 H 713.003 -1.89167 -0.776921 0
M  V30 7469 H 711.158 -2.10712 -3.25083 0
M  V30 7470 H 711.572 -4.30595 -2.9948 0
M  V30 7471 H 713.046 -3.33225 -4.40074 0
M  V30 7472 H 713.523 -1.67017 -4.06204 0
M  V30 7473 H 714.129 -2.98528 -3.02921 0
M  V30 7474 N 712.444 0.87505 -1.31075 0
M  V30 7475 C 713.674 1.65818 -1.2324 0
M  V30 7476 C 714.082 1.8808 0.205536 0
M  V30 7477 O 713.425 1.43548 1.14628 0
M  V30 7478 C 713.487 3.05131 -1.90093 0
M  V30 7479 C 713.151 3.05999 -3.39432 0
M  V30 7480 C 714.148 2.84328 -4.35263 0
M  V30 7481 C 711.833 3.27281 -3.81041 0
M  V30 7482 C 713.827 2.83912 -5.70678 0
M  V30 7483 C 711.514 3.26493 -5.16571 0
M  V30 7484 C 712.512 3.04834 -6.112 0
M  V30 7485 O 712.2 3.03882 -7.44252 0
M  V30 7486 H 711.932 0.52387 -0.427242 0
M  V30 7487 H 714.486 1.10086 -1.73408 0
M  V30 7488 H 712.716 3.62568 -1.34468 0
M  V30 7489 H 714.405 3.65641 -1.76242 0
M  V30 7490 H 715.171 2.67673 -4.04445 0
M  V30 7491 H 711.05 3.43171 -3.07822 0
M  V30 7492 H 714.594 2.66925 -6.44513 0
M  V30 7493 H 710.491 3.42687 -5.47025 0
M  V30 7494 H 711.259 3.19979 -7.53363 0
M  V30 7495 N 713.922 1.13953 1.08869 0
M  V30 7496 C 715.15 0.92817 1.84912 0
M  V30 7497 C 715.565 -0.523197 1.81406 0
M  V30 7498 O 714.922 -1.36237 1.21432 0
M  V30 7499 C 714.973 1.41509 3.32652 0
M  V30 7500 O 714.694 2.80959 3.36145 0
M  V30 7501 C 716.195 1.243 4.25517 0
M  V30 7502 H 713.415 0.330612 0.583898 0
M  V30 7503 H 715.959 1.51349 1.37527 0
M  V30 7504 H 714.114 0.872648 3.77444 0
M  V30 7505 H 714.528 3.02704 4.28335 0
M  V30 7506 H 716.002 1.63237 5.27312 0
M  V30 7507 H 716.479 0.18532 4.38809 0
M  V30 7508 H 717.085 1.77375 3.86546 0
M  V30 7509 N 715.4 -1.26948 0.933913 0
M  V30 7510 C 716.677 -1.89212 0.495784 0
M  V30 7511 C 717.057 -1.84469 -1.02637 0
M  V30 7512 O 716.405 -1.29409 -1.88323 0
M  V30 7513 C 716.615 -3.32865 1.0489 0
M  V30 7514 C 717.963 -4.09749 1.11315 0
M  V30 7515 O 718.987 -3.41905 0.998966 0
M  V30 7516 O 717.846 -5.31061 1.28983 0
M  V30 7517 H 714.94 -0.811284 0.160459 0
M  V30 7518 H 717.486 -1.35171 1.02601 0
M  V30 7519 H 716.258 -3.30642 2.09265 0
M  V30 7520 H 715.881 -3.94435 0.500692 0
M  V30 7521 N 716.879 -0.700114 -1.41195 0
M  V30 7522 C 718.125 -0.233351 -2.01453 0
M  V30 7523 C 718.458 1.16548 -1.55339 0
M  V30 7524 O 717.733 1.78756 -0.766575 0
M  V30 7525 C 718.016 -0.2961 -3.58881 0
M  V30 7526 C 717.869 -1.7322 -4.15108 0
M  V30 7527 C 719.188 0.341525 -4.38773 0
M  V30 7528 H 716.307 -0.0862667 -0.731934 0
M  V30 7529 H 718.949 -0.889693 -1.67882 0
M  V30 7530 H 717.099 0.262736 -3.87611 0
M  V30 7531 H 718.771 -2.34523 -3.97236 0
M  V30 7532 H 717.014 -2.2649 -3.69979 0
M  V30 7533 H 717.685 -1.7276 -5.24269 0
M  V30 7534 H 720.161 -0.134461 -4.15883 0
M  V30 7535 H 719.037 0.267098 -5.4825 0
M  V30 7536 H 719.298 1.42289 -4.18577 0
M  V30 7537 N 718.357 1.51182 -0.445186 0
M  V30 7538 C 719.287 2.30821 0.352686 0
M  V30 7539 C 720.268 1.36576 1.01395 0
M  V30 7540 O 721.453 1.65497 1.01609 0
M  V30 7541 C 718.583 3.15593 1.44976 0
M  V30 7542 C 717.537 4.1818 0.911553 0
M  V30 7543 C 716.863 4.91523 2.10497 0
M  V30 7544 C 718.163 5.22266 -0.059418 0
M  V30 7545 H 719.857 2.97771 -0.311936 0
M  V30 7546 H 717.403 1.43201 -0.151461 0
M  V30 7547 H 719.356 3.70091 2.01521 0
M  V30 7548 H 718.08 2.4648 2.14278 0
M  V30 7549 H 716.739 3.64746 0.368264 0
M  V30 7550 H 716.387 4.18906 2.78437 0
M  V30 7551 H 716.087 5.60898 1.7512 0
M  V30 7552 H 717.611 5.48847 2.6758 0
M  V30 7553 H 719.025 5.71789 0.415985 0
M  V30 7554 H 717.422 5.99213 -0.326152 0
M  V30 7555 H 718.492 4.7461 -0.993631 0
M  V30 7556 N 719.835 0.176821 1.56605 0
M  V30 7557 C 721.083 -0.465793 1.96659 0
M  V30 7558 C 721.404 -1.63406 1.06412 0
M  V30 7559 O 720.674 -1.95457 0.131603 0
M  V30 7560 H 719.254 -0.175072 0.726195 0
M  V30 7561 H 721.916 0.25929 1.93168 0
M  V30 7562 H 721.012 -0.822138 3.01077 0
M  V30 7563 N 721.313 -1.57302 -0.09688 0
M  V30 7564 C 722.561 -1.8563 -0.799117 0
M  V30 7565 C 722.882 -0.765263 -1.79356 0
M  V30 7566 O 722.152 0.208657 -1.94786 0
M  V30 7567 H 720.732 -0.684937 -0.298111 0
M  V30 7568 H 723.394 -1.9474 -0.0789341 0
M  V30 7569 H 722.49 -2.82305 -1.3308 0
M  V30 7570 N 722.791 0.367657 -1.53252 0
M  V30 7571 C 723.721 1.45632 -1.8252 0
M  V30 7572 C 724.702 1.55979 -0.678568 0
M  V30 7573 O 725.887 1.70581 -0.928217 0
M  V30 7574 C 723.017 2.82994 -2.01325 0
M  V30 7575 C 721.971 2.87473 -3.17086 0
M  V30 7576 C 721.297 4.2749 -3.21179 0
M  V30 7577 C 722.597 2.55182 -4.55719 0
M  V30 7578 H 724.291 1.21387 -2.73689 0
M  V30 7579 H 721.837 0.58251 -1.31692 0
M  V30 7580 H 723.79 3.59179 -2.20383 0
M  V30 7581 H 722.514 3.08622 -1.06864 0
M  V30 7582 H 721.173 2.13739 -2.97844 0
M  V30 7583 H 720.821 4.5019 -2.24361 0
M  V30 7584 H 720.521 4.31403 -3.98955 0
M  V30 7585 H 722.045 5.0555 -3.42419 0
M  V30 7586 H 723.459 3.21081 -4.74953 0
M  V30 7587 H 721.856 2.70414 -5.3572 0
M  V30 7588 H 722.926 1.5044 -4.60973 0
M  V30 7589 N 724.269 1.44576 0.627338 0
M  V30 7590 C 725.199 1.54562 1.75022 0
M  V30 7591 C 726.18 0.398378 1.65369 0
M  V30 7592 O 727.365 0.61899 1.84071 0
M  V30 7593 C 724.495 1.49309 3.13567 0
M  V30 7594 C 723.449 2.62549 3.38012 0
M  V30 7595 C 722.775 2.42348 4.76625 0
M  V30 7596 C 724.075 4.04678 3.30202 0
M  V30 7597 H 725.769 2.4855 1.66922 0
M  V30 7598 H 723.315 1.19624 0.801636 0
M  V30 7599 H 725.268 1.54895 3.919 0
M  V30 7600 H 723.992 0.518392 3.2246 0
M  V30 7601 H 722.651 2.56358 2.62061 0
M  V30 7602 H 722.299 1.43062 4.82226 0
M  V30 7603 H 721.999 3.18273 4.93939 0
M  V30 7604 H 723.523 2.49758 5.57183 0
M  V30 7605 H 724.937 4.12217 3.98435 0
M  V30 7606 H 723.334 4.80836 3.5905 0
M  V30 7607 H 724.404 4.2798 2.27949 0
M  V30 7608 N 725.747 -0.868086 1.31537 0
M  V30 7609 C 726.695 -1.99688 1.1928 0
M  V30 7610 C 727.689 -1.69101 0.100656 0
M  V30 7611 O 728.895 -1.78073 0.262677 0
M  V30 7612 H 725.27 -0.655032 0.369374 0
M  V30 7613 H 727.241 -2.07157 2.14776 0
M  V30 7614 C 725.99 -3.35338 0.918892 0
M  V30 7615 H 725.313 -3.59396 1.75142 0
M  V30 7616 H 726.753 -4.14909 0.873311 0
M  V30 7617 C 725.212 -3.34769 -0.378366 0
M  V30 7618 O 725.742 -3.76716 -1.39456 0
M  V30 7619 N 723.948 -2.87895 -0.39557 0
M  V30 7620 H 723.495 -2.53954 0.431889 0
M  V30 7621 H 723.453 -2.87897 -1.26344 0
M  V30 7622 N 727.225 -1.14528 -1.08264 0
M  V30 7623 C 728.473 -0.912599 -1.80322 0
M  V30 7624 C 728.794 0.562256 -1.86718 0
M  V30 7625 O 728.064 1.40869 -1.36135 0
M  V30 7626 H 726.644 -0.334645 -0.667849 0
M  V30 7627 H 729.306 -1.44415 -1.30883 0
M  V30 7628 H 728.402 -1.31384 -2.83098 0
M  V30 7629 N 728.703 1.26451 -0.940633 0
M  V30 7630 C 729.651 2.28389 -0.440581 0
M  V30 7631 C 730.645 1.62402 0.481859 0
M  V30 7632 O 731.851 1.76361 0.360132 0
M  V30 7633 H 728.226 0.741716 -0.123938 0
M  V30 7634 H 730.197 2.67967 -1.31288 0
M  V30 7635 C 728.946 3.46576 0.279364 0
M  V30 7636 H 728.269 3.97574 -0.421274 0
M  V30 7637 H 729.709 4.19826 0.59348 0
M  V30 7638 C 728.168 3.01815 1.49697 0
M  V30 7639 O 728.698 3.06607 2.59529 0
M  V30 7640 N 726.904 2.57163 1.35334 0
M  V30 7641 H 726.451 2.53464 0.459743 0
M  V30 7642 H 726.409 2.27578 2.16923 0
M  V30 7643 N 730.181 0.707592 1.40822 0
M  V30 7644 C 731.406 0.251626 2.05868 0
M  V30 7645 C 731.831 -1.09503 1.5294 0
M  V30 7646 O 731.189 -1.68806 0.661385 0
M  V30 7647 C 731.237 0.23287 3.59847 0
M  V30 7648 O 730.341 -0.788477 4.04792 0
M  V30 7649 H 729.682 0.119936 0.653078 0
M  V30 7650 H 732.212 0.96583 1.80369 0
M  V30 7651 H 732.222 0.0678204 4.07944 0
M  V30 7652 H 730.897 1.21565 3.97737 0
M  V30 7653 H 729.474 -0.591802 3.68174 0
M  V30 7654 N 731.66 -1.50943 0.453197 0
M  V30 7655 C 732.909 -2.01402 -0.10951 0
M  V30 7656 C 733.222 -1.3411 -1.42386 0
M  V30 7657 O 734.428 -1.75626 -2.07045 0
M  V30 7658 C 732.884 -3.5906 -0.245693 0
M  V30 7659 C 732.492 -4.353 1.05916 0
M  V30 7660 C 734.236 -4.17617 -0.761318 0
M  V30 7661 C 732.143 -5.84699 0.887752 0
M  V30 7662 H 731.073 -0.752674 -0.0447013 0
M  V30 7663 H 733.724 -1.73913 0.585375 0
M  V30 7664 H 732.106 -3.83062 -1.00395 0
M  V30 7665 H 733.28 -4.23034 1.82698 0
M  V30 7666 H 731.595 -3.88269 1.50452 0
M  V30 7667 H 734.192 -5.26963 -0.906306 0
M  V30 7668 H 734.535 -3.77824 -1.74799 0
M  V30 7669 H 735.068 -3.97753 -0.0609416 0
M  V30 7670 H 731.807 -6.28933 1.84726 0
M  V30 7671 H 731.327 -5.99587 0.160006 0
M  V30 7672 H 733.006 -6.44682 0.547223 0
M  V30 7673 N 733.138 -0.185124 -1.56509 0
M  V30 7674 C 734.363 0.465278 -2.02114 0
M  V30 7675 C 734.788 1.55083 -1.06447 0
M  V30 7676 O 734.146 1.81241 -0.0462852 0
M  V30 7677 C 734.194 1.00784 -3.46229 0
M  V30 7678 O 733.298 2.12123 -3.53663 0
M  V30 7679 H 732.639 0.109891 -0.654843 0
M  V30 7680 H 735.169 -0.293072 -2.0249 0
M  V30 7681 H 735.179 1.32697 -3.85818 0
M  V30 7682 H 733.854 0.213113 -4.15354 0
M  V30 7683 H 732.431 1.8115 -3.25943 0
M  V30 7684 N 734.616 1.57351 0.0885366 0
M  V30 7685 C 735.862 1.86696 0.791996 0
M  V30 7686 C 736.195 0.775148 1.78059 0
M  V30 7687 O 735.47 -0.216247 1.93294 0
M  V30 7688 C 735.753 3.26684 1.51491 0
M  V30 7689 C 735.606 4.465 0.543858 0
M  V30 7690 C 736.925 3.64664 2.46391 0
M  V30 7691 H 734.044 0.679049 0.286463 0
M  V30 7692 H 736.686 1.89919 0.0554866 0
M  V30 7693 H 734.836 3.24067 2.14273 0
M  V30 7694 H 736.508 4.61235 -0.0774597 0
M  V30 7695 H 734.751 4.33567 -0.142228 0
M  V30 7696 H 735.422 5.41192 1.08696 0
M  V30 7697 H 737.898 3.68267 1.93698 0
M  V30 7698 H 736.774 4.63534 2.93986 0
M  V30 7699 H 737.035 2.93698 3.30445 0
M  V30 7700 N 736.094 -0.359525 1.53444 0
M  V30 7701 C 737.057 -1.42357 1.7963 0
M  V30 7702 C 738.057 -1.46319 0.666884 0
M  V30 7703 O 739.247 -1.46974 0.935113 0
M  V30 7704 C 736.379 -2.81425 1.92387 0
M  V30 7705 H 737.572 -1.20409 2.74666 0
M  V30 7706 H 735.125 -0.593007 1.44614 0
M  V30 7707 H 735.86 -3.08679 0.994384 0
M  V30 7708 H 735.645 -2.79947 2.74539 0
M  V30 7709 H 737.135 -3.5847 2.14218 0
M  V30 7710 N 737.572 -1.44907 -0.619662 0
M  V30 7711 C 738.797 -1.52021 -1.41083 0
M  V30 7712 C 739.222 -0.14976 -1.87503 0
M  V30 7713 O 738.58 0.863303 -1.59426 0
M  V30 7714 C 738.628 -2.49911 -2.59955 0
M  V30 7715 O 737.732 -2.00857 -3.60181 0
M  V30 7716 H 737.073 -0.512912 -0.421684 0
M  V30 7717 H 739.603 -1.90149 -0.755282 0
M  V30 7718 H 739.613 -2.68323 -3.07354 0
M  V30 7719 H 738.288 -3.4945 -2.25516 0
M  V30 7720 H 736.865 -1.92265 -3.19513 0
M  V30 7721 N 739.05 0.861098 -1.31996 0
M  V30 7722 C 740.327 1.59788 -1.12814 0
M  V30 7723 C 740.707 2.08753 0.313882 0
M  V30 7724 O 740.055 1.87258 1.30946 0
M  V30 7725 C 740.265 2.74901 -2.15012 0
M  V30 7726 C 741.613 3.44643 -2.48004 0
M  V30 7727 O 742.637 2.85119 -2.13508 0
M  V30 7728 O 741.496 4.52044 -3.07113 0
M  V30 7729 H 738.59 0.703408 -0.434909 0
M  V30 7730 H 741.136 0.905788 -1.43505 0
M  V30 7731 H 739.908 2.36198 -3.11971 0
M  V30 7732 H 739.531 3.51792 -1.85279 0
M  V30 7733 N 740.528 1.15101 1.07655 0
M  V30 7734 C 741.776 0.922149 1.79836 0
M  V30 7735 C 742.097 -0.552346 1.87014 0
M  V30 7736 O 741.367 -1.40145 1.3688 0
M  V30 7737 H 739.947 0.338182 0.666064 0
M  V30 7738 H 742.609 1.45107 1.30115 0
M  V30 7739 H 741.705 1.32883 2.82398 0
M  V30 7740 N 742.006 -1.2595 0.947325 0
M  V30 7741 C 743.231 -1.98083 0.614633 0
M  V30 7742 C 743.656 -1.70013 -0.804815 0
M  V30 7743 O 743.014 -0.95175 -1.54309 0
M  V30 7744 C 743.062 -3.4993 0.870706 0
M  V30 7745 O 742.166 -4.12364 -0.0541451 0
M  V30 7746 H 741.507 -0.621232 0.234451 0
M  V30 7747 H 744.037 -1.60259 1.27193 0
M  V30 7748 H 744.047 -4.00198 0.794051 0
M  V30 7749 H 742.722 -3.69691 1.90529 0
M  V30 7750 H 741.299 -3.72826 0.0740917 0
M  V30 7751 N 743.484 -0.715051 -1.40445 0
M  V30 7752 C 744.73 -0.254705 -2.01194 0
M  V30 7753 C 745.063 1.14894 -1.56567 0
M  V30 7754 O 744.338 1.77933 -0.785491 0
M  V30 7755 C 744.621 -0.334148 -3.58546 0
M  V30 7756 C 744.474 -1.77613 -4.13248 0
M  V30 7757 C 745.793 0.294968 -4.3911 0
M  V30 7758 H 742.912 -0.094025 -0.730978 0
M  V30 7759 H 745.554 -0.907449 -1.66929 0
M  V30 7760 H 743.704 0.221609 -3.87867 0
M  V30 7761 H 745.376 -2.38723 -3.94727 0
M  V30 7762 H 743.619 -2.30402 -3.67556 0
M  V30 7763 H 744.29 -1.78311 -5.22407 0
M  V30 7764 H 746.766 -0.178563 -4.15717 0
M  V30 7765 H 745.642 0.208934 -5.48502 0
M  V30 7766 H 745.903 1.37841 -4.20062 0
M  V30 7767 N 744.962 1.50701 -0.461195 0
M  V30 7768 C 746.19 2.06681 0.0951756 0
M  V30 7769 C 746.605 1.32615 1.34382 0
M  V30 7770 O 745.962 0.392531 1.78229 0
M  V30 7771 C 746.013 3.59354 0.393316 0
M  V30 7772 O 745.734 4.30626 -0.805797 0
M  V30 7773 C 747.235 4.31926 0.997744 0
M  V30 7774 H 744.455 0.670995 -0.00267259 0
M  V30 7775 H 746.999 1.93991 -0.647137 0
M  V30 7776 H 745.154 3.7188 1.08555 0
M  V30 7777 H 745.568 5.21667 -0.544409 0
M  V30 7778 H 747.042 5.39756 1.15619 0
M  V30 7779 H 747.519 3.91772 1.98523 0
M  V30 7780 H 748.125 4.23905 0.344188 0
M  V30 7781 N 746.441 0.193421 1.56409 0
M  V30 7782 C 747.852 -0.319471 1.83946 0
M  V30 7783 C 748.203 -1.61505 1.11403 0
M  V30 7784 O 747.328 -2.13139 0.374289 0
M  V30 7785 C 747.923 -0.586411 3.33686 0
M  V30 7786 C 746.482 -1.04368 3.61641 0
M  V30 7787 C 745.629 -0.0913834 2.77149 0
M  V30 7788 H 748.58 0.417242 1.53117 0
M  V30 7789 H 748.601 -1.43591 3.52366 0
M  V30 7790 H 748.113 0.356701 3.86457 0
M  V30 7791 H 746.214 -2.00113 3.14302 0
M  V30 7792 H 746.327 -0.937549 4.69837 0
M  V30 7793 H 744.691 -0.592954 2.47702 0
M  V30 7794 H 745.474 0.846142 3.32709 0
M  V30 7795 N 747.919 -1.57396 -0.0801906 0
M  V30 7796 C 749.166 -1.86836 -0.780927 0
M  V30 7797 C 749.494 -0.784012 -1.77999 0
M  V30 7798 O 748.749 0.220881 -1.94449 0
M  V30 7799 C 749.048 -3.22915 -1.53169 0
M  V30 7800 C 748.714 -4.45843 -0.67339 0
M  V30 7801 C 747.376 -4.79213 -0.436829 0
M  V30 7802 C 749.728 -5.21142 -0.0776786 0
M  V30 7803 C 747.056 -5.853 0.405062 0
M  V30 7804 C 749.408 -6.28119 0.751619 0
M  V30 7805 C 748.072 -6.59995 0.998131 0
M  V30 7806 H 747.342 -0.683682 -0.285761 0
M  V30 7807 H 749.989 -1.91454 -0.0419435 0
M  V30 7808 H 748.294 -3.14049 -2.34265 0
M  V30 7809 H 749.991 -3.42926 -2.07853 0
M  V30 7810 H 746.581 -4.19721 -0.867891 0
M  V30 7811 H 750.765 -4.95682 -0.247572 0
M  V30 7812 H 746.021 -6.084 0.60488 0
M  V30 7813 H 750.195 -6.8563 1.22 0
M  V30 7814 H 747.822 -7.42027 1.65227 0
M  V30 7815 N 749.397 0.351382 -1.53633 0
M  V30 7816 C 750.625 1.11275 -1.74429 0
M  V30 7817 C 751.04 1.82602 -0.479798 0
M  V30 7818 O 750.397 1.74074 0.548125 0
M  V30 7819 C 750.448 2.13223 -2.91921 0
M  V30 7820 O 750.169 1.44798 -4.13479 0
M  V30 7821 C 751.67 3.01797 -3.24706 0
M  V30 7822 H 748.89 0.332153 -0.583023 0
M  V30 7823 H 751.434 0.405974 -2.0043 0
M  V30 7824 H 749.589 2.79477 -2.68274 0
M  V30 7825 H 750.003 2.12839 -4.79374 0
M  V30 7826 H 751.477 3.69282 -4.10286 0
M  V30 7827 H 751.954 3.67387 -2.40673 0
M  V30 7828 H 752.56 2.41141 -3.5033 0
M  V30 7829 N 750.875 1.45233 0.611969 0
M  V30 7830 C 751.805 1.5641 1.73373 0
M  V30 7831 C 752.786 0.415896 1.64937 0
M  V30 7832 O 753.971 0.638478 1.83404 0
M  V30 7833 C 751.101 1.52627 3.11965 0
M  V30 7834 C 750.055 2.66119 3.35208 0
M  V30 7835 C 749.381 2.4739 4.74028 0
M  V30 7836 C 750.681 4.08157 3.25891 0
M  V30 7837 H 752.375 2.50307 1.64277 0
M  V30 7838 H 749.921 1.20467 0.788904 0
M  V30 7839 H 751.874 1.59043 3.90235 0
M  V30 7840 H 750.598 0.552564 3.21892 0
M  V30 7841 H 749.257 2.59123 2.59327 0
M  V30 7842 H 748.905 1.48168 4.80682 0
M  V30 7843 H 748.605 3.23494 4.90536 0
M  V30 7844 H 750.129 2.55653 5.54503 0
M  V30 7845 H 751.543 4.1642 3.9404 0
M  V30 7846 H 749.94 4.84617 3.5393 0
M  V30 7847 H 751.01 4.30374 2.23397 0
M  V30 7848 N 752.353 -0.854086 1.3245 0
M  V30 7849 C 753.578 -1.64597 1.26185 0
M  V30 7850 C 754.003 -1.87357 -0.167074 0
M  V30 7851 O 753.361 -1.42675 -1.11864 0
M  V30 7852 C 753.409 -2.98213 2.02734 0
M  V30 7853 O 752.513 -3.88784 1.37554 0
M  V30 7854 H 751.854 -0.50179 0.434859 0
M  V30 7855 H 754.384 -1.06372 1.74775 0
M  V30 7856 H 754.394 -3.4803 2.1293 0
M  V30 7857 H 753.069 -2.80969 3.06642 0
M  V30 7858 H 751.646 -3.4725 1.3591 0
M  V30 7859 N 753.831 -1.1567 -1.07043 0
M  V30 7860 C 754.794 -0.858906 -2.12498 0
M  V30 7861 C 755.794 0.142735 -1.60165 0
M  V30 7862 O 756.984 -0.0872678 -1.73981 0
M  V30 7863 C 754.116 -0.283021 -3.39723 0
M  V30 7864 H 755.309 -1.79368 -2.40348 0
M  V30 7865 H 752.862 -0.964608 -1.22984 0
M  V30 7866 H 753.597 0.659796 -3.17517 0
M  V30 7867 H 753.382 -1.00467 -3.7901 0
M  V30 7868 H 754.872 -0.0923543 -4.17498 0
M  V30 7869 N 755.309 1.25446 -0.953992 0
M  V30 7870 C 756.557 1.92762 -0.607227 0
M  V30 7871 C 756.878 1.7509 0.858399 0
M  V30 7872 O 756.148 1.11416 1.61132 0
M  V30 7873 H 754.728 0.713377 -0.221591 0
M  V30 7874 H 757.39 1.52625 -1.21209 0
M  V30 7875 H 756.486 3.00695 -0.835998 0
M  V30 7876 N 756.787 0.722489 1.40064 0
M  V30 7877 C 757.697 0.0755984 2.34478 0
M  V30 7878 C 758.713 -0.736046 1.57665 0
M  V30 7879 O 759.889 -0.667407 1.9002 0
M  V30 7880 C 756.954 -0.830075 3.36616 0
M  V30 7881 C 756.015 -0.00759884 4.29299 0
M  V30 7882 C 755.248 -0.870139 5.26559 0
M  V30 7883 O 755.471 -2.10921 5.2997 0
M  V30 7884 O 754.405 -0.305454 6.01124 0
M  V30 7885 H 758.231 0.854545 2.9143 0
M  V30 7886 H 755.816 0.483032 1.41376 0
M  V30 7887 H 757.698 -1.34864 3.99236 0
M  V30 7888 H 756.373 -1.58805 2.82069 0
M  V30 7889 H 755.28 0.556199 3.69942 0
M  V30 7890 H 756.613 0.712312 4.87018 0
M  V30 7891 N 758.265 -1.50454 0.469181 0
M  V30 7892 C 759.511 -2.02615 -0.0865971 0
M  V30 7893 C 759.844 -1.35062 -1.39542 0
M  V30 7894 O 759.119 -0.475701 -1.88593 0
M  V30 7895 C 759.402 -3.59068 -0.272385 0
M  V30 7896 C 759.255 -4.37196 1.05733 0
M  V30 7897 C 760.574 -4.2793 -1.0278 0
M  V30 7898 H 757.693 -0.736389 -0.0299977 0
M  V30 7899 H 760.335 -1.79792 0.614399 0
M  V30 7900 H 758.485 -3.78646 -0.869471 0
M  V30 7901 H 760.157 -4.29195 1.69084 0
M  V30 7902 H 758.4 -4.01013 1.65442 0
M  V30 7903 H 759.071 -5.44924 0.880997 0
M  V30 7904 H 761.547 -4.12816 -0.521718 0
M  V30 7905 H 760.423 -5.37214 -1.12659 0
M  V30 7906 H 760.684 -3.90968 -2.0639 0
M  V30 7907 N 759.743 -0.201713 -1.56304 0
M  V30 7908 C 760.706 0.702811 -2.18159 0
M  V30 7909 C 761.706 1.13619 -1.13787 0
M  V30 7910 O 762.896 1.0482 -1.39134 0
M  V30 7911 C 760.028 1.96032 -2.78898 0
M  V30 7912 H 761.221 0.163836 -2.99452 0
M  V30 7913 H 758.774 0.04791 -1.56227 0
M  V30 7914 H 759.509 2.54165 -2.01421 0
M  V30 7915 H 759.294 1.65824 -3.55309 0
M  V30 7916 H 760.784 2.60519 -3.26373 0
M  V30 7917 N 761.222 1.57436 0.0718424 0
M  V30 7918 C 762.468 1.87525 0.772149 0
M  V30 7919 C 762.801 0.79399 1.77227 0
M  V30 7920 O 762.076 -0.195733 1.93513 0
M  V30 7921 C 762.359 3.28272 1.48018 0
M  V30 7922 C 762.212 4.47052 0.49647 0
M  V30 7923 C 763.531 3.67256 2.42509 0
M  V30 7924 H 760.65 0.682049 0.279245 0
M  V30 7925 H 763.292 1.89967 0.03534 0
M  V30 7926 H 761.442 3.26321 2.10824 0
M  V30 7927 H 763.114 4.61127 -0.126375 0
M  V30 7928 H 761.357 4.33392 -0.188205 0
M  V30 7929 H 762.028 5.42315 1.02949 0
M  V30 7930 H 764.504 3.70301 1.89781 0
M  V30 7931 H 763.38 4.66626 2.89053 0
M  V30 7932 H 763.641 2.97186 3.27312 0
M  V30 7933 N 762.7 -0.34323 1.53817 0
M  V30 7934 C 763.946 -1.08137 1.72273 0
M  V30 7935 C 764.301 -1.86311 0.480201 0
M  V30 7936 O 763.594 -1.84204 -0.527192 0
M  V30 7937 C 763.788 -2.05195 2.92626 0
M  V30 7938 C 763.617 -1.36561 4.28464 0
M  V30 7939 C 762.387 -1.11033 4.9295 0
M  V30 7940 C 764.585 -0.791663 5.0817 0
M  V30 7941 N 762.567 -0.389839 6.12661 0
M  V30 7942 C 763.938 -0.201742 6.19672 0
M  V30 7943 C 765.993 -0.692541 4.9306 0
M  V30 7944 C 764.696 0.477661 7.17712 0
M  V30 7945 C 766.722 -0.0268775 5.91394 0
M  V30 7946 C 766.084 0.552072 7.02233 0
M  V30 7947 H 762.183 -0.380078 0.683421 0
M  V30 7948 H 764.767 -0.364925 1.9125 0
M  V30 7949 H 762.938 -2.74131 2.75149 0
M  V30 7950 H 764.67 -2.7185 2.99799 0
M  V30 7951 H 761.425 -1.39752 4.52511 0
M  V30 7952 H 761.849 -0.0443076 6.76986 0
M  V30 7953 H 766.491 -1.12589 4.07534 0
M  V30 7954 H 764.209 0.922895 8.02813 0
M  V30 7955 H 767.795 0.0491921 5.81779 0
M  V30 7956 H 766.675 1.05899 7.77017 0
M  V30 7957 N 764.178 -1.45556 -0.604258 0
M  V30 7958 C 765.11 -1.50494 -1.72871 0
M  V30 7959 C 766.123 -0.395368 -1.57926 0
M  V30 7960 O 767.312 -0.662603 -1.65746 0
M  V30 7961 C 764.412 -1.34874 -3.10906 0
M  V30 7962 C 763.585 -2.59564 -3.52058 0
M  V30 7963 C 762.644 -2.38453 -4.6907 0
M  V30 7964 O 761.67 -3.12082 -4.76018 0
M  V30 7965 N 762.872 -1.43229 -5.62553 0
M  V30 7966 H 765.637 -2.4744 -1.69097 0
M  V30 7967 H 763.198 -1.41338 -0.789636 0
M  V30 7968 H 765.19 -1.18556 -3.86945 0
M  V30 7969 H 763.76 -0.461913 -3.09168 0
M  V30 7970 H 762.98 -2.90974 -2.65946 0
M  V30 7971 H 764.268 -3.42441 -3.76313 0
M  V30 7972 H 763.666 -0.824714 -5.59656 0
M  V30 7973 H 762.223 -1.32882 -6.38111 0
M  V30 7974 N 765.656 0.84705 -1.32902 0
M  V30 7975 C 766.886 1.63166 -1.26729 0
M  V30 7976 C 767.294 1.88474 0.165595 0
M  V30 7977 O 766.637 1.45947 1.11558 0
M  V30 7978 C 766.699 3.0103 -1.96522 0
M  V30 7979 C 766.363 2.9873 -3.45846 0
M  V30 7980 C 767.36 2.75032 -4.41196 0
M  V30 7981 C 765.045 3.19125 -3.87898 0
M  V30 7982 C 767.039 2.71743 -5.76571 0
M  V30 7983 C 764.726 3.15462 -5.2338 0
M  V30 7984 C 765.724 2.91801 -6.17528 0
M  V30 7985 O 765.412 2.88027 -7.5053 0
M  V30 7986 H 765.144 0.51469 -0.438258 0
M  V30 7987 H 767.698 1.06383 -1.75704 0
M  V30 7988 H 765.928 3.59634 -1.42128 0
M  V30 7989 H 767.617 3.61821 -1.83958 0
M  V30 7990 H 768.383 2.59034 -4.10032 0
M  V30 7991 H 764.262 3.36565 -3.15032 0
M  V30 7992 H 767.806 2.53194 -6.5003 0
M  V30 7993 H 763.703 3.31006 -5.54171 0
M  V30 7994 H 764.471 3.03927 -7.59981 0
M  V30 7995 N 767.134 1.16236 1.06428 0
M  V30 7996 C 768.38 0.944431 1.79467 0
M  V30 7997 C 768.713 -0.526558 1.86925 0
M  V30 7998 O 767.988 -1.39061 1.35986 0
M  V30 7999 C 768.271 1.57092 3.24028 0
M  V30 8000 C 768.124 3.11315 3.24658 0
M  V30 8001 C 769.443 1.26447 4.21544 0
M  V30 8002 H 766.562 0.344521 0.651517 0
M  V30 8003 H 769.204 1.43545 1.24478 0
M  V30 8004 H 767.354 1.15337 3.70985 0
M  V30 8005 H 769.026 3.62042 2.85873 0
M  V30 8006 H 767.269 3.44716 2.6335 0
M  V30 8007 H 767.94 3.50269 4.26633 0
M  V30 8008 H 770.416 1.62581 3.83023 0
M  V30 8009 H 769.292 1.72885 5.20963 0
M  V30 8010 H 769.553 0.183068 4.41721 0
M  V30 8011 N 768.612 -1.24939 0.960631 0
M  V30 8012 C 769.837 -1.9742 0.635608 0
M  V30 8013 C 770.262 -1.70857 -0.786737 0
M  V30 8014 O 769.62 -0.968063 -1.53291 0
M  V30 8015 C 769.668 -3.48987 0.907771 0
M  V30 8016 O 768.772 -4.12399 -0.0104053 0
M  V30 8017 H 768.113 -0.61871 0.241027 0
M  V30 8018 H 770.643 -1.58901 1.28886 0
M  V30 8019 H 770.653 -3.99334 0.836453 0
M  V30 8020 H 769.328 -3.6765 1.94439 0
M  V30 8021 H 767.905 -3.72727 0.113631 0
M  V30 8022 N 770.09 -0.729906 -1.39679 0
M  V30 8023 C 771.315 -0.284345 -2.05442 0
M  V30 8024 C 771.74 1.07056 -1.54663 0
M  V30 8025 O 771.098 1.67732 -0.688157 0
M  V30 8026 C 771.146 -0.290089 -3.59431 0
M  V30 8027 O 770.25 0.723978 -4.05995 0
M  V30 8028 H 769.591 -0.130311 -0.651088 0
M  V30 8029 H 772.121 -0.994403 -1.78809 0
M  V30 8030 H 772.131 -0.132712 -4.07784 0
M  V30 8031 H 770.806 -1.27877 -3.95753 0
M  V30 8032 H 769.383 0.533154 -3.69069 0
M  V30 8033 N 771.568 1.50203 -0.477153 0
M  V30 8034 C 772.793 2.07263 0.0754986 0
M  V30 8035 C 773.218 1.33801 1.32208 0
M  V30 8036 O 772.576 0.387482 1.77111 0
M  V30 8037 C 772.624 3.59028 0.336348 0
M  V30 8038 O 771.728 3.87339 1.4157 0
M  V30 8039 H 771.069 0.663815 -0.015662 0
M  V30 8040 H 773.599 1.93321 -0.669936 0
M  V30 8041 H 773.609 4.03927 0.575034 0
M  V30 8042 H 772.284 4.11912 -0.574551 0
M  V30 8043 H 770.861 3.54272 1.16385 0
M  V30 8044 N 773.046 0.209999 1.56195 0
M  V30 8045 C 773.994 -0.721416 2.2113 0
M  V30 8046 C 774.988 -1.20852 1.18706 0
M  V30 8047 O 776.194 -1.16968 1.36815 0
M  V30 8048 H 772.569 -0.251033 0.708863 0
M  V30 8049 H 774.54 -0.150193 2.98022 0
M  V30 8050 C 773.289 -1.92392 2.89621 0
M  V30 8051 H 772.612 -1.5582 3.68185 0
M  V30 8052 H 774.052 -2.55367 3.38473 0
M  V30 8053 C 772.511 -2.77208 1.91461 0
M  V30 8054 O 773.041 -3.75603 1.42426 0
M  V30 8055 N 771.247 -2.43006 1.59363 0
M  V30 8056 H 770.794 -1.63047 1.99433 0
M  V30 8057 H 770.752 -3.00036 0.939449 0
M  V30 8058 N 774.524 -1.57472 -0.0634922 0
M  V30 8059 C 775.749 -1.92273 -0.77756 0
M  V30 8060 C 776.174 -0.807141 -1.69902 0
M  V30 8061 O 775.532 0.239523 -1.79711 0
M  V30 8062 C 775.58 -3.26054 -1.54017 0
M  V30 8063 O 774.684 -3.15873 -2.65138 0
M  V30 8064 H 774.025 -0.629389 -0.211579 0
M  V30 8065 H 776.555 -2.04579 -0.0292523 0
M  V30 8066 H 776.565 -3.60127 -1.91763 0
M  V30 8067 H 775.24 -4.06824 -0.864128 0
M  V30 8068 H 773.817 -2.93373 -2.30189 0
M  V30 8069 N 776.003 0.335068 -1.53997 0
M  V30 8070 C 777.414 0.910191 -1.6301 0
M  V30 8071 C 777.765 1.89271 -0.516809 0
M  V30 8072 O 776.89 2.13516 0.352123 0
M  V30 8073 C 777.485 1.65761 -2.9548 0
M  V30 8074 C 776.044 2.18163 -3.06728 0
M  V30 8075 C 775.191 1.00338 -2.5851 0
M  V30 8076 H 778.142 0.112965 -1.58297 0
M  V30 8077 H 778.163 2.52107 -2.84995 0
M  V30 8078 H 777.675 0.94227 -3.76488 0
M  V30 8079 H 775.776 2.92847 -2.30372 0
M  V30 8080 H 775.889 2.43952 -4.1234 0
M  V30 8081 H 774.253 1.37925 -2.14124 0
M  V30 8082 H 775.036 0.30254 -3.41964 0
M  V30 8083 N 777.481 1.45874 0.596531 0
M  V30 8084 C 778.411 1.5824 1.71705 0
M  V30 8085 C 779.392 0.433366 1.64487 0
M  V30 8086 O 780.577 0.657895 1.82717 0
M  V30 8087 C 777.707 1.55927 3.10329 0
M  V30 8088 C 776.661 2.69659 3.32367 0
M  V30 8089 C 775.987 2.52403 4.71377 0
M  V30 8090 C 777.287 4.11591 3.21544 0
M  V30 8091 H 778.981 2.52035 1.61613 0
M  V30 8092 H 776.527 1.21297 0.776082 0
M  V30 8093 H 778.48 1.63173 3.88526 0
M  V30 8094 H 777.204 0.586674 3.21288 0
M  V30 8095 H 775.863 2.61859 2.56564 0
M  V30 8096 H 775.511 1.53258 4.79083 0
M  V30 8097 H 775.211 3.28679 4.87077 0
M  V30 8098 H 776.735 2.6152 5.5176 0
M  V30 8099 H 778.149 4.20576 3.89601 0
M  V30 8100 H 776.546 4.88344 3.4877 0
M  V30 8101 H 777.616 4.32719 2.1882 0
M  V30 8102 N 778.959 -0.83999 1.33349 0
M  V30 8103 C 780.208 -1.59011 1.2409 0
M  V30 8104 C 780.521 -1.94655 -0.192029 0
M  V30 8105 O 781.727 -2.68438 -0.406617 0
M  V30 8106 C 780.183 -2.86801 2.17425 0
M  V30 8107 C 779.791 -2.58525 3.65881 0
M  V30 8108 C 781.535 -3.64823 2.17036 0
M  V30 8109 C 779.442 -3.82404 4.51133 0
M  V30 8110 H 778.372 -0.596731 0.460899 0
M  V30 8111 H 781.023 -0.926274 1.58406 0
M  V30 8112 H 779.405 -3.54719 1.7604 0
M  V30 8113 H 780.579 -1.98824 4.15699 0
M  V30 8114 H 778.894 -1.93808 3.68548 0
M  V30 8115 H 781.491 -4.56774 2.7796 0
M  V30 8116 H 781.834 -3.99663 1.16513 0
M  V30 8117 H 782.367 -3.03826 2.56777 0
M  V30 8118 H 779.106 -3.52696 5.52527 0
M  V30 8119 H 778.626 -4.41447 4.0606 0
M  V30 8120 H 780.305 -4.49995 4.6488 0
M  V30 8121 N 780.437 -1.16799 -1.0581 0
M  V30 8122 C 781.685 -0.950642 -1.78346 0
M  V30 8123 C 782.006 0.522524 -1.87869 0
M  V30 8124 O 781.276 1.3795 -1.39092 0
M  V30 8125 H 779.856 -0.348736 -0.6606 0
M  V30 8126 H 782.518 -1.47158 -1.27791 0
M  V30 8127 H 781.614 -1.37359 -2.80248 0
M  V30 8128 N 781.915 1.24427 -0.967243 0
M  V30 8129 C 782.865 2.23143 -0.468106 0
M  V30 8130 C 783.849 1.5449 0.449633 0
M  V30 8131 O 785.041 1.74761 0.28063 0
M  V30 8132 C 782.17 3.42454 0.240867 0
M  V30 8133 C 781.256 4.18355 -0.695674 0
M  V30 8134 N 781.647 4.71428 -1.83273 0
M  V30 8135 C 779.945 4.43116 -0.506365 0
M  V30 8136 C 780.646 5.29041 -2.41849 0
M  V30 8137 N 779.622 5.16213 -1.70369 0
M  V30 8138 H 783.424 2.61795 -1.3357 0
M  V30 8139 H 780.938 1.39809 -0.826277 0
M  V30 8140 H 782.935 4.12329 0.615668 0
M  V30 8141 H 781.595 3.05323 1.10491 0
M  V30 8142 H 782.606 4.68177 -2.21428 0
M  V30 8143 H 779.283 4.16319 0.313747 0
M  V30 8144 H 780.673 5.80811 -3.37799 0
M  V30 8145 N 783.393 0.737304 1.3929 0
M  V30 8146 C 784.639 0.286681 2.00763 0
M  V30 8147 C 784.972 -1.12388 1.58375 0
M  V30 8148 O 784.247 -1.76661 0.813699 0
M  V30 8149 C 784.53 0.391147 3.57969 0
M  V30 8150 C 784.383 1.84165 4.1037 0
M  V30 8151 C 785.702 -0.225072 4.39524 0
M  V30 8152 H 782.821 0.105642 0.729389 0
M  V30 8153 H 785.463 0.933892 1.65464 0
M  V30 8154 H 783.613 -0.159875 3.88171 0
M  V30 8155 H 785.285 2.44972 3.90879 0
M  V30 8156 H 783.528 2.3622 3.63844 0
M  V30 8157 H 784.199 1.866 5.19504 0
M  V30 8158 H 786.675 0.244677 4.1538 0
M  V30 8159 H 785.551 -0.121646 5.48765 0
M  V30 8160 H 785.812 -1.31141 4.22202 0
M  V30 8161 N 784.871 -1.49948 0.485112 0
M  V30 8162 C 786.119 -2.01996 -0.0648775 0
M  V30 8163 C 786.44 -1.36819 -1.38945 0
M  V30 8164 O 785.71 -0.518163 -1.88923 0
M  V30 8165 H 784.29 -0.746513 -0.0269662 0
M  V30 8166 H 786.952 -1.84136 0.638733 0
M  V30 8167 H 786.048 -3.11418 -0.20617 0
M  V30 8168 N 786.349 -0.21828 -1.56081 0
M  V30 8169 C 787.76 0.290166 -1.84431 0
M  V30 8170 C 788.111 1.59712 -1.13958 0
M  V30 8171 O 787.236 2.12516 -0.40815 0
M  V30 8172 C 787.831 0.53325 -3.34577 0
M  V30 8173 C 786.39 0.986011 -3.63256 0
M  V30 8174 C 785.537 0.0472798 -2.7726 0
M  V30 8175 H 788.488 -0.441548 -1.52434 0
M  V30 8176 H 788.509 1.37967 -3.54606 0
M  V30 8177 H 788.021 -0.418137 -3.85841 0
M  V30 8178 H 786.122 1.95087 -3.17446 0
M  V30 8179 H 786.235 0.862684 -4.71269 0
M  V30 8180 H 784.599 0.553471 -2.48614 0
M  V30 8181 H 785.382 -0.898966 -3.31321 0
M  V30 8182 N 787.827 1.57504 0.0551401 0
M  V30 8183 C 789.055 1.92294 0.76358 0
M  V30 8184 C 789.47 0.815774 1.70266 0
M  V30 8185 O 788.827 -0.209772 1.8129 0
M  V30 8186 C 788.878 3.26914 1.54302 0
M  V30 8187 O 788.599 4.33375 0.641666 0
M  V30 8188 C 790.1 3.75825 2.35097 0
M  V30 8189 H 787.32 0.635229 0.216159 0
M  V30 8190 H 789.864 2.0449 0.0204385 0
M  V30 8191 H 788.019 3.16196 2.23828 0
M  V30 8192 H 788.433 5.10927 1.1855 0
M  V30 8193 H 789.907 4.72603 2.8522 0
M  V30 8194 H 790.384 3.0568 3.15367 0
M  V30 8195 H 790.99 3.89542 1.70696 0
M  V30 8196 N 789.305 -0.326896 1.54172 0
M  V30 8197 C 790.238 -1.42591 1.78166 0
M  V30 8198 C 791.216 -1.49837 0.631484 0
M  V30 8199 O 792.4 -1.67298 0.868544 0
M  V30 8200 C 789.527 -2.8071 1.89524 0
M  V30 8201 C 788.573 -2.91012 3.11792 0
M  V30 8202 S 789.406 -2.55763 4.70474 0
M  V30 8203 C 790.562 -3.9596 4.84733 0
M  V30 8204 H 790.795 -1.22024 2.71104 0
M  V30 8205 H 788.328 -0.523539 1.45253 0
M  V30 8206 H 790.286 -3.60276 1.96753 0
M  V30 8207 H 788.947 -2.98562 0.975696 0
M  V30 8208 H 788.14 -3.92258 3.16464 0
M  V30 8209 H 787.742 -2.19414 3.02876 0
M  V30 8210 H 790.034 -4.90676 4.67166 0
M  V30 8211 H 790.977 -3.96273 5.86833 0
M  V30 8212 H 791.385 -3.8476 4.13062 0
M  V30 8213 N 790.784 -1.46188 -0.588786 0
M  V30 8214 C 792.012 -1.54743 -1.37339 0
M  V30 8215 C 792.427 -0.186446 -1.87877 0
M  V30 8216 O 791.784 0.815247 -1.63279 0
M  V30 8217 C 791.835 -2.54727 -2.56508 0
M  V30 8218 O 791.556 -3.85539 -2.08066 0
M  V30 8219 C 793.057 -2.73163 -3.49137 0
M  V30 8220 H 790.277 -0.523484 -0.419768 0
M  V30 8221 H 792.821 -1.91543 -0.716345 0
M  V30 8222 H 790.976 -2.20948 -3.18215 0
M  V30 8223 H 791.39 -4.39905 -2.85629 0
M  V30 8224 H 792.864 -3.47057 -4.2925 0
M  V30 8225 H 793.341 -1.79856 -4.00685 0
M  V30 8226 H 793.947 -3.08014 -2.9327 0
M  V30 8227 N 792.262 0.832906 -1.33792 0
M  V30 8228 C 793.209 1.94314 -1.24541 0
M  V30 8229 C 794.179 1.65646 -0.122753 0
M  V30 8230 O 795.364 1.88394 -0.30204 0
M  V30 8231 C 792.504 3.30395 -0.996641 0
M  V30 8232 C 791.617 3.71422 -2.20612 0
M  V30 8233 C 790.752 4.96401 -1.89101 0
M  V30 8234 C 789.791 5.2998 -3.06247 0
M  V30 8235 N 788.928 6.46137 -2.74685 0
M  V30 8236 H 793.768 2.01559 -2.19495 0
M  V30 8237 H 791.305 0.986243 -1.09141 0
M  V30 8238 H 793.263 4.08803 -0.832817 0
M  V30 8239 H 791.893 3.22691 -0.0838242 0
M  V30 8240 H 790.945 2.88488 -2.47949 0
M  V30 8241 H 792.257 3.92215 -3.0817 0
M  V30 8242 H 791.411 5.82572 -1.69396 0
M  V30 8243 H 790.15 4.7759 -0.987882 0
M  V30 8244 H 789.155 4.42312 -3.26559 0
M  V30 8245 H 790.38 5.50737 -3.97323 0
M  V30 8246 H 788.326 6.28801 -1.86938 0
M  V30 8247 H 788.243 6.67054 -3.55774 0
M  V30 8248 H 789.511 7.35403 -2.58461 0
M  V30 8249 N 793.74 1.17359 1.05189 0
M  V30 8250 C 794.703 0.892604 2.11105 0
M  V30 8251 C 795.703 -0.117236 1.60372 0
M  V30 8252 O 796.893 0.114936 1.7382 0
M  V30 8253 C 794.025 0.337032 3.3923 0
M  V30 8254 H 795.218 1.83169 2.37464 0
M  V30 8255 H 792.771 0.984051 1.21434 0
M  V30 8256 H 793.506 -0.609198 3.18527 0
M  V30 8257 H 793.291 1.06484 3.77364 0
M  V30 8258 H 794.781 0.158763 4.17298 0
M  V30 8259 N 795.218 -1.23913 0.973828 0
M  V30 8260 C 796.466 -1.91771 0.637817 0
M  V30 8261 C 796.787 -1.76434 -0.830435 0
M  V30 8262 O 796.057 -1.13965 -1.59339 0
M  V30 8263 H 794.637 -0.709761 0.232912 0
M  V30 8264 H 797.299 -1.50677 1.23622 0
M  V30 8265 H 796.395 -2.99327 0.883731 0
M  V30 8266 N 796.696 -0.74468 -1.38897 0
M  V30 8267 C 797.628 -0.0713608 -2.29089 0
M  V30 8268 C 798.641 0.693224 -1.47303 0
M  V30 8269 O 799.83 0.535785 -1.70269 0
M  V30 8270 C 796.93 0.923078 -3.26087 0
M  V30 8271 C 796.103 0.217998 -4.36856 0
M  V30 8272 C 795.162 1.12192 -5.14101 0
M  V30 8273 O 794.188 0.595771 -5.66073 0
M  V30 8274 N 795.39 2.45082 -5.26227 0
M  V30 8275 H 798.155 -0.845906 -2.87514 0
M  V30 8276 H 795.716 -0.594712 -1.50581 0
M  V30 8277 H 797.708 1.53061 -3.74639 0
M  V30 8278 H 796.278 1.59876 -2.68623 0
M  V30 8279 H 795.498 -0.570134 -3.90055 0
M  V30 8280 H 796.786 -0.270248 -5.08082 0
M  V30 8281 H 796.184 2.90294 -4.85537 0
M  V30 8282 H 794.741 3.00907 -5.78185 0
M  V30 8283 N 798.174 1.49689 -0.493057 0
M  V30 8284 C 799.402 2.06836 0.0513141 0
M  V30 8285 C 799.817 1.35436 1.31539 0
M  V30 8286 O 799.174 0.430248 1.77356 0
M  V30 8287 C 799.225 3.60107 0.317003 0
M  V30 8288 O 798.946 4.2882 -0.896957 0
M  V30 8289 C 800.447 4.33945 0.905902 0
M  V30 8290 H 797.667 0.670787 -0.0169048 0
M  V30 8291 H 800.211 1.92574 -0.688139 0
M  V30 8292 H 798.366 3.74099 1.00642 0
M  V30 8293 H 798.78 5.20395 -0.654939 0
M  V30 8294 H 800.254 5.42087 1.04144 0
M  V30 8295 H 800.731 3.95895 1.90168 0
M  V30 8296 H 801.337 4.2454 0.254195 0
M  V30 8297 N 799.652 0.226554 1.55963 0
M  V30 8298 C 800.901 -0.40417 1.97609 0
M  V30 8299 C 801.214 -1.60541 1.1174 0
M  V30 8300 O 802.42 -2.30598 1.43307 0
M  V30 8301 C 800.876 -0.770466 3.51556 0
M  V30 8302 C 800.484 0.408244 4.46136 0
M  V30 8303 C 802.228 -1.36651 4.01904 0
M  V30 8304 C 800.135 0.0192347 5.91397 0
M  V30 8305 H 799.065 -0.15478 0.737943 0
M  V30 8306 H 801.716 0.323558 1.80625 0
M  V30 8307 H 800.098 -1.55575 3.6416 0
M  V30 8308 H 801.272 1.18575 4.45283 0
M  V30 8309 H 799.587 0.917859 4.06158 0
M  V30 8310 H 802.184 -1.67055 5.07934 0
M  V30 8311 H 802.527 -2.28403 3.48049 0
M  V30 8312 H 803.06 -0.644556 3.92543 0
M  V30 8313 H 799.799 0.90336 6.49245 0
M  V30 8314 H 799.319 -0.722485 5.95433 0
M  V30 8315 H 800.998 -0.405711 6.45727 0
M  V30 8316 N 801.13 -1.57531 -0.0467866 0
M  V30 8317 C 802.358 -1.92696 -0.753371 0
M  V30 8318 C 802.773 -0.824792 -1.69831 0
M  V30 8319 O 802.13 0.200155 -1.81399 0
M  V30 8320 C 802.181 -3.27728 -1.52566 0
M  V30 8321 O 801.902 -4.3371 -0.618674 0
M  V30 8322 C 803.403 -3.77066 -2.33101 0
M  V30 8323 H 800.623 -0.636367 -0.212788 0
M  V30 8324 H 803.167 -2.04498 -0.00959361 0
M  V30 8325 H 801.322 -3.17378 -2.22148 0
M  V30 8326 H 801.736 -5.11548 -1.15839 0
M  V30 8327 H 803.21 -4.74109 -2.82709 0
M  V30 8328 H 803.687 -3.07348 -3.13741 0
M  V30 8329 H 804.293 -3.90442 -1.68628 0
M  V30 8330 N 802.608 0.318715 -1.54344 0
M  V30 8331 C 803.857 1.05363 -1.71993 0
M  V30 8332 C 804.17 1.89018 -0.503155 0
M  V30 8333 O 805.376 2.65639 -0.561085 0
M  V30 8334 C 803.832 1.92281 -3.0423 0
M  V30 8335 C 803.44 1.13715 -4.33328 0
M  V30 8336 C 805.184 2.65479 -3.31242 0
M  V30 8337 C 803.091 1.99806 -5.56625 0
M  V30 8338 H 802.021 0.397081 -0.64097 0
M  V30 8339 H 804.672 0.311598 -1.80835 0
M  V30 8340 H 803.054 2.70402 -2.89307 0
M  V30 8341 H 804.228 0.403305 -4.59032 0
M  V30 8342 H 802.543 0.521769 -4.13118 0
M  V30 8343 H 805.14 3.30209 -4.20555 0
M  V30 8344 H 805.483 3.33374 -2.49334 0
M  V30 8345 H 806.016 1.94417 -3.47054 0
M  V30 8346 H 802.755 1.36411 -6.41149 0
M  V30 8347 H 802.275 2.70911 -5.35133 0
M  V30 8348 H 803.954 2.58277 -5.93213 0
M  V30 8349 N 804.086 1.46499 0.581025 0
M  V30 8350 C 805.363 1.42372 1.34125 0
M  V30 8351 C 805.743 0.108073 2.10823 0
M  V30 8352 O 805.091 -0.910366 2.09582 0
M  V30 8353 C 805.301 2.65445 2.26583 0
M  V30 8354 C 806.649 3.11664 2.88359 0
M  V30 8355 O 807.673 2.66006 2.36896 0
M  V30 8356 O 806.532 3.90974 3.81839 0
M  V30 8357 H 803.626 0.566262 0.602724 0
M  V30 8358 H 806.172 1.58667 0.601903 0
M  V30 8359 H 804.944 3.52756 1.69348 0
M  V30 8360 H 804.567 2.51618 3.07854 0
M  V30 8361 N 805.565 -0.825799 1.34232 0
M  V30 8362 C 806.813 -1.57873 1.26177 0
M  V30 8363 C 807.134 -1.94267 -0.168904 0
M  V30 8364 O 806.404 -1.62045 -1.10084 0
M  V30 8365 H 804.984 -0.585388 0.464037 0
M  V30 8366 H 807.646 -0.986163 1.6811 0
M  V30 8367 H 806.742 -2.50283 1.86453 0
M  V30 8368 N 807.043 -1.17915 -1.04565 0
M  V30 8369 C 808.459 -0.927761 -1.29864 0
M  V30 8370 C 808.659 0.409536 -1.97294 0
M  V30 8371 O 807.715 1.14505 -2.25044 0
M  V30 8372 C 809.028 -2.08967 -2.16225 0
M  V30 8373 C 810.576 -2.12741 -2.29587 0
M  V30 8374 C 811.051 -3.28335 -3.19312 0
M  V30 8375 N 812.542 -3.28164 -3.26898 0
M  V30 8376 C 813.277 -4.14249 -3.96466 0
M  V30 8377 N 812.773 -5.10457 -4.68407 0
M  V30 8378 N 814.566 -4.02179 -3.92694 0
M  V30 8379 H 806.717 -2.03983 -0.592011 0
M  V30 8380 H 808.98 -0.891023 -0.323701 0
M  V30 8381 H 808.686 -3.05654 -1.73979 0
M  V30 8382 H 808.56 -2.04606 -3.16885 0
M  V30 8383 H 810.947 -1.16636 -2.71072 0
M  V30 8384 H 811.028 -2.21162 -1.28535 0
M  V30 8385 H 810.672 -4.2471 -2.78539 0
M  V30 8386 H 810.602 -3.17151 -4.20384 0
M  V30 8387 H 813.093 -2.58511 -2.75646 0
M  V30 8388 H 813.406 -5.72526 -5.1907 0
M  V30 8389 H 811.751 -5.14422 -4.67328 0
M  V30 8390 H 814.942 -3.26308 -3.3562 0
M  V30 8391 H 815.115 -4.69486 -4.4664 0
M  V30 8392 N 808.521 1.23394 -0.980386 0
M  V30 8393 C 809.769 1.91431 -0.647978 0
M  V30 8394 C 810.09 1.76871 0.821066 0
M  V30 8395 O 809.36 1.14808 1.58732 0
M  V30 8396 H 807.94 0.708516 -0.236673 0
M  V30 8397 H 810.602 1.50019 -1.2442 0
M  V30 8398 H 809.698 2.98854 -0.899592 0
M  V30 8399 N 809.999 0.752036 1.385 0
M  V30 8400 C 811.246 0.307503 2.00152 0
M  V30 8401 C 811.574 -1.11033 1.59693 0
M  V30 8402 O 810.829 -1.77455 0.825125 0
M  V30 8403 C 811.128 0.376155 3.55415 0
M  V30 8404 C 810.794 1.74942 4.15579 0
M  V30 8405 C 809.456 2.12525 4.31725 0
M  V30 8406 C 811.808 2.65031 4.48785 0
M  V30 8407 C 809.136 3.39671 4.78373 0
M  V30 8408 C 811.488 3.91567 4.96848 0
M  V30 8409 C 810.152 4.2922 5.11201 0
M  V30 8410 H 809.422 0.112523 0.732407 0
M  V30 8411 H 812.069 0.962213 1.65571 0
M  V30 8412 H 810.374 -0.362121 3.90123 0
M  V30 8413 H 812.071 0.0138065 4.00998 0
M  V30 8414 H 808.661 1.44726 4.03426 0
M  V30 8415 H 812.845 2.3726 4.35914 0
M  V30 8416 H 808.101 3.68765 4.8767 0
M  V30 8417 H 812.275 4.61517 5.21512 0
M  V30 8418 H 809.902 5.27805 5.47107 0
M  V30 8419 N 811.477 -1.49425 0.500989 0
M  V30 8420 C 812.725 -2.02053 -0.0434495 0
M  V30 8421 C 813.046 -1.38285 -1.37486 0
M  V30 8422 O 812.316 -0.538171 -1.88363 0
M  V30 8423 H 810.896 -0.746757 -0.0190469 0
M  V30 8424 H 813.558 -1.83449 0.658227 0
M  V30 8425 H 812.654 -3.11619 -0.173129 0
M  V30 8426 N 812.955 -0.234822 -1.55841 0
M  V30 8427 C 814.183 0.397745 -2.03041 0
M  V30 8428 C 814.598 1.52405 -1.11437 0
M  V30 8429 O 813.955 1.82061 -0.126466 0
M  V30 8430 C 814.006 0.916919 -3.49678 0
M  V30 8431 O 813.727 -0.164493 -4.37791 0
M  V30 8432 C 815.228 1.62139 -4.12584 0
M  V30 8433 H 812.448 0.0959214 -0.664108 0
M  V30 8434 H 814.992 -0.355156 -2.01392 0
M  V30 8435 H 813.147 1.62004 -3.519 0
M  V30 8436 H 813.561 0.227794 -5.24005 0
M  V30 8437 H 815.035 1.93651 -5.16917 0
M  V30 8438 H 815.512 2.53918 -3.58361 0
M  V30 8439 H 816.118 0.963145 -4.14251 0
M  V30 8440 N 814.433 1.57553 0.0384317 0
M  V30 8441 C 815.661 1.93093 0.743141 0
M  V30 8442 C 816.076 0.833787 1.69391 0
M  V30 8443 O 815.433 -0.190532 1.81503 0
M  V30 8444 C 815.484 3.28533 1.50826 0
M  V30 8445 O 815.205 4.34032 0.595665 0
M  V30 8446 C 816.706 3.78297 2.31098 0
M  V30 8447 H 813.926 0.637486 0.20941 0
M  V30 8448 H 816.47 2.045 -0.00125154 0
M  V30 8449 H 814.625 3.18552 2.20462 0
M  V30 8450 H 815.039 5.12155 1.13124 0
M  V30 8451 H 816.513 4.75602 2.80191 0
M  V30 8452 H 816.99 3.09008 3.12107 0
M  V30 8453 H 817.596 3.91331 1.66555 0
M  V30 8454 N 815.911 -0.310526 1.54511 0
M  V30 8455 C 817.136 -1.07046 1.7764 0
M  V30 8456 C 817.561 -1.80488 0.529696 0
M  V30 8457 O 816.919 -1.73702 -0.519361 0
M  V30 8458 C 816.967 -2.03411 2.97752 0
M  V30 8459 O 816.071 -3.11545 2.7021 0
M  V30 8460 H 815.412 -0.307994 0.588248 0
M  V30 8461 H 817.942 -0.350848 2.01569 0
M  V30 8462 H 817.952 -2.46048 3.2546 0
M  V30 8463 H 816.627 -1.49361 3.88155 0
M  V30 8464 H 815.204 -2.7349 2.53491 0
M  V30 8465 N 817.389 -1.46805 -0.573248 0
M  V30 8466 C 818.637 -1.52302 -1.32847 0
M  V30 8467 C 818.958 -0.180159 -1.94166 0
M  V30 8468 O 818.228 0.794291 -1.79075 0
M  V30 8469 H 816.808 -0.56097 -0.493276 0
M  V30 8470 H 819.47 -1.82998 -0.670642 0
M  V30 8471 H 818.566 -2.28089 -2.13031 0
M  V30 8472 N 818.867 0.818669 -1.34668 0
M  V30 8473 C 819.799 1.93754 -1.22442 0
M  V30 8474 C 820.812 1.62103 -0.150501 0
M  V30 8475 O 822.001 1.73898 -0.402728 0
M  V30 8476 C 819.101 3.27806 -0.860031 0
M  V30 8477 C 818.274 3.8745 -2.02981 0
M  V30 8478 C 817.333 4.99887 -1.64314 0
M  V30 8479 O 816.359 5.17957 -2.36029 0
M  V30 8480 N 817.561 5.77795 -0.55976 0
M  V30 8481 H 820.326 2.04773 -2.18833 0
M  V30 8482 H 817.887 0.995472 -1.27679 0
M  V30 8483 H 819.879 4.00478 -0.583068 0
M  V30 8484 H 818.449 3.12597 0.0138253 0
M  V30 8485 H 817.669 3.07119 -2.47127 0
M  V30 8486 H 818.957 4.2403 -2.81204 0
M  V30 8487 H 818.355 5.65688 0.0363329 0
M  V30 8488 H 816.912 6.50899 -0.342541 0
M  V30 8489 N 820.346 1.18468 1.03938 0
M  V30 8490 C 821.592 0.982286 1.77423 0
M  V30 8491 C 821.925 -0.48679 1.88 0
M  V30 8492 O 821.2 -1.36146 1.38905 0
M  V30 8493 C 821.483 1.63929 3.20623 0
M  V30 8494 C 821.336 3.18132 3.17982 0
M  V30 8495 C 822.655 1.3536 4.18767 0
M  V30 8496 H 819.774 0.358264 0.644062 0
M  V30 8497 H 822.416 1.46154 1.21405 0
M  V30 8498 H 820.566 1.2318 3.68455 0
M  V30 8499 H 822.238 3.68024 2.78129 0
M  V30 8500 H 820.481 3.50225 2.55978 0
M  V30 8501 H 821.152 3.5924 4.19107 0
M  V30 8502 H 823.628 1.70669 3.79488 0
M  V30 8503 H 822.504 1.83896 5.17178 0
M  V30 8504 H 822.765 0.276722 4.41233 0
M  V30 8505 N 821.824 -1.22873 0.986916 0
M  V30 8506 C 822.754 -2.2688 0.552064 0
M  V30 8507 C 823.735 -1.64883 -0.418048 0
M  V30 8508 O 824.92 -1.9171 -0.30999 0
M  V30 8509 C 822.05 -3.47018 -0.139959 0
M  V30 8510 C 821.004 -4.21411 0.748091 0
M  V30 8511 C 820.33 -5.34645 -0.0765132 0
M  V30 8512 C 821.63 -4.80726 2.04206 0
M  V30 8513 H 823.324 -2.63507 1.42143 0
M  V30 8514 H 820.87 -1.26668 0.68492 0
M  V30 8515 H 822.823 -4.18931 -0.455527 0
M  V30 8516 H 821.547 -3.0947 -1.04382 0
M  V30 8517 H 820.206 -3.51325 1.04721 0
M  V30 8518 H 819.854 -4.93339 -0.981109 0
M  V30 8519 H 819.554 -5.85342 0.514606 0
M  V30 8520 H 821.078 -6.09377 -0.386313 0
M  V30 8521 H 822.492 -5.44612 1.79083 0
M  V30 8522 H 820.889 -5.41737 2.5815 0
M  V30 8523 H 821.959 -4.01109 2.72469 0
M  V30 8524 N 823.302 -0.75937 -1.38099 0
M  V30 8525 C 824.549 -0.318113 -1.99986 0
M  V30 8526 C 824.877 1.10184 -1.6028 0
M  V30 8527 O 824.132 1.77015 -0.834524 0
M  V30 8528 C 824.431 -0.394999 -3.55211 0
M  V30 8529 C 824.097 -1.77143 -4.14646 0
M  V30 8530 C 822.759 -2.14811 -4.30592 0
M  V30 8531 C 825.111 -2.67407 -4.47373 0
M  V30 8532 C 822.439 -3.42203 -4.76565 0
M  V30 8533 C 824.791 -3.94196 -4.94765 0
M  V30 8534 C 823.455 -4.31925 -5.08918 0
M  V30 8535 H 822.725 -0.116406 -0.7318 0
M  V30 8536 H 825.372 -0.97098 -1.65058 0
M  V30 8537 H 823.677 0.341426 -3.9031 0
M  V30 8538 H 825.374 -0.0350722 -4.00985 0
M  V30 8539 H 821.964 -1.46864 -4.02652 0
M  V30 8540 H 826.148 -2.39569 -4.3465 0
M  V30 8541 H 821.404 -3.71346 -4.85708 0
M  V30 8542 H 825.578 -4.64276 -5.19057 0
M  V30 8543 H 823.205 -5.30699 -5.443 0
M  V30 8544 N 824.78 1.49157 -0.508906 0
M  V30 8545 C 826.028 2.02073 0.0327335 0
M  V30 8546 C 826.349 1.39012 1.3675 0
M  V30 8547 O 825.619 0.548153 1.88075 0
M  V30 8548 H 824.199 0.746848 0.0150864 0
M  V30 8549 H 826.861 1.83097 -0.667946 0
M  V30 8550 H 825.957 3.11707 0.1566 0
M  V30 8551 N 826.258 0.243083 1.55714 0
M  V30 8552 C 827.483 -0.389944 2.03701 0
M  V30 8553 C 827.908 -1.51025 1.12129 0
M  V30 8554 O 827.266 -1.80944 0.11352 0
M  V30 8555 C 827.314 -0.878649 3.49731 0
M  V30 8556 O 826.418 -1.98851 3.61292 0
M  V30 8557 H 825.759 -0.0855115 0.658471 0
M  V30 8558 H 828.289 0.368023 2.01263 0
M  V30 8559 H 828.299 -1.18287 3.90477 0
M  V30 8560 H 826.974 -0.0588107 4.15858 0
M  V30 8561 H 825.551 -1.68928 3.32442 0
M  V30 8562 N 827.736 -1.57571 -0.0300757 0
M  V30 8563 C 828.964 -1.93485 -0.732891 0
M  V30 8564 C 829.379 -0.842758 -1.68947 0
M  V30 8565 O 828.736 0.180904 -1.81601 0
M  V30 8566 C 828.787 -3.29328 -1.49082 0
M  V30 8567 O 828.508 -4.34341 -0.572639 0
M  V30 8568 C 830.009 -3.79517 -2.29088 0
M  V30 8569 H 827.229 -0.638588 -0.206026 0
M  V30 8570 H 829.773 -2.04496 0.0120966 0
M  V30 8571 H 827.928 -3.19716 -2.1877 0
M  V30 8572 H 828.342 -5.12748 -1.10406 0
M  V30 8573 H 829.816 -4.77081 -2.77665 0
M  V30 8574 H 830.293 -3.10659 -3.10464 0
M  V30 8575 H 830.899 -3.92208 -1.64477 0
M  V30 8576 N 829.214 0.302327 -1.54673 0
M  V30 8577 C 830.177 1.35592 -1.8479 0
M  V30 8578 C 831.177 1.43743 -0.72073 0
M  V30 8579 O 832.367 1.43402 -0.989017 0
M  V30 8580 C 829.499 2.74091 -2.02699 0
M  V30 8581 H 830.692 1.10132 -2.78946 0
M  V30 8582 H 828.245 0.538926 -1.46715 0
M  V30 8583 H 828.98 3.04775 -1.10826 0
M  V30 8584 H 828.765 2.69565 -2.8474 0
M  V30 8585 H 830.255 3.50272 -2.27374 0
M  V30 8586 N 830.692 1.47107 0.565454 0
M  V30 8587 C 831.94 1.53005 1.32038 0
M  V30 8588 C 832.261 0.190453 1.94068 0
M  V30 8589 O 831.531 -0.784783 1.79494 0
M  V30 8590 H 830.111 0.563578 0.490294 0
M  V30 8591 H 832.773 1.83351 0.660928 0
M  V30 8592 H 831.869 2.29215 2.11818 0
M  V30 8593 N 832.17 -0.811516 1.35101 0
M  V30 8594 C 833.398 -1.59981 1.31201 0
M  V30 8595 C 833.813 -1.8847 -0.111552 0
M  V30 8596 O 833.17 -1.48414 -1.06205 0
M  V30 8597 C 833.221 -2.934 2.11184 0
M  V30 8598 O 832.942 -2.66148 3.4799 0
M  V30 8599 C 834.443 -3.87776 2.14813 0
M  V30 8600 H 831.663 -0.496921 0.450899 0
M  V30 8601 H 834.207 -1.00886 1.77883 0
M  V30 8602 H 832.362 -3.49022 1.68115 0
M  V30 8603 H 832.776 -3.51301 3.89471 0
M  V30 8604 H 834.25 -4.7852 2.75178 0
M  V30 8605 H 834.727 -4.23997 1.14556 0
M  V30 8606 H 835.333 -3.3809 2.58022 0
M  V30 8607 N 833.648 -1.19017 -1.03309 0
M  V30 8608 C 834.897 -0.984542 -1.76039 0
M  V30 8609 C 835.21 0.485937 -1.89468 0
M  V30 8610 O 836.416 0.810278 -2.59127 0
M  V30 8611 C 834.872 -1.71261 -3.1654 0
M  V30 8612 C 834.48 -3.22291 -3.11179 0
M  V30 8613 C 836.224 -1.59007 -3.93595 0
M  V30 8614 C 834.131 -3.87704 -4.46587 0
M  V30 8615 H 833.061 -0.364749 -0.659905 0
M  V30 8616 H 835.712 -1.4247 -1.15649 0
M  V30 8617 H 834.094 -1.20025 -3.77373 0
M  V30 8618 H 835.268 -3.80611 -2.59753 0
M  V30 8619 H 833.583 -3.34772 -2.47622 0
M  V30 8620 H 836.18 -2.05232 -4.93745 0
M  V30 8621 H 836.523 -0.543534 -4.12736 0
M  V30 8622 H 837.056 -2.07564 -3.39355 0
M  V30 8623 H 833.795 -4.92437 -4.3265 0
M  V30 8624 H 833.315 -3.34172 -4.98085 0
M  V30 8625 H 834.994 -3.91008 -5.15482 0
M  V30 8626 N 835.127 1.22348 -0.993418 0
M  V30 8627 C 836.373 1.91393 -0.67056 0
M  V30 8628 C 836.706 1.77163 0.795428 0
M  V30 8629 O 835.981 1.14084 1.57528 0
M  V30 8630 C 836.264 3.43589 -1.0779 0
M  V30 8631 C 836.117 3.66867 -2.60248 0
M  V30 8632 C 837.436 4.35545 -0.631527 0
M  V30 8633 H 834.555 0.695057 -0.24508 0
M  V30 8634 H 837.197 1.44213 -1.23703 0
M  V30 8635 H 835.347 3.83903 -0.595902 0
M  V30 8636 H 837.019 3.35954 -3.16121 0
M  V30 8637 H 835.262 3.1113 -3.02293 0
M  V30 8638 H 835.933 4.73457 -2.838 0
M  V30 8639 H 838.409 4.0275 -1.04554 0
M  V30 8640 H 837.285 5.40707 -0.944831 0
M  V30 8641 H 837.546 4.39618 0.467779 0
M  V30 8642 N 836.605 0.766683 1.37694 0
M  V30 8643 C 837.83 0.338715 2.04615 0
M  V30 8644 C 838.255 -1.02918 1.57447 0
M  V30 8645 O 837.613 -1.65849 0.732386 0
M  V30 8646 C 837.661 0.385284 3.58536 0
M  V30 8647 O 836.765 -0.616081 4.07772 0
M  V30 8648 H 836.106 0.147527 0.647404 0
M  V30 8649 H 838.636 1.04146 1.7611 0
M  V30 8650 H 838.646 0.240782 4.07289 0
M  V30 8651 H 837.321 1.38325 3.92223 0
M  V30 8652 H 835.898 -0.435115 3.70353 0
M  V30 8653 N 838.083 -1.48885 0.516809 0
M  V30 8654 C 839.329 -2.03395 -0.0140225 0
M  V30 8655 C 839.684 -1.38808 -1.33229 0
M  V30 8656 O 838.977 -0.520104 -1.84406 0
M  V30 8657 C 839.171 -3.56801 -0.206798 0
M  V30 8658 C 839 -4.36259 1.09124 0
M  V30 8659 C 837.77 -4.77689 1.64745 0
M  V30 8660 C 839.968 -4.73881 1.99854 0
M  V30 8661 N 837.95 -5.41634 2.88975 0
M  V30 8662 C 839.321 -5.37707 3.08661 0
M  V30 8663 C 841.376 -4.55816 2.00341 0
M  V30 8664 C 840.079 -5.85379 4.18001 0
M  V30 8665 C 842.105 -5.04459 3.08666 0
M  V30 8666 C 841.467 -5.68299 4.16191 0
M  V30 8667 H 837.566 -0.781169 0.036042 0
M  V30 8668 H 840.15 -1.81867 0.695173 0
M  V30 8669 H 838.321 -3.78181 -0.885064 0
M  V30 8670 H 840.053 -3.9795 -0.736053 0
M  V30 8671 H 836.808 -4.58392 1.19054 0
M  V30 8672 H 837.232 -5.78181 3.52187 0
M  V30 8673 H 841.874 -4.05851 1.18511 0
M  V30 8674 H 839.592 -6.34356 5.00618 0
M  V30 8675 H 843.178 -4.92281 3.10082 0
M  V30 8676 H 842.058 -6.05257 4.98631 0
M  V30 8677 N 839.561 -0.251338 -1.55583 0
M  V30 8678 C 840.838 0.422729 -1.90977 0
M  V30 8679 C 841.218 1.75534 -1.17265 0
M  V30 8680 O 840.566 2.26632 -0.291588 0
M  V30 8681 C 840.776 0.586448 -3.44037 0
M  V30 8682 C 842.124 0.880294 -4.15375 0
M  V30 8683 O 843.148 0.672148 -3.49801 0
M  V30 8684 O 842.007 1.27694 -5.31372 0
M  V30 8685 H 839.101 0.227622 -0.795058 0
M  V30 8686 H 841.647 -0.295733 -1.67103 0
M  V30 8687 H 840.419 -0.352327 -3.89711 0
M  V30 8688 H 840.042 1.35528 -3.73789 0
M  V30 8689 N 841.039 1.57585 0.0217189 0
M  V30 8690 C 842.316 1.80779 0.74687 0
M  V30 8691 C 842.696 0.851163 1.9318 0
M  V30 8692 O 842.044 -0.105039 2.28258 0
M  V30 8693 C 842.254 3.28696 1.17302 0
M  V30 8694 C 843.602 3.93871 1.58589 0
M  V30 8695 O 844.626 3.3289 1.2674 0
M  V30 8696 O 843.485 5.01254 2.1773 0
M  V30 8697 H 840.579 0.743666 0.361786 0
M  V30 8698 H 843.125 1.697 -0.00206785 0
M  V30 8699 H 841.897 3.89927 0.327453 0
M  V30 8700 H 841.52 3.44692 1.98174 0
M  V30 8701 N 842.517 -0.29412 1.54831 0
M  V30 8702 C 843.745 -1.04724 1.78439 0
M  V30 8703 C 844.16 -1.80695 0.547239 0
M  V30 8704 O 843.517 -1.75989 -0.483141 0
M  V30 8705 C 843.568 -2.02242 2.99634 0
M  V30 8706 O 843.289 -1.29352 4.18568 0
M  V30 8707 C 844.79 -2.89537 3.35683 0
M  V30 8708 H 842.01 -0.310285 0.594949 0
M  V30 8709 H 844.554 -0.331306 2.01798 0
M  V30 8710 H 842.709 -2.69328 2.78462 0
M  V30 8711 H 843.123 -1.94901 4.86943 0
M  V30 8712 H 844.597 -3.538 4.23709 0
M  V30 8713 H 845.074 -3.58201 2.54143 0
M  V30 8714 H 845.68 -2.27973 3.59038 0
M  V30 8715 N 843.995 -1.47404 -0.557645 0
M  V30 8716 C 844.905 -1.62491 -1.69216 0
M  V30 8717 C 845.921 -0.507764 -1.66426 0
M  V30 8718 O 847.097 -0.775241 -1.85882 0
M  V30 8719 C 844.162 -1.63511 -3.05721 0
M  V30 8720 C 843.223 -2.86648 -3.1958 0
M  V30 8721 C 842.456 -2.87609 -4.49574 0
M  V30 8722 O 842.679 -1.97799 -5.35006 0
M  V30 8723 O 841.613 -3.79465 -4.67215 0
M  V30 8724 H 845.439 -2.58487 -1.59431 0
M  V30 8725 H 843.024 -1.30485 -0.7276 0
M  V30 8726 H 844.906 -1.66863 -3.86956 0
M  V30 8727 H 843.581 -0.706812 -3.15889 0
M  V30 8728 H 842.488 -2.8884 -2.37744 0
M  V30 8729 H 843.821 -3.7877 -3.14316 0
M  V30 8730 N 845.473 0.80434 -1.35529 0
M  V30 8731 C 846.719 1.56385 -1.29118 0
M  V30 8732 C 847.052 1.9374 0.133536 0
M  V30 8733 O 846.327 1.6153 1.08344 0
M  V30 8734 C 846.61 2.85097 -2.19981 0
M  V30 8735 C 846.463 2.54204 -3.7108 0
M  V30 8736 C 847.782 3.86817 -2.09907 0
M  V30 8737 H 844.901 0.567382 -0.470368 0
M  V30 8738 H 847.543 0.925235 -1.6595 0
M  V30 8739 H 845.693 3.39594 -1.88701 0
M  V30 8740 H 847.365 2.05872 -4.12813 0
M  V30 8741 H 845.608 1.87364 -3.91251 0
M  V30 8742 H 846.279 3.46068 -4.30048 0
M  V30 8743 H 848.755 3.41725 -2.37409 0
M  V30 8744 H 847.631 4.7465 -2.75678 0
M  V30 8745 H 847.892 4.28663 -1.08171 0
M  V30 8746 N 846.951 1.19563 1.02676 0
M  V30 8747 C 847.898 0.935291 2.11 0
M  V30 8748 C 848.868 -0.130685 1.65585 0
M  V30 8749 O 850.053 0.0119062 1.90796 0
M  V30 8750 C 847.193 0.482384 3.41712 0
M  V30 8751 C 846.306 1.61537 4.00662 0
M  V30 8752 C 845.441 1.11378 5.19392 0
M  V30 8753 C 844.48 2.22052 5.70403 0
M  V30 8754 N 843.617 1.73185 6.80405 0
M  V30 8755 H 848.457 1.86275 2.32606 0
M  V30 8756 H 845.994 0.928656 1.14081 0
M  V30 8757 H 847.952 0.20118 4.16715 0
M  V30 8758 H 846.582 -0.408086 3.2021 0
M  V30 8759 H 845.634 2.01173 3.22852 0
M  V30 8760 H 846.946 2.44912 4.34534 0
M  V30 8761 H 846.1 0.787935 6.01562 0
M  V30 8762 H 844.839 0.249789 4.8706 0
M  V30 8763 H 843.844 2.55465 4.86845 0
M  V30 8764 H 845.069 3.08911 6.04774 0
M  V30 8765 H 843.015 0.890973 6.49921 0
M  V30 8766 H 842.932 2.50148 7.13416 0
M  V30 8767 H 844.2 1.4357 7.66164 0
M  V30 8768 N 848.429 -1.21819 0.999893 0
M  V30 8769 C 849.675 -1.91035 0.680701 0
M  V30 8770 C 850.008 -1.77582 -0.786021 0
M  V30 8771 O 849.283 -1.14917 -1.56921 0
M  V30 8772 C 849.566 -3.43013 1.0961 0
M  V30 8773 C 849.419 -3.65481 2.6219 0
M  V30 8774 C 850.738 -4.35204 0.654616 0
M  V30 8775 H 847.857 -0.693748 0.248763 0
M  V30 8776 H 850.499 -1.43555 1.24466 0
M  V30 8777 H 848.649 -3.83581 0.616253 0
M  V30 8778 H 850.321 -3.34273 3.17899 0
M  V30 8779 H 848.564 -3.09522 3.03938 0
M  V30 8780 H 849.235 -4.71945 2.86307 0
M  V30 8781 H 851.711 -4.0219 1.06688 0
M  V30 8782 H 850.587 -5.40198 0.973492 0
M  V30 8783 H 850.848 -4.3986 -0.444458 0
M  V30 8784 N 849.908 -0.773975 -1.37286 0
M  V30 8785 C 850.855 -0.159938 -2.30245 0
M  V30 8786 C 851.825 0.687356 -1.51211 0
M  V30 8787 O 853.01 0.639255 -1.79773 0
M  V30 8788 C 850.15 0.711452 -3.37687 0
M  V30 8789 C 849.263 -0.152692 -4.3173 0
M  V30 8790 C 848.398 0.723613 -5.26248 0
M  V30 8791 C 847.437 -0.14293 -6.11933 0
M  V30 8792 N 846.574 0.691479 -6.98687 0
M  V30 8793 H 851.414 -0.958182 -2.82175 0
M  V30 8794 H 848.951 -0.48411 -1.38906 0
M  V30 8795 H 850.909 1.2315 -3.9861 0
M  V30 8796 H 849.539 1.47528 -2.87116 0
M  V30 8797 H 848.591 -0.790574 -3.72094 0
M  V30 8798 H 849.903 -0.821027 -4.91997 0
M  V30 8799 H 849.057 1.31006 -5.92387 0
M  V30 8800 H 847.796 1.42562 -4.66398 0
M  V30 8801 H 846.801 -0.7419 -5.44771 0
M  V30 8802 H 848.026 -0.842305 -6.73856 0
M  V30 8803 H 845.972 1.37806 -6.41362 0
M  V30 8804 H 845.889 0.0804911 -7.55957 0
M  V30 8805 H 847.157 1.26225 -7.69212 0
M  V30 8806 N 851.386 1.48609 -0.524698 0
M  V30 8807 C 852.632 2.02797 0.0113382 0
M  V30 8808 C 852.965 1.40147 1.34433 0
M  V30 8809 O 852.24 0.545368 1.86698 0
M  V30 8810 C 852.523 3.59832 0.138931 0
M  V30 8811 C 852.376 4.32971 -1.21886 0
M  V30 8812 C 853.695 4.3145 0.868265 0
M  V30 8813 H 850.814 0.736995 0.00264645 0
M  V30 8814 H 853.456 1.77388 -0.680704 0
M  V30 8815 H 851.606 3.81612 0.72834 0
M  V30 8816 H 853.278 4.22624 -1.84897 0
M  V30 8817 H 851.521 3.94597 -1.80211 0
M  V30 8818 H 852.192 5.41279 -1.08263 0
M  V30 8819 H 854.668 4.14468 0.368145 0
M  V30 8820 H 853.544 5.41025 0.926428 0
M  V30 8821 H 853.805 3.98358 1.91737 0
M  V30 8822 N 852.864 0.259585 1.55447 0
M  V30 8823 C 854.275 -0.241165 1.85136 0
M  V30 8824 C 854.626 -1.56634 1.18153 0
M  V30 8825 O 853.751 -2.11359 0.464351 0
M  V30 8826 C 854.346 -0.444355 3.35873 0
M  V30 8827 C 852.905 -0.889354 3.65742 0
M  V30 8828 C 852.052 0.0262474 2.77288 0
M  V30 8829 H 855.003 0.481808 1.51209 0
M  V30 8830 H 855.024 -1.28517 3.58139 0
M  V30 8831 H 854.536 0.520289 3.84597 0
M  V30 8832 H 852.637 -1.86602 3.22507 0
M  V30 8833 H 852.75 -0.737432 4.73391 0
M  V30 8834 H 851.114 -0.487361 2.49994 0
M  V30 8835 H 851.897 0.986494 3.28821 0
M  V30 8836 N 854.342 -1.57594 -0.0133615 0
M  V30 8837 C 855.567 -1.94649 -0.715996 0
M  V30 8838 C 855.992 -0.860786 -1.67249 0
M  V30 8839 O 855.35 0.182228 -1.80382 0
M  V30 8840 C 855.398 -3.30789 -1.43566 0
M  V30 8841 O 854.502 -3.24148 -2.54955 0
M  V30 8842 H 853.843 -0.635801 -0.191449 0
M  V30 8843 H 856.373 -2.04569 0.0358478 0
M  V30 8844 H 856.383 -3.66045 -1.80208 0
M  V30 8845 H 855.058 -4.09367 -0.734263 0
M  V30 8846 H 853.635 -3.00548 -2.20739 0
M  V30 8847 N 855.82 0.285905 -1.54985 0
M  V30 8848 C 857.066 1.02071 -1.75241 0
M  V30 8849 C 857.399 1.864 -0.544842 0
M  V30 8850 O 856.674 1.89034 0.457844 0
M  V30 8851 C 856.957 1.91409 -3.05016 0
M  V30 8852 C 856.81 1.10158 -4.36102 0
M  V30 8853 C 858.129 2.90335 -3.30747 0
M  V30 8854 H 855.248 0.369663 -0.637588 0
M  V30 8855 H 857.89 0.294114 -1.8771 0
M  V30 8856 H 856.04 2.53362 -2.94517 0
M  V30 8857 H 857.712 0.503756 -4.58541 0
M  V30 8858 H 855.955 0.404675 -4.31908 0
M  V30 8859 H 856.626 1.75956 -5.23205 0
M  V30 8860 H 859.102 2.38514 -3.40955 0
M  V30 8861 H 857.978 3.49997 -4.2284 0
M  V30 8862 H 858.239 3.64787 -2.49765 0
M  V30 8863 N 857.298 1.47698 0.54982 0
M  V30 8864 C 858.526 1.5833 1.33188 0
M  V30 8865 C 858.941 0.236193 1.87317 0
M  V30 8866 O 858.298 -0.77167 1.65383 0
M  V30 8867 C 858.349 2.61438 2.49664 0
M  V30 8868 O 858.07 3.9092 1.97771 0
M  V30 8869 C 859.571 2.82324 3.41772 0
M  V30 8870 H 856.791 0.53443 0.405741 0
M  V30 8871 H 859.335 1.93375 0.665309 0
M  V30 8872 H 857.49 2.29307 3.12245 0
M  V30 8873 H 857.904 4.47323 2.73866 0
M  V30 8874 H 859.378 3.58316 4.19897 0
M  V30 8875 H 859.855 1.90416 3.95776 0
M  V30 8876 H 860.461 3.15682 2.85 0
M  V30 8877 N 858.776 -0.797141 1.35954 0
M  V30 8878 C 860.187 -1.37179 1.26644 0
M  V30 8879 C 860.538 -1.9596 -0.0971046 0
M  V30 8880 O 859.663 -1.91994 -0.998355 0
M  V30 8881 C 860.258 -2.49395 2.2932 0
M  V30 8882 C 858.817 -3.02697 2.23722 0
M  V30 8883 C 857.964 -1.75721 2.14517 0
M  V30 8884 H 860.915 -0.599407 1.46945 0
M  V30 8885 H 860.936 -3.28204 1.92515 0
M  V30 8886 H 860.448 -2.06584 3.2855 0
M  V30 8887 H 858.549 -3.49948 1.27934 0
M  V30 8888 H 858.662 -3.60036 3.16087 0
M  V30 8889 H 857.026 -1.97649 1.60646 0
M  V30 8890 H 857.809 -1.35049 3.15621 0
M  V30 8891 N 860.254 -1.20106 -1.0204 0
M  V30 8892 C 861.502 -1.0069 -1.75231 0
M  V30 8893 C 861.823 0.462491 -1.89436 0
M  V30 8894 O 861.093 1.33455 -1.4341 0
M  V30 8895 H 859.673 -0.369576 -0.649171 0
M  V30 8896 H 862.335 -1.51149 -1.23044 0
M  V30 8897 H 861.431 -1.46205 -2.75736 0
M  V30 8898 N 861.732 1.21287 -1.00634 0
M  V30 8899 C 862.679 2.23705 -0.567876 0
M  V30 8900 C 863.649 1.61043 0.406753 0
M  V30 8901 O 864.834 1.88289 0.308499 0
M  V30 8902 C 861.974 3.44961 0.097996 0
M  V30 8903 C 861.087 4.22091 -0.919972 0
M  V30 8904 C 860.222 5.30718 -0.226222 0
M  V30 8905 C 859.261 5.99581 -1.23165 0
M  V30 8906 N 858.398 6.99821 -0.565278 0
M  V30 8907 H 863.238 2.60571 -1.44592 0
M  V30 8908 H 860.775 1.28049 -0.724006 0
M  V30 8909 H 862.733 4.1418 0.501097 0
M  V30 8910 H 861.363 3.08818 0.939744 0
M  V30 8911 H 860.415 3.52038 -1.44131 0
M  V30 8912 H 861.727 4.69476 -1.68505 0
M  V30 8913 H 860.881 6.06253 0.232917 0
M  V30 8914 H 859.62 4.84343 0.571247 0
M  V30 8915 H 858.625 5.22816 -1.70128 0
M  V30 8916 H 859.85 6.48042 -2.03022 0
M  V30 8917 H 857.796 6.55656 0.212508 0
M  V30 8918 H 857.713 7.4528 -1.26858 0
M  V30 8919 H 858.981 7.79393 -0.129389 0
M  V30 8920 N 863.21 0.781244 1.36873 0
M  V30 8921 C 864.44 0.361042 2.03421 0
M  V30 8922 C 864.848 -1.02471 1.59048 0
M  V30 8923 O 864.191 -1.66712 0.771552 0
M  V30 8924 C 864.253 0.336202 3.57924 0
M  V30 8925 C 863.917 1.66815 4.25467 0
M  V30 8926 C 864.914 2.62224 4.48926 0
M  V30 8927 C 862.599 1.9452 4.63106 0
M  V30 8928 C 864.593 3.83538 5.09095 0
M  V30 8929 C 862.28 3.16103 5.22994 0
M  V30 8930 C 863.278 4.10431 5.45926 0
M  V30 8931 O 862.966 5.29871 6.04559 0
M  V30 8932 H 862.698 0.147956 0.65961 0
M  V30 8933 H 865.252 1.05895 1.75998 0
M  V30 8934 H 863.482 -0.418147 3.84433 0
M  V30 8935 H 865.171 -0.0582199 4.05858 0
M  V30 8936 H 865.937 2.42104 4.20251 0
M  V30 8937 H 861.816 1.21921 4.44585 0
M  V30 8938 H 865.36 4.57178 5.2691 0
M  V30 8939 H 861.257 3.36104 5.51094 0
M  V30 8940 H 862.025 5.30825 6.23031 0
M  V30 8941 N 864.689 -1.48329 0.532571 0
M  V30 8942 C 865.637 -2.31336 -0.242133 0
M  V30 8943 C 866.631 -1.41391 -0.933006 0
M  V30 8944 O 867.837 -1.58284 -0.857096 0
M  V30 8945 H 864.212 -0.745724 -0.0969536 0
M  V30 8946 H 866.183 -2.94555 0.477504 0
M  V30 8947 C 864.932 -3.23501 -1.27446 0
M  V30 8948 H 864.255 -3.92659 -0.752261 0
M  V30 8949 H 865.695 -3.84461 -1.78789 0
M  V30 8950 C 864.154 -2.45288 -2.30944 0
M  V30 8951 O 864.684 -2.17955 -3.37429 0
M  V30 8952 N 862.89 -2.06737 -2.04226 0
M  V30 8953 H 862.437 -2.29166 -1.17647 0
M  V30 8954 H 862.395 -1.54719 -2.73696 0
M  V30 8955 N 866.167 -0.267825 -1.55308 0
M  V30 8956 C 867.416 0.351635 -1.98611 0
M  V30 8957 C 867.729 1.57522 -1.15957 0
M  V30 8958 O 868.935 2.26717 -1.49371 0
M  V30 8959 C 867.391 0.676986 -3.53475 0
M  V30 8960 C 866.999 -0.526385 -4.44897 0
M  V30 8961 C 868.743 1.25948 -4.05386 0
M  V30 8962 C 866.65 -0.176026 -5.91138 0
M  V30 8963 H 865.58 0.13516 -0.741787 0
M  V30 8964 H 868.231 -0.371333 -1.79704 0
M  V30 8965 H 866.613 1.45866 -3.68156 0
M  V30 8966 H 867.787 -1.30339 -4.41982 0
M  V30 8967 H 866.102 -1.02522 -4.03582 0
M  V30 8968 H 868.699 1.53529 -5.12184 0
M  V30 8969 H 869.042 2.19094 -3.53982 0
M  V30 8970 H 869.575 0.540253 -3.94114 0
M  V30 8971 H 866.314 -1.07518 -6.46622 0
M  V30 8972 H 865.834 0.564363 -5.97139 0
M  V30 8973 H 867.513 0.234365 -6.46575 0
M  V30 8974 N 867.645 1.57599 0.00500368 0
M  V30 8975 C 868.87 1.95026 0.705663 0
M  V30 8976 C 869.295 0.869643 1.6679 0
M  V30 8977 O 868.653 -0.172659 1.80476 0
M  V30 8978 C 868.701 3.31545 1.4181 0
M  V30 8979 O 867.805 3.25495 2.53232 0
M  V30 8980 H 867.146 0.636808 0.188074 0
M  V30 8981 H 869.676 2.04547 -0.046696 0
M  V30 8982 H 869.686 3.66996 1.78265 0
M  V30 8983 H 868.361 4.09751 0.712543 0
M  V30 8984 H 866.938 3.01714 2.19142 0
M  V30 8985 N 869.123 -0.277682 1.55134 0
M  V30 8986 C 870.053 -1.34742 1.90701 0
M  V30 8987 C 871.034 -1.51757 0.768354 0
M  V30 8988 O 872.219 -1.64879 1.02609 0
M  V30 8989 C 869.349 -2.70775 2.17481 0
M  V30 8990 C 868.303 -2.68497 3.33307 0
M  V30 8991 C 867.629 -4.08037 3.45557 0
M  V30 8992 C 868.929 -2.28178 4.69821 0
M  V30 8993 H 870.623 -1.05224 2.803 0
M  V30 8994 H 868.169 -0.504738 1.34864 0
M  V30 8995 H 870.122 -3.45719 2.40949 0
M  V30 8996 H 868.846 -3.01867 1.24676 0
M  V30 8997 H 867.505 -1.9601 3.09799 0
M  V30 8998 H 867.153 -4.36344 2.50226 0
M  V30 8999 H 866.853 -4.07409 4.23429 0
M  V30 9000 H 868.377 -4.84726 3.71312 0
M  V30 9001 H 869.791 -2.92843 4.92865 0
M  V30 9002 H 868.188 -2.3872 5.50575 0
M  V30 9003 H 869.258 -1.23308 4.6896 0
M  V30 9004 N 870.601 -1.47988 -0.541979 0
M  V30 9005 C 871.548 -1.61615 -1.6477 0
M  V30 9006 C 872.518 -0.458602 -1.59644 0
M  V30 9007 O 873.703 -0.680585 -1.78249 0
M  V30 9008 C 870.843 -1.65066 -3.03063 0
M  V30 9009 C 869.956 -2.91845 -3.18513 0
M  V30 9010 C 869.091 -2.86534 -4.47294 0
M  V30 9011 C 868.13 -4.0807 -4.5623 0
M  V30 9012 N 867.267 -4.00905 -5.76385 0
M  V30 9013 H 872.107 -2.56046 -1.52461 0
M  V30 9014 H 869.644 -1.26989 -0.742449 0
M  V30 9015 H 871.602 -1.65049 -3.83164 0
M  V30 9016 H 870.232 -0.74136 -3.14171 0
M  V30 9017 H 869.284 -3.01661 -2.31743 0
M  V30 9018 H 870.596 -3.81804 -3.20978 0
M  V30 9019 H 869.75 -2.84851 -5.35672 0
M  V30 9020 H 868.489 -1.94283 -4.47332 0
M  V30 9021 H 867.494 -4.10041 -3.66261 0
M  V30 9022 H 868.719 -5.01465 -4.5794 0
M  V30 9023 H 866.665 -3.11467 -5.77342 0
M  V30 9024 H 866.582 -4.84557 -5.80293 0
M  V30 9025 H 867.85 -4.03263 -6.67083 0
M  V30 9026 N 872.079 0.78992 -1.36375 0
M  V30 9027 C 873.307 1.57873 -1.3373 0
M  V30 9028 C 873.722 1.88624 0.0815544 0
M  V30 9029 O 873.079 1.50085 1.03831 0
M  V30 9030 C 873.13 2.90003 -2.15825 0
M  V30 9031 O 872.851 2.60578 -3.5218 0
M  V30 9032 C 874.352 3.84309 -2.20955 0
M  V30 9033 H 871.572 0.489685 -0.458748 0
M  V30 9034 H 874.116 0.980436 -1.79465 0
M  V30 9035 H 872.271 3.46303 -1.73646 0
M  V30 9036 H 872.685 3.4506 -3.95011 0
M  V30 9037 H 874.159 4.74081 -2.82756 0
M  V30 9038 H 874.636 4.22121 -1.21287 0
M  V30 9039 H 875.242 3.33942 -2.63368 0
M  V30 9040 N 873.557 1.20646 1.01402 0
M  V30 9041 C 874.782 1.04462 1.79172 0
M  V30 9042 C 875.207 -0.401588 1.83763 0
M  V30 9043 O 874.565 -1.28934 1.27459 0
M  V30 9044 C 874.613 1.63583 3.21361 0
M  V30 9045 O 873.717 0.875198 4.03006 0
M  V30 9046 H 873.058 0.368235 0.552539 0
M  V30 9047 H 875.588 1.59994 1.27526 0
M  V30 9048 H 875.598 1.67426 3.72065 0
M  V30 9049 H 874.273 2.68835 3.17334 0
M  V30 9050 H 872.85 0.911172 3.61597 0
M  V30 9051 N 875.035 -1.20752 1.01276 0
M  V30 9052 C 876.26 -1.94547 0.718769 0
M  V30 9053 C 876.685 -1.7404 -0.713563 0
M  V30 9054 O 876.043 -1.03221 -1.49047 0
M  V30 9055 C 876.091 -3.44823 1.05497 0
M  V30 9056 O 875.195 -4.12072 0.164516 0
M  V30 9057 H 874.536 -0.607931 0.267051 0
M  V30 9058 H 877.066 -1.53292 1.35509 0
M  V30 9059 H 877.076 -3.95427 1.00507 0
M  V30 9060 H 875.751 -3.59072 2.09858 0
M  V30 9061 H 874.328 -3.71909 0.271615 0
M  V30 9062 N 876.513 -0.788492 -1.36457 0
M  V30 9063 C 877.761 -0.359749 -1.98872 0
M  V30 9064 C 878.082 1.07197 -1.62892 0
M  V30 9065 O 877.352 1.73875 -0.902463 0
M  V30 9066 H 875.932 -0.130029 -0.735596 0
M  V30 9067 H 878.594 -1.01033 -1.66668 0
M  V30 9068 H 877.69 -0.450835 -3.08827 0
M  V30 9069 N 877.991 1.48044 -0.54043 0
M  V30 9070 C 878.954 2.28273 0.205966 0
M  V30 9071 C 879.954 1.35983 0.858209 0
M  V30 9072 O 881.144 1.58776 0.716651 0
M  V30 9073 C 878.276 3.15174 1.29917 0
M  V30 9074 H 879.469 2.95727 -0.498555 0
M  V30 9075 H 877.022 1.53457 -0.296745 0
M  V30 9076 H 877.757 2.52374 2.03661 0
M  V30 9077 H 877.542 3.83074 0.836475 0
M  V30 9078 H 879.032 3.75666 1.82387 0
M  V30 9079 N 879.47 0.276058 1.55163 0
M  V30 9080 C 880.698 -0.343772 2.04024 0
M  V30 9081 C 881.113 -1.49397 1.15438 0
M  V30 9082 O 880.47 -1.81662 0.174692 0
M  V30 9083 C 880.521 -0.823885 3.51986 0
M  V30 9084 O 880.242 0.280507 4.37201 0
M  V30 9085 C 881.743 -1.51143 4.16738 0
M  V30 9086 H 878.963 -0.07828 0.666418 0
M  V30 9087 H 881.507 0.408427 2.0038 0
M  V30 9088 H 879.662 -1.52617 3.56071 0
M  V30 9089 H 880.076 -0.0887831 5.24425 0
M  V30 9090 H 881.55 -1.79878 5.2187 0
M  V30 9091 H 882.027 -2.44327 3.64967 0
M  V30 9092 H 882.633 -0.852975 4.16659 0
M  V30 9093 N 880.948 -1.576 0.00335426 0
M  V30 9094 C 882.173 -1.95398 -0.695311 0
M  V30 9095 C 882.598 -0.878476 -1.66326 0
M  V30 9096 O 881.956 0.163086 -1.80565 0
M  V30 9097 C 882.004 -3.32293 -1.40049 0
M  V30 9098 O 881.108 -3.26834 -2.51502 0
M  V30 9099 H 880.449 -0.637796 -0.184694 0
M  V30 9100 H 882.979 -2.04519 0.057543 0
M  V30 9101 H 882.989 -3.67936 -1.76316 0
M  V30 9102 H 881.664 -4.10123 -0.690803 0
M  V30 9103 H 880.241 -3.02872 -2.17539 0
M  V30 9104 N 882.426 0.269451 -1.5528 0
M  V30 9105 C 883.374 1.35303 -1.89198 0
M  V30 9106 C 884.368 1.50956 -0.768671 0
M  V30 9107 O 885.574 1.52699 -0.953054 0
M  V30 9108 H 881.949 0.452591 -0.600554 0
M  V30 9109 H 883.92 1.03949 -2.79709 0
M  V30 9110 C 882.669 2.70585 -2.18356 0
M  V30 9111 H 881.992 2.59332 -3.04281 0
M  V30 9112 H 883.432 3.45335 -2.46007 0
M  V30 9113 C 881.891 3.21954 -0.992327 0
M  V30 9114 O 882.421 4.01048 -0.228769 0
M  V30 9115 N 880.627 2.79682 -0.789062 0
M  V30 9116 H 880.174 2.15475 -1.41167 0
M  V30 9117 H 880.132 3.14399 0.00634776 0
M  V30 9118 N 883.904 1.48273 0.534124 0
M  V30 9119 C 885.132 1.59734 1.31501 0
M  V30 9120 C 885.547 0.256047 1.87056 0
M  V30 9121 O 884.904 -0.754086 1.66192 0
M  V30 9122 C 884.955 2.64072 2.46877 0
M  V30 9123 O 884.676 3.92995 1.93613 0
M  V30 9124 C 886.177 2.85933 3.38758 0
M  V30 9125 H 883.397 0.538703 0.40005 0
M  V30 9126 H 885.941 1.9407 0.644762 0
M  V30 9127 H 884.096 2.32606 3.09795 0
M  V30 9128 H 884.51 4.50203 2.69106 0
M  V30 9129 H 885.984 3.62749 4.16073 0
M  V30 9130 H 886.461 1.94603 3.93734 0
M  V30 9131 H 887.067 3.18687 2.81636 0
M  V30 9132 N 885.382 -0.782676 1.36792 0
M  V30 9133 C 886.612 -1.56934 1.3437 0
M  V30 9134 C 887.02 -1.89049 -0.0754828 0
M  V30 9135 O 886.363 -1.51103 -1.04467 0
M  V30 9136 C 886.425 -2.91311 2.10661 0
M  V30 9137 C 886.089 -2.81889 3.59705 0
M  V30 9138 C 887.086 -2.53668 4.53815 0
M  V30 9139 C 884.771 -3.00254 4.02682 0
M  V30 9140 C 886.765 -2.43925 5.8888 0
M  V30 9141 C 884.452 -2.90132 5.37835 0
M  V30 9142 C 885.45 -2.62006 6.30747 0
M  V30 9143 O 885.138 -2.5189 7.63418 0
M  V30 9144 H 884.87 -0.493194 0.462316 0
M  V30 9145 H 887.424 -0.978791 1.80579 0
M  V30 9146 H 885.654 -3.52443 1.59125 0
M  V30 9147 H 887.343 -3.52632 2.01012 0
M  V30 9148 H 888.109 -2.39176 4.21924 0
M  V30 9149 H 883.988 -3.21151 3.30731 0
M  V30 9150 H 887.532 -2.21892 6.6137 0
M  V30 9151 H 883.429 -3.04189 5.69332 0
M  V30 9152 H 884.197 -2.67321 7.73616 0
M  V30 9153 N 886.86 -1.21182 -1.00761 0
M  V30 9154 C 887.808 -0.965728 -2.11604 0
M  V30 9155 C 888.802 0.0861028 -1.69181 0
M  V30 9156 O 890.008 -0.0650558 -1.79882 0
M  V30 9157 H 886.383 -0.295023 -0.691712 0
M  V30 9158 H 888.354 -1.90667 -2.2954 0
M  V30 9159 C 887.103 -0.544164 -3.43415 0
M  V30 9160 H 886.426 -1.34515 -3.76491 0
M  V30 9161 H 887.866 -0.411268 -4.22001 0
M  V30 9162 C 886.325 0.744583 -3.28569 0
M  V30 9163 O 886.855 1.80078 -3.59075 0
M  V30 9164 N 885.061 0.710083 -2.81791 0
M  V30 9165 H 884.608 -0.14971 -2.57165 0
M  V30 9166 H 884.566 1.57268 -2.72239 0
M  V30 9167 N 888.338 1.20213 -1.01915 0
M  V30 9168 C 889.286 2.25125 -0.584936 0
M  V30 9169 C 890.28 1.65138 0.377602 0
M  V30 9170 O 891.486 1.78294 0.247245 0
M  V30 9171 H 887.861 0.732333 -0.170858 0
M  V30 9172 H 889.832 2.59075 -1.48063 0
M  V30 9173 C 888.581 3.47651 0.058389 0
M  V30 9174 H 887.904 3.9409 -0.673263 0
M  V30 9175 H 889.344 4.2275 0.325285 0
M  V30 9176 C 887.803 3.10725 1.30199 0
M  V30 9177 O 888.333 3.22491 2.39505 0
M  V30 9178 N 886.539 2.6525 1.18706 0
M  V30 9179 H 886.086 2.55875 0.297618 0
M  V30 9180 H 886.044 2.40913 2.02011 0
M  V30 9181 N 889.816 0.795718 1.36037 0
M  V30 9182 C 891.065 0.367575 1.98322 0
M  V30 9183 C 891.378 -1.06823 1.63854 0
M  V30 9184 O 892.584 -1.59895 2.19421 0
M  V30 9185 C 891.04 0.606272 3.54757 0
M  V30 9186 C 890.648 2.0539 3.98144 0
M  V30 9187 C 892.392 0.242947 4.23804 0
M  V30 9188 C 890.299 2.23893 5.47381 0
M  V30 9189 H 889.229 0.133699 0.742052 0
M  V30 9190 H 891.88 0.978242 1.5525 0
M  V30 9191 H 890.262 -0.0741957 3.9593 0
M  V30 9192 H 891.436 2.77129 3.68152 0
M  V30 9193 H 889.751 2.37607 3.41953 0
M  V30 9194 H 892.348 0.359382 5.33491 0
M  V30 9195 H 892.691 -0.809661 4.08351 0
M  V30 9196 H 893.224 0.876899 3.88015 0
M  V30 9197 H 889.963 3.27559 5.6779 0
M  V30 9198 H 889.483 1.56666 5.78978 0
M  V30 9199 H 891.162 2.04914 6.13693 0
M  V30 9200 N 891.294 -1.47756 0.548274 0
M  V30 9201 C 892.242 -2.3158 -0.217584 0
M  V30 9202 C 893.236 -1.42372 -0.917957 0
M  V30 9203 O 894.442 -1.59184 -0.840259 0
M  V30 9204 H 890.817 -0.74671 -0.0890388 0
M  V30 9205 H 892.788 -2.94032 0.508719 0
M  V30 9206 C 891.537 -3.24834 -1.24008 0
M  V30 9207 H 890.86 -3.93435 -0.710572 0
M  V30 9208 H 892.3 -3.86336 -1.74701 0
M  V30 9209 C 890.759 -2.47724 -2.2833 0
M  V30 9210 O 891.289 -2.21522 -3.35098 0
M  V30 9211 N 889.495 -2.08891 -2.02022 0
M  V30 9212 H 889.042 -2.30401 -1.1521 0
M  V30 9213 H 889 -1.57613 -2.7204 0
M  V30 9214 N 892.772 -0.284283 -1.55015 0
M  V30 9215 C 894.021 0.33055 -1.98973 0
M  V30 9216 C 894.334 1.56284 -1.17621 0
M  V30 9217 O 895.54 2.2512 -1.51767 0
M  V30 9218 C 893.996 0.639457 -3.54174 0
M  V30 9219 C 893.604 -0.573543 -4.44313 0
M  V30 9220 C 895.348 1.21641 -4.06699 0
M  V30 9221 C 893.255 -0.238715 -5.90918 0
M  V30 9222 H 892.185 0.127285 -0.743179 0
M  V30 9223 H 894.836 -0.390372 -1.793 0
M  V30 9224 H 893.218 1.41953 -3.69683 0
M  V30 9225 H 894.392 -1.3502 -4.40575 0
M  V30 9226 H 892.707 -1.06797 -4.02472 0
M  V30 9227 H 895.304 1.48088 -5.13784 0
M  V30 9228 H 895.647 2.15328 -3.56286 0
M  V30 9229 H 896.18 0.498422 -3.94665 0
M  V30 9230 H 892.919 -1.1437 -6.45445 0
M  V30 9231 H 892.439 0.500997 -5.97704 0
M  V30 9232 H 894.118 0.165774 -6.46788 0
M  V30 9233 N 894.251 1.57596 -0.0117121 0
M  V30 9234 C 895.181 2.12188 0.9746 0
M  V30 9235 C 896.162 1.03379 1.35081 0
M  V30 9236 O 897.347 1.31123 1.4325 0
M  V30 9237 C 894.477 2.63477 2.26268 0
M  V30 9238 C 893.431 3.76917 2.02774 0
M  V30 9239 C 892.757 4.14566 3.37697 0
M  V30 9240 C 894.057 5.03715 1.38089 0
M  V30 9241 H 895.751 2.9485 0.520007 0
M  V30 9242 H 893.297 1.41836 0.248685 0
M  V30 9243 H 895.25 3.00299 2.95633 0
M  V30 9244 H 893.974 1.77953 2.73862 0
M  V30 9245 H 892.633 3.40507 1.35832 0
M  V30 9246 H 892.281 3.26048 3.83016 0
M  V30 9247 H 891.981 4.91 3.22789 0
M  V30 9248 H 893.505 4.53956 4.08358 0
M  V30 9249 H 894.919 5.38233 1.97428 0
M  V30 9250 H 893.316 5.85032 1.33634 0
M  V30 9251 H 894.386 4.83624 0.351575 0
M  V30 9252 N 895.729 -0.261212 1.5542 0
M  V30 9253 C 896.957 -1.00916 1.8062 0
M  V30 9254 C 897.372 -1.79494 0.585444 0
M  V30 9255 O 896.729 -1.76974 -0.445702 0
M  V30 9256 C 896.78 -1.95841 3.03856 0
M  V30 9257 O 896.501 -1.20445 4.21218 0
M  V30 9258 C 898.002 -2.82352 3.41749 0
M  V30 9259 H 895.222 -0.297596 0.601397 0
M  V30 9260 H 897.766 -0.288427 2.02456 0
M  V30 9261 H 895.921 -2.63361 2.84112 0
M  V30 9262 H 896.335 -1.84528 4.90968 0
M  V30 9263 H 897.809 -3.44733 4.31118 0
M  V30 9264 H 898.286 -3.5273 2.61683 0
M  V30 9265 H 898.892 -2.20306 3.63793 0
M  V30 9266 N 897.207 -1.48554 -0.526253 0
M  V30 9267 C 898.455 -1.56452 -1.27935 0
M  V30 9268 C 898.776 -0.24184 -1.93495 0
M  V30 9269 O 898.046 0.736917 -1.81511 0
M  V30 9270 H 896.626 -0.576379 -0.47518 0
M  V30 9271 H 899.288 -1.85039 -0.612083 0
M  V30 9272 H 898.384 -2.34751 -2.05666 0
M  V30 9273 N 898.685 0.775411 -1.37205 0
M  V30 9274 C 899.633 1.90996 -1.32752 0
M  V30 9275 C 900.627 1.68006 -0.216907 0
M  V30 9276 O 901.833 1.7584 -0.384723 0
M  V30 9277 H 898.208 0.62803 -0.413621 0
M  V30 9278 H 900.179 1.91869 -2.28536 0
M  V30 9279 C 898.928 3.28211 -1.14772 0
M  V30 9280 H 898.251 3.46477 -1.99484 0
M  V30 9281 H 899.691 4.07907 -1.15706 0
M  V30 9282 C 898.15 3.3658 0.146852 0
M  V30 9283 O 898.68 3.85428 1.13173 0
M  V30 9284 N 896.886 2.89936 0.196305 0
M  V30 9285 H 896.433 2.50375 -0.605807 0
M  V30 9286 H 896.391 2.95916 1.06212 0
M  V30 9287 N 900.163 1.21714 1.00117 0
M  V30 9288 C 901.095 0.937627 2.09144 0
M  V30 9289 C 902.108 -0.0806291 1.626 0
M  V30 9290 O 903.297 0.152348 1.77849 0
M  V30 9291 C 900.397 0.387036 3.36683 0
M  V30 9292 C 899.57 1.46054 4.12295 0
M  V30 9293 C 898.629 0.918505 5.18122 0
M  V30 9294 O 897.655 1.60282 5.46167 0
M  V30 9295 N 898.857 -0.264308 5.79898 0
M  V30 9296 H 901.622 1.87622 2.33705 0
M  V30 9297 H 899.183 1.12291 1.16629 0
M  V30 9298 H 901.175 0.00992825 4.04699 0
M  V30 9299 H 899.745 -0.456467 3.09249 0
M  V30 9300 H 898.965 2.01133 3.39027 0
M  V30 9301 H 900.253 2.18306 4.59587 0
M  V30 9302 H 899.651 -0.837242 5.5947 0
M  V30 9303 H 898.208 -0.582886 6.49188 0
M  V30 9304 N 901.641 -1.19671 1.02551 0
M  V30 9305 C 902.89 -1.88591 0.715272 0
M  V30 9306 C 903.203 -1.80274 -0.758982 0
M  V30 9307 O 904.409 -2.44413 -1.18213 0
M  V30 9308 C 902.865 -3.38264 1.22905 0
M  V30 9309 C 902.473 -3.55146 2.73084 0
M  V30 9310 C 904.217 -4.12683 0.994649 0
M  V30 9311 C 902.124 -4.98693 3.17897 0
M  V30 9312 H 901.054 -0.706326 0.263857 0
M  V30 9313 H 903.705 -1.35322 1.23936 0
M  V30 9314 H 902.087 -3.9091 0.632892 0
M  V30 9315 H 903.261 -3.12845 3.38326 0
M  V30 9316 H 901.576 -2.94112 2.94766 0
M  V30 9317 H 904.173 -5.18536 1.30478 0
M  V30 9318 H 904.516 -4.16243 -0.0686466 0
M  V30 9319 H 905.049 -3.66164 1.55464 0
M  V30 9320 H 901.788 -5.00293 4.23542 0
M  V30 9321 H 901.308 -5.4177 2.57381 0
M  V30 9322 H 902.987 -5.67327 3.11045 0
M  V30 9323 N 903.119 -0.802921 -1.35613 0
M  V30 9324 C 904.359 -0.387163 -2.007 0
M  V30 9325 C 904.723 1.02546 -1.62322 0
M  V30 9326 O 905.924 1.54303 -2.201 0
M  V30 9327 C 904.195 -0.560813 -3.52973 0
M  V30 9328 S 905.754 -0.234935 -4.38171 0
M  V30 9329 H 902.572 -0.147218 -0.695592 0
M  V30 9330 H 905.174 -1.04437 -1.65267 0
M  V30 9331 H 903.878 -1.58897 -3.78391 0
M  V30 9332 H 903.409 0.111845 -3.93241 0
M  V30 9333 H 905.424 0.958715 -4.8685 0
M  V30 9334 N 904.597 1.47463 -0.556102 0
M  V30 9335 C 905.843 2.02775 -0.0316806 0
M  V30 9336 C 906.176 1.42967 1.3143 0
M  V30 9337 O 905.451 0.584847 1.85499 0
M  V30 9338 C 905.734 3.60046 0.0625742 0
M  V30 9339 C 905.587 4.30288 -1.31043 0
M  V30 9340 C 906.906 4.33195 0.776553 0
M  V30 9341 H 904.025 0.736886 -0.0129869 0
M  V30 9342 H 906.667 1.75904 -0.718177 0
M  V30 9343 H 904.817 3.83071 0.647231 0
M  V30 9344 H 906.489 4.18607 -1.9382 0
M  V30 9345 H 904.732 3.90685 -1.8854 0
M  V30 9346 H 905.403 5.38861 -1.1972 0
M  V30 9347 H 907.879 4.15156 0.280147 0
M  V30 9348 H 906.755 5.42869 0.81146 0
M  V30 9349 H 907.016 4.02336 1.83244 0
M  V30 9350 N 906.075 0.2925 1.54862 0
M  V30 9351 C 907.491 -0.0611461 1.59483 0
M  V30 9352 C 907.691 -1.53141 1.30958 0
M  V30 9353 O 906.747 -2.28291 1.07887 0
M  V30 9354 C 908.06 0.329143 2.98893 0
M  V30 9355 C 909.608 0.2772 3.1177 0
M  V30 9356 C 910.083 0.642185 4.53475 0
M  V30 9357 N 911.574 0.594396 4.5937 0
M  V30 9358 C 912.309 0.849385 5.67074 0
M  V30 9359 N 911.805 1.1699 6.82851 0
M  V30 9360 N 913.598 0.777016 5.56704 0
M  V30 9361 H 905.749 1.25079 1.71665 0
M  V30 9362 H 908.012 0.506516 0.80134 0
M  V30 9363 H 907.718 1.35233 3.24661 0
M  V30 9364 H 907.592 -0.321442 3.75828 0
M  V30 9365 H 909.979 -0.736725 2.85756 0
M  V30 9366 H 910.06 0.962289 2.3701 0
M  V30 9367 H 909.704 1.65388 4.80218 0
M  V30 9368 H 909.634 -0.0648831 5.2656 0
M  V30 9369 H 912.125 0.357256 3.76208 0
M  V30 9370 H 912.438 1.35067 7.60905 0
M  V30 9371 H 910.783 1.20785 6.84424 0
M  V30 9372 H 913.974 0.526333 4.65132 0
M  V30 9373 H 914.147 0.979113 6.4056 0
M  V30 9374 N 907.553 -1.57587 0.0200696 0
M  V30 9375 C 908.8 -1.91424 -0.660525 0
M  V30 9376 C 909.128 -0.895626 -1.72652 0
M  V30 9377 O 908.383 0.096771 -1.95461 0
M  V30 9378 C 908.682 -3.32002 -1.32323 0
M  V30 9379 C 908.348 -4.49223 -0.388487 0
M  V30 9380 C 907.01 -4.81021 -0.131184 0
M  V30 9381 C 909.362 -5.20581 0.253906 0
M  V30 9382 C 906.69 -5.81539 0.776471 0
M  V30 9383 C 909.042 -6.22067 1.14956 0
M  V30 9384 C 907.706 -6.52311 1.41584 0
M  V30 9385 H 906.976 -0.700472 -0.241703 0
M  V30 9386 H 909.623 -1.91333 0.0798991 0
M  V30 9387 H 907.928 -3.28312 -2.13819 0
M  V30 9388 H 909.625 -3.5545 -1.85623 0
M  V30 9389 H 906.215 -4.24391 -0.599207 0
M  V30 9390 H 910.399 -4.96253 0.068164 0
M  V30 9391 H 905.655 -6.03322 0.990575 0
M  V30 9392 H 909.829 -6.76484 1.65357 0
M  V30 9393 H 907.456 -7.30017 2.12083 0
M  V30 9394 N 909.032 0.252966 -1.55557 0
M  V30 9395 C 910.278 0.983306 -1.77367 0
M  V30 9396 C 910.611 1.85203 -0.584258 0
M  V30 9397 O 909.886 1.89963 0.417644 0
M  V30 9398 C 910.169 1.84896 -3.09007 0
M  V30 9399 C 910.022 1.00883 -4.38341 0
M  V30 9400 C 911.341 2.83254 -3.36831 0
M  V30 9401 H 908.46 0.356056 -0.645286 0
M  V30 9402 H 911.102 0.254232 -1.88291 0
M  V30 9403 H 909.252 2.47058 -2.99825 0
M  V30 9404 H 910.924 0.40638 -4.59507 0
M  V30 9405 H 909.167 0.31297 -4.3267 0
M  V30 9406 H 909.838 1.64818 -5.2682 0
M  V30 9407 H 912.314 2.31228 -3.45937 0
M  V30 9408 H 911.19 3.40949 -4.30169 0
M  V30 9409 H 911.451 3.59407 -2.57447 0
M  V30 9410 N 910.51 1.48831 0.518367 0
M  V30 9411 C 911.756 1.57672 1.27543 0
M  V30 9412 C 912.089 0.254915 1.9252 0
M  V30 9413 O 911.364 -0.740107 1.79868 0
M  V30 9414 C 911.647 2.72345 2.35585 0
M  V30 9415 C 911.5 4.14267 1.75224 0
M  V30 9416 C 912.819 2.82726 3.37274 0
M  V30 9417 H 909.938 0.573926 0.462361 0
M  V30 9418 H 912.58 1.8105 0.576267 0
M  V30 9419 H 910.73 2.52543 2.95219 0
M  V30 9420 H 912.402 4.45539 1.19551 0
M  V30 9421 H 910.645 4.20724 1.05706 0
M  V30 9422 H 911.316 4.90345 2.53507 0
M  V30 9423 H 913.792 3.00699 2.8761 0
M  V30 9424 H 912.668 3.6467 4.10252 0
M  V30 9425 H 912.929 1.9136 3.9854 0
M  V30 9426 N 911.988 -0.768124 1.37614 0
M  V30 9427 C 912.936 -1.9029 1.33763 0
M  V30 9428 C 913.93 -1.67888 0.225814 0
M  V30 9429 O 915.136 -1.75634 0.394043 0
M  V30 9430 H 911.511 -0.625828 0.416945 0
M  V30 9431 H 913.482 -1.90654 2.29551 0
M  V30 9432 C 912.231 -3.27598 1.16511 0
M  V30 9433 H 911.554 -3.45414 2.01318 0
M  V30 9434 H 912.994 -4.07288 1.17867 0
M  V30 9435 C 911.453 -3.36653 -0.129001 0
M  V30 9436 O 911.983 -3.86023 -1.11128 0
M  V30 9437 N 910.189 -2.90036 -0.180926 0
M  V30 9438 H 909.736 -2.5005 0.619076 0
M  V30 9439 H 909.694 -2.96475 -1.04641 0
M  V30 9440 N 913.466 -1.22244 -0.994698 0
M  V30 9441 C 914.414 -0.988118 -2.10568 0
M  V30 9442 C 915.408 0.0681541 -1.69263 0
M  V30 9443 O 916.614 -0.0841311 -1.79803 0
M  V30 9444 H 912.989 -0.302343 -0.688544 0
M  V30 9445 H 914.96 -1.93091 -2.27505 0
M  V30 9446 C 913.709 -0.580557 -3.42819 0
M  V30 9447 H 913.032 -1.385 -3.75044 0
M  V30 9448 H 914.472 -0.456004 -4.21541 0
M  V30 9449 C 912.931 0.709692 -3.2934 0
M  V30 9450 O 913.461 1.76259 -3.60965 0
M  V30 9451 N 911.667 0.680155 -2.82528 0
M  V30 9452 H 911.214 -0.176977 -2.56991 0
M  V30 9453 H 911.172 1.54372 -2.73892 0
M  V30 9454 N 914.944 1.19125 -1.03184 0
M  V30 9455 C 915.907 2.20662 -0.619766 0
M  V30 9456 C 916.907 1.57621 0.318179 0
M  V30 9457 O 918.097 1.73885 0.104783 0
M  V30 9458 C 915.229 3.40774 0.0926696 0
M  V30 9459 H 916.422 2.58633 -1.5182 0
M  V30 9460 H 913.975 1.32855 -0.823364 0
M  V30 9461 H 914.71 3.08324 1.00531 0
M  V30 9462 H 914.495 3.87766 -0.581344 0
M  V30 9463 H 915.985 4.15977 0.367792 0
M  V30 9464 N 916.422 0.810101 1.35185 0
M  V30 9465 C 917.647 0.40364 2.03434 0
M  V30 9466 C 918.072 -0.97857 1.60641 0
M  V30 9467 O 917.43 -1.63435 0.784779 0
M  V30 9468 C 917.478 0.499154 3.57129 0
M  V30 9469 O 916.582 -0.486039 4.09526 0
M  V30 9470 H 915.923 0.168049 0.642383 0
M  V30 9471 H 918.453 1.09696 1.72708 0
M  V30 9472 H 918.463 0.370236 4.06317 0
M  V30 9473 H 917.138 1.50733 3.87624 0
M  V30 9474 H 915.715 -0.31707 3.7155 0
M  V30 9475 N 917.9 -1.47166 0.563914 0
M  V30 9476 C 919.128 -2.06846 0.0474287 0
M  V30 9477 C 919.543 -1.41557 -1.24928 0
M  V30 9478 O 918.9 -0.514376 -1.75101 0
M  V30 9479 C 918.951 -3.6121 -0.144831 0
M  V30 9480 O 918.672 -4.24052 1.10053 0
M  V30 9481 C 920.173 -4.37773 -0.69783 0
M  V30 9482 H 917.393 -0.669217 0.0488896 0
M  V30 9483 H 919.937 -1.89072 0.779235 0
M  V30 9484 H 918.092 -3.78474 -0.82679 0
M  V30 9485 H 918.506 -5.16677 0.902481 0
M  V30 9486 H 919.98 -5.46438 -0.781616 0
M  V30 9487 H 920.457 -4.04517 -1.71063 0
M  V30 9488 H 921.063 -4.25269 -0.0513516 0
M  V30 9489 N 919.378 -0.300708 -1.54705 0
M  V30 9490 C 920.624 0.309111 -2.0043 0
M  V30 9491 C 920.957 1.53562 -1.1888 0
M  V30 9492 O 920.232 1.92683 -0.265205 0
M  V30 9493 C 920.515 0.665995 -3.53888 0
M  V30 9494 C 920.368 -0.56963 -4.46178 0
M  V30 9495 C 921.687 1.49262 -4.14016 0
M  V30 9496 H 918.806 0.110878 -0.728612 0
M  V30 9497 H 921.448 -0.412748 -1.85463 0
M  V30 9498 H 919.598 1.281 -3.66773 0
M  V30 9499 H 921.27 -1.20811 -4.45199 0
M  V30 9500 H 919.513 -1.20292 -4.16788 0
M  V30 9501 H 920.184 -0.275785 -5.51311 0
M  V30 9502 H 922.66 0.972979 -4.04564 0
M  V30 9503 H 921.536 1.71111 -5.21548 0
M  V30 9504 H 921.797 2.48174 -3.65872 0
M  V30 9505 N 920.856 1.57574 -0.0284266 0
M  V30 9506 C 922.086 1.95787 0.659617 0
M  V30 9507 C 922.494 0.903475 1.66235 0
M  V30 9508 O 921.837 -0.12329 1.83286 0
M  V30 9509 C 921.899 3.30139 1.42298 0
M  V30 9510 C 921.563 4.53322 0.578658 0
M  V30 9511 C 922.56 5.19696 -0.145751 0
M  V30 9512 C 920.245 4.9964 0.516264 0
M  V30 9513 C 922.239 6.30708 -0.921235 0
M  V30 9514 C 919.926 6.10534 -0.262925 0
M  V30 9515 C 920.924 6.75927 -0.980382 0
M  V30 9516 O 920.612 7.84692 -1.7468 0
M  V30 9517 H 920.344 0.649681 0.186792 0
M  V30 9518 H 922.898 2.05227 -0.0842687 0
M  V30 9519 H 921.128 3.17188 2.21199 0
M  V30 9520 H 922.817 3.53259 1.99906 0
M  V30 9521 H 923.583 4.84882 -0.106876 0
M  V30 9522 H 919.462 4.48547 1.06427 0
M  V30 9523 H 923.006 6.81682 -1.48176 0
M  V30 9524 H 918.903 6.44786 -0.303519 0
M  V30 9525 H 919.671 8.01355 -1.6665 0
M  V30 9526 N 922.334 -0.244713 1.55689 0
M  V30 9527 C 923.582 -0.970525 1.77272 0
M  V30 9528 C 923.903 -1.85771 0.592804 0
M  V30 9529 O 923.173 -1.91952 -0.391323 0
M  V30 9530 H 921.753 -0.361342 0.653789 0
M  V30 9531 H 924.415 -0.262134 1.93129 0
M  V30 9532 H 923.511 -1.59096 2.68505 0
M  V30 9533 N 923.813 -1.49104 -0.510467 0
M  V30 9534 C 924.723 -1.67792 -1.6396 0
M  V30 9535 C 925.739 -0.560454 -1.64727 0
M  V30 9536 O 926.915 -0.833985 -1.83321 0
M  V30 9537 C 923.98 -1.73154 -3.00364 0
M  V30 9538 C 923.041 -2.9667 -3.10299 0
M  V30 9539 C 922.274 -3.01767 -4.40196 0
M  V30 9540 O 922.497 -2.1472 -5.28443 0
M  V30 9541 O 921.431 -3.94137 -4.54906 0
M  V30 9542 H 925.257 -2.63428 -1.51126 0
M  V30 9543 H 922.842 -1.32734 -0.685719 0
M  V30 9544 H 924.724 -1.79089 -3.81451 0
M  V30 9545 H 923.399 -0.806952 -3.1348 0
M  V30 9546 H 922.306 -2.96257 -2.28435 0
M  V30 9547 H 923.639 -3.88578 -3.02106 0
M  V30 9548 N 925.291 0.760815 -1.38019 0
M  V30 9549 C 926.239 1.89578 -1.34771 0
M  V30 9550 C 927.233 1.67766 -0.234714 0
M  V30 9551 O 928.439 1.75423 -0.403352 0
M  V30 9552 H 924.814 0.623608 -0.420258 0
M  V30 9553 H 926.785 1.89434 -2.30558 0
M  V30 9554 C 925.534 3.26976 -1.18246 0
M  V30 9555 H 924.857 3.44342 -2.03147 0
M  V30 9556 H 926.297 4.06657 -1.20026 0
M  V30 9557 C 924.756 3.36717 0.111145 0
M  V30 9558 O 925.286 3.86607 1.09079 0
M  V30 9559 N 923.492 2.90128 0.165542 0
M  V30 9560 H 923.039 2.49719 -0.632328 0
M  V30 9561 H 922.997 2.97026 1.03067 0
M  V30 9562 N 926.769 1.22769 0.988202 0
M  V30 9563 C 928.015 1.05665 1.73097 0
M  V30 9564 C 928.348 -0.406615 1.89895 0
M  V30 9565 O 927.623 -1.30132 1.44554 0
M  V30 9566 C 927.906 1.77381 3.13382 0
M  V30 9567 C 927.759 3.31332 3.04203 0
M  V30 9568 C 929.078 1.52999 4.12649 0
M  V30 9569 H 926.197 0.385258 0.628288 0
M  V30 9570 H 928.839 1.51171 1.15097 0
M  V30 9571 H 926.989 1.38696 3.62899 0
M  V30 9572 H 928.661 3.79489 2.6227 0
M  V30 9573 H 926.904 3.60767 2.40894 0
M  V30 9574 H 927.575 3.76692 4.03493 0
M  V30 9575 H 930.051 1.86611 3.71908 0
M  V30 9576 H 928.927 2.05666 5.08913 0
M  V30 9577 H 929.188 0.463615 4.39662 0
M  V30 9578 N 928.247 -1.18576 1.03814 0
M  V30 9579 C 929.477 -1.92158 0.758864 0
M  V30 9580 C 929.885 -1.76267 -0.687498 0
M  V30 9581 O 929.228 -1.08806 -1.4801 0
M  V30 9582 C 929.29 -3.44063 1.04217 0
M  V30 9583 C 928.954 -3.8373 2.48193 0
M  V30 9584 C 929.951 -3.87722 3.46363 0
M  V30 9585 C 927.636 -4.151 2.82838 0
M  V30 9586 C 929.63 -4.2253 4.77229 0
M  V30 9587 C 927.317 -4.49578 4.13911 0
M  V30 9588 C 928.315 -4.53269 5.10917 0
M  V30 9589 O 928.003 -4.86945 6.39641 0
M  V30 9590 H 927.735 -0.61694 0.276335 0
M  V30 9591 H 930.289 -1.51388 1.38819 0
M  V30 9592 H 928.519 -3.85061 0.355709 0
M  V30 9593 H 930.208 -3.9889 0.751091 0
M  V30 9594 H 930.974 -3.63627 3.20936 0
M  V30 9595 H 926.853 -4.11406 2.08006 0
M  V30 9596 H 930.397 -4.25326 5.52941 0
M  V30 9597 H 926.294 -4.73133 4.39107 0
M  V30 9598 H 927.062 -5.04857 6.44253 0
M  V30 9599 N 929.725 -0.817259 -1.34754 0
M  V30 9600 C 930.655 -0.249769 -2.3216 0
M  V30 9601 C 931.636 0.630663 -1.57977 0
M  V30 9602 O 932.821 0.558719 -1.85989 0
M  V30 9603 C 929.951 0.593825 -3.42186 0
M  V30 9604 C 928.905 -0.188997 -4.27583 0
M  V30 9605 C 928.231 0.776979 -5.29025 0
M  V30 9606 C 929.531 -1.39401 -5.03354 0
M  V30 9607 H 931.225 -1.06359 -2.79872 0
M  V30 9608 H 928.771 -0.512894 -1.34556 0
M  V30 9609 H 930.724 1.00097 -4.09339 0
M  V30 9610 H 929.448 1.44064 -2.93109 0
M  V30 9611 H 928.107 -0.577445 -3.62024 0
M  V30 9612 H 927.755 1.61959 -4.76212 0
M  V30 9613 H 927.455 0.257448 -5.87036 0
M  V30 9614 H 928.979 1.18211 -5.99048 0
M  V30 9615 H 930.393 -1.06117 -5.63393 0
M  V30 9616 H 928.79 -1.84878 -5.70912 0
M  V30 9617 H 929.86 -2.17515 -4.33377 0
M  V30 9618 N 931.203 1.46865 -0.571711 0
M  V30 9619 C 932.431 2.06818 -0.0583975 0
M  V30 9620 C 932.846 1.42218 1.24175 0
M  V30 9621 O 932.203 0.523655 1.74826 0
M  V30 9622 C 932.254 3.61281 0.125673 0
M  V30 9623 O 931.975 4.23462 -1.123 0
M  V30 9624 C 933.476 4.38137 0.674604 0
M  V30 9625 H 930.696 0.668948 -0.052438 0
M  V30 9626 H 933.24 1.88656 -0.789251 0
M  V30 9627 H 931.395 3.78908 0.806707 0
M  V30 9628 H 931.809 5.16192 -0.929869 0
M  V30 9629 H 933.283 5.46845 0.752626 0
M  V30 9630 H 933.76 4.05419 1.68915 0
M  V30 9631 H 934.366 4.2529 0.0287979 0
M  V30 9632 N 932.681 0.308908 1.54543 0
M  V30 9633 C 933.929 -0.297447 1.99899 0
M  V30 9634 C 934.25 -1.53799 1.19878 0
M  V30 9635 O 933.52 -1.93639 0.29678 0
M  V30 9636 H 932.1 -0.112897 0.738419 0
M  V30 9637 H 934.762 0.422067 1.90275 0
M  V30 9638 H 933.858 -0.564016 3.06961 0
M  V30 9639 N 934.159 -1.57557 0.0367827 0
M  V30 9640 C 935.107 -2.11844 -0.960454 0
M  V30 9641 C 936.101 -1.04681 -1.33185 0
M  V30 9642 O 937.307 -1.23108 -1.31318 0
M  V30 9643 H 933.682 -0.676921 -0.32754 0
M  V30 9644 H 935.653 -2.94557 -0.477346 0
M  V30 9645 C 934.402 -2.66683 -2.23105 0
M  V30 9646 H 933.725 -3.48795 -1.95403 0
M  V30 9647 H 935.165 -3.08305 -2.91074 0
M  V30 9648 C 933.624 -1.59782 -2.96599 0
M  V30 9649 O 934.154 -1.00214 -3.88999 0
M  V30 9650 N 932.36 -1.31644 -2.59072 0
M  V30 9651 H 931.907 -1.80272 -1.8401 0
M  V30 9652 H 931.865 -0.603457 -3.08554 0
M  V30 9653 N 935.637 0.236453 -1.55816 0
M  V30 9654 C 936.883 0.964439 -1.784 0
M  V30 9655 C 937.216 1.84573 -0.603868 0
M  V30 9656 O 936.491 1.90395 0.397473 0
M  V30 9657 C 936.774 1.81608 -3.10951 0
M  V30 9658 C 936.627 0.962283 -4.39386 0
M  V30 9659 C 937.946 2.79665 -3.39817 0
M  V30 9660 H 935.065 0.349192 -0.649026 0
M  V30 9661 H 937.707 0.234247 -1.8855 0
M  V30 9662 H 935.857 2.43864 -3.02428 0
M  V30 9663 H 937.529 0.35762 -4.59912 0
M  V30 9664 H 935.772 0.267062 -4.32977 0
M  V30 9665 H 936.443 1.59222 -5.28538 0
M  V30 9666 H 938.919 2.27546 -3.4837 0
M  V30 9667 H 937.795 3.36367 -4.33761 0
M  V30 9668 H 938.056 3.56657 -2.61244 0
M  V30 9669 N 937.115 1.49373 0.502552 0
M  V30 9670 C 938.078 1.65413 1.58654 0
M  V30 9671 C 939.078 0.526003 1.51953 0
M  V30 9672 O 940.268 0.792421 1.55133 0
M  V30 9673 C 937.4 1.65005 2.98306 0
M  V30 9674 H 938.593 2.62095 1.45762 0
M  V30 9675 H 936.146 1.38381 0.726672 0
M  V30 9676 H 936.881 0.699014 3.16677 0
M  V30 9677 H 936.666 2.46931 3.04578 0
M  V30 9678 H 938.156 1.79477 3.77065 0
M  V30 9679 N 938.594 -0.753485 1.38421 0
M  V30 9680 C 939.504 -1.89797 1.37892 0
M  V30 9681 C 940.52 -1.71797 0.276023 0
M  V30 9682 O 941.696 -1.94718 0.514464 0
M  V30 9683 C 938.761 -3.25166 1.20284 0
M  V30 9684 C 937.822 -3.55691 2.4038 0
M  V30 9685 C 937.055 -4.84601 2.23602 0
M  V30 9686 O 937.278 -5.56985 1.22979 0
M  V30 9687 O 936.212 -5.14605 3.12194 0
M  V30 9688 H 940.038 -1.93197 2.34326 0
M  V30 9689 H 937.623 -0.898775 1.19342 0
M  V30 9690 H 939.505 -4.06099 1.12525 0
M  V30 9691 H 938.18 -3.22577 0.269352 0
M  V30 9692 H 937.087 -2.74919 2.53714 0
M  V30 9693 H 938.42 -3.6304 3.32359 0
M  V30 9694 N 940.072 -1.23292 -0.981677 0
M  V30 9695 C 941.002 -1.03738 -2.09191 0
M  V30 9696 C 941.983 0.0453041 -1.7004 0
M  V30 9697 O 943.168 -0.119092 -1.93834 0
M  V30 9698 C 940.298 -0.626426 -3.41604 0
M  V30 9699 C 939.252 -1.65631 -3.94652 0
M  V30 9700 C 938.578 -1.10084 -5.23245 0
M  V30 9701 C 939.878 -3.04903 -4.24066 0
M  V30 9702 H 941.572 -1.966 -2.25807 0
M  V30 9703 H 939.118 -0.946656 -1.0851 0
M  V30 9704 H 941.071 -0.476689 -4.18695 0
M  V30 9705 H 939.795 0.337873 -3.24848 0
M  V30 9706 H 938.454 -1.79402 -3.19704 0
M  V30 9707 H 938.102 -0.127562 -5.02838 0
M  V30 9708 H 937.802 -1.78896 -5.59705 0
M  V30 9709 H 939.326 -0.962928 -6.02959 0
M  V30 9710 H 940.74 -2.94441 -4.91912 0
M  V30 9711 H 939.137 -3.70941 -4.71724 0
M  V30 9712 H 940.207 -3.53991 -3.31389 0
M  V30 9713 N 941.55 1.18024 -1.04442 0
M  V30 9714 C 942.798 1.87727 -0.74854 0
M  V30 9715 C 943.119 1.80975 0.726156 0
M  V30 9716 O 942.389 1.23061 1.52423 0
M  V30 9717 H 940.969 0.694974 -0.273897 0
M  V30 9718 H 943.631 1.43213 -1.32197 0
M  V30 9719 H 942.727 2.93665 -1.05674 0
M  V30 9720 N 943.028 0.824394 1.34319 0
M  V30 9721 C 943.976 0.235628 2.31403 0
M  V30 9722 C 944.97 -0.624443 1.57471 0
M  V30 9723 O 946.176 -0.515618 1.72457 0
M  V30 9724 H 942.551 0.0574537 0.749802 0
M  V30 9725 H 944.522 1.06925 2.78585 0
M  V30 9726 C 943.271 -0.586617 3.42716 0
M  V30 9727 H 942.594 0.0658669 3.99746 0
M  V30 9728 H 944.034 -0.964661 4.1288 0
M  V30 9729 C 942.493 -1.75957 2.87299 0
M  V30 9730 O 943.023 -2.8578 2.82299 0
M  V30 9731 N 941.229 -1.57678 2.44102 0
M  V30 9732 H 940.776 -0.683436 2.48369 0
M  V30 9733 H 940.734 -2.36311 2.07375 0
M  V30 9734 N 944.506 -1.46559 0.579492 0
M  V30 9735 C 945.752 -2.03272 0.0722569 0
M  V30 9736 C 946.107 -1.44334 -1.27222 0
M  V30 9737 O 945.4 -0.597848 -1.82034 0
M  V30 9738 C 945.594 -3.57357 -0.0552803 0
M  V30 9739 C 945.423 -4.31238 1.27529 0
M  V30 9740 C 944.193 -4.70272 1.84857 0
M  V30 9741 C 946.391 -4.64978 2.19773 0
M  V30 9742 N 944.373 -5.2889 3.11687 0
M  V30 9743 C 945.744 -5.24132 3.31189 0
M  V30 9744 C 947.799 -4.46908 2.19493 0
M  V30 9745 C 946.502 -5.67123 4.42452 0
M  V30 9746 C 948.528 -4.90914 3.29784 0
M  V30 9747 C 947.89 -5.50136 4.3992 0
M  V30 9748 H 943.989 -0.778937 0.0691416 0
M  V30 9749 H 946.573 -1.78754 0.771683 0
M  V30 9750 H 944.744 -3.81595 -0.723868 0
M  V30 9751 H 946.476 -4.00714 -0.566606 0
M  V30 9752 H 943.231 -4.5293 1.38388 0
M  V30 9753 H 943.655 -5.62723 3.76393 0
M  V30 9754 H 948.297 -4.00459 1.35617 0
M  V30 9755 H 946.015 -6.12552 5.27073 0
M  V30 9756 H 949.601 -4.78687 3.30682 0
M  V30 9757 H 948.481 -5.83564 5.23854 0
M  V30 9758 N 945.984 -0.3171 -1.54377 0
M  V30 9759 C 947.261 0.341348 -1.92598 0
M  V30 9760 C 947.641 1.70402 -1.24605 0
M  V30 9761 O 946.989 2.25191 -0.387448 0
M  V30 9762 C 947.199 0.440003 -3.46215 0
M  V30 9763 C 948.547 0.703327 -4.18734 0
M  V30 9764 O 949.571 0.523181 -3.52337 0
M  V30 9765 O 948.43 1.05042 -5.3631 0
M  V30 9766 H 945.524 0.193696 -0.803997 0
M  V30 9767 H 948.07 -0.366341 -1.65699 0
M  V30 9768 H 946.842 -0.517299 -3.87866 0
M  V30 9769 H 946.465 1.19553 -3.792 0
M  V30 9770 N 947.462 1.57535 -0.0451378 0
M  V30 9771 C 948.69 1.96761 0.639742 0
M  V30 9772 C 949.105 0.922405 1.64734 0
M  V30 9773 O 948.462 -0.0940535 1.82257 0
M  V30 9774 C 948.513 3.36066 1.33199 0
M  V30 9775 O 948.234 4.36579 0.364757 0
M  V30 9776 C 949.735 3.90015 2.1072 0
M  V30 9777 H 946.955 0.64769 0.175324 0
M  V30 9778 H 949.499 2.04206 -0.109651 0
M  V30 9779 H 947.654 3.2979 2.03266 0
M  V30 9780 H 948.068 5.17432 0.858168 0
M  V30 9781 H 949.542 4.89785 2.54586 0
M  V30 9782 H 950.019 3.25117 2.95288 0
M  V30 9783 H 950.625 3.99609 1.45577 0
M  V30 9784 N 948.94 -0.228186 1.55939 0
M  V30 9785 C 950.165 -0.974795 1.83064 0
M  V30 9786 C 950.59 -1.77426 0.624624 0
M  V30 9787 O 949.948 -1.76211 -0.426556 0
M  V30 9788 C 949.996 -1.87342 3.08116 0
M  V30 9789 O 949.1 -2.96784 2.86344 0
M  V30 9790 H 948.441 -0.276379 0.603747 0
M  V30 9791 H 950.971 -0.243507 2.03146 0
M  V30 9792 H 950.981 -2.28451 3.38045 0
M  V30 9793 H 949.656 -1.28575 3.95526 0
M  V30 9794 H 948.233 -2.59669 2.67631 0
M  V30 9795 N 950.418 -1.49637 -0.494624 0
M  V30 9796 C 951.365 -1.66776 -1.59545 0
M  V30 9797 C 952.335 -0.509159 -1.58104 0
M  V30 9798 O 953.52 -0.736949 -1.75993 0
M  V30 9799 C 950.66 -1.74624 -2.97658 0
M  V30 9800 C 949.773 -3.01831 -3.09067 0
M  V30 9801 C 948.908 -3.00619 -4.37952 0
M  V30 9802 C 947.947 -4.22378 -4.43016 0
M  V30 9803 N 947.084 -4.1904 -5.63339 0
M  V30 9804 H 951.924 -2.60767 -1.44238 0
M  V30 9805 H 949.461 -1.29286 -0.701673 0
M  V30 9806 H 951.419 -1.77156 -3.77719 0
M  V30 9807 H 950.049 -0.840936 -3.11654 0
M  V30 9808 H 949.101 -3.08881 -2.22029 0
M  V30 9809 H 950.413 -3.91823 -3.08669 0
M  V30 9810 H 949.567 -3.01749 -5.26339 0
M  V30 9811 H 948.306 -2.08416 -4.40924 0
M  V30 9812 H 947.311 -4.21485 -3.5303 0
M  V30 9813 H 948.536 -5.15781 -4.41755 0
M  V30 9814 H 946.482 -3.29677 -5.67141 0
M  V30 9815 H 946.399 -5.02774 -5.64583 0
M  V30 9816 H 947.667 -4.24281 -6.53916 0
M  V30 9817 N 951.896 0.746133 -1.38819 0
M  V30 9818 C 952.859 1.84167 -1.36437 0
M  V30 9819 C 953.859 1.58626 -0.263499 0
M  V30 9820 O 955.049 1.66233 -0.520801 0
M  V30 9821 C 952.181 3.21769 -1.12596 0
M  V30 9822 H 953.374 1.87684 -2.33912 0
M  V30 9823 H 950.927 0.948625 -1.24221 0
M  V30 9824 H 951.662 3.23917 -0.15758 0
M  V30 9825 H 951.447 3.41702 -1.92307 0
M  V30 9826 H 952.937 4.0184 -1.13643 0
M  V30 9827 N 953.375 1.23811 0.975125 0
M  V30 9828 C 954.624 1.06741 1.71141 0
M  V30 9829 C 954.937 -0.394986 1.9157 0
M  V30 9830 O 956.143 -0.685723 2.62698 0
M  V30 9831 C 954.599 1.86168 3.08009 0
M  V30 9832 C 954.207 3.36771 2.95448 0
M  V30 9833 C 955.951 1.77604 3.85561 0
M  V30 9834 C 953.858 4.0857 4.2758 0
M  V30 9835 H 952.788 0.395819 0.64175 0
M  V30 9836 H 955.439 1.47825 1.0872 0
M  V30 9837 H 953.821 1.37893 3.71216 0
M  V30 9838 H 954.995 3.92571 2.41298 0
M  V30 9839 H 953.31 3.46205 2.31368 0
M  V30 9840 H 955.907 2.28556 4.83391 0
M  V30 9841 H 956.25 0.739837 4.09673 0
M  V30 9842 H 956.783 2.23519 3.29065 0
M  V30 9843 H 953.522 5.12518 4.08663 0
M  V30 9844 H 953.042 3.57556 4.81574 0
M  V30 9845 H 954.721 4.15157 4.9624 0
M  V30 9846 N 954.853 -1.17469 1.05066 0
M  V30 9847 C 956.101 -1.87327 0.758485 0
M  V30 9848 C 956.422 -1.81358 -0.716549 0
M  V30 9849 O 955.692 -1.23868 -1.51768 0
M  V30 9850 H 954.272 -0.693512 0.277579 0
M  V30 9851 H 956.934 -1.4251 1.32954 0
M  V30 9852 H 956.03 -2.93101 1.0723 0
M  V30 9853 N 956.331 -0.831506 -1.3388 0
M  V30 9854 C 957.742 -0.481375 -1.80388 0
M  V30 9855 C 958.093 0.998993 -1.68863 0
M  V30 9856 O 957.218 1.77795 -1.2336 0
M  V30 9857 C 957.813 -0.86699 -3.27519 0
M  V30 9858 C 956.372 -0.569105 -3.72073 0
M  V30 9859 C 955.519 -1.07929 -2.55434 0
M  V30 9860 H 958.47 -1.02089 -1.21505 0
M  V30 9861 H 958.491 -0.174128 -3.80101 0
M  V30 9862 H 958.003 -1.94447 -3.35875 0
M  V30 9863 H 956.104 0.498607 -3.69249 0
M  V30 9864 H 956.217 -1.11918 -4.65845 0
M  V30 9865 H 954.581 -0.500465 -2.49735 0
M  V30 9866 H 955.364 -2.16339 -2.66556 0
M  V30 9867 N 957.809 1.4625 -0.587256 0
M  V30 9868 C 958.742 2.27392 0.191837 0
M  V30 9869 C 959.72 1.35905 0.89267 0
M  V30 9870 O 960.904 1.65319 0.905643 0
M  V30 9871 C 958.031 3.13758 1.27567 0
M  V30 9872 C 957.077 4.21041 0.680186 0
M  V30 9873 S 957.91 5.33194 -0.496419 0
M  V30 9874 C 959.066 6.23127 0.588506 0
M  V30 9875 H 959.299 2.93123 -0.496635 0
M  V30 9876 H 956.832 1.49795 -0.37426 0
M  V30 9877 H 958.79 3.6408 1.8962 0
M  V30 9878 H 957.451 2.47332 1.93612 0
M  V30 9879 H 956.644 4.81316 1.49503 0
M  V30 9880 H 956.246 3.73755 0.135227 0
M  V30 9881 H 958.538 6.61294 1.47298 0
M  V30 9882 H 959.481 7.08096 0.0224093 0
M  V30 9883 H 959.889 5.57365 0.894696 0
M  V30 9884 N 959.287 0.325282 1.54207 0
M  V30 9885 C 960.534 -0.276775 2.006 0
M  V30 9886 C 960.862 -1.52007 1.21343 0
M  V30 9887 O 960.117 -1.93627 0.284104 0
M  V30 9888 C 960.416 -0.654292 3.5136 0
M  V30 9889 C 960.082 0.490023 4.48229 0
M  V30 9890 C 958.744 0.804104 4.74434 0
M  V30 9891 C 961.096 1.2586 5.05775 0
M  V30 9892 C 958.424 1.88945 5.55443 0
M  V30 9893 C 960.776 2.33405 5.87967 0
M  V30 9894 C 959.44 2.65393 6.12473 0
M  V30 9895 H 958.71 -0.101279 0.734046 0
M  V30 9896 H 961.357 0.449416 1.86152 0
M  V30 9897 H 959.662 -1.46093 3.63544 0
M  V30 9898 H 961.359 -1.13171 3.84699 0
M  V30 9899 H 957.949 0.235147 4.27954 0
M  V30 9900 H 962.133 1.02921 4.85511 0
M  V30 9901 H 957.389 2.14174 5.7266 0
M  V30 9902 H 961.563 2.93402 6.31576 0
M  V30 9903 H 959.19 3.49622 6.75032 0
M  V30 9904 N 960.765 -1.57509 0.0534917 0
M  V30 9905 C 961.713 -2.12851 -0.937931 0
M  V30 9906 C 962.707 -1.06088 -1.32067 0
M  V30 9907 O 963.913 -1.24494 -1.30005 0
M  V30 9908 H 960.288 -0.680357 -0.320342 0
M  V30 9909 H 962.259 -2.95047 -0.446077 0
M  V30 9910 C 961.008 -2.69034 -2.20264 0
M  V30 9911 H 960.331 -3.50848 -1.91693 0
M  V30 9912 H 961.771 -3.11375 -2.87788 0
M  V30 9913 C 960.23 -1.62919 -2.94888 0
M  V30 9914 O 960.76 -1.04334 -3.87914 0
M  V30 9915 N 958.966 -1.34385 -2.57661 0
M  V30 9916 H 958.513 -1.82214 -1.82088 0
M  V30 9917 H 958.471 -0.636149 -3.07897 0
M  V30 9918 N 962.243 0.219913 -1.56058 0
M  V30 9919 C 963.175 1.29604 -1.89038 0
M  V30 9920 C 964.188 1.42964 -0.778791 0
M  V30 9921 O 965.377 1.43832 -1.0571 0
M  V30 9922 C 962.477 2.67145 -2.08534 0
M  V30 9923 C 961.65 2.75712 -3.39561 0
M  V30 9924 C 960.709 3.94279 -3.48469 0
M  V30 9925 O 959.735 3.8254 -4.21487 0
M  V30 9926 N 960.937 5.08655 -2.79732 0
M  V30 9927 H 963.702 1.01638 -2.81939 0
M  V30 9928 H 961.263 0.409945 -1.56624 0
M  V30 9929 H 963.255 3.44847 -2.11808 0
M  V30 9930 H 961.825 2.87704 -1.2225 0
M  V30 9931 H 961.045 1.84475 -3.48371 0
M  V30 9932 H 962.333 2.78407 -4.25872 0
M  V30 9933 H 961.731 5.21088 -2.2019 0
M  V30 9934 H 960.288 5.84394 -2.88665 0
M  V30 9935 N 963.721 1.49897 0.486681 0
M  V30 9936 C 964.967 1.60342 1.2417 0
M  V30 9937 C 965.3 0.295694 1.91936 0
M  V30 9938 O 964.575 -0.701788 1.81398 0
M  V30 9939 C 964.858 2.77281 2.29755 0
M  V30 9940 C 964.711 4.1789 1.66397 0
M  V30 9941 C 966.03 2.89817 3.31201 0
M  V30 9942 H 963.149 0.583605 0.450083 0
M  V30 9943 H 965.791 1.82232 0.537734 0
M  V30 9944 H 963.941 2.58748 2.89796 0
M  V30 9945 H 965.613 4.47975 1.10073 0
M  V30 9946 H 963.856 4.22872 0.967579 0
M  V30 9947 H 964.527 4.95612 2.43049 0
M  V30 9948 H 967.003 3.06732 2.81167 0
M  V30 9949 H 965.879 3.7329 4.02425 0
M  V30 9950 H 966.14 1.9977 3.94391 0
M  V30 9951 N 965.199 -0.738761 1.39212 0
M  V30 9952 C 966.445 -1.50046 1.36433 0
M  V30 9953 C 966.778 -1.94157 -0.0409474 0
M  V30 9954 O 966.053 -1.66515 -1.00514 0
M  V30 9955 C 966.336 -2.74277 2.33333 0
M  V30 9956 C 966.189 -2.36209 3.82786 0
M  V30 9957 C 967.508 -3.76361 2.28123 0
M  V30 9958 H 964.627 -0.544294 0.496903 0
M  V30 9959 H 967.269 -0.845005 1.70175 0
M  V30 9960 H 965.419 -3.30204 2.04689 0
M  V30 9961 H 967.091 -1.85942 4.22165 0
M  V30 9962 H 965.334 -1.68483 3.99745 0
M  V30 9963 H 966.005 -3.25156 4.46069 0
M  V30 9964 H 968.481 -3.30009 2.53443 0
M  V30 9965 H 967.357 -4.60957 2.9801 0
M  V30 9966 H 967.618 -4.23013 1.28499 0
M  V30 9967 N 966.677 -1.24326 -0.968545 0
M  V30 9968 C 967.907 -1.10786 -1.74385 0
M  V30 9969 C 968.315 0.342503 -1.86074 0
M  V30 9970 O 967.658 1.24817 -1.34782 0
M  V30 9971 C 967.72 -1.67274 -3.18213 0
M  V30 9972 C 967.384 -3.1615 -3.29998 0
M  V30 9973 C 968.381 -4.13309 -3.15392 0
M  V30 9974 C 966.066 -3.56092 -3.54265 0
M  V30 9975 C 968.06 -5.48392 -3.24878 0
M  V30 9976 C 965.747 -4.91316 -3.63389 0
M  V30 9977 C 966.745 -5.87275 -3.48707 0
M  V30 9978 O 966.433 -7.20041 -3.57485 0
M  V30 9979 H 966.165 -0.387795 -0.553706 0
M  V30 9980 H 968.719 -1.64894 -1.22471 0
M  V30 9981 H 966.949 -1.07598 -3.71429 0
M  V30 9982 H 968.638 -1.49036 -3.77549 0
M  V30 9983 H 969.404 -3.83792 -2.96528 0
M  V30 9984 H 965.283 -2.81907 -3.6476 0
M  V30 9985 H 968.827 -6.23271 -3.13335 0
M  V30 9986 H 964.724 -5.20505 -3.81766 0
M  V30 9987 H 965.492 -7.27951 -3.74205 0
M  V30 9988 N 968.156 1.1691 -1.05688 0
M  V30 9989 C 969.088 2.20648 -0.620237 0
M  V30 9990 C 970.101 1.59652 0.318604 0
M  V30 9991 O 971.29 1.78157 0.110553 0
M  V30 9992 C 968.39 3.38716 0.111729 0
M  V30 9993 C 967.563 4.29277 -0.839062 0
M  V30 9994 C 966.622 5.25993 -0.147453 0
M  V30 9995 O 965.648 5.63787 -0.783151 0
M  V30 9996 N 966.85 5.69725 1.11327 0
M  V30 9997 H 969.615 2.58731 -1.51256 0
M  V30 9998 H 967.176 1.31858 -0.939412 0
M  V30 9999 H 969.168 4.00455 0.584657 0
M  V30 10000 H 967.738 2.99189 0.905784 0
M  V30 10001 H 966.958 3.64894 -1.4915 0
M  V30 10002 H 968.246 4.86669 -1.48428 0
M  V30 10003 H 967.644 5.41103 1.64999 0
M  V30 10004 H 966.201 6.33584 1.53018 0
M  V30 10005 N 969.634 0.838594 1.33437 0
M  V30 10006 C 970.864 0.446995 2.01707 0
M  V30 10007 C 971.272 -0.956335 1.63251 0
M  V30 10008 O 970.615 -1.63289 0.841566 0
M  V30 10009 C 970.677 0.487707 3.56176 0
M  V30 10010 C 970.341 1.8471 4.18009 0
M  V30 10011 C 971.338 2.81028 4.374 0
M  V30 10012 C 969.023 2.13987 4.54439 0
M  V30 10013 C 971.017 4.04785 4.92369 0
M  V30 10014 C 968.704 3.38 5.09116 0
M  V30 10015 C 969.702 4.33216 5.28027 0
M  V30 10016 O 969.39 5.55036 5.81541 0
M  V30 10017 H 969.122 0.175799 0.652741 0
M  V30 10018 H 971.676 1.13265 1.71348 0
M  V30 10019 H 969.906 -0.254719 3.8586 0
M  V30 10020 H 971.595 0.113971 4.0574 0
M  V30 10021 H 972.361 2.5971 4.09604 0
M  V30 10022 H 968.24 1.40668 4.39014 0
M  V30 10023 H 971.784 4.79114 5.07046 0
M  V30 10024 H 967.681 3.59175 5.36343 0
M  V30 10025 H 968.449 5.56772 5.99956 0
M  V30 10026 N 971.112 -1.45937 0.595003 0
M  V30 10027 C 972.523 -1.85908 0.171779 0
M  V30 10028 C 972.874 -1.497 -1.26824 0
M  V30 10029 O 971.999 -0.917688 -1.95978 0
M  V30 10030 C 972.594 -3.37425 0.304976 0
M  V30 10031 C 971.153 -3.76346 -0.0634635 0
M  V30 10032 C 970.3 -2.69926 0.635255 0
M  V30 10033 H 973.251 -1.36916 0.802471 0
M  V30 10034 H 973.272 -3.77632 -0.466313 0
M  V30 10035 H 972.784 -3.63747 1.35314 0
M  V30 10036 H 970.885 -3.55642 -1.11129 0
M  V30 10037 H 970.998 -4.78021 0.321419 0
M  V30 10038 H 969.362 -2.54592 0.0742054 0
M  V30 10039 H 970.145 -2.99086 1.68531 0
M  V30 10040 N 972.59 -0.333456 -1.54032 0
M  V30 10041 C 973.818 0.267813 -2.05159 0
M  V30 10042 C 974.233 1.4501 -1.20903 0
M  V30 10043 O 973.59 1.80888 -0.241994 0
M  V30 10044 C 973.641 0.69268 -3.54802 0
M  V30 10045 O 973.362 -0.442579 -4.35859 0
M  V30 10046 C 974.863 1.35572 -4.2206 0
M  V30 10047 H 972.083 0.0534924 -0.668864 0
M  V30 10048 H 974.627 -0.482515 -1.98726 0
M  V30 10049 H 972.782 1.39297 -3.6149 0
M  V30 10050 H 973.196 -0.105915 -5.24393 0
M  V30 10051 H 974.67 1.60385 -5.28186 0
M  V30 10052 H 975.147 2.30614 -3.73783 0
M  V30 10053 H 975.753 0.697748 -4.19537 0
M  V30 10054 N 974.068 1.57479 -0.061844 0
M  V30 10055 C 975.314 1.9421 0.604485 0
M  V30 10056 C 975.669 0.941011 1.67818 0
M  V30 10057 O 974.962 -0.0382264 1.91562 0
M  V30 10058 C 975.156 3.35394 1.23474 0
M  V30 10059 C 974.985 4.49144 0.223628 0
M  V30 10060 C 973.755 5.04949 -0.188187 0
M  V30 10061 C 975.953 5.11508 -0.535193 0
M  V30 10062 N 973.935 6.02235 -1.19105 0
M  V30 10063 C 975.306 6.04199 -1.39082 0
M  V30 10064 C 977.361 4.94364 -0.592346 0
M  V30 10065 C 976.064 6.81587 -2.2985 0
M  V30 10066 C 978.09 5.72388 -1.48749 0
M  V30 10067 C 977.452 6.6472 -2.33082 0
M  V30 10068 H 973.551 0.757931 0.192522 0
M  V30 10069 H 976.135 1.9422 -0.136667 0
M  V30 10070 H 974.306 3.36141 1.94587 0
M  V30 10071 H 976.038 3.59387 1.86073 0
M  V30 10072 H 972.793 4.73207 0.192933 0
M  V30 10073 H 973.217 6.55575 -1.68969 0
M  V30 10074 H 977.859 4.22776 0.045445 0
M  V30 10075 H 975.577 7.5246 -2.94669 0
M  V30 10076 H 979.163 5.61146 -1.53642 0
M  V30 10077 H 978.043 7.2404 -3.01225 0
M  V30 10078 N 975.546 -0.211634 1.56173 0
M  V30 10079 C 976.776 -0.949805 1.83473 0
M  V30 10080 C 977.184 -1.78045 0.640053 0
M  V30 10081 O 976.527 -1.79277 -0.400702 0
M  V30 10082 C 976.589 -1.90868 3.04647 0
M  V30 10083 C 976.253 -1.26159 4.39241 0
M  V30 10084 C 977.25 -0.646597 5.15863 0
M  V30 10085 C 974.935 -1.27039 4.85969 0
M  V30 10086 C 976.929 -0.0490313 6.37381 0
M  V30 10087 C 974.616 -0.668987 6.07427 0
M  V30 10088 C 975.614 -0.0593687 6.82974 0
M  V30 10089 O 975.302 0.532656 8.02133 0
M  V30 10090 H 975.034 -0.283458 0.6137 0
M  V30 10091 H 977.588 -0.22894 2.0412 0
M  V30 10092 H 975.818 -2.6688 2.79843 0
M  V30 10093 H 977.507 -2.51323 3.18734 0
M  V30 10094 H 978.273 -0.632056 4.80864 0
M  V30 10095 H 974.152 -1.73429 4.27134 0
M  V30 10096 H 977.696 0.427414 6.96289 0
M  V30 10097 H 973.593 -0.680975 6.41898 0
M  V30 10098 H 974.361 0.427942 8.17381 0
M  V30 10099 N 977.024 -1.50153 -0.478725 0
M  V30 10100 C 978.254 -1.64266 -1.253 0
M  V30 10101 C 978.662 -0.322256 -1.86435 0
M  V30 10102 O 978.005 0.704925 -1.69636 0
M  V30 10103 C 978.067 -2.67017 -2.40712 0
M  V30 10104 C 977.731 -4.10779 -2.00274 0
M  V30 10105 C 978.728 -4.96889 -1.52963 0
M  V30 10106 C 976.413 -4.5665 -2.09228 0
M  V30 10107 C 978.407 -6.26914 -1.15139 0
M  V30 10108 C 976.094 -5.86683 -1.71015 0
M  V30 10109 C 977.092 -6.71641 -1.24048 0
M  V30 10110 O 976.78 -7.99248 -0.863617 0
M  V30 10111 H 976.512 -0.555382 -0.385392 0
M  V30 10112 H 979.066 -1.97078 -0.578751 0
M  V30 10113 H 977.296 -2.29432 -3.11284 0
M  V30 10114 H 978.985 -2.70428 -3.02694 0
M  V30 10115 H 979.751 -4.62669 -1.45474 0
M  V30 10116 H 975.63 -3.90674 -2.44735 0
M  V30 10117 H 979.174 -6.93179 -0.784089 0
M  V30 10118 H 975.071 -6.20426 -1.78162 0
M  V30 10119 H 975.839 -8.12452 -0.993139 0
M  V30 10120 N 978.502 0.731368 -1.39602 0
M  V30 10121 C 979.779 1.48308 -1.27531 0
M  V30 10122 C 980.159 2.10795 0.113482 0
M  V30 10123 O 979.507 1.98886 1.12501 0
M  V30 10124 C 979.717 2.53156 -2.40235 0
M  V30 10125 C 981.065 3.19436 -2.79725 0
M  V30 10126 O 982.089 2.6347 -2.39712 0
M  V30 10127 O 980.948 4.20714 -3.48801 0
M  V30 10128 H 978.042 0.658753 -0.499973 0
M  V30 10129 H 980.588 0.764884 -1.51485 0
M  V30 10130 H 979.36 2.05387 -3.33064 0
M  V30 10131 H 978.983 3.3253 -2.17966 0
M  V30 10132 N 979.98 1.24838 0.961938 0
M  V30 10133 C 981.226 1.09313 1.70817 0
M  V30 10134 C 981.559 -0.366244 1.90715 0
M  V30 10135 O 980.834 -1.27036 1.47282 0
M  V30 10136 C 981.117 1.83988 3.09549 0
M  V30 10137 C 980.97 3.3771 2.97106 0
M  V30 10138 C 982.289 1.61718 4.09311 0
M  V30 10139 H 979.408 0.398498 0.619974 0
M  V30 10140 H 982.05 1.53579 1.11864 0
M  V30 10141 H 980.2 1.46363 3.59875 0
M  V30 10142 H 981.872 3.84967 2.54161 0
M  V30 10143 H 980.115 3.65795 2.33187 0
M  V30 10144 H 980.786 3.85166 3.95412 0
M  V30 10145 H 983.262 1.94458 3.67866 0
M  V30 10146 H 982.138 2.16415 5.04436 0
M  V30 10147 H 982.399 0.55677 4.3858 0
M  V30 10148 N 981.458 -1.16348 1.06306 0
M  V30 10149 C 982.683 -1.91323 0.800636 0
M  V30 10150 C 983.108 -1.7691 -0.639105 0
M  V30 10151 O 982.466 -1.0945 -1.44535 0
M  V30 10152 C 982.514 -3.40038 1.20027 0
M  V30 10153 O 981.618 -4.11003 0.339142 0
M  V30 10154 H 980.959 -0.596057 0.292595 0
M  V30 10155 H 983.489 -1.47406 1.41889 0
M  V30 10156 H 983.499 -3.90808 1.17188 0
M  V30 10157 H 982.174 -3.49848 2.24898 0
M  V30 10158 H 980.751 -3.70423 0.42911 0
M  V30 10159 N 982.937 -0.845659 -1.3299 0
M  V30 10160 C 984.183 -0.445311 -1.9785 0
M  V30 10161 C 984.516 0.994476 -1.66805 0
M  V30 10162 O 983.791 1.69636 -0.95151 0
M  V30 10163 C 984.074 -0.674371 -3.53729 0
M  V30 10164 C 983.927 -2.16192 -3.94437 0
M  V30 10165 C 985.246 -0.124908 -4.39923 0
M  V30 10166 H 982.365 -0.163269 -0.718688 0
M  V30 10167 H 985.007 -1.06242 -1.5752 0
M  V30 10168 H 983.157 -0.149091 -3.88214 0
M  V30 10169 H 984.829 -2.75259 -3.70176 0
M  V30 10170 H 983.072 -2.64386 -3.43922 0
M  V30 10171 H 983.743 -2.27292 -5.03033 0
M  V30 10172 H 986.219 -0.573986 -4.12122 0
M  V30 10173 H 985.095 -0.314816 -5.47996 0
M  V30 10174 H 985.356 0.971758 -4.31288 0
M  V30 10175 N 984.415 1.45619 -0.602734 0
M  V30 10176 C 985.826 1.85814 -0.181636 0
M  V30 10177 C 986.177 1.5037 1.26029 0
M  V30 10178 O 985.302 0.928068 1.95489 0
M  V30 10179 C 985.897 3.37258 -0.322866 0
M  V30 10180 C 984.456 3.76375 0.043504 0
M  V30 10181 C 983.603 2.69585 -0.649561 0
M  V30 10182 H 986.554 1.36489 -0.809721 0
M  V30 10183 H 986.575 3.77874 0.446279 0
M  V30 10184 H 986.087 3.63024 -1.37241 0
M  V30 10185 H 984.188 3.56226 1.09241 0
M  V30 10186 H 984.301 4.77843 -0.346765 0
M  V30 10187 H 982.665 2.54549 -0.087706 0
M  V30 10188 H 983.448 2.98188 -1.70115 0
M  V30 10189 N 985.893 0.34162 1.53853 0
M  V30 10190 C 986.856 -0.503541 2.236 0
M  V30 10191 C 987.856 -1.02912 1.23554 0
M  V30 10192 O 989.046 -0.918678 1.48007 0
M  V30 10193 C 986.178 -1.70126 2.95415 0
M  V30 10194 H 987.371 0.106437 2.99711 0
M  V30 10195 H 984.924 0.0929408 1.56023 0
M  V30 10196 H 985.659 -2.34999 2.23486 0
M  V30 10197 H 985.444 -1.33161 3.68796 0
M  V30 10198 H 986.934 -2.30077 3.48503 0
M  V30 10199 N 987.371 -1.57444 0.0701946 0
M  V30 10200 C 988.619 -1.93047 -0.598106 0
M  V30 10201 C 988.94 -0.950841 -1.70247 0
M  V30 10202 O 988.21 0.00127177 -1.959 0
M  V30 10203 H 986.79 -0.712648 -0.223924 0
M  V30 10204 H 989.452 -1.94481 0.127674 0
M  V30 10205 H 988.548 -2.94807 -1.02445 0
M  V30 10206 N 988.849 0.203349 -1.56283 0
M  V30 10207 C 990.077 0.941426 -1.84241 0
M  V30 10208 C 990.492 1.77197 -0.651658 0
M  V30 10209 O 989.849 1.78506 0.379713 0
M  V30 10210 C 989.9 1.84429 -3.10915 0
M  V30 10211 O 989.621 1.04729 -4.25398 0
M  V30 10212 C 991.122 2.69474 -3.51993 0
M  V30 10213 H 988.342 0.27507 -0.612027 0
M  V30 10214 H 990.886 0.213088 -2.03387 0
M  V30 10215 H 989.041 2.52635 -2.93691 0
M  V30 10216 H 989.455 1.66179 -4.97478 0
M  V30 10217 H 990.929 3.28495 -4.43616 0
M  V30 10218 H 991.406 3.42775 -2.74594 0
M  V30 10219 H 992.012 2.06652 -3.71719 0
M  V30 10220 N 990.327 1.50405 0.470755 0
M  V30 10221 C 991.555 1.65168 1.24608 0
M  V30 10222 C 991.97 0.335153 1.85801 0
M  V30 10223 O 991.327 -0.682919 1.69241 0
M  V30 10224 C 991.378 2.74305 2.35455 0
M  V30 10225 O 991.099 4.00854 1.76771 0
M  V30 10226 C 992.6 3.00044 3.26326 0
M  V30 10227 H 989.82 0.555186 0.376842 0
M  V30 10228 H 992.364 1.9663 0.56187 0
M  V30 10229 H 990.519 2.45536 2.99651 0
M  V30 10230 H 990.933 4.61211 2.49769 0
M  V30 10231 H 992.407 3.8007 4.00313 0
M  V30 10232 H 992.884 2.11128 3.85126 0
M  V30 10233 H 993.49 3.30345 2.67866 0
M  V30 10234 N 991.805 -0.723954 1.39988 0
M  V30 10235 C 993.054 -1.47922 1.3712 0
M  V30 10236 C 993.367 -1.95582 -0.0263665 0
M  V30 10237 O 994.573 -2.70918 -0.177652 0
M  V30 10238 C 993.029 -2.67342 2.40949 0
M  V30 10239 C 992.637 -2.26586 3.86475 0
M  V30 10240 C 994.381 -3.45116 2.47174 0
M  V30 10241 C 992.288 -3.42794 4.81919 0
M  V30 10242 H 991.218 -0.555522 0.509815 0
M  V30 10243 H 993.869 -0.788692 1.65686 0
M  V30 10244 H 992.251 -3.38524 2.0547 0
M  V30 10245 H 993.425 -1.62878 4.31054 0
M  V30 10246 H 991.74 -1.61876 3.83647 0
M  V30 10247 H 994.337 -4.31573 3.15672 0
M  V30 10248 H 994.68 -3.8835 1.49966 0
M  V30 10249 H 995.213 -2.80971 2.81602 0
M  V30 10250 H 991.952 -3.046 5.8043 0
M  V30 10251 H 991.472 -4.05445 4.42012 0
M  V30 10252 H 993.151 -4.08977 5.01345 0
M  V30 10253 N 993.283 -1.25346 -0.955304 0
M  V30 10254 C 994.215 -1.0146 -2.0552 0
M  V30 10255 C 995.228 0.0202256 -1.62787 0
M  V30 10256 O 996.417 -0.218251 -1.77161 0
M  V30 10257 C 993.517 -0.511727 -3.35014 0
M  V30 10258 C 992.69 -1.61256 -4.0659 0
M  V30 10259 C 991.749 -1.11017 -5.14356 0
M  V30 10260 O 990.775 -1.80443 -5.39842 0
M  V30 10261 N 991.977 0.0489001 -5.80479 0
M  V30 10262 H 994.742 -1.96166 -2.26581 0
M  V30 10263 H 992.303 -1.16543 -1.12381 0
M  V30 10264 H 994.295 -0.160123 -4.04383 0
M  V30 10265 H 992.865 0.341377 -3.1073 0
M  V30 10266 H 992.085 -2.13577 -3.31328 0
M  V30 10267 H 993.373 -2.35213 -4.51168 0
M  V30 10268 H 992.771 0.629021 -5.62192 0
M  V30 10269 H 991.328 0.341542 -6.50905 0
M  V30 10270 N 994.761 1.15782 -1.06922 0
M  V30 10271 C 996.008 1.86465 -0.789752 0
M  V30 10272 C 996.336 1.82075 0.684022 0
M  V30 10273 O 995.591 1.23576 1.51748 0
M  V30 10274 C 995.89 3.35284 -1.2377 0
M  V30 10275 C 995.556 3.59871 -2.71668 0
M  V30 10276 C 994.218 3.6629 -3.12066 0
M  V30 10277 C 996.57 3.69929 -3.67154 0
M  V30 10278 C 993.898 3.80275 -4.46775 0
M  V30 10279 C 996.25 3.85436 -5.01619 0
M  V30 10280 C 994.914 3.901 -5.41644 0
M  V30 10281 H 994.184 0.682324 -0.288991 0
M  V30 10282 H 996.831 1.36861 -1.33945 0
M  V30 10283 H 995.136 3.87065 -0.607309 0
M  V30 10284 H 996.833 3.88371 -0.998431 0
M  V30 10285 H 993.423 3.55512 -2.39393 0
M  V30 10286 H 997.607 3.64274 -3.37073 0
M  V30 10287 H 992.863 3.8214 -4.77262 0
M  V30 10288 H 997.037 3.92161 -5.75485 0
M  V30 10289 H 994.664 4.00688 -6.46029 0
M  V30 10290 N 996.239 0.8527 1.3254 0
M  V30 10291 C 997.186 0.293905 2.28921 0
M  V30 10292 C 998.156 -0.598027 1.54961 0
M  V30 10293 O 999.341 -0.533355 1.83194 0
M  V30 10294 C 996.481 -0.513361 3.4126 0
M  V30 10295 C 995.594 0.404144 4.30105 0
M  V30 10296 C 994.729 -0.415564 5.29572 0
M  V30 10297 C 993.768 0.499461 6.10059 0
M  V30 10298 N 992.905 -0.282949 7.0153 0
M  V30 10299 H 997.745 1.12107 2.76109 0
M  V30 10300 H 995.282 0.564272 1.35847 0
M  V30 10301 H 997.24 -0.997008 4.05112 0
M  V30 10302 H 995.87 -1.30537 2.95229 0
M  V30 10303 H 994.922 1.00617 3.66852 0
M  V30 10304 H 996.234 1.10648 4.86373 0
M  V30 10305 H 995.388 -0.962458 5.99017 0
M  V30 10306 H 994.127 -1.15127 4.73917 0
M  V30 10307 H 993.132 1.05825 5.39519 0
M  V30 10308 H 994.357 1.23375 6.67799 0
M  V30 10309 H 992.303 -1.00179 6.48306 0
M  V30 10310 H 992.22 0.36039 7.55141 0
M  V30 10311 H 993.488 -0.811632 7.75263 0
M  V30 10312 N 997.718 -1.45297 0.610449 0
M  V30 10313 C 998.965 -2.02218 0.106759 0
M  V30 10314 C 999.293 -1.47849 -1.26376 0
M  V30 10315 O 998.548 -0.644402 -1.84786 0
M  V30 10316 C 998.847 -3.57394 0.0205329 0
M  V30 10317 C 998.513 -4.30928 1.32709 0
M  V30 10318 C 997.175 -4.50735 1.68498 0
M  V30 10319 C 999.527 -4.72936 2.19046 0
M  V30 10320 C 996.855 -5.09806 2.90371 0
M  V30 10321 C 999.207 -5.33355 3.40169 0
M  V30 10322 C 997.871 -5.51384 3.76207 0
M  V30 10323 H 997.141 -0.739969 0.039066 0
M  V30 10324 H 999.788 -1.74326 0.792638 0
M  V30 10325 H 998.093 -3.84581 -0.748623 0
M  V30 10326 H 999.79 -3.99144 -0.385386 0
M  V30 10327 H 996.38 -4.15827 1.03854 0
M  V30 10328 H 1000.56 -4.57365 1.92695 0
M  V30 10329 H 995.82 -5.21953 3.18395 0
M  V30 10330 H 999.994 -5.64859 4.07318 0
M  V30 10331 H 997.621 -5.96924 4.70729 0
M  V30 10332 N 999.196 -0.349774 -1.5367 0
M  V30 10333 C 1000.44 0.245862 -2.00196 0
M  V30 10334 C 1000.76 1.51154 -1.24144 0
M  V30 10335 O 1001.96 2.18481 -1.61178 0
M  V30 10336 C 1000.42 0.488665 -3.56567 0
M  V30 10337 C 1000.03 -0.761475 -4.41481 0
M  V30 10338 C 1001.77 1.04282 -4.11492 0
M  V30 10339 C 999.679 -0.489128 -5.89374 0
M  V30 10340 H 998.609 0.0956493 -0.747909 0
M  V30 10341 H 1001.26 -0.466068 -1.77483 0
M  V30 10342 H 999.642 1.26145 -3.75371 0
M  V30 10343 H 1000.82 -1.53585 -4.34452 0
M  V30 10344 H 999.131 -1.23771 -3.9758 0
M  V30 10345 H 1001.73 1.26164 -5.19603 0
M  V30 10346 H 1002.07 2.00023 -3.65098 0
M  V30 10347 H 1002.6 0.330582 -3.96424 0
M  V30 10348 H 999.343 -1.41643 -6.40014 0
M  V30 10349 H 998.863 0.247039 -5.99291 0
M  V30 10350 H 1000.54 -0.1087 -6.46909 0
M  V30 10351 N 1000.67 1.57404 -0.0785433 0
M  V30 10352 C 1001.62 2.13104 0.88631 0
M  V30 10353 C 1002.59 1.04527 1.29086 0
M  V30 10354 O 1003.78 1.32226 1.37553 0
M  V30 10355 C 1000.92 2.70252 2.14611 0
M  V30 10356 C 1000.03 3.93007 1.79358 0
M  V30 10357 C 999.164 4.38376 3 0
M  V30 10358 C 998.203 5.53761 2.60796 0
M  V30 10359 N 997.34 5.94058 3.74219 0
M  V30 10360 H 1002.18 2.95243 0.404452 0
M  V30 10361 H 999.717 1.45894 0.187982 0
M  V30 10362 H 1001.67 3.01497 2.88367 0
M  V30 10363 H 1000.3 1.90868 2.60326 0
M  V30 10364 H 999.357 3.68181 0.956384 0
M  V30 10365 H 1000.67 4.76795 1.4652 0
M  V30 10366 H 999.823 4.71317 3.82027 0
M  V30 10367 H 998.562 3.53455 3.36037 0
M  V30 10368 H 997.567 5.20464 1.77192 0
M  V30 10369 H 998.792 6.40419 2.25922 0
M  V30 10370 H 996.738 5.12085 4.10005 0
M  V30 10371 H 996.655 6.72602 3.45171 0
M  V30 10372 H 997.923 6.31624 4.56805 0
M  V30 10373 N 1002.15 -0.195058 1.56388 0
M  V30 10374 C 1003.1 -1.24175 1.94549 0
M  V30 10375 C 1004.07 -1.45229 0.806089 0
M  V30 10376 O 1005.25 -1.58362 1.06425 0
M  V30 10377 C 1002.39 -2.58145 2.29031 0
M  V30 10378 C 1001.51 -2.44669 3.56035 0
M  V30 10379 C 1000.64 -3.71342 3.7984 0
M  V30 10380 C 999.681 -3.52699 5.0027 0
M  V30 10381 N 998.818 -4.71385 5.20328 0
M  V30 10382 H 1003.66 -0.909319 2.83788 0
M  V30 10383 H 1001.19 -0.437641 1.40439 0
M  V30 10384 H 1003.15 -3.36195 2.4704 0
M  V30 10385 H 1001.78 -2.8943 1.42933 0
M  V30 10386 H 1000.83 -1.57916 3.46073 0
M  V30 10387 H 1002.15 -2.26827 4.44242 0
M  V30 10388 H 1001.3 -4.57832 3.98088 0
M  V30 10389 H 1000.04 -3.92138 2.89964 0
M  V30 10390 H 999.045 -2.64594 4.81944 0
M  V30 10391 H 1000.27 -3.33349 5.91655 0
M  V30 10392 H 998.216 -4.92444 4.33399 0
M  V30 10393 H 998.133 -4.56368 6.02714 0
M  V30 10394 H 999.401 -5.59226 5.43035 0
M  V30 10395 N 1003.63 -1.50653 -0.462772 0
M  V30 10396 C 1004.58 -1.70661 -1.58043 0
M  V30 10397 C 1005.57 -0.572533 -1.59432 0
M  V30 10398 O 1006.78 -0.753257 -1.63481 0
M  V30 10399 H 1003.15 -0.538805 -0.524588 0
M  V30 10400 H 1005.12 -2.64399 -1.38332 0
M  V30 10401 C 1003.87 -1.82558 -2.95919 0
M  V30 10402 H 1003.2 -2.69216 -2.95572 0
M  V30 10403 H 1004.64 -2.0058 -3.73556 0
M  V30 10404 C 1003.09 -0.57916 -3.31885 0
M  V30 10405 O 1003.62 0.277888 -4.00738 0
M  V30 10406 N 1001.83 -0.430723 -2.8739 0
M  V30 10407 H 1001.38 -1.1292 -2.31531 0
M  V30 10408 H 1001.34 0.402061 -3.11819 0
M  V30 10409 N 1005.11 0.71652 -1.4037 0
M  V30 10410 C 1006.36 1.47347 -1.38324 0
M  V30 10411 C 1006.68 1.94995 0.0139949 0
M  V30 10412 O 1005.95 1.7028 0.968585 0
M  V30 10413 H 1004.53 0.546662 -0.509087 0
M  V30 10414 H 1007.19 0.849455 -1.75415 0
M  V30 10415 H 1006.29 2.34675 -2.05752 0
M  V30 10416 N 1006.59 1.25851 0.948643 0
M  V30 10417 C 1007.53 1.06559 2.06756 0
M  V30 10418 C 1008.53 -0.00528632 1.69399 0
M  V30 10419 O 1009.73 0.150806 1.79367 0
M  V30 10420 H 1006.11 0.327689 0.676848 0
M  V30 10421 H 1008.08 2.01401 2.20182 0
M  V30 10422 C 1006.83 0.707392 3.40428 0
M  V30 10423 H 1006.15 1.52324 3.69645 0
M  V30 10424 H 1007.59 0.612142 4.19558 0
M  V30 10425 C 1006.05 -0.58697 3.31747 0
M  V30 10426 O 1006.58 -1.62741 3.67258 0
M  V30 10427 N 1004.79 -0.574828 2.84858 0
M  V30 10428 H 1004.33 0.272236 2.56157 0
M  V30 10429 H 1004.29 -1.441 2.79432 0
M  V30 10430 N 1008.06 -1.15214 1.07534 0
M  V30 10431 C 1009.29 -1.89922 0.820804 0
M  V30 10432 C 1009.71 -1.78114 -0.626177 0
M  V30 10433 O 1009.06 -1.13435 -1.42964 0
M  V30 10434 C 1009.12 -3.40207 1.22236 0
M  V30 10435 O 1008.84 -3.51676 2.61257 0
M  V30 10436 C 1010.34 -4.31934 0.997393 0
M  V30 10437 H 1007.56 -0.601865 0.296647 0
M  V30 10438 H 1010.1 -1.45965 1.43229 0
M  V30 10439 H 1008.26 -3.8182 0.655167 0
M  V30 10440 H 1008.67 -4.44959 2.77689 0
M  V30 10441 H 1010.14 -5.35791 1.32785 0
M  V30 10442 H 1010.62 -4.3915 -0.0661599 0
M  V30 10443 H 1011.23 -3.96066 1.54958 0
M  V30 10444 N 1009.54 -0.859717 -1.32086 0
M  V30 10445 C 1010.79 -0.461779 -1.96343 0
M  V30 10446 C 1011.1 0.988837 -1.68764 0
M  V30 10447 O 1012.31 1.49244 -2.268 0
M  V30 10448 C 1010.77 -0.77484 -3.5146 0
M  V30 10449 C 1010.37 -2.24153 -3.87891 0
M  V30 10450 C 1012.12 -0.444873 -4.22162 0
M  V30 10451 C 1010.03 -2.49754 -5.36075 0
M  V30 10452 H 1008.96 -0.168951 -0.734828 0
M  V30 10453 H 1011.61 -1.0512 -1.50406 0
M  V30 10454 H 1009.99 -0.114792 -3.95834 0
M  V30 10455 H 1011.16 -2.94378 -3.54511 0
M  V30 10456 H 1009.48 -2.53651 -3.30227 0
M  V30 10457 H 1012.07 -0.613508 -5.31169 0
M  V30 10458 H 1012.42 0.61391 -4.11749 0
M  V30 10459 H 1012.95 -1.06103 -3.83389 0
M  V30 10460 H 1009.69 -3.54276 -5.51515 0
M  V30 10461 H 1009.21 -1.84112 -5.70844 0
M  V30 10462 H 1010.89 -2.3396 -6.03218 0
M  V30 10463 N 1011.02 1.44971 -0.618145 0
M  V30 10464 C 1012.25 2.06527 -0.124165 0
M  V30 10465 C 1012.66 1.46097 1.19588 0
M  V30 10466 O 1012.02 0.57901 1.73071 0
M  V30 10467 C 1012.07 3.61498 0.0106701 0
M  V30 10468 O 1011.79 4.19675 -1.25716 0
M  V30 10469 C 1013.29 4.40061 0.534872 0
M  V30 10470 H 1010.51 0.666941 -0.0736935 0
M  V30 10471 H 1013.06 1.8605 -0.848871 0
M  V30 10472 H 1011.21 3.81282 0.685752 0
M  V30 10473 H 1011.63 5.12972 -1.09362 0
M  V30 10474 H 1013.1 5.48963 0.57827 0
M  V30 10475 H 1013.58 4.10587 1.55931 0
M  V30 10476 H 1014.18 4.25167 -0.10652 0
M  V30 10477 N 1012.5 0.357919 1.53482 0
M  V30 10478 C 1013.74 -0.22712 2.02128 0
M  V30 10479 C 1014.1 -1.47044 1.2408 0
M  V30 10480 O 1013.39 -1.88841 0.323966 0
M  V30 10481 C 1013.59 -0.579617 3.52669 0
M  V30 10482 C 1013.42 0.627992 4.45294 0
M  V30 10483 C 1012.19 1.13772 4.92325 0
M  V30 10484 C 1014.38 1.49087 4.92217 0
M  V30 10485 N 1012.37 2.30615 5.68937 0
M  V30 10486 C 1013.74 2.50604 5.67096 0
M  V30 10487 C 1015.79 1.51464 4.74303 0
M  V30 10488 C 1014.49 3.54346 6.25964 0
M  V30 10489 C 1016.52 2.54095 5.34032 0
M  V30 10490 C 1015.88 3.54337 6.0879 0
M  V30 10491 H 1011.98 -0.0460295 0.780644 0
M  V30 10492 H 1014.57 0.500733 1.88151 0
M  V30 10493 H 1012.74 -1.27656 3.66822 0
M  V30 10494 H 1014.47 -1.14908 3.88044 0
M  V30 10495 H 1011.22 0.703546 4.68345 0
M  V30 10496 H 1011.65 2.8965 6.11909 0
M  V30 10497 H 1016.29 0.753213 4.16037 0
M  V30 10498 H 1014.01 4.31375 6.83331 0
M  V30 10499 H 1017.59 2.56779 5.22069 0
M  V30 10500 H 1016.47 4.32449 6.54184 0
M  V30 10501 N 1013.98 -1.5736 0.0868897 0
M  V30 10502 C 1014.89 -2.17087 -0.889402 0
M  V30 10503 C 1015.9 -1.13809 -1.31619 0
M  V30 10504 O 1017.08 -1.46143 -1.38579 0
M  V30 10505 C 1014.14 -2.73286 -2.13344 0
M  V30 10506 C 1013.2 -3.91491 -1.76164 0
M  V30 10507 C 1012.44 -4.45 -2.94637 0
M  V30 10508 O 1012.66 -3.97467 -4.09116 0
M  V30 10509 O 1011.59 -5.36133 -2.73579 0
M  V30 10510 H 1015.42 -3.00902 -0.411275 0
M  V30 10511 H 1013.01 -1.4877 -0.137015 0
M  V30 10512 H 1014.89 -3.0924 -2.86266 0
M  V30 10513 H 1013.56 -1.92521 -2.60225 0
M  V30 10514 H 1012.47 -3.60363 -1.00447 0
M  V30 10515 H 1013.8 -4.73593 -1.34053 0
M  V30 10516 N 1015.45 0.186762 -1.56489 0
M  V30 10517 C 1016.7 0.904063 -1.80752 0
M  V30 10518 C 1017.02 1.83443 -0.661343 0
M  V30 10519 O 1016.29 1.93272 0.319811 0
M  V30 10520 H 1014.87 0.336828 -0.66675 0
M  V30 10521 H 1017.54 0.190275 -1.93969 0
M  V30 10522 H 1016.63 1.49021 -2.74225 0
M  V30 10523 N 1016.93 1.50896 0.454776 0
M  V30 10524 C 1018.18 1.62378 1.20324 0
M  V30 10525 C 1018.5 0.333883 1.9212 0
M  V30 10526 O 1017.77 -0.649477 1.8482 0
M  V30 10527 H 1016.35 0.598395 0.447139 0
M  V30 10528 H 1019.01 1.87749 0.523102 0
M  V30 10529 H 1018.11 2.44296 1.94232 0
M  V30 10530 N 1018.41 -0.709066 1.40748 0
M  V30 10531 C 1019.64 -1.50313 1.42901 0
M  V30 10532 C 1020.06 -1.88072 0.032213 0
M  V30 10533 O 1019.42 -1.53716 -0.96131 0
M  V30 10534 C 1019.47 -2.75074 2.33166 0
M  V30 10535 O 1018.57 -3.72036 1.7794 0
M  V30 10536 H 1017.91 -0.452934 0.485538 0
M  V30 10537 H 1020.44 -0.872712 1.85054 0
M  V30 10538 H 1020.45 -3.23532 2.48578 0
M  V30 10539 H 1019.13 -2.46927 3.34664 0
M  V30 10540 H 1017.7 -3.30911 1.71908 0
M  V30 10541 N 1019.89 -1.26353 -0.941956 0
M  V30 10542 C 1020.84 -1.07654 -2.06188 0
M  V30 10543 C 1021.83 -0.00369741 -1.694 0
M  V30 10544 O 1023.04 -0.160316 -1.79285 0
M  V30 10545 H 1019.41 -0.331274 -0.675101 0
M  V30 10546 H 1021.38 -2.02566 -2.19111 0
M  V30 10547 C 1020.13 -0.725436 -3.40048 0
M  V30 10548 H 1019.46 -1.54283 -3.68832 0
M  V30 10549 H 1020.9 -0.634383 -4.19227 0
M  V30 10550 C 1019.35 0.569369 -3.32054 0
M  V30 10551 O 1019.88 1.60791 -3.68116 0
M  V30 10552 N 1018.09 0.559714 -2.85159 0
M  V30 10553 H 1017.64 -0.285817 -2.56009 0
M  V30 10554 H 1017.6 1.42617 -2.80193 0
M  V30 10555 N 1021.37 1.14642 -1.08144 0
M  V30 10556 C 1022.32 2.17665 -0.678661 0
M  V30 10557 C 1023.3 1.58072 0.300336 0
M  V30 10558 O 1024.49 1.7664 0.112781 0
M  V30 10559 C 1021.62 3.43191 -0.0866362 0
M  V30 10560 C 1020.71 4.0982 -1.09126 0
M  V30 10561 N 1021.1 4.51814 -2.27372 0
M  V30 10562 C 1019.4 4.36272 -0.926411 0
M  V30 10563 C 1020.1 5.03581 -2.91172 0
M  V30 10564 N 1019.07 4.97624 -2.18795 0
M  V30 10565 H 1022.88 2.47872 -1.57914 0
M  V30 10566 H 1020.39 1.31296 -0.955772 0
M  V30 10567 H 1022.39 4.1632 0.219859 0
M  V30 10568 H 1021.05 3.14464 0.80886 0
M  V30 10569 H 1022.06 4.44941 -2.65044 0
M  V30 10570 H 1018.74 4.17414 -0.084492 0
M  V30 10571 H 1020.13 5.45969 -3.91621 0
M  V30 10572 N 1022.85 0.866709 1.31628 0
M  V30 10573 C 1024.07 0.49039 2.01004 0
M  V30 10574 C 1024.49 -0.916244 1.65077 0
M  V30 10575 O 1023.85 -1.59975 0.8783 0
M  V30 10576 C 1023.9 0.634011 3.55897 0
M  V30 10577 O 1023.62 1.98525 3.90537 0
M  V30 10578 C 1025.12 0.258277 4.42547 0
M  V30 10579 H 1022.34 0.191421 0.643117 0
M  V30 10580 H 1024.88 1.16698 1.67934 0
M  V30 10581 H 1023.04 0.00501801 3.874 0
M  V30 10582 H 1023.45 1.99067 4.85255 0
M  V30 10583 H 1024.93 0.409733 5.50477 0
M  V30 10584 H 1025.4 -0.802301 4.3181 0
M  V30 10585 H 1026.01 0.862837 4.16456 0
M  V30 10586 N 1024.32 -1.44642 0.625825 0
M  V30 10587 C 1025.55 -2.06159 0.13492 0
M  V30 10588 C 1025.96 -1.46801 -1.19357 0
M  V30 10589 O 1025.3 -0.583345 -1.74192 0
M  V30 10590 C 1025.37 -3.5945 -0.0598481 0
M  V30 10591 C 1025.03 -4.41244 1.18965 0
M  V30 10592 C 1026.03 -4.75064 2.11212 0
M  V30 10593 C 1023.71 -4.81705 1.42359 0
M  V30 10594 C 1025.71 -5.48221 3.25165 0
M  V30 10595 C 1023.39 -5.54612 2.5661 0
M  V30 10596 C 1024.39 -5.87789 3.4784 0
M  V30 10597 O 1024.08 -6.59213 4.60101 0
M  V30 10598 H 1023.81 -0.671888 0.0744464 0
M  V30 10599 H 1026.37 -1.86586 0.858775 0
M  V30 10600 H 1024.6 -3.77493 -0.838792 0
M  V30 10601 H 1026.28 -4.02751 -0.504639 0
M  V30 10602 H 1027.05 -4.44348 1.94371 0
M  V30 10603 H 1022.93 -4.55305 0.722401 0
M  V30 10604 H 1026.47 -5.74035 3.96396 0
M  V30 10605 H 1022.37 -5.84743 2.73396 0
M  V30 10606 H 1023.14 -6.77678 4.59015 0
M  V30 10607 N 1025.8 -0.366053 -1.5329 0
M  V30 10608 C 1027.03 0.224236 -2.05681 0
M  V30 10609 C 1027.44 1.42412 -1.23952 0
M  V30 10610 O 1026.8 1.80334 -0.280309 0
M  V30 10611 C 1026.85 0.617266 -3.56191 0
M  V30 10612 O 1026.57 -0.534931 -4.34822 0
M  V30 10613 C 1028.07 1.26589 -4.24841 0
M  V30 10614 H 1025.29 0.0392928 -0.669849 0
M  V30 10615 H 1027.84 -0.52456 -1.97658 0
M  V30 10616 H 1025.99 1.31598 -3.64364 0
M  V30 10617 H 1026.41 -0.217123 -5.2405 0
M  V30 10618 H 1027.88 1.49146 -5.31469 0
M  V30 10619 H 1028.36 2.22633 -3.78591 0
M  V30 10620 H 1028.96 0.6086 -4.20923 0
M  V30 10621 N 1027.28 1.57312 -0.0952337 0
M  V30 10622 C 1028.53 1.94646 0.569284 0
M  V30 10623 C 1028.86 0.977152 1.67825 0
M  V30 10624 O 1028.13 0.0102318 1.94497 0
M  V30 10625 C 1028.42 3.42098 1.12433 0
M  V30 10626 C 1028.27 4.49795 0.0204016 0
M  V30 10627 C 1029.59 3.90866 2.02266 0
M  V30 10628 H 1026.71 0.707779 0.205469 0
M  V30 10629 H 1029.35 1.89274 -0.16597 0
M  V30 10630 H 1027.5 3.46807 1.75092 0
M  V30 10631 H 1029.17 4.57198 -0.613845 0
M  V30 10632 H 1027.41 4.28964 -0.645965 0
M  V30 10633 H 1028.09 5.50166 0.449579 0
M  V30 10634 H 1030.56 3.88311 1.49512 0
M  V30 10635 H 1029.44 4.94604 2.38029 0
M  V30 10636 H 1029.7 3.30167 2.9401 0
M  V30 10637 N 1028.76 -0.17846 1.56586 0
M  V30 10638 C 1030.17 -0.741599 1.71339 0
M  V30 10639 C 1030.52 -1.83112 0.704579 0
M  V30 10640 O 1029.64 -2.15975 -0.135557 0
M  V30 10641 C 1030.24 -1.35198 3.10656 0
M  V30 10642 C 1028.8 -1.86202 3.27118 0
M  V30 10643 C 1027.95 -0.738255 2.67292 0
M  V30 10644 H 1030.9 0.0468424 1.58631 0
M  V30 10645 H 1030.92 -2.2216 3.0891 0
M  V30 10646 H 1030.43 -0.558776 3.84056 0
M  V30 10647 H 1028.53 -2.68188 2.58661 0
M  V30 10648 H 1028.64 -2.01237 4.34788 0
M  V30 10649 H 1027.01 -1.15686 2.26912 0
M  V30 10650 H 1027.79 0.0429821 3.43273 0
M  V30 10651 N 1030.24 -1.51135 -0.446768 0
M  V30 10652 C 1031.46 -1.67411 -1.22427 0
M  V30 10653 C 1031.89 -0.367009 -1.84485 0
M  V30 10654 O 1031.24 0.67185 -1.68392 0
M  V30 10655 C 1031.29 -2.78473 -2.29096 0
M  V30 10656 O 1030.4 -2.41419 -3.34351 0
M  V30 10657 H 1029.74 -0.558512 -0.359111 0
M  V30 10658 H 1032.27 -1.97648 -0.5288 0
M  V30 10659 H 1032.28 -3.02277 -2.7403 0
M  V30 10660 H 1030.95 -3.73326 -1.83304 0
M  V30 10661 H 1029.53 -2.28152 -2.9496 0
M  V30 10662 N 1031.71 0.701592 -1.41122 0
M  V30 10663 C 1032.94 1.49553 -1.43696 0
M  V30 10664 C 1033.36 1.88053 -0.0421865 0
M  V30 10665 O 1032.72 1.54223 0.953144 0
M  V30 10666 C 1032.77 2.73834 -2.34622 0
M  V30 10667 O 1031.87 3.71088 -1.7991 0
M  V30 10668 H 1031.21 0.450352 -0.487933 0
M  V30 10669 H 1033.74 0.862886 -1.85514 0
M  V30 10670 H 1033.75 3.22209 -2.5029 0
M  V30 10671 H 1032.43 2.45149 -3.35969 0
M  V30 10672 H 1031.01 3.29994 -1.73661 0
M  V30 10673 N 1033.19 1.2685 0.935242 0
M  V30 10674 C 1034.42 1.15645 1.72165 0
M  V30 10675 C 1034.84 -0.283909 1.85945 0
M  V30 10676 O 1034.2 -1.20567 1.354 0
M  V30 10677 C 1034.25 1.83689 3.10307 0
M  V30 10678 O 1033.35 1.12972 3.96625 0
M  V30 10679 H 1032.69 0.402629 0.528002 0
M  V30 10680 H 1035.22 1.67781 1.17093 0
M  V30 10681 H 1035.23 1.90749 3.60664 0
M  V30 10682 H 1033.91 2.88472 2.99595 0
M  V30 10683 H 1032.48 1.13929 3.5507 0
M  V30 10684 N 1034.67 -1.14067 1.0875 0
M  V30 10685 C 1035.9 -1.89041 0.840902 0
M  V30 10686 C 1036.31 -1.78768 -0.60725 0
M  V30 10687 O 1035.67 -1.14945 -1.41753 0
M  V30 10688 C 1035.72 -3.38891 1.25838 0
M  V30 10689 O 1035.44 -3.48886 2.64972 0
M  V30 10690 C 1036.94 -4.30852 1.04315 0
M  V30 10691 H 1034.16 -0.598685 0.303014 0
M  V30 10692 H 1036.71 -1.44438 1.44769 0
M  V30 10693 H 1034.86 -3.81103 0.695627 0
M  V30 10694 H 1035.28 -4.41989 2.82393 0
M  V30 10695 H 1036.75 -5.34353 1.38461 0
M  V30 10696 H 1037.23 -4.39196 -0.0195784 0
M  V30 10697 H 1037.83 -3.944 1.59151 0
M  V30 10698 N 1036.15 -0.873678 -1.31166 0
M  V30 10699 C 1037.4 -0.485497 -1.96182 0
M  V30 10700 C 1037.72 0.96621 -1.69379 0
M  V30 10701 O 1036.99 1.67783 -1.01121 0
M  V30 10702 H 1035.57 -0.176547 -0.725838 0
M  V30 10703 H 1038.23 -1.11428 -1.59906 0
M  V30 10704 H 1037.33 -0.646325 -3.05334 0
M  V30 10705 N 1037.63 1.44308 -0.633487 0
M  V30 10706 C 1038.85 2.06384 -0.146063 0
M  V30 10707 C 1039.27 1.47357 1.18031 0
M  V30 10708 O 1038.63 0.597334 1.72448 0
M  V30 10709 C 1038.68 3.61489 -0.0276722 0
M  V30 10710 O 1038.4 4.18318 -1.3016 0
M  V30 10711 C 1039.9 4.40604 0.488168 0
M  V30 10712 H 1037.12 0.666122 -0.0807632 0
M  V30 10713 H 1039.66 1.85139 -0.868557 0
M  V30 10714 H 1037.82 3.81988 0.645273 0
M  V30 10715 H 1038.23 5.11783 -1.14797 0
M  V30 10716 H 1039.71 5.49545 0.520013 0
M  V30 10717 H 1040.18 4.12218 1.51568 0
M  V30 10718 H 1040.79 4.2503 -0.151608 0
M  V30 10719 N 1039.1 0.374177 1.53094 0
M  V30 10720 C 1040.35 -0.213131 2.01677 0
M  V30 10721 C 1040.68 -1.47715 1.26071 0
M  V30 10722 O 1039.96 -1.91199 0.356834 0
M  V30 10723 C 1040.24 -0.496392 3.56662 0
M  V30 10724 C 1040.09 0.781859 4.42953 0
M  V30 10725 C 1041.41 -1.29339 4.20666 0
M  V30 10726 H 1038.53 -0.0759885 0.733072 0
M  V30 10727 H 1041.17 0.500765 1.83282 0
M  V30 10728 H 1039.32 -1.10455 3.72467 0
M  V30 10729 H 1041 1.41914 4.38928 0
M  V30 10730 H 1039.24 1.40041 4.10574 0
M  V30 10731 H 1039.91 0.538508 5.49367 0
M  V30 10732 H 1042.39 -0.778848 4.08746 0
M  V30 10733 H 1041.26 -1.46033 5.29118 0
M  V30 10734 H 1041.52 -2.30435 3.77296 0
M  V30 10735 N 1040.58 -1.57259 0.103575 0
M  V30 10736 C 1041.83 -1.93832 -0.55786 0
M  V30 10737 C 1042.14 -0.988087 -1.68808 0
M  V30 10738 O 1043.35 -1.24786 -2.41124 0
M  V30 10739 C 1041.81 -3.44433 -1.04373 0
M  V30 10740 C 1041.41 -4.47963 0.0571971 0
M  V30 10741 C 1043.16 -3.89953 -1.67742 0
M  V30 10742 C 1041.07 -5.89727 -0.444505 0
M  V30 10743 H 1040 -0.723536 -0.212161 0
M  V30 10744 H 1042.65 -1.82606 0.180944 0
M  V30 10745 H 1041.03 -3.50841 -1.83648 0
M  V30 10746 H 1042.2 -4.53209 0.83298 0
M  V30 10747 H 1040.52 -4.12104 0.596588 0
M  V30 10748 H 1043.11 -4.93272 -2.06365 0
M  V30 10749 H 1043.46 -3.2907 -2.54988 0
M  V30 10750 H 1043.99 -3.86281 -0.950342 0
M  V30 10751 H 1040.73 -6.5433 0.391543 0
M  V30 10752 H 1040.25 -5.87935 -1.18711 0
M  V30 10753 H 1041.93 -6.40558 -0.910739 0
M  V30 10754 N 1042.06 0.170153 -1.56679 0
M  V30 10755 C 1043.31 0.887906 -1.8233 0
M  V30 10756 C 1043.64 1.81845 -0.681608 0
M  V30 10757 O 1042.91 1.9191 0.316362 0
M  V30 10758 C 1043.2 1.68256 -3.18374 0
M  V30 10759 C 1043.05 0.775059 -4.43072 0
M  V30 10760 C 1044.37 2.65001 -3.51372 0
M  V30 10761 H 1041.49 0.32135 -0.663252 0
M  V30 10762 H 1044.13 0.154065 -1.89374 0
M  V30 10763 H 1042.28 2.30817 -3.12499 0
M  V30 10764 H 1043.95 0.162234 -4.61015 0
M  V30 10765 H 1042.2 0.0831809 -4.3372 0
M  V30 10766 H 1042.87 1.36661 -5.34816 0
M  V30 10767 H 1045.34 2.12566 -3.57708 0
M  V30 10768 H 1044.22 3.17667 -4.47637 0
M  V30 10769 H 1044.48 3.45255 -2.76136 0
M  V30 10770 N 1043.54 1.5137 0.438746 0
M  V30 10771 C 1044.49 1.73154 1.55308 0
M  V30 10772 C 1045.48 0.597825 1.58501 0
M  V30 10773 O 1046.69 0.77917 1.62262 0
M  V30 10774 H 1043.06 0.547083 0.51595 0
M  V30 10775 H 1045.03 2.66566 1.34108 0
M  V30 10776 C 1043.78 1.87242 2.92977 0
M  V30 10777 H 1043.1 2.73884 2.91252 0
M  V30 10778 H 1044.54 2.06497 3.70317 0
M  V30 10779 C 1043 0.631887 3.30921 0
M  V30 10780 O 1043.53 -0.214099 4.01129 0
M  V30 10781 N 1041.74 0.47639 2.86669 0
M  V30 10782 H 1041.29 1.16589 2.29706 0
M  V30 10783 H 1041.24 -0.352403 3.12419 0
M  V30 10784 N 1045.02 -0.694098 1.41492 0
M  V30 10785 C 1046.26 -1.45493 1.42138 0
M  V30 10786 C 1046.62 -1.92376 0.0302688 0
M  V30 10787 O 1045.91 -1.66723 -0.944142 0
M  V30 10788 C 1046.1 -2.6805 2.36398 0
M  V30 10789 C 1045.93 -2.33157 3.84536 0
M  V30 10790 C 1044.7 -2.2345 4.53209 0
M  V30 10791 C 1046.9 -1.96037 4.75473 0
M  V30 10792 N 1044.88 -1.81457 5.8647 0
M  V30 10793 C 1046.25 -1.64814 5.97693 0
M  V30 10794 C 1048.31 -1.8286 4.63106 0
M  V30 10795 C 1047.01 -1.21738 7.08923 0
M  V30 10796 C 1049.04 -1.41188 5.74299 0
M  V30 10797 C 1048.4 -1.10877 6.95619 0
M  V30 10798 H 1044.5 -0.529635 0.575335 0
M  V30 10799 H 1047.08 -0.802901 1.77374 0
M  V30 10800 H 1045.25 -3.30972 2.03254 0
M  V30 10801 H 1046.99 -3.34531 2.27753 0
M  V30 10802 H 1043.74 -2.41894 4.07166 0
M  V30 10803 H 1044.17 -1.62938 6.571 0
M  V30 10804 H 1048.81 -2.04947 3.69806 0
M  V30 10805 H 1046.53 -0.983947 8.02087 0
M  V30 10806 H 1050.11 -1.3154 5.66735 0
M  V30 10807 H 1048.99 -0.791191 7.80199 0
M  V30 10808 N 1046.49 -1.27344 -0.928501 0
M  V30 10809 C 1047.43 -1.05797 -2.03322 0
M  V30 10810 C 1048.44 -0.0143086 -1.62794 0
M  V30 10811 O 1049.63 -0.25578 -1.76658 0
M  V30 10812 C 1046.73 -0.582673 -3.33853 0
M  V30 10813 C 1045.9 -1.69844 -4.03078 0
M  V30 10814 C 1044.96 -1.21902 -5.11885 0
M  V30 10815 O 1043.99 -1.91853 -5.35893 0
M  V30 10816 N 1045.19 -0.0742392 -5.80453 0
M  V30 10817 H 1047.95 -2.00928 -2.22369 0
M  V30 10818 H 1045.51 -1.189 -1.09883 0
M  V30 10819 H 1047.51 -0.245862 -4.03952 0
M  V30 10820 H 1046.08 0.27539 -3.11385 0
M  V30 10821 H 1045.3 -2.20557 -3.26723 0
M  V30 10822 H 1046.58 -2.4473 -4.46077 0
M  V30 10823 H 1045.98 0.509631 -5.634 0
M  V30 10824 H 1044.54 0.203399 -6.51483 0
M  V30 10825 N 1047.97 1.13488 -1.09353 0
M  V30 10826 C 1048.9 2.18563 -0.69012 0
M  V30 10827 C 1049.92 1.60585 0.267651 0
M  V30 10828 O 1051.11 1.78419 0.0538176 0
M  V30 10829 C 1048.21 3.389 0.00391255 0
M  V30 10830 C 1047.38 4.2639 -0.975209 0
M  V30 10831 C 1046.44 5.25258 -0.314719 0
M  V30 10832 O 1045.46 5.6101 -0.962119 0
M  V30 10833 N 1046.67 5.72978 0.931458 0
M  V30 10834 H 1049.43 2.53788 -1.59411 0
M  V30 10835 H 1046.99 1.28803 -0.980886 0
M  V30 10836 H 1048.98 4.02112 0.45696 0
M  V30 10837 H 1047.55 3.0192 0.81014 0
M  V30 10838 H 1046.77 3.59964 -1.60684 0
M  V30 10839 H 1048.06 4.817 -1.63836 0
M  V30 10840 H 1047.46 5.46078 1.477 0
M  V30 10841 H 1046.02 6.38131 1.32784 0
M  V30 10842 O 1049.49 1.01379 1.25716 0
M  V30 10843 H 1050.18 0.672632 1.81646 0
M  V30 END ATOM
M  V30 BEGIN BOND
M  V30 END BOND
M  V30 END CTAB
M  END
$$$$
