drugbank_target|P16184 Dihydrofolate reductase (DB02026; DB02427; DB02559; DB03461; DB03987)
 OpenBabel12092119563D

  0  0  0     0  0            999 V3000
M  V30 BEGIN CTAB
M  V30 COUNTS 3379 3421 0 0 0
M  V30 BEGIN ATOM
M  V30 1 H -0.908 1.98254 -0.117106 0
M  V30 2 N 0 1.576 0 0
M  V30 3 C 0.933 2.03868 1.02534 0
M  V30 4 C 1.911 0.928543 1.3348 0
M  V30 5 O 3.095 1.19667 1.45644 0
M  V30 6 C 0.222 2.43627 2.35294 0
M  V30 7 C -0.732 3.65373 2.2001 0
M  V30 8 S 0.101 5.13292 1.52614 0
M  V30 9 C 1.257 5.56322 2.86805 0
M  V30 10 H 1.49 2.90518 0.631377 0
M  V30 11 H -0.977 1.52953 0.210867 0
M  V30 12 H 0.981 2.67203 3.11629 0
M  V30 13 H -0.358 1.57376 2.7183 0
M  V30 14 H -1.165 3.90944 3.18086 0
M  V30 15 H -1.563 3.418 1.51819 0
M  V30 16 H 0.729 5.58782 3.83104 0
M  V30 17 H 1.672 6.56266 2.65933 0
M  V30 18 H 2.08 4.83886 2.90714 0
M  V30 19 N 1.4781 -0.272755 1.55222 0
M  V30 20 C 2.4261 -1.35705 1.88909 0
M  V30 21 C 3.4201 -1.5112 0.765456 0
M  V30 22 O 4.6261 -1.52901 0.949802 0
M  V30 23 H 1.0011 -0.453868 0.59959 0
M  V30 24 H 2.9721 -1.04544 2.79487 0
M  V30 25 C 1.7211 -2.71049 2.17779 0
M  V30 26 H 1.0441 -2.59979 3.03728 0
M  V30 27 H 2.4841 -3.45858 2.45272 0
M  V30 28 C 0.9431 -3.22165 0.985473 0
M  V30 29 O 1.4731 -4.01096 0.220233 0
M  V30 30 N -0.3209 -2.7985 0.783108 0
M  V30 31 H -0.7739 -2.15775 1.40708 0
M  V30 32 H -0.8159 -3.14397 -0.0130392 0
M  V30 33 N 2.9562 -1.48159 -0.537278 0
M  V30 34 C 3.8882 -1.58218 -1.65831 0
M  V30 35 C 4.9012 -0.466948 -1.5596 0
M  V30 36 O 6.0902 -0.73747 -1.62553 0
M  V30 37 C 3.1902 -1.48906 -3.04434 0
M  V30 38 C 2.3632 -2.75343 -3.3986 0
M  V30 39 C 1.4222 -2.59588 -4.57712 0
M  V30 40 O 0.4482 -3.33457 -4.61297 0
M  V30 41 N 1.6502 -1.68724 -5.55439 0
M  V30 42 H 4.4152 -2.54891 -1.57641 0
M  V30 43 H 1.9762 -1.4479 -0.724386 0
M  V30 44 H 3.9682 -1.36072 -3.81139 0
M  V30 45 H 2.5382 -0.602368 -3.06741 0
M  V30 46 H 1.7582 -3.02795 -2.52406 0
M  V30 47 H 3.0462 -3.5924 -3.60311 0
M  V30 48 H 2.4442 -1.07898 -5.55315 0
M  V30 49 H 1.0012 -1.61832 -6.3139 0
M  V30 50 N 4.4343 0.785586 -1.36625 0
M  V30 51 C 5.3663 1.90711 -1.2713 0
M  V30 52 C 6.3793 1.61688 -0.189986 0
M  V30 53 O 7.5683 1.72864 -0.445014 0
M  V30 54 C 4.6683 3.25611 -0.939713 0
M  V30 55 C 3.8413 3.82385 -2.12369 0
M  V30 56 C 2.9003 4.95732 -1.76456 0
M  V30 57 O 1.9263 5.12047 -2.48589 0
M  V30 58 N 3.1283 5.76258 -0.700492 0
M  V30 59 H 5.8933 1.99376 -2.23762 0
M  V30 60 H 3.4543 0.964041 -1.30069 0
M  V30 61 H 5.4463 3.98937 -0.680554 0
M  V30 62 H 4.0163 3.12538 -0.0624074 0
M  V30 63 H 3.2363 3.01001 -2.54543 0
M  V30 64 H 4.5243 4.17047 -2.9146 0
M  V30 65 H 3.9223 5.65609 -0.101624 0
M  V30 66 H 2.4793 6.4987 -0.501165 0
M  V30 67 N 5.9124 1.20967 1.01018 0
M  V30 68 C 6.8594 0.964281 2.09691 0
M  V30 69 C 7.8294 -0.107853 1.65749 0
M  V30 70 O 9.0144 0.0381987 1.90762 0
M  V30 71 C 6.1544 0.52943 3.41015 0
M  V30 72 C 5.2674 1.67043 3.98398 0
M  V30 73 C 4.4024 1.18525 5.17808 0
M  V30 74 C 3.4414 2.29892 5.67288 0
M  V30 75 N 2.5784 1.82546 6.77954 0
M  V30 76 H 7.4184 1.89463 2.30017 0
M  V30 77 H 4.9554 0.944289 1.1279 0
M  V30 78 H 6.9134 0.258588 4.16398 0
M  V30 79 H 5.5434 -0.363919 3.20742 0
M  V30 80 H 4.5954 2.05603 3.20049 0
M  V30 81 H 5.9074 2.50877 4.31117 0
M  V30 82 H 5.0614 0.870762 6.00419 0
M  V30 83 H 3.8004 0.316887 4.86669 0
M  V30 84 H 2.8054 2.6215 4.83278 0
M  V30 85 H 4.0304 3.17216 6.00459 0
M  V30 86 H 1.9764 0.980454 6.48632 0
M  V30 87 H 1.8934 2.59956 7.09901 0
M  V30 88 H 3.1614 1.54115 7.64113 0
M  V30 89 N 7.3905 -1.2043 1.01659 0
M  V30 90 C 8.6155 -1.94318 0.724942 0
M  V30 91 C 9.0405 -1.74266 -0.708034 0
M  V30 92 O 8.3985 -1.03694 -1.48719 0
M  V30 93 C 8.4465 -3.44486 1.06591 0
M  V30 94 O 7.5505 -4.12017 0.177599 0
M  V30 95 H 6.8915 -0.60708 0.26898 0
M  V30 96 H 9.4215 -1.52861 1.35995 0
M  V30 97 H 9.4315 -3.95106 1.01762 0
M  V30 98 H 8.1065 -3.58404 2.10997 0
M  V30 99 H 6.6835 -3.71821 0.283421 0
M  V30 100 N 8.8686 -0.792821 -1.36206 0
M  V30 101 C 9.7986 -0.207853 -2.32573 0
M  V30 102 C 10.7796 0.659055 -1.56813 0
M  V30 103 O 11.9646 0.592176 -1.84951 0
M  V30 104 C 9.0946 0.655449 -3.41059 0
M  V30 105 C 8.0486 -0.111842 -4.27854 0
M  V30 106 C 7.3746 0.872274 -5.27537 0
M  V30 107 C 8.6746 -1.30299 -5.05786 0
M  V30 108 H 10.3686 -1.01294 -2.81744 0
M  V30 109 H 7.9146 -0.48854 -1.3546 0
M  V30 110 H 9.8676 1.07464 -4.07467 0
M  V30 111 H 8.5916 1.49328 -2.90463 0
M  V30 112 H 7.2506 -0.512053 -3.63006 0
M  V30 113 H 6.8986 1.70523 -4.73214 0
M  V30 114 H 6.5986 0.363291 -5.86476 0
M  V30 115 H 8.1226 1.28996 -5.96818 0
M  V30 116 H 9.5366 -0.959379 -5.65216 0
M  V30 117 H 7.9336 -1.7455 -5.74154 0
M  V30 118 H 9.0036 -2.09663 -4.37229 0
M  V30 119 N 10.3467 1.47872 -0.545128 0
M  V30 120 C 11.5747 2.06889 -0.021084 0
M  V30 121 C 11.9897 1.39955 1.2672 0
M  V30 122 O 11.3467 0.492036 1.75742 0
M  V30 123 C 11.3977 3.60996 0.190817 0
M  V30 124 O 11.1187 4.25419 -1.04644 0
M  V30 125 C 12.6197 4.36849 0.753521 0
M  V30 126 H 9.8397 0.669785 -0.0403635 0
M  V30 127 H 12.3837 1.90049 -0.755095 0
M  V30 128 H 10.5387 3.77391 0.87492 0
M  V30 129 H 10.9527 5.17785 -0.836611 0
M  V30 130 H 12.4267 5.45399 0.851139 0
M  V30 131 H 12.9037 4.02306 1.762 0
M  V30 132 H 13.5097 4.25169 0.105503 0
M  V30 133 N 11.8248 0.280983 1.55075 0
M  V30 134 C 12.7548 -0.597469 2.25727 0
M  V30 135 C 13.7358 -1.15417 1.24952 0
M  V30 136 O 14.9208 -1.18722 1.53684 0
M  V30 137 C 12.0508 -1.7789 2.98283 0
M  V30 138 C 11.0048 -1.35347 4.06036 0
M  V30 139 C 10.3308 -2.61846 4.66198 0
M  V30 140 C 11.6308 -0.499354 5.19907 0
M  V30 141 H 13.3248 -0.00824265 2.99399 0
M  V30 142 H 10.8708 -0.0025244 1.44 0
M  V30 143 H 12.8238 -2.39937 3.46422 0
M  V30 144 H 11.5478 -2.39405 2.22155 0
M  V30 145 H 10.2068 -0.756156 3.58717 0
M  V30 146 H 9.8548 -3.21632 3.86732 0
M  V30 147 H 9.5548 -2.3409 5.38958 0
M  V30 148 H 11.0788 -3.24732 5.1709 0
M  V30 149 H 12.4928 -1.02498 5.64063 0
M  V30 150 H 10.8898 -0.316424 5.99265 0
M  V30 151 H 11.9598 0.480459 4.82514 0
M  V30 152 N 13.3029 -1.57598 0.00835791 0
M  V30 153 C 14.5519 -1.90107 -0.673968 0
M  V30 154 C 14.8649 -0.884275 -1.7447 0
M  V30 155 O 16.0709 -1.09987 -2.48224 0
M  V30 156 C 14.5269 -3.37497 -1.24995 0
M  V30 157 C 14.1349 -4.47491 -0.2136 0
M  V30 158 C 15.8789 -3.79104 -1.90999 0
M  V30 159 C 13.7859 -5.85963 -0.80005 0
M  V30 160 H 12.7159 -0.709393 -0.255495 0
M  V30 161 H 15.3669 -1.83365 0.0702693 0
M  V30 162 H 13.7489 -3.39102 -2.04513 0
M  V30 163 H 14.9229 -4.57414 0.557596 0
M  V30 164 H 13.2379 -4.14956 0.346474 0
M  V30 165 H 15.8349 -4.79901 -2.35795 0
M  V30 166 H 16.1779 -3.1306 -2.74407 0
M  V30 167 H 16.7109 -3.79833 -1.18203 0
M  V30 168 H 13.4499 -6.555 -0.00456708 0
M  V30 169 H 12.9699 -5.79687 -1.54021 0
M  V30 170 H 14.6489 -6.33884 -1.29615 0
M  V30 171 N 14.781 0.264519 -1.55364 0
M  V30 172 C 16.027 0.99646 -1.76631 0
M  V30 173 C 16.36 1.85632 -0.570478 0
M  V30 174 O 15.635 1.89647 0.43175 0
M  V30 175 C 15.918 1.87187 -3.07625 0
M  V30 176 C 15.771 1.04138 -4.37579 0
M  V30 177 C 17.09 2.85749 -3.34717 0
M  V30 178 H 14.209 0.360841 -0.642622 0
M  V30 179 H 16.851 0.268218 -1.88097 0
M  V30 180 H 15.001 2.49279 -2.9798 0
M  V30 181 H 16.673 0.440517 -4.59192 0
M  V30 182 H 14.916 0.345115 -4.32425 0
M  V30 183 H 15.587 1.68729 -5.2558 0
M  V30 184 H 18.063 2.33793 -3.4421 0
M  V30 185 H 16.939 3.44136 -4.27623 0
M  V30 186 H 17.2 3.61311 -2.54768 0
M  V30 187 N 16.2591 1.48442 0.529413 0
M  V30 188 C 17.2221 1.62524 1.61612 0
M  V30 189 C 18.2221 0.498509 1.52877 0
M  V30 190 O 19.4121 0.76431 1.56537 0
M  V30 191 C 16.5441 1.59597 3.01233 0
M  V30 192 H 17.7371 2.59423 1.50465 0
M  V30 193 H 15.2901 1.37047 0.751514 0
M  V30 194 H 16.0251 0.641781 3.17886 0
M  V30 195 H 15.8101 2.41397 3.08982 0
M  V30 196 H 17.3001 1.72646 3.80241 0
M  V30 197 N 17.7372 -0.778329 1.37039 0
M  V30 198 C 18.6672 -1.90546 1.34962 0
M  V30 199 C 19.6482 -1.68681 0.219274 0
M  V30 200 O 20.8332 -1.89634 0.418624 0
M  V30 201 C 17.9632 -3.27734 1.14925 0
M  V30 202 C 16.9172 -3.64147 2.24902 0
M  V30 203 C 16.2432 -4.99806 1.89996 0
M  V30 204 C 17.5432 -3.71579 3.67051 0
M  V30 205 H 19.2372 -1.92541 2.29277 0
M  V30 206 H 16.7832 -0.924948 1.10366 0
M  V30 207 H 18.7362 -4.06215 1.12104 0
M  V30 208 H 17.4602 -3.26154 0.170631 0
M  V30 209 H 16.1192 -2.8797 2.26868 0
M  V30 210 H 15.7672 -4.94759 0.906796 0
M  V30 211 H 15.4672 -5.25139 2.63634 0
M  V30 212 H 16.9912 -5.80694 1.88749 0
M  V30 213 H 18.4052 -4.40227 3.67251 0
M  V30 214 H 16.8022 -4.08405 4.39688 0
M  V30 215 H 17.8722 -2.72404 4.01154 0
M  V30 216 N 19.2153 -1.21501 -1.00376 0
M  V30 217 C 20.4433 -1.059 -1.77744 0
M  V30 218 C 20.8583 0.391125 -1.84704 0
M  V30 219 O 20.2153 1.27133 -1.30933 0
M  V30 220 C 20.2663 -1.65111 -3.21591 0
M  V30 221 O 19.9873 -3.0445 -3.15027 0
M  V30 222 C 21.4883 -1.54637 -4.15454 0
M  V30 223 H 18.7083 -0.371825 -0.558558 0
M  V30 224 H 21.2523 -1.60865 -1.26264 0
M  V30 225 H 19.4073 -1.14235 -3.70175 0
M  V30 226 H 19.8213 -3.3278 -4.0541 0
M  V30 227 H 21.2953 -2.00808 -5.14179 0
M  V30 228 H 21.7723 -0.501022 -4.36333 0
M  V30 229 H 22.3783 -2.04767 -3.72761 0
M  V30 230 N 20.6934 1.19889 -1.02296 0
M  V30 231 C 21.9214 1.9339 -0.735399 0
M  V30 232 C 22.3364 1.75148 0.704887 0
M  V30 233 O 21.6934 1.06954 1.47875 0
M  V30 234 C 21.7444 3.45313 -1.06962 0
M  V30 235 O 21.4654 3.62964 -2.45334 0
M  V30 236 C 22.9664 4.35948 -0.804021 0
M  V30 237 H 20.1864 0.61448 -0.269546 0
M  V30 238 H 22.7304 1.522 -1.36585 0
M  V30 239 H 20.8854 3.84359 -0.484455 0
M  V30 240 H 21.2994 4.56886 -2.57595 0
M  V30 241 H 22.7734 5.41174 -1.0879 0
M  V30 242 H 23.2504 4.3842 0.261691 0
M  V30 243 H 23.8564 4.02574 -1.37164 0
M  V30 244 N 22.1715 0.800033 1.35784 0
M  V30 245 C 23.3965 0.388511 2.03729 0
M  V30 246 C 23.8215 -0.990481 1.5991 0
M  V30 247 O 23.1795 -1.64013 0.772612 0
M  V30 248 C 23.2275 0.4726 3.5749 0
M  V30 249 O 22.3315 -0.51646 4.09153 0
M  V30 250 H 21.6725 0.163271 0.643614 0
M  V30 251 H 24.2025 1.0841 1.73518 0
M  V30 252 H 24.2125 0.34003 4.06581 0
M  V30 253 H 22.8875 1.47848 3.88734 0
M  V30 254 H 21.4645 -0.344673 3.71304 0
M  V30 255 N 23.6496 -1.47581 0.552962 0
M  V30 256 C 24.8796 -2.06575 0.0320091 0
M  V30 257 C 25.2876 -1.4067 -1.26525 0
M  V30 258 O 24.6306 -0.495808 -1.76883 0
M  V30 259 C 24.6926 -3.58705 -0.238913 0
M  V30 260 C 24.3566 -4.46625 0.968272 0
M  V30 261 C 25.3536 -4.85 1.87274 0
M  V30 262 C 23.0386 -4.88201 1.18175 0
M  V30 263 C 25.0326 -5.63745 2.9744 0
M  V30 264 C 22.7196 -5.66712 2.28651 0
M  V30 265 C 23.7176 -6.04394 3.18114 0
M  V30 266 O 23.4056 -6.81324 4.26676 0
M  V30 267 H 23.1376 -0.674763 0.0408689 0
M  V30 268 H 25.6916 -1.90634 0.764719 0
M  V30 269 H 23.9216 -3.72844 -1.02588 0
M  V30 270 H 25.6106 -3.99735 -0.704731 0
M  V30 271 H 26.3766 -4.53482 1.71984 0
M  V30 272 H 22.2556 -4.58339 0.494593 0
M  V30 273 H 25.7996 -5.93077 3.67296 0
M  V30 274 H 21.6966 -5.97642 2.43915 0
M  V30 275 H 22.4646 -6.99712 4.24671 0
M  V30 276 N 25.1277 -0.289203 -1.54924 0
M  V30 277 C 26.3757 0.322879 -1.99504 0
M  V30 278 C 26.6967 1.55313 -1.1791 0
M  V30 279 O 25.9667 1.94001 -0.272097 0
M  V30 280 H 24.5467 0.122291 -0.736922 0
M  V30 281 H 27.2087 -0.397802 -1.90797 0
M  V30 282 H 26.3047 0.603061 -3.06218 0
M  V30 283 N 26.6058 1.57591 -0.0167156 0
M  V30 284 C 27.8548 1.90461 0.663877 0
M  V30 285 C 28.1678 0.893515 1.73999 0
M  V30 286 O 29.3738 1.11302 2.47637 0
M  V30 287 C 27.8298 3.38155 1.23204 0
M  V30 288 C 27.4378 4.47597 0.189866 0
M  V30 289 C 29.1818 3.80111 1.88986 0
M  V30 290 C 27.0888 5.86379 0.768964 0
M  V30 291 H 26.0188 0.710738 0.251729 0
M  V30 292 H 28.6698 1.83326 -0.0799926 0
M  V30 293 H 27.0518 3.40182 2.02712 0
M  V30 294 H 28.2258 4.57112 -0.581846 0
M  V30 295 H 26.5408 4.14766 -0.368475 0
M  V30 296 H 29.1378 4.81145 2.33247 0
M  V30 297 H 29.4808 3.14511 2.72743 0
M  V30 298 H 30.0138 3.80454 1.16187 0
M  V30 299 H 26.7528 6.55493 -0.0301957 0
M  V30 300 H 26.2728 5.80496 1.50945 0
M  V30 301 H 27.9518 6.34563 1.26251 0
M  V30 302 N 28.0839 -0.256276 1.55502 0
M  V30 303 C 29.3319 -0.983672 1.76545 0
M  V30 304 C 29.6529 -1.86206 0.578982 0
M  V30 305 O 28.9229 -1.91656 -0.405577 0
M  V30 306 H 27.5029 -0.366191 0.651086 0
M  V30 307 H 30.1649 -0.276479 1.92929 0
M  V30 308 H 29.2609 -1.61087 2.67315 0
M  V30 309 N 29.562 -1.4872 -0.521534 0
M  V30 310 C 30.978 -1.35028 -0.850855 0
M  V30 311 C 31.178 -0.367712 -1.98116 0
M  V30 312 O 30.234 0.208037 -2.51642 0
M  V30 313 C 31.547 -2.75263 -1.21041 0
M  V30 314 C 33.095 -2.83813 -1.31981 0
M  V30 315 C 33.57 -4.24769 -1.71276 0
M  V30 316 N 35.061 -4.27482 -1.78363 0
M  V30 317 C 35.796 -5.33494 -2.1017 0
M  V30 318 N 35.292 -6.49775 -2.40343 0
M  V30 319 N 37.085 -5.20894 -2.11248 0
M  V30 320 H 29.236 -2.11214 0.22413 0
M  V30 321 H 31.499 -0.947252 0.0376439 0
M  V30 322 H 31.205 -3.48765 -0.453415 0
M  V30 323 H 31.079 -3.09327 -2.15863 0
M  V30 324 H 33.466 -2.10561 -2.06756 0
M  V30 325 H 33.547 -2.53358 -0.352596 0
M  V30 326 H 33.191 -4.9854 -0.970588 0
M  V30 327 H 33.121 -4.52673 -2.69062 0
M  V30 328 H 35.612 -3.43611 -1.57288 0
M  V30 329 H 35.925 -7.26402 -2.63743 0
M  V30 330 H 34.27 -6.53035 -2.37844 0
M  V30 331 H 37.461 -4.29065 -1.87139 0
M  V30 332 H 37.634 -6.03612 -2.35704 0
M  V30 333 N 31.0401 0.771051 -1.3745 0
M  V30 334 C 32.2651 1.56529 -1.36065 0
M  V30 335 C 32.6901 1.88029 0.0515859 0
M  V30 336 O 32.0481 1.49282 1.02882 0
M  V30 337 C 32.0961 2.85187 -2.20683 0
M  V30 338 O 31.2001 3.79593 -1.61193 0
M  V30 339 H 30.5411 0.47411 -0.464883 0
M  V30 340 H 33.0711 0.954269 -1.80983 0
M  V30 341 H 33.0811 3.34283 -2.33921 0
M  V30 342 H 31.7561 2.61588 -3.23334 0
M  V30 343 H 30.3331 3.38239 -1.56999 0
M  V30 344 N 32.5182 1.22032 0.997298 0
M  V30 345 C 33.4662 0.983634 2.10778 0
M  V30 346 C 34.4602 -0.0717564 1.69248 0
M  V30 347 O 35.6662 0.080304 1.79821 0
M  V30 348 H 32.0412 0.300877 0.689186 0
M  V30 349 H 34.0122 1.92606 2.27916 0
M  V30 350 C 32.7612 0.57326 3.42942 0
M  V30 351 H 32.0842 1.37702 3.75338 0
M  V30 352 H 33.5242 0.447031 4.21637 0
M  V30 353 C 31.9832 -0.7167 3.29188 0
M  V30 354 O 32.5132 -1.77027 3.60589 0
M  V30 355 N 30.7192 -0.686167 2.82383 0
M  V30 356 H 30.2662 0.171507 2.57028 0
M  V30 357 H 30.2242 -1.54955 2.73562 0
M  V30 358 N 33.9963 -1.19345 1.0293 0
M  V30 359 C 35.2213 -1.93538 0.745511 0
M  V30 360 C 35.6463 -1.75007 -0.689511 0
M  V30 361 O 35.0043 -1.05265 -1.47611 0
M  V30 362 C 35.0523 -3.43336 1.10239 0
M  V30 363 O 34.1563 -4.11806 0.221289 0
M  V30 364 H 33.4973 -0.604193 0.275404 0
M  V30 365 H 36.0273 -1.5141 1.37609 0
M  V30 366 H 36.0373 -3.94004 1.05947 0
M  V30 367 H 34.7123 -3.56146 2.14786 0
M  V30 368 H 33.2893 -3.715 0.322842 0
M  V30 369 N 35.4744 -0.807222 -1.35358 0
M  V30 370 C 36.4044 -0.232509 -2.3234 0
M  V30 371 C 37.3854 0.642386 -1.57504 0
M  V30 372 O 38.5704 0.572526 -1.85569 0
M  V30 373 C 35.7004 0.619238 -3.41735 0
M  V30 374 C 34.6544 -0.157215 -4.27711 0
M  V30 375 C 33.9804 0.816273 -5.28433 0
M  V30 376 C 35.2804 -1.35656 -5.04376 0
M  V30 377 H 36.9744 -1.04276 -2.80654 0
M  V30 378 H 34.5204 -0.50288 -1.34934 0
M  V30 379 H 36.4734 1.03137 -4.08584 0
M  V30 380 H 35.1974 1.46239 -2.92031 0
M  V30 381 H 33.8564 -0.550525 -3.62443 0
M  V30 382 H 33.5044 1.65494 -4.74996 0
M  V30 383 H 33.2044 0.301067 -5.86828 0
M  V30 384 H 34.7284 1.22659 -5.98153 0
M  V30 385 H 36.1424 -1.01927 -5.64166 0
M  V30 386 H 34.5394 -1.8063 -5.7227 0
M  V30 387 H 35.6094 -2.14288 -4.34981 0
M  V30 388 N 36.9525 1.47285 -0.560781 0
M  V30 389 C 38.3635 1.86258 -0.128343 0
M  V30 390 C 38.7145 1.46699 1.30284 0
M  V30 391 O 37.8395 0.871698 1.98067 0
M  V30 392 C 38.4345 3.38044 -0.22614 0
M  V30 393 C 36.9935 3.76096 0.151283 0
M  V30 394 C 36.1405 2.71335 -0.572084 0
M  V30 395 H 39.0915 1.38752 -0.770297 0
M  V30 396 H 39.1125 3.76441 0.554322 0
M  V30 397 H 38.6245 3.66806 -1.26788 0
M  V30 398 H 36.7255 3.52951 1.19399 0
M  V30 399 H 36.8385 4.78641 -0.209765 0
M  V30 400 H 35.2025 2.54696 -0.0147653 0
M  V30 401 H 35.9855 3.02938 -1.61504 0
M  V30 402 N 38.4306 0.297415 1.54768 0
M  V30 403 C 39.6766 -0.306263 2.01081 0
M  V30 404 C 40.0316 -1.518 1.18214 0
M  V30 405 O 39.3246 -1.89967 0.249613 0
M  V30 406 C 39.5186 -0.717561 3.50123 0
M  V30 407 C 39.3476 0.45277 4.47415 0
M  V30 408 C 38.1176 0.943651 4.9641 0
M  V30 409 C 40.3156 1.29657 4.97688 0
M  V30 410 N 38.2976 2.08112 5.77549 0
M  V30 411 C 39.6686 2.28158 5.76493 0
M  V30 412 C 41.7236 1.32735 4.79881 0
M  V30 413 C 40.4266 3.29509 6.39387 0
M  V30 414 C 42.4526 2.32943 5.43591 0
M  V30 415 C 41.8146 3.30174 6.22225 0
M  V30 416 H 37.9136 -0.0766274 0.778237 0
M  V30 417 H 40.4976 0.426515 1.89971 0
M  V30 418 H 38.6686 -1.41952 3.6153 0
M  V30 419 H 40.4006 -1.30047 3.83236 0
M  V30 420 H 37.1556 0.51922 4.70745 0
M  V30 421 H 37.5796 2.65414 6.22803 0
M  V30 422 H 42.2216 0.589375 4.18672 0
M  V30 423 H 39.9396 4.04228 6.99732 0
M  V30 424 H 43.5256 2.36094 5.31743 0
M  V30 425 H 42.4056 4.06445 6.7065 0
M  V30 426 N 39.9087 -1.5758 0.0250728 0
M  V30 427 C 40.8557 -2.09973 -0.958129 0
M  V30 428 C 41.8257 -1.00085 -1.3256 0
M  V30 429 O 43.0107 -1.27481 -1.41962 0
M  V30 430 C 40.1507 -2.62812 -2.2366 0
M  V30 431 C 39.2637 -3.86693 -1.92594 0
M  V30 432 C 38.3987 -4.27941 -3.14707 0
M  V30 433 C 37.4377 -5.44591 -2.79442 0
M  V30 434 N 36.5747 -5.81014 -3.94167 0
M  V30 435 H 41.4147 -2.937 -0.504428 0
M  V30 436 H 38.9517 -1.45172 -0.237392 0
M  V30 437 H 40.9097 -2.91536 -2.98434 0
M  V30 438 H 39.5397 -1.81922 -2.66654 0
M  V30 439 H 38.5917 -3.64723 -1.0808 0
M  V30 440 H 39.9037 -4.71547 -1.62619 0
M  V30 441 H 39.0577 -4.58079 -3.97804 0
M  V30 442 H 37.7967 -3.41845 -3.4784 0
M  V30 443 H 36.8017 -5.1415 -1.94755 0
M  V30 444 H 38.0267 -6.32382 -2.47528 0
M  V30 445 H 35.9727 -4.97874 -4.2715 0
M  V30 446 H 35.8897 -6.60498 -3.67801 0
M  V30 447 H 37.1577 -6.15756 -4.7798 0
M  V30 448 N 41.3868 0.248026 -1.55636 0
M  V30 449 C 42.3168 1.31079 -1.93237 0
M  V30 450 C 43.2978 1.50264 -0.797174 0
M  V30 451 O 44.4828 1.62891 -1.05737 0
M  V30 452 C 41.6128 2.66575 -2.22609 0
M  V30 453 C 40.5668 2.62087 -3.3837 0
M  V30 454 C 39.8928 4.01369 -3.53281 0
M  V30 455 C 41.1928 2.19171 -4.7409 0
M  V30 456 H 42.8868 0.998556 -2.82257 0
M  V30 457 H 40.4328 0.47891 -1.35803 0
M  V30 458 H 42.3858 3.41057 -2.47503 0
M  V30 459 H 41.1098 2.99432 -1.30414 0
M  V30 460 H 39.7688 1.90063 -3.13483 0
M  V30 461 H 39.4168 4.31489 -2.58508 0
M  V30 462 H 39.1168 3.99254 -4.31127 0
M  V30 463 H 40.6408 4.77552 -3.80495 0
M  V30 464 H 42.0548 2.83384 -4.98363 0
M  V30 465 H 40.4518 2.2817 -5.5503 0
M  V30 466 H 41.5218 1.14336 -4.71227 0
M  V30 467 N 42.8649 1.48995 0.513639 0
M  V30 468 C 43.8119 1.6473 1.61656 0
M  V30 469 C 44.7819 0.488984 1.58739 0
M  V30 470 O 45.9669 0.714478 1.76918 0
M  V30 471 C 43.1069 1.7082 2.99858 0
M  V30 472 C 42.2199 2.9787 3.12885 0
M  V30 473 C 41.3549 2.95017 4.41744 0
M  V30 474 C 40.3939 4.16702 4.48359 0
M  V30 475 N 39.5309 4.11832 5.68629 0
M  V30 476 H 44.3709 2.58909 1.47547 0
M  V30 477 H 41.9079 1.28382 0.71808 0
M  V30 478 H 43.8659 1.72331 3.79944 0
M  V30 479 H 42.4959 0.801181 3.12699 0
M  V30 480 H 41.5479 3.06029 2.25944 0
M  V30 481 H 42.8599 3.8786 3.13633 0
M  V30 482 H 42.0139 2.95021 5.30139 0
M  V30 483 H 40.7529 2.02784 4.43542 0
M  V30 484 H 39.7579 4.16955 3.58369 0
M  V30 485 H 40.9829 5.10113 4.48287 0
M  V30 486 H 38.9289 3.22428 5.71293 0
M  V30 487 H 38.8459 4.95543 5.7094 0
M  V30 488 H 40.1139 4.1592 6.59266 0
M  V30 489 N 44.343 -0.763751 1.37857 0
M  V30 490 C 45.29 -1.87726 1.34267 0
M  V30 491 C 46.26 -1.64807 0.206879 0
M  V30 492 O 47.445 -1.86613 0.397508 0
M  V30 493 C 44.585 -3.24896 1.16346 0
M  V30 494 C 43.698 -3.59716 2.39225 0
M  V30 495 C 42.833 -4.86137 2.14114 0
M  V30 496 C 41.872 -5.13711 3.32817 0
M  V30 497 N 41.009 -6.31323 3.07206 0
M  V30 498 H 45.849 -1.90129 2.29466 0
M  V30 499 H 43.386 -0.929433 1.14017 0
M  V30 500 H 45.344 -4.04036 1.03975 0
M  V30 501 H 43.974 -3.21847 0.247909 0
M  V30 502 H 43.026 -2.75498 2.62307 0
M  V30 503 H 44.338 -3.76027 3.27728 0
M  V30 504 H 43.492 -5.73198 1.9882 0
M  V30 505 H 42.231 -4.71945 1.22961 0
M  V30 506 H 41.236 -4.25123 3.48641 0
M  V30 507 H 42.461 -5.29807 4.24832 0
M  V30 508 H 40.407 -6.18474 2.1869 0
M  V30 509 H 40.324 -6.48087 3.89254 0
M  V30 510 H 41.592 -7.213 2.95546 0
M  V30 511 N 45.8211 -1.22559 -0.990812 0
M  V30 512 C 46.7311 -1.01394 -2.11557 0
M  V30 513 C 47.7471 0.0383962 -1.73958 0
M  V30 514 O 48.9231 -0.154787 -2.00804 0
M  V30 515 C 45.9881 -0.596569 -3.41529 0
M  V30 516 C 45.0491 -1.72276 -3.93217 0
M  V30 517 C 44.2821 -1.32521 -5.16985 0
M  V30 518 O 44.5051 -0.204909 -5.70032 0
M  V30 519 O 43.4391 -2.14247 -5.62478 0
M  V30 520 H 47.2651 -1.95633 -2.32296 0
M  V30 521 H 44.8501 -1.01172 -1.0993 0
M  V30 522 H 46.7321 -0.374263 -4.19735 0
M  V30 523 H 45.4071 0.316939 -3.22145 0
M  V30 524 H 44.3141 -1.99961 -3.16174 0
M  V30 525 H 45.6471 -2.61421 -4.17037 0
M  V30 526 N 47.2992 1.18797 -1.03562 0
M  V30 527 C 48.5482 1.87978 -0.731235 0
M  V30 528 C 48.8612 1.80911 0.743671 0
M  V30 529 O 50.0672 2.45407 1.16137 0
M  V30 530 C 48.5232 3.3721 -1.25768 0
M  V30 531 C 48.1312 3.52818 -2.76085 0
M  V30 532 C 49.8752 4.11825 -1.0296 0
M  V30 533 C 47.7822 4.9598 -3.22114 0
M  V30 534 H 46.7122 0.704063 -0.269835 0
M  V30 535 H 49.3632 1.34266 -1.25079 0
M  V30 536 H 47.7452 3.90359 -0.666011 0
M  V30 537 H 48.9192 3.09965 -3.40966 0
M  V30 538 H 47.2342 2.91602 -2.97249 0
M  V30 539 H 49.8312 5.17411 -1.34869 0
M  V30 540 H 50.1742 4.16287 0.0333546 0
M  V30 541 H 50.7072 3.64833 -1.58562 0
M  V30 542 H 47.4462 4.96684 -4.27768 0
M  V30 543 H 46.9662 5.39569 -2.61965 0
M  V30 544 H 48.6452 5.6467 -3.15844 0
M  V30 545 N 48.7773 0.814389 1.34928 0
M  V30 546 C 50.0023 0.410097 2.03305 0
M  V30 547 C 50.4273 -0.973464 1.60951 0
M  V30 548 O 49.7853 -1.63185 0.789964 0
M  V30 549 C 49.8333 0.51049 3.56968 0
M  V30 550 O 48.9373 -0.473035 4.09678 0
M  V30 551 H 48.2783 0.170088 0.641846 0
M  V30 552 H 50.8083 1.10244 1.72358 0
M  V30 553 H 50.8183 0.383135 4.06197 0
M  V30 554 H 49.4933 1.51963 3.87144 0
M  V30 555 H 48.0703 -0.305272 3.71648 0
M  V30 556 N 50.2554 -1.46986 0.568584 0
M  V30 557 C 51.4854 -2.0653 0.0539173 0
M  V30 558 C 51.8934 -1.42004 -1.25026 0
M  V30 559 O 51.2364 -0.514541 -1.76347 0
M  V30 560 C 51.2984 -3.58938 -0.200854 0
M  V30 561 C 50.9624 -4.45572 1.01559 0
M  V30 562 C 51.9594 -4.82986 1.92407 0
M  V30 563 C 49.6444 -4.8692 1.23346 0
M  V30 564 C 51.6384 -5.60559 3.03402 0
M  V30 565 C 49.3254 -5.64255 2.34649 0
M  V30 566 C 50.3234 -6.00986 3.24507 0
M  V30 567 O 50.0114 -6.76761 4.33878 0
M  V30 568 H 49.7434 -0.674292 0.0480234 0
M  V30 569 H 52.2974 -1.89812 0.784896 0
M  V30 570 H 50.5274 -3.73911 -0.986279 0
M  V30 571 H 52.2164 -4.0046 -0.662294 0
M  V30 572 H 52.9824 -4.51633 1.76785 0
M  V30 573 H 48.8614 -4.57789 0.543178 0
M  V30 574 H 52.4054 -5.89147 3.73565 0
M  V30 575 H 48.3024 -5.95021 2.5024 0
M  V30 576 H 49.0704 -6.95168 4.32068 0
M  V30 577 N 51.7335 -0.305618 -1.54608 0
M  V30 578 C 52.9805 0.302298 -2.00231 0
M  V30 579 C 53.3085 1.5354 -1.19398 0
M  V30 580 O 52.5635 1.93973 -0.259423 0
M  V30 581 C 52.8625 0.698983 -3.50498 0
M  V30 582 C 52.5285 -0.432903 -4.48817 0
M  V30 583 C 51.1905 -0.743622 -4.75419 0
M  V30 584 C 53.5425 -1.19409 -5.07337 0
M  V30 585 C 50.8705 -1.81857 -5.57804 0
M  V30 586 C 53.2225 -2.25899 -5.90891 0
M  V30 587 C 51.8865 -2.57572 -6.15803 0
M  V30 588 H 51.1565 0.110619 -0.732697 0
M  V30 589 H 53.8035 -0.425674 -1.86709 0
M  V30 590 H 52.1085 1.50711 -3.61654 0
M  V30 591 H 53.8055 1.1806 -3.83227 0
M  V30 592 H 50.3955 -0.18063 -4.28219 0
M  V30 593 H 54.5795 -0.967295 -4.86782 0
M  V30 594 H 49.8355 -2.06864 -5.75341 0
M  V30 595 H 54.0095 -2.85335 -6.35261 0
M  V30 596 H 51.6365 -3.40998 -6.7943 0
M  V30 597 N 53.2116 1.57565 -0.0334293 0
M  V30 598 C 54.1586 2.10478 0.946981 0
M  V30 599 C 55.1286 1.00787 1.32027 0
M  V30 600 O 56.3136 1.28232 1.41284 0
M  V30 601 C 53.4536 2.63994 2.22263 0
M  V30 602 C 52.5666 3.87709 1.90541 0
M  V30 603 C 51.7016 4.29604 3.12433 0
M  V30 604 C 50.7406 5.46065 2.76549 0
M  V30 605 N 49.8776 5.83096 3.9108 0
M  V30 606 H 54.7176 2.93963 0.488846 0
M  V30 607 H 52.2546 1.45296 0.22969 0
M  V30 608 H 54.2126 2.93114 2.96884 0
M  V30 609 H 52.8426 1.83333 2.65685 0
M  V30 610 H 51.8946 3.65291 1.06144 0
M  V30 611 H 53.2066 4.72403 1.60116 0
M  V30 612 H 52.3606 4.60182 3.9537 0
M  V30 613 H 51.0996 3.43685 3.46023 0
M  V30 614 H 50.1046 5.15176 1.92026 0
M  V30 615 H 51.3296 6.33685 2.44171 0
M  V30 616 H 49.2756 5.00132 4.24504 0
M  V30 617 H 49.1926 6.6244 3.64293 0
M  V30 618 H 50.4606 6.18282 4.74708 0
M  V30 619 N 54.6897 -0.239769 1.55765 0
M  V30 620 C 56.1057 -0.588624 1.48349 0
M  V30 621 C 56.3057 -1.88005 0.72502 0
M  V30 622 O 55.3617 -2.51186 0.257269 0
M  V30 623 C 56.6747 -0.68474 2.928 0
M  V30 624 C 58.2227 -0.77659 3.03213 0
M  V30 625 C 58.6977 -0.904207 4.48986 0
M  V30 626 N 60.1887 -0.968896 4.52953 0
M  V30 627 C 60.9237 -1.08703 5.63002 0
M  V30 628 N 60.4197 -1.17026 6.82845 0
M  V30 629 N 62.2127 -1.12074 5.50814 0
M  V30 630 H 54.3637 0.607911 2.03515 0
M  V30 631 H 56.6267 0.21083 0.924259 0
M  V30 632 H 56.3327 0.194284 3.51163 0
M  V30 633 H 56.2067 -1.55435 3.43686 0
M  V30 634 H 58.5937 -1.64606 2.44926 0
M  V30 635 H 58.6747 0.118315 2.55526 0
M  V30 636 H 58.3187 -0.0392633 5.07885 0
M  V30 637 H 58.2487 -1.81426 4.9436 0
M  V30 638 H 60.7397 -0.915633 3.6664 0
M  V30 639 H 61.0527 -1.25966 7.62465 0
M  V30 640 H 59.3977 -1.13971 6.85591 0
M  V30 641 H 62.5887 -1.05226 4.5612 0
M  V30 642 H 62.7617 -1.20936 6.36615 0
M  V30 643 N 56.1678 -1.49265 -0.50573 0
M  V30 644 C 57.4138 -1.58748 -1.26202 0
M  V30 645 C 57.7468 -0.271227 -1.92297 0
M  V30 646 O 57.0218 0.724831 -1.80489 0
M  V30 647 C 57.3048 -2.74332 -2.33268 0
M  V30 648 C 57.1578 -4.15737 -1.71705 0
M  V30 649 C 58.4768 -2.85576 -3.34865 0
M  V30 650 H 55.5958 -0.577826 -0.457478 0
M  V30 651 H 58.2378 -1.81532 -0.560897 0
M  V30 652 H 56.3878 -2.55036 -2.93068 0
M  V30 653 H 58.0598 -4.46537 -1.15769 0
M  V30 654 H 56.3028 -4.21605 -1.02135 0
M  V30 655 H 56.9738 -4.92477 -2.49341 0
M  V30 656 H 59.4498 -3.03127 -2.8505 0
M  V30 657 H 58.3258 -3.68135 -4.07146 0
M  V30 658 H 58.5868 -1.94732 -3.96903 0
M  V30 659 N 57.6459 0.756429 -1.3826 0
M  V30 660 C 58.8739 1.54565 -1.3754 0
M  V30 661 C 59.2889 1.88767 0.0355331 0
M  V30 662 O 58.6459 1.52572 1.0014 0
M  V30 663 C 58.6969 2.84654 -2.22833 0
M  V30 664 O 58.4179 2.51912 -3.5843 0
M  V30 665 C 59.9189 3.78807 -2.30261 0
M  V30 666 H 57.1389 0.478353 -0.470553 0
M  V30 667 H 59.6829 0.936381 -1.81803 0
M  V30 668 H 57.8379 3.41965 -1.8204 0
M  V30 669 H 58.2519 3.35325 -4.03308 0
M  V30 670 H 59.7259 4.67045 -2.94233 0
M  V30 671 H 60.2029 4.19038 -1.31545 0
M  V30 672 H 60.8089 3.2742 -2.71433 0
M  V30 673 N 59.124 1.23083 0.984299 0
M  V30 674 C 60.349 1.088 1.76571 0
M  V30 675 C 60.774 -0.356657 1.84688 0
M  V30 676 O 60.132 -1.25788 1.30565 0
M  V30 677 C 60.18 1.71371 3.17277 0
M  V30 678 O 59.284 0.973213 4.00752 0
M  V30 679 H 58.625 0.381599 0.543395 0
M  V30 680 H 61.155 1.63057 1.23587 0
M  V30 681 H 61.165 1.76449 3.67872 0
M  V30 682 H 59.84 2.76493 3.10684 0
M  V30 683 H 58.417 0.999078 3.59267 0
M  V30 684 N 60.6021 -1.18246 1.0419 0
M  V30 685 C 61.8491 -1.88257 0.746017 0
M  V30 686 C 62.1771 -1.80429 -0.726331 0
M  V30 687 O 61.4321 -1.2 -1.54591 0
M  V30 688 C 61.7311 -3.38082 1.15911 0
M  V30 689 C 61.3971 -3.66114 2.63195 0
M  V30 690 C 60.0591 -3.73474 3.03432 0
M  V30 691 C 62.4111 -3.78398 3.5842 0
M  V30 692 C 59.7391 -3.90599 4.37778 0
M  V30 693 C 62.0911 -3.97039 4.92487 0
M  V30 694 C 60.7551 -4.02635 5.32392 0
M  V30 695 H 60.0251 -0.688883 0.272987 0
M  V30 696 H 62.6721 -1.3995 1.30715 0
M  V30 697 H 60.9771 -3.88377 0.516806 0
M  V30 698 H 62.6741 -3.90596 0.907516 0
M  V30 699 H 59.2641 -3.61003 2.3103 0
M  V30 700 H 63.4481 -3.72042 3.28479 0
M  V30 701 H 58.7041 -3.93175 4.68213 0
M  V30 702 H 62.8781 -4.05486 5.66175 0
M  V30 703 H 60.5051 -4.15657 6.36501 0
M  V30 704 N 62.0802 -0.821533 -1.34494 0
M  V30 705 C 63.3262 -0.409552 -1.98622 0
M  V30 706 C 63.6592 1.0244 -1.64984 0
M  V30 707 O 62.9342 1.71325 -0.920758 0
M  V30 708 C 63.2172 -0.610458 -3.54888 0
M  V30 709 C 63.0702 -2.09043 -3.98273 0
M  V30 710 C 64.3892 -0.0455379 -4.40076 0
M  V30 711 H 61.5082 -0.15028 -0.721516 0
M  V30 712 H 64.1502 -1.03384 -1.59411 0
M  V30 713 H 62.3002 -0.079044 -3.8842 0
M  V30 714 H 63.9722 -2.68537 -3.75081 0
M  V30 715 H 62.2152 -2.58139 -3.48635 0
M  V30 716 H 62.8862 -2.18182 -5.07051 0
M  V30 717 H 65.3622 -0.499557 -4.1309 0
M  V30 718 H 64.2382 -0.215922 -5.48475 0
M  V30 719 H 64.4992 1.04939 -4.29465 0
M  V30 720 N 63.5583 1.46682 -0.576371 0
M  V30 721 C 64.9693 1.86112 -0.148091 0
M  V30 722 C 65.3203 1.48073 1.2872 0
M  V30 723 O 64.4453 0.892656 1.97131 0
M  V30 724 C 65.0403 3.37786 -0.261982 0
M  V30 725 C 63.5993 3.76235 0.111384 0
M  V30 726 C 62.7463 2.70713 -0.60083 0
M  V30 727 H 65.6973 1.37927 -0.78497 0
M  V30 728 H 65.7183 3.77007 0.514364 0
M  V30 729 H 65.2303 3.6544 -1.30671 0
M  V30 730 H 63.3313 3.54198 1.15649 0
M  V30 731 H 63.4443 4.78391 -0.26052 0
M  V30 732 H 61.8083 2.54666 -0.0417783 0
M  V30 733 H 62.5913 3.01208 -1.64708 0
M  V30 734 N 65.0364 0.313813 1.54444 0
M  V30 735 C 66.2644 -0.293918 2.04802 0
M  V30 736 C 66.6794 -1.46537 1.19047 0
M  V30 737 O 66.0364 -1.81182 0.218939 0
M  V30 738 C 66.0874 -0.737806 3.53891 0
M  V30 739 O 65.8084 0.387038 4.36387 0
M  V30 740 C 67.3094 -1.40936 4.203 0
M  V30 741 H 64.5294 -0.0620057 0.668129 0
M  V30 742 H 67.0734 0.457169 1.99324 0
M  V30 743 H 65.2284 -1.43889 3.59687 0
M  V30 744 H 65.6424 0.0391274 5.24485 0
M  V30 745 H 67.1164 -1.67099 5.26101 0
M  V30 746 H 67.5934 -2.35355 3.70816 0
M  V30 747 H 68.1994 -0.751117 4.18615 0
M  V30 748 N 66.5145 -1.57545 0.0417849 0
M  V30 749 C 67.7615 -1.92317 -0.634082 0
M  V30 750 C 68.0895 -0.919334 -1.71402 0
M  V30 751 O 67.3445 0.0698253 -1.95575 0
M  V30 752 C 67.6435 -3.33794 -1.27735 0
M  V30 753 C 67.3095 -4.49716 -0.326543 0
M  V30 754 C 65.9715 -4.81156 -0.0648814 0
M  V30 755 C 68.3235 -5.20182 0.325623 0
M  V30 756 C 65.6515 -5.80414 0.856539 0
M  V30 757 C 68.0035 -6.20424 1.23518 0
M  V30 758 C 66.6675 -6.50298 1.5056 0
M  V30 759 H 65.9375 -0.703736 -0.232027 0
M  V30 760 H 68.5845 -1.91205 0.106259 0
M  V30 761 H 66.8895 -3.31228 -2.09274 0
M  V30 762 H 68.5865 -3.57975 -1.80707 0
M  V30 763 H 65.1765 -4.25176 -0.540665 0
M  V30 764 H 69.3605 -4.96112 0.136546 0
M  V30 765 H 64.6165 -6.019 1.07363 0
M  V30 766 H 68.7905 -6.74141 1.74664 0
M  V30 767 H 66.4175 -7.27025 2.22123 0
M  V30 768 N 67.9926 0.231505 -1.5589 0
M  V30 769 C 69.2696 0.981096 -1.69215 0
M  V30 770 C 69.6496 2.02799 -0.586164 0
M  V30 771 O 68.9976 2.24823 0.408253 0
M  V30 772 C 69.2076 1.60054 -3.10135 0
M  V30 773 C 70.5556 2.09658 -3.69227 0
M  V30 774 O 71.5796 1.69967 -3.13033 0
M  V30 775 O 70.4386 2.8258 -4.67772 0
M  V30 776 H 67.5326 0.457653 -0.688827 0
M  V30 777 H 70.0786 0.224073 -1.68214 0
M  V30 778 H 68.8506 0.844105 -3.82087 0
M  V30 779 H 68.4736 2.42336 -3.15212 0
M  V30 780 N 69.4707 1.49531 0.497807 0
M  V30 781 C 70.6957 1.63159 1.28039 0
M  V30 782 C 71.1207 0.30418 1.85624 0
M  V30 783 O 70.4787 -0.728618 1.66015 0
M  V30 784 C 70.5267 2.70537 2.38416 0
M  V30 785 O 69.6307 2.29931 3.42353 0
M  V30 786 H 68.9717 0.546001 0.377861 0
M  V30 787 H 71.5017 1.9574 0.59558 0
M  V30 788 H 71.5117 2.92802 2.84132 0
M  V30 789 H 70.1867 3.6689 1.95869 0
M  V30 790 H 68.7637 2.18009 3.02533 0
M  V30 791 N 70.9488 -0.749086 1.3866 0
M  V30 792 C 72.1958 -1.50833 1.35114 0
M  V30 793 C 72.5238 -1.94415 -0.0574049 0
M  V30 794 O 71.7788 -1.66065 -1.03541 0
M  V30 795 C 72.0778 -2.7712 2.25697 0
M  V30 796 C 71.7438 -2.52477 3.73585 0
M  V30 797 C 70.4058 -2.45466 4.13884 0
M  V30 798 C 72.7578 -2.31066 4.67181 0
M  V30 799 C 70.0858 -2.15064 5.45861 0
M  V30 800 C 72.4378 -2.02183 5.9942 0
M  V30 801 C 71.1018 -1.93631 6.38798 0
M  V30 802 H 70.3718 -0.551936 0.494416 0
M  V30 803 H 73.0188 -0.860979 1.71054 0
M  V30 804 H 71.3238 -3.46528 1.82827 0
M  V30 805 H 73.0208 -3.35096 2.20254 0
M  V30 806 H 69.6108 -2.58807 3.41638 0
M  V30 807 H 73.7948 -2.35459 4.3689 0
M  V30 808 H 69.0508 -2.06954 5.75308 0
M  V30 809 H 73.2248 -1.8462 6.71482 0
M  V30 810 H 70.8518 -1.69839 7.40985 0
M  V30 811 N 72.4269 -1.23603 -0.977757 0
M  V30 812 C 73.3369 -1.03632 -2.1047 0
M  V30 813 C 74.3529 0.0199435 -1.73989 0
M  V30 814 O 75.5289 -0.176076 -2.00629 0
M  V30 815 C 72.5939 -0.63276 -3.40877 0
M  V30 816 C 71.6549 -1.76437 -3.91367 0
M  V30 817 C 70.8879 -1.37997 -5.15551 0
M  V30 818 O 71.1109 -0.265357 -5.69782 0
M  V30 819 O 70.0449 -2.20201 -5.60174 0
M  V30 820 H 73.8709 -1.98086 -2.30208 0
M  V30 821 H 71.4559 -1.02332 -1.08851 0
M  V30 822 H 73.3379 -0.418761 -4.19314 0
M  V30 823 H 72.0129 0.282754 -3.22463 0
M  V30 824 H 70.9199 -2.03304 -3.14036 0
M  V30 825 H 72.2529 -2.6583 -4.14241 0
M  V30 826 N 73.905 1.17692 -1.04816 0
M  V30 827 C 75.13 1.92327 -0.776207 0
M  V30 828 C 75.555 1.76082 0.661581 0
M  V30 829 O 74.913 1.076 1.45917 0
M  V30 830 C 74.961 3.41539 -1.15687 0
M  V30 831 O 74.065 4.11402 -0.286775 0
M  V30 832 H 73.406 0.599735 -0.284981 0
M  V30 833 H 75.936 1.49201 -1.4 0
M  V30 834 H 75.946 3.92269 -1.12202 0
M  V30 835 H 74.621 3.52684 -2.20425 0
M  V30 836 H 73.198 3.70939 -0.381903 0
M  V30 837 N 75.3831 0.828654 1.34056 0
M  V30 838 C 76.3161 0.199763 2.27324 0
M  V30 839 C 77.2941 -0.647168 1.49166 0
M  V30 840 O 78.4781 -0.609661 1.78369 0
M  V30 841 C 75.6051 -0.720455 3.30949 0
M  V30 842 C 74.6511 0.0496888 4.26471 0
M  V30 843 S 75.4841 1.40072 5.16856 0
M  V30 844 C 76.6401 0.485527 6.24014 0
M  V30 845 H 76.8731 0.990478 2.80316 0
M  V30 846 H 74.4061 0.624857 1.41191 0
M  V30 847 H 76.3641 -1.24581 3.91139 0
M  V30 848 H 75.0251 -1.48474 2.76793 0
M  V30 849 H 74.2181 -0.650104 4.9979 0
M  V30 850 H 73.8201 0.505779 3.70564 0
M  V30 851 H 76.1121 -0.320672 6.76741 0
M  V30 852 H 77.0551 1.18856 6.98054 0
M  V30 853 H 77.4631 0.0714109 5.64455 0
M  V30 854 N 76.8612 -1.46375 0.584142 0
M  V30 855 C 77.8092 -2.32042 -0.161047 0
M  V30 856 C 78.8032 -1.44569 -0.882966 0
M  V30 857 O 80.0092 -1.61186 -0.801191 0
M  V30 858 H 76.3842 -0.748659 -0.0708033 0
M  V30 859 H 78.3552 -2.92704 0.580269 0
M  V30 860 C 77.1042 -3.27762 -1.1605 0
M  V30 861 H 76.4272 -3.95051 -0.614419 0
M  V30 862 H 77.8672 -3.90481 -1.65228 0
M  V30 863 C 76.3262 -2.53218 -2.22221 0
M  V30 864 O 76.8562 -2.29628 -3.29597 0
M  V30 865 N 75.0622 -2.13756 -1.96868 0
M  V30 866 H 74.6092 -2.33142 -1.09557 0
M  V30 867 H 74.5672 -1.642 -2.68115 0
M  V30 868 N 78.3393 -0.321999 -1.54275 0
M  V30 869 C 79.5853 0.281461 -2.00837 0
M  V30 870 C 79.9183 1.51909 -1.20985 0
M  V30 871 O 79.1933 1.923 -0.291733 0
M  V30 872 C 79.4763 0.617162 -3.54772 0
M  V30 873 C 79.3293 -0.631064 -4.45351 0
M  V30 874 C 80.6483 1.43542 -4.16033 0
M  V30 875 H 77.7673 0.100826 -0.730071 0
M  V30 876 H 80.4093 -0.438268 -1.84876 0
M  V30 877 H 78.5593 1.23034 -3.68504 0
M  V30 878 H 80.2313 -1.26934 -4.43492 0
M  V30 879 H 78.4743 -1.26025 -4.15091 0
M  V30 880 H 79.1453 -0.351735 -5.50878 0
M  V30 881 H 81.6213 0.917134 -4.05867 0
M  V30 882 H 80.4973 1.63907 -5.23856 0
M  V30 883 H 80.7583 2.43108 -3.69257 0
M  V30 884 N 79.8174 1.5752 -0.0501392 0
M  V30 885 C 81.0634 1.92936 0.624798 0
M  V30 886 C 81.3964 0.928685 1.70555 0
M  V30 887 O 80.6714 -0.0454779 1.94447 0
M  V30 888 C 80.9544 3.38737 1.22185 0
M  V30 889 C 80.8074 4.49552 0.149218 0
M  V30 890 C 82.1264 3.84913 2.13378 0
M  V30 891 H 79.2454 0.701604 0.225657 0
M  V30 892 H 81.8874 1.89671 -0.111693 0
M  V30 893 H 80.0374 3.4165 1.84953 0
M  V30 894 H 81.7094 4.58768 -0.482648 0
M  V30 895 H 79.9524 4.30638 -0.522841 0
M  V30 896 H 80.6234 5.48653 0.606966 0
M  V30 897 H 83.0994 3.8387 1.60572 0
M  V30 898 H 81.9754 4.87584 2.52097 0
M  V30 899 H 82.2364 3.21611 3.03346 0
M  V30 900 N 81.2955 -0.223234 1.56011 0
M  V30 901 C 82.2255 -1.27988 1.95298 0
M  V30 902 C 83.2065 -1.48976 0.820979 0
M  V30 903 O 84.3915 -1.61188 1.08315 0
M  V30 904 C 81.5215 -2.63 2.26822 0
M  V30 905 C 80.4755 -2.56671 3.42497 0
M  V30 906 C 79.8015 -3.95697 3.59622 0
M  V30 907 C 81.1015 -2.11601 4.77517 0
M  V30 908 H 82.7955 -0.953525 2.8381 0
M  V30 909 H 80.3415 -0.457244 1.36548 0
M  V30 910 H 82.2945 -3.37077 2.52898 0
M  V30 911 H 81.0185 -2.9732 1.35161 0
M  V30 912 H 79.6775 -1.85051 3.16467 0
M  V30 913 H 79.3255 -4.27322 2.6534 0
M  V30 914 H 79.0255 -3.92345 4.37424 0
M  V30 915 H 80.5495 -4.71438 3.88044 0
M  V30 916 H 81.9635 -2.7542 5.02809 0
M  V30 917 H 80.3605 -2.19311 5.5859 0
M  V30 918 H 81.4305 -1.06824 4.72987 0
M  V30 919 N 82.7736 -1.49793 -0.48987 0
M  V30 920 C 83.7066 -1.61898 -1.60823 0
M  V30 921 C 84.6846 -0.467651 -1.5573 0
M  V30 922 O 85.8686 -0.684682 -1.75626 0
M  V30 923 C 82.9956 -1.58422 -2.99366 0
M  V30 924 C 82.0416 -2.78889 -3.22682 0
M  V30 925 S 82.8746 -4.40429 -3.04602 0
M  V30 926 C 84.0306 -4.39617 -4.4552 0
M  V30 927 H 84.2636 -2.56502 -1.50312 0
M  V30 928 H 81.7966 -1.38822 -0.675849 0
M  V30 929 H 83.7546 -1.57103 -3.79248 0
M  V30 930 H 82.4156 -0.650866 -3.07283 0
M  V30 931 H 81.6086 -2.72708 -4.23847 0
M  V30 932 H 81.2106 -2.77678 -2.50541 0
M  V30 933 H 83.5026 -4.12022 -5.37814 0
M  V30 934 H 84.4456 -5.41097 -4.56749 0
M  V30 935 H 84.8536 -3.69554 -4.2672 0
M  V30 936 N 84.2517 0.741722 -1.39055 0
M  V30 937 C 85.4997 1.49818 -1.35643 0
M  V30 938 C 85.8207 1.94938 0.0491642 0
M  V30 939 O 85.0907 1.68505 0.999141 0
M  V30 940 H 83.6707 0.555755 -0.499144 0
M  V30 941 H 86.3327 0.880957 -1.73854 0
M  V30 942 H 85.4287 2.38348 -2.01486 0
M  V30 943 N 85.7298 1.2412 0.971189 0
M  V30 944 C 87.1458 1.00584 1.23916 0
M  V30 945 C 87.3458 -0.287481 1.99439 0
M  V30 946 O 86.4018 -1.00454 2.31658 0
M  V30 947 C 87.7148 2.21864 2.0297 0
M  V30 948 C 89.2628 2.26452 2.16076 0
M  V30 949 C 89.7378 3.47343 2.98524 0
M  V30 950 N 91.2288 3.47639 3.06107 0
M  V30 951 C 91.9638 4.37837 3.70251 0
M  V30 952 N 91.4598 5.38286 4.36142 0
M  V30 953 N 93.2528 4.25558 3.67228 0
M  V30 954 H 85.4038 2.07236 0.465499 0
M  V30 955 H 87.6668 0.909236 0.268315 0
M  V30 956 H 87.3728 3.15771 1.54861 0
M  V30 957 H 87.2468 2.23698 3.03709 0
M  V30 958 H 89.6338 1.33078 2.6339 0
M  V30 959 H 89.7148 2.28645 1.14696 0
M  V30 960 H 89.3588 4.41029 2.51905 0
M  V30 961 H 89.2888 3.42393 4.00093 0
M  V30 962 H 91.7798 2.74966 2.59233 0
M  V30 963 H 92.0928 6.03352 4.82894 0
M  V30 964 H 90.4378 5.42176 4.34822 0
M  V30 965 H 93.6288 3.46322 3.14927 0
M  V30 966 H 93.8018 4.96054 4.16935 0
M  V30 967 N 87.2079 -1.17134 1.05439 0
M  V30 968 C 88.1549 -2.21235 0.657539 0
M  V30 969 C 89.1249 -1.62551 -0.341543 0
M  V30 970 O 90.3099 -1.89379 -0.232393 0
M  V30 971 C 87.4499 -3.45076 0.0410575 0
M  V30 972 C 86.5629 -4.18042 1.08927 0
M  V30 973 C 85.6979 -5.29376 0.439848 0
M  V30 974 C 84.7369 -5.94132 1.4722 0
M  V30 975 N 83.8739 -6.96975 0.846756 0
M  V30 976 H 88.7139 -2.54534 1.54972 0
M  V30 977 H 86.2509 -1.25028 0.775006 0
M  V30 978 H 88.2089 -4.15862 -0.33383 0
M  V30 979 H 86.8389 -3.12353 -0.814568 0
M  V30 980 H 85.8909 -3.45945 1.58196 0
M  V30 981 H 87.2029 -4.62306 1.87282 0
M  V30 982 H 86.3569 -6.06699 0.0115125 0
M  V30 983 H 85.0959 -4.86251 -0.375656 0
M  V30 984 H 84.1009 -5.15538 1.91052 0
M  V30 985 H 85.3259 -6.39337 2.28965 0
M  V30 986 H 83.2719 -6.5598 0.0518075 0
M  V30 987 H 83.1889 -7.39565 1.5678 0
M  V30 988 H 84.4569 -7.78239 0.443277 0
M  V30 989 N 88.686 -0.835752 -1.33615 0
M  V30 990 C 89.914 -0.443344 -2.02094 0
M  V30 991 C 90.329 0.954522 -1.62894 0
M  V30 992 O 89.686 1.61982 -0.840723 0
M  V30 993 C 89.737 -0.550775 -3.5728 0
M  V30 994 O 89.458 -1.89356 -3.95065 0
M  V30 995 C 90.959 -0.154919 -4.43029 0
M  V30 996 H 88.179 -0.176359 -0.647409 0
M  V30 997 H 90.723 -1.12746 -1.70612 0
M  V30 998 H 88.878 0.0853997 -3.87306 0
M  V30 999 H 89.292 -1.87687 -4.89769 0
M  V30 1000 H 90.766 -0.281144 -5.51284 0
M  V30 1001 H 91.243 0.902863 -4.2982 0
M  V30 1002 H 91.849 -0.765404 -4.18356 0
M  V30 1003 N 90.1641 1.46063 -0.591896 0
M  V30 1004 C 91.4101 2.03203 -0.0894879 0
M  V30 1005 C 91.7651 1.45407 1.25994 0
M  V30 1006 O 91.0581 0.61326 1.8152 0
M  V30 1007 C 91.2521 3.57391 0.0249813 0
M  V30 1008 C 91.0811 4.30142 -1.3118 0
M  V30 1009 C 89.8511 4.68688 -1.88838 0
M  V30 1010 C 92.0491 4.63098 -2.23708 0
M  V30 1011 N 90.0311 5.26228 -3.1616 0
M  V30 1012 C 91.4021 5.21305 -3.3562 0
M  V30 1013 C 93.4571 4.45031 -2.23274 0
M  V30 1014 C 92.1601 5.63351 -4.47245 0
M  V30 1015 C 94.1861 4.881 -3.33935 0
M  V30 1016 C 93.5481 5.46386 -4.44569 0
M  V30 1017 H 89.6471 0.778323 -0.0757431 0
M  V30 1018 H 92.2311 1.78094 -0.78681 0
M  V30 1019 H 90.4021 3.82195 0.69149 0
M  V30 1020 H 92.1341 4.0118 0.532613 0
M  V30 1021 H 88.8891 4.5174 -1.42223 0
M  V30 1022 H 89.3131 5.59512 -3.8115 0
M  V30 1023 H 93.9551 3.99295 -1.39008 0
M  V30 1024 H 91.6731 6.08061 -5.32247 0
M  V30 1025 H 95.2591 4.75866 -3.34728 0
M  V30 1026 H 94.1391 5.79102 -5.28782 0
M  V30 1027 N 91.6422 0.330177 1.54103 0
M  V30 1028 C 92.5522 -0.541534 2.28264 0
M  V30 1029 C 93.5682 -1.12351 1.32866 0
M  V30 1030 O 94.7442 -1.14206 1.65888 0
M  V30 1031 C 91.8092 -1.68322 3.03098 0
M  V30 1032 C 90.8702 -1.13238 4.14096 0
M  V30 1033 C 90.1032 -2.21966 4.85352 0
M  V30 1034 O 90.3262 -3.42437 4.56172 0
M  V30 1035 O 89.2602 -1.87013 5.7211 0
M  V30 1036 H 93.0862 0.060938 3.03639 0
M  V30 1037 H 90.6712 0.09565 1.49093 0
M  V30 1038 H 92.5532 -2.34777 3.49939 0
M  V30 1039 H 91.2282 -2.27176 2.30593 0
M  V30 1040 H 90.1352 -0.432736 3.71589 0
M  V30 1041 H 91.4682 -0.588898 4.88664 0
M  V30 1042 N 93.1203 -1.57491 0.0584922 0
M  V30 1043 C 94.3453 -1.97711 -0.62652 0
M  V30 1044 C 94.7703 -0.936132 -1.63151 0
M  V30 1045 O 94.1283 0.099811 -1.81025 0
M  V30 1046 C 94.1763 -3.36989 -1.28338 0
M  V30 1047 O 93.2803 -3.35433 -2.39913 0
M  V30 1048 H 92.6213 -0.643868 -0.162266 0
M  V30 1049 H 95.1513 -2.04193 0.129064 0
M  V30 1050 H 95.1613 -3.73879 -1.63335 0
M  V30 1051 H 93.8363 -4.12289 -0.546889 0
M  V30 1052 H 92.4133 -3.10298 -2.06809 0
M  V30 1053 N 94.5984 0.214957 -1.56127 0
M  V30 1054 C 95.8474 0.936451 -1.78643 0
M  V30 1055 C 96.1604 1.85237 -0.628229 0
M  V30 1056 O 97.3664 2.613 -0.737186 0
M  V30 1057 C 95.8224 1.7154 -3.16389 0
M  V30 1058 C 95.4304 0.845299 -4.39953 0
M  V30 1059 C 97.1744 2.42772 -3.48227 0
M  V30 1060 C 95.0814 1.62198 -5.68723 0
M  V30 1061 H 94.0114 0.353401 -0.666051 0
M  V30 1062 H 96.6624 0.190169 -1.82512 0
M  V30 1063 H 95.0444 2.50484 -3.06715 0
M  V30 1064 H 96.2184 0.0959353 -4.607 0
M  V30 1065 H 94.5334 0.244789 -4.1568 0
M  V30 1066 H 97.1304 3.01394 -4.41663 0
M  V30 1067 H 97.4734 3.15984 -2.71035 0
M  V30 1068 H 98.0064 1.70813 -3.5926 0
M  V30 1069 H 94.7454 0.933011 -6.48826 0
M  V30 1070 H 94.2654 2.34579 -5.52026 0
M  V30 1071 H 95.9444 2.18095 -6.09133 0
M  V30 1072 N 96.0765 1.50051 0.48192 0
M  V30 1073 C 97.4875 1.5348 1.06305 0
M  V30 1074 C 97.8385 0.331997 1.93371 0
M  V30 1075 O 96.9635 -0.556256 2.09129 0
M  V30 1076 C 97.5585 2.7813 1.93466 0
M  V30 1077 C 96.1175 2.84275 2.46707 0
M  V30 1078 C 95.2645 2.47637 1.24785 0
M  V30 1079 H 98.2155 1.56472 0.264995 0
M  V30 1080 H 98.2365 2.59372 2.78399 0
M  V30 1081 H 97.7485 3.65654 1.30072 0
M  V30 1082 H 95.8495 2.01077 3.13686 0
M  V30 1083 H 95.9625 3.8691 2.82555 0
M  V30 1084 H 94.3265 1.99835 1.57918 0
M  V30 1085 H 95.1095 3.37457 0.630694 0
M  V30 1086 N 97.5546 -0.734337 1.39446 0
M  V30 1087 C 98.4846 -1.86155 1.40955 0
M  V30 1088 C 99.4656 -1.67898 0.272827 0
M  V30 1089 O 100.651 -1.88207 0.478743 0
M  V30 1090 C 97.7806 -3.23912 1.25294 0
M  V30 1091 C 96.7346 -3.56808 2.36373 0
M  V30 1092 C 96.0606 -4.93508 2.058 0
M  V30 1093 C 97.3606 -3.59713 3.78687 0
M  V30 1094 H 99.0546 -1.8515 2.35287 0
M  V30 1095 H 96.6006 -0.889367 1.13253 0
M  V30 1096 H 98.5536 -4.02443 1.2497 0
M  V30 1097 H 97.2776 -3.25446 0.274308 0
M  V30 1098 H 95.9366 -2.80606 2.35914 0
M  V30 1099 H 95.5846 -4.91623 1.06374 0
M  V30 1100 H 95.2846 -5.16486 2.80208 0
M  V30 1101 H 96.8086 -5.74396 2.07128 0
M  V30 1102 H 98.2226 -4.2832 3.81071 0
M  V30 1103 H 96.6196 -3.94209 4.52459 0
M  V30 1104 H 97.6896 -2.59504 4.09617 0
M  V30 1105 N 99.0327 -1.24633 -0.964593 0
M  V30 1106 C 99.9647 -0.999302 -2.06268 0
M  V30 1107 C 100.978 0.0323226 -1.62768 0
M  V30 1108 O 102.167 -0.205079 -1.77318 0
M  V30 1109 C 99.2667 -0.486816 -3.35385 0
M  V30 1110 C 98.4397 -1.5823 -4.07777 0
M  V30 1111 C 97.4987 -1.07191 -5.15166 0
M  V30 1112 O 96.5247 -1.76426 -5.41168 0
M  V30 1113 N 97.7267 0.0920373 -5.80427 0
M  V30 1114 H 100.492 -1.94477 -2.28033 0
M  V30 1115 H 98.0527 -1.15704 -1.13244 0
M  V30 1116 H 100.045 -0.130066 -4.04491 0
M  V30 1117 H 98.6147 0.364459 -3.10468 0
M  V30 1118 H 97.8347 -2.11109 -3.32906 0
M  V30 1119 H 99.1227 -2.31854 -4.52903 0
M  V30 1120 H 98.5207 0.670784 -5.61709 0
M  V30 1121 H 97.0777 0.389905 -6.50633 0
M  V30 1122 N 100.511 1.16574 -1.06058 0
M  V30 1123 C 101.758 1.87047 -0.775873 0
M  V30 1124 C 102.086 1.81562 0.697534 0
M  V30 1125 O 101.341 1.22445 1.52662 0
M  V30 1126 C 101.64 3.36195 -1.21275 0
M  V30 1127 C 101.306 3.6188 -2.68986 0
M  V30 1128 C 99.9678 3.68599 -3.09335 0
M  V30 1129 C 102.32 3.72648 -3.64394 0
M  V30 1130 C 99.6478 3.83584 -4.43937 0
M  V30 1131 C 102 3.89154 -4.98741 0
M  V30 1132 C 100.664 3.94114 -5.3873 0
M  V30 1133 H 99.9338 0.684452 -0.283912 0
M  V30 1134 H 102.581 1.37853 -1.32925 0
M  V30 1135 H 100.886 3.87505 -0.578528 0
M  V30 1136 H 102.583 3.89103 -0.969542 0
M  V30 1137 H 99.1728 3.57281 -2.36744 0
M  V30 1138 H 103.357 3.66769 -3.34356 0
M  V30 1139 H 98.6128 3.85677 -4.74409 0
M  V30 1140 H 102.787 3.96427 -5.72554 0
M  V30 1141 H 100.414 4.05478 -6.43033 0
M  V30 1142 N 101.989 0.842826 1.3317 0
M  V30 1143 C 103.405 0.531128 1.50503 0
M  V30 1144 C 103.605 -0.940734 1.78192 0
M  V30 1145 O 102.661 -1.72436 1.84451 0
M  V30 1146 C 103.974 1.40789 2.65705 0
M  V30 1147 C 105.522 1.40708 2.79589 0
M  V30 1148 C 105.997 2.26878 3.97857 0
M  V30 1149 N 107.488 2.24609 4.05099 0
M  V30 1150 C 108.223 2.88019 4.95815 0
M  V30 1151 N 107.719 3.60496 5.9162 0
M  V30 1152 N 109.512 2.77469 4.88843 0
M  V30 1153 H 101.663 1.79557 1.1346 0
M  V30 1154 H 103.926 0.766267 0.558156 0
M  V30 1155 H 103.632 2.454 2.51936 0
M  V30 1156 H 103.506 1.08677 3.61205 0
M  V30 1157 H 105.893 0.368668 2.92788 0
M  V30 1158 H 105.974 1.76829 1.84838 0
M  V30 1159 H 105.618 3.3078 3.85418 0
M  V30 1160 H 105.548 1.88096 4.91861 0
M  V30 1161 H 108.039 1.71906 3.36536 0
M  V30 1162 H 108.352 4.06076 6.57512 0
M  V30 1163 H 106.697 3.64604 5.91683 0
M  V30 1164 H 109.888 2.20406 4.12963 0
M  V30 1165 H 110.061 3.2717 5.59342 0
M  V30 1166 N 103.467 -1.45747 0.599634 0
M  V30 1167 C 104.878 -1.85853 0.177681 0
M  V30 1168 C 105.229 -1.50102 -1.26348 0
M  V30 1169 O 104.354 -0.923905 -1.95686 0
M  V30 1170 C 104.949 -3.37326 0.315688 0
M  V30 1171 C 103.508 -3.76365 -0.0515144 0
M  V30 1172 C 102.655 -2.69722 0.643822 0
M  V30 1173 H 105.606 -1.36661 0.806814 0
M  V30 1174 H 105.627 -3.77778 -0.454321 0
M  V30 1175 H 105.139 -3.63315 1.36468 0
M  V30 1176 H 103.24 -3.55993 -1.09999 0
M  V30 1177 H 103.353 -4.77916 0.336594 0
M  V30 1178 H 101.717 -2.54567 0.0822881 0
M  V30 1179 H 102.5 -2.98549 1.6948 0
M  V30 1180 N 104.945 -0.338344 -1.53925 0
M  V30 1181 C 105.875 0.51328 -2.27789 0
M  V30 1182 C 106.856 1.107 -1.29149 0
M  V30 1183 O 108.041 1.12937 -1.57984 0
M  V30 1184 C 105.171 1.66697 -3.04679 0
M  V30 1185 C 104.125 1.20183 -4.1078 0
M  V30 1186 C 103.451 2.44363 -4.75595 0
M  V30 1187 C 104.751 0.30605 -5.21403 0
M  V30 1188 H 106.445 -0.102883 -2.99223 0
M  V30 1189 H 103.991 -0.0509219 -1.4391 0
M  V30 1190 H 105.944 2.26915 -3.55088 0
M  V30 1191 H 104.668 2.30995 -2.30887 0
M  V30 1192 H 103.327 0.622499 -3.61276 0
M  V30 1193 H 102.975 3.07057 -3.98403 0
M  V30 1194 H 102.675 2.13925 -5.47275 0
M  V30 1195 H 104.199 3.05317 -5.28786 0
M  V30 1196 H 105.613 0.814929 -5.67478 0
M  V30 1197 H 104.01 0.0937929 -6.00027 0
M  V30 1198 H 105.08 -0.65921 -4.80398 0
M  V30 1199 N 106.423 1.57458 -0.0668435 0
M  V30 1200 C 107.37 2.12439 0.902122 0
M  V30 1201 C 108.34 1.03565 1.2986 0
M  V30 1202 O 109.525 1.312 1.38532 0
M  V30 1203 C 106.665 2.6865 2.16614 0
M  V30 1204 C 105.778 3.91663 1.82274 0
M  V30 1205 C 104.913 4.36134 3.0325 0
M  V30 1206 C 103.952 5.51808 2.64904 0
M  V30 1207 N 103.089 5.9126 3.78624 0
M  V30 1208 H 107.929 2.94934 0.426382 0
M  V30 1209 H 105.466 1.4575 0.198819 0
M  V30 1210 H 107.424 2.99346 2.90599 0
M  V30 1211 H 106.054 1.88928 2.61737 0
M  V30 1212 H 105.106 3.6746 0.983719 0
M  V30 1213 H 106.418 4.75693 1.50059 0
M  V30 1214 H 105.572 4.68465 3.85519 0
M  V30 1215 H 104.311 3.50948 3.38655 0
M  V30 1216 H 103.316 5.19133 1.81055 0
M  V30 1217 H 104.541 6.38722 2.30675 0
M  V30 1218 H 102.487 5.09024 4.138 0
M  V30 1219 H 102.404 6.70018 3.5016 0
M  V30 1220 H 103.672 6.28212 4.61486 0
M  V30 1221 N 107.901 -0.206675 1.56239 0
M  V30 1222 C 109.149 -0.927007 1.79586 0
M  V30 1223 C 109.47 -1.8427 0.637929 0
M  V30 1224 O 108.74 -1.92849 -0.344398 0
M  V30 1225 H 107.32 -0.345292 0.662407 0
M  V30 1226 H 109.982 -0.21496 1.93711 0
M  V30 1227 H 109.078 -1.52501 2.72305 0
M  V30 1228 N 109.379 -1.50304 -0.473955 0
M  V30 1229 C 110.795 -1.37667 -0.807466 0
M  V30 1230 C 110.995 -0.430555 -1.96846 0
M  V30 1231 O 110.051 0.127874 -2.52176 0
M  V30 1232 C 111.364 -2.78974 -1.12223 0
M  V30 1233 C 112.912 -2.87868 -1.22885 0
M  V30 1234 C 113.387 -4.30003 -1.57676 0
M  V30 1235 N 114.878 -4.3294 -1.64673 0
M  V30 1236 C 115.613 -5.3991 -1.93091 0
M  V30 1237 N 115.109 -6.57092 -2.1955 0
M  V30 1238 N 116.902 -5.27351 -1.94569 0
M  V30 1239 H 109.053 -2.10394 0.291212 0
M  V30 1240 H 111.316 -0.945575 0.0677609 0
M  V30 1241 H 111.022 -3.50031 -0.342229 0
M  V30 1242 H 110.896 -3.16038 -2.05913 0
M  V30 1243 H 113.283 -2.17032 -1.99953 0
M  V30 1244 H 113.364 -2.54352 -0.271814 0
M  V30 1245 H 113.008 -5.01375 -0.81149 0
M  V30 1246 H 112.938 -4.61004 -2.54525 0
M  V30 1247 H 115.429 -3.48441 -1.46277 0
M  V30 1248 H 115.742 -7.34425 -2.405 0
M  V30 1249 H 114.087 -6.60272 -2.16948 0
M  V30 1250 H 117.278 -4.34801 -1.73394 0
M  V30 1251 H 117.451 -6.10805 -2.16381 0
M  V30 1252 N 110.857 0.726932 -1.39834 0
M  V30 1253 C 112.106 1.48214 -1.36805 0
M  V30 1254 C 112.419 1.95576 0.0305291 0
M  V30 1255 O 113.625 2.7088 0.183417 0
M  V30 1256 C 112.081 2.67854 -2.40379 0
M  V30 1257 C 111.689 2.27408 -3.85992 0
M  V30 1258 C 113.433 3.45641 -2.46439 0
M  V30 1259 C 111.34 3.43819 -4.81189 0
M  V30 1260 H 110.27 0.556606 -0.508631 0
M  V30 1261 H 112.921 0.792216 -1.65518 0
M  V30 1262 H 111.303 3.3896 -2.04749 0
M  V30 1263 H 112.477 1.63795 -4.30706 0
M  V30 1264 H 110.792 1.62692 -3.83302 0
M  V30 1265 H 113.389 4.32244 -3.14753 0
M  V30 1266 H 113.732 3.88669 -1.49139 0
M  V30 1267 H 114.265 2.8157 -2.81004 0
M  V30 1268 H 111.004 3.05834 -5.79781 0
M  V30 1269 H 110.524 4.06385 -4.41148 0
M  V30 1270 H 112.203 4.10043 -5.00474 0
M  V30 1271 N 112.336 1.25143 0.95797 0
M  V30 1272 C 113.284 1.05019 2.07542 0
M  V30 1273 C 114.278 -0.0178751 1.69391 0
M  V30 1274 O 115.484 0.137472 1.79474 0
M  V30 1275 H 111.859 0.32265 0.679265 0
M  V30 1276 H 113.83 1.99759 2.21673 0
M  V30 1277 C 112.579 0.682074 3.40944 0
M  V30 1278 H 111.902 1.49573 3.70767 0
M  V30 1279 H 113.342 0.580945 4.20001 0
M  V30 1280 C 111.801 -0.611608 3.31302 0
M  V30 1281 O 112.331 -1.65465 3.66038 0
M  V30 1282 N 110.537 -0.595982 2.84423 0
M  V30 1283 H 110.084 0.253192 2.56353 0
M  V30 1284 H 110.042 -1.46173 2.78354 0
M  V30 1285 N 113.814 -1.1601 1.06675 0
M  V30 1286 C 115.06 -1.86909 0.786945 0
M  V30 1287 C 115.393 -1.81717 -0.685018 0
M  V30 1288 O 114.668 -1.23551 -1.50218 0
M  V30 1289 C 114.951 -3.36313 1.28707 0
M  V30 1290 C 114.804 -3.50175 2.82308 0
M  V30 1291 C 116.123 -4.3084 0.898071 0
M  V30 1292 H 113.242 -0.678677 0.287343 0
M  V30 1293 H 115.884 -1.36336 1.32334 0
M  V30 1294 H 114.034 -3.79513 0.830768 0
M  V30 1295 H 115.706 -3.15886 3.36175 0
M  V30 1296 H 113.949 -2.91959 3.20847 0
M  V30 1297 H 114.62 -4.55116 3.12368 0
M  V30 1298 H 117.096 -3.95561 1.29114 0
M  V30 1299 H 115.972 -5.33876 1.27543 0
M  V30 1300 H 116.233 -4.41662 -0.196651 0
M  V30 1301 N 115.292 -0.849877 -1.32721 0
M  V30 1302 C 116.538 -0.451591 -1.97708 0
M  V30 1303 C 116.871 0.989175 -1.6712 0
M  V30 1304 O 116.146 1.69334 -0.956891 0
M  V30 1305 C 116.429 -0.685598 -3.53513 0
M  V30 1306 C 116.282 -2.17444 -3.93749 0
M  V30 1307 C 117.601 -0.138874 -4.39881 0
M  V30 1308 H 114.72 -0.16555 -0.718166 0
M  V30 1309 H 117.362 -1.06742 -1.57182 0
M  V30 1310 H 115.512 -0.161416 -3.88165 0
M  V30 1311 H 117.184 -2.76433 -3.693 0
M  V30 1312 H 115.427 -2.65476 -3.43081 0
M  V30 1313 H 116.098 -2.28888 -5.02309 0
M  V30 1314 H 118.574 -0.587068 -4.11938 0
M  V30 1315 H 117.45 -0.332213 -5.47894 0
M  V30 1316 H 117.711 0.95806 -4.31594 0
M  V30 1317 N 116.77 1.45427 -0.607355 0
M  V30 1318 C 118.019 2.01452 -0.100036 0
M  V30 1319 C 118.332 1.48159 1.27704 0
M  V30 1320 O 119.538 1.96159 1.87707 0
M  V30 1321 C 117.994 3.59672 -0.128158 0
M  V30 1322 C 117.602 4.21962 -1.50507 0
M  V30 1323 C 119.346 4.23262 0.323932 0
M  V30 1324 C 117.253 5.72333 -1.48959 0
M  V30 1325 H 116.183 0.75325 -0.0336299 0
M  V30 1326 H 118.834 1.66901 -0.76265 0
M  V30 1327 H 117.216 3.91411 0.601105 0
M  V30 1328 H 118.39 4.01796 -2.25602 0
M  V30 1329 H 116.705 3.70565 -1.89923 0
M  V30 1330 H 119.302 5.33522 0.354691 0
M  V30 1331 H 119.645 3.93921 1.34656 0
M  V30 1332 H 120.178 3.96239 -0.352056 0
M  V30 1333 H 116.917 6.06373 -2.48981 0
M  V30 1334 H 116.437 5.94691 -0.781214 0
M  V30 1335 H 118.116 6.35525 -1.21313 0
M  V30 1336 N 118.248 0.346503 1.53744 0
M  V30 1337 C 119.476 -0.25041 2.05379 0
M  V30 1338 C 119.891 -1.43979 1.22129 0
M  V30 1339 O 119.248 -1.80677 0.257321 0
M  V30 1340 C 119.299 -0.662575 3.55376 0
M  V30 1341 O 119.02 0.479515 4.35468 0
M  V30 1342 C 120.521 -1.31989 4.23195 0
M  V30 1343 H 117.741 -0.0478198 0.669294 0
M  V30 1344 H 120.285 0.499346 1.9831 0
M  V30 1345 H 118.44 -1.36227 3.62658 0
M  V30 1346 H 118.854 0.15037 5.24284 0
M  V30 1347 H 120.328 -1.55902 5.29527 0
M  V30 1348 H 120.805 -2.27436 3.75725 0
M  V30 1349 H 121.411 -0.662154 4.20114 0
M  V30 1350 N 119.726 -1.57421 0.075193 0
M  V30 1351 C 121.142 -1.57099 -0.281444 0
M  V30 1352 C 121.342 -1.08486 -1.69803 0
M  V30 1353 O 120.398 -0.752279 -2.41033 0
M  V30 1354 C 121.711 -3.00571 -0.0880041 0
M  V30 1355 C 123.259 -3.12605 -0.157281 0
M  V30 1356 C 123.734 -4.57999 0.0079207 0
M  V30 1357 N 125.225 -4.63176 -0.0475725 0
M  V30 1358 C 125.96 -5.73373 0.0557876 0
M  V30 1359 N 125.456 -6.92473 0.21286 0
M  V30 1360 N 127.249 -5.621 -0.00152098 0
M  V30 1361 H 119.4 -1.87335 1.00098 0
M  V30 1362 H 121.663 -0.86377 0.390646 0
M  V30 1363 H 121.369 -3.40262 0.889629 0
M  V30 1364 H 121.243 -3.67754 -0.838875 0
M  V30 1365 H 123.63 -2.72798 -1.1254 0
M  V30 1366 H 123.711 -2.48053 0.62475 0
M  V30 1367 H 123.355 -4.98496 0.972824 0
M  V30 1368 H 123.285 -5.20586 -0.793556 0
M  V30 1369 H 125.776 -3.7753 -0.167244 0
M  V30 1370 H 126.089 -7.72279 0.283781 0
M  V30 1371 H 124.434 -6.94556 0.248267 0
M  V30 1372 H 127.625 -4.67938 -0.122958 0
M  V30 1373 H 127.798 -6.47948 0.0824844 0
M  V30 1374 N 121.204 0.198386 -1.56346 0
M  V30 1375 C 122.152 1.26538 -1.95169 0
M  V30 1376 C 123.146 1.47295 -0.836685 0
M  V30 1377 O 124.352 1.48195 -1.02167 0
M  V30 1378 H 120.727 0.424744 -0.620561 0
M  V30 1379 H 122.698 0.910904 -2.84157 0
M  V30 1380 C 121.447 2.6035 -2.30463 0
M  V30 1381 H 120.77 2.45192 -3.15786 0
M  V30 1382 H 122.21 3.33762 -2.61494 0
M  V30 1383 C 120.669 3.17096 -1.13806 0
M  V30 1384 O 121.199 3.99588 -0.41135 0
M  V30 1385 N 119.405 2.75795 -0.915736 0
M  V30 1386 H 118.952 2.08816 -1.50843 0
M  V30 1387 H 118.91 3.14101 -0.136979 0
M  V30 1388 N 122.682 1.50554 0.465978 0
M  V30 1389 C 123.592 1.72585 1.58907 0
M  V30 1390 C 124.608 0.60911 1.6299 0
M  V30 1391 O 125.784 0.88804 1.80765 0
M  V30 1392 C 122.849 1.81995 2.95091 0
M  V30 1393 C 121.91 3.05751 3.01355 0
M  V30 1394 C 121.143 3.14702 4.31043 0
M  V30 1395 O 121.366 2.30313 5.21835 0
M  V30 1396 O 120.3 4.07468 4.43005 0
M  V30 1397 H 124.126 2.67799 1.43239 0
M  V30 1398 H 121.711 1.34711 0.646013 0
M  V30 1399 H 123.593 1.90335 3.75966 0
M  V30 1400 H 122.268 0.899659 3.10947 0
M  V30 1401 H 121.175 3.02908 2.19539 0
M  V30 1402 H 122.508 3.97375 2.90437 0
M  V30 1403 N 124.16 -0.719506 1.40217 0
M  V30 1404 C 125.385 -1.51371 1.4178 0
M  V30 1405 C 125.81 -1.88091 0.0182355 0
M  V30 1406 O 125.168 -1.52997 -0.972707 0
M  V30 1407 C 125.216 -2.768 2.31115 0
M  V30 1408 O 124.32 -3.73349 1.7517 0
M  V30 1409 H 123.661 -0.456529 0.482159 0
M  V30 1410 H 126.191 -0.88644 1.844 0
M  V30 1411 H 126.201 -3.25371 2.46167 0
M  V30 1412 H 124.876 -2.49407 3.3282 0
M  V30 1413 H 123.453 -3.32179 1.69444 0
M  V30 1414 N 125.638 -1.25649 -0.95132 0
M  V30 1415 C 126.568 -1.08808 -2.06599 0
M  V30 1416 C 127.549 0.00382547 -1.701 0
M  V30 1417 O 128.734 -0.166325 -1.93486 0
M  V30 1418 C 125.864 -0.709542 -3.39975 0
M  V30 1419 C 124.818 -1.75206 -3.90496 0
M  V30 1420 C 124.144 -1.22811 -5.20405 0
M  V30 1421 C 125.444 -3.15153 -4.16504 0
M  V30 1422 H 127.138 -2.02048 -2.20946 0
M  V30 1423 H 124.684 -0.972835 -1.06169 0
M  V30 1424 H 126.637 -0.578649 -4.17408 0
M  V30 1425 H 125.361 0.258556 -3.25575 0
M  V30 1426 H 124.02 -1.87145 -3.15234 0
M  V30 1427 H 123.668 -0.250145 -5.02378 0
M  V30 1428 H 123.368 -1.92492 -5.55176 0
M  V30 1429 H 124.892 -1.10968 -6.00432 0
M  V30 1430 H 126.306 -3.06349 -4.84586 0
M  V30 1431 H 124.703 -3.82333 -4.62538 0
M  V30 1432 H 125.773 -3.61966 -3.22658 0
M  V30 1433 N 127.117 1.15442 -1.07289 0
M  V30 1434 C 128.394 1.82306 -0.708792 0
M  V30 1435 C 128.774 1.94991 0.808807 0
M  V30 1436 O 128.122 1.50085 1.72298 0
M  V30 1437 C 128.332 3.18695 -1.42247 0
M  V30 1438 C 129.68 3.94341 -1.57417 0
M  V30 1439 O 130.704 3.28247 -1.38319 0
M  V30 1440 O 129.563 5.12839 -1.88834 0
M  V30 1441 H 126.657 0.787628 -0.252132 0
M  V30 1442 H 129.203 1.22559 -1.17377 0
M  V30 1443 H 127.975 3.04557 -2.45684 0
M  V30 1444 H 127.598 3.86128 -0.948223 0
M  V30 1445 N 128.595 0.856903 1.32268 0
M  V30 1446 C 129.525 0.31858 2.31316 0
M  V30 1447 C 130.506 -0.583487 1.59779 0
M  V30 1448 O 131.691 -0.503259 1.87566 0
M  V30 1449 C 128.821 -0.491979 3.43798 0
M  V30 1450 C 127.775 0.315849 4.26833 0
M  V30 1451 C 127.101 -0.619586 5.31098 0
M  V30 1452 C 128.401 1.54282 4.98993 0
M  V30 1453 H 130.095 1.14621 2.76591 0
M  V30 1454 H 127.641 0.552613 1.32974 0
M  V30 1455 H 129.594 -0.879012 4.1213 0
M  V30 1456 H 128.318 -1.35299 2.97257 0
M  V30 1457 H 126.977 0.684664 3.6015 0
M  V30 1458 H 126.625 -1.47751 4.8081 0
M  V30 1459 H 126.325 -0.0830621 5.87541 0
M  V30 1460 H 127.849 -1.00375 6.02293 0
M  V30 1461 H 129.263 1.22796 5.59995 0
M  V30 1462 H 127.66 2.01745 5.65172 0
M  V30 1463 H 128.73 2.30285 4.26728 0
M  V30 1464 N 130.073 -1.45103 0.615059 0
M  V30 1465 C 131.321 -2.01784 0.112955 0
M  V30 1466 C 131.642 -1.48504 -1.26378 0
M  V30 1467 O 130.912 -0.682245 -1.83636 0
M  V30 1468 H 129.492 -0.745993 0.0387668 0
M  V30 1469 H 132.154 -1.77808 0.798141 0
M  V30 1470 H 131.25 -3.12025 0.0684069 0
M  V30 1471 N 131.551 -0.354651 -1.53558 0
M  V30 1472 C 132.499 0.512195 -2.26891 0
M  V30 1473 C 133.493 1.09263 -1.29452 0
M  V30 1474 O 134.699 1.03709 -1.47121 0
M  V30 1475 H 131.074 0.183878 -0.729173 0
M  V30 1476 H 133.045 -0.128202 -2.98124 0
M  V30 1477 C 131.794 1.64563 -3.06291 0
M  V30 1478 H 131.117 1.20829 -3.81104 0
M  V30 1479 H 132.557 2.22711 -3.60799 0
M  V30 1480 C 131.016 2.58158 -2.16462 0
M  V30 1481 O 131.546 3.60695 -1.76811 0
M  V30 1482 N 129.752 2.27096 -1.81317 0
M  V30 1483 H 129.299 1.43751 -2.1376 0
M  V30 1484 H 129.257 2.89975 -1.21498 0
M  V30 1485 N 133.029 1.57378 -0.0835403 0
M  V30 1486 C 134.277 1.93547 0.581718 0
M  V30 1487 C 134.598 0.96524 1.69435 0
M  V30 1488 O 133.868 0.0153369 1.95894 0
M  V30 1489 H 132.448 0.714521 0.217874 0
M  V30 1490 H 135.11 1.94366 -0.144158 0
M  V30 1491 H 134.206 2.95665 0.999423 0
M  V30 1492 N 134.507 -0.190092 1.56449 0
M  V30 1493 C 135.756 -0.907912 1.80111 0
M  V30 1494 C 136.069 -1.84214 0.657619 0
M  V30 1495 O 137.275 -2.60094 0.778663 0
M  V30 1496 C 135.731 -1.66485 3.19078 0
M  V30 1497 C 135.339 -0.7752 4.41242 0
M  V30 1498 C 137.083 -2.37201 3.52045 0
M  V30 1499 C 134.99 -1.53129 5.71231 0
M  V30 1500 H 133.92 -0.34276 0.671589 0
M  V30 1501 H 136.571 -0.161109 1.82791 0
M  V30 1502 H 134.953 -2.45572 3.10661 0
M  V30 1503 H 136.127 -0.0226298 4.60794 0
M  V30 1504 H 134.442 -0.178627 4.16017 0
M  V30 1505 H 137.039 -2.94329 4.46402 0
M  V30 1506 H 137.382 -3.11632 2.76028 0
M  V30 1507 H 137.915 -1.65075 3.61932 0
M  V30 1508 H 134.654 -0.82967 6.50228 0
M  V30 1509 H 134.174 -2.25767 5.55688 0
M  V30 1510 H 135.853 -2.08377 6.12526 0
M  V30 1511 N 135.985 -1.50799 -0.457987 0
M  V30 1512 C 136.935 -1.67003 -1.55222 0
M  V30 1513 C 137.919 -0.52434 -1.52117 0
M  V30 1514 O 139.111 -0.779345 -1.58919 0
M  V30 1515 C 136.24 -1.77956 -2.93576 0
M  V30 1516 C 135.326 -2.98243 -3.01516 0
M  V30 1517 N 135.717 -4.21732 -2.79241 0
M  V30 1518 C 134.015 -2.97072 -3.32662 0
M  V30 1519 C 134.716 -5.02817 -2.92489 0
M  V30 1520 N 133.692 -4.37038 -3.23262 0
M  V30 1521 H 137.494 -2.60163 -1.36721 0
M  V30 1522 H 135.008 -1.48163 -0.664952 0
M  V30 1523 H 137.005 -1.87671 -3.72271 0
M  V30 1524 H 135.665 -0.859634 -3.13114 0
M  V30 1525 H 136.676 -4.51016 -2.54567 0
M  V30 1526 H 133.353 -2.14631 -3.58106 0
M  V30 1527 H 134.743 -6.11054 -2.79396 0
M  V30 1528 N 137.463 0.71206 -1.40597 0
M  V30 1529 C 138.688 1.50617 -1.42581 0
M  V30 1530 C 139.113 1.88079 -0.0282102 0
M  V30 1531 O 138.471 1.53511 0.964579 0
M  V30 1532 C 138.519 2.7557 -2.3258 0
M  V30 1533 O 137.623 3.72414 -1.77148 0
M  V30 1534 H 136.964 0.453966 -0.484573 0
M  V30 1535 H 139.494 0.876649 -1.84868 0
M  V30 1536 H 139.504 3.2406 -2.47889 0
M  V30 1537 H 138.179 2.47639 -3.34138 0
M  V30 1538 H 136.756 3.31276 -1.71204 0
M  V30 1539 N 138.941 1.26152 0.944643 0
M  V30 1540 C 139.904 1.07474 2.0244 0
M  V30 1541 C 140.904 0.0242064 1.60782 0
M  V30 1542 O 142.094 0.267302 1.72137 0
M  V30 1543 C 139.226 0.633956 3.34953 0
M  V30 1544 H 140.419 2.03336 2.20442 0
M  V30 1545 H 137.972 1.087 1.12312 0
M  V30 1546 H 138.707 -0.326811 3.22649 0
M  V30 1547 H 138.492 1.39247 3.66542 0
M  V30 1548 H 139.982 0.52501 4.14287 0
M  V30 1549 N 140.419 -1.14872 1.07899 0
M  V30 1550 C 141.366 -2.19791 0.704319 0
M  V30 1551 C 142.336 -1.63238 -0.306987 0
M  V30 1552 O 143.521 -1.8983 -0.192171 0
M  V30 1553 C 140.661 -3.44911 0.114244 0
M  V30 1554 C 139.774 -4.15637 1.1777 0
M  V30 1555 C 138.909 -5.28324 0.552037 0
M  V30 1556 C 137.948 -5.90875 1.59789 0
M  V30 1557 N 137.085 -6.95022 0.994404 0
M  V30 1558 H 141.925 -2.5119 1.60336 0
M  V30 1559 H 139.462 -1.23356 0.801352 0
M  V30 1560 H 141.42 -4.16477 -0.245544 0
M  V30 1561 H 140.05 -3.14011 -0.74813 0
M  V30 1562 H 139.102 -3.42512 1.65499 0
M  V30 1563 H 140.414 -4.5823 1.97046 0
M  V30 1564 H 139.568 -6.06538 0.1402 0
M  V30 1565 H 138.307 -4.86939 -0.272431 0
M  V30 1566 H 137.312 -5.11369 2.01945 0
M  V30 1567 H 138.537 -6.34337 2.42474 0
M  V30 1568 H 136.483 -6.55722 0.190939 0
M  V30 1569 H 136.4 -7.36073 1.72432 0
M  V30 1570 H 137.668 -7.77123 0.608253 0
M  V30 1571 N 141.898 -0.863906 -1.31812 0
M  V30 1572 C 143.123 -0.48527 -2.01643 0
M  V30 1573 C 143.548 0.913058 -1.64453 0
M  V30 1574 O 142.906 1.6014 -0.849985 0
M  V30 1575 C 142.954 -0.642625 -3.54828 0
M  V30 1576 O 142.058 0.320659 -4.11151 0
M  V30 1577 H 141.399 -0.193793 -0.635091 0
M  V30 1578 H 143.929 -1.16565 -1.68148 0
M  V30 1579 H 143.939 -0.533628 -4.04495 0
M  V30 1580 H 142.614 -1.66227 -3.81237 0
M  V30 1581 H 141.191 0.167126 -3.72525 0
M  V30 1582 N 143.376 1.44774 -0.622745 0
M  V30 1583 C 144.306 2.33382 0.0741861 0
M  V30 1584 C 145.287 1.47719 0.843387 0
M  V30 1585 O 146.472 1.76458 0.810934 0
M  V30 1586 C 143.602 3.30663 1.06204 0
M  V30 1587 C 142.556 4.26079 0.405037 0
M  V30 1588 C 141.882 5.13165 1.5022 0
M  V30 1589 C 143.182 5.1781 -0.683414 0
M  V30 1590 H 144.876 2.91905 -0.665713 0
M  V30 1591 H 142.422 1.40363 -0.321587 0
M  V30 1592 H 144.375 3.9153 1.55827 0
M  V30 1593 H 143.099 2.70331 1.83272 0
M  V30 1594 H 141.758 3.66532 -0.0704683 0
M  V30 1595 H 141.406 4.49191 2.26355 0
M  V30 1596 H 141.106 5.77812 1.06803 0
M  V30 1597 H 142.63 5.76902 2.00041 0
M  V30 1598 H 144.044 5.72661 -0.270631 0
M  V30 1599 H 142.441 5.91015 -1.04023 0
M  V30 1600 H 143.511 4.59326 -1.55395 0
M  V30 1601 N 144.854 0.36279 1.53368 0
M  V30 1602 C 146.131 -0.284021 1.93527 0
M  V30 1603 C 146.511 -1.66628 1.29608 0
M  V30 1604 O 145.859 -2.23942 0.45413 0
M  V30 1605 C 146.069 -0.337028 3.47369 0
M  V30 1606 C 147.417 -0.578708 4.20638 0
M  V30 1607 O 148.441 -0.418352 3.53735 0
M  V30 1608 O 147.3 -0.89074 5.39192 0
M  V30 1609 H 144.394 -0.169743 0.809393 0
M  V30 1610 H 146.94 0.41537 1.64538 0
M  V30 1611 H 145.712 0.632217 3.86159 0
M  V30 1612 H 145.335 -1.08243 3.82582 0
M  V30 1613 N 146.332 -1.57332 0.0918853 0
M  V30 1614 C 147.282 -2.10385 -0.87876 0
M  V30 1615 C 148.266 -1.01814 -1.24591 0
M  V30 1616 O 149.458 -1.28093 -1.22152 0
M  V30 1617 C 146.587 -2.68517 -2.13901 0
M  V30 1618 C 145.673 -3.84126 -1.79744 0
M  V30 1619 N 146.064 -4.92288 -1.1613 0
M  V30 1620 C 144.362 -3.93801 -2.09373 0
M  V30 1621 C 145.063 -5.7295 -1.00513 0
M  V30 1622 N 144.039 -5.21876 -1.5214 0
M  V30 1623 H 147.841 -2.91395 -0.38293 0
M  V30 1624 H 145.355 -1.62017 -0.111423 0
M  V30 1625 H 147.352 -3.04852 -2.84378 0
M  V30 1626 H 146.012 -1.88961 -2.64053 0
M  V30 1627 H 147.023 -5.1123 -0.828504 0
M  V30 1628 H 143.7 -3.25249 -2.61762 0
M  V30 1629 H 145.09 -6.69978 -0.507902 0
M  V30 1630 N 147.81 0.181792 -1.56548 0
M  V30 1631 C 148.773 1.20894 -1.94724 0
M  V30 1632 C 149.773 1.37738 -0.829747 0
M  V30 1633 O 150.963 1.35323 -1.09697 0
M  V30 1634 C 148.095 2.57593 -2.23291 0
M  V30 1635 H 149.288 0.882275 -2.86629 0
M  V30 1636 H 146.841 0.423838 -1.50444 0
M  V30 1637 H 147.576 2.95291 -1.34067 0
M  V30 1638 H 147.361 2.46735 -3.04736 0
M  V30 1639 H 148.851 3.31637 -2.53785 0
M  V30 1640 N 149.288 1.51039 0.449983 0
M  V30 1641 C 150.218 1.74379 1.55288 0
M  V30 1642 C 151.199 0.593236 1.5942 0
M  V30 1643 O 152.384 0.834625 1.7535 0
M  V30 1644 C 149.514 1.85728 2.93466 0
M  V30 1645 C 148.468 3.01078 3.04197 0
M  V30 1646 C 147.794 2.97595 4.44231 0
M  V30 1647 C 149.094 4.41254 2.7945 0
M  V30 1648 H 150.788 2.66725 1.36008 0
M  V30 1649 H 148.334 1.2835 0.652864 0
M  V30 1650 H 150.287 2.0064 3.70569 0
M  V30 1651 H 149.011 0.900207 3.13949 0
M  V30 1652 H 147.67 2.85851 2.29531 0
M  V30 1653 H 147.318 1.99691 4.61663 0
M  V30 1654 H 147.018 3.75046 4.52343 0
M  V30 1655 H 148.542 3.14583 5.23326 0
M  V30 1656 H 149.956 4.56897 3.46292 0
M  V30 1657 H 148.353 5.20315 2.98985 0
M  V30 1658 H 149.423 4.52164 1.75144 0
M  V30 1659 N 150.766 -0.704594 1.40972 0
M  V30 1660 C 151.676 -1.84856 1.44448 0
M  V30 1661 C 152.692 -1.70726 0.335961 0
M  V30 1662 O 153.868 -1.92799 0.582276 0
M  V30 1663 C 150.933 -3.20758 1.31587 0
M  V30 1664 C 149.994 -3.47063 2.52677 0
M  V30 1665 C 149.227 -4.76481 2.4042 0
M  V30 1666 O 149.45 -5.52341 1.42391 0
M  V30 1667 O 148.384 -5.03367 3.30007 0
M  V30 1668 H 152.21 -1.8488 2.40942 0
M  V30 1669 H 149.795 -0.85647 1.22413 0
M  V30 1670 H 151.677 -4.01913 1.26665 0
M  V30 1671 H 150.352 -3.21438 0.382049 0
M  V30 1672 H 149.259 -2.65873 2.63177 0
M  V30 1673 H 150.592 -3.5119 3.44858 0
M  V30 1674 N 152.244 -1.26651 -0.937939 0
M  V30 1675 C 153.174 -1.10993 -2.05433 0
M  V30 1676 C 154.155 -0.0142161 -1.70094 0
M  V30 1677 O 155.34 -0.186837 -1.93299 0
M  V30 1678 C 152.47 -0.745561 -3.39203 0
M  V30 1679 C 151.424 -1.79337 -3.88616 0
M  V30 1680 C 150.75 -1.28324 -5.19073 0
M  V30 1681 C 152.05 -3.19553 -4.13138 0
M  V30 1682 H 153.744 -2.0438 -2.1879 0
M  V30 1683 H 151.29 -0.984041 -1.05131 0
M  V30 1684 H 153.243 -0.622888 -4.16771 0
M  V30 1685 H 151.967 0.22401 -3.25831 0
M  V30 1686 H 150.626 -1.90477 -3.13231 0
M  V30 1687 H 150.274 -0.303414 -5.02084 0
M  V30 1688 H 149.974 -1.98369 -5.53103 0
M  V30 1689 H 151.498 -1.1733 -5.99221 0
M  V30 1690 H 152.912 -3.11471 -4.81309 0
M  V30 1691 H 151.309 -3.87218 -4.58457 0
M  V30 1692 H 152.379 -3.65368 -3.18801 0
M  V30 1693 N 153.722 1.14298 -1.08507 0
M  V30 1694 C 154.652 2.21542 -0.737646 0
M  V30 1695 C 155.633 1.67773 0.280377 0
M  V30 1696 O 156.818 1.93616 0.150521 0
M  V30 1697 C 153.948 3.46988 -0.147259 0
M  V30 1698 C 152.902 4.13789 -1.09374 0
M  V30 1699 C 152.228 5.33449 -0.365524 0
M  V30 1700 C 153.528 4.62208 -2.4323 0
M  V30 1701 H 155.222 2.5086 -1.6343 0
M  V30 1702 H 152.768 1.20576 -0.787243 0
M  V30 1703 H 154.721 4.21262 0.107808 0
M  V30 1704 H 153.445 3.17037 0.784538 0
M  V30 1705 H 152.104 3.4147 -1.33393 0
M  V30 1706 H 151.752 4.99759 0.57011 0
M  V30 1707 H 151.452 5.79088 -0.996512 0
M  V30 1708 H 152.976 6.10485 -0.118534 0
M  V30 1709 H 154.39 5.27952 -2.23472 0
M  V30 1710 H 152.787 5.18553 -3.02031 0
M  V30 1711 H 153.857 3.77224 -3.04681 0
M  V30 1712 N 155.201 0.870884 1.31352 0
M  V30 1713 C 156.431 0.496049 2.00557 0
M  V30 1714 C 156.839 -0.916241 1.65534 0
M  V30 1715 O 156.182 -1.61188 0.881134 0
M  V30 1716 C 156.244 0.574418 3.54881 0
M  V30 1717 C 155.908 1.94849 4.1338 0
M  V30 1718 C 156.905 2.91611 4.30417 0
M  V30 1719 C 154.59 2.25005 4.49086 0
M  V30 1720 C 156.584 4.16672 4.82352 0
M  V30 1721 C 154.271 3.50315 5.00722 0
M  V30 1722 C 155.269 4.45964 5.17306 0
M  V30 1723 O 154.957 5.69052 5.67833 0
M  V30 1724 H 154.689 0.191664 0.64826 0
M  V30 1725 H 157.243 1.17409 1.68536 0
M  V30 1726 H 155.473 -0.160549 3.86367 0
M  V30 1727 H 157.162 0.212879 4.05341 0
M  V30 1728 H 157.928 2.69622 4.03149 0
M  V30 1729 H 153.807 1.51332 4.35453 0
M  V30 1730 H 157.351 4.91336 4.95211 0
M  V30 1731 H 153.248 3.72147 5.27424 0
M  V30 1732 H 154.016 5.71236 5.86201 0
M  V30 1733 N 156.679 -1.44442 0.630414 0
M  V30 1734 C 158.095 -1.56832 0.295973 0
M  V30 1735 C 158.295 -1.61806 -1.20088 0
M  V30 1736 O 157.351 -1.5607 -1.9849 0
M  V30 1737 C 158.664 -2.84031 0.987264 0
M  V30 1738 C 160.212 -2.97742 0.96534 0
M  V30 1739 C 160.687 -4.27743 1.63708 0
M  V30 1740 N 162.178 -4.34555 1.60364 0
M  V30 1741 C 162.913 -5.33862 2.09234 0
M  V30 1742 N 162.409 -6.39578 2.66292 0
M  V30 1743 N 164.202 -5.25366 1.99867 0
M  V30 1744 H 156.353 -1.39457 1.60205 0
M  V30 1745 H 158.616 -0.668237 0.672431 0
M  V30 1746 H 158.322 -2.86338 2.04215 0
M  V30 1747 H 158.196 -3.73534 0.524588 0
M  V30 1748 H 160.583 -2.94989 -0.0810639 0
M  V30 1749 H 160.664 -2.09589 1.4665 0
M  V30 1750 H 160.308 -4.31255 2.68293 0
M  V30 1751 H 160.238 -5.14752 1.11076 0
M  V30 1752 H 162.729 -3.58772 1.18705 0
M  V30 1753 H 163.042 -7.11637 3.01317 0
M  V30 1754 H 161.387 -6.40265 2.70343 0
M  V30 1755 H 164.578 -4.41688 1.55013 0
M  V30 1756 H 164.751 -6.02606 2.38265 0
M  V30 1757 N 158.157 -0.370918 -1.53173 0
M  V30 1758 C 159.385 0.217704 -2.05751 0
M  V30 1759 C 159.8 1.42018 -1.24404 0
M  V30 1760 O 159.157 1.80245 -0.286033 0
M  V30 1761 C 159.208 0.605954 -3.56385 0
M  V30 1762 O 158.929 -0.548734 -4.3465 0
M  V30 1763 C 160.43 1.2524 -4.25241 0
M  V30 1764 H 157.65 0.0371659 -0.66997 0
M  V30 1765 H 160.194 -0.530832 -1.9749 0
M  V30 1766 H 158.349 1.3044 -3.6478 0
M  V30 1767 H 158.763 -0.23376 -5.23979 0
M  V30 1768 H 160.237 1.47458 -5.3194 0
M  V30 1769 H 160.714 2.2143 -3.79296 0
M  V30 1770 H 161.32 0.595233 -4.21114 0
M  V30 1771 N 159.635 1.57281 -0.100228 0
M  V30 1772 C 160.865 1.98591 0.569681 0
M  V30 1773 C 161.273 0.978315 1.61943 0
M  V30 1774 O 160.616 -0.0396108 1.83657 0
M  V30 1775 C 160.678 3.36282 1.271 0
M  V30 1776 C 160.342 4.55488 0.371409 0
M  V30 1777 C 161.339 5.18491 -0.382504 0
M  V30 1778 C 159.024 5.01474 0.287965 0
M  V30 1779 C 161.018 6.25852 -1.20779 0
M  V30 1780 C 158.705 6.08701 -0.540965 0
M  V30 1781 C 159.703 6.70755 -1.28749 0
M  V30 1782 O 159.391 7.75914 -2.10269 0
M  V30 1783 H 159.123 0.65752 0.156982 0
M  V30 1784 H 161.677 2.0463 -0.177734 0
M  V30 1785 H 159.907 3.26941 2.0651 0
M  V30 1786 H 161.596 3.62005 1.83595 0
M  V30 1787 H 162.362 4.83891 -0.3278 0
M  V30 1788 H 158.241 4.52932 0.858689 0
M  V30 1789 H 161.785 6.74218 -1.79096 0
M  V30 1790 H 157.682 6.42732 -0.597131 0
M  V30 1791 H 158.45 7.92925 -2.03007 0
M  V30 1792 N 161.113 -0.173488 1.56642 0
M  V30 1793 C 162.361 -0.888706 1.81512 0
M  V30 1794 C 162.682 -1.82875 0.676872 0
M  V30 1795 O 161.952 -1.93536 -0.303414 0
M  V30 1796 H 160.532 -0.331164 0.669582 0
M  V30 1797 H 163.194 -0.173823 1.94123 0
M  V30 1798 H 162.29 -1.46691 2.75478 0
M  V30 1799 N 162.591 -1.51276 -0.441967 0
M  V30 1800 C 163.816 -1.67799 -1.21895 0
M  V30 1801 C 164.241 -0.372864 -1.84367 0
M  V30 1802 O 163.599 0.666501 -1.68604 0
M  V30 1803 C 163.647 -2.79199 -2.28211 0
M  V30 1804 O 162.751 -2.42479 -3.33583 0
M  V30 1805 H 162.092 -0.559649 -0.357336 0
M  V30 1806 H 164.622 -1.97815 -0.522522 0
M  V30 1807 H 164.632 -3.03146 -2.73069 0
M  V30 1808 H 163.307 -3.73906 -1.82118 0
M  V30 1809 H 161.884 -2.29087 -2.94234 0
M  V30 1810 N 164.069 0.697108 -1.41344 0
M  V30 1811 C 164.979 1.84088 -1.45427 0
M  V30 1812 C 165.995 1.70545 -0.34501 0
M  V30 1813 O 167.171 1.92488 -0.592492 0
M  V30 1814 C 164.236 3.20056 -1.33286 0
M  V30 1815 C 163.297 3.45718 -2.54514 0
M  V30 1816 C 162.53 4.75199 -2.42944 0
M  V30 1817 O 162.753 5.51579 -1.45318 0
M  V30 1818 O 161.687 5.0161 -3.32672 0
M  V30 1819 H 165.513 1.836 -2.41919 0
M  V30 1820 H 163.098 0.849966 -1.22866 0
M  V30 1821 H 164.98 4.01236 -1.28794 0
M  V30 1822 H 163.655 3.2123 -0.39909 0
M  V30 1823 H 162.562 2.64474 -2.64583 0
M  V30 1824 H 163.895 3.49356 -3.46715 0
M  V30 1825 N 165.547 1.27147 0.931209 0
M  V30 1826 C 166.772 1.16191 1.71797 0
M  V30 1827 C 167.197 -0.278004 1.86034 0
M  V30 1828 O 166.555 -1.20137 1.35782 0
M  V30 1829 C 166.603 1.84673 3.09723 0
M  V30 1830 O 165.707 1.14231 3.96264 0
M  V30 1831 H 165.048 0.404303 0.526721 0
M  V30 1832 H 167.578 1.68152 1.1656 0
M  V30 1833 H 167.588 1.91893 3.60057 0
M  V30 1834 H 166.263 2.89421 2.98677 0
M  V30 1835 H 164.84 1.15056 3.54706 0
M  V30 1836 N 167.025 -1.13721 1.09112 0
M  V30 1837 C 168.25 -1.89314 0.847053 0
M  V30 1838 C 168.675 -1.78416 -0.595774 0
M  V30 1839 O 168.033 -1.12942 -1.41823 0
M  V30 1840 C 168.081 -3.3701 1.28284 0
M  V30 1841 O 167.185 -4.10054 0.439267 0
M  V30 1842 H 166.526 -0.588745 0.307044 0
M  V30 1843 H 169.056 -1.43902 1.45442 0
M  V30 1844 H 169.066 -3.87834 1.26683 0
M  V30 1845 H 167.741 -3.4426 2.33363 0
M  V30 1846 H 166.318 -3.69266 0.519312 0
M  V30 1847 N 168.503 -0.877838 -1.30888 0
M  V30 1848 C 169.749 -0.493426 -1.96706 0
M  V30 1849 C 170.082 0.953504 -1.6918 0
M  V30 1850 O 169.357 1.67266 -0.992594 0
M  V30 1851 C 169.64 -0.760429 -3.51979 0
M  V30 1852 C 169.493 -2.25747 -3.89048 0
M  V30 1853 C 170.812 -0.232148 -4.39487 0
M  V30 1854 H 167.931 -0.180746 -0.714493 0
M  V30 1855 H 170.573 -1.10052 -1.54882 0
M  V30 1856 H 168.723 -0.243715 -3.87735 0
M  V30 1857 H 170.395 -2.84204 -3.63354 0
M  V30 1858 H 168.638 -2.72694 -3.37373 0
M  V30 1859 H 169.309 -2.39491 -4.97341 0
M  V30 1860 H 171.785 -0.674314 -4.106 0
M  V30 1861 H 170.661 -0.448355 -5.47066 0
M  V30 1862 H 170.922 0.866297 -4.33529 0
M  V30 1863 N 169.982 1.44106 -0.638065 0
M  V30 1864 C 170.914 2.28976 0.101205 0
M  V30 1865 C 171.927 1.4167 0.802088 0
M  V30 1866 O 173.116 1.65755 0.662375 0
M  V30 1867 C 170.216 3.18217 1.16581 0
M  V30 1868 C 169.389 4.33978 0.546066 0
M  V30 1869 C 168.448 5.04202 1.50554 0
M  V30 1870 O 167.474 5.59986 1.01999 0
M  V30 1871 N 168.676 5.06296 2.8398 0
M  V30 1872 H 171.441 2.93064 -0.627186 0
M  V30 1873 H 169.002 1.54629 -0.479731 0
M  V30 1874 H 170.994 3.62061 1.80815 0
M  V30 1875 H 169.564 2.55833 1.79634 0
M  V30 1876 H 168.784 3.93239 -0.275046 0
M  V30 1877 H 170.072 5.08675 0.112793 0
M  V30 1878 H 169.47 4.62319 3.26002 0
M  V30 1879 H 168.027 5.53907 3.43556 0
M  V30 1880 N 171.46 0.379036 1.52974 0
M  V30 1881 C 172.709 -0.207612 2.00629 0
M  V30 1882 C 173.022 -1.48758 1.27006 0
M  V30 1883 O 174.228 -2.15365 1.65318 0
M  V30 1884 C 172.684 -0.42053 3.57435 0
M  V30 1885 C 172.292 0.845587 4.39948 0
M  V30 1886 C 174.036 -0.964102 4.13407 0
M  V30 1887 C 171.943 0.601513 5.88333 0
M  V30 1888 H 170.873 -0.0813591 0.749598 0
M  V30 1889 H 173.524 0.499853 1.76561 0
M  V30 1890 H 171.906 -1.18959 3.7771 0
M  V30 1891 H 173.08 1.61848 4.31442 0
M  V30 1892 H 171.395 1.31336 3.95145 0
M  V30 1893 H 173.992 -1.16225 5.21916 0
M  V30 1894 H 174.335 -1.93019 3.68849 0
M  V30 1895 H 174.868 -0.25487 3.96983 0
M  V30 1896 H 171.607 1.53831 6.37194 0
M  V30 1897 H 171.127 -0.132628 5.99653 0
M  V30 1898 H 172.806 0.232134 6.46583 0
M  V30 1899 N 172.938 -1.57226 0.108567 0
M  V30 1900 C 173.886 -2.16002 -0.862885 0
M  V30 1901 C 174.88 -1.10644 -1.28274 0
M  V30 1902 O 176.086 -1.28966 -1.2557 0
M  V30 1903 H 172.461 -0.691148 -0.296342 0
M  V30 1904 H 174.432 -2.96427 -0.342575 0
M  V30 1905 C 173.181 -2.76576 -2.10716 0
M  V30 1906 H 172.504 -3.5734 -1.793 0
M  V30 1907 H 173.944 -3.21253 -2.76717 0
M  V30 1908 C 172.403 -1.73137 -2.89007 0
M  V30 1909 O 172.933 -1.17842 -3.84026 0
M  V30 1910 N 171.139 -1.43317 -2.52801 0
M  V30 1911 H 170.686 -1.88473 -1.75601 0
M  V30 1912 H 170.644 -0.743485 -3.05483 0
M  V30 1913 N 174.416 0.165178 -1.56732 0
M  V30 1914 C 175.832 0.517174 -1.50988 0
M  V30 1915 C 176.032 1.84331 -0.813894 0
M  V30 1916 O 175.088 2.49672 -0.37682 0
M  V30 1917 C 176.401 0.544261 -2.95733 0
M  V30 1918 C 177.949 0.631039 -3.06573 0
M  V30 1919 C 178.424 0.68896 -4.52788 0
M  V30 1920 N 179.915 0.751683 -4.5706 0
M  V30 1921 C 180.65 0.817177 -5.67547 0
M  V30 1922 N 180.146 0.843129 -6.8765 0
M  V30 1923 N 181.939 0.856668 -5.55534 0
M  V30 1924 H 174.09 -0.704318 -2.00382 0
M  V30 1925 H 176.353 -0.254687 -0.913148 0
M  V30 1926 H 176.059 -0.361607 -3.49836 0
M  V30 1927 H 175.933 1.3886 -3.5071 0
M  V30 1928 H 178.32 1.52733 -2.52501 0
M  V30 1929 H 178.401 -0.240095 -2.54671 0
M  V30 1930 H 178.045 -0.2031 -5.07494 0
M  V30 1931 H 177.975 1.57633 -5.02454 0
M  V30 1932 H 180.466 0.739661 -3.70591 0
M  V30 1933 H 180.779 0.894448 -7.67606 0
M  V30 1934 H 179.124 0.811304 -6.90248 0
M  V30 1935 H 182.315 0.833437 -4.60621 0
M  V30 1936 H 182.488 0.904247 -6.4166 0
M  V30 1937 N 175.894 1.51508 0.433938 0
M  V30 1938 C 177.143 1.63578 1.18005 0
M  V30 1939 C 177.456 0.359514 1.92268 0
M  V30 1940 O 178.662 0.359632 2.69108 0
M  V30 1941 C 177.118 2.88901 2.14626 0
M  V30 1942 C 176.726 4.23544 1.45995 0
M  V30 1943 C 178.47 3.10328 2.89649 0
M  V30 1944 C 176.377 5.40014 2.4112 0
M  V30 1945 H 175.307 0.609277 0.444182 0
M  V30 1946 H 177.958 1.77978 0.446773 0
M  V30 1947 H 176.34 2.68142 2.91403 0
M  V30 1948 H 177.514 4.54696 0.747532 0
M  V30 1949 H 175.829 4.08021 0.831115 0
M  V30 1950 H 178.426 3.94518 3.60915 0
M  V30 1951 H 178.769 2.23544 3.51189 0
M  V30 1952 H 179.302 3.31443 2.19978 0
M  V30 1953 H 176.041 6.29068 1.84264 0
M  V30 1954 H 175.561 5.13233 3.10406 0
M  V30 1955 H 177.24 5.72099 3.02177 0
M  V30 1956 N 177.372 -0.689602 1.41712 0
M  V30 1957 C 178.619 -1.44966 1.4139 0
M  V30 1958 C 178.947 -1.94484 0.025105 0
M  V30 1959 O 178.202 -1.70307 -0.964048 0
M  V30 1960 C 178.501 -2.67298 2.37247 0
M  V30 1961 C 178.167 -2.36405 3.83958 0
M  V30 1962 C 176.829 -2.27691 4.23923 0
M  V30 1963 C 179.181 -2.11043 4.76561 0
M  V30 1964 C 176.509 -1.91719 5.54492 0
M  V30 1965 C 178.861 -1.76578 6.07456 0
M  V30 1966 C 177.525 -1.66363 6.46436 0
M  V30 1967 H 176.795 -0.53047 0.517381 0
M  V30 1968 H 179.442 -0.787655 1.74552 0
M  V30 1969 H 177.747 -3.38461 1.9736 0
M  V30 1970 H 179.444 -3.25452 2.34269 0
M  V30 1971 H 176.034 -2.44085 3.52308 0
M  V30 1972 H 180.218 -2.16717 4.46483 0
M  V30 1973 H 175.474 -1.82367 5.83568 0
M  V30 1974 H 179.648 -1.55974 6.78708 0
M  V30 1975 H 177.275 -1.38258 7.47522 0
M  V30 1976 N 178.85 -1.27639 -0.924453 0
M  V30 1977 C 180.096 -1.14336 -1.67497 0
M  V30 1978 C 180.429 0.309465 -1.91718 0
M  V30 1979 O 179.704 1.22608 -1.50989 0
M  V30 1980 C 179.987 -1.93096 -3.0395 0
M  V30 1981 C 179.84 -3.46381 -2.8695 0
M  V30 1982 C 181.159 -1.73798 -4.0433 0
M  V30 1983 H 178.278 -0.416728 -0.607871 0
M  V30 1984 H 180.92 -1.56832 -1.07256 0
M  V30 1985 H 179.07 -1.56982 -3.55372 0
M  V30 1986 H 180.742 -3.92343 -2.42621 0
M  V30 1987 H 178.985 -3.72557 -2.22225 0
M  V30 1988 H 179.656 -3.96735 -3.83804 0
M  V30 1989 H 182.132 -2.05293 -3.61931 0
M  V30 1990 H 181.008 -2.31294 -4.97789 0
M  V30 1991 H 181.269 -0.686725 -4.36734 0
M  V30 1992 N 180.328 1.1314 -1.09713 0
M  V30 1993 C 181.577 1.83838 -0.829851 0
M  V30 1994 C 181.89 1.84599 0.646728 0
M  V30 1995 O 183.096 2.51218 1.02965 0
M  V30 1996 C 181.552 3.30069 -1.43466 0
M  V30 1997 C 181.16 3.37688 -2.94399 0
M  V30 1998 C 182.904 4.05788 -1.24645 0
M  V30 1999 C 180.811 4.78209 -3.47952 0
M  V30 2000 H 179.741 0.68877 -0.306777 0
M  V30 2001 H 182.392 1.27448 -1.3202 0
M  V30 2002 H 180.774 3.8628 -0.871996 0
M  V30 2003 H 181.948 2.91456 -3.56918 0
M  V30 2004 H 180.263 2.75436 -3.12289 0
M  V30 2005 H 182.86 5.09535 -1.62107 0
M  V30 2006 H 183.203 4.15878 -0.187357 0
M  V30 2007 H 183.736 3.55915 -1.77678 0
M  V30 2008 H 180.475 4.73311 -4.53495 0
M  V30 2009 H 179.995 5.24924 -2.90198 0
M  V30 2010 H 181.674 5.47133 -3.45332 0
M  V30 2011 N 181.806 0.884767 1.30421 0
M  V30 2012 C 183.054 0.502112 1.95763 0
M  V30 2013 C 183.375 -0.951815 1.70192 0
M  V30 2014 O 182.645 -1.6692 1.0254 0
M  V30 2015 H 181.225 0.182694 0.724315 0
M  V30 2016 H 183.887 1.1278 1.58955 0
M  V30 2017 H 182.983 0.672188 3.04775 0
M  V30 2018 N 183.284 -1.43765 0.645699 0
M  V30 2019 C 184.532 -2.01499 0.155731 0
M  V30 2020 C 184.853 -1.51151 -1.232 0
M  V30 2021 O 184.123 -0.721044 -1.82148 0
M  V30 2022 H 182.703 -0.745003 0.0545817 0
M  V30 2023 H 185.365 -1.76075 0.835677 0
M  V30 2024 H 184.461 -3.1181 0.134577 0
M  V30 2025 N 184.763 -0.387143 -1.52771 0
M  V30 2026 C 185.726 0.436939 -2.24997 0
M  V30 2027 C 186.726 0.991991 -1.26555 0
M  V30 2028 O 187.916 0.874335 -1.50669 0
M  V30 2029 C 185.048 1.61281 -3.00335 0
M  V30 2030 H 186.241 -0.195365 -2.99263 0
M  V30 2031 H 183.794 -0.139218 -1.55679 0
M  V30 2032 H 184.529 2.2826 -2.30364 0
M  V30 2033 H 184.314 1.22154 -3.72587 0
M  V30 2034 H 185.804 2.19629 -3.5518 0
M  V30 2035 N 186.241 1.57166 -0.116904 0
M  V30 2036 C 187.173 2.12271 0.864507 0
M  V30 2037 C 188.186 1.06494 1.23138 0
M  V30 2038 O 189.375 1.33873 1.18069 0
M  V30 2039 C 186.475 2.60564 2.16702 0
M  V30 2040 C 185.648 3.90416 1.97216 0
M  V30 2041 C 184.707 4.24329 3.11178 0
M  V30 2042 O 183.733 4.93182 2.84184 0
M  V30 2043 N 184.935 3.8148 4.37554 0
M  V30 2044 H 187.7 2.97102 0.393726 0
M  V30 2045 H 185.261 1.61759 0.0675805 0
M  V30 2046 H 187.253 2.80282 2.91932 0
M  V30 2047 H 185.823 1.80623 2.55135 0
M  V30 2048 H 185.043 3.79627 1.06192 0
M  V30 2049 H 186.331 4.75327 1.81499 0
M  V30 2050 H 185.729 3.25943 4.62361 0
M  V30 2051 H 184.286 4.06311 5.09661 0
M  V30 2052 N 187.719 -0.156864 1.56817 0
M  V30 2053 C 188.649 -1.19589 2.00551 0
M  V30 2054 C 189.63 -1.4536 0.883426 0
M  V30 2055 O 190.815 -1.56449 1.15054 0
M  V30 2056 C 187.945 -2.53143 2.37773 0
M  V30 2057 C 186.899 -2.41913 3.53075 0
M  V30 2058 C 186.225 -3.80088 3.76081 0
M  V30 2059 C 187.525 -1.91157 4.86062 0
M  V30 2060 H 189.219 -0.832293 2.87599 0
M  V30 2061 H 186.765 -0.398918 1.38364 0
M  V30 2062 H 188.718 -3.26047 2.66967 0
M  V30 2063 H 187.442 -2.91319 1.4765 0
M  V30 2064 H 186.101 -1.71462 3.24031 0
M  V30 2065 H 185.749 -4.15683 2.83225 0
M  V30 2066 H 185.449 -3.73439 4.53671 0
M  V30 2067 H 186.973 -4.54556 4.0769 0
M  V30 2068 H 188.387 -2.53846 5.14038 0
M  V30 2069 H 186.784 -1.95422 5.67389 0
M  V30 2070 H 187.854 -0.866673 4.77092 0
M  V30 2071 N 189.197 -1.51736 -0.425897 0
M  V30 2072 C 190.427 -1.68549 -1.19476 0
M  V30 2073 C 190.835 -0.387288 -1.85194 0
M  V30 2074 O 190.178 0.645142 -1.71999 0
M  V30 2075 C 190.24 -2.75275 -2.31223 0
M  V30 2076 C 189.904 -4.17534 -1.8578 0
M  V30 2077 C 190.901 -5.01936 -1.35485 0
M  V30 2078 C 188.586 -4.6369 -1.93123 0
M  V30 2079 C 190.58 -6.30559 -0.931347 0
M  V30 2080 C 188.267 -5.92307 -1.50384 0
M  V30 2081 C 189.265 -6.75569 -1.00473 0
M  V30 2082 O 188.953 -8.0178 -0.583452 0
M  V30 2083 H 188.685 -0.568525 -0.365725 0
M  V30 2084 H 191.239 -1.98982 -0.509444 0
M  V30 2085 H 189.469 -2.40182 -3.03067 0
M  V30 2086 H 191.158 -2.80853 -2.93047 0
M  V30 2087 H 191.924 -4.67475 -1.29197 0
M  V30 2088 H 187.803 -3.98997 -2.30916 0
M  V30 2089 H 191.347 -6.95498 -0.541084 0
M  V30 2090 H 187.244 -6.2628 -1.56346 0
M  V30 2091 H 188.012 -8.1543 -0.708275 0
M  V30 2092 N 190.675 0.682077 -1.42076 0
M  V30 2093 C 191.622 1.79578 -1.44984 0
M  V30 2094 C 192.592 1.6332 -0.302614 0
M  V30 2095 O 193.777 1.83978 -0.505633 0
M  V30 2096 C 190.917 3.1756 -1.35091 0
M  V30 2097 C 190.03 3.45156 -2.59791 0
M  V30 2098 C 189.165 4.72826 -2.42093 0
M  V30 2099 C 188.204 4.93433 -3.62202 0
M  V30 2100 N 187.341 6.12338 -3.43491 0
M  V30 2101 H 192.181 1.76427 -2.40161 0
M  V30 2102 H 189.718 0.861376 -1.19242 0
M  V30 2103 H 191.676 3.97287 -1.27354 0
M  V30 2104 H 190.306 3.19854 -0.435133 0
M  V30 2105 H 189.358 2.59736 -2.77923 0
M  V30 2106 H 190.67 3.5628 -3.49094 0
M  V30 2107 H 189.824 5.60631 -2.319 0
M  V30 2108 H 188.563 4.63973 -1.50268 0
M  V30 2109 H 187.568 4.04073 -3.72834 0
M  V30 2110 H 188.793 5.04136 -4.54998 0
M  V30 2111 H 186.739 6.04672 -2.54377 0
M  V30 2112 H 186.656 6.2429 -4.26377 0
M  V30 2113 H 187.924 7.02841 -3.37097 0
M  V30 2114 N 192.153 1.28127 0.917671 0
M  V30 2115 C 193.116 1.11744 2.00115 0
M  V30 2116 C 194.116 0.0583052 1.60694 0
M  V30 2117 O 195.306 0.303755 1.71531 0
M  V30 2118 C 192.438 0.704862 3.33533 0
M  V30 2119 H 193.631 2.07966 2.16079 0
M  V30 2120 H 191.184 1.11058 1.09981 0
M  V30 2121 H 191.919 -0.258299 3.2327 0
M  V30 2122 H 191.704 1.4699 3.63505 0
M  V30 2123 H 193.194 0.612768 4.1308 0
M  V30 2124 N 193.631 -1.12557 1.10312 0
M  V30 2125 C 194.594 -2.16434 0.75424 0
M  V30 2126 C 195.594 -1.59278 -0.220685 0
M  V30 2127 O 196.784 -1.742 0.00230591 0
M  V30 2128 C 193.916 -3.40699 0.116987 0
M  V30 2129 H 195.109 -2.48811 1.67431 0
M  V30 2130 H 192.662 -1.27542 0.903475 0
M  V30 2131 H 193.397 -3.13921 -0.813877 0
M  V30 2132 H 193.182 -3.83459 0.818613 0
M  V30 2133 H 194.672 -4.17451 -0.111387 0
M  V30 2134 N 195.109 -0.891671 -1.2995 0
M  V30 2135 C 196.042 -0.307994 -2.26112 0
M  V30 2136 C 197.02 0.575262 -1.52084 0
M  V30 2137 O 198.204 0.523864 -1.81074 0
M  V30 2138 C 195.331 0.561734 -3.34009 0
M  V30 2139 C 194.377 -0.253107 -4.25748 0
M  V30 2140 S 195.21 -1.64572 -5.09584 0
M  V30 2141 C 196.366 -0.782699 -6.20987 0
M  V30 2142 H 196.599 -1.12309 -2.75271 0
M  V30 2143 H 194.132 -0.691509 -1.38049 0
M  V30 2144 H 196.09 1.05777 -3.96638 0
M  V30 2145 H 194.751 1.35099 -2.83561 0
M  V30 2146 H 193.944 0.410908 -5.02322 0
M  V30 2147 H 193.546 -0.682004 -3.67729 0
M  V30 2148 H 195.838 -0.00257476 -6.775 0
M  V30 2149 H 196.781 -1.52026 -6.91588 0
M  V30 2150 H 197.189 -0.340638 -5.63471 0
M  V30 2151 N 196.587 1.43421 -0.653314 0
M  V30 2152 C 197.864 1.95361 -0.0966581 0
M  V30 2153 C 198.244 1.59461 1.38331 0
M  V30 2154 O 197.592 0.879777 2.10884 0
M  V30 2155 C 197.802 3.47311 -0.342988 0
M  V30 2156 C 199.15 4.23875 -0.24798 0
M  V30 2157 O 200.174 3.55133 -0.275553 0
M  V30 2158 O 199.033 5.4623 -0.171771 0
M  V30 2159 H 196.127 0.826945 0.00956291 0
M  V30 2160 H 198.673 1.5336 -0.726558 0
M  V30 2161 H 197.445 3.66569 -1.36906 0
M  V30 2162 H 197.068 3.9631 0.319975 0
M  V30 2163 N 198.065 0.39524 1.52563 0
M  V30 2164 C 199.015 -0.4541 2.23432 0
M  V30 2165 C 199.999 -1.02482 1.24042 0
M  V30 2166 O 201.191 -0.949938 1.49349 0
M  V30 2167 C 198.32 -1.57769 3.049 0
M  V30 2168 C 197.406 -1.01842 4.1169 0
M  V30 2169 N 197.797 -0.184613 5.05463 0
M  V30 2170 C 196.095 -1.29033 4.26927 0
M  V30 2171 C 196.796 0.125013 5.81566 0
M  V30 2172 N 195.772 -0.480498 5.41472 0
M  V30 2173 H 199.574 0.189413 2.93289 0
M  V30 2174 H 197.088 0.204877 1.61102 0
M  V30 2175 H 199.085 -2.19862 3.54212 0
M  V30 2176 H 197.745 -2.22397 2.36579 0
M  V30 2177 H 198.756 0.178602 5.17592 0
M  V30 2178 H 195.433 -1.93721 3.69836 0
M  V30 2179 H 196.823 0.800962 6.67109 0
M  V30 2180 N 199.544 -1.57102 0.125237 0
M  V30 2181 C 200.955 -1.82384 -0.399142 0
M  V30 2182 C 201.306 -1.04276 -1.66195 0
M  V30 2183 O 200.431 -0.281269 -2.14564 0
M  V30 2184 C 201.026 -3.30821 -0.730932 0
M  V30 2185 C 199.585 -3.56762 -1.19992 0
M  V30 2186 C 198.732 -2.7649 -0.211792 0
M  V30 2187 H 201.683 -1.54786 0.350277 0
M  V30 2188 H 201.704 -3.4579 -1.58775 0
M  V30 2189 H 201.216 -3.87643 0.188345 0
M  V30 2190 H 199.317 -3.05305 -2.13588 0
M  V30 2191 H 199.43 -4.65317 -1.14093 0
M  V30 2192 H 197.794 -2.4489 -0.700085 0
M  V30 2193 H 198.577 -3.36073 0.700691 0
M  V30 2194 N 201.022 0.148545 -1.56898 0
M  V30 2195 C 201.969 1.18345 -1.98149 0
M  V30 2196 C 202.939 1.42772 -0.848848 0
M  V30 2197 O 204.124 1.55132 -1.11079 0
M  V30 2198 C 201.264 2.51231 -2.36594 0
M  V30 2199 C 200.377 2.33991 -3.63142 0
M  V30 2200 C 199.512 3.59902 -3.90697 0
M  V30 2201 C 198.551 3.37692 -5.1052 0
M  V30 2202 N 197.688 4.5573 -5.34092 0
M  V30 2203 H 202.528 0.82467 -2.86362 0
M  V30 2204 H 200.065 0.395756 -1.41676 0
M  V30 2205 H 202.023 3.28713 -2.56912 0
M  V30 2206 H 200.653 2.85059 -1.51463 0
M  V30 2207 H 199.705 1.47572 -3.50609 0
M  V30 2208 H 201.017 2.13539 -4.5078 0
M  V30 2209 H 200.171 4.45813 -4.11505 0
M  V30 2210 H 198.91 3.83357 -3.01477 0
M  V30 2211 H 197.915 2.5017 -4.89587 0
M  V30 2212 H 199.14 3.15637 -6.0129 0
M  V30 2213 H 197.086 4.79361 -4.47827 0
M  V30 2214 H 197.003 4.38274 -6.15996 0
M  V30 2215 H 198.271 5.42858 -5.59397 0
M  V30 2216 N 202.5 1.5196 0.417844 0
M  V30 2217 C 203.43 1.77634 1.51554 0
M  V30 2218 C 204.411 0.626918 1.58126 0
M  V30 2219 O 205.596 0.871632 1.7354 0
M  V30 2220 C 202.726 1.91911 2.8946 0
M  V30 2221 C 201.68 3.07463 2.97743 0
M  V30 2222 C 201.006 3.06951 4.37819 0
M  V30 2223 C 202.306 4.47082 2.70027 0
M  V30 2224 H 204 2.6955 1.3032 0
M  V30 2225 H 201.546 1.29706 0.625492 0
M  V30 2226 H 203.499 2.08455 3.6623 0
M  V30 2227 H 202.223 0.966598 3.11969 0
M  V30 2228 H 200.882 2.90656 2.23416 0
M  V30 2229 H 200.53 2.09438 4.57323 0
M  V30 2230 H 200.23 3.84556 4.44286 0
M  V30 2231 H 201.754 3.25613 5.16535 0
M  V30 2232 H 203.168 4.6414 3.36522 0
M  V30 2233 H 201.565 5.2654 2.87881 0
M  V30 2234 H 202.635 4.55777 1.65514 0
M  V30 2235 N 203.978 -0.674533 1.42435 0
M  V30 2236 C 205.255 -1.4305 1.33402 0
M  V30 2237 C 205.635 -2.11081 -0.0284674 0
M  V30 2238 O 204.983 -2.03257 -1.04397 0
M  V30 2239 C 205.193 -2.43272 2.50239 0
M  V30 2240 C 206.541 -3.07907 2.92367 0
M  V30 2241 O 207.565 -2.53599 2.50132 0
M  V30 2242 O 206.424 -4.0632 3.65467 0
M  V30 2243 H 203.518 -0.638076 0.526106 0
M  V30 2244 H 206.064 -0.703235 1.54443 0
M  V30 2245 H 204.836 -1.91803 3.41068 0
M  V30 2246 H 204.459 -3.23479 2.31186 0
M  V30 2247 N 205.456 -1.28612 -0.910864 0
M  V30 2248 C 206.872 -1.06381 -1.18976 0
M  V30 2249 C 207.072 0.191998 -2.00583 0
M  V30 2250 O 206.128 0.892869 -2.36187 0
M  V30 2251 C 207.441 -2.31295 -1.92154 0
M  V30 2252 C 208.989 -2.36503 -2.05025 0
M  V30 2253 C 209.464 -3.61191 -2.81612 0
M  V30 2254 N 210.955 -3.61847 -2.89172 0
M  V30 2255 C 211.69 -4.55004 -3.4894 0
M  V30 2256 N 211.186 -5.58482 -4.09963 0
M  V30 2257 N 212.979 -4.42594 -3.46506 0
M  V30 2258 H 205.13 -2.09221 -0.366094 0
M  V30 2259 H 207.393 -0.921003 -0.224629 0
M  V30 2260 H 207.099 -3.228 -1.39618 0
M  V30 2261 H 206.973 -2.37934 -2.9269 0
M  V30 2262 H 209.36 -1.45494 -2.5674 0
M  V30 2263 H 209.441 -2.33857 -1.03657 0
M  V30 2264 H 209.085 -4.52545 -2.30576 0
M  V30 2265 H 209.015 -3.61092 -3.83302 0
M  V30 2266 H 211.506 -2.87022 -2.45819 0
M  V30 2267 H 211.819 -6.25704 -4.53557 0
M  V30 2268 H 210.164 -5.62305 -4.08459 0
M  V30 2269 H 213.355 -3.60953 -2.98045 0
M  V30 2270 H 213.528 -5.15381 -3.92793 0
M  V30 2271 N 206.934 1.1197 -1.10907 0
M  V30 2272 C 208.183 1.82947 -0.849302 0
M  V30 2273 C 208.496 1.85275 0.627112 0
M  V30 2274 O 209.702 2.52296 1.00295 0
M  V30 2275 C 208.158 3.28529 -1.46959 0
M  V30 2276 C 207.766 3.34546 -2.97965 0
M  V30 2277 C 209.51 4.04443 -1.28942 0
M  V30 2278 C 207.417 4.74491 -3.53004 0
M  V30 2279 H 206.347 0.685477 -0.314065 0
M  V30 2280 H 208.998 1.2604 -1.33365 0
M  V30 2281 H 207.38 3.85333 -0.912917 0
M  V30 2282 H 208.554 2.87654 -3.59989 0
M  V30 2283 H 206.869 2.72108 -3.15192 0
M  V30 2284 H 209.466 5.07787 -1.67502 0
M  V30 2285 H 209.809 4.15656 -0.231456 0
M  V30 2286 H 210.342 3.5401 -1.81443 0
M  V30 2287 H 207.081 4.68474 -4.58489 0
M  V30 2288 H 206.601 5.21816 -2.9575 0
M  V30 2289 H 208.28 5.4344 -3.51115 0
M  V30 2290 N 208.412 0.89855 1.29475 0
M  V30 2291 C 209.345 0.319981 2.25945 0
M  V30 2292 C 210.323 -0.567189 1.52387 0
M  V30 2293 O 211.507 -0.514254 1.8135 0
M  V30 2294 C 208.634 -0.544013 3.34303 0
M  V30 2295 C 207.68 0.275682 4.25608 0
M  V30 2296 S 208.513 1.67272 5.08704 0
M  V30 2297 C 209.669 0.815621 6.20563 0
M  V30 2298 H 209.902 1.13767 2.74671 0
M  V30 2299 H 207.435 0.69882 1.3768 0
M  V30 2300 H 209.393 -1.03673 3.97193 0
M  V30 2301 H 208.054 -1.33593 2.84274 0
M  V30 2302 H 207.247 -0.384263 5.02533 0
M  V30 2303 H 206.849 0.701496 3.67362 0
M  V30 2304 H 209.141 0.0385042 6.77489 0
M  V30 2305 H 210.084 1.55691 6.90772 0
M  V30 2306 H 210.492 0.370516 5.63283 0
M  V30 2307 N 209.89 -1.43072 0.660911 0
M  V30 2308 C 210.853 -2.29194 -0.0166406 0
M  V30 2309 C 211.853 -1.42609 -0.742912 0
M  V30 2310 O 213.043 -1.64155 -0.583004 0
M  V30 2311 C 210.175 -3.24831 -1.0343 0
M  V30 2312 H 211.368 -2.90596 0.741208 0
M  V30 2313 H 208.921 -1.5048 0.422532 0
M  V30 2314 H 209.656 -2.68339 -1.82111 0
M  V30 2315 H 209.441 -3.88676 -0.517082 0
M  V30 2316 H 210.931 -3.89451 -1.50723 0
M  V30 2317 N 211.368 -0.403325 -1.52352 0
M  V30 2318 C 212.596 0.174012 -2.06167 0
M  V30 2319 C 213.011 1.39347 -1.27388 0
M  V30 2320 O 212.368 1.79597 -0.324201 0
M  V30 2321 C 212.419 0.530223 -3.5759 0
M  V30 2322 O 212.14 -0.640806 -4.33388 0
M  V30 2323 C 213.641 1.16192 -4.27802 0
M  V30 2324 H 210.861 0.0229464 -0.670608 0
M  V30 2325 H 213.405 -0.572604 -1.9632 0
M  V30 2326 H 211.56 1.22673 -3.67464 0
M  V30 2327 H 211.974 -0.344851 -5.23365 0
M  V30 2328 H 213.448 1.36141 -5.34948 0
M  V30 2329 H 213.925 2.13335 -3.83907 0
M  V30 2330 H 214.531 0.505775 -4.22282 0
M  V30 2331 N 212.846 1.57033 -0.133567 0
M  V30 2332 C 214.095 1.94861 0.520768 0
M  V30 2333 C 214.408 1.02012 1.66892 0
M  V30 2334 O 215.614 1.29365 2.38699 0
M  V30 2335 C 214.07 3.46362 0.977809 0
M  V30 2336 C 213.678 4.47773 -0.142674 0
M  V30 2337 C 215.422 3.93083 1.60269 0
M  V30 2338 C 213.329 5.90468 0.331883 0
M  V30 2339 H 212.259 0.727453 0.198315 0
M  V30 2340 H 214.91 1.82227 -0.215759 0
M  V30 2341 H 213.292 3.54282 1.7692 0
M  V30 2342 H 214.466 4.51536 -0.919317 0
M  V30 2343 H 212.781 4.10891 -0.675124 0
M  V30 2344 H 215.378 4.97121 1.96914 0
M  V30 2345 H 215.721 3.33876 2.48662 0
M  V30 2346 H 216.254 3.88025 0.876453 0
M  V30 2347 H 212.993 6.53463 -0.516341 0
M  V30 2348 H 212.513 5.90094 1.07469 0
M  V30 2349 H 214.192 6.42179 0.788332 0
M  V30 2350 N 214.325 -0.140222 1.56975 0
M  V30 2351 C 215.574 -0.850152 1.82908 0
M  V30 2352 C 215.887 -1.82028 0.715892 0
M  V30 2353 O 217.093 -2.57485 0.861016 0
M  V30 2354 C 215.549 -1.5625 3.24213 0
M  V30 2355 C 215.157 -0.63443 4.43485 0
M  V30 2356 C 216.901 -2.25881 3.59413 0
M  V30 2357 C 214.808 -1.34879 5.75814 0
M  V30 2358 H 213.738 -0.321221 0.682153 0
M  V30 2359 H 216.389 -0.102874 1.83211 0
M  V30 2360 H 214.771 -2.35565 3.18316 0
M  V30 2361 H 215.945 0.12398 4.60633 0
M  V30 2362 H 214.26 -0.0461836 4.16374 0
M  V30 2363 H 216.857 -2.79978 4.5554 0
M  V30 2364 H 217.2 -3.02693 2.85802 0
M  V30 2365 H 217.733 -1.53477 3.67001 0
M  V30 2366 H 214.472 -0.622385 6.52539 0
M  V30 2367 H 213.992 -2.07974 5.6259 0
M  V30 2368 H 215.671 -1.88784 6.18845 0
M  V30 2369 N 215.803 -1.52179 -0.40978 0
M  V30 2370 C 217.033 -1.69807 -1.17682 0
M  V30 2371 C 217.441 -0.406908 -1.84773 0
M  V30 2372 O 216.784 0.626863 -1.72673 0
M  V30 2373 C 216.846 -2.77712 -2.2829 0
M  V30 2374 C 216.51 -4.19481 -1.81341 0
M  V30 2375 C 217.507 -5.03345 -1.30154 0
M  V30 2376 C 215.192 -4.65713 -1.88194 0
M  V30 2377 C 217.186 -6.31511 -0.864416 0
M  V30 2378 C 214.873 -5.93869 -1.44093 0
M  V30 2379 C 215.871 -6.76597 -0.933023 0
M  V30 2380 O 215.559 -8.02354 -0.49838 0
M  V30 2381 H 215.291 -0.572372 -0.359675 0
M  V30 2382 H 217.845 -1.99511 -0.488311 0
M  V30 2383 H 216.075 -2.43383 -3.00502 0
M  V30 2384 H 217.764 -2.83946 -2.90051 0
M  V30 2385 H 218.53 -4.68819 -1.24232 0
M  V30 2386 H 214.409 -4.01424 -2.26671 0
M  V30 2387 H 217.953 -6.96033 -0.467286 0
M  V30 2388 H 213.85 -6.27903 -1.49694 0
M  V30 2389 H 214.618 -8.16135 -0.621747 0
M  V30 2390 N 217.281 0.66697 -1.42791 0
M  V30 2391 C 218.228 1.7803 -1.4688 0
M  V30 2392 C 219.198 1.6299 -0.319919 0
M  V30 2393 O 220.383 1.83432 -0.525118 0
M  V30 2394 C 217.523 3.1611 -1.38451 0
M  V30 2395 C 216.636 3.42381 -2.63437 0
M  V30 2396 C 215.771 4.70232 -2.47094 0
M  V30 2397 C 214.81 4.89564 -3.67415 0
M  V30 2398 N 213.947 6.08661 -3.49966 0
M  V30 2399 H 218.787 1.7387 -2.42019 0
M  V30 2400 H 216.324 0.84868 -1.20149 0
M  V30 2401 H 218.282 3.95914 -1.31561 0
M  V30 2402 H 216.912 3.19374 -0.469033 0
M  V30 2403 H 215.964 2.56774 -2.80662 0
M  V30 2404 H 217.276 3.52557 -3.52853 0
M  V30 2405 H 216.43 5.5814 -2.37834 0
M  V30 2406 H 215.169 4.62353 -1.5518 0
M  V30 2407 H 214.174 4.00096 -3.77099 0
M  V30 2408 H 215.399 4.99282 -4.6032 0
M  V30 2409 H 213.345 6.0194 -2.60776 0
M  V30 2410 H 213.262 6.19733 -4.32975 0
M  V30 2411 H 214.53 6.99226 -3.44532 0
M  V30 2412 N 218.759 1.29093 0.90403 0
M  V30 2413 C 220.036 1.075 1.63411 0
M  V30 2414 C 220.416 -0.382346 2.07609 0
M  V30 2415 O 219.764 -1.37031 1.82851 0
M  V30 2416 C 219.974 2.05858 2.81822 0
M  V30 2417 C 221.322 2.36539 3.52611 0
M  V30 2418 O 222.346 2.04019 2.91984 0
M  V30 2419 O 221.205 2.92085 4.61897 0
M  V30 2420 H 218.299 0.411547 0.717327 0
M  V30 2421 H 220.845 1.40449 0.952479 0
M  V30 2422 H 219.617 3.04037 2.46327 0
M  V30 2423 H 219.24 1.73613 3.57693 0
M  V30 2424 N 220.237 -1.11381 1.11499 0
M  V30 2425 C 221.486 -1.82494 0.858993 0
M  V30 2426 C 221.799 -1.85605 -0.617278 0
M  V30 2427 O 223.005 -2.52824 -0.989552 0
M  V30 2428 C 221.461 -3.27745 1.48699 0
M  V30 2429 C 221.069 -3.32961 2.99735 0
M  V30 2430 C 222.813 -4.03754 1.31085 0
M  V30 2431 C 220.72 -4.72612 3.55516 0
M  V30 2432 H 219.65 -0.683802 0.317696 0
M  V30 2433 H 222.301 -1.25331 1.34031 0
M  V30 2434 H 220.683 -3.84844 0.933339 0
M  V30 2435 H 221.857 -2.85741 3.61509 0
M  V30 2436 H 220.172 -2.70433 3.16631 0
M  V30 2437 H 222.769 -5.06891 1.70192 0
M  V30 2438 H 223.112 -4.15527 0.253496 0
M  V30 2439 H 223.645 -3.53043 1.83318 0
M  V30 2440 H 220.384 -4.66036 4.60967 0
M  V30 2441 H 219.904 -5.2024 2.98513 0
M  V30 2442 H 221.583 -5.4157 3.53992 0
M  V30 2443 N 221.715 -0.905404 -1.28997 0
M  V30 2444 C 222.665 -0.358713 -2.25161 0
M  V30 2445 C 223.649 0.524449 -1.52113 0
M  V30 2446 O 224.841 0.365534 -1.73184 0
M  V30 2447 C 221.97 0.407609 -3.40872 0
M  V30 2448 C 221.056 -0.490797 -4.21251 0
M  V30 2449 N 221.447 -1.60061 -4.79806 0
M  V30 2450 C 219.745 -0.289636 -4.45059 0
M  V30 2451 C 220.446 -2.15757 -5.40207 0
M  V30 2452 N 219.422 -1.44988 -5.23908 0
M  V30 2453 H 223.224 -1.20642 -2.67998 0
M  V30 2454 H 220.738 -0.757103 -1.43672 0
M  V30 2455 H 222.735 0.816046 -4.08835 0
M  V30 2456 H 221.395 1.25251 -2.9957 0
M  V30 2457 H 222.406 -1.98329 -4.7842 0
M  V30 2458 H 219.083 0.51643 -4.14294 0
M  V30 2459 H 220.473 -3.09069 -5.96595 0
M  V30 2460 N 223.193 1.4272 -0.668489 0
M  V30 2461 C 224.433 2.03497 -0.19194 0
M  V30 2462 C 224.797 1.51684 1.17712 0
M  V30 2463 O 225.998 2.04205 1.74796 0
M  V30 2464 C 224.269 3.56734 -0.218032 0
M  V30 2465 S 225.828 4.38395 0.188438 0
M  V30 2466 H 222.646 0.706542 -0.0794959 0
M  V30 2467 H 225.248 1.74563 -0.880235 0
M  V30 2468 H 223.952 3.91943 -1.2169 0
M  V30 2469 H 223.483 3.90333 0.490303 0
M  V30 2470 H 225.498 4.75345 1.42345 0
M  V30 2471 N 224.671 0.411399 1.52136 0
M  V30 2472 C 225.948 -0.222308 1.94333 0
M  V30 2473 C 226.328 -1.6242 1.34844 0
M  V30 2474 O 225.676 -2.22384 0.525145 0
M  V30 2475 C 225.886 -0.226345 3.48265 0
M  V30 2476 C 227.234 -0.444592 4.22266 0
M  V30 2477 O 228.258 -0.305602 3.54887 0
M  V30 2478 O 227.117 -0.718749 5.41753 0
M  V30 2479 H 224.211 -0.143907 0.814383 0
M  V30 2480 H 226.757 0.467506 1.63133 0
M  V30 2481 H 225.529 0.75475 3.83952 0
M  V30 2482 H 225.152 -0.960163 3.85832 0
M  V30 2483 N 226.149 -1.5696 0.141893 0
M  V30 2484 C 227.395 -1.9625 -0.511248 0
M  V30 2485 C 227.728 -1.02654 -1.64851 0
M  V30 2486 O 227.003 -0.0679676 -1.94381 0
M  V30 2487 C 227.286 -3.45285 -1.02227 0
M  V30 2488 C 227.139 -4.49658 0.113138 0
M  V30 2489 C 228.458 -3.96698 -1.90574 0
M  V30 2490 H 225.577 -0.713567 -0.184367 0
M  V30 2491 H 228.219 -1.88698 0.222087 0
M  V30 2492 H 226.369 -3.51852 -1.64719 0
M  V30 2493 H 228.041 -4.55174 0.749302 0
M  V30 2494 H 226.284 -4.26857 0.773026 0
M  V30 2495 H 226.955 -5.51258 -0.286053 0
M  V30 2496 H 229.431 -3.92578 -1.37918 0
M  V30 2497 H 228.307 -5.01453 -2.2324 0
M  V30 2498 H 228.568 -3.3875 -2.84079 0
M  V30 2499 N 227.627 0.131896 -1.57047 0
M  V30 2500 C 228.874 0.841932 -1.84168 0
M  V30 2501 C 229.202 1.8048 -0.725066 0
M  V30 2502 O 228.457 1.93618 0.284692 0
M  V30 2503 C 228.756 1.63703 -3.17704 0
M  V30 2504 C 228.422 0.81961 -4.43388 0
M  V30 2505 C 227.084 0.594148 -4.77518 0
M  V30 2506 C 229.436 0.248977 -5.20605 0
M  V30 2507 C 226.764 -0.212409 -5.86315 0
M  V30 2508 C 229.116 -0.544701 -6.30251 0
M  V30 2509 C 227.78 -0.780599 -6.6292 0
M  V30 2510 H 227.05 0.308085 -0.673917 0
M  V30 2511 H 229.697 0.104867 -1.91213 0
M  V30 2512 H 228.002 2.44464 -3.06177 0
M  V30 2513 H 229.699 2.19015 -3.35907 0
M  V30 2514 H 226.289 1.00542 -4.16641 0
M  V30 2515 H 230.473 0.410408 -4.946 0
M  V30 2516 H 225.729 -0.404524 -6.1006 0
M  V30 2517 H 229.903 -0.993922 -6.89271 0
M  V30 2518 H 227.53 -1.40742 -7.47058 0
M  V30 2519 N 229.106 1.52395 0.401703 0
M  V30 2520 C 230.353 1.66817 1.14796 0
M  V30 2521 C 230.681 0.401772 1.90305 0
M  V30 2522 O 229.936 -0.615487 1.85769 0
M  V30 2523 C 230.235 2.84578 2.16217 0
M  V30 2524 C 229.901 4.22513 1.5746 0
M  V30 2525 C 228.563 4.60029 1.41161 0
M  V30 2526 C 230.915 5.0844 1.14622 0
M  V30 2527 C 228.243 5.81144 0.80552 0
M  V30 2528 C 230.595 6.30167 0.55428 0
M  V30 2529 C 229.259 6.66426 0.378482 0
M  V30 2530 H 228.529 0.610428 0.420069 0
M  V30 2531 H 231.176 1.86512 0.434212 0
M  V30 2532 H 229.481 2.59248 2.93764 0
M  V30 2533 H 231.178 2.92933 2.73845 0
M  V30 2534 H 227.768 3.92953 1.71132 0
M  V30 2535 H 231.952 4.80034 1.26021 0
M  V30 2536 H 227.208 6.07855 0.657399 0
M  V30 2537 H 231.382 6.96071 0.213983 0
M  V30 2538 H 229.009 7.60143 -0.0932606 0
M  V30 2539 N 230.584 -0.659388 1.43143 0
M  V30 2540 C 231.995 -1.24041 1.39537 0
M  V30 2541 C 232.346 -1.95963 0.0963364 0
M  V30 2542 O 231.471 -2.00892 -0.804438 0
M  V30 2543 C 232.066 -2.25601 2.52764 0
M  V30 2544 C 230.625 -2.79195 2.52443 0
M  V30 2545 C 229.772 -1.53743 2.30778 0
M  V30 2546 H 232.723 -0.451792 1.52133 0
M  V30 2547 H 232.744 -3.07651 2.23899 0
M  V30 2548 H 232.256 -1.73226 3.47296 0
M  V30 2549 H 230.357 -3.35649 1.61773 0
M  V30 2550 H 230.47 -3.2716 3.50004 0
M  V30 2551 H 228.834 -1.80869 1.79328 0
M  V30 2552 H 229.617 -1.03312 3.27386 0
M  V30 2553 N 232.062 -1.29571 -0.897171 0
M  V30 2554 C 232.992 -1.17473 -2.01798 0
M  V30 2555 C 233.973 -0.068323 -1.69963 0
M  V30 2556 O 235.158 -0.248239 -1.92607 0
M  V30 2557 C 232.288 -0.853099 -3.36659 0
M  V30 2558 C 231.242 -1.9161 -3.82713 0
M  V30 2559 C 230.568 -1.44773 -5.14728 0
M  V30 2560 C 231.868 -3.32535 -4.02763 0
M  V30 2561 H 233.562 -2.11237 -2.12177 0
M  V30 2562 H 231.108 -1.01699 -1.01948 0
M  V30 2563 H 233.061 -0.755165 -4.14578 0
M  V30 2564 H 231.785 0.120236 -3.26379 0
M  V30 2565 H 230.444 -2.00346 -3.07013 0
M  V30 2566 H 230.092 -0.462995 -5.00865 0
M  V30 2567 H 229.792 -2.15865 -5.46513 0
M  V30 2568 H 231.316 -1.36334 -5.95185 0
M  V30 2569 H 232.73 -3.26626 -4.71156 0
M  V30 2570 H 231.127 -4.01607 -4.45905 0
M  V30 2571 H 232.197 -3.75326 -3.07016 0
M  V30 2572 N 233.54 1.10788 -1.12088 0
M  V30 2573 C 234.487 2.17025 -0.785407 0
M  V30 2574 C 235.457 1.64265 0.246191 0
M  V30 2575 O 236.642 1.90412 0.121584 0
M  V30 2576 C 233.782 3.44249 -0.242177 0
M  V30 2577 C 232.895 4.1098 -1.33115 0
M  V30 2578 C 232.03 5.25911 -0.747741 0
M  V30 2579 C 231.069 5.84538 -1.81609 0
M  V30 2580 N 230.206 6.90853 -1.25167 0
M  V30 2581 H 235.046 2.45066 -1.69548 0
M  V30 2582 H 232.583 1.20297 -0.846582 0
M  V30 2583 H 234.541 4.17101 0.0908026 0
M  V30 2584 H 233.171 3.16571 0.631072 0
M  V30 2585 H 232.223 3.36133 -1.78097 0
M  V30 2586 H 233.535 4.50601 -2.13917 0
M  V30 2587 H 232.689 6.056 -0.365216 0
M  V30 2588 H 231.428 4.87614 0.0915188 0
M  V30 2589 H 230.433 5.03522 -2.20785 0
M  V30 2590 H 231.658 6.249 -2.6585 0
M  V30 2591 H 229.604 6.54562 -0.434174 0
M  V30 2592 H 229.521 7.29166 -1.99633 0
M  V30 2593 H 230.789 7.7433 -0.896259 0
M  V30 2594 N 235.018 0.912232 1.28515 0
M  V30 2595 C 236.265 0.544599 1.95039 0
M  V30 2596 C 236.593 -0.911435 1.71823 0
M  V30 2597 O 235.848 -1.66317 1.03137 0
M  V30 2598 C 236.147 0.798392 3.48368 0
M  V30 2599 C 235.813 2.23374 3.91682 0
M  V30 2600 C 234.475 2.62617 4.03219 0
M  V30 2601 C 236.827 3.16786 4.13879 0
M  V30 2602 C 234.155 3.94429 4.3433 0
M  V30 2603 C 236.507 4.48161 4.46469 0
M  V30 2604 C 235.171 4.8726 4.56217 0
M  V30 2605 H 234.441 0.199283 0.7137 0
M  V30 2606 H 237.088 1.15327 1.52879 0
M  V30 2607 H 235.393 0.106908 3.91654 0
M  V30 2608 H 237.09 0.493141 3.97956 0
M  V30 2609 H 233.68 1.91922 3.83228 0
M  V30 2610 H 237.864 2.87677 4.0442 0
M  V30 2611 H 233.12 4.24426 4.40082 0
M  V30 2612 H 237.294 5.20559 4.62592 0
M  V30 2613 H 234.921 5.89431 4.80078 0
M  V30 2614 N 236.496 -1.42363 0.676048 0
M  V30 2615 C 237.912 -1.55811 0.345718 0
M  V30 2616 C 238.112 -1.65544 -1.14879 0
M  V30 2617 O 237.168 -1.62306 -1.93424 0
M  V30 2618 C 238.481 -2.80746 1.07713 0
M  V30 2619 C 240.029 -2.9452 1.05958 0
M  V30 2620 C 240.504 -4.22318 1.77233 0
M  V30 2621 N 241.995 -4.29233 1.74108 0
M  V30 2622 C 242.73 -5.26935 2.26113 0
M  V30 2623 N 242.226 -6.30783 2.86505 0
M  V30 2624 N 244.019 -5.18741 2.1648 0
M  V30 2625 H 236.17 -1.34289 1.6456 0
M  V30 2626 H 238.433 -0.646506 0.69335 0
M  V30 2627 H 238.139 -2.79696 2.13221 0
M  V30 2628 H 238.013 -3.71676 0.64316 0
M  V30 2629 H 240.4 -2.95097 0.0128255 0
M  V30 2630 H 240.481 -2.04817 1.53244 0
M  V30 2631 H 240.125 -4.22502 2.81877 0
M  V30 2632 H 240.055 -5.10958 1.27396 0
M  V30 2633 H 242.546 -3.54814 1.30059 0
M  V30 2634 H 242.859 -7.01691 3.23805 0
M  V30 2635 H 241.204 -6.31341 2.90575 0
M  V30 2636 H 244.395 -4.36533 1.68987 0
M  V30 2637 H 244.568 -5.94721 2.57316 0
M  V30 2638 N 237.974 -0.419461 -1.51915 0
M  V30 2639 C 239.251 0.211999 -1.94448 0
M  V30 2640 C 239.631 1.61703 -1.35703 0
M  V30 2641 O 238.979 2.22102 -0.536931 0
M  V30 2642 C 239.189 0.207872 -3.4838 0
M  V30 2643 C 240.537 0.422192 -4.22496 0
M  V30 2644 O 241.561 0.286778 -3.55044 0
M  V30 2645 O 240.42 0.690009 -5.42126 0
M  V30 2646 H 237.514 0.139586 -0.815135 0
M  V30 2647 H 240.06 -0.476151 -1.62883 0
M  V30 2648 H 238.832 -0.775102 -3.83546 0
M  V30 2649 H 238.455 0.939688 -3.86336 0
M  V30 2650 N 239.452 1.56882 -0.150215 0
M  V30 2651 C 240.399 2.16922 0.788244 0
M  V30 2652 C 241.369 1.10303 1.24187 0
M  V30 2653 O 242.554 1.38359 1.31383 0
M  V30 2654 C 239.694 2.79754 2.02068 0
M  V30 2655 C 238.807 4.00775 1.61257 0
M  V30 2656 C 237.942 4.51595 2.79705 0
M  V30 2657 C 236.981 5.65074 2.35282 0
M  V30 2658 N 236.118 6.10499 3.4675 0
M  V30 2659 H 240.958 2.96779 0.269444 0
M  V30 2660 H 238.495 1.46599 0.12128 0
M  V30 2661 H 240.453 3.14329 2.74323 0
M  V30 2662 H 239.083 2.02536 2.51354 0
M  V30 2663 H 238.135 3.72158 0.787553 0
M  V30 2664 H 239.447 4.82978 1.24633 0
M  V30 2665 H 238.601 4.88242 3.60145 0
M  V30 2666 H 237.34 3.68406 3.19576 0
M  V30 2667 H 236.345 5.28 1.53283 0
M  V30 2668 H 237.57 6.50052 1.96493 0
M  V30 2669 H 235.516 5.30243 3.86236 0
M  V30 2670 H 235.433 6.87637 3.14152 0
M  V30 2671 H 236.701 6.51791 4.27537 0
M  V30 2672 N 240.93 -0.123565 1.57115 0
M  V30 2673 C 241.84 -1.17074 2.033 0
M  V30 2674 C 242.856 -1.4561 0.952559 0
M  V30 2675 O 244.032 -1.56817 1.26374 0
M  V30 2676 C 241.097 -2.47857 2.42421 0
M  V30 2677 C 240.158 -2.26758 3.64526 0
M  V30 2678 C 239.391 -3.51305 4.01771 0
M  V30 2679 O 239.614 -4.5843 3.39409 0
M  V30 2680 O 238.548 -3.42578 4.94898 0
M  V30 2681 H 242.374 -0.808555 2.92739 0
M  V30 2682 H 239.959 -0.334027 1.45618 0
M  V30 2683 H 241.841 -3.2492 2.68338 0
M  V30 2684 H 240.516 -2.83558 1.5613 0
M  V30 2685 H 239.423 -1.47569 3.43765 0
M  V30 2686 H 240.756 -1.95963 4.51508 0
M  V30 2687 N 242.408 -1.52605 -0.393616 0
M  V30 2688 C 243.654 -1.68624 -1.13743 0
M  V30 2689 C 244.009 -0.418687 -1.87789 0
M  V30 2690 O 243.302 0.58747 -1.82371 0
M  V30 2691 C 243.496 -2.85721 -2.14705 0
M  V30 2692 C 243.325 -4.23742 -1.50575 0
M  V30 2693 C 242.095 -4.89033 -1.2718 0
M  V30 2694 C 244.293 -5.05293 -0.958311 0
M  V30 2695 N 242.275 -6.11048 -0.591058 0
M  V30 2696 C 243.646 -6.18673 -0.405367 0
M  V30 2697 C 245.701 -4.90517 -0.854274 0
M  V30 2698 C 244.404 -7.18895 0.241434 0
M  V30 2699 C 246.43 -5.90986 -0.221301 0
M  V30 2700 C 245.792 -7.03669 0.320894 0
M  V30 2701 H 241.891 -0.670556 -0.402342 0
M  V30 2702 H 244.475 -1.89946 -0.427607 0
M  V30 2703 H 242.646 -2.65987 -2.83029 0
M  V30 2704 H 244.378 -2.90699 -2.8156 0
M  V30 2705 H 241.133 -4.47672 -1.54554 0
M  V30 2706 H 241.557 -6.76474 -0.266862 0
M  V30 2707 H 246.199 -4.03612 -1.25926 0
M  V30 2708 H 243.917 -8.05413 0.658448 0
M  V30 2709 H 247.503 -5.81626 -0.142111 0
M  V30 2710 H 246.383 -7.80078 0.802956 0
M  V30 2711 N 243.887 0.651787 -1.4349 0
M  V30 2712 C 245.112 1.44434 -1.48841 0
M  V30 2713 C 245.537 1.8779 -0.107955 0
M  V30 2714 O 244.895 1.57464 0.898602 0
M  V30 2715 C 244.943 2.65458 -2.44059 0
M  V30 2716 O 244.047 3.64566 -1.92784 0
M  V30 2717 H 243.388 0.433005 -0.503391 0
M  V30 2718 H 245.918 0.797451 -1.88419 0
M  V30 2719 H 245.928 3.13255 -2.6141 0
M  V30 2720 H 244.603 2.33244 -3.4434 0
M  V30 2721 H 243.18 3.23716 -1.851 0
M  V30 2722 N 245.365 1.30045 0.890287 0
M  V30 2723 C 246.59 1.21598 1.68014 0
M  V30 2724 C 247.015 -0.218678 1.86825 0
M  V30 2725 O 246.373 -1.15756 1.39536 0
M  V30 2726 C 246.421 1.94434 3.03691 0
M  V30 2727 O 245.525 1.2678 3.92429 0
M  V30 2728 H 244.866 0.420856 0.513592 0
M  V30 2729 H 247.396 1.71775 1.11151 0
M  V30 2730 H 247.406 2.03251 3.5377 0
M  V30 2731 H 246.081 2.98777 2.89318 0
M  V30 2732 H 244.658 1.26282 3.50866 0
M  V30 2733 N 246.843 -1.10192 1.12674 0
M  V30 2734 C 248.089 -1.82475 0.884915 0
M  V30 2735 C 248.422 -1.85093 -0.58773 0
M  V30 2736 O 247.697 -1.3134 -1.43457 0
M  V30 2737 C 247.98 -3.29018 1.46353 0
M  V30 2738 C 247.833 -3.34718 3.00473 0
M  V30 2739 C 249.152 -4.25473 1.12519 0
M  V30 2740 H 246.271 -0.662492 0.322915 0
M  V30 2741 H 248.913 -1.2913 1.39375 0
M  V30 2742 H 247.063 -3.74576 1.03077 0
M  V30 2743 H 248.735 -2.97622 3.52447 0
M  V30 2744 H 246.978 -2.74541 3.35872 0
M  V30 2745 H 247.649 -4.37918 3.36053 0
M  V30 2746 H 250.125 -3.88161 1.499 0
M  V30 2747 H 249.001 -5.26365 1.55663 0
M  V30 2748 H 249.262 -4.42084 0.0377407 0
M  V30 2749 N 248.321 -0.919034 -1.28029 0
M  V30 2750 C 249.567 -0.565221 -1.95389 0
M  V30 2751 C 249.922 0.882325 -1.70976 0
M  V30 2752 O 249.215 1.61988 -1.02325 0
M  V30 2753 C 249.409 -0.816855 -3.4794 0
M  V30 2754 C 249.238 -2.28731 -3.87185 0
M  V30 2755 C 248.008 -2.93841 -4.11079 0
M  V30 2756 C 250.206 -3.26415 -3.97439 0
M  V30 2757 N 248.188 -4.31129 -4.37037 0
M  V30 2758 C 249.559 -4.48884 -4.27672 0
M  V30 2759 C 251.614 -3.21742 -3.79982 0
M  V30 2760 C 250.317 -5.67268 -4.42266 0
M  V30 2761 C 252.343 -4.39431 -3.95796 0
M  V30 2762 C 251.705 -5.60675 -4.26407 0
M  V30 2763 H 247.804 -0.256797 -0.738633 0
M  V30 2764 H 250.388 -1.18386 -1.54573 0
M  V30 2765 H 248.559 -0.227445 -3.87733 0
M  V30 2766 H 250.291 -0.426542 -4.02446 0
M  V30 2767 H 247.046 -2.44547 -4.05578 0
M  V30 2768 H 247.47 -5.02127 -4.5409 0
M  V30 2769 H 252.112 -2.29079 -3.55363 0
M  V30 2770 H 249.83 -6.60406 -4.65714 0
M  V30 2771 H 253.416 -4.37323 -3.83719 0
M  V30 2772 H 252.296 -6.50223 -4.38383 0
M  V30 2773 N 249.799 1.42003 -0.683588 0
M  V30 2774 C 250.746 2.30798 -0.0107309 0
M  V30 2775 C 251.716 1.4645 0.783688 0
M  V30 2776 O 252.901 1.75263 0.754156 0
M  V30 2777 C 250.041 3.3238 0.928306 0
M  V30 2778 C 249.154 4.31814 0.126776 0
M  V30 2779 C 248.289 5.20468 1.06236 0
M  V30 2780 C 247.328 6.11577 0.253035 0
M  V30 2781 N 246.465 6.92754 1.14179 0
M  V30 2782 H 251.305 2.8778 -0.773727 0
M  V30 2783 H 248.842 1.41745 -0.393283 0
M  V30 2784 H 250.8 3.89813 1.48666 0
M  V30 2785 H 249.43 2.76976 1.65783 0
M  V30 2786 H 248.482 3.76427 -0.54833 0
M  V30 2787 H 249.794 4.96276 -0.501192 0
M  V30 2788 H 248.948 5.82677 1.69035 0
M  V30 2789 H 247.687 4.56204 1.7242 0
M  V30 2790 H 246.692 5.48428 -0.388108 0
M  V30 2791 H 247.917 6.77892 -0.404839 0
M  V30 2792 H 245.863 6.3111 1.78987 0
M  V30 2793 H 245.78 7.53855 0.569111 0
M  V30 2794 H 247.048 7.59441 1.75697 0
M  V30 2795 N 251.277 0.427512 1.51691 0
M  V30 2796 C 252.224 -0.388867 2.275 0
M  V30 2797 C 253.194 -1.02532 1.30677 0
M  V30 2798 O 254.379 -1.0461 1.59566 0
M  V30 2799 C 251.519 -1.48954 3.11298 0
M  V30 2800 C 250.632 -0.872194 4.23104 0
M  V30 2801 C 249.767 -1.94709 4.94228 0
M  V30 2802 C 248.806 -1.30766 5.97969 0
M  V30 2803 N 247.943 -2.32349 6.62539 0
M  V30 2804 H 252.783 0.263997 2.96828 0
M  V30 2805 H 250.32 0.142033 1.46413 0
M  V30 2806 H 252.278 -2.13887 3.58201 0
M  V30 2807 H 250.908 -2.11217 2.44105 0
M  V30 2808 H 249.96 -0.111419 3.80237 0
M  V30 2809 H 251.272 -0.365264 4.97461 0
M  V30 2810 H 250.426 -2.67327 5.44629 0
M  V30 2811 H 249.165 -2.48773 4.1948 0
M  V30 2812 H 248.17 -0.566902 5.4687 0
M  V30 2813 H 249.395 -0.774483 6.74669 0
M  V30 2814 H 247.341 -2.85511 5.90609 0
M  V30 2815 H 247.258 -1.8652 7.3263 0
M  V30 2816 H 248.526 -3.04481 7.17574 0
M  V30 2817 N 252.755 -1.56801 0.158532 0
M  V30 2818 C 253.665 -2.20916 -0.789518 0
M  V30 2819 C 254.681 -1.1969 -1.26294 0
M  V30 2820 O 255.857 -1.52308 -1.31773 0
M  V30 2821 C 252.922 -2.82727 -2.00665 0
M  V30 2822 C 251.983 -3.99114 -1.58134 0
M  V30 2823 C 251.216 -4.57968 -2.74045 0
M  V30 2824 O 251.439 -4.15704 -3.90572 0
M  V30 2825 O 250.373 -5.48047 -2.48855 0
M  V30 2826 H 254.199 -3.02464 -0.273681 0
M  V30 2827 H 251.784 -1.4924 -0.0690548 0
M  V30 2828 H 253.666 -3.21968 -2.71872 0
M  V30 2829 H 252.341 -2.04184 -2.51179 0
M  V30 2830 H 251.248 -3.64567 -0.839155 0
M  V30 2831 H 252.581 -4.79212 -1.12325 0
M  V30 2832 N 254.233 0.115231 -1.57178 0
M  V30 2833 C 255.18 1.14115 -2.00615 0
M  V30 2834 C 256.15 1.40939 -0.878941 0
M  V30 2835 O 257.335 1.52741 -1.14345 0
M  V30 2836 C 254.475 2.46156 -2.4187 0
M  V30 2837 C 253.588 2.26236 -3.68024 0
M  V30 2838 C 252.723 3.51534 -3.98243 0
M  V30 2839 C 251.762 3.26787 -5.17568 0
M  V30 2840 N 250.899 4.44298 -5.43639 0
M  V30 2841 H 255.739 0.763743 -2.88047 0
M  V30 2842 H 253.276 0.365615 -1.42484 0
M  V30 2843 H 255.234 3.23189 -2.63827 0
M  V30 2844 H 253.864 2.81783 -1.57475 0
M  V30 2845 H 252.916 1.40102 -3.5366 0
M  V30 2846 H 254.228 2.03929 -4.55208 0
M  V30 2847 H 253.382 4.36984 -4.20868 0
M  V30 2848 H 252.121 3.76876 -3.09541 0
M  V30 2849 H 251.126 2.39729 -4.94783 0
M  V30 2850 H 252.351 3.02812 -6.0785 0
M  V30 2851 H 250.297 4.69754 -4.57895 0
M  V30 2852 H 250.214 4.25109 -6.25154 0
M  V30 2853 H 251.482 5.3087 -5.70786 0
M  V30 2854 N 255.711 1.52812 0.385517 0
M  V30 2855 C 256.661 1.74219 1.47078 0
M  V30 2856 C 257.645 0.59632 1.49442 0
M  V30 2857 O 258.837 0.85428 1.5502 0
M  V30 2858 C 255.966 1.9176 2.84751 0
M  V30 2859 C 255.052 3.12289 2.86943 0
M  V30 2860 N 255.443 4.34575 2.58802 0
M  V30 2861 C 253.741 3.12605 3.1811 0
M  V30 2862 C 254.442 5.162 2.68166 0
M  V30 2863 N 253.418 4.51964 3.02043 0
M  V30 2864 H 257.22 2.6639 1.24152 0
M  V30 2865 H 254.734 1.51166 0.593504 0
M  V30 2866 H 256.731 2.05218 3.62893 0
M  V30 2867 H 255.391 1.00805 3.08656 0
M  V30 2868 H 256.402 4.62649 2.32759 0
M  V30 2869 H 253.079 2.31472 3.47458 0
M  V30 2870 H 254.469 6.23689 2.49923 0
M  V30 2871 N 257.189 -0.644168 1.43834 0
M  V30 2872 C 258.414 -1.43642 1.49605 0
M  V30 2873 C 258.839 -1.8773 0.117913 0
M  V30 2874 O 258.197 -1.57938 -0.890239 0
M  V30 2875 C 258.245 -2.6416 2.45463 0
M  V30 2876 O 257.349 -3.63538 1.94714 0
M  V30 2877 H 256.69 -0.430329 0.50568 0
M  V30 2878 H 259.22 -0.787448 1.8884 0
M  V30 2879 H 259.23 -3.11864 2.63068 0
M  V30 2880 H 257.905 -2.31414 3.45572 0
M  V30 2881 H 256.482 -3.2273 1.86814 0
M  V30 2882 N 258.668 -1.30515 -0.883378 0
M  V30 2883 C 259.945 -1.10086 -1.6168 0
M  V30 2884 C 260.325 0.349269 -2.08191 0
M  V30 2885 O 259.673 1.34105 -1.85008 0
M  V30 2886 C 259.883 -2.10315 -2.78511 0
M  V30 2887 C 261.231 -2.42119 -3.48803 0
M  V30 2888 O 262.255 -2.08638 -2.88702 0
M  V30 2889 O 261.114 -2.99396 -4.57192 0
M  V30 2890 H 258.208 -0.422907 -0.710689 0
M  V30 2891 H 260.754 -1.41947 -0.930015 0
M  V30 2892 H 259.526 -3.07917 -2.41459 0
M  V30 2893 H 259.149 -1.79282 -3.54886 0
M  V30 2894 N 260.146 1.09593 -1.13257 0
M  V30 2895 C 261.076 2.18214 -0.830946 0
M  V30 2896 C 262.057 1.68812 0.208966 0
M  V30 2897 O 263.242 1.9408 0.0682666 0
M  V30 2898 C 260.372 3.46051 -0.294296 0
M  V30 2899 C 259.326 4.08778 -1.26826 0
M  V30 2900 C 258.652 5.31419 -0.591449 0
M  V30 2901 C 259.952 4.51476 -2.62615 0
M  V30 2902 H 261.646 2.43703 -1.73923 0
M  V30 2903 H 259.192 1.17128 -0.837675 0
M  V30 2904 H 261.145 4.2134 -0.0709606 0
M  V30 2905 H 259.869 3.20079 0.649366 0
M  V30 2906 H 258.528 3.35505 -1.47756 0
M  V30 2907 H 258.176 5.01727 0.357633 0
M  V30 2908 H 257.876 5.74341 -1.24123 0
M  V30 2909 H 259.4 6.09433 -0.377355 0
M  V30 2910 H 260.814 5.17999 -2.45663 0
M  V30 2911 H 259.211 5.05277 -3.23752 0
M  V30 2912 H 260.281 3.63962 -3.20406 0
M  V30 2913 N 261.624 0.925811 1.2754 0
M  V30 2914 C 262.534 0.428993 2.30644 0
M  V30 2915 C 263.55 -0.489387 1.66976 0
M  V30 2916 O 264.726 -0.372653 1.97922 0
M  V30 2917 C 261.791 -0.311967 3.45294 0
M  V30 2918 C 260.852 0.641098 4.24486 0
M  V30 2919 C 260.085 -0.0645955 5.33661 0
M  V30 2920 O 260.308 -1.28429 5.55754 0
M  V30 2921 O 259.242 0.606265 5.98839 0
M  V30 2922 H 263.068 1.28504 2.75173 0
M  V30 2923 H 260.653 0.691086 1.32455 0
M  V30 2924 H 262.535 -0.729972 4.15029 0
M  V30 2925 H 261.21 -1.14365 3.02824 0
M  V30 2926 H 260.117 1.10874 3.57292 0
M  V30 2927 H 261.45 1.43995 4.70666 0
M  V30 2928 N 263.102 -1.41638 0.69111 0
M  V30 2929 C 264.327 -2.06148 0.227583 0
M  V30 2930 C 264.752 -1.51652 -1.11281 0
M  V30 2931 O 264.11 -0.64164 -1.69566 0
M  V30 2932 C 264.158 -3.60095 0.190858 0
M  V30 2933 O 263.262 -4.03845 -0.835664 0
M  V30 2934 H 262.603 -0.654434 0.112306 0
M  V30 2935 H 265.133 -1.81484 0.944714 0
M  V30 2936 H 265.143 -4.07995 0.020207 0
M  V30 2937 H 263.818 -3.99129 1.16915 0
M  V30 2938 H 262.395 -3.67458 -0.63473 0
M  V30 2939 N 264.58 -0.43555 -1.51462 0
M  V30 2940 C 265.826 0.123979 -2.03022 0
M  V30 2941 C 266.181 1.4054 -1.31401 0
M  V30 2942 O 265.474 1.86948 -0.419634 0
M  V30 2943 C 265.668 0.39942 -3.55161 0
M  V30 2944 C 265.497 -0.853754 -4.41521 0
M  V30 2945 C 264.267 -1.38675 -4.85898 0
M  V30 2946 C 266.465 -1.73939 -4.83994 0
M  V30 2947 N 264.447 -2.59265 -5.56466 0
M  V30 2948 C 265.818 -2.79135 -5.5361 0
M  V30 2949 C 267.873 -1.75402 -4.65981 0
M  V30 2950 C 266.576 -3.85737 -6.07124 0
M  V30 2951 C 268.602 -2.80938 -5.20411 0
M  V30 2952 C 267.964 -3.84854 -5.89972 0
M  V30 2953 H 264.063 0.00624887 -0.781975 0
M  V30 2954 H 266.647 -0.59582 -1.85359 0
M  V30 2955 H 264.818 1.08825 -3.72843 0
M  V30 2956 H 266.55 0.95015 -3.93388 0
M  V30 2957 H 263.305 -0.94094 -4.64159 0
M  V30 2958 H 263.729 -3.2041 -5.96378 0
M  V30 2959 H 268.371 -0.963926 -4.11665 0
M  V30 2960 H 266.089 -4.65586 -6.60496 0
M  V30 2961 H 269.675 -2.8301 -5.08327 0
M  V30 2962 H 268.555 -4.65176 -6.31333 0
M  V30 2963 N 266.058 1.56714 -0.166846 0
M  V30 2964 C 267.304 1.97039 0.479962 0
M  V30 2965 C 267.637 1.05264 1.63197 0
M  V30 2966 O 266.912 0.0988833 1.94248 0
M  V30 2967 C 267.195 3.46867 0.967212 0
M  V30 2968 C 267.048 4.49421 -0.18466 0
M  V30 2969 C 268.367 3.9968 1.84238 0
M  V30 2970 H 265.486 0.71641 0.172992 0
M  V30 2971 H 268.128 1.8832 -0.252079 0
M  V30 2972 H 266.278 3.54428 1.59101 0
M  V30 2973 H 267.95 4.53924 -0.821621 0
M  V30 2974 H 266.193 4.25573 -0.840837 0
M  V30 2975 H 266.864 5.51644 0.198317 0
M  V30 2976 H 269.34 3.94723 1.31655 0
M  V30 2977 H 268.216 5.04941 2.15234 0
M  V30 2978 H 268.477 3.43226 2.78654 0
M  V30 2979 N 267.536 -0.106894 1.57237 0
M  V30 2980 C 268.784 -0.810921 1.85117 0
M  V30 2981 C 269.105 -1.7984 0.753827 0
M  V30 2982 O 268.375 -1.94649 -0.221056 0
M  V30 2983 H 266.955 -0.302466 0.683025 0
M  V30 2984 H 269.617 -0.0913324 1.94686 0
M  V30 2985 H 268.713 -1.34875 2.81452 0
M  V30 2986 N 269.014 -1.53014 -0.377408 0
M  V30 2987 C 270.242 -1.72515 -1.14219 0
M  V30 2988 C 270.657 -0.448735 -1.8339 0
M  V30 2989 O 270.014 0.577592 -1.73119 0
M  V30 2990 C 270.065 -2.8826 -2.18148 0
M  V30 2991 O 269.786 -4.10962 -1.51795 0
M  V30 2992 C 271.287 -3.19536 -3.07264 0
M  V30 2993 H 268.507 -0.577301 -0.342001 0
M  V30 2994 H 271.051 -1.99712 -0.439935 0
M  V30 2995 H 269.206 -2.63492 -2.83991 0
M  V30 2996 H 269.62 -4.75693 -2.20945 0
M  V30 2997 H 271.094 -4.03959 -3.76193 0
M  V30 2998 H 271.571 -2.34403 -3.71419 0
M  V30 2999 H 272.177 -3.46186 -2.47053 0
M  V30 3000 N 270.492 0.636531 -1.44174 0
M  V30 3001 C 271.439 1.74875 -1.50624 0
M  V30 3002 C 272.409 1.62275 -0.35442 0
M  V30 3003 O 273.594 1.82276 -0.563908 0
M  V30 3004 C 270.734 3.13102 -1.45125 0
M  V30 3005 C 269.847 3.36717 -2.7064 0
M  V30 3006 C 268.982 4.64885 -2.57013 0
M  V30 3007 C 268.021 4.8166 -3.77717 0
M  V30 3008 N 267.158 6.01101 -3.62798 0
M  V30 3009 H 271.998 1.68697 -2.45653 0
M  V30 3010 H 269.535 0.823004 -1.21922 0
M  V30 3011 H 271.493 3.93034 -1.39929 0
M  V30 3012 H 270.123 3.18308 -0.536671 0
M  V30 3013 H 269.175 2.50763 -2.86046 0
M  V30 3014 H 270.487 3.44993 -3.60252 0
M  V30 3015 H 269.641 5.52969 -2.49619 0
M  V30 3016 H 268.38 4.58957 -1.64953 0
M  V30 3017 H 267.385 3.92007 -3.85501 0
M  V30 3018 H 268.61 4.89406 -4.70807 0
M  V30 3019 H 266.556 5.96273 -2.73486 0
M  V30 3020 H 266.473 6.10409 -4.46023 0
M  V30 3021 H 267.741 6.91761 -3.59286 0
M  V30 3022 N 271.97 1.30982 0.876444 0
M  V30 3023 C 273.216 1.20474 1.63138 0
M  V30 3024 C 273.549 -0.238096 1.92735 0
M  V30 3025 O 272.824 -1.1692 1.55435 0
M  V30 3026 C 273.107 2.04244 2.96574 0
M  V30 3027 C 272.96 3.56793 2.73896 0
M  V30 3028 C 274.279 1.88684 3.97601 0
M  V30 3029 H 271.398 0.439001 0.591985 0
M  V30 3030 H 274.04 1.60704 1.01361 0
M  V30 3031 H 272.19 1.70063 3.493 0
M  V30 3032 H 273.862 4.01077 2.27892 0
M  V30 3033 H 272.105 3.80548 2.08245 0
M  V30 3034 H 272.776 4.10706 3.68815 0
M  V30 3035 H 275.252 2.18584 3.54062 0
M  V30 3036 H 274.128 2.4961 4.88862 0
M  V30 3037 H 274.389 0.848343 4.33884 0
M  V30 3038 N 273.449 -1.08991 1.13837 0
M  V30 3039 C 274.86 -1.62746 0.914917 0
M  V30 3040 C 275.211 -1.88403 -0.547594 0
M  V30 3041 O 274.336 -1.63706 -1.41525 0
M  V30 3042 C 274.931 -2.95662 1.65437 0
M  V30 3043 C 273.49 -3.46225 1.47666 0
M  V30 3044 C 272.637 -2.20562 1.6807 0
M  V30 3045 H 275.588 -0.922946 1.29102 0
M  V30 3046 H 275.609 -3.63825 1.11407 0
M  V30 3047 H 275.121 -2.76956 2.71877 0
M  V30 3048 H 273.222 -3.70046 0.435478 0
M  V30 3049 H 273.335 -4.23368 2.24268 0
M  V30 3050 H 271.699 -2.29439 1.10589 0
M  V30 3051 H 272.482 -2.0437 2.7584 0
M  V30 3052 N 274.927 -0.932562 -1.27047 0
M  V30 3053 C 275.877 -0.406392 -2.24349 0
M  V30 3054 C 276.861 0.492066 -1.53191 0
M  V30 3055 O 278.053 0.328717 -1.73921 0
M  V30 3056 C 275.182 0.335214 -3.41659 0
M  V30 3057 C 274.268 -0.58004 -4.20115 0
M  V30 3058 N 274.659 -1.70203 -4.76303 0
M  V30 3059 C 272.957 -0.383974 -4.44344 0
M  V30 3060 C 273.658 -2.27167 -5.35509 0
M  V30 3061 N 272.634 -1.56068 -5.20715 0
M  V30 3062 H 276.436 -1.26299 -2.65378 0
M  V30 3063 H 273.95 -0.787408 -1.42034 0
M  V30 3064 H 275.947 0.729142 -4.10474 0
M  V30 3065 H 274.607 1.18868 -3.0216 0
M  V30 3066 H 275.618 -2.08433 -4.74106 0
M  V30 3067 H 272.295 0.428436 -4.15296 0
M  V30 3068 H 273.685 -3.21654 -5.89905 0
M  V30 3069 N 276.405 1.4127 -0.698611 0
M  V30 3070 C 277.653 2.00782 -0.230409 0
M  V30 3071 C 277.974 1.5562 1.17505 0
M  V30 3072 O 277.244 0.78815 1.79346 0
M  V30 3073 H 275.824 0.742464 -0.0821944 0
M  V30 3074 H 278.486 1.72852 -0.90045 0
M  V30 3075 H 277.582 3.11095 -0.25021 0
M  V30 3076 N 277.883 0.443576 1.51229 0
M  V30 3077 C 278.83 -0.364716 2.279 0
M  V30 3078 C 279.8 -1.0114 1.31757 0
M  V30 3079 O 280.985 -1.02912 1.60667 0
M  V30 3080 C 278.125 -1.45644 3.12861 0
M  V30 3081 C 277.238 -0.827269 4.24005 0
M  V30 3082 C 276.373 -1.89456 4.96266 0
M  V30 3083 C 275.412 -1.24416 5.99322 0
M  V30 3084 N 274.549 -2.25309 6.64966 0
M  V30 3085 H 279.389 0.295464 2.96532 0
M  V30 3086 H 276.926 0.157554 1.46254 0
M  V30 3087 H 278.884 -2.10076 3.6045 0
M  V30 3088 H 277.514 -2.08616 2.46331 0
M  V30 3089 H 276.566 -0.0710839 3.80334 0
M  V30 3090 H 277.878 -0.312481 4.9782 0
M  V30 3091 H 277.032 -2.61535 5.47434 0
M  V30 3092 H 275.771 -2.4431 4.22095 0
M  V30 3093 H 274.776 -0.508868 5.4744 0
M  V30 3094 H 276.001 -0.702882 6.75453 0
M  V30 3095 H 273.947 -2.79231 5.93604 0
M  V30 3096 H 273.864 -1.78739 7.34567 0
M  V30 3097 H 275.132 -2.96853 7.20763 0
M  V30 3098 N 279.361 -1.56624 0.175154 0
M  V30 3099 C 280.61 -1.96173 -0.468921 0
M  V30 3100 C 280.923 -1.06401 -1.64128 0
M  V30 3101 O 282.129 -1.35648 -2.35185 0
M  V30 3102 C 280.585 -3.48833 -0.885633 0
M  V30 3103 C 280.193 -4.47237 0.261343 0
M  V30 3104 C 281.937 -3.97194 -1.49791 0
M  V30 3105 C 279.844 -5.9114 -0.175214 0
M  V30 3106 H 278.774 -0.732455 -0.178958 0
M  V30 3107 H 281.425 -1.81591 0.263997 0
M  V30 3108 H 279.807 -3.58848 -1.67464 0
M  V30 3109 H 280.981 -4.4894 1.03871 0
M  V30 3110 H 279.296 -4.08956 0.783827 0
M  V30 3111 H 281.893 -5.02167 -1.83665 0
M  V30 3112 H 282.236 -3.40351 -2.39722 0
M  V30 3113 H 282.769 -3.90212 -0.773267 0
M  V30 3114 H 279.508 -6.51865 0.689414 0
M  V30 3115 H 279.028 -5.92735 -0.91786 0
M  V30 3116 H 280.707 -6.44044 -0.617792 0
M  V30 3117 N 280.839 0.0985539 -1.57292 0
M  V30 3118 C 281.787 1.1387 -2.02821 0
M  V30 3119 C 282.781 1.41676 -0.928666 0
M  V30 3120 O 283.987 1.41398 -1.11385 0
M  V30 3121 H 280.362 0.384419 -0.646317 0
M  V30 3122 H 282.333 0.728347 -2.89375 0
M  V30 3123 C 281.082 2.45166 -2.46554 0
M  V30 3124 H 280.405 2.24613 -3.3074 0
M  V30 3125 H 281.845 3.16456 -2.8219 0
M  V30 3126 C 280.304 3.09216 -1.33742 0
M  V30 3127 O 280.834 3.96163 -0.66464 0
M  V30 3128 N 279.04 2.69413 -1.08928 0
M  V30 3129 H 278.587 1.98801 -1.63817 0
M  V30 3130 H 278.545 3.12594 -0.336458 0
M  V30 3131 N 282.317 1.53212 0.369288 0
M  V30 3132 C 283.227 1.82342 1.47609 0
M  V30 3133 C 284.243 0.711532 1.58787 0
M  V30 3134 O 285.419 1.0012 1.74751 0
M  V30 3135 C 282.484 2.00393 2.8292 0
M  V30 3136 C 281.545 3.24297 2.81301 0
M  V30 3137 C 280.778 3.41478 4.10157 0
M  V30 3138 O 281.001 2.63033 5.06132 0
M  V30 3139 O 279.935 4.34817 4.16194 0
M  V30 3140 H 283.761 2.76366 1.25918 0
M  V30 3141 H 281.346 1.38547 0.559034 0
M  V30 3142 H 283.228 2.13859 3.63101 0
M  V30 3143 H 281.903 1.09559 3.04596 0
M  V30 3144 H 280.81 3.16257 1.99831 0
M  V30 3145 H 282.143 4.15041 2.64578 0
M  V30 3146 N 283.795 -0.628877 1.44509 0
M  V30 3147 C 285.072 -1.38733 1.37886 0
M  V30 3148 C 285.452 -2.11065 0.0387008 0
M  V30 3149 O 284.8 -2.06476 -0.97878 0
M  V30 3150 C 285.01 -2.35188 2.57852 0
M  V30 3151 C 286.358 -2.9845 3.02014 0
M  V30 3152 O 287.382 -2.45513 2.58073 0
M  V30 3153 O 286.241 -3.94487 3.78209 0
M  V30 3154 H 283.335 -0.621015 0.54614 0
M  V30 3155 H 285.881 -0.653744 1.56602 0
M  V30 3156 H 284.653 -1.80855 3.46998 0
M  V30 3157 H 284.276 -3.1596 2.4136 0
M  V30 3158 N 285.273 -1.31445 -0.869486 0
M  V30 3159 C 286.521 -1.20918 -1.61936 0
M  V30 3160 C 286.842 0.232683 -1.93607 0
M  V30 3161 O 286.112 1.15352 -1.58338 0
M  V30 3162 H 284.692 -0.44454 -0.600328 0
M  V30 3163 H 287.354 -1.64776 -1.0409 0
M  V30 3164 H 286.45 -1.78124 -2.56278 0
M  V30 3165 N 286.751 1.08385 -1.14413 0
M  V30 3166 C 287.998 1.80776 -0.912482 0
M  V30 3167 C 288.326 1.86236 0.560934 0
M  V30 3168 O 287.581 1.33431 1.43159 0
M  V30 3169 C 287.88 3.26273 -1.45879 0
M  V30 3170 C 287.546 3.4093 -2.95089 0
M  V30 3171 C 286.208 3.44638 -3.35824 0
M  V30 3172 C 288.56 3.44591 -3.91033 0
M  V30 3173 C 285.888 3.49597 -4.71167 0
M  V30 3174 C 288.24 3.51086 -5.26233 0
M  V30 3175 C 286.904 3.53067 -5.6648 0
M  V30 3176 H 286.174 0.661507 -0.333901 0
M  V30 3177 H 288.821 1.27613 -1.42784 0
M  V30 3178 H 287.126 3.82146 -0.864376 0
M  V30 3179 H 288.823 3.80839 -1.2555 0
M  V30 3180 H 285.413 3.38736 -2.62594 0
M  V30 3181 H 289.597 3.40957 -3.60641 0
M  V30 3182 H 284.853 3.49424 -5.0171 0
M  V30 3183 H 289.027 3.52864 -6.00383 0
M  V30 3184 H 286.654 3.56662 -6.71339 0
M  V30 3185 N 288.23 0.939286 1.26551 0
M  V30 3186 C 289.507 0.5038 1.89001 0
M  V30 3187 C 289.887 -1.01854 1.84903 0
M  V30 3188 O 289.235 -1.87773 1.30206 0
M  V30 3189 C 289.445 1.063 3.32417 0
M  V30 3190 C 290.793 1.13051 4.09273 0
M  V30 3191 O 291.817 1.01345 3.41479 0
M  V30 3192 O 290.676 1.31233 5.30509 0
M  V30 3193 H 287.77 0.163897 0.810597 0
M  V30 3194 H 290.316 1.03173 1.34735 0
M  V30 3195 H 289.088 2.10665 3.29752 0
M  V30 3196 H 288.711 0.517408 3.94219 0
M  V30 3197 N 289.708 -1.40897 0.706093 0
M  V30 3198 C 290.938 -2.05075 0.250523 0
M  V30 3199 C 291.346 -1.53275 -1.10921 0
M  V30 3200 O 290.689 -0.680281 -1.7064 0
M  V30 3201 C 290.751 -3.59219 0.142178 0
M  V30 3202 C 290.415 -4.33864 1.43566 0
M  V30 3203 C 291.412 -4.62448 2.37566 0
M  V30 3204 C 289.097 -4.72946 1.69195 0
M  V30 3205 C 291.091 -5.29088 3.5545 0
M  V30 3206 C 288.778 -5.3932 2.87362 0
M  V30 3207 C 289.776 -5.6732 3.80312 0
M  V30 3208 O 289.464 -6.32325 4.96408 0
M  V30 3209 H 289.196 -0.666645 0.112074 0
M  V30 3210 H 291.75 -1.81467 0.962239 0
M  V30 3211 H 289.98 -3.81609 -0.6254 0
M  V30 3212 H 291.669 -4.0495 -0.277584 0
M  V30 3213 H 292.435 -4.32727 2.19027 0
M  V30 3214 H 288.314 -4.50527 0.977042 0
M  V30 3215 H 291.858 -5.50859 4.28018 0
M  V30 3216 H 287.755 -5.68461 3.05814 0
M  V30 3217 H 288.523 -6.50821 4.9636 0
M  V30 3218 N 291.186 -0.45159 -1.50991 0
M  V30 3219 C 292.096 0.358431 -2.31846 0
M  V30 3220 C 293.112 1.01438 -1.41373 0
M  V30 3221 O 294.288 1.00663 -1.74439 0
M  V30 3222 C 291.353 1.43704 -3.15515 0
M  V30 3223 C 290.414 0.799742 -4.21785 0
M  V30 3224 C 289.647 1.82696 -5.01456 0
M  V30 3225 O 289.87 3.05105 -4.81941 0
M  V30 3226 O 288.804 1.40958 -5.85162 0
M  V30 3227 H 292.63 -0.302032 -3.02194 0
M  V30 3228 H 290.215 -0.213825 -1.47862 0
M  V30 3229 H 292.097 2.06227 -3.67489 0
M  V30 3230 H 290.772 2.08133 -2.47916 0
M  V30 3231 H 289.679 0.136084 -3.73852 0
M  V30 3232 H 291.012 0.198718 -4.91799 0
M  V30 3233 N 292.664 1.56529 -0.183458 0
M  V30 3234 C 293.911 1.97244 0.458357 0
M  V30 3235 C 294.239 1.06992 1.62428 0
M  V30 3236 O 293.494 0.106542 1.9541 0
M  V30 3237 C 293.793 3.43939 0.971637 0
M  V30 3238 C 293.459 4.5083 -0.0796784 0
M  V30 3239 C 292.121 4.79786 -0.368584 0
M  V30 3240 C 294.473 5.15138 -0.792638 0
M  V30 3241 C 291.801 5.70345 -1.37563 0
M  V30 3242 C 294.153 6.06784 -1.78875 0
M  V30 3243 C 292.817 6.34102 -2.08497 0
M  V30 3244 H 292.087 0.721768 0.167725 0
M  V30 3245 H 294.734 1.89472 -0.277976 0
M  V30 3246 H 293.039 3.48724 1.78602 0
M  V30 3247 H 294.736 3.72791 1.47744 0
M  V30 3248 H 291.326 4.28317 0.155668 0
M  V30 3249 H 295.51 4.92868 -0.582659 0
M  V30 3250 H 290.766 5.89789 -1.61118 0
M  V30 3251 H 294.94 6.55677 -2.3465 0
M  V30 3252 H 292.567 7.04074 -2.86678 0
M  V30 3253 N 294.142 -0.090211 1.57342 0
M  V30 3254 C 295.052 -1.12735 2.05738 0
M  V30 3255 C 296.068 -1.43557 0.983231 0
M  V30 3256 O 297.244 -1.54101 1.29672 0
M  V30 3257 C 294.309 -2.42659 2.47624 0
M  V30 3258 C 293.37 -2.18975 3.69254 0
M  V30 3259 C 292.603 -3.42704 4.09133 0
M  V30 3260 O 292.826 -4.51127 3.49057 0
M  V30 3261 O 291.76 -3.32003 5.02053 0
M  V30 3262 H 295.586 -0.746279 2.94388 0
M  V30 3263 H 293.171 -0.303064 1.46294 0
M  V30 3264 H 295.053 -3.19155 2.7517 0
M  V30 3265 H 293.728 -2.80182 1.62109 0
M  V30 3266 H 292.635 -1.40244 3.46818 0
M  V30 3267 H 293.968 -1.86342 4.55563 0
M  V30 3268 N 295.62 -1.53406 -0.361157 0
M  V30 3269 C 296.553 -1.74946 -1.46524 0
M  V30 3270 C 297.531 -0.59795 -1.51206 0
M  V30 3271 O 298.715 -0.831062 -1.69191 0
M  V30 3272 C 295.842 -1.83224 -2.84863 0
M  V30 3273 C 294.888 -3.05233 -2.97885 0
M  V30 3274 S 295.721 -4.6466 -2.66179 0
M  V30 3275 C 296.877 -4.75793 -4.06659 0
M  V30 3276 H 297.11 -2.68319 -1.28033 0
M  V30 3277 H 294.643 -1.44051 -0.555764 0
M  V30 3278 H 296.601 -1.88679 -3.64569 0
M  V30 3279 H 295.262 -0.908948 -3.00661 0
M  V30 3280 H 294.455 -3.07648 -3.9921 0
M  V30 3281 H 294.057 -2.97913 -2.26106 0
M  V30 3282 H 296.349 -4.5612 -5.0096 0
M  V30 3283 H 297.292 -5.7786 -4.09247 0
M  V30 3284 H 297.7 -4.04389 -3.93865 0
M  V30 3285 N 297.098 0.621204 -1.44841 0
M  V30 3286 C 298.344 1.38073 -1.49357 0
M  V30 3287 C 298.699 1.91973 -0.128115 0
M  V30 3288 O 297.992 1.71311 0.858087 0
M  V30 3289 C 298.186 2.55675 -2.4973 0
M  V30 3290 C 298.015 2.13289 -3.95901 0
M  V30 3291 C 296.785 2.001 -4.63991 0
M  V30 3292 C 298.983 1.7159 -4.84831 0
M  V30 3293 N 296.965 1.51381 -5.94943 0
M  V30 3294 C 298.336 1.34188 -6.05304 0
M  V30 3295 C 300.391 1.59059 -4.7181 0
M  V30 3296 C 299.094 0.855085 -7.14199 0
M  V30 3297 C 301.12 1.11784 -5.8074 0
M  V30 3298 C 300.482 0.753385 -7.0036 0
M  V30 3299 H 296.581 0.499675 -0.601539 0
M  V30 3300 H 299.165 0.711609 -1.8123 0
M  V30 3301 H 297.336 3.20201 -2.19832 0
M  V30 3302 H 299.068 3.22509 -2.4448 0
M  V30 3303 H 295.823 2.20863 -4.18947 0
M  V30 3304 H 296.247 1.29293 -6.64539 0
M  V30 3305 H 300.889 1.85865 -3.79755 0
M  V30 3306 H 298.607 0.574552 -8.06055 0
M  V30 3307 H 302.193 1.02533 -5.72694 0
M  V30 3308 H 301.073 0.393183 -7.83214 0
M  V30 3309 N 298.576 1.31904 0.862503 0
M  V30 3310 C 299.804 1.24998 1.64873 0
M  V30 3311 C 300.219 -0.183425 1.87907 0
M  V30 3312 O 299.576 -1.11794 1.44251 0
M  V30 3313 C 299.627 1.99829 3.01248 0
M  V30 3314 O 299.348 3.37575 2.79239 0
M  V30 3315 C 300.849 1.99852 3.95694 0
M  V30 3316 H 298.069 0.431599 0.513773 0
M  V30 3317 H 300.613 1.73901 1.07604 0
M  V30 3318 H 298.768 1.54668 3.55185 0
M  V30 3319 H 299.182 3.75776 3.65914 0
M  V30 3320 H 300.656 2.56709 4.88676 0
M  V30 3321 H 301.133 0.982852 4.28062 0
M  V30 3322 H 301.739 2.44926 3.47694 0
M  V30 3323 N 300.054 -1.07777 1.14986 0
M  V30 3324 C 301.47 -1.32373 0.891596 0
M  V30 3325 C 301.67 -1.9609 -0.463788 0
M  V30 3326 O 300.726 -2.21801 -1.20667 0
M  V30 3327 C 302.039 -2.21905 2.02925 0
M  V30 3328 C 303.587 -2.35367 2.06329 0
M  V30 3329 C 304.062 -3.28245 3.19405 0
M  V30 3330 N 305.553 -3.35824 3.19024 0
M  V30 3331 C 306.288 -4.07739 4.03158 0
M  V30 3332 N 305.784 -4.82306 4.97346 0
M  V30 3333 N 307.577 -4.03635 3.91197 0
M  V30 3334 H 299.728 -0.648039 2.02273 0
M  V30 3335 H 301.991 -0.348149 0.881757 0
M  V30 3336 H 301.697 -1.82342 3.0074 0
M  V30 3337 H 301.571 -3.22407 1.95789 0
M  V30 3338 H 303.958 -2.74186 1.09116 0
M  V30 3339 H 304.039 -1.34585 2.17533 0
M  V30 3340 H 303.683 -2.90146 4.16867 0
M  V30 3341 H 303.613 -4.28971 3.05437 0
M  V30 3342 H 306.104 -2.8267 2.50811 0
M  V30 3343 H 306.417 -5.34661 5.57994 0
M  V30 3344 H 304.762 -4.81337 5.01338 0
M  V30 3345 H 307.953 -3.44491 3.16928 0
M  V30 3346 H 308.126 -4.59417 4.5699 0
M  V30 3347 N 301.532 -0.945985 -1.26051 0
M  V30 3348 C 302.809 -0.513816 -1.88731 0
M  V30 3349 C 303.189 1.00872 -1.8544 0
M  V30 3350 O 302.537 1.8708 -1.312 0
M  V30 3351 C 302.747 -1.08062 -3.31849 0
M  V30 3352 C 304.095 -1.1522 -4.08668 0
M  V30 3353 O 305.119 -1.03155 -3.40936 0
M  V30 3354 O 303.978 -1.34044 -5.29806 0
M  V30 3355 H 301.072 -0.168193 -0.809716 0
M  V30 3356 H 303.618 -1.03886 -1.34186 0
M  V30 3357 H 302.39 -2.1241 -3.2863 0
M  V30 3358 H 302.013 -0.538307 -3.93939 0
M  V30 3359 N 303.011 1.40521 -0.713556 0
M  V30 3360 C 303.941 2.33381 -0.0743864 0
M  V30 3361 C 304.922 1.52784 0.747735 0
M  V30 3362 O 306.107 1.81258 0.697071 0
M  V30 3363 C 303.237 3.36748 0.849598 0
M  V30 3364 C 302.191 4.27793 0.133247 0
M  V30 3365 C 301.517 5.21679 1.17281 0
M  V30 3366 C 302.817 5.12415 -1.01134 0
M  V30 3367 H 304.511 2.87081 -0.850007 0
M  V30 3368 H 302.057 1.38034 -0.410201 0
M  V30 3369 H 304.01 4.00648 1.30612 0
M  V30 3370 H 302.734 2.81439 1.65709 0
M  V30 3371 H 301.393 3.65342 -0.303426 0
M  V30 3372 H 301.041 4.62677 1.9733 0
M  V30 3373 H 300.741 5.83435 0.698397 0
M  V30 3374 H 302.265 5.88456 1.62947 0
M  V30 3375 H 303.679 5.69781 -0.634274 0
M  V30 3376 H 302.076 5.83203 -1.41399 0
M  V30 3377 H 303.146 4.48514 -1.84292 0
M  V30 3378 O 304.528 0.601524 1.4988 0
M  V30 3379 H 305.219 0.111623 1.93378 0
M  V30 END ATOM
M  V30 BEGIN BOND
M  V30 END BOND
M  V30 END CTAB
M  END
$$$$
