drugbank_target|P38489 Oxygen-insensitive NAD(P)H nitroreductase (DB03228; DB03247; DB04138; DB04253; DB04392)
 OpenBabel12092119573D

  0  0  0     0  0            999 V3000
M  V30 BEGIN CTAB
M  V30 COUNTS 3358 3393 0 0 0
M  V30 BEGIN ATOM
M  V30 1 H -0.908 1.98254 -0.117106 0
M  V30 2 N 0 1.576 0 0
M  V30 3 C 0.933 2.03868 1.02534 0
M  V30 4 C 1.911 0.928543 1.3348 0
M  V30 5 O 3.095 1.19667 1.45644 0
M  V30 6 C 0.222 2.43627 2.35294 0
M  V30 7 C -0.732 3.65373 2.2001 0
M  V30 8 S 0.101 5.13292 1.52614 0
M  V30 9 C 1.257 5.56322 2.86805 0
M  V30 10 H 1.49 2.90518 0.631377 0
M  V30 11 H -0.977 1.52953 0.210867 0
M  V30 12 H 0.981 2.67203 3.11629 0
M  V30 13 H -0.358 1.57376 2.7183 0
M  V30 14 H -1.165 3.90944 3.18086 0
M  V30 15 H -1.563 3.418 1.51819 0
M  V30 16 H 0.729 5.58782 3.83104 0
M  V30 17 H 1.672 6.56266 2.65933 0
M  V30 18 H 2.08 4.83886 2.90714 0
M  V30 19 N 1.4781 -0.272755 1.55222 0
M  V30 20 C 2.7551 -1.02562 1.66555 0
M  V30 21 C 3.1351 -2.04282 0.532189 0
M  V30 22 O 2.4831 -2.23662 -0.467717 0
M  V30 23 C 2.6931 -1.6822 3.05782 0
M  V30 24 C 4.0411 -2.19373 3.63539 0
M  V30 25 O 5.0651 -1.78206 3.08417 0
M  V30 26 O 3.9241 -2.94883 4.60115 0
M  V30 27 H 1.0181 -0.475755 0.676451 0
M  V30 28 H 3.5641 -0.268593 1.67561 0
M  V30 29 H 2.3361 -0.945112 3.79715 0
M  V30 30 H 1.9591 -2.50609 3.08676 0
M  V30 31 N 2.9562 -1.48159 -0.537278 0
M  V30 32 C 4.2052 -1.5506 -1.28993 0
M  V30 33 C 4.5182 -0.226211 -1.94288 0
M  V30 34 O 5.7242 -0.173395 -2.70946 0
M  V30 35 C 4.1802 -2.73429 -2.34018 0
M  V30 36 C 3.7882 -4.1248 -1.74825 0
M  V30 37 C 5.5322 -2.89638 -3.10339 0
M  V30 38 C 3.4392 -5.22121 -2.77747 0
M  V30 39 H 2.3692 -0.577231 -0.485098 0
M  V30 40 H 5.0202 -1.74478 -0.568317 0
M  V30 41 H 3.4022 -2.47431 -3.09182 0
M  V30 42 H 4.5762 -4.48466 -1.05899 0
M  V30 43 H 2.8912 -4.01327 -1.11022 0
M  V30 44 H 5.4882 -3.68718 -3.87235 0
M  V30 45 H 5.8312 -1.9882 -3.65754 0
M  V30 46 H 6.3642 -3.15502 -2.42288 0
M  V30 47 H 3.1032 -6.1488 -2.27161 0
M  V30 48 H 2.6232 -4.90631 -3.45024 0
M  V30 49 H 4.3022 -5.49924 -3.4087 0
M  V30 50 N 4.4343 0.785586 -1.36625 0
M  V30 51 C 5.6833 1.53883 -1.30396 0
M  V30 52 C 5.9963 1.95271 0.113452 0
M  V30 53 O 7.2023 2.69858 0.298142 0
M  V30 54 C 5.6583 2.77808 -2.28802 0
M  V30 55 C 5.2663 2.43574 -3.75999 0
M  V30 56 C 7.0103 3.55783 -2.31558 0
M  V30 57 C 4.9173 3.63919 -4.66173 0
M  V30 58 H 3.8473 0.577678 -0.484566 0
M  V30 59 H 6.4983 0.861705 -1.62009 0
M  V30 60 H 4.8803 3.47339 -1.90188 0
M  V30 61 H 6.0543 1.81916 -4.23371 0
M  V30 62 H 4.3693 1.78803 -3.76056 0
M  V30 63 H 6.9663 4.45205 -2.96137 0
M  V30 64 H 7.3093 3.94644 -1.3252 0
M  V30 65 H 7.8423 2.93235 -2.68809 0
M  V30 66 H 4.5813 3.3015 -5.66287 0
M  V30 67 H 4.1013 4.2473 -4.23515 0
M  V30 68 H 5.7803 4.30901 -4.82632 0
M  V30 69 N 5.9124 1.20967 1.01018 0
M  V30 70 C 7.1374 1.0503 1.78839 0
M  V30 71 C 7.5624 -0.395752 1.8389 0
M  V30 72 O 6.9204 -1.28529 1.27867 0
M  V30 73 C 6.9684 1.64602 3.2084 0
M  V30 74 O 6.0724 0.887988 4.02726 0
M  V30 75 H 5.4134 0.369987 0.551367 0
M  V30 76 H 7.9434 1.60399 1.27018 0
M  V30 77 H 7.9534 1.68607 3.71532 0
M  V30 78 H 6.6284 2.69841 3.16479 0
M  V30 79 H 5.2054 0.922648 3.61305 0
M  V30 80 N 7.3905 -1.2043 1.01659 0
M  V30 81 C 8.6365 -1.90079 0.706963 0
M  V30 82 C 8.9695 -1.78648 -0.761474 0
M  V30 83 O 8.2445 -1.17069 -1.55323 0
M  V30 84 C 8.5275 -3.41469 1.14327 0
M  V30 85 C 8.3805 -3.61833 2.67201 0
M  V30 86 C 9.6995 -4.34261 0.714529 0
M  V30 87 H 6.8185 -0.690254 0.2583 0
M  V30 88 H 9.4605 -1.41826 1.26433 0
M  V30 89 H 7.6105 -3.82696 0.669056 0
M  V30 90 H 9.2825 -3.2986 3.22475 0
M  V30 91 H 7.5255 -3.05304 3.08175 0
M  V30 92 H 8.1965 -4.67955 2.92783 0
M  V30 93 H 10.6725 -4.00682 1.12221 0
M  V30 94 H 9.5485 -5.38806 1.04784 0
M  V30 95 H 9.8095 -4.40431 -0.383799 0
M  V30 96 N 8.8686 -0.792821 -1.36206 0
M  V30 97 C 9.8316 -0.199459 -2.2833 0
M  V30 98 C 10.8316 0.605189 -1.48977 0
M  V30 99 O 12.0216 0.425685 -1.68919 0
M  V30 100 C 9.1536 0.723523 -3.33134 0
M  V30 101 H 10.3466 -1.01181 -2.82316 0
M  V30 102 H 7.8996 -0.562485 -1.45828 0
M  V30 103 H 8.6346 1.56008 -2.84309 0
M  V30 104 H 8.4196 0.148436 -3.91819 0
M  V30 105 H 9.9096 1.13344 -4.01924 0
M  V30 106 N 10.3467 1.47872 -0.545128 0
M  V30 107 C 11.2767 2.32661 0.197793 0
M  V30 108 C 12.2577 1.43041 0.920504 0
M  V30 109 O 13.4427 1.71912 0.90333 0
M  V30 110 C 10.5727 3.24569 1.23582 0
M  V30 111 C 9.5267 4.23333 0.630323 0
M  V30 112 C 8.8527 5.0448 1.77211 0
M  V30 113 C 10.1527 5.20704 -0.407974 0
M  V30 114 H 11.8467 2.95024 -0.510045 0
M  V30 115 H 9.3927 1.4187 -0.246731 0
M  V30 116 H 11.3457 3.8272 1.76362 0
M  V30 117 H 10.0697 2.60236 1.97344 0
M  V30 118 H 8.7287 3.6639 0.123922 0
M  V30 119 H 8.3767 4.36561 2.49847 0
M  V30 120 H 8.0767 5.71339 1.37281 0
M  V30 121 H 9.6007 5.65487 2.3034 0
M  V30 122 H 11.0147 5.7329 0.033305 0
M  V30 123 H 9.4117 5.95699 -0.725486 0
M  V30 124 H 10.4817 4.66917 -1.30828 0
M  V30 125 N 11.8248 0.280983 1.55075 0
M  V30 126 C 12.7718 -0.603937 2.22758 0
M  V30 127 C 13.7418 -1.1452 1.20309 0
M  V30 128 O 14.9268 -1.19343 1.48869 0
M  V30 129 C 12.0668 -1.77947 2.95684 0
M  V30 130 C 11.1798 -1.2715 4.12864 0
M  V30 131 C 10.3148 -2.4093 4.7342 0
M  V30 132 C 9.3538 -1.87165 5.82783 0
M  V30 133 N 8.4908 -2.94441 6.37377 0
M  V30 134 H 13.3308 -0.020124 2.97993 0
M  V30 135 H 10.8678 0.00183425 1.471 0
M  V30 136 H 12.8258 -2.47055 3.36184 0
M  V30 137 H 11.4558 -2.33522 2.22861 0
M  V30 138 H 10.5078 -0.473331 3.77444 0
M  V30 139 H 11.8198 -0.837751 4.91715 0
M  V30 140 H 10.9738 -3.18021 5.1667 0
M  V30 141 H 9.7128 -2.87623 3.93859 0
M  V30 142 H 8.7178 -1.08556 5.38976 0
M  V30 143 H 9.9428 -1.41401 6.64216 0
M  V30 144 H 7.8888 -3.40505 5.60707 0
M  V30 145 H 7.8058 -2.55501 7.11516 0
M  V30 146 H 9.0738 -3.71489 6.85285 0
M  V30 147 N 13.3029 -1.57598 0.00835791 0
M  V30 148 C 14.7189 -1.55764 -0.347822 0
M  V30 149 C 14.9189 -1.01186 -1.74252 0
M  V30 150 O 13.9749 -0.649371 -2.44007 0
M  V30 151 C 15.2879 -2.99927 -0.215407 0
M  V30 152 C 16.8359 -3.11656 -0.289725 0
M  V30 153 C 17.3109 -4.57621 -0.18634 0
M  V30 154 N 18.8019 -4.62557 -0.243978 0
M  V30 155 C 19.5369 -5.73094 -0.18745 0
M  V30 156 N 19.0329 -6.92753 -0.0810331 0
M  V30 157 N 20.8259 -5.61588 -0.239925 0
M  V30 158 H 12.9769 -1.91411 0.92062 0
M  V30 159 H 15.2399 -0.879562 0.353659 0
M  V30 160 H 14.9459 -3.43729 0.744512 0
M  V30 161 H 14.8199 -3.63865 -0.994097 0
M  V30 162 H 17.2069 -2.67779 -1.24009 0
M  V30 163 H 17.2879 -2.5048 0.51898 0
M  V30 164 H 16.9319 -5.02174 0.760519 0
M  V30 165 H 16.8619 -5.16752 -1.01364 0
M  V30 166 H 19.3529 -3.76481 -0.327217 0
M  V30 167 H 19.6659 -7.72787 -0.0440241 0
M  V30 168 H 18.0109 -6.94984 -0.0465419 0
M  V30 169 H 21.2019 -4.66996 -0.321317 0
M  V30 170 H 21.3749 -6.47714 -0.192407 0
M  V30 171 N 14.781 0.264519 -1.55364 0
M  V30 172 C 15.731 1.32966 -1.85214 0
M  V30 173 C 16.715 1.44306 -0.711653 0
M  V30 174 O 17.907 1.47844 -0.973192 0
M  V30 175 C 15.036 2.68839 -2.13495 0
M  V30 176 C 14.122 2.61575 -3.33825 0
M  V30 177 N 14.513 2.23933 -4.53528 0
M  V30 178 C 12.811 2.92621 -3.36584 0
M  V30 179 C 13.512 2.26868 -5.35636 0
M  V30 180 N 12.488 2.65677 -4.74254 0
M  V30 181 H 16.29 1.02884 -2.75304 0
M  V30 182 H 13.804 0.473157 -1.55354 0
M  V30 183 H 15.801 3.45685 -2.33039 0
M  V30 184 H 14.461 2.99802 -1.24694 0
M  V30 185 H 15.472 1.95769 -4.79474 0
M  V30 186 H 12.149 3.2824 -2.58002 0
M  V30 187 H 13.539 2.00254 -6.41364 0
M  V30 188 N 16.2591 1.48442 0.529413 0
M  V30 189 C 17.4841 1.60406 1.31471 0
M  V30 190 C 17.9091 0.264738 1.86228 0
M  V30 191 O 17.2671 -0.763668 1.64432 0
M  V30 192 C 17.3151 2.65419 2.44101 0
M  V30 193 O 16.4191 2.22618 3.47153 0
M  V30 194 H 15.7601 0.537863 0.389357 0
M  V30 195 H 18.2901 1.94432 0.636965 0
M  V30 196 H 18.3001 2.86709 2.90279 0
M  V30 197 H 16.9751 3.62652 2.03608 0
M  V30 198 H 15.5521 2.11543 3.0709 0
M  V30 199 N 17.7372 -0.778329 1.37039 0
M  V30 200 C 18.9652 -1.56734 1.35063 0
M  V30 201 C 19.3802 -1.88686 -0.0655597 0
M  V30 202 O 18.7372 -1.5096 -1.02554 0
M  V30 203 C 18.7882 -2.88163 2.18276 0
M  V30 204 O 18.5092 -2.57583 3.54376 0
M  V30 205 C 20.0102 -3.82422 2.24206 0
M  V30 206 H 17.2302 -0.485778 0.462883 0
M  V30 207 H 19.7742 -0.965185 1.8029 0
M  V30 208 H 17.9292 -3.44818 1.76576 0
M  V30 209 H 18.3432 -3.41699 3.97922 0
M  V30 210 H 19.8172 -4.71667 2.86765 0
M  V30 211 H 20.2942 -4.21078 1.24861 0
M  V30 212 H 20.9002 -3.31697 2.6619 0
M  V30 213 N 19.2153 -1.21501 -1.00376 0
M  V30 214 C 20.1623 -0.975387 -2.09177 0
M  V30 215 C 21.1323 0.0990615 -1.65804 0
M  V30 216 O 22.3173 -0.0483147 -1.90739 0
M  V30 217 C 19.4573 -0.547507 -3.40729 0
M  V30 218 C 18.5703 -1.69153 -3.97506 0
M  V30 219 C 17.7053 -1.2127 -5.17172 0
M  V30 220 C 16.7443 -2.32897 -5.66061 0
M  V30 221 N 15.8813 -1.86138 -6.76976 0
M  V30 222 H 20.7213 -1.9068 -2.29009 0
M  V30 223 H 18.2583 -0.950257 -1.12288 0
M  V30 224 H 20.2163 -0.280667 -4.16255 0
M  V30 225 H 18.8463 0.346904 -3.20931 0
M  V30 226 H 17.8983 -2.07298 -3.18954 0
M  V30 227 H 19.2103 -2.5316 -4.29781 0
M  V30 228 H 18.3643 -0.902591 -5.99948 0
M  V30 229 H 17.1033 -0.342692 -4.86495 0
M  V30 230 H 16.1083 -2.64709 -4.81881 0
M  V30 231 H 17.3333 -3.20396 -5.98768 0
M  V30 232 H 15.2793 -1.01484 -6.48103 0
M  V30 233 H 15.1963 -2.63717 -7.08512 0
M  V30 234 H 16.4643 -1.58165 -7.63285 0
M  V30 235 N 20.6934 1.19889 -1.02296 0
M  V30 236 C 21.6564 2.21116 -0.603351 0
M  V30 237 C 22.6564 1.5738 0.329884 0
M  V30 238 O 23.8464 1.73802 0.117702 0
M  V30 239 C 20.9784 3.40696 0.117992 0
M  V30 240 H 22.1714 2.59754 -1.49893 0
M  V30 241 H 19.7244 1.33463 -0.813468 0
M  V30 242 H 20.4594 3.07569 1.0282 0
M  V30 243 H 20.2444 3.88188 -0.552511 0
M  V30 244 H 21.7344 4.15692 0.398696 0
M  V30 245 N 22.1715 0.800033 1.35784 0
M  V30 246 C 23.4185 0.377342 1.98953 0
M  V30 247 C 23.7465 -1.05378 1.6348 0
M  V30 248 O 23.0015 -1.74459 0.886707 0
M  V30 249 C 23.3005 0.500276 3.53881 0
M  V30 250 C 22.9665 1.89375 4.09204 0
M  V30 251 C 21.6285 2.27499 4.24025 0
M  V30 252 C 23.9805 2.8057 4.39238 0
M  V30 253 C 21.3085 3.562 4.66195 0
M  V30 254 C 23.6605 4.0871 4.82844 0
M  V30 255 C 22.3245 4.46843 4.95871 0
M  V30 256 H 21.5945 0.138079 0.728021 0
M  V30 257 H 24.2415 1.01955 1.62103 0
M  V30 258 H 22.5465 -0.225405 3.91151 0
M  V30 259 H 24.2435 0.154097 4.00704 0
M  V30 260 H 20.8335 1.58753 3.98115 0
M  V30 261 H 25.0175 2.52367 4.27346 0
M  V30 262 H 20.2735 3.85602 4.74469 0
M  V30 263 H 24.4475 4.79481 5.05046 0
M  V30 264 H 22.0745 5.46623 5.28306 0
M  V30 265 N 23.6496 -1.47581 0.552962 0
M  V30 266 C 24.9266 -1.95563 -0.0381515 0
M  V30 267 C 25.3066 -1.49552 -1.48988 0
M  V30 268 O 24.6546 -0.732414 -2.16444 0
M  V30 269 C 24.8646 -3.48848 0.102919 0
M  V30 270 C 26.2126 -4.24577 -0.0446082 0
M  V30 271 O 27.2366 -3.56187 0.0302548 0
M  V30 272 O 26.0956 -5.46116 -0.204923 0
M  V30 273 H 23.1896 -0.824321 -0.0665067 0
M  V30 274 H 25.7356 -1.58001 0.619186 0
M  V30 275 H 24.5076 -3.75129 1.11328 0
M  V30 276 H 24.1306 -3.93165 -0.592224 0
M  V30 277 N 25.1277 -0.289203 -1.54924 0
M  V30 278 C 26.0907 0.579144 -2.21762 0
M  V30 279 C 27.0907 1.07047 -1.1999 0
M  V30 280 O 28.2807 0.968384 -1.44803 0
M  V30 281 C 25.4127 1.80055 -2.8947 0
M  V30 282 H 26.6057 -0.00464908 -2.999 0
M  V30 283 H 24.1587 -0.0399306 -1.56249 0
M  V30 284 H 24.8937 2.42449 -2.15381 0
M  V30 285 H 24.6787 1.45602 -3.64064 0
M  V30 286 H 26.1687 2.41773 -3.40493 0
M  V30 287 N 26.6058 1.57591 -0.0167156 0
M  V30 288 C 27.8308 1.9598 0.67872 0
M  V30 289 C 28.2558 0.892546 1.65575 0
M  V30 290 O 27.6138 -0.147772 1.80697 0
M  V30 291 C 27.6618 3.33468 1.37227 0
M  V30 292 O 26.7658 3.28954 2.48722 0
M  V30 293 H 26.1068 0.639339 0.17928 0
M  V30 294 H 28.6368 2.04463 -0.0748802 0
M  V30 295 H 28.6468 3.69417 1.7319 0
M  V30 296 H 27.3218 4.10694 0.656007 0
M  V30 297 H 25.8988 3.04705 2.14963 0
M  V30 298 N 28.0839 -0.256276 1.55502 0
M  V30 299 C 29.0309 -1.31714 1.89526 0
M  V30 300 C 30.0009 -1.4828 0.748479 0
M  V30 301 O 31.1859 -1.62416 1.00128 0
M  V30 302 C 28.3259 -2.66933 2.18725 0
M  V30 303 C 27.4389 -2.58452 3.4616 0
M  V30 304 C 26.5739 -3.85961 3.64976 0
M  V30 305 C 25.6129 -3.72059 4.86044 0
M  V30 306 N 24.7499 -4.9144 5.01429 0
M  V30 307 H 29.5899 -1.01998 2.80001 0
M  V30 308 H 27.1269 -0.492413 1.38613 0
M  V30 309 H 29.0849 -3.4563 2.33657 0
M  V30 310 H 27.7149 -2.94816 1.31466 0
M  V30 311 H 26.7669 -1.71374 3.3961 0
M  V30 312 H 28.0789 -2.44085 4.34999 0
M  V30 313 H 27.2329 -4.73101 3.79816 0
M  V30 314 H 25.9719 -4.03215 2.74353 0
M  V30 315 H 24.9769 -2.83302 4.7119 0
M  V30 316 H 26.2019 -3.56309 5.78118 0
M  V30 317 H 24.1479 -5.09072 4.13741 0
M  V30 318 H 24.0649 -4.79668 5.84341 0
M  V30 319 H 25.3329 -5.80104 5.20672 0
M  V30 320 N 29.562 -1.4872 -0.521534 0
M  V30 321 C 30.509 -1.63871 -1.62527 0
M  V30 322 C 31.479 -0.480559 -1.58996 0
M  V30 323 O 32.664 -0.705085 -1.77294 0
M  V30 324 C 29.804 -1.69227 -3.00759 0
M  V30 325 C 28.917 -2.96207 -3.14461 0
M  V30 326 C 28.052 -2.92671 -4.43303 0
M  V30 327 C 27.091 -4.14318 -4.50563 0
M  V30 328 N 26.228 -4.0881 -5.70805 0
M  V30 329 H 31.068 -2.58123 -1.48918 0
M  V30 330 H 28.605 -1.28 -0.724878 0
M  V30 331 H 30.563 -1.70314 -3.80853 0
M  V30 332 H 29.193 -0.784586 -3.1312 0
M  V30 333 H 28.245 -3.04826 -2.27564 0
M  V30 334 H 29.557 -3.86192 -3.15686 0
M  V30 335 H 28.711 -2.92206 -5.31696 0
M  V30 336 H 27.45 -2.00429 -4.44612 0
M  V30 337 H 26.455 -4.15049 -3.60575 0
M  V30 338 H 27.68 -5.07729 -4.50986 0
M  V30 339 H 25.626 -3.19394 -5.72995 0
M  V30 340 H 25.543 -4.92509 -5.7356 0
M  V30 341 H 26.811 -4.12418 -6.61462 0
M  V30 342 N 31.0401 0.771051 -1.3745 0
M  V30 343 C 31.9701 1.89827 -1.3597 0
M  V30 344 C 32.9511 1.68562 -0.228216 0
M  V30 345 O 34.1361 1.8941 -0.428675 0
M  V30 346 C 31.2661 3.2712 -1.16662 0
M  V30 347 C 30.2201 3.6295 -2.2683 0
M  V30 348 C 29.5461 4.98791 -1.92644 0
M  V30 349 C 30.8461 3.69627 -3.69017 0
M  V30 350 H 32.5401 1.91323 -2.30295 0
M  V30 351 H 30.0861 0.919082 -1.10855 0
M  V30 352 H 32.0391 4.05615 -1.14256 0
M  V30 353 H 30.7631 3.26059 -0.187926 0
M  V30 354 H 29.4221 2.86763 -2.28392 0
M  V30 355 H 29.0701 4.94271 -0.933021 0
M  V30 356 H 28.7701 5.23733 -2.66416 0
M  V30 357 H 30.2941 5.79685 -1.91826 0
M  V30 358 H 31.7081 4.38273 -3.69581 0
M  V30 359 H 30.1051 4.06067 -4.41848 0
M  V30 360 H 31.1751 2.70273 -4.02592 0
M  V30 361 N 32.5182 1.22032 0.997298 0
M  V30 362 C 33.7462 1.06841 1.7718 0
M  V30 363 C 34.1612 -0.381325 1.84909 0
M  V30 364 O 33.5182 -1.26437 1.31605 0
M  V30 365 C 33.5692 1.66814 3.20711 0
M  V30 366 O 33.2902 3.06116 3.13408 0
M  V30 367 C 34.7912 1.56838 4.14628 0
M  V30 368 H 32.0112 0.374782 0.556578 0
M  V30 369 H 34.5552 1.61532 1.2541 0
M  V30 370 H 32.7102 1.16196 3.69564 0
M  V30 371 H 33.1242 3.34926 4.0364 0
M  V30 372 H 34.5982 2.03532 5.13107 0
M  V30 373 H 35.0752 0.524155 4.36061 0
M  V30 374 H 35.6812 2.06741 3.7167 0
M  V30 375 N 33.9963 -1.19345 1.0293 0
M  V30 376 C 35.4073 -1.70725 0.755633 0
M  V30 377 C 35.7583 -1.82326 -0.724676 0
M  V30 378 O 34.8833 -1.49471 -1.56484 0
M  V30 379 C 35.4783 -3.10084 1.36503 0
M  V30 380 C 34.0373 -3.58723 1.13994 0
M  V30 381 C 33.1843 -2.35577 1.46283 0
M  V30 382 H 36.1353 -1.0418 1.19718 0
M  V30 383 H 36.1563 -3.72787 0.762217 0
M  V30 384 H 35.6683 -3.01609 2.44241 0
M  V30 385 H 33.7693 -3.72512 0.0807901 0
M  V30 386 H 33.8823 -4.42816 1.82894 0
M  V30 387 H 32.2463 -2.38935 0.88217 0
M  V30 388 H 33.0293 -2.29731 2.55105 0
M  V30 389 N 35.4744 -0.807222 -1.35358 0
M  V30 390 C 36.3844 -0.219594 -2.3357 0
M  V30 391 C 37.4004 0.637734 -1.61892 0
M  V30 392 O 38.5764 0.549336 -1.93763 0
M  V30 393 C 35.6414 0.62158 -3.41083 0
M  V30 394 C 34.7024 -0.256315 -4.28534 0
M  V30 395 C 33.9354 0.544807 -5.30912 0
M  V30 396 O 34.1584 1.77944 -5.41934 0
M  V30 397 O 33.0924 -0.0646478 -6.01865 0
M  V30 398 H 36.9184 -1.03208 -2.85625 0
M  V30 399 H 34.5034 -0.569025 -1.38139 0
M  V30 400 H 36.3854 1.10067 -4.06772 0
M  V30 401 H 35.0604 1.41165 -2.91297 0
M  V30 402 H 33.9674 -0.782559 -3.65823 0
M  V30 403 H 35.3004 -1.01034 -4.81719 0
M  V30 404 N 36.9525 1.47285 -0.560781 0
M  V30 405 C 37.8845 2.28118 0.222438 0
M  V30 406 C 38.8975 1.37219 0.876056 0
M  V30 407 O 40.0865 1.62011 0.749307 0
M  V30 408 C 37.1865 3.1159 1.33285 0
M  V30 409 C 36.3595 4.30473 0.77534 0
M  V30 410 C 35.4185 4.95513 1.77069 0
M  V30 411 O 34.4445 5.53792 1.31539 0
M  V30 412 N 35.6465 4.90531 3.10418 0
M  V30 413 H 38.4115 2.95976 -0.470958 0
M  V30 414 H 35.9725 1.56955 -0.39709 0
M  V30 415 H 37.9645 3.51967 1.99752 0
M  V30 416 H 36.5345 2.45951 1.92943 0
M  V30 417 H 35.7545 3.94144 -0.0662113 0
M  V30 418 H 37.0425 5.07362 0.382272 0
M  V30 419 H 36.4405 4.44389 3.5005 0
M  V30 420 H 34.9975 5.34917 3.72434 0
M  V30 421 N 38.4306 0.297415 1.54768 0
M  V30 422 C 39.3936 -0.567375 2.22066 0
M  V30 423 C 40.3936 -1.06409 1.20556 0
M  V30 424 O 41.5836 -0.960691 1.45315 0
M  V30 425 C 38.7156 -1.78517 2.90421 0
M  V30 426 H 39.9086 0.0205534 2.99893 0
M  V30 427 H 37.4616 0.0482163 1.56226 0
M  V30 428 H 38.1966 -2.41303 2.16664 0
M  V30 429 H 37.9816 -1.43669 3.64831 0
M  V30 430 H 39.4716 -2.39964 3.41771 0
M  V30 431 N 39.9087 -1.5758 0.0250728 0
M  V30 432 C 40.8187 -2.1343 -0.973905 0
M  V30 433 C 41.8347 -1.08556 -1.35984 0
M  V30 434 O 43.0107 -1.40592 -1.44207 0
M  V30 435 C 40.0757 -2.64703 -2.23904 0
M  V30 436 C 39.1367 -3.84276 -1.91391 0
M  V30 437 C 38.3697 -4.33095 -3.11873 0
M  V30 438 O 38.5927 -3.81107 -4.24398 0
M  V30 439 O 37.5267 -5.24984 -2.94406 0
M  V30 440 H 41.3527 -2.99057 -0.529036 0
M  V30 441 H 38.9377 -1.48118 -0.195288 0
M  V30 442 H 40.8197 -2.97769 -2.98181 0
M  V30 443 H 39.4947 -1.82161 -2.6758 0
M  V30 444 H 38.4017 -3.56143 -1.14511 0
M  V30 445 H 39.7347 -4.67968 -1.52534 0
M  V30 446 N 41.3868 0.248026 -1.55636 0
M  V30 447 C 42.3188 1.32993 -1.8667 0
M  V30 448 C 43.3318 1.44345 -0.752877 0
M  V30 449 O 44.5208 1.45715 -1.03098 0
M  V30 450 C 41.6208 2.70863 -2.03682 0
M  V30 451 C 40.7938 2.81792 -3.34532 0
M  V30 452 C 39.8528 4.005 -3.41301 0
M  V30 453 O 38.8788 3.9008 -4.14519 0
M  V30 454 N 40.0808 5.13618 -2.70512 0
M  V30 455 H 42.8458 1.06707 -2.8006 0
M  V30 456 H 40.4068 0.438129 -1.55859 0
M  V30 457 H 42.3988 3.48612 -2.05553 0
M  V30 458 H 40.9688 2.89862 -1.17041 0
M  V30 459 H 40.1888 1.90729 -3.44987 0
M  V30 460 H 41.4768 2.86043 -4.20781 0
M  V30 461 H 40.8748 5.24975 -2.10755 0
M  V30 462 H 39.4318 5.89505 -2.78077 0
M  V30 463 N 42.8649 1.48995 0.513639 0
M  V30 464 C 44.1139 1.57093 1.2651 0
M  V30 465 C 44.4269 0.257091 1.93903 0
M  V30 466 O 45.6329 0.216478 2.70636 0
M  V30 467 C 44.0889 2.77118 2.29638 0
M  V30 468 C 43.6969 4.15209 1.68241 0
M  V30 469 C 45.4409 2.94538 3.05692 0
M  V30 470 C 43.3479 5.26474 2.69406 0
M  V30 471 H 42.2779 0.584876 0.475854 0
M  V30 472 H 44.9289 1.7536 0.540487 0
M  V30 473 H 43.3109 2.52319 3.05207 0
M  V30 474 H 44.4849 4.50094 0.987505 0
M  V30 475 H 42.7999 4.03042 1.04623 0
M  V30 476 H 45.3969 3.74832 3.8132 0
M  V30 477 H 45.7399 2.04614 3.62545 0
M  V30 478 H 46.2729 3.19316 2.37238 0
M  V30 479 H 43.0119 6.18417 2.17351 0
M  V30 480 H 42.5319 4.96058 3.37175 0
M  V30 481 H 44.2109 5.55277 3.32078 0
M  V30 482 N 44.343 -0.763751 1.37857 0
M  V30 483 C 45.29 -1.87726 1.34267 0
M  V30 484 C 46.26 -1.64807 0.206879 0
M  V30 485 O 47.445 -1.86613 0.397508 0
M  V30 486 C 44.585 -3.24896 1.16346 0
M  V30 487 C 43.698 -3.59716 2.39225 0
M  V30 488 C 42.833 -4.86137 2.14114 0
M  V30 489 C 41.872 -5.13711 3.32817 0
M  V30 490 N 41.009 -6.31323 3.07206 0
M  V30 491 H 45.849 -1.90129 2.29466 0
M  V30 492 H 43.386 -0.929433 1.14017 0
M  V30 493 H 45.344 -4.04036 1.03975 0
M  V30 494 H 43.974 -3.21847 0.247909 0
M  V30 495 H 43.026 -2.75498 2.62307 0
M  V30 496 H 44.338 -3.76027 3.27728 0
M  V30 497 H 43.492 -5.73198 1.9882 0
M  V30 498 H 42.231 -4.71945 1.22961 0
M  V30 499 H 41.236 -4.25123 3.48641 0
M  V30 500 H 42.461 -5.29807 4.24832 0
M  V30 501 H 40.407 -6.18474 2.1869 0
M  V30 502 H 40.324 -6.48087 3.89254 0
M  V30 503 H 41.592 -7.213 2.95546 0
M  V30 504 N 45.8211 -1.22559 -0.990812 0
M  V30 505 C 47.0491 -1.07779 -1.76611 0
M  V30 506 C 47.4641 0.371513 -1.85109 0
M  V30 507 O 46.8211 1.25737 -1.32274 0
M  V30 508 C 46.8721 -1.68512 -3.19822 0
M  V30 509 O 46.5931 -3.07774 -3.1178 0
M  V30 510 C 48.0941 -1.59035 -4.13791 0
M  V30 511 H 45.3141 -0.377729 -0.554583 0
M  V30 512 H 47.8581 -1.62195 -1.24551 0
M  V30 513 H 46.0131 -1.18154 -3.68942 0
M  V30 514 H 46.4271 -3.37062 -4.01858 0
M  V30 515 H 47.9011 -2.0625 -5.1202 0
M  V30 516 H 48.3781 -0.547273 -4.35777 0
M  V30 517 H 48.9841 -2.08709 -3.70568 0
M  V30 518 N 47.2992 1.18797 -1.03562 0
M  V30 519 C 48.2292 2.24472 -0.643019 0
M  V30 520 C 49.2102 1.66433 0.351283 0
M  V30 521 O 50.3952 1.92803 0.232505 0
M  V30 522 C 47.5252 3.473 4.24935e-05 0
M  V30 523 C 46.4792 4.18055 -0.917257 0
M  V30 524 C 45.8052 5.34519 -0.138941 0
M  V30 525 C 47.1052 4.72109 -2.23407 0
M  V30 526 H 48.7992 2.57566 -1.52643 0
M  V30 527 H 46.3452 1.23806 -0.735394 0
M  V30 528 H 48.2982 4.20426 0.286383 0
M  V30 529 H 47.0222 3.13424 0.918299 0
M  V30 530 H 45.6812 3.46821 -1.1879 0
M  V30 531 H 45.3292 4.96891 0.781562 0
M  V30 532 H 45.0292 5.82794 -0.750005 0
M  V30 533 H 46.5532 6.10438 0.1405 0
M  V30 534 H 47.9672 5.36955 -2.00879 0
M  V30 535 H 46.3642 5.30897 -2.79765 0
M  V30 536 H 47.4342 3.89807 -2.88407 0
M  V30 537 N 48.7773 0.814389 1.34928 0
M  V30 538 C 49.7073 0.244827 2.32213 0
M  V30 539 C 50.6883 -0.634024 1.57842 0
M  V30 540 O 51.8733 -0.562676 1.8587 0
M  V30 541 C 49.0033 -0.601106 3.42058 0
M  V30 542 C 47.9573 0.179896 4.27622 0
M  V30 543 C 47.2833 -0.788237 5.28858 0
M  V30 544 C 48.5833 1.38329 5.03649 0
M  V30 545 H 50.2773 1.05763 2.80097 0
M  V30 546 H 47.8233 0.510029 1.34665 0
M  V30 547 H 49.7763 -1.00968 4.09125 0
M  V30 548 H 48.5003 -1.44688 2.92802 0
M  V30 549 H 47.1593 0.569739 3.62146 0
M  V30 550 H 46.8073 -1.62973 4.75866 0
M  V30 551 H 46.5073 -0.269942 5.8698 0
M  V30 552 H 48.0313 -1.19485 5.98795 0
M  V30 553 H 49.4453 1.04918 5.63618 0
M  V30 554 H 47.8423 1.83662 5.71304 0
M  V30 555 H 48.9123 2.16592 4.33839 0
M  V30 556 N 50.2554 -1.46986 0.568584 0
M  V30 557 C 51.1874 -2.28233 -0.210337 0
M  V30 558 C 52.2004 -1.37682 -0.868767 0
M  V30 559 O 53.3894 -1.62406 -0.740705 0
M  V30 560 C 50.4894 -3.12293 -1.3163 0
M  V30 561 C 49.6624 -4.30878 -0.7525 0
M  V30 562 C 48.7214 -4.96445 -1.74439 0
M  V30 563 O 47.7474 -5.54482 -1.286 0
M  V30 564 N 48.9494 -4.92171 -3.07812 0
M  V30 565 H 51.7144 -2.95723 0.486648 0
M  V30 566 H 49.2754 -1.56742 0.405409 0
M  V30 567 H 51.2674 -3.53022 -1.97883 0
M  V30 568 H 49.8374 -2.46971 -1.91636 0
M  V30 569 H 49.0574 -3.94104 0.0871128 0
M  V30 570 H 50.3454 -5.07558 -0.35536 0
M  V30 571 H 49.7434 -4.46239 -3.47688 0
M  V30 572 H 48.3004 -5.36884 -3.69592 0
M  V30 573 N 51.7335 -0.305618 -1.54608 0
M  V30 574 C 52.9635 0.304333 -2.04346 0
M  V30 575 C 53.3715 1.47715 -1.18224 0
M  V30 576 O 52.7145 1.82591 -0.201577 0
M  V30 577 C 52.7765 0.819031 -3.50046 0
M  V30 578 C 52.4405 -0.22912 -4.56425 0
M  V30 579 C 53.4375 -1.05914 -5.08997 0
M  V30 580 C 51.1225 -0.372148 -5.0092 0
M  V30 581 C 53.1165 -2.01809 -6.04609 0
M  V30 582 C 50.8035 -1.33454 -5.9635 0
M  V30 583 C 51.8015 -2.15599 -6.48079 0
M  V30 584 O 51.4895 -3.10205 -7.41639 0
M  V30 585 H 51.2215 0.0693996 -0.672428 0
M  V30 586 H 53.7755 -0.444548 -2.00532 0
M  V30 587 H 52.0055 1.61852 -3.51199 0
M  V30 588 H 53.6945 1.34537 -3.82955 0
M  V30 589 H 54.4605 -0.959538 -4.75413 0
M  V30 590 H 50.3395 0.257304 -4.60281 0
M  V30 591 H 53.8835 -2.65966 -6.44909 0
M  V30 592 H 49.7805 -1.43485 -6.29351 0
M  V30 593 H 50.5485 -3.05237 -7.59455 0
M  V30 594 N 53.2116 1.57565 -0.0334293 0
M  V30 595 C 54.4366 1.96689 0.657895 0
M  V30 596 C 54.8616 0.910057 1.64619 0
M  V30 597 O 54.2196 -0.128598 1.80843 0
M  V30 598 C 54.2676 3.34905 1.33683 0
M  V30 599 O 53.3716 3.31574 2.45219 0
M  V30 600 H 52.7126 0.641205 0.172489 0
M  V30 601 H 55.2426 2.04372 -0.0965621 0
M  V30 602 H 55.2526 3.71234 1.69262 0
M  V30 603 H 53.9276 4.11366 0.612411 0
M  V30 604 H 52.5046 3.06968 2.11719 0
M  V30 605 N 54.6897 -0.239769 1.55765 0
M  V30 606 C 56.1007 -0.808263 1.68297 0
M  V30 607 C 56.4517 -1.85736 0.632181 0
M  V30 608 O 55.5767 -2.15277 -0.220204 0
M  V30 609 C 56.1717 -1.47284 3.05111 0
M  V30 610 C 54.7307 -1.98895 3.19559 0
M  V30 611 C 53.8777 -0.842575 2.64189 0
M  V30 612 H 56.8287 -0.0154422 1.58692 0
M  V30 613 H 56.8497 -2.34111 2.99954 0
M  V30 614 H 56.3617 -0.709053 3.81568 0
M  V30 615 H 54.4627 -2.78132 2.47938 0
M  V30 616 H 54.5757 -2.18143 4.26556 0
M  V30 617 H 52.9397 -1.24501 2.22197 0
M  V30 618 H 53.7227 -0.0917552 3.43177 0
M  V30 619 N 56.1678 -1.49265 -0.50573 0
M  V30 620 C 57.3928 -1.62478 -1.28902 0
M  V30 621 C 57.8178 -0.294332 -1.85783 0
M  V30 622 O 57.1758 0.737412 -1.65626 0
M  V30 623 C 57.2238 -2.69268 -2.39848 0
M  V30 624 O 56.3278 -2.28113 -3.43567 0
M  V30 625 H 55.6688 -0.54399 -0.380751 0
M  V30 626 H 58.1988 -1.95421 -0.605952 0
M  V30 627 H 58.2088 -2.91291 -2.85681 0
M  V30 628 H 56.8838 -3.65846 -1.97812 0
M  V30 629 H 55.4608 -2.16401 -3.03685 0
M  V30 630 N 57.6459 0.756429 -1.3826 0
M  V30 631 C 58.8709 1.55077 -1.37717 0
M  V30 632 C 59.2959 1.88073 0.03164 0
M  V30 633 O 58.6539 1.50364 1.01293 0
M  V30 634 C 58.7019 2.8283 -2.23695 0
M  V30 635 O 57.8059 3.77862 -1.6521 0
M  V30 636 H 57.1469 0.469152 -0.469885 0
M  V30 637 H 59.6769 0.935019 -1.81985 0
M  V30 638 H 59.6869 3.31783 -2.37453 0
M  V30 639 H 58.3619 2.58144 -3.2609 0
M  V30 640 H 56.9389 3.36555 -1.60578 0
M  V30 641 N 59.124 1.23083 0.984299 0
M  V30 642 C 60.352 1.08714 1.76037 0
M  V30 643 C 60.767 -0.361691 1.85303 0
M  V30 644 O 60.124 -1.25034 1.32939 0
M  V30 645 C 60.175 1.70206 3.18923 0
M  V30 646 O 59.896 3.09423 3.10144 0
M  V30 647 C 61.397 1.61227 4.12941 0
M  V30 648 H 58.617 0.380664 0.552572 0
M  V30 649 H 61.161 1.62853 1.23689 0
M  V30 650 H 59.316 1.20109 3.6831 0
M  V30 651 H 59.73 3.39188 4.00065 0
M  V30 652 H 61.204 2.08962 5.10919 0
M  V30 653 H 61.681 0.570375 4.35481 0
M  V30 654 H 62.287 2.10671 3.69456 0
M  V30 655 N 60.6021 -1.18246 1.0419 0
M  V30 656 C 61.5501 -2.23968 0.627792 0
M  V30 657 C 62.5441 -1.65828 -0.346019 0
M  V30 658 O 63.7501 -1.78733 -0.213175 0
M  V30 659 H 60.1251 -0.728939 0.184802 0
M  V30 660 H 62.0961 -2.56202 1.52981 0
M  V30 661 C 60.8451 -3.47699 0.00796591 0
M  V30 662 H 60.1681 -3.92734 0.748347 0
M  V30 663 H 61.6081 -4.23294 -0.24455 0
M  V30 664 C 60.0671 -3.13153 -1.24246 0
M  V30 665 O 60.5971 -3.27003 -2.33307 0
M  V30 666 N 58.8031 -2.67467 -1.13622 0
M  V30 667 H 58.3501 -2.56396 -0.248734 0
M  V30 668 H 58.3081 -2.44724 -1.97377 0
M  V30 669 N 62.0802 -0.821533 -1.34494 0
M  V30 670 C 63.3052 -0.420873 -2.03085 0
M  V30 671 C 63.7302 0.964915 -1.61465 0
M  V30 672 O 63.0882 1.62763 -0.798607 0
M  V30 673 C 63.1362 -0.529414 -3.56693 0
M  V30 674 O 62.2402 0.451302 -4.09923 0
M  V30 675 H 61.5812 -0.173489 -0.640935 0
M  V30 676 H 64.1112 -1.11157 -1.71771 0
M  V30 677 H 64.1212 -0.404671 -4.05988 0
M  V30 678 H 62.7962 -1.54014 -3.86332 0
M  V30 679 H 61.3732 0.285558 -3.71805 0
M  V30 680 N 63.5583 1.46682 -0.576371 0
M  V30 681 C 64.4903 2.28341 0.198231 0
M  V30 682 C 65.5033 1.38141 0.861453 0
M  V30 683 O 66.6923 1.62797 0.732082 0
M  V30 684 C 63.7923 3.12986 1.29972 0
M  V30 685 C 62.9653 4.31271 0.729639 0
M  V30 686 C 62.0243 4.97363 1.71803 0
M  V30 687 O 61.0503 5.55156 1.25658 0
M  V30 688 N 62.2523 4.93796 3.05198 0
M  V30 689 H 65.0173 2.9546 -0.502324 0
M  V30 690 H 62.5783 1.56525 -0.413715 0
M  V30 691 H 64.5703 3.54066 1.96008 0
M  V30 692 H 63.1403 2.47984 1.90323 0
M  V30 693 H 62.3603 3.94052 -0.108012 0
M  V30 694 H 63.6483 5.07739 0.328438 0
M  V30 695 H 63.0463 4.48077 3.45317 0
M  V30 696 H 61.6033 5.38837 3.6674 0
M  V30 697 N 65.0364 0.313813 1.54444 0
M  V30 698 C 66.4474 -0.176243 1.85866 0
M  V30 699 C 66.7984 -1.52405 1.23561 0
M  V30 700 O 65.9234 -2.09605 0.538016 0
M  V30 701 C 66.5184 -0.32657 3.37222 0
M  V30 702 C 65.0774 -0.760846 3.6863 0
M  V30 703 C 64.2244 0.123247 2.77026 0
M  V30 704 H 67.1754 0.534418 1.49431 0
M  V30 705 H 67.1964 -1.15908 3.62416 0
M  V30 706 H 66.7084 0.654531 3.82541 0
M  V30 707 H 64.8094 -1.75204 3.28838 0
M  V30 708 H 64.9224 -0.571353 4.75681 0
M  V30 709 H 63.2864 -0.399597 2.51546 0
M  V30 710 H 64.0694 1.10094 3.25168 0
M  V30 711 N 66.5145 -1.57545 0.0417849 0
M  V30 712 C 67.7605 -1.93424 -0.629168 0
M  V30 713 C 68.1155 -0.919564 -1.69002 0
M  V30 714 O 67.4085 0.0626178 -1.91498 0
M  V30 715 C 67.6025 -3.33794 -1.27735 0
M  V30 716 C 67.4315 -4.48822 -0.280806 0
M  V30 717 C 66.2015 -5.05148 0.123869 0
M  V30 718 C 68.3995 -5.12148 0.470012 0
M  V30 719 N 66.3815 -6.03703 1.11426 0
M  V30 720 C 67.7525 -6.05921 1.31377 0
M  V30 721 C 69.8075 -4.95078 0.529343 0
M  V30 722 C 68.5105 -6.84459 2.21152 0
M  V30 723 C 70.5365 -5.74235 1.41448 0
M  V30 724 C 69.8985 -6.67634 2.24598 0
M  V30 725 H 65.9975 -0.755418 -0.202158 0
M  V30 726 H 68.5815 -1.94378 0.111923 0
M  V30 727 H 66.7525 -3.33635 -1.98852 0
M  V30 728 H 68.4845 -3.56988 -1.90635 0
M  V30 729 H 65.2395 -4.72923 -0.253178 0
M  V30 730 H 65.6635 -6.57674 1.60607 0
M  V30 731 H 70.3055 -4.22683 -0.0992798 0
M  V30 732 H 68.0235 -7.56151 2.85063 0
M  V30 733 H 71.6095 -5.63057 1.46484 0
M  V30 734 H 70.4895 -7.27817 2.9198 0
M  V30 735 N 67.9926 0.231505 -1.5589 0
M  V30 736 C 68.9426 1.29007 -1.87993 0
M  V30 737 C 69.9266 1.42764 -0.742102 0
M  V30 738 O 71.1186 1.45747 -1.00433 0
M  V30 739 C 68.2476 2.6425 -2.1915 0
M  V30 740 C 67.3336 2.54435 -3.39299 0
M  V30 741 N 67.7246 2.14262 -4.58176 0
M  V30 742 C 66.0226 2.85416 -3.42715 0
M  V30 743 C 66.7236 2.15455 -5.40328 0
M  V30 744 N 65.6996 2.55558 -4.79783 0
M  V30 745 H 69.5016 0.970213 -2.77424 0
M  V30 746 H 67.0156 0.440097 -1.56323 0
M  V30 747 H 69.0126 3.40665 -2.40319 0
M  V30 748 H 67.6726 2.9709 -1.31025 0
M  V30 749 H 68.6836 1.85554 -4.83518 0
M  V30 750 H 65.3606 3.22693 -2.64906 0
M  V30 751 H 66.7506 1.86605 -6.45467 0
M  V30 752 N 69.4707 1.49531 0.497807 0
M  V30 753 C 70.7177 1.59179 1.25173 0
M  V30 754 C 71.0457 0.279932 1.92475 0
M  V30 755 O 70.3007 -0.732383 1.81479 0
M  V30 756 C 70.5997 2.70252 2.33878 0
M  V30 757 C 70.2657 4.11644 1.84012 0
M  V30 758 C 68.9277 4.50121 1.70132 0
M  V30 759 C 71.2797 5.00121 1.46725 0
M  V30 760 C 68.6077 5.74845 1.17348 0
M  V30 761 C 70.9597 6.25366 0.95392 0
M  V30 762 C 69.6237 6.6267 0.801538 0
M  V30 763 H 68.8937 0.582478 0.45804 0
M  V30 764 H 71.5407 1.83373 0.551948 0
M  V30 765 H 69.8457 2.40041 3.09657 0
M  V30 766 H 71.5427 2.74925 2.9192 0
M  V30 767 H 68.1327 3.81274 1.95775 0
M  V30 768 H 72.3167 4.71048 1.56294 0
M  V30 769 H 67.5727 6.02444 1.04264 0
M  V30 770 H 71.7467 6.93301 0.656225 0
M  V30 771 H 69.3737 7.59197 0.390351 0
M  V30 772 N 70.9488 -0.749086 1.3866 0
M  V30 773 C 72.1978 -1.50371 1.3443 0
M  V30 774 C 72.5108 -1.95503 -0.0616397 0
M  V30 775 O 73.7168 -2.70554 -0.226489 0
M  V30 776 C 72.1728 -2.71644 2.36088 0
M  V30 777 C 71.7808 -2.3352 3.82325 0
M  V30 778 C 73.5248 -3.49518 2.40909 0
M  V30 779 C 71.4318 -3.51431 4.75658 0
M  V30 780 H 70.3618 -0.564628 0.499712 0
M  V30 781 H 73.0128 -0.818449 1.64237 0
M  V30 782 H 71.3948 -3.42175 1.9933 0
M  V30 783 H 72.5688 -1.70627 4.28046 0
M  V30 784 H 70.8838 -1.6877 3.80665 0
M  V30 785 H 73.4808 -4.37197 3.07836 0
M  V30 786 H 73.8238 -3.90992 1.42937 0
M  V30 787 H 74.3568 -2.86005 2.76489 0
M  V30 788 H 71.0958 -3.15019 5.74842 0
M  V30 789 H 70.6158 -4.13352 4.34627 0
M  V30 790 H 72.2948 -4.17953 4.93887 0
M  V30 791 N 72.4269 -1.23603 -0.977757 0
M  V30 792 C 73.6729 -1.07129 -1.72195 0
M  V30 793 C 74.0059 0.390501 -1.90233 0
M  V30 794 O 73.2809 1.28902 -1.45653 0
M  V30 795 C 73.5639 -1.80031 -3.11867 0
M  V30 796 C 73.4169 -3.33899 -3.01383 0
M  V30 797 C 74.7359 -1.56492 -4.11337 0
M  V30 798 H 71.8549 -0.390571 -0.624999 0
M  V30 799 H 74.4969 -1.52142 -1.13811 0
M  V30 800 H 72.6469 -1.41768 -3.6171 0
M  V30 801 H 74.3189 -3.81699 -2.59043 0
M  V30 802 H 72.5619 -3.62796 -2.37827 0
M  V30 803 H 73.2329 -3.801 -4.00285 0
M  V30 804 H 75.7089 -1.89757 -3.70313 0
M  V30 805 H 74.5849 -2.09973 -5.07151 0
M  V30 806 H 74.8459 -0.500874 -4.39254 0
M  V30 807 N 73.905 1.17692 -1.04816 0
M  V30 808 C 74.868 2.19787 -0.650117 0
M  V30 809 C 75.868 1.58044 0.296427 0
M  V30 810 O 77.058 1.74012 0.0808097 0
M  V30 811 C 74.19 3.40869 0.0456987 0
M  V30 812 H 75.383 2.56516 -1.5537 0
M  V30 813 H 72.936 1.31708 -0.841594 0
M  V30 814 H 73.671 3.09681 0.962726 0
M  V30 815 H 73.456 3.86928 -0.634727 0
M  V30 816 H 74.946 4.16445 0.310432 0
M  V30 817 N 75.3831 0.828654 1.34056 0
M  V30 818 C 76.6081 0.431637 2.02859 0
M  V30 819 C 77.0331 -0.956339 1.61975 0
M  V30 820 O 76.3911 -1.62338 0.807228 0
M  V30 821 C 76.4391 0.548323 3.56407 0
M  V30 822 O 75.5431 -0.429556 4.10157 0
M  V30 823 H 74.8841 0.176886 0.640006 0
M  V30 824 H 77.4141 1.12066 1.71179 0
M  V30 825 H 77.4241 0.426196 4.05768 0
M  V30 826 H 76.0991 1.5606 3.8551 0
M  V30 827 H 74.6761 -0.265836 3.71951 0
M  V30 828 N 76.8612 -1.46375 0.584142 0
M  V30 829 C 78.0892 -2.06761 0.0759296 0
M  V30 830 C 78.5042 -1.43266 -1.22965 0
M  V30 831 O 77.8612 -0.538458 -1.74376 0
M  V30 832 C 77.9122 -3.61375 -0.0950384 0
M  V30 833 O 77.6332 -4.22495 1.15887 0
M  V30 834 C 79.1342 -4.38693 -0.637434 0
M  V30 835 H 76.3542 -0.668479 0.0581075 0
M  V30 836 H 78.8982 -1.8798 0.805218 0
M  V30 837 H 77.0532 -3.79578 -0.774554 0
M  V30 838 H 77.4672 -5.15385 0.973598 0
M  V30 839 H 78.9412 -5.47464 -0.706237 0
M  V30 840 H 79.4182 -4.06836 -1.65472 0
M  V30 841 H 80.0242 -4.25299 0.00725967 0
M  V30 842 N 78.3393 -0.321999 -1.54275 0
M  V30 843 C 79.2493 0.553631 -2.27974 0
M  V30 844 C 80.2653 1.13054 -1.32268 0
M  V30 845 O 81.4413 1.15084 -1.6528 0
M  V30 846 C 78.5063 1.69927 -3.02201 0
M  V30 847 C 77.5673 1.15433 -4.1349 0
M  V30 848 C 76.8003 2.24537 -4.84168 0
M  V30 849 O 77.0233 3.44852 -4.5435 0
M  V30 850 O 75.9573 1.90044 -5.7111 0
M  V30 851 H 79.7833 -0.0448345 -3.03667 0
M  V30 852 H 77.3683 -0.0877418 -1.49142 0
M  V30 853 H 79.2503 2.3663 -3.48689 0
M  V30 854 H 77.9253 2.28395 -2.29385 0
M  V30 855 H 76.8323 0.452436 -3.71354 0
M  V30 856 H 78.1653 0.614805 -4.88345 0
M  V30 857 N 79.8174 1.5752 -0.0501392 0
M  V30 858 C 80.7274 2.14952 0.939827 0
M  V30 859 C 81.7434 1.10706 1.34239 0
M  V30 860 O 82.9194 1.42869 1.41952 0
M  V30 861 C 79.9844 2.68232 2.19665 0
M  V30 862 C 79.0454 3.87272 1.85253 0
M  V30 863 C 78.2784 4.38002 3.04943 0
M  V30 864 O 78.5014 3.87811 4.18281 0
M  V30 865 O 77.4354 5.29602 2.86017 0
M  V30 866 H 81.2614 2.9986 0.481392 0
M  V30 867 H 78.8464 1.4841 0.171699 0
M  V30 868 H 80.7284 3.02475 2.93406 0
M  V30 869 H 79.4034 1.86395 2.64648 0
M  V30 870 H 78.3104 3.5792 1.0883 0
M  V30 871 H 79.6434 4.70336 1.4507 0
M  V30 872 N 81.2955 -0.223234 1.56011 0
M  V30 873 C 82.5435 -0.946003 1.78592 0
M  V30 874 C 82.8645 -1.84936 0.618349 0
M  V30 875 O 82.1345 -1.92473 -0.364833 0
M  V30 876 H 80.7145 -0.352298 0.658707 0
M  V30 877 H 83.3765 -0.235494 1.93472 0
M  V30 878 H 82.4725 -1.55381 2.70672 0
M  V30 879 N 82.7736 -1.49793 -0.48987 0
M  V30 880 C 83.7206 -1.67281 -1.59014 0
M  V30 881 C 84.6906 -0.514177 -1.57941 0
M  V30 882 O 85.8756 -0.742533 -1.75759 0
M  V30 883 C 83.0156 -1.75569 -2.97102 0
M  V30 884 C 82.1286 -3.0281 -3.08107 0
M  V30 885 C 81.2636 -3.02008 -4.36995 0
M  V30 886 C 80.3026 -4.23782 -4.41673 0
M  V30 887 N 79.4396 -4.20826 -5.62005 0
M  V30 888 H 84.2796 -2.61224 -1.43409 0
M  V30 889 H 81.8166 -1.29508 -0.697565 0
M  V30 890 H 83.7746 -1.78354 -3.77155 0
M  V30 891 H 82.4046 -0.850827 -3.11385 0
M  V30 892 H 81.4566 -3.09584 -2.21047 0
M  V30 893 H 82.7686 -3.92801 -3.07423 0
M  V30 894 H 81.9226 -3.03418 -5.25378 0
M  V30 895 H 80.6616 -2.09815 -4.4026 0
M  V30 896 H 79.6666 -4.22604 -3.5169 0
M  V30 897 H 80.8916 -5.17181 -4.40115 0
M  V30 898 H 78.8376 -3.31476 -5.66091 0
M  V30 899 H 78.7546 -5.04564 -5.62984 0
M  V30 900 H 80.0226 -4.26355 -6.52565 0
M  V30 901 N 84.2517 0.741722 -1.39055 0
M  V30 902 C 85.2147 1.83733 -1.37021 0
M  V30 903 C 86.2147 1.58542 -0.268534 0
M  V30 904 O 87.4047 1.66067 -0.526076 0
M  V30 905 C 84.5367 3.2141 -1.13617 0
M  V30 906 H 85.7297 1.86941 -2.34506 0
M  V30 907 H 83.2827 0.944676 -1.24521 0
M  V30 908 H 84.0177 3.23865 -0.167863 0
M  V30 909 H 83.8027 3.4109 -1.93391 0
M  V30 910 H 85.2927 4.01477 -1.14918 0
M  V30 911 N 85.7298 1.2412 0.971189 0
M  V30 912 C 87.1458 1.00584 1.23916 0
M  V30 913 C 87.3458 -0.287481 1.99439 0
M  V30 914 O 86.4018 -1.00454 2.31658 0
M  V30 915 C 87.7148 2.21864 2.0297 0
M  V30 916 C 89.2628 2.26452 2.16076 0
M  V30 917 C 89.7378 3.47343 2.98524 0
M  V30 918 N 91.2288 3.47639 3.06107 0
M  V30 919 C 91.9638 4.37837 3.70251 0
M  V30 920 N 91.4598 5.38286 4.36142 0
M  V30 921 N 93.2528 4.25558 3.67228 0
M  V30 922 H 85.4038 2.07236 0.465499 0
M  V30 923 H 87.6668 0.909236 0.268315 0
M  V30 924 H 87.3728 3.15771 1.54861 0
M  V30 925 H 87.2468 2.23698 3.03709 0
M  V30 926 H 89.6338 1.33078 2.6339 0
M  V30 927 H 89.7148 2.28645 1.14696 0
M  V30 928 H 89.3588 4.41029 2.51905 0
M  V30 929 H 89.2888 3.42393 4.00093 0
M  V30 930 H 91.7798 2.74966 2.59233 0
M  V30 931 H 92.0928 6.03352 4.82894 0
M  V30 932 H 90.4378 5.42176 4.34822 0
M  V30 933 H 93.6288 3.46322 3.14927 0
M  V30 934 H 93.8018 4.96054 4.16935 0
M  V30 935 N 87.2079 -1.17134 1.05439 0
M  V30 936 C 88.4539 -1.87733 0.767077 0
M  V30 937 C 88.7869 -1.8098 -0.704253 0
M  V30 938 O 88.0619 -1.21951 -1.5152 0
M  V30 939 C 88.3449 -3.37659 1.25133 0
M  V30 940 C 88.1979 -3.53149 2.78578 0
M  V30 941 C 89.5169 -4.31768 0.852324 0
M  V30 942 H 86.6359 -0.681687 0.280129 0
M  V30 943 H 89.2779 -1.37732 1.30881 0
M  V30 944 H 87.4279 -3.80373 0.790469 0
M  V30 945 H 89.0999 -3.19434 3.32806 0
M  V30 946 H 87.3429 -2.95345 3.17732 0
M  V30 947 H 88.0139 -4.58403 3.07523 0
M  V30 948 H 90.4899 -3.96909 1.24911 0
M  V30 949 H 89.3659 -5.35199 1.21873 0
M  V30 950 H 89.6269 -4.41429 -0.243485 0
M  V30 951 N 88.686 -0.835752 -1.33615 0
M  V30 952 C 89.649 -0.272 -2.2758 0
M  V30 953 C 90.649 0.557487 -1.50827 0
M  V30 954 O 91.839 0.37173 -1.70188 0
M  V30 955 C 88.971 0.617173 -3.35267 0
M  V30 956 H 90.164 -1.10111 -2.78954 0
M  V30 957 H 87.717 -0.608594 -1.43965 0
M  V30 958 H 88.452 1.46884 -2.89129 0
M  V30 959 H 88.237 0.0237066 -3.92093 0
M  V30 960 H 89.727 1.005 -4.05326 0
M  V30 961 N 90.1641 1.46063 -0.591896 0
M  V30 962 C 91.1111 2.30399 0.136069 0
M  V30 963 C 92.0811 1.41169 0.875238 0
M  V30 964 O 93.2661 1.70112 0.86409 0
M  V30 965 C 90.4061 3.25804 1.13781 0
M  V30 966 C 89.5191 4.30134 0.401137 0
M  V30 967 C 88.6541 5.12659 1.39121 0
M  V30 968 C 87.6931 6.0873 0.641462 0
M  V30 969 N 86.8301 6.8409 1.58004 0
M  V30 970 H 91.6701 2.92118 -0.589144 0
M  V30 971 H 89.2071 1.43959 -0.302342 0
M  V30 972 H 91.1651 3.79569 1.73156 0
M  V30 973 H 89.7951 2.65872 1.83062 0
M  V30 974 H 88.8471 3.79152 -0.307826 0
M  V30 975 H 90.1591 4.98458 -0.184565 0
M  V30 976 H 89.3131 5.70747 2.05749 0
M  V30 977 H 88.0521 4.44316 2.01084 0
M  V30 978 H 87.0571 5.49786 -0.0385419 0
M  V30 979 H 88.2821 6.79095 0.0270945 0
M  V30 980 H 86.2281 6.18449 2.18761 0
M  V30 981 H 86.1451 7.48709 1.04738 0
M  V30 982 H 87.4131 7.4673 2.23639 0
M  V30 983 N 91.6422 0.330177 1.54103 0
M  V30 984 C 92.8672 -0.274893 2.0557 0
M  V30 985 C 93.2922 -1.44487 1.20437 0
M  V30 986 O 92.6502 -1.80021 0.214991 0
M  V30 987 C 92.6982 -0.68079 3.54115 0
M  V30 988 O 91.8022 -1.7824 3.71893 0
M  V30 989 H 91.1432 -0.0483849 0.662235 0
M  V30 990 H 93.6732 0.480508 1.98878 0
M  V30 991 H 93.6832 -0.961635 3.96505 0
M  V30 992 H 92.3582 0.174903 4.15532 0
M  V30 993 H 90.9352 -1.49985 3.41407 0
M  V30 994 N 93.1203 -1.57491 0.0584922 0
M  V30 995 C 94.0833 -2.1085 -0.898617 0
M  V30 996 C 95.0833 -1.02964 -1.23511 0
M  V30 997 O 96.2733 -1.29007 -1.17059 0
M  V30 998 C 93.4053 -2.59881 -2.20623 0
M  V30 999 H 94.5983 -2.96715 -0.435936 0
M  V30 1000 H 92.1513 -1.55141 -0.190023 0
M  V30 1001 H 92.8863 -1.77431 -2.71457 0
M  V30 1002 H 92.6713 -3.38727 -1.97501 0
M  V30 1003 H 94.1613 -3.01285 -2.89166 0
M  V30 1004 N 94.5984 0.214957 -1.56127 0
M  V30 1005 C 95.5614 1.24997 -1.92116 0
M  V30 1006 C 96.5614 1.39467 -0.800344 0
M  V30 1007 O 97.7514 1.37619 -1.06802 0
M  V30 1008 C 94.8834 2.62271 -2.17777 0
M  V30 1009 H 96.0764 0.942875 -2.84693 0
M  V30 1010 H 93.6294 0.455654 -1.49511 0
M  V30 1011 H 94.3644 2.98068 -1.27773 0
M  V30 1012 H 94.1494 2.53143 -2.99434 0
M  V30 1013 H 95.6394 3.36946 -2.46693 0
M  V30 1014 N 96.0765 1.50051 0.48192 0
M  V30 1015 C 97.3245 1.60181 1.23234 0
M  V30 1016 C 97.6455 0.299176 1.92691 0
M  V30 1017 O 96.9155 -0.682708 1.83619 0
M  V30 1018 H 95.4955 0.590232 0.457859 0
M  V30 1019 H 98.1575 1.86775 0.556881 0
M  V30 1020 H 97.2535 2.40753 1.98607 0
M  V30 1021 N 97.5546 -0.734337 1.39446 0
M  V30 1022 C 98.5026 -1.86971 1.38364 0
M  V30 1023 C 99.4966 -1.67288 0.266687 0
M  V30 1024 O 100.703 -1.74621 0.436755 0
M  V30 1025 H 97.0776 -0.615474 0.432082 0
M  V30 1026 H 99.0486 -1.85 2.34132 0
M  V30 1027 C 97.7976 -3.2466 1.24465 0
M  V30 1028 H 97.1206 -3.40402 2.09682 0
M  V30 1029 H 98.5606 -4.04292 1.27764 0
M  V30 1030 C 97.0196 -3.36867 -0.0468674 0
M  V30 1031 O 97.5496 -3.88618 -1.01681 0
M  V30 1032 N 95.7556 -2.90391 -0.110145 0
M  V30 1033 H 95.3026 -2.48466 0.679868 0
M  V30 1034 H 95.2606 -2.98939 -0.973799 0
M  V30 1035 N 99.0327 -1.24633 -0.964593 0
M  V30 1036 C 100.263 -1.11339 -1.74032 0
M  V30 1037 C 100.671 0.336593 -1.86182 0
M  V30 1038 O 100.014 1.24389 -1.35178 0
M  V30 1039 C 100.076 -1.68284 -3.1768 0
M  V30 1040 C 99.7397 -3.17196 -3.28992 0
M  V30 1041 C 100.737 -4.14308 -3.14078 0
M  V30 1042 C 98.4217 -3.57215 -3.53133 0
M  V30 1043 C 100.416 -5.4942 -3.23135 0
M  V30 1044 C 98.1027 -4.92468 -3.61827 0
M  V30 1045 C 99.1007 -5.8838 -3.46841 0
M  V30 1046 O 98.7887 -7.21173 -3.55197 0
M  V30 1047 H 98.5207 -0.389551 -0.552472 0
M  V30 1048 H 101.075 -1.65282 -1.21946 0
M  V30 1049 H 99.3047 -1.08777 -3.71085 0
M  V30 1050 H 100.994 -1.50234 -3.77074 0
M  V30 1051 H 101.76 -3.84731 -2.95308 0
M  V30 1052 H 97.6387 -2.83063 -3.63863 0
M  V30 1053 H 101.183 -6.24263 -3.11355 0
M  V30 1054 H 97.0797 -5.21714 -3.80111 0
M  V30 1055 H 97.8477 -7.29135 -3.71892 0
M  V30 1056 N 100.511 1.16574 -1.06058 0
M  V30 1057 C 101.757 1.87324 -0.777022 0
M  V30 1058 C 102.09 1.81351 0.694645 0
M  V30 1059 O 101.365 1.22753 1.50871 0
M  V30 1060 C 101.648 3.36991 -1.26922 0
M  V30 1061 C 101.501 3.51667 -2.80447 0
M  V30 1062 C 102.82 4.3131 -0.87521 0
M  V30 1063 H 99.9388 0.680191 -0.28374 0
M  V30 1064 H 102.581 1.37036 -1.3161 0
M  V30 1065 H 100.731 3.79949 -0.81063 0
M  V30 1066 H 102.403 3.17664 -3.34495 0
M  V30 1067 H 100.646 2.93656 -3.19294 0
M  V30 1068 H 101.317 4.56766 -3.0995 0
M  V30 1069 H 103.793 3.9624 -1.27014 0
M  V30 1070 H 102.669 5.34545 -1.2471 0
M  V30 1071 H 102.93 4.41552 0.220071 0
M  V30 1072 N 101.989 0.842826 1.3317 0
M  V30 1073 C 103.236 0.440447 1.97652 0
M  V30 1074 C 103.564 -1.00123 1.6675 0
M  V30 1075 O 102.819 -1.7155 0.941761 0
M  V30 1076 C 103.118 0.612607 3.52111 0
M  V30 1077 C 102.784 2.02297 4.02972 0
M  V30 1078 C 101.446 2.40874 4.16573 0
M  V30 1079 C 103.798 2.94402 4.30089 0
M  V30 1080 C 101.126 3.70852 4.54627 0
M  V30 1081 C 103.478 4.23865 4.69597 0
M  V30 1082 C 102.142 4.62392 4.81404 0
M  V30 1083 H 101.412 0.161171 0.72326 0
M  V30 1084 H 104.059 1.07061 1.58777 0
M  V30 1085 H 102.364 -0.100849 3.9167 0
M  V30 1086 H 104.061 0.2815 4.00011 0
M  V30 1087 H 100.651 1.71338 3.92863 0
M  V30 1088 H 104.835 2.65835 4.19101 0
M  V30 1089 H 100.091 4.00501 4.61962 0
M  V30 1090 H 104.265 4.95306 4.89536 0
M  V30 1091 H 101.892 5.63154 5.10648 0
M  V30 1092 N 103.467 -1.45747 0.599634 0
M  V30 1093 C 104.415 -2.322 -0.136426 0
M  V30 1094 C 105.409 -1.45497 -0.867583 0
M  V30 1095 O 106.615 -1.62027 -0.78405 0
M  V30 1096 H 102.99 -0.749368 -0.0628588 0
M  V30 1097 H 104.961 -2.92072 0.611281 0
M  V30 1098 C 103.71 -3.28974 -1.12567 0
M  V30 1099 H 103.033 -3.9568 -0.572484 0
M  V30 1100 H 104.473 -3.92212 -1.61077 0
M  V30 1101 C 102.932 -2.55561 -2.19523 0
M  V30 1102 O 103.462 -2.33111 -3.27143 0
M  V30 1103 N 101.668 -2.15832 -1.94589 0
M  V30 1104 H 101.215 -2.3429 -1.07078 0
M  V30 1105 H 101.173 -1.67034 -2.66359 0
M  V30 1106 N 104.945 -0.338344 -1.53925 0
M  V30 1107 C 105.855 0.529421 -2.28548 0
M  V30 1108 C 106.871 1.11645 -1.3346 0
M  V30 1109 O 108.047 1.13325 -1.66492 0
M  V30 1110 C 105.112 1.66713 -3.03987 0
M  V30 1111 C 104.173 1.11041 -4.14691 0
M  V30 1112 C 103.406 2.19389 -4.86522 0
M  V30 1113 O 103.629 3.40013 -4.57982 0
M  V30 1114 O 102.563 1.83976 -5.73094 0
M  V30 1115 H 106.389 -0.0770399 -3.03602 0
M  V30 1116 H 103.974 -0.103555 -1.49041 0
M  V30 1117 H 105.856 2.32918 -3.5118 0
M  V30 1118 H 104.531 2.25949 -2.31794 0
M  V30 1119 H 103.438 0.413024 -3.71813 0
M  V30 1120 H 104.771 0.562975 -4.8897 0
M  V30 1121 N 106.423 1.57458 -0.0668435 0
M  V30 1122 C 107.839 1.56947 0.289772 0
M  V30 1123 C 108.039 1.07584 1.70376 0
M  V30 1124 O 107.095 0.739486 2.41429 0
M  V30 1125 C 108.408 3.0052 0.103943 0
M  V30 1126 C 109.956 3.12517 0.173857 0
M  V30 1127 C 110.431 4.57997 0.0163682 0
M  V30 1128 N 111.922 4.63144 0.0721352 0
M  V30 1129 C 112.657 5.73394 -0.0253794 0
M  V30 1130 N 112.153 6.92576 -0.176133 0
M  V30 1131 N 113.946 5.62091 0.0313305 0
M  V30 1132 H 106.097 1.87863 -0.991027 0
M  V30 1133 H 108.36 0.86583 -0.38606 0
M  V30 1134 H 108.066 3.40729 -0.871572 0
M  V30 1135 H 107.94 3.67304 0.858366 0
M  V30 1136 H 110.327 2.72197 1.13985 0
M  V30 1137 H 110.408 2.48381 -0.611586 0
M  V30 1138 H 110.052 4.99005 -0.946374 0
M  V30 1139 H 109.982 5.20158 0.821153 0
M  V30 1140 H 112.473 3.77436 0.187263 0
M  V30 1141 H 112.786 7.72418 -0.242821 0
M  V30 1142 H 111.131 6.94678 -0.211429 0
M  V30 1143 H 114.322 4.67867 0.147773 0
M  V30 1144 H 114.495 6.47982 -0.048121 0
M  V30 1145 N 107.901 -0.206675 1.56239 0
M  V30 1146 C 108.848 -1.25617 1.93621 0
M  V30 1147 C 109.818 -1.45824 0.795274 0
M  V30 1148 O 111.003 -1.59148 1.05245 0
M  V30 1149 C 108.143 -2.59839 2.27107 0
M  V30 1150 C 107.256 -2.47308 3.54207 0
M  V30 1151 C 106.391 -3.74155 3.7707 0
M  V30 1152 C 105.43 -3.56407 4.97635 0
M  V30 1153 N 104.567 -4.75238 5.1681 0
M  V30 1154 H 109.407 -0.930383 2.83104 0
M  V30 1155 H 106.944 -0.448065 1.4011 0
M  V30 1156 H 108.902 -3.38021 2.44535 0
M  V30 1157 H 107.532 -2.90485 1.40778 0
M  V30 1158 H 106.584 -1.60483 3.4489 0
M  V30 1159 H 107.896 -2.30122 4.42544 0
M  V30 1160 H 107.05 -4.60778 3.94675 0
M  V30 1161 H 105.789 -3.94282 2.87042 0
M  V30 1162 H 104.794 -2.68168 4.79964 0
M  V30 1163 H 106.019 -3.37736 5.89161 0
M  V30 1164 H 103.965 -4.95651 4.29728 0
M  V30 1165 H 103.882 -4.60835 5.99306 0
M  V30 1166 H 105.15 -5.63246 5.38864 0
M  V30 1167 N 109.379 -1.50304 -0.473955 0
M  V30 1168 C 110.312 -1.63595 -1.59097 0
M  V30 1169 C 111.29 -0.484142 -1.55225 0
M  V30 1170 O 112.474 -0.703271 -1.7489 0
M  V30 1171 C 109.601 -1.61589 -2.97669 0
M  V30 1172 C 108.647 -2.82295 -3.19705 0
M  V30 1173 S 109.48 -4.43635 -2.99913 0
M  V30 1174 C 110.636 -4.44317 -4.40832 0
M  V30 1175 H 110.869 -2.58082 -1.47583 0
M  V30 1176 H 108.402 -1.39531 -0.661087 0
M  V30 1177 H 110.36 -1.61116 -3.7756 0
M  V30 1178 H 109.021 -0.683421 -3.06575 0
M  V30 1179 H 108.214 -2.77188 -4.20931 0
M  V30 1180 H 107.816 -2.8032 -2.47582 0
M  V30 1181 H 110.108 -4.17703 -5.33414 0
M  V30 1182 H 111.051 -5.45911 -4.50984 0
M  V30 1183 H 111.459 -3.74059 -4.22777 0
M  V30 1184 N 110.857 0.726932 -1.39834 0
M  V30 1185 C 111.787 1.85405 -1.41941 0
M  V30 1186 C 112.768 1.67751 -0.281728 0
M  V30 1187 O 113.953 1.8795 -0.488717 0
M  V30 1188 C 111.083 3.23243 -1.2701 0
M  V30 1189 C 110.037 3.55549 -2.38262 0
M  V30 1190 C 109.363 4.9241 -2.08415 0
M  V30 1191 C 110.663 3.577 -3.80589 0
M  V30 1192 H 112.357 1.83899 -2.36266 0
M  V30 1193 H 109.903 0.883349 -1.13723 0
M  V30 1194 H 111.856 4.01775 -1.27103 0
M  V30 1195 H 110.58 3.25296 -0.291564 0
M  V30 1196 H 109.239 2.79351 -2.37399 0
M  V30 1197 H 108.887 4.91052 -1.0898 0
M  V30 1198 H 108.587 5.14992 -2.82943 0
M  V30 1199 H 110.111 5.73289 -2.10171 0
M  V30 1200 H 111.525 4.26293 -3.83337 0
M  V30 1201 H 109.922 3.91804 -4.54543 0
M  V30 1202 H 110.992 2.57328 -4.10987 0
M  V30 1203 N 112.336 1.25143 0.95797 0
M  V30 1204 C 113.613 1.00472 1.67823 0
M  V30 1205 C 113.993 -0.470056 2.058 0
M  V30 1206 O 113.341 -1.44663 1.76875 0
M  V30 1207 C 113.551 1.9372 2.90299 0
M  V30 1208 C 114.899 2.21371 3.62326 0
M  V30 1209 O 115.923 1.91451 3.00375 0
M  V30 1210 O 114.782 2.72231 4.7387 0
M  V30 1211 H 111.876 0.380752 0.734137 0
M  V30 1212 H 114.422 1.36283 1.01119 0
M  V30 1213 H 113.194 2.93316 2.59001 0
M  V30 1214 H 112.817 1.58286 3.64735 0
M  V30 1215 N 113.814 -1.1601 1.06675 0
M  V30 1216 C 114.777 -2.18724 0.685001 0
M  V30 1217 C 115.777 -1.58496 -0.271246 0
M  V30 1218 O 116.967 -1.74119 -0.0531156 0
M  V30 1219 C 114.099 -3.40899 0.00853648 0
M  V30 1220 H 115.292 -2.54011 1.59431 0
M  V30 1221 H 112.845 -1.30352 0.862441 0
M  V30 1222 H 113.58 -3.11173 -0.913337 0
M  V30 1223 H 113.365 -3.8587 0.696204 0
M  V30 1224 H 114.855 -4.16886 -0.24414 0
M  V30 1225 N 115.292 -0.849877 -1.32721 0
M  V30 1226 C 116.517 -0.463856 -2.02146 0
M  V30 1227 C 116.942 0.930449 -1.63476 0
M  V30 1228 O 116.3 1.61033 -0.832952 0
M  V30 1229 C 116.348 -0.604955 -3.55489 0
M  V30 1230 O 115.452 0.36425 -4.10788 0
M  V30 1231 H 114.793 -0.187046 -0.637111 0
M  V30 1232 H 117.323 -1.14775 -1.69375 0
M  V30 1233 H 117.333 -0.490696 -4.05038 0
M  V30 1234 H 116.008 -1.62174 -3.82978 0
M  V30 1235 H 114.585 0.206628 -3.72327 0
M  V30 1236 N 116.77 1.45427 -0.607355 0
M  V30 1237 C 117.72 2.27612 0.133038 0
M  V30 1238 C 118.704 1.37307 0.838785 0
M  V30 1239 O 119.896 1.61299 0.728813 0
M  V30 1240 C 117.025 3.24173 1.12991 0
M  V30 1241 C 116.111 4.21965 0.425011 0
M  V30 1242 N 116.502 5.02982 -0.533217 0
M  V30 1243 C 114.8 4.40899 0.672593 0
M  V30 1244 C 115.501 5.73931 -0.947518 0
M  V30 1245 N 114.477 5.42819 -0.291321 0
M  V30 1246 H 118.279 2.87649 -0.602935 0
M  V30 1247 H 115.793 1.56576 -0.431006 0
M  V30 1248 H 117.79 3.81783 1.67473 0
M  V30 1249 H 116.45 2.65696 1.86644 0
M  V30 1250 H 117.461 5.09843 -0.90995 0
M  V30 1251 H 114.138 3.93547 1.39382 0
M  V30 1252 H 115.528 6.49037 -1.73782 0
M  V30 1253 N 118.248 0.346503 1.53744 0
M  V30 1254 C 119.494 -0.249473 2.0126 0
M  V30 1255 C 119.827 -1.49965 1.23386 0
M  V30 1256 O 119.102 -1.91811 0.32229 0
M  V30 1257 C 119.385 -0.560643 3.55709 0
M  V30 1258 C 119.238 0.701836 4.44291 0
M  V30 1259 C 120.557 -1.36905 4.18264 0
M  V30 1260 H 117.676 -0.0891987 0.731582 0
M  V30 1261 H 120.318 0.467624 1.84156 0
M  V30 1262 H 118.468 -1.17156 3.70414 0
M  V30 1263 H 120.14 1.33974 4.41417 0
M  V30 1264 H 118.383 1.32612 4.13033 0
M  V30 1265 H 119.054 0.43933 5.50249 0
M  V30 1266 H 121.53 -0.852448 4.07275 0
M  V30 1267 H 120.406 -1.55553 5.26398 0
M  V30 1268 H 120.667 -2.37203 3.73078 0
M  V30 1269 N 119.726 -1.57421 0.075193 0
M  V30 1270 C 120.972 -1.93905 -0.594025 0
M  V30 1271 C 121.305 -0.955701 -1.69056 0
M  V30 1272 O 120.58 0.0145373 -1.94495 0
M  V30 1273 C 120.863 -3.40638 -1.1678 0
M  V30 1274 C 120.716 -4.49733 -0.0776792 0
M  V30 1275 C 122.035 -3.88259 -2.07228 0
M  V30 1276 H 119.154 -0.705105 -0.214466 0
M  V30 1277 H 121.796 -1.8947 0.141854 0
M  V30 1278 H 119.946 -3.44549 -1.79494 0
M  V30 1279 H 121.618 -4.57942 0.555573 0
M  V30 1280 H 119.861 -4.29751 0.591286 0
M  V30 1281 H 120.532 -5.49549 -0.519603 0
M  V30 1282 H 123.008 -3.86376 -1.54445 0
M  V30 1283 H 121.884 -4.91533 -2.44308 0
M  V30 1284 H 122.145 -3.26396 -2.98191 0
M  V30 1285 N 121.204 0.198386 -1.56346 0
M  V30 1286 C 122.45 0.920648 -1.80698 0
M  V30 1287 C 122.783 1.83045 -0.648697 0
M  V30 1288 O 122.058 1.91308 0.350925 0
M  V30 1289 C 122.341 1.73971 -3.15287 0
M  V30 1290 C 122.194 0.85485 -4.41602 0
M  V30 1291 C 123.513 2.71296 -3.46535 0
M  V30 1292 H 120.632 0.333261 -0.657348 0
M  V30 1293 H 123.274 0.188198 -1.89066 0
M  V30 1294 H 121.424 2.36416 -3.08285 0
M  V30 1295 H 123.096 0.245362 -4.60647 0
M  V30 1296 H 121.339 0.161398 -4.335 0
M  V30 1297 H 122.01 1.46286 -5.32264 0
M  V30 1298 H 124.486 2.18983 -3.53816 0
M  V30 1299 H 123.362 3.2569 -4.41834 0
M  V30 1300 H 123.623 3.5018 -2.69864 0
M  V30 1301 N 122.682 1.50554 0.465978 0
M  V30 1302 C 123.929 1.61798 1.21768 0
M  V30 1303 C 124.257 0.320696 1.91838 0
M  V30 1304 O 123.512 -0.693724 1.82992 0
M  V30 1305 C 123.811 2.75152 2.28093 0
M  V30 1306 C 123.477 4.15454 1.75239 0
M  V30 1307 C 122.139 4.53628 1.60546 0
M  V30 1308 C 124.491 5.03121 1.36083 0
M  V30 1309 C 121.819 5.77204 1.05128 0
M  V30 1310 C 124.171 6.27249 0.821056 0
M  V30 1311 C 122.835 6.64221 0.660795 0
M  V30 1312 H 122.105 0.592063 0.445582 0
M  V30 1313 H 124.752 1.84503 0.512927 0
M  V30 1314 H 123.057 2.46556 3.04496 0
M  V30 1315 H 124.754 2.81055 2.86023 0
M  V30 1316 H 121.344 3.85341 1.87644 0
M  V30 1317 H 125.528 4.74257 1.46267 0
M  V30 1318 H 120.784 6.0452 0.91462 0
M  V30 1319 H 124.958 6.94537 0.509018 0
M  V30 1320 H 122.585 7.59854 0.229226 0
M  V30 1321 N 124.16 -0.719506 1.40217 0
M  V30 1322 C 125.4 -1.49181 1.39729 0
M  V30 1323 C 125.764 -1.92 -0.00250614 0
M  V30 1324 O 126.965 -2.68473 -0.132479 0
M  V30 1325 C 125.236 -2.68767 2.35582 0
M  V30 1326 S 126.795 -3.58224 2.53418 0
M  V30 1327 H 123.613 -0.510091 0.495307 0
M  V30 1328 H 126.215 -0.841724 1.76452 0
M  V30 1329 H 124.919 -2.35475 3.36124 0
M  V30 1330 H 124.45 -3.38691 2.0013 0
M  V30 1331 H 126.465 -4.63033 1.78367 0
M  V30 1332 N 125.638 -1.25649 -0.95132 0
M  V30 1333 C 126.601 -1.06399 -2.03007 0
M  V30 1334 C 127.601 -0.0156794 -1.60792 0
M  V30 1335 O 128.791 -0.25817 -1.72276 0
M  V30 1336 C 125.923 -0.616184 -3.35285 0
M  V30 1337 H 127.116 -2.02164 -2.21517 0
M  V30 1338 H 124.669 -1.08103 -1.12887 0
M  V30 1339 H 125.404 0.343917 -3.22471 0
M  V30 1340 H 125.189 -1.37301 -3.67275 0
M  V30 1341 H 126.679 -0.503032 -4.14559 0
M  V30 1342 N 127.117 1.15442 -1.07289 0
M  V30 1343 C 128.064 2.20161 -0.692653 0
M  V30 1344 C 129.034 1.63073 0.31564 0
M  V30 1345 O 130.219 1.89725 0.202235 0
M  V30 1346 C 127.359 3.44967 -0.0959509 0
M  V30 1347 C 126.472 4.16256 -1.15564 0
M  V30 1348 C 125.607 5.28609 -0.524011 0
M  V30 1349 C 124.646 5.91715 -1.56653 0
M  V30 1350 N 123.783 6.9554 -0.957531 0
M  V30 1351 H 128.623 2.52037 -1.59002 0
M  V30 1352 H 126.16 1.2378 -0.794798 0
M  V30 1353 H 128.118 4.16341 0.267628 0
M  V30 1354 H 126.748 3.1361 0.764772 0
M  V30 1355 H 125.8 3.43385 -1.6368 0
M  V30 1356 H 127.112 4.59268 -1.94613 0
M  V30 1357 H 126.266 6.06604 -0.108032 0
M  V30 1358 H 125.005 4.86787 0.29825 0
M  V30 1359 H 124.01 5.12433 -1.9923 0
M  V30 1360 H 125.235 6.35614 -2.39107 0
M  V30 1361 H 123.181 6.55814 -0.156162 0
M  V30 1362 H 123.098 7.36977 -1.68526 0
M  V30 1363 H 124.366 7.77435 -0.567032 0
M  V30 1364 N 128.595 0.856903 1.32268 0
M  V30 1365 C 129.823 0.475439 2.01363 0
M  V30 1366 C 130.238 -0.928486 1.64392 0
M  V30 1367 O 129.595 -1.60624 0.866387 0
M  V30 1368 C 129.646 0.607545 3.56358 0
M  V30 1369 O 129.367 1.95617 3.92002 0
M  V30 1370 C 130.868 0.225382 4.42727 0
M  V30 1371 H 128.088 0.186636 0.644521 0
M  V30 1372 H 130.632 1.15446 1.68797 0
M  V30 1373 H 128.787 -0.0237719 3.87393 0
M  V30 1374 H 129.201 1.95455 4.86721 0
M  V30 1375 H 130.675 0.368813 5.50767 0
M  V30 1376 H 131.152 -0.834369 4.31202 0
M  V30 1377 H 131.758 0.831864 4.17085 0
M  V30 1378 N 130.073 -1.45103 0.615059 0
M  V30 1379 C 131.036 -2.29025 -0.0895485 0
M  V30 1380 C 132.036 -1.40174 -0.787906 0
M  V30 1381 O 133.226 -1.62217 -0.634933 0
M  V30 1382 C 130.358 -3.21376 -1.13711 0
M  V30 1383 H 131.551 -2.92807 0.648382 0
M  V30 1384 H 129.104 -1.51749 0.374444 0
M  V30 1385 H 129.839 -2.6241 -1.90556 0
M  V30 1386 H 129.624 -3.86834 -0.640475 0
M  V30 1387 H 131.114 -3.84459 -1.63036 0
M  V30 1388 N 131.551 -0.354651 -1.53558 0
M  V30 1389 C 132.484 0.540273 -2.21712 0
M  V30 1390 C 133.462 1.09161 -1.2051 0
M  V30 1391 O 134.646 1.14979 -1.49372 0
M  V30 1392 C 131.773 1.74435 -2.90328 0
M  V30 1393 C 130.819 1.32146 -4.05512 0
M  V30 1394 S 131.652 0.331924 -5.3447 0
M  V30 1395 C 132.808 1.54258 -6.06593 0
M  V30 1396 H 133.041 -0.0385776 -2.97275 0
M  V30 1397 H 130.574 -0.138736 -1.53775 0
M  V30 1398 H 132.532 2.43507 -3.30476 0
M  V30 1399 H 131.193 2.29444 -2.1451 0
M  V30 1400 H 130.386 2.21952 -4.52497 0
M  V30 1401 H 129.988 0.710091 -3.67197 0
M  V30 1402 H 132.28 2.47534 -6.30661 0
M  V30 1403 H 133.223 1.11431 -6.99277 0
M  V30 1404 H 133.631 1.74367 -5.36895 0
M  V30 1405 N 133.029 1.57378 -0.0835403 0
M  V30 1406 C 134.306 1.85363 0.624507 0
M  V30 1407 C 134.686 0.978239 1.87066 0
M  V30 1408 O 134.034 0.0475908 2.2845 0
M  V30 1409 C 134.244 3.35795 0.950947 0
M  V30 1410 C 135.592 4.03581 1.31939 0
M  V30 1411 O 136.616 3.40609 1.04232 0
M  V30 1412 O 135.475 5.14672 1.83779 0
M  V30 1413 H 132.569 0.766162 0.311329 0
M  V30 1414 H 135.115 1.69307 -0.115362 0
M  V30 1415 H 133.887 3.91244 0.0663899 0
M  V30 1416 H 133.51 3.57154 1.74719 0
M  V30 1417 N 134.507 -0.190092 1.56449 0
M  V30 1418 C 135.784 -0.935886 1.71757 0
M  V30 1419 C 136.164 -2.01173 0.639726 0
M  V30 1420 O 135.512 -2.25827 -0.348502 0
M  V30 1421 C 135.722 -1.51775 3.1427 0
M  V30 1422 C 137.07 -1.99794 3.74656 0
M  V30 1423 O 138.094 -1.61607 3.1743 0
M  V30 1424 O 136.953 -2.70079 4.751 0
M  V30 1425 H 134.047 -0.439229 0.700719 0
M  V30 1426 H 136.593 -0.179395 1.68749 0
M  V30 1427 H 135.365 -0.742505 3.84191 0
M  V30 1428 H 134.988 -2.33894 3.21527 0
M  V30 1429 N 135.985 -1.50799 -0.457987 0
M  V30 1430 C 137.231 -1.62683 -1.21088 0
M  V30 1431 C 137.564 -0.332268 -1.91336 0
M  V30 1432 O 136.839 0.667043 -1.82704 0
M  V30 1433 C 137.122 -2.81615 -2.24422 0
M  V30 1434 C 136.975 -4.20989 -1.58392 0
M  V30 1435 C 138.294 -2.96085 -3.2561 0
M  V30 1436 H 135.413 -0.592087 -0.438864 0
M  V30 1437 H 138.055 -1.83225 -0.50286 0
M  V30 1438 H 136.205 -2.64231 -2.84806 0
M  V30 1439 H 137.877 -4.49994 -1.01504 0
M  V30 1440 H 136.12 -4.24641 -0.886704 0
M  V30 1441 H 136.791 -5.0016 -2.33547 0
M  V30 1442 H 139.267 -3.12042 -2.75262 0
M  V30 1443 H 138.143 -3.80902 -3.95228 0
M  V30 1444 H 138.404 -2.0726 -3.90507 0
M  V30 1445 N 137.463 0.71206 -1.40597 0
M  V30 1446 C 138.709 1.47292 -1.40274 0
M  V30 1447 C 139.064 1.92399 -0.00576812 0
M  V30 1448 O 138.357 1.65507 0.965297 0
M  V30 1449 C 138.551 2.71039 -2.32965 0
M  V30 1450 C 138.38 2.38035 -3.81536 0
M  V30 1451 C 137.15 2.29203 -4.50327 0
M  V30 1452 C 139.348 2.02076 -4.72938 0
M  V30 1453 N 137.33 1.88911 -5.84111 0
M  V30 1454 C 138.701 1.72412 -5.95545 0
M  V30 1455 C 140.756 1.88742 -4.60739 0
M  V30 1456 C 139.459 1.30756 -7.07316 0
M  V30 1457 C 141.485 1.4849 -5.72455 0
M  V30 1458 C 140.847 1.19726 -6.94151 0
M  V30 1459 H 136.946 0.536919 -0.568544 0
M  V30 1460 H 139.53 0.825424 -1.76337 0
M  V30 1461 H 137.701 3.33533 -1.99023 0
M  V30 1462 H 139.433 3.37404 -2.23474 0
M  V30 1463 H 136.188 2.47059 -4.04053 0
M  V30 1464 H 136.612 1.71293 -6.54972 0
M  V30 1465 H 141.254 2.0964 -3.67166 0
M  V30 1466 H 138.972 1.08601 -8.00769 0
M  V30 1467 H 142.558 1.38747 -5.65014 0
M  V30 1468 H 141.438 0.890482 -7.79128 0
M  V30 1469 N 138.941 1.26152 0.944643 0
M  V30 1470 C 139.871 1.09902 2.06019 0
M  V30 1471 C 140.852 0.00519538 1.70099 0
M  V30 1472 O 142.037 0.176583 1.93396 0
M  V30 1473 C 139.167 0.727562 3.39594 0
M  V30 1474 C 138.121 1.77274 3.89561 0
M  V30 1475 C 137.447 1.25569 5.19747 0
M  V30 1476 C 138.747 3.17357 4.14827 0
M  V30 1477 H 140.441 2.03217 2.19871 0
M  V30 1478 H 137.987 0.978452 1.05652 0
M  V30 1479 H 139.94 0.600777 4.17095 0
M  V30 1480 H 138.664 -0.241287 3.25707 0
M  V30 1481 H 137.323 1.88814 3.14237 0
M  V30 1482 H 136.971 0.276783 5.02238 0
M  V30 1483 H 136.671 1.95433 5.54148 0
M  V30 1484 H 138.195 1.1415 5.99835 0
M  V30 1485 H 139.609 3.08914 4.82954 0
M  V30 1486 H 138.006 3.84781 4.60504 0
M  V30 1487 H 139.076 3.63673 3.20734 0
M  V30 1488 N 140.419 -1.14872 1.07899 0
M  V30 1489 C 141.366 -2.19791 0.704319 0
M  V30 1490 C 142.336 -1.63238 -0.306987 0
M  V30 1491 O 143.521 -1.8983 -0.192171 0
M  V30 1492 C 140.661 -3.44911 0.114244 0
M  V30 1493 C 139.774 -4.15637 1.1777 0
M  V30 1494 C 138.909 -5.28324 0.552037 0
M  V30 1495 C 137.948 -5.90875 1.59789 0
M  V30 1496 N 137.085 -6.95022 0.994404 0
M  V30 1497 H 141.925 -2.5119 1.60336 0
M  V30 1498 H 139.462 -1.23356 0.801352 0
M  V30 1499 H 141.42 -4.16477 -0.245544 0
M  V30 1500 H 140.05 -3.14011 -0.74813 0
M  V30 1501 H 139.102 -3.42512 1.65499 0
M  V30 1502 H 140.414 -4.5823 1.97046 0
M  V30 1503 H 139.568 -6.06538 0.1402 0
M  V30 1504 H 138.307 -4.86939 -0.272431 0
M  V30 1505 H 137.312 -5.11369 2.01945 0
M  V30 1506 H 138.537 -6.34337 2.42474 0
M  V30 1507 H 136.483 -6.55722 0.190939 0
M  V30 1508 H 136.4 -7.36073 1.72432 0
M  V30 1509 H 137.668 -7.77123 0.608253 0
M  V30 1510 N 141.898 -0.863906 -1.31812 0
M  V30 1511 C 142.828 -0.330843 -2.31144 0
M  V30 1512 C 143.809 0.575005 -1.60087 0
M  V30 1513 O 144.994 0.493304 -1.8783 0
M  V30 1514 C 142.124 0.47374 -3.44054 0
M  V30 1515 C 141.078 -0.338481 -4.26659 0
M  V30 1516 C 140.404 0.591412 -5.31419 0
M  V30 1517 C 141.704 -1.56926 -4.98168 0
M  V30 1518 H 143.398 -1.16086 -2.75979 0
M  V30 1519 H 140.944 -0.559657 -1.32679 0
M  V30 1520 H 142.897 0.857143 -4.12591 0
M  V30 1521 H 141.621 1.33721 -2.9797 0
M  V30 1522 H 140.28 -0.703754 -3.59782 0
M  V30 1523 H 139.928 1.45199 -4.81587 0
M  V30 1524 H 139.628 0.0519022 -5.87577 0
M  V30 1525 H 141.152 0.97179 -6.02817 0
M  V30 1526 H 142.566 -1.25764 -5.59336 0
M  V30 1527 H 140.963 -2.04739 -5.64094 0
M  V30 1528 H 142.033 -2.32544 -4.25501 0
M  V30 1529 N 143.376 1.44774 -0.622745 0
M  V30 1530 C 144.622 2.0242 -0.124083 0
M  V30 1531 C 144.955 1.4881 1.24777 0
M  V30 1532 O 144.23 0.668799 1.8264 0
M  V30 1533 C 144.513 3.59957 -0.101619 0
M  V30 1534 C 144.366 4.23867 -1.50521 0
M  V30 1535 C 145.685 4.36284 0.578272 0
M  V30 1536 H 142.804 0.735528 -0.0465645 0
M  V30 1537 H 145.446 1.72447 -0.797617 0
M  V30 1538 H 143.596 3.85623 0.471934 0
M  V30 1539 H 145.268 4.09336 -2.12701 0
M  V30 1540 H 143.511 3.81684 -2.06154 0
M  V30 1541 H 144.182 5.32843 -1.4416 0
M  V30 1542 H 146.658 4.16001 0.0906057 0
M  V30 1543 H 145.534 5.46004 0.563149 0
M  V30 1544 H 145.795 4.10271 1.64713 0
M  V30 1545 N 144.854 0.36279 1.53368 0
M  V30 1546 C 146.1 -0.228113 2.01513 0
M  V30 1547 C 146.433 -1.48648 1.2497 0
M  V30 1548 O 145.708 -1.91459 0.342616 0
M  V30 1549 C 145.991 -0.522884 3.56284 0
M  V30 1550 C 145.844 0.74892 4.43521 0
M  V30 1551 C 147.163 -1.32461 4.19693 0
M  V30 1552 H 144.282 -0.0814343 0.732487 0
M  V30 1553 H 146.924 0.48713 1.83649 0
M  V30 1554 H 145.074 -1.1322 3.71636 0
M  V30 1555 H 146.746 1.38648 4.39971 0
M  V30 1556 H 144.989 1.36986 4.11603 0
M  V30 1557 H 145.66 0.497667 5.49752 0
M  V30 1558 H 148.136 -0.809203 4.08156 0
M  V30 1559 H 147.012 -1.49961 5.28018 0
M  V30 1560 H 147.273 -2.33232 3.75573 0
M  V30 1561 N 146.332 -1.57332 0.0918853 0
M  V30 1562 C 147.609 -1.85691 -0.614668 0
M  V30 1563 C 147.989 -0.988146 -1.86545 0
M  V30 1564 O 147.337 -0.0597055 -2.28422 0
M  V30 1565 C 147.547 -3.36294 -0.933126 0
M  V30 1566 C 148.895 -4.04275 -1.29796 0
M  V30 1567 O 149.919 -3.41157 -1.02424 0
M  V30 1568 O 148.778 -5.1564 -1.81047 0
M  V30 1569 H 145.872 -0.767802 -0.307261 0
M  V30 1570 H 148.418 -1.69244 0.12434 0
M  V30 1571 H 147.19 -3.91273 -0.0456404 0
M  V30 1572 H 146.813 -3.58076 -1.72822 0
M  V30 1573 N 147.81 0.181792 -1.56548 0
M  V30 1574 C 148.742 1.24956 -1.92142 0
M  V30 1575 C 149.755 1.41022 -0.813422 0
M  V30 1576 O 150.944 1.41212 -1.09186 0
M  V30 1577 C 148.044 2.61981 -2.14987 0
M  V30 1578 C 147.217 2.6735 -3.46183 0
M  V30 1579 C 146.276 3.85664 -3.5798 0
M  V30 1580 O 145.302 3.72148 -4.30691 0
M  V30 1581 N 146.504 5.01683 -2.92053 0
M  V30 1582 H 149.269 0.947329 -2.84334 0
M  V30 1583 H 146.83 0.371629 -1.57577 0
M  V30 1584 H 148.822 3.3958 -2.20154 0
M  V30 1585 H 147.392 2.84637 -1.2923 0
M  V30 1586 H 146.612 1.75925 -3.52766 0
M  V30 1587 H 147.9 2.67939 -4.32534 0
M  V30 1588 H 147.298 5.15564 -2.32832 0
M  V30 1589 H 145.855 5.77181 -3.0283 0
M  V30 1590 N 149.288 1.51039 0.449983 0
M  V30 1591 C 150.198 1.74261 1.57067 0
M  V30 1592 C 151.214 0.626363 1.62335 0
M  V30 1593 O 152.39 0.907162 1.79812 0
M  V30 1594 C 149.455 1.85114 2.93144 0
M  V30 1595 C 148.516 3.0893 2.98095 0
M  V30 1596 C 147.749 3.19256 4.27681 0
M  V30 1597 O 147.972 2.35835 5.19363 0
M  V30 1598 O 146.906 4.12144 4.38658 0
M  V30 1599 H 150.732 2.69303 1.40391 0
M  V30 1600 H 148.317 1.35389 0.631688 0
M  V30 1601 H 150.199 1.94311 3.73926 0
M  V30 1602 H 148.874 0.932588 3.09975 0
M  V30 1603 H 147.781 3.0522 2.16314 0
M  V30 1604 H 149.114 4.00433 2.86206 0
M  V30 1605 N 150.766 -0.704594 1.40972 0
M  V30 1606 C 152.043 -1.45847 1.30338 0
M  V30 1607 C 152.423 -2.10973 -0.0732344 0
M  V30 1608 O 151.771 -2.00997 -1.08685 0
M  V30 1609 C 151.981 -2.48525 2.45023 0
M  V30 1610 C 153.329 -3.1404 2.8577 0
M  V30 1611 O 154.353 -2.58848 2.44696 0
M  V30 1612 O 153.212 -4.13981 3.56766 0
M  V30 1613 H 150.306 -0.649092 0.512454 0
M  V30 1614 H 152.852 -0.735836 1.52917 0
M  V30 1615 H 151.624 -1.98994 3.36923 0
M  V30 1616 H 151.247 -3.2831 2.24272 0
M  V30 1617 N 152.244 -1.26651 -0.937939 0
M  V30 1618 C 153.207 -1.08546 -2.01867 0
M  V30 1619 C 154.207 -0.0327327 -1.60767 0
M  V30 1620 O 155.397 -0.276427 -1.71993 0
M  V30 1621 C 152.529 -0.651711 -3.34613 0
M  V30 1622 H 153.722 -2.04502 -2.1936 0
M  V30 1623 H 151.275 -1.09294 -1.11734 0
M  V30 1624 H 152.01 0.309696 -3.22818 0
M  V30 1625 H 151.795 -1.41189 -3.65798 0
M  V30 1626 H 153.285 -0.546973 -4.14002 0
M  V30 1627 N 153.722 1.14298 -1.08507 0
M  V30 1628 C 154.999 1.81544 -0.728088 0
M  V30 1629 C 155.379 1.95838 0.78808 0
M  V30 1630 O 154.727 1.51904 1.70697 0
M  V30 1631 C 154.937 3.17169 -1.45619 0
M  V30 1632 C 156.285 3.9265 -1.61591 0
M  V30 1633 O 157.309 3.26762 -1.41793 0
M  V30 1634 O 156.168 5.10807 -1.94263 0
M  V30 1635 H 153.262 0.78491 -0.260471 0
M  V30 1636 H 155.808 1.21307 -1.18671 0
M  V30 1637 H 154.58 3.01934 -2.489 0
M  V30 1638 H 154.203 3.851 -0.989124 0
M  V30 1639 N 155.201 0.870884 1.31352 0
M  V30 1640 C 156.449 0.48132 1.96285 0
M  V30 1641 C 156.77 -0.969813 1.69173 0
M  V30 1642 O 156.04 -1.67998 1.00764 0
M  V30 1643 H 154.62 0.175002 0.726212 0
M  V30 1644 H 157.282 1.11087 1.60143 0
M  V30 1645 H 156.378 0.639825 3.05471 0
M  V30 1646 N 156.679 -1.44442 0.630414 0
M  V30 1647 C 158.095 -1.56832 0.295973 0
M  V30 1648 C 158.295 -1.61806 -1.20088 0
M  V30 1649 O 157.351 -1.5607 -1.9849 0
M  V30 1650 C 158.664 -2.84031 0.987264 0
M  V30 1651 C 160.212 -2.97742 0.96534 0
M  V30 1652 C 160.687 -4.27743 1.63708 0
M  V30 1653 N 162.178 -4.34555 1.60364 0
M  V30 1654 C 162.913 -5.33862 2.09234 0
M  V30 1655 N 162.409 -6.39578 2.66292 0
M  V30 1656 N 164.202 -5.25366 1.99867 0
M  V30 1657 H 156.353 -1.39457 1.60205 0
M  V30 1658 H 158.616 -0.668237 0.672431 0
M  V30 1659 H 158.322 -2.86338 2.04215 0
M  V30 1660 H 158.196 -3.73534 0.524588 0
M  V30 1661 H 160.583 -2.94989 -0.0810639 0
M  V30 1662 H 160.664 -2.09589 1.4665 0
M  V30 1663 H 160.308 -4.31255 2.68293 0
M  V30 1664 H 160.238 -5.14752 1.11076 0
M  V30 1665 H 162.729 -3.58772 1.18705 0
M  V30 1666 H 163.042 -7.11637 3.01317 0
M  V30 1667 H 161.387 -6.40265 2.70343 0
M  V30 1668 H 164.578 -4.41688 1.55013 0
M  V30 1669 H 164.751 -6.02606 2.38265 0
M  V30 1670 N 158.157 -0.370918 -1.53173 0
M  V30 1671 C 159.404 0.217102 -2.01333 0
M  V30 1672 C 159.732 1.48338 -1.25802 0
M  V30 1673 O 158.987 1.92698 -0.34146 0
M  V30 1674 C 159.286 0.549696 -3.53147 0
M  V30 1675 C 158.952 -0.622872 -4.46577 0
M  V30 1676 C 157.614 -0.944595 -4.71838 0
M  V30 1677 C 159.966 -1.40819 -5.01816 0
M  V30 1678 C 157.294 -2.05351 -5.49589 0
M  V30 1679 C 159.646 -2.50757 -5.80778 0
M  V30 1680 C 158.31 -2.83458 -6.04324 0
M  V30 1681 H 157.58 0.0794431 -0.736729 0
M  V30 1682 H 160.227 -0.504481 -1.84736 0
M  V30 1683 H 158.532 1.35237 -3.6772 0
M  V30 1684 H 160.229 1.017 -3.87889 0
M  V30 1685 H 156.819 -0.36209 -4.27068 0
M  V30 1686 H 161.003 -1.17289 -4.82242 0
M  V30 1687 H 156.259 -2.3108 -5.6605 0
M  V30 1688 H 160.433 -3.12022 -6.22588 0
M  V30 1689 H 158.06 -3.69508 -6.64355 0
M  V30 1690 N 159.635 1.57281 -0.100228 0
M  V30 1691 C 160.598 2.13158 0.842398 0
M  V30 1692 C 161.598 1.06202 1.20738 0
M  V30 1693 O 162.788 1.32066 1.13597 0
M  V30 1694 C 159.92 2.65639 2.13655 0
M  V30 1695 H 161.113 2.97766 0.357114 0
M  V30 1696 H 158.666 1.5559 0.148823 0
M  V30 1697 H 159.401 1.84566 2.66657 0
M  V30 1698 H 159.186 3.43844 1.88451 0
M  V30 1699 H 160.676 3.08846 2.81077 0
M  V30 1700 N 161.113 -0.173488 1.56642 0
M  V30 1701 C 162.341 -0.906095 1.86004 0
M  V30 1702 C 162.756 -1.75921 0.685355 0
M  V30 1703 O 162.113 -1.79198 -0.345578 0
M  V30 1704 C 162.164 -1.78462 3.14378 0
M  V30 1705 O 161.885 -0.965914 4.27319 0
M  V30 1706 C 163.386 -2.62707 3.57071 0
M  V30 1707 H 160.606 -0.263341 0.617165 0
M  V30 1708 H 163.15 -0.174236 2.03756 0
M  V30 1709 H 161.305 -2.46984 2.98459 0
M  V30 1710 H 161.719 -1.56655 5.00559 0
M  V30 1711 H 163.193 -3.19969 4.49804 0
M  V30 1712 H 163.67 -3.37472 2.81086 0
M  V30 1713 H 164.276 -1.99521 3.75595 0
M  V30 1714 N 162.591 -1.51276 -0.441967 0
M  V30 1715 C 164.002 -1.56244 -1.02199 0
M  V30 1716 C 164.353 -0.383149 -1.92422 0
M  V30 1717 O 163.478 0.500613 -2.1053 0
M  V30 1718 C 164.073 -2.83162 -1.86024 0
M  V30 1719 C 162.632 -2.90716 -2.39084 0
M  V30 1720 C 161.779 -2.50858 -1.18175 0
M  V30 1721 H 164.73 -1.5712 -0.223416 0
M  V30 1722 H 164.751 -2.66663 -2.71425 0
M  V30 1723 H 164.263 -3.68974 -1.20331 0
M  V30 1724 H 162.364 -2.09323 -3.08244 0
M  V30 1725 H 162.477 -3.94266 -2.72198 0
M  V30 1726 H 160.841 -2.03951 -1.52565 0
M  V30 1727 H 161.624 -3.3901 -0.541001 0
M  V30 1728 N 164.069 0.697108 -1.41344 0
M  V30 1729 C 164.979 1.84088 -1.45427 0
M  V30 1730 C 165.995 1.70545 -0.34501 0
M  V30 1731 O 167.171 1.92488 -0.592492 0
M  V30 1732 C 164.236 3.20056 -1.33286 0
M  V30 1733 C 163.297 3.45718 -2.54514 0
M  V30 1734 C 162.53 4.75199 -2.42944 0
M  V30 1735 O 162.753 5.51579 -1.45318 0
M  V30 1736 O 161.687 5.0161 -3.32672 0
M  V30 1737 H 165.513 1.836 -2.41919 0
M  V30 1738 H 163.098 0.849966 -1.22866 0
M  V30 1739 H 164.98 4.01236 -1.28794 0
M  V30 1740 H 163.655 3.2123 -0.39909 0
M  V30 1741 H 162.562 2.64474 -2.64583 0
M  V30 1742 H 163.895 3.49356 -3.46715 0
M  V30 1743 N 165.547 1.27147 0.931209 0
M  V30 1744 C 166.51 1.09615 2.01289 0
M  V30 1745 C 167.51 0.0412581 1.60747 0
M  V30 1746 O 168.7 0.285545 1.71844 0
M  V30 1747 C 165.832 0.669447 3.34262 0
M  V30 1748 H 167.025 2.05662 2.18273 0
M  V30 1749 H 164.578 1.09885 1.11153 0
M  V30 1750 H 165.313 -0.292572 3.22978 0
M  V30 1751 H 165.098 1.43127 3.65044 0
M  V30 1752 H 166.588 0.568921 4.13706 0
M  V30 1753 N 167.025 -1.13721 1.09112 0
M  V30 1754 C 167.972 -2.19031 0.727591 0
M  V30 1755 C 168.942 -1.63555 -0.289656 0
M  V30 1756 O 170.127 -1.90023 -0.172026 0
M  V30 1757 C 167.267 -3.4477 0.15082 0
M  V30 1758 C 166.38 -4.14365 1.22172 0
M  V30 1759 C 165.515 -5.27709 0.608042 0
M  V30 1760 C 164.554 -5.89147 1.66047 0
M  V30 1761 N 163.691 -6.93929 1.06806 0
M  V30 1762 H 168.531 -2.49475 1.62991 0
M  V30 1763 H 166.068 -1.22499 0.81439 0
M  V30 1764 H 168.026 -4.16714 -0.201358 0
M  V30 1765 H 166.656 -3.14787 -0.714783 0
M  V30 1766 H 165.708 -3.40737 1.69122 0
M  V30 1767 H 167.02 -4.56114 2.01895 0
M  V30 1768 H 166.174 -6.06355 0.204523 0
M  V30 1769 H 164.913 -4.872 -0.220769 0
M  V30 1770 H 163.918 -5.09198 2.07357 0
M  V30 1771 H 165.143 -6.31729 2.49189 0
M  V30 1772 H 163.089 -6.55483 0.260476 0
M  V30 1773 H 163.006 -7.34202 1.8023 0
M  V30 1774 H 164.274 -7.76434 0.690644 0
M  V30 1775 N 168.503 -0.877838 -1.30888 0
M  V30 1776 C 169.466 -0.344265 -2.266 0
M  V30 1777 C 170.466 0.50922 -1.52524 0
M  V30 1778 O 171.656 0.317398 -1.71284 0
M  V30 1779 C 168.788 0.510198 -3.37061 0
M  V30 1780 H 169.981 -1.1893 -2.7531 0
M  V30 1781 H 167.534 -0.654088 -1.41956 0
M  V30 1782 H 168.269 1.37612 -2.93655 0
M  V30 1783 H 168.054 -0.101047 -3.9197 0
M  V30 1784 H 169.544 0.875537 -4.08319 0
M  V30 1785 N 169.982 1.44106 -0.638065 0
M  V30 1786 C 170.945 2.29138 0.0531013 0
M  V30 1787 C 171.945 1.41409 0.765506 0
M  V30 1788 O 173.135 1.63206 0.609046 0
M  V30 1789 C 170.267 3.23144 1.08584 0
M  V30 1790 H 171.46 2.91739 -0.694883 0
M  V30 1791 H 169.013 1.51134 -0.398538 0
M  V30 1792 H 169.748 2.65408 1.86357 0
M  V30 1793 H 169.533 3.87804 0.578852 0
M  V30 1794 H 171.023 3.87004 1.56899 0
M  V30 1795 N 171.46 0.379036 1.52974 0
M  V30 1796 C 172.408 -0.476033 2.27677 0
M  V30 1797 C 173.402 -1.0719 1.31174 0
M  V30 1798 O 174.608 -1.01355 1.48752 0
M  V30 1799 H 170.983 -0.172255 0.732006 0
M  V30 1800 H 172.954 0.175615 2.97883 0
M  V30 1801 C 171.703 -1.5967 3.0887 0
M  V30 1802 H 171.026 -1.1475 3.82978 0
M  V30 1803 H 172.466 -2.16943 3.64296 0
M  V30 1804 C 170.925 -2.54682 2.20542 0
M  V30 1805 O 171.455 -3.57836 1.82527 0
M  V30 1806 N 169.661 -2.24183 1.84907 0
M  V30 1807 H 169.208 -1.40333 2.1602 0
M  V30 1808 H 169.166 -2.88006 1.26096 0
M  V30 1809 N 172.938 -1.57226 0.108567 0
M  V30 1810 C 174.215 -1.86333 -0.594939 0
M  V30 1811 C 174.595 -1.00788 -1.85486 0
M  V30 1812 O 173.943 -0.0839293 -2.28346 0
M  V30 1813 C 174.153 -3.37265 -0.897405 0
M  V30 1814 C 175.501 -4.05629 -1.25501 0
M  V30 1815 O 176.525 -3.42224 -0.987998 0
M  V30 1816 O 175.384 -5.17531 -1.75567 0
M  V30 1817 H 172.478 -0.771018 -0.2991 0
M  V30 1818 H 175.024 -1.69102 0.142283 0
M  V30 1819 H 173.796 -3.913 -0.00413806 0
M  V30 1820 H 173.419 -3.59889 -1.69014 0
M  V30 1821 N 174.416 0.165178 -1.56732 0
M  V30 1822 C 175.363 1.2044 -1.96883 0
M  V30 1823 C 176.333 1.43664 -0.833657 0
M  V30 1824 O 177.518 1.56302 -1.09427 0
M  V30 1825 C 174.658 2.53727 -2.33916 0
M  V30 1826 C 173.771 2.3783 -3.6064 0
M  V30 1827 C 172.906 3.64026 -3.86857 0
M  V30 1828 C 171.945 3.43088 -5.06909 0
M  V30 1829 N 171.082 4.61369 -5.29229 0
M  V30 1830 H 175.922 0.854996 -2.85471 0
M  V30 1831 H 173.459 0.41076 -1.41249 0
M  V30 1832 H 175.417 3.31419 -2.53411 0
M  V30 1833 H 174.047 2.8665 -1.48431 0
M  V30 1834 H 173.099 1.51282 -3.49024 0
M  V30 1835 H 174.411 2.18308 -4.4849 0
M  V30 1836 H 173.565 4.50152 -4.06753 0
M  V30 1837 H 172.304 3.86533 -2.97394 0
M  V30 1838 H 171.309 2.55349 -4.86906 0
M  V30 1839 H 172.534 3.21997 -5.97909 0
M  V30 1840 H 170.48 4.84084 -4.42718 0
M  V30 1841 H 170.397 4.44783 -6.11313 0
M  V30 1842 H 171.665 5.48761 -5.53608 0
M  V30 1843 N 175.894 1.51508 0.433938 0
M  V30 1844 C 177.142 1.6402 1.18075 0
M  V30 1845 C 177.463 0.360328 1.91642 0
M  V30 1846 O 176.733 -0.623945 1.85698 0
M  V30 1847 H 175.313 0.6045 0.43885 0
M  V30 1848 H 177.975 1.88452 0.497178 0
M  V30 1849 H 177.071 2.46949 1.90847 0
M  V30 1850 N 177.372 -0.689602 1.41712 0
M  V30 1851 C 178.788 -1.00093 1.24312 0
M  V30 1852 C 178.988 -2.01036 0.136729 0
M  V30 1853 O 178.044 -2.47562 -0.496918 0
M  V30 1854 C 179.357 -1.51985 2.59463 0
M  V30 1855 C 180.905 -1.63838 2.66695 0
M  V30 1856 C 181.38 -2.1913 4.02177 0
M  V30 1857 N 182.871 -2.26483 4.04054 0
M  V30 1858 C 183.606 -2.70306 5.0569 0
M  V30 1859 N 183.102 -3.13691 6.17713 0
M  V30 1860 N 184.895 -2.69923 4.9305 0
M  V30 1861 H 177.046 -0.0210029 2.1239 0
M  V30 1862 H 179.309 -0.0718733 0.945272 0
M  V30 1863 H 179.015 -0.85269 3.41207 0
M  V30 1864 H 178.889 -2.50103 2.82362 0
M  V30 1865 H 181.276 -2.29664 1.85306 0
M  V30 1866 H 181.357 -0.642492 2.476 0
M  V30 1867 H 181.001 -1.53918 4.84016 0
M  V30 1868 H 180.931 -3.19482 4.18615 0
M  V30 1869 H 183.422 -1.95874 3.23174 0
M  V30 1870 H 183.735 -3.45773 6.9113 0
M  V30 1871 H 182.08 -3.11585 6.21241 0
M  V30 1872 H 185.271 -2.35382 4.04614 0
M  V30 1873 H 185.444 -3.03758 5.72394 0
M  V30 1874 N 178.85 -1.27639 -0.924453 0
M  V30 1875 C 179.797 -1.10644 -2.0255 0
M  V30 1876 C 180.767 -0.00658438 -1.66099 0
M  V30 1877 O 181.952 -0.16952 -1.90045 0
M  V30 1878 C 179.092 -0.76309 -3.36557 0
M  V30 1879 C 178.205 -1.94091 -3.85944 0
M  V30 1880 C 177.34 -1.53914 -5.08413 0
M  V30 1881 C 176.379 -2.68425 -5.50104 0
M  V30 1882 N 175.516 -2.28815 -6.63768 0
M  V30 1883 H 180.356 -2.04858 -2.16419 0
M  V30 1884 H 177.893 -1.01974 -1.06017 0
M  V30 1885 H 179.851 -0.544822 -4.13627 0
M  V30 1886 H 178.481 0.142102 -3.22487 0
M  V30 1887 H 177.533 -2.27162 -3.05125 0
M  V30 1888 H 178.845 -2.7998 -4.12811 0
M  V30 1889 H 177.999 -1.28231 -5.92994 0
M  V30 1890 H 176.738 -0.651391 -4.8333 0
M  V30 1891 H 175.743 -2.94819 -4.64071 0
M  V30 1892 H 176.968 -3.57826 -5.7718 0
M  V30 1893 H 174.914 -1.42495 -6.40337 0
M  V30 1894 H 174.831 -3.08242 -6.90306 0
M  V30 1895 H 176.099 -2.06387 -7.51681 0
M  V30 1896 N 180.328 1.1314 -1.09713 0
M  V30 1897 C 181.575 1.84484 -0.834987 0
M  V30 1898 C 181.903 1.83689 0.639418 0
M  V30 1899 O 181.158 1.2724 1.4869 0
M  V30 1900 C 181.457 3.32167 -1.3191 0
M  V30 1901 C 181.123 3.53139 -2.80363 0
M  V30 1902 C 179.785 3.58571 -3.20905 0
M  V30 1903 C 182.137 3.60866 -3.76065 0
M  V30 1904 C 179.465 3.69267 -4.55916 0
M  V30 1905 C 181.817 3.73089 -5.10869 0
M  V30 1906 C 180.481 3.76775 -5.50996 0
M  V30 1907 H 179.751 0.675073 -0.305544 0
M  V30 1908 H 182.398 1.33554 -1.37243 0
M  V30 1909 H 180.703 3.85469 -0.701517 0
M  V30 1910 H 182.4 3.85821 -1.09284 0
M  V30 1911 H 178.99 3.49569 -2.47991 0
M  V30 1912 H 183.174 3.55946 -3.45855 0
M  V30 1913 H 178.43 3.70388 -4.86438 0
M  V30 1914 H 182.604 3.78011 -5.84877 0
M  V30 1915 H 180.231 3.84815 -6.55608 0
M  V30 1916 N 181.806 0.884767 1.30421 0
M  V30 1917 C 183.053 0.503105 1.96151 0
M  V30 1918 C 183.381 -0.947676 1.69851 0
M  V30 1919 O 182.636 -1.68467 0.995861 0
M  V30 1920 C 182.935 0.724318 3.49983 0
M  V30 1921 C 182.601 2.15015 3.96332 0
M  V30 1922 C 181.263 2.54005 4.08699 0
M  V30 1923 C 183.615 3.07936 4.20505 0
M  V30 1924 C 180.943 3.85128 4.42599 0
M  V30 1925 C 183.295 4.3859 4.55874 0
M  V30 1926 C 181.959 4.77474 4.66449 0
M  V30 1927 H 181.229 0.184099 0.717766 0
M  V30 1928 H 183.876 1.12058 1.55291 0
M  V30 1929 H 182.181 0.0238086 3.91793 0
M  V30 1930 H 183.878 0.408617 3.98913 0
M  V30 1931 H 180.468 1.8375 3.87213 0
M  V30 1932 H 184.652 2.79033 4.10431 0
M  V30 1933 H 179.908 4.14996 4.48986 0
M  V30 1934 H 184.082 5.10629 4.7353 0
M  V30 1935 H 181.709 5.79115 4.92473 0
M  V30 1936 N 183.284 -1.43765 0.645699 0
M  V30 1937 C 184.247 -2.29163 -0.0409488 0
M  V30 1938 C 185.247 -1.41813 -0.757996 0
M  V30 1939 O 186.437 -1.63527 -0.600382 0
M  V30 1940 C 183.569 -3.23716 -1.06869 0
M  V30 1941 H 184.762 -2.91366 0.710345 0
M  V30 1942 H 182.315 -1.5092 0.406547 0
M  V30 1943 H 183.05 -2.66393 -1.84947 0
M  V30 1944 H 182.835 -3.88105 -0.558277 0
M  V30 1945 H 184.325 -3.87831 -1.54845 0
M  V30 1946 N 184.763 -0.387143 -1.52771 0
M  V30 1947 C 186.04 0.253197 -1.93954 0
M  V30 1948 C 186.42 1.64545 -1.32243 0
M  V30 1949 O 185.768 2.23191 -0.489699 0
M  V30 1950 C 185.978 0.281722 -3.47861 0
M  V30 1951 C 187.326 0.511715 -4.21505 0
M  V30 1952 O 188.35 0.362023 -3.54356 0
M  V30 1953 O 187.209 0.804847 -5.40541 0
M  V30 1954 H 184.303 0.156845 -0.811991 0
M  V30 1955 H 186.849 -0.441494 -1.63856 0
M  V30 1956 H 185.621 -0.693571 -3.85104 0
M  V30 1957 H 185.244 1.02142 -3.84256 0
M  V30 1958 N 186.241 1.57166 -0.116904 0
M  V30 1959 C 187.174 2.10912 0.871291 0
M  V30 1960 C 188.152 1.025 1.26224 0
M  V30 1961 O 189.336 1.3014 1.36366 0
M  V30 1962 C 186.463 2.6041 2.16574 0
M  V30 1963 C 185.509 3.80687 1.92302 0
M  V30 1964 S 186.342 5.23199 1.14119 0
M  V30 1965 C 187.498 5.76064 2.44748 0
M  V30 1966 H 187.731 2.94401 0.414138 0
M  V30 1967 H 185.264 1.54096 0.096829 0
M  V30 1968 H 187.222 2.89583 2.9095 0
M  V30 1969 H 185.883 1.77106 2.59408 0
M  V30 1970 H 185.076 4.13462 2.8821 0
M  V30 1971 H 184.678 3.5212 1.26047 0
M  V30 1972 H 186.97 5.8566 3.406 0
M  V30 1973 H 187.913 6.74184 2.16521 0
M  V30 1974 H 188.321 5.04117 2.54019 0
M  V30 1975 N 187.719 -0.156864 1.56817 0
M  V30 1976 C 188.669 -1.19891 1.93934 0
M  V30 1977 C 189.653 -1.39061 0.809372 0
M  V30 1978 O 190.845 -1.40789 1.07273 0
M  V30 1979 C 187.974 -2.53493 2.31508 0
M  V30 1980 C 187.06 -2.37957 3.51052 0
M  V30 1981 N 187.451 -1.92158 4.67877 0
M  V30 1982 C 185.749 -2.68739 3.55943 0
M  V30 1983 C 186.45 -1.8943 5.49992 0
M  V30 1984 N 185.426 -2.32375 4.91429 0
M  V30 1985 H 189.228 -0.836746 2.81737 0
M  V30 1986 H 186.742 -0.365012 1.58245 0
M  V30 1987 H 188.739 -3.28811 2.56299 0
M  V30 1988 H 187.399 -2.905 1.45051 0
M  V30 1989 H 188.41 -1.62274 4.91821 0
M  V30 1990 H 185.087 -3.09687 2.80001 0
M  V30 1991 H 186.477 -1.55596 6.53636 0
M  V30 1992 N 189.197 -1.51736 -0.425897 0
M  V30 1993 C 190.613 -1.40166 -0.76326 0
M  V30 1994 C 190.813 -0.492962 -1.95377 0
M  V30 1995 O 189.869 0.0475815 -2.52455 0
M  V30 1996 C 191.182 -2.82403 -1.03291 0
M  V30 1997 C 192.73 -2.91632 -1.13665 0
M  V30 1998 C 193.205 -4.34801 -1.43916 0
M  V30 1999 N 194.696 -4.3796 -1.50816 0
M  V30 2000 C 195.431 -5.4578 -1.75817 0
M  V30 2001 N 194.927 -6.63744 -1.98534 0
M  V30 2002 N 196.72 -5.33274 -1.77694 0
M  V30 2003 H 188.871 -2.09361 0.358 0
M  V30 2004 H 191.134 -0.942941 0.0978094 0
M  V30 2005 H 190.84 -3.50943 -0.230696 0
M  V30 2006 H 190.714 -3.22428 -1.95754 0
M  V30 2007 H 193.101 -2.23284 -1.92947 0
M  V30 2008 H 193.182 -2.55088 -0.190756 0
M  V30 2009 H 192.826 -5.03703 -0.65157 0
M  V30 2010 H 192.756 -4.68868 -2.39729 0
M  V30 2011 H 195.247 -3.52919 -1.35118 0
M  V30 2012 H 195.56 -7.41704 -2.17013 0
M  V30 2013 H 193.905 -6.66839 -1.95832 0
M  V30 2014 H 197.096 -4.40098 -1.59473 0
M  V30 2015 H 197.269 -6.1738 -1.9684 0
M  V30 2016 N 190.675 0.682077 -1.42076 0
M  V30 2017 C 191.622 1.79578 -1.44984 0
M  V30 2018 C 192.592 1.6332 -0.302614 0
M  V30 2019 O 193.777 1.83978 -0.505633 0
M  V30 2020 C 190.917 3.1756 -1.35091 0
M  V30 2021 C 190.03 3.45156 -2.59791 0
M  V30 2022 C 189.165 4.72826 -2.42093 0
M  V30 2023 C 188.204 4.93433 -3.62202 0
M  V30 2024 N 187.341 6.12338 -3.43491 0
M  V30 2025 H 192.181 1.76427 -2.40161 0
M  V30 2026 H 189.718 0.861376 -1.19242 0
M  V30 2027 H 191.676 3.97287 -1.27354 0
M  V30 2028 H 190.306 3.19854 -0.435133 0
M  V30 2029 H 189.358 2.59736 -2.77923 0
M  V30 2030 H 190.67 3.5628 -3.49094 0
M  V30 2031 H 189.824 5.60631 -2.319 0
M  V30 2032 H 188.563 4.63973 -1.50268 0
M  V30 2033 H 187.568 4.04073 -3.72834 0
M  V30 2034 H 188.793 5.04136 -4.54998 0
M  V30 2035 H 186.739 6.04672 -2.54377 0
M  V30 2036 H 186.656 6.2429 -4.26377 0
M  V30 2037 H 187.924 7.02841 -3.37097 0
M  V30 2038 N 192.153 1.28127 0.917671 0
M  V30 2039 C 193.43 1.05761 1.64542 0
M  V30 2040 C 193.81 -0.404344 2.07191 0
M  V30 2041 O 193.158 -1.38963 1.81388 0
M  V30 2042 C 193.368 2.02857 2.83989 0
M  V30 2043 C 194.716 2.32786 3.551 0
M  V30 2044 O 195.74 2.0091 2.94132 0
M  V30 2045 O 194.599 2.87169 4.64969 0
M  V30 2046 H 191.693 0.403916 0.721652 0
M  V30 2047 H 194.239 1.39431 0.967322 0
M  V30 2048 H 193.011 3.01407 2.49538 0
M  V30 2049 H 192.634 1.69809 3.59514 0
M  V30 2050 N 193.631 -1.12557 1.10312 0
M  V30 2051 C 194.561 -2.20341 0.772798 0
M  V30 2052 C 195.542 -1.68198 -0.25365 0
M  V30 2053 O 196.727 -1.93831 -0.119699 0
M  V30 2054 C 193.857 -3.46709 0.202443 0
M  V30 2055 C 192.811 -4.11996 1.15943 0
M  V30 2056 C 192.137 -5.328 0.450345 0
M  V30 2057 C 193.437 -4.5828 2.50552 0
M  V30 2058 H 195.131 -2.48229 1.674 0
M  V30 2059 H 192.677 -1.19308 0.806326 0
M  V30 2060 H 194.63 -4.2138 -0.0407752 0
M  V30 2061 H 193.354 -3.18245 -0.734001 0
M  V30 2062 H 192.013 -3.39305 1.38808 0
M  V30 2063 H 191.661 -5.00602 -0.490531 0
M  V30 2064 H 191.361 -5.7743 1.08851 0
M  V30 2065 H 192.885 -6.10219 0.215642 0
M  V30 2066 H 194.299 -5.2433 2.31843 0
M  V30 2067 H 192.696 -5.13683 3.10242 0
M  V30 2068 H 193.766 -3.72329 3.10643 0
M  V30 2069 N 195.109 -0.891671 -1.2995 0
M  V30 2070 C 196.059 -0.334811 -2.25528 0
M  V30 2071 C 197.043 0.540553 -1.51548 0
M  V30 2072 O 198.235 0.383882 -1.72787 0
M  V30 2073 C 195.364 0.44374 -3.4042 0
M  V30 2074 C 194.45 -0.44609 -4.21747 0
M  V30 2075 N 194.841 -1.54963 -4.81477 0
M  V30 2076 C 193.139 -0.242415 -4.45341 0
M  V30 2077 C 193.84 -2.10015 -5.42465 0
M  V30 2078 N 192.816 -1.39423 -5.25416 0
M  V30 2079 H 196.618 -1.17792 -2.69262 0
M  V30 2080 H 194.132 -0.741822 -1.44467 0
M  V30 2081 H 196.129 0.859362 -4.07947 0
M  V30 2082 H 194.789 1.28421 -2.98225 0
M  V30 2083 H 195.8 -1.93244 -4.80497 0
M  V30 2084 H 192.477 0.560342 -4.13723 0
M  V30 2085 H 193.867 -3.02724 -5.9984 0
M  V30 2086 N 196.587 1.43421 -0.653314 0
M  V30 2087 C 197.864 1.95361 -0.0966581 0
M  V30 2088 C 198.244 1.59461 1.38331 0
M  V30 2089 O 197.592 0.879777 2.10884 0
M  V30 2090 C 197.802 3.47311 -0.342988 0
M  V30 2091 C 199.15 4.23875 -0.24798 0
M  V30 2092 O 200.174 3.55133 -0.275553 0
M  V30 2093 O 199.033 5.4623 -0.171771 0
M  V30 2094 H 196.127 0.826945 0.00956291 0
M  V30 2095 H 198.673 1.5336 -0.726558 0
M  V30 2096 H 197.445 3.66569 -1.36906 0
M  V30 2097 H 197.068 3.9631 0.319975 0
M  V30 2098 N 198.065 0.39524 1.52563 0
M  V30 2099 C 199.342 -0.242908 1.94086 0
M  V30 2100 C 199.722 -1.63841 1.33114 0
M  V30 2101 O 199.07 -2.22928 0.501529 0
M  V30 2102 C 199.28 -0.26327 3.48006 0
M  V30 2103 C 200.628 -0.489354 4.21771 0
M  V30 2104 O 201.652 -0.343226 3.54543 0
M  V30 2105 O 200.511 -0.776169 5.4096 0
M  V30 2106 H 197.605 -0.152536 0.812811 0
M  V30 2107 H 200.151 0.450178 1.6362 0
M  V30 2108 H 198.923 0.713985 3.84731 0
M  V30 2109 H 198.546 -1.00103 3.84792 0
M  V30 2110 N 199.544 -1.57102 0.125237 0
M  V30 2111 C 200.507 -2.14471 -0.80838 0
M  V30 2112 C 201.507 -1.0811 -1.19033 0
M  V30 2113 O 202.697 -1.33856 -1.11482 0
M  V30 2114 C 199.829 -2.69005 -2.09402 0
M  V30 2115 H 201.022 -2.98297 -0.309696 0
M  V30 2116 H 198.575 -1.55807 -0.124051 0
M  V30 2117 H 199.31 -1.88785 -2.63687 0
M  V30 2118 H 199.095 -3.46799 -1.82957 0
M  V30 2119 H 200.585 -3.13278 -2.76128 0
M  V30 2120 N 201.022 0.148545 -1.56898 0
M  V30 2121 C 201.932 1.20293 -2.01412 0
M  V30 2122 C 202.948 1.47107 -0.929273 0
M  V30 2123 O 204.124 1.58807 -1.23863 0
M  V30 2124 C 201.189 2.51682 -2.38447 0
M  V30 2125 C 200.25 2.32529 -3.60872 0
M  V30 2126 C 199.483 3.57653 -3.96132 0
M  V30 2127 O 199.706 4.63771 -3.32073 0
M  V30 2128 O 198.64 3.50408 -4.89385 0
M  V30 2129 H 202.466 0.855025 -2.91416 0
M  V30 2130 H 200.051 0.357151 -1.45068 0
M  V30 2131 H 201.933 3.29147 -2.63135 0
M  V30 2132 H 200.608 2.86006 -1.51599 0
M  V30 2133 H 199.515 1.53019 -3.41373 0
M  V30 2134 H 200.848 2.03121 -4.48333 0
M  V30 2135 N 202.5 1.5196 0.417844 0
M  V30 2136 C 203.746 1.66793 1.16411 0
M  V30 2137 C 204.101 0.388758 1.88432 0
M  V30 2138 O 203.394 -0.616409 1.81414 0
M  V30 2139 C 203.588 2.82269 2.19223 0
M  V30 2140 C 203.417 4.21293 1.57297 0
M  V30 2141 C 202.187 4.86948 1.34944 0
M  V30 2142 C 204.385 5.03704 1.03858 0
M  V30 2143 N 202.367 6.1003 0.688195 0
M  V30 2144 C 203.738 6.1795 0.503742 0
M  V30 2145 C 205.793 4.89095 0.932203 0
M  V30 2146 C 204.496 7.19188 -0.127034 0
M  V30 2147 C 206.522 5.90559 0.315293 0
M  V30 2148 C 205.884 7.0409 -0.208906 0
M  V30 2149 H 201.983 0.66407 0.412959 0
M  V30 2150 H 204.567 1.89242 0.457772 0
M  V30 2151 H 202.738 2.61451 2.87225 0
M  V30 2152 H 204.47 2.86183 2.86149 0
M  V30 2153 H 201.225 4.45156 1.61657 0
M  V30 2154 H 201.649 6.75964 0.374449 0
M  V30 2155 H 206.291 4.01557 1.32332 0
M  V30 2156 H 204.009 8.06359 -0.530231 0
M  V30 2157 H 207.595 5.81327 0.234625 0
M  V30 2158 H 206.475 7.81257 -0.67875 0
M  V30 2159 N 203.978 -0.674533 1.42435 0
M  V30 2160 C 204.911 -1.79924 1.40366 0
M  V30 2161 C 205.889 -1.60378 0.267899 0
M  V30 2162 O 207.073 -1.82847 0.458159 0
M  V30 2163 C 204.2 -3.16927 1.19478 0
M  V30 2164 C 203.246 -3.55221 2.36051 0
M  V30 2165 S 204.079 -3.5762 3.98583 0
M  V30 2166 C 205.235 -4.97315 3.80038 0
M  V30 2167 H 205.468 -1.81405 2.35541 0
M  V30 2168 H 203.001 -0.845221 1.29211 0
M  V30 2169 H 204.959 -3.96007 1.08114 0
M  V30 2170 H 203.62 -3.13031 0.258883 0
M  V30 2171 H 202.813 -4.54804 2.17185 0
M  V30 2172 H 202.415 -2.83502 2.43932 0
M  V30 2173 H 204.707 -5.85401 3.41045 0
M  V30 2174 H 205.65 -5.21228 4.79298 0
M  V30 2175 H 206.058 -4.69845 3.12899 0
M  V30 2176 N 205.456 -1.28612 -0.910864 0
M  V30 2177 C 206.419 -1.12803 -1.9952 0
M  V30 2178 C 207.419 -0.0668264 -1.60661 0
M  V30 2179 O 208.609 -0.312847 -1.71368 0
M  V30 2180 C 205.741 -0.72254 -3.33155 0
M  V30 2181 H 206.934 -2.09109 -2.14973 0
M  V30 2182 H 204.487 -1.11639 -1.09391 0
M  V30 2183 H 205.222 0.241152 -3.23402 0
M  V30 2184 H 205.007 -1.48916 -3.62721 0
M  V30 2185 H 206.497 -0.634666 -4.12749 0
M  V30 2186 N 206.934 1.1197 -1.10907 0
M  V30 2187 C 207.881 2.17846 -0.762345 0
M  V30 2188 C 208.851 1.63995 0.263599 0
M  V30 2189 O 210.036 1.90273 0.141773 0
M  V30 2190 C 207.176 3.44487 -0.205651 0
M  V30 2191 C 206.289 4.12369 -1.28748 0
M  V30 2192 C 205.424 5.26674 -0.691919 0
M  V30 2193 C 204.463 5.86431 -1.75399 0
M  V30 2194 N 203.6 6.92142 -1.17833 0
M  V30 2195 H 208.44 2.46851 -1.6694 0
M  V30 2196 H 205.977 1.21188 -0.833776 0
M  V30 2197 H 207.935 4.16981 0.135037 0
M  V30 2198 H 206.565 3.15884 0.664613 0
M  V30 2199 H 205.617 3.38003 -1.74522 0
M  V30 2200 H 206.929 4.52844 -2.09125 0
M  V30 2201 H 206.083 6.05953 -0.300963 0
M  V30 2202 H 204.822 4.8749 0.143232 0
M  V30 2203 H 203.827 5.05835 -2.15432 0
M  V30 2204 H 205.052 6.27685 -2.59208 0
M  V30 2205 H 202.998 6.54985 -0.364725 0
M  V30 2206 H 202.915 7.31242 -1.91887 0
M  V30 2207 H 204.183 7.75237 -0.81408 0
M  V30 2208 N 208.412 0.89855 1.29475 0
M  V30 2209 C 209.344 0.332726 2.26772 0
M  V30 2210 C 210.357 -0.520323 1.54261 0
M  V30 2211 O 211.546 -0.337668 1.75277 0
M  V30 2212 C 208.646 -0.544334 3.345 0
M  V30 2213 C 207.819 0.282728 4.36485 0
M  V30 2214 C 206.878 -0.526982 5.23555 0
M  V30 2215 O 205.904 0.0551165 5.69173 0
M  V30 2216 N 207.106 -1.83331 5.5079 0
M  V30 2217 H 209.871 1.16897 2.75962 0
M  V30 2218 H 207.432 0.762919 1.42798 0
M  V30 2219 H 209.424 -1.09239 3.89678 0
M  V30 2220 H 207.994 -1.28127 2.85136 0
M  V30 2221 H 207.214 1.01221 3.80983 0
M  V30 2222 H 208.502 0.84918 5.01664 0
M  V30 2223 H 207.9 -2.32898 5.15534 0
M  V30 2224 H 206.457 -2.32852 6.08788 0
M  V30 2225 N 209.89 -1.43072 0.660911 0
M  V30 2226 C 211.136 -2.0202 0.177708 0
M  V30 2227 C 211.469 -1.52066 -1.20787 0
M  V30 2228 O 210.744 -0.716987 -1.80802 0
M  V30 2229 C 211.027 -3.59561 0.197019 0
M  V30 2230 C 210.88 -4.19727 1.61706 0
M  V30 2231 C 212.199 -4.37664 -0.462396 0
M  V30 2232 H 209.318 -0.734034 0.0660494 0
M  V30 2233 H 211.96 -1.70272 0.843058 0
M  V30 2234 H 210.11 -3.86739 -0.369527 0
M  V30 2235 H 211.782 -4.03553 2.23479 0
M  V30 2236 H 210.025 -3.76084 2.16201 0
M  V30 2237 H 210.696 -5.28834 1.58237 0
M  V30 2238 H 213.172 -4.16095 0.0197215 0
M  V30 2239 H 212.048 -5.47305 -0.418188 0
M  V30 2240 H 212.309 -4.14493 -1.53778 0
M  V30 2241 N 211.368 -0.403325 -1.52352 0
M  V30 2242 C 212.598 0.17376 -2.05868 0
M  V30 2243 C 213.006 1.39898 -1.27378 0
M  V30 2244 O 212.349 1.80939 -0.31729 0
M  V30 2245 C 212.411 0.594756 -3.54546 0
M  V30 2246 C 212.075 -0.518926 -4.54044 0
M  V30 2247 C 213.072 -1.3807 -5.01231 0
M  V30 2248 C 210.757 -0.689961 -4.97539 0
M  V30 2249 C 212.751 -2.39852 -5.90551 0
M  V30 2250 C 210.438 -1.71109 -5.86656 0
M  V30 2251 C 211.436 -2.56378 -6.33056 0
M  V30 2252 O 211.124 -3.56743 -7.20409 0
M  V30 2253 H 210.856 0.0264951 -0.675481 0
M  V30 2254 H 213.41 -0.571179 -1.97299 0
M  V30 2255 H 211.64 1.39189 -3.60782 0
M  V30 2256 H 213.329 1.0991 -3.90736 0
M  V30 2257 H 214.095 -1.25994 -4.68349 0
M  V30 2258 H 209.974 -0.035939 -4.60986 0
M  V30 2259 H 213.518 -3.06441 -6.26689 0
M  V30 2260 H 209.415 -1.83218 -6.18952 0
M  V30 2261 H 210.183 -3.52918 -7.38506 0
M  V30 2262 N 212.846 1.57033 -0.133567 0
M  V30 2263 C 213.776 2.1909 0.807567 0
M  V30 2264 C 214.757 1.13517 1.26681 0
M  V30 2265 O 215.942 1.41809 1.32679 0
M  V30 2266 C 213.072 2.80188 2.05212 0
M  V30 2267 C 212.026 3.91471 1.73015 0
M  V30 2268 C 211.352 4.39443 3.04622 0
M  V30 2269 C 212.652 5.12886 0.987168 0
M  V30 2270 H 214.346 2.97988 0.290403 0
M  V30 2271 H 211.892 1.43335 0.138239 0
M  V30 2272 H 213.845 3.22264 2.71521 0
M  V30 2273 H 212.569 1.98601 2.59278 0
M  V30 2274 H 211.228 3.49993 1.0909 0
M  V30 2275 H 210.876 3.54695 3.56651 0
M  V30 2276 H 210.576 5.14495 2.83847 0
M  V30 2277 H 212.1 4.8418 3.72024 0
M  V30 2278 H 213.514 5.51891 1.55208 0
M  V30 2279 H 211.911 5.93615 0.87985 0
M  V30 2280 H 212.981 4.84894 -0.0235286 0
M  V30 2281 N 214.325 -0.140222 1.56975 0
M  V30 2282 C 215.273 -1.19207 1.99731 0
M  V30 2283 C 216.267 -1.44089 0.890777 0
M  V30 2284 O 217.473 -1.44301 1.07597 0
M  V30 2285 H 213.848 -0.40142 0.635898 0
M  V30 2286 H 215.819 -0.804813 2.87342 0
M  V30 2287 C 214.568 -2.51617 2.39967 0
M  V30 2288 H 213.891 -2.33303 3.24669 0
M  V30 2289 H 215.331 -3.23827 2.73701 0
M  V30 2290 C 213.79 -3.12654 1.25496 0
M  V30 2291 O 214.32 -3.97786 0.559371 0
M  V30 2292 N 212.526 -2.72206 1.01746 0
M  V30 2293 H 212.073 -2.03074 1.58489 0
M  V30 2294 H 212.031 -3.13377 0.253461 0
M  V30 2295 N 215.803 -1.52179 -0.40978 0
M  V30 2296 C 217.049 -1.66453 -1.15851 0
M  V30 2297 C 217.382 -0.392972 -1.90182 0
M  V30 2298 O 216.657 0.608579 -1.84734 0
M  V30 2299 C 216.94 -2.88612 -2.15349 0
M  V30 2300 C 216.793 -4.25815 -1.44918 0
M  V30 2301 C 218.112 -3.06294 -3.16026 0
M  V30 2302 H 215.231 -0.60575 -0.419805 0
M  V30 2303 H 217.873 -1.84732 -0.444314 0
M  V30 2304 H 216.023 -2.73158 -2.76255 0
M  V30 2305 H 217.695 -4.52995 -0.871365 0
M  V30 2306 H 215.938 -4.27247 -0.751159 0
M  V30 2307 H 216.609 -5.07337 -2.17516 0
M  V30 2308 H 219.085 -3.20641 -2.65195 0
M  V30 2309 H 217.961 -3.93283 -3.8291 0
M  V30 2310 H 218.222 -2.19579 -3.83715 0
M  V30 2311 N 217.281 0.66697 -1.42791 0
M  V30 2312 C 218.529 1.42417 -1.43394 0
M  V30 2313 C 218.85 1.94925 -0.0542373 0
M  V30 2314 O 218.12 1.73564 0.908415 0
M  V30 2315 H 216.7 0.528515 -0.527902 0
M  V30 2316 H 219.362 0.787562 -1.78279 0
M  V30 2317 H 218.458 2.27333 -2.13837 0
M  V30 2318 N 218.759 1.29093 0.90403 0
M  V30 2319 C 219.707 1.13727 2.02901 0
M  V30 2320 C 220.701 0.0539853 1.69314 0
M  V30 2321 O 221.907 0.213469 1.7873 0
M  V30 2322 H 218.282 0.35117 0.664969 0
M  V30 2323 H 220.253 2.08982 2.13001 0
M  V30 2324 C 219.002 0.826066 3.37745 0
M  V30 2325 H 218.325 1.65164 3.64089 0
M  V30 2326 H 219.765 0.758559 4.17159 0
M  V30 2327 C 218.224 -0.470541 3.33598 0
M  V30 2328 O 218.754 -1.49792 3.72727 0
M  V30 2329 N 216.96 -0.474812 2.86695 0
M  V30 2330 H 216.507 0.361692 2.55048 0
M  V30 2331 H 216.465 -1.34236 2.84303 0
M  V30 2332 N 220.237 -1.11381 1.11499 0
M  V30 2333 C 221.484 -1.83132 0.864231 0
M  V30 2334 C 221.812 -1.84683 -0.610114 0
M  V30 2335 O 221.067 -1.29589 -1.46646 0
M  V30 2336 C 221.366 -3.30026 1.37177 0
M  V30 2337 C 221.032 -3.48634 2.85946 0
M  V30 2338 C 219.694 -3.53421 3.26569 0
M  V30 2339 C 222.046 -3.54837 3.81759 0
M  V30 2340 C 219.374 -3.61967 4.61733 0
M  V30 2341 C 221.726 -3.64915 5.1674 0
M  V30 2342 C 220.39 -3.67962 5.5692 0
M  V30 2343 H 219.66 -0.670127 0.316245 0
M  V30 2344 H 222.307 -1.31354 1.3935 0
M  V30 2345 H 220.612 -3.84304 0.762753 0
M  V30 2346 H 222.309 -3.84034 1.15408 0
M  V30 2347 H 218.899 -3.45579 2.53521 0
M  V30 2348 H 223.083 -3.50399 3.51474 0
M  V30 2349 H 218.339 -3.62603 4.92269 0
M  V30 2350 H 222.513 -3.68658 5.90816 0
M  V30 2351 H 220.14 -3.74336 6.61647 0
M  V30 2352 N 221.715 -0.905404 -1.28997 0
M  V30 2353 C 222.645 -0.404212 -2.29975 0
M  V30 2354 C 223.626 0.523784 -1.61835 0
M  V30 2355 O 224.811 0.433298 -1.89304 0
M  V30 2356 C 221.941 0.364042 -3.45387 0
M  V30 2357 C 220.895 -0.474048 -4.25367 0
M  V30 2358 C 220.221 0.422045 -5.33032 0
M  V30 2359 C 221.521 -1.72696 -4.92923 0
M  V30 2360 H 223.215 -1.24807 -2.72146 0
M  V30 2361 H 220.761 -0.601585 -1.30832 0
M  V30 2362 H 222.714 0.725447 -4.15109 0
M  V30 2363 H 221.438 1.24174 -3.02074 0
M  V30 2364 H 220.097 -0.81786 -3.57361 0
M  V30 2365 H 219.745 1.29804 -4.85963 0
M  V30 2366 H 219.445 -0.135057 -5.87445 0
M  V30 2367 H 220.969 0.779517 -6.05604 0
M  V30 2368 H 222.383 -1.43495 -5.55051 0
M  V30 2369 H 220.78 -2.22582 -5.57295 0
M  V30 2370 H 221.85 -2.45964 -4.17887 0
M  V30 2371 N 223.193 1.4272 -0.668489 0
M  V30 2372 C 224.123 2.335 -0.000100175 0
M  V30 2373 C 225.104 1.50328 0.795964 0
M  V30 2374 O 226.289 1.78949 0.754385 0
M  V30 2375 C 223.419 3.33874 0.956302 0
M  V30 2376 C 222.373 4.27152 0.269278 0
M  V30 2377 C 221.699 5.17684 1.33818 0
M  V30 2378 C 222.999 5.15373 -0.847805 0
M  V30 2379 H 224.693 2.89639 -0.758244 0
M  V30 2380 H 222.239 1.39269 -0.366079 0
M  V30 2381 H 224.192 3.9629 1.43292 0
M  V30 2382 H 222.916 2.76025 1.74579 0
M  V30 2383 H 221.575 3.66123 -0.187042 0
M  V30 2384 H 221.223 4.56165 2.1195 0
M  V30 2385 H 220.923 5.80918 0.883659 0
M  V30 2386 H 222.447 5.82974 1.81586 0
M  V30 2387 H 223.861 5.7151 -0.452681 0
M  V30 2388 H 222.258 5.87407 -1.22773 0
M  V30 2389 H 223.328 4.5415 -1.69929 0
M  V30 2390 N 224.671 0.411399 1.52136 0
M  V30 2391 C 225.919 -0.163322 2.01439 0
M  V30 2392 C 226.24 -1.45453 1.29879 0
M  V30 2393 O 225.51 -1.91225 0.4254 0
M  V30 2394 H 224.09 -0.0633447 0.744309 0
M  V30 2395 H 226.752 0.548161 1.87033 0
M  V30 2396 H 225.848 -0.357817 3.10042 0
M  V30 2397 N 226.149 -1.5696 0.141893 0
M  V30 2398 C 227.395 -1.9625 -0.511248 0
M  V30 2399 C 227.728 -1.02654 -1.64851 0
M  V30 2400 O 227.003 -0.0679676 -1.94381 0
M  V30 2401 C 227.286 -3.45285 -1.02227 0
M  V30 2402 C 227.139 -4.49658 0.113138 0
M  V30 2403 C 228.458 -3.96698 -1.90574 0
M  V30 2404 H 225.577 -0.713567 -0.184367 0
M  V30 2405 H 228.219 -1.88698 0.222087 0
M  V30 2406 H 226.369 -3.51852 -1.64719 0
M  V30 2407 H 228.041 -4.55174 0.749302 0
M  V30 2408 H 226.284 -4.26857 0.773026 0
M  V30 2409 H 226.955 -5.51258 -0.286053 0
M  V30 2410 H 229.431 -3.92578 -1.37918 0
M  V30 2411 H 228.307 -5.01453 -2.2324 0
M  V30 2412 H 228.568 -3.3875 -2.84079 0
M  V30 2413 N 227.627 0.131896 -1.57047 0
M  V30 2414 C 228.59 1.14638 -1.98471 0
M  V30 2415 C 229.59 1.35029 -0.873148 0
M  V30 2416 O 230.78 1.31764 -1.13946 0
M  V30 2417 C 227.912 2.50358 -2.31373 0
M  V30 2418 H 229.105 0.79064 -2.8929 0
M  V30 2419 H 226.658 0.375761 -1.51716 0
M  V30 2420 H 227.393 2.90876 -1.43393 0
M  V30 2421 H 227.178 2.36915 -3.12432 0
M  V30 2422 H 228.668 3.23395 -2.64207 0
M  V30 2423 N 229.106 1.52395 0.401703 0
M  V30 2424 C 230.069 1.75636 1.47257 0
M  V30 2425 C 231.069 0.62628 1.48103 0
M  V30 2426 O 232.259 0.894227 1.49497 0
M  V30 2427 C 229.391 1.84553 2.86624 0
M  V30 2428 H 230.584 2.71241 1.27938 0
M  V30 2429 H 228.137 1.42923 0.632662 0
M  V30 2430 H 228.872 0.908882 3.11303 0
M  V30 2431 H 228.657 2.66715 2.87412 0
M  V30 2432 H 230.147 2.04251 3.64241 0
M  V30 2433 N 230.584 -0.659388 1.43143 0
M  V30 2434 C 231.514 -1.78422 1.50625 0
M  V30 2435 C 232.495 -1.66216 0.361443 0
M  V30 2436 O 233.68 -1.85404 0.577834 0
M  V30 2437 C 230.81 -3.16815 1.42287 0
M  V30 2438 C 229.764 -3.43777 2.54954 0
M  V30 2439 C 229.09 -4.81905 2.31671 0
M  V30 2440 C 230.39 -3.39134 3.97222 0
M  V30 2441 H 232.084 -1.72417 2.44771 0
M  V30 2442 H 229.63 -0.828084 1.17808 0
M  V30 2443 H 231.583 -3.95253 1.46127 0
M  V30 2444 H 230.307 -3.23534 0.446435 0
M  V30 2445 H 228.966 -2.67707 2.50457 0
M  V30 2446 H 228.614 -4.85294 1.32284 0
M  V30 2447 H 228.314 -5.00906 3.07192 0
M  V30 2448 H 229.838 -5.62609 2.37284 0
M  V30 2449 H 231.252 -4.07518 4.03239 0
M  V30 2450 H 229.649 -3.69671 4.72719 0
M  V30 2451 H 230.719 -2.37426 4.22797 0
M  V30 2452 N 232.062 -1.29571 -0.897171 0
M  V30 2453 C 233.31 -1.17456 -1.64464 0
M  V30 2454 C 233.631 0.273698 -1.9307 0
M  V30 2455 O 232.901 1.18684 -1.55855 0
M  V30 2456 H 231.481 -0.431706 -0.609622 0
M  V30 2457 H 234.143 -1.62531 -1.07562 0
M  V30 2458 H 233.239 -1.72648 -2.59998 0
M  V30 2459 N 233.54 1.10788 -1.12088 0
M  V30 2460 C 234.47 2.19083 -0.807755 0
M  V30 2461 C 235.451 1.6858 0.226859 0
M  V30 2462 O 236.636 1.93997 0.0888475 0
M  V30 2463 C 233.766 3.46344 -0.257576 0
M  V30 2464 C 232.72 4.101 -1.22483 0
M  V30 2465 C 232.046 5.32016 -0.535052 0
M  V30 2466 C 233.346 4.54236 -2.57811 0
M  V30 2467 H 235.04 2.45534 -1.71328 0
M  V30 2468 H 232.586 1.1801 -0.825205 0
M  V30 2469 H 234.539 4.21392 -0.0262679 0
M  V30 2470 H 233.263 3.19373 0.683278 0
M  V30 2471 H 231.922 3.37054 -1.44189 0
M  V30 2472 H 231.57 5.01319 0.410827 0
M  V30 2473 H 231.27 5.75625 -1.18024 0
M  V30 2474 H 232.794 6.09799 -0.312695 0
M  V30 2475 H 234.208 5.20575 -2.40155 0
M  V30 2476 H 232.605 5.08682 -3.18375 0
M  V30 2477 H 233.675 3.6734 -3.16528 0
M  V30 2478 N 235.018 0.912232 1.28515 0
M  V30 2479 C 236.295 0.463597 1.90027 0
M  V30 2480 C 236.675 -1.05753 1.82701 0
M  V30 2481 O 236.023 -1.90492 1.26194 0
M  V30 2482 C 236.233 0.992253 3.34597 0
M  V30 2483 C 237.581 1.04344 4.11579 0
M  V30 2484 O 238.605 0.94079 3.43551 0
M  V30 2485 O 237.464 1.1995 5.33174 0
M  V30 2486 H 234.558 0.146666 0.813891 0
M  V30 2487 H 237.104 1.00292 1.36893 0
M  V30 2488 H 235.876 2.03623 3.34146 0
M  V30 2489 H 235.499 0.433672 3.95228 0
M  V30 2490 N 236.496 -1.42363 0.676048 0
M  V30 2491 C 237.459 -2.29199 0.00766941 0
M  V30 2492 C 238.459 -1.43389 -0.727745 0
M  V30 2493 O 239.649 -1.64764 -0.56556 0
M  V30 2494 C 236.781 -3.2591 -0.999785 0
M  V30 2495 H 237.974 -2.89794 0.771988 0
M  V30 2496 H 235.527 -1.50024 0.438468 0
M  V30 2497 H 236.262 -2.70256 -1.79255 0
M  V30 2498 H 236.047 -3.89202 -0.475829 0
M  V30 2499 H 237.537 -3.91028 -1.46583 0
M  V30 2500 N 237.974 -0.419461 -1.51915 0
M  V30 2501 C 239.22 0.153166 -2.02221 0
M  V30 2502 C 239.553 1.43907 -1.30401 0
M  V30 2503 O 238.828 1.90055 -0.413438 0
M  V30 2504 C 239.111 0.390291 -3.57979 0
M  V30 2505 C 238.964 -0.913014 -4.40436 0
M  V30 2506 C 240.283 1.16794 -4.2432 0
M  V30 2507 H 237.402 0.0541924 -0.735005 0
M  V30 2508 H 240.044 -0.554955 -1.81715 0
M  V30 2509 H 238.194 0.993491 -3.75582 0
M  V30 2510 H 239.866 -1.54882 -4.34522 0
M  V30 2511 H 238.109 -1.52168 -4.06236 0
M  V30 2512 H 238.78 -0.701361 -5.47526 0
M  V30 2513 H 241.256 0.657161 -4.10878 0
M  V30 2514 H 240.132 1.3026 -5.3322 0
M  V30 2515 H 240.393 2.19132 -3.83971 0
M  V30 2516 N 239.452 1.56882 -0.150215 0
M  V30 2517 C 240.863 1.82995 0.370076 0
M  V30 2518 C 241.214 1.06907 1.64515 0
M  V30 2519 O 240.339 0.315369 2.1409 0
M  V30 2520 C 240.934 3.31942 0.678208 0
M  V30 2521 C 239.493 3.58625 1.14301 0
M  V30 2522 C 238.64 2.76792 0.167778 0
M  V30 2523 H 241.591 1.54209 -0.374858 0
M  V30 2524 H 241.612 3.48272 1.53254 0
M  V30 2525 H 241.124 3.87294 -0.249991 0
M  V30 2526 H 239.225 3.08664 2.08704 0
M  V30 2527 H 239.338 4.67073 1.06676 0
M  V30 2528 H 237.702 2.45972 0.661037 0
M  V30 2529 H 238.485 3.34916 -0.754069 0
M  V30 2530 N 240.93 -0.123565 1.57115 0
M  V30 2531 C 242.179 -0.830704 1.83799 0
M  V30 2532 C 242.492 -1.81259 0.735158 0
M  V30 2533 O 243.698 -2.56558 0.888278 0
M  V30 2534 C 242.154 -1.52802 3.25852 0
M  V30 2535 C 241.762 -0.587356 4.44133 0
M  V30 2536 C 243.506 -2.22056 3.61789 0
M  V30 2537 C 241.413 -1.28764 5.77212 0
M  V30 2538 H 240.343 -0.313967 0.685522 0
M  V30 2539 H 242.994 -0.0834359 1.8331 0
M  V30 2540 H 241.376 -2.32175 3.20797 0
M  V30 2541 H 242.55 0.172829 4.60476 0
M  V30 2542 H 240.865 -0.00201892 4.164 0
M  V30 2543 H 243.462 -2.75131 4.58483 0
M  V30 2544 H 243.805 -2.99644 2.88997 0
M  V30 2545 H 244.338 -1.49576 3.68608 0
M  V30 2546 H 241.077 -0.55314 6.53162 0
M  V30 2547 H 240.597 -2.01995 5.64764 0
M  V30 2548 H 242.276 -1.8221 6.20813 0
M  V30 2549 N 242.408 -1.52605 -0.393616 0
M  V30 2550 C 243.318 -1.79971 -1.50492 0
M  V30 2551 C 244.334 -0.686181 -1.59899 0
M  V30 2552 O 245.51 -0.973274 -1.76322 0
M  V30 2553 C 242.575 -1.95867 -2.86072 0
M  V30 2554 C 241.636 -3.19781 -2.86424 0
M  V30 2555 C 240.869 -3.34909 -4.15538 0
M  V30 2556 O 241.092 -2.54948 -5.10253 0
M  V30 2557 O 240.026 -4.28141 -4.23059 0
M  V30 2558 H 243.852 -2.74328 -1.30299 0
M  V30 2559 H 241.437 -1.3764 -0.581005 0
M  V30 2560 H 243.319 -2.08056 -3.66457 0
M  V30 2561 H 241.994 -1.04699 -3.063 0
M  V30 2562 H 240.901 -3.13038 -2.04837 0
M  V30 2563 H 242.234 -4.1078 -2.71147 0
M  V30 2564 N 243.887 0.651787 -1.4349 0
M  V30 2565 C 245.135 1.40888 -1.44897 0
M  V30 2566 C 245.456 1.94856 -0.0749086 0
M  V30 2567 O 244.726 1.74518 0.889956 0
M  V30 2568 H 243.306 0.522887 -0.533478 0
M  V30 2569 H 245.968 0.768609 -1.79104 0
M  V30 2570 H 245.064 2.25052 -2.16236 0
M  V30 2571 N 245.365 1.30045 0.890287 0
M  V30 2572 C 246.612 1.18561 1.64163 0
M  V30 2573 C 246.94 -0.260852 1.92743 0
M  V30 2574 O 246.195 -1.20376 1.54299 0
M  V30 2575 C 246.494 1.95409 2.99249 0
M  V30 2576 C 246.16 3.45066 2.90242 0
M  V30 2577 C 244.822 3.85878 2.87492 0
M  V30 2578 C 247.174 4.4039 2.78758 0
M  V30 2579 C 244.502 5.20314 2.7109 0
M  V30 2580 C 246.854 5.74928 2.63894 0
M  V30 2581 C 245.518 6.14986 2.59516 0
M  V30 2582 H 244.788 0.433846 0.600715 0
M  V30 2583 H 247.435 1.61088 1.03552 0
M  V30 2584 H 245.74 1.45501 3.63781 0
M  V30 2585 H 247.437 1.8392 3.56334 0
M  V30 2586 H 244.027 3.12631 2.93189 0
M  V30 2587 H 248.211 4.09806 2.79952 0
M  V30 2588 H 243.467 5.50449 2.66112 0
M  V30 2589 H 247.641 6.48434 2.53981 0
M  V30 2590 H 245.268 7.19104 2.46565 0
M  V30 2591 N 246.843 -1.10192 1.12674 0
M  V30 2592 C 248.12 -1.78717 0.794965 0
M  V30 2593 C 248.5 -1.98628 -0.714853 0
M  V30 2594 O 247.848 -1.58135 -1.64941 0
M  V30 2595 C 248.058 -3.11546 1.5729 0
M  V30 2596 C 249.406 -3.86382 1.76052 0
M  V30 2597 O 250.43 -3.21274 1.53823 0
M  V30 2598 O 249.289 -5.03246 2.13087 0
M  V30 2599 H 246.383 -0.774702 0.289423 0
M  V30 2600 H 248.929 -1.16819 1.23091 0
M  V30 2601 H 247.701 -2.92489 2.59935 0
M  V30 2602 H 247.324 -3.81164 1.13137 0
M  V30 2603 N 248.321 -0.919034 -1.28029 0
M  V30 2604 C 249.284 -0.416182 -2.2539 0
M  V30 2605 C 250.284 0.460438 -1.54067 0
M  V30 2606 O 251.474 0.262744 -1.72207 0
M  V30 2607 C 248.606 0.402707 -3.38513 0
M  V30 2608 H 249.799 -1.27629 -2.71387 0
M  V30 2609 H 247.352 -0.698919 -1.39803 0
M  V30 2610 H 248.087 1.282 -2.97885 0
M  V30 2611 H 247.872 -0.225698 -3.9145 0
M  V30 2612 H 249.362 0.745191 -4.10897 0
M  V30 2613 N 249.799 1.42003 -0.683588 0
M  V30 2614 C 250.762 2.29191 -0.0198243 0
M  V30 2615 C 251.762 1.43773 0.72013 0
M  V30 2616 O 252.952 1.65061 0.556815 0
M  V30 2617 C 250.084 3.26435 0.982487 0
M  V30 2618 H 251.277 2.8938 -0.787345 0
M  V30 2619 H 248.83 1.49789 -0.446418 0
M  V30 2620 H 249.565 2.71203 1.77819 0
M  V30 2621 H 249.35 3.89449 0.455182 0
M  V30 2622 H 250.84 3.918 1.44508 0
M  V30 2623 N 251.277 0.427512 1.51691 0
M  V30 2624 C 252.526 -0.143679 2.01188 0
M  V30 2625 C 252.839 -1.44642 1.31674 0
M  V30 2626 O 254.045 -2.09997 1.72086 0
M  V30 2627 C 252.501 -0.306602 3.58592 0
M  V30 2628 C 252.109 0.985125 4.37035 0
M  V30 2629 C 253.853 -0.832091 4.16265 0
M  V30 2630 C 251.76 0.788382 5.86122 0
M  V30 2631 H 250.69 -0.0574701 0.751807 0
M  V30 2632 H 253.341 0.555772 1.74881 0
M  V30 2633 H 251.723 -1.06882 3.81303 0
M  V30 2634 H 252.897 1.75492 4.26074 0
M  V30 2635 H 251.212 1.4384 3.90767 0
M  V30 2636 H 253.809 -0.995617 5.25349 0
M  V30 2637 H 254.152 -1.81186 3.74803 0
M  V30 2638 H 254.685 -0.128444 3.97593 0
M  V30 2639 H 251.424 1.74025 6.31978 0
M  V30 2640 H 250.944 0.0582143 5.99772 0
M  V30 2641 H 252.623 0.437722 6.45518 0
M  V30 2642 N 252.755 -1.56801 0.158532 0
M  V30 2643 C 253.685 -2.20347 -0.772609 0
M  V30 2644 C 254.666 -1.15518 -1.24859 0
M  V30 2645 O 255.851 -1.43902 -1.30406 0
M  V30 2646 C 252.981 -2.83417 -2.00729 0
M  V30 2647 C 251.935 -3.94174 -1.66765 0
M  V30 2648 C 251.261 -4.44233 -2.97592 0
M  V30 2649 C 252.561 -5.14392 -0.905447 0
M  V30 2650 H 254.255 -2.98413 -0.242959 0
M  V30 2651 H 251.801 -1.43537 -0.115419 0
M  V30 2652 H 253.754 -3.26543 -2.6636 0
M  V30 2653 H 252.478 -2.02701 -2.56086 0
M  V30 2654 H 251.137 -3.51684 -1.03508 0
M  V30 2655 H 250.785 -3.60325 -3.50963 0
M  V30 2656 H 250.485 -5.18945 -2.75626 0
M  V30 2657 H 252.009 -4.90037 -3.64274 0
M  V30 2658 H 253.423 -5.5429 -1.46408 0
M  V30 2659 H 251.82 -5.9494 -0.7853 0
M  V30 2660 H 252.89 -4.84795 0.100668 0
M  V30 2661 N 254.233 0.115231 -1.57178 0
M  V30 2662 C 255.51 0.852873 -1.76027 0
M  V30 2663 C 255.89 1.97892 -0.73498 0
M  V30 2664 O 255.238 2.27232 0.24036 0
M  V30 2665 C 255.448 1.36608 -3.21153 0
M  V30 2666 C 256.796 1.81692 -3.83762 0
M  V30 2667 O 257.82 1.46278 -3.24779 0
M  V30 2668 O 256.679 2.47104 -4.87444 0
M  V30 2669 H 253.773 0.405296 -0.720877 0
M  V30 2670 H 256.319 0.0986785 -1.69413 0
M  V30 2671 H 255.091 0.558357 -3.87296 0
M  V30 2672 H 254.714 2.18287 -3.3232 0
M  V30 2673 N 255.711 1.52812 0.385517 0
M  V30 2674 C 256.674 1.77188 1.45386 0
M  V30 2675 C 257.674 0.641953 1.4743 0
M  V30 2676 O 258.864 0.910033 1.4854 0
M  V30 2677 C 255.996 1.87582 2.8465 0
M  V30 2678 H 257.189 2.72583 1.25054 0
M  V30 2679 H 254.742 1.43586 0.617467 0
M  V30 2680 H 255.477 0.941849 3.10322 0
M  V30 2681 H 255.262 2.69748 2.84567 0
M  V30 2682 H 256.752 2.08102 3.62054 0
M  V30 2683 N 257.189 -0.644168 1.43834 0
M  V30 2684 C 258.099 -1.78563 1.52159 0
M  V30 2685 C 259.115 -1.69147 0.408069 0
M  V30 2686 O 260.291 -1.90156 0.663524 0
M  V30 2687 C 257.356 -3.14888 1.45073 0
M  V30 2688 C 256.417 -3.36034 2.6717 0
M  V30 2689 C 255.65 -4.65855 2.60413 0
M  V30 2690 O 255.873 -5.45805 1.65689 0
M  V30 2691 O 254.807 -4.88918 3.5106 0
M  V30 2692 H 258.633 -1.74494 2.48567 0
M  V30 2693 H 256.218 -0.80378 1.25935 0
M  V30 2694 H 258.1 -3.96179 1.43597 0
M  V30 2695 H 256.775 -3.19528 0.518037 0
M  V30 2696 H 255.682 -2.54472 2.74217 0
M  V30 2697 H 257.015 -3.36247 3.59442 0
M  V30 2698 N 258.668 -1.30515 -0.883378 0
M  V30 2699 C 259.915 -1.1943 -1.63532 0
M  V30 2700 C 260.243 0.250627 -1.92878 0
M  V30 2701 O 259.498 1.19556 -1.54935 0
M  V30 2702 C 259.797 -1.96994 -2.98209 0
M  V30 2703 C 259.463 -3.466 -2.88408 0
M  V30 2704 C 258.125 -3.87397 -2.85442 0
M  V30 2705 C 260.477 -4.41863 -2.76418 0
M  V30 2706 C 257.805 -5.21745 -2.68327 0
M  V30 2707 C 260.157 -5.7632 -2.60841 0
M  V30 2708 C 258.821 -6.16354 -2.56251 0
M  V30 2709 H 258.091 -0.437025 -0.598406 0
M  V30 2710 H 260.738 -1.61635 -1.02696 0
M  V30 2711 H 259.043 -1.47429 -3.63004 0
M  V30 2712 H 260.74 -1.85808 -3.55354 0
M  V30 2713 H 257.33 -3.14182 -2.91527 0
M  V30 2714 H 261.514 -4.11285 -2.77775 0
M  V30 2715 H 256.77 -5.51853 -2.63189 0
M  V30 2716 H 260.944 -6.49772 -2.50538 0
M  V30 2717 H 258.571 -7.20401 -2.42748 0
M  V30 2718 N 260.146 1.09593 -1.13257 0
M  V30 2719 C 261.394 1.81375 -0.891492 0
M  V30 2720 C 261.715 1.86049 0.584009 0
M  V30 2721 O 260.985 1.34481 1.42449 0
M  V30 2722 H 259.565 0.671708 -0.326828 0
M  V30 2723 H 262.227 1.3256 -1.42877 0
M  V30 2724 H 261.323 2.84612 -1.28071 0
M  V30 2725 N 261.624 0.925811 1.2754 0
M  V30 2726 C 262.554 0.440748 2.29303 0
M  V30 2727 C 263.535 -0.497971 1.62648 0
M  V30 2728 O 264.72 -0.403126 1.8997 0
M  V30 2729 C 261.85 -0.309048 3.45922 0
M  V30 2730 C 260.804 0.54166 4.24559 0
M  V30 2731 C 260.13 -0.337191 5.33636 0
M  V30 2732 C 261.43 1.80516 4.90114 0
M  V30 2733 H 263.124 1.29121 2.70126 0
M  V30 2734 H 260.67 0.622323 1.29858 0
M  V30 2735 H 262.623 -0.659315 4.1621 0
M  V30 2736 H 261.347 -1.19352 3.04011 0
M  V30 2737 H 260.006 0.874609 3.56014 0
M  V30 2738 H 259.654 -1.22056 4.87966 0
M  V30 2739 H 259.354 0.228497 5.87156 0
M  V30 2740 H 260.878 -0.683072 6.06767 0
M  V30 2741 H 262.292 1.52307 5.52698 0
M  V30 2742 H 260.689 2.3142 5.53683 0
M  V30 2743 H 261.759 2.52581 4.13921 0
M  V30 2744 N 263.102 -1.41638 0.69111 0
M  V30 2745 C 264.049 -2.30789 0.0229705 0
M  V30 2746 C 265.019 -1.46863 -0.775911 0
M  V30 2747 O 266.204 -1.75661 -0.74485 0
M  V30 2748 C 263.344 -3.32868 -0.910666 0
M  V30 2749 C 262.457 -4.31875 -0.103874 0
M  V30 2750 C 261.592 -5.21024 -1.03475 0
M  V30 2751 C 260.631 -6.11702 -0.220598 0
M  V30 2752 N 259.768 -6.93349 -1.10504 0
M  V30 2753 H 264.608 -2.87366 0.788978 0
M  V30 2754 H 262.145 -1.41535 0.400794 0
M  V30 2755 H 264.103 -3.90596 -1.46597 0
M  V30 2756 H 262.733 -2.77851 -1.64312 0
M  V30 2757 H 261.785 -3.76131 0.568285 0
M  V30 2758 H 263.097 -4.96003 0.527504 0
M  V30 2759 H 262.251 -5.83565 -1.65943 0
M  V30 2760 H 260.99 -4.57112 -1.69999 0
M  V30 2761 H 259.995 -5.48215 0.417187 0
M  V30 2762 H 261.22 -6.77668 0.440784 0
M  V30 2763 H 259.166 -6.3205 -1.75638 0
M  V30 2764 H 259.083 -7.54146 -0.529125 0
M  V30 2765 H 260.351 -7.60362 -1.71667 0
M  V30 2766 N 264.58 -0.43555 -1.51462 0
M  V30 2767 C 265.49 0.383001 -2.31453 0
M  V30 2768 C 266.506 1.02931 -1.4029 0
M  V30 2769 O 267.682 1.02507 -1.73362 0
M  V30 2770 C 264.747 1.47043 -3.13973 0
M  V30 2771 C 263.808 0.844433 -4.20913 0
M  V30 2772 C 263.041 1.88004 -4.9949 0
M  V30 2773 O 263.264 3.10199 -4.78678 0
M  V30 2774 O 262.198 1.47157 -5.83634 0
M  V30 2775 H 266.024 -0.269964 -3.02498 0
M  V30 2776 H 263.609 -0.19813 -1.4808 0
M  V30 2777 H 265.491 2.10113 -3.65281 0
M  V30 2778 H 264.166 2.10751 -2.45695 0
M  V30 2779 H 263.073 0.175729 -3.73687 0
M  V30 2780 H 264.406 0.250869 -4.9156 0
M  V30 2781 N 266.058 1.56714 -0.166846 0
M  V30 2782 C 267.005 2.17746 0.765193 0
M  V30 2783 C 267.975 1.11614 1.23011 0
M  V30 2784 O 269.16 1.39745 1.29908 0
M  V30 2785 C 266.3 2.81882 1.9909 0
M  V30 2786 C 265.413 4.02462 1.56997 0
M  V30 2787 C 264.548 4.54537 2.749 0
M  V30 2788 C 263.587 5.67538 2.29275 0
M  V30 2789 N 262.724 6.14142 3.40255 0
M  V30 2790 H 267.564 2.97048 0.237952 0
M  V30 2791 H 265.101 1.4672 0.105725 0
M  V30 2792 H 267.059 3.17221 2.70974 0
M  V30 2793 H 265.689 2.05191 2.49192 0
M  V30 2794 H 264.741 3.72973 0.748037 0
M  V30 2795 H 266.053 4.84273 1.19503 0
M  V30 2796 H 265.207 4.92035 3.54946 0
M  V30 2797 H 263.946 3.71774 3.1565 0
M  V30 2798 H 262.951 5.29597 1.47674 0
M  V30 2799 H 264.176 6.52099 1.89588 0
M  V30 2800 H 262.122 5.3431 3.8059 0
M  V30 2801 H 262.039 6.9093 3.06841 0
M  V30 2802 H 263.307 6.56289 4.206 0
M  V30 2803 N 267.536 -0.106894 1.57237 0
M  V30 2804 C 268.784 -0.810921 1.85117 0
M  V30 2805 C 269.105 -1.7984 0.753827 0
M  V30 2806 O 268.375 -1.94649 -0.221056 0
M  V30 2807 H 266.955 -0.302466 0.683025 0
M  V30 2808 H 269.617 -0.0913324 1.94686 0
M  V30 2809 H 268.713 -1.34875 2.81452 0
M  V30 2810 N 269.014 -1.53014 -0.377408 0
M  V30 2811 C 270.244 -1.72265 -1.14054 0
M  V30 2812 C 270.652 -0.44601 -1.83868 0
M  V30 2813 O 269.995 0.590095 -1.73964 0
M  V30 2814 C 270.057 -2.82492 -2.22348 0
M  V30 2815 C 269.721 -4.23233 -1.72402 0
M  V30 2816 C 270.718 -5.05992 -1.19448 0
M  V30 2817 C 268.403 -4.696 -1.78273 0
M  V30 2818 C 270.397 -6.33203 -0.730268 0
M  V30 2819 C 268.084 -5.96792 -1.31464 0
M  V30 2820 C 269.082 -6.78424 -0.789297 0
M  V30 2821 O 268.77 -8.0323 -0.328077 0
M  V30 2822 H 268.502 -0.579873 -0.347453 0
M  V30 2823 H 271.056 -2.00502 -0.445882 0
M  V30 2824 H 269.286 -2.49702 -2.95272 0
M  V30 2825 H 270.975 -2.90034 -2.83963 0
M  V30 2826 H 271.741 -4.71349 -1.14259 0
M  V30 2827 H 267.62 -4.06142 -2.18106 0
M  V30 2828 H 271.164 -6.96868 -0.319542 0
M  V30 2829 H 267.061 -6.30937 -1.36342 0
M  V30 2830 H 267.829 -8.1727 -0.448493 0
M  V30 2831 N 270.492 0.636531 -1.44174 0
M  V30 2832 C 271.72 1.42353 -1.50144 0
M  V30 2833 C 272.135 1.88389 -0.124575 0
M  V30 2834 O 271.492 1.6051 0.868489 0
M  V30 2835 C 271.543 2.64744 -2.46156 0
M  V30 2836 O 271.264 2.20629 -3.7849 0
M  V30 2837 C 272.765 3.57929 -2.61537 0
M  V30 2838 H 269.985 0.436752 -0.5094 0
M  V30 2839 H 272.529 0.778933 -1.89084 0
M  V30 2840 H 270.684 3.25307 -2.10366 0
M  V30 2841 H 271.098 2.99938 -4.30276 0
M  V30 2842 H 272.572 4.40428 -3.32757 0
M  V30 2843 H 273.049 4.06382 -1.66585 0
M  V30 2844 H 273.655 3.03238 -2.98206 0
M  V30 2845 N 271.97 1.30982 0.876444 0
M  V30 2846 C 273.195 1.23373 1.66715 0
M  V30 2847 C 273.62 -0.19885 1.87046 0
M  V30 2848 O 272.978 -1.1427 1.40756 0
M  V30 2849 C 273.026 1.97644 3.01611 0
M  V30 2850 O 272.13 1.30935 3.91062 0
M  V30 2851 H 271.471 0.426279 0.509099 0
M  V30 2852 H 274.001 1.72944 1.09323 0
M  V30 2853 H 274.011 2.06992 3.51594 0
M  V30 2854 H 272.686 3.01829 2.86133 0
M  V30 2855 H 271.263 1.29996 3.49507 0
M  V30 2856 N 273.449 -1.08991 1.13837 0
M  V30 2857 C 274.379 -2.17771 0.842507 0
M  V30 2858 C 275.36 -1.6892 -0.20001 0
M  V30 2859 O 276.545 -1.94113 -0.0579731 0
M  V30 2860 C 273.675 -3.4589 0.312644 0
M  V30 2861 C 272.629 -4.08099 1.28992 0
M  V30 2862 C 271.955 -5.31098 0.619623 0
M  V30 2863 C 273.255 -4.50077 2.65005 0
M  V30 2864 H 274.949 -2.42777 1.75213 0
M  V30 2865 H 272.495 -1.16682 0.843875 0
M  V30 2866 H 274.448 -4.21297 0.0933043 0
M  V30 2867 H 273.172 -3.20419 -0.632382 0
M  V30 2868 H 271.831 -3.34717 1.49533 0
M  V30 2869 H 271.479 -5.0191 -0.33102 0
M  V30 2870 H 271.179 -5.73674 1.27167 0
M  V30 2871 H 272.703 -6.09224 0.409669 0
M  V30 2872 H 274.117 -5.16688 2.48407 0
M  V30 2873 H 272.514 -5.03553 3.26427 0
M  V30 2874 H 273.584 -3.62257 3.22332 0
M  V30 2875 N 274.927 -0.932562 -1.27047 0
M  V30 2876 C 276.173 -0.576412 -1.94436 0
M  V30 2877 C 276.506 0.880891 -1.73072 0
M  V30 2878 O 275.781 1.62905 -1.06264 0
M  V30 2879 C 276.064 -0.909031 -3.48437 0
M  V30 2880 C 275.917 -2.42044 -3.79123 0
M  V30 2881 C 277.236 -0.418341 -4.38107 0
M  V30 2882 H 274.355 -0.210888 -0.706184 0
M  V30 2883 H 276.997 -1.16522 -1.50075 0
M  V30 2884 H 275.147 -0.407947 -3.86352 0
M  V30 2885 H 276.819 -2.99359 -3.50973 0
M  V30 2886 H 275.062 -2.86758 -3.25503 0
M  V30 2887 H 275.733 -2.6037 -4.86736 0
M  V30 2888 H 278.209 -0.847856 -4.0737 0
M  V30 2889 H 277.085 -0.679981 -5.44672 0
M  V30 2890 H 277.346 0.681642 -4.36814 0
M  V30 2891 N 276.405 1.4127 -0.698611 0
M  V30 2892 C 277.651 2.01478 -0.231207 0
M  V30 2893 C 277.984 1.55215 1.16713 0
M  V30 2894 O 277.259 0.764672 1.78838 0
M  V30 2895 C 277.542 3.58912 -0.292281 0
M  V30 2896 C 277.395 4.15293 -1.72778 0
M  V30 2897 C 278.714 4.38736 0.346194 0
M  V30 2898 H 275.833 0.732025 -0.0854878 0
M  V30 2899 H 278.475 1.67977 -0.887906 0
M  V30 2900 H 276.625 3.87582 0.26686 0
M  V30 2901 H 278.297 3.97486 -2.341 0
M  V30 2902 H 276.54 3.7022 -2.26096 0
M  V30 2903 H 277.211 5.24452 -1.72202 0
M  V30 2904 H 279.687 4.15897 -0.130035 0
M  V30 2905 H 278.563 5.48221 0.272932 0
M  V30 2906 H 278.824 4.18425 1.42734 0
M  V30 2907 N 277.883 0.443576 1.51229 0
M  V30 2908 C 279.129 -0.120975 2.02439 0
M  V30 2909 C 279.462 -1.41815 1.32674 0
M  V30 2910 O 278.737 -1.89373 0.443622 0
M  V30 2911 C 279.02 -0.333291 3.58554 0
M  V30 2912 C 278.873 0.982968 4.38928 0
M  V30 2913 C 280.192 -1.10028 4.26124 0
M  V30 2914 H 277.311 -0.0424923 0.735774 0
M  V30 2915 H 279.953 0.583794 1.80809 0
M  V30 2916 H 278.103 -0.933614 3.77115 0
M  V30 2917 H 279.775 1.61775 4.32003 0
M  V30 2918 H 278.018 1.58611 4.03763 0
M  V30 2919 H 278.689 0.788379 5.46341 0
M  V30 2920 H 281.165 -0.591711 4.11871 0
M  V30 2921 H 280.041 -1.21761 5.35225 0
M  V30 2922 H 280.302 -2.12996 3.87408 0
M  V30 2923 N 279.361 -1.56624 0.175154 0
M  V30 2924 C 280.772 -1.83561 -0.340916 0
M  V30 2925 C 281.123 -1.09511 -1.62794 0
M  V30 2926 O 280.248 -0.349389 -2.13561 0
M  V30 2927 C 280.843 -3.32979 -0.625313 0
M  V30 2928 C 279.402 -3.60399 -1.08581 0
M  V30 2929 C 278.549 -2.77024 -0.123722 0
M  V30 2930 H 281.5 -1.53593 0.399344 0
M  V30 2931 H 281.521 -3.50666 -1.47694 0
M  V30 2932 H 281.033 -3.86847 0.311575 0
M  V30 2933 H 279.134 -3.11945 -2.03767 0
M  V30 2934 H 279.247 -4.68711 -0.992317 0
M  V30 2935 H 277.611 -2.46993 -0.621821 0
M  V30 2936 H 278.394 -3.33674 0.807256 0
M  V30 2937 N 280.839 0.0985539 -1.57292 0
M  V30 2938 C 282.085 0.803867 -1.86188 0
M  V30 2939 C 282.418 1.78549 -0.763794 0
M  V30 2940 O 281.693 1.93153 0.22855 0
M  V30 2941 C 281.976 1.53568 -3.25713 0
M  V30 2942 C 281.829 0.572277 -4.46145 0
M  V30 2943 C 283.148 2.48708 -3.63087 0
M  V30 2944 H 280.267 0.290781 -0.677211 0
M  V30 2945 H 282.909 0.0675783 -1.8988 0
M  V30 2946 H 281.059 2.16332 -3.22696 0
M  V30 2947 H 282.731 -0.0480894 -4.61275 0
M  V30 2948 H 280.974 -0.114618 -4.33649 0
M  V30 2949 H 281.645 1.12139 -5.40489 0
M  V30 2950 H 284.121 1.96039 -3.67026 0
M  V30 2951 H 282.997 2.96932 -4.61652 0
M  V30 2952 H 283.258 3.32309 -2.91588 0
M  V30 2953 N 282.317 1.53212 0.369288 0
M  V30 2954 C 283.565 1.68881 1.11012 0
M  V30 2955 C 283.886 0.441285 1.89941 0
M  V30 2956 O 283.156 -0.544623 1.88177 0
M  V30 2957 H 281.736 0.622569 0.412816 0
M  V30 2958 H 284.398 1.90391 0.416802 0
M  V30 2959 H 283.494 2.54822 1.80201 0
M  V30 2960 N 283.795 -0.628877 1.44509 0
M  V30 2961 C 284.745 -1.7345 1.47983 0
M  V30 2962 C 285.729 -1.5715 0.345373 0
M  V30 2963 O 286.921 -1.66848 0.590829 0
M  V30 2964 C 284.05 -3.12143 1.42904 0
M  V30 2965 C 283.136 -3.33906 2.61472 0
M  V30 2966 N 283.527 -3.26024 3.86706 0
M  V30 2967 C 281.825 -3.64709 2.56716 0
M  V30 2968 C 282.526 -3.48536 4.65722 0
M  V30 2969 N 281.502 -3.71517 3.96832 0
M  V30 2970 H 285.304 -1.65818 2.42655 0
M  V30 2971 H 282.818 -0.831419 1.39503 0
M  V30 2972 H 284.815 -3.91433 1.43476 0
M  V30 2973 H 283.475 -3.2094 0.492717 0
M  V30 2974 H 284.486 -3.04893 4.18641 0
M  V30 2975 H 281.163 -3.80473 1.71891 0
M  V30 2976 H 282.553 -3.48016 5.74747 0
M  V30 2977 N 285.273 -1.31445 -0.869486 0
M  V30 2978 C 286.223 -1.15731 -1.96444 0
M  V30 2979 C 287.207 -0.0681855 -1.60755 0
M  V30 2980 O 288.399 -0.293154 -1.74555 0
M  V30 2981 C 285.528 -0.867255 -3.32165 0
M  V30 2982 C 284.614 -1.99738 -3.74119 0
M  V30 2983 N 285.005 -3.24447 -3.88031 0
M  V30 2984 C 283.303 -1.89723 -4.03635 0
M  V30 2985 C 284.004 -3.98374 -4.23879 0
M  V30 2986 N 282.98 -3.26547 -4.3459 0
M  V30 2987 H 286.782 -2.10296 -2.05312 0
M  V30 2988 H 284.296 -1.23009 -1.06031 0
M  V30 2989 H 286.293 -0.735668 -4.10358 0
M  V30 2990 H 284.953 0.0701614 -3.24624 0
M  V30 2991 H 285.964 -3.59557 -3.72746 0
M  V30 2992 H 282.641 -1.03449 -4.04481 0
M  V30 2993 H 284.031 -5.05844 -4.42235 0
M  V30 2994 N 286.751 1.08385 -1.14413 0
M  V30 2995 C 287.976 1.85057 -0.936413 0
M  V30 2996 C 288.401 1.81055 0.509971 0
M  V30 2997 O 287.759 1.1958 1.36273 0
M  V30 2998 C 287.807 3.30505 -1.44217 0
M  V30 2999 O 286.911 4.07491 -0.634409 0
M  V30 3000 H 286.252 0.573425 -0.334784 0
M  V30 3001 H 288.782 1.36799 -1.52142 0
M  V30 3002 H 288.792 3.81348 -1.45043 0
M  V30 3003 H 287.467 3.32734 -2.49522 0
M  V30 3004 H 286.044 3.66368 -0.694902 0
M  V30 3005 N 288.23 0.939286 1.26551 0
M  V30 3006 C 289.476 0.586715 1.94128 0
M  V30 3007 C 289.809 -0.8717 1.73537 0
M  V30 3008 O 289.084 -1.62339 1.07127 0
M  V30 3009 C 289.367 0.927497 3.4795 0
M  V30 3010 C 289.22 2.44052 3.77834 0
M  V30 3011 C 290.539 0.441569 4.37879 0
M  V30 3012 H 287.658 0.21463 0.705055 0
M  V30 3013 H 290.3 1.17316 1.49455 0
M  V30 3014 H 288.45 0.428431 3.8613 0
M  V30 3015 H 290.122 3.01216 3.4938 0
M  V30 3016 H 288.365 2.8848 3.23978 0
M  V30 3017 H 289.036 2.62947 4.85348 0
M  V30 3018 H 291.512 0.869448 4.06915 0
M  V30 3019 H 290.388 0.708856 5.44304 0
M  V30 3020 H 290.649 -0.658467 4.37169 0
M  V30 3021 N 289.708 -1.40897 0.706093 0
M  V30 3022 C 290.618 -2.3455 0.0482286 0
M  V30 3023 C 291.634 -1.56796 -0.754396 0
M  V30 3024 O 292.81 -1.89228 -0.689538 0
M  V30 3025 C 289.875 -3.35625 -0.869303 0
M  V30 3026 C 288.936 -4.29261 -0.0576994 0
M  V30 3027 C 288.169 -5.25508 -0.931531 0
M  V30 3028 O 288.392 -5.27472 -2.17092 0
M  V30 3029 O 287.326 -6.00727 -0.375587 0
M  V30 3030 H 291.152 -2.92407 0.820476 0
M  V30 3031 H 288.737 -1.4193 0.4665 0
M  V30 3032 H 290.619 -3.97635 -1.39514 0
M  V30 3033 H 289.294 -2.80196 -1.62086 0
M  V30 3034 H 288.201 -3.70566 0.512988 0
M  V30 3035 H 289.534 -4.87817 0.655426 0
M  V30 3036 N 291.186 -0.45159 -1.50991 0
M  V30 3037 C 292.463 0.170707 -1.94854 0
M  V30 3038 C 292.843 1.58788 -1.39103 0
M  V30 3039 O 292.191 2.20913 -0.583921 0
M  V30 3040 C 292.401 0.133929 -3.48743 0
M  V30 3041 C 293.749 0.33248 -4.23296 0
M  V30 3042 O 294.773 0.211403 -3.55572 0
M  V30 3043 O 293.632 0.57486 -5.43468 0
M  V30 3044 H 290.726 0.122264 -0.817912 0
M  V30 3045 H 293.272 -0.510594 -1.61836 0
M  V30 3046 H 292.044 -0.856283 -3.81816 0
M  V30 3047 H 291.667 0.857529 -3.88242 0
M  V30 3048 N 292.664 1.56529 -0.183458 0
M  V30 3049 C 293.911 1.97244 0.458357 0
M  V30 3050 C 294.239 1.06992 1.62428 0
M  V30 3051 O 293.494 0.106542 1.9541 0
M  V30 3052 C 293.793 3.43939 0.971637 0
M  V30 3053 C 293.459 4.5083 -0.0796784 0
M  V30 3054 C 292.121 4.79786 -0.368584 0
M  V30 3055 C 294.473 5.15138 -0.792638 0
M  V30 3056 C 291.801 5.70345 -1.37563 0
M  V30 3057 C 294.153 6.06784 -1.78875 0
M  V30 3058 C 292.817 6.34102 -2.08497 0
M  V30 3059 H 292.087 0.721768 0.167725 0
M  V30 3060 H 294.734 1.89472 -0.277976 0
M  V30 3061 H 293.039 3.48724 1.78602 0
M  V30 3062 H 294.736 3.72791 1.47744 0
M  V30 3063 H 291.326 4.28317 0.155668 0
M  V30 3064 H 295.51 4.92868 -0.582659 0
M  V30 3065 H 290.766 5.89789 -1.61118 0
M  V30 3066 H 294.94 6.55677 -2.3465 0
M  V30 3067 H 292.567 7.04074 -2.86678 0
M  V30 3068 N 294.142 -0.090211 1.57342 0
M  V30 3069 C 295.09 -1.12792 2.03422 0
M  V30 3070 C 296.084 -1.41182 0.936166 0
M  V30 3071 O 297.29 -1.40805 1.12133 0
M  V30 3072 H 293.665 -0.380986 0.648347 0
M  V30 3073 H 295.636 -0.71299 2.89757 0
M  V30 3074 C 294.385 -2.43855 2.47851 0
M  V30 3075 H 293.708 -2.22855 3.31927 0
M  V30 3076 H 295.148 -3.14955 2.83865 0
M  V30 3077 C 293.607 -3.08503 1.3538 0
M  V30 3078 O 294.137 -3.95805 0.685641 0
M  V30 3079 N 292.343 -2.68831 1.10355 0
M  V30 3080 H 291.89 -1.97929 1.64869 0
M  V30 3081 H 291.848 -3.12412 0.353031 0
M  V30 3082 N 295.62 -1.53406 -0.361157 0
M  V30 3083 C 296.583 -1.79479 -1.42548 0
M  V30 3084 C 297.583 -0.665327 -1.4639 0
M  V30 3085 O 298.773 -0.933549 -1.47073 0
M  V30 3086 C 295.905 -1.92087 -2.8163 0
M  V30 3087 H 297.098 -2.74538 -1.20701 0
M  V30 3088 H 294.651 -1.4455 -0.594546 0
M  V30 3089 H 295.386 -0.991099 -3.08784 0
M  V30 3090 H 295.171 -2.74241 -2.80239 0
M  V30 3091 H 296.661 -2.13836 -3.58697 0
M  V30 3092 N 297.098 0.621204 -1.44841 0
M  V30 3093 C 298.326 1.40752 -1.51646 0
M  V30 3094 C 298.741 1.88246 -0.144549 0
M  V30 3095 O 298.098 1.61422 0.851416 0
M  V30 3096 C 298.149 2.62119 -2.4895 0
M  V30 3097 O 297.87 2.16602 -3.80808 0
M  V30 3098 C 299.371 3.55135 -2.65319 0
M  V30 3099 H 296.591 0.431325 -0.514004 0
M  V30 3100 H 299.135 0.758835 -1.899 0
M  V30 3101 H 297.29 3.23058 -2.13805 0
M  V30 3102 H 297.704 2.95358 -4.33433 0
M  V30 3103 H 299.178 4.36874 -3.37409 0
M  V30 3104 H 299.655 4.04592 -1.70886 0
M  V30 3105 H 300.261 3.00058 -3.01405 0
M  V30 3106 N 298.576 1.31904 0.862503 0
M  V30 3107 C 299.506 1.22782 1.98612 0
M  V30 3108 C 300.487 0.113362 1.69722 0
M  V30 3109 O 301.672 0.299218 1.91881 0
M  V30 3110 C 298.802 0.942058 3.34279 0
M  V30 3111 C 297.756 2.0169 3.77499 0
M  V30 3112 C 297.082 1.58369 5.10709 0
M  V30 3113 C 298.382 3.43096 3.93805 0
M  V30 3114 H 300.076 2.16788 2.06502 0
M  V30 3115 H 297.622 1.04366 0.992154 0
M  V30 3116 H 299.575 0.864818 4.1243 0
M  V30 3117 H 298.299 -0.0336603 3.26583 0
M  V30 3118 H 296.958 2.08416 3.01593 0
M  V30 3119 H 296.606 0.595628 4.99461 0
M  V30 3120 H 296.306 2.30279 5.40597 0
M  V30 3121 H 297.83 1.52067 5.91361 0
M  V30 3122 H 299.244 3.39003 4.62331 0
M  V30 3123 H 297.641 4.13288 4.35101 0
M  V30 3124 H 298.711 3.83334 2.96957 0
M  V30 3125 N 300.054 -1.07777 1.14986 0
M  V30 3126 C 301.465 -1.61766 0.932127 0
M  V30 3127 C 301.816 -1.88974 -0.527581 0
M  V30 3128 O 300.941 -1.65198 -1.39781 0
M  V30 3129 C 301.536 -2.93891 1.68563 0
M  V30 3130 C 300.095 -3.44639 1.5133 0
M  V30 3131 C 299.242 -2.18767 1.704 0
M  V30 3132 H 302.193 -0.909201 1.30074 0
M  V30 3133 H 302.214 -3.62623 1.15259 0
M  V30 3134 H 301.726 -2.74057 2.74799 0
M  V30 3135 H 299.827 -3.69564 0.474702 0
M  V30 3136 H 299.94 -4.20966 2.28746 0
M  V30 3137 H 298.304 -2.28253 1.13016 0
M  V30 3138 H 299.087 -2.01433 2.77992 0
M  V30 3139 N 301.532 -0.945985 -1.26051 0
M  V30 3140 C 302.479 -0.45809 -2.26208 0
M  V30 3141 C 303.449 0.484816 -1.58867 0
M  V30 3142 O 304.634 0.399969 -1.86561 0
M  V30 3143 C 301.774 0.266131 -3.44072 0
M  V30 3144 C 300.887 -0.713005 -4.26075 0
M  V30 3145 C 300.022 0.0329013 -5.3119 0
M  V30 3146 C 299.061 -0.93774 -6.04874 0
M  V30 3147 N 298.198 -0.223274 -7.01745 0
M  V30 3148 H 303.038 -1.3171 -2.67313 0
M  V30 3149 H 300.575 -0.66069 -1.31428 0
M  V30 3150 H 302.533 0.702514 -4.11243 0
M  V30 3151 H 301.163 1.08925 -3.03867 0
M  V30 3152 H 300.215 -1.26789 -3.58648 0
M  V30 3153 H 301.527 -1.45406 -4.77136 0
M  V30 3154 H 300.681 0.528335 -6.04395 0
M  V30 3155 H 299.42 0.806801 -4.8098 0
M  V30 3156 H 298.425 -1.44425 -5.30492 0
M  V30 3157 H 299.65 -1.71172 -6.57173 0
M  V30 3158 H 297.596 0.532046 -6.53839 0
M  V30 3159 H 297.513 -0.90357 -7.50581 0
M  V30 3160 H 298.781 0.250907 -7.79096 0
M  V30 3161 N 303.011 1.40521 -0.713556 0
M  V30 3162 C 304.236 2.05759 -0.26035 0
M  V30 3163 C 304.661 1.53403 1.08854 0
M  V30 3164 O 304.019 0.668535 1.68524 0
M  V30 3165 C 304.067 3.59745 -0.248122 0
M  V30 3166 O 303.171 4.05123 0.77131 0
M  V30 3167 H 302.512 0.652564 -0.122703 0
M  V30 3168 H 305.042 1.79958 -0.973467 0
M  V30 3169 H 305.052 4.07911 -0.0851129 0
M  V30 3170 H 303.727 3.97218 -1.2325 0
M  V30 3171 H 302.304 3.68422 0.57619 0
M  V30 3172 N 304.489 0.459591 1.5075 0
M  V30 3173 C 305.905 0.113092 1.59199 0
M  V30 3174 C 306.105 -1.37951 1.46874 0
M  V30 3175 O 305.161 -2.15168 1.32132 0
M  V30 3176 C 306.474 0.653043 2.93523 0
M  V30 3177 C 308.022 0.615449 3.0689 0
M  V30 3178 C 308.497 1.13275 4.43771 0
M  V30 3179 N 309.988 1.09167 4.50152 0
M  V30 3180 C 310.723 1.46256 5.54434 0
M  V30 3181 N 310.219 1.90739 6.66026 0
M  V30 3182 N 312.012 1.37932 5.44914 0
M  V30 3183 H 304.163 1.43049 1.57005 0
M  V30 3184 H 306.426 0.590861 0.741341 0
M  V30 3185 H 306.132 1.69822 3.07983 0
M  V30 3186 H 306.006 0.0902132 3.77092 0
M  V30 3187 H 308.393 -0.420793 2.92084 0
M  V30 3188 H 308.474 1.21495 2.25106 0
M  V30 3189 H 308.118 2.16757 4.59324 0
M  V30 3190 H 308.048 0.509576 5.24129 0
M  V30 3191 H 310.539 0.76528 3.7007 0
M  V30 3192 H 310.852 2.17218 7.41644 0
M  V30 3193 H 309.197 1.94683 6.67176 0
M  V30 3194 H 312.388 1.0303 4.56621 0
M  V30 3195 H 312.561 1.67164 6.26067 0
M  V30 3196 N 305.967 -1.56429 0.191757 0
M  V30 3197 C 306.897 -2.21937 -0.725696 0
M  V30 3198 C 307.878 -1.1814 -1.2238 0
M  V30 3199 O 309.063 -1.46636 -1.27325 0
M  V30 3200 C 306.193 -2.87611 -1.94672 0
M  V30 3201 C 305.147 -3.97623 -1.58366 0
M  V30 3202 C 304.473 -4.50446 -2.88102 0
M  V30 3203 C 305.773 -5.16197 -0.796133 0
M  V30 3204 H 307.467 -2.98861 -0.179606 0
M  V30 3205 H 305.013 -1.43749 -0.0849464 0
M  V30 3206 H 306.966 -3.3212 -2.59373 0
M  V30 3207 H 305.69 -2.08087 -2.51728 0
M  V30 3208 H 304.349 -3.53801 -0.960247 0
M  V30 3209 H 303.997 -3.67688 -3.43241 0
M  V30 3210 H 303.697 -5.24675 -2.64556 0
M  V30 3211 H 305.221 -4.97654 -3.53798 0
M  V30 3212 H 306.635 -5.57271 -1.34618 0
M  V30 3213 H 305.032 -5.96471 -0.658928 0
M  V30 3214 H 306.102 -4.84473 0.203478 0
M  V30 3215 N 307.445 0.0818655 -1.57387 0
M  V30 3216 C 308.856 0.634871 -1.75574 0
M  V30 3217 C 309.207 1.78435 -0.815809 0
M  V30 3218 O 308.332 2.164 0.0025366 0
M  V30 3219 C 308.927 1.15845 -3.18379 0
M  V30 3220 C 307.486 1.65741 -3.37945 0
M  V30 3221 C 306.633 0.572549 -2.71325 0
M  V30 3222 H 309.584 -0.144268 -1.58043 0
M  V30 3223 H 309.605 2.02751 -3.21982 0
M  V30 3224 H 309.117 0.321631 -3.86765 0
M  V30 3225 H 307.218 2.51781 -2.74658 0
M  V30 3226 H 307.331 1.74129 -4.46336 0
M  V30 3227 H 305.695 1.01518 -2.33594 0
M  V30 3228 H 306.478 -0.253918 -3.4236 0
M  V30 3229 N 308.923 1.53595 0.353017 0
M  V30 3230 C 309.855 1.77219 1.45348 0
M  V30 3231 C 310.868 0.65324 1.49119 0
M  V30 3232 O 312.057 0.929775 1.52373 0
M  V30 3233 C 309.157 1.84841 2.84055 0
M  V30 3234 C 308.33 3.14649 3.03833 0
M  V30 3235 C 307.389 3.13351 4.22727 0
M  V30 3236 O 306.415 3.87107 4.17297 0
M  V30 3237 N 307.617 2.35052 5.30783 0
M  V30 3238 H 310.382 2.72178 1.25457 0
M  V30 3239 H 307.943 1.52528 0.542833 0
M  V30 3240 H 309.935 1.81435 3.61751 0
M  V30 3241 H 308.505 0.971114 2.97133 0
M  V30 3242 H 307.725 3.31256 2.13689 0
M  V30 3243 H 309.013 4.00411 3.13925 0
M  V30 3244 H 308.411 1.74663 5.38061 0
M  V30 3245 H 306.968 2.37453 6.07009 0
M  V30 3246 N 310.401 -0.613514 1.45168 0
M  V30 3247 C 311.349 -1.74572 1.53712 0
M  V30 3248 C 312.343 -1.64426 0.407505 0
M  V30 3249 O 313.549 -1.70291 0.583176 0
M  V30 3250 H 309.924 -0.576641 0.48269 0
M  V30 3251 H 311.895 -1.64492 2.48968 0
M  V30 3252 C 310.644 -3.12943 1.51532 0
M  V30 3253 H 309.967 -3.21407 2.37776 0
M  V30 3254 H 311.407 -3.9201 1.61569 0
M  V30 3255 C 309.866 -3.36053 0.238798 0
M  V30 3256 O 310.396 -3.95837 -0.6838 0
M  V30 3257 N 308.602 -2.9028 0.136359 0
M  V30 3258 H 308.149 -2.41811 0.887999 0
M  V30 3259 H 308.107 -3.06116 -0.716944 0
M  V30 3260 N 311.879 -1.3236 -0.855495 0
M  V30 3261 C 313.128 -1.22226 -1.60448 0
M  V30 3262 C 313.441 0.214733 -1.94418 0
M  V30 3263 O 314.647 0.437917 -2.67945 0
M  V30 3264 C 313.103 -2.14063 -2.89318 0
M  V30 3265 C 312.711 -3.62839 -2.62777 0
M  V30 3266 C 314.455 -2.12764 -3.67331 0
M  V30 3267 C 312.362 -4.4664 -3.87643 0
M  V30 3268 H 311.292 -0.453904 -0.602069 0
M  V30 3269 H 313.943 -1.57314 -0.944698 0
M  V30 3270 H 312.325 -1.71889 -3.5675 0
M  V30 3271 H 313.499 -4.1335 -2.03662 0
M  V30 3272 H 311.814 -3.66261 -1.98096 0
M  V30 3273 H 314.411 -2.72611 -4.59987 0
M  V30 3274 H 314.754 -1.11841 -4.00995 0
M  V30 3275 H 315.287 -2.53214 -3.06802 0
M  V30 3276 H 312.026 -5.48373 -3.5912 0
M  V30 3277 H 311.546 -4.0088 -4.46156 0
M  V30 3278 H 313.225 -4.59597 -4.55389 0
M  V30 3279 N 313.357 1.07166 -1.15556 0
M  V30 3280 C 314.585 1.83514 -0.955519 0
M  V30 3281 C 315 1.82163 0.49621 0
M  V30 3282 O 314.357 1.23441 1.34419 0
M  V30 3283 C 314.408 3.30515 -1.46432 0
M  V30 3284 O 314.129 3.31937 -2.85918 0
M  V30 3285 C 315.63 4.23625 -1.30603 0
M  V30 3286 H 312.85 0.578926 -0.339244 0
M  V30 3287 H 315.394 1.35265 -1.53374 0
M  V30 3288 H 313.549 3.76106 -0.928584 0
M  V30 3289 H 313.963 4.23794 -3.09029 0
M  V30 3290 H 315.437 5.24831 -1.71047 0
M  V30 3291 H 315.914 4.38485 -0.250441 0
M  V30 3292 H 316.52 3.83871 -1.83094 0
M  V30 3293 N 314.835 0.952656 1.25548 0
M  V30 3294 C 315.765 0.489287 2.28316 0
M  V30 3295 C 316.746 -0.463359 1.63667 0
M  V30 3296 O 317.931 -0.36274 1.90782 0
M  V30 3297 C 315.061 -0.235603 3.465 0
M  V30 3298 C 314.015 0.631593 4.23314 0
M  V30 3299 C 313.341 -0.223923 5.34231 0
M  V30 3300 C 314.641 1.90871 4.86174 0
M  V30 3301 H 316.335 1.34822 2.67326 0
M  V30 3302 H 313.881 0.649728 1.28509 0
M  V30 3303 H 315.834 -0.570882 4.17515 0
M  V30 3304 H 314.558 -1.12877 3.06474 0
M  V30 3305 H 313.217 0.949929 3.54079 0
M  V30 3306 H 312.865 -1.11678 4.90446 0
M  V30 3307 H 312.565 0.35299 5.86539 0
M  V30 3308 H 314.089 -0.554214 6.0808 0
M  V30 3309 H 315.503 1.63997 5.49343 0
M  V30 3310 H 313.9 2.43112 5.4865 0
M  V30 3311 H 314.97 2.61304 4.08471 0
M  V30 3312 N 316.313 -1.40141 0.720998 0
M  V30 3313 C 317.541 -2.05096 0.272656 0
M  V30 3314 C 317.956 -1.54334 -1.0875 0
M  V30 3315 O 317.313 -0.702211 -1.6845 0
M  V30 3316 C 317.364 -3.60636 0.249835 0
M  V30 3317 O 317.085 -4.09526 1.55629 0
M  V30 3318 C 318.586 -4.42772 -0.216396 0
M  V30 3319 H 315.806 -0.659897 0.121558 0
M  V30 3320 H 318.35 -1.79449 0.980723 0
M  V30 3321 H 316.505 -3.85232 -0.409237 0
M  V30 3322 H 316.919 -5.03758 1.4604 0
M  V30 3323 H 318.393 -5.51702 -0.181212 0
M  V30 3324 H 318.87 -4.20756 -1.25941 0
M  V30 3325 H 319.476 -4.23294 0.412596 0
M  V30 3326 N 317.792 -0.46758 -1.50504 0
M  V30 3327 C 318.702 0.33382 -2.32213 0
M  V30 3328 C 319.718 0.999323 -1.42441 0
M  V30 3329 O 320.894 0.988068 -1.75497 0
M  V30 3330 C 317.959 1.4035 -3.17022 0
M  V30 3331 C 317.02 0.754961 -4.2261 0
M  V30 3332 C 316.253 1.77367 -5.03365 0
M  V30 3333 O 316.476 2.99976 -4.8515 0
M  V30 3334 O 315.41 1.34744 -5.86624 0
M  V30 3335 H 319.236 -0.334067 -3.01857 0
M  V30 3336 H 316.821 -0.229496 -1.47627 0
M  V30 3337 H 318.703 2.02318 -3.69656 0
M  V30 3338 H 317.378 2.05492 -2.5011 0
M  V30 3339 H 316.285 0.0964244 -3.73976 0
M  V30 3340 H 317.618 0.146545 -4.91982 0
M  V30 3341 N 319.27 1.56325 -0.20005 0
M  V30 3342 C 320.516 1.98012 0.438059 0
M  V30 3343 C 320.849 1.08702 1.60927 0
M  V30 3344 O 320.124 0.140064 1.93995 0
M  V30 3345 C 320.407 3.48841 0.893419 0
M  V30 3346 C 320.26 4.48928 -0.279947 0
M  V30 3347 C 321.579 4.03498 1.75719 0
M  V30 3348 H 318.698 0.719918 0.157757 0
M  V30 3349 H 321.34 1.87743 -0.291968 0
M  V30 3350 H 319.49 3.57723 1.51547 0
M  V30 3351 H 321.162 4.52079 -0.91772 0
M  V30 3352 H 319.405 4.23694 -0.930919 0
M  V30 3353 H 320.076 5.5194 0.0812601 0
M  V30 3354 H 322.552 3.97427 1.23253 0
M  V30 3355 H 321.428 5.09393 2.04476 0
M  V30 3356 H 321.689 3.4906 2.71311 0
M  V30 3357 O 320.787 0.0630897 1.61377 0
M  V30 3358 H 321.478 -0.544463 1.85891 0
M  V30 END ATOM
M  V30 BEGIN BOND
M  V30 END BOND
M  V30 END CTAB
M  END
$$$$
