drugbank_target|P21905 ATP synthase subunit c, sodium ion specific (DB03143)
 OpenBabel12092120013D

  0  0  0     0  0            999 V3000
M  V30 BEGIN CTAB
M  V30 COUNTS 1261 1267 0 0 0
M  V30 BEGIN ATOM
M  V30 1 H -0.908 1.98254 -0.117106 0
M  V30 2 N 0 1.576 0 0
M  V30 3 C 0.933 2.03868 1.02534 0
M  V30 4 C 1.911 0.928543 1.3348 0
M  V30 5 O 3.095 1.19667 1.45644 0
M  V30 6 C 0.222 2.43627 2.35294 0
M  V30 7 C -0.732 3.65373 2.2001 0
M  V30 8 S 0.101 5.13292 1.52614 0
M  V30 9 C 1.257 5.56322 2.86805 0
M  V30 10 H 1.49 2.90518 0.631377 0
M  V30 11 H -0.977 1.52953 0.210867 0
M  V30 12 H 0.981 2.67203 3.11629 0
M  V30 13 H -0.358 1.57376 2.7183 0
M  V30 14 H -1.165 3.90944 3.18086 0
M  V30 15 H -1.563 3.418 1.51819 0
M  V30 16 H 0.729 5.58782 3.83104 0
M  V30 17 H 1.672 6.56266 2.65933 0
M  V30 18 H 2.08 4.83886 2.90714 0
M  V30 19 N 1.4781 -0.272755 1.55222 0
M  V30 20 C 2.7551 -1.02562 1.66555 0
M  V30 21 C 3.1351 -2.04282 0.532189 0
M  V30 22 O 2.4831 -2.23662 -0.467717 0
M  V30 23 C 2.6931 -1.6822 3.05782 0
M  V30 24 C 4.0411 -2.19373 3.63539 0
M  V30 25 O 5.0651 -1.78206 3.08417 0
M  V30 26 O 3.9241 -2.94883 4.60115 0
M  V30 27 H 1.0181 -0.475755 0.676451 0
M  V30 28 H 3.5641 -0.268593 1.67561 0
M  V30 29 H 2.3361 -0.945112 3.79715 0
M  V30 30 H 1.9591 -2.50609 3.08676 0
M  V30 31 N 2.9562 -1.48159 -0.537278 0
M  V30 32 C 3.8892 -1.567 -1.65893 0
M  V30 33 C 4.8672 -0.41787 -1.57139 0
M  V30 34 O 6.0512 -0.628461 -1.77715 0
M  V30 35 C 3.1782 -1.48818 -3.04255 0
M  V30 36 C 2.2242 -2.68482 -3.31391 0
M  V30 37 S 3.0572 -4.30516 -3.1846 0
M  V30 38 C 4.2132 -4.2522 -4.59281 0
M  V30 39 H 4.4462 -2.5159 -1.58397 0
M  V30 40 H 1.9792 -1.36602 -0.719672 0
M  V30 41 H 3.9372 -1.44958 -3.84054 0
M  V30 42 H 2.5982 -0.552777 -3.09198 0
M  V30 43 H 1.7912 -2.59085 -4.32309 0
M  V30 44 H 1.3932 -2.69567 -2.59248 0
M  V30 45 H 3.6852 -3.94703 -5.5065 0
M  V30 46 H 4.6282 -5.26292 -4.73732 0
M  V30 47 H 5.0362 -3.55791 -4.38261 0
M  V30 48 N 4.4343 0.785586 -1.36625 0
M  V30 49 C 5.6803 1.54591 -1.31261 0
M  V30 50 C 6.0133 1.93906 0.106823 0
M  V30 51 O 5.2883 1.63007 1.06108 0
M  V30 52 C 5.5713 2.82038 -2.23889 0
M  V30 53 C 5.4243 2.49066 -3.74548 0
M  V30 54 C 6.7433 3.83887 -2.15217 0
M  V30 55 H 3.8623 0.560846 -0.478143 0
M  V30 56 H 6.5043 0.902278 -1.67209 0
M  V30 57 H 4.6543 3.36961 -1.93363 0
M  V30 58 H 6.3263 2.00164 -4.15611 0
M  V30 59 H 4.5693 1.81954 -3.93796 0
M  V30 60 H 5.2403 3.40109 -4.34776 0
M  V30 61 H 7.7163 3.38421 -2.42096 0
M  V30 62 H 6.5923 4.70806 -2.82193 0
M  V30 63 H 6.8533 4.27131 -1.14068 0
M  V30 64 N 5.9124 1.20967 1.01018 0
M  V30 65 C 6.8424 0.988272 2.11555 0
M  V30 66 C 7.8234 -0.0849778 1.69888 0
M  V30 67 O 9.0084 0.0738202 1.9406 0
M  V30 68 C 6.1384 0.546528 3.42973 0
M  V30 69 C 5.0924 1.56375 3.9841 0
M  V30 70 C 4.4184 0.97842 5.25672 0
M  V30 71 C 5.7184 2.94922 4.31066 0
M  V30 72 H 7.4124 1.91276 2.30334 0
M  V30 73 H 4.9584 0.921073 1.1069 0
M  V30 74 H 6.9114 0.378839 4.19694 0
M  V30 75 H 5.6354 -0.413598 3.23971 0
M  V30 76 H 4.2944 1.71891 3.23804 0
M  V30 77 H 3.9424 0.0101688 5.02999 0
M  V30 78 H 3.6424 1.65784 5.63728 0
M  V30 79 H 5.1664 0.821939 6.05043 0
M  V30 80 H 6.5804 2.8288 4.9865 0
M  V30 81 H 4.9774 3.5983 4.80253 0
M  V30 82 H 6.0474 3.4616 3.39561 0
M  V30 83 N 7.3905 -1.2043 1.01659 0
M  V30 84 C 8.3535 -2.21433 0.591616 0
M  V30 85 C 9.3535 -1.57203 -0.338226 0
M  V30 86 O 10.5435 -1.73737 -0.126918 0
M  V30 87 C 7.6755 -3.40628 -0.136058 0
M  V30 88 H 8.8685 -2.60545 1.48514 0
M  V30 89 H 6.4215 -1.33893 0.806379 0
M  V30 90 H 7.1565 -3.07019 -1.04449 0
M  V30 91 H 6.9415 -3.88475 0.531917 0
M  V30 92 H 8.4315 -4.15475 -0.420735 0
M  V30 93 N 8.8686 -0.792821 -1.36206 0
M  V30 94 C 9.8156 -0.191653 -2.30003 0
M  V30 95 C 10.7856 0.666453 -1.52143 0
M  V30 96 O 11.9706 0.61442 -1.80636 0
M  V30 97 C 9.1106 0.664848 -3.38635 0
M  V30 98 C 8.2236 -0.212175 -4.31479 0
M  V30 99 C 7.3586 0.651022 -5.27196 0
M  V30 100 C 6.3976 -0.227247 -6.11678 0
M  V30 101 N 5.5346 0.595127 -6.99573 0
M  V30 102 H 10.3746 -0.996978 -2.80828 0
M  V30 103 H 7.9116 -0.503206 -1.38225 0
M  V30 104 H 9.8696 1.17645 -4.00269 0
M  V30 105 H 8.4996 1.43557 -2.89122 0
M  V30 106 H 7.5516 -0.841777 -3.70969 0
M  V30 107 H 8.8636 -0.888751 -4.90818 0
M  V30 108 H 8.0176 1.2283 -5.94136 0
M  V30 109 H 6.7566 1.36121 -4.68319 0
M  V30 110 H 5.7616 -0.816904 -5.43697 0
M  V30 111 H 6.9866 -0.93509 -6.72631 0
M  V30 112 H 4.9326 1.28955 -6.432 0
M  V30 113 H 4.8496 -0.0236952 -7.55996 0
M  V30 114 H 6.1176 1.15613 -7.70879 0
M  V30 115 N 10.3467 1.47872 -0.545128 0
M  V30 116 C 11.5747 2.06889 -0.021084 0
M  V30 117 C 11.9897 1.39955 1.2672 0
M  V30 118 O 11.3467 0.492036 1.75742 0
M  V30 119 C 11.3977 3.60996 0.190817 0
M  V30 120 O 11.1187 4.25419 -1.04644 0
M  V30 121 C 12.6197 4.36849 0.753521 0
M  V30 122 H 9.8397 0.669785 -0.0403635 0
M  V30 123 H 12.3837 1.90049 -0.755095 0
M  V30 124 H 10.5387 3.77391 0.87492 0
M  V30 125 H 10.9527 5.17785 -0.836611 0
M  V30 126 H 12.4267 5.45399 0.851139 0
M  V30 127 H 12.9037 4.02306 1.762 0
M  V30 128 H 13.5097 4.25169 0.105503 0
M  V30 129 N 11.8248 0.280983 1.55075 0
M  V30 130 C 13.0708 -0.33461 2.00021 0
M  V30 131 C 13.4038 -1.55063 1.16915 0
M  V30 132 O 12.6788 -1.93006 0.240646 0
M  V30 133 C 12.9618 -0.711007 3.53011 0
M  V30 134 C 12.8148 0.512766 4.46868 0
M  V30 135 C 14.1338 -1.54522 4.12081 0
M  V30 136 H 11.2528 -0.120147 0.727141 0
M  V30 137 H 13.8948 0.389097 1.85973 0
M  V30 138 H 12.0448 -1.32761 3.65112 0
M  V30 139 H 13.7168 1.15131 4.46702 0
M  V30 140 H 11.9598 1.14975 4.18286 0
M  V30 141 H 12.6308 0.205556 5.51617 0
M  V30 142 H 15.1068 -1.02442 4.03293 0
M  V30 143 H 13.9828 -1.77739 5.19327 0
M  V30 144 H 14.2438 -2.52813 3.62682 0
M  V30 145 N 13.3029 -1.57598 0.00835791 0
M  V30 146 C 14.5489 -1.91211 -0.675732 0
M  V30 147 C 14.8819 -0.883139 -1.72958 0
M  V30 148 O 14.1569 0.097016 -1.94258 0
M  V30 149 C 14.4399 -3.35379 -1.31123 0
M  V30 150 C 14.2929 -4.48999 -0.268356 0
M  V30 151 C 15.6119 -3.7912 -2.23508 0
M  V30 152 H 12.7309 -0.695374 -0.244179 0
M  V30 153 H 15.3729 -1.89901 0.0613655 0
M  V30 154 H 13.5229 -3.36626 -1.93946 0
M  V30 155 H 15.1949 -4.59887 0.360844 0
M  V30 156 H 13.4379 -4.31873 0.408482 0
M  V30 157 H 14.1089 -5.46851 -0.752218 0
M  V30 158 H 16.5849 -3.79477 -1.70693 0
M  V30 159 H 15.4609 -4.80729 -2.64936 0
M  V30 160 H 15.7219 -3.13455 -3.11766 0
M  V30 161 N 14.781 0.264519 -1.55364 0
M  V30 162 C 15.711 1.33121 -1.91836 0
M  V30 163 C 16.692 1.51101 -0.781192 0
M  V30 164 O 17.877 1.64003 -1.04003 0
M  V30 165 C 15.007 2.68921 -2.19769 0
M  V30 166 C 13.961 2.65661 -3.35571 0
M  V30 167 C 13.287 4.05093 -3.49004 0
M  V30 168 C 14.587 2.24187 -4.71739 0
M  V30 169 H 16.281 1.02844 -2.81182 0
M  V30 170 H 13.827 0.493286 -1.35287 0
M  V30 171 H 15.78 3.43663 -2.43872 0
M  V30 172 H 14.504 3.00799 -1.27231 0
M  V30 173 H 13.163 1.93377 -3.1145 0
M  V30 174 H 12.811 4.34206 -2.53917 0
M  V30 175 H 12.511 4.03804 -4.26868 0
M  V30 176 H 14.035 4.81561 -3.75408 0
M  V30 177 H 15.449 2.88654 -4.9533 0
M  V30 178 H 13.846 2.34044 -5.52579 0
M  V30 179 H 14.916 1.19327 -4.69988 0
M  V30 180 N 16.2591 1.48442 0.529413 0
M  V30 181 C 17.2221 1.62524 1.61612 0
M  V30 182 C 18.2221 0.498509 1.52877 0
M  V30 183 O 19.4121 0.76431 1.56537 0
M  V30 184 C 16.5441 1.59597 3.01233 0
M  V30 185 H 17.7371 2.59423 1.50465 0
M  V30 186 H 15.2901 1.37047 0.751514 0
M  V30 187 H 16.0251 0.641781 3.17886 0
M  V30 188 H 15.8101 2.41397 3.08982 0
M  V30 189 H 17.3001 1.72646 3.80241 0
M  V30 190 N 17.7372 -0.778329 1.37039 0
M  V30 191 C 18.7002 -1.87301 1.32102 0
M  V30 192 C 19.7002 -1.59198 0.226405 0
M  V30 193 O 20.8902 -1.67403 0.481861 0
M  V30 194 C 18.0222 -3.24309 1.05055 0
M  V30 195 H 19.2152 -1.93093 2.29467 0
M  V30 196 H 16.7682 -0.977358 1.21973 0
M  V30 197 H 17.5032 -3.24196 0.0819373 0
M  V30 198 H 17.2882 -3.46098 1.84279 0
M  V30 199 H 18.7782 -4.04382 1.04234 0
M  V30 200 N 19.2153 -1.21501 -1.00376 0
M  V30 201 C 20.4403 -1.05977 -1.78279 0
M  V30 202 C 20.8653 0.385994 -1.84097 0
M  V30 203 O 20.2233 1.27849 -1.28547 0
M  V30 204 C 20.2713 -1.66302 -3.19963 0
M  V30 205 O 19.3753 -0.909333 -4.0225 0
M  V30 206 H 18.7163 -0.372906 -0.549397 0
M  V30 207 H 21.2463 -1.6107 -1.26165 0
M  V30 208 H 21.2563 -1.70574 -3.70632 0
M  V30 209 H 19.9313 -2.71515 -3.15043 0
M  V30 210 H 18.5083 -0.941795 -3.60811 0
M  V30 211 N 20.6934 1.19889 -1.02296 0
M  V30 212 C 21.6564 2.21116 -0.603351 0
M  V30 213 C 22.6564 1.5738 0.329884 0
M  V30 214 O 23.8464 1.73802 0.117702 0
M  V30 215 C 20.9784 3.40696 0.117992 0
M  V30 216 H 22.1714 2.59754 -1.49893 0
M  V30 217 H 19.7244 1.33463 -0.813468 0
M  V30 218 H 20.4594 3.07569 1.0282 0
M  V30 219 H 20.2444 3.88188 -0.552511 0
M  V30 220 H 21.7344 4.15692 0.398696 0
M  V30 221 N 22.1715 0.800033 1.35784 0
M  V30 222 C 23.4175 0.377901 1.99248 0
M  V30 223 C 23.7505 -1.05052 1.63333 0
M  V30 224 O 23.0255 -1.72768 0.893385 0
M  V30 225 C 23.3085 0.553922 3.55814 0
M  V30 226 C 23.1615 2.0268 4.01548 0
M  V30 227 C 24.4805 -0.0244802 4.40093 0
M  V30 228 H 21.5995 0.138782 0.723815 0
M  V30 229 H 24.2415 1.00835 1.61035 0
M  V30 230 H 22.3915 0.0172398 3.88496 0
M  V30 231 H 24.0635 2.62536 3.79305 0
M  V30 232 H 22.3065 2.5256 3.52698 0
M  V30 233 H 22.9775 2.10087 5.10458 0
M  V30 234 H 25.4535 0.433775 4.13833 0
M  V30 235 H 24.3295 0.128637 5.48749 0
M  V30 236 H 24.5905 -1.11758 4.27741 0
M  V30 237 N 23.6496 -1.47581 0.552962 0
M  V30 238 C 24.8976 -2.02082 0.0272703 0
M  V30 239 C 25.2186 -1.4301 -1.32563 0
M  V30 240 O 24.4886 -0.603745 -1.86365 0
M  V30 241 H 23.0686 -0.746966 0.00709182 0
M  V30 242 H 25.7306 -1.81033 0.722008 0
M  V30 243 H 24.8266 -3.12034 -0.0639951 0
M  V30 244 N 25.1277 -0.289203 -1.54924 0
M  V30 245 C 26.0907 0.579144 -2.21762 0
M  V30 246 C 27.0907 1.07047 -1.1999 0
M  V30 247 O 28.2807 0.968384 -1.44803 0
M  V30 248 C 25.4127 1.80055 -2.8947 0
M  V30 249 H 26.6057 -0.00464908 -2.999 0
M  V30 250 H 24.1587 -0.0399306 -1.56249 0
M  V30 251 H 24.8937 2.42449 -2.15381 0
M  V30 252 H 24.6787 1.45602 -3.64064 0
M  V30 253 H 26.1687 2.41773 -3.40493 0
M  V30 254 N 26.6058 1.57591 -0.0167156 0
M  V30 255 C 27.8538 1.90906 0.663285 0
M  V30 256 C 28.1748 0.892509 1.73376 0
M  V30 257 O 27.4448 -0.0677623 1.95783 0
M  V30 258 H 26.0248 0.704637 0.247983 0
M  V30 259 H 28.6868 1.94803 -0.0615909 0
M  V30 260 H 27.7828 2.9116 1.12393 0
M  V30 261 N 28.0839 -0.256276 1.55502 0
M  V30 262 C 29.0469 -1.30047 1.88734 0
M  V30 263 C 30.0469 -1.4154 0.763086 0
M  V30 264 O 31.2369 -1.40403 1.03115 0
M  V30 265 C 28.3689 -2.67953 2.10747 0
M  V30 266 H 29.5619 -1.01802 2.82093 0
M  V30 267 H 27.1149 -0.495134 1.4825 0
M  V30 268 H 27.8499 -3.01351 1.19825 0
M  V30 269 H 27.6349 -2.60993 2.92617 0
M  V30 270 H 29.1249 -3.43368 2.37673 0
M  V30 271 N 29.562 -1.4872 -0.521534 0
M  V30 272 C 30.525 -1.63379 -1.60748 0
M  V30 273 C 31.525 -0.50661 -1.52611 0
M  V30 274 O 32.715 -0.772601 -1.5613 0
M  V30 275 C 29.847 -1.61192 -3.00383 0
M  V30 276 H 31.04 -2.60217 -1.49087 0
M  V30 277 H 28.593 -1.37444 -0.744235 0
M  V30 278 H 29.328 -0.65863 -3.17541 0
M  V30 279 H 29.113 -2.43032 -3.07698 0
M  V30 280 H 30.603 -1.7466 -3.7932 0
M  V30 281 N 31.0401 0.771051 -1.3745 0
M  V30 282 C 31.9731 1.89166 -1.27638 0
M  V30 283 C 32.9511 1.61842 -0.156782 0
M  V30 284 O 34.1351 1.85569 -0.331111 0
M  V30 285 C 31.2621 3.24405 -0.973621 0
M  V30 286 C 30.3081 3.70638 -2.1102 0
M  V30 287 S 31.1411 3.84228 -3.73 0
M  V30 288 C 32.2971 5.22313 -3.44876 0
M  V30 289 H 32.5301 1.972 -2.22485 0
M  V30 290 H 30.0631 0.932224 -1.23081 0
M  V30 291 H 32.0211 4.02514 -0.805766 0
M  V30 292 H 30.6821 3.14071 -0.0426279 0
M  V30 293 H 29.8751 4.68685 -1.85338 0
M  V30 294 H 29.4771 2.99632 -2.23822 0
M  V30 295 H 31.7691 6.07505 -2.99908 0
M  V30 296 H 32.7121 5.53008 -4.42253 0
M  V30 297 H 33.1201 4.90284 -2.79789 0
M  V30 298 N 32.5182 1.22032 0.997298 0
M  V30 299 C 33.7672 1.03637 1.73038 0
M  V30 300 C 34.0802 -0.429475 1.90827 0
M  V30 301 O 35.2862 -0.732995 2.61418 0
M  V30 302 C 33.7422 1.80582 3.11317 0
M  V30 303 C 33.3502 3.31387 3.01474 0
M  V30 304 C 35.0942 1.70621 3.88701 0
M  V30 305 C 33.0012 4.00791 4.3488 0
M  V30 306 H 31.9312 0.384179 0.648785 0
M  V30 307 H 34.5822 1.4584 1.11368 0
M  V30 308 H 32.9642 1.31175 3.73643 0
M  V30 309 H 34.1382 3.88155 2.4834 0
M  V30 310 H 32.4532 3.41976 2.37575 0
M  V30 311 H 35.0502 2.19799 4.87434 0
M  V30 312 H 35.3932 0.665823 4.10941 0
M  V30 313 H 35.9262 2.17547 3.33044 0
M  V30 314 H 32.6652 5.05064 4.1784 0
M  V30 315 H 32.1852 3.48811 4.87945 0
M  V30 316 H 33.8642 4.06139 5.03647 0
M  V30 317 N 33.9963 -1.19345 1.0293 0
M  V30 318 C 34.9593 -2.20793 0.615069 0
M  V30 319 C 35.9593 -1.57553 -0.321533 0
M  V30 320 O 37.1493 -1.73862 -0.108483 0
M  V30 321 C 34.2813 -3.40754 -0.0999222 0
M  V30 322 H 35.4743 -2.58955 1.51269 0
M  V30 323 H 33.0273 -1.3303 0.820534 0
M  V30 324 H 33.7623 -3.0811 -1.01187 0
M  V30 325 H 33.5473 -3.87889 0.57309 0
M  V30 326 H 35.0373 -4.15898 -0.376645 0
M  V30 327 N 35.4744 -0.807222 -1.35358 0
M  V30 328 C 36.7224 -0.387122 -1.98358 0
M  V30 329 C 37.0434 1.04942 -1.64354 0
M  V30 330 O 36.3134 1.72615 -0.926339 0
M  V30 331 H 34.8934 -0.140154 -0.733734 0
M  V30 332 H 37.5554 -1.0332 -1.6526 0
M  V30 333 H 36.6514 -0.493352 -3.08176 0
M  V30 334 N 36.9525 1.47285 -0.560781 0
M  V30 335 C 38.2015 2.01668 -0.035895 0
M  V30 336 C 38.5145 1.44021 1.32353 0
M  V30 337 O 39.7205 1.90088 1.93853 0
M  V30 338 C 38.1765 3.59897 -0.0136659 0
M  V30 339 C 37.7845 4.26536 -1.37006 0
M  V30 340 C 39.5285 4.22017 0.458425 0
M  V30 341 C 37.4355 5.76782 -1.30675 0
M  V30 342 H 36.3655 0.753938 -0.00964879 0
M  V30 343 H 39.0165 1.69243 -0.709166 0
M  V30 344 H 37.3985 3.89301 0.725325 0
M  V30 345 H 38.5725 4.0877 -2.12705 0
M  V30 346 H 36.8875 3.76419 -1.78038 0
M  V30 347 H 39.4845 5.32124 0.524247 0
M  V30 348 H 39.8275 3.89437 1.4712 0
M  V30 349 H 40.3605 3.97159 -0.225818 0
M  V30 350 H 37.0995 6.13988 -2.29564 0
M  V30 351 H 36.6195 5.96875 -0.591622 0
M  V30 352 H 38.2985 6.39063 -1.01033 0
M  V30 353 N 38.4306 0.297415 1.54768 0
M  V30 354 C 39.6786 -0.312295 1.99673 0
M  V30 355 C 39.9996 -1.54686 1.18732 0
M  V30 356 O 39.2696 -1.93854 0.282382 0
M  V30 357 H 37.8496 -0.118381 0.73756 0
M  V30 358 H 40.5116 0.407915 1.90583 0
M  V30 359 H 39.6076 -0.586813 3.06534 0
M  V30 360 N 39.9087 -1.5758 0.0250728 0
M  V30 361 C 41.3197 -1.79476 -0.514323 0
M  V30 362 C 41.6707 -0.934956 -1.72491 0
M  V30 363 O 40.7957 -0.144245 -2.15919 0
M  V30 364 C 41.3907 -3.25503 -0.939842 0
M  V30 365 C 39.9497 -3.48408 -1.42438 0
M  V30 366 C 39.0967 -2.74583 -0.387201 0
M  V30 367 H 42.0477 -1.567 0.25113 0
M  V30 368 H 42.0687 -3.34992 -1.80445 0
M  V30 369 H 41.5807 -3.88056 -0.0585628 0
M  V30 370 H 39.6817 -2.91103 -2.32572 0
M  V30 371 H 39.7947 -4.57119 -1.43455 0
M  V30 372 H 38.1587 -2.39942 -0.854409 0
M  V30 373 H 38.9417 -3.39849 0.485543 0
M  V30 374 N 41.3868 0.248026 -1.55636 0
M  V30 375 C 42.6348 0.974295 -1.77065 0
M  V30 376 C 42.9558 1.85897 -0.588849 0
M  V30 377 O 42.2258 1.91868 0.395407 0
M  V30 378 H 40.8058 0.362733 -0.653019 0
M  V30 379 H 43.4678 0.266244 -1.93073 0
M  V30 380 H 42.5638 1.59667 -2.68166 0
M  V30 381 N 42.8649 1.48995 0.513639 0
M  V30 382 C 44.1109 1.58076 1.27042 0
M  V30 383 C 44.4439 0.261026 1.92438 0
M  V30 384 O 43.7189 -0.734393 1.80103 0
M  V30 385 C 44.0019 2.73091 2.34719 0
M  V30 386 C 43.8549 4.14821 1.73907 0
M  V30 387 C 45.1739 2.83796 3.36375 0
M  V30 388 H 42.2929 0.575391 0.460536 0
M  V30 389 H 44.9349 1.81232 0.570516 0
M  V30 390 H 43.0849 2.53479 2.94416 0
M  V30 391 H 44.7569 4.45917 1.18135 0
M  V30 392 H 42.9999 4.21058 1.0437 0
M  V30 393 H 43.6709 4.91147 2.51949 0
M  V30 394 H 46.1469 3.01611 2.86653 0
M  V30 395 H 45.0229 3.65971 4.09093 0
M  V30 396 H 45.2839 1.92624 3.9793 0
M  V30 397 N 44.343 -0.763751 1.37857 0
M  V30 398 C 45.591 -1.51957 1.33243 0
M  V30 399 C 45.912 -1.94835 -0.0801709 0
M  V30 400 O 45.182 -1.66894 -1.02582 0
M  V30 401 H 43.762 -0.563626 0.49024 0
M  V30 402 H 46.424 -0.908504 1.7243 0
M  V30 403 H 45.52 -2.41523 1.97669 0
M  V30 404 N 45.8211 -1.22559 -0.990812 0
M  V30 405 C 46.7531 -0.955325 -2.08342 0
M  V30 406 C 47.7661 0.0668408 -1.62663 0
M  V30 407 O 48.9551 -0.167421 -1.77713 0
M  V30 408 C 46.0551 -0.415566 -3.36342 0
M  V30 409 C 45.2281 -1.49544 -4.11042 0
M  V30 410 C 44.2871 -0.962399 -5.17324 0
M  V30 411 O 43.3131 -1.64907 -5.44788 0
M  V30 412 N 44.5151 0.215134 -5.80101 0
M  V30 413 H 47.2801 -1.89596 -2.32106 0
M  V30 414 H 44.8411 -1.13276 -1.15673 0
M  V30 415 H 46.8331 -0.0442386 -4.04676 0
M  V30 416 H 45.4031 0.430232 -3.09625 0
M  V30 417 H 44.6231 -2.04 -3.37309 0
M  V30 418 H 45.9111 -2.22195 -4.57719 0
M  V30 419 H 45.3091 0.789779 -5.6016 0
M  V30 420 H 43.8661 0.527826 -6.49659 0
M  V30 421 N 47.2992 1.18797 -1.03562 0
M  V30 422 C 48.5472 1.88278 -0.734569 0
M  V30 423 C 48.8682 1.8043 0.739586 0
M  V30 424 O 48.1382 1.21925 1.53333 0
M  V30 425 H 46.7182 0.696991 -0.268725 0
M  V30 426 H 49.3802 1.44192 -1.31129 0
M  V30 427 H 48.4762 2.94443 -1.03489 0
M  V30 428 N 48.7773 0.814389 1.34928 0
M  V30 429 C 50.0073 0.41054 2.0248 0
M  V30 430 C 50.4153 -0.985625 1.61499 0
M  V30 431 O 49.7583 -1.64781 0.811976 0
M  V30 432 C 49.8203 0.423384 3.56998 0
M  V30 433 C 49.4843 1.77141 4.21272 0
M  V30 434 C 50.4813 2.73093 4.42398 0
M  V30 435 C 48.1663 2.05755 4.58225 0
M  V30 436 C 50.1603 3.95838 4.9959 0
M  V30 437 C 47.8473 3.28762 5.1513 0
M  V30 438 C 48.8453 4.23621 5.35755 0
M  V30 439 O 48.5333 5.44456 5.91458 0
M  V30 440 H 48.2653 0.163997 0.655806 0
M  V30 441 H 50.8193 1.10155 1.73364 0
M  V30 442 H 49.0493 -0.324276 3.85338 0
M  V30 443 H 50.7383 0.0407683 4.0588 0
M  V30 444 H 51.5043 2.5228 4.14222 0
M  V30 445 H 47.3833 1.32727 4.4148 0
M  V30 446 H 50.9273 4.69891 5.15605 0
M  V30 447 H 46.8243 3.49443 5.42734 0
M  V30 448 H 47.5923 5.4586 6.09901 0
M  V30 449 N 50.2554 -1.46986 0.568584 0
M  V30 450 C 51.2184 -2.28624 -0.162366 0
M  V30 451 C 52.2184 -1.37596 -0.832103 0
M  V30 452 O 53.4084 -1.60115 -0.68622 0
M  V30 453 C 50.5404 -3.17596 -1.23878 0
M  V30 454 H 51.7334 -2.94722 0.554899 0
M  V30 455 H 49.2864 -1.52863 0.325976 0
M  V30 456 H 50.0214 -2.56214 -1.98808 0
M  V30 457 H 49.8064 -3.846 -0.763219 0
M  V30 458 H 51.2964 -3.79078 -1.75185 0
M  V30 459 N 51.7335 -0.305618 -1.54608 0
M  V30 460 C 52.6965 0.555591 -2.22364 0
M  V30 461 C 53.6965 1.05768 -1.21119 0
M  V30 462 O 54.8865 0.952972 -1.45822 0
M  V30 463 C 52.0185 1.76974 -2.91364 0
M  V30 464 H 53.2115 -0.0364572 -2.99878 0
M  V30 465 H 50.7645 -0.0565007 -1.56198 0
M  V30 466 H 51.4995 2.40151 -2.17941 0
M  V30 467 H 51.2845 1.41732 -3.65588 0
M  V30 468 H 52.7745 2.38148 -3.43038 0
M  V30 469 N 53.2116 1.57565 -0.0334293 0
M  V30 470 C 54.4596 1.91598 0.642999 0
M  V30 471 C 54.7806 0.910847 1.7242 0
M  V30 472 O 54.0506 -0.0469931 1.95844 0
M  V30 473 H 52.6306 0.707228 0.240496 0
M  V30 474 H 55.2926 1.94726 -0.0822488 0
M  V30 475 H 54.3886 2.92336 1.09298 0
M  V30 476 N 54.6897 -0.239769 1.55765 0
M  V30 477 C 55.6367 -1.29696 1.90913 0
M  V30 478 C 56.6067 -1.47478 0.764164 0
M  V30 479 O 57.7917 -1.61345 1.01845 0
M  V30 480 C 54.9317 -2.64598 2.21544 0
M  V30 481 C 54.0447 -2.54765 3.48882 0
M  V30 482 C 53.1797 -3.82069 3.69049 0
M  V30 483 C 52.2187 -3.66883 4.89963 0
M  V30 484 N 51.3557 -4.86094 5.06614 0
M  V30 485 H 56.1957 -0.990224 2.81067 0
M  V30 486 H 53.7327 -0.477684 1.39128 0
M  V30 487 H 55.6907 -3.43132 2.3731 0
M  V30 488 H 54.3207 -2.93405 1.34585 0
M  V30 489 H 53.3727 -1.67763 3.41409 0
M  V30 490 H 54.6847 -2.39457 4.37563 0
M  V30 491 H 53.8387 -4.69046 3.84812 0
M  V30 492 H 52.5777 -4.00282 2.78614 0
M  V30 493 H 51.5827 -2.78289 4.74168 0
M  V30 494 H 52.8077 -3.50157 5.81865 0
M  V30 495 H 50.7537 -5.04655 4.19117 0
M  V30 496 H 50.6707 -4.73443 5.89396 0
M  V30 497 H 51.9387 -5.74549 5.26795 0
M  V30 498 N 56.1678 -1.49265 -0.50573 0
M  V30 499 C 57.1308 -1.65075 -1.59006 0
M  V30 500 C 58.1308 -0.522768 -1.52065 0
M  V30 501 O 59.3208 -0.789117 -1.55302 0
M  V30 502 C 56.4528 -1.64369 -2.98656 0
M  V30 503 H 57.6458 -2.61784 -1.46319 0
M  V30 504 H 55.1988 -1.38226 -0.729616 0
M  V30 505 H 55.9338 -0.692272 -3.16825 0
M  V30 506 H 55.7188 -2.46282 -3.05103 0
M  V30 507 H 57.2088 -1.78674 -3.77446 0
M  V30 508 N 57.6459 0.756429 -1.3826 0
M  V30 509 C 58.8919 1.51772 -1.34511 0
M  V30 510 C 59.2249 1.94089 0.0656691 0
M  V30 511 O 58.4999 1.65221 1.02626 0
M  V30 512 C 58.7829 2.77226 -2.29821 0
M  V30 513 C 58.6359 2.41065 -3.79747 0
M  V30 514 C 59.9549 3.79236 -2.23312 0
M  V30 515 H 57.0739 0.550578 -0.489931 0
M  V30 516 H 59.7159 0.866607 -1.69086 0
M  V30 517 H 57.8659 3.32784 -2.00467 0
M  V30 518 H 59.5379 1.91303 -4.19763 0
M  V30 519 H 57.7809 1.7356 -3.97567 0
M  V30 520 H 58.4519 3.3081 -4.41892 0
M  V30 521 H 60.9279 3.3321 -2.49219 0
M  V30 522 H 59.8039 4.64714 -2.92116 0
M  V30 523 H 60.0649 4.24615 -1.23102 0
M  V30 524 N 59.124 1.23083 0.984299 0
M  V30 525 C 60.034 1.02515 2.11016 0
M  V30 526 C 61.05 -0.0291702 1.73976 0
M  V30 527 O 62.226 0.165434 2.00719 0
M  V30 528 C 59.291 0.614673 3.41208 0
M  V30 529 C 58.352 1.74359 3.92297 0
M  V30 530 C 57.585 1.35261 5.16275 0
M  V30 531 O 57.808 0.235136 5.69915 0
M  V30 532 O 56.742 2.17227 5.61334 0
M  V30 533 H 60.568 1.96862 2.31255 0
M  V30 534 H 58.153 1.01753 1.09392 0
M  V30 535 H 60.035 0.396518 4.1953 0
M  V30 536 H 58.71 -0.299851 3.22308 0
M  V30 537 H 57.617 2.01635 3.1511 0
M  V30 538 H 58.95 2.63629 4.15645 0
M  V30 539 N 60.6021 -1.18246 1.0419 0
M  V30 540 C 61.8271 -1.92736 0.765996 0
M  V30 541 C 62.2521 -1.75728 -0.67091 0
M  V30 542 O 61.6101 -1.06825 -1.46486 0
M  V30 543 C 61.6581 -3.42148 1.13875 0
M  V30 544 O 60.7621 -4.11548 0.264954 0
M  V30 545 H 60.1031 -0.601238 0.281797 0
M  V30 546 H 62.6331 -1.49942 1.39207 0
M  V30 547 H 62.6431 -3.92858 1.1012 0
M  V30 548 H 61.3181 -3.53848 2.18551 0
M  V30 549 H 59.8951 -3.71137 0.362226 0
M  V30 550 N 62.0802 -0.821533 -1.34494 0
M  V30 551 C 63.3262 -0.409552 -1.98622 0
M  V30 552 C 63.6592 1.0244 -1.64984 0
M  V30 553 O 62.9342 1.71325 -0.920758 0
M  V30 554 C 63.2172 -0.610458 -3.54888 0
M  V30 555 C 63.0702 -2.09043 -3.98273 0
M  V30 556 C 64.3892 -0.0455379 -4.40076 0
M  V30 557 H 61.5082 -0.15028 -0.721516 0
M  V30 558 H 64.1502 -1.03384 -1.59411 0
M  V30 559 H 62.3002 -0.079044 -3.8842 0
M  V30 560 H 63.9722 -2.68537 -3.75081 0
M  V30 561 H 62.2152 -2.58139 -3.48635 0
M  V30 562 H 62.8862 -2.18182 -5.07051 0
M  V30 563 H 65.3622 -0.499557 -4.1309 0
M  V30 564 H 64.2382 -0.215922 -5.48475 0
M  V30 565 H 64.4992 1.04939 -4.29465 0
M  V30 566 N 63.5583 1.46682 -0.576371 0
M  V30 567 C 64.5213 2.28707 0.150239 0
M  V30 568 C 65.5213 1.38035 0.824794 0
M  V30 569 O 66.7113 1.60476 0.677719 0
M  V30 570 C 63.8433 3.18248 1.22192 0
M  V30 571 H 65.0363 2.94423 -0.570521 0
M  V30 572 H 62.5893 1.52688 -0.334078 0
M  V30 573 H 63.3243 2.57265 1.97447 0
M  V30 574 H 63.1093 3.85 0.742812 0
M  V30 575 H 64.5993 3.80001 1.73172 0
M  V30 576 N 65.0364 0.313813 1.54444 0
M  V30 577 C 66.4524 -0.0391619 1.59552 0
M  V30 578 C 66.6524 -1.51322 1.33056 0
M  V30 579 O 65.7084 -2.26782 1.11022 0
M  V30 580 C 67.0214 0.370302 2.98411 0
M  V30 581 C 68.5694 0.320139 3.11358 0
M  V30 582 C 69.0444 0.704617 4.52547 0
M  V30 583 N 70.5354 0.657645 4.58508 0
M  V30 584 C 71.2704 0.927453 5.6585 0
M  V30 585 N 70.7664 1.26389 6.81174 0
M  V30 586 N 72.5594 0.853662 5.5558 0
M  V30 587 H 64.7104 1.27433 1.69925 0
M  V30 588 H 66.9734 0.517511 0.794284 0
M  V30 589 H 66.6794 1.39694 3.22767 0
M  V30 590 H 66.5534 -0.269619 3.76235 0
M  V30 591 H 68.9404 -0.697275 2.86744 0
M  V30 592 H 69.0214 0.99486 2.35661 0
M  V30 593 H 68.6654 1.7199 4.77893 0
M  V30 594 H 68.5954 0.00768843 5.26599 0
M  V30 595 H 71.0864 0.409067 3.75679 0
M  V30 596 H 71.3994 1.4554 7.58972 0
M  V30 597 H 69.7444 1.30206 6.82694 0
M  V30 598 H 72.9354 0.590383 4.64362 0
M  V30 599 H 73.1084 1.0673 6.3915 0
M  V30 600 N 66.5145 -1.57545 0.0417849 0
M  V30 601 C 67.4465 -2.07904 -0.964799 0
M  V30 602 C 68.4595 -1.00497 -1.28079 0
M  V30 603 O 69.6485 -1.28087 -1.24322 0
M  V30 604 C 66.7485 -2.49928 -2.28887 0
M  V30 605 C 65.9215 -3.80562 -2.15619 0
M  V30 606 C 64.9805 -4.08999 -3.31069 0
M  V30 607 O 64.0065 -4.79061 -3.0739 0
M  V30 608 N 65.2085 -3.6017 -4.55256 0
M  V30 609 H 67.9735 -2.94886 -0.535029 0
M  V30 610 H 65.5345 -1.61252 -0.144681 0
M  V30 611 H 67.5265 -2.66034 -3.04972 0
M  V30 612 H 66.0965 -1.68245 -2.63463 0
M  V30 613 H 65.3165 -3.74129 -1.24183 0
M  V30 614 H 66.6045 -4.66126 -2.03971 0
M  V30 615 H 66.0025 -3.03512 -4.77386 0
M  V30 616 H 64.5595 -3.81532 -5.28466 0
M  V30 617 N 67.9926 0.231505 -1.5589 0
M  V30 618 C 69.4036 0.799327 -1.68724 0
M  V30 619 C 69.7546 1.85398 -0.642022 0
M  V30 620 O 68.8796 2.1539 0.208784 0
M  V30 621 C 69.4746 1.45664 -3.05888 0
M  V30 622 C 68.0336 1.97197 -3.20609 0
M  V30 623 C 67.1806 0.828552 -2.64632 0
M  V30 624 H 70.1316 0.00702616 -1.58698 0
M  V30 625 H 70.1526 2.32517 -3.01191 0
M  V30 626 H 69.6646 0.688808 -3.81939 0
M  V30 627 H 67.7656 2.76813 -2.4941 0
M  V30 628 H 67.8786 2.15878 -4.27707 0
M  V30 629 H 66.2426 1.23321 -2.22854 0
M  V30 630 H 67.0256 0.0735544 -3.43221 0
M  V30 631 N 69.4707 1.49531 0.497807 0
M  V30 632 C 70.3807 1.69176 1.62532 0
M  V30 633 C 71.3967 0.5744 1.64246 0
M  V30 634 O 72.5727 0.849497 1.82608 0
M  V30 635 C 69.6377 1.75695 2.98885 0
M  V30 636 C 68.6987 2.9929 3.07773 0
M  V30 637 C 67.9317 3.05488 4.37622 0
M  V30 638 O 68.1547 2.19192 5.26603 0
M  V30 639 O 67.0887 3.9798 4.51548 0
M  V30 640 H 70.9147 2.647 1.48887 0
M  V30 641 H 68.4997 1.3331 0.674441 0
M  V30 642 H 70.3817 1.82317 3.79919 0
M  V30 643 H 69.0567 0.8335 3.12785 0
M  V30 644 H 67.9637 2.98183 2.25915 0
M  V30 645 H 69.2967 3.91125 2.98801 0
M  V30 646 N 70.9488 -0.749086 1.3866 0
M  V30 647 C 71.9118 -1.84457 1.36045 0
M  V30 648 C 72.9118 -1.58682 0.260122 0
M  V30 649 O 74.1018 -1.66343 0.517261 0
M  V30 650 C 71.2338 -3.22008 1.11911 0
M  V30 651 H 72.4268 -1.88182 2.33512 0
M  V30 652 H 69.9798 -0.951266 1.24019 0
M  V30 653 H 70.7148 -3.2395 0.150686 0
M  V30 654 H 70.4998 -3.42111 1.91579 0
M  V30 655 H 71.9898 -4.0208 1.12788 0
M  V30 656 N 72.4269 -1.23603 -0.977757 0
M  V30 657 C 73.3739 -1.01954 -2.07061 0
M  V30 658 C 74.3439 0.0638697 -1.65977 0
M  V30 659 O 75.5289 -0.0887624 -1.90593 0
M  V30 660 C 72.6689 -0.619658 -3.39491 0
M  V30 661 C 71.7819 -1.77547 -3.93829 0
M  V30 662 C 70.9169 -1.32212 -5.14484 0
M  V30 663 C 69.9559 -2.44852 -5.60994 0
M  V30 664 N 69.0929 -2.00456 -6.72876 0
M  V30 665 H 73.9329 -1.95495 -2.24913 0
M  V30 666 H 71.4699 -0.973861 -1.10247 0
M  V30 667 H 73.4279 -0.368898 -4.15566 0
M  V30 668 H 72.0579 0.278752 -3.21594 0
M  V30 669 H 71.1099 -2.14016 -3.14486 0
M  V30 670 H 72.4219 -2.62219 -4.24314 0
M  V30 671 H 71.5759 -1.02965 -5.97899 0
M  V30 672 H 70.3149 -0.445808 -4.85658 0
M  V30 673 H 69.3199 -2.74871 -4.76157 0
M  V30 674 H 70.5449 -3.33024 -5.91837 0
M  V30 675 H 68.4909 -1.15208 -6.45804 0
M  V30 676 H 68.4079 -2.78687 -7.02759 0
M  V30 677 H 69.6759 -1.7432 -7.59758 0
M  V30 678 N 73.905 1.17692 -1.04816 0
M  V30 679 C 75.153 1.87488 -0.754497 0
M  V30 680 C 75.474 1.81205 0.720407 0
M  V30 681 O 74.744 1.23544 1.52032 0
M  V30 682 H 73.324 0.694101 -0.276102 0
M  V30 683 H 75.986 1.42793 -1.32651 0
M  V30 684 H 75.082 2.93328 -1.06606 0
M  V30 685 N 75.3831 0.828654 1.34056 0
M  V30 686 C 76.6601 0.341809 1.9259 0
M  V30 687 C 77.0401 -1.17158 1.75605 0
M  V30 688 O 76.3881 -1.98132 1.13824 0
M  V30 689 C 76.5981 0.777453 3.4023 0
M  V30 690 C 77.9461 0.779579 4.17382 0
M  V30 691 O 78.9701 0.7204 3.48839 0
M  V30 692 O 77.8291 0.857996 5.39723 0
M  V30 693 H 74.9231 0.0946085 0.821571 0
M  V30 694 H 77.4691 0.913827 1.42994 0
M  V30 695 H 76.2411 1.8196 3.46419 0
M  V30 696 H 75.8641 0.181444 3.97186 0
M  V30 697 N 76.8612 -1.46375 0.584142 0
M  V30 698 C 78.1102 -2.01585 0.0679741 0
M  V30 699 C 78.4232 -1.46109 -1.30045 0
M  V30 700 O 79.6292 -1.93148 -1.90804 0
M  V30 701 C 78.0852 -3.5983 0.0709207 0
M  V30 702 C 77.6932 -4.24303 1.43775 0
M  V30 703 C 79.4372 -4.22693 -0.391228 0
M  V30 704 C 77.3442 -5.74631 1.39834 0
M  V30 705 H 76.2742 -0.753689 0.0216421 0
M  V30 706 H 78.9252 -1.68093 0.736001 0
M  V30 707 H 77.3072 -3.90405 -0.663299 0
M  V30 708 H 78.4812 -4.05335 2.19181 0
M  V30 709 H 76.7962 -3.73539 1.84004 0
M  V30 710 H 79.3932 -5.3289 -0.439524 0
M  V30 711 H 79.7362 -3.91728 -1.40906 0
M  V30 712 H 80.2692 -3.96749 0.288974 0
M  V30 713 H 77.0082 -6.10258 2.39303 0
M  V30 714 H 76.5282 -5.95858 0.686505 0
M  V30 715 H 78.2072 -6.37375 1.11187 0
M  V30 716 N 78.3393 -0.321999 -1.54275 0
M  V30 717 C 79.5883 0.281931 -1.9972 0
M  V30 718 C 79.9013 1.53369 -1.21397 0
M  V30 719 O 81.1073 2.21352 -1.57211 0
M  V30 720 C 79.5633 0.5529 -3.55628 0
M  V30 721 C 79.1713 -0.681721 -4.42783 0
M  V30 722 C 80.9153 1.11687 -4.09544 0
M  V30 723 C 78.8223 -0.382742 -5.9016 0
M  V30 724 H 77.7523 0.109124 -0.746062 0
M  V30 725 H 80.4033 -0.43398 -1.78294 0
M  V30 726 H 78.7853 1.32896 -3.73035 0
M  V30 727 H 79.9593 -1.45723 -4.37151 0
M  V30 728 H 78.2743 -1.1658 -3.99748 0
M  V30 729 H 80.8713 1.35515 -5.17242 0
M  V30 730 H 81.2143 2.06575 -3.61431 0
M  V30 731 H 81.7473 0.402032 -3.95763 0
M  V30 732 H 78.4863 -1.30076 -6.42464 0
M  V30 733 H 78.0063 0.355094 -5.98748 0
M  V30 734 H 79.6853 0.00800157 -6.47 0
M  V30 735 N 79.8174 1.5752 -0.0501392 0
M  V30 736 C 81.0424 1.97376 0.636997 0
M  V30 737 C 81.4674 0.927466 1.63645 0
M  V30 738 O 80.8254 -0.10941 1.8097 0
M  V30 739 C 80.8734 3.36304 1.30123 0
M  V30 740 O 79.9774 3.34156 2.41689 0
M  V30 741 H 79.3184 0.642998 0.165679 0
M  V30 742 H 81.8484 2.04258 -0.118233 0
M  V30 743 H 81.8584 3.73008 1.65315 0
M  V30 744 H 80.5334 4.11993 0.568746 0
M  V30 745 H 79.1104 3.09196 2.08451 0
M  V30 746 N 81.2955 -0.223234 1.56011 0
M  V30 747 C 82.5235 -0.964812 1.83027 0
M  V30 748 C 82.9385 -1.78013 0.62904 0
M  V30 749 O 82.2955 -1.78008 -0.402414 0
M  V30 750 C 82.3465 -1.88373 3.08542 0
M  V30 751 O 82.0675 -1.10137 4.2403 0
M  V30 752 C 83.5685 -2.73934 3.48533 0
M  V30 753 H 80.7885 -0.282842 0.608475 0
M  V30 754 H 83.3325 -0.238971 2.03099 0
M  V30 755 H 81.4875 -2.56354 2.9045 0
M  V30 756 H 81.9015 -1.72501 4.95322 0
M  V30 757 H 83.3755 -3.34117 4.39397 0
M  V30 758 H 83.8525 -3.46244 2.70207 0
M  V30 759 H 84.4585 -2.11369 3.69057 0
M  V30 760 N 82.7736 -1.49793 -0.48987 0
M  V30 761 C 83.7066 -1.61898 -1.60823 0
M  V30 762 C 84.6846 -0.467651 -1.5573 0
M  V30 763 O 85.8686 -0.684682 -1.75626 0
M  V30 764 C 82.9956 -1.58422 -2.99366 0
M  V30 765 C 82.0416 -2.78889 -3.22682 0
M  V30 766 S 82.8746 -4.40429 -3.04602 0
M  V30 767 C 84.0306 -4.39617 -4.4552 0
M  V30 768 H 84.2636 -2.56502 -1.50312 0
M  V30 769 H 81.7966 -1.38822 -0.675849 0
M  V30 770 H 83.7546 -1.57103 -3.79248 0
M  V30 771 H 82.4156 -0.650866 -3.07283 0
M  V30 772 H 81.6086 -2.72708 -4.23847 0
M  V30 773 H 81.2106 -2.77678 -2.50541 0
M  V30 774 H 83.5026 -4.12022 -5.37814 0
M  V30 775 H 84.4456 -5.41097 -4.56749 0
M  V30 776 H 84.8536 -3.69554 -4.2672 0
M  V30 777 N 84.2517 0.741722 -1.39055 0
M  V30 778 C 85.4977 1.50336 -1.36113 0
M  V30 779 C 85.8307 1.94148 0.0450796 0
M  V30 780 O 85.1057 1.66301 1.00868 0
M  V30 781 C 85.3887 2.74773 -2.32749 0
M  V30 782 C 85.2417 2.37023 -3.82283 0
M  V30 783 C 86.5607 3.76846 -2.27322 0
M  V30 784 H 83.6797 0.545351 -0.495743 0
M  V30 785 H 86.3217 0.848624 -1.69995 0
M  V30 786 H 84.4717 3.30639 -2.03986 0
M  V30 787 H 86.1437 1.8684 -4.21768 0
M  V30 788 H 84.3867 1.69334 -3.99385 0
M  V30 789 H 85.0577 3.26104 -4.45376 0
M  V30 790 H 87.5337 3.30548 -2.5274 0
M  V30 791 H 86.4097 4.6159 -2.97028 0
M  V30 792 H 86.6707 4.23286 -1.27599 0
M  V30 793 N 85.7298 1.2412 0.971189 0
M  V30 794 C 86.6598 1.05508 2.08304 0
M  V30 795 C 87.6408 -0.0308864 1.70072 0
M  V30 796 O 88.8258 0.135521 1.93727 0
M  V30 797 C 85.9558 0.655365 3.4106 0
M  V30 798 C 84.9098 1.68971 3.93234 0
M  V30 799 C 84.2358 1.14516 5.22293 0
M  V30 800 C 85.5358 3.08487 4.21465 0
M  V30 801 H 87.2298 1.98507 2.24132 0
M  V30 802 H 84.7758 0.955821 1.07704 0
M  V30 803 H 86.7288 0.51217 4.18276 0
M  V30 804 H 85.4528 -0.31032 3.25122 0
M  V30 805 H 84.1118 1.82106 3.18171 0
M  V30 806 H 83.7598 0.170189 5.02712 0
M  V30 807 H 83.4598 1.83635 5.58168 0
M  V30 808 H 84.9838 1.01401 6.02121 0
M  V30 809 H 86.3978 2.98601 4.89398 0
M  V30 810 H 84.7948 3.74926 4.68562 0
M  V30 811 H 85.8648 3.56787 3.28376 0
M  V30 812 N 87.2079 -1.17134 1.05439 0
M  V30 813 C 88.4559 -1.87085 0.764429 0
M  V30 814 C 88.7769 -1.81584 -0.710787 0
M  V30 815 O 88.0469 -1.24349 -1.51374 0
M  V30 816 H 86.6269 -0.692627 0.279779 0
M  V30 817 H 89.2889 -1.42087 1.33406 0
M  V30 818 H 88.3849 -2.92759 1.0816 0
M  V30 819 N 88.686 -0.835752 -1.33615 0
M  V30 820 C 89.618 -0.224151 -2.28101 0
M  V30 821 C 90.631 0.593331 -1.51603 0
M  V30 822 O 91.82 0.420911 -1.73466 0
M  V30 823 C 88.92 0.703309 -3.31522 0
M  V30 824 C 88.093 -0.0741528 -4.37337 0
M  V30 825 C 87.152 0.776176 -5.20444 0
M  V30 826 O 86.178 0.216506 -5.68788 0
M  V30 827 N 87.38 2.09401 -5.41416 0
M  V30 828 H 90.145 -1.03598 -2.81225 0
M  V30 829 H 87.706 -0.69392 -1.46275 0
M  V30 830 H 89.698 1.27707 -3.84022 0
M  V30 831 H 88.268 1.41585 -2.78698 0
M  V30 832 H 87.488 -0.82928 -3.85378 0
M  V30 833 H 88.776 -0.608863 -5.05144 0
M  V30 834 H 88.174 2.57229 -5.03835 0
M  V30 835 H 86.731 2.61633 -5.96985 0
M  V30 836 N 90.1641 1.46063 -0.591896 0
M  V30 837 C 91.1271 2.28854 0.125973 0
M  V30 838 C 92.1271 1.38903 0.810107 0
M  V30 839 O 93.3171 1.61186 0.66066 0
M  V30 840 C 90.4491 3.19526 1.1881 0
M  V30 841 H 91.6421 2.93802 -0.601717 0
M  V30 842 H 89.1951 1.52325 -0.350254 0
M  V30 843 H 89.9301 2.59345 1.94707 0
M  V30 844 H 89.7151 3.85766 0.701936 0
M  V30 845 H 91.2051 3.81817 1.69132 0
M  V30 846 N 91.6422 0.330177 1.54103 0
M  V30 847 C 92.8912 -0.271336 1.99867 0
M  V30 848 C 93.2042 -1.52723 1.22209 0
M  V30 849 O 94.4102 -2.20515 1.58383 0
M  V30 850 C 92.8662 -0.534032 3.55916 0
M  V30 851 C 92.4742 0.705193 4.42415 0
M  V30 852 C 94.2182 -1.09514 4.1013 0
M  V30 853 C 92.1252 0.414035 5.89949 0
M  V30 854 H 91.0552 -0.105166 0.74663 0
M  V30 855 H 93.7062 0.443429 1.78062 0
M  V30 856 H 92.0882 -1.30915 3.73734 0
M  V30 857 H 93.2622 1.4804 4.36372 0
M  V30 858 H 91.5772 1.18698 3.99124 0
M  V30 859 H 94.1742 -1.3277 5.17954 0
M  V30 860 H 94.5172 -2.04656 3.62521 0
M  V30 861 H 95.0502 -0.381038 3.95971 0
M  V30 862 H 91.7892 1.33481 6.41766 0
M  V30 863 H 91.3092 -0.323336 5.98928 0
M  V30 864 H 92.9882 0.0263105 6.46995 0
M  V30 865 N 93.1203 -1.57491 0.0584922 0
M  V30 866 C 94.0833 -2.1085 -0.898617 0
M  V30 867 C 95.0833 -1.02964 -1.23511 0
M  V30 868 O 96.2733 -1.29007 -1.17059 0
M  V30 869 C 93.4053 -2.59881 -2.20623 0
M  V30 870 H 94.5983 -2.96715 -0.435936 0
M  V30 871 H 92.1513 -1.55141 -0.190023 0
M  V30 872 H 92.8863 -1.77431 -2.71457 0
M  V30 873 H 92.6713 -3.38727 -1.97501 0
M  V30 874 H 94.1613 -3.01285 -2.89166 0
M  V30 875 N 94.5984 0.214957 -1.56127 0
M  V30 876 C 95.5084 1.28727 -1.96129 0
M  V30 877 C 96.5244 1.50916 -0.866044 0
M  V30 878 O 97.7004 1.63918 -1.17016 0
M  V30 879 C 94.7654 2.61569 -2.27558 0
M  V30 880 C 93.8264 2.47625 -3.50685 0
M  V30 881 C 93.0594 3.74132 -3.80606 0
M  V30 882 O 93.2824 4.77438 -3.12104 0
M  V30 883 O 92.2164 3.70849 -4.74083 0
M  V30 884 H 96.0424 0.977855 -2.87527 0
M  V30 885 H 93.6274 0.418358 -1.43423 0
M  V30 886 H 95.5094 3.40012 -2.48938 0
M  V30 887 H 94.1844 2.92178 -1.39332 0
M  V30 888 H 93.0914 1.67361 -3.34576 0
M  V30 889 H 94.4244 2.21954 -4.39315 0
M  V30 890 N 96.0765 1.50051 0.48192 0
M  V30 891 C 97.3015 1.64508 1.26301 0
M  V30 892 C 97.7265 0.323851 1.85291 0
M  V30 893 O 97.0845 -0.710969 1.66778 0
M  V30 894 C 97.1325 2.7305 2.35533 0
M  V30 895 O 96.2365 2.3355 3.39895 0
M  V30 896 H 95.5775 0.549978 0.372048 0
M  V30 897 H 98.1075 1.9636 0.574786 0
M  V30 898 H 98.1175 2.95799 2.8101 0
M  V30 899 H 96.7925 3.68946 1.91967 0
M  V30 900 H 95.3695 2.21205 3.00204 0
M  V30 901 N 97.5546 -0.734337 1.39446 0
M  V30 902 C 98.7826 -1.52358 1.39981 0
M  V30 903 C 99.1976 -1.88799 -0.0054975 0
M  V30 904 O 98.5546 -1.54146 -0.976998 0
M  V30 905 C 98.6056 -2.81072 2.27333 0
M  V30 906 O 98.3266 -2.46178 3.62392 0
M  V30 907 C 99.8276 -3.75096 2.36259 0
M  V30 908 H 97.0476 -0.470806 0.478103 0
M  V30 909 H 99.5916 -0.907339 1.83269 0
M  V30 910 H 97.7466 -3.39026 1.87457 0
M  V30 911 H 98.1606 -3.28866 4.08592 0
M  V30 912 H 99.6346 -4.62305 3.01626 0
M  V30 913 H 100.112 -4.16892 1.38194 0
M  V30 914 H 100.718 -3.23061 2.76608 0
M  V30 915 N 99.0327 -1.24633 -0.964593 0
M  V30 916 C 100.281 -1.08573 -1.70459 0
M  V30 917 C 100.602 0.375655 -1.91347 0
M  V30 918 O 99.8717 1.26779 -1.49345 0
M  V30 919 H 98.4517 -0.398784 -0.631649 0
M  V30 920 H 101.114 -1.56601 -1.16026 0
M  V30 921 H 100.21 -1.58623 -2.68785 0
M  V30 922 N 100.511 1.16574 -1.06058 0
M  V30 923 C 101.76 1.86385 -0.770944 0
M  V30 924 C 102.073 1.82448 0.705129 0
M  V30 925 O 103.279 2.47815 1.10905 0
M  V30 926 C 101.735 3.34466 -1.32893 0
M  V30 927 C 101.343 3.46883 -2.83507 0
M  V30 928 C 103.087 4.09548 -1.11672 0
M  V30 929 C 100.994 4.89036 -3.32562 0
M  V30 930 H 99.9238 0.698181 -0.284709 0
M  V30 931 H 102.575 1.31583 -1.27899 0
M  V30 932 H 100.957 3.88859 -0.748662 0
M  V30 933 H 102.131 3.02663 -3.47465 0
M  V30 934 H 100.446 2.85232 -3.03368 0
M  V30 935 H 103.043 5.14434 -1.45814 0
M  V30 936 H 103.386 4.16264 -0.0549535 0
M  V30 937 H 103.919 3.61387 -1.66265 0
M  V30 938 H 100.658 4.87499 -4.38207 0
M  V30 939 H 100.178 5.3389 -2.73351 0
M  V30 940 H 101.857 5.57843 -3.2775 0
M  V30 941 N 101.989 0.842826 1.3317 0
M  V30 942 C 103.219 0.453397 2.01564 0
M  V30 943 C 103.627 -0.951147 1.63554 0
M  V30 944 O 102.97 -1.63021 0.846746 0
M  V30 945 C 103.032 0.499013 3.5602 0
M  V30 946 C 102.696 1.86037 4.1742 0
M  V30 947 C 103.693 2.82416 4.36506 0
M  V30 948 C 101.378 2.15428 4.53757 0
M  V30 949 C 103.372 4.06346 4.91082 0
M  V30 950 C 101.059 3.39615 5.0804 0
M  V30 951 C 102.057 4.3489 5.26649 0
M  V30 952 O 101.745 5.5688 5.79776 0
M  V30 953 H 101.477 0.177871 0.652179 0
M  V30 954 H 104.031 1.13808 1.70988 0
M  V30 955 H 102.261 -0.242467 3.85939 0
M  V30 956 H 103.95 0.126852 4.05702 0
M  V30 957 H 104.716 2.6101 4.08777 0
M  V30 958 H 100.595 1.42061 4.38565 0
M  V30 959 H 104.139 4.80722 5.05522 0
M  V30 960 H 100.036 3.60876 5.352 0
M  V30 961 H 100.804 5.58674 5.98185 0
M  V30 962 N 103.467 -1.45747 0.599634 0
M  V30 963 C 104.692 -2.07178 0.0960198 0
M  V30 964 C 105.117 -1.44268 -1.207 0
M  V30 965 O 104.475 -0.532503 -1.73303 0
M  V30 966 C 104.523 -3.60579 -0.0385348 0
M  V30 967 O 103.627 -3.97713 -1.0908 0
M  V30 968 H 102.968 -0.660251 0.0704593 0
M  V30 969 H 105.498 -1.87124 0.827385 0
M  V30 970 H 105.508 -4.07298 -0.239304 0
M  V30 971 H 104.183 -4.05756 0.912947 0
M  V30 972 H 102.76 -3.62678 -0.867135 0
M  V30 973 N 104.945 -0.338344 -1.53925 0
M  V30 974 C 105.875 0.51328 -2.27789 0
M  V30 975 C 106.856 1.107 -1.29149 0
M  V30 976 O 108.041 1.12937 -1.57984 0
M  V30 977 C 105.171 1.66697 -3.04679 0
M  V30 978 C 104.125 1.20183 -4.1078 0
M  V30 979 C 103.451 2.44363 -4.75595 0
M  V30 980 C 104.751 0.30605 -5.21403 0
M  V30 981 H 106.445 -0.102883 -2.99223 0
M  V30 982 H 103.991 -0.0509219 -1.4391 0
M  V30 983 H 105.944 2.26915 -3.55088 0
M  V30 984 H 104.668 2.30995 -2.30887 0
M  V30 985 H 103.327 0.622499 -3.61276 0
M  V30 986 H 102.975 3.07057 -3.98403 0
M  V30 987 H 102.675 2.13925 -5.47275 0
M  V30 988 H 104.199 3.05317 -5.28786 0
M  V30 989 H 105.613 0.814929 -5.67478 0
M  V30 990 H 104.01 0.0937929 -6.00027 0
M  V30 991 H 105.08 -0.65921 -4.80398 0
M  V30 992 N 106.423 1.57458 -0.0668435 0
M  V30 993 C 107.669 1.93587 0.6043 0
M  V30 994 C 108.002 0.946722 1.69561 0
M  V30 995 O 107.277 -0.0248516 1.94484 0
M  V30 996 C 107.56 3.40014 1.18585 0
M  V30 997 C 107.413 4.49685 0.101529 0
M  V30 998 C 108.732 3.87154 2.09284 0
M  V30 999 H 105.851 0.703958 0.218202 0
M  V30 1000 H 108.493 1.89542 -0.131804 0
M  V30 1001 H 106.643 3.43592 1.81319 0
M  V30 1002 H 108.315 4.5823 -0.531279 0
M  V30 1003 H 106.558 4.30059 -0.568487 0
M  V30 1004 H 107.229 5.49266 0.54874 0
M  V30 1005 H 109.705 3.85551 1.56491 0
M  V30 1006 H 108.581 4.90231 2.46911 0
M  V30 1007 H 108.842 3.2481 2.99918 0
M  V30 1008 N 107.901 -0.206675 1.56239 0
M  V30 1009 C 109.15 -0.926964 1.79138 0
M  V30 1010 C 109.463 -1.84901 0.638043 0
M  V30 1011 O 110.669 -2.60906 0.751033 0
M  V30 1012 C 109.125 -1.6986 3.17294 0
M  V30 1013 C 108.733 -0.821956 4.40395 0
M  V30 1014 C 110.477 -2.40922 3.4951 0
M  V30 1015 C 108.384 -1.59179 5.69575 0
M  V30 1016 H 107.314 -0.349864 0.667915 0
M  V30 1017 H 109.965 -0.180487 1.8261 0
M  V30 1018 H 108.347 -2.48853 3.08039 0
M  V30 1019 H 109.521 -0.0715019 4.60745 0
M  V30 1020 H 107.836 -0.222741 4.15804 0
M  V30 1021 H 110.433 -2.99047 4.43255 0
M  V30 1022 H 110.776 -3.14542 2.72707 0
M  V30 1023 H 111.309 -1.68905 3.60161 0
M  V30 1024 H 108.048 -0.898589 6.49312 0
M  V30 1025 H 107.568 -2.31648 5.53262 0
M  V30 1026 H 109.247 -2.14862 6.10281 0
M  V30 1027 N 109.379 -1.50304 -0.473955 0
M  V30 1028 C 110.342 -1.6841 -1.55469 0
M  V30 1029 C 111.342 -0.554905 -1.50922 0
M  V30 1030 O 112.532 -0.821882 -1.53593 0
M  V30 1031 C 109.664 -1.70667 -2.95102 0
M  V30 1032 H 110.857 -2.64828 -1.40733 0
M  V30 1033 H 108.41 -1.39742 -0.700132 0
M  V30 1034 H 109.145 -0.75932 -3.15285 0
M  V30 1035 H 108.93 -2.52698 -2.9981 0
M  V30 1036 H 110.42 -1.8664 -3.73571 0
M  V30 1037 N 110.857 0.726932 -1.39834 0
M  V30 1038 C 111.787 1.85405 -1.41941 0
M  V30 1039 C 112.768 1.67751 -0.281728 0
M  V30 1040 O 113.953 1.8795 -0.488717 0
M  V30 1041 C 111.083 3.23243 -1.2701 0
M  V30 1042 C 110.037 3.55549 -2.38262 0
M  V30 1043 C 109.363 4.9241 -2.08415 0
M  V30 1044 C 110.663 3.577 -3.80589 0
M  V30 1045 H 112.357 1.83899 -2.36266 0
M  V30 1046 H 109.903 0.883349 -1.13723 0
M  V30 1047 H 111.856 4.01775 -1.27103 0
M  V30 1048 H 110.58 3.25296 -0.291564 0
M  V30 1049 H 109.239 2.79351 -2.37399 0
M  V30 1050 H 108.887 4.91052 -1.0898 0
M  V30 1051 H 108.587 5.14992 -2.82943 0
M  V30 1052 H 110.111 5.73289 -2.10171 0
M  V30 1053 H 111.525 4.26293 -3.83337 0
M  V30 1054 H 109.922 3.91804 -4.54543 0
M  V30 1055 H 110.992 2.57328 -4.10987 0
M  V30 1056 N 112.336 1.25143 0.95797 0
M  V30 1057 C 113.585 1.0909 1.69654 0
M  V30 1058 C 113.898 -0.368548 1.92097 0
M  V30 1059 O 115.104 -0.649455 2.63618 0
M  V30 1060 C 113.56 1.90395 3.05414 0
M  V30 1061 C 113.168 3.4081 2.90779 0
M  V30 1062 C 114.912 1.82901 3.83076 0
M  V30 1063 C 112.819 4.14423 4.21909 0
M  V30 1064 H 111.749 0.404625 0.636235 0
M  V30 1065 H 114.4 1.4931 1.06672 0
M  V30 1066 H 112.782 1.42996 3.69281 0
M  V30 1067 H 113.956 3.95859 2.35865 0
M  V30 1068 H 112.271 3.49361 2.26575 0
M  V30 1069 H 114.868 2.35196 4.80195 0
M  V30 1070 H 115.211 0.796224 4.08615 0
M  V30 1071 H 115.744 2.28033 3.25954 0
M  V30 1072 H 112.483 5.18102 4.01561 0
M  V30 1073 H 112.003 3.64159 4.76601 0
M  V30 1074 H 113.682 4.21956 4.90471 0
M  V30 1075 N 113.814 -1.1601 1.06675 0
M  V30 1076 C 114.744 -2.22688 0.702307 0
M  V30 1077 C 115.725 -1.67306 -0.307032 0
M  V30 1078 O 116.91 -1.93352 -0.181305 0
M  V30 1079 C 114.04 -3.47178 0.092038 0
M  V30 1080 C 112.994 -4.15477 1.02777 0
M  V30 1081 C 112.32 -5.33963 0.28061 0
M  V30 1082 C 113.62 -4.66019 2.35846 0
M  V30 1083 H 115.314 -2.53429 1.59419 0
M  V30 1084 H 112.86 -1.21813 0.767961 0
M  V30 1085 H 114.813 -4.21037 -0.174814 0
M  V30 1086 H 113.537 -3.15749 -0.834877 0
M  V30 1087 H 112.196 -3.43549 1.27944 0
M  V30 1088 H 111.844 -4.98788 -0.649545 0
M  V30 1089 H 111.544 -5.806 0.904258 0
M  V30 1090 H 113.068 -6.10596 0.021396 0
M  V30 1091 H 114.482 -5.3144 2.15045 0
M  V30 1092 H 112.879 -5.23293 2.93743 0
M  V30 1093 H 113.949 -3.82023 2.98641 0
M  V30 1094 N 115.292 -0.849877 -1.32721 0
M  V30 1095 C 116.222 -0.306308 -2.31482 0
M  V30 1096 C 117.203 0.591952 -1.59468 0
M  V30 1097 O 118.388 0.513199 -1.87296 0
M  V30 1098 C 115.518 0.510204 -3.43532 0
M  V30 1099 C 114.472 -0.293209 -4.26994 0
M  V30 1100 C 113.798 0.647743 -5.30762 0
M  V30 1101 C 115.098 -1.51634 -4.99804 0
M  V30 1102 H 116.792 -1.13153 -2.77195 0
M  V30 1103 H 114.338 -0.545553 -1.33266 0
M  V30 1104 H 116.291 0.900856 -4.11658 0
M  V30 1105 H 115.015 1.36874 -2.96535 0
M  V30 1106 H 113.674 -0.665555 -3.60508 0
M  V30 1107 H 113.322 1.50299 -4.8002 0
M  V30 1108 H 113.022 0.11422 -5.87489 0
M  V30 1109 H 114.546 1.03567 -6.01753 0
M  V30 1110 H 115.96 -1.19824 -5.60638 0
M  V30 1111 H 114.357 -1.98745 -5.66234 0
M  V30 1112 H 115.427 -2.28018 -4.27943 0
M  V30 1113 N 116.77 1.45427 -0.607355 0
M  V30 1114 C 118 2.06314 -0.108656 0
M  V30 1115 C 118.408 1.45269 1.21217 0
M  V30 1116 O 117.751 0.561115 1.74921 0
M  V30 1117 C 117.813 3.59345 0.105618 0
M  V30 1118 C 117.477 4.42723 -1.13337 0
M  V30 1119 C 118.474 4.77715 -2.05145 0
M  V30 1120 C 116.159 4.83478 -1.36213 0
M  V30 1121 C 118.153 5.52317 -3.18158 0
M  V30 1122 C 115.84 5.57835 -2.49527 0
M  V30 1123 C 116.838 5.92171 -3.40327 0
M  V30 1124 O 116.526 6.65019 -4.51669 0
M  V30 1125 H 116.258 0.672782 -0.0658842 0
M  V30 1126 H 118.812 1.87664 -0.834945 0
M  V30 1127 H 117.042 3.76394 0.886796 0
M  V30 1128 H 118.731 4.02076 0.555886 0
M  V30 1129 H 119.497 4.46787 -1.88697 0
M  V30 1130 H 115.376 4.56188 -0.664362 0
M  V30 1131 H 118.92 5.79036 -3.89054 0
M  V30 1132 H 114.817 5.88177 -2.65928 0
M  V30 1133 H 115.585 6.83469 -4.50348 0
M  V30 1134 N 118.248 0.346503 1.53744 0
M  V30 1135 C 119.211 -0.496439 2.23759 0
M  V30 1136 C 120.211 -1.0252 1.2388 0
M  V30 1137 O 121.401 -0.913974 1.48297 0
M  V30 1138 C 118.533 -1.69187 2.95954 0
M  V30 1139 H 119.726 0.115952 2.99676 0
M  V30 1140 H 117.279 0.0978939 1.55993 0
M  V30 1141 H 118.014 -2.34288 2.24231 0
M  V30 1142 H 117.799 -1.31989 3.69217 0
M  V30 1143 H 119.289 -2.28969 3.49232 0
M  V30 1144 N 119.726 -1.57421 0.075193 0
M  V30 1145 C 120.674 -2.14124 -0.908508 0
M  V30 1146 C 121.668 -1.07898 -1.30592 0
M  V30 1147 O 122.874 -1.26273 -1.28277 0
M  V30 1148 H 119.249 -0.684707 -0.310935 0
M  V30 1149 H 121.22 -2.95634 -0.405374 0
M  V30 1150 C 119.969 -2.72044 -2.16535 0
M  V30 1151 H 119.292 -3.53456 -1.86839 0
M  V30 1152 H 120.732 -3.15311 -2.83469 0
M  V30 1153 C 119.191 -1.66968 -2.92615 0
M  V30 1154 O 119.721 -1.0967 -3.86439 0
M  V30 1155 N 117.927 -1.37923 -2.55784 0
M  V30 1156 H 117.474 -1.84706 -1.79559 0
M  V30 1157 H 117.432 -0.67852 -3.06991 0
M  V30 1158 N 121.204 0.198386 -1.56346 0
M  V30 1159 C 122.615 0.763358 -1.70381 0
M  V30 1160 C 122.966 1.83995 -0.681203 0
M  V30 1161 O 122.091 2.15785 0.16305 0
M  V30 1162 C 122.686 1.39143 -3.08909 0
M  V30 1163 C 121.245 1.90352 -3.2472 0
M  V30 1164 C 120.392 0.772233 -2.6633 0
M  V30 1165 H 123.343 -0.0266377 -1.58678 0
M  V30 1166 H 123.364 2.26076 -3.06055 0
M  V30 1167 H 122.876 0.607638 -3.83314 0
M  V30 1168 H 120.977 2.71461 -2.55225 0
M  V30 1169 H 121.09 2.06757 -4.3219 0
M  V30 1170 H 119.454 1.18566 -2.2542 0
M  V30 1171 H 120.237 0.00073556 -3.433 0
M  V30 1172 N 122.682 1.50554 0.465978 0
M  V30 1173 C 123.929 1.61798 1.21768 0
M  V30 1174 C 124.257 0.320696 1.91838 0
M  V30 1175 O 123.512 -0.693724 1.82992 0
M  V30 1176 C 123.811 2.75152 2.28093 0
M  V30 1177 C 123.477 4.15454 1.75239 0
M  V30 1178 C 122.139 4.53628 1.60546 0
M  V30 1179 C 124.491 5.03121 1.36083 0
M  V30 1180 C 121.819 5.77204 1.05128 0
M  V30 1181 C 124.171 6.27249 0.821056 0
M  V30 1182 C 122.835 6.64221 0.660795 0
M  V30 1183 H 122.105 0.592063 0.445582 0
M  V30 1184 H 124.752 1.84503 0.512927 0
M  V30 1185 H 123.057 2.46556 3.04496 0
M  V30 1186 H 124.754 2.81055 2.86023 0
M  V30 1187 H 121.344 3.85341 1.87644 0
M  V30 1188 H 125.528 4.74257 1.46267 0
M  V30 1189 H 120.784 6.0452 0.91462 0
M  V30 1190 H 124.958 6.94537 0.509018 0
M  V30 1191 H 122.585 7.59854 0.229226 0
M  V30 1192 N 124.16 -0.719506 1.40217 0
M  V30 1193 C 125.406 -1.48152 1.38488 0
M  V30 1194 C 125.739 -1.94195 -0.0141867 0
M  V30 1195 O 125.014 -1.67884 -0.982096 0
M  V30 1196 C 125.297 -2.71035 2.37091 0
M  V30 1197 C 125.15 -2.30912 3.86005 0
M  V30 1198 C 126.469 -3.73182 2.33288 0
M  V30 1199 H 123.588 -0.537395 0.504357 0
M  V30 1200 H 126.23 -0.821472 1.71324 0
M  V30 1201 H 124.38 -3.27352 2.0922 0
M  V30 1202 H 126.052 -1.80107 4.24687 0
M  V30 1203 H 124.295 -1.62958 4.02029 0
M  V30 1204 H 124.966 -3.18978 4.50508 0
M  V30 1205 H 127.442 -3.26485 2.57966 0
M  V30 1206 H 126.318 -4.56806 3.04334 0
M  V30 1207 H 126.579 -4.21202 1.34317 0
M  V30 1208 N 125.638 -1.25649 -0.95132 0
M  V30 1209 C 126.886 -1.10375 -1.69298 0
M  V30 1210 C 127.207 0.355339 -1.91735 0
M  V30 1211 O 126.477 1.25188 -1.50681 0
M  V30 1212 H 125.057 -0.405461 -0.627384 0
M  V30 1213 H 127.719 -1.57823 -1.14358 0
M  V30 1214 H 126.815 -1.61465 -2.67087 0
M  V30 1215 N 127.117 1.15442 -1.07289 0
M  V30 1216 C 128.047 2.22312 -0.714107 0
M  V30 1217 C 129.028 1.67467 0.298155 0
M  V30 1218 O 130.213 1.93445 0.171048 0
M  V30 1219 C 127.343 3.47124 -0.110448 0
M  V30 1220 C 126.297 4.14926 -1.04979 0
M  V30 1221 C 125.623 5.33807 -0.308924 0
M  V30 1222 C 126.923 4.64762 -2.38314 0
M  V30 1223 H 128.617 2.5258 -1.6076 0
M  V30 1224 H 126.163 1.21404 -0.77441 0
M  V30 1225 H 128.116 4.21124 0.152482 0
M  V30 1226 H 126.84 3.16187 0.81812 0
M  V30 1227 H 125.499 3.42866 -1.29764 0
M  V30 1228 H 125.147 4.99126 0.623084 0
M  V30 1229 H 124.847 5.80113 -0.935036 0
M  V30 1230 H 126.371 6.10576 -0.0537771 0
M  V30 1231 H 127.785 5.30292 -2.1786 0
M  V30 1232 H 126.182 5.21728 -2.96514 0
M  V30 1233 H 127.252 3.80434 -3.00663 0
M  V30 1234 N 128.595 0.856903 1.32268 0
M  V30 1235 C 129.525 0.31858 2.31316 0
M  V30 1236 C 130.506 -0.583487 1.59779 0
M  V30 1237 O 131.691 -0.503259 1.87566 0
M  V30 1238 C 128.821 -0.491979 3.43798 0
M  V30 1239 C 127.775 0.315849 4.26833 0
M  V30 1240 C 127.101 -0.619586 5.31098 0
M  V30 1241 C 128.401 1.54282 4.98993 0
M  V30 1242 H 130.095 1.14621 2.76591 0
M  V30 1243 H 127.641 0.552613 1.32974 0
M  V30 1244 H 129.594 -0.879012 4.1213 0
M  V30 1245 H 128.318 -1.35299 2.97257 0
M  V30 1246 H 126.977 0.684664 3.6015 0
M  V30 1247 H 126.625 -1.47751 4.8081 0
M  V30 1248 H 126.325 -0.0830621 5.87541 0
M  V30 1249 H 127.849 -1.00375 6.02293 0
M  V30 1250 H 129.263 1.22796 5.59995 0
M  V30 1251 H 127.66 2.01745 5.65172 0
M  V30 1252 H 128.73 2.30285 4.26728 0
M  V30 1253 N 130.073 -1.45103 0.615059 0
M  V30 1254 C 131.321 -2.01784 0.112955 0
M  V30 1255 C 131.642 -1.48504 -1.26378 0
M  V30 1256 O 130.912 -0.682245 -1.83636 0
M  V30 1257 H 129.492 -0.745993 0.0387668 0
M  V30 1258 H 132.154 -1.77808 0.798141 0
M  V30 1259 H 131.25 -3.12025 0.0684069 0
M  V30 1260 O 131.59 -0.496846 -1.53667 0
M  V30 1261 H 132.281 0.021856 -1.93688 0
M  V30 END ATOM
M  V30 BEGIN BOND
M  V30 END BOND
M  V30 END CTAB
M  END
$$$$
