5289443
  -OEChem-02022013153D

 34 34  0     1  0  0  0  0  0999 V2000
    1.6419   -1.7438    0.7770 S   0  0  0  0  0  0  0  0  0  0  0  0
    1.1939   -2.4699    1.9329 O   0  0  0  0  0  0  0  0  0  0  0  0
    1.6950   -2.3118   -0.5416 O   0  0  0  0  0  0  0  0  0  0  0  0
   -0.9058   -2.7889   -0.8366 O   0  0  0  0  0  0  0  0  0  0  0  0
   -1.2894   -0.8806   -1.9975 O   0  0  0  0  0  0  0  0  0  0  0  0
   -6.3223    1.7327   -0.0781 O   0  0  0  0  0  0  0  0  0  0  0  0
    2.5048    1.1251   -0.3824 N   0  0  0  0  0  0  0  0  0  0  0  0
   -1.7838    0.3861    0.4168 N   0  0  0  0  0  0  0  0  0  0  0  0
    3.4935    0.4044   -0.9086 N   0  0  0  0  0  0  0  0  0  0  0  0
    4.6172    1.0678   -0.6593 N   0  0  0  0  0  0  0  0  0  0  0  0
    0.6063   -0.2611    0.6620 C   0  0  2  0  0  0  0  0  0  0  0  0
   -0.8589   -0.7344    0.3976 C   0  0  2  0  0  0  0  0  0  0  0  0
    1.1243    0.6538   -0.4871 C   0  0  0  0  0  0  0  0  0  0  0  0
    0.6902    0.4400    2.0314 C   0  0  0  0  0  0  0  0  0  0  0  0
   -1.0445   -1.4418   -0.9367 C   0  0  0  0  0  0  0  0  0  0  0  0
    2.9324    2.2550    0.2152 C   0  0  0  0  0  0  0  0  0  0  0  0
   -3.1145    0.2542    0.2185 C   0  0  0  0  0  0  0  0  0  0  0  0
    4.2908    2.2036    0.0283 C   0  0  0  0  0  0  0  0  0  0  0  0
   -4.0283    1.2287    0.1899 C   0  0  0  0  0  0  0  0  0  0  0  0
   -5.4429    0.8806   -0.0418 C   0  0  0  0  0  0  0  0  0  0  0  0
   -1.1712   -1.4313    1.1872 H   0  0  0  0  0  0  0  0  0  0  0  0
    0.5074    1.5573   -0.5670 H   0  0  0  0  0  0  0  0  0  0  0  0
    1.0648    0.1484   -1.4580 H   0  0  0  0  0  0  0  0  0  0  0  0
    2.8931   -1.3466    1.0703 H   0  0  0  0  0  0  0  0  0  0  0  0
    1.7289    0.5806    2.3503 H   0  0  0  0  0  0  0  0  0  0  0  0
    0.2179    1.4275    2.0105 H   0  0  0  0  0  0  0  0  0  0  0  0
    0.1949   -0.1461    2.8141 H   0  0  0  0  0  0  0  0  0  0  0  0
   -1.4293    1.3274    0.5476 H   0  0  0  0  0  0  0  0  0  0  0  0
    2.2812    2.9687    0.6994 H   0  0  0  0  0  0  0  0  0  0  0  0
   -3.4265   -0.7785    0.0906 H   0  0  0  0  0  0  0  0  0  0  0  0
   -1.0241   -3.2339   -1.7027 H   0  0  0  0  0  0  0  0  0  0  0  0
    5.0389    2.9131    0.3480 H   0  0  0  0  0  0  0  0  0  0  0  0
   -3.7698    2.2724    0.3233 H   0  0  0  0  0  0  0  0  0  0  0  0
   -5.6671   -0.1902   -0.1803 H   0  0  0  0  0  0  0  0  0  0  0  0
  1  2  2  0  0  0  0
  1  3  2  0  0  0  0
  1 11  1  0  0  0  0
  1 24  1  0  0  0  0
  4 15  1  0  0  0  0
  4 31  1  0  0  0  0
  5 15  2  0  0  0  0
  6 20  2  0  0  0  0
  7  9  1  0  0  0  0
  7 13  1  0  0  0  0
  7 16  1  0  0  0  0
  8 12  1  0  0  0  0
  8 17  1  0  0  0  0
  8 28  1  0  0  0  0
  9 10  2  0  0  0  0
 10 18  1  0  0  0  0
 11 12  1  0  0  0  0
 11 13  1  0  0  0  0
 11 14  1  0  0  0  0
 12 15  1  0  0  0  0
 12 21  1  0  0  0  0
 13 22  1  0  0  0  0
 13 23  1  0  0  0  0
 14 25  1  0  0  0  0
 14 26  1  0  0  0  0
 14 27  1  0  0  0  0
 16 18  2  0  0  0  0
 16 29  1  0  0  0  0
 17 19  2  0  0  0  0
 17 30  1  0  0  0  0
 18 32  1  0  0  0  0
 19 20  1  0  0  0  0
 19 33  1  0  0  0  0
 20 34  1  0  0  0  0
M  END
> <DATABASE_ID>
DB03445

> <DATABASE_NAME>
drugbank

> <ORIGINAL_SOURCE>
PUBCHEM

> <ORIGINAL_SOURCE_URL>
https://pubchem.ncbi.nlm.nih.gov/rest/pug/compound/inchikey/ANZZKUOZZHRUQC-QZWDGIGVSA-N/SDF?record_type=3d

> <SMILES>
CC(CN1C=CN=N1)([C@@H](N\C=C\C=O)C(O)=O)S(=O)=O

> <INCHI_IDENTIFIER>
InChI=1S/C10H14N4O5S/c1-10(20(18)19,7-14-5-4-12-13-14)8(9(16)17)11-3-2-6-15/h2-6,8,11,20H,7H2,1H3,(H,16,17)/b3-2+/t8-,10-/m0/s1

> <INCHI_KEY>
ANZZKUOZZHRUQC-QZWDGIGVSA-N

> <FORMULA>
C10H14N4O5S

> <MOLECULAR_WEIGHT>
302.307

> <EXACT_MASS>
302.068490268

> <JCHEM_ACCEPTOR_COUNT>
8

> <JCHEM_ATOM_COUNT>
34

> <JCHEM_AVERAGE_NEUTRAL_MICROSPECIES_CHARGE>
-1.407356109468183

> <JCHEM_AVERAGE_POLARIZABILITY>
27.247513599132787

> <JCHEM_BIOAVAILABILITY>
1

> <JCHEM_DONOR_COUNT>
3

> <JCHEM_FORMAL_CHARGE>
0

> <JCHEM_GHOSE_FILTER>
0

> <JCHEM_IUPAC>
(2S)-3-methyl-2-{[(1E)-3-oxoprop-1-en-1-yl]amino}-3-sulfonyl-4-(1H-1,2,3-triazol-1-yl)butanoic acid

> <ALOGPS_LOGP>
-1.02

> <JCHEM_LOGP>
-1.8436000000000001

> <ALOGPS_LOGS>
-2.15

> <JCHEM_MDDR_LIKE_RULE>
0

> <JCHEM_NEUTRAL_CHARGE>
-1

> <JCHEM_NUMBER_OF_RINGS>
1

> <JCHEM_PHYSIOLOGICAL_CHARGE>
-2

> <JCHEM_PKA>
7.162572515589209

> <JCHEM_PKA_STRONGEST_ACIDIC>
3.23880455703669

> <JCHEM_PKA_STRONGEST_BASIC>
0.7580101089863542

> <JCHEM_POLAR_SURFACE_AREA>
131.24999999999997

> <JCHEM_REFRACTIVITY>
79.43279999999997

> <JCHEM_ROTATABLE_BOND_COUNT>
8

> <JCHEM_RULE_OF_FIVE>
1

> <ALOGPS_SOLUBILITY>
2.14e+00 g/l

> <JCHEM_TRADITIONAL_IUPAC>
(2R)-2-(aminomethyl)-1-(carboxymethyl)-2,5-dihydroxy-4-oxo-3H-imidazol-1-ium

> <JCHEM_VEBER_RULE>
0

> <DRUGBANK_ID>
DB03445

> <SECONDARY_ACCESSION_NUMBERS>
EXPT03016

> <DRUG_GROUPS>
experimental

> <GENERIC_NAME>
(3S)-3-(dioxidosulfanyl)-N-[(1E)-3-oxoprop-1-en-1-yl]-4-(1H-1,2,3-triazol-1-yl)-D-valine

> <SYNONYMS>
Tazobactam Trans-Enamine Intermediate

$$$$