drugbank_target|P28221 5-hydroxytryptamine receptor 1D (DB00216; DB00246; DB00248; DB00315; DB00320; DB00321; DB00363; DB00408; DB00574; DB00589; DB00669; DB00696; DB00714; DB00726; DB00734; DB00918; DB00952; DB00953; DB00998; DB01186; DB01200; DB01224; DB01238; DB01267; DB01392; DB04948; DB06096; DB06153; DB14185)
 OpenBabel12092119363D

  0  0  0     0  0            999 V3000
M  V30 BEGIN CTAB
M  V30 COUNTS 5985 6057 0 0 0
M  V30 BEGIN ATOM
M  V30 1 H -0.908 1.98254 -0.117106 0
M  V30 2 N 0 1.576 0 0
M  V30 3 C 0.933 2.03868 1.02534 0
M  V30 4 C 1.911 0.928543 1.3348 0
M  V30 5 O 3.095 1.19667 1.45644 0
M  V30 6 C 0.222 2.43627 2.35294 0
M  V30 7 C -0.732 3.65373 2.2001 0
M  V30 8 S 0.101 5.13292 1.52614 0
M  V30 9 C 1.257 5.56322 2.86805 0
M  V30 10 H 1.49 2.90518 0.631377 0
M  V30 11 H -0.977 1.52953 0.210867 0
M  V30 12 H 0.981 2.67203 3.11629 0
M  V30 13 H -0.358 1.57376 2.7183 0
M  V30 14 H -1.165 3.90944 3.18086 0
M  V30 15 H -1.563 3.418 1.51819 0
M  V30 16 H 0.729 5.58782 3.83104 0
M  V30 17 H 1.672 6.56266 2.65933 0
M  V30 18 H 2.08 4.83886 2.90714 0
M  V30 19 N 1.4781 -0.272755 1.55222 0
M  V30 20 C 2.7031 -1.02683 1.80197 0
M  V30 21 C 3.1281 -1.79142 0.573551 0
M  V30 22 O 2.4861 -1.74917 -0.476849 0
M  V30 23 C 2.5341 -1.9609 3.02624 0
M  V30 24 O 1.6381 -3.04863 2.77727 0
M  V30 25 H 0.9791 -0.293557 0.595584 0
M  V30 26 H 3.5091 -0.30159 2.02365 0
M  V30 27 H 3.5191 -2.38039 3.31363 0
M  V30 28 H 2.1941 -1.39851 3.91682 0
M  V30 29 H 0.7711 -2.67228 2.60084 0
M  V30 30 N 2.9562 -1.48159 -0.537278 0
M  V30 31 C 4.3672 -1.49429 -1.11928 0
M  V30 32 C 4.7182 -0.26 -1.9447 0
M  V30 33 O 3.8432 0.633489 -2.0692 0
M  V30 34 C 4.4382 -2.70758 -2.03656 0
M  V30 35 C 2.9972 -2.74923 -2.57088 0
M  V30 36 C 2.1442 -2.42835 -1.3389 0
M  V30 37 H 5.0952 -1.55381 -0.322886 0
M  V30 38 H 5.1162 -2.48861 -2.87834 0
M  V30 39 H 4.6282 -3.60575 -1.43553 0
M  V30 40 H 2.7292 -1.89296 -3.20933 0
M  V30 41 H 2.8422 -3.76157 -2.9672 0
M  V30 42 H 1.2062 -1.93836 -1.65226 0
M  V30 43 H 1.9892 -3.34884 -0.755504 0
M  V30 44 N 4.4343 0.785586 -1.36625 0
M  V30 45 C 5.3643 1.91259 -1.33949 0
M  V30 46 C 6.3453 1.68795 -0.210325 0
M  V30 47 O 7.5303 1.89854 -0.408561 0
M  V30 48 C 4.6603 3.28339 -1.13186 0
M  V30 49 C 3.6143 3.65335 -2.22967 0
M  V30 50 C 2.9403 5.00806 -1.87342 0
M  V30 51 C 4.2403 3.7352 -3.65075 0
M  V30 52 H 5.9343 1.93755 -2.28253 0
M  V30 53 H 3.4803 0.930788 -1.09874 0
M  V30 54 H 5.4333 4.06804 -1.09948 0
M  V30 55 H 4.1573 3.2624 -0.153332 0
M  V30 56 H 2.8163 2.89169 -2.25337 0
M  V30 57 H 2.4643 4.95233 -0.880545 0
M  V30 58 H 2.1643 5.26529 -2.60846 0
M  V30 59 H 3.6883 5.81687 -1.85667 0
M  V30 60 H 5.1023 4.42168 -3.64911 0
M  V30 61 H 3.4993 4.10731 -4.37516 0
M  V30 62 H 4.5693 2.74527 -3.99703 0
M  V30 63 N 5.9124 1.20967 1.01018 0
M  V30 64 C 6.8604 0.961223 2.1181 0
M  V30 65 C 7.8544 -0.0897034 1.69162 0
M  V30 66 O 9.0604 0.0612271 1.79896 0
M  V30 67 H 5.4354 0.29355 0.692338 0
M  V30 68 H 7.4064 1.90178 2.29946 0
M  V30 69 C 6.1554 0.536854 3.4353 0
M  V30 70 H 5.4784 1.33713 3.76777 0
M  V30 71 H 6.9184 0.402286 4.22087 0
M  V30 72 C 5.3774 -0.751574 3.2841 0
M  V30 73 O 5.9074 -1.80841 3.58691 0
M  V30 74 N 4.1134 -0.716079 2.81639 0
M  V30 75 H 3.6604 0.144236 2.57196 0
M  V30 76 H 3.6184 -1.57847 2.71904 0
M  V30 77 N 7.3905 -1.2043 1.01659 0
M  V30 78 C 8.3225 -2.22626 0.544988 0
M  V30 79 C 9.3355 -1.58479 -0.372609 0
M  V30 80 O 10.5245 -1.77679 -0.170958 0
M  V30 81 C 7.6245 -3.38141 -0.22663 0
M  V30 82 C 6.7975 -4.31877 0.692876 0
M  V30 83 C 5.8565 -5.26191 -0.0311616 0
M  V30 84 O 4.8825 -5.6612 0.591343 0
M  V30 85 N 6.0845 -5.65618 -1.30601 0
M  V30 86 H 8.8495 -2.63716 1.42388 0
M  V30 87 H 6.4105 -1.34971 0.894116 0
M  V30 88 H 8.4025 -3.98239 -0.72024 0
M  V30 89 H 6.9725 -2.95943 -1.00681 0
M  V30 90 H 6.1925 -3.69746 1.36679 0
M  V30 91 H 7.4805 -4.91426 1.31824 0
M  V30 92 H 6.8785 -5.3519 -1.83269 0
M  V30 93 H 5.4355 -6.28025 -1.74435 0
M  V30 94 N 8.8686 -0.792821 -1.36206 0
M  V30 95 C 10.0936 -0.377701 -2.03932 0
M  V30 96 C 10.5186 0.998947 -1.59382 0
M  V30 97 O 9.8766 1.64421 -0.763903 0
M  V30 98 C 9.9246 -0.453635 -3.57735 0
M  V30 99 O 9.0286 0.538151 -4.08874 0
M  V30 100 H 8.3696 -0.159855 -0.644471 0
M  V30 101 H 10.8996 -1.07488 -1.7409 0
M  V30 102 H 10.9096 -0.318464 -4.06755 0
M  V30 103 H 9.5846 -1.45784 -3.89512 0
M  V30 104 H 8.1616 0.364359 -3.71116 0
M  V30 105 N 10.3467 1.47872 -0.545128 0
M  V30 106 C 11.3097 2.28337 0.198717 0
M  V30 107 C 12.3097 1.36255 0.853888 0
M  V30 108 O 13.4997 1.59003 0.711606 0
M  V30 109 C 10.6317 3.15585 1.28915 0
M  V30 110 H 11.8247 2.95567 -0.507941 0
M  V30 111 H 9.3777 1.53362 -0.301616 0
M  V30 112 H 10.1127 2.53019 2.02859 0
M  V30 113 H 9.8977 3.83337 0.824309 0
M  V30 114 H 11.3877 3.76243 1.81194 0
M  V30 115 N 11.8248 0.280983 1.55075 0
M  V30 116 C 12.7348 -0.61388 2.26426 0
M  V30 117 C 13.7508 -1.16521 1.29224 0
M  V30 118 O 14.9268 -1.19426 1.62171 0
M  V30 119 C 11.9918 -1.7788 2.9759 0
M  V30 120 C 11.0528 -1.26355 4.10284 0
M  V30 121 C 10.2858 -2.37295 4.78045 0
M  V30 122 O 10.5088 -3.56777 4.45047 0
M  V30 123 O 9.4428 -2.05119 5.65871 0
M  V30 124 H 13.2688 -0.0356932 3.03679 0
M  V30 125 H 10.8538 0.0481686 1.49322 0
M  V30 126 H 12.7358 -2.45791 3.42293 0
M  V30 127 H 11.4108 -2.34397 2.23249 0
M  V30 128 H 10.3178 -0.550735 3.70024 0
M  V30 129 H 11.6508 -0.744065 4.86543 0
M  V30 130 N 13.3029 -1.57598 0.00835791 0
M  V30 131 C 14.5509 -1.90551 -0.6734 0
M  V30 132 C 14.8719 -0.883301 -1.73847 0
M  V30 133 O 14.1419 0.0781442 -1.95744 0
M  V30 134 H 12.7219 -0.703312 -0.251717 0
M  V30 135 H 15.3839 -1.94833 0.0512592 0
M  V30 136 H 14.4799 -2.9056 -1.13935 0
M  V30 137 N 14.781 0.264519 -1.55364 0
M  V30 138 C 15.711 1.33121 -1.91836 0
M  V30 139 C 16.692 1.51101 -0.781192 0
M  V30 140 O 17.877 1.64003 -1.04003 0
M  V30 141 C 15.007 2.68921 -2.19769 0
M  V30 142 C 13.961 2.65661 -3.35571 0
M  V30 143 C 13.287 4.05093 -3.49004 0
M  V30 144 C 14.587 2.24187 -4.71739 0
M  V30 145 H 16.281 1.02844 -2.81182 0
M  V30 146 H 13.827 0.493286 -1.35287 0
M  V30 147 H 15.78 3.43663 -2.43872 0
M  V30 148 H 14.504 3.00799 -1.27231 0
M  V30 149 H 13.163 1.93377 -3.1145 0
M  V30 150 H 12.811 4.34206 -2.53917 0
M  V30 151 H 12.511 4.03804 -4.26868 0
M  V30 152 H 14.035 4.81561 -3.75408 0
M  V30 153 H 15.449 2.88654 -4.9533 0
M  V30 154 H 13.846 2.34044 -5.52579 0
M  V30 155 H 14.916 1.19327 -4.69988 0
M  V30 156 N 16.2591 1.48442 0.529413 0
M  V30 157 C 17.6701 1.5002 1.11134 0
M  V30 158 C 18.0211 0.27031 1.94329 0
M  V30 159 O 17.1461 -0.622507 2.07253 0
M  V30 160 C 17.7411 2.71834 2.02217 0
M  V30 161 C 16.3001 2.76283 2.55627 0
M  V30 162 C 15.4471 2.43542 1.326 0
M  V30 163 H 18.3981 1.5555 0.314641 0
M  V30 164 H 18.4191 2.50384 2.8651 0
M  V30 165 H 17.9311 3.61331 1.41639 0
M  V30 166 H 16.0321 1.90995 3.19924 0
M  V30 167 H 16.1451 3.77725 2.94721 0
M  V30 168 H 14.5091 1.94709 1.64196 0
M  V30 169 H 15.2921 3.3528 0.737734 0
M  V30 170 N 17.7372 -0.778329 1.37039 0
M  V30 171 C 18.6692 -1.90034 1.2814 0
M  V30 172 C 19.6822 -1.61585 0.198558 0
M  V30 173 O 20.8712 -1.72625 0.454175 0
M  V30 174 C 17.9712 -3.25108 0.956968 0
M  V30 175 C 17.1442 -3.81253 2.14394 0
M  V30 176 C 16.2032 -4.94789 1.79082 0
M  V30 177 O 15.2292 -5.10721 2.51301 0
M  V30 178 N 16.4312 -5.75878 0.731043 0
M  V30 179 H 19.1962 -1.98186 2.24816 0
M  V30 180 H 16.7572 -0.957129 1.30578 0
M  V30 181 H 18.7492 -3.9857 0.701701 0
M  V30 182 H 17.3192 -3.125 0.0789812 0
M  V30 183 H 16.5392 -2.99647 2.56135 0
M  V30 184 H 17.8272 -4.15495 2.93668 0
M  V30 185 H 17.2252 -5.65547 0.131618 0
M  V30 186 H 15.7822 -6.49596 0.535622 0
M  V30 187 N 19.2153 -1.21501 -1.00376 0
M  V30 188 C 20.1253 -0.991447 -2.12621 0
M  V30 189 C 21.1413 0.0568446 -1.73907 0
M  V30 190 O 22.3173 -0.13348 -2.00957 0
M  V30 191 C 19.3823 -0.560312 -3.42142 0
M  V30 192 C 18.4433 -1.68096 -3.95022 0
M  V30 193 C 17.6763 -1.2703 -5.18362 0
M  V30 194 O 17.8993 -0.144438 -5.70217 0
M  V30 195 O 16.8333 -2.08269 -5.64719 0
M  V30 196 H 20.6593 -1.93158 -2.34358 0
M  V30 197 H 18.2443 -0.999999 -1.10997 0
M  V30 198 H 20.1263 -0.329724 -4.20108 0
M  V30 199 H 18.8013 0.351089 -3.2179 0
M  V30 200 H 17.7083 -1.96597 -3.18278 0
M  V30 201 H 19.0413 -2.56983 -4.19786 0
M  V30 202 N 20.6934 1.19889 -1.02296 0
M  V30 203 C 21.6564 2.21116 -0.603351 0
M  V30 204 C 22.6564 1.5738 0.329884 0
M  V30 205 O 23.8464 1.73802 0.117702 0
M  V30 206 C 20.9784 3.40696 0.117992 0
M  V30 207 H 22.1714 2.59754 -1.49893 0
M  V30 208 H 19.7244 1.33463 -0.813468 0
M  V30 209 H 20.4594 3.07569 1.0282 0
M  V30 210 H 20.2444 3.88188 -0.552511 0
M  V30 211 H 21.7344 4.15692 0.398696 0
M  V30 212 N 22.1715 0.800033 1.35784 0
M  V30 213 C 23.3965 0.388511 2.03729 0
M  V30 214 C 23.8215 -0.990481 1.5991 0
M  V30 215 O 23.1795 -1.64013 0.772612 0
M  V30 216 C 23.2275 0.4726 3.5749 0
M  V30 217 O 22.3315 -0.51646 4.09153 0
M  V30 218 H 21.6725 0.163271 0.643614 0
M  V30 219 H 24.2025 1.0841 1.73518 0
M  V30 220 H 24.2125 0.34003 4.06581 0
M  V30 221 H 22.8875 1.47848 3.88734 0
M  V30 222 H 21.4645 -0.344673 3.71304 0
M  V30 223 N 23.6496 -1.47581 0.552962 0
M  V30 224 C 24.5976 -2.31648 -0.21023 0
M  V30 225 C 25.5916 -1.42663 -0.913432 0
M  V30 226 O 26.7976 -1.5945 -0.835201 0
M  V30 227 H 23.1726 -0.746989 -0.0866676 0
M  V30 228 H 25.1436 -2.93869 0.518051 0
M  V30 229 C 23.8926 -3.25226 -1.22976 0
M  V30 230 H 23.2156 -3.93658 -0.698077 0
M  V30 231 H 24.6556 -3.86889 -1.73473 0
M  V30 232 C 23.1146 -2.48448 -2.27542 0
M  V30 233 O 23.6446 -2.22585 -3.34393 0
M  V30 234 N 21.8506 -2.09532 -2.01357 0
M  V30 235 H 21.3976 -2.30765 -1.14478 0
M  V30 236 H 21.3556 -1.58476 -2.71538 0
M  V30 237 N 25.1277 -0.289203 -1.54924 0
M  V30 238 C 26.5437 0.0645403 -1.59469 0
M  V30 239 C 26.7437 1.53419 -1.30632 0
M  V30 240 O 25.7997 2.2852 -1.074 0
M  V30 241 C 27.1127 -0.32278 -2.98963 0
M  V30 242 C 28.6607 -0.270564 -3.11828 0
M  V30 243 C 29.1357 -0.632532 -4.53611 0
M  V30 244 N 30.6267 -0.584617 -4.59496 0
M  V30 245 C 31.3617 -0.837314 -5.67254 0
M  V30 246 N 30.8577 -1.15536 -6.83098 0
M  V30 247 N 32.6507 -0.765166 -5.56868 0
M  V30 248 H 24.8017 -1.24714 -1.71931 0
M  V30 249 H 27.0647 -0.504809 -0.802416 0
M  V30 250 H 26.7707 -1.34541 -3.24948 0
M  V30 251 H 26.6447 0.32944 -3.75759 0
M  V30 252 H 29.0317 0.742805 -2.85598 0
M  V30 253 H 29.1127 -0.957242 -2.37214 0
M  V30 254 H 28.7567 -1.64365 -4.80569 0
M  V30 255 H 28.6867 0.07609 -5.26545 0
M  V30 256 H 31.1777 -0.349248 -3.76283 0
M  V30 257 H 31.4907 -1.33447 -7.61191 0
M  V30 258 H 29.8357 -1.19328 -6.84679 0
M  V30 259 H 33.0267 -0.516432 -4.65243 0
M  V30 260 H 33.1997 -0.965477 -6.40767 0
M  V30 261 N 26.6058 1.57591 -0.0167156 0
M  V30 262 C 27.8308 1.9598 0.67872 0
M  V30 263 C 28.2558 0.892546 1.65575 0
M  V30 264 O 27.6138 -0.147772 1.80697 0
M  V30 265 C 27.6618 3.33468 1.37227 0
M  V30 266 O 26.7658 3.28954 2.48722 0
M  V30 267 H 26.1068 0.639339 0.17928 0
M  V30 268 H 28.6368 2.04463 -0.0748802 0
M  V30 269 H 28.6468 3.69417 1.7319 0
M  V30 270 H 27.3218 4.10694 0.656007 0
M  V30 271 H 25.8988 3.04705 2.14963 0
M  V30 272 N 28.0839 -0.256276 1.55502 0
M  V30 273 C 29.0139 -1.32102 1.92539 0
M  V30 274 C 29.9949 -1.50684 0.789194 0
M  V30 275 O 31.1799 -1.63449 1.04872 0
M  V30 276 C 28.3099 -2.67752 2.21192 0
M  V30 277 C 27.2639 -2.63878 3.36975 0
M  V30 278 C 26.5899 -4.03236 3.51147 0
M  V30 279 C 27.8899 -2.21682 4.72921 0
M  V30 280 H 29.5839 -1.01351 2.81724 0
M  V30 281 H 27.1299 -0.486105 1.35547 0
M  V30 282 H 29.0829 -3.42365 2.45691 0
M  V30 283 H 27.8069 -3.0012 1.28824 0
M  V30 284 H 26.4659 -1.91722 3.12471 0
M  V30 285 H 26.1139 -4.32854 2.56216 0
M  V30 286 H 25.8139 -4.01535 4.29003 0
M  V30 287 H 27.3379 -4.79563 3.77957 0
M  V30 288 H 28.7519 -2.86023 4.96854 0
M  V30 289 H 27.1489 -2.3111 5.53812 0
M  V30 290 H 28.2189 -1.16833 4.70615 0
M  V30 291 N 29.562 -1.4872 -0.521534 0
M  V30 292 C 30.51 -1.64328 -1.64618 0
M  V30 293 C 31.504 -0.50953 -1.61555 0
M  V30 294 O 32.71 -0.688525 -1.66311 0
M  V30 295 H 29.085 -0.517805 -0.545328 0
M  V30 296 H 31.056 -2.58767 -1.48601 0
M  V30 297 C 29.805 -1.70805 -3.02855 0
M  V30 298 H 29.128 -2.5741 -3.05909 0
M  V30 299 H 30.568 -1.85766 -3.81139 0
M  V30 300 C 29.027 -0.448479 -3.33902 0
M  V30 301 O 29.557 0.434928 -3.99339 0
M  V30 302 N 27.763 -0.317616 -2.88859 0
M  V30 303 H 27.31 -1.03748 -2.35784 0
M  V30 304 H 27.268 0.524113 -3.10001 0
M  V30 305 N 31.0401 0.771051 -1.3745 0
M  V30 306 C 32.0031 1.86598 -1.33093 0
M  V30 307 C 33.0031 1.59076 -0.234845 0
M  V30 308 O 34.1931 1.67145 -0.490732 0
M  V30 309 C 31.3251 3.23747 -1.06773 0
M  V30 310 H 32.5181 1.91873 -2.30488 0
M  V30 311 H 30.0711 0.970876 -1.2249 0
M  V30 312 H 30.8061 3.24148 -0.099129 0
M  V30 313 H 30.5911 3.45115 -1.86112 0
M  V30 314 H 32.0811 4.03824 -1.06377 0
M  V30 315 N 32.5182 1.22032 0.997298 0
M  V30 316 C 33.7462 1.06841 1.7718 0
M  V30 317 C 34.1612 -0.381325 1.84909 0
M  V30 318 O 33.5182 -1.26437 1.31605 0
M  V30 319 C 33.5692 1.66814 3.20711 0
M  V30 320 O 33.2902 3.06116 3.13408 0
M  V30 321 C 34.7912 1.56838 4.14628 0
M  V30 322 H 32.0112 0.374782 0.556578 0
M  V30 323 H 34.5552 1.61532 1.2541 0
M  V30 324 H 32.7102 1.16196 3.69564 0
M  V30 325 H 33.1242 3.34926 4.0364 0
M  V30 326 H 34.5982 2.03532 5.13107 0
M  V30 327 H 35.0752 0.524155 4.36061 0
M  V30 328 H 35.6812 2.06741 3.7167 0
M  V30 329 N 33.9963 -1.19345 1.0293 0
M  V30 330 C 34.9063 -2.26245 0.620515 0
M  V30 331 C 35.9223 -1.70486 -0.347928 0
M  V30 332 O 37.0983 -2.00347 -0.205704 0
M  V30 333 C 34.1633 -3.46693 -0.0218957 0
M  V30 334 C 33.2243 -4.17632 0.994102 0
M  V30 335 C 32.4573 -5.32329 0.382253 0
M  V30 336 O 32.6803 -5.64552 -0.814676 0
M  V30 337 O 31.6143 -5.91664 1.10531 0
M  V30 338 H 35.4403 -2.63453 1.51083 0
M  V30 339 H 33.0253 -1.26207 0.799513 0
M  V30 340 H 34.9073 -4.19683 -0.380072 0
M  V30 341 H 33.5823 -3.11333 -0.886209 0
M  V30 342 H 32.4893 -3.4676 1.40387 0
M  V30 343 H 33.8223 -4.56964 1.8288 0
M  V30 344 N 35.4744 -0.807222 -1.35358 0
M  V30 345 C 36.7024 -0.400377 -2.02989 0
M  V30 346 C 37.1174 0.988859 -1.60832 0
M  V30 347 O 36.4744 1.63729 -0.806175 0
M  V30 348 C 36.5254 -0.474867 -3.58368 0
M  V30 349 O 36.2464 -1.80933 -3.98992 0
M  V30 350 C 37.7474 -0.0609112 -4.43258 0
M  V30 351 H 34.9674 -0.162587 -0.651004 0
M  V30 352 H 37.5114 -1.09102 -1.72965 0
M  V30 353 H 35.6664 0.167534 -3.87038 0
M  V30 354 H 36.0804 -1.77256 -4.9364 0
M  V30 355 H 37.5544 -0.164145 -5.51756 0
M  V30 356 H 38.0314 0.993831 -4.27808 0
M  V30 357 H 38.6374 -0.676492 -4.19885 0
M  V30 358 N 36.9525 1.47285 -0.560781 0
M  V30 359 C 38.1775 2.07359 -0.0410566 0
M  V30 360 C 38.6025 1.41017 1.24483 0
M  V30 361 O 37.9605 0.486368 1.74654 0
M  V30 362 C 38.0085 3.6035 0.134123 0
M  V30 363 O 37.1125 3.94681 1.19587 0
M  V30 364 H 36.4535 0.661887 -0.0529291 0
M  V30 365 H 38.9835 1.89252 -0.777482 0
M  V30 366 H 38.9935 4.0652 0.347207 0
M  V30 367 H 37.6685 4.08034 -0.805047 0
M  V30 368 H 36.2455 3.60251 0.962987 0
M  V30 369 N 38.4306 0.297415 1.54768 0
M  V30 370 C 39.3406 -0.58983 2.27064 0
M  V30 371 C 40.3566 -1.15144 1.30453 0
M  V30 372 O 41.5326 -1.17699 1.63428 0
M  V30 373 C 38.5976 -1.74714 2.9946 0
M  V30 374 C 37.6586 -1.21997 4.11601 0
M  V30 375 C 36.8916 -2.32212 4.80535 0
M  V30 376 O 37.1146 -3.52036 4.48806 0
M  V30 377 O 36.0486 -1.99106 5.68014 0
M  V30 378 H 39.8746 -0.00348199 3.037 0
M  V30 379 H 37.4596 0.0640035 1.49263 0
M  V30 380 H 39.3416 -2.42147 3.44881 0
M  V30 381 H 38.0166 -2.32016 2.25722 0
M  V30 382 H 36.9236 -0.511458 3.70587 0
M  V30 383 H 38.2566 -0.692419 4.87305 0
M  V30 384 N 39.9087 -1.5758 0.0250728 0
M  V30 385 C 40.8717 -2.08896 -0.943139 0
M  V30 386 C 41.8717 -1.00321 -1.25668 0
M  V30 387 O 43.0617 -1.26495 -1.19769 0
M  V30 388 C 40.1937 -2.55143 -2.26086 0
M  V30 389 H 41.3867 -2.95723 -0.498775 0
M  V30 390 H 38.9397 -1.54703 -0.222888 0
M  V30 391 H 39.6747 -1.71633 -2.75159 0
M  V30 392 H 39.4597 -3.34461 -2.04641 0
M  V30 393 H 40.9497 -2.95083 -2.95492 0
M  V30 394 N 41.3868 0.248026 -1.55636 0
M  V30 395 C 42.6328 0.973427 -1.78594 0
M  V30 396 C 42.9878 1.83007 -0.593823 0
M  V30 397 O 42.2808 1.87097 0.412961 0
M  V30 398 C 42.4748 1.86819 -3.04686 0
M  V30 399 C 42.3038 1.09965 -4.36048 0
M  V30 400 C 41.0738 0.805204 -4.98843 0
M  V30 401 C 43.2718 0.477783 -5.12076 0
M  V30 402 N 41.2538 0.0124859 -6.13899 0
M  V30 403 C 42.6248 -0.179565 -6.1974 0
M  V30 404 C 44.6798 0.388136 -4.96385 0
M  V30 405 C 43.3828 -0.91795 -7.13419 0
M  V30 406 C 45.4088 -0.336716 -5.90441 0
M  V30 407 C 44.7708 -0.982705 -6.97511 0
M  V30 408 H 40.8698 0.337348 -0.705493 0
M  V30 409 H 43.4538 0.24667 -1.93131 0
M  V30 410 H 41.6248 2.56698 -2.9148 0
M  V30 411 H 43.3568 2.52907 -3.15944 0
M  V30 412 H 40.1118 1.11671 -4.60246 0
M  V30 413 H 40.5358 -0.371933 -6.75978 0
M  V30 414 H 45.1778 0.873237 -4.13684 0
M  V30 415 H 42.8958 -1.41466 -7.95621 0
M  V30 416 H 46.4818 -0.406731 -5.80377 0
M  V30 417 H 45.3618 -1.53464 -7.69037 0
M  V30 418 N 42.8649 1.48995 0.513639 0
M  V30 419 C 44.1419 1.48338 1.27495 0
M  V30 420 C 44.5219 0.204065 2.10111 0
M  V30 421 O 43.8699 -0.813881 2.13514 0
M  V30 422 C 44.0799 2.75498 2.14247 0
M  V30 423 C 45.4279 3.24484 2.73852 0
M  V30 424 O 46.4519 2.76528 2.24523 0
M  V30 425 O 45.3109 4.07974 3.6362 0
M  V30 426 H 42.4049 0.593149 0.576284 0
M  V30 427 H 44.9509 1.61246 0.528948 0
M  V30 428 H 43.7229 3.60109 1.53092 0
M  V30 429 H 43.3459 2.6539 2.96064 0
M  V30 430 N 44.343 -0.763751 1.37857 0
M  V30 431 C 45.754 -1.3405 1.29952 0
M  V30 432 C 46.105 -1.96138 -0.0492898 0
M  V30 433 O 45.23 -1.94372 -0.951239 0
M  V30 434 C 45.825 -2.43729 2.35333 0
M  V30 435 C 44.384 -2.97151 2.31037 0
M  V30 436 C 43.531 -1.70438 2.18738 0
M  V30 437 H 46.482 -0.563396 1.48363 0
M  V30 438 H 46.503 -3.23412 2.00462 0
M  V30 439 H 46.015 -1.9851 3.33489 0
M  V30 440 H 44.116 -3.46724 1.3643 0
M  V30 441 H 44.229 -3.52221 3.24772 0
M  V30 442 H 42.593 -1.93673 1.65418 0
M  V30 443 H 43.376 -1.27312 3.18821 0
M  V30 444 N 45.8211 -1.22559 -0.990812 0
M  V30 445 C 47.2371 -0.985996 -1.255 0
M  V30 446 C 47.4371 0.319173 -1.98956 0
M  V30 447 O 46.4931 1.04127 -2.3003 0
M  V30 448 C 47.8061 -2.18607 -2.06474 0
M  V30 449 C 49.3541 -2.22985 -2.19651 0
M  V30 450 C 49.8291 -3.4255 -3.04012 0
M  V30 451 N 51.3201 -3.42725 -3.11599 0
M  V30 452 C 52.0551 -4.31892 -3.7717 0
M  V30 453 N 51.5511 -5.31279 -4.44651 0
M  V30 454 N 53.3441 -4.19662 -3.73952 0
M  V30 455 H 45.4951 -2.06469 -0.49841 0
M  V30 456 H 47.7581 -0.904853 -0.282747 0
M  V30 457 H 47.4641 -3.13267 -1.59865 0
M  V30 458 H 47.3381 -2.18838 -3.07229 0
M  V30 459 H 49.7251 -1.28871 -2.65474 0
M  V30 460 H 49.8061 -2.26791 -1.18319 0
M  V30 461 H 49.4501 -4.36965 -2.58889 0
M  V30 462 H 49.3801 -3.35984 -4.0549 0
M  V30 463 H 51.8711 -2.70807 -2.63575 0
M  V30 464 H 52.1841 -5.95593 -4.92431 0
M  V30 465 H 50.5291 -5.3519 -4.43392 0
M  V30 466 H 53.7201 -3.41268 -3.20396 0
M  V30 467 H 53.8931 -4.89358 -4.24774 0
M  V30 468 N 47.2992 1.18797 -1.03562 0
M  V30 469 C 48.5272 1.92599 -0.755869 0
M  V30 470 C 48.9422 1.75886 0.686271 0
M  V30 471 O 48.2992 1.08517 1.46732 0
M  V30 472 C 48.3502 3.44159 -1.10619 0
M  V30 473 O 48.0712 3.60341 -2.4917 0
M  V30 474 C 49.5722 4.3507 -0.850214 0
M  V30 475 H 46.7922 0.611587 -0.276048 0
M  V30 476 H 49.3362 1.50742 -1.38192 0
M  V30 477 H 47.4912 3.83823 -0.525194 0
M  V30 478 H 47.9052 4.54128 -2.62427 0
M  V30 479 H 49.3792 5.39989 -1.14523 0
M  V30 480 H 49.8562 4.38673 0.215176 0
M  V30 481 H 50.4622 4.01097 -1.41426 0
M  V30 482 N 48.7773 0.814389 1.34928 0
M  V30 483 C 49.7073 0.244827 2.32213 0
M  V30 484 C 50.6883 -0.634024 1.57842 0
M  V30 485 O 51.8733 -0.562676 1.8587 0
M  V30 486 C 49.0033 -0.601106 3.42058 0
M  V30 487 C 47.9573 0.179896 4.27622 0
M  V30 488 C 47.2833 -0.788237 5.28858 0
M  V30 489 C 48.5833 1.38329 5.03649 0
M  V30 490 H 50.2773 1.05763 2.80097 0
M  V30 491 H 47.8233 0.510029 1.34665 0
M  V30 492 H 49.7763 -1.00968 4.09125 0
M  V30 493 H 48.5003 -1.44688 2.92802 0
M  V30 494 H 47.1593 0.569739 3.62146 0
M  V30 495 H 46.8073 -1.62973 4.75866 0
M  V30 496 H 46.5073 -0.269942 5.8698 0
M  V30 497 H 48.0313 -1.19485 5.98795 0
M  V30 498 H 49.4453 1.04918 5.63618 0
M  V30 499 H 47.8423 1.83662 5.71304 0
M  V30 500 H 48.9123 2.16592 4.33839 0
M  V30 501 N 50.2554 -1.46986 0.568584 0
M  V30 502 C 51.1874 -2.28233 -0.210337 0
M  V30 503 C 52.2004 -1.37682 -0.868767 0
M  V30 504 O 53.3894 -1.62406 -0.740705 0
M  V30 505 C 50.4894 -3.12293 -1.3163 0
M  V30 506 C 49.6624 -4.30878 -0.7525 0
M  V30 507 C 48.7214 -4.96445 -1.74439 0
M  V30 508 O 47.7474 -5.54482 -1.286 0
M  V30 509 N 48.9494 -4.92171 -3.07812 0
M  V30 510 H 51.7144 -2.95723 0.486648 0
M  V30 511 H 49.2754 -1.56742 0.405409 0
M  V30 512 H 51.2674 -3.53022 -1.97883 0
M  V30 513 H 49.8374 -2.46971 -1.91636 0
M  V30 514 H 49.0574 -3.94104 0.0871128 0
M  V30 515 H 50.3454 -5.07558 -0.35536 0
M  V30 516 H 49.7434 -4.46239 -3.47688 0
M  V30 517 H 48.3004 -5.36884 -3.69592 0
M  V30 518 N 51.7335 -0.305618 -1.54608 0
M  V30 519 C 52.6965 0.555591 -2.22364 0
M  V30 520 C 53.6965 1.05768 -1.21119 0
M  V30 521 O 54.8865 0.952972 -1.45822 0
M  V30 522 C 52.0185 1.76974 -2.91364 0
M  V30 523 H 53.2115 -0.0364572 -2.99878 0
M  V30 524 H 50.7645 -0.0565007 -1.56198 0
M  V30 525 H 51.4995 2.40151 -2.17941 0
M  V30 526 H 51.2845 1.41732 -3.65588 0
M  V30 527 H 52.7745 2.38148 -3.43038 0
M  V30 528 N 53.2116 1.57565 -0.0334293 0
M  V30 529 C 54.1416 2.13511 0.945265 0
M  V30 530 C 55.1226 1.05231 1.33643 0
M  V30 531 O 56.3076 1.33084 1.41429 0
M  V30 532 C 53.4376 2.6657 2.22616 0
M  V30 533 C 52.3916 3.79676 1.97561 0
M  V30 534 C 51.7176 4.1918 3.31952 0
M  V30 535 C 53.0176 5.0557 1.31135 0
M  V30 536 H 54.7116 2.95538 0.479325 0
M  V30 537 H 52.2576 1.42166 0.229115 0
M  V30 538 H 54.2106 3.04344 2.91466 0
M  V30 539 H 52.9346 1.8171 2.71384 0
M  V30 540 H 51.5936 3.42347 1.31127 0
M  V30 541 H 51.2416 3.31296 3.78487 0
M  V30 542 H 50.9416 4.95402 3.15992 0
M  V30 543 H 52.4656 4.59541 4.02063 0
M  V30 544 H 53.8796 5.40903 1.89992 0
M  V30 545 H 52.2766 5.86818 1.25559 0
M  V30 546 H 53.3466 4.84062 0.284894 0
M  V30 547 N 54.6897 -0.239769 1.55765 0
M  V30 548 C 55.6367 -1.29696 1.90913 0
M  V30 549 C 56.6067 -1.47478 0.764164 0
M  V30 550 O 57.7917 -1.61345 1.01845 0
M  V30 551 C 54.9317 -2.64598 2.21544 0
M  V30 552 C 54.0447 -2.54765 3.48882 0
M  V30 553 C 53.1797 -3.82069 3.69049 0
M  V30 554 C 52.2187 -3.66883 4.89963 0
M  V30 555 N 51.3557 -4.86094 5.06614 0
M  V30 556 H 56.1957 -0.990224 2.81067 0
M  V30 557 H 53.7327 -0.477684 1.39128 0
M  V30 558 H 55.6907 -3.43132 2.3731 0
M  V30 559 H 54.3207 -2.93405 1.34585 0
M  V30 560 H 53.3727 -1.67763 3.41409 0
M  V30 561 H 54.6847 -2.39457 4.37563 0
M  V30 562 H 53.8387 -4.69046 3.84812 0
M  V30 563 H 52.5777 -4.00282 2.78614 0
M  V30 564 H 51.5827 -2.78289 4.74168 0
M  V30 565 H 52.8077 -3.50157 5.81865 0
M  V30 566 H 50.7537 -5.04655 4.19117 0
M  V30 567 H 50.6707 -4.73443 5.89396 0
M  V30 568 H 51.9387 -5.74549 5.26795 0
M  V30 569 N 56.1678 -1.49265 -0.50573 0
M  V30 570 C 57.4168 -1.57761 -1.25675 0
M  V30 571 C 57.7298 -0.267371 -1.93764 0
M  V30 572 O 58.9358 -0.230827 -2.70517 0
M  V30 573 C 57.3918 -2.78332 -2.28165 0
M  V30 574 C 56.9998 -4.16096 -1.66037 0
M  V30 575 C 58.7438 -2.96155 -3.04125 0
M  V30 576 C 56.6508 -5.27895 -2.6661 0
M  V30 577 H 55.5808 -0.587391 -0.472745 0
M  V30 578 H 58.2318 -1.75644 -0.53118 0
M  V30 579 H 56.6138 -2.53934 -3.03865 0
M  V30 580 H 57.7878 -4.50612 -0.963622 0
M  V30 581 H 56.1028 -4.03591 -1.02484 0
M  V30 582 H 58.6998 -3.76849 -3.79327 0
M  V30 583 H 59.0428 -2.06534 -3.61455 0
M  V30 584 H 59.5758 -3.2057 -2.35541 0
M  V30 585 H 56.3148 -6.1956 -2.14068 0
M  V30 586 H 55.8348 -4.97839 -3.34539 0
M  V30 587 H 57.5138 -5.57031 -3.29129 0
M  V30 588 N 57.6459 0.756429 -1.3826 0
M  V30 589 C 58.8709 1.55077 -1.37717 0
M  V30 590 C 59.2959 1.88073 0.03164 0
M  V30 591 O 58.6539 1.50364 1.01293 0
M  V30 592 C 58.7019 2.8283 -2.23695 0
M  V30 593 O 57.8059 3.77862 -1.6521 0
M  V30 594 H 57.1469 0.469152 -0.469885 0
M  V30 595 H 59.6769 0.935019 -1.81985 0
M  V30 596 H 59.6869 3.31783 -2.37453 0
M  V30 597 H 58.3619 2.58144 -3.2609 0
M  V30 598 H 56.9389 3.36555 -1.60578 0
M  V30 599 N 59.124 1.23083 0.984299 0
M  V30 600 C 60.054 1.03292 2.09411 0
M  V30 601 C 61.035 -0.048923 1.7003 0
M  V30 602 O 62.22 0.114967 1.93859 0
M  V30 603 C 59.35 0.619155 3.41736 0
M  V30 604 C 58.304 1.64791 3.95004 0
M  V30 605 C 57.63 1.0897 5.23478 0
M  V30 606 C 58.93 3.03999 4.24714 0
M  V30 607 H 60.624 1.96119 2.26225 0
M  V30 608 H 58.17 0.944344 1.08711 0
M  V30 609 H 60.123 0.467777 4.18796 0
M  V30 610 H 58.847 -0.344786 3.24775 0
M  V30 611 H 57.506 1.78721 3.20085 0
M  V30 612 H 57.154 0.11686 5.02864 0
M  V30 613 H 56.854 1.77704 5.60085 0
M  V30 614 H 58.378 0.950093 6.03163 0
M  V30 615 H 59.792 2.93393 4.92538 0
M  V30 616 H 58.189 3.69936 4.72512 0
M  V30 617 H 59.259 3.53285 3.32142 0
M  V30 618 N 60.6021 -1.18246 1.0419 0
M  V30 619 C 61.5651 -2.20128 0.638452 0
M  V30 620 C 62.5651 -1.57885 -0.304805 0
M  V30 621 O 63.7551 -1.73967 -0.0900369 0
M  V30 622 C 60.8871 -3.4084 -0.0637751 0
M  V30 623 H 62.0801 -2.57336 1.54007 0
M  V30 624 H 59.6331 -1.32152 0.834598 0
M  V30 625 H 60.3681 -3.09166 -0.979136 0
M  V30 626 H 60.1531 -3.8726 0.614198 0
M  V30 627 H 61.6431 -4.16274 -0.332512 0
M  V30 628 N 62.0802 -0.821533 -1.34494 0
M  V30 629 C 63.3262 -0.409552 -1.98622 0
M  V30 630 C 63.6592 1.0244 -1.64984 0
M  V30 631 O 62.9342 1.71325 -0.920758 0
M  V30 632 C 63.2172 -0.610458 -3.54888 0
M  V30 633 C 63.0702 -2.09043 -3.98273 0
M  V30 634 C 64.3892 -0.0455379 -4.40076 0
M  V30 635 H 61.5082 -0.15028 -0.721516 0
M  V30 636 H 64.1502 -1.03384 -1.59411 0
M  V30 637 H 62.3002 -0.079044 -3.8842 0
M  V30 638 H 63.9722 -2.68537 -3.75081 0
M  V30 639 H 62.2152 -2.58139 -3.48635 0
M  V30 640 H 62.8862 -2.18182 -5.07051 0
M  V30 641 H 65.3622 -0.499557 -4.1309 0
M  V30 642 H 64.2382 -0.215922 -5.48475 0
M  V30 643 H 64.4992 1.04939 -4.29465 0
M  V30 644 N 63.5583 1.46682 -0.576371 0
M  V30 645 C 64.8043 2.02712 -0.0596221 0
M  V30 646 C 65.1373 1.44765 1.29448 0
M  V30 647 O 64.4123 0.610355 1.84675 0
M  V30 648 C 64.6953 3.60098 0.0129503 0
M  V30 649 C 64.5483 4.28441 -1.3696 0
M  V30 650 C 65.8673 4.34224 0.71678 0
M  V30 651 H 62.9863 0.736637 -0.0231407 0
M  V30 652 H 65.6283 1.74898 -0.742351 0
M  V30 653 H 63.7783 3.83926 0.594378 0
M  V30 654 H 65.4503 4.15896 -1.9957 0
M  V30 655 H 63.6933 3.8805 -1.93907 0
M  V30 656 H 64.3643 5.3716 -1.27135 0
M  V30 657 H 66.8403 4.15503 0.222908 0
M  V30 658 H 65.7163 5.43936 0.73657 0
M  V30 659 H 65.9773 4.04823 1.77682 0
M  V30 660 N 65.0364 0.313813 1.54444 0
M  V30 661 C 65.9664 -0.549454 2.26943 0
M  V30 662 C 66.9474 -1.12741 1.27372 0
M  V30 663 O 68.1324 -1.15436 1.56167 0
M  V30 664 C 65.2624 -1.71523 3.01989 0
M  V30 665 C 64.2164 -1.26703 4.08816 0
M  V30 666 C 63.5424 -2.51898 4.71647 0
M  V30 667 C 64.8424 -0.388962 5.2085 0
M  V30 668 H 66.5364 0.0552661 2.99349 0
M  V30 669 H 64.0824 0.0280207 1.43973 0
M  V30 670 H 66.0354 -2.32535 3.51433 0
M  V30 671 H 64.7594 -2.34639 2.27183 0
M  V30 672 H 63.4184 -0.679896 3.6024 0
M  V30 673 H 63.0664 -3.13356 3.93468 0
M  V30 674 H 62.7664 -2.22605 5.43802 0
M  V30 675 H 64.2904 -3.1369 5.23861 0
M  V30 676 H 65.7044 -0.905107 5.6611 0
M  V30 677 H 64.1014 -0.18924 5.99802 0
M  V30 678 H 65.1714 0.582699 4.81386 0
M  V30 679 N 66.5145 -1.57545 0.0417849 0
M  V30 680 C 67.7395 -1.97035 -0.647455 0
M  V30 681 C 68.1645 -0.918775 -1.64135 0
M  V30 682 O 67.5225 0.119006 -1.80909 0
M  V30 683 C 67.5705 -3.35609 -1.31905 0
M  V30 684 O 66.6745 -3.3287 -2.43457 0
M  V30 685 H 66.0155 -0.64211 -0.169086 0
M  V30 686 H 68.5455 -2.04318 0.107399 0
M  V30 687 H 68.5555 -3.72126 -1.67291 0
M  V30 688 H 67.2305 -4.11685 -0.590586 0
M  V30 689 H 65.8075 -3.08087 -2.10088 0
M  V30 690 N 67.9926 0.231505 -1.5589 0
M  V30 691 C 69.2386 0.95877 -1.78705 0
M  V30 692 C 69.5716 1.8438 -0.609725 0
M  V30 693 O 68.8466 1.90521 0.391426 0
M  V30 694 C 69.1296 1.8062 -3.11526 0
M  V30 695 C 68.9826 0.948328 -4.39689 0
M  V30 696 C 70.3016 2.78585 -3.40703 0
M  V30 697 H 67.4206 0.347129 -0.650131 0
M  V30 698 H 70.0626 0.228259 -1.88624 0
M  V30 699 H 68.2126 2.42902 -3.03201 0
M  V30 700 H 69.8846 0.343016 -4.60023 0
M  V30 701 H 68.1276 0.253314 -4.3306 0
M  V30 702 H 68.7986 1.57543 -5.29041 0
M  V30 703 H 71.2746 2.26439 -3.49091 0
M  V30 704 H 70.1506 3.34988 -4.34826 0
M  V30 705 H 70.4116 3.55825 -2.62375 0
M  V30 706 N 69.4707 1.49531 0.497807 0
M  V30 707 C 70.7197 1.58426 1.24837 0
M  V30 708 C 71.0327 0.277643 1.93619 0
M  V30 709 O 72.2387 0.24517 2.70391 0
M  V30 710 C 70.6947 2.79538 2.26686 0
M  V30 711 C 70.3027 4.16971 1.63828 0
M  V30 712 C 72.0467 2.97764 3.0255 0
M  V30 713 C 69.9537 5.29301 2.63807 0
M  V30 714 H 68.8837 0.58989 0.469623 0
M  V30 715 H 71.5347 1.75923 0.521857 0
M  V30 716 H 69.9167 2.55542 3.02514 0
M  V30 717 H 71.0907 4.51116 0.939711 0
M  V30 718 H 69.4057 4.04129 1.00342 0
M  V30 719 H 72.0027 3.78856 3.77323 0
M  V30 720 H 72.3457 2.08448 3.60354 0
M  V30 721 H 72.8787 3.21815 2.33838 0
M  V30 722 H 69.6177 6.20687 2.10779 0
M  V30 723 H 69.1377 4.99606 3.31894 0
M  V30 724 H 70.8167 5.58768 3.2617 0
M  V30 725 N 70.9488 -0.749086 1.3866 0
M  V30 726 C 72.1768 -1.53834 1.38358 0
M  V30 727 C 72.5918 -1.88783 -0.0255219 0
M  V30 728 O 71.9488 -1.53101 -0.993292 0
M  V30 729 C 71.9998 -2.83468 2.2434 0
M  V30 730 O 71.7208 -2.50008 3.5976 0
M  V30 731 C 73.2218 -3.7758 2.32267 0
M  V30 732 H 70.4418 -0.47585 0.473083 0
M  V30 733 H 72.9858 -0.926726 1.82297 0
M  V30 734 H 71.1408 -3.40995 1.83851 0
M  V30 735 H 71.5548 -3.33182 4.05081 0
M  V30 736 H 73.0288 -4.65478 2.96706 0
M  V30 737 H 73.5058 -4.18334 1.33765 0
M  V30 738 H 74.1118 -3.25976 2.73166 0
M  V30 739 N 72.4269 -1.23603 -0.977757 0
M  V30 740 C 73.3569 -1.04401 -2.0886 0
M  V30 741 C 74.3379 0.0399052 -1.70053 0
M  V30 742 O 75.5229 -0.125246 -1.93796 0
M  V30 743 C 72.6529 -0.637269 -3.41403 0
M  V30 744 C 71.6069 -1.66883 -3.94124 0
M  V30 745 C 70.9329 -1.11745 -5.22893 0
M  V30 746 C 72.2329 -3.06247 -4.23096 0
M  V30 747 H 73.9269 -1.97316 -2.25182 0
M  V30 748 H 71.4729 -0.950096 -1.08209 0
M  V30 749 H 73.4259 -0.48998 -4.18542 0
M  V30 750 H 72.1499 0.327557 -3.24953 0
M  V30 751 H 70.8089 -1.80416 -3.19133 0
M  V30 752 H 70.4569 -0.143527 -5.02795 0
M  V30 753 H 70.1569 -1.80672 -5.59134 0
M  V30 754 H 71.6809 -0.982067 -6.02651 0
M  V30 755 H 73.0949 -2.96001 -4.90975 0
M  V30 756 H 71.4919 -3.72436 -4.70544 0
M  V30 757 H 72.5619 -3.55041 -3.30263 0
M  V30 758 N 73.905 1.17692 -1.04816 0
M  V30 759 C 74.868 2.19787 -0.650117 0
M  V30 760 C 75.868 1.58044 0.296427 0
M  V30 761 O 77.058 1.74012 0.0808097 0
M  V30 762 C 74.19 3.40869 0.0456987 0
M  V30 763 H 75.383 2.56516 -1.5537 0
M  V30 764 H 72.936 1.31708 -0.841594 0
M  V30 765 H 73.671 3.09681 0.962726 0
M  V30 766 H 73.456 3.86928 -0.634727 0
M  V30 767 H 74.946 4.16445 0.310432 0
M  V30 768 N 75.3831 0.828654 1.34056 0
M  V30 769 C 76.6111 0.43262 2.02326 0
M  V30 770 C 77.0261 -0.963147 1.62385 0
M  V30 771 O 76.3831 -1.62425 0.832121 0
M  V30 772 C 76.4341 0.53182 3.57567 0
M  V30 773 O 76.1551 1.87258 3.96063 0
M  V30 774 C 77.6561 0.131422 4.43105 0
M  V30 775 H 74.8761 0.172923 0.648335 0
M  V30 776 H 77.4201 1.1184 1.71208 0
M  V30 777 H 75.5751 -0.105938 3.87255 0
M  V30 778 H 75.9891 1.85087 4.90758 0
M  V30 779 H 77.4631 0.251904 5.51425 0
M  V30 780 H 77.9401 -0.925645 4.29335 0
M  V30 781 H 78.5461 0.743207 4.18756 0
M  V30 782 N 76.8612 -1.46375 0.584142 0
M  V30 783 C 78.1072 -2.02678 0.0703716 0
M  V30 784 C 78.4402 -1.4545 -1.28678 0
M  V30 785 O 77.7152 -0.62014 -1.84349 0
M  V30 786 C 77.9982 -3.60099 0.00614674 0
M  V30 787 C 77.8512 -4.27709 1.3923 0
M  V30 788 C 79.1702 -4.34598 -0.693742 0
M  V30 789 H 76.2892 -0.736504 0.027047 0
M  V30 790 H 78.9312 -1.74501 0.751615 0
M  V30 791 H 77.0812 -3.84236 -0.574009 0
M  V30 792 H 78.7532 -4.14832 2.01773 0
M  V30 793 H 76.9962 -3.87016 1.95962 0
M  V30 794 H 77.6672 -5.36478 1.29982 0
M  V30 795 H 80.1432 -4.15615 -0.200869 0
M  V30 796 H 79.0192 -5.44318 -0.707714 0
M  V30 797 H 79.2802 -4.05759 -1.75533 0
M  V30 798 N 78.3393 -0.321999 -1.54275 0
M  V30 799 C 79.2693 0.537411 -2.27231 0
M  V30 800 C 80.2503 1.12064 -1.27968 0
M  V30 801 O 81.4353 1.14606 -1.56777 0
M  V30 802 C 78.5653 1.69919 -3.02894 0
M  V30 803 C 77.5193 1.24534 -4.09482 0
M  V30 804 C 76.8453 2.49394 -4.72977 0
M  V30 805 C 78.1453 0.361335 -5.21049 0
M  V30 806 H 79.8393 -0.0711406 -2.99315 0
M  V30 807 H 77.3853 -0.0356555 -1.43956 0
M  V30 808 H 79.3383 2.30668 -3.52662 0
M  V30 809 H 78.0623 2.33431 -2.28424 0
M  V30 810 H 76.7213 0.660782 -3.60596 0
M  V30 811 H 76.3693 3.11265 -3.95124 0
M  V30 812 H 76.0693 2.19718 -5.44975 0
M  V30 813 H 77.5933 3.10908 -5.25517 0
M  V30 814 H 79.0073 0.875072 -5.66582 0
M  V30 815 H 77.4043 0.157428 -5.99893 0
M  V30 816 H 78.4743 -0.60822 -4.8107 0
M  V30 817 N 79.8174 1.5752 -0.0501392 0
M  V30 818 C 81.0424 1.97376 0.636997 0
M  V30 819 C 81.4674 0.927466 1.63645 0
M  V30 820 O 80.8254 -0.10941 1.8097 0
M  V30 821 C 80.8734 3.36304 1.30123 0
M  V30 822 O 79.9774 3.34156 2.41689 0
M  V30 823 H 79.3184 0.642998 0.165679 0
M  V30 824 H 81.8484 2.04258 -0.118233 0
M  V30 825 H 81.8584 3.73008 1.65315 0
M  V30 826 H 80.5334 4.11993 0.568746 0
M  V30 827 H 79.1104 3.09196 2.08451 0
M  V30 828 N 81.2955 -0.223234 1.56011 0
M  V30 829 C 82.2435 -1.29627 1.93131 0
M  V30 830 C 83.2375 -1.48608 0.813146 0
M  V30 831 O 84.4435 -1.49802 0.997966 0
M  V30 832 H 80.8185 -0.434563 0.613726 0
M  V30 833 H 82.7895 -0.955995 2.82672 0
M  V30 834 C 81.5385 -2.63983 2.26292 0
M  V30 835 H 80.8615 -2.50185 3.11846 0
M  V30 836 H 82.3015 -3.3788 2.56151 0
M  V30 837 C 80.7605 -3.18866 1.08747 0
M  V30 838 O 81.2905 -4.00192 0.347727 0
M  V30 839 N 79.4965 -2.77217 0.871743 0
M  V30 840 H 79.0435 -2.1119 1.47501 0
M  V30 841 H 79.0015 -3.1428 0.0869905 0
M  V30 842 N 82.7736 -1.49793 -0.48987 0
M  V30 843 C 83.7366 -1.66752 -1.57246 0
M  V30 844 C 84.7366 -0.538867 -1.51502 0
M  V30 845 O 85.9266 -0.805545 -1.54456 0
M  V30 846 C 83.0586 -1.67528 -2.96896 0
M  V30 847 H 84.2516 -2.63321 -1.43534 0
M  V30 848 H 81.8046 -1.38992 -0.714914 0
M  V30 849 H 82.5396 -0.725837 -3.16073 0
M  V30 850 H 82.3246 -2.49504 -3.02473 0
M  V30 851 H 83.8146 -1.82667 -3.7553 0
M  V30 852 N 84.2517 0.741722 -1.39055 0
M  V30 853 C 85.4987 1.50114 -1.35912 0
M  V30 854 C 85.8267 1.94443 0.0470937 0
M  V30 855 O 85.0817 1.66612 1.02659 0
M  V30 856 C 85.3807 2.7592 -2.27163 0
M  V30 857 C 85.0467 2.50493 -3.74919 0
M  V30 858 C 83.7087 2.43267 -4.1518 0
M  V30 859 C 86.0607 2.28585 -4.684 0
M  V30 860 C 83.3887 2.12166 -5.46994 0
M  V30 861 C 85.7407 1.99002 -6.00484 0
M  V30 862 C 84.4047 1.90241 -6.39816 0
M  V30 863 H 83.6747 0.549306 -0.497336 0
M  V30 864 H 86.3217 0.851896 -1.71508 0
M  V30 865 H 84.6267 3.45553 -1.84663 0
M  V30 866 H 86.3237 3.33923 -2.22028 0
M  V30 867 H 82.9137 2.56992 -3.43006 0
M  V30 868 H 87.0977 2.33139 -4.38132 0
M  V30 869 H 82.3537 2.03901 -5.76398 0
M  V30 870 H 86.5277 1.81057 -6.72452 0
M  V30 871 H 84.1547 1.65907 -7.41875 0
M  V30 872 N 85.7298 1.2412 0.971189 0
M  V30 873 C 86.9758 1.08041 1.71625 0
M  V30 874 C 87.3088 -0.380407 1.90438 0
M  V30 875 O 86.5838 -1.28127 1.46334 0
M  V30 876 C 86.8668 1.81682 3.10908 0
M  V30 877 C 86.7198 3.35493 2.99608 0
M  V30 878 C 88.0388 1.58671 4.10501 0
M  V30 879 H 85.1578 0.39388 0.622919 0
M  V30 880 H 87.7998 1.52743 1.13003 0
M  V30 881 H 85.9498 1.43684 3.60953 0
M  V30 882 H 87.6218 3.83068 2.57015 0
M  V30 883 H 85.8648 3.64052 2.35899 0
M  V30 884 H 86.5358 3.82217 3.98264 0
M  V30 885 H 89.0118 1.91719 3.69301 0
M  V30 886 H 87.8878 2.1266 5.06031 0
M  V30 887 H 88.1488 0.524161 4.38982 0
M  V30 888 N 87.2079 -1.17134 1.05439 0
M  V30 889 C 88.1379 -2.2342 0.678649 0
M  V30 890 C 89.1189 -1.66971 -0.32476 0
M  V30 891 O 90.3039 -1.93149 -0.201802 0
M  V30 892 C 87.4339 -3.47256 0.0552099 0
M  V30 893 C 86.3879 -4.16543 0.98365 0
M  V30 894 C 85.7139 -5.34231 0.223961 0
M  V30 895 C 87.0139 -4.68495 2.3089 0
M  V30 896 H 88.7079 -2.55105 1.56722 0
M  V30 897 H 86.2539 -1.2262 0.754998 0
M  V30 898 H 88.2069 -4.20828 -0.21946 0
M  V30 899 H 86.9309 -3.14846 -0.868319 0
M  V30 900 H 85.5899 -3.44887 1.24293 0
M  V30 901 H 85.2379 -4.98071 -0.702412 0
M  V30 902 H 84.9379 -5.81527 0.842627 0
M  V30 903 H 86.4619 -6.10585 -0.0433671 0
M  V30 904 H 87.8759 -5.33691 2.09396 0
M  V30 905 H 86.2729 -5.26379 2.88176 0
M  V30 906 H 87.3429 -3.85169 2.94572 0
M  V30 907 N 88.686 -0.835752 -1.33615 0
M  V30 908 C 89.914 -0.443344 -2.02094 0
M  V30 909 C 90.329 0.954522 -1.62894 0
M  V30 910 O 89.686 1.61982 -0.840723 0
M  V30 911 C 89.737 -0.550775 -3.5728 0
M  V30 912 O 89.458 -1.89356 -3.95065 0
M  V30 913 C 90.959 -0.154919 -4.43029 0
M  V30 914 H 88.179 -0.176359 -0.647409 0
M  V30 915 H 90.723 -1.12746 -1.70612 0
M  V30 916 H 88.878 0.0853997 -3.87306 0
M  V30 917 H 89.292 -1.87687 -4.89769 0
M  V30 918 H 90.766 -0.281144 -5.51284 0
M  V30 919 H 91.243 0.902863 -4.2982 0
M  V30 920 H 91.849 -0.765404 -4.18356 0
M  V30 921 N 90.1641 1.46063 -0.591896 0
M  V30 922 C 91.3921 2.06717 -0.0868936 0
M  V30 923 C 91.8071 1.43916 1.22203 0
M  V30 924 O 91.1641 0.547698 1.74088 0
M  V30 925 C 91.2151 3.6142 0.0758725 0
M  V30 926 O 90.9361 4.21874 -1.18126 0
M  V30 927 C 92.4371 4.39025 0.61416 0
M  V30 928 H 89.6571 0.668162 -0.0616518 0
M  V30 929 H 92.2011 1.8755 -0.815175 0
M  V30 930 H 90.3561 3.79983 0.754413 0
M  V30 931 H 90.7701 5.14861 -1.00092 0
M  V30 932 H 92.2441 5.4783 0.677193 0
M  V30 933 H 92.7211 4.07708 1.63312 0
M  V30 934 H 93.3271 4.2529 -0.0298142 0
M  V30 935 N 91.6422 0.330177 1.54103 0
M  V30 936 C 92.8912 -0.271336 1.99867 0
M  V30 937 C 93.2042 -1.52723 1.22209 0
M  V30 938 O 94.4102 -2.20515 1.58383 0
M  V30 939 C 92.8662 -0.534032 3.55916 0
M  V30 940 C 92.4742 0.705193 4.42415 0
M  V30 941 C 94.2182 -1.09514 4.1013 0
M  V30 942 C 92.1252 0.414035 5.89949 0
M  V30 943 H 91.0552 -0.105166 0.74663 0
M  V30 944 H 93.7062 0.443429 1.78062 0
M  V30 945 H 92.0882 -1.30915 3.73734 0
M  V30 946 H 93.2622 1.4804 4.36372 0
M  V30 947 H 91.5772 1.18698 3.99124 0
M  V30 948 H 94.1742 -1.3277 5.17954 0
M  V30 949 H 94.5172 -2.04656 3.62521 0
M  V30 950 H 95.0502 -0.381038 3.95971 0
M  V30 951 H 91.7892 1.33481 6.41766 0
M  V30 952 H 91.3092 -0.323336 5.98928 0
M  V30 953 H 92.9882 0.0263105 6.46995 0
M  V30 954 N 93.1203 -1.57491 0.0584922 0
M  V30 955 C 94.0503 -2.14988 -0.911178 0
M  V30 956 C 95.0313 -1.07343 -1.31952 0
M  V30 957 O 96.2163 -1.35318 -1.39294 0
M  V30 958 C 93.3463 -2.70078 -2.18347 0
M  V30 959 C 92.3003 -3.82771 -1.91495 0
M  V30 960 C 91.6263 -4.24408 -3.25241 0
M  V30 961 C 92.9263 -5.07592 -1.23075 0
M  V30 962 H 94.6203 -2.96263 -0.432246 0
M  V30 963 H 92.1663 -1.42512 -0.206469 0
M  V30 964 H 94.1193 -3.08943 -2.86587 0
M  V30 965 H 92.8433 -1.86005 -2.68458 0
M  V30 966 H 91.5023 -3.44389 -1.25664 0
M  V30 967 H 91.1503 -3.37275 -3.73168 0
M  V30 968 H 90.8503 -5.00366 -3.08071 0
M  V30 969 H 92.3743 -4.65879 -3.94701 0
M  V30 970 H 93.7883 -5.43857 -1.81362 0
M  V30 971 H 92.1853 -5.88741 -1.16207 0
M  V30 972 H 93.2553 -4.84454 -0.207847 0
M  V30 973 N 94.5984 0.214957 -1.56127 0
M  V30 974 C 95.5284 1.2695 -1.95974 0
M  V30 975 C 96.5094 1.48539 -0.828868 0
M  V30 976 O 97.6944 1.60611 -1.09168 0
M  V30 977 C 94.8244 2.61794 -2.28214 0
M  V30 978 C 93.7784 2.54851 -3.43853 0
M  V30 979 C 93.1044 3.93785 -3.61715 0
M  V30 980 C 94.4044 2.09065 -4.78632 0
M  V30 981 H 96.0984 0.93846 -2.84312 0
M  V30 982 H 93.6444 0.449996 -1.36788 0
M  V30 983 H 95.5974 3.35731 -2.54682 0
M  V30 984 H 94.3214 2.96599 -1.36736 0
M  V30 985 H 92.9804 1.8337 -3.17444 0
M  V30 986 H 92.6284 4.25908 -2.67602 0
M  V30 987 H 92.3284 3.90019 -4.39498 0
M  V30 988 H 93.8524 4.69374 -3.90539 0
M  V30 989 H 95.2664 2.7275 -5.04262 0
M  V30 990 H 93.6634 2.16346 -5.59745 0
M  V30 991 H 94.7334 1.04315 -4.73547 0
M  V30 992 N 96.0765 1.50051 0.48192 0
M  V30 993 C 97.3045 1.64237 1.25832 0
M  V30 994 C 97.7195 0.321336 1.86045 0
M  V30 995 O 97.0765 -0.695478 1.68729 0
M  V30 996 C 97.1275 2.72548 2.37487 0
M  V30 997 O 96.8485 3.99529 1.79745 0
M  V30 998 C 98.3495 2.9761 3.28547 0
M  V30 999 H 95.5695 0.55237 0.380957 0
M  V30 1000 H 98.1135 1.96207 0.576467 0
M  V30 1001 H 96.2685 2.43303 3.01467 0
M  V30 1002 H 96.6825 4.59342 2.5319 0
M  V30 1003 H 98.1565 3.77084 4.03127 0
M  V30 1004 H 98.6335 2.0826 3.86684 0
M  V30 1005 H 99.2395 3.28345 2.70314 0
M  V30 1006 N 97.5546 -0.734337 1.39446 0
M  V30 1007 C 98.9706 -1.03997 1.21065 0
M  V30 1008 C 99.1706 -2.01369 0.0727019 0
M  V30 1009 O 98.2266 -2.45856 -0.575426 0
M  V30 1010 C 99.5396 -1.60163 2.54496 0
M  V30 1011 C 101.088 -1.7224 2.61347 0
M  V30 1012 C 101.563 -2.31814 3.95002 0
M  V30 1013 N 103.054 -2.39223 3.96644 0
M  V30 1014 C 103.789 -2.86258 4.96834 0
M  V30 1015 N 103.285 -3.33184 6.07421 0
M  V30 1016 N 105.078 -2.85473 4.84213 0
M  V30 1017 H 97.2286 -0.0885624 2.12215 0
M  V30 1018 H 99.4916 -0.10191 0.942506 0
M  V30 1019 H 99.1976 -0.960811 3.38321 0
M  V30 1020 H 99.0716 -2.5896 2.74262 0
M  V30 1021 H 101.459 -2.35443 1.77906 0
M  V30 1022 H 101.54 -0.720939 2.4543 0
M  V30 1023 H 101.184 -1.69238 4.78875 0
M  V30 1024 H 101.114 -3.32638 4.08239 0
M  V30 1025 H 103.605 -2.06057 3.16779 0
M  V30 1026 H 103.918 -3.67586 6.7978 0
M  V30 1027 H 102.263 -3.31191 6.11013 0
M  V30 1028 H 105.454 -2.48136 3.96921 0
M  V30 1029 H 105.627 -3.21814 5.62441 0
M  V30 1030 N 99.0327 -1.24633 -0.964593 0
M  V30 1031 C 99.9797 -1.04144 -2.05968 0
M  V30 1032 C 100.95 0.046262 -1.66036 0
M  V30 1033 O 102.135 -0.108972 -1.90489 0
M  V30 1034 C 99.2747 -0.65563 -3.38815 0
M  V30 1035 C 98.3877 -1.81714 -3.91923 0
M  V30 1036 C 97.5227 -1.37662 -5.13052 0
M  V30 1037 C 96.5617 -2.50788 -5.58365 0
M  V30 1038 N 95.6987 -2.07582 -6.70712 0
M  V30 1039 H 100.539 -1.9787 -2.22827 0
M  V30 1040 H 98.0757 -0.9855 -1.09208 0
M  V30 1041 H 100.034 -0.412954 -4.15151 0
M  V30 1042 H 98.6637 0.244627 -3.21872 0
M  V30 1043 H 97.7157 -2.1734 -3.12198 0
M  V30 1044 H 99.0277 -2.66705 -4.21509 0
M  V30 1045 H 98.1817 -1.093 -5.96773 0
M  V30 1046 H 96.9207 -0.497293 -4.85158 0
M  V30 1047 H 95.9257 -2.79906 -4.73215 0
M  V30 1048 H 97.1507 -3.39283 -5.88272 0
M  V30 1049 H 95.0967 -1.22051 -6.44546 0
M  V30 1050 H 95.0137 -2.86125 -6.99763 0
M  V30 1051 H 96.2817 -1.82369 -7.57867 0
M  V30 1052 N 100.511 1.16574 -1.06058 0
M  V30 1053 C 101.441 2.23057 -0.690488 0
M  V30 1054 C 102.422 1.67141 0.315901 0
M  V30 1055 O 103.607 1.93253 0.191556 0
M  V30 1056 C 100.737 3.47222 -0.073625 0
M  V30 1057 C 99.6908 4.16016 -1.00573 0
M  V30 1058 C 99.0168 5.34104 -0.252289 0
M  V30 1059 C 100.317 4.67264 -2.33371 0
M  V30 1060 H 102.011 2.54271 -1.58072 0
M  V30 1061 H 99.5568 1.22218 -0.76149 0
M  V30 1062 H 101.51 4.20939 0.19714 0
M  V30 1063 H 100.234 3.15302 0.85161 0
M  V30 1064 H 98.8928 3.44223 -1.2612 0
M  V30 1065 H 98.5408 4.98437 0.675988 0
M  V30 1066 H 98.2408 5.81072 -0.873455 0
M  V30 1067 H 99.7648 6.10599 0.0109857 0
M  V30 1068 H 101.179 5.32573 -2.12223 0
M  V30 1069 H 99.5758 5.24843 -2.90963 0
M  V30 1070 H 100.646 3.83602 -2.96611 0
M  V30 1071 N 101.989 0.842826 1.3317 0
M  V30 1072 C 102.939 0.250877 2.26616 0
M  V30 1073 C 103.923 -0.596427 1.49437 0
M  V30 1074 O 105.115 -0.447747 1.71243 0
M  V30 1075 C 102.244 -0.569779 3.38539 0
M  V30 1076 C 101.33 0.289254 4.23112 0
M  V30 1077 N 101.721 1.36987 4.86897 0
M  V30 1078 C 100.019 0.0769631 4.45934 0
M  V30 1079 C 100.72 1.89737 5.49886 0
M  V30 1080 N 99.6959 1.19827 5.30229 0
M  V30 1081 H 103.498 1.07718 2.73448 0
M  V30 1082 H 101.012 0.687693 1.47121 0
M  V30 1083 H 103.009 -1.01018 4.04476 0
M  V30 1084 H 101.669 -1.39401 2.93253 0
M  V30 1085 H 102.68 1.75277 4.87338 0
M  V30 1086 H 99.3569 -0.713507 4.11358 0
M  V30 1087 H 100.747 2.80253 6.10662 0
M  V30 1088 N 103.467 -1.45747 0.599634 0
M  V30 1089 C 104.695 -2.06668 0.0978551 0
M  V30 1090 C 105.11 -1.44562 -1.21439 0
M  V30 1091 O 104.467 -0.556923 -1.73795 0
M  V30 1092 C 104.518 -3.61456 -0.0567044 0
M  V30 1093 O 104.239 -4.21242 1.20361 0
M  V30 1094 C 105.74 -4.39345 -0.590869 0
M  V30 1095 H 102.96 -0.667825 0.0651943 0
M  V30 1096 H 105.504 -1.87115 0.82511 0
M  V30 1097 H 103.659 -3.80378 -0.734251 0
M  V30 1098 H 104.073 -5.14323 1.02821 0
M  V30 1099 H 105.547 -5.48182 -0.648131 0
M  V30 1100 H 106.024 -4.08568 -1.61147 0
M  V30 1101 H 106.63 -4.25268 0.0523679 0
M  V30 1102 N 104.945 -0.338344 -1.53925 0
M  V30 1103 C 106.356 0.146651 -1.86123 0
M  V30 1104 C 106.707 1.5042 -1.2597 0
M  V30 1105 O 105.832 2.08723 -0.571294 0
M  V30 1106 C 106.427 0.272879 -3.37699 0
M  V30 1107 C 104.986 0.702103 -3.69794 0
M  V30 1108 C 104.133 -0.167304 -2.76795 0
M  V30 1109 H 107.084 -0.558123 -1.48562 0
M  V30 1110 H 107.105 1.10128 -3.64214 0
M  V30 1111 H 106.617 -0.715307 -3.81451 0
M  V30 1112 H 104.718 1.6995 -3.31584 0
M  V30 1113 H 104.831 0.495604 -4.7653 0
M  V30 1114 H 103.195 0.359527 -2.5215 0
M  V30 1115 H 103.978 -1.15253 -3.23375 0
M  V30 1116 N 106.423 1.57458 -0.0668435 0
M  V30 1117 C 107.386 2.11323 0.887422 0
M  V30 1118 C 108.386 1.03618 1.22964 0
M  V30 1119 O 109.576 1.29626 1.16373 0
M  V30 1120 C 106.708 2.61048 2.19242 0
M  V30 1121 H 107.901 2.96942 0.420194 0
M  V30 1122 H 105.454 1.55239 0.181793 0
M  V30 1123 H 106.189 1.78868 2.70512 0
M  V30 1124 H 105.974 3.39769 1.95702 0
M  V30 1125 H 107.464 3.02814 2.87565 0
M  V30 1126 N 107.901 -0.206675 1.56239 0
M  V30 1127 C 108.849 -1.27571 1.94495 0
M  V30 1128 C 109.843 -1.47737 0.828862 0
M  V30 1129 O 111.049 -1.48735 1.0138 0
M  V30 1130 H 107.424 -0.428029 0.6183 0
M  V30 1131 H 109.395 -0.925961 2.8367 0
M  V30 1132 C 108.144 -2.61568 2.29079 0
M  V30 1133 H 107.467 -2.46863 3.14482 0
M  V30 1134 H 108.907 -3.35144 2.5972 0
M  V30 1135 C 107.366 -3.17695 1.12123 0
M  V30 1136 O 107.896 -3.99801 0.390153 0
M  V30 1137 N 106.102 -2.76276 0.901097 0
M  V30 1138 H 105.649 -2.09613 1.49733 0
M  V30 1139 H 105.607 -3.1417 0.120319 0
M  V30 1140 N 109.379 -1.50304 -0.473955 0
M  V30 1141 C 110.609 -1.64663 -1.24778 0
M  V30 1142 C 111.017 -0.328174 -1.86332 0
M  V30 1143 O 110.36 0.699536 -1.69859 0
M  V30 1144 C 110.422 -2.6778 -2.39863 0
M  V30 1145 C 110.086 -4.11413 -1.98969 0
M  V30 1146 C 111.083 -4.97372 -1.51385 0
M  V30 1147 C 108.768 -4.57312 -2.07777 0
M  V30 1148 C 110.762 -6.27277 -1.13148 0
M  V30 1149 C 108.449 -5.87223 -1.69152 0
M  V30 1150 C 109.447 -6.72031 -1.21915 0
M  V30 1151 O 109.135 -7.99518 -0.838237 0
M  V30 1152 H 108.867 -0.556602 -0.383627 0
M  V30 1153 H 111.421 -1.9726 -0.572491 0
M  V30 1154 H 109.651 -2.30419 -3.10554 0
M  V30 1155 H 111.34 -2.71388 -3.01833 0
M  V30 1156 H 112.106 -4.63128 -1.44004 0
M  V30 1157 H 107.985 -3.91449 -2.43493 0
M  V30 1158 H 111.529 -6.93425 -0.762077 0
M  V30 1159 H 107.426 -6.20989 -1.76191 0
M  V30 1160 H 108.194 -8.12764 -0.967339 0
M  V30 1161 N 110.857 0.726932 -1.39834 0
M  V30 1162 C 111.787 1.85405 -1.41941 0
M  V30 1163 C 112.768 1.67751 -0.281728 0
M  V30 1164 O 113.953 1.8795 -0.488717 0
M  V30 1165 C 111.083 3.23243 -1.2701 0
M  V30 1166 C 110.037 3.55549 -2.38262 0
M  V30 1167 C 109.363 4.9241 -2.08415 0
M  V30 1168 C 110.663 3.577 -3.80589 0
M  V30 1169 H 112.357 1.83899 -2.36266 0
M  V30 1170 H 109.903 0.883349 -1.13723 0
M  V30 1171 H 111.856 4.01775 -1.27103 0
M  V30 1172 H 110.58 3.25296 -0.291564 0
M  V30 1173 H 109.239 2.79351 -2.37399 0
M  V30 1174 H 108.887 4.91052 -1.0898 0
M  V30 1175 H 108.587 5.14992 -2.82943 0
M  V30 1176 H 110.111 5.73289 -2.10171 0
M  V30 1177 H 111.525 4.26293 -3.83337 0
M  V30 1178 H 109.922 3.91804 -4.54543 0
M  V30 1179 H 110.992 2.57328 -4.10987 0
M  V30 1180 N 112.336 1.25143 0.95797 0
M  V30 1181 C 113.585 1.0909 1.69654 0
M  V30 1182 C 113.898 -0.368548 1.92097 0
M  V30 1183 O 115.104 -0.649455 2.63618 0
M  V30 1184 C 113.56 1.90395 3.05414 0
M  V30 1185 C 113.168 3.4081 2.90779 0
M  V30 1186 C 114.912 1.82901 3.83076 0
M  V30 1187 C 112.819 4.14423 4.21909 0
M  V30 1188 H 111.749 0.404625 0.636235 0
M  V30 1189 H 114.4 1.4931 1.06672 0
M  V30 1190 H 112.782 1.42996 3.69281 0
M  V30 1191 H 113.956 3.95859 2.35865 0
M  V30 1192 H 112.271 3.49361 2.26575 0
M  V30 1193 H 114.868 2.35196 4.80195 0
M  V30 1194 H 115.211 0.796224 4.08615 0
M  V30 1195 H 115.744 2.28033 3.25954 0
M  V30 1196 H 112.483 5.18102 4.01561 0
M  V30 1197 H 112.003 3.64159 4.76601 0
M  V30 1198 H 113.682 4.21956 4.90471 0
M  V30 1199 N 113.814 -1.1601 1.06675 0
M  V30 1200 C 115.062 -1.86264 0.784229 0
M  V30 1201 C 115.383 -1.82328 -0.691488 0
M  V30 1202 O 114.653 -1.25947 -1.50047 0
M  V30 1203 H 113.233 -0.689621 0.28711 0
M  V30 1204 H 115.895 -1.40664 1.34906 0
M  V30 1205 H 114.991 -2.91595 1.11259 0
M  V30 1206 N 115.292 -0.849877 -1.32721 0
M  V30 1207 C 116.517 -0.463856 -2.02146 0
M  V30 1208 C 116.942 0.930449 -1.63476 0
M  V30 1209 O 116.3 1.61033 -0.832952 0
M  V30 1210 C 116.348 -0.604955 -3.55489 0
M  V30 1211 O 115.452 0.36425 -4.10788 0
M  V30 1212 H 114.793 -0.187046 -0.637111 0
M  V30 1213 H 117.323 -1.14775 -1.69375 0
M  V30 1214 H 117.333 -0.490696 -4.05038 0
M  V30 1215 H 116.008 -1.62174 -3.82978 0
M  V30 1216 H 114.585 0.206628 -3.72327 0
M  V30 1217 N 116.77 1.45427 -0.607355 0
M  V30 1218 C 117.7 2.3329 0.0989352 0
M  V30 1219 C 118.681 1.46816 0.859007 0
M  V30 1220 O 119.866 1.75588 0.829604 0
M  V30 1221 C 116.996 3.29518 1.09705 0
M  V30 1222 C 115.95 4.25626 0.450206 0
M  V30 1223 C 115.276 5.11542 1.55655 0
M  V30 1224 C 116.576 5.18505 -0.628455 0
M  V30 1225 H 118.27 2.92595 -0.634716 0
M  V30 1226 H 115.816 1.40696 -0.306681 0
M  V30 1227 H 117.769 3.89855 1.59971 0
M  V30 1228 H 116.493 2.68372 1.86129 0
M  V30 1229 H 115.152 3.66586 -0.0315886 0
M  V30 1230 H 114.8 4.46765 2.31107 0
M  V30 1231 H 114.5 5.76647 1.12925 0
M  V30 1232 H 116.024 5.74748 2.06148 0
M  V30 1233 H 117.438 5.72916 -0.209877 0
M  V30 1234 H 115.835 5.92085 -0.977489 0
M  V30 1235 H 116.905 4.60948 -1.50514 0
M  V30 1236 N 118.248 0.346503 1.53744 0
M  V30 1237 C 119.211 -0.496439 2.23759 0
M  V30 1238 C 120.211 -1.0252 1.2388 0
M  V30 1239 O 121.401 -0.913974 1.48297 0
M  V30 1240 C 118.533 -1.69187 2.95954 0
M  V30 1241 H 119.726 0.115952 2.99676 0
M  V30 1242 H 117.279 0.0978939 1.55993 0
M  V30 1243 H 118.014 -2.34288 2.24231 0
M  V30 1244 H 117.799 -1.31989 3.69217 0
M  V30 1245 H 119.289 -2.28969 3.49232 0
M  V30 1246 N 119.726 -1.57421 0.075193 0
M  V30 1247 C 120.954 -1.97946 -0.602076 0
M  V30 1248 C 121.369 -0.953674 -1.62943 0
M  V30 1249 O 120.726 0.0592551 -1.82404 0
M  V30 1250 C 120.777 -3.38546 -1.26762 0
M  V30 1251 O 120.498 -4.37195 -0.281376 0
M  V30 1252 C 121.999 -3.93966 -2.03239 0
M  V30 1253 H 119.219 -0.650918 -0.162931 0
M  V30 1254 H 121.763 -2.03959 0.148601 0
M  V30 1255 H 119.918 -3.33609 -1.96936 0
M  V30 1256 H 120.332 -5.18975 -0.759267 0
M  V30 1257 H 121.806 -4.94555 -2.45193 0
M  V30 1258 H 122.283 -3.30693 -2.8903 0
M  V30 1259 H 122.889 -4.02315 -1.37924 0
M  V30 1260 N 121.204 0.198386 -1.56346 0
M  V30 1261 C 122.432 0.935572 -1.84539 0
M  V30 1262 C 122.847 1.76989 -0.657281 0
M  V30 1263 O 122.204 1.78626 0.374043 0
M  V30 1264 C 122.255 1.8344 -3.11499 0
M  V30 1265 O 121.976 1.03377 -4.25728 0
M  V30 1266 C 123.477 2.68355 -3.52846 0
M  V30 1267 H 120.697 0.273126 -0.612897 0
M  V30 1268 H 123.241 0.20663 -2.03453 0
M  V30 1269 H 121.396 2.51701 -2.94492 0
M  V30 1270 H 121.81 1.64599 -4.98003 0
M  V30 1271 H 123.284 3.27085 -4.44657 0
M  V30 1272 H 123.761 3.41901 -2.75681 0
M  V30 1273 H 124.367 2.05471 -3.72373 0
M  V30 1274 N 122.682 1.50554 0.465978 0
M  V30 1275 C 123.959 1.5232 1.22712 0
M  V30 1276 C 124.339 0.270807 2.09356 0
M  V30 1277 O 123.687 -0.745541 2.15995 0
M  V30 1278 C 123.897 2.82175 2.05374 0
M  V30 1279 C 125.245 3.33033 2.6339 0
M  V30 1280 O 126.269 2.83531 2.15612 0
M  V30 1281 O 125.128 4.19336 3.50456 0
M  V30 1282 H 122.222 0.611183 0.557122 0
M  V30 1283 H 124.768 1.62847 0.477381 0
M  V30 1284 H 123.54 3.64797 1.41558 0
M  V30 1285 H 123.163 2.74675 2.87471 0
M  V30 1286 N 124.16 -0.719506 1.40217 0
M  V30 1287 C 125.09 -1.8465 1.42922 0
M  V30 1288 C 126.071 -1.67599 0.29062 0
M  V30 1289 O 127.256 -1.87688 0.498677 0
M  V30 1290 C 124.386 -3.22565 1.28722 0
M  V30 1291 C 123.34 -3.54281 2.40144 0
M  V30 1292 C 122.666 -4.91298 2.11023 0
M  V30 1293 C 123.966 -3.55676 3.82481 0
M  V30 1294 H 125.66 -1.82644 2.37237 0
M  V30 1295 H 123.206 -0.877305 1.1419 0
M  V30 1296 H 125.159 -4.01095 1.29232 0
M  V30 1297 H 123.883 -3.25137 0.308811 0
M  V30 1298 H 122.542 -2.78088 2.38877 0
M  V30 1299 H 122.19 -4.90468 1.11582 0
M  V30 1300 H 121.89 -5.13485 2.8567 0
M  V30 1301 H 123.414 -5.72166 2.13209 0
M  V30 1302 H 124.828 -4.24254 3.85592 0
M  V30 1303 H 123.225 -3.89388 4.56614 0
M  V30 1304 H 124.295 -2.55144 4.12346 0
M  V30 1305 N 125.638 -1.25649 -0.95132 0
M  V30 1306 C 126.568 -1.08808 -2.06599 0
M  V30 1307 C 127.549 0.00382547 -1.701 0
M  V30 1308 O 128.734 -0.166325 -1.93486 0
M  V30 1309 C 125.864 -0.709542 -3.39975 0
M  V30 1310 C 124.818 -1.75206 -3.90496 0
M  V30 1311 C 124.144 -1.22811 -5.20405 0
M  V30 1312 C 125.444 -3.15153 -4.16504 0
M  V30 1313 H 127.138 -2.02048 -2.20946 0
M  V30 1314 H 124.684 -0.972835 -1.06169 0
M  V30 1315 H 126.637 -0.578649 -4.17408 0
M  V30 1316 H 125.361 0.258556 -3.25575 0
M  V30 1317 H 124.02 -1.87145 -3.15234 0
M  V30 1318 H 123.668 -0.250145 -5.02378 0
M  V30 1319 H 123.368 -1.92492 -5.55176 0
M  V30 1320 H 124.892 -1.10968 -6.00432 0
M  V30 1321 H 126.306 -3.06349 -4.84586 0
M  V30 1322 H 124.703 -3.82333 -4.62538 0
M  V30 1323 H 125.773 -3.61966 -3.22658 0
M  V30 1324 N 127.117 1.15442 -1.07289 0
M  V30 1325 C 128.363 1.86489 -0.796846 0
M  V30 1326 C 128.696 1.82078 0.675371 0
M  V30 1327 O 127.971 1.24346 1.4956 0
M  V30 1328 C 128.254 3.35626 -1.30489 0
M  V30 1329 C 128.107 3.48673 -2.84161 0
M  V30 1330 C 129.426 4.30357 -0.920907 0
M  V30 1331 H 126.545 0.677144 -0.290939 0
M  V30 1332 H 129.187 1.35633 -1.33056 0
M  V30 1333 H 127.337 3.79068 -0.850883 0
M  V30 1334 H 129.009 3.14099 -3.37846 0
M  V30 1335 H 127.252 2.90253 -3.22391 0
M  V30 1336 H 127.923 4.53453 -3.14777 0
M  V30 1337 H 130.399 3.94871 -1.3121 0
M  V30 1338 H 129.275 5.33193 -1.30372 0
M  V30 1339 H 129.536 4.4176 0.173226 0
M  V30 1340 N 128.595 0.856903 1.32268 0
M  V30 1341 C 129.82 0.474569 2.01897 0
M  V30 1342 C 130.245 -0.921766 1.63967 0
M  V30 1343 O 129.603 -1.60589 0.84148 0
M  V30 1344 C 129.651 0.623799 3.55164 0
M  V30 1345 O 128.755 -0.342459 4.10976 0
M  V30 1346 H 128.096 0.190422 0.63611 0
M  V30 1347 H 130.626 1.15672 1.68764 0
M  V30 1348 H 130.636 0.512169 4.04773 0
M  V30 1349 H 129.311 1.64202 3.82113 0
M  V30 1350 H 127.888 -0.18688 3.72431 0
M  V30 1351 N 130.073 -1.45103 0.615059 0
M  V30 1352 C 131.322 -2.01396 0.110718 0
M  V30 1353 C 131.635 -1.48834 -1.26916 0
M  V30 1354 O 132.841 -1.97152 -1.86664 0
M  V30 1355 C 131.297 -3.59599 0.14723 0
M  V30 1356 C 130.905 -4.21158 1.52743 0
M  V30 1357 C 132.649 -4.23428 -0.30148 0
M  V30 1358 C 130.556 -5.71535 1.51992 0
M  V30 1359 H 129.486 -0.753061 0.0376241 0
M  V30 1360 H 132.137 -1.66494 0.77149 0
M  V30 1361 H 130.519 -3.91724 -0.580339 0
M  V30 1362 H 131.693 -4.00594 2.2773 0
M  V30 1363 H 130.008 -3.69552 1.91886 0
M  V30 1364 H 132.605 -5.33703 -0.326392 0
M  V30 1365 H 132.948 -3.94629 -1.32565 0
M  V30 1366 H 133.481 -3.96047 0.373065 0
M  V30 1367 H 130.22 -6.05044 2.52193 0
M  V30 1368 H 129.74 -5.94268 0.81274 0
M  V30 1369 H 131.419 -6.34873 1.24681 0
M  V30 1370 N 131.551 -0.354651 -1.53558 0
M  V30 1371 C 132.481 0.489091 -2.2832 0
M  V30 1372 C 133.462 1.09324 -1.30316 0
M  V30 1373 O 134.647 1.11255 -1.59173 0
M  V30 1374 C 131.777 1.63456 -3.0643 0
M  V30 1375 C 130.731 1.1582 -4.12031 0
M  V30 1376 C 130.057 2.39305 -4.7816 0
M  V30 1377 C 131.357 0.250731 -5.21698 0
M  V30 1378 H 133.051 -0.134614 -2.99097 0
M  V30 1379 H 130.597 -0.0661826 -1.43848 0
M  V30 1380 H 132.55 2.23136 -3.57475 0
M  V30 1381 H 131.274 2.28533 -2.33325 0
M  V30 1382 H 129.933 0.584146 -3.61916 0
M  V30 1383 H 129.581 3.02814 -4.01637 0
M  V30 1384 H 129.281 2.08109 -5.49513 0
M  V30 1385 H 130.805 2.99691 -5.31994 0
M  V30 1386 H 132.219 0.754695 -5.68311 0
M  V30 1387 H 130.616 0.0301468 -6.00092 0
M  V30 1388 H 131.686 -0.710125 -4.79672 0
M  V30 1389 N 133.029 1.57378 -0.0835403 0
M  V30 1390 C 134.275 1.94217 0.583733 0
M  V30 1391 C 134.608 0.964653 1.68547 0
M  V30 1392 O 133.883 -0.00422258 1.945 0
M  V30 1393 C 134.166 3.41253 1.14972 0
M  V30 1394 C 134.019 4.49768 0.0538277 0
M  V30 1395 C 135.338 3.89352 2.05166 0
M  V30 1396 H 132.457 0.706233 0.210724 0
M  V30 1397 H 135.099 1.89392 -0.1519 0
M  V30 1398 H 133.249 3.45496 1.77665 0
M  V30 1399 H 134.921 4.57641 -0.579851 0
M  V30 1400 H 133.164 4.29432 -0.614068 0
M  V30 1401 H 133.835 5.49817 0.490452 0
M  V30 1402 H 136.311 3.87189 1.52393 0
M  V30 1403 H 135.187 4.92822 2.41698 0
M  V30 1404 H 135.448 3.27973 2.96456 0
M  V30 1405 N 134.507 -0.190092 1.56449 0
M  V30 1406 C 135.44 -1.26375 1.90012 0
M  V30 1407 C 136.418 -1.43705 0.760765 0
M  V30 1408 O 137.602 -1.59014 1.01226 0
M  V30 1409 C 134.729 -2.62962 2.13468 0
M  V30 1410 C 133.775 -2.62474 3.36169 0
M  V30 1411 S 134.608 -2.13412 4.91137 0
M  V30 1412 C 135.764 -3.51812 5.17667 0
M  V30 1413 H 135.997 -0.977181 2.80782 0
M  V30 1414 H 133.53 -0.393814 1.49293 0
M  V30 1415 H 135.488 -3.41583 2.27664 0
M  V30 1416 H 134.149 -2.88828 1.23439 0
M  V30 1417 H 133.342 -3.62918 3.49723 0
M  V30 1418 H 132.944 -1.91937 3.20992 0
M  V30 1419 H 135.236 -4.47706 5.08494 0
M  V30 1420 H 136.179 -3.43148 6.19399 0
M  V30 1421 H 136.587 -3.46956 4.45288 0
M  V30 1422 N 135.985 -1.50799 -0.457987 0
M  V30 1423 C 137.396 -1.55152 -1.0385 0
M  V30 1424 C 137.747 -0.362719 -1.92818 0
M  V30 1425 O 136.872 0.522915 -2.09987 0
M  V30 1426 C 137.467 -2.81173 -1.89017 0
M  V30 1427 C 136.026 -2.88164 -2.42154 0
M  V30 1428 C 135.173 -2.49591 -1.20829 0
M  V30 1429 H 138.124 -1.56874 -0.240068 0
M  V30 1430 H 138.145 -2.63769 -2.74238 0
M  V30 1431 H 137.657 -3.67677 -1.24238 0
M  V30 1432 H 135.758 -2.06042 -3.10447 0
M  V30 1433 H 135.871 -3.91356 -2.76364 0
M  V30 1434 H 134.235 -2.02322 -1.54719 0
M  V30 1435 H 135.018 -3.38418 -0.576927 0
M  V30 1436 N 137.463 0.71206 -1.40597 0
M  V30 1437 C 138.712 1.46754 -1.38369 0
M  V30 1438 C 139.025 1.95598 0.0097839 0
M  V30 1439 O 140.231 2.71059 0.154677 0
M  V30 1440 C 138.687 2.65289 -2.43207 0
M  V30 1441 C 138.295 2.23301 -3.88382 0
M  V30 1442 C 140.039 3.43008 -2.50091 0
M  V30 1443 C 137.946 3.38696 -4.84808 0
M  V30 1444 H 136.876 0.55118 -0.514506 0
M  V30 1445 H 139.527 0.774616 -1.66349 0
M  V30 1446 H 137.909 3.36769 -2.08332 0
M  V30 1447 H 139.083 1.59218 -4.32419 0
M  V30 1448 H 137.398 1.58618 -3.85006 0
M  V30 1449 H 139.995 4.28881 -3.1932 0
M  V30 1450 H 140.338 3.87065 -1.53253 0
M  V30 1451 H 140.871 2.78574 -2.83974 0
M  V30 1452 H 137.61 2.99668 -5.82992 0
M  V30 1453 H 137.13 4.01683 -4.45433 0
M  V30 1454 H 138.809 4.04712 -5.04794 0
M  V30 1455 N 138.941 1.26152 0.944643 0
M  V30 1456 C 140.166 1.14363 1.7302 0
M  V30 1457 C 140.591 -0.29772 1.85729 0
M  V30 1458 O 139.949 -1.2157 1.34501 0
M  V30 1459 C 139.997 1.81378 3.11664 0
M  V30 1460 O 139.101 1.10022 3.97453 0
M  V30 1461 H 138.442 0.398694 0.53098 0
M  V30 1462 H 140.972 1.66906 1.18337 0
M  V30 1463 H 140.982 1.88064 3.62072 0
M  V30 1464 H 139.657 2.86237 3.0173 0
M  V30 1465 H 138.234 1.11287 3.55907 0
M  V30 1466 N 140.419 -1.14872 1.07899 0
M  V30 1467 C 141.668 -1.85135 0.800499 0
M  V30 1468 C 141.981 -1.83547 -0.676014 0
M  V30 1469 O 143.187 -2.49548 -1.06948 0
M  V30 1470 C 141.643 -3.3231 1.38197 0
M  V30 1471 C 141.251 -3.42329 2.8899 0
M  V30 1472 C 142.995 -4.0772 1.18174 0
M  V30 1473 C 140.902 -4.83684 3.403 0
M  V30 1474 H 139.832 -0.693563 0.29578 0
M  V30 1475 H 142.483 -1.29532 1.29976 0
M  V30 1476 H 140.865 -3.87618 0.810431 0
M  V30 1477 H 142.039 -2.97097 3.52236 0
M  V30 1478 H 140.354 -2.80369 3.07867 0
M  V30 1479 H 142.951 -5.12049 1.5398 0
M  V30 1480 H 143.294 -4.16124 0.12117 0
M  V30 1481 H 143.827 -3.58696 1.71994 0
M  V30 1482 H 140.566 -4.80465 4.45907 0
M  V30 1483 H 140.086 -5.29474 2.81811 0
M  V30 1484 H 141.765 -5.52558 3.36584 0
M  V30 1485 N 141.898 -0.863906 -1.31812 0
M  V30 1486 C 142.861 -0.320212 -2.26952 0
M  V30 1487 C 143.861 0.525369 -1.51975 0
M  V30 1488 O 145.051 0.335547 -1.70938 0
M  V30 1489 C 142.183 0.545919 -3.365 0
M  V30 1490 H 143.376 -1.16004 -2.76556 0
M  V30 1491 H 140.929 -0.638995 -1.42641 0
M  V30 1492 H 141.664 1.40718 -2.92179 0
M  V30 1493 H 141.449 -0.0594674 -3.92055 0
M  V30 1494 H 142.939 0.918796 -4.07367 0
M  V30 1495 N 143.376 1.44774 -0.622745 0
M  V30 1496 C 144.606 2.06187 -0.130532 0
M  V30 1497 C 145.014 1.46547 1.19669 0
M  V30 1498 O 144.357 0.579636 1.74316 0
M  V30 1499 C 144.419 3.59437 0.0674983 0
M  V30 1500 C 144.083 4.41496 -1.18026 0
M  V30 1501 C 145.08 4.75512 -2.102 0
M  V30 1502 C 142.765 4.82007 -1.41333 0
M  V30 1503 C 144.759 5.48912 -3.23998 0
M  V30 1504 C 142.446 5.55157 -2.55429 0
M  V30 1505 C 143.444 5.88528 -3.46589 0
M  V30 1506 O 143.132 6.60191 -4.58697 0
M  V30 1507 H 142.864 0.672045 -0.0730162 0
M  V30 1508 H 145.418 1.86768 -0.854802 0
M  V30 1509 H 143.648 3.77314 0.846825 0
M  V30 1510 H 145.337 4.02642 0.513209 0
M  V30 1511 H 146.103 4.4476 -1.93425 0
M  V30 1512 H 141.982 4.55457 -0.712709 0
M  V30 1513 H 145.526 5.74877 -3.95174 0
M  V30 1514 H 141.423 5.85324 -2.72151 0
M  V30 1515 H 142.191 6.78654 -4.57571 0
M  V30 1516 N 144.854 0.36279 1.53368 0
M  V30 1517 C 146.082 -0.228613 2.05633 0
M  V30 1518 C 146.497 -1.42676 1.23649 0
M  V30 1519 O 145.854 -1.80394 0.27647 0
M  V30 1520 C 145.905 -0.624845 3.56059 0
M  V30 1521 O 145.626 0.525675 4.34935 0
M  V30 1522 C 147.127 -1.27493 4.24571 0
M  V30 1523 H 144.347 -0.0407183 0.669763 0
M  V30 1524 H 146.891 0.520352 1.97769 0
M  V30 1525 H 145.046 -1.32373 3.64083 0
M  V30 1526 H 145.46 0.205969 5.24095 0
M  V30 1527 H 146.934 -1.50277 5.31151 0
M  V30 1528 H 147.411 -2.23439 3.78116 0
M  V30 1529 H 148.017 -0.617558 4.20792 0
M  V30 1530 N 146.332 -1.57332 0.0918853 0
M  V30 1531 C 147.581 -1.93412 -0.572249 0
M  V30 1532 C 147.894 -0.975515 -1.69538 0
M  V30 1533 O 149.1 -1.22991 -2.42045 0
M  V30 1534 C 147.556 -3.43648 -1.0693 0
M  V30 1535 C 147.164 -4.47994 0.0239049 0
M  V30 1536 C 148.908 -3.88695 -1.70635 0
M  V30 1537 C 146.815 -5.89381 -0.488319 0
M  V30 1538 H 145.745 -0.721939 -0.217532 0
M  V30 1539 H 148.396 -1.82735 0.167369 0
M  V30 1540 H 146.778 -3.49466 -1.8625 0
M  V30 1541 H 147.952 -4.53815 0.799277 0
M  V30 1542 H 146.267 -4.12536 0.565946 0
M  V30 1543 H 148.864 -4.91725 -2.10025 0
M  V30 1544 H 149.207 -3.27166 -2.57426 0
M  V30 1545 H 149.74 -3.85564 -0.979023 0
M  V30 1546 H 146.479 -6.54602 0.342906 0
M  V30 1547 H 145.999 -5.87037 -1.23077 0
M  V30 1548 H 147.678 -6.39863 -0.958317 0
M  V30 1549 N 147.81 0.181792 -1.56548 0
M  V30 1550 C 149.038 0.915947 -1.85521 0
M  V30 1551 C 149.453 1.76282 -0.676016 0
M  V30 1552 O 148.81 1.79012 0.355077 0
M  V30 1553 C 148.861 1.80126 -3.13427 0
M  V30 1554 O 148.582 0.988562 -4.26801 0
M  V30 1555 C 150.083 2.64597 -3.55673 0
M  V30 1556 H 147.303 0.26661 -0.61576 0
M  V30 1557 H 149.847 0.185039 -2.03661 0
M  V30 1558 H 148.002 2.48563 -2.97145 0
M  V30 1559 H 148.416 1.59308 -4.99721 0
M  V30 1560 H 149.89 3.2235 -4.48101 0
M  V30 1561 H 150.367 3.38958 -2.79292 0
M  V30 1562 H 150.973 2.0151 -3.74532 0
M  V30 1563 N 149.288 1.51039 0.449983 0
M  V30 1564 C 150.238 1.67824 1.54335 0
M  V30 1565 C 151.222 0.5324 1.51836 0
M  V30 1566 O 152.414 0.787762 1.58503 0
M  V30 1567 C 149.543 1.7951 2.92628 0
M  V30 1568 C 148.629 2.99838 2.9993 0
M  V30 1569 N 149.02 4.23207 2.77001 0
M  V30 1570 C 147.318 2.98832 3.31082 0
M  V30 1571 C 148.019 5.04361 2.89818 0
M  V30 1572 N 146.995 4.38746 3.2094 0
M  V30 1573 H 150.797 2.60884 1.35339 0
M  V30 1574 H 148.311 1.48513 0.657085 0
M  V30 1575 H 150.308 1.89642 3.7127 0
M  V30 1576 H 148.968 0.876227 3.12654 0
M  V30 1577 H 149.979 4.5236 2.52172 0
M  V30 1578 H 146.656 2.16527 3.56963 0
M  V30 1579 H 148.046 6.12528 2.76151 0
M  V30 1580 N 150.766 -0.704594 1.40972 0
M  V30 1581 C 151.994 -1.49354 1.43182 0
M  V30 1582 C 152.409 -1.88768 0.0345508 0
M  V30 1583 O 151.766 -1.56184 -0.944081 0
M  V30 1584 C 151.817 -2.76187 2.33244 0
M  V30 1585 O 151.538 -2.38436 3.67532 0
M  V30 1586 C 153.039 -3.7 2.44162 0
M  V30 1587 H 150.259 -0.460559 0.487982 0
M  V30 1588 H 152.803 -0.868261 1.85153 0
M  V30 1589 H 150.958 -3.34974 1.94606 0
M  V30 1590 H 151.372 -3.20126 4.15475 0
M  V30 1591 H 152.846 -4.55803 3.11364 0
M  V30 1592 H 153.323 -4.13867 1.47006 0
M  V30 1593 H 153.929 -3.17121 2.83398 0
M  V30 1594 N 152.244 -1.26651 -0.937939 0
M  V30 1595 C 153.49 -1.13562 -1.68746 0
M  V30 1596 C 153.845 0.317241 -1.89767 0
M  V30 1597 O 153.138 1.22939 -1.46957 0
M  V30 1598 C 153.332 -1.84168 -3.06295 0
M  V30 1599 C 153.161 -3.36171 -2.98696 0
M  V30 1600 C 151.931 -4.05468 -3.01535 0
M  V30 1601 C 154.129 -4.32312 -2.78588 0
M  V30 1602 N 152.111 -5.44118 -2.84269 0
M  V30 1603 C 153.482 -5.58159 -2.69924 0
M  V30 1604 C 155.537 -4.22524 -2.63396 0
M  V30 1605 C 154.24 -6.75335 -2.47618 0
M  V30 1606 C 156.266 -5.39411 -2.42466 0
M  V30 1607 C 155.628 -6.64208 -2.34536 0
M  V30 1608 H 151.727 -0.470361 -0.624728 0
M  V30 1609 H 154.311 -1.59982 -1.10968 0
M  V30 1610 H 152.482 -1.40219 -3.62206 0
M  V30 1611 H 154.214 -1.63674 -3.70126 0
M  V30 1612 H 150.969 -3.56854 -3.11372 0
M  V30 1613 H 151.393 -6.1693 -2.78795 0
M  V30 1614 H 156.035 -3.26771 -2.68292 0
M  V30 1615 H 153.753 -7.71182 -2.41463 0
M  V30 1616 H 157.339 -5.33711 -2.31611 0
M  V30 1617 H 156.219 -7.53129 -2.18555 0
M  V30 1618 N 153.722 1.14298 -1.08507 0
M  V30 1619 C 154.67 2.21483 -0.710483 0
M  V30 1620 C 155.664 1.66998 0.284234 0
M  V30 1621 O 156.87 1.79401 0.146692 0
M  V30 1622 H 153.245 0.721578 -0.211729 0
M  V30 1623 H 155.216 2.50348 -1.62384 0
M  V30 1624 C 153.965 3.4743 -0.137007 0
M  V30 1625 H 153.288 3.89686 -0.893592 0
M  V30 1626 H 154.728 4.2391 0.0872789 0
M  V30 1627 C 153.187 3.17548 1.12538 0
M  V30 1628 O 153.717 3.35437 2.21009 0
M  V30 1629 N 151.923 2.71499 1.03617 0
M  V30 1630 H 151.47 2.57143 0.153403 0
M  V30 1631 H 151.428 2.51881 1.88158 0
M  V30 1632 N 155.201 0.870884 1.31352 0
M  V30 1633 C 156.448 0.482273 1.96673 0
M  V30 1634 C 156.776 -0.965638 1.68836 0
M  V30 1635 O 156.031 -1.69514 0.977937 0
M  V30 1636 C 156.33 0.687157 3.50732 0
M  V30 1637 C 155.996 2.108 3.9859 0
M  V30 1638 C 154.658 2.49656 4.1137 0
M  V30 1639 C 157.01 3.03459 4.23748 0
M  V30 1640 C 154.338 3.80412 4.46659 0
M  V30 1641 C 156.69 4.3373 4.60501 0
M  V30 1642 C 155.354 4.725 4.71487 0
M  V30 1643 H 154.624 0.176476 0.719679 0
M  V30 1644 H 157.271 1.10405 1.56471 0
M  V30 1645 H 155.576 -0.0177476 3.91796 0
M  V30 1646 H 157.273 0.366284 3.99324 0
M  V30 1647 H 153.863 1.79633 3.8914 0
M  V30 1648 H 158.047 2.74665 4.13368 0
M  V30 1649 H 153.303 4.1021 4.53362 0
M  V30 1650 H 157.477 5.05578 4.78919 0
M  V30 1651 H 155.104 5.73859 4.98588 0
M  V30 1652 N 156.679 -1.44442 0.630414 0
M  V30 1653 C 157.927 -2.01653 0.134351 0
M  V30 1654 C 158.248 -1.49836 -1.24796 0
M  V30 1655 O 157.518 -0.701684 -1.82902 0
M  V30 1656 H 156.098 -0.74554 0.0466769 0
M  V30 1657 H 158.76 -1.76952 0.816955 0
M  V30 1658 H 157.856 -3.11935 0.101498 0
M  V30 1659 N 158.157 -0.370918 -1.53173 0
M  V30 1660 C 159.089 0.507823 -2.23503 0
M  V30 1661 C 160.102 1.04182 -1.251 0
M  V30 1662 O 161.291 0.947286 -1.5129 0
M  V30 1663 C 158.391 1.71447 -2.92334 0
M  V30 1664 C 157.564 1.31105 -4.17289 0
M  V30 1665 C 156.623 2.38035 -4.69282 0
M  V30 1666 O 155.649 2.00204 -5.32829 0
M  V30 1667 N 156.851 3.69697 -4.47554 0
M  V30 1668 H 159.616 -0.0946382 -2.99551 0
M  V30 1669 H 157.177 -0.196358 -1.60705 0
M  V30 1670 H 159.169 2.42469 -3.24023 0
M  V30 1671 H 157.739 2.22368 -2.19707 0
M  V30 1672 H 156.959 0.430462 -3.91843 0
M  V30 1673 H 158.247 1.0179 -4.98514 0
M  V30 1674 H 157.645 4.03205 -3.9679 0
M  V30 1675 H 156.202 4.36807 -4.8378 0
M  V30 1676 N 159.635 1.57281 -0.100228 0
M  V30 1677 C 160.884 1.93713 0.561984 0
M  V30 1678 C 161.197 0.984492 1.69018 0
M  V30 1679 O 162.403 1.24273 2.41389 0
M  V30 1680 C 160.859 3.4421 1.05106 0
M  V30 1681 C 160.467 4.47975 -0.0476628 0
M  V30 1682 C 162.211 3.89595 1.68571 0
M  V30 1683 C 160.118 5.89631 0.457055 0
M  V30 1684 H 159.048 0.723082 0.2137 0
M  V30 1685 H 161.699 1.82644 -0.177057 0
M  V30 1686 H 160.081 3.50449 1.84395 0
M  V30 1687 H 161.255 4.53385 -0.823333 0
M  V30 1688 H 159.57 4.1223 -0.587816 0
M  V30 1689 H 162.167 4.92832 2.07414 0
M  V30 1690 H 162.51 3.28526 2.55688 0
M  V30 1691 H 163.043 3.86078 0.958562 0
M  V30 1692 H 159.782 6.54411 -0.377616 0
M  V30 1693 H 159.302 5.87681 1.19962 0
M  V30 1694 H 160.981 6.40363 0.92437 0
M  V30 1695 N 161.113 -0.173488 1.56642 0
M  V30 1696 C 162.043 -1.2171 1.99271 0
M  V30 1697 C 163.024 -1.46289 0.867959 0
M  V30 1698 O 164.209 -1.5766 1.13388 0
M  V30 1699 C 161.339 -2.55651 2.35074 0
M  V30 1700 C 160.293 -2.45645 3.50489 0
M  V30 1701 C 159.619 -3.84056 3.72028 0
M  V30 1702 C 160.919 -1.96302 4.84007 0
M  V30 1703 H 162.613 -0.86275 2.867 0
M  V30 1704 H 160.159 -0.413571 1.37933 0
M  V30 1705 H 162.112 -3.2886 2.63494 0
M  V30 1706 H 160.836 -2.92869 1.44552 0
M  V30 1707 H 159.495 -1.7489 3.22194 0
M  V30 1708 H 159.143 -4.18664 2.788 0
M  V30 1709 H 158.843 -3.7823 4.49684 0
M  V30 1710 H 160.367 -4.58854 4.02846 0
M  V30 1711 H 161.781 -2.59284 5.11317 0
M  V30 1712 H 160.178 -2.01429 5.65284 0
M  V30 1713 H 161.248 -0.917226 4.76146 0
M  V30 1714 N 162.591 -1.51276 -0.441967 0
M  V30 1715 C 163.831 -1.65372 -1.20132 0
M  V30 1716 C 164.195 -0.359871 -1.88597 0
M  V30 1717 O 165.396 -0.376551 -2.66149 0
M  V30 1718 C 163.667 -2.8207 -2.1948 0
M  V30 1719 S 165.226 -3.16467 -3.03964 0
M  V30 1720 H 162.044 -0.582669 -0.407453 0
M  V30 1721 H 164.646 -1.89166 -0.493609 0
M  V30 1722 H 163.35 -3.74523 -1.67812 0
M  V30 1723 H 162.881 -2.6045 -2.94838 0
M  V30 1724 H 164.896 -2.62543 -4.21053 0
M  V30 1725 N 164.069 0.697108 -1.41344 0
M  V30 1726 C 165.346 1.45154 -1.31109 0
M  V30 1727 C 165.726 2.11009 0.0620449 0
M  V30 1728 O 165.074 2.01571 1.07618 0
M  V30 1729 C 165.284 2.47223 -2.46337 0
M  V30 1730 C 166.632 3.1252 -2.87431 0
M  V30 1731 O 167.656 2.57547 -2.46065 0
M  V30 1732 O 166.515 4.12083 -3.58957 0
M  V30 1733 H 163.609 0.646365 -0.515889 0
M  V30 1734 H 166.155 0.727716 -1.53305 0
M  V30 1735 H 164.927 1.97204 -3.37974 0
M  V30 1736 H 164.55 3.27116 -2.2601 0
M  V30 1737 N 165.547 1.27147 0.931209 0
M  V30 1738 C 166.796 1.12664 1.67302 0
M  V30 1739 C 167.109 -0.327718 1.92835 0
M  V30 1740 O 168.315 -0.593392 2.64936 0
M  V30 1741 C 166.771 1.9683 3.01307 0
M  V30 1742 C 166.379 3.46901 2.83485 0
M  V30 1743 C 168.123 1.90985 3.79111 0
M  V30 1744 C 166.03 4.23279 4.13024 0
M  V30 1745 H 164.96 0.41803 0.627509 0
M  V30 1746 H 167.611 1.51539 1.03481 0
M  V30 1747 H 165.993 1.50797 3.66164 0
M  V30 1748 H 167.167 4.00773 2.27415 0
M  V30 1749 H 165.482 3.54088 2.19113 0
M  V30 1750 H 168.079 2.45328 4.75098 0
M  V30 1751 H 168.422 0.882718 4.06834 0
M  V30 1752 H 168.955 2.34895 3.21044 0
M  V30 1753 H 165.694 5.26503 3.90481 0
M  V30 1754 H 165.214 3.74186 4.6877 0
M  V30 1755 H 166.893 4.32265 4.81411 0
M  V30 1756 N 167.025 -1.13721 1.09112 0
M  V30 1757 C 168.271 -1.85413 0.836283 0
M  V30 1758 C 168.626 -1.8175 -0.631249 0
M  V30 1759 O 167.919 -1.24238 -1.45861 0
M  V30 1760 C 168.113 -3.32861 1.30146 0
M  V30 1761 C 167.942 -3.50882 2.81268 0
M  V30 1762 C 166.712 -3.65312 3.49106 0
M  V30 1763 C 168.91 -3.47196 3.7942 0
M  V30 1764 N 166.892 -3.71563 4.88686 0
M  V30 1765 C 168.263 -3.59777 5.04936 0
M  V30 1766 C 170.318 -3.30577 3.72321 0
M  V30 1767 C 169.021 -3.57455 6.24194 0
M  V30 1768 C 171.047 -3.29562 4.91063 0
M  V30 1769 C 170.409 -3.42691 6.15421 0
M  V30 1770 H 166.508 -0.694812 0.358832 0
M  V30 1771 H 169.092 -1.36246 1.39087 0
M  V30 1772 H 167.263 -3.80602 0.774361 0
M  V30 1773 H 168.995 -3.92346 0.99229 0
M  V30 1774 H 165.75 -3.6685 2.9953 0
M  V30 1775 H 166.174 -3.78387 5.61384 0
M  V30 1776 H 170.816 -3.19332 2.77105 0
M  V30 1777 H 168.534 -3.67475 7.19714 0
M  V30 1778 H 172.12 -3.17905 4.87266 0
M  V30 1779 H 171 -3.41862 7.05762 0
M  V30 1780 N 168.503 -0.877838 -1.30888 0
M  V30 1781 C 169.433 -0.35534 -2.3078 0
M  V30 1782 C 170.414 0.557994 -1.60687 0
M  V30 1783 O 171.599 0.473355 -1.88343 0
M  V30 1784 C 168.729 0.437221 -3.44537 0
M  V30 1785 C 167.683 -0.383715 -4.26276 0
M  V30 1786 C 167.009 0.535014 -5.32017 0
M  V30 1787 C 168.309 -1.62201 -4.96476 0
M  V30 1788 H 170.003 -1.19007 -2.74732 0
M  V30 1789 H 167.549 -0.573698 -1.32078 0
M  V30 1790 H 169.502 0.813334 -4.13477 0
M  V30 1791 H 168.226 1.30553 -2.99372 0
M  V30 1792 H 166.885 -0.741874 -3.59015 0
M  V30 1793 H 166.533 1.40083 -4.831 0
M  V30 1794 H 166.233 -0.0104211 -5.87599 0
M  V30 1795 H 167.757 0.907799 -6.03814 0
M  V30 1796 H 169.171 -1.31689 -5.5797 0
M  V30 1797 H 167.568 -2.10711 -5.61891 0
M  V30 1798 H 168.638 -2.37044 -4.23011 0
M  V30 1799 N 169.982 1.44106 -0.638065 0
M  V30 1800 C 171.207 2.0685 -0.150916 0
M  V30 1801 C 171.632 1.47417 1.16833 0
M  V30 1802 O 170.99 0.578264 1.71831 0
M  V30 1803 C 171.038 3.60555 -0.05708 0
M  V30 1804 O 170.142 4.00465 0.984972 0
M  V30 1805 H 169.483 0.658151 -0.0879399 0
M  V30 1806 H 172.013 1.84865 -0.876707 0
M  V30 1807 H 172.023 4.07789 0.131232 0
M  V30 1808 H 170.698 4.03193 -1.02021 0
M  V30 1809 H 169.275 3.64849 0.770672 0
M  V30 1810 N 171.46 0.379036 1.52974 0
M  V30 1811 C 172.685 -0.209353 2.06341 0
M  V30 1812 C 173.11 -1.40583 1.24972 0
M  V30 1813 O 172.468 -1.79246 0.272155 0
M  V30 1814 C 172.516 -0.567786 3.56102 0
M  V30 1815 O 171.62 -1.66318 3.77375 0
M  V30 1816 H 170.961 -0.0272919 0.663439 0
M  V30 1817 H 173.491 0.543536 1.97248 0
M  V30 1818 H 173.501 -0.835003 3.99364 0
M  V30 1819 H 172.176 0.307013 4.14765 0
M  V30 1820 H 170.753 -1.39048 3.46006 0
M  V30 1821 N 172.938 -1.57226 0.108567 0
M  V30 1822 C 174.215 -1.86333 -0.594939 0
M  V30 1823 C 174.595 -1.00788 -1.85486 0
M  V30 1824 O 173.943 -0.0839293 -2.28346 0
M  V30 1825 C 174.153 -3.37265 -0.897405 0
M  V30 1826 C 175.501 -4.05629 -1.25501 0
M  V30 1827 O 176.525 -3.42224 -0.987998 0
M  V30 1828 O 175.384 -5.17531 -1.75567 0
M  V30 1829 H 172.478 -0.771018 -0.2991 0
M  V30 1830 H 175.024 -1.69102 0.142283 0
M  V30 1831 H 173.796 -3.913 -0.00413806 0
M  V30 1832 H 173.419 -3.59889 -1.69014 0
M  V30 1833 N 174.416 0.165178 -1.56732 0
M  V30 1834 C 175.665 0.879143 -1.81532 0
M  V30 1835 C 175.978 1.83144 -0.686842 0
M  V30 1836 O 177.184 2.58823 -0.819944 0
M  V30 1837 C 175.64 1.61388 -3.21686 0
M  V30 1838 C 175.248 0.704904 -4.4242 0
M  V30 1839 C 176.992 2.3157 -3.55774 0
M  V30 1840 C 174.899 1.44022 -5.73595 0
M  V30 1841 H 173.829 0.332033 -0.676957 0
M  V30 1842 H 176.48 0.132008 -1.83025 0
M  V30 1843 H 174.862 2.40599 -3.14529 0
M  V30 1844 H 176.036 -0.0506815 -4.60772 0
M  V30 1845 H 174.351 0.112419 -4.16248 0
M  V30 1846 H 176.948 2.8719 -4.51028 0
M  V30 1847 H 177.291 3.07201 -2.8095 0
M  V30 1848 H 177.824 1.59297 -3.64513 0
M  V30 1849 H 174.563 0.72612 -6.51466 0
M  V30 1850 H 174.083 2.16898 -5.5921 0
M  V30 1851 H 175.762 1.98606 -6.15764 0
M  V30 1852 N 175.894 1.51508 0.433938 0
M  V30 1853 C 177.122 1.68157 1.20543 0
M  V30 1854 C 177.537 0.380362 1.84929 0
M  V30 1855 O 176.894 -0.641446 1.70856 0
M  V30 1856 C 176.945 2.79965 2.28696 0
M  V30 1857 O 176.666 4.05045 1.66943 0
M  V30 1858 C 178.167 3.07912 3.18912 0
M  V30 1859 H 175.387 0.56421 0.363191 0
M  V30 1860 H 177.931 1.97941 0.513754 0
M  V30 1861 H 176.086 2.5277 2.93574 0
M  V30 1862 H 176.5 4.67165 2.38448 0
M  V30 1863 H 177.974 3.89719 3.90926 0
M  V30 1864 H 178.451 2.20456 3.79863 0
M  V30 1865 H 179.057 3.36779 2.59731 0
M  V30 1866 N 177.372 -0.689602 1.41712 0
M  V30 1867 C 178.612 -1.46184 1.42862 0
M  V30 1868 C 178.976 -1.91962 0.0382204 0
M  V30 1869 O 180.177 -2.68694 -0.0755019 0
M  V30 1870 C 178.448 -2.6371 2.4123 0
M  V30 1871 S 180.007 -3.52768 2.6096 0
M  V30 1872 H 176.825 -0.49947 0.506015 0
M  V30 1873 H 179.427 -0.804107 1.78198 0
M  V30 1874 H 178.131 -2.28293 3.41044 0
M  V30 1875 H 177.662 -3.3437 2.07269 0
M  V30 1876 H 179.677 -4.59146 1.88148 0
M  V30 1877 N 178.85 -1.27639 -0.924453 0
M  V30 1878 C 180.09 -1.15407 -1.68703 0
M  V30 1879 C 180.454 0.294581 -1.89727 0
M  V30 1880 O 181.655 0.539385 -2.63333 0
M  V30 1881 C 179.926 -1.9195 -3.0148 0
M  V30 1882 S 181.485 -1.95969 -3.92609 0
M  V30 1883 H 178.303 -0.411937 -0.579507 0
M  V30 1884 H 180.905 -1.61592 -1.10038 0
M  V30 1885 H 179.609 -2.96387 -2.83871 0
M  V30 1886 H 179.14 -1.46272 -3.65196 0
M  V30 1887 H 181.155 -1.05846 -4.84779 0
M  V30 1888 N 180.328 1.1314 -1.09713 0
M  V30 1889 C 181.556 1.88321 -0.856898 0
M  V30 1890 C 181.971 1.79276 0.592073 0
M  V30 1891 O 181.328 1.16142 1.40774 0
M  V30 1892 C 181.379 3.37812 -1.28706 0
M  V30 1893 O 181.1 3.46627 -2.67921 0
M  V30 1894 C 182.601 4.29952 -1.07964 0
M  V30 1895 H 179.821 0.596094 -0.308079 0
M  V30 1896 H 182.365 1.43205 -1.45988 0
M  V30 1897 H 180.52 3.805 -0.727912 0
M  V30 1898 H 180.934 4.39579 -2.8613 0
M  V30 1899 H 182.408 5.33159 -1.42986 0
M  V30 1900 H 182.885 4.39196 -0.0176577 0
M  V30 1901 H 183.491 3.93036 -1.62489 0
M  V30 1902 N 181.806 0.884767 1.30421 0
M  V30 1903 C 182.769 0.356277 2.26414 0
M  V30 1904 C 183.769 -0.501124 1.52792 0
M  V30 1905 O 184.959 -0.30831 1.7145 0
M  V30 1906 C 182.091 -0.492316 3.37326 0
M  V30 1907 H 183.284 1.20389 2.74675 0
M  V30 1908 H 180.837 0.661607 1.41607 0
M  V30 1909 H 181.572 -1.36052 2.94381 0
M  V30 1910 H 181.357 0.121832 3.91911 0
M  V30 1911 H 182.847 -0.853871 4.08777 0
M  V30 1912 N 183.284 -1.43765 0.645699 0
M  V30 1913 C 184.509 -2.06767 0.161883 0
M  V30 1914 C 184.934 -1.48034 -1.16049 0
M  V30 1915 O 184.292 -0.587369 -1.71522 0
M  V30 1916 C 184.34 -3.60519 0.0762003 0
M  V30 1917 O 183.444 -4.00982 -0.963721 0
M  V30 1918 H 182.785 -0.657675 0.091429 0
M  V30 1919 H 185.315 -1.84397 0.886499 0
M  V30 1920 H 185.325 -4.07853 -0.109604 0
M  V30 1921 H 184 -4.02646 1.04157 0
M  V30 1922 H 182.577 -3.65253 -0.751312 0
M  V30 1923 N 184.763 -0.387143 -1.52771 0
M  V30 1924 C 186.012 0.19697 -2.00736 0
M  V30 1925 C 186.325 1.48082 -1.27793 0
M  V30 1926 O 187.531 2.14485 -1.66458 0
M  V30 1927 C 185.987 0.401568 -3.57653 0
M  V30 1928 C 185.595 -0.868907 -4.39493 0
M  V30 1929 C 187.339 0.942164 -4.13912 0
M  V30 1930 C 185.246 -0.632705 -5.88006 0
M  V30 1931 H 184.176 0.0773827 -0.750019 0
M  V30 1932 H 186.827 -0.50921 -1.76293 0
M  V30 1933 H 185.209 1.16954 -3.78335 0
M  V30 1934 H 186.383 -1.64133 -4.30577 0
M  V30 1935 H 184.698 -1.33429 -3.94443 0
M  V30 1936 H 187.295 1.13455 -5.22525 0
M  V30 1937 H 187.638 1.9106 -3.69867 0
M  V30 1938 H 188.171 0.233814 -3.97112 0
M  V30 1939 H 184.91 -1.57208 -6.36369 0
M  V30 1940 H 184.43 0.100825 -5.99715 0
M  V30 1941 H 186.109 -0.26642 -6.46451 0
M  V30 1942 N 186.241 1.57166 -0.116904 0
M  V30 1943 C 187.171 2.18222 0.830759 0
M  V30 1944 C 188.152 1.12167 1.27877 0
M  V30 1945 O 189.337 1.40394 1.34176 0
M  V30 1946 C 186.467 2.77996 2.08172 0
M  V30 1947 C 185.421 3.89614 1.77157 0
M  V30 1948 C 184.747 4.36187 3.09265 0
M  V30 1949 C 186.047 5.1181 1.04151 0
M  V30 1950 H 187.741 2.97664 0.321992 0
M  V30 1951 H 185.287 1.4318 0.153434 0
M  V30 1952 H 187.24 3.19366 2.74924 0
M  V30 1953 H 185.964 1.9584 2.6137 0
M  V30 1954 H 184.623 3.48816 1.12796 0
M  V30 1955 H 184.271 3.50893 3.60393 0
M  V30 1956 H 183.971 5.11455 2.89288 0
M  V30 1957 H 185.495 4.80207 3.77139 0
M  V30 1958 H 186.909 5.50214 1.61052 0
M  V30 1959 H 185.306 5.92648 0.942762 0
M  V30 1960 H 186.376 4.84892 0.0279022 0
M  V30 1961 N 187.719 -0.156864 1.56817 0
M  V30 1962 C 188.669 -1.19891 1.93934 0
M  V30 1963 C 189.653 -1.39061 0.809372 0
M  V30 1964 O 190.845 -1.40789 1.07273 0
M  V30 1965 C 187.974 -2.53493 2.31508 0
M  V30 1966 C 187.06 -2.37957 3.51052 0
M  V30 1967 N 187.451 -1.92158 4.67877 0
M  V30 1968 C 185.749 -2.68739 3.55943 0
M  V30 1969 C 186.45 -1.8943 5.49992 0
M  V30 1970 N 185.426 -2.32375 4.91429 0
M  V30 1971 H 189.228 -0.836746 2.81737 0
M  V30 1972 H 186.742 -0.365012 1.58245 0
M  V30 1973 H 188.739 -3.28811 2.56299 0
M  V30 1974 H 187.399 -2.905 1.45051 0
M  V30 1975 H 188.41 -1.62274 4.91821 0
M  V30 1976 H 185.087 -3.09687 2.80001 0
M  V30 1977 H 186.477 -1.55596 6.53636 0
M  V30 1978 N 189.197 -1.51736 -0.425897 0
M  V30 1979 C 190.127 -1.76827 -1.52494 0
M  V30 1980 C 191.108 -0.618524 -1.58456 0
M  V30 1981 O 192.293 -0.862416 -1.74 0
M  V30 1982 C 189.423 -1.90374 -2.90474 0
M  V30 1983 C 188.377 -3.0588 -2.99369 0
M  V30 1984 C 187.703 -3.04625 -4.3944 0
M  V30 1985 C 189.003 -4.45644 -2.72394 0
M  V30 1986 H 190.697 -2.68855 -1.31748 0
M  V30 1987 H 188.243 -1.29372 -0.632362 0
M  V30 1988 H 190.196 -2.0651 -3.6733 0
M  V30 1989 H 188.92 -0.95004 -3.12477 0
M  V30 1990 H 187.579 -2.89467 -2.24954 0
M  V30 1991 H 187.227 -2.0701 -4.58428 0
M  V30 1992 H 186.927 -3.82195 -4.46319 0
M  V30 1993 H 188.451 -3.22869 -5.18255 0
M  V30 1994 H 189.865 -4.62348 -3.38979 0
M  V30 1995 H 188.262 -5.25006 -2.9067 0
M  V30 1996 H 189.332 -4.54893 -1.67929 0
M  V30 1997 N 190.675 0.682077 -1.42076 0
M  V30 1998 C 191.915 1.45424 -1.43636 0
M  V30 1999 C 192.279 1.91939 -0.0484001 0
M  V30 2000 O 193.48 2.6873 0.0612514 0
M  V30 2001 C 191.751 2.62427 -2.42625 0
M  V30 2002 S 193.31 3.51379 -2.62827 0
M  V30 2003 H 190.128 0.496779 -0.508657 0
M  V30 2004 H 192.73 0.794645 -1.78621 0
M  V30 2005 H 191.434 2.26481 -3.42249 0
M  V30 2006 H 190.965 3.33266 -2.09039 0
M  V30 2007 H 192.98 4.58141 -1.9058 0
M  V30 2008 N 192.153 1.28127 0.917671 0
M  V30 2009 C 193.399 1.15223 1.66888 0
M  V30 2010 C 193.732 -0.299293 1.9188 0
M  V30 2011 O 193.007 -1.21805 1.51637 0
M  V30 2012 C 193.29 1.94706 3.02922 0
M  V30 2013 C 193.143 3.47898 2.85109 0
M  V30 2014 C 194.462 1.75939 4.03402 0
M  V30 2015 H 191.581 0.419946 0.605652 0
M  V30 2016 H 194.223 1.57398 1.06423 0
M  V30 2017 H 192.373 1.58864 3.54534 0
M  V30 2018 H 194.045 3.93624 2.40537 0
M  V30 2019 H 192.288 3.7373 2.20246 0
M  V30 2020 H 192.959 3.98765 3.81694 0
M  V30 2021 H 195.435 2.07209 3.60837 0
M  V30 2022 H 194.311 2.33931 4.96556 0
M  V30 2023 H 194.572 0.709877 4.36364 0
M  V30 2024 N 193.631 -1.12557 1.10312 0
M  V30 2025 C 194.88 -1.83395 0.839588 0
M  V30 2026 C 195.193 -1.84939 -0.636929 0
M  V30 2027 O 196.399 -2.51761 -1.01631 0
M  V30 2028 C 194.855 -3.29303 1.45215 0
M  V30 2029 C 194.463 -3.36122 2.96186 0
M  V30 2030 C 196.207 -4.05121 1.26796 0
M  V30 2031 C 194.114 -4.76357 3.50483 0
M  V30 2032 H 193.044 -0.687133 0.310425 0
M  V30 2033 H 195.695 -1.26746 1.32694 0
M  V30 2034 H 194.077 -3.85812 0.892469 0
M  V30 2035 H 195.251 -2.89559 3.58458 0
M  V30 2036 H 193.566 -2.73776 3.13745 0
M  V30 2037 H 196.163 -5.08668 1.64806 0
M  V30 2038 H 196.506 -4.15773 0.209409 0
M  V30 2039 H 197.039 -3.54967 1.79563 0
M  V30 2040 H 193.778 -4.70899 4.55998 0
M  V30 2041 H 193.298 -5.23377 2.92978 0
M  V30 2042 H 194.977 -5.45294 3.48228 0
M  V30 2043 N 195.109 -0.891671 -1.2995 0
M  V30 2044 C 196.072 -0.36828 -2.26222 0
M  V30 2045 C 197.072 0.493014 -1.53056 0
M  V30 2046 O 198.262 0.299213 -1.71611 0
M  V30 2047 C 195.394 0.47442 -3.37583 0
M  V30 2048 H 196.587 -1.21844 -2.74033 0
M  V30 2049 H 194.14 -0.669107 -1.41254 0
M  V30 2050 H 194.875 1.34489 -2.95099 0
M  V30 2051 H 194.66 -0.142615 -3.91841 0
M  V30 2052 H 196.15 0.83218 -4.09224 0
M  V30 2053 N 196.587 1.43421 -0.653314 0
M  V30 2054 C 197.517 2.33487 0.0246656 0
M  V30 2055 C 198.498 1.49475 0.811863 0
M  V30 2056 O 199.683 1.78139 0.773322 0
M  V30 2057 C 196.813 3.32841 0.99166 0
M  V30 2058 C 195.767 4.26842 0.314568 0
M  V30 2059 C 195.093 5.16236 1.39302 0
M  V30 2060 C 196.393 5.16243 -0.793095 0
M  V30 2061 H 198.087 2.90427 -0.727481 0
M  V30 2062 H 195.633 1.39649 -0.351287 0
M  V30 2063 H 197.586 3.94747 1.47487 0
M  V30 2064 H 196.31 2.74158 1.77497 0
M  V30 2065 H 194.969 3.663 -0.148199 0
M  V30 2066 H 194.617 4.53891 2.16776 0
M  V30 2067 H 194.317 5.79948 0.945223 0
M  V30 2068 H 195.841 5.81015 1.87759 0
M  V30 2069 H 197.255 5.71958 -0.392039 0
M  V30 2070 H 195.652 5.88676 -1.16536 0
M  V30 2071 H 196.722 4.55927 -1.65103 0
M  V30 2072 N 198.065 0.39524 1.52563 0
M  V30 2073 C 199.342 -0.242908 1.94086 0
M  V30 2074 C 199.722 -1.63841 1.33114 0
M  V30 2075 O 199.07 -2.22928 0.501529 0
M  V30 2076 C 199.28 -0.26327 3.48006 0
M  V30 2077 C 200.628 -0.489354 4.21771 0
M  V30 2078 O 201.652 -0.343226 3.54543 0
M  V30 2079 O 200.511 -0.776169 5.4096 0
M  V30 2080 H 197.605 -0.152536 0.812811 0
M  V30 2081 H 200.151 0.450178 1.6362 0
M  V30 2082 H 198.923 0.713985 3.84731 0
M  V30 2083 H 198.546 -1.00103 3.84792 0
M  V30 2084 N 199.544 -1.57102 0.125237 0
M  V30 2085 C 200.96 -1.57915 -0.231322 0
M  V30 2086 C 201.16 -1.13833 -1.66266 0
M  V30 2087 O 200.216 -0.828581 -2.38518 0
M  V30 2088 C 201.529 -3.00699 0.00766489 0
M  V30 2089 C 203.077 -3.12947 -0.0577483 0
M  V30 2090 C 203.552 -4.57742 0.153626 0
M  V30 2091 N 205.043 -4.63092 0.0998073 0
M  V30 2092 C 205.778 -5.72905 0.238174 0
M  V30 2093 N 205.274 -6.91445 0.433057 0
M  V30 2094 N 207.067 -5.6182 0.177308 0
M  V30 2095 H 199.218 -1.84055 1.06007 0
M  V30 2096 H 201.481 -0.850905 0.417929 0
M  V30 2097 H 201.187 -3.3726 0.997431 0
M  V30 2098 H 201.061 -3.70236 -0.721452 0
M  V30 2099 H 203.448 -2.7624 -1.03804 0
M  V30 2100 H 203.529 -2.4594 0.70335 0
M  V30 2101 H 203.173 -4.95149 1.13092 0
M  V30 2102 H 203.103 -5.22848 -0.627534 0
M  V30 2103 H 205.594 -3.77871 -0.047051 0
M  V30 2104 H 205.907 -7.70985 0.529332 0
M  V30 2105 H 204.252 -6.93415 0.469109 0
M  V30 2106 H 207.443 -4.68093 0.0259748 0
M  V30 2107 H 207.616 -6.47357 0.288582 0
M  V30 2108 N 201.022 0.148545 -1.56898 0
M  V30 2109 C 202.252 0.875118 -1.8715 0
M  V30 2110 C 202.66 1.75322 -0.711262 0
M  V30 2111 O 202.003 1.80745 0.328151 0
M  V30 2112 C 202.065 1.7844 -3.12089 0
M  V30 2113 C 201.729 1.08361 -4.43967 0
M  V30 2114 C 202.726 0.438247 -5.1805 0
M  V30 2115 C 200.411 1.07358 -4.90693 0
M  V30 2116 C 202.405 -0.20779 -6.37061 0
M  V30 2117 C 200.092 0.42373 -6.09629 0
M  V30 2118 C 201.09 -0.215829 -6.82659 0
M  V30 2119 O 200.778 -0.855378 -7.99336 0
M  V30 2120 H 200.51 0.258504 -0.624621 0
M  V30 2121 H 203.064 0.14652 -2.04877 0
M  V30 2122 H 201.294 2.55389 -2.90367 0
M  V30 2123 H 202.983 2.38279 -3.286 0
M  V30 2124 H 203.749 0.437817 -4.8302 0
M  V30 2125 H 199.628 1.5608 -4.33774 0
M  V30 2126 H 203.172 -0.70758 -6.94002 0
M  V30 2127 H 199.069 0.421822 -6.4412 0
M  V30 2128 H 199.837 -0.756892 -8.14993 0
M  V30 2129 N 202.5 1.5196 0.417844 0
M  V30 2130 C 203.746 1.66793 1.16411 0
M  V30 2131 C 204.101 0.388758 1.88432 0
M  V30 2132 O 203.394 -0.616409 1.81414 0
M  V30 2133 C 203.588 2.82269 2.19223 0
M  V30 2134 C 203.417 4.21293 1.57297 0
M  V30 2135 C 202.187 4.86948 1.34944 0
M  V30 2136 C 204.385 5.03704 1.03858 0
M  V30 2137 N 202.367 6.1003 0.688195 0
M  V30 2138 C 203.738 6.1795 0.503742 0
M  V30 2139 C 205.793 4.89095 0.932203 0
M  V30 2140 C 204.496 7.19188 -0.127034 0
M  V30 2141 C 206.522 5.90559 0.315293 0
M  V30 2142 C 205.884 7.0409 -0.208906 0
M  V30 2143 H 201.983 0.66407 0.412959 0
M  V30 2144 H 204.567 1.89242 0.457772 0
M  V30 2145 H 202.738 2.61451 2.87225 0
M  V30 2146 H 204.47 2.86183 2.86149 0
M  V30 2147 H 201.225 4.45156 1.61657 0
M  V30 2148 H 201.649 6.75964 0.374449 0
M  V30 2149 H 206.291 4.01557 1.32332 0
M  V30 2150 H 204.009 8.06359 -0.530231 0
M  V30 2151 H 207.595 5.81327 0.234625 0
M  V30 2152 H 206.475 7.81257 -0.67875 0
M  V30 2153 N 203.978 -0.674533 1.42435 0
M  V30 2154 C 204.941 -1.76986 1.45632 0
M  V30 2155 C 205.941 -1.5708 0.343871 0
M  V30 2156 O 207.131 -1.63367 0.604709 0
M  V30 2157 C 204.263 -3.15623 1.28822 0
M  V30 2158 H 205.456 -1.75539 2.43158 0
M  V30 2159 H 203.009 -0.884189 1.28887 0
M  V30 2160 H 203.744 -3.22696 0.322193 0
M  V30 2161 H 203.529 -3.31475 2.09444 0
M  V30 2162 H 205.019 -3.95537 1.33942 0
M  V30 2163 N 205.456 -1.28612 -0.910864 0
M  V30 2164 C 206.705 -1.15311 -1.65488 0
M  V30 2165 C 207.018 0.296999 -1.93332 0
M  V30 2166 O 208.224 0.551168 -2.65847 0
M  V30 2167 C 206.68 -2.01599 -2.98137 0
M  V30 2168 C 206.288 -3.51367 -2.7793 0
M  V30 2169 C 208.032 -1.96993 -3.76024 0
M  V30 2170 C 205.939 -4.29797 -4.06237 0
M  V30 2171 H 204.869 -0.42796 -0.620779 0
M  V30 2172 H 207.52 -1.53166 -1.01057 0
M  V30 2173 H 205.902 -1.56603 -3.63719 0
M  V30 2174 H 207.076 -4.0434 -2.21011 0
M  V30 2175 H 205.391 -3.57529 -2.13452 0
M  V30 2176 H 207.988 -2.52856 -4.71135 0
M  V30 2177 H 208.331 -0.94733 -4.05378 0
M  V30 2178 H 208.864 -2.39973 -3.17266 0
M  V30 2179 H 205.603 -5.32648 -3.82055 0
M  V30 2180 H 205.123 -3.81596 -4.62757 0
M  V30 2181 H 206.802 -4.39869 -4.74473 0
M  V30 2182 N 206.934 1.1197 -1.10907 0
M  V30 2183 C 208.162 1.87402 -0.876824 0
M  V30 2184 C 208.577 1.79894 0.573025 0
M  V30 2185 O 207.934 1.17629 1.39534 0
M  V30 2186 C 207.985 3.36428 -1.32282 0
M  V30 2187 O 207.706 3.43765 -2.71582 0
M  V30 2188 C 209.207 4.28783 -1.12518 0
M  V30 2189 H 206.427 0.592793 -0.314384 0
M  V30 2190 H 208.971 1.41649 -1.47499 0
M  V30 2191 H 207.126 3.79706 -0.768229 0
M  V30 2192 H 207.54 4.3652 -2.90776 0
M  V30 2193 H 209.014 5.31613 -1.48633 0
M  V30 2194 H 209.491 4.39153 -0.0642394 0
M  V30 2195 H 210.097 3.91291 -1.66648 0
M  V30 2196 N 208.412 0.89855 1.29475 0
M  V30 2197 C 209.689 0.443416 1.90508 0
M  V30 2198 C 210.069 -1.07685 1.81569 0
M  V30 2199 O 209.417 -1.9182 1.24166 0
M  V30 2200 C 209.627 0.956708 3.35631 0
M  V30 2201 C 210.975 0.999728 4.12663 0
M  V30 2202 O 211.999 0.904299 3.4453 0
M  V30 2203 O 210.858 1.14289 5.34416 0
M  V30 2204 H 207.952 0.138025 0.815401 0
M  V30 2205 H 210.498 0.98834 1.37949 0
M  V30 2206 H 209.27 2.00067 3.36287 0
M  V30 2207 H 208.893 0.391728 3.95666 0
M  V30 2208 N 209.89 -1.43072 0.660911 0
M  V30 2209 C 210.853 -2.29194 -0.0166406 0
M  V30 2210 C 211.853 -1.42609 -0.742912 0
M  V30 2211 O 213.043 -1.64155 -0.583004 0
M  V30 2212 C 210.175 -3.24831 -1.0343 0
M  V30 2213 H 211.368 -2.90596 0.741208 0
M  V30 2214 H 208.921 -1.5048 0.422532 0
M  V30 2215 H 209.656 -2.68339 -1.82111 0
M  V30 2216 H 209.441 -3.88676 -0.517082 0
M  V30 2217 H 210.931 -3.89451 -1.50723 0
M  V30 2218 N 211.368 -0.403325 -1.52352 0
M  V30 2219 C 212.298 0.416205 -2.29761 0
M  V30 2220 C 213.279 1.05123 -1.33728 0
M  V30 2221 O 214.464 1.06134 -1.62632 0
M  V30 2222 C 211.594 1.53624 -3.11475 0
M  V30 2223 C 210.548 1.02653 -4.15507 0
M  V30 2224 C 209.874 2.23971 -4.85532 0
M  V30 2225 C 211.174 0.08463 -5.22231 0
M  V30 2226 H 212.868 -0.229701 -2.98518 0
M  V30 2227 H 210.414 -0.111913 -1.43564 0
M  V30 2228 H 212.367 2.1165 -3.64393 0
M  V30 2229 H 211.091 2.20994 -2.40477 0
M  V30 2230 H 209.75 0.46871 -3.63591 0
M  V30 2231 H 209.398 2.89883 -4.11068 0
M  V30 2232 H 209.098 1.90521 -5.55856 0
M  V30 2233 H 210.622 2.82614 -5.41259 0
M  V30 2234 H 212.036 0.573509 -5.70424 0
M  V30 2235 H 210.433 -0.160783 -5.99885 0
M  V30 2236 H 211.503 -0.86237 -4.7717 0
M  V30 2237 N 212.846 1.57033 -0.133567 0
M  V30 2238 C 213.756 2.19632 0.824564 0
M  V30 2239 C 214.772 1.17666 1.28182 0
M  V30 2240 O 215.948 1.50193 1.3418 0
M  V30 2241 C 213.013 2.79499 2.05137 0
M  V30 2242 C 212.074 3.96548 1.64464 0
M  V30 2243 C 211.307 4.5355 2.81297 0
M  V30 2244 O 211.53 4.09438 3.97136 0
M  V30 2245 O 210.464 5.44018 2.57542 0
M  V30 2246 H 214.29 3.01991 0.321766 0
M  V30 2247 H 211.875 1.49112 0.0927889 0
M  V30 2248 H 213.757 3.17602 2.7696 0
M  V30 2249 H 212.432 2.00162 2.54395 0
M  V30 2250 H 211.339 3.63186 0.897048 0
M  V30 2251 H 212.672 4.77364 1.19934 0
M  V30 2252 N 214.325 -0.140222 1.56975 0
M  V30 2253 C 215.555 -0.865181 1.87612 0
M  V30 2254 C 215.963 -1.74942 0.72055 0
M  V30 2255 O 215.306 -1.80917 -0.318561 0
M  V30 2256 C 215.368 -1.76782 3.13031 0
M  V30 2257 C 215.032 -1.06005 4.44536 0
M  V30 2258 C 216.029 -0.410768 5.18275 0
M  V30 2259 C 213.714 -1.04754 4.91255 0
M  V30 2260 C 215.708 0.241572 6.36942 0
M  V30 2261 C 213.395 -0.391394 6.09845 0
M  V30 2262 C 214.393 0.252029 6.82535 0
M  V30 2263 O 214.081 0.897757 7.98871 0
M  V30 2264 H 213.813 -0.255188 0.625983 0
M  V30 2265 H 216.367 -0.135653 2.04952 0
M  V30 2266 H 214.597 -2.53846 2.91718 0
M  V30 2267 H 216.286 -2.36533 3.29859 0
M  V30 2268 H 217.052 -0.412195 4.83245 0
M  V30 2269 H 212.931 -1.53777 4.34596 0
M  V30 2270 H 216.475 0.744375 6.93617 0
M  V30 2271 H 212.372 -0.387656 6.44335 0
M  V30 2272 H 213.14 0.800102 8.1458 0
M  V30 2273 N 215.803 -1.52179 -0.40978 0
M  V30 2274 C 217.028 -1.70347 -1.18308 0
M  V30 2275 C 217.453 -0.411887 -1.83535 0
M  V30 2276 O 216.811 0.630587 -1.6998 0
M  V30 2277 C 216.859 -2.83977 -2.22238 0
M  V30 2278 O 215.963 -2.495 -3.28365 0
M  V30 2279 H 215.304 -0.567103 -0.345384 0
M  V30 2280 H 217.834 -1.98879 -0.480445 0
M  V30 2281 H 217.844 -3.0887 -2.66577 0
M  V30 2282 H 216.519 -3.77685 -1.74146 0
M  V30 2283 H 215.096 -2.35277 -2.89308 0
M  V30 2284 N 217.281 0.66697 -1.42791 0
M  V30 2285 C 218.228 1.7803 -1.4688 0
M  V30 2286 C 219.198 1.6299 -0.319919 0
M  V30 2287 O 220.383 1.83432 -0.525118 0
M  V30 2288 C 217.523 3.1611 -1.38451 0
M  V30 2289 C 216.636 3.42381 -2.63437 0
M  V30 2290 C 215.771 4.70232 -2.47094 0
M  V30 2291 C 214.81 4.89564 -3.67415 0
M  V30 2292 N 213.947 6.08661 -3.49966 0
M  V30 2293 H 218.787 1.7387 -2.42019 0
M  V30 2294 H 216.324 0.84868 -1.20149 0
M  V30 2295 H 218.282 3.95914 -1.31561 0
M  V30 2296 H 216.912 3.19374 -0.469033 0
M  V30 2297 H 215.964 2.56774 -2.80662 0
M  V30 2298 H 217.276 3.52557 -3.52853 0
M  V30 2299 H 216.43 5.5814 -2.37834 0
M  V30 2300 H 215.169 4.62353 -1.5518 0
M  V30 2301 H 214.174 4.00096 -3.77099 0
M  V30 2302 H 215.399 4.99282 -4.6032 0
M  V30 2303 H 213.345 6.0194 -2.60776 0
M  V30 2304 H 213.262 6.19733 -4.32975 0
M  V30 2305 H 214.53 6.99226 -3.44532 0
M  V30 2306 N 218.759 1.29093 0.90403 0
M  V30 2307 C 220.175 1.07011 1.1841 0
M  V30 2308 C 220.375 -0.181358 2.00682 0
M  V30 2309 O 219.431 -0.880331 2.36657 0
M  V30 2310 C 220.744 2.32311 1.90924 0
M  V30 2311 C 222.292 2.37587 2.03768 0
M  V30 2312 C 222.767 3.62679 2.79693 0
M  V30 2313 N 224.258 3.63376 2.87249 0
M  V30 2314 C 224.993 4.56848 3.46522 0
M  V30 2315 N 224.489 5.60648 4.06996 0
M  V30 2316 N 226.282 4.44426 3.44154 0
M  V30 2317 H 218.433 2.09412 0.354993 0
M  V30 2318 H 220.696 0.922181 0.219742 0
M  V30 2319 H 220.402 3.23536 1.37905 0
M  V30 2320 H 220.276 2.39483 2.91424 0
M  V30 2321 H 222.663 1.46853 2.55965 0
M  V30 2322 H 222.744 2.34403 1.02415 0
M  V30 2323 H 222.388 4.53762 2.28173 0
M  V30 2324 H 222.318 3.63119 3.81381 0
M  V30 2325 H 224.809 2.88321 2.44293 0
M  V30 2326 H 225.122 6.28101 4.50232 0
M  V30 2327 H 223.467 5.64463 4.05471 0
M  V30 2328 H 226.658 3.62529 2.96126 0
M  V30 2329 H 226.831 5.17457 3.90054 0
M  V30 2330 N 220.237 -1.11381 1.11499 0
M  V30 2331 C 221.653 -1.35143 0.849031 0
M  V30 2332 C 221.853 -1.94515 -0.525938 0
M  V30 2333 O 220.909 -2.1785 -1.27662 0
M  V30 2334 C 222.222 -2.28249 1.95762 0
M  V30 2335 C 223.77 -2.41812 1.98736 0
M  V30 2336 C 224.245 -3.3824 3.088 0
M  V30 2337 N 225.736 -3.45803 3.08179 0
M  V30 2338 C 226.471 -4.20358 3.89982 0
M  V30 2339 N 225.967 -4.97884 4.8175 0
M  V30 2340 N 227.76 -4.15877 3.78157 0
M  V30 2341 H 219.911 -0.712062 2.00109 0
M  V30 2342 H 222.174 -0.376025 0.870235 0
M  V30 2343 H 221.88 -1.91817 2.94787 0
M  V30 2344 H 221.754 -3.28473 1.85433 0
M  V30 2345 H 224.141 -2.77518 1.00338 0
M  V30 2346 H 224.222 -1.41437 2.13141 0
M  V30 2347 H 223.866 -3.03261 4.07425 0
M  V30 2348 H 223.796 -4.38471 2.91635 0
M  V30 2349 H 226.287 -2.90506 2.41691 0
M  V30 2350 H 226.6 -5.52142 5.40702 0
M  V30 2351 H 224.945 -4.97043 4.85771 0
M  V30 2352 H 228.136 -3.544 3.05808 0
M  V30 2353 H 228.309 -4.73723 4.42143 0
M  V30 2354 N 221.715 -0.905404 -1.28997 0
M  V30 2355 C 222.943 -0.549846 -1.9946 0
M  V30 2356 C 223.358 0.866834 -1.67724 0
M  V30 2357 O 222.715 1.57298 -0.925404 0
M  V30 2358 C 222.766 -0.739387 -3.53858 0
M  V30 2359 O 222.487 -2.10031 -3.84472 0
M  V30 2360 C 223.988 -0.389541 -4.41585 0
M  V30 2361 H 221.208 -0.210429 -0.637151 0
M  V30 2362 H 223.752 -1.21632 -1.64396 0
M  V30 2363 H 221.907 -0.120023 -3.87214 0
M  V30 2364 H 222.321 -2.13385 -4.79132 0
M  V30 2365 H 223.795 -0.572972 -5.49018 0
M  V30 2366 H 224.272 0.673756 -4.34001 0
M  V30 2367 H 224.878 -0.986089 -4.1371 0
M  V30 2368 N 223.193 1.4272 -0.668489 0
M  V30 2369 C 224.156 2.292 0.00448567 0
M  V30 2370 C 225.156 1.43001 0.735339 0
M  V30 2371 O 226.346 1.64461 0.57429 0
M  V30 2372 C 223.478 3.25375 1.01705 0
M  V30 2373 H 224.671 2.90199 -0.756608 0
M  V30 2374 H 222.224 1.50254 -0.430506 0
M  V30 2375 H 222.959 2.69301 1.80686 0
M  V30 2376 H 222.744 3.88944 0.496463 0
M  V30 2377 H 224.234 3.90245 1.48655 0
M  V30 2378 N 224.671 0.411399 1.52136 0
M  V30 2379 C 225.919 -0.163322 2.01439 0
M  V30 2380 C 226.24 -1.45453 1.29879 0
M  V30 2381 O 225.51 -1.91225 0.4254 0
M  V30 2382 H 224.09 -0.0633447 0.744309 0
M  V30 2383 H 226.752 0.548161 1.87033 0
M  V30 2384 H 225.848 -0.357817 3.10042 0
M  V30 2385 N 226.149 -1.5696 0.141893 0
M  V30 2386 C 227.099 -2.13074 -0.811383 0
M  V30 2387 C 228.083 -1.05726 -1.21288 0
M  V30 2388 O 229.275 -1.31914 -1.18015 0
M  V30 2389 C 226.404 -2.75186 -2.0525 0
M  V30 2390 C 225.49 -3.8965 -1.67432 0
M  V30 2391 N 225.881 -4.95733 -1.0041 0
M  V30 2392 C 224.179 -4.00262 -1.96739 0
M  V30 2393 C 224.88 -5.75858 -0.822345 0
M  V30 2394 N 223.856 -5.26452 -1.3546 0
M  V30 2395 H 227.658 -2.92465 -0.290031 0
M  V30 2396 H 225.172 -1.6229 -0.0598218 0
M  V30 2397 H 227.169 -3.13745 -2.74535 0
M  V30 2398 H 225.829 -1.97266 -2.57907 0
M  V30 2399 H 226.84 -5.13607 -0.665441 0
M  V30 2400 H 223.517 -3.33412 -2.51282 0
M  V30 2401 H 224.907 -6.71254 -0.294496 0
M  V30 2402 N 227.627 0.131896 -1.57047 0
M  V30 2403 C 228.59 1.14638 -1.98471 0
M  V30 2404 C 229.59 1.35029 -0.873148 0
M  V30 2405 O 230.78 1.31764 -1.13946 0
M  V30 2406 C 227.912 2.50358 -2.31373 0
M  V30 2407 H 229.105 0.79064 -2.8929 0
M  V30 2408 H 226.658 0.375761 -1.51716 0
M  V30 2409 H 227.393 2.90876 -1.43393 0
M  V30 2410 H 227.178 2.36915 -3.12432 0
M  V30 2411 H 228.668 3.23395 -2.64207 0
M  V30 2412 N 229.106 1.52395 0.401703 0
M  V30 2413 C 230.069 1.75636 1.47257 0
M  V30 2414 C 231.069 0.62628 1.48103 0
M  V30 2415 O 232.259 0.894227 1.49497 0
M  V30 2416 C 229.391 1.84553 2.86624 0
M  V30 2417 H 230.584 2.71241 1.27938 0
M  V30 2418 H 228.137 1.42923 0.632662 0
M  V30 2419 H 228.872 0.908882 3.11303 0
M  V30 2420 H 228.657 2.66715 2.87412 0
M  V30 2421 H 230.147 2.04251 3.64241 0
M  V30 2422 N 230.584 -0.659388 1.43143 0
M  V30 2423 C 231.812 -1.44723 1.47861 0
M  V30 2424 C 232.227 -1.88563 0.0945886 0
M  V30 2425 O 231.584 -1.59108 -0.893915 0
M  V30 2426 C 231.635 -2.68627 2.41913 0
M  V30 2427 O 231.356 -2.26623 3.74932 0
M  V30 2428 C 232.857 -3.62045 2.55809 0
M  V30 2429 H 230.077 -0.444801 0.502387 0
M  V30 2430 H 232.621 -0.808916 1.87821 0
M  V30 2431 H 230.776 -3.28613 2.05164 0
M  V30 2432 H 231.19 -3.06745 4.2545 0
M  V30 2433 H 232.664 -4.45666 3.25708 0
M  V30 2434 H 233.141 -4.08981 1.60099 0
M  V30 2435 H 233.747 -3.07944 2.93344 0
M  V30 2436 N 232.062 -1.29571 -0.897171 0
M  V30 2437 C 232.995 -1.0924 -2.00354 0
M  V30 2438 C 233.973 -0.00354011 -1.626 0
M  V30 2439 O 235.157 -0.15473 -1.87864 0
M  V30 2440 C 232.284 -0.66352 -3.32137 0
M  V30 2441 C 231.33 -1.75146 -3.88878 0
M  V30 2442 S 232.163 -3.35124 -4.17674 0
M  V30 2443 C 233.319 -2.9411 -5.52494 0
M  V30 2444 H 233.552 -2.02907 -2.17292 0
M  V30 2445 H 231.085 -1.13746 -1.04408 0
M  V30 2446 H 233.043 -0.422791 -4.08317 0
M  V30 2447 H 231.704 0.253588 -3.13075 0
M  V30 2448 H 230.897 -1.40337 -4.84068 0
M  V30 2449 H 230.499 -1.94584 -3.19395 0
M  V30 2450 H 232.791 -2.41312 -6.33068 0
M  V30 2451 H 233.734 -3.88161 -5.9223 0
M  V30 2452 H 234.142 -2.32332 -5.14473 0
M  V30 2453 N 233.54 1.10788 -1.12088 0
M  V30 2454 C 234.789 1.82036 -0.868659 0
M  V30 2455 C 235.102 1.85929 0.607426 0
M  V30 2456 O 236.308 2.53346 0.97613 0
M  V30 2457 C 234.764 3.26951 -1.50435 0
M  V30 2458 C 234.372 3.31367 -3.01496 0
M  V30 2459 C 236.116 4.03053 -1.33225 0
M  V30 2460 C 234.023 4.7072 -3.58017 0
M  V30 2461 H 232.953 0.682108 -0.321318 0
M  V30 2462 H 235.604 1.24618 -1.34694 0
M  V30 2463 H 233.986 3.84343 -0.953735 0
M  V30 2464 H 235.16 2.83819 -3.6302 0
M  V30 2465 H 233.475 2.6875 -3.18061 0
M  V30 2466 H 236.072 5.05981 -1.72878 0
M  V30 2467 H 236.415 4.15387 -0.275529 0
M  V30 2468 H 236.948 3.52066 -1.85188 0
M  V30 2469 H 233.687 4.63585 -4.63432 0
M  V30 2470 H 233.207 5.1865 -3.01268 0
M  V30 2471 H 234.886 5.39685 -3.56859 0
M  V30 2472 N 235.018 0.912232 1.28515 0
M  V30 2473 C 235.981 0.404223 2.25607 0
M  V30 2474 C 236.981 -0.468602 1.53821 0
M  V30 2475 O 238.171 -0.271873 1.72065 0
M  V30 2476 C 235.303 -0.420653 3.38295 0
M  V30 2477 H 236.496 1.26188 2.7206 0
M  V30 2478 H 234.049 0.691495 1.40171 0
M  V30 2479 H 234.784 -1.29777 2.97201 0
M  V30 2480 H 234.569 0.204935 3.91564 0
M  V30 2481 H 236.059 -0.766971 4.10496 0
M  V30 2482 N 236.496 -1.42363 0.676048 0
M  V30 2483 C 237.745 -2.00745 0.196037 0
M  V30 2484 C 238.058 -1.54083 -1.20489 0
M  V30 2485 O 239.264 -2.04891 -1.78134 0
M  V30 2486 C 237.72 -3.58651 0.299616 0
M  V30 2487 C 237.328 -4.143 1.70468 0
M  V30 2488 C 239.072 -4.24326 -0.121619 0
M  V30 2489 C 236.979 -5.64574 1.76096 0
M  V30 2490 H 235.909 -0.750787 0.0695301 0
M  V30 2491 H 238.56 -1.63072 0.841412 0
M  V30 2492 H 236.942 -3.93833 -0.413673 0
M  V30 2493 H 238.116 -3.90575 2.44515 0
M  V30 2494 H 236.431 -3.61081 2.07387 0
M  V30 2495 H 239.028 -5.34607 -0.0997362 0
M  V30 2496 H 239.371 -3.99897 -1.15708 0
M  V30 2497 H 239.904 -3.94108 0.540706 0
M  V30 2498 H 236.643 -5.93804 2.77628 0
M  V30 2499 H 236.163 -5.90286 1.06406 0
M  V30 2500 H 237.842 -6.29013 1.51496 0
M  V30 2501 N 237.974 -0.419461 -1.51915 0
M  V30 2502 C 239.22 0.153166 -2.02221 0
M  V30 2503 C 239.553 1.43907 -1.30401 0
M  V30 2504 O 238.828 1.90055 -0.413438 0
M  V30 2505 C 239.111 0.390291 -3.57979 0
M  V30 2506 C 238.964 -0.913014 -4.40436 0
M  V30 2507 C 240.283 1.16794 -4.2432 0
M  V30 2508 H 237.402 0.0541924 -0.735005 0
M  V30 2509 H 240.044 -0.554955 -1.81715 0
M  V30 2510 H 238.194 0.993491 -3.75582 0
M  V30 2511 H 239.866 -1.54882 -4.34522 0
M  V30 2512 H 238.109 -1.52168 -4.06236 0
M  V30 2513 H 238.78 -0.701361 -5.47526 0
M  V30 2514 H 241.256 0.657161 -4.10878 0
M  V30 2515 H 240.132 1.3026 -5.3322 0
M  V30 2516 H 240.393 2.19132 -3.83971 0
M  V30 2517 N 239.452 1.56882 -0.150215 0
M  V30 2518 C 240.698 1.97299 0.494427 0
M  V30 2519 C 241.053 1.0338 1.62266 0
M  V30 2520 O 240.346 0.0694497 1.91474 0
M  V30 2521 C 240.54 3.41801 1.04437 0
M  V30 2522 C 240.369 4.49691 -0.0290451 0
M  V30 2523 C 239.139 5.03095 -0.47156 0
M  V30 2524 C 241.337 5.07693 -0.821703 0
M  V30 2525 N 239.319 5.94593 -1.52749 0
M  V30 2526 C 240.69 5.95431 -1.72805 0
M  V30 2527 C 242.745 4.90256 -0.869134 0
M  V30 2528 C 241.448 6.67599 -2.67777 0
M  V30 2529 C 243.474 5.63127 -1.8067 0
M  V30 2530 C 242.836 6.50576 -2.70057 0
M  V30 2531 H 238.935 0.76755 0.149639 0
M  V30 2532 H 241.519 1.93145 -0.24556 0
M  V30 2533 H 239.69 3.46541 1.75396 0
M  V30 2534 H 241.422 3.69272 1.6559 0
M  V30 2535 H 238.177 4.73543 -0.0732101 0
M  V30 2536 H 238.601 6.45047 -2.05531 0
M  V30 2537 H 243.243 4.22363 -0.192134 0
M  V30 2538 H 240.961 7.34717 -3.36476 0
M  V30 2539 H 244.547 5.51629 -1.84924 0
M  V30 2540 H 243.427 7.05974 -3.41424 0
M  V30 2541 N 240.93 -0.123565 1.57115 0
M  V30 2542 C 241.893 -1.13583 1.99076 0
M  V30 2543 C 242.893 -1.34564 0.880296 0
M  V30 2544 O 244.083 -1.31158 1.14644 0
M  V30 2545 C 241.215 -2.49128 2.32698 0
M  V30 2546 H 242.408 -0.775287 2.89706 0
M  V30 2547 H 239.961 -0.36771 1.51913 0
M  V30 2548 H 240.696 -2.90111 1.44934 0
M  V30 2549 H 240.481 -2.35255 3.13684 0
M  V30 2550 H 241.971 -3.2199 2.65918 0
M  V30 2551 N 242.408 -1.52605 -0.393616 0
M  V30 2552 C 243.657 -1.66649 -1.13627 0
M  V30 2553 C 243.97 -0.410364 -1.91247 0
M  V30 2554 O 245.176 -0.430854 -2.68059 0
M  V30 2555 C 243.632 -2.9449 -2.06891 0
M  V30 2556 C 243.24 -4.27266 -1.34714 0
M  V30 2557 C 244.984 -3.17899 -2.81319 0
M  V30 2558 C 242.891 -5.46217 -2.26717 0
M  V30 2559 H 241.821 -0.62084 -0.427871 0
M  V30 2560 H 244.472 -1.791 -0.399428 0
M  V30 2561 H 242.854 -2.75774 -2.84191 0
M  V30 2562 H 244.028 -4.56518 -0.626714 0
M  V30 2563 H 242.343 -4.10081 -0.722643 0
M  V30 2564 H 244.94 -4.03949 -3.50328 0
M  V30 2565 H 245.283 -2.32777 -3.45139 0
M  V30 2566 H 245.816 -3.37159 -2.11113 0
M  V30 2567 H 242.555 -6.33733 -1.67521 0
M  V30 2568 H 242.075 -5.21283 -2.96689 0
M  V30 2569 H 243.754 -5.7991 -2.86903 0
M  V30 2570 N 243.887 0.651787 -1.4349 0
M  V30 2571 C 245.112 1.44434 -1.48841 0
M  V30 2572 C 245.537 1.8779 -0.107955 0
M  V30 2573 O 244.895 1.57464 0.898602 0
M  V30 2574 C 244.943 2.65458 -2.44059 0
M  V30 2575 O 244.047 3.64566 -1.92784 0
M  V30 2576 H 243.388 0.433005 -0.503391 0
M  V30 2577 H 245.918 0.797451 -1.88419 0
M  V30 2578 H 245.928 3.13255 -2.6141 0
M  V30 2579 H 244.603 2.33244 -3.4434 0
M  V30 2580 H 243.18 3.23716 -1.851 0
M  V30 2581 N 245.365 1.30045 0.890287 0
M  V30 2582 C 246.614 1.17929 1.63633 0
M  V30 2583 C 246.927 -0.266204 1.9378 0
M  V30 2584 O 248.133 -0.508804 2.6669 0
M  V30 2585 C 246.589 2.06317 2.94892 0
M  V30 2586 C 246.197 3.55745 2.72305 0
M  V30 2587 C 247.941 2.0295 3.72843 0
M  V30 2588 C 245.848 4.36205 3.99348 0
M  V30 2589 H 244.778 0.437782 0.613892 0
M  V30 2590 H 247.429 1.54754 0.986075 0
M  V30 2591 H 245.811 1.6237 3.61182 0
M  V30 2592 H 246.985 4.07805 2.1455 0
M  V30 2593 H 245.3 3.6088 2.07737 0
M  V30 2594 H 247.897 2.60319 4.67053 0
M  V30 2595 H 248.24 1.0117 4.0382 0
M  V30 2596 H 248.773 2.4499 3.13408 0
M  V30 2597 H 245.512 5.38659 3.73533 0
M  V30 2598 H 245.032 3.8891 4.56628 0
M  V30 2599 H 246.711 4.47362 4.67415 0
M  V30 2600 N 246.843 -1.10192 1.12674 0
M  V30 2601 C 248.083 -1.83825 0.893736 0
M  V30 2602 C 248.447 -1.83341 -0.570082 0
M  V30 2603 O 249.648 -2.52553 -0.920354 0
M  V30 2604 C 247.919 -3.26405 1.45582 0
M  V30 2605 S 249.478 -4.17136 1.36171 0
M  V30 2606 H 246.296 -0.633732 0.322342 0
M  V30 2607 H 248.898 -1.32581 1.43675 0
M  V30 2608 H 247.602 -3.24329 2.51473 0
M  V30 2609 H 247.133 -3.82721 0.910405 0
M  V30 2610 H 249.148 -4.95069 0.334863 0
M  V30 2611 N 248.321 -0.919034 -1.28029 0
M  V30 2612 C 249.57 -0.550802 -1.94034 0
M  V30 2613 C 249.883 0.910877 -1.73096 0
M  V30 2614 O 251.089 1.3875 -2.33368 0
M  V30 2615 C 249.545 -0.934249 -3.47563 0
M  V30 2616 C 249.153 -2.41602 -3.7727 0
M  V30 2617 C 250.897 -0.636854 -4.19696 0
M  V30 2618 C 248.804 -2.73932 -5.24133 0
M  V30 2619 H 247.734 -0.202273 -0.726362 0
M  V30 2620 H 250.385 -1.11867 -1.45458 0
M  V30 2621 H 248.767 -0.295115 -3.94899 0
M  V30 2622 H 249.941 -3.10233 -3.40723 0
M  V30 2623 H 248.256 -2.68441 -3.18321 0
M  V30 2624 H 250.853 -0.855005 -5.2782 0
M  V30 2625 H 251.196 0.425575 -4.14119 0
M  V30 2626 H 251.729 -1.23469 -3.78154 0
M  V30 2627 H 248.468 -3.79049 -5.34792 0
M  V30 2628 H 247.988 -2.09942 -5.61858 0
M  V30 2629 H 249.667 -2.61215 -5.91925 0
M  V30 2630 N 249.799 1.42003 -0.683588 0
M  V30 2631 C 251.024 2.06265 -0.216647 0
M  V30 2632 C 251.449 1.51059 1.12083 0
M  V30 2633 O 250.807 0.632638 1.69904 0
M  V30 2634 C 250.855 3.60191 -0.171759 0
M  V30 2635 O 249.959 4.03396 0.857069 0
M  V30 2636 H 249.3 0.65502 -0.108834 0
M  V30 2637 H 251.83 1.81982 -0.935077 0
M  V30 2638 H 251.84 4.08 0.0014303 0
M  V30 2639 H 250.515 3.99743 -1.14796 0
M  V30 2640 H 249.092 3.67117 0.654208 0
M  V30 2641 N 251.277 0.427512 1.51691 0
M  V30 2642 C 252.526 -0.143679 2.01188 0
M  V30 2643 C 252.839 -1.44642 1.31674 0
M  V30 2644 O 254.045 -2.09997 1.72086 0
M  V30 2645 C 252.501 -0.306602 3.58592 0
M  V30 2646 C 252.109 0.985125 4.37035 0
M  V30 2647 C 253.853 -0.832091 4.16265 0
M  V30 2648 C 251.76 0.788382 5.86122 0
M  V30 2649 H 250.69 -0.0574701 0.751807 0
M  V30 2650 H 253.341 0.555772 1.74881 0
M  V30 2651 H 251.723 -1.06882 3.81303 0
M  V30 2652 H 252.897 1.75492 4.26074 0
M  V30 2653 H 251.212 1.4384 3.90767 0
M  V30 2654 H 253.809 -0.995617 5.25349 0
M  V30 2655 H 254.152 -1.81186 3.74803 0
M  V30 2656 H 254.685 -0.128444 3.97593 0
M  V30 2657 H 251.424 1.74025 6.31978 0
M  V30 2658 H 250.944 0.0582143 5.99772 0
M  V30 2659 H 252.623 0.437722 6.45518 0
M  V30 2660 N 252.755 -1.56801 0.158532 0
M  V30 2661 C 254.166 -1.83189 -0.360366 0
M  V30 2662 C 254.517 -1.07778 -1.63946 0
M  V30 2663 O 253.642 -0.326718 -2.13919 0
M  V30 2664 C 254.237 -3.32297 -0.660595 0
M  V30 2665 C 252.796 -3.59227 -1.12398 0
M  V30 2666 C 251.943 -2.76877 -0.153097 0
M  V30 2667 H 254.894 -1.54008 0.383031 0
M  V30 2668 H 254.915 -3.4908 -1.51405 0
M  V30 2669 H 254.427 -3.87156 0.270527 0
M  V30 2670 H 252.528 -3.09766 -2.07064 0
M  V30 2671 H 252.641 -4.67632 -1.04197 0
M  V30 2672 H 251.005 -2.46319 -0.647983 0
M  V30 2673 H 251.788 -3.34511 0.77182 0
M  V30 2674 N 254.233 0.115231 -1.57178 0
M  V30 2675 C 255.644 0.67197 -1.74188 0
M  V30 2676 C 255.995 1.80125 -0.777777 0
M  V30 2677 O 255.12 2.16346 0.0484376 0
M  V30 2678 C 255.715 1.22573 -3.1585 0
M  V30 2679 C 254.274 1.72872 -3.34353 0
M  V30 2680 C 253.421 0.629972 -2.70049 0
M  V30 2681 H 256.372 -0.110712 -1.58313 0
M  V30 2682 H 256.393 2.09535 -3.17609 0
M  V30 2683 H 255.905 0.403598 -3.85996 0
M  V30 2684 H 254.006 2.5755 -2.69256 0
M  V30 2685 H 254.119 1.83557 -4.42542 0
M  V30 2686 H 252.483 1.0645 -2.31388 0
M  V30 2687 H 253.266 -0.181241 -3.42821 0
M  V30 2688 N 255.711 1.52812 0.385517 0
M  V30 2689 C 256.641 1.80808 1.47752 0
M  V30 2690 C 257.622 0.660318 1.5676 0
M  V30 2691 O 258.807 0.908246 1.71652 0
M  V30 2692 C 255.937 1.98008 2.85324 0
M  V30 2693 C 254.891 3.13709 2.91154 0
M  V30 2694 C 254.217 3.16169 4.31209 0
M  V30 2695 C 255.517 4.52709 2.60483 0
M  V30 2696 H 257.211 2.72253 1.24573 0
M  V30 2697 H 254.757 1.31003 0.597839 0
M  V30 2698 H 256.71 2.16176 3.61726 0
M  V30 2699 H 255.434 1.03255 3.09848 0
M  V30 2700 H 254.093 2.95329 2.17201 0
M  V30 2701 H 253.741 2.19092 4.52778 0
M  V30 2702 H 253.441 3.93894 4.36029 0
M  V30 2703 H 254.965 3.36496 5.09512 0
M  V30 2704 H 256.379 4.71173 3.26602 0
M  V30 2705 H 254.776 5.32528 2.76648 0
M  V30 2706 H 255.846 4.59186 1.55809 0
M  V30 2707 N 257.189 -0.644168 1.43834 0
M  V30 2708 C 258.436 -1.40395 1.4593 0
M  V30 2709 C 258.764 -1.94305 0.0869658 0
M  V30 2710 O 258.019 -1.73288 -0.909378 0
M  V30 2711 C 258.318 -2.59615 2.45631 0
M  V30 2712 C 257.984 -2.2407 3.91284 0
M  V30 2713 C 256.646 -2.14089 4.30952 0
M  V30 2714 C 258.998 -1.95775 4.83034 0
M  V30 2715 C 256.326 -1.73981 5.6031 0
M  V30 2716 C 258.678 -1.57163 6.12766 0
M  V30 2717 C 257.342 -1.45713 6.51402 0
M  V30 2718 H 256.612 -0.513741 0.533995 0
M  V30 2719 H 259.259 -0.731724 1.76969 0
M  V30 2720 H 257.564 -3.32011 2.08028 0
M  V30 2721 H 259.261 -3.17834 2.44504 0
M  V30 2722 H 255.851 -2.32753 3.59895 0
M  V30 2723 H 260.035 -2.02403 4.53152 0
M  V30 2724 H 255.291 -1.63709 5.89075 0
M  V30 2725 H 259.465 -1.34303 6.83327 0
M  V30 2726 H 257.092 -1.14406 7.51542 0
M  V30 2727 N 258.668 -1.30515 -0.883378 0
M  V30 2728 C 259.914 -1.20617 -1.63778 0
M  V30 2729 C 260.269 0.236469 -1.90941 0
M  V30 2730 O 259.562 1.16596 -1.52039 0
M  V30 2731 C 259.756 -1.96994 -2.98209 0
M  V30 2732 C 259.585 -3.48537 -2.84169 0
M  V30 2733 C 258.355 -4.17893 -2.84067 0
M  V30 2734 C 260.553 -4.43738 -2.60001 0
M  V30 2735 N 258.535 -5.55685 -2.60936 0
M  V30 2736 C 259.906 -5.69105 -2.46007 0
M  V30 2737 C 261.961 -4.33316 -2.45239 0
M  V30 2738 C 260.664 -6.8523 -2.18752 0
M  V30 2739 C 262.69 -5.4921 -2.19369 0
M  V30 2740 C 262.052 -6.73558 -2.06153 0
M  V30 2741 H 258.151 -0.496434 -0.604216 0
M  V30 2742 H 260.735 -1.64544 -1.04083 0
M  V30 2743 H 258.906 -1.55455 -3.55933 0
M  V30 2744 H 260.638 -1.79225 -3.62851 0
M  V30 2745 H 257.393 -3.69739 -2.95956 0
M  V30 2746 H 257.817 -6.28199 -2.52378 0
M  V30 2747 H 262.459 -3.37856 -2.54191 0
M  V30 2748 H 260.177 -7.80729 -2.08537 0
M  V30 2749 H 263.763 -5.43054 -2.08766 0
M  V30 2750 H 262.643 -7.61721 -1.86416 0
M  V30 2751 N 260.146 1.09593 -1.13257 0
M  V30 2752 C 261.562 1.33775 -0.870423 0
M  V30 2753 C 261.762 1.95327 0.494926 0
M  V30 2754 O 260.818 2.19853 1.2418 0
M  V30 2755 C 262.131 2.25106 -1.99369 0
M  V30 2756 C 263.679 2.3862 -2.02558 0
M  V30 2757 C 264.154 3.33285 -3.14142 0
M  V30 2758 N 265.645 3.40857 -3.13641 0
M  V30 2759 C 266.38 4.14101 -3.96621 0
M  V30 2760 N 265.876 4.90157 -4.8961 0
M  V30 2761 N 267.669 4.09808 -3.84726 0
M  V30 2762 H 259.82 0.680136 -2.01216 0
M  V30 2763 H 262.083 0.362133 -0.876107 0
M  V30 2764 H 261.789 1.87103 -2.97801 0
M  V30 2765 H 261.663 3.25481 -1.90635 0
M  V30 2766 H 264.05 2.75887 -1.0474 0
M  V30 2767 H 264.131 1.38028 -2.15364 0
M  V30 2768 H 263.775 2.96741 -4.12198 0
M  V30 2769 H 263.705 4.33776 -2.98574 0
M  V30 2770 H 266.196 2.86624 -2.46282 0
M  V30 2771 H 266.509 5.4347 -5.49418 0
M  V30 2772 H 264.854 4.89251 -4.93617 0
M  V30 2773 H 268.045 3.4949 -3.11408 0
M  V30 2774 H 268.218 4.66629 -4.49623 0
M  V30 2775 N 261.624 0.925811 1.2754 0
M  V30 2776 C 262.556 0.380753 2.26015 0
M  V30 2777 C 263.569 -0.487485 1.5533 0
M  V30 2778 O 264.758 -0.300413 1.75954 0
M  V30 2779 C 261.858 -0.473259 3.35579 0
M  V30 2780 C 261.031 0.375249 4.35787 0
M  V30 2781 C 260.09 -0.415809 5.24555 0
M  V30 2782 O 259.116 0.175834 5.68928 0
M  V30 2783 N 260.318 -1.71607 5.54555 0
M  V30 2784 H 263.083 1.22725 2.73421 0
M  V30 2785 H 260.644 0.793037 1.41147 0
M  V30 2786 H 262.636 -1.00949 3.91907 0
M  V30 2787 H 261.206 -1.2205 2.87789 0
M  V30 2788 H 260.426 1.09279 3.7875 0
M  V30 2789 H 261.714 0.955399 4.99749 0
M  V30 2790 H 261.112 -2.2191 5.20358 0
M  V30 2791 H 259.669 -2.19887 6.1359 0
M  V30 2792 N 263.102 -1.41638 0.69111 0
M  V30 2793 C 264.065 -2.29178 0.0319786 0
M  V30 2794 C 265.065 -1.44153 -0.712496 0
M  V30 2795 O 266.255 -1.65354 -0.548053 0
M  V30 2796 C 263.387 -3.26952 -0.965161 0
M  V30 2797 H 264.58 -2.88959 0.802681 0
M  V30 2798 H 262.133 -1.4955 0.454356 0
M  V30 2799 H 262.868 -2.72142 -1.76378 0
M  V30 2800 H 262.653 -3.89685 -0.434522 0
M  V30 2801 H 264.143 -3.92561 -1.42428 0
M  V30 2802 N 264.58 -0.43555 -1.51462 0
M  V30 2803 C 265.527 0.376797 -2.27703 0
M  V30 2804 C 266.497 1.01838 -1.31219 0
M  V30 2805 O 267.682 1.03762 -1.60119 0
M  V30 2806 C 264.822 1.47301 -3.12084 0
M  V30 2807 C 263.935 0.849744 -4.2356 0
M  V30 2808 C 263.07 1.92086 -4.95254 0
M  V30 2809 C 262.109 1.27593 -5.98654 0
M  V30 2810 N 261.246 2.28833 -6.63762 0
M  V30 2811 H 266.086 -0.279734 -2.96684 0
M  V30 2812 H 263.623 -0.149795 -1.46335 0
M  V30 2813 H 265.581 2.11984 -3.59331 0
M  V30 2814 H 264.211 2.0992 -2.45221 0
M  V30 2815 H 263.263 0.0912529 -3.80291 0
M  V30 2816 H 264.575 0.338878 -4.97648 0
M  V30 2817 H 263.729 2.64435 -5.46039 0
M  V30 2818 H 262.468 2.46545 -4.20793 0
M  V30 2819 H 261.473 0.537893 -5.47162 0
M  V30 2820 H 262.698 0.738693 -6.7507 0
M  V30 2821 H 260.644 2.82375 -5.92115 0
M  V30 2822 H 260.561 1.82632 -7.33608 0
M  V30 2823 H 261.829 3.00671 -7.19178 0
M  V30 2824 N 266.058 1.56714 -0.166846 0
M  V30 2825 C 267.021 2.16539 0.751232 0
M  V30 2826 C 268.021 1.11228 1.16125 0
M  V30 2827 O 269.211 1.36765 1.07894 0
M  V30 2828 C 266.343 2.74462 2.02196 0
M  V30 2829 H 267.536 2.99013 0.230499 0
M  V30 2830 H 265.089 1.56081 0.0826982 0
M  V30 2831 H 265.824 1.95709 2.58589 0
M  V30 2832 H 265.609 3.51527 1.73698 0
M  V30 2833 H 267.099 3.20489 2.67725 0
M  V30 2834 N 267.536 -0.106894 1.57237 0
M  V30 2835 C 268.468 -1.15646 1.97885 0
M  V30 2836 C 269.481 -1.36981 0.879779 0
M  V30 2837 O 270.67 -1.35841 1.15799 0
M  V30 2838 C 267.77 -2.51425 2.27241 0
M  V30 2839 C 266.943 -2.50529 3.58545 0
M  V30 2840 C 266.002 -3.68145 3.75973 0
M  V30 2841 O 265.028 -3.51176 4.47956 0
M  V30 2842 N 266.23 -4.87177 3.15656 0
M  V30 2843 H 268.995 -0.81059 2.8853 0
M  V30 2844 H 266.556 -0.296024 1.59171 0
M  V30 2845 H 268.548 -3.28689 2.36105 0
M  V30 2846 H 267.118 -2.78147 1.42663 0
M  V30 2847 H 266.338 -1.58894 3.60758 0
M  V30 2848 H 267.626 -2.46997 4.44826 0
M  V30 2849 H 267.024 -5.03868 2.57165 0
M  V30 2850 H 265.581 -5.62075 3.30023 0
M  V30 2851 N 269.014 -1.53014 -0.377408 0
M  V30 2852 C 269.924 -1.81557 -1.48574 0
M  V30 2853 C 270.94 -0.703102 -1.59162 0
M  V30 2854 O 272.116 -0.99192 -1.75279 0
M  V30 2855 C 269.181 -1.9889 -2.83978 0
M  V30 2856 C 268.242 -3.22801 -2.83016 0
M  V30 2857 C 267.475 -3.39298 -4.11962 0
M  V30 2858 O 267.698 -2.60345 -5.0752 0
M  V30 2859 O 266.632 -4.32604 -4.18494 0
M  V30 2860 H 270.458 -2.75695 -1.27382 0
M  V30 2861 H 268.043 -1.38248 -0.566373 0
M  V30 2862 H 269.925 -2.11931 -3.6423 0
M  V30 2863 H 268.6 -1.07942 -3.05172 0
M  V30 2864 H 267.507 -3.15193 -2.01505 0
M  V30 2865 H 268.84 -4.13632 -2.66775 0
M  V30 2866 N 270.492 0.636531 -1.44174 0
M  V30 2867 C 271.402 1.77754 -1.53103 0
M  V30 2868 C 272.418 1.68928 -0.417034 0
M  V30 2869 O 273.594 1.89801 -0.6736 0
M  V30 2870 C 270.659 3.14115 -1.46741 0
M  V30 2871 C 269.72 3.34612 -2.68948 0
M  V30 2872 C 268.953 4.64467 -2.6288 0
M  V30 2873 O 269.176 5.44919 -1.68581 0
M  V30 2874 O 268.11 4.87049 -3.53648 0
M  V30 2875 H 271.936 1.73174 -2.49489 0
M  V30 2876 H 269.521 0.79709 -1.2636 0
M  V30 2877 H 271.403 3.95412 -1.45696 0
M  V30 2878 H 270.078 3.19249 -0.534975 0
M  V30 2879 H 268.985 2.53014 -2.75562 0
M  V30 2880 H 270.318 3.34336 -3.61221 0
M  V30 2881 N 271.97 1.30982 0.876444 0
M  V30 2882 C 272.903 1.12414 1.98591 0
M  V30 2883 C 273.881 0.0294078 1.62573 0
M  V30 2884 O 275.065 0.184598 1.87594 0
M  V30 2885 C 272.192 0.716276 3.3104 0
M  V30 2886 C 271.238 1.81311 3.86042 0
M  V30 2887 S 272.071 3.41727 4.1229 0
M  V30 2888 C 273.227 3.02863 5.47745 0
M  V30 2889 H 273.46 2.06338 2.14037 0
M  V30 2890 H 270.993 1.15393 1.02586 0
M  V30 2891 H 272.951 0.487697 4.07593 0
M  V30 2892 H 271.612 -0.203749 3.13438 0
M  V30 2893 H 270.805 1.48021 4.81774 0
M  V30 2894 H 270.407 1.99641 3.16259 0
M  V30 2895 H 272.699 2.51353 6.29148 0
M  V30 2896 H 273.642 3.97533 5.8598 0
M  V30 2897 H 274.05 2.40487 5.10711 0
M  V30 2898 N 273.449 -1.08991 1.13837 0
M  V30 2899 C 274.674 -1.85551 0.926585 0
M  V30 2900 C 275.099 -1.80782 -0.519566 0
M  V30 2901 O 274.457 -1.18855 -1.36906 0
M  V30 2902 C 274.505 -3.31266 1.42462 0
M  V30 2903 O 273.609 -4.07822 0.612789 0
M  V30 2904 H 272.95 -0.575192 0.331738 0
M  V30 2905 H 275.48 -1.37604 1.51414 0
M  V30 2906 H 275.49 -3.82112 1.43019 0
M  V30 2907 H 274.165 -3.34052 2.47754 0
M  V30 2908 H 272.742 -3.66731 0.675463 0
M  V30 2909 N 274.927 -0.932562 -1.27047 0
M  V30 2910 C 276.204 -0.49377 -1.89265 0
M  V30 2911 C 276.584 1.02833 -1.8436 0
M  V30 2912 O 275.932 1.88461 -1.29209 0
M  V30 2913 C 276.142 -1.04536 -3.32976 0
M  V30 2914 C 277.49 -1.10879 -4.09867 0
M  V30 2915 O 278.514 -0.995327 -3.42011 0
M  V30 2916 O 277.373 -1.28417 -5.31198 0
M  V30 2917 H 274.467 -0.159596 -0.811454 0
M  V30 2918 H 277.013 -1.02457 -1.3528 0
M  V30 2919 H 275.785 -2.08913 -3.30864 0
M  V30 2920 H 275.408 -0.496494 -3.94488 0
M  V30 2921 N 276.405 1.4127 -0.698611 0
M  V30 2922 C 277.645 2.03044 -0.235062 0
M  V30 2923 C 278.009 1.54146 1.14468 0
M  V30 2924 O 279.21 2.07867 1.70425 0
M  V30 2925 C 277.481 3.56192 -0.293651 0
M  V30 2926 S 279.04 4.38696 0.0954053 0
M  V30 2927 H 275.858 0.704697 -0.0944648 0
M  V30 2928 H 278.46 1.72656 -0.917064 0
M  V30 2929 H 277.164 3.89274 -1.29977 0
M  V30 2930 H 276.695 3.91285 0.407397 0
M  V30 2931 H 278.71 4.78257 1.3223 0
M  V30 2932 N 277.883 0.443576 1.51229 0
M  V30 2933 C 278.813 -0.355142 2.30783 0
M  V30 2934 C 279.794 -1.0154 1.36468 0
M  V30 2935 O 280.979 -1.01785 1.65389 0
M  V30 2936 C 278.109 -1.45312 3.15439 0
M  V30 2937 C 277.063 -0.916002 4.18083 0
M  V30 2938 C 276.389 -2.1102 4.91299 0
M  V30 2939 C 277.689 0.0538602 5.22272 0
M  V30 2940 H 279.383 0.308767 2.97804 0
M  V30 2941 H 276.929 0.149937 1.43217 0
M  V30 2942 H 278.882 -2.01914 3.69876 0
M  V30 2943 H 277.606 -2.14541 2.46252 0
M  V30 2944 H 276.265 -0.372145 3.64706 0
M  V30 2945 H 275.913 -2.78882 4.18609 0
M  V30 2946 H 275.613 -1.75717 5.60712 0
M  V30 2947 H 277.137 -2.68164 5.48562 0
M  V30 2948 H 278.551 -0.422069 5.71744 0
M  V30 2949 H 276.948 0.319776 5.99247 0
M  V30 2950 H 278.018 0.98858 4.74716 0
M  V30 2951 N 279.361 -1.56624 0.175154 0
M  V30 2952 C 280.607 -1.9729 -0.469506 0
M  V30 2953 C 280.94 -1.06128 -1.62636 0
M  V30 2954 O 280.215 -0.109183 -1.94193 0
M  V30 2955 C 280.498 -3.47375 -0.948804 0
M  V30 2956 C 280.351 -4.49317 0.208491 0
M  V30 2957 C 281.67 -4.00652 -1.82116 0
M  V30 2958 H 278.789 -0.717317 -0.16919 0
M  V30 2959 H 281.431 -1.88184 0.262062 0
M  V30 2960 H 279.581 -3.55267 -1.57219 0
M  V30 2961 H 281.253 -4.53482 0.845682 0
M  V30 2962 H 279.496 -4.25121 0.863395 0
M  V30 2963 H 280.167 -5.51741 -0.169059 0
M  V30 2964 H 282.643 -3.95416 -1.2956 0
M  V30 2965 H 281.519 -5.06075 -2.12554 0
M  V30 2966 H 281.78 -3.44699 -2.7683 0
M  V30 2967 N 280.839 0.0985539 -1.57292 0
M  V30 2968 C 281.787 1.1387 -2.02821 0
M  V30 2969 C 282.781 1.41676 -0.928666 0
M  V30 2970 O 283.987 1.41398 -1.11385 0
M  V30 2971 H 280.362 0.384419 -0.646317 0
M  V30 2972 H 282.333 0.728347 -2.89375 0
M  V30 2973 C 281.082 2.45166 -2.46554 0
M  V30 2974 H 280.405 2.24613 -3.3074 0
M  V30 2975 H 281.845 3.16456 -2.8219 0
M  V30 2976 C 280.304 3.09216 -1.33742 0
M  V30 2977 O 280.834 3.96163 -0.66464 0
M  V30 2978 N 279.04 2.69413 -1.08928 0
M  V30 2979 H 278.587 1.98801 -1.63817 0
M  V30 2980 H 278.545 3.12594 -0.336458 0
M  V30 2981 N 282.317 1.53212 0.369288 0
M  V30 2982 C 283.545 1.73119 1.13303 0
M  V30 2983 C 283.96 0.458455 1.83149 0
M  V30 2984 O 283.317 -0.568403 1.73423 0
M  V30 2985 C 283.368 2.89413 2.16616 0
M  V30 2986 O 283.089 4.11761 1.49614 0
M  V30 2987 C 284.59 3.21161 3.05566 0
M  V30 2988 H 281.81 0.579107 0.338934 0
M  V30 2989 H 284.354 1.99942 0.429338 0
M  V30 2990 H 282.509 2.64994 2.82589 0
M  V30 2991 H 282.923 4.76858 2.18419 0
M  V30 2992 H 284.397 4.05949 3.74045 0
M  V30 2993 H 284.874 2.36369 3.70171 0
M  V30 2994 H 285.48 3.47492 2.45213 0
M  V30 2995 N 283.795 -0.628877 1.44509 0
M  V30 2996 C 285.02 -1.42048 1.5112 0
M  V30 2997 C 285.445 -1.87594 0.137818 0
M  V30 2998 O 284.803 -1.58873 -0.873437 0
M  V30 2999 C 284.851 -2.61541 2.48251 0
M  V30 3000 O 283.955 -3.61453 1.98559 0
M  V30 3001 H 283.296 -0.424942 0.510216 0
M  V30 3002 H 285.826 -0.767374 1.89664 0
M  V30 3003 H 285.836 -3.09057 2.66361 0
M  V30 3004 H 284.511 -2.27736 3.48007 0
M  V30 3005 H 283.088 -3.20731 1.90227 0
M  V30 3006 N 285.273 -1.31445 -0.869486 0
M  V30 3007 C 286.205 -1.14955 -1.98287 0
M  V30 3008 C 287.218 -0.0885037 -1.62559 0
M  V30 3009 O 288.407 -0.336044 -1.75308 0
M  V30 3010 C 285.507 -0.734255 -3.3085 0
M  V30 3011 C 284.68 -1.88042 -3.94917 0
M  V30 3012 C 283.739 -1.4511 -5.05796 0
M  V30 3013 O 282.765 -2.16082 -5.2659 0
M  V30 3014 N 283.967 -0.338763 -5.79511 0
M  V30 3015 H 286.732 -2.10856 -2.12979 0
M  V30 3016 H 284.293 -1.23786 -1.04349 0
M  V30 3017 H 286.285 -0.42975 -4.02412 0
M  V30 3018 H 284.855 0.133158 -3.12316 0
M  V30 3019 H 284.075 -2.35222 -3.1633 0
M  V30 3020 H 285.363 -2.6481 -4.34457 0
M  V30 3021 H 284.761 0.252274 -5.65137 0
M  V30 3022 H 283.318 -0.0937925 -6.51733 0
M  V30 3023 N 286.751 1.08385 -1.14413 0
M  V30 3024 C 288 1.80153 -0.907076 0
M  V30 3025 C 288.313 1.87176 0.567851 0
M  V30 3026 O 289.519 2.55359 0.922172 0
M  V30 3027 C 287.975 3.23687 -1.57336 0
M  V30 3028 C 287.583 3.24897 -3.08457 0
M  V30 3029 C 289.327 4.00136 -1.41744 0
M  V30 3030 C 287.234 4.6302 -3.67921 0
M  V30 3031 H 286.164 0.675139 -0.335714 0
M  V30 3032 H 288.815 1.21733 -1.37307 0
M  V30 3033 H 287.197 3.82234 -1.03505 0
M  V30 3034 H 288.371 2.76055 -3.68958 0
M  V30 3035 H 286.686 2.61943 -3.2369 0
M  V30 3036 H 289.283 5.02201 -1.83572 0
M  V30 3037 H 289.626 4.14709 -0.363576 0
M  V30 3038 H 290.159 3.48058 -1.92614 0
M  V30 3039 H 286.898 4.5365 -4.73161 0
M  V30 3040 H 286.418 5.12143 -3.12201 0
M  V30 3041 H 288.097 5.31994 -3.68227 0
M  V30 3042 N 288.23 0.939286 1.26551 0
M  V30 3043 C 289.455 0.602008 1.98471 0
M  V30 3044 C 289.88 -0.815624 1.69497 0
M  V30 3045 O 289.238 -1.54912 0.941905 0
M  V30 3046 C 289.286 0.848407 3.50477 0
M  V30 3047 O 288.39 -0.0804009 4.12322 0
M  V30 3048 H 287.731 0.23049 0.622712 0
M  V30 3049 H 290.261 1.2617 1.61066 0
M  V30 3050 H 290.271 0.768553 4.00696 0
M  V30 3051 H 288.946 1.88171 3.70897 0
M  V30 3052 H 287.523 0.0503508 3.72866 0
M  V30 3053 N 289.708 -1.40897 0.706093 0
M  V30 3054 C 290.938 -2.05075 0.250523 0
M  V30 3055 C 291.346 -1.53275 -1.10921 0
M  V30 3056 O 290.689 -0.680281 -1.7064 0
M  V30 3057 C 290.751 -3.59219 0.142178 0
M  V30 3058 C 290.415 -4.33864 1.43566 0
M  V30 3059 C 291.412 -4.62448 2.37566 0
M  V30 3060 C 289.097 -4.72946 1.69195 0
M  V30 3061 C 291.091 -5.29088 3.5545 0
M  V30 3062 C 288.778 -5.3932 2.87362 0
M  V30 3063 C 289.776 -5.6732 3.80312 0
M  V30 3064 O 289.464 -6.32325 4.96408 0
M  V30 3065 H 289.196 -0.666645 0.112074 0
M  V30 3066 H 291.75 -1.81467 0.962239 0
M  V30 3067 H 289.98 -3.81609 -0.6254 0
M  V30 3068 H 291.669 -4.0495 -0.277584 0
M  V30 3069 H 292.435 -4.32727 2.19027 0
M  V30 3070 H 288.314 -4.50527 0.977042 0
M  V30 3071 H 291.858 -5.50859 4.28018 0
M  V30 3072 H 287.755 -5.68461 3.05814 0
M  V30 3073 H 288.523 -6.50821 4.9636 0
M  V30 3074 N 291.186 -0.45159 -1.50991 0
M  V30 3075 C 292.414 0.108334 -2.06616 0
M  V30 3076 C 292.829 1.35224 -1.31757 0
M  V30 3077 O 292.186 1.78475 -0.381174 0
M  V30 3078 C 292.237 0.41619 -3.59096 0
M  V30 3079 O 291.958 -0.778361 -4.3113 0
M  V30 3080 C 293.459 1.02523 -4.31282 0
M  V30 3081 H 290.679 0.00159995 -0.670998 0
M  V30 3082 H 293.223 -0.634771 -1.94399 0
M  V30 3083 H 291.378 1.10921 -3.71181 0
M  V30 3084 H 291.792 -0.511181 -5.22003 0
M  V30 3085 H 293.266 1.19053 -5.39009 0
M  V30 3086 H 293.743 2.01013 -3.905 0
M  V30 3087 H 294.349 0.371173 -4.23677 0
M  V30 3088 N 292.664 1.56529 -0.183458 0
M  V30 3089 C 293.913 1.96419 0.458511 0
M  V30 3090 C 294.226 1.0727 1.63562 0
M  V30 3091 O 295.432 1.36893 2.34462 0
M  V30 3092 C 293.888 3.49298 0.867122 0
M  V30 3093 C 293.496 4.47092 -0.285057 0
M  V30 3094 C 295.24 3.97983 1.47683 0
M  V30 3095 C 293.147 5.91225 0.143862 0
M  V30 3096 H 292.077 0.733394 0.175071 0
M  V30 3097 H 294.728 1.81448 -0.273624 0
M  V30 3098 H 293.11 3.59731 1.65559 0
M  V30 3099 H 294.284 4.48383 -1.0625 0
M  V30 3100 H 292.599 4.08535 -0.805503 0
M  V30 3101 H 295.196 5.03134 1.80999 0
M  V30 3102 H 295.539 3.41618 2.37914 0
M  V30 3103 H 296.072 3.90617 0.752562 0
M  V30 3104 H 292.811 6.5149 -0.723974 0
M  V30 3105 H 292.331 5.93214 0.886413 0
M  V30 3106 H 294.01 6.44362 0.583628 0
M  V30 3107 N 294.142 -0.090211 1.57342 0
M  V30 3108 C 295.372 -0.805055 1.90269 0
M  V30 3109 C 295.78 -1.72561 0.775842 0
M  V30 3110 O 295.123 -1.81839 -0.260843 0
M  V30 3111 C 295.185 -1.66734 3.18497 0
M  V30 3112 C 294.849 -0.918092 4.47683 0
M  V30 3113 C 295.846 -0.245674 5.19319 0
M  V30 3114 C 293.531 -0.890724 4.94339 0
M  V30 3115 C 295.525 0.444088 6.35851 0
M  V30 3116 C 293.212 -0.197179 6.10782 0
M  V30 3117 C 294.21 0.469044 6.81388 0
M  V30 3118 O 293.898 1.15146 7.95611 0
M  V30 3119 H 293.63 -0.235143 0.633785 0
M  V30 3120 H 296.184 -0.0703805 2.05279 0
M  V30 3121 H 294.414 -2.44437 2.99646 0
M  V30 3122 H 296.103 -2.25919 3.37217 0
M  V30 3123 H 296.869 -0.258246 4.84312 0
M  V30 3124 H 292.748 -1.39873 4.39268 0
M  V30 3125 H 296.292 0.964667 6.90898 0
M  V30 3126 H 292.189 -0.18247 6.45242 0
M  V30 3127 H 292.957 1.05885 8.11622 0
M  V30 3128 N 295.62 -1.53406 -0.361157 0
M  V30 3129 C 296.845 -1.74024 -1.12829 0
M  V30 3130 C 297.27 -0.470069 -1.82132 0
M  V30 3131 O 296.628 0.57619 -1.719 0
M  V30 3132 C 296.676 -2.90903 -2.13091 0
M  V30 3133 O 295.78 -2.59821 -3.20261 0
M  V30 3134 H 295.121 -0.577804 -0.327168 0
M  V30 3135 H 297.651 -2.00307 -0.41693 0
M  V30 3136 H 297.661 -3.17194 -2.56616 0
M  V30 3137 H 296.336 -3.83034 -1.62042 0
M  V30 3138 H 294.913 -2.44362 -2.81677 0
M  V30 3139 N 297.098 0.621204 -1.44841 0
M  V30 3140 C 298.326 1.40752 -1.51646 0
M  V30 3141 C 298.741 1.88246 -0.144549 0
M  V30 3142 O 298.098 1.61422 0.851416 0
M  V30 3143 C 298.149 2.62119 -2.4895 0
M  V30 3144 O 297.87 2.16602 -3.80808 0
M  V30 3145 C 299.371 3.55135 -2.65319 0
M  V30 3146 H 296.591 0.431325 -0.514004 0
M  V30 3147 H 299.135 0.758835 -1.899 0
M  V30 3148 H 297.29 3.23058 -2.13805 0
M  V30 3149 H 297.704 2.95358 -4.33433 0
M  V30 3150 H 299.178 4.36874 -3.37409 0
M  V30 3151 H 299.655 4.04592 -1.70886 0
M  V30 3152 H 300.261 3.00058 -3.01405 0
M  V30 3153 N 298.576 1.31904 0.862503 0
M  V30 3154 C 299.816 1.23324 1.63004 0
M  V30 3155 C 300.18 -0.203724 1.90916 0
M  V30 3156 O 301.381 -0.413132 2.65606 0
M  V30 3157 C 299.652 2.06116 2.91978 0
M  V30 3158 S 301.211 2.14478 3.82812 0
M  V30 3159 H 298.029 0.439117 0.559193 0
M  V30 3160 H 300.631 1.66658 1.02202 0
M  V30 3161 H 299.335 3.09593 2.69407 0
M  V30 3162 H 298.866 1.6353 3.57801 0
M  V30 3163 H 300.881 1.28855 4.79177 0
M  V30 3164 N 300.054 -1.07777 1.14986 0
M  V30 3165 C 301.302 -1.79934 0.920235 0
M  V30 3166 C 301.623 -1.86955 -0.554336 0
M  V30 3167 O 300.893 -1.36731 -1.40291 0
M  V30 3168 H 299.473 -0.666424 0.337473 0
M  V30 3169 H 302.135 -1.3027 1.44968 0
M  V30 3170 H 301.231 -2.82539 1.32583 0
M  V30 3171 N 301.532 -0.945985 -1.26051 0
M  V30 3172 C 302.495 -0.463897 -2.24456 0
M  V30 3173 C 303.495 0.427655 -1.55009 0
M  V30 3174 O 304.685 0.226157 -1.72726 0
M  V30 3175 C 301.817 0.330812 -3.39291 0
M  V30 3176 H 303.01 -1.33357 -2.68619 0
M  V30 3177 H 300.563 -0.728416 -1.38289 0
M  V30 3178 H 301.298 1.21852 -3.00537 0
M  V30 3179 H 301.083 -0.308679 -3.90883 0
M  V30 3180 H 302.573 0.657865 -4.12386 0
M  V30 3181 N 303.011 1.40521 -0.713556 0
M  V30 3182 C 304.258 2.00923 -0.25219 0
M  V30 3183 C 304.586 1.56571 1.15395 0
M  V30 3184 O 303.841 0.775874 1.79663 0
M  V30 3185 C 304.14 3.56317 -0.278 0
M  V30 3186 C 303.806 4.20246 -1.63415 0
M  V30 3187 C 302.468 4.37422 -2.00538 0
M  V30 3188 C 304.82 4.55923 -2.52554 0
M  V30 3189 C 302.148 4.87558 -3.2635 0
M  V30 3190 C 304.5 5.07458 -3.77716 0
M  V30 3191 C 303.164 5.22843 -4.14959 0
M  V30 3192 H 302.434 0.735231 -0.0922829 0
M  V30 3193 H 305.081 1.68161 -0.916188 0
M  V30 3194 H 303.386 3.88976 0.469567 0
M  V30 3195 H 305.083 4.00883 0.0967819 0
M  V30 3196 H 301.673 4.07263 -1.33546 0
M  V30 3197 H 305.857 4.42291 -2.25149 0
M  V30 3198 H 301.113 4.97654 -3.55176 0
M  V30 3199 H 305.287 5.34041 -4.4696 0
M  V30 3200 H 302.914 5.61454 -5.12516 0
M  V30 3201 N 304.489 0.459591 1.5075 0
M  V30 3202 C 305.719 -0.0972338 2.06371 0
M  V30 3203 C 306.127 -1.35074 1.32483 0
M  V30 3204 O 305.47 -1.79637 0.384226 0
M  V30 3205 C 305.532 -0.462759 3.56509 0
M  V30 3206 C 305.196 0.687084 4.51805 0
M  V30 3207 C 306.193 1.56578 4.95761 0
M  V30 3208 C 303.878 0.874144 4.94635 0
M  V30 3209 C 305.872 2.61604 5.81242 0
M  V30 3210 C 303.559 1.92765 5.79901 0
M  V30 3211 C 304.557 2.79697 6.23104 0
M  V30 3212 O 304.245 3.83235 7.06673 0
M  V30 3213 H 303.977 -0.00140687 0.675999 0
M  V30 3214 H 306.531 0.644011 1.95043 0
M  V30 3215 H 304.761 -1.25703 3.65699 0
M  V30 3216 H 306.45 -0.953323 3.94546 0
M  V30 3217 H 307.216 1.4329 4.6335 0
M  V30 3218 H 303.095 0.207006 4.60535 0
M  V30 3219 H 306.639 3.29489 6.14884 0
M  V30 3220 H 302.536 2.06064 6.11725 0
M  V30 3221 H 303.304 3.80084 7.24899 0
M  V30 3222 N 305.967 -1.56429 0.191757 0
M  V30 3223 C 307.216 -1.9666 -0.448088 0
M  V30 3224 C 307.529 -1.08136 -1.62991 0
M  V30 3225 O 308.735 -1.38135 -2.33733 0
M  V30 3226 C 307.191 -3.49753 -0.848585 0
M  V30 3227 C 306.799 -4.46935 0.308764 0
M  V30 3228 C 308.543 -3.9876 -1.4557 0
M  V30 3229 C 306.45 -5.91293 -0.112506 0
M  V30 3230 H 305.38 -0.734312 -0.171179 0
M  V30 3231 H 308.031 -1.81301 0.283242 0
M  V30 3232 H 306.413 -3.60604 -1.63649 0
M  V30 3233 H 307.587 -4.47813 1.08627 0
M  V30 3234 H 305.902 -4.08102 0.827158 0
M  V30 3235 H 308.499 -5.04086 -1.78328 0
M  V30 3236 H 308.842 -3.42875 -2.36099 0
M  V30 3237 H 309.375 -3.9101 -0.731836 0
M  V30 3238 H 306.114 -6.51097 0.758514 0
M  V30 3239 H 305.634 -5.93676 -0.854941 0
M  V30 3240 H 307.313 -6.44663 -0.549448 0
M  V30 3241 N 307.445 0.0818655 -1.57387 0
M  V30 3242 C 308.856 0.634871 -1.75574 0
M  V30 3243 C 309.207 1.78435 -0.815809 0
M  V30 3244 O 308.332 2.164 0.0025366 0
M  V30 3245 C 308.927 1.15845 -3.18379 0
M  V30 3246 C 307.486 1.65741 -3.37945 0
M  V30 3247 C 306.633 0.572549 -2.71325 0
M  V30 3248 H 309.584 -0.144268 -1.58043 0
M  V30 3249 H 309.605 2.02751 -3.21982 0
M  V30 3250 H 309.117 0.321631 -3.86765 0
M  V30 3251 H 307.218 2.51781 -2.74658 0
M  V30 3252 H 307.331 1.74129 -4.46336 0
M  V30 3253 H 305.695 1.01518 -2.33594 0
M  V30 3254 H 306.478 -0.253918 -3.4236 0
M  V30 3255 N 308.923 1.53595 0.353017 0
M  V30 3256 C 310.148 1.7462 1.11904 0
M  V30 3257 C 310.573 0.479721 1.8188 0
M  V30 3258 O 309.931 -0.567066 1.72204 0
M  V30 3259 C 309.979 2.92029 2.11545 0
M  V30 3260 O 309.083 2.61516 3.18878 0
M  V30 3261 H 308.424 0.579531 0.324099 0
M  V30 3262 H 310.954 2.00525 0.406301 0
M  V30 3263 H 310.964 3.18551 2.5493 0
M  V30 3264 H 309.639 3.83888 1.60008 0
M  V30 3265 H 308.216 2.45852 2.80377 0
M  V30 3266 N 310.401 -0.613514 1.45168 0
M  V30 3267 C 311.647 -1.37471 1.49096 0
M  V30 3268 C 311.98 -1.93765 0.129901 0
M  V30 3269 O 311.255 -1.74707 -0.854858 0
M  V30 3270 C 311.538 -2.52701 2.56542 0
M  V30 3271 C 311.391 -2.01643 4.0207 0
M  V30 3272 C 312.71 -3.54849 2.60327 0
M  V30 3273 H 309.829 -0.498502 0.54283 0
M  V30 3274 H 312.471 -0.692125 1.76945 0
M  V30 3275 H 310.621 -3.10931 2.32926 0
M  V30 3276 H 312.293 -1.48108 4.36877 0
M  V30 3277 H 310.536 -1.32688 4.13009 0
M  V30 3278 H 311.207 -2.84681 4.72928 0
M  V30 3279 H 313.683 -3.0645 2.81474 0
M  V30 3280 H 312.559 -4.32973 3.37381 0
M  V30 3281 H 312.82 -4.10079 1.6519 0
M  V30 3282 N 311.879 -1.3236 -0.855495 0
M  V30 3283 C 312.809 -1.23833 -1.97958 0
M  V30 3284 C 313.79 -0.122361 -1.69659 0
M  V30 3285 O 314.975 -0.30939 -1.9172 0
M  V30 3286 C 312.105 -0.959772 -3.33775 0
M  V30 3287 C 311.059 -2.03689 -3.76424 0
M  V30 3288 C 310.385 -1.61075 -5.09862 0
M  V30 3289 C 311.685 -3.4518 -3.9198 0
M  V30 3290 H 313.379 -2.1788 -2.0535 0
M  V30 3291 H 310.925 -1.04891 -0.986605 0
M  V30 3292 H 312.878 -0.886678 -4.11966 0
M  V30 3293 H 311.602 0.0163404 -3.26596 0
M  V30 3294 H 310.261 -2.10012 -3.00484 0
M  V30 3295 H 309.909 -0.622107 -4.99138 0
M  V30 3296 H 309.609 -2.33143 -5.39368 0
M  V30 3297 H 311.133 -1.55201 -5.90546 0
M  V30 3298 H 312.547 -3.4145 -4.60526 0
M  V30 3299 H 310.944 -4.1559 -4.32903 0
M  V30 3300 H 312.014 -3.84903 -2.94919 0
M  V30 3301 N 313.357 1.07166 -1.15556 0
M  V30 3302 C 314.287 2.16403 -0.877046 0
M  V30 3303 C 315.268 1.69217 0.173111 0
M  V30 3304 O 316.453 1.94181 0.027084 0
M  V30 3305 C 313.583 3.45349 -0.367632 0
M  V30 3306 C 312.537 4.05995 -1.35468 0
M  V30 3307 C 311.863 5.30045 -0.704038 0
M  V30 3308 C 313.163 4.45804 -2.72132 0
M  V30 3309 H 314.857 2.39959 -1.79053 0
M  V30 3310 H 312.403 1.15325 -0.862331 0
M  V30 3311 H 314.356 4.21095 -0.160317 0
M  V30 3312 H 313.08 3.21385 0.581326 0
M  V30 3313 H 311.739 3.32296 -1.54839 0
M  V30 3314 H 311.387 5.02373 0.251128 0
M  V30 3315 H 311.087 5.71579 -1.36277 0
M  V30 3316 H 312.611 6.08495 -0.50654 0
M  V30 3317 H 314.025 5.12671 -2.56595 0
M  V30 3318 H 312.422 4.98296 -3.34397 0
M  V30 3319 H 313.492 3.57083 -3.28054 0
M  V30 3320 N 314.835 0.952656 1.25548 0
M  V30 3321 C 316.084 0.602053 1.92505 0
M  V30 3322 C 316.397 -0.864663 1.75451 0
M  V30 3323 O 317.603 -1.32514 2.36965 0
M  V30 3324 C 316.059 1.02607 3.44963 0
M  V30 3325 C 315.667 2.51519 3.70732 0
M  V30 3326 C 317.411 0.747905 4.1786 0
M  V30 3327 C 315.318 2.87732 5.16686 0
M  V30 3328 H 314.248 0.22146 0.720744 0
M  V30 3329 H 316.899 1.15684 1.42441 0
M  V30 3330 H 315.281 0.399712 3.93978 0
M  V30 3331 H 316.455 3.19157 3.32378 0
M  V30 3332 H 314.77 2.76786 3.11092 0
M  V30 3333 H 317.367 0.994647 5.25367 0
M  V30 3334 H 317.71 -0.315629 4.15102 0
M  V30 3335 H 318.243 1.33452 3.74747 0
M  V30 3336 H 314.982 3.93095 5.24554 0
M  V30 3337 H 314.502 2.24765 5.56094 0
M  V30 3338 H 316.181 2.76817 5.84792 0
M  V30 3339 N 316.313 -1.40141 0.720998 0
M  V30 3340 C 317.562 -2.0002 0.259804 0
M  V30 3341 C 317.875 -1.57839 -1.15526 0
M  V30 3342 O 319.081 -2.10455 -1.71525 0
M  V30 3343 C 317.537 -3.57516 0.413566 0
M  V30 3344 C 317.145 -4.08667 1.83562 0
M  V30 3345 C 318.889 -4.24498 0.0134387 0
M  V30 3346 C 316.796 -5.58686 1.93968 0
M  V30 3347 H 315.726 -0.748195 0.0933806 0
M  V30 3348 H 318.377 -1.60313 0.892866 0
M  V30 3349 H 316.759 -3.9495 -0.288169 0
M  V30 3350 H 317.933 -3.82598 2.56817 0
M  V30 3351 H 316.248 -3.543 2.1877 0
M  V30 3352 H 318.845 -5.34654 0.0703954 0
M  V30 3353 H 319.188 -4.03375 -1.02927 0
M  V30 3354 H 319.721 -3.92188 0.665815 0
M  V30 3355 H 316.46 -5.8467 2.96379 0
M  V30 3356 H 315.98 -5.86602 1.25131 0
M  V30 3357 H 317.659 -6.23875 1.71431 0
M  V30 3358 N 317.792 -0.46758 -1.50504 0
M  V30 3359 C 318.722 0.318381 -2.31319 0
M  V30 3360 C 319.703 0.993564 -1.38066 0
M  V30 3361 O 320.888 0.991411 -1.66987 0
M  V30 3362 C 318.018 1.40275 -3.17711 0
M  V30 3363 C 316.972 0.849373 -4.19487 0
M  V30 3364 C 316.298 2.03177 -4.94594 0
M  V30 3365 C 317.598 -0.136942 -5.2212 0
M  V30 3366 H 319.292 -0.356106 -2.97275 0
M  V30 3367 H 316.838 -0.172703 -1.42961 0
M  V30 3368 H 318.791 1.96004 -3.73042 0
M  V30 3369 H 317.515 2.10596 -2.49634 0
M  V30 3370 H 316.174 0.314076 -3.65252 0
M  V30 3371 H 315.822 2.72187 -4.22993 0
M  V30 3372 H 315.522 1.66774 -5.63436 0
M  V30 3373 H 317.046 2.59403 -5.52759 0
M  V30 3374 H 318.46 0.331056 -5.72343 0
M  V30 3375 H 316.857 -0.41507 -5.98663 0
M  V30 3376 H 317.927 -1.06398 -4.73083 0
M  V30 3377 N 319.27 1.56325 -0.20005 0
M  V30 3378 C 320.5 2.01811 0.442232 0
M  V30 3379 C 320.908 1.07932 1.55394 0
M  V30 3380 O 320.251 0.0772685 1.83537 0
M  V30 3381 C 320.313 3.43685 1.05457 0
M  V30 3382 C 319.977 4.56928 0.0809833 0
M  V30 3383 C 320.974 5.15009 -0.711471 0
M  V30 3384 C 318.659 5.0229 -0.0315364 0
M  V30 3385 C 320.653 6.16904 -1.60336 0
M  V30 3386 C 318.34 6.04028 -0.926981 0
M  V30 3387 C 319.338 6.6121 -1.71146 0
M  V30 3388 O 319.026 7.60971 -2.59189 0
M  V30 3389 H 318.758 0.666173 0.114848 0
M  V30 3390 H 321.312 2.03085 -0.307511 0
M  V30 3391 H 319.542 3.39413 1.85299 0
M  V30 3392 H 321.231 3.72948 1.60201 0
M  V30 3393 H 321.997 4.80827 -0.634873 0
M  V30 3394 H 317.876 4.57476 0.568902 0
M  V30 3395 H 321.42 6.61464 -2.21611 0
M  V30 3396 H 317.317 6.37634 -1.00468 0
M  V30 3397 H 318.085 7.7841 -2.53023 0
M  V30 3398 N 320.748 -0.0735177 1.57428 0
M  V30 3399 C 321.996 -0.771472 1.86796 0
M  V30 3400 C 322.317 -1.78201 0.791804 0
M  V30 3401 O 321.587 -1.95074 -0.179718 0
M  V30 3402 H 320.167 -0.28791 0.689287 0
M  V30 3403 H 322.829 -0.0500161 1.94836 0
M  V30 3404 H 321.925 -1.28874 2.8425 0
M  V30 3405 N 322.226 -1.5378 -0.344866 0
M  V30 3406 C 323.642 -1.44015 -0.687888 0
M  V30 3407 C 323.842 -0.595834 -1.92489 0
M  V30 3408 O 322.898 -0.0863064 -2.52352 0
M  V30 3409 C 324.211 -2.87481 -0.881758 0
M  V30 3410 C 325.759 -2.97247 -0.980459 0
M  V30 3411 C 326.234 -4.41819 -1.20665 0
M  V30 3412 N 327.725 -4.45339 -1.27389 0
M  V30 3413 C 328.46 -5.54333 -1.46639 0
M  V30 3414 N 327.956 -6.73335 -1.63071 0
M  V30 3415 N 329.749 -5.41944 -1.49176 0
M  V30 3416 H 321.9 -2.07169 0.468475 0
M  V30 3417 H 324.163 -0.93643 0.147655 0
M  V30 3418 H 323.869 -3.51672 -0.0443444 0
M  V30 3419 H 323.743 -3.32352 -1.78388 0
M  V30 3420 H 326.13 -2.33197 -1.8084 0
M  V30 3421 H 326.211 -2.5574 -0.0552713 0
M  V30 3422 H 325.855 -5.06449 -0.383652 0
M  V30 3423 H 325.785 -4.80917 -2.14539 0
M  V30 3424 H 328.276 -3.59585 -1.1622 0
M  V30 3425 H 328.589 -7.52165 -1.77391 0
M  V30 3426 H 326.934 -6.76282 -1.60209 0
M  V30 3427 H 330.125 -4.47932 -1.3592 0
M  V30 3428 H 330.298 -6.26946 -1.63837 0
M  V30 3429 N 323.704 0.605807 -1.45491 0
M  V30 3430 C 324.953 1.36086 -1.48874 0
M  V30 3431 C 325.266 1.95131 -0.135333 0
M  V30 3432 O 326.472 2.7146 -0.0468144 0
M  V30 3433 C 324.928 2.46518 -2.62215 0
M  V30 3434 C 324.536 1.93877 -4.03876 0
M  V30 3435 C 326.28 3.23512 -2.74846 0
M  V30 3436 C 324.187 3.01801 -5.08596 0
M  V30 3437 H 323.117 0.511497 -0.553974 0
M  V30 3438 H 325.768 0.649089 -1.71636 0
M  V30 3439 H 324.15 3.20388 -2.32739 0
M  V30 3440 H 325.324 1.26704 -4.43038 0
M  V30 3441 H 323.639 1.29622 -3.95711 0
M  V30 3442 H 326.236 4.04013 -3.50253 0
M  V30 3443 H 326.579 3.74631 -1.81542 0
M  V30 3444 H 327.112 2.56742 -3.03856 0
M  V30 3445 H 323.851 2.55597 -6.03614 0
M  V30 3446 H 323.371 3.67535 -4.74002 0
M  V30 3447 H 325.05 3.66152 -5.33424 0
M  V30 3448 N 325.182 1.32811 0.848464 0
M  V30 3449 C 326.412 1.26556 1.63301 0
M  V30 3450 C 326.82 -0.1676 1.88456 0
M  V30 3451 O 326.163 -1.11713 1.45828 0
M  V30 3452 C 326.225 1.96202 3.01239 0
M  V30 3453 C 325.889 3.45528 2.99098 0
M  V30 3454 C 326.886 4.40903 2.75501 0
M  V30 3455 C 324.571 3.87558 3.19537 0
M  V30 3456 C 326.565 5.76282 2.72356 0
M  V30 3457 C 324.252 5.23044 3.16019 0
M  V30 3458 C 325.25 6.17217 2.92458 0
M  V30 3459 O 324.938 7.50223 2.88825 0
M  V30 3460 H 324.67 0.43771 0.515156 0
M  V30 3461 H 327.224 1.7559 1.0657 0
M  V30 3462 H 325.454 1.41746 3.59785 0
M  V30 3463 H 327.143 1.83573 3.62016 0
M  V30 3464 H 327.909 4.09756 2.5947 0
M  V30 3465 H 323.788 3.14674 3.369 0
M  V30 3466 H 327.332 6.4976 2.53886 0
M  V30 3467 H 323.229 5.53818 3.31596 0
M  V30 3468 H 323.997 7.59657 3.04735 0
M  V30 3469 N 326.66 -1.06551 1.16123 0
M  V30 3470 C 328.076 -1.3142 0.905585 0
M  V30 3471 C 328.276 -1.96571 -0.442964 0
M  V30 3472 O 327.332 -2.23068 -1.18308 0
M  V30 3473 C 328.645 -2.19741 2.05267 0
M  V30 3474 C 330.193 -2.33165 2.08813 0
M  V30 3475 C 330.668 -3.24838 3.22868 0
M  V30 3476 N 332.159 -3.32421 3.22568 0
M  V30 3477 C 332.894 -4.0344 4.0746 0
M  V30 3478 N 332.39 -4.77003 5.02434 0
M  V30 3479 N 334.183 -3.99464 3.95456 0
M  V30 3480 H 326.334 -0.626548 2.02949 0
M  V30 3481 H 328.597 -0.338777 0.8854 0
M  V30 3482 H 328.303 -1.79142 3.02657 0
M  V30 3483 H 328.177 -3.20313 1.99198 0
M  V30 3484 H 330.564 -2.73013 1.12018 0
M  V30 3485 H 330.645 -1.3227 2.18948 0
M  V30 3486 H 330.289 -2.85708 4.19921 0
M  V30 3487 H 330.219 -4.25707 3.0997 0
M  V30 3488 H 332.71 -2.79994 2.53795 0
M  V30 3489 H 333.023 -5.28712 5.63634 0
M  V30 3490 H 331.368 -4.75992 5.06415 0
M  V30 3491 H 334.559 -3.4111 3.20564 0
M  V30 3492 H 334.732 -4.54544 4.61837 0
M  V30 3493 N 328.138 -0.959301 -1.25041 0
M  V30 3494 C 329.101 -0.487677 -2.23952 0
M  V30 3495 C 330.101 0.41119 -1.55454 0
M  V30 3496 O 331.291 0.207825 -1.72956 0
M  V30 3497 C 328.423 0.294807 -3.39623 0
M  V30 3498 H 329.616 -1.36198 -2.67189 0
M  V30 3499 H 327.169 -0.743042 -1.37508 0
M  V30 3500 H 327.904 1.18658 -3.01813 0
M  V30 3501 H 327.689 -0.35012 -3.90534 0
M  V30 3502 H 329.179 0.614089 -4.1306 0
M  V30 3503 N 329.616 1.39756 -0.72842 0
M  V30 3504 C 330.579 2.29012 -0.0927297 0
M  V30 3505 C 331.579 1.45992 0.674025 0
M  V30 3506 O 332.769 1.66749 0.50402 0
M  V30 3507 C 329.901 3.29396 0.878137 0
M  V30 3508 H 331.094 2.86729 -0.879011 0
M  V30 3509 H 328.647 1.48293 -0.493847 0
M  V30 3510 H 329.382 2.76722 1.69101 0
M  V30 3511 H 329.167 3.907 0.331051 0
M  V30 3512 H 330.657 3.96199 1.3197 0
M  V30 3513 N 331.094 0.475555 1.50254 0
M  V30 3514 C 332.51 0.12997 1.5907 0
M  V30 3515 C 332.71 -1.36385 1.48328 0
M  V30 3516 O 331.766 -2.13754 1.34407 0
M  V30 3517 C 333.079 0.684139 2.92814 0
M  V30 3518 C 334.627 0.647965 3.0622 0
M  V30 3519 C 335.102 1.17975 4.42545 0
M  V30 3520 N 336.593 1.13936 4.48969 0
M  V30 3521 C 337.328 1.52129 5.52851 0
M  V30 3522 N 336.824 1.97793 6.63965 0
M  V30 3523 N 338.617 1.43704 5.4342 0
M  V30 3524 H 330.768 1.44706 1.55479 0
M  V30 3525 H 333.031 0.598691 0.735033 0
M  V30 3526 H 332.737 1.73079 3.06164 0
M  V30 3527 H 332.611 0.130204 3.76975 0
M  V30 3528 H 334.998 -0.38979 2.92514 0
M  V30 3529 H 335.079 1.23876 2.23805 0
M  V30 3530 H 334.723 2.21616 4.57 0
M  V30 3531 H 334.653 0.565138 5.23559 0
M  V30 3532 H 337.144 0.804488 3.69238 0
M  V30 3533 H 337.457 2.25072 7.39299 0
M  V30 3534 H 335.802 2.01749 6.65073 0
M  V30 3535 H 338.993 1.07867 4.55502 0
M  V30 3536 H 339.166 1.73794 6.24259 0
M  V30 3537 N 332.573 -1.56217 0.208337 0
M  V30 3538 C 333.521 -2.21053 -0.723769 0
M  V30 3539 C 334.515 -1.18578 -1.20978 0
M  V30 3540 O 335.721 -1.36691 -1.17114 0
M  V30 3541 H 332.096 -0.708595 -0.251788 0
M  V30 3542 H 334.067 -2.98006 -0.153365 0
M  V30 3543 C 332.816 -2.89417 -1.927 0
M  V30 3544 H 332.139 -3.68019 -1.56212 0
M  V30 3545 H 333.579 -3.38201 -2.55727 0
M  V30 3546 C 332.038 -1.91166 -2.77411 0
M  V30 3547 O 332.568 -1.42026 -3.75754 0
M  V30 3548 N 330.774 -1.59105 -2.43175 0
M  V30 3549 H 330.321 -1.99259 -1.63259 0
M  V30 3550 H 330.279 -0.936255 -3.00136 0
M  V30 3551 N 334.051 0.0651679 -1.57465 0
M  V30 3552 C 335.467 0.420105 -1.53972 0
M  V30 3553 C 335.667 1.78782 -0.929474 0
M  V30 3554 O 334.723 2.46771 -0.534839 0
M  V30 3555 C 336.036 0.355084 -2.98596 0
M  V30 3556 C 337.584 0.434792 -3.09965 0
M  V30 3557 C 338.059 0.399609 -4.56253 0
M  V30 3558 N 339.55 0.459488 -4.60915 0
M  V30 3559 C 340.285 0.454584 -5.71595 0
M  V30 3560 N 339.781 0.404102 -6.9162 0
M  V30 3561 N 341.574 0.501635 -5.59857 0
M  V30 3562 H 333.725 -0.830328 -1.95498 0
M  V30 3563 H 335.988 -0.312244 -0.895102 0
M  V30 3564 H 335.694 -0.583357 -3.46828 0
M  V30 3565 H 335.568 1.16275 -3.58831 0
M  V30 3566 H 337.955 1.36366 -2.61703 0
M  V30 3567 H 338.036 -0.40157 -2.52628 0
M  V30 3568 H 337.68 -0.525436 -5.05175 0
M  V30 3569 H 337.61 1.25359 -5.11461 0
M  V30 3570 H 340.101 0.502482 -3.74544 0
M  V30 3571 H 340.414 0.404468 -7.71741 0
M  V30 3572 H 338.759 0.37069 -6.94011 0
M  V30 3573 H 341.95 0.538812 -4.64989 0
M  V30 3574 H 342.123 0.494345 -6.46112 0
M  V30 3575 N 335.529 1.53961 0.336706 0
M  V30 3576 C 336.778 1.70751 1.07363 0
M  V30 3577 C 337.091 0.481061 1.89592 0
M  V30 3578 O 338.297 0.530046 2.66276 0
M  V30 3579 C 336.753 3.01965 1.95818 0
M  V30 3580 C 336.361 4.31971 1.18764 0
M  V30 3581 C 338.105 3.28121 2.69327 0
M  V30 3582 C 336.012 5.54255 2.06289 0
M  V30 3583 H 334.942 0.636292 0.404535 0
M  V30 3584 H 337.593 1.80459 0.332681 0
M  V30 3585 H 335.975 2.86132 2.7376 0
M  V30 3586 H 337.149 4.5853 0.456849 0
M  V30 3587 H 335.464 4.12481 0.569946 0
M  V30 3588 H 338.061 4.16673 3.35094 0
M  V30 3589 H 338.404 2.45426 3.36261 0
M  V30 3590 H 338.937 3.44762 1.98454 0
M  V30 3591 H 335.676 6.39513 1.43885 0
M  V30 3592 H 335.196 5.31935 2.77138 0
M  V30 3593 H 336.875 5.90159 2.65182 0
M  V30 3594 N 337.007 -0.598083 1.45811 0
M  V30 3595 C 337.937 -1.71873 1.58057 0
M  V30 3596 C 338.918 -1.64533 0.431615 0
M  V30 3597 O 340.103 -1.82787 0.65595 0
M  V30 3598 C 337.233 -3.10495 1.55597 0
M  V30 3599 C 336.187 -3.32654 2.69305 0
M  V30 3600 C 335.513 -4.71646 2.51902 0
M  V30 3601 C 336.813 -3.21981 4.11248 0
M  V30 3602 H 338.507 -1.61881 2.51863 0
M  V30 3603 H 336.053 -0.777372 1.21214 0
M  V30 3604 H 338.006 -3.88699 1.6276 0
M  V30 3605 H 336.73 -3.2135 0.583255 0
M  V30 3606 H 335.389 -2.56843 2.61586 0
M  V30 3607 H 335.037 -4.79246 1.52748 0
M  V30 3608 H 334.737 -4.87426 3.2816 0
M  V30 3609 H 336.261 -5.52038 2.60933 0
M  V30 3610 H 337.675 -3.90049 4.20161 0
M  V30 3611 H 336.072 -3.49289 4.87972 0
M  V30 3612 H 337.142 -2.1928 4.32486 0
M  V30 3613 N 338.485 -1.33259 -0.841409 0
M  V30 3614 C 339.433 -1.23279 -1.97244 0
M  V30 3615 C 340.427 -0.134706 -1.68864 0
M  V30 3616 O 341.633 -0.298501 -1.77508 0
M  V30 3617 H 338.008 -0.382497 -0.647457 0
M  V30 3618 H 339.979 -2.18906 -2.02787 0
M  V30 3619 C 338.728 -0.986268 -3.33419 0
M  V30 3620 H 338.051 -1.82347 -3.55794 0
M  V30 3621 H 339.491 -0.956728 -4.13065 0
M  V30 3622 C 337.95 0.310842 -3.35463 0
M  V30 3623 O 338.48 1.31838 -3.79449 0
M  V30 3624 N 336.686 0.337485 -2.88634 0
M  V30 3625 H 336.233 -0.482967 -2.53032 0
M  V30 3626 H 336.191 1.20518 -2.90384 0
M  V30 3627 N 339.963 1.05934 -1.16686 0
M  V30 3628 C 341.374 1.60263 -0.957745 0
M  V30 3629 C 341.725 1.89789 0.49745 0
M  V30 3630 O 340.85 1.67401 1.37135 0
M  V30 3631 C 341.445 2.91172 -1.73218 0
M  V30 3632 C 340.004 3.42188 -1.56794 0
M  V30 3633 C 339.151 2.16028 -1.73859 0
M  V30 3634 H 342.102 0.888392 -1.31504 0
M  V30 3635 H 342.123 3.60744 -1.21014 0
M  V30 3636 H 341.635 2.6965 -2.79124 0
M  V30 3637 H 339.736 3.68762 -0.533437 0
M  V30 3638 H 339.849 4.17273 -2.35414 0
M  V30 3639 H 338.213 2.26426 -1.16633 0
M  V30 3640 H 338.996 1.96985 -2.81161 0
M  V30 3641 N 341.441 0.965919 1.2453 0
M  V30 3642 C 342.852 0.665929 1.7442 0
M  V30 3643 C 343.203 -0.818407 1.78316 0
M  V30 3644 O 342.328 -1.64037 1.41141 0
M  V30 3645 C 342.923 1.20211 3.16757 0
M  V30 3646 C 341.482 0.952059 3.6416 0
M  V30 3647 C 340.629 1.33848 2.42858 0
M  V30 3648 H 343.58 1.14144 1.10258 0
M  V30 3649 H 343.601 0.567544 3.76244 0
M  V30 3650 H 343.113 2.28244 3.13889 0
M  V30 3651 H 341.214 -0.112821 3.72429 0
M  V30 3652 H 341.327 1.59645 4.51719 0
M  V30 3653 H 339.691 0.756864 2.43195 0
M  V30 3654 H 340.474 2.42827 2.42673 0
M  V30 3655 N 342.919 -1.39368 0.735821 0
M  V30 3656 C 344.144 -2.05319 0.293052 0
M  V30 3657 C 344.569 -1.55115 -1.064 0
M  V30 3658 O 343.927 -0.695261 -1.67439 0
M  V30 3659 C 343.975 -3.59305 0.305323 0
M  V30 3660 O 343.079 -4.06299 -0.706761 0
M  V30 3661 H 342.42 -0.650529 0.13307 0
M  V30 3662 H 344.95 -1.78386 1.00197 0
M  V30 3663 H 344.96 -4.07724 0.149997 0
M  V30 3664 H 343.635 -3.95207 1.29553 0
M  V30 3665 H 342.212 -3.69292 -0.517504 0
M  V30 3666 N 344.397 -0.483516 -1.5 0
M  V30 3667 C 345.327 0.293829 -2.31644 0
M  V30 3668 C 346.308 0.978864 -1.39112 0
M  V30 3669 O 347.493 0.973644 -1.68029 0
M  V30 3670 C 344.623 1.36897 -3.19181 0
M  V30 3671 C 343.577 0.804833 -4.20365 0
M  V30 3672 C 342.903 1.9792 -4.96721 0
M  V30 3673 C 344.203 -0.192313 -5.21946 0
M  V30 3674 H 345.897 -0.387616 -2.9688 0
M  V30 3675 H 343.443 -0.187856 -1.42769 0
M  V30 3676 H 345.396 1.92037 -3.751 0
M  V30 3677 H 344.12 2.07936 -2.51853 0
M  V30 3678 H 342.779 0.275319 -3.65565 0
M  V30 3679 H 342.427 2.67686 -4.25856 0
M  V30 3680 H 342.127 1.60789 -5.65173 0
M  V30 3681 H 343.651 2.53526 -5.55479 0
M  V30 3682 H 345.065 0.270333 -5.72662 0
M  V30 3683 H 343.462 -0.478543 -5.98189 0
M  V30 3684 H 344.532 -1.11409 -4.71928 0
M  V30 3685 N 345.875 1.56104 -0.216619 0
M  V30 3686 C 347.105 2.02269 0.420802 0
M  V30 3687 C 347.513 1.09575 1.5424 0
M  V30 3688 O 346.856 0.0967308 1.83445 0
M  V30 3689 C 346.918 3.44784 1.01806 0
M  V30 3690 C 346.582 4.56988 0.0325154 0
M  V30 3691 C 347.579 5.14225 -0.766055 0
M  V30 3692 C 345.264 5.02228 -0.0848092 0
M  V30 3693 C 347.258 6.15169 -1.6687 0
M  V30 3694 C 344.945 6.03011 -0.990994 0
M  V30 3695 C 345.943 6.59357 -1.78149 0
M  V30 3696 O 345.631 7.58179 -2.67245 0
M  V30 3697 H 345.363 0.667353 0.107776 0
M  V30 3698 H 347.917 2.02747 -0.329034 0
M  V30 3699 H 346.147 3.41359 1.81689 0
M  V30 3700 H 347.836 3.74626 1.56237 0
M  V30 3701 H 348.602 4.80126 -0.685836 0
M  V30 3702 H 344.481 4.58054 0.520349 0
M  V30 3703 H 348.025 6.59076 -2.28615 0
M  V30 3704 H 343.922 6.36532 -1.07225 0
M  V30 3705 H 344.69 7.75682 -2.61265 0
M  V30 3706 N 347.353 -0.0568162 1.57498 0
M  V30 3707 C 348.601 -0.751617 1.87604 0
M  V30 3708 C 348.922 -1.77351 0.81066 0
M  V30 3709 O 348.192 -1.95254 -0.159018 0
M  V30 3710 H 346.772 -0.280583 0.692302 0
M  V30 3711 H 349.434 -0.0293483 1.94878 0
M  V30 3712 H 348.53 -1.25852 2.856 0
M  V30 3713 N 348.832 -1.54138 -0.328536 0
M  V30 3714 C 349.779 -1.83176 -1.40411 0
M  V30 3715 C 350.749 -0.678494 -1.5161 0
M  V30 3716 O 351.934 -0.92443 -1.6691 0
M  V30 3717 C 349.074 -2.06035 -2.76846 0
M  V30 3718 C 348.187 -3.33727 -2.74318 0
M  V30 3719 C 347.322 -3.46574 -4.02567 0
M  V30 3720 C 346.361 -4.68159 -3.94327 0
M  V30 3721 N 345.498 -4.77959 -5.14296 0
M  V30 3722 H 350.338 -2.74938 -1.14948 0
M  V30 3723 H 347.875 -1.36166 -0.556538 0
M  V30 3724 H 349.833 -2.1728 -3.56153 0
M  V30 3725 H 348.463 -1.1757 -3.00628 0
M  V30 3726 H 347.515 -3.31246 -1.8703 0
M  V30 3727 H 348.827 -4.23139 -2.64111 0
M  V30 3728 H 347.981 -3.57333 -4.90304 0
M  V30 3729 H 346.72 -2.55245 -4.15574 0
M  V30 3730 H 345.725 -4.57461 -3.04974 0
M  V30 3731 H 346.95 -5.60868 -3.82889 0
M  V30 3732 H 344.896 -3.89544 -5.27818 0
M  V30 3733 H 344.813 -5.6133 -5.06404 0
M  V30 3734 H 346.081 -4.93044 -6.03761 0
M  V30 3735 N 350.31 0.590341 -1.46126 0
M  V30 3736 C 351.726 0.912917 -1.30912 0
M  V30 3737 C 351.926 1.99616 -0.274893 0
M  V30 3738 O 350.982 2.50397 0.325197 0
M  V30 3739 C 352.295 1.3375 -2.69317 0
M  V30 3740 C 353.843 1.45077 -2.77348 0
M  V30 3741 C 354.318 1.90904 -4.16317 0
M  V30 3742 N 355.809 1.9811 -4.18696 0
M  V30 3743 C 356.544 2.34828 -5.23109 0
M  V30 3744 N 356.04 2.70393 -6.37856 0
M  V30 3745 N 357.833 2.35317 -5.10473 0
M  V30 3746 H 349.984 -0.125358 -2.1203 0
M  V30 3747 H 352.247 0.00658481 -0.947977 0
M  V30 3748 H 351.953 0.615614 -3.4627 0
M  V30 3749 H 351.827 2.30058 -2.9892 0
M  V30 3750 H 354.214 2.16353 -2.00687 0
M  V30 3751 H 354.295 0.4704 -2.51438 0
M  V30 3752 H 353.939 1.20209 -4.9347 0
M  V30 3753 H 353.869 2.89886 -4.39629 0
M  V30 3754 H 356.36 1.73146 -3.359 0
M  V30 3755 H 356.673 2.97341 -7.13308 0
M  V30 3756 H 355.018 2.68048 -6.41229 0
M  V30 3757 H 358.209 2.0695 -4.19868 0
M  V30 3758 H 358.382 2.63605 -5.9196 0
M  V30 3759 N 351.788 1.33704 0.83433 0
M  V30 3760 C 353.035 1.25417 1.58987 0
M  V30 3761 C 353.363 -0.178869 1.93676 0
M  V30 3762 O 352.618 -1.13723 1.59265 0
M  V30 3763 C 352.917 2.07926 2.90692 0
M  V30 3764 C 352.583 3.57066 2.75345 0
M  V30 3765 C 351.245 3.97724 2.70867 0
M  V30 3766 C 353.597 4.51817 2.59828 0
M  V30 3767 C 350.925 5.31344 2.48778 0
M  V30 3768 C 353.277 5.85604 2.39272 0
M  V30 3769 C 351.941 6.25439 2.33199 0
M  V30 3770 H 351.211 0.458934 0.581774 0
M  V30 3771 H 353.858 1.65335 0.966261 0
M  V30 3772 H 352.163 1.608 3.57282 0
M  V30 3773 H 353.86 1.98868 3.48213 0
M  V30 3774 H 350.45 3.24785 2.79665 0
M  V30 3775 H 354.634 4.21311 2.62319 0
M  V30 3776 H 349.89 5.61241 2.42526 0
M  V30 3777 H 354.064 6.58623 2.2625 0
M  V30 3778 H 351.691 7.28914 2.15843 0
M  V30 3779 N 353.266 -1.05314 1.17247 0
M  V30 3780 C 354.494 -1.81971 0.984593 0
M  V30 3781 C 354.909 -1.82929 -0.467166 0
M  V30 3782 O 354.266 -1.25564 -1.32438 0
M  V30 3783 C 354.317 -3.28143 1.51672 0
M  V30 3784 O 354.038 -3.27347 2.91163 0
M  V30 3785 C 355.539 -4.21493 1.37326 0
M  V30 3786 H 352.759 -0.573455 0.348411 0
M  V30 3787 H 355.303 -1.32808 1.55506 0
M  V30 3788 H 353.458 -3.74582 0.988302 0
M  V30 3789 H 353.872 -4.18824 3.15732 0
M  V30 3790 H 355.346 -5.22043 1.79375 0
M  V30 3791 H 355.823 -4.38031 0.320169 0
M  V30 3792 H 356.429 -3.80909 1.89178 0
M  V30 3793 N 354.744 -0.972509 -1.24016 0
M  V30 3794 C 355.972 -0.654803 -1.96265 0
M  V30 3795 C 356.387 0.776708 -1.72083 0
M  V30 3796 O 355.744 1.52171 -1.00748 0
M  V30 3797 C 355.795 -0.92592 -3.49441 0
M  V30 3798 O 355.516 -2.30116 -3.72798 0
M  V30 3799 C 357.017 -0.623068 -4.38899 0
M  V30 3800 H 354.237 -0.243907 -0.6251 0
M  V30 3801 H 356.781 -1.30175 -1.57717 0
M  V30 3802 H 354.936 -0.325108 -3.86033 0
M  V30 3803 H 355.35 -2.38483 -4.67147 0
M  V30 3804 H 356.824 -0.863189 -5.45209 0
M  V30 3805 H 357.301 0.442754 -4.36963 0
M  V30 3806 H 357.907 -1.204 -4.07902 0
M  V30 3807 N 356.222 1.38976 -0.743202 0
M  V30 3808 C 357.185 2.28901 -0.117014 0
M  V30 3809 C 358.185 1.46698 0.658503 0
M  V30 3810 O 359.375 1.67274 0.486305 0
M  V30 3811 C 356.507 3.30309 0.84315 0
M  V30 3812 H 357.7 2.8578 -0.909373 0
M  V30 3813 H 355.253 1.47761 -0.509547 0
M  V30 3814 H 355.988 2.785 1.66157 0
M  V30 3815 H 355.773 3.91029 0.289594 0
M  V30 3816 H 357.263 3.97577 1.2776 0
M  V30 3817 N 357.7 0.491464 1.49741 0
M  V30 3818 C 358.65 -0.311086 2.25868 0
M  V30 3819 C 359.634 -0.943857 1.30308 0
M  V30 3820 O 360.826 -0.853035 1.55088 0
M  V30 3821 C 357.955 -1.38059 3.14316 0
M  V30 3822 C 357.041 -0.754541 4.17334 0
M  V30 3823 N 357.432 0.137216 5.05614 0
M  V30 3824 C 355.73 -1.01621 4.34269 0
M  V30 3825 C 356.431 0.494614 5.79593 0
M  V30 3826 N 355.407 -0.135169 5.43432 0
M  V30 3827 H 359.209 0.37555 2.91491 0
M  V30 3828 H 356.723 0.306917 1.59473 0
M  V30 3829 H 358.72 -1.96891 3.67477 0
M  V30 3830 H 357.38 -2.06901 2.50244 0
M  V30 3831 H 358.391 0.50741 5.15408 0
M  V30 3832 H 355.068 -1.69808 3.81407 0
M  V30 3833 H 356.458 1.2236 6.60665 0
M  V30 3834 N 359.178 -1.55987 0.224894 0
M  V30 3835 C 360.108 -2.23426 -0.678457 0
M  V30 3836 C 361.089 -1.20709 -1.19847 0
M  V30 3837 O 362.274 -1.49304 -1.24186 0
M  V30 3838 C 359.404 -2.91676 -1.88527 0
M  V30 3839 C 358.358 -4.00893 -1.49896 0
M  V30 3840 C 357.684 -4.56455 -2.78483 0
M  V30 3841 C 358.984 -5.17769 -0.686461 0
M  V30 3842 H 360.678 -2.99175 -0.116173 0
M  V30 3843 H 358.224 -1.43897 -0.054436 0
M  V30 3844 H 360.177 -3.37547 -2.5227 0
M  V30 3845 H 358.901 -2.1338 -2.47258 0
M  V30 3846 H 357.56 -3.55758 -0.884985 0
M  V30 3847 H 357.208 -3.74886 -3.35365 0
M  V30 3848 H 356.908 -5.30169 -2.53368 0
M  V30 3849 H 358.432 -5.05047 -3.43162 0
M  V30 3850 H 359.846 -5.60001 -1.22767 0
M  V30 3851 H 358.243 -5.97735 -0.532259 0
M  V30 3852 H 359.313 -4.83932 0.306196 0
M  V30 3853 N 360.656 0.0484629 -1.57525 0
M  V30 3854 C 361.905 0.742065 -1.87553 0
M  V30 3855 C 362.218 1.77545 -0.820802 0
M  V30 3856 O 363.424 2.52027 -1.00967 0
M  V30 3857 C 361.88 1.37081 -3.32771 0
M  V30 3858 C 361.488 0.374786 -4.4643 0
M  V30 3859 C 363.232 2.04542 -3.71972 0
M  V30 3860 C 361.139 1.01077 -5.82698 0
M  V30 3861 H 360.069 0.280903 -0.699721 0
M  V30 3862 H 362.72 -0.00411877 -1.835 0
M  V30 3863 H 361.102 2.16605 -3.31509 0
M  V30 3864 H 362.276 -0.392331 -4.59127 0
M  V30 3865 H 360.591 -0.196653 -4.15935 0
M  V30 3866 H 363.188 2.52943 -4.71088 0
M  V30 3867 H 363.531 2.85515 -3.02964 0
M  V30 3868 H 364.064 1.31819 -3.75325 0
M  V30 3869 H 360.803 0.240878 -6.55057 0
M  V30 3870 H 360.323 1.74819 -5.73758 0
M  V30 3871 H 362.002 1.52383 -6.28799 0
M  V30 3872 N 362.134 1.5431 0.320358 0
M  V30 3873 C 363.362 1.76636 1.07738 0
M  V30 3874 C 363.777 0.51649 1.81598 0
M  V30 3875 O 363.134 -0.512942 1.75143 0
M  V30 3876 C 363.185 2.96158 2.07299 0
M  V30 3877 O 362.906 4.16313 1.36438 0
M  V30 3878 C 364.407 3.3072 2.95193 0
M  V30 3879 H 361.627 0.589597 0.320339 0
M  V30 3880 H 364.171 2.01207 0.36551 0
M  V30 3881 H 362.326 2.73851 2.74016 0
M  V30 3882 H 362.74 4.83565 2.03138 0
M  V30 3883 H 364.214 4.17643 3.60941 0
M  V30 3884 H 364.691 2.48026 3.62463 0
M  V30 3885 H 365.297 3.55117 2.34034 0
M  V30 3886 N 363.613 -0.582584 1.46437 0
M  V30 3887 C 364.861 -1.33814 1.51453 0
M  V30 3888 C 365.182 -1.94277 0.167792 0
M  V30 3889 O 364.452 -1.78566 -0.805677 0
M  V30 3890 H 363.032 -0.496838 0.557818 0
M  V30 3891 H 365.694 -0.682281 1.82568 0
M  V30 3892 H 364.79 -2.14479 2.26728 0
M  V30 3893 N 365.091 -1.34144 -0.827227 0
M  V30 3894 C 366.316 -1.29476 -1.62021 0
M  V30 3895 C 366.741 0.129292 -1.87655 0
M  V30 3896 O 366.099 1.08967 -1.449 0
M  V30 3897 C 366.147 -2.08702 -2.94068 0
M  V30 3898 O 365.251 -1.45359 -3.85933 0
M  V30 3899 H 364.592 -0.444881 -0.492927 0
M  V30 3900 H 367.122 -1.76882 -1.02829 0
M  V30 3901 H 367.132 -2.19898 -3.43669 0
M  V30 3902 H 365.807 -3.12241 -2.74734 0
M  V30 3903 H 364.384 -1.42879 -3.44442 0
M  V30 3904 N 366.569 1.04691 -1.17803 0
M  V30 3905 C 367.532 2.10724 -0.901545 0
M  V30 3906 C 368.532 1.6042 0.110437 0
M  V30 3907 O 369.722 1.7377 -0.122303 0
M  V30 3908 C 366.854 3.39084 -0.351409 0
M  V30 3909 H 368.047 2.36686 -1.84174 0
M  V30 3910 H 365.6 1.21015 -0.98919 0
M  V30 3911 H 366.335 3.18782 0.59569 0
M  V30 3912 H 366.12 3.76909 -1.08083 0
M  V30 3913 H 367.61 4.17227 -0.176451 0
M  V30 3914 N 368.047 0.979072 1.23499 0
M  V30 3915 C 369.295 0.645941 1.91499 0
M  V30 3916 C 369.616 -0.822948 1.76784 0
M  V30 3917 O 368.886 -1.58854 1.14639 0
M  V30 3918 H 367.466 0.235919 0.708767 0
M  V30 3919 H 370.128 1.2426 1.50152 0
M  V30 3920 H 369.224 0.896411 2.9895 0
M  V30 3921 N 369.525 -1.3858 0.750561 0
M  V30 3922 C 370.75 -2.04997 0.314812 0
M  V30 3923 C 371.175 -1.56235 -1.04749 0
M  V30 3924 O 370.533 -0.712981 -1.66692 0
M  V30 3925 C 370.581 -3.58961 0.343415 0
M  V30 3926 O 369.685 -4.07025 -0.663628 0
M  V30 3927 H 369.026 -0.649081 0.139962 0
M  V30 3928 H 371.556 -1.77313 1.02084 0
M  V30 3929 H 371.566 -4.07542 0.193233 0
M  V30 3930 H 370.241 -3.93811 1.33738 0
M  V30 3931 H 368.818 -3.6982 -0.478307 0
M  V30 3932 N 371.003 -0.499398 -1.49478 0
M  V30 3933 C 372.228 0.044722 -2.07352 0
M  V30 3934 C 372.653 1.30207 -1.35749 0
M  V30 3935 O 372.011 1.76516 -0.413732 0
M  V30 3936 C 372.059 0.283013 -3.59488 0
M  V30 3937 O 371.163 1.35804 -3.89398 0
M  V30 3938 H 370.504 -0.0255147 -0.66351 0
M  V30 3939 H 373.034 -0.698561 -1.92305 0
M  V30 3940 H 373.044 0.515007 -4.04737 0
M  V30 3941 H 371.719 -0.635636 -4.11014 0
M  V30 3942 H 370.296 1.11113 -3.55961 0
M  V30 3943 N 372.481 1.55866 -0.233164 0
M  V30 3944 C 373.411 2.23783 0.666599 0
M  V30 3945 C 374.392 1.21343 1.19205 0
M  V30 3946 O 375.577 1.4996 1.23392 0
M  V30 3947 C 372.707 2.92671 1.86978 0
M  V30 3948 C 371.661 4.01682 1.47768 0
M  V30 3949 C 370.987 4.57926 2.76058 0
M  V30 3950 C 372.287 5.18126 0.658993 0
M  V30 3951 H 373.981 2.99232 0.100306 0
M  V30 3952 H 371.527 1.43924 0.046804 0
M  V30 3953 H 373.48 3.3888 2.50476 0
M  V30 3954 H 372.204 2.14688 2.46123 0
M  V30 3955 H 370.863 3.56222 0.866106 0
M  V30 3956 H 370.511 3.76659 3.33372 0
M  V30 3957 H 370.211 5.31505 2.50552 0
M  V30 3958 H 371.735 5.06859 3.40479 0
M  V30 3959 H 373.149 5.60644 1.19795 0
M  V30 3960 H 371.546 5.98009 0.500552 0
M  V30 3961 H 372.616 4.83763 -0.331856 0
M  V30 3962 N 373.959 -0.0401083 1.57549 0
M  V30 3963 C 375.199 -0.738098 1.90608 0
M  V30 3964 C 375.563 -1.73107 0.830539 0
M  V30 3965 O 376.764 -2.4765 1.04513 0
M  V30 3966 C 375.035 -1.39985 3.28845 0
M  V30 3967 S 376.594 -2.12852 3.83718 0
M  V30 3968 H 373.412 -0.24477 0.667539 0
M  V30 3969 H 376.014 0.00693599 1.95499 0
M  V30 3970 H 374.718 -0.663775 4.04997 0
M  V30 3971 H 374.249 -2.18366 3.2723 0
M  V30 3972 H 376.264 -3.39842 3.61555 0
M  V30 3973 N 375.437 -1.54477 -0.31217 0
M  V30 3974 C 376.662 -1.77526 -1.07235 0
M  V30 3975 C 377.087 -0.527775 -1.80544 0
M  V30 3976 O 376.445 0.52121 -1.73646 0
M  V30 3977 C 376.493 -2.97535 -2.03728 0
M  V30 3978 O 375.597 -2.69878 -3.11833 0
M  V30 3979 H 374.938 -0.58792 -0.30862 0
M  V30 3980 H 377.468 -2.01532 -0.352993 0
M  V30 3981 H 377.478 -3.25198 -2.46395 0
M  V30 3982 H 376.153 -3.87996 -1.49774 0
M  V30 3983 H 374.73 -2.53199 -2.7376 0
M  V30 3984 N 376.915 0.57481 -1.46744 0
M  V30 3985 C 377.845 1.69337 -1.60771 0
M  V30 3986 C 378.826 1.63825 -0.457736 0
M  V30 3987 O 380.011 1.8172 -0.684947 0
M  V30 3988 C 377.141 3.0798 -1.60517 0
M  V30 3989 C 376.095 3.28327 -2.74564 0
M  V30 3990 C 375.421 4.67578 -2.59373 0
M  V30 3991 C 376.721 3.15398 -4.16319 0
M  V30 3992 H 378.415 1.57853 -2.54407 0
M  V30 3993 H 375.961 0.75799 -1.22436 0
M  V30 3994 H 377.914 3.86061 -1.68923 0
M  V30 3995 H 376.638 3.20381 -0.634305 0
M  V30 3996 H 375.297 2.52649 -2.65639 0
M  V30 3997 H 374.945 4.76755 -1.60353 0
M  V30 3998 H 374.645 4.82144 -3.35873 0
M  V30 3999 H 376.169 5.47817 -2.69682 0
M  V30 4000 H 377.583 3.83315 -4.26313 0
M  V30 4001 H 375.98 3.41482 -4.93468 0
M  V30 4002 H 377.05 2.12372 -4.3592 0
M  V30 4003 N 378.394 1.34581 0.820102 0
M  V30 4004 C 379.342 1.26401 1.95258 0
M  V30 4005 C 380.336 0.161553 1.68628 0
M  V30 4006 O 381.542 0.326703 1.7701 0
M  V30 4007 H 377.917 0.392749 0.64129 0
M  V30 4008 H 379.888 2.22105 1.99279 0
M  V30 4009 C 378.637 1.03919 3.31807 0
M  V30 4010 H 377.96 1.87984 3.52848 0
M  V30 4011 H 379.4 1.02232 4.11491 0
M  V30 4012 C 377.859 -0.257433 3.35915 0
M  V30 4013 O 378.389 -1.25784 3.81499 0
M  V30 4014 N 376.595 -0.291524 2.89134 0
M  V30 4015 H 376.142 0.523161 2.52232 0
M  V30 4016 H 376.1 -1.15883 2.92264 0
M  V30 4017 N 379.872 -1.04064 1.18357 0
M  V30 4018 C 381.097 -1.81454 1.00445 0
M  V30 4019 C 381.522 -1.82823 -0.442423 0
M  V30 4020 O 380.88 -1.24555 -1.31741 0
M  V30 4021 C 380.928 -3.24925 1.56384 0
M  V30 4022 O 380.032 -4.04856 0.785209 0
M  V30 4023 H 379.373 -0.560604 0.355835 0
M  V30 4024 H 381.903 -1.31059 1.57114 0
M  V30 4025 H 381.913 -3.75702 1.59097 0
M  V30 4026 H 380.588 -3.23244 2.61699 0
M  V30 4027 H 379.165 -3.63537 0.830399 0
M  V30 4028 N 381.35 -0.985608 -1.22978 0
M  V30 4029 C 382.575 -0.675254 -1.961 0
M  V30 4030 C 383 0.752154 -1.72407 0
M  V30 4031 O 382.358 1.5131 -0.998751 0
M  V30 4032 C 382.406 -0.977899 -3.47087 0
M  V30 4033 O 381.51 -0.072685 -4.12336 0
M  V30 4034 H 380.851 -0.253443 -0.613728 0
M  V30 4035 H 383.381 -1.32061 -1.56272 0
M  V30 4036 H 383.391 -0.916739 -3.97567 0
M  V30 4037 H 382.066 -2.01807 -3.63657 0
M  V30 4038 H 380.643 -0.188703 -3.72422 0
M  V30 4039 N 382.828 1.3818 -0.7579 0
M  V30 4040 C 383.758 2.33027 -0.148597 0
M  V30 4041 C 384.739 1.55085 0.69875 0
M  V30 4042 O 385.924 1.83384 0.639053 0
M  V30 4043 C 383.054 3.3928 0.742034 0
M  V30 4044 C 382.008 4.28 -0.00291946 0
M  V30 4045 C 381.334 5.25146 1.00625 0
M  V30 4046 C 382.634 5.08938 -1.17385 0
M  V30 4047 H 384.328 2.84231 -0.940909 0
M  V30 4048 H 381.874 1.36659 -0.453908 0
M  V30 4049 H 383.827 4.046 1.17799 0
M  V30 4050 H 382.551 2.86569 1.56671 0
M  V30 4051 H 381.21 3.64192 -0.419504 0
M  V30 4052 H 380.858 4.68721 1.8251 0
M  V30 4053 H 380.558 5.85361 0.512428 0
M  V30 4054 H 382.082 5.93342 1.44143 0
M  V30 4055 H 383.496 5.67474 -0.815224 0
M  V30 4056 H 381.893 5.7841 -1.59882 0
M  V30 4057 H 382.963 4.42424 -1.98468 0
M  V30 4058 N 384.306 0.507319 1.49211 0
M  V30 4059 C 385.256 -0.287112 2.26185 0
M  V30 4060 C 386.24 -0.929983 1.31302 0
M  V30 4061 O 387.432 -0.836538 1.55984 0
M  V30 4062 C 384.561 -1.34718 3.15763 0
M  V30 4063 C 383.647 -0.710235 4.18111 0
M  V30 4064 N 384.038 0.190836 5.0544 0
M  V30 4065 C 382.336 -0.97009 4.35322 0
M  V30 4066 C 383.037 0.55606 5.79036 0
M  V30 4067 N 382.013 -0.0775232 5.43545 0
M  V30 4068 H 385.815 0.406445 2.91076 0
M  V30 4069 H 383.329 0.323814 1.59139 0
M  V30 4070 H 385.326 -1.92982 3.69545 0
M  V30 4071 H 383.986 -2.04235 2.52424 0
M  V30 4072 H 384.997 0.562047 5.14841 0
M  V30 4073 H 381.674 -1.65753 3.83187 0
M  V30 4074 H 383.064 1.2936 6.5933 0
M  V30 4075 N 385.784 -1.5574 0.241426 0
M  V30 4076 C 386.694 -2.2479 -0.671305 0
M  V30 4077 C 387.71 -1.26217 -1.19772 0
M  V30 4078 O 388.886 -1.59079 -1.23514 0
M  V30 4079 C 385.951 -2.92966 -1.85396 0
M  V30 4080 C 385.012 -4.06935 -1.36756 0
M  V30 4081 C 384.245 -4.71851 -2.49384 0
M  V30 4082 O 384.468 -4.35823 -3.67987 0
M  V30 4083 O 383.402 -5.60467 -2.19454 0
M  V30 4084 H 387.228 -3.0349 -0.112966 0
M  V30 4085 H 384.813 -1.49397 0.0101513 0
M  V30 4086 H 386.695 -3.35927 -2.54423 0
M  V30 4087 H 385.37 -2.17211 -2.40002 0
M  V30 4088 H 384.277 -3.68503 -0.644726 0
M  V30 4089 H 385.61 -4.84492 -0.867647 0
M  V30 4090 N 387.262 0.0317525 -1.57568 0
M  V30 4091 C 388.51 0.721676 -1.88776 0
M  V30 4092 C 388.831 1.76039 -0.838772 0
M  V30 4093 O 388.101 1.95482 0.127935 0
M  V30 4094 H 386.681 0.269534 -0.696678 0
M  V30 4095 H 389.343 -0.00165879 -1.949 0
M  V30 4096 H 388.439 1.21293 -2.87566 0
M  V30 4097 N 388.74 1.54641 0.303973 0
M  V30 4098 C 389.69 1.8177 1.37636 0
M  V30 4099 C 390.674 0.674697 1.46071 0
M  V30 4100 O 391.866 0.935251 1.50273 0
M  V30 4101 C 388.995 2.06584 2.74186 0
M  V30 4102 C 388.081 3.2706 2.69986 0
M  V30 4103 N 388.472 4.47682 2.35402 0
M  V30 4104 C 386.77 3.29028 3.01092 0
M  V30 4105 C 387.471 5.29689 2.40426 0
M  V30 4106 N 386.447 4.67339 2.7766 0
M  V30 4107 H 390.249 2.72596 1.09857 0
M  V30 4108 H 387.763 1.541 0.51254 0
M  V30 4109 H 389.76 2.24166 3.51504 0
M  V30 4110 H 388.42 1.17024 3.02879 0
M  V30 4111 H 389.431 4.74336 2.07908 0
M  V30 4112 H 386.108 2.49565 3.34699 0
M  V30 4113 H 387.498 6.3606 2.16512 0
M  V30 4114 N 390.218 -0.567019 1.47046 0
M  V30 4115 C 391.443 -1.3551 1.57009 0
M  V30 4116 C 391.868 -1.86841 0.217259 0
M  V30 4117 O 391.226 -1.62435 -0.805268 0
M  V30 4118 C 391.274 -2.50777 2.5912 0
M  V30 4119 O 390.378 -3.52706 2.13711 0
M  V30 4120 H 389.719 -0.402919 0.52778 0
M  V30 4121 H 392.249 -0.686241 1.92748 0
M  V30 4122 H 392.259 -2.97481 2.79229 0
M  V30 4123 H 390.934 -2.12771 3.57353 0
M  V30 4124 H 389.511 -3.12374 2.03659 0
M  V30 4125 N 391.696 -1.35014 -0.812953 0
M  V30 4126 C 392.646 -1.23959 -1.91359 0
M  V30 4127 C 393.63 -0.136306 -1.60322 0
M  V30 4128 O 394.822 -0.366925 -1.73155 0
M  V30 4129 C 391.951 -1.00736 -3.28188 0
M  V30 4130 C 391.037 -2.15426 -3.65311 0
M  V30 4131 N 391.428 -3.40612 -3.73921 0
M  V30 4132 C 389.726 -2.06672 -3.95225 0
M  V30 4133 C 390.427 -4.15994 -4.06601 0
M  V30 4134 N 389.403 -3.44685 -4.20349 0
M  V30 4135 H 393.205 -2.18815 -1.96208 0
M  V30 4136 H 390.719 -1.27395 -1.00718 0
M  V30 4137 H 392.716 -0.909052 -4.06868 0
M  V30 4138 H 391.376 -0.067586 -3.2463 0
M  V30 4139 H 392.387 -3.75043 -3.5716 0
M  V30 4140 H 389.064 -1.20511 -3.99729 0
M  V30 4141 H 390.454 -5.24145 -4.20382 0
M  V30 4142 N 393.175 1.03435 -1.18907 0
M  V30 4143 C 394.4 1.80919 -1.01406 0
M  V30 4144 C 394.825 1.83055 0.432721 0
M  V30 4145 O 394.183 1.25252 1.31079 0
M  V30 4146 C 394.231 3.24091 -1.58105 0
M  V30 4147 O 393.335 4.04434 -0.806669 0
M  V30 4148 H 392.676 0.558709 -0.358803 0
M  V30 4149 H 395.206 1.30223 -1.57807 0
M  V30 4150 H 395.216 3.74853 -1.61087 0
M  V30 4151 H 393.891 3.21851 -2.6341 0
M  V30 4152 H 392.468 3.63091 -0.849666 0
M  V30 4153 N 394.653 0.992116 1.22453 0
M  V30 4154 C 395.616 0.546883 2.2258 0
M  V30 4155 C 396.616 -0.369829 1.56489 0
M  V30 4156 O 397.806 -0.161896 1.73446 0
M  V30 4157 C 394.938 -0.204659 3.40285 0
M  V30 4158 H 396.131 1.43234 2.63484 0
M  V30 4159 H 393.684 0.779239 1.3549 0
M  V30 4160 H 394.419 -1.10614 3.04853 0
M  V30 4161 H 394.204 0.45354 3.89468 0
M  V30 4162 H 395.694 -0.504358 4.14543 0
M  V30 4163 N 396.131 -1.37776 0.765217 0
M  V30 4164 C 397.379 -1.99454 0.325943 0
M  V30 4165 C 397.7 -1.61049 -1.09947 0
M  V30 4166 O 396.97 -0.872821 -1.75381 0
M  V30 4167 H 395.55 -0.737697 0.117525 0
M  V30 4168 H 398.212 -1.68359 0.981895 0
M  V30 4169 H 397.308 -3.09547 0.398353 0
M  V30 4170 N 397.609 -0.515225 -1.4894 0
M  V30 4171 C 398.834 0.022727 -2.07388 0
M  V30 4172 C 399.259 1.2876 -1.37122 0
M  V30 4173 O 398.617 1.76067 -0.432431 0
M  V30 4174 C 398.665 0.244869 -3.59768 0
M  V30 4175 O 397.769 1.31667 -3.90817 0
M  V30 4176 H 397.11 -0.0325506 -0.663202 0
M  V30 4177 H 399.64 -0.718918 -1.91553 0
M  V30 4178 H 399.65 0.47205 -4.0526 0
M  V30 4179 H 398.325 -0.679194 -4.10317 0
M  V30 4180 H 396.902 1.07331 -3.5712 0
M  V30 4181 N 399.087 1.5561 -0.249682 0
M  V30 4182 C 400.498 1.84979 0.252949 0
M  V30 4183 C 400.849 1.17153 1.57384 0
M  V30 4184 O 399.974 0.450884 2.11651 0
M  V30 4185 C 400.569 3.35584 0.465732 0
M  V30 4186 C 399.128 3.65169 0.912624 0
M  V30 4187 C 398.275 2.77299 -0.00859085 0
M  V30 4188 H 401.226 1.51513 -0.47217 0
M  V30 4189 H 401.247 3.57313 1.30795 0
M  V30 4190 H 400.759 3.8492 -0.49579 0
M  V30 4191 H 398.86 3.21312 1.88652 0
M  V30 4192 H 398.973 4.72912 0.767559 0
M  V30 4193 H 397.337 2.49678 0.50327 0
M  V30 4194 H 398.12 3.29442 -0.965537 0
M  V30 4195 N 400.565 -0.0233959 1.57583 0
M  V30 4196 C 401.495 -1.02162 2.09965 0
M  V30 4197 C 402.476 -1.3735 1.00344 0
M  V30 4198 O 403.661 -1.46135 1.27899 0
M  V30 4199 C 400.791 -2.32081 2.58371 0
M  V30 4200 C 399.745 -2.1112 3.72307 0
M  V30 4201 C 399.071 -3.46848 4.06941 0
M  V30 4202 C 400.371 -1.49276 5.00514 0
M  V30 4203 H 402.065 -0.585557 2.93618 0
M  V30 4204 H 399.611 -0.280218 1.41247 0
M  V30 4205 H 401.564 -3.02249 2.93639 0
M  V30 4206 H 400.288 -2.77758 1.71808 0
M  V30 4207 H 398.947 -1.43384 3.37397 0
M  V30 4208 H 398.595 -3.90184 3.17436 0
M  V30 4209 H 398.295 -3.33646 4.83688 0
M  V30 4210 H 399.819 -4.18369 4.44747 0
M  V30 4211 H 401.233 -2.09368 5.33702 0
M  V30 4212 H 399.63 -1.46632 5.8191 0
M  V30 4213 H 400.7 -0.459217 4.82721 0
M  V30 4214 N 402.043 -1.548 -0.295768 0
M  V30 4215 C 403.29 -1.74329 -1.03032 0
M  V30 4216 C 403.618 -0.531915 -1.87085 0
M  V30 4217 O 402.873 0.486052 -1.89568 0
M  V30 4218 C 403.172 -2.98797 -1.961 0
M  V30 4219 C 402.838 -4.32356 -1.2798 0
M  V30 4220 C 401.5 -4.68661 -1.09135 0
M  V30 4221 C 403.852 -5.15128 -0.793243 0
M  V30 4222 C 401.18 -5.85312 -0.403269 0
M  V30 4223 C 403.532 -6.32488 -0.118854 0
M  V30 4224 C 402.196 -6.6745 0.0815043 0
M  V30 4225 H 401.466 -0.637916 -0.37702 0
M  V30 4226 H 404.113 -1.8906 -0.304696 0
M  V30 4227 H 402.418 -2.78869 -2.75207 0
M  V30 4228 H 404.115 -3.11102 -2.53015 0
M  V30 4229 H 400.705 -4.03808 -1.43655 0
M  V30 4230 H 404.889 -4.87575 -0.92653 0
M  V30 4231 H 400.145 -6.1094 -0.237098 0
M  V30 4232 H 404.319 -6.95892 0.266035 0
M  V30 4233 H 401.946 -7.57695 0.616685 0
M  V30 4234 N 403.521 0.559213 -1.47345 0
M  V30 4235 C 404.768 1.31648 -1.53867 0
M  V30 4236 C 405.096 1.93468 -0.200104 0
M  V30 4237 O 404.351 1.78295 0.806799 0
M  V30 4238 C 404.65 2.44853 -2.6035 0
M  V30 4239 C 404.316 2.00876 -4.03683 0
M  V30 4240 C 402.978 1.88599 -4.42701 0
M  V30 4241 C 405.33 1.67279 -4.93626 0
M  V30 4242 C 402.658 1.41017 -5.69501 0
M  V30 4243 C 405.01 1.21169 -6.20887 0
M  V30 4244 C 403.674 1.07487 -6.58789 0
M  V30 4245 H 402.944 0.481734 -0.56304 0
M  V30 4246 H 405.591 0.627301 -1.80934 0
M  V30 4247 H 403.896 3.19318 -2.27032 0
M  V30 4248 H 405.593 3.03039 -2.62619 0
M  V30 4249 H 402.183 2.11374 -3.72853 0
M  V30 4250 H 406.367 1.75638 -4.64182 0
M  V30 4251 H 401.623 1.29086 -5.97618 0
M  V30 4252 H 405.797 0.942345 -6.89995 0
M  V30 4253 H 403.424 0.703946 -7.56934 0
M  V30 4254 N 404.999 1.35443 0.805782 0
M  V30 4255 C 405.947 1.28465 1.93906 0
M  V30 4256 C 406.941 0.17943 1.68447 0
M  V30 4257 O 408.147 0.345459 1.76654 0
M  V30 4258 H 404.522 0.399528 0.637088 0
M  V30 4259 H 406.493 2.24206 1.96912 0
M  V30 4260 C 405.242 1.07432 3.30687 0
M  V30 4261 H 404.565 1.91716 3.50835 0
M  V30 4262 H 406.005 1.06591 4.10383 0
M  V30 4263 C 404.464 -0.22179 3.36169 0
M  V30 4264 O 404.994 -1.21731 3.82811 0
M  V30 4265 N 403.2 -0.260841 2.89427 0
M  V30 4266 H 402.747 0.549884 2.51663 0
M  V30 4267 H 402.705 -1.12777 2.93477 0
M  V30 4268 N 406.477 -1.02803 1.19454 0
M  V30 4269 C 407.427 -2.0945 0.900827 0
M  V30 4270 C 408.411 -1.60335 -0.134715 0
M  V30 4271 O 409.603 -1.76857 0.0710924 0
M  V30 4272 C 406.732 -3.4044 0.442229 0
M  V30 4273 C 405.818 -3.96286 1.51056 0
M  V30 4274 N 406.209 -4.25785 2.73021 0
M  V30 4275 C 404.507 -4.24307 1.37404 0
M  V30 4276 C 405.208 -4.70654 3.41848 0
M  V30 4277 N 404.184 -4.72238 2.69243 0
M  V30 4278 H 407.986 -2.3015 1.82779 0
M  V30 4279 H 405.5 -1.20672 1.08683 0
M  V30 4280 H 407.497 -4.16354 0.21326 0
M  V30 4281 H 406.157 -3.21159 -0.478238 0
M  V30 4282 H 407.168 -4.15041 3.09776 0
M  V30 4283 H 403.845 -4.14285 0.517103 0
M  V30 4284 H 405.235 -5.02392 4.46152 0
M  V30 4285 N 407.956 -0.998596 -1.21925 0
M  V30 4286 C 409.202 -0.678667 -1.91107 0
M  V30 4287 C 409.535 0.78791 -1.77498 0
M  V30 4288 O 408.81 1.57043 -1.1475 0
M  V30 4289 C 409.093 -1.09245 -3.43129 0
M  V30 4290 C 408.946 -2.61801 -3.6576 0
M  V30 4291 C 410.265 -0.649984 -4.35274 0
M  V30 4292 H 407.384 -0.248025 -0.694012 0
M  V30 4293 H 410.026 -1.24314 -1.43688 0
M  V30 4294 H 408.176 -0.612171 -3.83647 0
M  V30 4295 H 409.848 -3.17543 -3.34611 0
M  V30 4296 H 408.091 -3.03609 -3.09845 0
M  V30 4297 H 408.762 -2.85804 -4.7225 0
M  V30 4298 H 411.238 -1.0626 -4.02303 0
M  V30 4299 H 410.114 -0.967743 -5.40302 0
M  V30 4300 H 410.375 0.449139 -4.39813 0
M  V30 4301 N 409.434 1.37368 -0.772513 0
M  V30 4302 C 410.381 2.30262 -0.157488 0
M  V30 4303 C 411.351 1.51137 0.688965 0
M  V30 4304 O 412.536 1.79704 0.641168 0
M  V30 4305 C 409.676 3.37611 0.715045 0
M  V30 4306 C 408.789 4.31746 -0.148098 0
M  V30 4307 C 407.924 5.26171 0.729213 0
M  V30 4308 C 406.963 6.11948 -0.136418 0
M  V30 4309 N 406.1 6.98613 0.698914 0
M  V30 4310 H 410.94 2.82277 -0.955179 0
M  V30 4311 H 408.477 1.38957 -0.482631 0
M  V30 4312 H 410.435 3.98479 1.23575 0
M  V30 4313 H 409.065 2.86959 1.47833 0
M  V30 4314 H 408.117 3.72178 -0.786613 0
M  V30 4315 H 409.429 4.92084 -0.81579 0
M  V30 4316 H 408.583 5.92247 1.31637 0
M  V30 4317 H 407.322 4.66246 1.43059 0
M  V30 4318 H 406.327 5.4485 -0.736102 0
M  V30 4319 H 407.552 6.73945 -0.835134 0
M  V30 4320 H 405.498 6.41215 1.38489 0
M  V30 4321 H 405.415 7.55948 0.0885358 0
M  V30 4322 H 406.683 7.69077 1.27044 0
M  V30 4323 N 410.912 0.523116 1.48665 0
M  V30 4324 C 412.161 -0.01544 2.01694 0
M  V30 4325 C 412.474 -1.35975 1.40606 0
M  V30 4326 O 413.68 -1.98627 1.85093 0
M  V30 4327 C 412.136 -0.0779303 3.59816 0
M  V30 4328 C 411.744 1.26107 4.29885 0
M  V30 4329 C 413.488 -0.565678 4.20714 0
M  V30 4330 C 411.395 1.15954 5.79921 0
M  V30 4331 H 410.325 -0.00954163 0.75394 0
M  V30 4332 H 412.976 0.665865 1.70993 0
M  V30 4333 H 411.358 -0.824165 3.87329 0
M  V30 4334 H 412.532 2.02233 4.14051 0
M  V30 4335 H 410.847 1.68401 3.80828 0
M  V30 4336 H 413.444 -0.6595 5.30617 0
M  V30 4337 H 413.787 -1.56984 3.85567 0
M  V30 4338 H 414.32 0.12467 3.97605 0
M  V30 4339 H 411.059 2.13864 6.19631 0
M  V30 4340 H 410.579 0.439529 5.98187 0
M  V30 4341 H 412.258 0.847361 6.41427 0
M  V30 4342 N 412.39 -1.55475 0.257931 0
M  V30 4343 C 413.337 -2.21837 -0.636939 0
M  V30 4344 C 414.307 -1.18596 -1.16294 0
M  V30 4345 O 415.492 -1.47081 -1.21539 0
M  V30 4346 C 412.632 -2.9301 -1.82317 0
M  V30 4347 C 411.745 -4.10931 -1.33265 0
M  V30 4348 C 410.88 -4.69791 -2.47931 0
M  V30 4349 C 409.919 -5.7994 -1.95796 0
M  V30 4350 N 409.056 -6.32935 -3.0387 0
M  V30 4351 H 413.896 -2.9793 -0.0643591 0
M  V30 4352 H 411.433 -1.47086 -0.0200031 0
M  V30 4353 H 413.391 -3.3248 -2.52018 0
M  V30 4354 H 412.021 -2.1937 -2.36805 0
M  V30 4355 H 411.073 -3.76699 -0.52931 0
M  V30 4356 H 412.385 -4.90417 -0.910654 0
M  V30 4357 H 411.539 -5.11892 -3.25656 0
M  V30 4358 H 410.278 -3.89545 -2.93438 0
M  V30 4359 H 409.283 -5.37305 -1.16546 0
M  V30 4360 H 410.508 -6.62043 -1.51246 0
M  V30 4361 H 408.454 -5.55591 -3.48791 0
M  V30 4362 H 408.371 -7.07645 -2.66035 0
M  V30 4363 H 409.639 -6.79695 -3.81621 0
M  V30 4364 N 413.868 0.0150385 -1.57593 0
M  V30 4365 C 414.798 1.01047 -2.10503 0
M  V30 4366 C 415.779 1.36816 -1.01071 0
M  V30 4367 O 416.964 1.45455 -1.28672 0
M  V30 4368 C 414.094 2.30708 -2.59598 0
M  V30 4369 C 413.048 2.09142 -3.73421 0
M  V30 4370 C 412.374 3.44685 -4.08774 0
M  V30 4371 C 413.674 1.46619 -5.01298 0
M  V30 4372 H 415.368 0.569978 -2.93925 0
M  V30 4373 H 412.914 0.272724 -1.41394 0
M  V30 4374 H 414.867 3.00687 -2.95238 0
M  V30 4375 H 413.591 2.76843 -1.73279 0
M  V30 4376 H 412.25 1.41592 -3.38153 0
M  V30 4377 H 411.898 3.88495 -3.195 0
M  V30 4378 H 411.598 3.31077 -4.8545 0
M  V30 4379 H 413.122 4.16004 -4.4696 0
M  V30 4380 H 414.536 2.06535 -5.34805 0
M  V30 4381 H 412.933 1.43544 -5.82679 0
M  V30 4382 H 414.003 0.433611 -4.82957 0
M  V30 4383 N 415.346 1.54954 0.287554 0
M  V30 4384 C 416.309 1.86076 1.33823 0
M  V30 4385 C 417.309 0.734414 1.43049 0
M  V30 4386 O 418.499 1.00266 1.42452 0
M  V30 4387 C 415.631 2.05305 2.72144 0
M  V30 4388 H 416.824 2.79984 1.07465 0
M  V30 4389 H 414.377 1.47223 0.524902 0
M  V30 4390 H 415.112 1.1373 3.03704 0
M  V30 4391 H 414.897 2.873 2.66836 0
M  V30 4392 H 416.387 2.30706 3.48087 0
M  V30 4393 N 416.824 -0.551391 1.4764 0
M  V30 4394 C 418.101 -1.31229 1.45046 0
M  V30 4395 C 418.481 -2.10563 0.150527 0
M  V30 4396 O 417.829 -2.11374 -0.867956 0
M  V30 4397 C 418.039 -2.21189 2.69956 0
M  V30 4398 C 419.387 -2.82021 3.1741 0
M  V30 4399 O 420.411 -2.31488 2.70724 0
M  V30 4400 O 419.27 -3.73885 3.98588 0
M  V30 4401 H 416.364 -0.591193 0.578291 0
M  V30 4402 H 418.91 -0.569813 1.59847 0
M  V30 4403 H 417.682 -1.62207 3.56096 0
M  V30 4404 H 417.305 -3.02722 2.57769 0
M  V30 4405 N 418.302 -1.35869 -0.798587 0
M  V30 4406 C 419.527 -1.32883 -1.59238 0
M  V30 4407 C 419.952 0.0894587 -1.87887 0
M  V30 4408 O 419.31 1.05869 -1.47178 0
M  V30 4409 C 419.358 -2.14892 -2.89575 0
M  V30 4410 O 418.462 -1.53512 -3.82763 0
M  V30 4411 H 417.803 -0.455236 -0.48338 0
M  V30 4412 H 420.333 -1.79024 -0.990539 0
M  V30 4413 H 420.343 -2.27139 -3.38928 0
M  V30 4414 H 419.018 -3.17998 -2.68049 0
M  V30 4415 H 417.595 -1.50153 -3.41334 0
M  V30 4416 N 419.78 1.02168 -1.19998 0
M  V30 4417 C 420.743 2.08765 -0.94604 0
M  V30 4418 C 421.743 1.60618 0.0763846 0
M  V30 4419 O 422.933 1.73472 -0.159135 0
M  V30 4420 C 420.065 3.38262 -0.423255 0
M  V30 4421 H 421.258 2.32726 -1.89153 0
M  V30 4422 H 418.811 1.1889 -1.01464 0
M  V30 4423 H 419.546 3.19974 0.527938 0
M  V30 4424 H 419.331 3.74532 -1.16053 0
M  V30 4425 H 420.821 4.16759 -0.264911 0
M  V30 4426 N 421.258 1.00505 1.21394 0
M  V30 4427 C 422.188 0.585684 2.26035 0
M  V30 4428 C 423.169 -0.393525 1.65485 0
M  V30 4429 O 424.354 -0.281497 1.92149 0
M  V30 4430 C 421.484 -0.0884283 3.47187 0
M  V30 4431 C 420.438 0.810567 4.20254 0
M  V30 4432 C 419.764 0.00286382 5.347 0
M  V30 4433 C 421.064 2.1132 4.77641 0
M  V30 4434 H 422.758 1.46039 2.61368 0
M  V30 4435 H 420.304 0.703648 1.25638 0
M  V30 4436 H 422.257 -0.393286 4.19561 0
M  V30 4437 H 420.981 -0.997766 3.10986 0
M  V30 4438 H 419.64 1.09925 3.49731 0
M  V30 4439 H 419.288 -0.907765 4.94741 0
M  V30 4440 H 418.988 0.601444 5.84514 0
M  V30 4441 H 420.512 -0.295808 6.09883 0
M  V30 4442 H 421.926 1.87148 5.41893 0
M  V30 4443 H 420.323 2.66164 5.37845 0
M  V30 4444 H 421.393 2.78393 3.9702 0
M  V30 4445 N 422.737 -1.36956 0.779787 0
M  V30 4446 C 423.647 -2.33965 0.172491 0
M  V30 4447 C 424.663 -1.60574 -0.670222 0
M  V30 4448 O 425.839 -1.92617 -0.588263 0
M  V30 4449 C 422.904 -3.39761 -0.690173 0
M  V30 4450 C 421.965 -4.28964 0.169924 0
M  V30 4451 C 421.198 -5.29707 -0.651662 0
M  V30 4452 O 421.421 -5.38238 -1.88827 0
M  V30 4453 O 420.355 -6.01873 -0.0566264 0
M  V30 4454 H 424.181 -2.87647 0.974321 0
M  V30 4455 H 421.766 -1.39258 0.541078 0
M  V30 4456 H 423.648 -4.04471 -1.1824 0
M  V30 4457 H 422.323 -2.88394 -1.47006 0
M  V30 4458 H 421.23 -3.67326 0.708696 0
M  V30 4459 H 422.563 -4.83656 0.913085 0
M  V30 4460 N 424.215 -0.530993 -1.48385 0
M  V30 4461 C 425.631 -0.188919 -1.58478 0
M  V30 4462 C 425.831 1.30786 -1.53288 0
M  V30 4463 O 424.887 2.08619 -1.42248 0
M  V30 4464 C 426.2 -0.792343 -2.90073 0
M  V30 4465 C 427.748 -0.76117 -3.03604 0
M  V30 4466 C 428.223 -1.34319 -4.37861 0
M  V30 4467 N 429.714 -1.3052 -4.44431 0
M  V30 4468 C 430.449 -1.72543 -5.46824 0
M  V30 4469 N 429.945 -2.22299 -6.56167 0
M  V30 4470 N 431.738 -1.63773 -5.37712 0
M  V30 4471 H 423.889 -1.50377 -1.50002 0
M  V30 4472 H 426.152 -0.625559 -0.712306 0
M  V30 4473 H 425.858 -1.84323 -2.99529 0
M  V30 4474 H 425.732 -0.270026 -3.76232 0
M  V30 4475 H 428.119 0.280957 -2.93759 0
M  V30 4476 H 428.2 -1.32097 -2.19053 0
M  V30 4477 H 427.844 -2.38425 -4.4846 0
M  V30 4478 H 427.774 -0.759064 -5.21101 0
M  V30 4479 H 430.265 -0.940973 -3.65997 0
M  V30 4480 H 430.578 -2.52356 -7.30436 0
M  V30 4481 H 428.923 -2.26293 -6.57127 0
M  V30 4482 H 432.114 -1.24698 -4.51185 0
M  V30 4483 H 432.287 -1.96844 -6.17379 0
M  V30 4484 N 425.693 1.55336 -0.266172 0
M  V30 4485 C 426.64 2.22172 0.625165 0
M  V30 4486 C 427.61 1.19211 1.15663 0
M  V30 4487 O 428.795 1.47723 1.20758 0
M  V30 4488 C 425.935 2.93972 1.8076 0
M  V30 4489 C 425.048 4.11632 1.31084 0
M  V30 4490 C 424.183 4.71099 2.45436 0
M  V30 4491 C 423.222 5.8097 1.92718 0
M  V30 4492 N 422.359 6.34538 3.00509 0
M  V30 4493 H 427.199 2.9796 0.0485582 0
M  V30 4494 H 424.736 1.47095 0.0122024 0
M  V30 4495 H 426.694 3.33811 2.50251 0
M  V30 4496 H 425.324 2.20623 2.35638 0
M  V30 4497 H 424.376 3.76975 0.509326 0
M  V30 4498 H 425.688 4.90893 0.884633 0
M  V30 4499 H 424.842 5.13612 3.22936 0
M  V30 4500 H 423.581 3.91096 2.91368 0
M  V30 4501 H 422.586 5.37916 1.13695 0
M  V30 4502 H 423.811 6.62836 1.47733 0
M  V30 4503 H 421.757 5.57433 3.45839 0
M  V30 4504 H 421.674 7.09046 2.62279 0
M  V30 4505 H 422.942 6.81709 3.78011 0
M  V30 4506 N 427.171 -0.0066808 1.57599 0
M  V30 4507 C 428.587 -0.36267 1.55425 0
M  V30 4508 C 428.787 -1.75209 0.995187 0
M  V30 4509 O 427.843 -2.44616 0.626058 0
M  V30 4510 C 429.156 -0.244017 2.99708 0
M  V30 4511 C 430.704 -0.319451 3.11366 0
M  V30 4512 C 431.179 -0.229998 4.57422 0
M  V30 4513 N 432.67 -0.288105 4.62303 0
M  V30 4514 C 433.405 -0.242127 5.72889 0
M  V30 4515 N 432.901 -0.147133 6.92644 0
M  V30 4516 N 434.694 -0.293502 5.61333 0
M  V30 4517 H 426.845 0.902314 1.92281 0
M  V30 4518 H 429.108 0.34525 0.882896 0
M  V30 4519 H 428.814 0.711678 3.44424 0
M  V30 4520 H 428.688 -1.02877 3.629 0
M  V30 4521 H 431.075 -1.26559 2.66584 0
M  V30 4522 H 431.156 0.495055 2.50964 0
M  V30 4523 H 430.8 0.712566 5.02877 0
M  V30 4524 H 430.73 -1.0629 5.15761 0
M  V30 4525 H 433.221 -0.363126 3.76151 0
M  V30 4526 H 433.534 -0.117763 7.7271 0
M  V30 4527 H 431.879 -0.112857 6.94908 0
M  V30 4528 H 435.07 -0.365864 4.66668 0
M  V30 4529 H 435.243 -0.254204 6.47501 0
M  V30 4530 N 428.649 -1.55105 -0.279332 0
M  V30 4531 C 429.898 -1.74618 -1.00952 0
M  V30 4532 C 430.211 -0.551096 -1.87676 0
M  V30 4533 O 431.417 -0.628507 -2.64125 0
M  V30 4534 C 429.873 -3.09025 -1.84476 0
M  V30 4535 C 429.481 -4.36081 -1.0265 0
M  V30 4536 C 431.225 -3.37891 -2.56963 0
M  V30 4537 C 429.132 -5.6153 -1.85576 0
M  V30 4538 H 428.062 -0.650868 -0.38064 0
M  V30 4539 H 430.713 -1.81569 -0.265475 0
M  V30 4540 H 429.095 -2.96095 -2.62952 0
M  V30 4541 H 430.269 -4.59909 -0.286354 0
M  V30 4542 H 428.584 -4.14312 -0.416464 0
M  V30 4543 H 431.181 -4.28822 -3.19399 0
M  V30 4544 H 431.524 -2.57737 -3.26921 0
M  V30 4545 H 432.057 -3.5189 -1.85522 0
M  V30 4546 H 428.796 -6.44413 -1.2005 0
M  V30 4547 H 428.316 -5.41854 -2.57204 0
M  V30 4548 H 429.995 -5.99594 -2.43096 0
M  V30 4549 N 430.127 0.543554 -1.4793 0
M  V30 4550 C 431.352 1.32995 -1.59145 0
M  V30 4551 C 431.777 1.86472 -0.246956 0
M  V30 4552 O 431.135 1.63696 0.779324 0
M  V30 4553 C 431.183 2.46623 -2.63077 0
M  V30 4554 O 430.287 3.49261 -2.19295 0
M  V30 4555 H 429.628 0.394472 -0.534124 0
M  V30 4556 H 432.158 0.655489 -1.93816 0
M  V30 4557 H 432.168 2.93001 -2.83926 0
M  V30 4558 H 430.843 2.07059 -3.60693 0
M  V30 4559 H 429.42 3.09094 -2.08603 0
M  V30 4560 N 431.605 1.3629 0.791371 0
M  V30 4561 C 432.568 1.30309 1.88553 0
M  V30 4562 C 433.568 0.211204 1.59407 0
M  V30 4563 O 434.758 0.465865 1.67855 0
M  V30 4564 C 431.89 1.01956 3.25297 0
M  V30 4565 H 433.083 2.27614 1.95273 0
M  V30 4566 H 430.636 1.21035 0.988953 0
M  V30 4567 H 431.371 0.050998 3.2426 0
M  V30 4568 H 431.156 1.80968 3.4784 0
M  V30 4569 H 432.646 1.0037 4.05359 0
M  V30 4570 N 433.083 -1.0153 1.20538 0
M  V30 4571 C 434.046 -2.0826 0.957098 0
M  V30 4572 C 435.046 -1.60657 -0.0678655 0
M  V30 4573 O 436.236 -1.73385 0.168332 0
M  V30 4574 C 433.368 -3.38033 0.441188 0
M  V30 4575 H 434.561 -2.31719 1.90384 0
M  V30 4576 H 432.114 -1.1835 1.02093 0
M  V30 4577 H 432.849 -3.20249 -0.510961 0
M  V30 4578 H 432.634 -3.73911 1.18038 0
M  V30 4579 H 434.124 -4.16613 0.287009 0
M  V30 4580 N 434.561 -1.01147 -1.20859 0
M  V30 4581 C 435.977 -0.725422 -1.42161 0
M  V30 4582 C 436.177 0.696919 -1.89064 0
M  V30 4583 O 435.233 1.46539 -2.05627 0
M  V30 4584 C 436.546 -1.74678 -2.44761 0
M  V30 4585 C 438.094 -1.76433 -2.58535 0
M  V30 4586 C 438.569 -2.77481 -3.64374 0
M  V30 4587 N 440.06 -2.76189 -3.71852 0
M  V30 4588 C 440.795 -3.51035 -4.53389 0
M  V30 4589 N 440.291 -4.35541 -5.38773 0
M  V30 4590 N 442.084 -3.39655 -4.47873 0
M  V30 4591 H 434.235 -1.92979 -0.887282 0
M  V30 4592 H 436.498 -0.833327 -0.451962 0
M  V30 4593 H 436.204 -2.76551 -2.17285 0
M  V30 4594 H 436.078 -1.55472 -3.43669 0
M  V30 4595 H 438.465 -0.75248 -2.85345 0
M  V30 4596 H 438.546 -1.99712 -1.5984 0
M  V30 4597 H 438.19 -3.78827 -3.38308 0
M  V30 4598 H 438.12 -2.51466 -4.6268 0
M  V30 4599 H 440.611 -2.14885 -3.10858 0
M  V30 4600 H 440.924 -4.89432 -5.98061 0
M  V30 4601 H 439.269 -4.39621 -5.38292 0
M  V30 4602 H 442.46 -2.73063 -3.80203 0
M  V30 4603 H 442.633 -3.9824 -5.11184 0
M  V30 4604 N 436.039 1.36541 -0.78704 0
M  V30 4605 C 436.949 2.3387 -0.184896 0
M  V30 4606 C 437.965 1.60927 0.661697 0
M  V30 4607 O 439.141 1.92927 0.57804 0
M  V30 4608 C 436.206 3.40122 0.672145 0
M  V30 4609 C 435.267 4.28867 -0.19267 0
M  V30 4610 C 434.5 5.30045 0.623561 0
M  V30 4611 O 434.723 5.39232 1.8597 0
M  V30 4612 O 433.657 6.01895 0.0247068 0
M  V30 4613 H 437.483 2.87126 -0.989562 0
M  V30 4614 H 435.068 1.38969 -0.548455 0
M  V30 4615 H 436.95 4.05093 1.16094 0
M  V30 4616 H 435.625 2.89169 1.45474 0
M  V30 4617 H 434.532 3.66945 -0.728166 0
M  V30 4618 H 435.865 4.83165 -0.938722 0
M  V30 4619 N 437.518 0.538854 1.48102 0
M  V30 4620 C 438.934 0.19732 1.58376 0
M  V30 4621 C 439.134 -1.29971 1.5398 0
M  V30 4622 O 438.19 -2.07861 1.43352 0
M  V30 4623 C 439.503 0.807716 2.89649 0
M  V30 4624 C 441.051 0.77726 3.03196 0
M  V30 4625 C 441.526 1.36639 4.37143 0
M  V30 4626 N 443.017 1.32875 4.43732 0
M  V30 4627 C 443.752 1.7544 5.45901 0
M  V30 4628 N 443.248 2.25776 6.54979 0
M  V30 4629 N 445.041 1.66623 5.36836 0
M  V30 4630 H 437.192 1.5117 1.49202 0
M  V30 4631 H 439.455 0.629327 0.708979 0
M  V30 4632 H 439.161 1.85909 2.98548 0
M  V30 4633 H 439.035 0.289975 3.76084 0
M  V30 4634 H 441.422 -0.265374 2.93904 0
M  V30 4635 H 441.503 1.33256 2.18349 0
M  V30 4636 H 441.147 2.408 4.47189 0
M  V30 4637 H 441.077 0.786689 5.20691 0
M  V30 4638 H 443.568 0.96037 3.65493 0
M  V30 4639 H 443.881 2.56226 7.29087 0
M  V30 4640 H 442.226 2.29775 6.55918 0
M  V30 4641 H 445.417 1.27089 4.50517 0
M  V30 4642 H 445.59 2.00115 6.16326 0
M  V30 4643 N 438.996 -1.55193 0.274407 0
M  V30 4644 C 439.943 -2.225 -0.613374 0
M  V30 4645 C 440.913 -1.19823 -1.15029 0
M  V30 4646 O 442.098 -1.48362 -1.19973 0
M  V30 4647 C 439.238 -2.94927 -1.79199 0
M  V30 4648 C 438.351 -4.12322 -1.28899 0
M  V30 4649 C 437.486 -4.72394 -2.42934 0
M  V30 4650 C 436.525 -5.81984 -1.89634 0
M  V30 4651 N 435.662 -6.36123 -2.9714 0
M  V30 4652 H 440.502 -2.97982 -0.032756 0
M  V30 4653 H 438.039 -1.47099 -0.00440146 0
M  V30 4654 H 439.997 -3.35134 -2.48478 0
M  V30 4655 H 438.627 -2.2187 -2.34465 0
M  V30 4656 H 437.679 -3.7724 -0.489327 0
M  V30 4657 H 438.991 -4.91355 -0.858587 0
M  V30 4658 H 438.145 -5.15317 -3.20208 0
M  V30 4659 H 436.884 -3.92636 -2.8929 0
M  V30 4660 H 435.889 -5.38511 -1.1084 0
M  V30 4661 H 437.114 -6.6361 -1.44215 0
M  V30 4662 H 435.06 -5.59259 -3.42878 0
M  V30 4663 H 434.977 -7.10427 -2.58515 0
M  V30 4664 H 436.245 -6.83704 -3.74391 0
M  V30 4665 N 440.474 -0.00167713 -1.576 0
M  V30 4666 C 441.437 0.974046 -2.07473 0
M  V30 4667 C 442.437 1.27143 -0.984444 0
M  V30 4668 O 443.627 1.21633 -1.24703 0
M  V30 4669 C 440.759 2.29849 -2.51759 0
M  V30 4670 H 441.952 0.54262 -2.9495 0
M  V30 4671 H 439.505 0.245829 -1.54355 0
M  V30 4672 H 440.24 2.77677 -1.67529 0
M  V30 4673 H 440.025 2.09584 -3.31386 0
M  V30 4674 H 441.515 2.9984 -2.90664 0
M  V30 4675 N 441.952 1.55251 0.271103 0
M  V30 4676 C 443.18 1.79974 1.02064 0
M  V30 4677 C 443.595 0.574003 1.79863 0
M  V30 4678 O 442.952 -0.456962 1.76686 0
M  V30 4679 C 443.003 3.02603 1.97772 0
M  V30 4680 O 442.724 4.20443 1.23124 0
M  V30 4681 C 444.225 3.39944 2.84522 0
M  V30 4682 H 441.445 0.599489 0.301419 0
M  V30 4683 H 443.989 2.02268 0.301313 0
M  V30 4684 H 442.144 2.8243 2.65165 0
M  V30 4685 H 442.558 4.89783 1.87651 0
M  V30 4686 H 444.032 4.28915 3.47471 0
M  V30 4687 H 444.509 2.59432 3.54389 0
M  V30 4688 H 445.115 3.62383 2.22618 0
M  V30 4689 N 443.43 -0.535701 1.48216 0
M  V30 4690 C 444.377 -1.64083 1.62312 0
M  V30 4691 C 445.347 -1.59448 0.465365 0
M  V30 4692 O 446.532 -1.77959 0.688135 0
M  V30 4693 C 443.672 -3.0236 1.66349 0
M  V30 4694 C 442.785 -3.17273 2.93193 0
M  V30 4695 C 441.92 -4.46075 2.88427 0
M  V30 4696 C 440.959 -4.54496 4.1 0
M  V30 4697 N 440.096 -5.7468 4.03345 0
M  V30 4698 H 444.936 -1.51374 2.5669 0
M  V30 4699 H 442.473 -0.737059 1.27302 0
M  V30 4700 H 444.431 -3.82461 1.66672 0
M  V30 4701 H 443.061 -3.13854 0.754672 0
M  V30 4702 H 442.113 -2.30462 3.02641 0
M  V30 4703 H 443.425 -3.19357 3.83162 0
M  V30 4704 H 442.579 -5.3446 2.87119 0
M  V30 4705 H 441.318 -4.46504 1.96177 0
M  V30 4706 H 440.323 -3.64519 4.11589 0
M  V30 4707 H 441.548 -4.5581 5.03402 0
M  V30 4708 H 439.494 -5.76017 3.13912 0
M  V30 4709 H 439.411 -5.78234 4.87013 0
M  V30 4710 H 440.679 -6.65367 4.06087 0
M  V30 4711 N 444.908 -1.36708 -0.784132 0
M  V30 4712 C 446.157 -1.30559 -1.53744 0
M  V30 4713 C 446.47 0.111374 -1.95283 0
M  V30 4714 O 447.676 0.29527 -2.6989 0
M  V30 4715 C 446.132 -2.29098 -2.77565 0
M  V30 4716 C 445.74 -3.76258 -2.43174 0
M  V30 4717 C 447.484 -2.31936 -3.55536 0
M  V30 4718 C 445.391 -4.6656 -3.63422 0
M  V30 4719 H 444.321 -0.48518 -0.577162 0
M  V30 4720 H 446.972 -1.62101 -0.859981 0
M  V30 4721 H 445.354 -1.90557 -3.47137 0
M  V30 4722 H 446.528 -4.23565 -1.81465 0
M  V30 4723 H 444.843 -3.76246 -1.78403 0
M  V30 4724 H 447.44 -2.9661 -4.44889 0
M  V30 4725 H 447.783 -1.3294 -3.94503 0
M  V30 4726 H 448.316 -2.6912 -2.92949 0
M  V30 4727 H 445.055 -5.66638 -3.29547 0
M  V30 4728 H 444.575 -4.23966 -4.24279 0
M  V30 4729 H 446.254 -4.8309 -4.30387 0
M  V30 4730 N 446.386 1.0089 -1.21074 0
M  V30 4731 C 447.316 2.1145 -0.990523 0
M  V30 4732 C 448.297 1.69897 0.0831699 0
M  V30 4733 O 449.482 1.94052 -0.0758853 0
M  V30 4734 C 446.612 3.42914 -0.550177 0
M  V30 4735 C 445.566 3.98244 -1.56799 0
M  V30 4736 C 444.892 5.25568 -0.984013 0
M  V30 4737 C 446.192 4.30752 -2.95381 0
M  V30 4738 H 447.886 2.3013 -1.91521 0
M  V30 4739 H 445.432 1.10592 -0.92225 0
M  V30 4740 H 447.385 4.19653 -0.383305 0
M  V30 4741 H 446.109 3.24014 0.41015 0
M  V30 4742 H 444.768 3.23621 -1.72236 0
M  V30 4743 H 444.416 5.02998 -0.0155216 0
M  V30 4744 H 444.116 5.63551 -1.66384 0
M  V30 4745 H 445.64 6.04955 -0.828378 0
M  V30 4746 H 447.054 4.98349 -2.8341 0
M  V30 4747 H 445.451 4.79869 -3.60341 0
M  V30 4748 H 446.521 3.39192 -3.46521 0
M  V30 4749 N 447.864 1.01787 1.20321 0
M  V30 4750 C 449.112 0.706538 1.89347 0
M  V30 4751 C 449.433 -0.766289 1.79313 0
M  V30 4752 O 448.703 -1.55126 1.19635 0
M  V30 4753 H 447.283 0.258348 0.700903 0
M  V30 4754 H 449.945 1.28974 1.46122 0
M  V30 4755 H 449.041 0.991066 2.95946 0
M  V30 4756 N 449.342 -1.36122 0.79427 0
M  V30 4757 C 450.591 -1.98361 0.365464 0
M  V30 4758 C 450.904 -1.6374 -1.06997 0
M  V30 4759 O 452.11 -2.19251 -1.60129 0
M  V30 4760 C 450.566 -3.54821 0.602496 0
M  V30 4761 C 450.174 -3.98362 2.04967 0
M  V30 4762 C 451.918 -4.2383 0.238437 0
M  V30 4763 C 449.825 -5.47619 2.2331 0
M  V30 4764 H 448.755 -0.742193 0.13291 0
M  V30 4765 H 451.406 -1.55354 0.976589 0
M  V30 4766 H 449.788 -3.95922 -0.078409 0
M  V30 4767 H 450.962 -3.68447 2.76737 0
M  V30 4768 H 449.277 -3.42206 2.37243 0
M  V30 4769 H 451.874 -5.33529 0.353705 0
M  V30 4770 H 452.217 -4.08264 -0.814006 0
M  V30 4771 H 452.75 -3.88108 0.872769 0
M  V30 4772 H 449.489 -5.68138 3.26955 0
M  V30 4773 H 449.009 -5.79145 1.5605 0
M  V30 4774 H 450.688 -6.13911 2.0426 0
M  V30 4775 N 450.82 -0.546701 -1.47814 0
M  V30 4776 C 452.069 -0.0166497 -2.01693 0
M  V30 4777 C 452.382 1.33721 -1.42752 0
M  V30 4778 O 453.588 1.95658 -1.8823 0
M  V30 4779 C 452.044 0.0206769 -3.59894 0
M  V30 4780 C 451.652 -1.3293 -4.27824 0
M  V30 4781 C 453.396 0.498674 -4.21561 0
M  V30 4782 C 451.303 -1.25165 -5.78003 0
M  V30 4783 H 450.233 -0.0024541 -0.753996 0
M  V30 4784 H 452.884 -0.692984 -1.69912 0
M  V30 4785 H 451.266 0.76244 -3.88591 0
M  V30 4786 H 452.44 -2.08795 -4.10781 0
M  V30 4787 H 450.755 -1.74438 -3.78101 0
M  V30 4788 H 453.352 0.575 -5.31599 0
M  V30 4789 H 453.695 1.5083 -3.88016 0
M  V30 4790 H 454.228 -0.18791 -3.97356 0
M  V30 4791 H 450.967 -2.23695 -6.1615 0
M  V30 4792 H 450.487 -0.53464 -5.97412 0
M  V30 4793 H 452.166 -0.949299 -6.39998 0
M  V30 4794 N 452.299 1.55045 -0.282633 0
M  V30 4795 C 453.229 2.2579 0.595066 0
M  V30 4796 C 454.21 1.25074 1.15284 0
M  V30 4797 O 455.395 1.5381 1.18559 0
M  V30 4798 C 452.525 2.98472 1.77572 0
M  V30 4799 C 451.479 4.0618 1.34914 0
M  V30 4800 C 450.805 4.66477 2.6135 0
M  V30 4801 C 452.105 5.1996 0.493821 0
M  V30 4802 H 453.799 2.994 0.00505653 0
M  V30 4803 H 451.345 1.44 0.000992001 0
M  V30 4804 H 453.298 3.46677 2.39568 0
M  V30 4805 H 452.022 2.2241 2.39168 0
M  V30 4806 H 450.681 3.58797 0.752338 0
M  V30 4807 H 450.329 3.87074 3.2122 0
M  V30 4808 H 450.029 5.39207 2.33516 0
M  V30 4809 H 451.553 5.17435 3.24181 0
M  V30 4810 H 452.967 5.64172 1.01898 0
M  V30 4811 H 451.364 5.99299 0.310047 0
M  V30 4812 H 452.434 4.82462 -0.485593 0
M  V30 4813 N 453.777 0.010035 1.57597 0
M  V30 4814 C 455.025 -0.671371 1.90623 0
M  V30 4815 C 455.346 -1.73753 0.885151 0
M  V30 4816 O 454.616 -1.95752 -0.0760611 0
M  V30 4817 H 453.196 -0.250968 0.703579 0
M  V30 4818 H 455.858 0.0533325 1.94827 0
M  V30 4819 H 454.954 -1.13626 2.90681 0
M  V30 4820 N 455.255 -1.55392 -0.262866 0
M  V30 4821 C 456.218 -1.88181 -1.30846 0
M  V30 4822 C 457.218 -0.757079 -1.41862 0
M  V30 4823 O 458.408 -1.02519 -1.40838 0
M  V30 4824 C 455.54 -2.09609 -2.68844 0
M  V30 4825 H 456.733 -2.81659 -1.02997 0
M  V30 4826 H 454.286 -1.48039 -0.501414 0
M  V30 4827 H 455.021 -1.18547 -3.01856 0
M  V30 4828 H 454.806 -2.91508 -2.62231 0
M  V30 4829 H 456.296 -2.36215 -3.44372 0
M  V30 4830 N 456.733 0.527833 -1.48498 0
M  V30 4831 C 457.98 1.28354 -1.56625 0
M  V30 4832 C 458.308 1.93 -0.241096 0
M  V30 4833 O 457.563 1.79967 0.768798 0
M  V30 4834 C 457.862 2.39275 -2.65485 0
M  V30 4835 C 457.528 1.92268 -4.07853 0
M  V30 4836 C 456.19 1.79166 -4.46602 0
M  V30 4837 C 458.542 1.56771 -4.97064 0
M  V30 4838 C 455.87 1.28905 -5.72364 0
M  V30 4839 C 458.222 1.07972 -6.23318 0
M  V30 4840 C 456.886 0.934887 -6.60921 0
M  V30 4841 H 456.156 0.469682 -0.573131 0
M  V30 4842 H 458.803 0.588781 -1.82224 0
M  V30 4843 H 457.108 3.1443 -2.33754 0
M  V30 4844 H 458.805 2.974 -2.68988 0
M  V30 4845 H 455.395 2.03417 -3.77252 0
M  V30 4846 H 459.579 1.65753 -4.67803 0
M  V30 4847 H 454.835 1.16381 -6.00221 0
M  V30 4848 H 459.009 0.795775 -6.91838 0
M  V30 4849 H 456.636 0.543231 -7.58257 0
M  V30 4850 N 458.211 1.37122 0.776871 0
M  V30 4851 C 459.46 1.31373 1.53049 0
M  V30 4852 C 459.773 -0.101016 1.95339 0
M  V30 4853 O 460.979 -0.280953 2.70042 0
M  V30 4854 C 459.435 2.30567 2.76346 0
M  V30 4855 C 459.043 3.77543 2.41175 0
M  V30 4856 C 460.787 2.33818 3.54301 0
M  V30 4857 C 458.694 4.68481 3.60943 0
M  V30 4858 H 457.624 0.488234 0.574581 0
M  V30 4859 H 460.275 1.62554 0.851372 0
M  V30 4860 H 458.657 1.92396 3.46121 0
M  V30 4861 H 459.831 4.24521 1.79216 0
M  V30 4862 H 458.146 3.77187 1.76405 0
M  V30 4863 H 460.743 2.98965 4.4331 0
M  V30 4864 H 461.086 1.3503 3.93793 0
M  V30 4865 H 461.619 2.7067 2.91518 0
M  V30 4866 H 458.358 5.68378 3.26537 0
M  V30 4867 H 457.878 4.2621 4.22025 0
M  V30 4868 H 459.557 4.85366 4.27819 0
M  V30 4869 N 459.689 -1.00246 1.21608 0
M  V30 4870 C 460.938 -1.73476 1.02902 0
M  V30 4871 C 461.251 -1.90643 -0.437561 0
M  V30 4872 O 462.457 -2.61105 -0.74407 0
M  V30 4873 C 460.913 -3.12079 1.79261 0
M  V30 4874 C 460.521 -3.02877 3.30106 0
M  V30 4875 C 462.265 -3.89421 1.68972 0
M  V30 4876 C 460.172 -4.36575 3.98944 0
M  V30 4877 H 459.102 -0.650408 0.381425 0
M  V30 4878 H 461.753 -1.11985 1.45367 0
M  V30 4879 H 460.135 -3.74196 1.2959 0
M  V30 4880 H 461.309 -2.49983 3.87098 0
M  V30 4881 H 459.624 -2.39022 3.40965 0
M  V30 4882 H 462.221 -4.88362 2.17731 0
M  V30 4883 H 462.564 -4.1122 0.648397 0
M  V30 4884 H 463.097 -3.33963 2.16133 0
M  V30 4885 H 459.836 -4.19978 5.03288 0
M  V30 4886 H 459.356 -4.8942 3.4674 0
M  V30 4887 H 461.035 -5.05364 4.04 0
M  V30 4888 N 461.167 -1.02423 -1.1978 0
M  V30 4889 C 462.407 -0.726635 -1.91048 0
M  V30 4890 C 462.771 0.730947 -1.77542 0
M  V30 4891 O 463.972 1.14141 -2.43362 0
M  V30 4892 C 462.243 -1.15964 -3.38064 0
M  V30 4893 S 463.802 -0.985172 -4.27598 0
M  V30 4894 H 460.62 -0.264679 -0.659899 0
M  V30 4895 H 463.222 -1.31309 -1.44838 0
M  V30 4896 H 461.926 -2.21619 -3.45417 0
M  V30 4897 H 461.457 -0.566274 -3.89303 0
M  V30 4898 H 463.472 0.106946 -4.96085 0
M  V30 4899 N 462.645 1.35699 -0.801477 0
M  V30 4900 C 463.891 1.99643 -0.389135 0
M  V30 4901 C 464.246 1.62447 1.03095 0
M  V30 4902 O 463.539 0.875064 1.7045 0
M  V30 4903 C 463.733 3.53828 -0.504041 0
M  V30 4904 C 463.562 4.06 -1.93375 0
M  V30 4905 C 462.332 4.35592 -2.561 0
M  V30 4906 C 464.53 4.24905 -2.89759 0
M  V30 4907 N 462.512 4.73663 -3.90534 0
M  V30 4908 C 463.883 4.65914 -4.09052 0
M  V30 4909 C 465.938 4.07101 -2.86658 0
M  V30 4910 C 464.641 4.90984 -5.25669 0
M  V30 4911 C 466.667 4.33324 -4.02472 0
M  V30 4912 C 466.029 4.74601 -5.20512 0
M  V30 4913 H 462.128 0.758552 -0.19006 0
M  V30 4914 H 464.712 1.64493 -1.04164 0
M  V30 4915 H 462.883 3.88219 0.118437 0
M  V30 4916 H 464.615 4.04645 -0.0667794 0
M  V30 4917 H 461.37 4.25728 -2.07492 0
M  V30 4918 H 461.794 4.96965 -4.59734 0
M  V30 4919 H 466.436 3.74335 -1.96552 0
M  V30 4920 H 464.154 5.22626 -6.1635 0
M  V30 4921 H 467.74 4.21107 -4.01447 0
M  V30 4922 H 466.62 4.94497 -6.08639 0
M  V30 4923 N 464.123 0.554532 1.47522 0
M  V30 4924 C 465.053 -0.182974 2.32782 0
M  V30 4925 C 466.034 -0.911377 1.43624 0
M  V30 4926 O 467.219 -0.892366 1.72483 0
M  V30 4927 C 464.349 -1.21513 3.25349 0
M  V30 4928 C 463.303 -0.603355 4.23726 0
M  V30 4929 C 462.629 -1.73995 5.05598 0
M  V30 4930 C 463.929 0.441121 5.20434 0
M  V30 4931 H 465.623 0.52882 2.94693 0
M  V30 4932 H 463.169 0.255759 1.41711 0
M  V30 4933 H 465.122 -1.73922 3.83835 0
M  V30 4934 H 463.846 -1.95683 2.61487 0
M  V30 4935 H 462.505 -0.10059 3.66462 0
M  V30 4936 H 462.153 -2.47063 4.38143 0
M  V30 4937 H 461.853 -1.3364 5.72201 0
M  V30 4938 H 463.377 -2.26735 5.66942 0
M  V30 4939 H 464.791 0.00319931 5.733 0
M  V30 4940 H 463.188 0.763402 5.95224 0
M  V30 4941 H 464.258 1.33799 4.66075 0
M  V30 4942 N 465.601 -1.54893 0.290851 0
M  V30 4943 C 467.012 -1.85584 -0.203816 0
M  V30 4944 C 467.363 -1.21285 -1.54222 0
M  V30 4945 O 466.488 -0.506841 -2.10381 0
M  V30 4946 C 467.083 -3.367 -0.376595 0
M  V30 4947 C 465.642 -3.6746 -0.815485 0
M  V30 4948 C 464.789 -2.77178 0.0821087 0
M  V30 4949 H 467.74 -1.50208 0.512175 0
M  V30 4950 H 467.761 -3.60656 -1.21275 0
M  V30 4951 H 467.273 -3.8347 0.59767 0
M  V30 4952 H 465.374 -3.26201 -1.80066 0
M  V30 4953 H 465.487 -4.7478 -0.641905 0
M  V30 4954 H 463.851 -2.50925 -0.436895 0
M  V30 4955 H 464.634 -3.26767 1.05254 0
M  V30 4956 N 467.08 -0.0183926 -1.57589 0
M  V30 4957 C 468.327 0.662562 -1.91354 0
M  V30 4958 C 468.655 1.72747 -0.893788 0
M  V30 4959 O 467.91 1.9545 0.0988509 0
M  V30 4960 C 468.209 1.32676 -3.31861 0
M  V30 4961 C 467.875 0.393267 -4.49182 0
M  V30 4962 C 466.537 0.136302 -4.81007 0
M  V30 4963 C 468.889 -0.248366 -5.20608 0
M  V30 4964 C 466.217 -0.770282 -5.81621 0
M  V30 4965 C 468.569 -1.14294 -6.22189 0
M  V30 4966 C 467.233 -1.4089 -6.52462 0
M  V30 4967 H 466.503 0.242448 -0.700214 0
M  V30 4968 H 469.15 -0.0778629 -1.91342 0
M  V30 4969 H 467.455 2.14168 -3.28084 0
M  V30 4970 H 469.152 1.86001 -3.55253 0
M  V30 4971 H 465.742 0.603723 -4.24327 0
M  V30 4972 H 469.926 -0.062883 -4.9626 0
M  V30 4973 H 465.182 -0.984154 -6.03427 0
M  V30 4974 H 469.356 -1.64637 -6.76659 0
M  V30 4975 H 466.983 -2.11306 -7.30242 0
M  V30 4976 N 468.558 1.5553 0.254621 0
M  V30 4977 C 469.805 1.77 0.983736 0
M  V30 4978 C 470.133 0.58133 1.85609 0
M  V30 4979 O 469.388 -0.435621 1.9079 0
M  V30 4980 C 469.687 3.03891 1.88109 0
M  V30 4981 C 469.353 4.35597 1.16472 0
M  V30 4982 C 468.015 4.7139 0.966714 0
M  V30 4983 C 470.367 5.1705 0.656387 0
M  V30 4984 C 467.695 5.86176 0.247942 0
M  V30 4985 C 470.047 6.32581 -0.0488807 0
M  V30 4986 C 468.711 6.67 -0.258438 0
M  V30 4987 H 467.981 0.647688 0.359974 0
M  V30 4988 H 470.628 1.89802 0.254463 0
M  V30 4989 H 468.933 2.86068 2.67717 0
M  V30 4990 H 470.63 3.17701 2.44677 0
M  V30 4991 H 467.22 4.07475 1.32899 0
M  V30 4992 H 471.404 4.8986 0.796933 0
M  V30 4993 H 466.66 6.11354 0.075035 0
M  V30 4994 H 470.834 6.94942 -0.450444 0
M  V30 4995 H 468.461 7.55793 -0.817358 0
M  V30 4996 N 470.036 -0.519951 1.48776 0
M  V30 4997 C 471.282 -1.27711 1.57536 0
M  V30 4998 C 471.615 -1.92547 0.252866 0
M  V30 4999 O 470.89 -1.7979 -0.742021 0
M  V30 5000 C 471.173 -2.35875 2.72094 0
M  V30 5001 C 471.026 -1.75664 4.1408 0
M  V30 5002 C 472.345 -3.37575 2.82367 0
M  V30 5003 H 469.464 -0.462971 0.573434 0
M  V30 5004 H 472.106 -0.578194 1.80989 0
M  V30 5005 H 470.256 -2.95488 2.52228 0
M  V30 5006 H 471.928 -1.20025 4.45412 0
M  V30 5007 H 470.171 -1.06154 4.20611 0
M  V30 5008 H 470.842 -2.54029 4.90075 0
M  V30 5009 H 473.318 -2.87929 3.00393 0
M  V30 5010 H 472.194 -4.1064 3.64233 0
M  V30 5011 H 472.455 -3.98743 1.90936 0
M  V30 5012 N 471.514 -1.37532 -0.769588 0
M  V30 5013 C 472.76 -1.33057 -1.53048 0
M  V30 5014 C 473.093 0.0841865 -1.94017 0
M  V30 5015 O 472.368 1.04198 -1.64235 0
M  V30 5016 C 472.651 -2.27166 -2.79406 0
M  V30 5017 C 472.504 -3.77429 -2.44677 0
M  V30 5018 C 473.823 -2.19683 -3.81349 0
M  V30 5019 H 470.942 -0.484655 -0.555228 0
M  V30 5020 H 473.584 -1.68251 -0.882702 0
M  V30 5021 H 471.734 -1.97283 -3.34682 0
M  V30 5022 H 473.406 -4.17918 -1.953 0
M  V30 5023 H 471.649 -3.95892 -1.77346 0
M  V30 5024 H 472.32 -4.38716 -3.35011 0
M  V30 5025 H 474.796 -2.46029 -3.35573 0
M  V30 5026 H 473.672 -2.87668 -4.67481 0
M  V30 5027 H 473.933 -1.19045 -4.25771 0
M  V30 5028 N 472.992 0.995999 -1.22138 0
M  V30 5029 C 474.217 1.77601 -1.0711 0
M  V30 5030 C 474.642 1.84339 0.374264 0
M  V30 5031 O 474 1.29359 1.27028 0
M  V30 5032 C 474.048 3.18897 -1.68336 0
M  V30 5033 O 473.152 4.01663 -0.934928 0
M  V30 5034 H 472.493 0.547011 -0.376397 0
M  V30 5035 H 475.023 1.25137 -1.6187 0
M  V30 5036 H 475.033 3.69539 -1.72931 0
M  V30 5037 H 473.708 3.13308 -2.73516 0
M  V30 5038 H 472.285 3.60204 -0.964751 0
M  V30 5039 N 474.47 1.03057 1.19235 0
M  V30 5040 C 475.4 0.633497 2.24742 0
M  V30 5041 C 476.381 -0.358335 1.66283 0
M  V30 5042 O 477.566 -0.240676 1.92703 0
M  V30 5043 C 474.696 -0.0147648 3.47297 0
M  V30 5044 C 473.65 0.899527 4.18441 0
M  V30 5045 C 472.976 0.116281 5.34574 0
M  V30 5046 C 474.276 2.21404 4.73051 0
M  V30 5047 H 475.97 1.5155 2.58211 0
M  V30 5048 H 473.516 0.73014 1.24117 0
M  V30 5049 H 475.469 -0.304202 4.20301 0
M  V30 5050 H 474.193 -0.931577 3.13032 0
M  V30 5051 H 472.852 1.17319 3.47321 0
M  V30 5052 H 472.5 -0.802619 4.96555 0
M  V30 5053 H 472.2 0.725293 5.83107 0
M  V30 5054 H 473.724 -0.166376 6.10373 0
M  V30 5055 H 475.138 1.98601 5.37802 0
M  V30 5056 H 473.535 2.77512 5.32078 0
M  V30 5057 H 474.605 2.86752 3.91026 0
M  V30 5058 N 475.948 -1.35272 0.808662 0
M  V30 5059 C 477.194 -1.99003 0.390581 0
M  V30 5060 C 477.527 -1.63999 -1.0401 0
M  V30 5061 O 476.802 -0.904368 -1.72196 0
M  V30 5062 C 477.085 -3.55454 0.576566 0
M  V30 5063 C 476.938 -4.00249 2.05233 0
M  V30 5064 C 478.257 -4.401 0.00354277 0
M  V30 5065 H 475.376 -0.722917 0.143388 0
M  V30 5066 H 478.018 -1.6039 1.01858 0
M  V30 5067 H 476.168 -3.88477 0.0419766 0
M  V30 5068 H 477.84 -3.77626 2.64946 0
M  V30 5069 H 476.083 -3.51082 2.54801 0
M  V30 5070 H 476.754 -5.0911 2.13333 0
M  V30 5071 H 479.23 -4.13548 0.460117 0
M  V30 5072 H 478.106 -5.48656 0.163575 0
M  V30 5073 H 478.367 -4.28444 -1.09032 0
M  V30 5074 N 477.426 -0.562348 -1.47226 0
M  V30 5075 C 478.356 0.170627 -2.32876 0
M  V30 5076 C 479.337 0.903748 -1.44106 0
M  V30 5077 O 480.522 0.883206 -1.72954 0
M  V30 5078 C 477.652 1.19786 -3.25989 0
M  V30 5079 C 476.606 0.580875 -4.2404 0
M  V30 5080 C 475.932 1.71311 -5.06514 0
M  V30 5081 C 477.232 -0.468714 -5.20193 0
M  V30 5082 H 478.926 -0.544441 -2.94408 0
M  V30 5083 H 476.472 -0.263271 -1.41573 0
M  V30 5084 H 478.425 1.71884 -3.84752 0
M  V30 5085 H 477.149 1.94294 -2.62521 0
M  V30 5086 H 475.808 0.0811538 -3.6651 0
M  V30 5087 H 475.456 2.44736 -4.39447 0
M  V30 5088 H 475.156 1.30604 -5.72902 0
M  V30 5089 H 476.68 2.23725 -5.68137 0
M  V30 5090 H 478.094 -0.0336028 -5.7329 0
M  V30 5091 H 476.491 -0.794957 -5.94811 0
M  V30 5092 H 477.561 -1.36269 -4.65359 0
M  V30 5093 N 478.904 1.54736 -0.299062 0
M  V30 5094 C 480.315 1.8569 0.193971 0
M  V30 5095 C 480.666 1.22101 1.53577 0
M  V30 5096 O 479.791 0.51799 2.10109 0
M  V30 5097 C 480.386 3.36895 0.358733 0
M  V30 5098 C 478.945 3.67887 0.795986 0
M  V30 5099 C 478.092 2.77131 -0.096807 0
M  V30 5100 H 481.043 1.49934 -0.520134 0
M  V30 5101 H 481.064 3.61294 1.19361 0
M  V30 5102 H 480.576 3.83148 -0.617998 0
M  V30 5103 H 478.677 3.27151 1.78334 0
M  V30 5104 H 478.79 4.75114 0.616718 0
M  V30 5105 H 477.154 2.51153 0.423581 0
M  V30 5106 H 477.937 3.26204 -1.06986 0
M  V30 5107 N 480.382 0.0267497 1.57577 0
M  V30 5108 C 481.631 -0.651736 1.9088 0
M  V30 5109 C 481.944 -1.73427 0.904576 0
M  V30 5110 O 483.15 -2.46923 1.12877 0
M  V30 5111 C 481.606 -1.21048 3.38933 0
M  V30 5112 C 481.214 -0.161362 4.47709 0
M  V30 5113 C 482.958 -1.86562 3.81307 0
M  V30 5114 C 480.865 -0.731611 5.86857 0
M  V30 5115 H 479.795 -0.247198 0.712326 0
M  V30 5116 H 482.446 0.0916641 1.83271 0
M  V30 5117 H 480.828 -2.00542 3.41466 0
M  V30 5118 H 482.002 0.61094 4.56732 0
M  V30 5119 H 480.317 0.394877 4.14523 0
M  V30 5120 H 482.914 -2.30178 4.8262 0
M  V30 5121 H 483.257 -2.70735 3.16241 0
M  V30 5122 H 483.79 -1.13762 3.81186 0
M  V30 5123 H 480.529 0.0719329 6.55461 0
M  V30 5124 H 480.049 -1.47245 5.81445 0
M  V30 5125 H 481.728 -1.22208 6.35354 0
M  V30 5126 N 481.861 -1.55662 -0.24637 0
M  V30 5127 C 483.101 -1.79283 -0.981685 0
M  V30 5128 C 483.465 -0.596356 -1.82504 0
M  V30 5129 O 484.666 -0.711342 -2.59217 0
M  V30 5130 C 482.937 -3.07648 -1.819 0
M  V30 5131 S 484.496 -3.52491 -2.61334 0
M  V30 5132 H 481.314 -0.629676 -0.330196 0
M  V30 5133 H 483.916 -1.93901 -0.249498 0
M  V30 5134 H 482.62 -3.92794 -1.18915 0
M  V30 5135 H 482.151 -2.95768 -2.59393 0
M  V30 5136 H 484.166 -3.13866 -3.84321 0
M  V30 5137 N 483.339 0.512053 -1.4905 0
M  V30 5138 C 484.755 0.84224 -1.35567 0
M  V30 5139 C 484.955 1.97878 -0.380319 0
M  V30 5140 O 484.011 2.51769 0.19201 0
M  V30 5141 C 485.324 1.19286 -2.76028 0
M  V30 5142 C 486.872 1.30171 -2.84648 0
M  V30 5143 C 487.347 1.68568 -4.25851 0
M  V30 5144 N 488.838 1.75638 -4.28609 0
M  V30 5145 C 489.573 2.06769 -5.34821 0
M  V30 5146 N 489.069 2.36201 -6.51292 0
M  V30 5147 N 490.862 2.07927 -5.22229 0
M  V30 5148 H 483.013 -0.237574 -2.11067 0
M  V30 5149 H 485.276 -0.0436747 -0.946993 0
M  V30 5150 H 484.982 0.431199 -3.49047 0
M  V30 5151 H 484.856 2.13889 -3.10695 0
M  V30 5152 H 487.243 2.05411 -2.11873 0
M  V30 5153 H 487.324 0.336457 -2.53578 0
M  V30 5154 H 486.968 0.938824 -4.99148 0
M  V30 5155 H 486.898 2.66174 -4.54377 0
M  V30 5156 H 489.389 1.55097 -3.44606 0
M  V30 5157 H 489.702 2.59112 -7.28066 0
M  V30 5158 H 488.047 2.33681 -6.54536 0
M  V30 5159 H 491.238 1.84403 -4.30248 0
M  V30 5160 H 491.411 2.31856 -6.05101 0
M  V30 5161 N 484.817 1.37938 0.762283 0
M  V30 5162 C 486.094 1.24196 1.51112 0
M  V30 5163 C 486.474 -0.160409 2.1049 0
M  V30 5164 O 485.822 -1.16904 1.96331 0
M  V30 5165 C 486.032 2.34537 2.58445 0
M  V30 5166 C 487.38 2.7254 3.25588 0
M  V30 5167 O 488.404 2.33783 2.68745 0
M  V30 5168 O 487.263 3.39343 4.28379 0
M  V30 5169 H 484.357 0.485175 0.669727 0
M  V30 5170 H 486.903 1.49743 0.798438 0
M  V30 5171 H 485.675 3.28406 2.12756 0
M  V30 5172 H 485.298 2.10505 3.37303 0
M  V30 5173 N 486.295 -0.989507 1.22664 0
M  V30 5174 C 487.52 -1.77031 1.08051 0
M  V30 5175 C 487.945 -1.84535 -0.364483 0
M  V30 5176 O 487.303 -1.3003 -1.2634 0
M  V30 5177 C 487.351 -3.18 1.70024 0
M  V30 5178 O 486.455 -4.01161 0.956216 0
M  V30 5179 H 485.796 -0.545008 0.379292 0
M  V30 5180 H 488.326 -1.24277 1.62531 0
M  V30 5181 H 488.336 -3.68616 1.74888 0
M  V30 5182 H 487.011 -3.11853 2.75174 0
M  V30 5183 H 485.588 -3.59687 0.98384 0
M  V30 5184 N 487.773 -1.03688 -1.18687 0
M  V30 5185 C 489.013 -0.746858 -1.90267 0
M  V30 5186 C 489.377 0.712075 -1.78307 0
M  V30 5187 O 490.578 1.11553 -2.44559 0
M  V30 5188 C 488.849 -1.19543 -3.36815 0
M  V30 5189 S 490.408 -1.03047 -4.26529 0
M  V30 5190 H 487.226 -0.271663 -0.657054 0
M  V30 5191 H 489.828 -1.32838 -1.43437 0
M  V30 5192 H 488.532 -2.2527 -3.43047 0
M  V30 5193 H 488.063 -0.607533 -3.88681 0
M  V30 5194 H 490.078 0.0543232 -4.9617 0
M  V30 5195 N 489.251 1.34841 -0.815825 0
M  V30 5196 C 490.497 1.99219 -0.410288 0
M  V30 5197 C 490.852 1.63532 1.01366 0
M  V30 5198 O 490.145 0.893093 1.69512 0
M  V30 5199 C 490.339 3.53273 -0.541541 0
M  V30 5200 C 490.168 4.03927 -1.9767 0
M  V30 5201 C 488.938 4.32852 -2.60706 0
M  V30 5202 C 491.136 4.21808 -2.9425 0
M  V30 5203 N 489.118 4.69494 -3.95536 0
M  V30 5204 C 490.489 4.6155 -4.13971 0
M  V30 5205 C 492.544 4.04038 -2.9096 0
M  V30 5206 C 491.247 4.85381 -5.30847 0
M  V30 5207 C 493.273 4.29031 -4.07046 0
M  V30 5208 C 492.635 4.69054 -5.25517 0
M  V30 5209 H 488.734 0.756494 -0.198094 0
M  V30 5210 H 491.318 1.63379 -1.05902 0
M  V30 5211 H 489.489 3.88323 0.0772544 0
M  V30 5212 H 491.221 4.04551 -0.109694 0
M  V30 5213 H 487.976 4.23503 -2.11995 0
M  V30 5214 H 488.4 4.92061 -4.64979 0
M  V30 5215 H 493.042 3.7223 -2.00512 0
M  V30 5216 H 490.76 5.16059 -6.21859 0
M  V30 5217 H 494.346 4.16826 -4.05891 0
M  V30 5218 H 493.226 4.88014 -6.1385 0
M  V30 5219 N 490.729 0.570148 1.46925 0
M  V30 5220 C 491.978 0.0487352 2.01641 0
M  V30 5221 C 492.291 -1.31433 1.44861 0
M  V30 5222 O 493.497 -1.92638 1.91318 0
M  V30 5223 C 491.953 0.0365817 3.59881 0
M  V30 5224 C 491.561 1.39719 4.25655 0
M  V30 5225 C 493.305 -0.431545 4.22301 0
M  V30 5226 C 491.212 1.34345 5.75939 0
M  V30 5227 H 490.142 0.0144492 0.753862 0
M  V30 5228 H 492.793 0.719928 1.68788 0
M  V30 5229 H 491.175 -0.700522 3.89755 0
M  V30 5230 H 492.349 2.15303 4.07408 0
M  V30 5231 H 490.664 1.80431 3.75278 0
M  V30 5232 H 493.261 -0.490354 5.32447 0
M  V30 5233 H 493.604 -1.44638 3.90366 0
M  V30 5234 H 494.137 0.251102 3.97007 0
M  V30 5235 H 490.876 2.33469 6.12513 0
M  V30 5236 H 490.396 0.629615 5.96486 0
M  V30 5237 H 492.075 1.051 6.38407 0
M  V30 5238 N 492.207 -1.54576 0.307264 0
M  V30 5239 C 493.157 -2.20467 -0.581249 0
M  V30 5240 C 494.141 -1.17972 -1.09414 0
M  V30 5241 O 495.333 -1.43667 -1.03387 0
M  V30 5242 C 492.462 -2.95369 -1.74963 0
M  V30 5243 C 491.548 -4.05186 -1.25241 0
M  V30 5244 N 491.939 -5.03577 -0.47364 0
M  V30 5245 C 490.237 -4.18841 -1.53259 0
M  V30 5246 C 490.938 -5.81328 -0.208083 0
M  V30 5247 N 489.914 -5.37834 -0.789651 0
M  V30 5248 H 493.716 -2.93892 0.0212221 0
M  V30 5249 H 491.23 -1.62011 0.112325 0
M  V30 5250 H 493.227 -3.41046 -2.39777 0
M  V30 5251 H 491.887 -2.23461 -2.35574 0
M  V30 5252 H 492.898 -5.17766 -0.117963 0
M  V30 5253 H 489.575 -3.58141 -2.14573 0
M  V30 5254 H 490.965 -6.706 0.417793 0
M  V30 5255 N 493.685 -0.035106 -1.57561 0
M  V30 5256 C 495.096 0.502885 -1.798 0
M  V30 5257 C 495.447 1.71892 -0.945921 0
M  V30 5258 O 494.572 2.15822 -0.157991 0
M  V30 5259 C 495.167 0.919097 -3.26095 0
M  V30 5260 C 493.726 1.40216 -3.49308 0
M  V30 5261 C 492.873 0.369709 -2.74824 0
M  V30 5262 H 495.824 -0.261102 -1.56537 0
M  V30 5263 H 495.845 1.78308 -3.36135 0
M  V30 5264 H 495.357 0.0338526 -3.88085 0
M  V30 5265 H 493.458 2.30714 -2.92578 0
M  V30 5266 H 493.571 1.40541 -4.58023 0
M  V30 5267 H 491.935 0.839113 -2.40481 0
M  V30 5268 H 492.718 -0.507173 -3.39533 0
M  V30 5269 N 495.163 1.55791 0.238111 0
M  V30 5270 C 496.126 1.90239 1.27835 0
M  V30 5271 C 497.126 0.779552 1.4064 0
M  V30 5272 O 498.316 1.04747 1.3919 0
M  V30 5273 C 495.448 2.13859 2.65475 0
M  V30 5274 H 496.641 2.83262 0.985034 0
M  V30 5275 H 494.194 1.48818 0.477799 0
M  V30 5276 H 494.929 1.23334 2.99932 0
M  V30 5277 H 494.714 2.95643 2.57561 0
M  V30 5278 H 496.204 2.41664 3.40571 0
M  V30 5279 N 496.642 -0.504142 1.49319 0
M  V30 5280 C 497.572 -1.61473 1.68667 0
M  V30 5281 C 498.553 -1.61455 0.535378 0
M  V30 5282 O 499.738 -1.78245 0.770868 0
M  V30 5283 C 496.868 -2.99971 1.75028 0
M  V30 5284 C 495.822 -3.14854 2.89916 0
M  V30 5285 C 495.148 -4.54671 2.81387 0
M  V30 5286 C 496.448 -2.95176 4.30893 0
M  V30 5287 H 498.142 -1.45535 2.61648 0
M  V30 5288 H 495.688 -0.698711 1.25913 0
M  V30 5289 H 497.641 -3.77562 1.8715 0
M  V30 5290 H 496.365 -3.1699 0.786441 0
M  V30 5291 H 495.024 -2.39687 2.77391 0
M  V30 5292 H 494.672 -4.68562 1.82917 0
M  V30 5293 H 494.372 -4.6557 3.58494 0
M  V30 5294 H 495.896 -5.34327 2.95512 0
M  V30 5295 H 497.31 -3.62538 4.44116 0
M  V30 5296 H 495.707 -3.17549 5.09198 0
M  V30 5297 H 496.777 -1.91332 4.45556 0
M  V30 5298 N 498.12 -1.38341 -0.754957 0
M  V30 5299 C 499.367 -1.34473 -1.51404 0
M  V30 5300 C 499.695 0.0656458 -1.94389 0
M  V30 5301 O 498.95 1.04244 -1.65625 0
M  V30 5302 C 499.249 -2.2452 -2.78075 0
M  V30 5303 C 498.915 -3.72512 -2.54059 0
M  V30 5304 C 497.577 -4.1284 -2.47218 0
M  V30 5305 C 499.929 -4.66197 -2.33044 0
M  V30 5306 C 497.257 -5.44945 -2.17376 0
M  V30 5307 C 499.609 -5.98558 -2.04723 0
M  V30 5308 C 498.273 -6.37972 -1.96337 0
M  V30 5309 H 497.543 -0.492072 -0.554027 0
M  V30 5310 H 500.19 -1.70687 -0.868223 0
M  V30 5311 H 498.495 -1.81357 -3.473 0
M  V30 5312 H 500.192 -2.18832 -3.36026 0
M  V30 5313 H 496.782 -3.40538 -2.60253 0
M  V30 5314 H 500.966 -4.35888 -2.37309 0
M  V30 5315 H 496.222 -5.74426 -2.09391 0
M  V30 5316 H 500.396 -6.70693 -1.87465 0
M  V30 5317 H 498.023 -7.40258 -1.72978 0
M  V30 5318 N 499.598 0.982988 -1.23187 0
M  V30 5319 C 500.875 1.69814 -0.970707 0
M  V30 5320 C 501.255 2.04811 0.511424 0
M  V30 5321 O 500.603 1.73924 1.48198 0
M  V30 5322 C 500.813 2.94143 -1.87831 0
M  V30 5323 C 502.161 3.66712 -2.14026 0
M  V30 5324 O 503.185 3.04171 -1.8536 0
M  V30 5325 O 502.044 4.79258 -2.62629 0
M  V30 5326 H 499.138 0.741659 -0.365884 0
M  V30 5327 H 501.684 1.03844 -1.34218 0
M  V30 5328 H 500.456 2.64858 -2.88038 0
M  V30 5329 H 500.079 3.6785 -1.50905 0
M  V30 5330 N 501.076 1.04316 1.18135 0
M  V30 5331 C 502.323 0.74802 1.88178 0
M  V30 5332 C 502.651 -0.72441 1.80506 0
M  V30 5333 O 501.906 -1.54463 1.20165 0
M  V30 5334 C 502.205 1.16271 3.37958 0
M  V30 5335 C 501.871 2.63585 3.65833 0
M  V30 5336 C 500.533 3.03829 3.73151 0
M  V30 5337 C 502.885 3.58822 3.78016 0
M  V30 5338 C 500.213 4.38194 3.90132 0
M  V30 5339 C 502.565 4.92909 3.96514 0
M  V30 5340 C 501.229 5.3282 4.02068 0
M  V30 5341 H 500.499 0.27372 0.688592 0
M  V30 5342 H 503.146 1.30863 1.39811 0
M  V30 5343 H 501.451 0.520938 3.88321 0
M  V30 5344 H 503.148 0.911672 3.90499 0
M  V30 5345 H 499.738 2.31414 3.60757 0
M  V30 5346 H 503.922 3.28875 3.71692 0
M  V30 5347 H 499.178 4.68631 3.92677 0
M  V30 5348 H 503.352 5.66606 4.04883 0
M  V30 5349 H 500.979 6.36943 4.14979 0
M  V30 5350 N 502.554 -1.34406 0.822964 0
M  V30 5351 C 503.801 -1.98284 0.411057 0
M  V30 5352 C 504.129 -1.65245 -1.02588 0
M  V30 5353 O 503.384 -0.91619 -1.72929 0
M  V30 5354 C 503.683 -3.52981 0.560268 0
M  V30 5355 C 503.349 -4.05931 1.96293 0
M  V30 5356 C 502.011 -4.20103 2.34664 0
M  V30 5357 C 504.363 -4.34412 2.87985 0
M  V30 5358 C 501.691 -4.60082 3.64062 0
M  V30 5359 C 504.043 -4.75838 4.16847 0
M  V30 5360 C 502.707 -4.88215 4.55195 0
M  V30 5361 H 501.977 -0.725573 0.150416 0
M  V30 5362 H 504.624 -1.60349 1.04692 0
M  V30 5363 H 502.929 -3.91477 -0.158982 0
M  V30 5364 H 504.626 -4.00385 0.222087 0
M  V30 5365 H 501.216 -3.95363 1.65487 0
M  V30 5366 H 505.4 -4.23001 2.59584 0
M  V30 5367 H 500.656 -4.67856 3.93599 0
M  V30 5368 H 504.83 -4.96834 4.87984 0
M  V30 5369 H 502.457 -5.18952 5.55512 0
M  V30 5370 N 504.032 -0.577932 -1.46621 0
M  V30 5371 C 505.26 -0.0671642 -2.06791 0
M  V30 5372 C 505.675 1.23571 -1.42743 0
M  V30 5373 O 505.032 1.74602 -0.531062 0
M  V30 5374 C 505.083 0.110357 -3.61332 0
M  V30 5375 O 504.804 -1.14095 -4.22982 0
M  V30 5376 C 506.305 0.656025 -4.38419 0
M  V30 5377 H 503.525 -0.0552732 -0.66872 0
M  V30 5378 H 506.069 -0.797242 -1.8832 0
M  V30 5379 H 504.224 0.790637 -3.79246 0
M  V30 5380 H 504.638 -0.951742 -5.15793 0
M  V30 5381 H 506.112 0.729438 -5.47159 0
M  V30 5382 H 506.589 1.67195 -4.06131 0
M  V30 5383 H 507.195 0.0107692 -4.25299 0
M  V30 5384 N 505.51 1.54411 -0.315457 0
M  V30 5385 C 506.756 2.01425 0.282775 0
M  V30 5386 C 507.111 1.19978 1.5041 0
M  V30 5387 O 506.404 0.271766 1.89663 0
M  V30 5388 C 506.598 3.50936 0.676652 0
M  V30 5389 C 506.427 4.46856 -0.504954 0
M  V30 5390 C 505.197 4.95275 -1.00152 0
M  V30 5391 C 507.395 4.96141 -1.35456 0
M  V30 5392 N 505.377 5.75081 -2.14838 0
M  V30 5393 C 506.748 5.73791 -2.3487 0
M  V30 5394 C 508.803 4.78299 -1.38327 0
M  V30 5395 C 507.506 6.35498 -3.36949 0
M  V30 5396 C 509.532 5.40836 -2.39271 0
M  V30 5397 C 508.894 6.1833 -3.37413 0
M  V30 5398 H 504.993 0.779078 0.0675398 0
M  V30 5399 H 507.577 1.8946 -0.448656 0
M  V30 5400 H 505.748 3.63162 1.37723 0
M  V30 5401 H 507.48 3.84728 1.25566 0
M  V30 5402 H 504.235 4.70107 -0.574123 0
M  V30 5403 H 504.659 6.19664 -2.72665 0
M  V30 5404 H 509.301 4.17956 -0.638196 0
M  V30 5405 H 507.019 6.94967 -4.12367 0
M  V30 5406 H 510.605 5.28952 -2.42284 0
M  V30 5407 H 509.485 6.65861 -4.14244 0
M  V30 5408 N 506.988 0.0434614 1.5754 0
M  V30 5409 C 507.918 -0.931651 2.14109 0
M  V30 5410 C 508.899 -1.32971 1.06079 0
M  V30 5411 O 510.084 -1.40579 1.33982 0
M  V30 5412 C 507.214 -2.20914 2.67982 0
M  V30 5413 C 506.168 -1.95139 3.80926 0
M  V30 5414 C 505.494 -3.29276 4.21285 0
M  V30 5415 C 506.794 -1.27913 5.06395 0
M  V30 5416 H 508.488 -0.460497 2.95837 0
M  V30 5417 H 506.034 -0.220058 1.42309 0
M  V30 5418 H 507.987 -2.89522 3.06194 0
M  V30 5419 H 506.711 -2.70221 1.83434 0
M  V30 5420 H 505.37 -1.28945 3.43175 0
M  V30 5421 H 505.018 -3.76369 3.33699 0
M  V30 5422 H 504.718 -3.12831 4.97404 0
M  V30 5423 H 506.242 -3.99129 4.62091 0
M  V30 5424 H 507.656 -1.86544 5.42102 0
M  V30 5425 H 506.053 -1.2182 5.87605 0
M  V30 5426 H 507.123 -0.254066 4.84234 0
M  V30 5427 N 508.466 -1.55915 -0.229846 0
M  V30 5428 C 509.714 -1.7819 -0.953565 0
M  V30 5429 C 510.035 -0.610504 -1.85197 0
M  V30 5430 O 509.305 0.372988 -1.92316 0
M  V30 5431 H 507.885 -0.657208 -0.355087 0
M  V30 5432 H 510.547 -1.9337 -0.243693 0
M  V30 5433 H 509.643 -2.70011 -1.56527 0
M  V30 5434 N 509.944 0.496216 -1.49584 0
M  V30 5435 C 511.174 1.27209 -1.62793 0
M  V30 5436 C 511.582 1.86799 -0.300476 0
M  V30 5437 O 510.925 1.68802 0.724674 0
M  V30 5438 C 510.987 2.43812 -2.64189 0
M  V30 5439 C 510.651 2.05055 -4.08414 0
M  V30 5440 C 511.648 1.58752 -4.9507 0
M  V30 5441 C 509.333 2.14543 -4.54177 0
M  V30 5442 C 511.327 1.22448 -6.25528 0
M  V30 5443 C 509.014 1.77851 -5.84647 0
M  V30 5444 C 510.012 1.31878 -6.70147 0
M  V30 5445 O 509.7 0.956834 -7.98185 0
M  V30 5446 H 509.432 0.391848 -0.550846 0
M  V30 5447 H 511.986 0.601712 -1.96389 0
M  V30 5448 H 510.216 3.13941 -2.25783 0
M  V30 5449 H 511.905 3.05829 -2.66877 0
M  V30 5450 H 512.671 1.50863 -4.60939 0
M  V30 5451 H 508.55 2.49277 -3.87791 0
M  V30 5452 H 512.094 0.864933 -6.92217 0
M  V30 5453 H 507.991 1.8539 -6.18305 0
M  V30 5454 H 508.759 1.08789 -8.11238 0
M  V30 5455 N 511.423 1.38739 0.74761 0
M  V30 5456 C 512.353 1.39173 1.87492 0
M  V30 5457 C 513.334 0.256794 1.6815 0
M  V30 5458 O 514.519 0.460762 1.88655 0
M  V30 5459 C 511.649 1.22197 3.25093 0
M  V30 5460 C 510.603 2.32957 3.59047 0
M  V30 5461 C 509.929 2.01082 4.95449 0
M  V30 5462 C 511.229 3.75237 3.6331 0
M  V30 5463 H 512.923 2.3351 1.87386 0
M  V30 5464 H 510.469 1.12399 0.900134 0
M  V30 5465 H 512.422 1.21124 4.03617 0
M  V30 5466 H 511.146 0.243241 3.25693 0
M  V30 5467 H 509.805 2.33226 2.82845 0
M  V30 5468 H 509.453 1.01678 4.92616 0
M  V30 5469 H 509.153 2.75267 5.19136 0
M  V30 5470 H 510.677 2.01638 5.76346 0
M  V30 5471 H 512.091 3.76966 4.31937 0
M  V30 5472 H 510.488 4.48677 3.98509 0
M  V30 5473 H 511.558 4.07122 2.634 0
M  V30 5474 N 512.901 -0.976442 1.23707 0
M  V30 5475 C 513.849 -2.09078 1.01927 0
M  V30 5476 C 514.843 -1.69345 -0.0430193 0
M  V30 5477 O 516.049 -1.79659 0.110814 0
M  V30 5478 H 512.424 -0.68398 0.312531 0
M  V30 5479 H 514.395 -2.24614 1.96447 0
M  V30 5480 C 513.144 -3.41919 0.631385 0
M  V30 5481 H 512.467 -3.72946 1.44053 0
M  V30 5482 H 513.907 -4.20817 0.518532 0
M  V30 5483 C 512.366 -3.30357 -0.660723 0
M  V30 5484 O 512.896 -3.63542 -1.70881 0
M  V30 5485 N 511.102 -2.83507 -0.638139 0
M  V30 5486 H 510.649 -2.567 0.215108 0
M  V30 5487 H 510.607 -2.76153 -1.50289 0
M  V30 5488 N 514.379 -1.04941 -1.1758 0
M  V30 5489 C 515.604 -0.778253 -1.92245 0
M  V30 5490 C 516.029 0.659707 -1.76152 0
M  V30 5491 O 515.387 1.45803 -1.07755 0
M  V30 5492 C 515.435 -1.16051 -3.41416 0
M  V30 5493 O 514.539 -0.291153 -4.11371 0
M  V30 5494 H 513.88 -0.285619 -0.599431 0
M  V30 5495 H 516.41 -1.40159 -1.49052 0
M  V30 5496 H 516.42 -1.12619 -3.92149 0
M  V30 5497 H 515.095 -2.208 -3.52449 0
M  V30 5498 H 513.672 -0.385851 -3.70898 0
M  V30 5499 N 515.857 1.33968 -0.830081 0
M  V30 5500 C 516.787 2.31911 -0.271911 0
M  V30 5501 C 517.768 1.58571 0.61556 0
M  V30 5502 O 518.953 1.86514 0.540946 0
M  V30 5503 C 516.083 3.42737 0.561146 0
M  V30 5504 C 515.037 4.27383 -0.229789 0
M  V30 5505 C 514.363 5.29742 0.726463 0
M  V30 5506 C 515.663 5.02 -1.44197 0
M  V30 5507 H 517.357 2.78844 -1.09025 0
M  V30 5508 H 514.903 1.34061 -0.52571 0
M  V30 5509 H 516.856 4.10276 0.961867 0
M  V30 5510 H 515.58 2.94471 1.41261 0
M  V30 5511 H 514.239 3.61456 -0.611964 0
M  V30 5512 H 513.887 4.77736 1.57408 0
M  V30 5513 H 513.587 5.87255 0.20142 0
M  V30 5514 H 515.111 6.00149 1.12489 0
M  V30 5515 H 516.525 5.62355 -1.11488 0
M  V30 5516 H 514.922 5.69122 -1.90317 0
M  V30 5517 H 515.992 4.31281 -2.2164 0
M  V30 5518 N 517.335 0.585699 1.46312 0
M  V30 5519 C 518.584 0.0701192 2.01578 0
M  V30 5520 C 518.897 -1.29889 1.46247 0
M  V30 5521 O 520.103 -1.90598 1.93351 0
M  V30 5522 C 518.559 0.0747499 3.59822 0
M  V30 5523 C 518.167 1.44226 4.24149 0
M  V30 5524 C 519.911 -0.38673 4.22735 0
M  V30 5525 C 517.818 1.40446 5.74481 0
M  V30 5526 H 516.748 0.0224441 0.753666 0
M  V30 5527 H 519.399 0.737789 1.68015 0
M  V30 5528 H 517.781 -0.659144 3.90476 0
M  V30 5529 H 518.955 2.19612 4.05101 0
M  V30 5530 H 517.27 1.84401 3.73343 0
M  V30 5531 H 519.867 -0.433853 5.32937 0
M  V30 5532 H 520.21 -1.40489 3.91878 0
M  V30 5533 H 520.743 0.293195 3.96718 0
M  V30 5534 H 517.482 2.39952 6.10003 0
M  V30 5535 H 517.002 0.692845 5.95785 0
M  V30 5536 H 518.681 1.11865 6.37256 0
M  V30 5537 N 518.813 -1.54241 0.323641 0
M  V30 5538 C 519.761 -2.25813 -0.557804 0
M  V30 5539 C 520.755 -1.27225 -1.11849 0
M  V30 5540 O 521.961 -1.45001 -1.06652 0
M  V30 5541 H 518.336 -0.72532 -0.198532 0
M  V30 5542 H 520.307 -2.98322 0.0681112 0
M  V30 5543 C 519.056 -3.02913 -1.70701 0
M  V30 5544 H 518.379 -3.78593 -1.28482 0
M  V30 5545 H 519.819 -3.56238 -2.29935 0
M  V30 5546 C 518.278 -2.11217 -2.62467 0
M  V30 5547 O 518.808 -1.69508 -3.64184 0
M  V30 5548 N 517.014 -1.76704 -2.30703 0
M  V30 5549 H 516.561 -2.1082 -1.48029 0
M  V30 5550 H 516.519 -1.15631 -2.92364 0
M  V30 5551 N 520.291 -0.0518155 -1.57515 0
M  V30 5552 C 521.702 0.483787 -1.80323 0
M  V30 5553 C 522.053 1.70879 -0.964099 0
M  V30 5554 O 521.178 2.15643 -0.180872 0
M  V30 5555 C 521.773 0.884459 -3.27052 0
M  V30 5556 C 520.332 1.36504 -3.50776 0
M  V30 5557 C 519.479 0.340539 -2.75201 0
M  V30 5558 H 522.43 -0.277691 -1.56252 0
M  V30 5559 H 522.451 1.74733 -3.38007 0
M  V30 5560 H 521.963 -0.00731093 -3.88099 0
M  V30 5561 H 520.064 2.27598 -2.95009 0
M  V30 5562 H 520.177 1.35675 -4.59488 0
M  V30 5563 H 518.541 0.81356 -2.41357 0
M  V30 5564 H 519.324 -0.543156 -3.38976 0
M  V30 5565 N 521.769 1.56035 0.221574 0
M  V30 5566 C 523.018 1.78245 0.944016 0
M  V30 5567 C 523.331 0.620371 1.85501 0
M  V30 5568 O 524.537 0.726103 2.6161 0
M  V30 5569 C 522.993 3.15659 1.7288 0
M  V30 5570 C 522.601 4.39591 0.863942 0
M  V30 5571 C 524.345 3.47195 2.44246 0
M  V30 5572 C 522.252 5.6803 1.64607 0
M  V30 5573 H 521.182 0.664547 0.356222 0
M  V30 5574 H 523.833 1.8243 0.197904 0
M  V30 5575 H 522.215 3.0565 2.51781 0
M  V30 5576 H 523.389 4.60655 0.115464 0
M  V30 5577 H 521.704 4.15572 0.262407 0
M  V30 5578 H 524.301 4.40381 3.03263 0
M  V30 5579 H 524.644 2.69693 3.1713 0
M  V30 5580 H 525.177 3.58533 1.72334 0
M  V30 5581 H 521.916 6.48425 0.960507 0
M  V30 5582 H 521.436 5.51027 2.36917 0
M  V30 5583 H 523.115 6.08203 2.20675 0
M  V30 5584 N 523.247 -0.488276 1.49845 0
M  V30 5585 C 524.496 -1.23826 1.59217 0
M  V30 5586 C 524.809 -1.93439 0.289966 0
M  V30 5587 O 526.015 -2.70229 0.262382 0
M  V30 5588 C 524.471 -2.24902 2.80976 0
M  V30 5589 C 524.079 -1.6117 4.18005 0
M  V30 5590 C 525.823 -3.00648 2.99685 0
M  V30 5591 C 523.73 -2.60431 5.3097 0
M  V30 5592 H 522.66 -0.465858 0.592868 0
M  V30 5593 H 525.311 -0.510645 1.76252 0
M  V30 5594 H 523.693 -3.0088 2.57463 0
M  V30 5595 H 524.867 -0.910968 4.51706 0
M  V30 5596 H 523.182 -0.97767 4.0476 0
M  V30 5597 H 525.779 -3.74903 3.81251 0
M  V30 5598 H 526.122 -3.5902 2.10738 0
M  V30 5599 H 526.655 -2.31784 3.23297 0
M  V30 5600 H 523.394 -2.06823 6.22017 0
M  V30 5601 H 522.914 -3.28707 5.01709 0
M  V30 5602 H 524.593 -3.22606 5.60834 0
M  V30 5603 N 524.725 -1.39134 -0.740242 0
M  V30 5604 C 525.955 -1.39132 -1.52728 0
M  V30 5605 C 526.363 0.0173133 -1.89192 0
M  V30 5606 O 525.706 0.997715 -1.54244 0
M  V30 5607 C 525.768 -2.1952 -2.84695 0
M  V30 5608 C 525.432 -3.68203 -2.70695 0
M  V30 5609 C 526.429 -4.61401 -2.39593 0
M  V30 5610 C 524.114 -4.11724 -2.8773 0
M  V30 5611 C 526.108 -5.96102 -2.25701 0
M  V30 5612 C 523.795 -5.46503 -2.73456 0
M  V30 5613 C 524.793 -6.38506 -2.42486 0
M  V30 5614 O 524.481 -7.70803 -2.28295 0
M  V30 5615 H 524.213 -0.477263 -0.478744 0
M  V30 5616 H 526.767 -1.83504 -0.922799 0
M  V30 5617 H 524.997 -1.69888 -3.47383 0
M  V30 5618 H 526.686 -2.1176 -3.46284 0
M  V30 5619 H 527.452 -4.29079 -2.26088 0
M  V30 5620 H 523.331 -3.4045 -3.10829 0
M  V30 5621 H 526.875 -6.6788 -2.0145 0
M  V30 5622 H 522.772 -5.78417 -2.86538 0
M  V30 5623 H 523.54 -7.8147 -2.43405 0
M  V30 5624 N 526.204 0.969867 -1.24223 0
M  V30 5625 C 527.432 1.74756 -1.10761 0
M  V30 5626 C 527.847 1.85713 0.340041 0
M  V30 5627 O 527.204 1.34389 1.23474 0
M  V30 5628 C 527.255 3.16915 -1.73917 0
M  V30 5629 O 526.976 3.06511 -3.13021 0
M  V30 5630 C 528.477 4.11032 -1.66036 0
M  V30 5631 H 525.697 0.548092 -0.387087 0
M  V30 5632 H 528.241 1.2178 -1.64286 0
M  V30 5633 H 526.396 3.66884 -1.244 0
M  V30 5634 H 526.81 3.96079 -3.43834 0
M  V30 5635 H 528.284 5.08446 -2.14911 0
M  V30 5636 H 528.761 4.34785 -0.621159 0
M  V30 5637 H 529.367 3.66972 -2.14969 0
M  V30 5638 N 527.682 1.05563 1.17022 0
M  V30 5639 C 528.928 0.769074 1.87652 0
M  V30 5640 C 529.261 -0.702326 1.81055 0
M  V30 5641 O 528.536 -1.5139 1.22112 0
M  V30 5642 C 528.819 1.25492 3.37526 0
M  V30 5643 C 528.672 2.78953 3.52853 0
M  V30 5644 C 529.991 0.856919 4.31677 0
M  V30 5645 H 527.11 0.280854 0.681388 0
M  V30 5646 H 529.752 1.31027 1.37593 0
M  V30 5647 H 527.902 0.794516 3.80289 0
M  V30 5648 H 529.574 3.33146 3.19079 0
M  V30 5649 H 527.817 3.18046 2.95007 0
M  V30 5650 H 528.488 3.08011 4.58076 0
M  V30 5651 H 530.964 1.25334 3.96775 0
M  V30 5652 H 529.84 1.22443 5.35069 0
M  V30 5653 H 530.101 -0.238787 4.41455 0
M  V30 5654 N 529.16 -1.33526 0.837174 0
M  V30 5655 C 530.407 -1.97837 0.432064 0
M  V30 5656 C 530.735 -1.66324 -1.00829 0
M  V30 5657 O 529.99 -0.93448 -1.71948 0
M  V30 5658 C 530.289 -3.52367 0.597675 0
M  V30 5659 C 529.955 -4.03826 2.00587 0
M  V30 5660 C 528.617 -4.1759 2.39106 0
M  V30 5661 C 530.969 -4.31333 2.92576 0
M  V30 5662 C 528.297 -4.56195 3.68921 0
M  V30 5663 C 530.649 -4.7139 4.2187 0
M  V30 5664 C 529.313 -4.8336 4.60347 0
M  V30 5665 H 528.583 -0.723937 0.158104 0
M  V30 5666 H 531.23 -1.5923 1.06387 0
M  V30 5667 H 529.535 -3.91624 -0.117452 0
M  V30 5668 H 531.232 -4.00126 0.26454 0
M  V30 5669 H 527.822 -3.93586 1.69671 0
M  V30 5670 H 532.006 -4.20224 2.64056 0
M  V30 5671 H 527.262 -4.63655 3.9854 0
M  V30 5672 H 531.436 -4.91631 4.93226 0
M  V30 5673 H 529.063 -5.1303 5.60985 0
M  V30 5674 N 530.638 -0.59345 -1.46 0
M  V30 5675 C 531.586 0.146268 -2.3214 0
M  V30 5676 C 532.58 0.873743 -1.45128 0
M  V30 5677 O 533.786 0.790912 -1.61693 0
M  V30 5678 H 530.161 0.0660349 -0.749095 0
M  V30 5679 H 532.132 -0.598895 -2.92328 0
M  V30 5680 C 530.881 1.1396 -3.28494 0
M  V30 5681 H 530.204 0.589252 -3.95434 0
M  V30 5682 H 531.644 1.62738 -3.91526 0
M  V30 5683 C 530.103 2.20604 -2.54628 0
M  V30 5684 O 530.633 3.28128 -2.31722 0
M  V30 5685 N 528.839 1.95502 -2.15005 0
M  V30 5686 H 528.386 1.0807 -2.33834 0
M  V30 5687 H 528.344 2.67064 -1.65904 0
M  V30 5688 N 532.116 1.54067 -0.331816 0
M  V30 5689 C 533.026 2.28322 0.539104 0
M  V30 5690 C 534.042 1.32985 1.1221 0
M  V30 5691 O 535.218 1.6601 1.1403 0
M  V30 5692 C 532.283 3.03277 1.68 0
M  V30 5693 C 531.344 4.14216 1.12798 0
M  V30 5694 C 530.577 4.85588 2.2145 0
M  V30 5695 O 530.8 4.56536 3.41952 0
M  V30 5696 O 529.734 5.72309 1.86404 0
M  V30 5697 H 533.56 3.03632 -0.0641692 0
M  V30 5698 H 531.145 1.49083 -0.0972365 0
M  V30 5699 H 533.027 3.50189 2.34405 0
M  V30 5700 H 531.702 2.30834 2.2693 0
M  V30 5701 H 530.609 3.71635 0.428782 0
M  V30 5702 H 531.942 4.88727 0.583698 0
M  V30 5703 N 533.594 0.0601682 1.57485 0
M  V30 5704 C 534.504 -0.926121 2.15546 0
M  V30 5705 C 535.52 -1.33532 1.11558 0
M  V30 5706 O 536.696 -1.4104 1.4377 0
M  V30 5707 C 533.761 -2.17952 2.69625 0
M  V30 5708 C 532.822 -1.82783 3.88444 0
M  V30 5709 C 532.055 -3.02148 4.39935 0
M  V30 5710 O 532.278 -4.15803 3.90466 0
M  V30 5711 O 531.212 -2.82639 5.31412 0
M  V30 5712 H 535.038 -0.462289 3.00161 0
M  V30 5713 H 532.623 -0.162246 1.48516 0
M  V30 5714 H 534.505 -2.91474 3.04337 0
M  V30 5715 H 533.18 -2.63456 1.88077 0
M  V30 5716 H 532.087 -1.06549 3.58606 0
M  V30 5717 H 533.42 -1.42072 4.7125 0
M  V30 5718 N 535.072 -1.5615 -0.213296 0
M  V30 5719 C 536.319 -1.79546 -0.936462 0
M  V30 5720 C 536.647 -0.630337 -1.84003 0
M  V30 5721 O 535.902 0.384883 -1.91878 0
M  V30 5722 C 536.201 -3.08772 -1.79985 0
M  V30 5723 C 535.867 -4.38532 -1.04882 0
M  V30 5724 C 534.529 -4.73787 -0.841393 0
M  V30 5725 C 536.881 -5.18609 -0.51907 0
M  V30 5726 C 534.209 -5.86627 -0.0924403 0
M  V30 5727 C 536.561 -6.32229 0.216581 0
M  V30 5728 C 535.225 -6.6608 0.435191 0
M  V30 5729 H 534.495 -0.657004 -0.342676 0
M  V30 5730 H 537.142 -1.9041 -0.204051 0
M  V30 5731 H 535.447 -2.93065 -2.60038 0
M  V30 5732 H 537.144 -3.24077 -2.36168 0
M  V30 5733 H 533.734 -4.10855 -1.22048 0
M  V30 5734 H 537.918 -4.91801 -0.666775 0
M  V30 5735 H 533.174 -6.11338 0.087081 0
M  V30 5736 H 537.348 -6.93503 0.634538 0
M  V30 5737 H 534.975 -7.5336 1.01746 0
M  V30 5738 N 536.55 0.480323 -1.50102 0
M  V30 5739 C 537.966 0.813295 -1.37323 0
M  V30 5740 C 538.166 1.97027 -0.422206 0
M  V30 5741 O 537.222 2.5212 0.138563 0
M  V30 5742 C 538.535 1.13404 -2.78496 0
M  V30 5743 C 540.083 1.24104 -2.87345 0
M  V30 5744 C 540.558 1.59497 -4.29331 0
M  V30 5745 N 542.049 1.66507 -4.32238 0
M  V30 5746 C 542.784 1.95378 -5.39087 0
M  V30 5747 N 542.28 2.22333 -6.56155 0
M  V30 5748 N 544.073 1.96803 -5.26522 0
M  V30 5749 H 536.224 -0.282291 -2.10516 0
M  V30 5750 H 538.487 -0.063752 -0.945854 0
M  V30 5751 H 538.193 0.357064 -3.49883 0
M  V30 5752 H 538.067 2.07251 -3.15162 0
M  V30 5753 H 540.454 2.00871 -2.16183 0
M  V30 5754 H 540.535 0.282593 -2.54234 0
M  V30 5755 H 540.179 0.832736 -5.01027 0
M  V30 5756 H 540.109 2.56477 -4.59921 0
M  V30 5757 H 542.6 1.47753 -3.47818 0
M  V30 5758 H 542.913 2.43611 -7.33399 0
M  V30 5759 H 541.258 2.19745 -6.59346 0
M  V30 5760 H 544.449 1.75235 -4.34062 0
M  V30 5761 H 544.622 2.18969 -6.09883 0
M  V30 5762 N 538.028 1.39524 0.732853 0
M  V30 5763 C 538.96 1.34318 1.85718 0
M  V30 5764 C 539.973 0.251576 1.60844 0
M  V30 5765 O 541.162 0.510685 1.71039 0
M  V30 5766 C 538.262 1.06334 3.21786 0
M  V30 5767 C 537.435 2.26813 3.73998 0
M  V30 5768 C 536.494 1.95253 4.88634 0
M  V30 5769 O 535.52 2.67957 5.02183 0
M  V30 5770 N 536.722 0.919984 5.73164 0
M  V30 5771 H 539.487 2.3121 1.90688 0
M  V30 5772 H 537.048 1.33654 0.91368 0
M  V30 5773 H 539.04 0.832363 3.96048 0
M  V30 5774 H 537.61 0.181682 3.12072 0
M  V30 5775 H 536.83 2.65849 2.91064 0
M  V30 5776 H 538.118 3.0717 4.05616 0
M  V30 5777 H 537.516 0.317487 5.64808 0
M  V30 5778 H 536.073 0.748905 6.47483 0
M  V30 5779 N 539.506 -0.963266 1.24736 0
M  V30 5780 C 540.469 -2.04013 1.04457 0
M  V30 5781 C 541.469 -1.608 0.000335555 0
M  V30 5782 O 542.659 -1.72515 0.241719 0
M  V30 5783 C 539.791 -3.35858 0.584162 0
M  V30 5784 H 540.984 -2.23436 2.00041 0
M  V30 5785 H 538.537 -1.13914 1.07021 0
M  V30 5786 H 539.272 -3.22128 -0.374673 0
M  V30 5787 H 539.057 -3.68568 1.3379 0
M  V30 5788 H 540.547 -4.1502 0.463451 0
M  V30 5789 N 540.985 -1.06182 -1.16461 0
M  V30 5790 C 542.232 -0.777863 -1.86964 0
M  V30 5791 C 542.56 0.695602 -1.81636 0
M  V30 5792 O 541.815 1.52532 -1.22607 0
M  V30 5793 C 542.114 -1.21633 -3.36066 0
M  V30 5794 C 541.78 -2.69371 -3.61594 0
M  V30 5795 C 540.442 -3.09727 -3.6827 0
M  V30 5796 C 542.794 -3.64791 -3.7226 0
M  V30 5797 C 540.122 -4.44345 -3.83112 0
M  V30 5798 C 542.474 -4.99155 -3.88623 0
M  V30 5799 C 541.138 -5.39149 -3.93541 0
M  V30 5800 H 540.408 -0.28464 -0.68415 0
M  V30 5801 H 543.055 -1.33071 -1.37711 0
M  V30 5802 H 541.36 -0.582651 -3.87443 0
M  V30 5803 H 543.057 -0.973682 -3.88999 0
M  V30 5804 H 539.647 -2.37124 -3.57029 0
M  V30 5805 H 543.831 -3.34746 -3.66413 0
M  V30 5806 H 539.087 -4.74819 -3.85172 0
M  V30 5807 H 543.261 -5.72976 -3.95817 0
M  V30 5808 H 540.888 -6.43464 -4.04794 0
M  V30 5809 N 542.463 1.3308 -0.844243 0
M  V30 5810 C 543.395 2.27954 -0.238671 0
M  V30 5811 C 544.408 1.51978 0.583665 0
M  V30 5812 O 545.597 1.73731 0.409857 0
M  V30 5813 C 542.697 3.31963 0.682185 0
M  V30 5814 C 541.87 4.37281 -0.101998 0
M  V30 5815 C 540.929 5.20928 0.743022 0
M  V30 5816 O 539.955 5.68914 0.180285 0
M  V30 5817 N 541.157 5.42738 2.0595 0
M  V30 5818 H 543.922 2.8056 -1.05386 0
M  V30 5819 H 541.483 1.4583 -0.70322 0
M  V30 5820 H 543.475 3.84828 1.25259 0
M  V30 5821 H 542.045 2.79594 1.39808 0
M  V30 5822 H 541.265 3.84843 -0.853802 0
M  V30 5823 H 542.553 5.04746 -0.641015 0
M  V30 5824 H 541.951 5.05463 2.54016 0
M  V30 5825 H 540.508 5.98639 2.57827 0
M  V30 5826 N 543.941 0.601185 1.45683 0
M  V30 5827 C 544.888 -0.121396 2.30481 0
M  V30 5828 C 545.858 -0.866232 1.41724 0
M  V30 5829 O 547.043 -0.85324 1.70659 0
M  V30 5830 C 544.183 -1.11704 3.26521 0
M  V30 5831 C 543.296 -0.373741 4.3038 0
M  V30 5832 C 542.431 -1.35854 5.13534 0
M  V30 5833 C 541.47 -0.602689 6.09126 0
M  V30 5834 N 540.607 -1.53645 6.85082 0
M  V30 5835 H 545.447 0.607732 2.91737 0
M  V30 5836 H 542.984 0.311502 1.43764 0
M  V30 5837 H 544.942 -1.70735 3.80664 0
M  V30 5838 H 543.572 -1.81366 2.67032 0
M  V30 5839 H 542.624 0.331962 3.78949 0
M  V30 5840 H 543.936 0.2163 4.98331 0
M  V30 5841 H 543.09 -2.02111 5.72046 0
M  V30 5842 H 541.829 -1.98251 4.45587 0
M  V30 5843 H 540.834 0.0735482 5.49751 0
M  V30 5844 H 542.059 0.0161467 6.79098 0
M  V30 5845 H 540.005 -2.14819 6.1983 0
M  V30 5846 H 539.922 -0.999688 7.49361 0
M  V30 5847 H 541.19 -2.1888 7.48139 0
M  V30 5848 N 545.419 -1.53889 0.339982 0
M  V30 5849 C 546.668 -2.00035 -0.258604 0
M  V30 5850 C 546.981 -1.23179 -1.51942 0
M  V30 5851 O 548.187 -1.59784 -2.19503 0
M  V30 5852 C 546.643 -3.56249 -0.511359 0
M  V30 5853 C 546.251 -4.41957 0.733349 0
M  V30 5854 C 547.995 -4.1082 -1.069 0
M  V30 5855 C 545.902 -5.89673 0.451591 0
M  V30 5856 H 544.832 -0.747284 -0.10041 0
M  V30 5857 H 547.483 -1.77776 0.454758 0
M  V30 5858 H 545.865 -3.7456 -1.28533 0
M  V30 5859 H 547.039 -4.35421 1.50815 0
M  V30 5860 H 545.354 -3.9836 1.21237 0
M  V30 5861 H 547.951 -5.18789 -1.2947 0
M  V30 5862 H 548.294 -3.63817 -2.02343 0
M  V30 5863 H 548.827 -3.96205 -0.355817 0
M  V30 5864 H 545.566 -6.40903 1.37565 0
M  V30 5865 H 545.086 -5.99122 -0.285193 0
M  V30 5866 H 546.765 -6.46965 0.0675067 0
M  V30 5867 N 546.897 -0.0685191 -1.57451 0
M  V30 5868 C 548.143 0.602239 -1.93652 0
M  V30 5869 C 548.476 1.6946 -0.948526 0
M  V30 5870 O 547.751 1.94487 0.022782 0
M  V30 5871 C 548.034 1.18223 -3.4014 0
M  V30 5872 C 547.887 0.0967431 -4.49696 0
M  V30 5873 C 549.206 2.08872 -3.87377 0
M  V30 5874 H 546.325 0.217453 -0.70419 0
M  V30 5875 H 548.967 -0.133821 -1.89528 0
M  V30 5876 H 547.117 1.80953 -3.43785 0
M  V30 5877 H 548.789 -0.536155 -4.58174 0
M  V30 5878 H 547.032 -0.573063 -4.29998 0
M  V30 5879 H 547.703 0.542894 -5.49324 0
M  V30 5880 H 550.179 1.56081 -3.85717 0
M  V30 5881 H 549.055 2.46389 -4.90493 0
M  V30 5882 H 549.316 2.99572 -3.25129 0
M  V30 5883 N 548.375 1.56261 0.205012 0
M  V30 5884 C 549.786 1.70056 0.770574 0
M  V30 5885 C 550.137 0.673398 1.84282 0
M  V30 5886 O 549.262 -0.172196 2.15714 0
M  V30 5887 C 549.857 3.08316 1.40451 0
M  V30 5888 C 548.416 3.2391 1.91727 0
M  V30 5889 C 547.563 2.66001 0.783516 0
M  V30 5890 H 550.514 1.58688 -0.019911 0
M  V30 5891 H 550.535 3.05094 2.27371 0
M  V30 5892 H 550.047 3.83053 0.623882 0
M  V30 5893 H 548.148 2.54072 2.7254 0
M  V30 5894 H 548.261 4.3131 2.08588 0
M  V30 5895 H 546.625 2.24915 1.19521 0
M  V30 5896 H 547.408 3.43297 0.0152883 0
M  V30 5897 N 549.853 -0.472356 1.50355 0
M  V30 5898 C 551.1 -1.22453 1.61281 0
M  V30 5899 C 551.428 -1.91972 0.31256 0
M  V30 5900 O 550.683 -1.82696 -0.701475 0
M  V30 5901 C 550.982 -2.29257 2.74182 0
M  V30 5902 C 550.648 -1.76999 4.14708 0
M  V30 5903 C 549.31 -1.62467 4.52944 0
M  V30 5904 C 551.662 -1.38215 5.0254 0
M  V30 5905 C 548.99 -1.07574 5.76754 0
M  V30 5906 C 551.342 -0.847638 6.26895 0
M  V30 5907 C 550.006 -0.688946 6.63935 0
M  V30 5908 H 549.276 -0.448087 0.590168 0
M  V30 5909 H 551.923 -0.520744 1.84284 0
M  V30 5910 H 550.228 -3.05538 2.45263 0
M  V30 5911 H 551.925 -2.87212 2.7984 0
M  V30 5912 H 548.515 -1.89276 3.84542 0
M  V30 5913 H 552.699 -1.48276 4.73633 0
M  V30 5914 H 547.955 -0.940237 6.04127 0
M  V30 5915 H 552.129 -0.538455 6.94315 0
M  V30 5916 H 549.756 -0.261435 7.5975 0
M  V30 5917 N 551.331 -1.39911 -0.725443 0
M  V30 5918 C 552.747 -1.21725 -1.03224 0
M  V30 5919 C 552.947 -0.0855224 -2.01318 0
M  V30 5920 O 552.003 0.55976 -2.46217 0
M  V30 5921 C 553.316 -2.55511 -1.58539 0
M  V30 5922 C 554.864 -2.62439 -1.70572 0
M  V30 5923 C 555.339 -3.9647 -2.29294 0
M  V30 5924 N 556.83 -3.98159 -2.36692 0
M  V30 5925 C 557.565 -4.98647 -2.83088 0
M  V30 5926 N 557.061 -6.0953 -3.2931 0
M  V30 5927 N 558.854 -4.8602 -2.82384 0
M  V30 5928 H 551.005 -2.12267 -0.075048 0
M  V30 5929 H 553.268 -0.943136 -0.0959066 0
M  V30 5930 H 552.974 -3.38926 -0.939249 0
M  V30 5931 H 552.848 -2.75905 -2.57208 0
M  V30 5932 H 555.235 -1.79401 -2.34306 0
M  V30 5933 H 555.316 -2.45885 -0.705297 0
M  V30 5934 H 554.96 -4.79942 -1.66186 0
M  V30 5935 H 554.89 -4.10349 -3.30032 0
M  V30 5936 H 557.381 -3.18085 -2.04035 0
M  V30 5937 H 557.694 -6.82106 -3.6325 0
M  V30 5938 H 556.039 -6.1311 -3.27294 0
M  V30 5939 H 559.23 -3.98493 -2.45603 0
M  V30 5940 H 559.403 -5.64478 -3.18226 0
M  V30 5941 N 552.809 0.956637 -1.25245 0
M  V30 5942 C 553.756 2.053 -1.05454 0
M  V30 5943 C 554.726 1.66062 0.0356889 0
M  V30 5944 O 555.911 1.90415 -0.121099 0
M  V30 5945 C 553.051 3.38391 -0.677191 0
M  V30 5946 C 552.164 3.90758 -1.84206 0
M  V30 5947 C 551.299 5.12165 -1.40926 0
M  V30 5948 C 550.338 5.56757 -2.54338 0
M  V30 5949 N 549.475 6.69376 -2.11848 0
M  V30 5950 H 554.315 2.21562 -1.99284 0
M  V30 5951 H 551.852 1.08578 -0.992434 0
M  V30 5952 H 553.81 4.1488 -0.43938 0
M  V30 5953 H 552.44 3.22021 0.224127 0
M  V30 5954 H 551.492 3.10808 -2.19323 0
M  V30 5955 H 552.804 4.19802 -2.69383 0
M  V30 5956 H 551.958 5.96065 -1.13098 0
M  V30 5957 H 550.697 4.84832 -0.528175 0
M  V30 5958 H 549.702 4.71423 -2.82913 0
M  V30 5959 H 550.927 5.861 -3.43022 0
M  V30 5960 H 548.873 6.43756 -1.26153 0
M  V30 5961 H 548.79 6.97927 -2.90574 0
M  V30 5962 H 550.058 7.5669 -1.87191 0
M  V30 5963 N 554.287 1.06798 1.15896 0
M  V30 5964 C 555.25 0.687328 2.18651 0
M  V30 5965 C 556.25 -0.269559 1.58524 0
M  V30 5966 O 557.44 -0.0512627 1.74125 0
M  V30 5967 C 554.572 0.0121642 3.40898 0
M  V30 5968 H 555.765 1.59701 2.53842 0
M  V30 5969 H 553.318 0.863828 1.3026 0
M  V30 5970 H 554.053 -0.910025 3.1127 0
M  V30 5971 H 553.838 0.700309 3.85795 0
M  V30 5972 H 555.328 -0.239703 4.16911 0
M  V30 5973 N 555.766 -1.3263 0.851289 0
M  V30 5974 C 556.991 -2.02097 0.466006 0
M  V30 5975 C 557.416 -1.63574 -0.928709 0
M  V30 5976 O 556.774 -0.834665 -1.60944 0
M  V30 5977 C 556.822 -3.55425 0.608737 0
M  V30 5978 O 555.926 -4.10827 -0.359878 0
M  V30 5979 H 555.267 -0.636911 0.187724 0
M  V30 5980 H 557.797 -1.69253 1.14955 0
M  V30 5981 H 557.807 -4.04986 0.495006 0
M  V30 5982 H 556.482 -3.82806 1.62581 0
M  V30 5983 H 555.059 -3.72349 -0.202666 0
M  V30 5984 O 557.283 -0.749239 -1.43069 0
M  V30 5985 H 557.974 -0.305579 -1.91274 0
M  V30 END ATOM
M  V30 BEGIN BOND
M  V30 END BOND
M  V30 END CTAB
M  END
$$$$
