drugbank_target|P43166 Carbonic anhydrase 7 (DB00311; DB00703; DB00774; DB00819; DB00909; DB01144; DB08846)
 OpenBabel12092120363D

  0  0  0     0  0            999 V3000
M  V30 BEGIN CTAB
M  V30 COUNTS 4104 4170 0 0 0
M  V30 BEGIN ATOM
M  V30 1 H -0.908 1.98254 -0.117106 0
M  V30 2 N 0 1.576 0 0
M  V30 3 C 0.933 2.03868 1.02534 0
M  V30 4 C 1.911 0.928543 1.3348 0
M  V30 5 O 3.095 1.19667 1.45644 0
M  V30 6 C 0.222 2.43627 2.35294 0
M  V30 7 C -0.732 3.65373 2.2001 0
M  V30 8 S 0.101 5.13292 1.52614 0
M  V30 9 C 1.257 5.56322 2.86805 0
M  V30 10 H 1.49 2.90518 0.631377 0
M  V30 11 H -0.977 1.52953 0.210867 0
M  V30 12 H 0.981 2.67203 3.11629 0
M  V30 13 H -0.358 1.57376 2.7183 0
M  V30 14 H -1.165 3.90944 3.18086 0
M  V30 15 H -1.563 3.418 1.51819 0
M  V30 16 H 0.729 5.58782 3.83104 0
M  V30 17 H 1.672 6.56266 2.65933 0
M  V30 18 H 2.08 4.83886 2.90714 0
M  V30 19 N 1.4781 -0.272755 1.55222 0
M  V30 20 C 2.7061 -1.02255 1.79865 0
M  V30 21 C 3.1211 -1.79924 0.572088 0
M  V30 22 O 2.4781 -1.76638 -0.458842 0
M  V30 23 C 2.5291 -1.98094 3.02392 0
M  V30 24 O 2.2501 -1.23572 4.20311 0
M  V30 25 C 3.7511 -2.84884 3.39641 0
M  V30 26 H 0.9711 -0.302057 0.599168 0
M  V30 27 H 3.5151 -0.303465 2.02236 0
M  V30 28 H 1.6701 -2.65465 2.82147 0
M  V30 29 H 2.0841 -1.88172 4.89583 0
M  V30 30 H 3.5581 -3.47927 4.28545 0
M  V30 31 H 4.0351 -3.54665 2.59055 0
M  V30 32 H 4.6411 -2.23003 3.62146 0
M  V30 33 N 2.9562 -1.48159 -0.537278 0
M  V30 34 C 4.2042 -1.55497 -1.29094 0
M  V30 35 C 4.5252 -0.227454 -1.93669 0
M  V30 36 O 3.7952 0.750386 -1.80959 0
M  V30 37 H 2.3752 -0.572832 -0.47945 0
M  V30 38 H 5.0372 -1.84579 -0.625818 0
M  V30 39 H 4.1332 -2.33216 -2.07405 0
M  V30 40 N 4.4343 0.785586 -1.36625 0
M  V30 41 C 5.3843 1.88822 -1.27789 0
M  V30 42 C 6.3683 1.60014 -0.168579 0
M  V30 43 O 7.5603 1.72381 -0.401737 0
M  V30 44 C 4.6893 3.26092 -1.07327 0
M  V30 45 C 3.7753 3.60897 -2.22743 0
M  V30 46 N 4.1663 3.66982 -3.48077 0
M  V30 47 C 2.4643 3.90981 -2.14593 0
M  V30 48 C 3.1653 3.98137 -4.24101 0
M  V30 49 N 2.1413 4.13319 -3.53084 0
M  V30 50 H 5.9433 1.91759 -2.22723 0
M  V30 51 H 3.4573 0.981311 -1.29399 0
M  V30 52 H 5.4543 4.04954 -0.990842 0
M  V30 53 H 4.1143 3.24428 -0.132977 0
M  V30 54 H 5.1253 3.49531 -3.82163 0
M  V30 55 H 1.8023 3.9722 -1.2854 0
M  V30 56 H 3.1923 4.09737 -5.32509 0
M  V30 57 N 5.9124 1.20967 1.01018 0
M  V30 58 C 6.8624 0.93182 2.08089 0
M  V30 59 C 7.8464 -0.110898 1.60517 0
M  V30 60 O 9.0384 0.0973392 1.76732 0
M  V30 61 C 6.1674 0.492719 3.39746 0
M  V30 62 C 5.2534 1.56922 3.94 0
M  V30 63 N 5.6444 2.79312 4.21686 0
M  V30 64 C 3.9424 1.43688 4.2222 0
M  V30 65 C 4.6434 3.48797 4.65527 0
M  V30 66 N 3.6194 2.76224 4.68189 0
M  V30 67 H 7.4214 1.86175 2.27412 0
M  V30 68 H 4.9354 1.10463 1.19045 0
M  V30 69 H 6.9324 0.275044 4.15992 0
M  V30 70 H 5.5924 -0.430509 3.21833 0
M  V30 71 H 6.6034 3.15903 4.10397 0
M  V30 72 H 3.2804 0.578548 4.13472 0
M  V30 73 H 4.6704 4.53561 4.95714 0
M  V30 74 N 7.3905 -1.2043 1.01659 0
M  V30 75 C 8.6385 -1.89423 0.704522 0
M  V30 76 C 8.9595 -1.79231 -0.768197 0
M  V30 77 O 8.2295 -1.1947 -1.55254 0
M  V30 78 H 6.8095 -0.701178 0.257602 0
M  V30 79 H 9.4715 -1.4626 1.28818 0
M  V30 80 H 8.5675 -2.96052 0.987916 0
M  V30 81 N 8.8686 -0.792821 -1.36206 0
M  V30 82 C 10.1146 -0.376415 -1.99887 0
M  V30 83 C 10.4696 1.04127 -1.61788 0
M  V30 84 O 9.7626 1.71004 -0.864193 0
M  V30 85 C 9.9566 -0.481501 -3.54142 0
M  V30 86 C 9.7856 -1.90786 -4.07223 0
M  V30 87 C 8.5556 -2.53322 -4.37214 0
M  V30 88 C 10.7536 -2.87048 -4.26741 0
M  V30 89 N 8.7356 -3.8751 -4.7614 0
M  V30 90 C 10.1066 -4.06077 -4.6851 0
M  V30 91 C 12.1616 -2.8406 -4.08918 0
M  V30 92 C 10.8646 -5.22532 -4.94321 0
M  V30 93 C 12.8906 -3.99705 -4.35878 0
M  V30 94 C 12.2526 -5.1748 -4.77906 0
M  V30 95 H 8.3516 -0.185226 -0.759747 0
M  V30 96 H 10.9356 -1.03114 -1.65153 0
M  V30 97 H 9.1066 0.143154 -3.88136 0
M  V30 98 H 10.8386 -0.0410128 -4.04679 0
M  V30 99 H 7.5936 -2.04777 -4.2704 0
M  V30 100 H 8.0176 -4.5656 -4.99882 0
M  V30 101 H 12.6596 -1.94165 -3.75579 0
M  V30 102 H 10.3776 -6.1301 -5.2654 0
M  V30 103 H 13.9636 -3.98758 -4.23655 0
M  V30 104 H 12.8436 -6.05478 -4.98363 0
M  V30 105 N 10.3467 1.47872 -0.545128 0
M  V30 106 C 11.5947 2.02093 -0.016553 0
M  V30 107 C 11.9157 1.42305 1.3332 0
M  V30 108 O 11.1857 0.593853 1.86682 0
M  V30 109 H 9.7657 0.746993 -0.00313038 0
M  V30 110 H 12.4277 1.81414 -0.712397 0
M  V30 111 H 11.5237 3.11996 0.0805422 0
M  V30 112 N 11.8248 0.280983 1.55075 0
M  V30 113 C 13.0548 -0.336804 2.03836 0
M  V30 114 C 13.4628 -1.49577 1.15859 0
M  V30 115 O 12.8058 -1.82888 0.172503 0
M  V30 116 C 12.8678 -0.874616 3.48699 0
M  V30 117 C 12.5318 0.156478 4.56732 0
M  V30 118 C 13.5288 0.978032 5.10618 0
M  V30 119 C 11.2138 0.292409 5.01448 0
M  V30 120 C 13.2078 1.92165 6.07743 0
M  V30 121 C 10.8948 1.23949 5.98398 0
M  V30 122 C 11.8928 2.05261 6.51427 0
M  V30 123 O 11.5808 2.98367 7.4648 0
M  V30 124 H 11.3128 -0.0800885 0.671239 0
M  V30 125 H 13.8668 0.412589 2.01213 0
M  V30 126 H 12.0968 -1.67418 3.4858 0
M  V30 127 H 13.7858 -1.40612 3.80766 0
M  V30 128 H 14.5518 0.883782 4.7688 0
M  V30 129 H 10.4308 -0.330498 4.59814 0
M  V30 130 H 13.9748 2.55672 6.49059 0
M  V30 131 H 9.8718 1.33454 6.31554 0
M  V30 132 H 10.6398 2.93116 7.64215 0
M  V30 133 N 13.3029 -1.57598 0.00835791 0
M  V30 134 C 14.5509 -1.90551 -0.6734 0
M  V30 135 C 14.8719 -0.883301 -1.73847 0
M  V30 136 O 14.1419 0.0781442 -1.95744 0
M  V30 137 H 12.7219 -0.703312 -0.251717 0
M  V30 138 H 15.3839 -1.94833 0.0512592 0
M  V30 139 H 14.4799 -2.9056 -1.13935 0
M  V30 140 N 14.781 0.264519 -1.55364 0
M  V30 141 C 15.713 1.34965 -1.85248 0
M  V30 142 C 16.726 1.45136 -0.737525 0
M  V30 143 O 17.915 1.46801 -1.01547 0
M  V30 144 C 15.015 2.73008 -2.00797 0
M  V30 145 C 14.188 2.85324 -3.31525 0
M  V30 146 C 13.247 4.04097 -3.37034 0
M  V30 147 O 12.273 3.94455 -4.10358 0
M  V30 148 N 13.475 5.16458 -2.65049 0
M  V30 149 H 16.24 1.09672 -2.78913 0
M  V30 150 H 13.801 0.454635 -1.55386 0
M  V30 151 H 15.793 3.50772 -2.01844 0
M  V30 152 H 14.363 2.91087 -1.1396 0
M  V30 153 H 13.583 1.94377 -3.42945 0
M  V30 154 H 14.871 2.9049 -4.17724 0
M  V30 155 H 14.269 5.27181 -2.05175 0
M  V30 156 H 12.826 5.92422 -2.71809 0
M  V30 157 N 16.2591 1.48442 0.529413 0
M  V30 158 C 17.5361 1.46978 1.29062 0
M  V30 159 C 17.9161 0.181769 2.10316 0
M  V30 160 O 17.2641 -0.836481 2.12639 0
M  V30 161 C 17.4741 2.7321 2.17157 0
M  V30 162 C 18.8221 3.21562 2.77278 0
M  V30 163 O 19.8461 2.74131 2.27444 0
M  V30 164 O 18.7051 4.04094 3.67927 0
M  V30 165 H 15.7991 0.587003 0.582543 0
M  V30 166 H 18.3451 1.60676 0.546021 0
M  V30 167 H 17.1171 3.58465 1.56903 0
M  V30 168 H 16.7401 2.62235 2.98862 0
M  V30 169 N 17.7372 -0.778329 1.37039 0
M  V30 170 C 19.0142 -1.52551 1.22424 0
M  V30 171 C 19.3942 -2.10288 -0.184964 0
M  V30 172 O 18.7422 -1.94953 -1.19187 0
M  V30 173 C 18.9522 -2.61164 2.31504 0
M  V30 174 C 20.3002 -3.28746 2.68721 0
M  V30 175 O 21.3242 -2.71455 2.30631 0
M  V30 176 O 20.1832 -4.3231 3.3432 0
M  V30 177 H 17.2772 -0.675343 0.477326 0
M  V30 178 H 19.8232 -0.815859 1.48801 0
M  V30 179 H 18.5952 -2.16574 3.25901 0
M  V30 180 H 18.2182 -3.39737 2.06554 0
M  V30 181 N 19.2153 -1.21501 -1.00376 0
M  V30 182 C 20.4633 -1.03095 -1.73827 0
M  V30 183 C 20.7843 0.436341 -1.90055 0
M  V30 184 O 20.0543 1.31466 -1.45236 0
M  V30 185 H 18.6343 -0.378487 -0.644016 0
M  V30 186 H 21.2963 -1.52831 -1.20949 0
M  V30 187 H 20.3923 -1.49991 -2.73695 0
M  V30 188 N 20.6934 1.19889 -1.02296 0
M  V30 189 C 22.1044 1.71124 -0.746568 0
M  V30 190 C 22.4554 1.81939 0.734335 0
M  V30 191 O 21.5804 1.48639 1.57275 0
M  V30 192 C 22.1754 3.10804 -1.34857 0
M  V30 193 C 20.7344 3.59323 -1.1209 0
M  V30 194 C 19.8814 2.3635 -1.45031 0
M  V30 195 H 22.8324 1.04813 -1.19163 0
M  V30 196 H 22.8534 3.73186 -0.742437 0
M  V30 197 H 22.3654 3.029 -2.42638 0
M  V30 198 H 20.4664 3.7255 -0.0610337 0
M  V30 199 H 20.5794 4.4378 -1.80544 0
M  V30 200 H 18.9434 2.39399 -0.869487 0
M  V30 201 H 19.7264 2.31081 -2.53883 0
M  V30 202 N 22.1715 0.800033 1.35784 0
M  V30 203 C 23.3965 0.388511 2.03729 0
M  V30 204 C 23.8215 -0.990481 1.5991 0
M  V30 205 O 23.1795 -1.64013 0.772612 0
M  V30 206 C 23.2275 0.4726 3.5749 0
M  V30 207 O 22.3315 -0.51646 4.09153 0
M  V30 208 H 21.6725 0.163271 0.643614 0
M  V30 209 H 24.2025 1.0841 1.73518 0
M  V30 210 H 24.2125 0.34003 4.06581 0
M  V30 211 H 22.8875 1.47848 3.88734 0
M  V30 212 H 21.4645 -0.344673 3.71304 0
M  V30 213 N 23.6496 -1.47581 0.552962 0
M  V30 214 C 24.5996 -2.26961 -0.217423 0
M  V30 215 C 25.5836 -1.34099 -0.889168 0
M  V30 216 O 26.7756 -1.58483 -0.788176 0
M  V30 217 C 23.9046 -3.19756 -1.24944 0
M  V30 218 C 22.9906 -4.20097 -0.581327 0
M  V30 219 N 23.3816 -5.04614 0.346171 0
M  V30 220 C 21.6796 -4.38099 -0.835767 0
M  V30 221 C 22.3806 -5.77052 0.733854 0
M  V30 222 N 21.3566 -5.43526 0.0896567 0
M  V30 223 H 25.1586 -2.89688 0.495761 0
M  V30 224 H 22.6726 -1.58068 0.372597 0
M  V30 225 H 24.6696 -3.75305 -1.81527 0
M  V30 226 H 23.3296 -2.58585 -1.96376 0
M  V30 227 H 24.3406 -5.12869 0.720098 0
M  V30 228 H 21.0176 -3.88102 -1.53892 0
M  V30 229 H 22.4076 -6.5504 1.49574 0
M  V30 230 N 25.1277 -0.289203 -1.54924 0
M  V30 231 C 26.3737 0.316922 -2.00916 0
M  V30 232 C 26.7287 1.52424 -1.17408 0
M  V30 233 O 26.0217 1.90097 -0.239536 0
M  V30 234 C 26.2157 0.736119 -3.49737 0
M  V30 235 C 26.0447 -0.429036 -4.47649 0
M  V30 236 C 24.8147 -0.917311 -4.96904 0
M  V30 237 C 27.0127 -1.27016 -4.98369 0
M  V30 238 N 24.9947 -2.05046 -5.78644 0
M  V30 239 C 26.3657 -2.25097 -5.77695 0
M  V30 240 C 28.4207 -1.30188 -4.80578 0
M  V30 241 C 27.1237 -3.26114 -6.41126 0
M  V30 242 C 29.1497 -2.30057 -5.44819 0
M  V30 243 C 28.5117 -3.2687 -6.23968 0
M  V30 244 H 24.6107 0.0807535 -0.777819 0
M  V30 245 H 27.1947 -0.416434 -1.90194 0
M  V30 246 H 25.3657 1.43867 -3.60773 0
M  V30 247 H 27.0977 1.32078 -3.82541 0
M  V30 248 H 23.8527 -0.494248 -4.71014 0
M  V30 249 H 24.2767 -2.62108 -6.24202 0
M  V30 250 H 28.9187 -0.567163 -4.18979 0
M  V30 251 H 26.6367 -4.00512 -7.01866 0
M  V30 252 H 30.2227 -2.33271 -5.32988 0
M  V30 253 H 29.1027 -4.02883 -6.72796 0
M  V30 254 N 26.6058 1.57591 -0.0167156 0
M  V30 255 C 27.5558 2.05953 0.978137 0
M  V30 256 C 28.5398 0.957532 1.29306 0
M  V30 257 O 29.7318 1.22119 1.28125 0
M  V30 258 C 26.8608 2.58006 2.26468 0
M  V30 259 C 25.9468 3.75113 1.97867 0
M  V30 260 N 26.3378 4.86187 1.39486 0
M  V30 261 C 24.6358 3.83363 2.27924 0
M  V30 262 C 25.3368 5.67502 1.27735 0
M  V30 263 N 24.3128 5.14023 1.76866 0
M  V30 264 H 28.1148 2.89236 0.521522 0
M  V30 265 H 25.6288 1.61301 0.188596 0
M  V30 266 H 27.6258 2.90937 2.98599 0
M  V30 267 H 26.2858 1.76148 2.72767 0
M  V30 268 H 27.2968 5.06695 1.07147 0
M  V30 269 H 23.9738 3.1239 2.76982 0
M  V30 270 H 25.3638 6.66791 0.826978 0
M  V30 271 N 28.0839 -0.256276 1.55502 0
M  V30 272 C 29.0309 -1.31714 1.89526 0
M  V30 273 C 30.0009 -1.4828 0.748479 0
M  V30 274 O 31.1859 -1.62416 1.00128 0
M  V30 275 C 28.3259 -2.66933 2.18725 0
M  V30 276 C 27.4389 -2.58452 3.4616 0
M  V30 277 C 26.5739 -3.85961 3.64976 0
M  V30 278 C 25.6129 -3.72059 4.86044 0
M  V30 279 N 24.7499 -4.9144 5.01429 0
M  V30 280 H 29.5899 -1.01998 2.80001 0
M  V30 281 H 27.1269 -0.492413 1.38613 0
M  V30 282 H 29.0849 -3.4563 2.33657 0
M  V30 283 H 27.7149 -2.94816 1.31466 0
M  V30 284 H 26.7669 -1.71374 3.3961 0
M  V30 285 H 28.0789 -2.44085 4.34999 0
M  V30 286 H 27.2329 -4.73101 3.79816 0
M  V30 287 H 25.9719 -4.03215 2.74353 0
M  V30 288 H 24.9769 -2.83302 4.7119 0
M  V30 289 H 26.2019 -3.56309 5.78118 0
M  V30 290 H 24.1479 -5.09072 4.13741 0
M  V30 291 H 24.0649 -4.79668 5.84341 0
M  V30 292 H 25.3329 -5.80104 5.20672 0
M  V30 293 N 29.562 -1.4872 -0.521534 0
M  V30 294 C 30.492 -1.66771 -1.63431 0
M  V30 295 C 31.473 -0.516499 -1.62069 0
M  V30 296 O 32.658 -0.750013 -1.79132 0
M  V30 297 C 29.788 -1.71515 -3.01993 0
M  V30 298 C 28.742 -2.86222 -3.18216 0
M  V30 299 C 28.068 -2.76061 -4.57924 0
M  V30 300 C 29.368 -4.27419 -3.00184 0
M  V30 301 H 31.062 -2.59932 -1.48579 0
M  V30 302 H 28.608 -1.25089 -0.713358 0
M  V30 303 H 30.561 -1.82731 -3.7972 0
M  V30 304 H 29.285 -0.749393 -3.17886 0
M  V30 305 H 27.944 -2.74575 -2.42908 0
M  V30 306 H 27.592 -1.77437 -4.70665 0
M  V30 307 H 27.292 -3.53037 -4.69722 0
M  V30 308 H 28.816 -2.89256 -5.37739 0
M  V30 309 H 30.23 -4.39855 -3.67697 0
M  V30 310 H 28.627 -5.05458 -3.2347 0
M  V30 311 H 29.697 -4.43293 -1.96518 0
M  V30 312 N 31.0401 0.771051 -1.3745 0
M  V30 313 C 32.2701 1.55789 -1.35696 0
M  V30 314 C 32.6781 1.89107 0.0594523 0
M  V30 315 O 32.0211 1.51984 1.03183 0
M  V30 316 C 32.0831 2.89515 -2.13123 0
M  V30 317 C 31.7471 2.78829 -3.62082 0
M  V30 318 C 32.7441 2.49812 -4.5595 0
M  V30 319 C 30.4291 2.9683 -4.05213 0
M  V30 320 C 32.4231 2.38923 -5.90927 0
M  V30 321 C 30.1101 2.85562 -5.40276 0
M  V30 322 C 31.1081 2.56649 -6.32946 0
M  V30 323 O 30.7961 2.45408 -7.65526 0
M  V30 324 H 30.5281 0.489257 -0.466481 0
M  V30 325 H 33.0821 0.963446 -1.81403 0
M  V30 326 H 31.3121 3.51081 -1.62107 0
M  V30 327 H 33.0011 3.50915 -2.03994 0
M  V30 328 H 33.7671 2.3559 -4.23937 0
M  V30 329 H 29.6461 3.18335 -3.33442 0
M  V30 330 H 33.1901 2.16277 -6.63227 0
M  V30 331 H 29.0871 2.99351 -5.71891 0
M  V30 332 H 29.8551 2.60753 -7.75855 0
M  V30 333 N 32.5182 1.22032 0.997298 0
M  V30 334 C 33.9292 1.0397 1.55071 0
M  V30 335 C 34.2802 -0.398192 1.92117 0
M  V30 336 O 33.4052 -1.28254 1.74298 0
M  V30 337 C 34.0002 1.88109 2.81781 0
M  V30 338 C 32.5592 1.74357 3.33581 0
M  V30 339 C 31.7062 1.84846 2.06706 0
M  V30 340 H 34.6572 1.35941 0.818883 0
M  V30 341 H 34.6782 1.39589 3.53971 0
M  V30 342 H 34.1902 2.92754 2.54787 0
M  V30 343 H 32.2912 0.72427 3.65493 0
M  V30 344 H 32.4042 2.56772 4.04481 0
M  V30 345 H 30.7682 1.28238 2.20062 0
M  V30 346 H 31.5512 2.91014 1.82114 0
M  V30 347 N 33.9963 -1.19345 1.0293 0
M  V30 348 C 35.2453 -1.88363 0.721256 0
M  V30 349 C 35.5583 -1.80514 -0.753254 0
M  V30 350 O 36.7643 -2.44788 -1.17436 0
M  V30 351 C 35.2203 -3.37872 1.23978 0
M  V30 352 C 34.8283 -3.54278 2.74211 0
M  V30 353 C 36.5723 -4.12365 1.00775 0
M  V30 354 C 34.4793 -4.97682 3.19479 0
M  V30 355 H 33.4093 -0.705484 0.266098 0
M  V30 356 H 36.0603 -1.34928 1.24365 0
M  V30 357 H 34.4423 -3.90707 0.6453 0
M  V30 358 H 35.6163 -3.11769 3.39318 0
M  V30 359 H 33.9313 -2.93174 2.95699 0
M  V30 360 H 36.5283 -5.18119 1.32123 0
M  V30 361 H 36.8713 -4.16263 -0.0554308 0
M  V30 362 H 37.4043 -3.65668 1.56625 0
M  V30 363 H 34.1433 -4.98945 4.25128 0
M  V30 364 H 33.6633 -5.4095 2.591 0
M  V30 365 H 35.3423 -5.66337 3.12845 0
M  V30 366 N 35.4744 -0.807222 -1.35358 0
M  V30 367 C 36.4374 -0.223665 -2.28106 0
M  V30 368 C 37.4374 0.589354 -1.4961 0
M  V30 369 O 38.6274 0.407745 -1.69361 0
M  V30 370 C 35.7594 0.688149 -3.33882 0
M  V30 371 H 36.9524 -1.04169 -2.81227 0
M  V30 372 H 34.5054 -0.577921 -1.45223 0
M  V30 373 H 35.2404 1.52984 -2.85948 0
M  V30 374 H 35.0254 0.10687 -3.91954 0
M  V30 375 H 36.5154 1.09075 -4.03104 0
M  V30 376 N 36.9525 1.47285 -0.560781 0
M  V30 377 C 37.8845 2.28118 0.222438 0
M  V30 378 C 38.8975 1.37219 0.876056 0
M  V30 379 O 40.0865 1.62011 0.749307 0
M  V30 380 C 37.1865 3.1159 1.33285 0
M  V30 381 C 36.3595 4.30473 0.77534 0
M  V30 382 C 35.4185 4.95513 1.77069 0
M  V30 383 O 34.4445 5.53792 1.31539 0
M  V30 384 N 35.6465 4.90531 3.10418 0
M  V30 385 H 38.4115 2.95976 -0.470958 0
M  V30 386 H 35.9725 1.56955 -0.39709 0
M  V30 387 H 37.9645 3.51967 1.99752 0
M  V30 388 H 36.5345 2.45951 1.92943 0
M  V30 389 H 35.7545 3.94144 -0.0662113 0
M  V30 390 H 37.0425 5.07362 0.382272 0
M  V30 391 H 36.4405 4.44389 3.5005 0
M  V30 392 H 34.9975 5.34917 3.72434 0
M  V30 393 N 38.4306 0.297415 1.54768 0
M  V30 394 C 39.6786 -0.312295 1.99673 0
M  V30 395 C 39.9996 -1.54686 1.18732 0
M  V30 396 O 39.2696 -1.93854 0.282382 0
M  V30 397 H 37.8496 -0.118381 0.73756 0
M  V30 398 H 40.5116 0.407915 1.90583 0
M  V30 399 H 39.6076 -0.586813 3.06534 0
M  V30 400 N 39.9087 -1.5758 0.0250728 0
M  V30 401 C 41.1857 -1.82917 -0.692873 0
M  V30 402 C 41.5657 -0.908137 -1.90568 0
M  V30 403 O 40.9137 0.0372298 -2.2847 0
M  V30 404 C 41.1237 -3.32034 -1.07492 0
M  V30 405 C 42.4717 -3.98406 -1.46826 0
M  V30 406 O 43.4957 -3.36505 -1.16801 0
M  V30 407 O 42.3547 -5.07497 -2.02754 0
M  V30 408 H 39.4487 -0.754079 -0.33955 0
M  V30 409 H 41.9947 -1.69619 0.0524456 0
M  V30 410 H 40.7667 -3.90728 -0.211552 0
M  V30 411 H 40.3897 -3.50424 -1.87854 0
M  V30 412 N 41.3868 0.248026 -1.55636 0
M  V30 413 C 42.8028 0.596483 -1.48035 0
M  V30 414 C 43.0028 1.88386 -0.715039 0
M  V30 415 O 42.0588 2.51319 -0.243944 0
M  V30 416 C 43.3718 0.700258 -2.92433 0
M  V30 417 C 44.9198 0.792659 -3.02797 0
M  V30 418 C 45.3948 0.928005 -4.485 0
M  V30 419 N 46.8858 0.992903 -4.52433 0
M  V30 420 C 47.6208 1.11687 -5.62418 0
M  V30 421 N 47.1168 1.20645 -6.82214 0
M  V30 422 N 48.9098 1.14994 -5.50212 0
M  V30 423 H 41.0608 -0.597109 -2.03834 0
M  V30 424 H 43.3238 -0.205925 -0.925364 0
M  V30 425 H 43.0298 -0.175658 -3.51261 0
M  V30 426 H 42.9038 1.57255 -3.42857 0
M  V30 427 H 45.2908 1.65903 -2.4405 0
M  V30 428 H 45.3718 -0.104762 -2.55585 0
M  V30 429 H 45.0158 0.0661971 -5.07857 0
M  V30 430 H 44.9458 1.84045 -4.93391 0
M  V30 431 H 47.4368 0.935064 -3.66149 0
M  V30 432 H 47.7498 1.30008 -7.61786 0
M  V30 433 H 46.0948 1.17605 -6.84977 0
M  V30 434 H 49.2858 1.07643 -4.55555 0
M  V30 435 H 49.4588 1.24311 -6.35965 0
M  V30 436 N 42.8649 1.48995 0.513639 0
M  V30 437 C 43.7969 1.60836 1.63293 0
M  V30 438 C 44.8099 0.491701 1.55197 0
M  V30 439 O 45.9989 0.763238 1.6136 0
M  V30 440 C 43.0989 1.53731 3.02027 0
M  V30 441 C 42.2719 2.80715 3.35437 0
M  V30 442 C 41.3309 2.66837 4.53525 0
M  V30 443 O 40.3569 3.40753 4.55934 0
M  V30 444 N 41.5589 1.77539 5.52684 0
M  V30 445 H 44.3239 2.57366 1.53566 0
M  V30 446 H 41.8849 1.45925 0.701259 0
M  V30 447 H 43.8769 1.42118 3.78926 0
M  V30 448 H 42.4469 0.651092 3.05744 0
M  V30 449 H 41.6669 3.06772 2.47557 0
M  V30 450 H 42.9549 3.64927 3.54551 0
M  V30 451 H 42.3529 1.16719 5.53528 0
M  V30 452 H 40.9099 1.71856 6.28736 0
M  V30 453 N 44.343 -0.763751 1.37857 0
M  V30 454 C 45.568 -1.55805 1.36893 0
M  V30 455 C 45.993 -1.88054 -0.0416135 0
M  V30 456 O 45.351 -1.49825 -1.02089 0
M  V30 457 C 45.399 -2.84012 2.22192 0
M  V30 458 O 44.503 -3.78732 1.63204 0
M  V30 459 H 43.844 -0.471638 0.46739 0
M  V30 460 H 46.374 -0.944657 1.81487 0
M  V30 461 H 46.384 -3.33037 2.35691 0
M  V30 462 H 45.059 -2.59869 3.24716 0
M  V30 463 H 43.636 -3.37402 1.58791 0
M  V30 464 N 45.8211 -1.22559 -0.990812 0
M  V30 465 C 47.2321 -1.04791 -1.54518 0
M  V30 466 C 47.5831 0.387998 -1.92325 0
M  V30 467 O 46.7081 1.27328 -1.74976 0
M  V30 468 C 47.3031 -1.896 -2.80779 0
M  V30 469 C 45.8621 -1.76124 -3.32652 0
M  V30 470 C 45.0091 -1.8594 -2.05722 0
M  V30 471 H 47.9601 -1.36374 -0.811662 0
M  V30 472 H 47.9811 -1.41464 -3.53225 0
M  V30 473 H 47.4931 -2.94101 -2.53231 0
M  V30 474 H 45.5941 -0.743643 -3.65104 0
M  V30 475 H 45.7071 -2.58913 -4.03114 0
M  V30 476 H 44.0711 -1.29403 -2.19379 0
M  V30 477 H 44.8541 -2.91976 -1.80568 0
M  V30 478 N 47.2992 1.18797 -1.03562 0
M  V30 479 C 48.5482 1.87978 -0.731235 0
M  V30 480 C 48.8612 1.80911 0.743671 0
M  V30 481 O 50.0672 2.45407 1.16137 0
M  V30 482 C 48.5232 3.3721 -1.25768 0
M  V30 483 C 48.1312 3.52818 -2.76085 0
M  V30 484 C 49.8752 4.11825 -1.0296 0
M  V30 485 C 47.7822 4.9598 -3.22114 0
M  V30 486 H 46.7122 0.704063 -0.269835 0
M  V30 487 H 49.3632 1.34266 -1.25079 0
M  V30 488 H 47.7452 3.90359 -0.666011 0
M  V30 489 H 48.9192 3.09965 -3.40966 0
M  V30 490 H 47.2342 2.91602 -2.97249 0
M  V30 491 H 49.8312 5.17411 -1.34869 0
M  V30 492 H 50.1742 4.16287 0.0333546 0
M  V30 493 H 50.7072 3.64833 -1.58562 0
M  V30 494 H 47.4462 4.96684 -4.27768 0
M  V30 495 H 46.9662 5.39569 -2.61965 0
M  V30 496 H 48.6452 5.6467 -3.15844 0
M  V30 497 N 48.7773 0.814389 1.34928 0
M  V30 498 C 49.7253 0.218424 2.31572 0
M  V30 499 C 50.7193 -0.636128 1.57002 0
M  V30 500 O 51.9253 -0.52842 1.72069 0
M  V30 501 H 48.3003 0.0518799 0.750208 0
M  V30 502 H 50.2713 1.04852 2.79372 0
M  V30 503 C 49.0203 -0.61207 3.4227 0
M  V30 504 H 48.3433 0.0361578 3.99784 0
M  V30 505 H 49.7833 -0.995317 4.12152 0
M  V30 506 C 48.2423 -1.78087 2.85984 0
M  V30 507 O 48.7723 -2.8787 2.80168 0
M  V30 508 N 46.9783 -1.59488 2.42924 0
M  V30 509 H 46.5253 -0.701874 2.47854 0
M  V30 510 H 46.4833 -2.37846 2.05613 0
M  V30 511 N 50.2554 -1.46986 0.568584 0
M  V30 512 C 51.5044 -2.01646 0.0465894 0
M  V30 513 C 51.8174 -1.44721 -1.31587 0
M  V30 514 O 53.0234 -1.91113 -1.92842 0
M  V30 515 C 51.4794 -3.59885 0.032752 0
M  V30 516 C 51.0874 -4.25804 1.39266 0
M  V30 517 C 52.8314 -4.22255 -0.436038 0
M  V30 518 C 50.7384 -5.76081 1.33732 0
M  V30 519 H 49.6684 -0.753876 0.013647 0
M  V30 520 H 52.3194 -1.68864 0.718131 0
M  V30 521 H 50.7014 -3.8968 -0.704669 0
M  V30 522 H 51.8754 -4.07637 2.1487 0
M  V30 523 H 50.1904 -3.7547 1.80032 0
M  V30 524 H 52.7874 -5.32394 -0.49602 0
M  V30 525 H 53.1304 -3.90212 -1.45053 0
M  V30 526 H 53.6634 -3.97033 0.246877 0
M  V30 527 H 50.4024 -6.12761 2.32817 0
M  V30 528 H 49.9224 -5.96553 0.623267 0
M  V30 529 H 51.6014 -6.38518 1.0442 0
M  V30 530 N 51.7335 -0.305618 -1.54608 0
M  V30 531 C 52.9825 0.303098 -1.9941 0
M  V30 532 C 53.2955 1.54648 -1.19764 0
M  V30 533 O 54.5015 2.23007 -1.54855 0
M  V30 534 C 52.9575 0.590588 -3.55021 0
M  V30 535 C 52.5655 -0.634719 -4.43481 0
M  V30 536 C 54.3095 1.16025 -4.08336 0
M  V30 537 C 52.2165 -0.320126 -5.90533 0
M  V30 538 H 51.1465 0.117031 -0.744862 0
M  V30 539 H 53.7975 -0.415045 -1.78745 0
M  V30 540 H 52.1795 1.36845 -3.71604 0
M  V30 541 H 53.3535 -1.41079 -4.38672 0
M  V30 542 H 51.6685 -1.12333 -4.00962 0
M  V30 543 H 54.2655 1.40994 -5.15776 0
M  V30 544 H 54.6085 2.10397 -3.5922 0
M  V30 545 H 55.1415 0.443985 -3.95315 0
M  V30 546 H 51.8805 -1.23254 -6.43808 0
M  V30 547 H 51.4005 0.418579 -5.98338 0
M  V30 548 H 53.0795 0.0766241 -6.46955 0
M  V30 549 N 53.2116 1.57565 -0.0334293 0
M  V30 550 C 54.4366 1.96689 0.657895 0
M  V30 551 C 54.8616 0.910057 1.64619 0
M  V30 552 O 54.2196 -0.128598 1.80843 0
M  V30 553 C 54.2676 3.34905 1.33683 0
M  V30 554 O 53.3716 3.31574 2.45219 0
M  V30 555 H 52.7126 0.641205 0.172489 0
M  V30 556 H 55.2426 2.04372 -0.0965621 0
M  V30 557 H 55.2526 3.71234 1.69262 0
M  V30 558 H 53.9276 4.11366 0.612411 0
M  V30 559 H 52.5046 3.06968 2.11719 0
M  V30 560 N 54.6897 -0.239769 1.55765 0
M  V30 561 C 55.9147 -0.988373 1.82335 0
M  V30 562 C 56.3397 -1.77886 0.611421 0
M  V30 563 O 55.6977 -1.75889 -0.439639 0
M  V30 564 C 55.7457 -1.89627 3.06715 0
M  V30 565 O 54.8497 -2.98904 2.84131 0
M  V30 566 H 54.1907 -0.280858 0.601677 0
M  V30 567 H 56.7207 -0.258597 2.02959 0
M  V30 568 H 56.7307 -2.30957 3.36338 0
M  V30 569 H 55.4057 -1.31511 3.9456 0
M  V30 570 H 53.9827 -2.61651 2.65694 0
M  V30 571 N 56.1678 -1.49265 -0.50573 0
M  V30 572 C 57.0998 -1.617 -1.62437 0
M  V30 573 C 58.1128 -0.499924 -1.54934 0
M  V30 574 O 59.3018 -0.771785 -1.60953 0
M  V30 575 C 56.4018 -1.5533 -3.01207 0
M  V30 576 C 55.5748 -2.8249 -3.33943 0
M  V30 577 C 54.6338 -2.69238 -4.52103 0
M  V30 578 O 53.6598 -3.43167 -4.5412 0
M  V30 579 N 54.8618 -1.80468 -5.51735 0
M  V30 580 H 57.6268 -2.58177 -1.52199 0
M  V30 581 H 55.1878 -1.46294 -0.693511 0
M  V30 582 H 57.1798 -1.44125 -3.78167 0
M  V30 583 H 55.7498 -0.667297 -3.05395 0
M  V30 584 H 54.9698 -3.08081 -2.45926 0
M  V30 585 H 56.2578 -3.66802 -3.5261 0
M  V30 586 H 55.6558 -1.19653 -5.52901 0
M  V30 587 H 54.2128 -1.75188 -6.27816 0
M  V30 588 N 57.6459 0.756429 -1.3826 0
M  V30 589 C 58.6089 1.85176 -1.35065 0
M  V30 590 C 59.6089 1.58818 -0.251703 0
M  V30 591 O 60.7989 1.66615 -0.508433 0
M  V30 592 C 57.9309 3.22596 -1.10201 0
M  V30 593 H 59.1239 1.89417 -2.3251 0
M  V30 594 H 56.6769 0.95783 -1.23512 0
M  V30 595 H 57.4119 3.24025 -0.133504 0
M  V30 596 H 57.1969 3.43122 -1.89762 0
M  V30 597 H 58.6869 4.02673 -1.10654 0
M  V30 598 N 59.124 1.23083 0.984299 0
M  V30 599 C 60.37 1.06214 1.72761 0
M  V30 600 C 60.703 -0.400584 1.90024 0
M  V30 601 O 59.978 -1.29672 1.44967 0
M  V30 602 C 60.261 1.78375 3.12817 0
M  V30 603 C 60.114 3.32296 3.03149 0
M  V30 604 C 61.433 1.54309 4.12161 0
M  V30 605 H 58.552 0.387251 0.627061 0
M  V30 606 H 61.194 1.51536 1.14616 0
M  V30 607 H 59.344 1.39848 3.62457 0
M  V30 608 H 61.016 3.8032 2.61064 0
M  V30 609 H 59.259 3.6153 2.39747 0
M  V30 610 H 59.93 3.77972 4.02295 0
M  V30 611 H 62.406 1.87791 3.71314 0
M  V30 612 H 61.282 2.07281 5.08258 0
M  V30 613 H 61.543 0.477572 4.39513 0
M  V30 614 N 60.6021 -1.18246 1.0419 0
M  V30 615 C 61.8321 -1.91916 0.764961 0
M  V30 616 C 62.2401 -1.76485 -0.681898 0
M  V30 617 O 61.5831 -1.09275 -1.47664 0
M  V30 618 C 61.6451 -3.4373 1.05309 0
M  V30 619 C 61.3091 -3.8294 2.4941 0
M  V30 620 C 62.3061 -3.86621 3.47592 0
M  V30 621 C 59.9911 -4.142 2.84155 0
M  V30 622 C 61.9851 -4.21013 4.78568 0
M  V30 623 C 59.6721 -4.48262 4.15337 0
M  V30 624 C 60.6701 -4.51645 5.12353 0
M  V30 625 O 60.3581 -4.84911 6.41183 0
M  V30 626 H 60.0901 -0.61606 0.278292 0
M  V30 627 H 62.6441 -1.50947 1.39299 0
M  V30 628 H 60.8741 -3.84946 0.367933 0
M  V30 629 H 62.5631 -3.9865 0.763752 0
M  V30 630 H 63.3291 -3.62607 3.22089 0
M  V30 631 H 59.2081 -4.10743 2.09311 0
M  V30 632 H 62.7521 -4.23568 5.54289 0
M  V30 633 H 58.6491 -4.71737 4.40607 0
M  V30 634 H 59.4171 -5.02809 6.45852 0
M  V30 635 N 62.0802 -0.821533 -1.34494 0
M  V30 636 C 63.3052 -0.420873 -2.03085 0
M  V30 637 C 63.7302 0.964915 -1.61465 0
M  V30 638 O 63.0882 1.62763 -0.798607 0
M  V30 639 C 63.1362 -0.529414 -3.56693 0
M  V30 640 O 62.2402 0.451302 -4.09923 0
M  V30 641 H 61.5812 -0.173489 -0.640935 0
M  V30 642 H 64.1112 -1.11157 -1.71771 0
M  V30 643 H 64.1212 -0.404671 -4.05988 0
M  V30 644 H 62.7962 -1.54014 -3.86332 0
M  V30 645 H 61.3732 0.285558 -3.71805 0
M  V30 646 N 63.5583 1.46682 -0.576371 0
M  V30 647 C 64.9693 1.86112 -0.148091 0
M  V30 648 C 65.3203 1.48073 1.2872 0
M  V30 649 O 64.4453 0.892656 1.97131 0
M  V30 650 C 65.0403 3.37786 -0.261982 0
M  V30 651 C 63.5993 3.76235 0.111384 0
M  V30 652 C 62.7463 2.70713 -0.60083 0
M  V30 653 H 65.6973 1.37927 -0.78497 0
M  V30 654 H 65.7183 3.77007 0.514364 0
M  V30 655 H 65.2303 3.6544 -1.30671 0
M  V30 656 H 63.3313 3.54198 1.15649 0
M  V30 657 H 63.4443 4.78391 -0.26052 0
M  V30 658 H 61.8083 2.54666 -0.0417783 0
M  V30 659 H 62.5913 3.01208 -1.64708 0
M  V30 660 N 65.0364 0.313813 1.54444 0
M  V30 661 C 66.2614 -0.296681 2.05267 0
M  V30 662 C 66.6864 -1.45757 1.18897 0
M  V30 663 O 66.0444 -1.80239 0.195886 0
M  V30 664 C 66.0924 -0.71831 3.53373 0
M  V30 665 O 65.1964 -1.82175 3.69981 0
M  V30 666 H 64.5374 -0.0554061 0.661684 0
M  V30 667 H 67.0674 0.459387 1.99376 0
M  V30 668 H 67.0774 -1.00364 3.95463 0
M  V30 669 H 65.7524 0.130821 4.15694 0
M  V30 670 H 64.3294 -1.53598 3.39797 0
M  V30 671 N 66.5145 -1.57545 0.0417849 0
M  V30 672 C 67.4445 -2.14009 -0.933929 0
M  V30 673 C 68.4255 -1.05938 -1.33083 0
M  V30 674 O 69.6105 -1.33833 -1.40721 0
M  V30 675 C 66.7405 -2.67747 -2.21199 0
M  V30 676 C 65.6945 -3.80718 -1.95544 0
M  V30 677 C 65.0205 -4.20935 -3.29724 0
M  V30 678 C 66.3205 -5.06258 -1.28452 0
M  V30 679 H 68.0145 -2.95788 -0.463645 0
M  V30 680 H 65.5605 -1.42285 -0.221573 0
M  V30 681 H 67.5135 -3.05886 -2.89848 0
M  V30 682 H 66.2375 -1.83147 -2.70416 0
M  V30 683 H 64.8965 -3.43037 -1.2931 0
M  V30 684 H 64.5445 -3.33298 -3.76724 0
M  V30 685 H 64.2445 -4.9707 -3.13361 0
M  V30 686 H 65.7685 -4.61666 -3.9962 0
M  V30 687 H 67.1825 -5.41903 -1.8712 0
M  V30 688 H 65.5795 -5.87475 -1.22445 0
M  V30 689 H 66.6495 -4.84207 -0.259219 0
M  V30 690 N 67.9926 0.231505 -1.5589 0
M  V30 691 C 68.9246 1.31006 -1.8807 0
M  V30 692 C 69.9376 1.43539 -0.768145 0
M  V30 693 O 71.1266 1.44614 -1.04638 0
M  V30 694 C 68.2266 2.68688 -2.06543 0
M  V30 695 C 67.3996 2.78228 -3.37502 0
M  V30 696 C 66.4586 3.96857 -3.4553 0
M  V30 697 O 65.4846 3.85662 -4.18633 0
M  V30 698 N 66.6866 5.1072 -2.75944 0
M  V30 699 H 69.4516 1.03731 -2.81176 0
M  V30 700 H 67.0126 0.421573 -1.56315 0
M  V30 701 H 69.0046 3.46412 -2.09239 0
M  V30 702 H 67.5746 2.88605 -1.20109 0
M  V30 703 H 66.7946 1.87059 -3.46991 0
M  V30 704 H 68.0826 2.81564 -4.23791 0
M  V30 705 H 67.4806 5.2271 -2.16311 0
M  V30 706 H 66.0376 5.86523 -2.84314 0
M  V30 707 N 69.4707 1.49531 0.497807 0
M  V30 708 C 70.8817 1.52344 1.07927 0
M  V30 709 C 71.2327 0.311469 1.93712 0
M  V30 710 O 70.3577 -0.578405 2.08527 0
M  V30 711 C 70.9527 2.76062 1.96405 0
M  V30 712 C 69.5117 2.81643 2.49709 0
M  V30 713 C 68.6587 2.46299 1.27404 0
M  V30 714 H 71.6097 1.56182 0.281576 0
M  V30 715 H 71.6307 2.56405 2.81135 0
M  V30 716 H 71.1427 3.64254 1.33943 0
M  V30 717 H 69.2437 1.97739 3.15801 0
M  V30 718 H 69.3567 3.83891 2.86643 0
M  V30 719 H 67.7207 1.98148 1.60029 0
M  V30 720 H 68.5037 3.36769 0.66645 0
M  V30 721 N 70.9488 -0.749086 1.3866 0
M  V30 722 C 71.8788 -1.8764 1.38973 0
M  V30 723 C 72.8598 -1.68178 0.255004 0
M  V30 724 O 74.0448 -1.88704 0.458754 0
M  V30 725 C 71.1748 -3.25222 1.21851 0
M  V30 726 C 70.1288 -3.59295 2.32575 0
M  V30 727 C 69.4548 -4.95663 2.00555 0
M  V30 728 C 70.7548 -3.63709 3.7485 0
M  V30 729 H 72.4488 -1.87635 2.3331 0
M  V30 730 H 69.9948 -0.901329 1.12303 0
M  V30 731 H 71.9478 -4.03746 1.20695 0
M  V30 732 H 70.6718 -3.25719 0.239775 0
M  V30 733 H 69.3308 -2.83093 2.32925 0
M  V30 734 H 68.9788 -4.92724 1.01154 0
M  V30 735 H 68.6788 -5.19429 2.74714 0
M  V30 736 H 70.2028 -5.7656 2.01024 0
M  V30 737 H 71.6168 -4.32338 3.76506 0
M  V30 738 H 70.0138 -3.98986 4.48252 0
M  V30 739 H 71.0838 -2.63834 4.06841 0
M  V30 740 N 72.4269 -1.23603 -0.977757 0
M  V30 741 C 73.3369 -1.03632 -2.1047 0
M  V30 742 C 74.3529 0.0199435 -1.73989 0
M  V30 743 O 75.5289 -0.176076 -2.00629 0
M  V30 744 C 72.5939 -0.63276 -3.40877 0
M  V30 745 C 71.6549 -1.76437 -3.91367 0
M  V30 746 C 70.8879 -1.37997 -5.15551 0
M  V30 747 O 71.1109 -0.265357 -5.69782 0
M  V30 748 O 70.0449 -2.20201 -5.60174 0
M  V30 749 H 73.8709 -1.98086 -2.30208 0
M  V30 750 H 71.4559 -1.02332 -1.08851 0
M  V30 751 H 73.3379 -0.418761 -4.19314 0
M  V30 752 H 72.0129 0.282754 -3.22463 0
M  V30 753 H 70.9199 -2.03304 -3.14036 0
M  V30 754 H 72.2529 -2.6583 -4.14241 0
M  V30 755 N 73.905 1.17692 -1.04816 0
M  V30 756 C 74.835 2.23777 -0.666791 0
M  V30 757 C 75.816 1.66796 0.33361 0
M  V30 758 O 77.001 1.93039 0.212042 0
M  V30 759 C 74.131 3.47281 -0.0367933 0
M  V30 760 C 73.085 4.17059 -0.961546 0
M  V30 761 C 72.411 5.34342 -0.195626 0
M  V30 762 C 73.711 4.69713 -2.28402 0
M  V30 763 H 75.405 2.55933 -1.55367 0
M  V30 764 H 72.951 1.23019 -0.748484 0
M  V30 765 H 74.904 4.20706 0.241775 0
M  V30 766 H 73.628 3.14381 0.885004 0
M  V30 767 H 72.287 3.45541 -1.22462 0
M  V30 768 H 71.935 4.97692 0.728816 0
M  V30 769 H 71.635 5.81966 -0.811775 0
M  V30 770 H 73.159 6.10553 0.0757473 0
M  V30 771 H 74.573 5.34794 -2.06563 0
M  V30 772 H 72.97 5.279 -2.8538 0
M  V30 773 H 74.04 3.86726 -2.92525 0
M  V30 774 N 75.3831 0.828654 1.34056 0
M  V30 775 C 76.6081 0.431637 2.02859 0
M  V30 776 C 77.0331 -0.956339 1.61975 0
M  V30 777 O 76.3911 -1.62338 0.807228 0
M  V30 778 C 76.4391 0.548323 3.56407 0
M  V30 779 O 75.5431 -0.429556 4.10157 0
M  V30 780 H 74.8841 0.176886 0.640006 0
M  V30 781 H 77.4141 1.12066 1.71179 0
M  V30 782 H 77.4241 0.426196 4.05768 0
M  V30 783 H 76.0991 1.5606 3.8551 0
M  V30 784 H 74.6761 -0.265836 3.71951 0
M  V30 785 N 76.8612 -1.46375 0.584142 0
M  V30 786 C 78.0912 -2.06461 0.0758195 0
M  V30 787 C 78.4992 -1.43322 -1.23512 0
M  V30 788 O 77.8422 -0.533216 -1.75791 0
M  V30 789 C 77.9042 -3.59131 -0.162773 0
M  V30 790 C 77.5682 -4.4447 1.06279 0
M  V30 791 C 78.5652 -4.80918 1.97519 0
M  V30 792 C 76.2502 -4.85584 1.28504 0
M  V30 793 C 78.2442 -5.57309 3.09331 0
M  V30 794 C 75.9312 -5.61734 2.4062 0
M  V30 795 C 76.9292 -5.9751 3.30863 0
M  V30 796 O 76.6172 -6.72121 4.41032 0
M  V30 797 H 76.3492 -0.673745 0.0551725 0
M  V30 798 H 78.9032 -1.88969 0.804984 0
M  V30 799 H 77.1332 -3.74936 -0.946565 0
M  V30 800 H 78.8222 -4.0114 -0.619782 0
M  V30 801 H 79.5882 -4.49732 1.81565 0
M  V30 802 H 75.4672 -4.57187 0.591702 0
M  V30 803 H 79.0112 -5.85152 3.79793 0
M  V30 804 H 74.9082 -5.92334 2.56537 0
M  V30 805 H 75.6762 -6.90547 4.39417 0
M  V30 806 N 78.3393 -0.321999 -1.54275 0
M  V30 807 C 79.2493 0.553631 -2.27974 0
M  V30 808 C 80.2653 1.13054 -1.32268 0
M  V30 809 O 81.4413 1.15084 -1.6528 0
M  V30 810 C 78.5063 1.69927 -3.02201 0
M  V30 811 C 77.5673 1.15433 -4.1349 0
M  V30 812 C 76.8003 2.24537 -4.84168 0
M  V30 813 O 77.0233 3.44852 -4.5435 0
M  V30 814 O 75.9573 1.90044 -5.7111 0
M  V30 815 H 79.7833 -0.0448345 -3.03667 0
M  V30 816 H 77.3683 -0.0877418 -1.49142 0
M  V30 817 H 79.2503 2.3663 -3.48689 0
M  V30 818 H 77.9253 2.28395 -2.29385 0
M  V30 819 H 76.8323 0.452436 -3.71354 0
M  V30 820 H 78.1653 0.614805 -4.88345 0
M  V30 821 N 79.8174 1.5752 -0.0501392 0
M  V30 822 C 80.7804 2.1037 0.909786 0
M  V30 823 C 81.7804 1.02308 1.24056 0
M  V30 824 O 82.9704 1.28385 1.17741 0
M  V30 825 C 80.1024 2.58708 2.21998 0
M  V30 826 H 81.2954 2.96479 0.451665 0
M  V30 827 H 78.8484 1.55038 0.198248 0
M  V30 828 H 79.5834 1.75989 2.72394 0
M  V30 829 H 79.3684 3.37675 1.99295 0
M  V30 830 H 80.8584 2.99747 2.9076 0
M  V30 831 N 81.2955 -0.223234 1.56011 0
M  V30 832 C 82.5355 -0.954962 1.8072 0
M  V30 833 C 82.8995 -1.81598 0.623384 0
M  V30 834 O 84.1005 -2.58132 0.749745 0
M  V30 835 C 82.3715 -1.77313 3.10314 0
M  V30 836 S 83.9305 -2.56073 3.56332 0
M  V30 837 H 80.7485 -0.320812 0.634508 0
M  V30 838 H 83.3505 -0.220686 1.9425 0
M  V30 839 H 82.0545 -1.13071 3.94516 0
M  V30 840 H 81.5855 -2.54974 2.99586 0
M  V30 841 H 83.6005 -3.79619 3.19536 0
M  V30 842 N 82.7736 -1.49793 -0.48987 0
M  V30 843 C 83.7066 -1.61898 -1.60823 0
M  V30 844 C 84.6846 -0.467651 -1.5573 0
M  V30 845 O 85.8686 -0.684682 -1.75626 0
M  V30 846 C 82.9956 -1.58422 -2.99366 0
M  V30 847 C 82.0416 -2.78889 -3.22682 0
M  V30 848 S 82.8746 -4.40429 -3.04602 0
M  V30 849 C 84.0306 -4.39617 -4.4552 0
M  V30 850 H 84.2636 -2.56502 -1.50312 0
M  V30 851 H 81.7966 -1.38822 -0.675849 0
M  V30 852 H 83.7546 -1.57103 -3.79248 0
M  V30 853 H 82.4156 -0.650866 -3.07283 0
M  V30 854 H 81.6086 -2.72708 -4.23847 0
M  V30 855 H 81.2106 -2.77678 -2.50541 0
M  V30 856 H 83.5026 -4.12022 -5.37814 0
M  V30 857 H 84.4456 -5.41097 -4.56749 0
M  V30 858 H 84.8536 -3.69554 -4.2672 0
M  V30 859 N 84.2517 0.741722 -1.39055 0
M  V30 860 C 85.4767 1.53607 -1.39354 0
M  V30 861 C 85.9017 1.88096 0.0116905 0
M  V30 862 O 85.2597 1.5143 0.996924 0
M  V30 863 C 85.3077 2.80441 -2.26682 0
M  V30 864 O 84.4117 3.76088 -1.69208 0
M  V30 865 H 83.7527 0.464142 -0.474835 0
M  V30 866 H 86.2827 0.915665 -1.82967 0
M  V30 867 H 86.2927 3.29246 -2.40959 0
M  V30 868 H 84.9677 2.5467 -3.2881 0
M  V30 869 H 83.5447 3.34833 -1.64138 0
M  V30 870 N 85.7298 1.2412 0.971189 0
M  V30 871 C 86.6598 1.05508 2.08304 0
M  V30 872 C 87.6408 -0.0308864 1.70072 0
M  V30 873 O 88.8258 0.135521 1.93727 0
M  V30 874 C 85.9558 0.655365 3.4106 0
M  V30 875 C 84.9098 1.68971 3.93234 0
M  V30 876 C 84.2358 1.14516 5.22293 0
M  V30 877 C 85.5358 3.08487 4.21465 0
M  V30 878 H 87.2298 1.98507 2.24132 0
M  V30 879 H 84.7758 0.955821 1.07704 0
M  V30 880 H 86.7288 0.51217 4.18276 0
M  V30 881 H 85.4528 -0.31032 3.25122 0
M  V30 882 H 84.1118 1.82106 3.18171 0
M  V30 883 H 83.7598 0.170189 5.02712 0
M  V30 884 H 83.4598 1.83635 5.58168 0
M  V30 885 H 84.9838 1.01401 6.02121 0
M  V30 886 H 86.3978 2.98601 4.89398 0
M  V30 887 H 84.7948 3.74926 4.68562 0
M  V30 888 H 85.8648 3.56787 3.28376 0
M  V30 889 N 87.2079 -1.17134 1.05439 0
M  V30 890 C 88.4329 -1.91913 0.786396 0
M  V30 891 C 88.8579 -1.7643 -0.652234 0
M  V30 892 O 88.2159 -1.08372 -1.45345 0
M  V30 893 C 88.2639 -3.40921 1.17497 0
M  V30 894 O 87.3679 -4.11244 0.308589 0
M  V30 895 H 86.7089 -0.598215 0.288158 0
M  V30 896 H 89.2389 -1.48457 1.4079 0
M  V30 897 H 89.2489 -3.91668 1.14281 0
M  V30 898 H 87.9239 -3.5151 2.22292 0
M  V30 899 H 86.5009 -3.70731 0.40157 0
M  V30 900 N 88.686 -0.835752 -1.33615 0
M  V30 901 C 89.935 -0.426289 -1.97144 0
M  V30 902 C 90.248 1.01912 -1.66953 0
M  V30 903 O 91.454 1.53311 -2.24072 0
M  V30 904 C 89.91 -0.711321 -3.52801 0
M  V30 905 C 89.518 -2.1712 -3.91871 0
M  V30 906 C 91.262 -0.368654 -4.22896 0
M  V30 907 C 89.169 -2.40044 -5.40493 0
M  V30 908 H 88.099 -0.15567 -0.737755 0
M  V30 909 H 90.75 -1.0239 -1.52278 0
M  V30 910 H 89.132 -0.0433766 -3.95976 0
M  V30 911 H 90.306 -2.87936 -3.59763 0
M  V30 912 H 88.621 -2.47654 -3.34749 0
M  V30 913 H 91.218 -0.517601 -5.32189 0
M  V30 914 H 91.561 0.688078 -4.10574 0
M  V30 915 H 92.094 -0.991702 -3.8524 0
M  V30 916 H 88.833 -3.44271 -5.57815 0
M  V30 917 H 88.353 -1.73785 -5.74072 0
M  V30 918 H 90.032 -2.23042 -6.0734 0
M  V30 919 N 90.1641 1.46063 -0.591896 0
M  V30 920 C 91.3921 2.06717 -0.0868936 0
M  V30 921 C 91.8071 1.43916 1.22203 0
M  V30 922 O 91.1641 0.547698 1.74088 0
M  V30 923 C 91.2151 3.6142 0.0758725 0
M  V30 924 O 90.9361 4.21874 -1.18126 0
M  V30 925 C 92.4371 4.39025 0.61416 0
M  V30 926 H 89.6571 0.668162 -0.0616518 0
M  V30 927 H 92.2011 1.8755 -0.815175 0
M  V30 928 H 90.3561 3.79983 0.754413 0
M  V30 929 H 90.7701 5.14861 -1.00092 0
M  V30 930 H 92.2441 5.4783 0.677193 0
M  V30 931 H 92.7211 4.07708 1.63312 0
M  V30 932 H 93.3271 4.2529 -0.0298142 0
M  V30 933 N 91.6422 0.330177 1.54103 0
M  V30 934 C 92.5902 -0.548226 2.26047 0
M  V30 935 C 93.5842 -1.11309 1.27698 0
M  V30 936 O 94.7902 -1.06036 1.45452 0
M  V30 937 H 91.1652 -0.195456 0.726155 0
M  V30 938 H 93.1362 0.0807567 2.98291 0
M  V30 939 C 91.8852 -1.69415 3.03634 0
M  V30 940 H 91.2082 -1.26876 3.79134 0
M  V30 941 H 92.6482 -2.28423 3.5721 0
M  V30 942 C 91.1072 -2.61569 2.12328 0
M  V30 943 O 91.6372 -3.63462 1.7105 0
M  V30 944 N 89.8432 -2.29952 1.77681 0
M  V30 945 H 89.3902 -1.47134 2.11446 0
M  V30 946 H 89.3482 -2.91871 1.16869 0
M  V30 947 N 93.1203 -1.57491 0.0584922 0
M  V30 948 C 94.0683 -2.13148 -0.931168 0
M  V30 949 C 95.0623 -1.06507 -1.31729 0
M  V30 950 O 96.2683 -1.24906 -1.29609 0
M  V30 951 H 92.6433 -0.68137 -0.31818 0
M  V30 952 H 94.6143 -2.95187 -0.436707 0
M  V30 953 C 93.3633 -2.69732 -2.19408 0
M  V30 954 H 92.6863 -3.51454 -1.90578 0
M  V30 955 H 94.1263 -3.12287 -2.86798 0
M  V30 956 C 92.5853 -1.63855 -2.94369 0
M  V30 957 O 93.1153 -1.05565 -3.87581 0
M  V30 958 N 91.3213 -1.35202 -2.57233 0
M  V30 959 H 90.8683 -1.82791 -1.81508 0
M  V30 960 H 90.8263 -0.645922 -3.07693 0
M  V30 961 N 94.5984 0.214957 -1.56127 0
M  V30 962 C 95.8464 0.936518 -1.79091 0
M  V30 963 C 96.1674 1.84606 -0.628148 0
M  V30 964 O 95.4374 1.92664 0.35462 0
M  V30 965 H 94.0174 0.3488 -0.660566 0
M  V30 966 H 96.6794 0.22523 -1.93594 0
M  V30 967 H 95.7754 1.53943 -2.71492 0
M  V30 968 N 96.0765 1.50051 0.48192 0
M  V30 969 C 97.0265 1.64512 1.5786 0
M  V30 970 C 98.0105 0.500073 1.52932 0
M  V30 971 O 99.2025 0.753964 1.60139 0
M  V30 972 C 96.3315 1.73263 2.9637 0
M  V30 973 C 95.4175 2.93409 3.06222 0
M  V30 974 N 95.8085 4.17236 2.85915 0
M  V30 975 C 94.1065 2.91742 3.37346 0
M  V30 976 C 94.8075 4.981 3.00451 0
M  V30 977 N 93.7835 4.3184 3.30174 0
M  V30 978 H 97.5855 2.57955 1.40842 0
M  V30 979 H 95.0995 1.47086 0.688439 0
M  V30 980 H 97.0965 1.81724 3.75209 0
M  V30 981 H 95.7565 0.809711 3.14442 0
M  V30 982 H 96.7675 4.46909 2.6171 0
M  V30 983 H 93.4445 2.08907 3.61475 0
M  V30 984 H 94.8345 6.06532 2.89082 0
M  V30 985 N 97.5546 -0.734337 1.39446 0
M  V30 986 C 98.7796 -1.52866 1.40167 0
M  V30 987 C 99.2046 -1.881 -0.00171513 0
M  V30 988 O 98.5626 -1.51957 -0.988879 0
M  V30 989 C 98.6106 -2.79235 2.28167 0
M  V30 990 O 97.7146 -3.75185 1.71201 0
M  V30 991 H 97.0556 -0.461618 0.477289 0
M  V30 992 H 99.5856 -0.905949 1.8345 0
M  V30 993 H 99.5956 -3.27963 2.42702 0
M  V30 994 H 98.2706 -2.52923 3.30156 0
M  V30 995 H 96.8476 -3.33958 1.65912 0
M  V30 996 N 99.0327 -1.24633 -0.964593 0
M  V30 997 C 100.279 -1.08949 -1.71049 0
M  V30 998 C 100.612 0.370302 -1.90637 0
M  V30 999 O 99.8867 1.27349 -1.47011 0
M  V30 1000 C 100.17 -1.83329 -3.0994 0
M  V30 1001 C 100.023 -3.37077 -2.97824 0
M  V30 1002 C 101.342 -1.60846 -4.09654 0
M  V30 1003 H 98.4607 -0.397178 -0.620821 0
M  V30 1004 H 101.103 -1.5334 -1.12191 0
M  V30 1005 H 99.2527 -1.45597 -3.60186 0
M  V30 1006 H 100.925 -3.84425 -2.5498 0
M  V30 1007 H 99.1677 -3.65298 -2.33965 0
M  V30 1008 H 99.8387 -3.84324 -3.96231 0
M  V30 1009 H 102.315 -1.93674 -3.68279 0
M  V30 1010 H 101.191 -2.1534 -5.04896 0
M  V30 1011 H 101.452 -0.547434 -4.38698 0
M  V30 1012 N 100.511 1.16574 -1.06058 0
M  V30 1013 C 101.443 2.2045 -0.627239 0
M  V30 1014 C 102.456 1.59752 0.313534 0
M  V30 1015 O 103.645 1.78192 0.104896 0
M  V30 1016 C 100.745 3.3875 0.100974 0
M  V30 1017 C 99.9178 4.29008 -0.852687 0
M  V30 1018 C 98.9768 5.25944 -0.164152 0
M  V30 1019 O 98.0028 5.63535 -0.801047 0
M  V30 1020 N 99.2048 5.70075 1.09518 0
M  V30 1021 H 101.97 2.58249 -1.52077 0
M  V30 1022 H 99.5308 1.3156 -0.943594 0
M  V30 1023 H 101.523 4.00638 0.57194 0
M  V30 1024 H 100.093 2.99476 0.89628 0
M  V30 1025 H 99.3128 3.64419 -1.50308 0
M  V30 1026 H 100.601 4.86195 -1.49972 0
M  V30 1027 H 99.9988 5.41624 1.6328 0
M  V30 1028 H 98.5558 6.34067 1.51006 0
M  V30 1029 N 101.989 0.842826 1.3317 0
M  V30 1030 C 103.235 0.441099 1.97945 0
M  V30 1031 C 103.568 -0.998024 1.66593 0
M  V30 1032 O 102.843 -1.69839 0.947898 0
M  V30 1033 C 103.126 0.666841 3.53872 0
M  V30 1034 C 102.979 2.15352 3.94897 0
M  V30 1035 C 104.298 0.115544 4.39948 0
M  V30 1036 H 101.417 0.161739 0.719034 0
M  V30 1037 H 104.059 1.05907 1.57746 0
M  V30 1038 H 102.209 0.140828 3.88245 0
M  V30 1039 H 103.881 2.7447 3.70761 0
M  V30 1040 H 102.124 2.63653 3.44484 0
M  V30 1041 H 102.795 2.26221 5.03516 0
M  V30 1042 H 105.271 0.565213 4.12243 0
M  V30 1043 H 104.147 0.303152 5.48062 0
M  V30 1044 H 104.408 -0.980935 4.3108 0
M  V30 1045 N 103.467 -1.45747 0.599634 0
M  V30 1046 C 104.744 -1.95585 0.0240846 0
M  V30 1047 C 105.124 -1.54217 -1.44154 0
M  V30 1048 O 104.472 -0.800903 -2.14004 0
M  V30 1049 C 104.682 -3.48344 0.21385 0
M  V30 1050 C 106.03 -4.24504 0.0904902 0
M  V30 1051 O 107.054 -3.55911 0.143558 0
M  V30 1052 O 105.913 -5.46491 -0.0310766 0
M  V30 1053 H 103.007 -0.82602 -0.0402478 0
M  V30 1054 H 105.553 -1.55951 0.669139 0
M  V30 1055 H 104.325 -3.71397 1.23206 0
M  V30 1056 H 103.948 -3.9485 -0.466842 0
M  V30 1057 N 104.945 -0.338344 -1.53925 0
M  V30 1058 C 106.192 0.259758 -2.00827 0
M  V30 1059 C 106.52 1.50973 -1.22628 0
M  V30 1060 O 105.775 1.93379 -0.300509 0
M  V30 1061 C 106.074 0.62448 -3.51902 0
M  V30 1062 C 105.74 -0.528006 -4.47798 0
M  V30 1063 C 104.402 -0.844298 -4.73735 0
M  V30 1064 C 106.754 -1.30143 -5.0469 0
M  V30 1065 C 104.082 -1.93648 -5.53821 0
M  V30 1066 C 106.434 -2.38382 -5.85967 0
M  V30 1067 C 105.098 -2.70576 -6.10201 0
M  V30 1068 H 104.368 0.0950523 -0.734878 0
M  V30 1069 H 107.015 -0.465182 -1.85764 0
M  V30 1070 H 105.32 1.43006 -3.64769 0
M  V30 1071 H 107.017 1.09905 -3.85645 0
M  V30 1072 H 103.607 -0.271421 -4.2774 0
M  V30 1073 H 107.791 -1.07033 -4.84621 0
M  V30 1074 H 103.047 -2.19021 -5.70824 0
M  V30 1075 H 107.221 -2.98746 -6.29066 0
M  V30 1076 H 104.848 -3.55333 -6.72044 0
M  V30 1077 N 106.423 1.57458 -0.0668435 0
M  V30 1078 C 107.371 2.13639 0.919851 0
M  V30 1079 C 108.365 1.07204 1.31163 0
M  V30 1080 O 109.571 1.25591 1.28945 0
M  V30 1081 H 105.946 0.683048 0.314562 0
M  V30 1082 H 107.917 2.95415 0.421047 0
M  V30 1083 C 106.666 2.70892 2.17975 0
M  V30 1084 H 105.989 3.5246 1.88711 0
M  V30 1085 H 107.429 3.13803 2.85138 0
M  V30 1086 C 105.888 1.65414 2.93496 0
M  V30 1087 O 106.418 1.07619 3.87015 0
M  V30 1088 N 104.624 1.36564 2.56512 0
M  V30 1089 H 104.171 1.83751 1.80536 0
M  V30 1090 H 104.129 0.66223 3.07347 0
M  V30 1091 N 107.901 -0.206675 1.56239 0
M  V30 1092 C 109.178 -0.954051 1.70755 0
M  V30 1093 C 109.558 -2.01841 0.618353 0
M  V30 1094 O 108.906 -2.25444 -0.372434 0
M  V30 1095 C 109.116 -1.551 3.12642 0
M  V30 1096 C 110.464 -2.03757 3.72516 0
M  V30 1097 O 111.488 -1.64965 3.15698 0
M  V30 1098 O 110.347 -2.75103 4.72208 0
M  V30 1099 H 107.441 -0.446636 0.696021 0
M  V30 1100 H 109.987 -0.197283 1.68549 0
M  V30 1101 H 108.759 -0.783212 3.83382 0
M  V30 1102 H 108.382 -2.37291 3.19028 0
M  V30 1103 N 109.379 -1.50304 -0.473955 0
M  V30 1104 C 110.604 -1.65175 -1.25427 0
M  V30 1105 C 111.029 -0.333673 -1.85117 0
M  V30 1106 O 110.387 0.702114 -1.67153 0
M  V30 1107 C 110.435 -2.74295 -2.34082 0
M  V30 1108 O 109.539 -2.35349 -3.38651 0
M  V30 1109 H 108.88 -0.551944 -0.369126 0
M  V30 1110 H 111.41 -1.96662 -0.564364 0
M  V30 1111 H 111.42 -2.97285 -2.79438 0
M  V30 1112 H 110.095 -3.69959 -1.90008 0
M  V30 1113 H 108.672 -2.22794 -2.99027 0
M  V30 1114 N 110.857 0.726932 -1.39834 0
M  V30 1115 C 112.134 1.47902 -1.28001 0
M  V30 1116 C 112.514 2.1083 0.106789 0
M  V30 1117 O 111.862 1.99242 1.11869 0
M  V30 1118 C 112.072 2.52392 -2.41038 0
M  V30 1119 C 113.42 3.18546 -2.80737 0
M  V30 1120 O 114.444 2.62708 -2.40547 0
M  V30 1121 O 113.303 4.19604 -3.50135 0
M  V30 1122 H 110.397 0.657163 -0.502062 0
M  V30 1123 H 112.943 0.760071 -1.51727 0
M  V30 1124 H 111.715 2.04329 -3.33715 0
M  V30 1125 H 111.338 3.31837 -2.19021 0
M  V30 1126 N 112.336 1.25143 0.95797 0
M  V30 1127 C 113.613 1.00472 1.67823 0
M  V30 1128 C 113.993 -0.470056 2.058 0
M  V30 1129 O 113.341 -1.44663 1.76875 0
M  V30 1130 C 113.551 1.9372 2.90299 0
M  V30 1131 C 114.899 2.21371 3.62326 0
M  V30 1132 O 115.923 1.91451 3.00375 0
M  V30 1133 O 114.782 2.72231 4.7387 0
M  V30 1134 H 111.876 0.380752 0.734137 0
M  V30 1135 H 114.422 1.36283 1.01119 0
M  V30 1136 H 113.194 2.93316 2.59001 0
M  V30 1137 H 112.817 1.58286 3.64735 0
M  V30 1138 N 113.814 -1.1601 1.06675 0
M  V30 1139 C 115.23 -1.38622 0.790948 0
M  V30 1140 C 115.43 -1.92109 -0.607965 0
M  V30 1141 O 114.486 -2.12239 -1.36787 0
M  V30 1142 C 115.799 -2.36347 1.85905 0
M  V30 1143 C 117.347 -2.50023 1.88301 0
M  V30 1144 C 117.822 -3.51033 2.94176 0
M  V30 1145 N 119.313 -3.58563 2.93235 0
M  V30 1146 C 120.048 -4.36521 3.71803 0
M  V30 1147 N 119.544 -5.17869 4.602 0
M  V30 1148 N 121.337 -4.31541 3.60178 0
M  V30 1149 H 113.488 -0.796294 1.96908 0
M  V30 1150 H 115.751 -0.412597 0.853503 0
M  V30 1151 H 115.457 -2.04147 2.86386 0
M  V30 1152 H 115.331 -3.36042 1.71334 0
M  V30 1153 H 117.718 -2.81524 0.884769 0
M  V30 1154 H 117.799 -1.5035 2.06951 0
M  V30 1155 H 117.443 -3.20268 3.94196 0
M  V30 1156 H 117.373 -4.50445 2.72776 0
M  V30 1157 H 119.864 -3.00496 2.29152 0
M  V30 1158 H 120.177 -5.74578 5.16797 0
M  V30 1159 H 118.522 -5.17199 4.64253 0
M  V30 1160 H 121.713 -3.67051 2.90502 0
M  V30 1161 H 121.886 -4.9205 4.21653 0
M  V30 1162 N 115.292 -0.849877 -1.32721 0
M  V30 1163 C 116.52 -0.464754 -2.01613 0
M  V30 1164 C 116.935 0.937191 -1.63897 0
M  V30 1165 O 116.292 1.61081 -0.857856 0
M  V30 1166 C 116.343 -0.588638 -3.56675 0
M  V30 1167 O 116.064 -1.93535 -3.93034 0
M  V30 1168 C 117.565 -0.2019 -4.4284 0
M  V30 1169 H 114.785 -0.183215 -0.645502 0
M  V30 1170 H 117.329 -1.1455 -1.69407 0
M  V30 1171 H 115.484 0.0443159 -3.87375 0
M  V30 1172 H 115.898 -1.92871 -4.87751 0
M  V30 1173 H 117.372 -0.339599 -5.50954 0
M  V30 1174 H 117.849 0.857224 -4.30753 0
M  V30 1175 H 118.455 -0.809733 -4.17521 0
M  V30 1176 N 116.77 1.45427 -0.607355 0
M  V30 1177 C 118.016 2.0254 -0.102607 0
M  V30 1178 C 118.349 1.47478 1.26348 0
M  V30 1179 O 117.624 0.64939 1.83339 0
M  V30 1180 C 117.907 3.60044 -0.0634347 0
M  V30 1181 C 117.76 4.2544 -1.46017 0
M  V30 1182 C 119.079 4.35646 0.624514 0
M  V30 1183 H 116.198 0.73598 -0.0387607 0
M  V30 1184 H 118.84 1.73284 -0.779282 0
M  V30 1185 H 116.99 3.85101 0.512808 0
M  V30 1186 H 118.662 4.11569 -2.08347 0
M  V30 1187 H 116.905 3.83849 -2.02094 0
M  V30 1188 H 117.576 5.34342 -1.385 0
M  V30 1189 H 120.052 4.15882 0.134723 0
M  V30 1190 H 118.928 5.45376 0.621028 0
M  V30 1191 H 119.189 4.08501 1.69055 0
M  V30 1192 N 118.248 0.346503 1.53744 0
M  V30 1193 C 119.494 -0.249473 2.0126 0
M  V30 1194 C 119.827 -1.49965 1.23386 0
M  V30 1195 O 119.102 -1.91811 0.32229 0
M  V30 1196 C 119.385 -0.560643 3.55709 0
M  V30 1197 C 119.238 0.701836 4.44291 0
M  V30 1198 C 120.557 -1.36905 4.18264 0
M  V30 1199 H 117.676 -0.0891987 0.731582 0
M  V30 1200 H 120.318 0.467624 1.84156 0
M  V30 1201 H 118.468 -1.17156 3.70414 0
M  V30 1202 H 120.14 1.33974 4.41417 0
M  V30 1203 H 118.383 1.32612 4.13033 0
M  V30 1204 H 119.054 0.43933 5.50249 0
M  V30 1205 H 121.53 -0.852448 4.07275 0
M  V30 1206 H 120.406 -1.55553 5.26398 0
M  V30 1207 H 120.667 -2.37203 3.73078 0
M  V30 1208 N 119.726 -1.57421 0.075193 0
M  V30 1209 C 120.954 -1.97946 -0.602076 0
M  V30 1210 C 121.369 -0.953674 -1.62943 0
M  V30 1211 O 120.726 0.0592551 -1.82404 0
M  V30 1212 C 120.777 -3.38546 -1.26762 0
M  V30 1213 O 120.498 -4.37195 -0.281376 0
M  V30 1214 C 121.999 -3.93966 -2.03239 0
M  V30 1215 H 119.219 -0.650918 -0.162931 0
M  V30 1216 H 121.763 -2.03959 0.148601 0
M  V30 1217 H 119.918 -3.33609 -1.96936 0
M  V30 1218 H 120.332 -5.18975 -0.759267 0
M  V30 1219 H 121.806 -4.94555 -2.45193 0
M  V30 1220 H 122.283 -3.30693 -2.8903 0
M  V30 1221 H 122.889 -4.02315 -1.37924 0
M  V30 1222 N 121.204 0.198386 -1.56346 0
M  V30 1223 C 122.452 0.91747 -1.80075 0
M  V30 1224 C 122.773 1.83929 -0.647692 0
M  V30 1225 O 122.043 1.93029 0.334166 0
M  V30 1226 H 120.623 0.341774 -0.664228 0
M  V30 1227 H 123.285 0.204684 -1.93822 0
M  V30 1228 H 122.381 1.51055 -2.7311 0
M  V30 1229 N 122.682 1.50554 0.465978 0
M  V30 1230 C 123.93 1.61479 1.21528 0
M  V30 1231 C 124.251 0.319596 1.92363 0
M  V30 1232 O 123.521 -0.663194 1.84333 0
M  V30 1233 H 122.101 0.595055 0.451573 0
M  V30 1234 H 124.763 1.87355 0.53704 0
M  V30 1235 H 123.859 2.42846 1.96042 0
M  V30 1236 N 124.16 -0.719506 1.40217 0
M  V30 1237 C 125.571 -1.29848 1.34151 0
M  V30 1238 C 125.922 -1.96196 0.0131349 0
M  V30 1239 O 125.047 -1.973 -0.88892 0
M  V30 1240 C 125.642 -2.36118 2.42968 0
M  V30 1241 C 124.201 -2.8965 2.40374 0
M  V30 1242 C 123.348 -1.63393 2.24049 0
M  V30 1243 H 126.299 -0.51591 1.5008 0
M  V30 1244 H 126.32 -3.16871 2.10649 0
M  V30 1245 H 125.832 -1.878 3.39636 0
M  V30 1246 H 123.933 -3.42208 1.47392 0
M  V30 1247 H 124.046 -3.4171 3.35814 0
M  V30 1248 H 122.41 -1.88312 1.71495 0
M  V30 1249 H 123.193 -1.17104 3.2271 0
M  V30 1250 N 125.638 -1.25649 -0.95132 0
M  V30 1251 C 126.568 -1.08808 -2.06599 0
M  V30 1252 C 127.549 0.00382547 -1.701 0
M  V30 1253 O 128.734 -0.166325 -1.93486 0
M  V30 1254 C 125.864 -0.709542 -3.39975 0
M  V30 1255 C 124.818 -1.75206 -3.90496 0
M  V30 1256 C 124.144 -1.22811 -5.20405 0
M  V30 1257 C 125.444 -3.15153 -4.16504 0
M  V30 1258 H 127.138 -2.02048 -2.20946 0
M  V30 1259 H 124.684 -0.972835 -1.06169 0
M  V30 1260 H 126.637 -0.578649 -4.17408 0
M  V30 1261 H 125.361 0.258556 -3.25575 0
M  V30 1262 H 124.02 -1.87145 -3.15234 0
M  V30 1263 H 123.668 -0.250145 -5.02378 0
M  V30 1264 H 123.368 -1.92492 -5.55176 0
M  V30 1265 H 124.892 -1.10968 -6.00432 0
M  V30 1266 H 126.306 -3.06349 -4.84586 0
M  V30 1267 H 124.703 -3.82333 -4.62538 0
M  V30 1268 H 125.773 -3.61966 -3.22658 0
M  V30 1269 N 127.117 1.15442 -1.07289 0
M  V30 1270 C 128.027 2.23786 -0.704057 0
M  V30 1271 C 129.043 1.7166 0.284413 0
M  V30 1272 O 130.219 2.00972 0.131205 0
M  V30 1273 C 127.284 3.46535 -0.106792 0
M  V30 1274 C 126.345 4.13654 -1.14842 0
M  V30 1275 C 125.578 5.30544 -0.57956 0
M  V30 1276 O 125.801 5.67187 0.604585 0
M  V30 1277 O 124.735 5.87154 -1.32414 0
M  V30 1278 H 128.561 2.57664 -1.60757 0
M  V30 1279 H 126.146 1.23152 -0.845803 0
M  V30 1280 H 128.028 4.20804 0.224048 0
M  V30 1281 H 126.703 3.14407 0.770049 0
M  V30 1282 H 125.61 3.4131 -1.5316 0
M  V30 1283 H 126.943 4.49861 -1.99714 0
M  V30 1284 N 128.595 0.856903 1.32268 0
M  V30 1285 C 129.843 0.460474 1.96784 0
M  V30 1286 C 130.164 -0.987701 1.68135 0
M  V30 1287 O 129.434 -1.69058 0.989765 0
M  V30 1288 H 128.014 0.167289 0.728027 0
M  V30 1289 H 130.676 1.09383 1.61312 0
M  V30 1290 H 129.772 0.60739 3.06133 0
M  V30 1291 N 130.073 -1.45103 0.615059 0
M  V30 1292 C 131.484 -1.85654 0.197383 0
M  V30 1293 C 131.835 -1.51433 -1.24749 0
M  V30 1294 O 130.96 -0.944608 -1.94695 0
M  V30 1295 C 131.555 -3.36972 0.351448 0
M  V30 1296 C 130.114 -3.76398 -0.011593 0
M  V30 1297 C 129.261 -2.69024 0.672394 0
M  V30 1298 H 132.212 -1.35797 0.821263 0
M  V30 1299 H 132.233 -3.78239 -0.414227 0
M  V30 1300 H 131.745 -3.61847 1.40314 0
M  V30 1301 H 129.846 -3.5714 -1.06217 0
M  V30 1302 H 129.959 -4.77532 0.387265 0
M  V30 1303 H 128.323 -2.54465 0.109284 0
M  V30 1304 H 129.106 -2.96735 1.72636 0
M  V30 1305 N 131.551 -0.354651 -1.53558 0
M  V30 1306 C 132.781 0.239167 -2.05211 0
M  V30 1307 C 133.189 1.43879 -1.22863 0
M  V30 1308 O 132.532 1.81857 -0.259565 0
M  V30 1309 C 132.594 0.707251 -3.52474 0
M  V30 1310 C 132.258 -0.374212 -4.55465 0
M  V30 1311 C 133.255 -1.22054 -5.0537 0
M  V30 1312 C 130.94 -0.531323 -4.99482 0
M  V30 1313 C 132.934 -2.20942 -5.97882 0
M  V30 1314 C 130.621 -1.52358 -5.91802 0
M  V30 1315 C 131.619 -2.36108 -6.40892 0
M  V30 1316 O 131.307 -3.33643 -7.31394 0
M  V30 1317 H 131.039 0.0479716 -0.674296 0
M  V30 1318 H 133.593 -0.508121 -1.99016 0
M  V30 1319 H 131.823 1.50596 -3.56171 0
M  V30 1320 H 133.512 1.22285 -3.87042 0
M  V30 1321 H 134.278 -1.1103 -4.7212 0
M  V30 1322 H 130.157 0.110738 -4.60867 0
M  V30 1323 H 133.701 -2.86348 -6.36121 0
M  V30 1324 H 129.598 -1.63434 -6.24467 0
M  V30 1325 H 130.366 -3.29244 -7.4936 0
M  V30 1326 N 133.029 1.57378 -0.0835403 0
M  V30 1327 C 134.445 1.57246 0.273109 0
M  V30 1328 C 134.645 1.09385 1.69225 0
M  V30 1329 O 133.701 0.765051 2.40631 0
M  V30 1330 C 135.014 3.00614 0.0720628 0
M  V30 1331 C 136.562 3.12684 0.1407 0
M  V30 1332 C 137.037 4.57989 -0.0322094 0
M  V30 1333 N 138.528 4.63194 0.0230085 0
M  V30 1334 C 139.263 5.73335 -0.0861941 0
M  V30 1335 N 138.759 6.9235 -0.24958 0
M  V30 1336 N 140.552 5.62093 -0.0282886 0
M  V30 1337 H 132.703 1.86801 -1.0109 0
M  V30 1338 H 134.966 0.861687 -0.395222 0
M  V30 1339 H 134.672 3.39786 -0.907662 0
M  V30 1340 H 134.546 3.68193 0.81936 0
M  V30 1341 H 136.933 2.73391 1.11092 0
M  V30 1342 H 137.014 2.47719 -0.637896 0
M  V30 1343 H 136.658 4.97973 -0.999247 0
M  V30 1344 H 136.588 5.21 0.765937 0
M  V30 1345 H 139.079 3.77613 0.14722 0
M  V30 1346 H 139.392 7.72117 -0.324733 0
M  V30 1347 H 137.737 6.94415 -0.285097 0
M  V30 1348 H 140.928 4.67997 0.0981408 0
M  V30 1349 H 141.101 6.47895 -0.116845 0
M  V30 1350 N 134.507 -0.190092 1.56449 0
M  V30 1351 C 135.437 -1.23816 1.97969 0
M  V30 1352 C 136.418 -1.47201 0.852395 0
M  V30 1353 O 137.603 -1.58854 1.1171 0
M  V30 1354 C 134.733 -2.5813 2.3235 0
M  V30 1355 C 133.687 -2.49348 3.47864 0
M  V30 1356 C 133.013 -3.8798 3.67934 0
M  V30 1357 C 134.313 -2.01424 4.81898 0
M  V30 1358 H 136.007 -0.89311 2.85769 0
M  V30 1359 H 133.553 -0.428177 1.37487 0
M  V30 1360 H 135.506 -3.31637 2.59991 0
M  V30 1361 H 134.23 -2.94386 1.41438 0
M  V30 1362 H 132.889 -1.78297 3.20321 0
M  V30 1363 H 132.537 -4.21597 2.74344 0
M  V30 1364 H 132.237 -3.82978 4.45648 0
M  V30 1365 H 133.761 -4.63101 3.97957 0
M  V30 1366 H 135.175 -2.64693 5.08538 0
M  V30 1367 H 133.572 -2.07413 5.63116 0
M  V30 1368 H 134.642 -0.967677 4.75146 0
M  V30 1369 N 135.985 -1.50799 -0.457987 0
M  V30 1370 C 136.932 -1.70617 -1.5543 0
M  V30 1371 C 137.902 -0.547562 -1.56815 0
M  V30 1372 O 139.087 -0.779647 -1.74144 0
M  V30 1373 C 136.227 -1.81831 -2.93311 0
M  V30 1374 C 135.34 -3.09278 -3.01615 0
M  V30 1375 C 134.475 -3.11209 -4.30491 0
M  V30 1376 C 133.514 -4.33055 -4.32585 0
M  V30 1377 N 132.651 -4.32652 -5.52952 0
M  V30 1378 H 137.491 -2.64207 -1.37836 0
M  V30 1379 H 135.028 -1.30959 -0.669937 0
M  V30 1380 H 136.986 -1.86314 -3.73287 0
M  V30 1381 H 135.616 -0.916685 -3.0951 0
M  V30 1382 H 134.668 -3.14203 -2.1443 0
M  V30 1383 H 135.98 -3.99233 -2.99022 0
M  V30 1384 H 135.134 -3.14494 -5.18824 0
M  V30 1385 H 133.873 -2.19106 -4.35711 0
M  V30 1386 H 132.878 -4.29969 -3.42647 0
M  V30 1387 H 134.103 -5.264 -4.29046 0
M  V30 1388 H 132.049 -3.43409 -5.58933 0
M  V30 1389 H 131.966 -5.16392 -5.52155 0
M  V30 1390 H 133.234 -4.40101 -6.43375 0
M  V30 1391 N 137.463 0.71206 -1.40597 0
M  V30 1392 C 138.395 1.83704 -1.37061 0
M  V30 1393 C 139.408 1.60453 -0.275426 0
M  V30 1394 O 140.597 1.70262 -0.53602 0
M  V30 1395 C 137.697 3.20172 -1.11099 0
M  V30 1396 C 136.87 3.7059 -2.3234 0
M  V30 1397 C 135.929 4.85681 -2.02485 0
M  V30 1398 O 134.955 4.9815 -2.75382 0
M  V30 1399 N 136.157 5.71735 -1.00497 0
M  V30 1400 H 138.922 1.87235 -2.34016 0
M  V30 1401 H 136.483 0.893739 -1.34996 0
M  V30 1402 H 138.475 3.94768 -0.891064 0
M  V30 1403 H 137.045 3.11767 -0.227989 0
M  V30 1404 H 136.265 2.87085 -2.7014 0
M  V30 1405 H 137.553 4.01011 -3.13157 0
M  V30 1406 H 136.951 5.64275 -0.401298 0
M  V30 1407 H 135.508 6.463 -0.844942 0
M  V30 1408 N 138.941 1.26152 0.944643 0
M  V30 1409 C 140.188 1.11492 1.69044 0
M  V30 1410 C 140.516 -0.342366 1.91463 0
M  V30 1411 O 139.771 -1.26812 1.49054 0
M  V30 1412 C 140.07 1.82541 3.07268 0
M  V30 1413 C 139.736 3.32445 3.04616 0
M  V30 1414 C 138.398 3.73337 3.036 0
M  V30 1415 C 140.75 4.28171 2.97185 0
M  V30 1416 C 138.078 5.08348 2.92915 0
M  V30 1417 C 140.43 5.63218 2.88041 0
M  V30 1418 C 139.094 6.03426 2.85366 0
M  V30 1419 H 138.364 0.407977 0.618576 0
M  V30 1420 H 141.011 1.56551 1.10291 0
M  V30 1421 H 139.316 1.29941 3.69625 0
M  V30 1422 H 141.013 1.68642 3.63815 0
M  V30 1423 H 137.603 2.99915 3.06185 0
M  V30 1424 H 141.787 3.97563 2.97081 0
M  V30 1425 H 137.043 5.38667 2.89219 0
M  V30 1426 H 141.217 6.37078 2.81254 0
M  V30 1427 H 138.844 7.07999 2.76842 0
M  V30 1428 N 140.419 -1.14872 1.07899 0
M  V30 1429 C 141.369 -2.17809 0.674027 0
M  V30 1430 C 142.353 -1.58008 -0.303699 0
M  V30 1431 O 143.545 -1.76616 -0.11654 0
M  V30 1432 C 140.674 -3.43208 0.0793318 0
M  V30 1433 C 139.76 -4.10051 1.08253 0
M  V30 1434 N 140.151 -4.52296 2.2641 0
M  V30 1435 C 138.449 -4.36469 0.917124 0
M  V30 1436 C 139.15 -5.04199 2.901 0
M  V30 1437 N 138.126 -4.98088 2.17736 0
M  V30 1438 H 141.928 -2.48207 1.57386 0
M  V30 1439 H 139.442 -1.315 0.952976 0
M  V30 1440 H 141.439 -4.16272 -0.228719 0
M  V30 1441 H 140.099 -3.14291 -0.815551 0
M  V30 1442 H 141.11 -4.45504 2.64096 0
M  V30 1443 H 137.787 -4.17432 0.0756078 0
M  V30 1444 H 139.177 -5.46802 3.90458 0
M  V30 1445 N 141.898 -0.863906 -1.31812 0
M  V30 1446 C 143.145 -0.471836 -1.96926 0
M  V30 1447 C 143.473 0.974578 -1.68322 0
M  V30 1448 O 142.728 1.7003 -0.968933 0
M  V30 1449 C 143.027 -0.668547 -3.51091 0
M  V30 1450 C 142.693 -2.08683 -3.99703 0
M  V30 1451 C 141.355 -2.47471 -4.12688 0
M  V30 1452 C 143.707 -3.01207 -4.25351 0
M  V30 1453 C 141.035 -3.78037 -4.4867 0
M  V30 1454 C 143.387 -4.31282 -4.62794 0
M  V30 1455 C 142.051 -4.69992 -4.73987 0
M  V30 1456 H 141.321 -0.172657 -0.720604 0
M  V30 1457 H 143.968 -1.09573 -1.57054 0
M  V30 1458 H 142.273 0.0385252 -3.91781 0
M  V30 1459 H 143.97 -0.345102 -3.99512 0
M  V30 1460 H 140.56 -1.77566 -3.90087 0
M  V30 1461 H 144.744 -2.72469 -4.14819 0
M  V30 1462 H 140 -4.078 -4.55532 0
M  V30 1463 H 144.174 -5.03031 -4.81594 0
M  V30 1464 H 141.801 -5.71207 -5.01624 0
M  V30 1465 N 143.376 1.44774 -0.622745 0
M  V30 1466 C 144.326 2.2774 0.108889 0
M  V30 1467 C 145.31 1.38189 0.824175 0
M  V30 1468 O 146.502 1.62063 0.711664 0
M  V30 1469 C 143.631 3.25353 1.09546 0
M  V30 1470 C 142.717 4.22392 0.380232 0
M  V30 1471 N 143.108 5.02388 -0.586535 0
M  V30 1472 C 141.406 4.41588 0.625792 0
M  V30 1473 C 142.107 5.72894 -1.00834 0
M  V30 1474 N 141.083 5.42479 -0.348878 0
M  V30 1475 H 144.885 2.86993 -0.63341 0
M  V30 1476 H 142.399 1.5611 -0.447589 0
M  V30 1477 H 144.396 3.83538 1.63414 0
M  V30 1478 H 143.056 2.6766 1.83815 0
M  V30 1479 H 144.067 5.0885 -0.963975 0
M  V30 1480 H 140.744 3.95003 1.352 0
M  V30 1481 H 142.134 6.47158 -1.80656 0
M  V30 1482 N 144.854 0.36279 1.53368 0
M  V30 1483 C 146.1 -0.220702 2.02199 0
M  V30 1484 C 146.455 -1.46649 1.24546 0
M  V30 1485 O 145.748 -1.88737 0.32996 0
M  V30 1486 C 145.942 -0.568417 3.52851 0
M  V30 1487 C 145.771 0.642126 4.45092 0
M  V30 1488 C 144.541 1.15335 4.91961 0
M  V30 1489 C 146.739 1.50649 4.91741 0
M  V30 1490 N 144.721 2.3242 5.68202 0
M  V30 1491 C 146.092 2.52404 5.66297 0
M  V30 1492 C 148.147 1.52969 4.73819 0
M  V30 1493 C 146.85 3.56331 6.24836 0
M  V30 1494 C 148.876 2.55789 5.33222 0
M  V30 1495 C 148.238 3.56268 6.07662 0
M  V30 1496 H 144.337 -0.0435508 0.780786 0
M  V30 1497 H 146.921 0.506704 1.87991 0
M  V30 1498 H 145.092 -1.2649 3.67226 0
M  V30 1499 H 146.824 -1.13676 3.88407 0
M  V30 1500 H 143.579 0.718412 4.68119 0
M  V30 1501 H 144.003 2.91591 6.10986 0
M  V30 1502 H 148.645 0.766418 4.15795 0
M  V30 1503 H 146.363 4.33543 6.81958 0
M  V30 1504 H 149.949 2.58435 5.21251 0
M  V30 1505 H 148.829 4.34524 6.52808 0
M  V30 1506 N 146.332 -1.57332 0.0918853 0
M  V30 1507 C 147.58 -1.93853 -0.571446 0
M  V30 1508 C 147.901 -0.974212 -1.6892 0
M  V30 1509 O 147.171 -0.0257254 -1.95883 0
M  V30 1510 H 145.751 -0.715666 -0.214082 0
M  V30 1511 H 148.413 -1.94287 0.154464 0
M  V30 1512 H 147.509 -2.96191 -0.983729 0
M  V30 1513 N 147.81 0.181792 -1.56548 0
M  V30 1514 C 148.757 1.22521 -1.95595 0
M  V30 1515 C 149.727 1.4454 -0.818373 0
M  V30 1516 O 150.912 1.57454 -1.07763 0
M  V30 1517 C 148.052 2.56193 -2.31212 0
M  V30 1518 C 147.165 2.41641 -3.58097 0
M  V30 1519 C 146.3 3.68108 -3.82975 0
M  V30 1520 C 145.339 3.48445 -5.03242 0
M  V30 1521 N 144.476 4.66956 -5.24306 0
M  V30 1522 H 149.316 0.885226 -2.84548 0
M  V30 1523 H 146.853 0.425718 -1.40805 0
M  V30 1524 H 148.811 3.34088 -2.49882 0
M  V30 1525 H 147.441 2.88208 -1.45382 0
M  V30 1526 H 146.493 1.54976 -3.474 0
M  V30 1527 H 147.805 2.23052 -4.46149 0
M  V30 1528 H 146.959 4.54441 -4.01956 0
M  V30 1529 H 145.698 3.89666 -2.93278 0
M  V30 1530 H 144.703 2.60499 -4.8417 0
M  V30 1531 H 145.928 3.2832 -5.9446 0
M  V30 1532 H 143.874 4.88752 -4.37559 0
M  V30 1533 H 143.791 4.51242 -6.06561 0
M  V30 1534 H 145.059 5.54602 -5.47756 0
M  V30 1535 N 149.288 1.51039 0.449983 0
M  V30 1536 C 150.235 1.71439 1.54523 0
M  V30 1537 C 151.205 0.555871 1.56522 0
M  V30 1538 O 152.39 0.788871 1.73728 0
M  V30 1539 C 149.53 1.83384 2.92343 0
M  V30 1540 C 148.643 3.10873 2.9997 0
M  V30 1541 C 147.778 3.13488 4.28834 0
M  V30 1542 C 146.817 4.35343 4.30282 0
M  V30 1543 N 145.954 4.35579 5.5065 0
M  V30 1544 H 150.794 2.64934 1.36433 0
M  V30 1545 H 148.331 1.31312 0.662982 0
M  V30 1546 H 150.289 1.88291 3.72293 0
M  V30 1547 H 148.919 0.933086 3.0902 0
M  V30 1548 H 147.971 3.15336 2.12761 0
M  V30 1549 H 149.283 4.00814 2.96901 0
M  V30 1550 H 148.437 3.17241 5.17149 0
M  V30 1551 H 147.176 2.21414 4.34543 0
M  V30 1552 H 146.181 4.3178 3.40362 0
M  V30 1553 H 147.406 5.28668 4.26248 0
M  V30 1554 H 145.352 3.46369 5.57104 0
M  V30 1555 H 145.269 5.19313 5.49409 0
M  V30 1556 H 146.537 4.43507 6.41032 0
M  V30 1557 N 150.766 -0.704594 1.40972 0
M  V30 1558 C 151.716 -1.81051 1.38581 0
M  V30 1559 C 152.7 -1.58759 0.261585 0
M  V30 1560 O 153.892 -1.69745 0.501556 0
M  V30 1561 C 151.021 -3.19279 1.26157 0
M  V30 1562 C 150.107 -3.47296 2.43405 0
M  V30 1563 N 150.498 -3.46064 3.68881 0
M  V30 1564 C 148.796 -3.77804 2.37023 0
M  V30 1565 C 149.497 -3.72733 4.46592 0
M  V30 1566 N 148.473 -3.9203 3.76581 0
M  V30 1567 H 152.275 -1.78448 2.33525 0
M  V30 1568 H 149.789 -0.904198 1.349 0
M  V30 1569 H 151.786 -3.98488 1.22526 0
M  V30 1570 H 150.446 -3.231 0.321902 0
M  V30 1571 H 151.457 -3.26656 4.01891 0
M  V30 1572 H 148.134 -3.8905 1.51481 0
M  V30 1573 H 149.524 -3.77993 5.55492 0
M  V30 1574 N 152.244 -1.26651 -0.937939 0
M  V30 1575 C 153.521 -1.0313 -1.66204 0
M  V30 1576 C 153.901 0.437256 -2.06522 0
M  V30 1577 O 153.249 1.41831 -1.79154 0
M  V30 1578 C 153.459 -1.98314 -2.87181 0
M  V30 1579 C 154.807 -2.27107 -3.58758 0
M  V30 1580 O 155.831 -1.96205 -2.97291 0
M  V30 1581 O 154.69 -2.79736 -4.69479 0
M  V30 1582 H 151.784 -0.392384 -0.727986 0
M  V30 1583 H 154.33 -1.37874 -0.989382 0
M  V30 1584 H 153.102 -2.97399 -2.54302 0
M  V30 1585 H 152.725 -1.64068 -3.6217 0
M  V30 1586 N 153.722 1.14298 -1.08507 0
M  V30 1587 C 154.968 1.85633 -0.816581 0
M  V30 1588 C 155.301 1.82784 0.656021 0
M  V30 1589 O 154.576 1.25926 1.48233 0
M  V30 1590 C 154.859 3.34223 -1.34041 0
M  V30 1591 C 154.712 3.45639 -2.87843 0
M  V30 1592 C 156.031 4.29356 -0.9665 0
M  V30 1593 H 153.15 0.67402 -0.298104 0
M  V30 1594 H 155.792 1.34214 -1.34487 0
M  V30 1595 H 153.942 3.78144 -0.89104 0
M  V30 1596 H 155.614 3.10498 -3.41158 0
M  V30 1597 H 153.857 2.86817 -3.25451 0
M  V30 1598 H 154.528 4.50089 -3.19569 0
M  V30 1599 H 157.004 3.93457 -1.35391 0
M  V30 1600 H 155.88 5.3178 -1.3602 0
M  V30 1601 H 156.141 4.41919 0.126362 0
M  V30 1602 N 155.201 0.870884 1.31352 0
M  V30 1603 C 156.449 0.48132 1.96285 0
M  V30 1604 C 156.77 -0.969813 1.69173 0
M  V30 1605 O 156.04 -1.67998 1.00764 0
M  V30 1606 H 154.62 0.175002 0.726212 0
M  V30 1607 H 157.282 1.11087 1.60143 0
M  V30 1608 H 156.378 0.639825 3.05471 0
M  V30 1609 N 156.679 -1.44442 0.630414 0
M  V30 1610 C 157.904 -2.06927 0.139944 0
M  V30 1611 C 158.329 -1.46795 -1.17613 0
M  V30 1612 O 157.687 -0.569144 -1.72135 0
M  V30 1613 C 157.735 -3.6058 0.0379581 0
M  V30 1614 O 156.839 -3.99937 -1.0062 0
M  V30 1615 H 156.18 -0.658608 0.0844483 0
M  V30 1616 H 158.71 -1.85327 0.866891 0
M  V30 1617 H 158.72 -4.07714 -0.152856 0
M  V30 1618 H 157.395 -4.03728 0.998809 0
M  V30 1619 H 155.972 -3.64436 -0.79001 0
M  V30 1620 N 158.157 -0.370918 -1.53173 0
M  V30 1621 C 159.067 0.480823 -2.2962 0
M  V30 1622 C 160.083 1.08789 -1.35798 0
M  V30 1623 O 161.259 1.09768 -1.68858 0
M  V30 1624 C 158.324 1.60227 -3.07454 0
M  V30 1625 C 157.385 1.0222 -4.16953 0
M  V30 1626 C 156.618 2.0902 -4.91066 0
M  V30 1627 O 156.841 3.30222 -4.65091 0
M  V30 1628 O 155.775 1.71778 -5.76867 0
M  V30 1629 H 159.601 -0.141421 -3.03371 0
M  V30 1630 H 157.186 -0.135146 -1.48787 0
M  V30 1631 H 159.068 2.25417 -3.56041 0
M  V30 1632 H 157.743 2.20982 -2.36535 0
M  V30 1633 H 156.65 0.334064 -3.72605 0
M  V30 1634 H 157.983 0.459131 -4.90054 0
M  V30 1635 N 159.635 1.57281 -0.100228 0
M  V30 1636 C 160.585 2.10848 0.86759 0
M  V30 1637 C 161.569 1.02473 1.24049 0
M  V30 1638 O 162.761 1.28739 1.21471 0
M  V30 1639 C 159.89 2.69648 2.12474 0
M  V30 1640 C 158.976 3.85074 1.77704 0
M  V30 1641 N 159.367 4.92897 1.13518 0
M  V30 1642 C 157.665 3.94905 2.07282 0
M  V30 1643 C 158.366 5.73475 0.974735 0
M  V30 1644 N 157.342 5.22675 1.4937 0
M  V30 1645 H 161.144 2.91594 0.367471 0
M  V30 1646 H 158.658 1.62074 0.102829 0
M  V30 1647 H 160.655 3.06356 2.82757 0
M  V30 1648 H 159.315 1.90359 2.63047 0
M  V30 1649 H 160.326 5.11662 0.801381 0
M  V30 1650 H 157.003 3.26633 2.60033 0
M  V30 1651 H 158.393 6.70238 0.472364 0
M  V30 1652 N 161.113 -0.173488 1.56642 0
M  V30 1653 C 162.341 -0.906095 1.86004 0
M  V30 1654 C 162.756 -1.75921 0.685355 0
M  V30 1655 O 162.113 -1.79198 -0.345578 0
M  V30 1656 C 162.164 -1.78462 3.14378 0
M  V30 1657 O 161.885 -0.965914 4.27319 0
M  V30 1658 C 163.386 -2.62707 3.57071 0
M  V30 1659 H 160.606 -0.263341 0.617165 0
M  V30 1660 H 163.15 -0.174236 2.03756 0
M  V30 1661 H 161.305 -2.46984 2.98459 0
M  V30 1662 H 161.719 -1.56655 5.00559 0
M  V30 1663 H 163.193 -3.19969 4.49804 0
M  V30 1664 H 163.67 -3.37472 2.81086 0
M  V30 1665 H 164.276 -1.99521 3.75595 0
M  V30 1666 N 162.591 -1.51276 -0.441967 0
M  V30 1667 C 163.837 -1.63958 -1.19355 0
M  V30 1668 C 164.17 -0.352543 -1.90973 0
M  V30 1669 O 163.445 0.647627 -1.83401 0
M  V30 1670 C 163.728 -2.83979 -2.21422 0
M  V30 1671 C 163.581 -4.22646 -1.53918 0
M  V30 1672 C 164.9 -2.99521 -3.22451 0
M  V30 1673 H 162.019 -0.596709 -0.432559 0
M  V30 1674 H 164.661 -1.83748 -0.483398 0
M  V30 1675 H 162.811 -2.67237 -2.81987 0
M  V30 1676 H 164.483 -4.51045 -0.967256 0
M  V30 1677 H 162.726 -4.25558 -0.841615 0
M  V30 1678 H 163.397 -5.02609 -2.28229 0
M  V30 1679 H 165.873 -3.14944 -2.71937 0
M  V30 1680 H 164.749 -3.85072 -3.91166 0
M  V30 1681 H 165.01 -2.11391 -3.88287 0
M  V30 1682 N 164.069 0.697108 -1.41344 0
M  V30 1683 C 165.346 1.45154 -1.31109 0
M  V30 1684 C 165.726 2.11009 0.0620449 0
M  V30 1685 O 165.074 2.01571 1.07618 0
M  V30 1686 C 165.284 2.47223 -2.46337 0
M  V30 1687 C 166.632 3.1252 -2.87431 0
M  V30 1688 O 167.656 2.57547 -2.46065 0
M  V30 1689 O 166.515 4.12083 -3.58957 0
M  V30 1690 H 163.609 0.646365 -0.515889 0
M  V30 1691 H 166.155 0.727716 -1.53305 0
M  V30 1692 H 164.927 1.97204 -3.37974 0
M  V30 1693 H 164.55 3.27116 -2.2601 0
M  V30 1694 N 165.547 1.27147 0.931209 0
M  V30 1695 C 166.795 1.13055 1.6752 0
M  V30 1696 C 167.116 -0.324791 1.92276 0
M  V30 1697 O 166.386 -1.22775 1.52654 0
M  V30 1698 H 164.966 0.415391 0.620854 0
M  V30 1699 H 167.628 1.59623 1.11833 0
M  V30 1700 H 166.724 1.65694 2.64485 0
M  V30 1701 N 167.025 -1.13721 1.09112 0
M  V30 1702 C 167.972 -2.19031 0.727591 0
M  V30 1703 C 168.942 -1.63555 -0.289656 0
M  V30 1704 O 170.127 -1.90023 -0.172026 0
M  V30 1705 C 167.267 -3.4477 0.15082 0
M  V30 1706 C 166.38 -4.14365 1.22172 0
M  V30 1707 C 165.515 -5.27709 0.608042 0
M  V30 1708 C 164.554 -5.89147 1.66047 0
M  V30 1709 N 163.691 -6.93929 1.06806 0
M  V30 1710 H 168.531 -2.49475 1.62991 0
M  V30 1711 H 166.068 -1.22499 0.81439 0
M  V30 1712 H 168.026 -4.16714 -0.201358 0
M  V30 1713 H 166.656 -3.14787 -0.714783 0
M  V30 1714 H 165.708 -3.40737 1.69122 0
M  V30 1715 H 167.02 -4.56114 2.01895 0
M  V30 1716 H 166.174 -6.06355 0.204523 0
M  V30 1717 H 164.913 -4.872 -0.220769 0
M  V30 1718 H 163.918 -5.09198 2.07357 0
M  V30 1719 H 165.143 -6.31729 2.49189 0
M  V30 1720 H 163.089 -6.55483 0.260476 0
M  V30 1721 H 163.006 -7.34202 1.8023 0
M  V30 1722 H 164.274 -7.76434 0.690644 0
M  V30 1723 N 168.503 -0.877838 -1.30888 0
M  V30 1724 C 169.728 -0.506629 -2.01117 0
M  V30 1725 C 170.153 0.895564 -1.65412 0
M  V30 1726 O 169.511 1.5923 -0.866922 0
M  V30 1727 C 169.559 -0.680223 -3.54126 0
M  V30 1728 O 168.663 0.277033 -4.11468 0
M  V30 1729 H 168.004 -0.200518 -0.633 0
M  V30 1730 H 170.534 -1.18342 -1.66902 0
M  V30 1731 H 170.544 -0.5765 -4.03907 0
M  V30 1732 H 169.219 -1.70261 -3.79452 0
M  V30 1733 H 167.796 0.127606 -3.72682 0
M  V30 1734 N 169.982 1.44106 -0.638065 0
M  V30 1735 C 171.229 2.01978 -0.14533 0
M  V30 1736 C 171.557 1.50234 1.23532 0
M  V30 1737 O 170.812 0.679548 1.83523 0
M  V30 1738 C 171.111 3.5729 -0.0887327 0
M  V30 1739 C 170.777 4.28317 -1.40909 0
M  V30 1740 C 169.439 4.47437 -1.77069 0
M  V30 1741 C 171.791 4.6867 -2.28031 0
M  V30 1742 C 169.119 5.04171 -3.00047 0
M  V30 1743 C 171.471 5.26766 -3.50286 0
M  V30 1744 C 170.135 5.44104 -3.86661 0
M  V30 1745 H 169.405 0.739089 -0.0531801 0
M  V30 1746 H 172.052 1.72781 -0.825761 0
M  V30 1747 H 170.357 3.8594 0.675095 0
M  V30 1748 H 172.054 3.99807 0.309145 0
M  V30 1749 H 168.644 4.1377 -1.1177 0
M  V30 1750 H 172.828 4.53604 -2.01388 0
M  V30 1751 H 168.084 5.15782 -3.28298 0
M  V30 1752 H 172.258 5.56983 -4.18023 0
M  V30 1753 H 169.885 5.87832 -4.82034 0
M  V30 1754 N 171.46 0.379036 1.52974 0
M  V30 1755 C 172.871 -0.0972525 1.86447 0
M  V30 1756 C 173.222 -1.47027 1.29914 0
M  V30 1757 O 172.347 -2.07135 0.626433 0
M  V30 1758 C 172.942 -0.183248 3.38304 0
M  V30 1759 C 171.501 -0.603812 3.71525 0
M  V30 1760 C 170.648 0.240632 2.76254 0
M  V30 1761 H 173.599 0.597316 1.4703 0
M  V30 1762 H 173.62 -1.00432 3.67006 0
M  V30 1763 H 173.132 0.816191 3.79421 0
M  V30 1764 H 171.233 -1.61099 3.35973 0
M  V30 1765 H 171.346 -0.369086 4.77676 0
M  V30 1766 H 169.71 -0.292548 2.53014 0
M  V30 1767 H 170.493 1.23786 3.20206 0
M  V30 1768 N 172.938 -1.57226 0.108567 0
M  V30 1769 C 174.163 -1.99604 -0.563303 0
M  V30 1770 C 174.588 -0.987563 -1.6009 0
M  V30 1771 O 173.946 0.0421687 -1.81251 0
M  V30 1772 C 173.994 -3.40902 -1.17552 0
M  V30 1773 O 173.098 -3.42896 -2.2912 0
M  V30 1774 H 172.439 -0.648704 -0.1417 0
M  V30 1775 H 174.969 -2.03679 0.193961 0
M  V30 1776 H 174.979 -3.78886 -1.51357 0
M  V30 1777 H 173.654 -4.1382 -0.415445 0
M  V30 1778 H 172.231 -3.1672 -1.96832 0
M  V30 1779 N 174.416 0.165178 -1.56732 0
M  V30 1780 C 175.326 1.22423 -2.00125 0
M  V30 1781 C 176.342 1.48084 -0.913619 0
M  V30 1782 O 177.518 1.60112 -1.22172 0
M  V30 1783 C 174.583 2.54197 -2.35764 0
M  V30 1784 C 173.644 2.36343 -3.58386 0
M  V30 1785 C 172.877 3.61834 -3.92316 0
M  V30 1786 O 173.1 4.67267 -3.27135 0
M  V30 1787 O 172.034 3.55579 -4.85641 0
M  V30 1788 H 175.86 0.885886 -2.90492 0
M  V30 1789 H 173.445 0.372518 -1.44681 0
M  V30 1790 H 175.327 3.3192 -2.59629 0
M  V30 1791 H 174.002 2.87598 -1.48557 0
M  V30 1792 H 172.909 1.56632 -3.39731 0
M  V30 1793 H 174.242 2.07865 -4.46154 0
M  V30 1794 N 175.894 1.51508 0.433938 0
M  V30 1795 C 176.824 1.76016 1.53429 0
M  V30 1796 C 177.805 0.610112 1.58782 0
M  V30 1797 O 178.99 0.853177 1.74455 0
M  V30 1798 C 176.12 1.88831 2.9148 0
M  V30 1799 C 175.074 3.04288 3.00987 0
M  V30 1800 C 174.4 3.0229 4.4105 0
M  V30 1801 C 175.7 4.44193 2.74754 0
M  V30 1802 H 177.394 2.68152 1.33171 0
M  V30 1803 H 174.94 1.29035 0.639214 0
M  V30 1804 H 176.893 2.04559 3.6842 0
M  V30 1805 H 175.617 0.933455 3.12976 0
M  V30 1806 H 174.276 2.8827 2.26486 0
M  V30 1807 H 173.924 2.04576 4.59519 0
M  V30 1808 H 173.624 3.79822 4.4834 0
M  V30 1809 H 175.148 3.20116 5.1996 0
M  V30 1810 H 176.562 4.60544 3.41426 0
M  V30 1811 H 174.959 5.23457 2.9345 0
M  V30 1812 H 176.029 4.53996 1.70339 0
M  V30 1813 N 177.372 -0.689602 1.41712 0
M  V30 1814 C 178.322 -1.79571 1.40493 0
M  V30 1815 C 179.306 -1.58473 0.278409 0
M  V30 1816 O 180.498 -1.69204 0.519532 0
M  V30 1817 C 177.627 -3.17923 1.29536 0
M  V30 1818 C 176.713 -3.44695 2.47075 0
M  V30 1819 N 177.104 -3.42132 3.72531 0
M  V30 1820 C 175.402 -3.75269 2.41017 0
M  V30 1821 C 176.103 -3.67976 4.50521 0
M  V30 1822 N 175.079 -3.88014 3.80718 0
M  V30 1823 H 178.881 -1.75961 2.35404 0
M  V30 1824 H 176.395 -0.889839 1.35851 0
M  V30 1825 H 178.392 -3.97167 1.26745 0
M  V30 1826 H 177.052 -3.22741 0.356153 0
M  V30 1827 H 178.063 -3.22375 4.05333 0
M  V30 1828 H 174.74 -3.87421 1.55599 0
M  V30 1829 H 176.13 -3.7208 5.59469 0
M  V30 1830 N 178.85 -1.27639 -0.924453 0
M  V30 1831 C 179.78 -1.13166 -2.04244 0
M  V30 1832 C 180.761 -0.032256 -1.70069 0
M  V30 1833 O 181.946 -0.207328 -1.9309 0
M  V30 1834 C 179.076 -0.781496 -3.38393 0
M  V30 1835 C 178.03 -1.83449 -3.86692 0
M  V30 1836 C 177.356 -1.33822 -5.17683 0
M  V30 1837 C 178.656 -3.23917 -4.09726 0
M  V30 1838 H 180.35 -2.06689 -2.1661 0
M  V30 1839 H 177.896 -0.995136 -1.04082 0
M  V30 1840 H 179.849 -0.667057 -4.16087 0
M  V30 1841 H 178.573 0.189439 -3.2605 0
M  V30 1842 H 177.232 -1.93789 -3.11193 0
M  V30 1843 H 176.88 -0.35665 -5.01734 0
M  V30 1844 H 176.58 -2.04224 -5.50968 0
M  V30 1845 H 178.104 -1.23679 -5.97943 0
M  V30 1846 H 179.518 -3.16559 -4.77978 0
M  V30 1847 H 177.915 -3.92059 -4.54324 0
M  V30 1848 H 178.985 -3.68729 -3.14908 0
M  V30 1849 N 180.328 1.1314 -1.09713 0
M  V30 1850 C 181.574 1.84757 -0.836224 0
M  V30 1851 C 181.907 1.8347 0.636598 0
M  V30 1852 O 181.182 1.27491 1.46889 0
M  V30 1853 C 181.465 3.32782 -1.37578 0
M  V30 1854 C 181.318 3.42567 -2.91493 0
M  V30 1855 C 182.637 4.28307 -1.01198 0
M  V30 1856 H 179.756 0.67082 -0.305236 0
M  V30 1857 H 182.398 1.3278 -1.35903 0
M  V30 1858 H 180.548 3.77177 -0.931097 0
M  V30 1859 H 182.22 3.06862 -3.44432 0
M  V30 1860 H 180.463 2.83349 -3.28475 0
M  V30 1861 H 181.134 4.46674 -3.24324 0
M  V30 1862 H 183.61 3.91999 -1.39556 0
M  V30 1863 H 182.486 5.30307 -1.41653 0
M  V30 1864 H 182.747 4.42029 0.0794833 0
M  V30 1865 N 181.806 0.884767 1.30421 0
M  V30 1866 C 182.756 0.322846 2.25703 0
M  V30 1867 C 183.74 -0.548582 1.51259 0
M  V30 1868 O 184.932 -0.39304 1.72581 0
M  V30 1869 C 182.061 -0.461787 3.4018 0
M  V30 1870 C 181.147 0.423717 4.21978 0
M  V30 1871 N 181.538 1.52408 4.82292 0
M  V30 1872 C 179.836 0.218795 4.45463 0
M  V30 1873 C 180.537 2.07136 5.43571 0
M  V30 1874 N 179.513 1.36635 5.26148 0
M  V30 1875 H 183.315 1.16363 2.69883 0
M  V30 1876 H 180.829 0.73415 1.44859 0
M  V30 1877 H 182.826 -0.880985 4.07485 0
M  V30 1878 H 181.486 -1.30001 2.9754 0
M  V30 1879 H 182.497 1.90693 4.81515 0
M  V30 1880 H 179.174 -0.582275 4.1342 0
M  V30 1881 H 180.564 2.99538 6.01437 0
M  V30 1882 N 183.284 -1.43765 0.645699 0
M  V30 1883 C 184.53 -2.02731 0.164844 0
M  V30 1884 C 184.885 -1.49983 -1.2051 0
M  V30 1885 O 184.178 -0.680208 -1.79119 0
M  V30 1886 C 184.372 -3.57238 0.107679 0
M  V30 1887 C 184.201 -4.24977 1.47054 0
M  V30 1888 C 182.971 -4.61356 2.06103 0
M  V30 1889 C 185.169 -4.54476 2.40741 0
M  V30 1890 N 183.151 -5.14132 3.35473 0
M  V30 1891 C 184.522 -5.08489 3.54737 0
M  V30 1892 C 186.577 -4.36438 2.39637 0
M  V30 1893 C 185.28 -5.46364 4.67845 0
M  V30 1894 C 187.306 -4.7537 3.5182 0
M  V30 1895 C 186.668 -5.2951 4.64541 0
M  V30 1896 H 182.767 -0.774976 0.104578 0
M  V30 1897 H 185.351 -1.75051 0.852367 0
M  V30 1898 H 183.522 -3.84498 -0.549165 0
M  V30 1899 H 185.254 -4.0288 -0.383351 0
M  V30 1900 H 182.009 -4.46151 1.58892 0
M  V30 1901 H 182.433 -5.4498 4.01654 0
M  V30 1902 H 187.075 -3.93861 1.53731 0
M  V30 1903 H 184.793 -5.87888 5.54448 0
M  V30 1904 H 188.379 -4.63115 3.52159 0
M  V30 1905 H 187.259 -5.59077 5.49911 0
M  V30 1906 N 184.763 -0.387143 -1.52771 0
M  V30 1907 C 185.711 0.463953 -2.27926 0
M  V30 1908 C 186.705 1.06493 -1.31741 0
M  V30 1909 O 187.911 1.00565 -1.49287 0
M  V30 1910 H 184.286 0.16837 -0.732909 0
M  V30 1911 H 186.257 -0.19141 -2.97785 0
M  V30 1912 C 185.006 1.5803 -3.09713 0
M  V30 1913 H 184.329 1.12718 -3.83581 0
M  V30 1914 H 185.769 2.15008 -3.65442 0
M  V30 1915 C 184.228 2.53509 -2.2189 0
M  V30 1916 O 184.758 3.56863 -1.84422 0
M  V30 1917 N 182.964 2.23199 -1.86093 0
M  V30 1918 H 182.511 1.39185 -2.16761 0
M  V30 1919 H 182.469 2.87333 -1.27621 0
M  V30 1920 N 186.241 1.57166 -0.116904 0
M  V30 1921 C 187.204 2.14039 0.819742 0
M  V30 1922 C 188.204 1.07477 1.19605 0
M  V30 1923 O 189.394 1.33263 1.1219 0
M  V30 1924 C 186.526 2.67891 2.10826 0
M  V30 1925 H 187.719 2.98128 0.325511 0
M  V30 1926 H 185.272 1.55739 0.132312 0
M  V30 1927 H 186.007 1.87384 2.64685 0
M  V30 1928 H 185.792 3.45823 1.84793 0
M  V30 1929 H 187.282 3.11809 2.77785 0
M  V30 1930 N 187.719 -0.156864 1.56817 0
M  V30 1931 C 188.666 -1.19394 1.97519 0
M  V30 1932 C 189.636 -1.4322 0.841265 0
M  V30 1933 O 190.821 -1.55719 1.10255 0
M  V30 1934 C 187.961 -2.52483 2.35258 0
M  V30 1935 C 187.074 -2.35914 3.61896 0
M  V30 1936 C 186.209 -3.61969 3.88782 0
M  V30 1937 C 185.248 -3.40395 5.08722 0
M  V30 1938 N 184.385 -4.58556 5.31668 0
M  V30 1939 H 189.225 -0.839845 2.85921 0
M  V30 1940 H 186.762 -0.403264 1.41464 0
M  V30 1941 H 188.72 -3.30071 2.55165 0
M  V30 1942 H 187.35 -2.85859 1.49949 0
M  V30 1943 H 186.402 -1.49429 3.49821 0
M  V30 1944 H 187.714 -2.15926 4.49641 0
M  V30 1945 H 186.868 -4.47989 4.09135 0
M  V30 1946 H 185.607 -3.84951 2.9944 0
M  V30 1947 H 184.612 -2.52763 4.88253 0
M  V30 1948 H 185.837 -3.18822 5.99608 0
M  V30 1949 H 183.783 -4.81729 4.45279 0
M  V30 1950 H 183.7 -4.41535 6.13664 0
M  V30 1951 H 184.968 -5.45817 5.5651 0
M  V30 1952 N 189.197 -1.51736 -0.425897 0
M  V30 1953 C 190.144 -1.73875 -1.51776 0
M  V30 1954 C 191.114 -0.580702 -1.55618 0
M  V30 1955 O 192.299 -0.81641 -1.72451 0
M  V30 1956 C 189.439 -1.88012 -2.89388 0
M  V30 1957 C 188.552 -3.15606 -2.94986 0
M  V30 1958 C 187.687 -3.20271 -4.23793 0
M  V30 1959 C 186.726 -4.42134 -4.23302 0
M  V30 1960 N 185.863 -4.44284 -5.43651 0
M  V30 1961 H 190.703 -2.67071 -1.32201 0
M  V30 1962 H 188.24 -1.32351 -0.642008 0
M  V30 1963 H 190.198 -1.9419 -3.69251 0
M  V30 1964 H 188.828 -0.98213 -3.07496 0
M  V30 1965 H 187.88 -3.18681 -2.07717 0
M  V30 1966 H 189.192 -4.05486 -2.90486 0
M  V30 1967 H 188.346 -3.25428 -5.12036 0
M  V30 1968 H 187.085 -2.28299 -4.30965 0
M  V30 1969 H 186.09 -4.3714 -3.3345 0
M  V30 1970 H 187.315 -5.35382 -4.17783 0
M  V30 1971 H 185.261 -3.55188 -5.51523 0
M  V30 1972 H 185.178 -5.27988 -5.41078 0
M  V30 1973 H 186.446 -4.53649 -6.33895 0
M  V30 1974 N 190.675 0.682077 -1.42076 0
M  V30 1975 C 191.905 1.46844 -1.45329 0
M  V30 1976 C 192.313 1.89102 -0.0609328 0
M  V30 1977 O 191.656 1.58238 0.933082 0
M  V30 1978 C 191.718 2.75375 -2.31104 0
M  V30 1979 C 191.382 2.55238 -3.79081 0
M  V30 1980 C 192.379 2.20309 -4.70914 0
M  V30 1981 C 190.064 2.70459 -4.2327 0
M  V30 1982 C 192.058 2.00859 -6.04925 0
M  V30 1983 C 189.745 2.50624 -5.57343 0
M  V30 1984 C 190.743 2.15876 -6.47986 0
M  V30 1985 O 190.431 1.96227 -7.79583 0
M  V30 1986 H 190.163 0.4586 -0.496651 0
M  V30 1987 H 192.717 0.846131 -1.87162 0
M  V30 1988 H 190.947 3.40061 -1.84107 0
M  V30 1989 H 192.636 3.37231 -2.25898 0
M  V30 1990 H 193.402 2.08153 -4.38061 0
M  V30 1991 H 189.281 2.96485 -3.53012 0
M  V30 1992 H 192.825 1.7366 -6.75639 0
M  V30 1993 H 188.722 2.62375 -5.89771 0
M  V30 1994 H 189.49 2.10883 -7.90867 0
M  V30 1995 N 192.153 1.28127 0.917671 0
M  V30 1996 C 193.378 1.18007 1.70555 0
M  V30 1997 C 193.803 -0.258257 1.86319 0
M  V30 1998 O 193.161 -1.1869 1.37049 0
M  V30 1999 C 193.209 1.87948 3.07746 0
M  V30 2000 O 192.313 1.18427 3.9503 0
M  V30 2001 H 191.654 0.409867 0.522403 0
M  V30 2002 H 194.184 1.69379 1.1477 0
M  V30 2003 H 194.194 1.95701 3.58001 0
M  V30 2004 H 192.869 2.92573 2.95591 0
M  V30 2005 H 191.446 1.18811 3.53466 0
M  V30 2006 N 193.631 -1.12557 1.10312 0
M  V30 2007 C 194.859 -1.87864 0.866873 0
M  V30 2008 C 195.274 -1.79588 -0.582557 0
M  V30 2009 O 194.631 -1.16887 -1.40156 0
M  V30 2010 C 194.682 -3.37125 1.30496 0
M  V30 2011 O 194.403 -3.45201 2.69755 0
M  V30 2012 C 195.904 -4.29373 1.10243 0
M  V30 2013 H 193.124 -0.594452 0.311236 0
M  V30 2014 H 195.668 -1.42429 1.46745 0
M  V30 2015 H 193.823 -3.80109 0.748081 0
M  V30 2016 H 194.237 -4.38056 2.88457 0
M  V30 2017 H 195.711 -5.32394 1.45811 0
M  V30 2018 H 196.188 -4.39181 0.0409492 0
M  V30 2019 H 196.794 -3.92169 1.64571 0
M  V30 2020 N 195.109 -0.891671 -1.2995 0
M  V30 2021 C 196.356 -0.513501 -1.95881 0
M  V30 2022 C 196.684 0.938655 -1.70351 0
M  V30 2023 O 195.939 1.67936 -1.00478 0
M  V30 2024 C 196.238 -0.742868 -3.49594 0
M  V30 2025 C 195.904 -2.17114 -3.95186 0
M  V30 2026 C 194.566 -2.56169 -4.07346 0
M  V30 2027 C 196.918 -3.10162 -4.18866 0
M  V30 2028 C 194.246 -3.87469 -4.4055 0
M  V30 2029 C 196.598 -4.41001 -4.53542 0
M  V30 2030 C 195.262 -4.79941 -4.63911 0
M  V30 2031 H 194.532 -0.187903 -0.71678 0
M  V30 2032 H 197.179 -1.1288 -1.54694 0
M  V30 2033 H 195.484 -0.044586 -3.91775 0
M  V30 2034 H 197.181 -0.429767 -3.9869 0
M  V30 2035 H 193.771 -1.85801 -3.86233 0
M  V30 2036 H 197.955 -2.81206 -4.08946 0
M  V30 2037 H 193.211 -4.17371 -4.46779 0
M  V30 2038 H 197.385 -5.13133 -4.70815 0
M  V30 2039 H 195.012 -5.81719 -4.89395 0
M  V30 2040 N 196.587 1.43421 -0.653314 0
M  V30 2041 C 197.835 2.01414 -0.166415 0
M  V30 2042 C 198.156 1.51803 1.22397 0
M  V30 2043 O 197.426 0.730693 1.81763 0
M  V30 2044 H 196.006 0.744703 -0.0585319 0
M  V30 2045 H 198.668 1.75629 -0.845003 0
M  V30 2046 H 197.764 3.11734 -0.151111 0
M  V30 2047 N 198.065 0.39524 1.52563 0
M  V30 2048 C 198.975 -0.444232 2.30356 0
M  V30 2049 C 199.991 -1.06615 1.37511 0
M  V30 2050 O 201.167 -1.07067 1.70583 0
M  V30 2051 C 198.232 -1.55315 3.09964 0
M  V30 2052 C 197.293 -0.955734 4.18526 0
M  V30 2053 C 196.526 -2.01181 4.9433 0
M  V30 2054 O 196.749 -3.22781 4.70285 0
M  V30 2055 O 195.683 -1.62579 5.79527 0
M  V30 2056 H 199.509 0.189667 3.03107 0
M  V30 2057 H 197.094 0.1588 1.48554 0
M  V30 2058 H 198.976 -2.19724 3.59582 0
M  V30 2059 H 197.651 -2.17191 2.4002 0
M  V30 2060 H 196.558 -0.274743 3.7309 0
M  V30 2061 H 197.891 -0.381109 4.90722 0
M  V30 2062 N 199.544 -1.57102 0.125237 0
M  V30 2063 C 200.507 -2.14471 -0.80838 0
M  V30 2064 C 201.507 -1.0811 -1.19033 0
M  V30 2065 O 202.697 -1.33856 -1.11482 0
M  V30 2066 C 199.829 -2.69005 -2.09402 0
M  V30 2067 H 201.022 -2.98297 -0.309696 0
M  V30 2068 H 198.575 -1.55807 -0.124051 0
M  V30 2069 H 199.31 -1.88785 -2.63687 0
M  V30 2070 H 199.095 -3.46799 -1.82957 0
M  V30 2071 H 200.585 -3.13278 -2.76128 0
M  V30 2072 N 201.022 0.148545 -1.56898 0
M  V30 2073 C 201.985 1.16736 -1.97244 0
M  V30 2074 C 202.985 1.35947 -0.858777 0
M  V30 2075 O 204.175 1.32966 -1.12542 0
M  V30 2076 C 201.307 2.52798 -2.28705 0
M  V30 2077 H 202.5 0.821279 -2.88435 0
M  V30 2078 H 200.053 0.391831 -1.51309 0
M  V30 2079 H 200.788 2.92381 -1.403 0
M  V30 2080 H 200.573 2.40216 -3.09901 0
M  V30 2081 H 202.063 3.26179 -2.60762 0
M  V30 2082 N 202.5 1.5196 0.417844 0
M  V30 2083 C 203.725 1.69717 1.1921 0
M  V30 2084 C 204.15 0.402148 1.83751 0
M  V30 2085 O 203.508 -0.639593 1.69643 0
M  V30 2086 C 203.556 2.82794 2.2374 0
M  V30 2087 O 202.66 2.47756 3.29683 0
M  V30 2088 H 202.001 0.565263 0.348387 0
M  V30 2089 H 204.531 1.98621 0.490985 0
M  V30 2090 H 204.541 3.07452 2.68212 0
M  V30 2091 H 203.216 3.76756 1.76146 0
M  V30 2092 H 201.793 2.33739 2.90552 0
M  V30 2093 N 203.978 -0.674533 1.42435 0
M  V30 2094 C 204.941 -1.76986 1.45632 0
M  V30 2095 C 205.941 -1.5708 0.343871 0
M  V30 2096 O 207.131 -1.63367 0.604709 0
M  V30 2097 C 204.263 -3.15623 1.28822 0
M  V30 2098 H 205.456 -1.75539 2.43158 0
M  V30 2099 H 203.009 -0.884189 1.28887 0
M  V30 2100 H 203.744 -3.22696 0.322193 0
M  V30 2101 H 203.529 -3.31475 2.09444 0
M  V30 2102 H 205.019 -3.95537 1.33942 0
M  V30 2103 N 205.456 -1.28612 -0.910864 0
M  V30 2104 C 206.867 -1.14406 -1.47541 0
M  V30 2105 C 207.218 0.264901 -1.94403 0
M  V30 2106 O 206.343 1.15942 -1.82719 0
M  V30 2107 C 206.938 -2.07073 -2.68153 0
M  V30 2108 C 205.497 -1.96923 -3.20778 0
M  V30 2109 C 204.644 -1.98646 -1.93481 0
M  V30 2110 H 207.595 -1.41259 -0.723291 0
M  V30 2111 H 207.616 -1.63642 -3.43514 0
M  V30 2112 H 207.128 -3.09611 -2.34015 0
M  V30 2113 H 205.229 -0.97433 -3.59635 0
M  V30 2114 H 205.342 -2.84026 -3.85832 0
M  V30 2115 H 203.706 -1.43093 -2.10705 0
M  V30 2116 H 204.489 -3.02868 -1.61634 0
M  V30 2117 N 206.934 1.1197 -1.10907 0
M  V30 2118 C 208.211 1.79959 -0.766432 0
M  V30 2119 C 208.591 1.97466 0.746363 0
M  V30 2120 O 207.939 1.55491 1.67436 0
M  V30 2121 C 208.149 3.14009 -1.52314 0
M  V30 2122 C 209.497 3.89134 -1.69883 0
M  V30 2123 O 210.521 3.2368 -1.48692 0
M  V30 2124 O 209.38 5.06572 -2.05054 0
M  V30 2125 H 206.474 0.779208 -0.277062 0
M  V30 2126 H 209.02 1.18762 -1.21217 0
M  V30 2127 H 207.792 2.96587 -2.55249 0
M  V30 2128 H 207.415 3.82915 -1.07059 0
M  V30 2129 N 208.412 0.89855 1.29475 0
M  V30 2130 C 209.66 0.522847 1.9522 0
M  V30 2131 C 209.981 -0.93371 1.71192 0
M  V30 2132 O 209.251 -1.65823 1.04305 0
M  V30 2133 H 207.831 0.190366 0.722336 0
M  V30 2134 H 210.493 1.14459 1.5775 0
M  V30 2135 H 209.589 0.704476 3.04045 0
M  V30 2136 N 209.89 -1.43072 0.660911 0
M  V30 2137 C 210.82 -2.33497 -0.0122829 0
M  V30 2138 C 211.801 -1.49903 -0.803925 0
M  V30 2139 O 212.986 -1.78546 -0.763864 0
M  V30 2140 C 210.116 -3.33363 -0.973994 0
M  V30 2141 C 209.07 -4.27003 -0.291928 0
M  V30 2142 C 208.396 -5.16967 -1.36562 0
M  V30 2143 C 209.696 -5.15816 0.820462 0
M  V30 2144 H 211.39 -2.90038 0.742873 0
M  V30 2145 H 208.936 -1.39461 0.358688 0
M  V30 2146 H 210.889 -3.95524 -1.45392 0
M  V30 2147 H 209.613 -2.75095 -1.7604 0
M  V30 2148 H 208.272 -3.66217 0.167623 0
M  V30 2149 H 207.92 -4.55034 -2.14366 0
M  V30 2150 H 207.62 -5.80441 -0.914454 0
M  V30 2151 H 209.144 -5.82003 -1.84675 0
M  V30 2152 H 210.558 -5.71742 0.422366 0
M  V30 2153 H 208.955 -5.8805 1.19656 0
M  V30 2154 H 210.025 -4.55045 1.67518 0
M  V30 2155 N 211.368 -0.403325 -1.52352 0
M  V30 2156 C 212.331 0.413051 -2.25447 0
M  V30 2157 C 213.331 0.978513 -1.276 0
M  V30 2158 O 214.521 0.858305 -1.51587 0
M  V30 2159 C 211.653 1.58087 -3.02029 0
M  V30 2160 H 212.846 -0.227094 -2.99039 0
M  V30 2161 H 210.399 -0.155722 -1.55522 0
M  V30 2162 H 211.134 2.25804 -2.32772 0
M  V30 2163 H 210.919 1.18195 -3.73861 0
M  V30 2164 H 212.409 2.1585 -3.57489 0
M  V30 2165 N 212.846 1.57033 -0.133567 0
M  V30 2166 C 214.092 1.95976 0.521649 0
M  V30 2167 C 214.425 1.01779 1.65393 0
M  V30 2168 O 213.7 0.0576581 1.94415 0
M  V30 2169 C 213.983 3.44738 1.04057 0
M  V30 2170 C 213.836 4.49711 -0.0892897 0
M  V30 2171 C 215.155 3.95682 1.92675 0
M  V30 2172 H 212.274 0.712579 0.188149 0
M  V30 2173 H 214.916 1.88813 -0.212076 0
M  V30 2174 H 213.066 3.50973 1.66583 0
M  V30 2175 H 214.738 4.55565 -0.725152 0
M  V30 2176 H 212.981 4.27261 -0.750378 0
M  V30 2177 H 213.652 5.51099 0.315284 0
M  V30 2178 H 216.128 3.91841 1.39998 0
M  V30 2179 H 215.004 5.00262 2.25897 0
M  V30 2180 H 215.265 3.37239 2.85872 0
M  V30 2181 N 214.325 -0.140222 1.56975 0
M  V30 2182 C 215.571 -0.852949 1.83991 0
M  V30 2183 C 215.904 -1.80512 0.716187 0
M  V30 2184 O 215.179 -1.92479 -0.279681 0
M  V30 2185 C 215.462 -1.6215 3.21527 0
M  V30 2186 C 215.315 -0.690363 4.4447 0
M  V30 2187 C 216.634 -2.58247 3.56366 0
M  V30 2188 H 213.753 -0.308634 0.669264 0
M  V30 2189 H 216.395 -0.117898 1.89634 0
M  V30 2190 H 214.545 -2.24812 3.16847 0
M  V30 2191 H 216.217 -0.0742264 4.6124 0
M  V30 2192 H 214.46 -0.000396433 4.338 0
M  V30 2193 H 215.131 -1.2643 5.37326 0
M  V30 2194 H 217.607 -2.05701 3.61699 0
M  V30 2195 H 216.483 -3.09067 4.53617 0
M  V30 2196 H 216.744 -3.39923 2.82674 0
M  V30 2197 N 215.803 -1.52179 -0.40978 0
M  V30 2198 C 217.051 -1.65878 -1.15451 0
M  V30 2199 C 217.372 -0.390771 -1.91044 0
M  V30 2200 O 216.642 0.594323 -1.86667 0
M  V30 2201 H 215.222 -0.611405 -0.429177 0
M  V30 2202 H 217.884 -1.89219 -0.467134 0
M  V30 2203 H 216.98 -2.49954 -1.86894 0
M  V30 2204 N 217.281 0.66697 -1.42791 0
M  V30 2205 C 218.527 1.4291 -1.43891 0
M  V30 2206 C 218.86 1.94114 -0.0578972 0
M  V30 2207 O 218.135 1.71414 0.91911 0
M  V30 2208 C 218.418 2.62049 -2.46987 0
M  V30 2209 C 218.271 2.16426 -3.94309 0
M  V30 2210 C 219.59 3.64266 -2.46978 0
M  V30 2211 H 216.709 0.518306 -0.523954 0
M  V30 2212 H 219.351 0.757321 -1.74255 0
M  V30 2213 H 217.501 3.19361 -2.21225 0
M  V30 2214 H 219.173 1.64221 -4.31079 0
M  V30 2215 H 217.416 1.47925 -4.078 0
M  V30 2216 H 218.087 3.02038 -4.62036 0
M  V30 2217 H 220.563 3.16686 -2.69906 0
M  V30 2218 H 219.439 4.45196 -3.21079 0
M  V30 2219 H 219.7 4.15927 -1.49857 0
M  V30 2220 N 218.759 1.29093 0.90403 0
M  V30 2221 C 220.006 1.16813 1.65411 0
M  V30 2222 C 220.334 -0.28128 1.92455 0
M  V30 2223 O 219.589 -1.22006 1.53013 0
M  V30 2224 C 219.888 1.92224 3.01305 0
M  V30 2225 C 219.554 3.41968 2.93885 0
M  V30 2226 C 218.216 3.82807 2.91569 0
M  V30 2227 C 220.568 4.37409 2.83413 0
M  V30 2228 C 217.896 5.1741 2.76594 0
M  V30 2229 C 220.248 5.72097 2.69977 0
M  V30 2230 C 218.912 6.12199 2.66024 0
M  V30 2231 H 218.182 0.42745 0.605283 0
M  V30 2232 H 220.829 1.59981 1.05254 0
M  V30 2233 H 219.134 1.41635 3.65304 0
M  V30 2234 H 220.831 1.80131 3.58265 0
M  V30 2235 H 217.421 3.09504 2.96488 0
M  V30 2236 H 221.605 4.06813 2.84283 0
M  V30 2237 H 216.861 5.47596 2.71935 0
M  V30 2238 H 221.035 6.45704 2.60844 0
M  V30 2239 H 218.662 7.16448 2.54178 0
M  V30 2240 N 220.237 -1.11381 1.11499 0
M  V30 2241 C 221.167 -2.19509 0.796125 0
M  V30 2242 C 222.148 -1.68458 -0.235796 0
M  V30 2243 O 223.333 -1.93947 -0.0991344 0
M  V30 2244 C 220.463 -3.46475 0.239205 0
M  V30 2245 C 219.417 -4.10744 1.20307 0
M  V30 2246 C 218.743 -5.32293 0.50683 0
M  V30 2247 C 220.043 -4.55597 2.55399 0
M  V30 2248 H 221.737 -2.46439 1.70024 0
M  V30 2249 H 219.283 -1.18446 0.818935 0
M  V30 2250 H 221.236 -4.214 0.00392006 0
M  V30 2251 H 219.96 -3.19006 -0.700206 0
M  V30 2252 H 218.619 -3.37813 1.42399 0
M  V30 2253 H 218.267 -5.01095 -0.437408 0
M  V30 2254 H 217.967 -5.76243 1.1497 0
M  V30 2255 H 219.491 -6.09956 0.280351 0
M  V30 2256 H 220.905 -5.21841 2.37391 0
M  V30 2257 H 219.302 -5.10363 3.15673 0
M  V30 2258 H 220.372 -3.69013 3.14575 0
M  V30 2259 N 221.715 -0.905404 -1.28997 0
M  V30 2260 C 222.625 -0.392246 -2.31298 0
M  V30 2261 C 223.641 0.515889 -1.66176 0
M  V30 2262 O 224.817 0.404093 -1.97304 0
M  V30 2263 C 221.882 0.36686 -3.44754 0
M  V30 2264 C 220.943 -0.573485 -4.25452 0
M  V30 2265 C 220.176 0.149488 -5.33491 0
M  V30 2266 O 220.399 1.37255 -5.5364 0
M  V30 2267 O 219.333 -0.510919 -5.99728 0
M  V30 2268 H 223.159 -1.2411 -2.77183 0
M  V30 2269 H 220.744 -0.669926 -1.33538 0
M  V30 2270 H 222.626 0.795907 -4.13816 0
M  V30 2271 H 221.301 1.19169 -3.00966 0
M  V30 2272 H 220.208 -1.05176 -3.59011 0
M  V30 2273 H 221.541 -1.36489 -4.72897 0
M  V30 2274 N 223.193 1.4272 -0.668489 0
M  V30 2275 C 224.421 2.05966 -0.196348 0
M  V30 2276 C 224.836 1.50191 1.14403 0
M  V30 2277 O 224.193 0.639208 1.7094 0
M  V30 2278 C 224.244 3.61314 -0.115815 0
M  V30 2279 O 223.965 4.1502 -1.40322 0
M  V30 2280 C 225.466 4.41663 0.380579 0
M  V30 2281 H 222.686 0.663954 -0.0969829 0
M  V30 2282 H 225.23 1.82966 -0.913446 0
M  V30 2283 H 223.385 3.83448 0.551931 0
M  V30 2284 H 223.799 5.08832 -1.27243 0
M  V30 2285 H 225.273 5.5065 0.385848 0
M  V30 2286 H 225.75 4.15792 1.41471 0
M  V30 2287 H 226.356 4.24534 -0.255209 0
M  V30 2288 N 224.671 0.411399 1.52136 0
M  V30 2289 C 225.919 -0.163322 2.01439 0
M  V30 2290 C 226.24 -1.45453 1.29879 0
M  V30 2291 O 225.51 -1.91225 0.4254 0
M  V30 2292 H 224.09 -0.0633447 0.744309 0
M  V30 2293 H 226.752 0.548161 1.87033 0
M  V30 2294 H 225.848 -0.357817 3.10042 0
M  V30 2295 N 226.149 -1.5696 0.141893 0
M  V30 2296 C 227.426 -1.87553 -0.555281 0
M  V30 2297 C 227.806 -1.04699 -1.83306 0
M  V30 2298 O 227.154 -0.132346 -2.28116 0
M  V30 2299 C 227.364 -3.39093 -0.825664 0
M  V30 2300 C 228.712 -4.08199 -1.16869 0
M  V30 2301 O 229.736 -3.44242 -0.915185 0
M  V30 2302 O 228.595 -5.21139 -1.6455 0
M  V30 2303 H 225.689 -0.777188 -0.282679 0
M  V30 2304 H 228.235 -1.68763 0.17812 0
M  V30 2305 H 227.007 -3.91221 0.0788633 0
M  V30 2306 H 226.63 -3.63393 -1.61343 0
M  V30 2307 N 227.627 0.131896 -1.57047 0
M  V30 2308 C 228.537 1.1815 -2.02676 0
M  V30 2309 C 229.553 1.46113 -0.944824 0
M  V30 2310 O 230.729 1.57485 -1.25541 0
M  V30 2311 C 227.794 2.49139 -2.41103 0
M  V30 2312 C 226.855 2.28688 -3.63318 0
M  V30 2313 C 226.088 3.53431 -3.99903 0
M  V30 2314 O 226.311 4.60223 -3.36973 0
M  V30 2315 O 225.245 3.45198 -4.93074 0
M  V30 2316 H 229.071 0.824069 -2.92306 0
M  V30 2317 H 226.656 0.341745 -1.45439 0
M  V30 2318 H 228.538 3.26338 -2.66611 0
M  V30 2319 H 227.213 2.84382 -1.54624 0
M  V30 2320 H 226.12 1.4939 -3.42977 0
M  V30 2321 H 227.453 1.98355 -4.50462 0
M  V30 2322 N 229.106 1.52395 0.401703 0
M  V30 2323 C 230.056 1.72649 1.48917 0
M  V30 2324 C 231.04 0.580436 1.50066 0
M  V30 2325 O 232.232 0.83779 1.55917 0
M  V30 2326 C 229.361 1.88729 2.86769 0
M  V30 2327 C 228.447 3.09228 2.90239 0
M  V30 2328 N 228.838 4.31805 2.63396 0
M  V30 2329 C 227.136 3.09214 3.21408 0
M  V30 2330 C 227.837 5.13326 2.73625 0
M  V30 2331 N 226.813 4.48735 3.06819 0
M  V30 2332 H 230.615 2.65058 1.26971 0
M  V30 2333 H 228.129 1.50528 0.609504 0
M  V30 2334 H 230.126 2.01358 3.65049 0
M  V30 2335 H 228.786 0.975252 3.09708 0
M  V30 2336 H 229.797 4.60154 2.37653 0
M  V30 2337 H 226.474 2.27774 3.49893 0
M  V30 2338 H 227.864 6.21003 2.56524 0
M  V30 2339 N 230.584 -0.659388 1.43143 0
M  V30 2340 C 231.995 -1.24041 1.39537 0
M  V30 2341 C 232.346 -1.95963 0.0963364 0
M  V30 2342 O 231.471 -2.00892 -0.804438 0
M  V30 2343 C 232.066 -2.25601 2.52764 0
M  V30 2344 C 230.625 -2.79195 2.52443 0
M  V30 2345 C 229.772 -1.53743 2.30778 0
M  V30 2346 H 232.723 -0.451792 1.52133 0
M  V30 2347 H 232.744 -3.07651 2.23899 0
M  V30 2348 H 232.256 -1.73226 3.47296 0
M  V30 2349 H 230.357 -3.35649 1.61773 0
M  V30 2350 H 230.47 -3.2716 3.50004 0
M  V30 2351 H 228.834 -1.80869 1.79328 0
M  V30 2352 H 229.617 -1.03312 3.27386 0
M  V30 2353 N 232.062 -1.29571 -0.897171 0
M  V30 2354 C 233.287 -1.20705 -1.68656 0
M  V30 2355 C 233.712 0.228582 -1.86706 0
M  V30 2356 O 233.07 1.16494 -1.3892 0
M  V30 2357 C 233.118 -1.9282 -3.04717 0
M  V30 2358 O 232.222 -1.24697 -3.93096 0
M  V30 2359 H 231.563 -0.418126 -0.515816 0
M  V30 2360 H 234.093 -1.71183 -1.12061 0
M  V30 2361 H 234.103 -2.01372 -3.54843 0
M  V30 2362 H 232.778 -2.97239 -2.90899 0
M  V30 2363 H 231.355 -1.2442 -3.51531 0
M  V30 2364 N 233.54 1.10788 -1.12088 0
M  V30 2365 C 234.473 2.16237 -0.729168 0
M  V30 2366 C 235.451 1.60207 0.277921 0
M  V30 2367 O 236.635 1.87707 0.172737 0
M  V30 2368 C 233.762 3.38609 -0.0786848 0
M  V30 2369 C 232.808 4.13322 -1.05201 0
M  V30 2370 S 233.641 4.69371 -2.57781 0
M  V30 2371 C 234.797 5.95058 -1.94053 0
M  V30 2372 H 235.03 2.4913 -1.62239 0
M  V30 2373 H 232.563 1.22519 -0.939603 0
M  V30 2374 H 234.521 4.09473 0.290254 0
M  V30 2375 H 233.182 3.03962 0.791593 0
M  V30 2376 H 232.375 5.01051 -0.544433 0
M  V30 2377 H 231.977 3.48251 -1.36371 0
M  V30 2378 H 234.269 6.65278 -1.28107 0
M  V30 2379 H 235.212 6.50472 -2.79807 0
M  V30 2380 H 235.62 5.46918 -1.39787 0
M  V30 2381 N 235.018 0.912232 1.28515 0
M  V30 2382 C 235.966 0.389597 2.29314 0
M  V30 2383 C 236.96 -0.517915 1.61289 0
M  V30 2384 O 238.166 -0.399328 1.75515 0
M  V30 2385 H 234.541 0.107386 0.744293 0
M  V30 2386 H 236.512 1.25286 2.70825 0
M  V30 2387 C 235.261 -0.356496 3.45868 0
M  V30 2388 H 234.584 0.332608 3.98414 0
M  V30 2389 H 236.024 -0.686851 4.184 0
M  V30 2390 C 234.483 -1.56383 2.98406 0
M  V30 2391 O 235.013 -2.66294 3.00749 0
M  V30 2392 N 233.219 -1.41029 2.54085 0
M  V30 2393 H 232.766 -0.516089 2.52377 0
M  V30 2394 H 232.724 -2.21939 2.22689 0
M  V30 2395 N 236.496 -1.42363 0.676048 0
M  V30 2396 C 237.912 -1.55811 0.345718 0
M  V30 2397 C 238.112 -1.65544 -1.14879 0
M  V30 2398 O 237.168 -1.62306 -1.93424 0
M  V30 2399 C 238.481 -2.80746 1.07713 0
M  V30 2400 C 240.029 -2.9452 1.05958 0
M  V30 2401 C 240.504 -4.22318 1.77233 0
M  V30 2402 N 241.995 -4.29233 1.74108 0
M  V30 2403 C 242.73 -5.26935 2.26113 0
M  V30 2404 N 242.226 -6.30783 2.86505 0
M  V30 2405 N 244.019 -5.18741 2.1648 0
M  V30 2406 H 236.17 -1.34289 1.6456 0
M  V30 2407 H 238.433 -0.646506 0.69335 0
M  V30 2408 H 238.139 -2.79696 2.13221 0
M  V30 2409 H 238.013 -3.71676 0.64316 0
M  V30 2410 H 240.4 -2.95097 0.0128255 0
M  V30 2411 H 240.481 -2.04817 1.53244 0
M  V30 2412 H 240.125 -4.22502 2.81877 0
M  V30 2413 H 240.055 -5.10958 1.27396 0
M  V30 2414 H 242.546 -3.54814 1.30059 0
M  V30 2415 H 242.859 -7.01691 3.23805 0
M  V30 2416 H 241.204 -6.31341 2.90575 0
M  V30 2417 H 244.395 -4.36533 1.68987 0
M  V30 2418 H 244.568 -5.94721 2.57316 0
M  V30 2419 N 237.974 -0.419461 -1.51915 0
M  V30 2420 C 238.904 0.391813 -2.30189 0
M  V30 2421 C 239.885 1.03699 -1.34836 0
M  V30 2422 O 241.07 1.04403 -1.63748 0
M  V30 2423 C 238.2 1.50312 -3.13087 0
M  V30 2424 C 237.154 0.9824 -4.16573 0
M  V30 2425 C 236.48 2.18809 -4.8788 0
M  V30 2426 C 237.78 0.0292356 -5.22292 0
M  V30 2427 H 239.474 -0.26135 -2.98257 0
M  V30 2428 H 237.02 -0.127134 -1.43438 0
M  V30 2429 H 238.973 2.07773 -3.66617 0
M  V30 2430 H 237.697 2.18431 -2.42807 0
M  V30 2431 H 236.356 0.430119 -3.64068 0
M  V30 2432 H 236.004 2.85507 -4.14119 0
M  V30 2433 H 235.704 1.84615 -5.57845 0
M  V30 2434 H 237.228 2.76858 -5.44226 0
M  V30 2435 H 238.642 0.512976 -5.71 0
M  V30 2436 H 237.039 -0.2244 -5.9968 0
M  V30 2437 H 238.109 -0.912931 -4.76228 0
M  V30 2438 N 239.452 1.56882 -0.150215 0
M  V30 2439 C 240.68 2.00593 0.506948 0
M  V30 2440 C 241.095 1.03033 1.58208 0
M  V30 2441 O 240.452 0.0278396 1.82479 0
M  V30 2442 C 240.503 3.44209 1.10465 0
M  V30 2443 O 240.224 4.3804 0.0724636 0
M  V30 2444 C 241.725 4.03214 1.84211 0
M  V30 2445 H 238.945 0.65795 0.13169 0
M  V30 2446 H 241.489 2.03018 -0.245743 0
M  V30 2447 H 239.644 3.42625 1.80795 0
M  V30 2448 H 240.058 5.22007 0.510793 0
M  V30 2449 H 241.532 5.0569 2.21318 0
M  V30 2450 H 242.009 3.44107 2.72923 0
M  V30 2451 H 242.615 4.08437 1.18572 0
M  V30 2452 N 240.93 -0.123565 1.57115 0
M  V30 2453 C 242.207 -0.862196 1.75572 0
M  V30 2454 C 242.587 -1.98279 0.724475 0
M  V30 2455 O 241.935 -2.27102 -0.252407 0
M  V30 2456 C 242.145 -1.38309 3.20424 0
M  V30 2457 C 243.493 -1.83724 3.82793 0
M  V30 2458 O 244.517 -1.47999 3.23998 0
M  V30 2459 O 243.376 -2.49685 4.86127 0
M  V30 2460 H 240.47 -0.409113 0.718718 0
M  V30 2461 H 243.016 -0.107661 1.69358 0
M  V30 2462 H 241.788 -0.578889 3.86994 0
M  V30 2463 H 241.411 -2.20046 3.31158 0
M  V30 2464 N 242.408 -1.52605 -0.393616 0
M  V30 2465 C 243.371 -1.76415 -1.46323 0
M  V30 2466 C 244.371 -0.634126 -1.47768 0
M  V30 2467 O 245.561 -0.902142 -1.4902 0
M  V30 2468 C 242.693 -1.8607 -2.85641 0
M  V30 2469 H 243.886 -2.71916 -1.26498 0
M  V30 2470 H 241.439 -1.43257 -0.625073 0
M  V30 2471 H 242.174 -0.925378 -3.10817 0
M  V30 2472 H 241.959 -2.68235 -2.85993 0
M  V30 2473 H 243.449 -2.06179 -3.63153 0
M  V30 2474 N 243.887 0.651787 -1.4349 0
M  V30 2475 C 244.817 1.77621 -1.51569 0
M  V30 2476 C 245.798 1.66022 -0.370253 0
M  V30 2477 O 246.983 1.85095 -0.587658 0
M  V30 2478 C 244.113 3.16056 -1.43966 0
M  V30 2479 C 243.067 3.4242 -2.56774 0
M  V30 2480 C 242.393 4.8067 -2.34223 0
M  V30 2481 C 243.693 3.37023 -3.99015 0
M  V30 2482 H 245.387 1.71117 -2.45681 0
M  V30 2483 H 242.933 0.821825 -1.18246 0
M  V30 2484 H 244.886 3.94472 -1.48221 0
M  V30 2485 H 243.61 3.23293 -0.463586 0
M  V30 2486 H 242.269 2.66375 -2.51873 0
M  V30 2487 H 241.917 4.84585 -1.34856 0
M  V30 2488 H 241.617 4.9927 -3.09844 0
M  V30 2489 H 243.141 5.61342 -2.40265 0
M  V30 2490 H 244.555 4.05374 -4.05395 0
M  V30 2491 H 242.952 3.67159 -4.74673 0
M  V30 2492 H 244.022 2.3518 -4.2405 0
M  V30 2493 N 245.365 1.30045 0.890287 0
M  V30 2494 C 246.595 1.21296 1.67245 0
M  V30 2495 C 247.003 -0.227471 1.87828 0
M  V30 2496 O 246.346 -1.16296 1.422 0
M  V30 2497 C 246.408 1.86519 3.07329 0
M  V30 2498 C 246.072 3.35837 3.09939 0
M  V30 2499 C 247.069 4.31915 2.89389 0
M  V30 2500 C 244.754 3.77196 3.31706 0
M  V30 2501 C 246.748 5.67325 2.90552 0
M  V30 2502 C 244.435 5.12725 3.32499 0
M  V30 2503 C 245.433 6.076 3.11947 0
M  V30 2504 O 245.121 7.40655 3.12547 0
M  V30 2505 H 244.853 0.4211 0.528821 0
M  V30 2506 H 247.407 1.72111 1.12103 0
M  V30 2507 H 245.637 1.30228 3.64112 0
M  V30 2508 H 247.326 1.71963 3.67673 0
M  V30 2509 H 248.092 4.01294 2.72375 0
M  V30 2510 H 243.971 3.03796 3.4674 0
M  V30 2511 H 247.515 6.41354 2.74429 0
M  V30 2512 H 243.412 5.42988 3.49047 0
M  V30 2513 H 244.18 7.49577 3.28749 0
M  V30 2514 N 246.843 -1.10192 1.12674 0
M  V30 2515 C 247.776 -2.15847 0.740625 0
M  V30 2516 C 248.754 -1.60352 -0.269421 0
M  V30 2517 O 249.938 -1.87796 -0.16278 0
M  V30 2518 C 247.065 -3.38562 0.096641 0
M  V30 2519 C 246.111 -4.12758 1.07391 0
M  V30 2520 S 246.944 -4.67997 2.60267 0
M  V30 2521 C 248.1 -5.94021 1.97206 0
M  V30 2522 H 248.333 -2.48266 1.63558 0
M  V30 2523 H 245.866 -1.22019 0.946087 0
M  V30 2524 H 247.824 -4.09621 -0.268535 0
M  V30 2525 H 246.485 -3.04377 -0.775462 0
M  V30 2526 H 245.678 -5.00755 0.570997 0
M  V30 2527 H 245.28 -3.47523 1.38216 0
M  V30 2528 H 247.572 -6.64589 1.31634 0
M  V30 2529 H 248.515 -6.48979 2.83253 0
M  V30 2530 H 248.923 -5.46169 1.42686 0
M  V30 2531 N 248.321 -0.919034 -1.28029 0
M  V30 2532 C 249.567 -0.555757 -1.95036 0
M  V30 2533 C 249.9 0.899198 -1.72128 0
M  V30 2534 O 249.175 1.64023 -1.04531 0
M  V30 2535 C 249.458 -0.872024 -3.49382 0
M  V30 2536 C 249.311 -2.3801 -3.81669 0
M  V30 2537 C 250.63 -0.37185 -4.38526 0
M  V30 2538 H 247.749 -0.203386 -0.708381 0
M  V30 2539 H 250.391 -1.14924 -1.51303 0
M  V30 2540 H 248.541 -0.366946 -3.86763 0
M  V30 2541 H 250.213 -2.9562 -3.54128 0
M  V30 2542 H 248.456 -2.83289 -3.28526 0
M  V30 2543 H 249.127 -2.55192 -4.8947 0
M  V30 2544 H 251.603 -0.804602 -4.08247 0
M  V30 2545 H 250.479 -0.622173 -5.45362 0
M  V30 2546 H 250.74 0.727934 -4.36066 0
M  V30 2547 N 249.799 1.42003 -0.683588 0
M  V30 2548 C 251.215 1.55625 -0.353976 0
M  V30 2549 C 251.415 1.66151 1.14 0
M  V30 2550 O 250.471 1.63329 1.92561 0
M  V30 2551 C 251.784 2.80171 -1.092 0
M  V30 2552 C 253.332 2.93954 -1.07518 0
M  V30 2553 C 253.807 4.21372 -1.79471 0
M  V30 2554 N 255.298 4.28303 -1.76381 0
M  V30 2555 C 256.033 5.25729 -2.28904 0
M  V30 2556 N 255.529 6.29254 -2.89846 0
M  V30 2557 N 257.322 5.17586 -2.19228 0
M  V30 2558 H 249.473 1.33415 -1.6527 0
M  V30 2559 H 251.736 0.64282 -0.696769 0
M  V30 2560 H 251.442 2.78561 -2.14701 0
M  V30 2561 H 251.316 3.7133 -0.662862 0
M  V30 2562 H 253.703 2.95086 -0.028475 0
M  V30 2563 H 253.784 2.04002 -1.54328 0
M  V30 2564 H 253.428 4.21001 -2.84114 0
M  V30 2565 H 253.358 5.10275 -1.30104 0
M  V30 2566 H 255.849 3.54119 -1.31939 0
M  V30 2567 H 256.162 6.99964 -3.27522 0
M  V30 2568 H 254.507 6.29791 -2.93919 0
M  V30 2569 H 257.698 4.35631 -1.71299 0
M  V30 2570 H 257.871 5.93348 -2.60466 0
M  V30 2571 N 251.277 0.427512 1.51691 0
M  V30 2572 C 252.524 -0.142229 2.02 0
M  V30 2573 C 252.852 -1.43566 1.31221 0
M  V30 2574 O 252.107 -1.91298 0.412744 0
M  V30 2575 C 252.406 -0.418249 3.54944 0
M  V30 2576 C 252.072 0.788187 4.43958 0
M  V30 2577 C 250.734 1.11906 4.68007 0
M  V30 2578 C 253.086 1.59347 4.96244 0
M  V30 2579 C 250.414 2.25608 5.41588 0
M  V30 2580 C 252.766 2.7214 5.71072 0
M  V30 2581 C 251.43 3.05692 5.93387 0
M  V30 2582 H 250.7 -0.0520451 0.73917 0
M  V30 2583 H 253.347 0.572697 1.82736 0
M  V30 2584 H 251.652 -1.21496 3.72486 0
M  V30 2585 H 253.349 -0.872339 3.91397 0
M  V30 2586 H 249.939 0.520344 4.2543 0
M  V30 2587 H 254.123 1.35106 4.77556 0
M  V30 2588 H 249.379 2.51929 5.57083 0
M  V30 2589 H 253.553 3.34914 6.10578 0
M  V30 2590 H 251.18 3.9391 6.50184 0
M  V30 2591 N 252.755 -1.56801 0.158532 0
M  V30 2592 C 253.702 -2.17337 -0.776729 0
M  V30 2593 C 254.672 -1.1096 -1.23601 0
M  V30 2594 O 255.857 -1.39054 -1.30647 0
M  V30 2595 C 252.997 -2.80822 -2.00582 0
M  V30 2596 C 252.11 -4.01624 -1.59129 0
M  V30 2597 C 251.245 -4.53072 -2.77306 0
M  V30 2598 C 250.284 -5.66314 -2.32282 0
M  V30 2599 N 249.421 -6.12329 -3.43508 0
M  V30 2600 H 254.261 -2.96918 -0.253701 0
M  V30 2601 H 251.798 -1.46661 -0.113504 0
M  V30 2602 H 253.756 -3.15779 -2.72652 0
M  V30 2603 H 252.386 -2.03866 -2.50277 0
M  V30 2604 H 251.438 -3.72571 -0.767806 0
M  V30 2605 H 252.75 -4.83633 -1.2207 0
M  V30 2606 H 251.904 -4.90145 -3.57551 0
M  V30 2607 H 250.643 -3.70095 -3.17617 0
M  V30 2608 H 249.648 -5.28806 -1.5048 0
M  V30 2609 H 250.873 -6.51085 -1.93043 0
M  V30 2610 H 248.819 -5.32284 -3.83418 0
M  V30 2611 H 248.736 -6.89293 -3.105 0
M  V30 2612 H 250.004 -6.5405 -4.24075 0
M  V30 2613 N 254.233 0.115231 -1.57178 0
M  V30 2614 C 255.481 0.820727 -1.84685 0
M  V30 2615 C 255.802 1.80237 -0.744279 0
M  V30 2616 O 255.072 1.94529 0.231375 0
M  V30 2617 H 253.652 0.306084 -0.681411 0
M  V30 2618 H 256.314 0.101656 -1.94635 0
M  V30 2619 H 255.41 1.36366 -2.80733 0
M  V30 2620 N 255.711 1.52812 0.385517 0
M  V30 2621 C 256.939 1.71907 1.15133 0
M  V30 2622 C 257.354 0.439004 1.83625 0
M  V30 2623 O 256.711 -0.586765 1.7281 0
M  V30 2624 C 256.762 2.87099 2.19673 0
M  V30 2625 O 256.483 4.10151 1.53973 0
M  V30 2626 C 257.984 3.17902 3.08955 0
M  V30 2627 H 255.204 0.575479 0.345057 0
M  V30 2628 H 257.748 1.99476 0.45052 0
M  V30 2629 H 255.903 2.61982 2.85384 0
M  V30 2630 H 256.317 4.74514 2.23465 0
M  V30 2631 H 257.791 4.01959 3.7833 0
M  V30 2632 H 258.268 2.3243 3.72657 0
M  V30 2633 H 258.874 3.44871 2.48885 0
M  V30 2634 N 257.189 -0.644168 1.43834 0
M  V30 2635 C 258.136 -1.75671 1.49694 0
M  V30 2636 C 259.106 -1.6246 0.345809 0
M  V30 2637 O 260.291 -1.82573 0.554234 0
M  V30 2638 C 257.431 -3.13867 1.43463 0
M  V30 2639 C 256.544 -3.38147 2.6885 0
M  V30 2640 C 255.679 -4.66241 2.54544 0
M  V30 2641 C 254.718 -4.83657 3.75157 0
M  V30 2642 N 253.855 -6.03016 3.59605 0
M  V30 2643 H 258.695 -1.69998 2.44754 0
M  V30 2644 H 256.232 -0.829458 1.21484 0
M  V30 2645 H 258.19 -3.9377 1.37843 0
M  V30 2646 H 256.82 -3.18588 0.519783 0
M  V30 2647 H 255.872 -2.52276 2.84712 0
M  V30 2648 H 257.184 -3.46899 3.58417 0
M  V30 2649 H 256.338 -5.54285 2.46683 0
M  V30 2650 H 255.077 -4.59826 1.62516 0
M  V30 2651 H 254.082 -3.94046 3.83416 0
M  V30 2652 H 255.307 -4.91896 4.68204 0
M  V30 2653 H 253.253 -5.97715 2.7032 0
M  V30 2654 H 253.17 -6.12766 4.42779 0
M  V30 2655 H 254.438 -6.93657 3.55613 0
M  V30 2656 N 258.668 -1.30515 -0.883378 0
M  V30 2657 C 259.631 -1.1701 -1.97082 0
M  V30 2658 C 260.631 -0.10089 -1.60483 0
M  V30 2659 O 261.821 -0.349127 -1.70666 0
M  V30 2660 C 258.953 -0.793045 -3.31547 0
M  V30 2661 H 260.146 -2.13622 -2.10489 0
M  V30 2662 H 257.699 -1.13935 -1.06998 0
M  V30 2663 H 258.434 0.172499 -3.23841 0
M  V30 2664 H 258.219 -1.56576 -3.5948 0
M  V30 2665 H 259.709 -0.722073 -4.1131 0
M  V30 2666 N 260.146 1.09593 -1.13257 0
M  V30 2667 C 261.078 2.16015 -0.766167 0
M  V30 2668 C 262.091 1.61423 0.211303 0
M  V30 2669 O 263.28 1.78498 -0.00863946 0
M  V30 2670 C 260.38 3.38706 -0.114662 0
M  V30 2671 C 259.553 4.22717 -1.12379 0
M  V30 2672 C 258.612 5.23835 -0.498301 0
M  V30 2673 O 257.638 5.573 -1.15781 0
M  V30 2674 N 258.84 5.75886 0.730417 0
M  V30 2675 H 261.605 2.48055 -1.68193 0
M  V30 2676 H 259.166 1.25292 -1.02535 0
M  V30 2677 H 261.158 4.03464 0.315991 0
M  V30 2678 H 259.728 3.04569 0.704011 0
M  V30 2679 H 258.948 3.54122 -1.73179 0
M  V30 2680 H 260.236 4.75673 -1.80589 0
M  V30 2681 H 259.634 5.50911 1.28504 0
M  V30 2682 H 258.191 6.42387 1.10376 0
M  V30 2683 N 261.624 0.925811 1.2754 0
M  V30 2684 C 262.871 0.565255 1.94451 0
M  V30 2685 C 263.199 -0.89316 1.7278 0
M  V30 2686 O 262.454 -1.65213 1.04895 0
M  V30 2687 C 262.753 0.835296 3.47502 0
M  V30 2688 C 262.419 2.27515 3.89291 0
M  V30 2689 C 261.081 2.66879 4.00411 0
M  V30 2690 C 263.433 3.21158 4.10496 0
M  V30 2691 C 260.761 3.99014 4.30122 0
M  V30 2692 C 263.113 4.52871 4.4169 0
M  V30 2693 C 261.777 4.92072 4.51023 0
M  V30 2694 H 261.047 0.206841 0.711546 0
M  V30 2695 H 263.694 1.16942 1.51647 0
M  V30 2696 H 261.999 0.148442 3.91519 0
M  V30 2697 H 263.696 0.535322 3.97411 0
M  V30 2698 H 260.286 1.95976 3.81171 0
M  V30 2699 H 264.47 2.9195 4.01346 0
M  V30 2700 H 259.726 4.2907 4.35556 0
M  V30 2701 H 263.9 5.25436 4.57045 0
M  V30 2702 H 261.527 5.9449 4.738 0
M  V30 2703 N 263.102 -1.41638 0.69111 0
M  V30 2704 C 264.327 -2.06148 0.227583 0
M  V30 2705 C 264.752 -1.51652 -1.11281 0
M  V30 2706 O 264.11 -0.64164 -1.69566 0
M  V30 2707 C 264.158 -3.60095 0.190858 0
M  V30 2708 O 263.262 -4.03845 -0.835664 0
M  V30 2709 H 262.603 -0.654434 0.112306 0
M  V30 2710 H 265.133 -1.81484 0.944714 0
M  V30 2711 H 265.143 -4.07995 0.020207 0
M  V30 2712 H 263.818 -3.99129 1.16915 0
M  V30 2713 H 262.395 -3.67458 -0.63473 0
M  V30 2714 N 264.58 -0.43555 -1.51462 0
M  V30 2715 C 265.82 0.130708 -2.03982 0
M  V30 2716 C 266.184 1.40117 -1.31268 0
M  V30 2717 O 267.385 2.04755 -1.74152 0
M  V30 2718 C 265.656 0.346102 -3.5572 0
M  V30 2719 S 267.215 0.876022 -4.29967 0
M  V30 2720 H 264.033 0.0326881 -0.710248 0
M  V30 2721 H 266.635 -0.594544 -1.8624 0
M  V30 2722 H 265.339 -0.584911 -4.0621 0
M  V30 2723 H 264.87 1.09849 -3.77752 0
M  V30 2724 H 266.885 2.15379 -4.47019 0
M  V30 2725 N 266.058 1.56714 -0.166846 0
M  V30 2726 C 267.305 1.96747 0.479252 0
M  V30 2727 C 267.633 1.05263 1.63554 0
M  V30 2728 O 266.888 0.0858098 1.95512 0
M  V30 2729 C 267.187 3.42889 1.00806 0
M  V30 2730 C 266.853 4.50889 -0.0318574 0
M  V30 2731 C 265.515 4.8015 -0.317675 0
M  V30 2732 C 267.867 5.15949 -0.737956 0
M  V30 2733 C 265.195 5.71772 -1.31506 0
M  V30 2734 C 267.547 6.08647 -1.72429 0
M  V30 2735 C 266.211 6.36277 -2.0176 0
M  V30 2736 H 265.481 0.719949 0.175371 0
M  V30 2737 H 268.128 1.89756 -0.257864 0
M  V30 2738 H 266.433 3.4681 1.82291 0
M  V30 2739 H 268.13 3.71203 1.51689 0
M  V30 2740 H 264.72 4.28128 0.201088 0
M  V30 2741 H 268.904 4.93458 -0.530351 0
M  V30 2742 H 264.16 5.91465 -1.54853 0
M  V30 2743 H 268.334 6.58129 -2.27682 0
M  V30 2744 H 265.961 7.07075 -2.79194 0
M  V30 2745 N 267.536 -0.106894 1.57237 0
M  V30 2746 C 268.484 -1.14944 2.02215 0
M  V30 2747 C 269.478 -1.42167 0.92114 0
M  V30 2748 O 270.684 -1.41987 1.10634 0
M  V30 2749 H 267.059 -0.387841 0.64427 0
M  V30 2750 H 269.03 -0.743683 2.88984 0
M  V30 2751 C 267.779 -2.4647 2.4525 0
M  V30 2752 H 267.102 -2.26363 3.29545 0
M  V30 2753 H 268.542 -3.17948 2.80508 0
M  V30 2754 C 267.001 -3.09921 1.321 0
M  V30 2755 O 267.531 -3.9651 0.643622 0
M  V30 2756 N 265.737 -2.69986 1.07497 0
M  V30 2757 H 265.284 -1.99667 1.62761 0
M  V30 2758 H 265.242 -3.12769 0.319876 0
M  V30 2759 N 269.014 -1.53014 -0.377408 0
M  V30 2760 C 270.425 -1.60438 -0.954798 0
M  V30 2761 C 270.776 -0.464418 -1.90624 0
M  V30 2762 O 269.901 0.41087 -2.12464 0
M  V30 2763 C 270.496 -2.90797 -1.73847 0
M  V30 2764 C 269.055 -3.00595 -2.26538 0
M  V30 2765 C 268.202 -2.55645 -1.07429 0
M  V30 2766 H 271.153 -1.57926 -0.156575 0
M  V30 2767 H 271.174 -2.77935 -2.5987 0
M  V30 2768 H 270.686 -3.73746 -1.04574 0
M  V30 2769 H 268.787 -2.22208 -2.99089 0
M  V30 2770 H 268.9 -4.05456 -2.5523 0
M  V30 2771 H 267.264 -2.10239 -1.43777 0
M  V30 2772 H 268.047 -3.41 -0.396728 0
M  V30 2773 N 270.492 0.636531 -1.44174 0
M  V30 2774 C 271.439 1.74875 -1.50624 0
M  V30 2775 C 272.409 1.62275 -0.35442 0
M  V30 2776 O 273.594 1.82276 -0.563908 0
M  V30 2777 C 270.734 3.13102 -1.45125 0
M  V30 2778 C 269.847 3.36717 -2.7064 0
M  V30 2779 C 268.982 4.64885 -2.57013 0
M  V30 2780 C 268.021 4.8166 -3.77717 0
M  V30 2781 N 267.158 6.01101 -3.62798 0
M  V30 2782 H 271.998 1.68697 -2.45653 0
M  V30 2783 H 269.535 0.823004 -1.21922 0
M  V30 2784 H 271.493 3.93034 -1.39929 0
M  V30 2785 H 270.123 3.18308 -0.536671 0
M  V30 2786 H 269.175 2.50763 -2.86046 0
M  V30 2787 H 270.487 3.44993 -3.60252 0
M  V30 2788 H 269.641 5.52969 -2.49619 0
M  V30 2789 H 268.38 4.58957 -1.64953 0
M  V30 2790 H 267.385 3.92007 -3.85501 0
M  V30 2791 H 268.61 4.89406 -4.70807 0
M  V30 2792 H 266.556 5.96273 -2.73486 0
M  V30 2793 H 266.473 6.10409 -4.46023 0
M  V30 2794 H 267.741 6.91761 -3.59286 0
M  V30 2795 N 271.97 1.30982 0.876444 0
M  V30 2796 C 273.21 1.21589 1.64303 0
M  V30 2797 C 273.574 -0.223962 1.90689 0
M  V30 2798 O 274.775 -0.44128 2.65153 0
M  V30 2799 C 273.046 2.03007 2.94148 0
M  V30 2800 S 274.605 2.10405 3.85065 0
M  V30 2801 H 271.423 0.433161 0.563819 0
M  V30 2802 H 274.025 1.65565 1.03964 0
M  V30 2803 H 272.729 3.06719 2.72675 0
M  V30 2804 H 272.26 1.59725 3.59515 0
M  V30 2805 H 274.275 1.23765 4.80517 0
M  V30 2806 N 273.449 -1.08991 1.13837 0
M  V30 2807 C 274.379 -2.17771 0.842507 0
M  V30 2808 C 275.36 -1.6892 -0.20001 0
M  V30 2809 O 276.545 -1.94113 -0.0579731 0
M  V30 2810 C 273.675 -3.4589 0.312644 0
M  V30 2811 C 272.629 -4.08099 1.28992 0
M  V30 2812 C 271.955 -5.31098 0.619623 0
M  V30 2813 C 273.255 -4.50077 2.65005 0
M  V30 2814 H 274.949 -2.42777 1.75213 0
M  V30 2815 H 272.495 -1.16682 0.843875 0
M  V30 2816 H 274.448 -4.21297 0.0933043 0
M  V30 2817 H 273.172 -3.20419 -0.632382 0
M  V30 2818 H 271.831 -3.34717 1.49533 0
M  V30 2819 H 271.479 -5.0191 -0.33102 0
M  V30 2820 H 271.179 -5.73674 1.27167 0
M  V30 2821 H 272.703 -6.09224 0.409669 0
M  V30 2822 H 274.117 -5.16688 2.48407 0
M  V30 2823 H 272.514 -5.03553 3.26427 0
M  V30 2824 H 273.584 -3.62257 3.22332 0
M  V30 2825 N 274.927 -0.932562 -1.27047 0
M  V30 2826 C 275.857 -0.452902 -2.29066 0
M  V30 2827 C 276.838 0.489338 -1.62909 0
M  V30 2828 O 278.023 0.393046 -1.90181 0
M  V30 2829 C 275.153 0.290698 -3.46081 0
M  V30 2830 C 274.107 -0.564168 -4.24265 0
M  V30 2831 C 273.433 0.308886 -5.33807 0
M  V30 2832 C 274.733 -1.83112 -4.89149 0
M  V30 2833 H 276.427 -1.30552 -2.69437 0
M  V30 2834 H 273.973 -0.629201 -1.29526 0
M  V30 2835 H 275.926 0.637233 -4.16554 0
M  V30 2836 H 274.65 1.17738 -3.0464 0
M  V30 2837 H 273.309 -0.893477 -3.55545 0
M  V30 2838 H 272.957 1.19467 -4.88607 0
M  V30 2839 H 272.657 -0.259633 -5.87026 0
M  V30 2840 H 274.181 0.650884 -6.07121 0
M  V30 2841 H 275.595 -1.55236 -5.51883 0
M  V30 2842 H 273.992 -2.34353 -5.52448 0
M  V30 2843 H 275.062 -2.54772 -4.12576 0
M  V30 2844 N 276.405 1.4127 -0.698611 0
M  V30 2845 C 277.816 1.84187 -0.305289 0
M  V30 2846 C 278.167 1.58449 1.15708 0
M  V30 2847 O 277.292 1.05651 1.88856 0
M  V30 2848 C 277.887 3.3435 -0.547314 0
M  V30 2849 C 276.446 3.75826 -0.207878 0
M  V30 2850 C 275.593 2.64647 -0.828099 0
M  V30 2851 H 278.544 1.30778 -0.89904 0
M  V30 2852 H 278.565 3.8001 0.192998 0
M  V30 2853 H 278.077 3.53051 -1.61172 0
M  V30 2854 H 276.178 3.62725 0.852143 0
M  V30 2855 H 276.291 4.74462 -0.665021 0
M  V30 2856 H 274.655 2.53395 -0.257458 0
M  V30 2857 H 275.438 2.86165 -1.89643 0
M  V30 2858 N 277.883 0.443576 1.51229 0
M  V30 2859 C 278.846 -0.353132 2.26463 0
M  V30 2860 C 279.846 -0.944338 1.3015 0
M  V30 2861 O 281.036 -0.817813 1.5381 0
M  V30 2862 C 278.168 -1.50023 3.06114 0
M  V30 2863 H 279.361 0.3063 2.98332 0
M  V30 2864 H 276.914 0.196902 1.55055 0
M  V30 2865 H 277.649 -2.19553 2.38677 0
M  V30 2866 H 277.434 -1.08241 3.76864 0
M  V30 2867 H 278.924 -2.06296 3.63087 0
M  V30 2868 N 279.361 -1.56624 0.175154 0
M  V30 2869 C 280.586 -2.01813 -0.478137 0
M  V30 2870 C 281.011 -1.05457 -1.55757 0
M  V30 2871 O 280.369 -0.0347439 -1.81267 0
M  V30 2872 C 280.417 -3.45581 -1.02987 0
M  V30 2873 O 279.521 -3.52305 -2.14371 0
M  V30 2874 H 278.862 -0.65413 -0.114059 0
M  V30 2875 H 281.392 -2.02673 0.280173 0
M  V30 2876 H 281.402 -3.84965 -1.35151 0
M  V30 2877 H 280.077 -4.1521 -0.239556 0
M  V30 2878 H 278.654 -3.24783 -1.83222 0
M  V30 2879 N 280.839 0.0985539 -1.57292 0
M  V30 2880 C 282.255 0.45267 -1.53046 0
M  V30 2881 C 282.455 1.80713 -0.891342 0
M  V30 2882 O 281.511 2.4785 -0.482375 0
M  V30 2883 C 282.824 0.418341 -2.97776 0
M  V30 2884 C 284.372 0.500443 -3.08973 0
M  V30 2885 C 284.847 0.496297 -4.55303 0
M  V30 2886 N 286.338 0.557151 -4.59837 0
M  V30 2887 C 287.073 0.575726 -5.70502 0
M  V30 2888 N 286.569 0.550714 -6.90608 0
M  V30 2889 N 288.362 0.620277 -5.58667 0
M  V30 2890 H 280.513 -0.788673 -1.97215 0
M  V30 2891 H 282.776 -0.293188 -0.901524 0
M  V30 2892 H 282.482 -0.509659 -3.47988 0
M  V30 2893 H 282.356 1.2386 -3.56284 0
M  V30 2894 H 284.743 1.41886 -2.58751 0
M  V30 2895 H 284.824 -0.347894 -2.53423 0
M  V30 2896 H 284.468 -0.418162 -5.06176 0
M  V30 2897 H 284.398 1.3618 -5.08687 0
M  V30 2898 H 286.889 0.581816 -3.73394 0
M  V30 2899 H 287.202 0.568075 -7.70709 0
M  V30 2900 H 285.547 0.517816 -6.93068 0
M  V30 2901 H 288.738 0.637322 -4.63741 0
M  V30 2902 H 288.911 0.631283 -6.44918 0
M  V30 2903 N 282.317 1.53212 0.369288 0
M  V30 2904 C 283.267 1.75769 1.45222 0
M  V30 2905 C 284.251 0.612136 1.48801 0
M  V30 2906 O 285.443 0.870674 1.54105 0
M  V30 2907 C 282.572 1.94769 2.82701 0
M  V30 2908 C 281.658 3.15315 2.83615 0
M  V30 2909 N 282.049 4.37295 2.54178 0
M  V30 2910 C 280.347 3.15962 3.14776 0
M  V30 2911 C 281.048 5.19015 2.62675 0
M  V30 2912 N 280.024 4.55142 2.97232 0
M  V30 2913 H 283.826 2.67691 1.2132 0
M  V30 2914 H 281.34 1.51787 0.577438 0
M  V30 2915 H 283.337 2.09056 3.60696 0
M  V30 2916 H 281.997 1.04073 3.07569 0
M  V30 2917 H 283.008 4.65091 2.27839 0
M  V30 2918 H 279.685 2.35144 3.44983 0
M  V30 2919 H 281.075 6.26305 2.43294 0
M  V30 2920 N 283.795 -0.628877 1.44509 0
M  V30 2921 C 285.025 -1.41349 1.50678 0
M  V30 2922 C 285.433 -1.88745 0.131075 0
M  V30 2923 O 284.776 -1.61592 -0.87371 0
M  V30 2924 C 284.838 -2.66608 2.41165 0
M  V30 2925 C 284.502 -2.40993 3.88293 0
M  V30 2926 C 285.499 -2.0268 4.78766 0
M  V30 2927 C 283.184 -2.54563 4.33016 0
M  V30 2928 C 285.178 -1.78269 6.11963 0
M  V30 2929 C 282.865 -2.29766 5.6626 0
M  V30 2930 C 283.863 -1.91678 6.55552 0
M  V30 2931 O 283.551 -1.67158 7.86329 0
M  V30 2932 H 283.283 -0.439851 0.51333 0
M  V30 2933 H 285.837 -0.776084 1.90174 0
M  V30 2934 H 284.067 -3.32994 1.96601 0
M  V30 2935 H 285.756 -3.28615 2.38259 0
M  V30 2936 H 286.522 -1.91751 4.45485 0
M  V30 2937 H 282.401 -2.83179 3.63773 0
M  V30 2938 H 285.945 -1.48465 6.81619 0
M  V30 2939 H 281.842 -2.40306 5.99102 0
M  V30 2940 H 282.61 -1.81386 7.98149 0
M  V30 2941 N 285.273 -1.31445 -0.869486 0
M  V30 2942 C 286.519 -1.22347 -1.62489 0
M  V30 2943 C 286.874 0.216204 -1.91181 0
M  V30 2944 O 286.167 1.14977 -1.53268 0
M  V30 2945 C 286.361 -2.00145 -2.96102 0
M  V30 2946 C 286.19 -3.51531 -2.80456 0
M  V30 2947 C 284.96 -4.20882 -2.79618 0
M  V30 2948 C 287.158 -4.46471 -2.5528 0
M  V30 2949 N 285.14 -5.58421 -2.55027 0
M  V30 2950 C 286.511 -5.71682 -2.39957 0
M  V30 2951 C 288.566 -4.35892 -2.40629 0
M  V30 2952 C 287.269 -6.87511 -2.11472 0
M  V30 2953 C 289.295 -5.51505 -2.13532 0
M  V30 2954 C 288.657 -6.75707 -1.98998 0
M  V30 2955 H 284.756 -0.502815 -0.598917 0
M  V30 2956 H 287.34 -1.65639 -1.02332 0
M  V30 2957 H 285.511 -1.59221 -3.54264 0
M  V30 2958 H 287.243 -1.83063 -3.60929 0
M  V30 2959 H 283.998 -3.72857 -2.92018 0
M  V30 2960 H 284.422 -6.30841 -2.45701 0
M  V30 2961 H 289.064 -3.40533 -2.50593 0
M  V30 2962 H 286.782 -7.82897 -2.00245 0
M  V30 2963 H 290.368 -5.45238 -2.02995 0
M  V30 2964 H 289.248 -7.63655 -1.78326 0
M  V30 2965 N 286.751 1.08385 -1.14413 0
M  V30 2966 C 287.979 1.84517 -0.936001 0
M  V30 2967 C 288.394 1.81626 0.515503 0
M  V30 2968 O 287.751 1.22008 1.35721 0
M  V30 2969 C 287.802 3.32049 -1.42918 0
M  V30 2970 O 287.523 3.34951 -2.82381 0
M  V30 2971 C 289.024 4.24986 -1.26103 0
M  V30 2972 H 286.244 0.582491 -0.333084 0
M  V30 2973 H 288.788 1.36885 -1.5193 0
M  V30 2974 H 286.943 3.7707 -0.888641 0
M  V30 2975 H 287.357 4.27048 -3.04517 0
M  V30 2976 H 288.831 5.26615 -1.6547 0
M  V30 2977 H 289.308 4.38726 -0.20392 0
M  V30 2978 H 289.914 3.85791 -1.79012 0
M  V30 2979 N 288.23 0.939286 1.26551 0
M  V30 2980 C 289.46 0.601663 1.97645 0
M  V30 2981 C 289.868 -0.827206 1.70159 0
M  V30 2982 O 289.211 -1.56291 0.965338 0
M  V30 2983 C 289.273 0.761725 3.51337 0
M  V30 2984 C 288.937 2.16487 4.0247 0
M  V30 2985 C 289.934 3.14016 4.14355 0
M  V30 2986 C 287.619 2.48494 4.36527 0
M  V30 2987 C 289.613 4.41654 4.59587 0
M  V30 2988 C 287.3 3.76364 4.81449 0
M  V30 2989 C 288.298 4.72758 4.92939 0
M  V30 2990 O 287.986 5.98352 5.36871 0
M  V30 2991 H 287.718 0.225758 0.637189 0
M  V30 2992 H 290.272 1.26178 1.62075 0
M  V30 2993 H 288.502 0.0444808 3.86674 0
M  V30 2994 H 290.191 0.427442 4.03643 0
M  V30 2995 H 290.957 2.90613 3.8829 0
M  V30 2996 H 286.836 1.74202 4.26819 0
M  V30 2997 H 290.38 5.16896 4.68471 0
M  V30 2998 H 286.277 3.99582 5.06956 0
M  V30 2999 H 287.045 6.01507 5.55096 0
M  V30 3000 N 289.708 -1.40897 0.706093 0
M  V30 3001 C 291.119 -1.84023 0.315052 0
M  V30 3002 C 291.47 -1.5906 -1.14866 0
M  V30 3003 O 290.595 -1.06651 -1.88293 0
M  V30 3004 C 291.19 -3.34055 0.565038 0
M  V30 3005 C 289.749 -3.7571 0.227806 0
M  V30 3006 C 288.896 -2.64204 0.842122 0
M  V30 3007 H 291.847 -1.303 0.905963 0
M  V30 3008 H 291.868 -3.80107 -0.172843 0
M  V30 3009 H 291.38 -3.52192 1.63042 0
M  V30 3010 H 289.481 -3.63172 -0.832895 0
M  V30 3011 H 289.594 -4.74103 0.690174 0
M  V30 3012 H 287.958 -2.53255 0.270893 0
M  V30 3013 H 288.741 -2.85155 1.91158 0
M  V30 3014 N 291.186 -0.45159 -1.50991 0
M  V30 3015 C 292.434 0.109857 -2.01801 0
M  V30 3016 C 292.755 1.41958 -1.3369 0
M  V30 3017 O 292.025 1.9003 -0.475951 0
M  V30 3018 H 290.605 0.0435884 -0.745727 0
M  V30 3019 H 293.267 -0.597557 -1.85514 0
M  V30 3020 H 292.363 0.275489 -3.10882 0
M  V30 3021 N 292.664 1.56529 -0.183458 0
M  V30 3022 C 293.889 2.02064 0.467428 0
M  V30 3023 C 294.314 1.06282 1.55196 0
M  V30 3024 O 293.672 0.0443565 1.81246 0
M  V30 3025 C 293.72 3.46122 1.01153 0
M  V30 3026 O 292.824 3.53437 2.12499 0
M  V30 3027 H 292.165 0.654726 0.110588 0
M  V30 3028 H 294.695 2.02521 -0.290917 0
M  V30 3029 H 294.705 3.85676 1.33108 0
M  V30 3030 H 293.38 4.15331 0.217533 0
M  V30 3031 H 291.957 3.2575 1.81497 0
M  V30 3032 N 294.142 -0.090211 1.57342 0
M  V30 3033 C 295.072 -1.10976 2.05443 0
M  V30 3034 C 296.053 -1.41482 0.944284 0
M  V30 3035 O 297.238 -1.51428 1.21586 0
M  V30 3036 C 294.368 -2.42831 2.48295 0
M  V30 3037 C 293.322 -2.26721 3.63018 0
M  V30 3038 C 292.648 -3.63796 3.91863 0
M  V30 3039 C 293.948 -1.7037 4.93732 0
M  V30 3040 H 295.642 -0.709564 2.9087 0
M  V30 3041 H 293.188 -0.339874 1.39932 0
M  V30 3042 H 295.141 -3.14431 2.80555 0
M  V30 3043 H 293.865 -2.84795 1.59873 0
M  V30 3044 H 292.524 -1.57565 3.31012 0
M  V30 3045 H 292.172 -4.03297 3.00601 0
M  V30 3046 H 291.872 -3.53861 4.69101 0
M  V30 3047 H 293.396 -4.36855 4.26603 0
M  V30 3048 H 294.81 -2.31816 5.24342 0
M  V30 3049 H 293.207 -1.71181 5.75167 0
M  V30 3050 H 294.277 -0.663542 4.80339 0
M  V30 3051 N 295.62 -1.53406 -0.361157 0
M  V30 3052 C 296.848 -1.73717 -1.12383 0
M  V30 3053 C 297.263 -0.468161 -1.82904 0
M  V30 3054 O 296.62 0.559198 -1.73722 0
M  V30 3055 C 296.671 -2.90558 -2.15078 0
M  V30 3056 O 296.392 -4.12549 -1.47428 0
M  V30 3057 C 297.893 -3.22777 -3.03858 0
M  V30 3058 H 295.113 -0.580896 -0.335858 0
M  V30 3059 H 297.657 -2.00167 -0.418728 0
M  V30 3060 H 295.812 -2.66489 -2.8118 0
M  V30 3061 H 296.226 -4.78009 -2.15887 0
M  V30 3062 H 297.7 -4.07927 -3.71887 0
M  V30 3063 H 298.177 -2.38329 -3.68912 0
M  V30 3064 H 298.783 -3.48787 -2.43367 0
M  V30 3065 N 297.098 0.621204 -1.44841 0
M  V30 3066 C 298.326 1.40752 -1.51646 0
M  V30 3067 C 298.741 1.88246 -0.144549 0
M  V30 3068 O 298.098 1.61422 0.851416 0
M  V30 3069 C 298.149 2.62119 -2.4895 0
M  V30 3070 O 297.87 2.16602 -3.80808 0
M  V30 3071 C 299.371 3.55135 -2.65319 0
M  V30 3072 H 296.591 0.431325 -0.514004 0
M  V30 3073 H 299.135 0.758835 -1.899 0
M  V30 3074 H 297.29 3.23058 -2.13805 0
M  V30 3075 H 297.704 2.95358 -4.33433 0
M  V30 3076 H 299.178 4.36874 -3.37409 0
M  V30 3077 H 299.655 4.04592 -1.70886 0
M  V30 3078 H 300.261 3.00058 -3.01405 0
M  V30 3079 N 298.576 1.31904 0.862503 0
M  V30 3080 C 299.987 1.19803 1.43193 0
M  V30 3081 C 300.338 -0.192567 1.95253 0
M  V30 3082 O 299.463 -1.09081 1.86896 0
M  V30 3083 C 300.058 2.16883 2.60283 0
M  V30 3084 C 298.617 2.08692 3.13248 0
M  V30 3085 C 297.764 2.05691 1.85975 0
M  V30 3086 H 300.715 1.43846 0.670365 0
M  V30 3087 H 300.736 1.76278 3.37204 0
M  V30 3088 H 300.248 3.18083 2.22363 0
M  V30 3089 H 298.349 1.10713 3.55771 0
M  V30 3090 H 298.462 2.9815 3.75025 0
M  V30 3091 H 296.826 1.50814 2.05249 0
M  V30 3092 H 297.609 3.08659 1.50282 0
M  V30 3093 N 300.054 -1.07777 1.14986 0
M  V30 3094 C 301.465 -1.61766 0.932127 0
M  V30 3095 C 301.816 -1.88974 -0.527581 0
M  V30 3096 O 300.941 -1.65198 -1.39781 0
M  V30 3097 C 301.536 -2.93891 1.68563 0
M  V30 3098 C 300.095 -3.44639 1.5133 0
M  V30 3099 C 299.242 -2.18767 1.704 0
M  V30 3100 H 302.193 -0.909201 1.30074 0
M  V30 3101 H 302.214 -3.62623 1.15259 0
M  V30 3102 H 301.726 -2.74057 2.74799 0
M  V30 3103 H 299.827 -3.69564 0.474702 0
M  V30 3104 H 299.94 -4.20966 2.28746 0
M  V30 3105 H 298.304 -2.28253 1.13016 0
M  V30 3106 H 299.087 -2.01433 2.77992 0
M  V30 3107 N 301.532 -0.945985 -1.26051 0
M  V30 3108 C 302.462 -0.477172 -2.28572 0
M  V30 3109 C 303.443 0.472032 -1.63419 0
M  V30 3110 O 304.628 0.372853 -1.90587 0
M  V30 3111 C 301.758 0.253975 -3.4637 0
M  V30 3112 C 300.712 -0.609135 -4.23643 0
M  V30 3113 C 300.038 0.252252 -5.34105 0
M  V30 3114 C 301.338 -1.8829 -4.8718 0
M  V30 3115 H 303.032 -1.33402 -2.68038 0
M  V30 3116 H 300.578 -0.642904 -1.28852 0
M  V30 3117 H 302.531 0.593016 -4.17207 0
M  V30 3118 H 301.255 1.145 -3.05871 0
M  V30 3119 H 299.914 -0.931138 -3.54578 0
M  V30 3120 H 299.562 1.14278 -4.89846 0
M  V30 3121 H 299.262 -0.32188 -5.86718 0
M  V30 3122 H 300.786 0.586454 -6.07777 0
M  V30 3123 H 302.2 -1.61081 -5.50205 0
M  V30 3124 H 300.597 -2.40199 -5.49931 0
M  V30 3125 H 301.667 -2.59134 -4.09851 0
M  V30 3126 N 303.011 1.40521 -0.713556 0
M  V30 3127 C 304.236 2.05759 -0.26035 0
M  V30 3128 C 304.661 1.53403 1.08854 0
M  V30 3129 O 304.019 0.668535 1.68524 0
M  V30 3130 C 304.067 3.59745 -0.248122 0
M  V30 3131 O 303.171 4.05123 0.77131 0
M  V30 3132 H 302.512 0.652564 -0.122703 0
M  V30 3133 H 305.042 1.79958 -0.973467 0
M  V30 3134 H 305.052 4.07911 -0.0851129 0
M  V30 3135 H 303.727 3.97218 -1.2325 0
M  V30 3136 H 302.304 3.68422 0.57619 0
M  V30 3137 N 304.489 0.459591 1.5075 0
M  V30 3138 C 305.399 -0.34613 2.32033 0
M  V30 3139 C 306.415 -1.00686 1.41909 0
M  V30 3140 O 307.591 -0.997361 1.7497 0
M  V30 3141 C 304.656 -1.42029 3.16273 0
M  V30 3142 C 303.717 -0.777362 4.22203 0
M  V30 3143 C 302.95 -1.80034 5.02418 0
M  V30 3144 O 303.173 -3.02544 4.83553 0
M  V30 3145 O 302.107 -1.37853 5.85901 0
M  V30 3146 H 305.933 0.318054 3.0203 0
M  V30 3147 H 303.518 0.221663 1.47746 0
M  V30 3148 H 305.4 -2.04275 3.68578 0
M  V30 3149 H 304.075 -2.06815 2.49016 0
M  V30 3150 H 302.982 -0.116256 3.73919 0
M  V30 3151 H 304.315 -0.172634 4.91897 0
M  V30 3152 N 305.967 -1.56429 0.191757 0
M  V30 3153 C 307.192 -2.02309 -0.456706 0
M  V30 3154 C 307.617 -1.07103 -1.5463 0
M  V30 3155 O 306.975 -0.0539677 -1.8122 0
M  V30 3156 C 307.023 -3.46654 -0.993159 0
M  V30 3157 O 306.127 -3.54559 -2.10622 0
M  V30 3158 H 305.468 -0.655303 -0.107114 0
M  V30 3159 H 307.998 -2.02364 0.301653 0
M  V30 3160 H 308.008 -3.86377 -1.31061 0
M  V30 3161 H 306.683 -4.1544 -0.195504 0
M  V30 3162 H 305.26 -3.26708 -1.79767 0
M  V30 3163 N 307.445 0.0818655 -1.57387 0
M  V30 3164 C 308.691 0.784074 -1.8703 0
M  V30 3165 C 309.024 1.77729 -0.782689 0
M  V30 3166 O 308.299 1.93384 0.208051 0
M  V30 3167 C 308.582 1.50105 -3.27323 0
M  V30 3168 C 308.435 0.524925 -4.46727 0
M  V30 3169 C 309.754 2.44843 -3.65705 0
M  V30 3170 H 306.873 0.283582 -0.680257 0
M  V30 3171 H 309.515 0.0474352 -1.89941 0
M  V30 3172 H 307.665 2.12897 -3.24972 0
M  V30 3173 H 309.337 -0.0970111 -4.61198 0
M  V30 3174 H 307.58 -0.160606 -4.33503 0
M  V30 3175 H 308.251 1.064 -5.41648 0
M  V30 3176 H 310.727 1.92135 -3.69085 0
M  V30 3177 H 309.603 2.92018 -4.64776 0
M  V30 3178 H 309.864 3.29197 -2.95096 0
M  V30 3179 N 308.923 1.53595 0.353017 0
M  V30 3180 C 310.151 1.74311 1.1146 0
M  V30 3181 C 310.566 0.477854 1.82653 0
M  V30 3182 O 309.923 -0.549977 1.74016 0
M  V30 3183 C 309.974 2.91694 2.13534 0
M  V30 3184 O 309.695 4.13325 1.45238 0
M  V30 3185 C 311.196 3.24384 3.02142 0
M  V30 3186 H 308.416 0.582669 0.332773 0
M  V30 3187 H 310.96 2.00386 0.408107 0
M  V30 3188 H 309.115 2.67977 2.79763 0
M  V30 3189 H 309.529 4.79148 2.13349 0
M  V30 3190 H 311.003 4.09893 3.69718 0
M  V30 3191 H 311.48 2.40282 3.67643 0
M  V30 3192 H 312.086 3.50073 2.41514 0
M  V30 3193 N 310.401 -0.613514 1.45168 0
M  V30 3194 C 311.647 -1.37279 1.50087 0
M  V30 3195 C 312.002 -1.91902 0.138294 0
M  V30 3196 O 311.295 -1.71764 -0.84899 0
M  V30 3197 C 311.489 -2.54347 2.51083 0
M  V30 3198 C 311.318 -2.11186 3.97027 0
M  V30 3199 C 310.088 -1.97636 4.65046 0
M  V30 3200 C 312.286 -1.69016 4.85735 0
M  V30 3201 N 310.268 -1.48224 5.95737 0
M  V30 3202 C 311.639 -1.30976 6.06008 0
M  V30 3203 C 313.694 -1.56555 4.72647 0
M  V30 3204 C 312.397 -0.817197 7.14643 0
M  V30 3205 C 314.423 -1.08702 5.81324 0
M  V30 3206 C 313.785 -0.716233 7.00749 0
M  V30 3207 H 309.884 -0.496478 0.60418 0
M  V30 3208 H 312.468 -0.701988 1.81605 0
M  V30 3209 H 310.639 -3.19031 2.21527 0
M  V30 3210 H 312.371 -3.21208 2.46187 0
M  V30 3211 H 309.126 -2.18638 4.20112 0
M  V30 3212 H 309.55 -1.25767 6.65216 0
M  V30 3213 H 314.192 -1.83849 3.80736 0
M  V30 3214 H 311.91 -0.531797 8.06348 0
M  V30 3215 H 315.496 -0.994943 5.7323 0
M  V30 3216 H 314.376 -0.351642 7.83411 0
M  V30 3217 N 311.879 -1.3236 -0.855495 0
M  V30 3218 C 313.128 -1.22226 -1.60448 0
M  V30 3219 C 313.441 0.214733 -1.94418 0
M  V30 3220 O 314.647 0.437917 -2.67945 0
M  V30 3221 C 313.103 -2.14063 -2.89318 0
M  V30 3222 C 312.711 -3.62839 -2.62777 0
M  V30 3223 C 314.455 -2.12764 -3.67331 0
M  V30 3224 C 312.362 -4.4664 -3.87643 0
M  V30 3225 H 311.292 -0.453904 -0.602069 0
M  V30 3226 H 313.943 -1.57314 -0.944698 0
M  V30 3227 H 312.325 -1.71889 -3.5675 0
M  V30 3228 H 313.499 -4.1335 -2.03662 0
M  V30 3229 H 311.814 -3.66261 -1.98096 0
M  V30 3230 H 314.411 -2.72611 -4.59987 0
M  V30 3231 H 314.754 -1.11841 -4.00995 0
M  V30 3232 H 315.287 -2.53214 -3.06802 0
M  V30 3233 H 312.026 -5.48373 -3.5912 0
M  V30 3234 H 311.546 -4.0088 -4.46156 0
M  V30 3235 H 313.225 -4.59597 -4.55389 0
M  V30 3236 N 313.357 1.07166 -1.15556 0
M  V30 3237 C 314.603 1.80065 -0.932984 0
M  V30 3238 C 314.936 1.86586 0.53845 0
M  V30 3239 O 314.211 1.35098 1.39924 0
M  V30 3240 C 314.494 3.25022 -1.55025 0
M  V30 3241 C 314.347 3.26634 -3.09242 0
M  V30 3242 C 315.666 4.22341 -1.2376 0
M  V30 3243 H 312.785 0.653697 -0.340366 0
M  V30 3244 H 315.427 1.25389 -1.4275 0
M  V30 3245 H 313.577 3.71712 -1.12972 0
M  V30 3246 H 315.249 2.88173 -3.60214 0
M  V30 3247 H 313.492 2.65539 -3.43033 0
M  V30 3248 H 314.163 4.28854 -3.47546 0
M  V30 3249 H 316.639 3.8405 -1.60139 0
M  V30 3250 H 315.515 5.22053 -1.69564 0
M  V30 3251 H 315.776 4.41828 -0.154938 0
M  V30 3252 N 314.835 0.952656 1.25548 0
M  V30 3253 C 315.765 0.489287 2.28316 0
M  V30 3254 C 316.746 -0.463359 1.63667 0
M  V30 3255 O 317.931 -0.36274 1.90782 0
M  V30 3256 C 315.061 -0.235603 3.465 0
M  V30 3257 C 314.015 0.631593 4.23314 0
M  V30 3258 C 313.341 -0.223923 5.34231 0
M  V30 3259 C 314.641 1.90871 4.86174 0
M  V30 3260 H 316.335 1.34822 2.67326 0
M  V30 3261 H 313.881 0.649728 1.28509 0
M  V30 3262 H 315.834 -0.570882 4.17515 0
M  V30 3263 H 314.558 -1.12877 3.06474 0
M  V30 3264 H 313.217 0.949929 3.54079 0
M  V30 3265 H 312.865 -1.11678 4.90446 0
M  V30 3266 H 312.565 0.35299 5.86539 0
M  V30 3267 H 314.089 -0.554214 6.0808 0
M  V30 3268 H 315.503 1.63997 5.49343 0
M  V30 3269 H 313.9 2.43112 5.4865 0
M  V30 3270 H 314.97 2.61304 4.08471 0
M  V30 3271 N 316.313 -1.40141 0.720998 0
M  V30 3272 C 317.729 -1.54632 0.395113 0
M  V30 3273 C 317.929 -1.69115 -1.09555 0
M  V30 3274 O 316.985 -1.68377 -1.88163 0
M  V30 3275 C 318.298 -2.77177 1.1659 0
M  V30 3276 C 319.846 -2.91 1.15274 0
M  V30 3277 C 320.321 -4.16465 1.90579 0
M  V30 3278 N 321.812 -4.23476 1.87675 0
M  V30 3279 C 322.547 -5.19475 2.42762 0
M  V30 3280 N 322.043 -6.21348 3.06428 0
M  V30 3281 N 323.836 -5.11592 2.32874 0
M  V30 3282 H 315.987 -1.28986 1.68749 0
M  V30 3283 H 318.25 -0.62412 0.713567 0
M  V30 3284 H 317.956 -2.72771 2.22011 0
M  V30 3285 H 317.83 -3.69442 0.76108 0
M  V30 3286 H 320.217 -2.94907 0.106702 0
M  V30 3287 H 320.298 -1.99838 1.59682 0
M  V30 3288 H 319.942 -4.1332 2.95176 0
M  V30 3289 H 319.872 -5.06646 1.43587 0
M  V30 3290 H 322.363 -3.50497 1.41281 0
M  V30 3291 H 322.676 -6.91034 3.45965 0
M  V30 3292 H 321.021 -6.21777 3.10514 0
M  V30 3293 H 324.212 -4.30936 1.82789 0
M  V30 3294 H 324.385 -5.86233 2.76106 0
M  V30 3295 N 317.792 -0.46758 -1.50504 0
M  V30 3296 C 318.702 0.33382 -2.32213 0
M  V30 3297 C 319.718 0.999323 -1.42441 0
M  V30 3298 O 320.894 0.988068 -1.75497 0
M  V30 3299 C 317.959 1.4035 -3.17022 0
M  V30 3300 C 317.02 0.754961 -4.2261 0
M  V30 3301 C 316.253 1.77367 -5.03365 0
M  V30 3302 O 316.476 2.99976 -4.8515 0
M  V30 3303 O 315.41 1.34744 -5.86624 0
M  V30 3304 H 319.236 -0.334067 -3.01857 0
M  V30 3305 H 316.821 -0.229496 -1.47627 0
M  V30 3306 H 318.703 2.02318 -3.69656 0
M  V30 3307 H 317.378 2.05492 -2.5011 0
M  V30 3308 H 316.285 0.0964244 -3.73976 0
M  V30 3309 H 317.618 0.146545 -4.91982 0
M  V30 3310 N 319.27 1.56325 -0.20005 0
M  V30 3311 C 320.681 1.8408 0.31167 0
M  V30 3312 C 321.032 1.12087 1.61031 0
M  V30 3313 O 320.157 0.38332 2.12978 0
M  V30 3314 C 320.752 3.33932 0.57226 0
M  V30 3315 C 319.311 3.6208 1.02834 0
M  V30 3316 C 318.458 2.77186 0.079634 0
M  V30 3317 H 321.409 1.52939 -0.423729 0
M  V30 3318 H 321.43 3.52971 1.42096 0
M  V30 3319 H 320.942 3.86303 -0.37308 0
M  V30 3320 H 319.043 3.15147 1.98778 0
M  V30 3321 H 319.156 4.7023 0.917624 0
M  V30 3322 H 317.52 2.47951 0.582448 0
M  V30 3323 H 318.303 3.32347 -0.860238 0
M  V30 3324 N 320.748 -0.0735177 1.57428 0
M  V30 3325 C 321.997 -0.771809 1.86349 0
M  V30 3326 C 322.31 -1.78828 0.792452 0
M  V30 3327 O 323.516 -2.53602 0.96945 0
M  V30 3328 C 321.972 -1.42358 3.30548 0
M  V30 3329 C 321.58 -0.445761 4.45777 0
M  V30 3330 C 323.324 -2.10434 3.6867 0
M  V30 3331 C 321.231 -1.10335 5.81016 0
M  V30 3332 H 320.161 -0.291999 0.695164 0
M  V30 3333 H 322.812 -0.0250749 1.83483 0
M  V30 3334 H 321.194 -2.21852 3.28021 0
M  V30 3335 H 322.368 0.319239 4.59693 0
M  V30 3336 H 320.683 0.130457 4.16196 0
M  V30 3337 H 323.28 -2.60405 4.67004 0
M  V30 3338 H 323.623 -2.90298 2.98383 0
M  V30 3339 H 324.156 -1.37773 3.7318 0
M  V30 3340 H 320.895 -0.345061 6.54591 0
M  V30 3341 H 320.415 -1.83925 5.70904 0
M  V30 3342 H 322.094 -1.62367 6.26295 0
M  V30 3343 N 322.226 -1.5378 -0.344866 0
M  V30 3344 C 323.466 -1.72677 -1.09371 0
M  V30 3345 C 323.83 -0.479084 -1.85927 0
M  V30 3346 O 325.031 -0.54505 -2.63216 0
M  V30 3347 C 323.302 -2.95457 -2.01097 0
M  V30 3348 S 324.861 -3.35158 -2.83222 0
M  V30 3349 H 321.679 -0.607402 -0.369573 0
M  V30 3350 H 324.281 -1.91922 -0.372307 0
M  V30 3351 H 322.985 -3.84437 -1.43655 0
M  V30 3352 H 322.516 -2.78673 -2.77678 0
M  V30 3353 H 324.531 -2.88789 -4.03504 0
M  V30 3354 N 323.704 0.605807 -1.45491 0
M  V30 3355 C 324.953 1.36086 -1.48874 0
M  V30 3356 C 325.266 1.95131 -0.135333 0
M  V30 3357 O 326.472 2.7146 -0.0468144 0
M  V30 3358 C 324.928 2.46518 -2.62215 0
M  V30 3359 C 324.536 1.93877 -4.03876 0
M  V30 3360 C 326.28 3.23512 -2.74846 0
M  V30 3361 C 324.187 3.01801 -5.08596 0
M  V30 3362 H 323.117 0.511497 -0.553974 0
M  V30 3363 H 325.768 0.649089 -1.71636 0
M  V30 3364 H 324.15 3.20388 -2.32739 0
M  V30 3365 H 325.324 1.26704 -4.43038 0
M  V30 3366 H 323.639 1.29622 -3.95711 0
M  V30 3367 H 326.236 4.04013 -3.50253 0
M  V30 3368 H 326.579 3.74631 -1.81542 0
M  V30 3369 H 327.112 2.56742 -3.03856 0
M  V30 3370 H 323.851 2.55597 -6.03614 0
M  V30 3371 H 323.371 3.67535 -4.74002 0
M  V30 3372 H 325.05 3.66152 -5.33424 0
M  V30 3373 N 325.182 1.32811 0.848464 0
M  V30 3374 C 326.407 1.26882 1.6406 0
M  V30 3375 C 326.832 -0.15913 1.87426 0
M  V30 3376 O 326.19 -1.11258 1.43148 0
M  V30 3377 C 326.238 2.03997 2.97351 0
M  V30 3378 O 325.342 1.39201 3.88197 0
M  V30 3379 H 324.683 0.436982 0.499943 0
M  V30 3380 H 327.213 1.75224 1.0563 0
M  V30 3381 H 327.223 2.14403 3.47124 0
M  V30 3382 H 325.898 3.0783 2.79666 0
M  V30 3383 H 324.475 1.37381 3.46671 0
M  V30 3384 N 326.66 -1.06551 1.16123 0
M  V30 3385 C 327.57 -2.17484 0.879662 0
M  V30 3386 C 328.586 -1.73377 -0.147104 0
M  V30 3387 O 329.762 -2.01379 0.0289128 0
M  V30 3388 C 326.827 -3.44591 0.381829 0
M  V30 3389 C 325.888 -4.0322 1.4735 0
M  V30 3390 C 325.121 -5.24261 0.999324 0
M  V30 3391 O 325.344 -5.70198 -0.151957 0
M  V30 3392 O 324.278 -5.74775 1.78653 0
M  V30 3393 H 328.104 -2.44075 1.80724 0
M  V30 3394 H 325.689 -1.16042 0.940992 0
M  V30 3395 H 327.571 -4.21254 0.111053 0
M  V30 3396 H 326.246 -3.19532 -0.51777 0
M  V30 3397 H 325.153 -3.2806 1.79798 0
M  V30 3398 H 326.486 -4.32568 2.34831 0
M  V30 3399 N 328.138 -0.959301 -1.25041 0
M  V30 3400 C 329.554 -0.664474 -1.4511 0
M  V30 3401 C 329.754 0.776481 -1.85938 0
M  V30 3402 O 328.81 1.55128 -1.99227 0
M  V30 3403 C 330.123 -1.64139 -2.5195 0
M  V30 3404 C 331.671 -1.65309 -2.65786 0
M  V30 3405 C 332.146 -2.61777 -3.75815 0
M  V30 3406 N 333.637 -2.60169 -3.83231 0
M  V30 3407 C 334.372 -3.31489 -4.6787 0
M  V30 3408 N 333.868 -4.12298 -5.56761 0
M  V30 3409 N 335.661 -3.20354 -4.61876 0
M  V30 3410 H 327.812 -1.89043 -0.968332 0
M  V30 3411 H 330.075 -0.813408 -0.4869 0
M  V30 3412 H 329.781 -2.67086 -2.28819 0
M  V30 3413 H 329.655 -1.40756 -3.49954 0
M  V30 3414 H 332.042 -0.630778 -2.8828 0
M  V30 3415 H 332.123 -1.92753 -1.68167 0
M  V30 3416 H 331.767 -3.64137 -3.54071 0
M  V30 3417 H 331.697 -2.31616 -4.72929 0
M  V30 3418 H 334.188 -2.01507 -3.19692 0
M  V30 3419 H 334.501 -4.63625 -6.18281 0
M  V30 3420 H 332.846 -4.16395 -5.56454 0
M  V30 3421 H 336.037 -2.56692 -3.91442 0
M  V30 3422 H 336.21 -3.76201 -5.27614 0
M  V30 3423 N 329.616 1.39756 -0.72842 0
M  V30 3424 C 330.548 2.29157 -0.0446202 0
M  V30 3425 C 331.561 1.46484 0.710367 0
M  V30 3426 O 332.75 1.69632 0.55562 0
M  V30 3427 C 329.85 3.24987 0.961071 0
M  V30 3428 C 329.023 4.36572 0.268967 0
M  V30 3429 C 328.082 5.12756 1.18184 0
M  V30 3430 O 327.108 5.6534 0.661794 0
M  V30 3431 N 328.31 5.23331 2.51206 0
M  V30 3432 H 331.075 2.88482 -0.812295 0
M  V30 3433 H 328.636 1.51265 -0.577098 0
M  V30 3434 H 330.628 3.72827 1.57423 0
M  V30 3435 H 329.198 2.66739 1.63 0
M  V30 3436 H 328.418 3.90694 -0.524574 0
M  V30 3437 H 329.706 5.08363 -0.210934 0
M  V30 3438 H 329.104 4.82116 2.9594 0
M  V30 3439 H 327.661 5.74634 3.07634 0
M  V30 3440 N 331.094 0.475555 1.50254 0
M  V30 3441 C 332.027 -0.362381 2.25304 0
M  V30 3442 C 333.005 -0.992393 1.28803 0
M  V30 3443 O 334.189 -1.02746 1.58036 0
M  V30 3444 C 331.316 -1.50813 3.03271 0
M  V30 3445 C 330.362 -0.995044 4.1473 0
M  V30 3446 S 331.195 0.0938436 5.35418 0
M  V30 3447 C 332.351 -1.05567 6.16933 0
M  V30 3448 H 332.584 0.274686 2.96028 0
M  V30 3449 H 330.117 0.260495 1.52187 0
M  V30 3450 H 332.075 -2.16476 3.48781 0
M  V30 3451 H 330.736 -2.11672 2.32064 0
M  V30 3452 H 329.929 -1.85293 4.68703 0
M  V30 3453 H 329.531 -0.416052 3.71679 0
M  V30 3454 H 331.823 -1.96636 6.48337 0
M  V30 3455 H 332.766 -0.555109 7.05921 0
M  V30 3456 H 333.174 -1.31151 5.49053 0
M  V30 3457 N 332.573 -1.56217 0.208337 0
M  V30 3458 C 333.821 -1.97558 -0.426076 0
M  V30 3459 C 334.142 -1.09683 -1.61229 0
M  V30 3460 O 333.412 -0.170956 -1.95153 0
M  V30 3461 H 331.992 -0.729575 -0.160405 0
M  V30 3462 H 334.654 -1.92606 0.298155 0
M  V30 3463 H 333.75 -3.02672 -0.761312 0
M  V30 3464 N 334.051 0.0651679 -1.57465 0
M  V30 3465 C 334.998 1.07675 -2.04144 0
M  V30 3466 C 335.968 1.38071 -0.923335 0
M  V30 3467 O 337.153 1.49026 -1.19146 0
M  V30 3468 C 334.293 2.38337 -2.49579 0
M  V30 3469 C 333.406 2.14413 -3.75035 0
M  V30 3470 C 332.541 3.38686 -4.09225 0
M  V30 3471 C 331.58 3.10156 -5.27702 0
M  V30 3472 N 330.717 4.26778 -5.57499 0
M  V30 3473 H 335.557 0.671716 -2.90331 0
M  V30 3474 H 333.094 0.3201 -1.43575 0
M  V30 3475 H 335.052 3.14632 -2.73975 0
M  V30 3476 H 333.682 2.7663 -1.6636 0
M  V30 3477 H 332.734 1.2878 -3.57939 0
M  V30 3478 H 334.046 1.89344 -4.61466 0
M  V30 3479 H 333.2 4.23373 -4.34558 0
M  V30 3480 H 331.939 3.66837 -3.21374 0
M  V30 3481 H 330.944 2.23866 -5.02159 0
M  V30 3482 H 332.169 2.8332 -6.17176 0
M  V30 3483 H 330.115 4.54948 -4.72608 0
M  V30 3484 H 330.032 4.05005 -6.38362 0
M  V30 3485 H 331.3 5.12443 -5.87386 0
M  V30 3486 N 335.529 1.53961 0.336706 0
M  V30 3487 C 336.776 1.71536 1.07618 0
M  V30 3488 C 337.104 0.482125 1.8843 0
M  V30 3489 O 336.359 -0.536142 1.88213 0
M  V30 3490 C 336.658 2.93493 2.03953 0
M  V30 3491 C 336.324 4.28811 1.39399 0
M  V30 3492 C 334.986 4.65602 1.21523 0
M  V30 3493 C 337.338 5.12844 0.929541 0
M  V30 3494 C 334.666 5.84037 0.558312 0
M  V30 3495 C 337.018 6.31951 0.286505 0
M  V30 3496 C 335.682 6.67432 0.0954869 0
M  V30 3497 H 334.952 0.627696 0.393801 0
M  V30 3498 H 337.599 1.88186 0.354715 0
M  V30 3499 H 335.904 2.71475 2.82504 0
M  V30 3500 H 337.601 3.04285 2.61174 0
M  V30 3501 H 334.191 3.99858 1.54311 0
M  V30 3502 H 338.375 4.84947 1.05548 0
M  V30 3503 H 333.631 6.10097 0.398995 0
M  V30 3504 H 337.805 6.96352 -0.0814376 0
M  V30 3505 H 335.432 7.59063 -0.415579 0
M  V30 3506 N 337.007 -0.598083 1.45811 0
M  V30 3507 C 338.423 -0.919847 1.30426 0
M  V30 3508 C 338.623 -1.99759 0.264303 0
M  V30 3509 O 337.679 -2.50221 -0.338472 0
M  V30 3510 C 338.992 -1.35176 2.68603 0
M  V30 3511 C 340.54 -1.46546 2.76574 0
M  V30 3512 C 341.015 -1.9311 4.15298 0
M  V30 3513 N 342.506 -2.00328 4.1764 0
M  V30 3514 C 343.241 -2.37599 5.21856 0
M  V30 3515 N 342.737 -2.73771 6.36413 0
M  V30 3516 N 344.53 -2.38021 5.09218 0
M  V30 3517 H 336.681 0.114111 2.12093 0
M  V30 3518 H 338.944 -0.0116121 0.947929 0
M  V30 3519 H 338.65 -0.633969 3.45939 0
M  V30 3520 H 338.524 -2.3164 2.97696 0
M  V30 3521 H 340.911 -2.17415 1.99537 0
M  V30 3522 H 340.992 -0.483727 2.51185 0
M  V30 3523 H 340.636 -1.22824 4.92825 0
M  V30 3524 H 340.566 -2.92213 4.38086 0
M  V30 3525 H 343.057 -1.74925 3.34977 0
M  V30 3526 H 343.37 -3.0112 7.11721 0
M  V30 3527 H 341.715 -2.71445 6.39799 0
M  V30 3528 H 344.906 -2.09174 4.18765 0
M  V30 3529 H 345.079 -2.66741 5.90554 0
M  V30 3530 N 338.485 -1.33259 -0.841409 0
M  V30 3531 C 339.71 -1.2775 -1.63385 0
M  V30 3532 C 340.135 0.149188 -1.87507 0
M  V30 3533 O 339.493 1.10498 -1.43736 0
M  V30 3534 C 339.541 -2.05571 -2.96265 0
M  V30 3535 O 338.645 -1.41257 -3.87453 0
M  V30 3536 H 337.986 -0.439627 -0.497618 0
M  V30 3537 H 340.516 -1.75782 -1.04699 0
M  V30 3538 H 340.526 -2.16241 -3.45982 0
M  V30 3539 H 339.201 -3.09309 -2.7803 0
M  V30 3540 H 337.778 -1.39217 -3.45938 0
M  V30 3541 N 339.963 1.05934 -1.16686 0
M  V30 3542 C 340.893 2.1546 -0.899949 0
M  V30 3543 C 341.874 1.69391 0.155154 0
M  V30 3544 O 343.059 1.94199 0.00648693 0
M  V30 3545 C 340.189 3.44939 -0.404241 0
M  V30 3546 C 339.143 4.04536 -1.39767 0
M  V30 3547 C 338.469 5.29268 -0.760216 0
M  V30 3548 C 339.769 4.42893 -2.76845 0
M  V30 3549 H 341.463 2.38046 -1.81588 0
M  V30 3550 H 339.009 1.14404 -0.874514 0
M  V30 3551 H 340.962 4.20901 -0.204971 0
M  V30 3552 H 339.686 3.21983 0.547206 0
M  V30 3553 H 338.345 3.30635 -1.58355 0
M  V30 3554 H 337.993 5.02611 0.197831 0
M  V30 3555 H 337.693 5.70101 -1.42332 0
M  V30 3556 H 339.217 6.07924 -0.57105 0
M  V30 3557 H 340.631 5.09921 -2.62019 0
M  V30 3558 H 339.028 4.94721 -3.39663 0
M  V30 3559 H 340.098 3.53584 -3.31823 0
M  V30 3560 N 341.441 0.965919 1.2453 0
M  V30 3561 C 342.371 0.513476 2.27784 0
M  V30 3562 C 343.352 -0.445974 1.6415 0
M  V30 3563 O 344.537 -0.342485 1.91156 0
M  V30 3564 C 341.667 -0.198839 3.4673 0
M  V30 3565 C 340.621 0.676456 4.2262 0
M  V30 3566 C 339.947 -0.167248 5.34438 0
M  V30 3567 C 341.247 1.96017 4.84123 0
M  V30 3568 H 342.941 1.3765 2.65881 0
M  V30 3569 H 340.487 0.663321 1.27813 0
M  V30 3570 H 342.44 -0.526567 4.18097 0
M  V30 3571 H 341.164 -1.0962 3.07654 0
M  V30 3572 H 339.823 0.98743 3.53052 0
M  V30 3573 H 339.471 -1.0647 4.91603 0
M  V30 3574 H 339.171 0.415181 5.86131 0
M  V30 3575 H 340.695 -0.489688 6.08633 0
M  V30 3576 H 342.109 1.69814 5.47573 0
M  V30 3577 H 340.506 2.48918 5.4604 0
M  V30 3578 H 341.576 2.65622 4.05676 0
M  V30 3579 N 342.919 -1.39368 0.735821 0
M  V30 3580 C 344.166 -2.00497 0.284123 0
M  V30 3581 C 344.494 -1.58387 -1.12889 0
M  V30 3582 O 343.749 -0.804359 -1.78406 0
M  V30 3583 C 344.048 -3.5583 0.334651 0
M  V30 3584 C 343.714 -4.17593 1.7008 0
M  V30 3585 C 342.376 -4.34176 2.07472 0
M  V30 3586 C 344.728 -4.51848 2.59775 0
M  V30 3587 C 342.056 -4.82304 3.34065 0
M  V30 3588 C 344.408 -5.01384 3.85741 0
M  V30 3589 C 343.072 -5.16175 4.23225 0
M  V30 3590 H 342.342 -0.73367 0.103968 0
M  V30 3591 H 344.989 -1.66683 0.942825 0
M  V30 3592 H 343.294 -3.89674 -0.407625 0
M  V30 3593 H 344.991 -4.00986 -0.0329927 0
M  V30 3594 H 341.581 -4.05087 1.40008 0
M  V30 3595 H 345.765 -4.38653 2.32157 0
M  V30 3596 H 341.021 -4.91941 3.63049 0
M  V30 3597 H 345.195 -5.26863 4.55399 0
M  V30 3598 H 342.822 -5.5323 5.21384 0
M  V30 3599 N 344.397 -0.483516 -1.5 0
M  V30 3600 C 345.625 0.0644831 -2.06799 0
M  V30 3601 C 346.04 1.32399 -1.34596 0
M  V30 3602 O 345.397 1.77626 -0.418946 0
M  V30 3603 C 345.448 0.339927 -3.59898 0
M  V30 3604 O 345.169 -0.869635 -4.29382 0
M  V30 3605 C 346.67 0.933515 -4.33359 0
M  V30 3606 H 343.89 -0.0126333 -0.670881 0
M  V30 3607 H 346.434 -0.675864 -1.93009 0
M  V30 3608 H 344.589 1.03022 -3.7345 0
M  V30 3609 H 345.003 -0.62179 -5.20801 0
M  V30 3610 H 346.477 1.07593 -5.41413 0
M  V30 3611 H 346.954 1.92685 -3.94676 0
M  V30 3612 H 347.56 0.281221 -4.24369 0
M  V30 3613 N 345.875 1.56104 -0.216619 0
M  V30 3614 C 347.1 2.0301 0.424462 0
M  V30 3615 C 347.525 1.0955 1.52907 0
M  V30 3616 O 346.883 0.0827914 1.81111 0
M  V30 3617 C 346.931 3.4819 0.937883 0
M  V30 3618 O 346.035 3.57865 2.04955 0
M  V30 3619 H 345.376 0.656925 0.0966755 0
M  V30 3620 H 347.906 2.01859 -0.33381 0
M  V30 3621 H 347.916 3.88413 1.24897 0
M  V30 3622 H 346.591 4.15699 0.129387 0
M  V30 3623 H 345.168 3.29527 1.74546 0
M  V30 3624 N 347.353 -0.0568162 1.57498 0
M  V30 3625 C 348.263 -1.08346 2.08083 0
M  V30 3626 C 349.279 -1.41439 1.01346 0
M  V30 3627 O 350.455 -1.51316 1.32912 0
M  V30 3628 C 347.52 -2.37352 2.52715 0
M  V30 3629 C 346.581 -2.11093 3.73816 0
M  V30 3630 C 345.814 -3.33949 4.1631 0
M  V30 3631 O 346.037 -4.43622 3.58547 0
M  V30 3632 O 344.971 -3.21279 5.08983 0
M  V30 3633 H 348.797 -0.683667 2.95905 0
M  V30 3634 H 346.382 -0.271965 1.46904 0
M  V30 3635 H 348.264 -3.13246 2.81877 0
M  V30 3636 H 346.939 -2.76681 1.68016 0
M  V30 3637 H 345.846 -1.32856 3.49714 0
M  V30 3638 H 347.179 -1.76637 4.59413 0
M  V30 3639 N 348.832 -1.54138 -0.328536 0
M  V30 3640 C 350.109 -1.62749 -1.08499 0
M  V30 3641 C 350.489 -0.458198 -2.06067 0
M  V30 3642 O 349.837 0.548046 -2.2183 0
M  V30 3643 C 350.047 -2.99519 -1.79135 0
M  V30 3644 C 351.395 -3.55394 -2.32337 0
M  V30 3645 O 352.419 -3.01792 -1.89209 0
M  V30 3646 O 351.278 -4.49186 -3.11279 0
M  V30 3647 H 348.372 -0.65886 -0.499832 0
M  V30 3648 H 350.918 -1.66484 -0.328826 0
M  V30 3649 H 349.69 -3.76061 -1.08139 0
M  V30 3650 H 349.313 -2.99441 -2.61574 0
M  V30 3651 N 350.31 0.590341 -1.46126 0
M  V30 3652 C 351.587 1.35029 -1.41515 0
M  V30 3653 C 351.967 2.10888 -0.0946472 0
M  V30 3654 O 351.315 2.08998 0.923693 0
M  V30 3655 C 351.525 2.28269 -2.63997 0
M  V30 3656 C 352.873 2.90338 -3.09821 0
M  V30 3657 O 353.897 2.38585 -2.64492 0
M  V30 3658 O 352.756 3.84321 -3.88535 0
M  V30 3659 H 349.85 0.606317 -0.562413 0
M  V30 3660 H 352.396 0.611994 -1.58281 0
M  V30 3661 H 351.168 1.71591 -3.51671 0
M  V30 3662 H 350.791 3.0945 -2.49652 0
M  V30 3663 N 351.788 1.33704 0.83433 0
M  V30 3664 C 352.698 1.26382 1.97648 0
M  V30 3665 C 353.714 0.173548 1.73132 0
M  V30 3666 O 354.89 0.397962 1.97429 0
M  V30 3667 C 351.955 1.00769 3.31733 0
M  V30 3668 C 351.016 2.1884 3.69334 0
M  V30 3669 C 350.249 1.9444 4.9702 0
M  V30 3670 O 350.472 0.896961 5.63303 0
M  V30 3671 O 349.406 2.81093 5.32231 0
M  V30 3672 H 353.232 2.22444 2.06767 0
M  V30 3673 H 350.817 1.13795 0.968037 0
M  V30 3674 H 352.699 0.882186 4.12062 0
M  V30 3675 H 351.374 0.0773783 3.23608 0
M  V30 3676 H 350.281 2.36946 2.89495 0
M  V30 3677 H 351.614 3.10221 3.82131 0
M  V30 3678 N 353.266 -1.05314 1.17247 0
M  V30 3679 C 354.682 -1.30452 0.919473 0
M  V30 3680 C 354.882 -1.9703 -0.42209 0
M  V30 3681 O 353.938 -2.24311 -1.15935 0
M  V30 3682 C 355.251 -2.17551 2.07586 0
M  V30 3683 C 356.799 -2.30937 2.11275 0
M  V30 3684 C 357.274 -3.21396 3.26296 0
M  V30 3685 N 358.765 -3.28981 3.26076 0
M  V30 3686 C 359.5 -3.99095 4.11716 0
M  V30 3687 N 358.996 -4.71648 5.07465 0
M  V30 3688 N 360.789 -3.95247 3.9967 0
M  V30 3689 H 352.94 -0.604988 2.03602 0
M  V30 3690 H 355.203 -0.329368 0.888944 0
M  V30 3691 H 354.909 -1.75921 3.0454 0
M  V30 3692 H 354.783 -3.18182 2.02584 0
M  V30 3693 H 357.17 -2.71809 1.14907 0
M  V30 3694 H 357.251 -1.2994 2.20339 0
M  V30 3695 H 356.895 -2.81238 4.22927 0
M  V30 3696 H 356.825 -4.22395 3.14467 0
M  V30 3697 H 359.316 -2.77286 2.5675 0
M  V30 3698 H 359.629 -5.22705 5.6921 0
M  V30 3699 H 357.974 -4.70594 5.11435 0
M  V30 3700 H 361.165 -3.37691 3.24164 0
M  V30 3701 H 361.338 -4.4962 4.66632 0
M  V30 3702 N 354.744 -0.972509 -1.24016 0
M  V30 3703 C 355.993 -0.632603 -1.91523 0
M  V30 3704 C 356.306 0.836641 -1.76804 0
M  V30 3705 O 357.512 1.28728 -2.39043 0
M  V30 3706 C 355.968 -1.08082 -3.43287 0
M  V30 3707 C 355.576 -2.57386 -3.66683 0
M  V30 3708 C 357.32 -0.814288 -4.16617 0
M  V30 3709 C 355.227 -2.95915 -5.12043 0
M  V30 3710 H 354.157 -0.232898 -0.717129 0
M  V30 3711 H 356.808 -1.17936 -1.40582 0
M  V30 3712 H 355.19 -0.462339 -3.93292 0
M  V30 3713 H 356.364 -3.24405 -3.27258 0
M  V30 3714 H 354.679 -2.81701 -3.06649 0
M  V30 3715 H 357.276 -1.0781 -5.23718 0
M  V30 3716 H 357.619 0.24955 -4.15551 0
M  V30 3717 H 358.152 -1.39397 -3.72577 0
M  V30 3718 H 354.891 -4.0139 -5.18234 0
M  V30 3719 H 354.411 -2.33584 -5.52448 0
M  V30 3720 H 356.09 -2.86086 -5.80314 0
M  V30 3721 N 356.222 1.38976 -0.743202 0
M  V30 3722 C 357.172 2.27843 -0.084513 0
M  V30 3723 C 358.156 1.44677 0.704094 0
M  V30 3724 O 359.348 1.67511 0.571755 0
M  V30 3725 C 356.477 3.33466 0.815781 0
M  V30 3726 C 355.563 4.24095 0.0208844 0
M  V30 3727 N 355.954 4.95609 -1.0102 0
M  V30 3728 C 354.252 4.45303 0.249293 0
M  V30 3729 C 354.953 5.62287 -1.49024 0
M  V30 3730 N 353.929 5.37571 -0.807377 0
M  V30 3731 H 357.731 2.80593 -0.87436 0
M  V30 3732 H 355.245 1.51755 -0.578283 0
M  V30 3733 H 357.242 3.96008 1.30321 0
M  V30 3734 H 355.902 2.82276 1.6047 0
M  V30 3735 H 356.913 4.98849 -1.39176 0
M  V30 3736 H 353.59 4.0504 1.01237 0
M  V30 3737 H 354.98 6.29519 -2.34853 0
M  V30 3738 N 357.7 0.491464 1.49741 0
M  V30 3739 C 358.633 -0.338464 2.25676 0
M  V30 3740 C 359.611 -0.978676 1.29849 0
M  V30 3741 O 360.795 -1.01064 1.59117 0
M  V30 3742 C 357.922 -1.47588 3.04853 0
M  V30 3743 C 356.968 -0.951 4.15762 0
M  V30 3744 S 357.801 0.150626 5.35288 0
M  V30 3745 C 358.957 -0.990178 6.18018 0
M  V30 3746 H 359.19 0.306068 2.9572 0
M  V30 3747 H 356.723 0.276622 1.51902 0
M  V30 3748 H 358.681 -2.12764 3.51058 0
M  V30 3749 H 357.342 -2.09199 2.34296 0
M  V30 3750 H 356.535 -1.80311 4.70642 0
M  V30 3751 H 356.137 -0.376607 3.72099 0
M  V30 3752 H 358.429 -1.89748 6.50386 0
M  V30 3753 H 359.372 -0.480205 7.0647 0
M  V30 3754 H 359.78 -1.25321 5.50413 0
M  V30 3755 N 359.178 -1.55987 0.224894 0
M  V30 3756 C 360.424 -1.98684 -0.406502 0
M  V30 3757 C 360.757 -1.11248 -1.59177 0
M  V30 3758 O 360.032 -0.170909 -1.93748 0
M  V30 3759 C 360.315 -3.50218 -0.837808 0
M  V30 3760 C 360.168 -4.48426 0.351332 0
M  V30 3761 C 361.487 -4.06243 -1.69278 0
M  V30 3762 H 358.606 -0.722337 -0.146283 0
M  V30 3763 H 361.248 -1.87255 0.321799 0
M  V30 3764 H 359.398 -3.60089 -1.45837 0
M  V30 3765 H 361.07 -4.50562 0.989526 0
M  V30 3766 H 359.313 -4.22159 0.998207 0
M  V30 3767 H 359.984 -5.52 0.00655905 0
M  V30 3768 H 362.46 -3.99337 -1.16914 0
M  V30 3769 H 361.336 -5.12581 -1.96346 0
M  V30 3770 H 361.597 -3.53332 -2.65723 0
M  V30 3771 N 360.656 0.0484629 -1.57525 0
M  V30 3772 C 361.604 1.07359 -2.06341 0
M  V30 3773 C 362.598 1.3865 -0.973269 0
M  V30 3774 O 363.804 1.37783 -1.15827 0
M  V30 3775 H 360.179 0.363662 -0.65822 0
M  V30 3776 H 362.15 0.635916 -2.91545 0
M  V30 3777 C 360.899 2.37198 -2.54229 0
M  V30 3778 H 360.222 2.13977 -3.37719 0
M  V30 3779 H 361.662 3.07319 -2.92115 0
M  V30 3780 C 360.121 3.04805 -1.43511 0
M  V30 3781 O 360.651 3.93848 -0.79034 0
M  V30 3782 N 358.857 2.65811 -1.17444 0
M  V30 3783 H 358.404 1.93488 -1.70059 0
M  V30 3784 H 358.362 3.11366 -0.435737 0
M  V30 3785 N 362.134 1.5431 0.320358 0
M  V30 3786 C 363.082 1.84647 1.4145 0
M  V30 3787 C 364.076 0.718624 1.53402 0
M  V30 3788 O 365.282 0.902335 1.5575 0
M  V30 3789 H 361.657 0.585349 0.472091 0
M  V30 3790 H 363.628 2.7614 1.13089 0
M  V30 3791 C 362.377 2.09341 2.77617 0
M  V30 3792 H 361.7 2.9559 2.69196 0
M  V30 3793 H 363.14 2.3452 3.53237 0
M  V30 3794 C 361.599 0.885939 3.25043 0
M  V30 3795 O 362.129 0.0967891 4.01583 0
M  V30 3796 N 360.335 0.696682 2.82125 0
M  V30 3797 H 359.882 1.34006 2.2 0
M  V30 3798 H 359.84 -0.109712 3.14209 0
M  V30 3799 N 363.613 -0.582584 1.46437 0
M  V30 3800 C 364.86 -1.34079 1.51753 0
M  V30 3801 C 365.188 -1.93762 0.169299 0
M  V30 3802 O 364.443 -1.76989 -0.835062 0
M  V30 3803 C 364.742 -2.48964 2.56421 0
M  V30 3804 C 364.408 -2.07273 4.00436 0
M  V30 3805 C 363.07 -1.95618 4.39644 0
M  V30 3806 C 365.422 -1.75111 4.90903 0
M  V30 3807 C 362.75 -1.5006 5.67185 0
M  V30 3808 C 365.102 -1.31032 6.18881 0
M  V30 3809 C 363.766 -1.17954 6.56996 0
M  V30 3810 H 363.036 -0.49063 0.555304 0
M  V30 3811 H 365.683 -0.656007 1.79913 0
M  V30 3812 H 363.988 -3.22889 2.21923 0
M  V30 3813 H 365.685 -3.07178 2.57765 0
M  V30 3814 H 362.275 -2.17279 3.69443 0
M  V30 3815 H 366.459 -1.83001 4.61329 0
M  V30 3816 H 361.715 -1.38577 5.95488 0
M  V30 3817 H 365.889 -1.052 6.88408 0
M  V30 3818 H 363.516 -0.824279 7.55718 0
M  V30 3819 N 365.091 -1.34144 -0.827227 0
M  V30 3820 C 366.507 -1.13732 -1.11969 0
M  V30 3821 C 366.707 0.0640463 -2.01398 0
M  V30 3822 O 365.763 0.740856 -2.41387 0
M  V30 3823 C 367.076 -2.43047 -1.77055 0
M  V30 3824 C 368.624 -2.49063 -1.89569 0
M  V30 3825 C 369.099 -3.78369 -2.58072 0
M  V30 3826 N 370.59 -3.79505 -2.65575 0
M  V30 3827 C 371.325 -4.76274 -3.19297 0
M  V30 3828 N 370.821 -5.83424 -3.73616 0
M  V30 3829 N 372.614 -4.63735 -3.17658 0
M  V30 3830 H 364.765 -2.11126 -0.232296 0
M  V30 3831 H 367.028 -0.933424 -0.165602 0
M  V30 3832 H 366.734 -3.31025 -1.18807 0
M  V30 3833 H 366.608 -2.56066 -2.76966 0
M  V30 3834 H 368.995 -1.61527 -2.46968 0
M  V30 3835 H 369.076 -2.39975 -0.885745 0
M  V30 3836 H 368.72 -4.66293 -2.01329 0
M  V30 3837 H 368.65 -3.84737 -3.59562 0
M  V30 3838 H 371.141 -3.02074 -2.27068 0
M  V30 3839 H 371.454 -6.53282 -4.12846 0
M  V30 3840 H 369.799 -5.87143 -3.71871 0
M  V30 3841 H 372.99 -3.79177 -2.74486 0
M  V30 3842 H 373.163 -5.39318 -3.59221 0
M  V30 3843 N 366.569 1.04691 -1.17803 0
M  V30 3844 C 367.98 1.59238 -0.974689 0
M  V30 3845 C 368.331 1.90306 0.477292 0
M  V30 3846 O 367.456 1.68846 1.35352 0
M  V30 3847 C 368.051 2.89318 -1.76296 0
M  V30 3848 C 366.61 3.40506 -1.60414 0
M  V30 3849 C 365.757 2.14172 -1.76141 0
M  V30 3850 H 368.708 0.874395 -1.32439 0
M  V30 3851 H 368.729 3.5944 -1.24833 0
M  V30 3852 H 368.241 2.66675 -2.81968 0
M  V30 3853 H 366.342 3.68175 -0.572519 0
M  V30 3854 H 366.455 4.14753 -2.39827 0
M  V30 3855 H 364.819 2.25176 -1.19028 0
M  V30 3856 H 365.602 1.93992 -2.83235 0
M  V30 3857 N 368.047 0.979072 1.23499 0
M  V30 3858 C 369.458 0.684391 1.73704 0
M  V30 3859 C 369.809 -0.799448 1.79174 0
M  V30 3860 O 368.934 -1.62531 1.42873 0
M  V30 3861 C 369.529 1.23564 3.15464 0
M  V30 3862 C 368.088 0.99063 3.6313 0
M  V30 3863 C 367.235 1.36416 2.41425 0
M  V30 3864 H 370.186 1.15307 1.09041 0
M  V30 3865 H 370.207 0.607417 3.7562 0
M  V30 3866 H 369.719 2.31561 3.1145 0
M  V30 3867 H 367.82 -0.0733136 3.72528 0
M  V30 3868 H 367.933 1.64427 4.5 0
M  V30 3869 H 366.297 0.782616 2.42378 0
M  V30 3870 H 367.08 2.45387 2.40083 0
M  V30 3871 N 369.525 -1.3858 0.750561 0
M  V30 3872 C 370.457 -2.29057 0.0810714 0
M  V30 3873 C 371.47 -1.47596 -0.686973 0
M  V30 3874 O 372.659 -1.70495 -0.528563 0
M  V30 3875 C 369.759 -3.26475 -0.909247 0
M  V30 3876 C 368.932 -4.36945 -0.199478 0
M  V30 3877 C 367.991 -5.14572 -1.10011 0
M  V30 3878 O 367.017 -5.66321 -0.57177 0
M  V30 3879 N 368.219 -5.27262 -2.42849 0
M  V30 3880 H 370.984 -2.87153 0.858087 0
M  V30 3881 H 368.545 -1.50328 0.60109 0
M  V30 3882 H 370.537 -3.75285 -1.51471 0
M  V30 3883 H 369.107 -2.69298 -1.58736 0
M  V30 3884 H 368.327 -3.8981 0.586664 0
M  V30 3885 H 369.615 -5.07963 0.291783 0
M  V30 3886 H 369.013 -4.86763 -2.88233 0
M  V30 3887 H 367.57 -5.79456 -2.98453 0
M  V30 3888 N 371.003 -0.499398 -1.49478 0
M  V30 3889 C 372.414 -0.051215 -1.8663 0
M  V30 3890 C 372.765 1.36238 -1.41186 0
M  V30 3891 O 371.89 2.01502 -0.789051 0
M  V30 3892 C 372.485 -0.0861651 -3.3869 0
M  V30 3893 C 371.044 0.30667 -3.75149 0
M  V30 3894 C 370.191 -0.459397 -2.73468 0
M  V30 3895 H 373.142 -0.712264 -1.41818 0
M  V30 3896 H 373.163 0.709507 -3.73826 0
M  V30 3897 H 372.675 -1.11512 -3.71735 0
M  V30 3898 H 370.776 1.33892 -3.47712 0
M  V30 3899 H 370.889 -0.0116669 -4.79099 0
M  V30 3900 H 369.253 0.0905645 -2.54539 0
M  V30 3901 H 370.036 -1.4884 -3.09357 0
M  V30 3902 N 372.481 1.55866 -0.233164 0
M  V30 3903 C 373.411 2.23783 0.666599 0
M  V30 3904 C 374.392 1.21343 1.19205 0
M  V30 3905 O 375.577 1.4996 1.23392 0
M  V30 3906 C 372.707 2.92671 1.86978 0
M  V30 3907 C 371.661 4.01682 1.47768 0
M  V30 3908 C 370.987 4.57926 2.76058 0
M  V30 3909 C 372.287 5.18126 0.658993 0
M  V30 3910 H 373.981 2.99232 0.100306 0
M  V30 3911 H 371.527 1.43924 0.046804 0
M  V30 3912 H 373.48 3.3888 2.50476 0
M  V30 3913 H 372.204 2.14688 2.46123 0
M  V30 3914 H 370.863 3.56222 0.866106 0
M  V30 3915 H 370.511 3.76659 3.33372 0
M  V30 3916 H 370.211 5.31505 2.50552 0
M  V30 3917 H 371.735 5.06859 3.40479 0
M  V30 3918 H 373.149 5.60644 1.19795 0
M  V30 3919 H 371.546 5.98009 0.500552 0
M  V30 3920 H 372.616 4.83763 -0.331856 0
M  V30 3921 N 373.959 -0.0401083 1.57549 0
M  V30 3922 C 374.906 -1.04413 2.05831 0
M  V30 3923 C 375.876 -1.36585 0.945184 0
M  V30 3924 O 377.061 -1.47112 1.21502 0
M  V30 3925 C 374.201 -2.34336 2.53339 0
M  V30 3926 C 373.314 -2.08419 3.78398 0
M  V30 3927 C 372.449 -3.32133 4.14561 0
M  V30 3928 C 371.488 -3.01721 5.3257 0
M  V30 3929 N 370.625 -4.17855 5.64218 0
M  V30 3930 H 375.465 -0.625442 2.91363 0
M  V30 3931 H 373.002 -0.297218 1.44066 0
M  V30 3932 H 374.96 -3.10234 2.78946 0
M  V30 3933 H 373.59 -2.73948 1.7074 0
M  V30 3934 H 372.642 -1.23069 3.59942 0
M  V30 3935 H 373.954 -1.81978 4.64419 0
M  V30 3936 H 373.108 -4.16406 4.41238 0
M  V30 3937 H 371.847 -3.61678 3.2717 0
M  V30 3938 H 370.852 -2.15849 5.05657 0
M  V30 3939 H 372.077 -2.73466 6.21605 0
M  V30 3940 H 370.023 -4.47372 4.79786 0
M  V30 3941 H 369.94 -3.94798 6.44725 0
M  V30 3942 H 371.208 -5.03033 5.95465 0
M  V30 3943 N 375.437 -1.54477 -0.31217 0
M  V30 3944 C 376.685 -1.72884 -1.04668 0
M  V30 3945 C 377.006 -0.511477 -1.88173 0
M  V30 3946 O 376.276 0.474407 -1.90069 0
M  V30 3947 H 374.856 -0.637461 -0.389425 0
M  V30 3948 H 377.518 -1.91807 -0.345852 0
M  V30 3949 H 376.614 -2.61334 -1.70619 0
M  V30 3950 N 376.915 0.57481 -1.46744 0
M  V30 3951 C 378.331 0.898981 -1.31873 0
M  V30 3952 C 378.531 1.99313 -0.29605 0
M  V30 3953 O 377.587 2.50728 0.298621 0
M  V30 3954 C 378.9 1.30886 -2.7072 0
M  V30 3955 C 380.448 1.42127 -2.78871 0
M  V30 3956 C 380.923 1.86478 -4.18318 0
M  V30 3957 N 382.414 1.93658 -4.20774 0
M  V30 3958 C 383.149 2.29267 -5.2557 0
M  V30 3959 N 382.645 2.63612 -6.40688 0
M  V30 3960 N 384.438 2.29889 -5.1294 0
M  V30 3961 H 376.589 -0.147839 -2.11885 0
M  V30 3962 H 378.852 -0.00347013 -0.947994 0
M  V30 3963 H 378.558 0.578853 -3.46904 0
M  V30 3964 H 378.432 2.26874 -3.01343 0
M  V30 3965 H 380.819 2.14213 -2.0297 0
M  V30 3966 H 380.9 0.443705 -2.51922 0
M  V30 3967 H 380.544 1.14968 -4.94717 0
M  V30 3968 H 380.474 2.85207 -4.42679 0
M  V30 3969 H 382.965 1.69574 -3.37718 0
M  V30 3970 H 383.278 2.89759 -7.16421 0
M  V30 3971 H 381.623 2.61232 -6.44036 0
M  V30 3972 H 384.814 2.02485 -4.22039 0
M  V30 3973 H 384.987 2.57312 -5.94722 0
M  V30 3974 N 378.394 1.34581 0.820102 0
M  V30 3975 C 379.64 1.27285 1.57881 0
M  V30 3976 C 379.973 -0.156137 1.93571 0
M  V30 3977 O 379.248 -1.10222 1.60254 0
M  V30 3978 C 379.531 2.16639 2.87645 0
M  V30 3979 C 379.384 3.68088 2.58517 0
M  V30 3980 C 380.703 2.05378 3.8924 0
M  V30 3981 H 377.822 0.463714 0.572833 0
M  V30 3982 H 380.464 1.64859 0.944539 0
M  V30 3983 H 378.614 1.84725 3.41773 0
M  V30 3984 H 380.286 4.10382 2.10676 0
M  V30 3985 H 378.529 3.89038 1.91917 0
M  V30 3986 H 379.2 4.2598 3.51063 0
M  V30 3987 H 381.676 2.33404 3.44473 0
M  V30 3988 H 380.552 2.7012 4.77835 0
M  V30 3989 H 380.813 1.0316 4.29896 0
M  V30 3990 N 379.872 -1.04064 1.18357 0
M  V30 3991 C 381.118 -1.77528 0.980397 0
M  V30 3992 C 381.451 -1.87948 -0.48879 0
M  V30 3993 O 380.726 -1.3876 -1.36293 0
M  V30 3994 C 381.009 -3.20797 1.63588 0
M  V30 3995 C 380.862 -3.1832 3.17793 0
M  V30 3996 C 382.181 -4.18911 1.34914 0
M  V30 3997 H 379.3 -0.644443 0.357578 0
M  V30 3998 H 381.942 -1.2156 1.46024 0
M  V30 3999 H 380.092 -3.68586 1.22788 0
M  V30 4000 H 381.764 -2.78521 3.67728 0
M  V30 4001 H 380.007 -2.56351 3.49952 0
M  V30 4002 H 380.678 -4.19489 3.58794 0
M  V30 4003 H 383.154 -3.7967 1.70265 0
M  V30 4004 H 382.03 -5.17374 1.83346 0
M  V30 4005 H 382.291 -4.41262 0.272027 0
M  V30 4006 N 381.35 -0.985608 -1.22978 0
M  V30 4007 C 382.297 -0.529825 -2.24636 0
M  V30 4008 C 383.267 0.434028 -1.60329 0
M  V30 4009 O 384.452 0.340414 -1.87739 0
M  V30 4010 C 381.592 0.156533 -3.44745 0
M  V30 4011 C 380.705 -0.848197 -4.23591 0
M  V30 4012 C 379.84 -0.136109 -5.31026 0
M  V30 4013 C 378.879 -1.1297 -6.01585 0
M  V30 4014 N 378.016 -0.446415 -7.00679 0
M  V30 4015 H 382.856 -1.40148 -2.62988 0
M  V30 4016 H 380.393 -0.702168 -1.29259 0
M  V30 4017 H 382.351 0.571324 -4.1327 0
M  V30 4018 H 380.981 0.992025 -3.07179 0
M  V30 4019 H 380.033 -1.38135 -3.54433 0
M  V30 4020 H 381.345 -1.60512 -4.72268 0
M  V30 4021 H 380.499 0.335784 -6.0577 0
M  V30 4022 H 379.238 0.653373 -4.83304 0
M  V30 4023 H 378.243 -1.6123 -5.25628 0
M  V30 4024 H 379.468 -1.91993 -6.51395 0
M  V30 4025 H 377.414 0.323763 -6.55201 0
M  V30 4026 H 377.331 -1.1419 -7.47326 0
M  V30 4027 H 378.599 0.00291697 -7.795 0
M  V30 4028 N 382.828 1.3818 -0.7579 0
M  V30 4029 C 383.791 2.28764 -0.141286 0
M  V30 4030 C 384.791 1.47388 0.642907 0
M  V30 4031 O 385.981 1.67781 0.468536 0
M  V30 4032 C 383.113 3.31184 0.808069 0
M  V30 4033 H 384.306 2.848 -0.939633 0
M  V30 4034 H 381.859 1.47212 -0.525191 0
M  V30 4035 H 382.594 2.80247 1.63193 0
M  V30 4036 H 382.379 3.91314 0.248104 0
M  V30 4037 H 383.869 3.98909 1.23536 0
M  V30 4038 N 384.306 0.507319 1.49211 0
M  V30 4039 C 385.531 -0.033725 2.07373 0
M  V30 4040 C 385.956 -1.29485 1.36437 0
M  V30 4041 O 385.314 -1.76294 0.423087 0
M  V30 4042 C 385.362 -0.263945 3.59633 0
M  V30 4043 O 384.466 -1.33737 3.90113 0
M  V30 4044 H 383.807 0.0290331 0.663365 0
M  V30 4045 H 386.337 0.708749 1.91932 0
M  V30 4046 H 386.347 -0.493536 4.05004 0
M  V30 4047 H 385.022 0.657424 4.10671 0
M  V30 4048 H 383.599 -1.09224 3.56545 0
M  V30 4049 N 385.784 -1.5574 0.241426 0
M  V30 4050 C 387.031 -1.9881 -0.384836 0
M  V30 4051 C 387.359 -1.12947 -1.58346 0
M  V30 4052 O 386.614 -0.178993 -1.9488 0
M  V30 4053 C 386.913 -3.47308 -0.843317 0
M  V30 4054 C 386.579 -4.50223 0.246946 0
M  V30 4055 C 385.241 -4.78088 0.546399 0
M  V30 4056 C 387.593 -5.11841 0.983282 0
M  V30 4057 C 384.921 -5.64846 1.58636 0
M  V30 4058 C 387.273 -5.99727 2.01272 0
M  V30 4059 C 385.937 -6.25927 2.31888 0
M  V30 4060 H 385.207 -0.727496 -0.140821 0
M  V30 4061 H 387.854 -1.8831 0.348106 0
M  V30 4062 H 386.159 -3.55112 -1.65537 0
M  V30 4063 H 387.856 -3.78017 -1.33806 0
M  V30 4064 H 384.446 -4.286 0.00340639 0
M  V30 4065 H 388.63 -4.90366 0.765182 0
M  V30 4066 H 383.886 -5.83403 1.82896 0
M  V30 4067 H 388.06 -6.46517 2.58823 0
M  V30 4068 H 385.687 -6.92949 3.12611 0
M  V30 4069 N 387.262 0.0317525 -1.57568 0
M  V30 4070 C 388.678 0.38735 -1.54828 0
M  V30 4071 C 388.878 1.7677 -0.967187 0
M  V30 4072 O 387.934 2.45581 -0.587063 0
M  V30 4073 C 389.247 0.291667 -2.99282 0
M  V30 4074 C 390.795 0.368946 -3.10818 0
M  V30 4075 C 391.27 0.302741 -4.56998 0
M  V30 4076 N 392.761 0.361617 -4.61786 0
M  V30 4077 C 393.496 0.333238 -5.72431 0
M  V30 4078 N 392.992 0.257308 -6.92322 0
M  V30 4079 N 394.785 0.382769 -5.60795 0
M  V30 4080 H 386.936 -0.871609 -1.93692 0
M  V30 4081 H 389.199 -0.331161 -0.888277 0
M  V30 4082 H 388.905 -0.656794 -3.45513 0
M  V30 4083 H 388.779 1.08638 -3.61217 0
M  V30 4084 H 391.166 1.30784 -2.64536 0
M  V30 4085 H 391.247 -0.455066 -2.5172 0
M  V30 4086 H 390.891 -0.632473 -5.03947 0
M  V30 4087 H 390.821 1.14482 -5.14005 0
M  V30 4088 H 393.312 0.422923 -3.75526 0
M  V30 4089 H 393.625 0.24068 -7.72425 0
M  V30 4090 H 391.97 0.223396 -6.94641 0
M  V30 4091 H 395.161 0.44006 -4.66027 0
M  V30 4092 H 395.334 0.357184 -6.47015 0
M  V30 4093 N 388.74 1.54641 0.303973 0
M  V30 4094 C 389.703 1.84646 1.35789 0
M  V30 4095 C 390.703 0.7192 1.4382 0
M  V30 4096 O 391.893 0.987491 1.43507 0
M  V30 4097 C 389.025 2.02407 2.74307 0
M  V30 4098 H 390.218 2.78829 1.10429 0
M  V30 4099 H 387.771 1.46658 0.540487 0
M  V30 4100 H 388.506 1.10502 3.04893 0
M  V30 4101 H 388.291 2.84453 2.69868 0
M  V30 4102 H 389.781 2.27002 3.50514 0
M  V30 4103 O 390.257 -0.449877 1.55108 0
M  V30 4104 H 390.948 -1.10376 1.59176 0
M  V30 END ATOM
M  V30 BEGIN BOND
M  V30 END BOND
M  V30 END CTAB
M  END
$$$$
