drugbank_target|P07203 Glutathione peroxidase 1 (DB00143; DB09061; DB14009; DB14011)
 OpenBabel12092119403D

  0  0  0     0  0            999 V3000
M  V30 BEGIN CTAB
M  V30 COUNTS 3088 3123 0 0 0
M  V30 BEGIN ATOM
M  V30 1 H -0.908 1.98254 -0.117106 0
M  V30 2 N 0 1.576 0 0
M  V30 3 C 0.933 2.03868 1.02534 0
M  V30 4 C 1.911 0.928543 1.3348 0
M  V30 5 O 3.095 1.19667 1.45644 0
M  V30 6 C 0.222 2.43627 2.35294 0
M  V30 7 C -0.732 3.65373 2.2001 0
M  V30 8 S 0.101 5.13292 1.52614 0
M  V30 9 C 1.257 5.56322 2.86805 0
M  V30 10 H 1.49 2.90518 0.631377 0
M  V30 11 H -0.977 1.52953 0.210867 0
M  V30 12 H 0.981 2.67203 3.11629 0
M  V30 13 H -0.358 1.57376 2.7183 0
M  V30 14 H -1.165 3.90944 3.18086 0
M  V30 15 H -1.563 3.418 1.51819 0
M  V30 16 H 0.729 5.58782 3.83104 0
M  V30 17 H 1.672 6.56266 2.65933 0
M  V30 18 H 2.08 4.83886 2.90714 0
M  V30 19 N 1.4781 -0.272755 1.55222 0
M  V30 20 C 2.7181 -1.01197 1.77591 0
M  V30 21 C 3.0821 -1.8349 0.565294 0
M  V30 22 O 4.2831 -2.60387 0.667242 0
M  V30 23 C 2.5541 -1.87096 3.04516 0
M  V30 24 S 4.1131 -2.67279 3.48004 0
M  V30 25 H 0.9311 -0.340836 0.62398 0
M  V30 26 H 3.5331 -0.282374 1.9345 0
M  V30 27 H 2.2371 -1.25565 3.90719 0
M  V30 28 H 1.7681 -2.64376 2.91323 0
M  V30 29 H 3.7831 -3.89593 3.07297 0
M  V30 30 N 2.9562 -1.48159 -0.537278 0
M  V30 31 C 3.9192 -1.61665 -1.62472 0
M  V30 32 C 4.9192 -0.490395 -1.5314 0
M  V30 33 O 6.1092 -0.755998 -1.5694 0
M  V30 34 C 3.2412 -1.57997 -3.02076 0
M  V30 35 H 4.4342 -2.58621 -1.51839 0
M  V30 36 H 1.9872 -1.36647 -0.758771 0
M  V30 37 H 2.7222 -0.624913 -3.18222 0
M  V30 38 H 2.5072 -2.39755 -3.10258 0
M  V30 39 H 3.9972 -1.70627 -3.81151 0
M  V30 40 N 4.4343 0.785586 -1.36625 0
M  V30 41 C 5.3973 1.87999 -1.31107 0
M  V30 42 C 6.3973 1.59316 -0.217959 0
M  V30 43 O 7.5873 1.67656 -0.472977 0
M  V30 44 C 4.7193 3.24861 -1.03334 0
M  V30 45 H 5.9123 1.94307 -2.2844 0
M  V30 46 H 3.4653 0.983813 -1.21453 0
M  V30 47 H 4.2003 3.24235 -0.0647432 0
M  V30 48 H 3.9853 3.4707 -1.82441 0
M  V30 49 H 5.4753 4.04929 -1.02088 0
M  V30 50 N 5.9124 1.20967 1.01018 0
M  V30 51 C 7.3284 0.965905 1.27053 0
M  V30 52 C 7.5284 -0.350785 1.98423 0
M  V30 53 O 6.5844 -1.07773 2.28344 0
M  V30 54 C 7.8974 2.15294 2.09926 0
M  V30 55 C 9.4454 2.19463 2.23171 0
M  V30 56 C 9.9204 3.3767 3.09424 0
M  V30 57 N 11.4114 3.37724 3.17012 0
M  V30 58 C 12.1464 4.25837 3.83993 0
M  V30 59 N 11.6424 5.24138 4.53047 0
M  V30 60 N 13.4354 4.1366 3.80581 0
M  V30 61 H 5.5864 2.0565 0.531194 0
M  V30 62 H 7.8494 0.90024 0.297106 0
M  V30 63 H 7.5554 3.10684 1.64828 0
M  V30 64 H 7.4294 2.13923 3.10672 0
M  V30 65 H 9.8164 1.24632 2.6749 0
M  V30 66 H 9.8974 2.2488 1.21912 0
M  V30 67 H 9.5414 4.32791 2.65808 0
M  V30 68 H 9.4714 3.29491 4.10784 0
M  V30 69 H 11.9624 2.6658 2.6785 0
M  V30 70 H 12.2754 5.87684 5.01844 0
M  V30 71 H 10.6204 5.28068 4.5185 0
M  V30 72 H 13.8114 3.36127 3.25785 0
M  V30 73 H 13.9844 4.82538 4.32505 0
M  V30 74 N 7.3905 -1.2043 1.01659 0
M  V30 75 C 8.3205 -2.25466 0.607226 0
M  V30 76 C 9.3015 -1.65853 -0.377716 0
M  V30 77 O 10.4865 -1.92409 -0.263149 0
M  V30 78 C 7.6165 -3.47256 -0.0552949 0
M  V30 79 C 6.5705 -4.19462 0.850632 0
M  V30 80 C 5.8965 -5.34673 0.0538859 0
M  V30 81 C 7.1965 -4.75603 2.15868 0
M  V30 82 H 8.8905 -2.59962 1.48526 0
M  V30 83 H 6.4365 -1.2496 0.715605 0
M  V30 84 H 8.3895 -4.19917 -0.353233 0
M  V30 85 H 7.1135 -3.11924 -0.968045 0
M  V30 86 H 5.7725 -3.48667 1.13257 0
M  V30 87 H 5.4205 -4.95585 -0.860514 0
M  V30 88 H 5.1205 -5.83913 0.657192 0
M  V30 89 H 6.6445 -6.10138 -0.237598 0
M  V30 90 H 8.0585 -5.40083 1.92311 0
M  V30 91 H 6.4555 -5.3528 2.71284 0
M  V30 92 H 7.5255 -3.94346 2.82169 0
M  V30 93 N 8.8686 -0.792821 -1.36206 0
M  V30 94 C 9.8316 -0.199459 -2.2833 0
M  V30 95 C 10.8316 0.605189 -1.48977 0
M  V30 96 O 12.0216 0.425685 -1.68919 0
M  V30 97 C 9.1536 0.723523 -3.33134 0
M  V30 98 H 10.3466 -1.01181 -2.82316 0
M  V30 99 H 7.8996 -0.562485 -1.45828 0
M  V30 100 H 8.6346 1.56008 -2.84309 0
M  V30 101 H 8.4196 0.148436 -3.91819 0
M  V30 102 H 9.9096 1.13344 -4.01924 0
M  V30 103 N 10.3467 1.47872 -0.545128 0
M  V30 104 C 11.3097 2.28337 0.198717 0
M  V30 105 C 12.3097 1.36255 0.853888 0
M  V30 106 O 13.4997 1.59003 0.711606 0
M  V30 107 C 10.6317 3.15585 1.28915 0
M  V30 108 H 11.8247 2.95567 -0.507941 0
M  V30 109 H 9.3777 1.53362 -0.301616 0
M  V30 110 H 10.1127 2.53019 2.02859 0
M  V30 111 H 9.8977 3.83337 0.824309 0
M  V30 112 H 11.3877 3.76243 1.81194 0
M  V30 113 N 11.8248 0.280983 1.55075 0
M  V30 114 C 12.7878 -0.590896 2.21452 0
M  V30 115 C 13.7878 -1.07682 1.19421 0
M  V30 116 O 14.9778 -0.97605 1.44288 0
M  V30 117 C 12.1098 -1.81587 2.88511 0
M  V30 118 H 13.3028 -0.0112554 2.99898 0
M  V30 119 H 10.8558 0.0316438 1.56268 0
M  V30 120 H 11.5908 -2.43587 2.14093 0
M  V30 121 H 11.3758 -1.4753 3.63287 0
M  V30 122 H 12.8658 -2.43575 3.39206 0
M  V30 123 N 13.3029 -1.57598 0.00835791 0
M  V30 124 C 14.2659 -2.07884 -0.965242 0
M  V30 125 C 15.2659 -0.989825 -1.26725 0
M  V30 126 O 16.4559 -1.25218 -1.21104 0
M  V30 127 C 13.5879 -2.52731 -2.28779 0
M  V30 128 H 14.7809 -2.95178 -0.530112 0
M  V30 129 H 12.3339 -1.54458 -0.239283 0
M  V30 130 H 13.0689 -1.68705 -2.76964 0
M  V30 131 H 12.8539 -3.32272 -2.08177 0
M  V30 132 H 14.3439 -2.91933 -2.98605 0
M  V30 133 N 14.781 0.264519 -1.55364 0
M  V30 134 C 15.744 1.31046 -1.88042 0
M  V30 135 C 16.744 1.41943 -0.755569 0
M  V30 136 O 17.934 1.40947 -1.02369 0
M  V30 137 C 15.066 2.69067 -2.09323 0
M  V30 138 H 16.259 1.03297 -2.81549 0
M  V30 139 H 13.812 0.502989 -1.47986 0
M  V30 140 H 14.547 3.01982 -1.18226 0
M  V30 141 H 14.332 2.62542 -2.91229 0
M  V30 142 H 15.822 3.44623 -2.35848 0
M  V30 143 N 16.2591 1.48442 0.529413 0
M  V30 144 C 17.2221 1.62524 1.61612 0
M  V30 145 C 18.2221 0.498509 1.52877 0
M  V30 146 O 19.4121 0.76431 1.56537 0
M  V30 147 C 16.5441 1.59597 3.01233 0
M  V30 148 H 17.7371 2.59423 1.50465 0
M  V30 149 H 15.2901 1.37047 0.751514 0
M  V30 150 H 16.0251 0.641781 3.17886 0
M  V30 151 H 15.8101 2.41397 3.08982 0
M  V30 152 H 17.3001 1.72646 3.80241 0
M  V30 153 N 17.7372 -0.778329 1.37039 0
M  V30 154 C 18.7002 -1.87301 1.32102 0
M  V30 155 C 19.7002 -1.59198 0.226405 0
M  V30 156 O 20.8902 -1.67403 0.481861 0
M  V30 157 C 18.0222 -3.24309 1.05055 0
M  V30 158 H 19.2152 -1.93093 2.29467 0
M  V30 159 H 16.7682 -0.977358 1.21973 0
M  V30 160 H 17.5032 -3.24196 0.0819373 0
M  V30 161 H 17.2882 -3.46098 1.84279 0
M  V30 162 H 18.7782 -4.04382 1.04234 0
M  V30 163 N 19.2153 -1.21501 -1.00376 0
M  V30 164 C 20.1473 -0.933174 -2.09343 0
M  V30 165 C 21.1603 0.0840896 -1.62583 0
M  V30 166 O 22.3493 -0.148563 -1.77881 0
M  V30 167 C 19.4493 -0.379869 -3.36764 0
M  V30 168 C 18.6223 -1.45176 -4.12605 0
M  V30 169 C 17.6813 -0.907476 -5.18316 0
M  V30 170 O 16.7073 -1.5912 -5.46507 0
M  V30 171 N 17.9093 0.276649 -5.7984 0
M  V30 172 H 20.6743 -1.87124 -2.34104 0
M  V30 173 H 18.2353 -1.12043 -1.16867 0
M  V30 174 H 20.2273 -0.00131488 -4.047 0
M  V30 175 H 18.7973 0.463048 -3.09151 0
M  V30 176 H 18.0173 -2.00411 -3.39454 0
M  V30 177 H 19.3053 -2.17328 -4.6005 0
M  V30 178 H 18.7033 0.849147 -5.59291 0
M  V30 179 H 17.2603 0.596702 -6.49063 0
M  V30 180 N 20.6934 1.19889 -1.02296 0
M  V30 181 C 21.9184 1.9393 -0.735237 0
M  V30 182 C 22.3434 1.74639 0.698782 0
M  V30 183 O 21.7014 1.04481 1.48167 0
M  V30 184 C 21.7494 3.43916 -1.08417 0
M  V30 185 O 20.8534 4.11917 -0.199446 0
M  V30 186 H 20.1944 0.605645 -0.272196 0
M  V30 187 H 22.7244 1.52137 -1.36804 0
M  V30 188 H 22.7344 3.9456 -1.03856 0
M  V30 189 H 21.4094 3.5728 -2.12894 0
M  V30 190 H 19.9864 3.71666 -0.303136 0
M  V30 191 N 22.1715 0.800033 1.35784 0
M  V30 192 C 23.4175 0.377901 1.99248 0
M  V30 193 C 23.7505 -1.05052 1.63333 0
M  V30 194 O 23.0255 -1.72768 0.893385 0
M  V30 195 C 23.3085 0.553922 3.55814 0
M  V30 196 C 23.1615 2.0268 4.01548 0
M  V30 197 C 24.4805 -0.0244802 4.40093 0
M  V30 198 H 21.5995 0.138782 0.723815 0
M  V30 199 H 24.2415 1.00835 1.61035 0
M  V30 200 H 22.3915 0.0172398 3.88496 0
M  V30 201 H 24.0635 2.62536 3.79305 0
M  V30 202 H 22.3065 2.5256 3.52698 0
M  V30 203 H 22.9775 2.10087 5.10458 0
M  V30 204 H 25.4535 0.433775 4.13833 0
M  V30 205 H 24.3295 0.128637 5.48749 0
M  V30 206 H 24.5905 -1.11758 4.27741 0
M  V30 207 N 23.6496 -1.47581 0.552962 0
M  V30 208 C 24.8796 -2.06575 0.0320091 0
M  V30 209 C 25.2876 -1.4067 -1.26525 0
M  V30 210 O 24.6306 -0.495808 -1.76883 0
M  V30 211 C 24.6926 -3.58705 -0.238913 0
M  V30 212 C 24.3566 -4.46625 0.968272 0
M  V30 213 C 25.3536 -4.85 1.87274 0
M  V30 214 C 23.0386 -4.88201 1.18175 0
M  V30 215 C 25.0326 -5.63745 2.9744 0
M  V30 216 C 22.7196 -5.66712 2.28651 0
M  V30 217 C 23.7176 -6.04394 3.18114 0
M  V30 218 O 23.4056 -6.81324 4.26676 0
M  V30 219 H 23.1376 -0.674763 0.0408689 0
M  V30 220 H 25.6916 -1.90634 0.764719 0
M  V30 221 H 23.9216 -3.72844 -1.02588 0
M  V30 222 H 25.6106 -3.99735 -0.704731 0
M  V30 223 H 26.3766 -4.53482 1.71984 0
M  V30 224 H 22.2556 -4.58339 0.494593 0
M  V30 225 H 25.7996 -5.93077 3.67296 0
M  V30 226 H 21.6966 -5.97642 2.43915 0
M  V30 227 H 22.4646 -6.99712 4.24671 0
M  V30 228 N 25.1277 -0.289203 -1.54924 0
M  V30 229 C 26.0907 0.579144 -2.21762 0
M  V30 230 C 27.0907 1.07047 -1.1999 0
M  V30 231 O 28.2807 0.968384 -1.44803 0
M  V30 232 C 25.4127 1.80055 -2.8947 0
M  V30 233 H 26.6057 -0.00464908 -2.999 0
M  V30 234 H 24.1587 -0.0399306 -1.56249 0
M  V30 235 H 24.8937 2.42449 -2.15381 0
M  V30 236 H 24.6787 1.45602 -3.64064 0
M  V30 237 H 26.1687 2.41773 -3.40493 0
M  V30 238 N 26.6058 1.57591 -0.0167156 0
M  V30 239 C 27.8528 1.91283 0.664597 0
M  V30 240 C 28.1808 0.891949 1.72842 0
M  V30 241 O 27.4358 -0.100931 1.9544 0
M  V30 242 C 27.7348 3.3172 1.33029 0
M  V30 243 C 27.4008 4.4914 0.398047 0
M  V30 244 C 26.0628 4.80992 0.141421 0
M  V30 245 C 28.4148 5.20634 -0.242825 0
M  V30 246 C 25.7428 5.81703 -0.764092 0
M  V30 247 C 28.0948 6.22311 -1.13632 0
M  V30 248 C 26.7588 6.52611 -1.40196 0
M  V30 249 H 26.0288 0.699956 0.243193 0
M  V30 250 H 28.6758 1.9135 -0.0758267 0
M  V30 251 H 26.9808 3.27856 2.14517 0
M  V30 252 H 28.6778 3.55055 1.86379 0
M  V30 253 H 25.2678 4.24262 0.608238 0
M  V30 254 H 29.4518 4.96267 -0.0576019 0
M  V30 255 H 24.7078 6.03532 -0.977732 0
M  V30 256 H 28.8818 6.76834 -1.63917 0
M  V30 257 H 26.5088 7.30467 -2.10529 0
M  V30 258 N 28.0839 -0.256276 1.55502 0
M  V30 259 C 29.3089 -1.00766 1.81276 0
M  V30 260 C 29.7339 -1.78524 0.59252 0
M  V30 261 O 29.0919 -1.75413 -0.45827 0
M  V30 262 C 29.1399 -1.92869 3.04687 0
M  V30 263 O 28.2439 -3.019 2.80945 0
M  V30 264 H 27.5849 -0.287224 0.598664 0
M  V30 265 H 30.1149 -0.280109 2.02674 0
M  V30 266 H 30.1249 -2.34511 3.33869 0
M  V30 267 H 28.7999 -1.35689 3.93143 0
M  V30 268 H 27.3769 -2.64454 2.62904 0
M  V30 269 N 29.562 -1.4872 -0.521534 0
M  V30 270 C 30.525 -1.63379 -1.60748 0
M  V30 271 C 31.525 -0.50661 -1.52611 0
M  V30 272 O 32.715 -0.772601 -1.5613 0
M  V30 273 C 29.847 -1.61192 -3.00383 0
M  V30 274 H 31.04 -2.60217 -1.49087 0
M  V30 275 H 28.593 -1.37444 -0.744235 0
M  V30 276 H 29.328 -0.65863 -3.17541 0
M  V30 277 H 29.113 -2.43032 -3.07698 0
M  V30 278 H 30.603 -1.7466 -3.7932 0
M  V30 279 N 31.0401 0.771051 -1.3745 0
M  V30 280 C 32.4561 1.07171 -1.18265 0
M  V30 281 C 32.6561 2.01491 -0.019287 0
M  V30 282 O 31.7121 2.44244 0.640408 0
M  V30 283 C 33.0251 1.66854 -2.50161 0
M  V30 284 C 34.5731 1.79109 -2.56689 0
M  V30 285 C 35.0481 2.42205 -3.88717 0
M  V30 286 N 36.5391 2.49655 -3.90162 0
M  V30 287 C 37.2741 2.9933 -4.8907 0
M  V30 288 N 36.7701 3.49172 -5.98374 0
M  V30 289 N 38.5631 2.9821 -4.76474 0
M  V30 290 H 30.7141 0.144796 -2.11906 0
M  V30 291 H 32.9771 0.126863 -0.939473 0
M  V30 292 H 32.6831 1.05017 -3.35655 0
M  V30 293 H 32.5571 2.6614 -2.673 0
M  V30 294 H 34.9441 2.40077 -1.71601 0
M  V30 295 H 35.0251 0.785757 -2.43433 0
M  V30 296 H 34.6691 1.81875 -4.74219 0
M  V30 297 H 34.5991 3.43345 -3.99276 0
M  V30 298 H 37.0901 2.14383 -3.11205 0
M  V30 299 H 37.4031 3.8548 -6.69795 0
M  V30 300 H 35.7481 3.47275 -6.02018 0
M  V30 301 H 38.9391 2.58572 -3.90203 0
M  V30 302 H 39.1121 3.36613 -5.53711 0
M  V30 303 N 32.5182 1.22032 0.997298 0
M  V30 304 C 33.9292 1.0397 1.55071 0
M  V30 305 C 34.2802 -0.398192 1.92117 0
M  V30 306 O 33.4052 -1.28254 1.74298 0
M  V30 307 C 34.0002 1.88109 2.81781 0
M  V30 308 C 32.5592 1.74357 3.33581 0
M  V30 309 C 31.7062 1.84846 2.06706 0
M  V30 310 H 34.6572 1.35941 0.818883 0
M  V30 311 H 34.6782 1.39589 3.53971 0
M  V30 312 H 34.1902 2.92754 2.54787 0
M  V30 313 H 32.2912 0.72427 3.65493 0
M  V30 314 H 32.4042 2.56772 4.04481 0
M  V30 315 H 30.7682 1.28238 2.20062 0
M  V30 316 H 31.5512 2.91014 1.82114 0
M  V30 317 N 33.9963 -1.19345 1.0293 0
M  V30 318 C 34.9263 -2.2481 0.631105 0
M  V30 319 C 35.9073 -1.66245 -0.360104 0
M  V30 320 O 37.0923 -1.92677 -0.242726 0
M  V30 321 C 34.2223 -3.47295 -0.0184607 0
M  V30 322 C 33.1763 -4.18536 0.895073 0
M  V30 323 C 32.5023 -5.34586 0.110592 0
M  V30 324 C 33.8023 -4.73287 2.209 0
M  V30 325 H 35.4963 -2.58372 1.51275 0
M  V30 326 H 33.0423 -1.24194 0.728818 0
M  V30 327 H 34.9953 -4.20268 -0.308675 0
M  V30 328 H 33.7193 -3.12933 -0.934907 0
M  V30 329 H 32.3783 -3.47446 1.16949 0
M  V30 330 H 32.0263 -4.96469 -0.807902 0
M  V30 331 H 31.7263 -5.83183 0.719087 0
M  V30 332 H 33.2503 -6.10355 -0.172871 0
M  V30 333 H 34.6643 -5.38013 1.98028 0
M  V30 334 H 33.0613 -5.32373 2.76946 0
M  V30 335 H 34.1313 -3.91331 2.86336 0
M  V30 336 N 35.4744 -0.807222 -1.35358 0
M  V30 337 C 36.4374 -0.223665 -2.28106 0
M  V30 338 C 37.4374 0.589354 -1.4961 0
M  V30 339 O 38.6274 0.407745 -1.69361 0
M  V30 340 C 35.7594 0.688149 -3.33882 0
M  V30 341 H 36.9524 -1.04169 -2.81227 0
M  V30 342 H 34.5054 -0.577921 -1.45223 0
M  V30 343 H 35.2404 1.52984 -2.85948 0
M  V30 344 H 35.0254 0.10687 -3.91954 0
M  V30 345 H 36.5154 1.09075 -4.03104 0
M  V30 346 N 36.9525 1.47285 -0.560781 0
M  V30 347 C 38.2005 2.02064 -0.0379868 0
M  V30 348 C 38.5215 1.43711 1.31803 0
M  V30 349 O 37.7915 0.61362 1.86042 0
M  V30 350 H 36.3715 0.746918 -0.0110531 0
M  V30 351 H 39.0335 1.80648 -0.731598 0
M  V30 352 H 38.1295 3.12064 0.0474463 0
M  V30 353 N 38.4306 0.297415 1.54768 0
M  V30 354 C 39.6786 -0.312295 1.99673 0
M  V30 355 C 39.9996 -1.54686 1.18732 0
M  V30 356 O 39.2696 -1.93854 0.282382 0
M  V30 357 H 37.8496 -0.118381 0.73756 0
M  V30 358 H 40.5116 0.407915 1.90583 0
M  V30 359 H 39.6076 -0.586813 3.06534 0
M  V30 360 N 39.9087 -1.5758 0.0250728 0
M  V30 361 C 40.8187 -2.1343 -0.973905 0
M  V30 362 C 41.8347 -1.08556 -1.35984 0
M  V30 363 O 43.0107 -1.40592 -1.44207 0
M  V30 364 C 40.0757 -2.64703 -2.23904 0
M  V30 365 C 39.1367 -3.84276 -1.91391 0
M  V30 366 C 38.3697 -4.33095 -3.11873 0
M  V30 367 O 38.5927 -3.81107 -4.24398 0
M  V30 368 O 37.5267 -5.24984 -2.94406 0
M  V30 369 H 41.3527 -2.99057 -0.529036 0
M  V30 370 H 38.9377 -1.48118 -0.195288 0
M  V30 371 H 40.8197 -2.97769 -2.98181 0
M  V30 372 H 39.4947 -1.82161 -2.6758 0
M  V30 373 H 38.4017 -3.56143 -1.14511 0
M  V30 374 H 39.7347 -4.67968 -1.52534 0
M  V30 375 N 41.3868 0.248026 -1.55636 0
M  V30 376 C 42.7978 0.817177 -1.67866 0
M  V30 377 C 43.1488 1.86069 -0.622322 0
M  V30 378 O 42.2738 2.15157 0.231618 0
M  V30 379 C 42.8688 1.489 -3.04326 0
M  V30 380 C 41.4278 2.00587 -3.185 0
M  V30 381 C 40.5748 0.856573 -2.63739 0
M  V30 382 H 43.5258 0.0238579 -1.58682 0
M  V30 383 H 43.5468 2.35698 -2.98708 0
M  V30 384 H 43.0588 0.729279 -3.81186 0
M  V30 385 H 41.1598 2.79443 -2.4646 0
M  V30 386 H 41.2728 2.20402 -4.25393 0
M  V30 387 H 39.6368 1.25678 -2.21534 0
M  V30 388 H 40.4198 0.109953 -3.43124 0
M  V30 389 N 42.8649 1.48995 0.513639 0
M  V30 390 C 44.1109 1.58076 1.27042 0
M  V30 391 C 44.4439 0.261026 1.92438 0
M  V30 392 O 43.7189 -0.734393 1.80103 0
M  V30 393 C 44.0019 2.73091 2.34719 0
M  V30 394 C 43.8549 4.14821 1.73907 0
M  V30 395 C 45.1739 2.83796 3.36375 0
M  V30 396 H 42.2929 0.575391 0.460536 0
M  V30 397 H 44.9349 1.81232 0.570516 0
M  V30 398 H 43.0849 2.53479 2.94416 0
M  V30 399 H 44.7569 4.45917 1.18135 0
M  V30 400 H 42.9999 4.21058 1.0437 0
M  V30 401 H 43.6709 4.91147 2.51949 0
M  V30 402 H 46.1469 3.01611 2.86653 0
M  V30 403 H 45.0229 3.65971 4.09093 0
M  V30 404 H 45.2839 1.92624 3.9793 0
M  V30 405 N 44.343 -0.763751 1.37857 0
M  V30 406 C 45.568 -1.55805 1.36893 0
M  V30 407 C 45.993 -1.88054 -0.0416135 0
M  V30 408 O 45.351 -1.49825 -1.02089 0
M  V30 409 C 45.399 -2.84012 2.22192 0
M  V30 410 O 44.503 -3.78732 1.63204 0
M  V30 411 H 43.844 -0.471638 0.46739 0
M  V30 412 H 46.374 -0.944657 1.81487 0
M  V30 413 H 46.384 -3.33037 2.35691 0
M  V30 414 H 45.059 -2.59869 3.24716 0
M  V30 415 H 43.636 -3.37402 1.58791 0
M  V30 416 N 45.8211 -1.22559 -0.990812 0
M  V30 417 C 46.7511 -1.0218 -2.09956 0
M  V30 418 C 47.7321 0.0579394 -1.70001 0
M  V30 419 O 48.9171 -0.104684 -1.93918 0
M  V30 420 C 46.0471 -0.601023 -3.4206 0
M  V30 421 C 45.0011 -1.62694 -3.95872 0
M  V30 422 C 44.3271 -1.06193 -5.24049 0
M  V30 423 C 45.6271 -3.01743 -4.2632 0
M  V30 424 H 47.3211 -1.94916 -2.27262 0
M  V30 425 H 44.8671 -0.938566 -1.09211 0
M  V30 426 H 46.8201 -0.445561 -4.19038 0
M  V30 427 H 45.5441 0.362005 -3.24588 0
M  V30 428 H 44.2031 -1.77021 -3.21028 0
M  V30 429 H 43.8511 -0.0901903 -5.02919 0
M  V30 430 H 43.5511 -1.74732 -5.61019 0
M  V30 431 H 45.0751 -0.918092 -6.03658 0
M  V30 432 H 46.4891 -2.90777 -4.94087 0
M  V30 433 H 44.8861 -3.67425 -4.74467 0
M  V30 434 H 45.9561 -3.51518 -3.34011 0
M  V30 435 N 47.2992 1.18797 -1.03562 0
M  V30 436 C 48.5472 1.88278 -0.734569 0
M  V30 437 C 48.8682 1.8043 0.739586 0
M  V30 438 O 48.1382 1.21925 1.53333 0
M  V30 439 H 46.7182 0.696991 -0.268725 0
M  V30 440 H 49.3802 1.44192 -1.31129 0
M  V30 441 H 48.4762 2.94443 -1.03489 0
M  V30 442 N 48.7773 0.814389 1.34928 0
M  V30 443 C 50.0023 0.410097 2.03305 0
M  V30 444 C 50.4273 -0.973464 1.60951 0
M  V30 445 O 49.7853 -1.63185 0.789964 0
M  V30 446 C 49.8333 0.51049 3.56968 0
M  V30 447 O 48.9373 -0.473035 4.09678 0
M  V30 448 H 48.2783 0.170088 0.641846 0
M  V30 449 H 50.8083 1.10244 1.72358 0
M  V30 450 H 50.8183 0.383135 4.06197 0
M  V30 451 H 49.4933 1.51963 3.87144 0
M  V30 452 H 48.0703 -0.305272 3.71648 0
M  V30 453 N 50.2554 -1.46986 0.568584 0
M  V30 454 C 51.1854 -2.32946 -0.160753 0
M  V30 455 C 52.1664 -1.44487 -0.897631 0
M  V30 456 O 53.3514 -1.73327 -0.875867 0
M  V30 457 C 50.4814 -3.26494 -1.18403 0
M  V30 458 C 49.4354 -4.24282 -0.562895 0
M  V30 459 C 48.7614 -5.07236 -1.69163 0
M  V30 460 C 50.0614 -5.19989 0.490761 0
M  V30 461 H 51.7554 -2.94175 0.556916 0
M  V30 462 H 49.3014 -1.4146 0.26927 0
M  V30 463 H 51.2544 -3.85477 -1.70251 0
M  V30 464 H 49.9784 -2.63343 -1.93179 0
M  V30 465 H 48.6374 -3.66541 -0.0656164 0
M  V30 466 H 48.2854 -4.4048 -2.42871 0
M  V30 467 H 47.9854 -5.7345 -1.28174 0
M  V30 468 H 49.5094 -5.6908 -2.21314 0
M  V30 469 H 50.9234 -5.73271 0.0579047 0
M  V30 470 H 49.3204 -5.94469 0.820165 0
M  V30 471 H 50.3904 -4.64777 1.3824 0
M  V30 472 N 51.7335 -0.305618 -1.54608 0
M  V30 473 C 53.1495 0.0476228 -1.59529 0
M  V30 474 C 53.3495 1.52025 -1.32252 0
M  V30 475 O 52.4055 2.27368 -1.09818 0
M  V30 476 C 53.7185 -0.354471 -2.98603 0
M  V30 477 C 55.2665 -0.303622 -3.11524 0
M  V30 478 C 55.7415 -0.680608 -4.52915 0
M  V30 479 N 57.2325 -0.63332 -4.5885 0
M  V30 480 C 57.9675 -0.897432 -5.66334 0
M  V30 481 N 57.4635 -1.22775 -6.81834 0
M  V30 482 N 59.2565 -0.824186 -5.56025 0
M  V30 483 H 51.4075 -1.2653 -1.70599 0
M  V30 484 H 53.6705 -0.513291 -0.797017 0
M  V30 485 H 53.3765 -1.3798 -3.23503 0
M  V30 486 H 53.2505 0.289568 -3.76087 0
M  V30 487 H 55.6375 0.712472 -2.8637 0
M  V30 488 H 55.7185 -0.982348 -2.36185 0
M  V30 489 H 55.3625 -1.69453 -4.78799 0
M  V30 490 H 55.2925 0.0202385 -5.26596 0
M  V30 491 H 57.7835 -0.389138 -3.75891 0
M  V30 492 H 58.0965 -1.41513 -7.59733 0
M  V30 493 H 56.4415 -1.26583 -6.83375 0
M  V30 494 H 59.6325 -0.565748 -4.64669 0
M  V30 495 H 59.8055 -1.03338 -6.39707 0
M  V30 496 N 53.2116 1.57565 -0.0334293 0
M  V30 497 C 54.4596 1.91598 0.642999 0
M  V30 498 C 54.7806 0.910847 1.7242 0
M  V30 499 O 54.0506 -0.0469931 1.95844 0
M  V30 500 H 52.6306 0.707228 0.240496 0
M  V30 501 H 55.2926 1.94726 -0.0822488 0
M  V30 502 H 54.3886 2.92336 1.09298 0
M  V30 503 N 54.6897 -0.239769 1.55765 0
M  V30 504 C 55.6367 -1.29696 1.90913 0
M  V30 505 C 56.6067 -1.47478 0.764164 0
M  V30 506 O 57.7917 -1.61345 1.01845 0
M  V30 507 C 54.9317 -2.64598 2.21544 0
M  V30 508 C 54.0447 -2.54765 3.48882 0
M  V30 509 C 53.1797 -3.82069 3.69049 0
M  V30 510 C 52.2187 -3.66883 4.89963 0
M  V30 511 N 51.3557 -4.86094 5.06614 0
M  V30 512 H 56.1957 -0.990224 2.81067 0
M  V30 513 H 53.7327 -0.477684 1.39128 0
M  V30 514 H 55.6907 -3.43132 2.3731 0
M  V30 515 H 54.3207 -2.93405 1.34585 0
M  V30 516 H 53.3727 -1.67763 3.41409 0
M  V30 517 H 54.6847 -2.39457 4.37563 0
M  V30 518 H 53.8387 -4.69046 3.84812 0
M  V30 519 H 52.5777 -4.00282 2.78614 0
M  V30 520 H 51.5827 -2.78289 4.74168 0
M  V30 521 H 52.8077 -3.50157 5.81865 0
M  V30 522 H 50.7537 -5.04655 4.19117 0
M  V30 523 H 50.6707 -4.73443 5.89396 0
M  V30 524 H 51.9387 -5.74549 5.26795 0
M  V30 525 N 56.1678 -1.49265 -0.50573 0
M  V30 526 C 57.4138 -1.58748 -1.26202 0
M  V30 527 C 57.7468 -0.271227 -1.92297 0
M  V30 528 O 57.0218 0.724831 -1.80489 0
M  V30 529 C 57.3048 -2.74332 -2.33268 0
M  V30 530 C 57.1578 -4.15737 -1.71705 0
M  V30 531 C 58.4768 -2.85576 -3.34865 0
M  V30 532 H 55.5958 -0.577826 -0.457478 0
M  V30 533 H 58.2378 -1.81532 -0.560897 0
M  V30 534 H 56.3878 -2.55036 -2.93068 0
M  V30 535 H 58.0598 -4.46537 -1.15769 0
M  V30 536 H 56.3028 -4.21605 -1.02135 0
M  V30 537 H 56.9738 -4.92477 -2.49341 0
M  V30 538 H 59.4498 -3.03127 -2.8505 0
M  V30 539 H 58.3258 -3.68135 -4.07146 0
M  V30 540 H 58.5868 -1.94732 -3.96903 0
M  V30 541 N 57.6459 0.756429 -1.3826 0
M  V30 542 C 58.5759 1.88374 -1.37976 0
M  V30 543 C 59.5569 1.68311 -0.246082 0
M  V30 544 O 60.7419 1.88944 -0.44874 0
M  V30 545 C 57.8719 3.25864 -1.20125 0
M  V30 546 C 56.8259 3.60523 -2.30666 0
M  V30 547 C 56.1519 4.9672 -1.97923 0
M  V30 548 C 57.4519 3.65692 -3.72916 0
M  V30 549 H 59.1459 1.88869 -2.32312 0
M  V30 550 H 56.6919 0.907272 -1.11824 0
M  V30 551 H 58.6449 4.0438 -1.18552 0
M  V30 552 H 57.3689 3.25841 -0.222498 0
M  V30 553 H 56.0279 2.84324 -2.3142 0
M  V30 554 H 55.6759 4.93253 -0.985393 0
M  V30 555 H 55.3759 5.20878 -2.71955 0
M  V30 556 H 56.8999 5.77618 -1.97964 0
M  V30 557 H 58.3139 4.34328 -3.74208 0
M  V30 558 H 56.7109 4.01358 -4.4613 0
M  V30 559 H 57.7809 2.65987 -4.05436 0
M  V30 560 N 59.124 1.23083 0.984299 0
M  V30 561 C 60.054 1.03292 2.09411 0
M  V30 562 C 61.035 -0.048923 1.7003 0
M  V30 563 O 62.22 0.114967 1.93859 0
M  V30 564 C 59.35 0.619155 3.41736 0
M  V30 565 C 58.304 1.64791 3.95004 0
M  V30 566 C 57.63 1.0897 5.23478 0
M  V30 567 C 58.93 3.03999 4.24714 0
M  V30 568 H 60.624 1.96119 2.26225 0
M  V30 569 H 58.17 0.944344 1.08711 0
M  V30 570 H 60.123 0.467777 4.18796 0
M  V30 571 H 58.847 -0.344786 3.24775 0
M  V30 572 H 57.506 1.78721 3.20085 0
M  V30 573 H 57.154 0.11686 5.02864 0
M  V30 574 H 56.854 1.77704 5.60085 0
M  V30 575 H 58.378 0.950093 6.03163 0
M  V30 576 H 59.792 2.93393 4.92538 0
M  V30 577 H 58.189 3.69936 4.72512 0
M  V30 578 H 59.259 3.53285 3.32142 0
M  V30 579 N 60.6021 -1.18246 1.0419 0
M  V30 580 C 61.8511 -1.87588 0.741194 0
M  V30 581 C 62.1641 -1.81303 -0.734066 0
M  V30 582 O 63.3701 -2.46019 -1.14834 0
M  V30 583 C 61.8261 -3.36538 1.27555 0
M  V30 584 C 61.4341 -3.51349 2.77953 0
M  V30 585 C 63.1781 -4.11273 1.05143 0
M  V30 586 C 61.0851 -4.94265 3.2474 0
M  V30 587 H 60.0151 -0.702622 0.273565 0
M  V30 588 H 62.6661 -1.33601 1.25789 0
M  V30 589 H 61.0481 -3.9 0.686703 0
M  V30 590 H 62.2221 -3.08153 3.42605 0
M  V30 591 H 60.5371 -2.90022 2.98791 0
M  V30 592 H 63.1341 -5.16689 1.37611 0
M  V30 593 H 63.4771 -4.16298 -0.0112774 0
M  V30 594 H 64.0101 -3.63987 1.60495 0
M  V30 595 H 60.7491 -4.94408 4.30396 0
M  V30 596 H 60.2691 -5.38172 2.64823 0
M  V30 597 H 61.9481 -5.62987 3.18834 0
M  V30 598 N 62.0802 -0.821533 -1.34494 0
M  V30 599 C 62.9902 -0.244355 -2.33324 0
M  V30 600 C 64.0062 0.620527 -1.62559 0
M  V30 601 O 65.1822 0.528754 -1.94335 0
M  V30 602 C 62.2472 0.585368 -3.41723 0
M  V30 603 C 61.3082 -0.301752 -4.28238 0
M  V30 604 C 60.5412 0.488466 -5.3146 0
M  V30 605 O 60.7642 1.72186 -5.4379 0
M  V30 606 O 59.6982 -0.12848 -6.01763 0
M  V30 607 H 63.5242 -1.06231 -2.84515 0
M  V30 608 H 61.1092 -0.583645 -1.37528 0
M  V30 609 H 62.9912 1.05747 -4.07916 0
M  V30 610 H 61.6662 1.38068 -2.92778 0
M  V30 611 H 60.5732 -0.821315 -3.64973 0
M  V30 612 H 61.9062 -1.06138 -4.8062 0
M  V30 613 N 63.5583 1.46682 -0.576371 0
M  V30 614 C 64.5063 2.31953 0.17335 0
M  V30 615 C 65.5003 1.44098 0.89062 0
M  V30 616 O 66.7063 1.60759 0.809728 0
M  V30 617 H 63.0813 0.748273 0.0747727 0
M  V30 618 H 65.0523 2.93007 -0.564738 0
M  V30 619 C 63.8013 3.27142 1.17786 0
M  V30 620 H 63.1243 3.94719 0.635361 0
M  V30 621 H 64.5643 3.896 1.67296 0
M  V30 622 C 63.0233 2.52036 2.23561 0
M  V30 623 O 63.5533 2.27877 3.3081 0
M  V30 624 N 61.7593 2.12709 1.97998 0
M  V30 625 H 61.3063 2.32557 1.10792 0
M  V30 626 H 61.2643 1.62776 2.68982 0
M  V30 627 N 65.0364 0.313813 1.54444 0
M  V30 628 C 66.2824 -0.292108 2.00685 0
M  V30 629 C 66.6154 -1.52548 1.20177 0
M  V30 630 O 65.8904 -1.92452 0.281531 0
M  V30 631 C 66.1734 -0.635968 3.5444 0
M  V30 632 C 66.0264 0.607437 4.4568 0
M  V30 633 C 67.3454 -1.45747 4.15266 0
M  V30 634 H 64.4644 -0.104697 0.729526 0
M  V30 635 H 67.1064 0.428457 1.85106 0
M  V30 636 H 65.2564 -1.24986 3.67846 0
M  V30 637 H 66.9284 1.24581 4.44159 0
M  V30 638 H 65.1714 1.23822 4.15753 0
M  V30 639 H 65.8424 0.322515 5.51057 0
M  V30 640 H 68.3184 -0.938645 4.05375 0
M  V30 641 H 67.1944 -1.66683 5.2298 0
M  V30 642 H 67.4554 -2.45063 3.67963 0
M  V30 643 N 66.5145 -1.57545 0.0417849 0
M  V30 644 C 67.4775 -2.09885 -0.92093 0
M  V30 645 C 68.4775 -1.01648 -1.24596 0
M  V30 646 O 69.6675 -1.27759 -1.1842 0
M  V30 647 C 66.7995 -2.57527 -2.23367 0
M  V30 648 H 67.9925 -2.96236 -0.467382 0
M  V30 649 H 65.5455 -1.5493 -0.206467 0
M  V30 650 H 66.2805 -1.74542 -2.73323 0
M  V30 651 H 66.0655 -3.36613 -2.01083 0
M  V30 652 H 67.5555 -2.98201 -2.92346 0
M  V30 653 N 67.9926 0.231505 -1.5589 0
M  V30 654 C 69.2176 0.978689 -1.82856 0
M  V30 655 C 69.6426 1.77559 -0.620846 0
M  V30 656 O 69.0006 1.76119 0.430305 0
M  V30 657 C 69.0486 1.87997 -3.07716 0
M  V30 658 O 68.1526 2.97393 -2.85712 0
M  V30 659 H 67.4936 0.277663 -0.603158 0
M  V30 660 H 70.0236 0.24783 -2.03093 0
M  V30 661 H 70.0336 2.2917 -3.37558 0
M  V30 662 H 68.7086 1.29417 -3.95252 0
M  V30 663 H 67.2856 2.60238 -2.67078 0
M  V30 664 N 69.4707 1.49531 0.497807 0
M  V30 665 C 70.4007 1.6935 1.60757 0
M  V30 666 C 71.3817 0.542218 1.61227 0
M  V30 667 O 72.5667 0.778417 1.77917 0
M  V30 668 C 69.6967 1.76298 2.99226 0
M  V30 669 C 68.6507 2.91248 3.13622 0
M  V30 670 C 67.9767 2.83312 4.53474 0
M  V30 671 C 69.2767 4.3214 2.93346 0
M  V30 672 H 70.9707 2.62263 1.44425 0
M  V30 673 H 68.5167 1.26208 0.693367 0
M  V30 674 H 70.4697 1.88749 3.76765 0
M  V30 675 H 69.1937 0.799871 3.16654 0
M  V30 676 H 67.8527 2.78404 2.38509 0
M  V30 677 H 67.5007 1.84902 4.67782 0
M  V30 678 H 67.2007 3.60465 4.64046 0
M  V30 679 H 68.7247 2.97775 5.33069 0
M  V30 680 H 70.1387 4.45649 3.60652 0
M  V30 681 H 68.5357 5.1054 3.15387 0
M  V30 682 H 69.6057 4.46363 1.89441 0
M  V30 683 N 70.9488 -0.749086 1.3866 0
M  V30 684 C 72.1888 -1.52112 1.36534 0
M  V30 685 C 72.5528 -1.91951 -0.0432316 0
M  V30 686 O 73.7538 -2.68132 -0.189396 0
M  V30 687 C 72.0248 -2.73704 2.29828 0
M  V30 688 Se 73.5838 -3.63519 2.45763 0
M  V30 689 H 70.4018 -0.520482 0.484375 0
M  V30 690 H 73.0038 -0.878963 1.74627 0
M  V30 691 H 71.7078 -2.42552 3.31054 0
M  V30 692 H 71.2388 -3.4286 1.929 0
M  V30 693 H 73.2538 -4.66712 1.68505 0
M  V30 694 N 72.4269 -1.23603 -0.977757 0
M  V30 695 C 73.6749 -1.06759 -1.71601 0
M  V30 696 C 73.9959 0.395929 -1.90938 0
M  V30 697 O 73.2659 1.28356 -1.47992 0
M  V30 698 H 71.8459 -0.392062 -0.635843 0
M  V30 699 H 74.5079 -1.55362 -1.1768 0
M  V30 700 H 73.6039 -1.55763 -2.70452 0
M  V30 701 N 73.905 1.17692 -1.04816 0
M  V30 702 C 75.133 1.91786 -0.776254 0
M  V30 703 C 75.548 1.76604 0.667577 0
M  V30 704 O 74.905 1.10067 1.45573 0
M  V30 705 C 74.956 3.42967 -1.14263 0
M  V30 706 O 74.677 3.57678 -2.52978 0
M  V30 707 C 76.178 4.34144 -0.896311 0
M  V30 708 H 73.398 0.608624 -0.282519 0
M  V30 709 H 75.942 1.49268 -1.39783 0
M  V30 710 H 74.097 3.83245 -0.565874 0
M  V30 711 H 74.511 4.51319 -2.67229 0
M  V30 712 H 75.985 5.38744 -1.20244 0
M  V30 713 H 76.462 4.38876 0.168636 0
M  V30 714 H 77.068 3.99574 -1.45672 0
M  V30 715 N 75.3831 0.828654 1.34056 0
M  V30 716 C 76.6111 0.43262 2.02326 0
M  V30 717 C 77.0261 -0.963147 1.62385 0
M  V30 718 O 76.3831 -1.62425 0.832121 0
M  V30 719 C 76.4341 0.53182 3.57567 0
M  V30 720 O 76.1551 1.87258 3.96063 0
M  V30 721 C 77.6561 0.131422 4.43105 0
M  V30 722 H 74.8761 0.172923 0.648335 0
M  V30 723 H 77.4201 1.1184 1.71208 0
M  V30 724 H 75.5751 -0.105938 3.87255 0
M  V30 725 H 75.9891 1.85087 4.90758 0
M  V30 726 H 77.4631 0.251904 5.51425 0
M  V30 727 H 77.9401 -0.925645 4.29335 0
M  V30 728 H 78.5461 0.743207 4.18756 0
M  V30 729 N 76.8612 -1.46375 0.584142 0
M  V30 730 C 78.1072 -2.02678 0.0703716 0
M  V30 731 C 78.4402 -1.4545 -1.28678 0
M  V30 732 O 77.7152 -0.62014 -1.84349 0
M  V30 733 C 77.9982 -3.60099 0.00614674 0
M  V30 734 C 77.8512 -4.27709 1.3923 0
M  V30 735 C 79.1702 -4.34598 -0.693742 0
M  V30 736 H 76.2892 -0.736504 0.027047 0
M  V30 737 H 78.9312 -1.74501 0.751615 0
M  V30 738 H 77.0812 -3.84236 -0.574009 0
M  V30 739 H 78.7532 -4.14832 2.01773 0
M  V30 740 H 76.9962 -3.87016 1.95962 0
M  V30 741 H 77.6672 -5.36478 1.29982 0
M  V30 742 H 80.1432 -4.15615 -0.200869 0
M  V30 743 H 79.0192 -5.44318 -0.707714 0
M  V30 744 H 79.2802 -4.05759 -1.75533 0
M  V30 745 N 78.3393 -0.321999 -1.54275 0
M  V30 746 C 79.7553 0.0306999 -1.5957 0
M  V30 747 C 79.9553 1.50614 -1.33857 0
M  V30 748 O 79.0113 2.2619 -1.12223 0
M  V30 749 C 80.3243 -0.386122 -2.98211 0
M  V30 750 C 81.8723 -0.336647 -3.11184 0
M  V30 751 C 82.3473 -0.728607 -4.52167 0
M  V30 752 N 83.8383 -0.681952 -4.58152 0
M  V30 753 C 84.5733 -0.957449 -5.6535 0
M  V30 754 N 84.0693 -1.3 -6.80494 0
M  V30 755 N 85.8623 -0.883113 -5.55119 0
M  V30 756 H 78.0133 -1.28332 -1.69247 0
M  V30 757 H 80.2763 -0.521716 -0.791528 0
M  V30 758 H 79.9823 -1.41404 -3.22022 0
M  V30 759 H 79.8563 0.249662 -3.76373 0
M  V30 760 H 82.2433 0.682058 -2.8711 0
M  V30 761 H 82.3243 -1.00734 -2.3513 0
M  V30 762 H 81.9683 -1.74522 -4.76974 0
M  V30 763 H 81.8983 -0.0356152 -5.26588 0
M  V30 764 H 84.3893 -0.428985 -3.75457 0
M  V30 765 H 84.7023 -1.49563 -7.58189 0
M  V30 766 H 83.0473 -1.33824 -6.81994 0
M  V30 767 H 86.2383 -0.615001 -4.64042 0
M  V30 768 H 86.4113 -1.10118 -6.38575 0
M  V30 769 N 79.8174 1.5752 -0.0501392 0
M  V30 770 C 81.0944 1.83996 0.663685 0
M  V30 771 C 81.4744 0.938339 1.89099 0
M  V30 772 O 80.8224 -0.00087759 2.285 0
M  V30 773 C 81.0324 3.33702 1.02196 0
M  V30 774 C 82.3804 4.00691 1.40469 0
M  V30 775 O 83.4044 3.38321 1.11433 0
M  V30 776 O 82.2634 5.10658 1.94654 0
M  V30 777 H 79.3574 0.759385 0.32751 0
M  V30 778 H 81.9034 1.69514 -0.0794238 0
M  V30 779 H 80.6754 3.91015 0.149364 0
M  V30 780 H 80.2984 3.53368 1.82255 0
M  V30 781 N 81.2955 -0.223234 1.56011 0
M  V30 782 C 82.5255 -0.963413 1.82762 0
M  V30 783 C 82.9335 -1.78516 0.626804 0
M  V30 784 O 82.2765 -1.78974 -0.414014 0
M  V30 785 C 82.3385 -1.93126 3.0322 0
M  V30 786 C 82.0025 -1.2942 4.38291 0
M  V30 787 C 82.9995 -0.684916 5.15369 0
M  V30 788 C 80.6845 -1.30647 4.85012 0
M  V30 789 C 82.6785 -0.0963971 6.37327 0
M  V30 790 C 80.3655 -0.71411 6.06913 0
M  V30 791 C 81.3635 -0.110123 6.82911 0
M  V30 792 O 81.0515 0.47303 8.02507 0
M  V30 793 H 80.7835 -0.288011 0.611576 0
M  V30 794 H 83.3375 -0.244103 2.03944 0
M  V30 795 H 81.5675 -2.68952 2.77852 0
M  V30 796 H 83.2565 -2.53685 3.16857 0
M  V30 797 H 84.0225 -0.667774 4.80381 0
M  V30 798 H 79.9015 -1.76598 4.25833 0
M  V30 799 H 83.4455 0.375657 6.96588 0
M  V30 800 H 79.3425 -0.728659 6.41374 0
M  V30 801 H 80.1105 0.367186 8.17676 0
M  V30 802 N 82.7736 -1.49793 -0.48987 0
M  V30 803 C 84.0016 -1.63568 -1.26701 0
M  V30 804 C 84.4166 -0.311465 -1.86213 0
M  V30 805 O 83.7736 0.704416 -1.68357 0
M  V30 806 C 83.8246 -2.71284 -2.38929 0
M  V30 807 O 83.5456 -3.9857 -1.81861 0
M  V30 808 C 85.0466 -2.95864 -3.3012 0
M  V30 809 H 82.2666 -0.550342 -0.383881 0
M  V30 810 H 84.8106 -1.95898 -0.586864 0
M  V30 811 H 82.9656 -2.417 -3.02753 0
M  V30 812 H 83.3796 -4.57993 -2.55622 0
M  V30 813 H 84.8536 -3.74941 -4.05121 0
M  V30 814 H 85.3306 -2.06206 -3.87783 0
M  V30 815 H 85.9366 -3.26907 -2.72051 0
M  V30 816 N 84.2517 0.741722 -1.39055 0
M  V30 817 C 85.1837 1.8657 -1.33133 0
M  V30 818 C 86.1967 1.61001 -0.241329 0
M  V30 819 O 87.3857 1.7136 -0.499784 0
M  V30 820 C 84.4857 3.22457 -1.04283 0
M  V30 821 C 83.6587 3.75435 -2.24427 0
M  V30 822 C 82.7177 4.89867 -1.92138 0
M  V30 823 O 81.7437 5.03879 -2.64754 0
M  V30 824 N 82.9457 5.73738 -0.88347 0
M  V30 825 H 85.7107 1.92156 -2.29991 0
M  V30 826 H 83.2717 0.922172 -1.3307 0
M  V30 827 H 85.2637 3.9657 -0.807128 0
M  V30 828 H 83.8337 3.12181 -0.161807 0
M  V30 829 H 83.0537 2.92751 -2.6399 0
M  V30 830 H 84.3417 4.07563 -3.04581 0
M  V30 831 H 83.7397 5.64999 -0.281517 0
M  V30 832 H 82.2967 6.47947 -0.707662 0
M  V30 833 N 85.7298 1.2412 0.971189 0
M  V30 834 C 86.6628 0.97373 2.06382 0
M  V30 835 C 87.6408 -0.0912662 1.62344 0
M  V30 836 O 88.8248 0.0449365 1.88446 0
M  V30 837 C 85.9518 0.468746 3.35441 0
M  V30 838 C 84.9978 1.52176 3.98428 0
M  V30 839 S 85.8308 3.10203 4.36503 0
M  V30 840 C 86.9868 2.61398 5.68702 0
M  V30 841 H 87.2198 1.89893 2.28753 0
M  V30 842 H 84.7528 1.07466 1.10862 0
M  V30 843 H 86.7108 0.184012 4.10087 0
M  V30 844 H 85.3718 -0.435688 3.11064 0
M  V30 845 H 84.5648 1.11876 4.91426 0
M  V30 846 H 84.1668 1.75632 3.30196 0
M  V30 847 H 86.4588 2.03992 6.4606 0
M  V30 848 H 87.4018 3.52972 6.13854 0
M  V30 849 H 87.8098 2.01941 5.27143 0
M  V30 850 N 87.2079 -1.17134 1.05439 0
M  V30 851 C 88.1559 -2.23289 0.651511 0
M  V30 852 C 89.1499 -1.66186 -0.328411 0
M  V30 853 O 90.3559 -1.78949 -0.194206 0
M  V30 854 H 86.7309 -0.726938 0.192523 0
M  V30 855 H 88.7019 -2.54565 1.55689 0
M  V30 856 C 87.4509 -3.47671 0.0448436 0
M  V30 857 H 86.7739 -3.91918 0.78996 0
M  V30 858 H 88.2139 -4.2353 -0.19964 0
M  V30 859 C 86.6729 -3.14453 -1.20918 0
M  V30 860 O 87.2029 -3.29459 -2.29825 0
M  V30 861 N 85.4089 -2.68657 -1.10779 0
M  V30 862 H 84.9559 -2.56646 -0.221526 0
M  V30 863 H 84.9139 -2.46804 -1.9477 0
M  V30 864 N 88.686 -0.835752 -1.33615 0
M  V30 865 C 89.596 -0.269088 -2.33052 0
M  V30 866 C 90.612 0.603251 -1.63208 0
M  V30 867 O 91.788 0.508112 -1.94885 0
M  V30 868 C 88.853 0.549091 -3.42324 0
M  V30 869 C 87.914 -0.347156 -4.27894 0
M  V30 870 C 87.147 0.43207 -5.31948 0
M  V30 871 O 87.37 1.66409 -5.45586 0
M  V30 872 O 86.304 -0.192298 -6.01593 0
M  V30 873 H 90.13 -1.09243 -2.83372 0
M  V30 874 H 87.715 -0.598198 -1.36901 0
M  V30 875 H 89.597 1.01414 -4.09015 0
M  V30 876 H 88.272 1.34955 -2.94226 0
M  V30 877 H 87.179 -0.859979 -3.64081 0
M  V30 878 H 88.512 -1.1123 -4.79467 0
M  V30 879 N 90.1641 1.46063 -0.591896 0
M  V30 880 C 91.0941 2.33172 0.123673 0
M  V30 881 C 92.0751 1.45897 0.87453 0
M  V30 882 O 93.2601 1.74698 0.848181 0
M  V30 883 C 90.3901 3.28336 1.13194 0
M  V30 884 C 89.3441 4.25124 0.495324 0
M  V30 885 C 88.6701 5.09863 1.61071 0
M  V30 886 C 89.9701 5.19143 -0.573425 0
M  V30 887 H 91.6641 2.93252 -0.603646 0
M  V30 888 H 89.2101 1.41014 -0.291741 0
M  V30 889 H 91.1631 3.88137 1.64097 0
M  V30 890 H 89.8871 2.66383 1.88965 0
M  V30 891 H 88.5461 3.66599 0.00729452 0
M  V30 892 H 88.1941 4.44288 2.35832 0
M  V30 893 H 87.8941 5.75417 1.19035 0
M  V30 894 H 89.4181 5.72529 2.12233 0
M  V30 895 H 90.8321 5.73106 -0.1491 0
M  V30 896 H 89.2291 5.93089 -0.914636 0
M  V30 897 H 90.2991 4.62519 -1.45617 0
M  V30 898 N 91.6422 0.330177 1.54103 0
M  V30 899 C 92.5742 -0.566902 2.22079 0
M  V30 900 C 93.5872 -1.07462 1.22294 0
M  V30 901 O 94.7762 -0.987065 1.48726 0
M  V30 902 C 91.8762 -1.79138 2.87685 0
M  V30 903 C 91.0492 -1.42123 4.13666 0
M  V30 904 C 90.1082 -2.50394 4.62806 0
M  V30 905 O 89.1342 -2.14261 5.27334 0
M  V30 906 N 90.3362 -3.81433 4.37595 0
M  V30 907 H 93.1012 0.0151844 2.99696 0
M  V30 908 H 90.6622 0.153681 1.61169 0
M  V30 909 H 92.6542 -2.50975 3.1748 0
M  V30 910 H 91.2242 -2.28115 2.13734 0
M  V30 911 H 90.4442 -0.534201 3.90564 0
M  V30 912 H 91.7322 -1.14971 4.9564 0
M  V30 913 H 91.1302 -4.13584 3.8596 0
M  V30 914 H 89.6872 -4.4948 4.72029 0
M  V30 915 N 93.1203 -1.57491 0.0584922 0
M  V30 916 C 94.5363 -1.56792 -0.298091 0
M  V30 917 C 94.7363 -1.06679 -1.70944 0
M  V30 918 O 93.7923 -0.726672 -2.41818 0
M  V30 919 C 95.1053 -3.00461 -0.119879 0
M  V30 920 C 96.6533 -3.1242 -0.190428 0
M  V30 921 C 97.1283 -4.57982 -0.0406567 0
M  V30 922 N 98.6193 -4.63099 -0.0966958 0
M  V30 923 C 99.3543 -5.734 -0.00502943 0
M  V30 924 N 98.8503 -6.9266 0.139402 0
M  V30 925 N 100.643 -5.62067 -0.0611391 0
M  V30 926 H 92.7943 -1.88386 0.98105 0
M  V30 927 H 95.0573 -0.867865 0.381463 0
M  V30 928 H 94.7633 -3.41187 0.85349 0
M  V30 929 H 94.6373 -3.66843 -0.877833 0
M  V30 930 H 97.0243 -2.71589 -1.15427 0
M  V30 931 H 97.1053 -2.48702 0.598405 0
M  V30 932 H 96.7493 -4.995 0.919897 0
M  V30 933 H 96.6793 -5.19715 -0.848727 0
M  V30 934 H 99.1703 -3.77331 -0.207277 0
M  V30 935 H 99.4833 -7.72536 0.201855 0
M  V30 936 H 97.8283 -6.94781 0.174586 0
M  V30 937 H 101.019 -4.67782 -0.172583 0
M  V30 938 H 101.192 -6.47999 0.0137562 0
M  V30 939 N 94.5984 0.214957 -1.56127 0
M  V30 940 C 96.0144 0.564948 -1.49267 0
M  V30 941 C 96.2144 1.86827 -0.754838 0
M  V30 942 O 95.2704 2.50745 -0.297198 0
M  V30 943 C 96.5834 0.638071 -2.93852 0
M  V30 944 C 98.1314 0.728253 -3.0441 0
M  V30 945 C 98.6064 0.832663 -4.50367 0
M  V30 946 N 100.097 0.896712 -4.54437 0
M  V30 947 C 100.832 0.997324 -5.6466 0
M  V30 948 N 100.328 1.06147 -6.8462 0
M  V30 949 N 102.121 1.03297 -5.52527 0
M  V30 950 H 94.2724 -0.640211 -2.02522 0
M  V30 951 H 96.5354 -0.225507 -0.920788 0
M  V30 952 H 96.2414 -0.250126 -3.50809 0
M  V30 953 H 96.1154 1.49947 -3.46115 0
M  V30 954 H 98.5024 1.60689 -2.47514 0
M  V30 955 H 98.5834 -0.158952 -2.55306 0
M  V30 956 H 98.2274 -0.0415417 -5.07883 0
M  V30 957 H 98.1574 1.73538 -4.97184 0
M  V30 958 H 100.648 0.857188 -3.6805 0
M  V30 959 H 100.961 1.1382 -7.64372 0
M  V30 960 H 99.3064 1.03049 -6.87318 0
M  V30 961 H 102.497 0.979558 -4.57736 0
M  V30 962 H 102.67 1.10793 -6.38458 0
M  V30 963 N 96.0765 1.50051 0.48192 0
M  V30 964 C 97.0065 1.71046 1.58951 0
M  V30 965 C 97.9875 0.559288 1.60642 0
M  V30 966 O 99.1725 0.797243 1.77081 0
M  V30 967 C 96.3025 1.79462 2.97339 0
M  V30 968 C 95.2565 2.94558 3.10515 0
M  V30 969 C 94.5825 2.88105 4.50444 0
M  V30 970 C 95.8825 4.35227 2.88747 0
M  V30 971 H 97.5765 2.6378 1.41635 0
M  V30 972 H 95.1225 1.26936 0.679942 0
M  V30 973 H 97.0755 1.92734 3.74742 0
M  V30 974 H 95.7995 0.833412 3.15788 0
M  V30 975 H 94.4585 2.80918 2.35543 0
M  V30 976 H 94.1065 1.89853 4.65795 0
M  V30 977 H 93.8065 3.65366 4.60197 0
M  V30 978 H 95.3305 3.03412 5.29881 0
M  V30 979 H 96.7445 4.49449 3.55905 0
M  V30 980 H 95.1415 5.13856 3.09955 0
M  V30 981 H 96.2115 4.48347 1.84696 0
M  V30 982 N 97.5546 -0.734337 1.39446 0
M  V30 983 C 98.8026 -1.49096 1.36436 0
M  V30 984 C 99.1236 -1.94961 -0.0388255 0
M  V30 985 O 98.3936 -1.69033 -0.990191 0
M  V30 986 H 96.9736 -0.5531 0.502085 0
M  V30 987 H 99.6356 -0.871725 1.74319 0
M  V30 988 H 98.7316 -2.37276 2.02747 0
M  V30 989 N 99.0327 -1.24633 -0.964593 0
M  V30 990 C 100.444 -1.08045 -1.5226 0
M  V30 991 C 100.795 0.347116 -1.93105 0
M  V30 992 O 99.9197 1.23588 -1.77637 0
M  V30 993 C 100.515 -1.95514 -2.76695 0
M  V30 994 C 99.0737 -1.8314 -3.28841 0
M  V30 995 C 98.2207 -1.90262 -2.01732 0
M  V30 996 H 101.172 -1.38064 -0.782553 0
M  V30 997 H 101.193 -1.48925 -3.50145 0
M  V30 998 H 100.705 -2.99407 -2.46936 0
M  V30 999 H 98.8057 -0.82092 -3.63444 0
M  V30 1000 H 98.9187 -2.67406 -3.97531 0
M  V30 1001 H 97.2827 -1.34027 -2.16584 0
M  V30 1002 H 98.0657 -2.9574 -1.74334 0
M  V30 1003 N 100.511 1.16574 -1.06058 0
M  V30 1004 C 101.927 1.3904 -0.783585 0
M  V30 1005 C 102.127 1.91784 0.618145 0
M  V30 1006 O 101.183 2.11511 1.37911 0
M  V30 1007 C 102.496 2.37329 -1.84649 0
M  V30 1008 C 104.044 2.51018 -1.86973 0
M  V30 1009 C 104.519 3.52588 -2.92311 0
M  V30 1010 N 106.01 3.60113 -2.91329 0
M  V30 1011 C 106.745 4.38486 -3.69482 0
M  V30 1012 N 106.241 5.20302 -4.57447 0
M  V30 1013 N 108.034 4.33446 -3.57885 0
M  V30 1014 H 100.185 0.806725 -1.96483 0
M  V30 1015 H 102.448 0.417117 -0.851303 0
M  V30 1016 H 102.154 2.05663 -2.85299 0
M  V30 1017 H 102.028 3.36946 -1.6955 0
M  V30 1018 H 104.415 2.81989 -0.869827 0
M  V30 1019 H 104.496 1.51445 -2.0615 0
M  V30 1020 H 104.14 3.22354 -3.92492 0
M  V30 1021 H 104.07 4.51886 -2.70383 0
M  V30 1022 H 106.561 3.01707 -2.27555 0
M  V30 1023 H 106.874 5.77311 -5.13743 0
M  V30 1024 H 105.219 5.19653 -4.61503 0
M  V30 1025 H 108.41 3.68586 -2.88551 0
M  V30 1026 H 108.583 4.94279 -4.19037 0
M  V30 1027 N 101.989 0.842826 1.3317 0
M  V30 1028 C 103.237 0.439577 1.97262 0
M  V30 1029 C 103.558 -1.00548 1.67078 0
M  V30 1030 O 102.828 -1.70098 0.971779 0
M  V30 1031 H 101.408 0.159558 0.72976 0
M  V30 1032 H 104.07 1.07665 1.62463 0
M  V30 1033 H 103.166 0.574886 3.0676 0
M  V30 1034 N 103.467 -1.45747 0.599634 0
M  V30 1035 C 104.397 -2.33235 -0.111306 0
M  V30 1036 C 105.378 -1.46359 -0.866781 0
M  V30 1037 O 106.563 -1.75146 -0.838904 0
M  V30 1038 C 103.693 -3.28932 -1.11451 0
M  V30 1039 C 102.647 -4.25381 -0.472772 0
M  V30 1040 C 101.973 -5.1071 -1.58365 0
M  V30 1041 C 103.273 -5.18831 0.600948 0
M  V30 1042 H 104.967 -2.92927 0.61919 0
M  V30 1043 H 102.513 -1.40857 0.299215 0
M  V30 1044 H 104.466 -3.89002 -1.62036 0
M  V30 1045 H 103.19 -2.67381 -1.8755 0
M  V30 1046 H 101.849 -3.66598 0.0121472 0
M  V30 1047 H 101.497 -4.45533 -2.33473 0
M  V30 1048 H 101.197 -5.7604 -1.15982 0
M  V30 1049 H 102.721 -5.73647 -2.09194 0
M  V30 1050 H 104.135 -5.73019 0.179491 0
M  V30 1051 H 102.532 -5.92595 0.946076 0
M  V30 1052 H 103.602 -4.6174 1.48068 0
M  V30 1053 N 104.945 -0.338344 -1.53925 0
M  V30 1054 C 106.191 0.260143 -2.01125 0
M  V30 1055 C 106.524 1.50617 -1.22589 0
M  V30 1056 O 105.799 1.91979 -0.312113 0
M  V30 1057 C 106.082 0.579499 -3.55407 0
M  V30 1058 C 105.935 -0.678264 -4.44657 0
M  V30 1059 C 107.254 1.39122 -4.17532 0
M  V30 1060 H 104.373 0.0930772 -0.731099 0
M  V30 1061 H 107.015 -0.457852 -1.84401 0
M  V30 1062 H 105.165 1.19118 -3.69788 0
M  V30 1063 H 106.837 -1.31631 -4.42121 0
M  V30 1064 H 105.08 -1.3042 -4.13731 0
M  V30 1065 H 105.751 -0.410143 -5.50474 0
M  V30 1066 H 108.227 0.874035 -4.06817 0
M  V30 1067 H 107.103 1.58342 -5.25565 0
M  V30 1068 H 107.364 2.39178 -3.71815 0
M  V30 1069 N 106.423 1.57458 -0.0668435 0
M  V30 1070 C 107.669 1.93587 0.6043 0
M  V30 1071 C 108.002 0.946722 1.69561 0
M  V30 1072 O 107.277 -0.0248516 1.94484 0
M  V30 1073 C 107.56 3.40014 1.18585 0
M  V30 1074 C 107.413 4.49685 0.101529 0
M  V30 1075 C 108.732 3.87154 2.09284 0
M  V30 1076 H 105.851 0.703958 0.218202 0
M  V30 1077 H 108.493 1.89542 -0.131804 0
M  V30 1078 H 106.643 3.43592 1.81319 0
M  V30 1079 H 108.315 4.5823 -0.531279 0
M  V30 1080 H 106.558 4.30059 -0.568487 0
M  V30 1081 H 107.229 5.49266 0.54874 0
M  V30 1082 H 109.705 3.85551 1.56491 0
M  V30 1083 H 108.581 4.90231 2.46911 0
M  V30 1084 H 108.842 3.2481 2.99918 0
M  V30 1085 N 107.901 -0.206675 1.56239 0
M  V30 1086 C 108.831 -1.25909 1.96645 0
M  V30 1087 C 109.812 -1.48097 0.836734 0
M  V30 1088 O 110.997 -1.6003 1.10019 0
M  V30 1089 C 108.127 -2.6058 2.29599 0
M  V30 1090 C 107.081 -2.53024 3.452 0
M  V30 1091 C 106.407 -3.91861 3.63798 0
M  V30 1092 C 107.707 -2.06524 4.79734 0
M  V30 1093 H 109.401 -0.923369 2.84806 0
M  V30 1094 H 106.947 -0.442735 1.37025 0
M  V30 1095 H 108.9 -3.34375 2.56459 0
M  V30 1096 H 107.624 -2.95869 1.38307 0
M  V30 1097 H 106.283 -1.81684 3.18412 0
M  V30 1098 H 105.931 -4.24483 2.69857 0
M  V30 1099 H 105.631 -3.87683 4.4156 0
M  V30 1100 H 107.155 -4.67296 3.93022 0
M  V30 1101 H 108.569 -2.70072 5.05702 0
M  V30 1102 H 106.966 -2.13374 5.60885 0
M  V30 1103 H 108.036 -1.01802 4.74093 0
M  V30 1104 N 109.379 -1.50304 -0.473955 0
M  V30 1105 C 110.627 -1.60832 -1.22382 0
M  V30 1106 C 110.948 -0.30939 -1.9253 0
M  V30 1107 O 110.218 0.67296 -1.83978 0
M  V30 1108 H 108.798 -0.592652 -0.454723 0
M  V30 1109 H 111.46 -1.87068 -0.546968 0
M  V30 1110 H 110.556 -2.41803 -1.97327 0
M  V30 1111 N 110.857 0.726932 -1.39834 0
M  V30 1112 C 112.104 1.48664 -1.37496 0
M  V30 1113 C 112.432 1.94482 0.0264678 0
M  V30 1114 O 111.687 1.67692 1.00886 0
M  V30 1115 C 111.986 2.73495 -2.30077 0
M  V30 1116 C 111.652 2.46502 -3.77555 0
M  V30 1117 C 110.314 2.3885 -4.17737 0
M  V30 1118 C 112.666 2.23604 -4.70798 0
M  V30 1119 C 109.994 2.06352 -5.49214 0
M  V30 1120 C 112.346 1.92622 -6.02561 0
M  V30 1121 C 111.01 1.83444 -6.41798 0
M  V30 1122 H 110.28 0.544001 -0.503135 0
M  V30 1123 H 112.927 0.833657 -1.72402 0
M  V30 1124 H 111.232 3.43575 -1.88317 0
M  V30 1125 H 112.929 3.31549 -2.25558 0
M  V30 1126 H 109.519 2.5334 -3.45712 0
M  V30 1127 H 113.703 2.28479 -4.40581 0
M  V30 1128 H 108.959 1.97776 -5.78528 0
M  V30 1129 H 113.133 1.73914 -6.74334 0
M  V30 1130 H 110.76 1.58029 -7.43593 0
M  V30 1131 N 112.336 1.25143 0.95797 0
M  V30 1132 C 113.747 1.08851 1.51685 0
M  V30 1133 C 114.098 -0.33687 1.93286 0
M  V30 1134 O 113.223 -1.22644 1.7829 0
M  V30 1135 C 113.818 1.96978 2.75654 0
M  V30 1136 C 112.377 1.84881 3.27866 0
M  V30 1137 C 111.524 1.91329 2.0072 0
M  V30 1138 H 114.475 1.38478 0.77522 0
M  V30 1139 H 114.496 1.5078 3.4935 0
M  V30 1140 H 114.008 3.00712 2.45345 0
M  V30 1141 H 112.109 0.840182 3.63004 0
M  V30 1142 H 112.222 2.6951 3.96107 0
M  V30 1143 H 110.586 1.35174 2.15871 0
M  V30 1144 H 111.369 2.96661 1.72764 0
M  V30 1145 N 113.814 -1.1601 1.06675 0
M  V30 1146 C 115.054 -1.88304 0.795037 0
M  V30 1147 C 115.418 -1.80062 -0.666466 0
M  V30 1148 O 116.619 -2.47319 -1.05293 0
M  V30 1149 C 114.89 -3.33664 1.28076 0
M  V30 1150 S 116.449 -4.23768 1.13868 0
M  V30 1151 H 113.267 -0.649928 0.288296 0
M  V30 1152 H 115.869 -1.4001 1.36445 0
M  V30 1153 H 114.573 -3.37203 2.33927 0
M  V30 1154 H 114.104 -3.87009 0.706253 0
M  V30 1155 H 116.119 -4.96148 0.0719668 0
M  V30 1156 N 115.292 -0.849877 -1.32721 0
M  V30 1157 C 116.24 -0.279745 -2.30912 0
M  V30 1158 C 117.234 0.594278 -1.58634 0
M  V30 1159 O 118.44 0.482613 -1.73409 0
M  V30 1160 H 114.815 -0.0717521 -0.748569 0
M  V30 1161 H 116.786 -1.12222 -2.76494 0
M  V30 1162 C 115.535 0.521108 -3.43773 0
M  V30 1163 H 114.858 -0.142141 -3.99547 0
M  V30 1164 H 116.298 0.885693 -4.14646 0
M  V30 1165 C 114.757 1.70442 -2.90605 0
M  V30 1166 O 115.287 2.8034 -2.87702 0
M  V30 1167 N 113.493 1.52991 -2.47067 0
M  V30 1168 H 113.04 0.635914 -2.49628 0
M  V30 1169 H 112.998 2.32311 -2.11847 0
M  V30 1170 N 116.77 1.45427 -0.607355 0
M  V30 1171 C 117.702 2.2871 0.149752 0
M  V30 1172 C 118.715 1.39937 0.831958 0
M  V30 1173 O 119.904 1.64313 0.697385 0
M  V30 1174 C 117.004 3.15673 1.23304 0
M  V30 1175 C 116.177 4.32722 0.637996 0
M  V30 1176 C 115.236 5.00895 1.61215 0
M  V30 1177 O 114.262 5.57697 1.13854 0
M  V30 1178 N 115.464 5.00159 2.94655 0
M  V30 1179 H 118.229 2.94328 -0.564882 0
M  V30 1180 H 115.79 1.55612 -0.446823 0
M  V30 1181 H 117.782 3.58144 1.88454 0
M  V30 1182 H 116.352 2.51965 1.8502 0
M  V30 1183 H 115.572 3.93734 -0.191572 0
M  V30 1184 H 116.86 5.08321 0.220665 0
M  V30 1185 H 116.258 4.553 3.35735 0
M  V30 1186 H 114.815 5.46495 3.55228 0
M  V30 1187 N 118.248 0.346503 1.53744 0
M  V30 1188 C 119.495 -0.249104 2.00962 0
M  V30 1189 C 119.823 -1.5032 1.23426 0
M  V30 1190 O 119.078 -1.93217 0.310761 0
M  V30 1191 C 119.377 -0.605809 3.52228 0
M  V30 1192 C 119.043 0.551747 4.47512 0
M  V30 1193 C 117.705 0.86941 4.73281 0
M  V30 1194 C 120.057 1.32818 5.03993 0
M  V30 1195 C 117.385 1.96582 5.52786 0
M  V30 1196 C 119.737 2.41486 5.84694 0
M  V30 1197 C 118.401 2.73808 6.08757 0
M  V30 1198 H 117.671 -0.0911538 0.735372 0
M  V30 1199 H 120.318 0.475027 1.85515 0
M  V30 1200 H 118.623 -1.4107 3.65522 0
M  V30 1201 H 120.32 -1.07858 3.86222 0
M  V30 1202 H 116.91 0.294102 4.2759 0
M  V30 1203 H 121.094 1.09602 4.84047 0
M  V30 1204 H 116.35 2.22045 5.69654 0
M  V30 1205 H 120.524 3.02078 6.27473 0
M  V30 1206 H 118.151 3.58892 6.7015 0
M  V30 1207 N 119.726 -1.57421 0.075193 0
M  V30 1208 C 120.974 -1.93236 -0.591974 0
M  V30 1209 C 121.295 -0.956241 -1.69944 0
M  V30 1210 O 120.565 -0.00494792 -1.95899 0
M  V30 1211 H 119.145 -0.713355 -0.22166 0
M  V30 1212 H 121.807 -1.9444 0.133848 0
M  V30 1213 H 120.903 -2.95131 -1.01509 0
M  V30 1214 N 121.204 0.198386 -1.56346 0
M  V30 1215 C 122.154 1.2499 -1.90687 0
M  V30 1216 C 123.138 1.41158 -0.772217 0
M  V30 1217 O 124.33 1.43584 -1.03502 0
M  V30 1218 C 121.459 2.59542 -2.24706 0
M  V30 1219 C 120.545 2.47181 -3.44619 0
M  V30 1220 N 120.936 2.04495 -4.62618 0
M  V30 1221 C 119.234 2.78082 -3.48692 0
M  V30 1222 C 119.935 2.03945 -5.44776 0
M  V30 1223 N 118.911 2.45323 -4.85095 0
M  V30 1224 H 122.713 0.911149 -2.7942 0
M  V30 1225 H 120.227 0.40684 -1.57221 0
M  V30 1226 H 122.224 3.3549 -2.47491 0
M  V30 1227 H 120.884 2.94244 -1.37298 0
M  V30 1228 H 121.895 1.75256 -4.87345 0
M  V30 1229 H 118.572 3.17002 -2.71691 0
M  V30 1230 H 119.962 1.72872 -6.4928 0
M  V30 1231 N 122.682 1.50554 0.465978 0
M  V30 1232 C 123.614 1.65949 1.58093 0
M  V30 1233 C 124.627 0.540827 1.53554 0
M  V30 1234 O 125.816 0.814187 1.5885 0
M  V30 1235 C 122.916 1.63261 2.96983 0
M  V30 1236 C 122.089 2.91245 3.26336 0
M  V30 1237 C 121.148 2.8113 4.44806 0
M  V30 1238 O 120.174 3.55086 4.44862 0
M  V30 1239 N 121.376 1.95032 5.46756 0
M  V30 1240 H 124.141 2.62122 1.45301 0
M  V30 1241 H 121.702 1.48082 0.65448 0
M  V30 1242 H 123.694 1.54101 3.74212 0
M  V30 1243 H 122.264 0.748032 3.03518 0
M  V30 1244 H 121.484 3.14493 2.37672 0
M  V30 1245 H 122.772 3.76022 3.42761 0
M  V30 1246 H 122.17 1.3427 5.49534 0
M  V30 1247 H 120.727 1.91772 6.2295 0
M  V30 1248 N 124.16 -0.719506 1.40217 0
M  V30 1249 C 125.07 -1.86378 1.42479 0
M  V30 1250 C 126.086 -1.71073 0.317834 0
M  V30 1251 O 127.262 -1.93406 0.561794 0
M  V30 1252 C 124.327 -3.22136 1.28178 0
M  V30 1253 C 123.388 -3.49723 2.48982 0
M  V30 1254 C 122.621 -4.79004 2.35353 0
M  V30 1255 O 122.844 -5.53821 1.36524 0
M  V30 1256 O 121.778 -5.06839 3.2465 0
M  V30 1257 H 125.604 -1.87425 2.38968 0
M  V30 1258 H 123.189 -0.869405 1.21498 0
M  V30 1259 H 125.071 -4.03234 1.22395 0
M  V30 1260 H 123.746 -3.21825 0.347934 0
M  V30 1261 H 122.653 -2.6865 2.60342 0
M  V30 1262 H 123.986 -3.54828 3.41113 0
M  V30 1263 N 125.638 -1.25649 -0.95132 0
M  V30 1264 C 126.586 -1.06118 -2.06982 0
M  V30 1265 C 127.58 0.00889169 -1.69398 0
M  V30 1266 O 128.786 -0.146988 -1.79399 0
M  V30 1267 H 125.161 -0.326248 -0.677544 0
M  V30 1268 H 127.132 -2.00932 -2.2061 0
M  V30 1269 C 125.881 -0.700145 -3.40578 0
M  V30 1270 H 125.204 -1.51537 -3.69968 0
M  V30 1271 H 126.644 -0.603211 -4.19687 0
M  V30 1272 C 125.103 0.59403 -3.31622 0
M  V30 1273 O 125.633 1.63522 -3.66911 0
M  V30 1274 N 123.839 0.58089 -2.84735 0
M  V30 1275 H 123.386 -0.266783 -2.56215 0
M  V30 1276 H 123.344 1.44695 -2.79125 0
M  V30 1277 N 127.117 1.15442 -1.07289 0
M  V30 1278 C 128.08 2.18358 -0.696591 0
M  V30 1279 C 129.08 1.58637 0.262837 0
M  V30 1280 O 130.27 1.74145 0.0438809 0
M  V30 1281 C 127.402 3.4089 -0.0266151 0
M  V30 1282 H 128.595 2.53162 -1.60776 0
M  V30 1283 H 126.148 1.29893 -0.869342 0
M  V30 1284 H 126.883 3.11653 0.896822 0
M  V30 1285 H 126.668 3.85495 -0.716657 0
M  V30 1286 H 128.158 4.17009 0.222028 0
M  V30 1287 N 128.595 0.856903 1.32268 0
M  V30 1288 C 129.542 0.301172 2.28827 0
M  V30 1289 C 130.512 -0.593104 1.5515 0
M  V30 1290 O 131.697 -0.527537 1.83362 0
M  V30 1291 C 128.837 -0.502523 3.41422 0
M  V30 1292 C 127.95 0.417797 4.29975 0
M  V30 1293 C 127.085 -0.398749 5.29701 0
M  V30 1294 C 126.124 0.518827 6.09897 0
M  V30 1295 N 125.261 -0.260674 7.01616 0
M  V30 1296 H 130.101 1.12983 2.75751 0
M  V30 1297 H 127.638 0.568582 1.35667 0
M  V30 1298 H 129.596 -0.984141 4.05426 0
M  V30 1299 H 128.226 -1.29599 2.95642 0
M  V30 1300 H 127.278 1.01781 3.66531 0
M  V30 1301 H 128.59 1.12191 4.86019 0
M  V30 1302 H 127.744 -0.943435 5.9932 0
M  V30 1303 H 126.483 -1.13622 4.7428 0
M  V30 1304 H 125.488 1.07538 5.39181 0
M  V30 1305 H 126.713 1.25495 6.67404 0
M  V30 1306 H 124.659 -0.981198 6.4862 0
M  V30 1307 H 124.576 0.384364 7.55022 0
M  V30 1308 H 125.844 -0.787014 7.75517 0
M  V30 1309 N 130.073 -1.45103 0.615059 0
M  V30 1310 C 131.021 -2.32331 -0.111791 0
M  V30 1311 C 132.015 -1.46409 -0.852102 0
M  V30 1312 O 133.221 -1.62849 -0.766821 0
M  V30 1313 H 129.596 -0.749993 -0.0549072 0
M  V30 1314 H 131.567 -2.91407 0.642225 0
M  V30 1315 C 130.316 -3.3015 -1.09071 0
M  V30 1316 H 129.639 -3.96265 -0.530485 0
M  V30 1317 H 131.079 -3.93898 -1.56908 0
M  V30 1318 C 129.538 -2.57875 -2.168 0
M  V30 1319 O 130.068 -2.36567 -3.24652 0
M  V30 1320 N 128.274 -2.17884 -1.92289 0
M  V30 1321 H 127.821 -2.35413 -1.04587 0
M  V30 1322 H 127.779 -1.6985 -2.64572 0
M  V30 1323 N 131.551 -0.354651 -1.53558 0
M  V30 1324 C 132.461 0.50515 -2.29097 0
M  V30 1325 C 133.477 1.10223 -1.34636 0
M  V30 1326 O 134.653 1.11553 -1.67684 0
M  V30 1327 C 131.718 1.63479 -3.05738 0
M  V30 1328 C 130.779 1.06636 -4.15845 0
M  V30 1329 C 130.012 2.14217 -4.88822 0
M  V30 1330 O 130.235 3.35137 -4.61562 0
M  V30 1331 O 129.169 1.77887 -5.75013 0
M  V30 1332 H 132.995 -0.109237 -3.03503 0
M  V30 1333 H 130.58 -0.119357 -1.48922 0
M  V30 1334 H 132.462 2.2918 -3.5363 0
M  V30 1335 H 131.137 2.23478 -2.34178 0
M  V30 1336 H 130.044 0.373565 -3.7223 0
M  V30 1337 H 131.377 0.511081 -4.89539 0
M  V30 1338 N 133.029 1.57378 -0.0835403 0
M  V30 1339 C 133.939 2.16897 0.894021 0
M  V30 1340 C 134.955 1.13528 1.31861 0
M  V30 1341 O 136.131 1.45848 1.3889 0
M  V30 1342 C 133.196 2.72831 2.13925 0
M  V30 1343 C 132.257 3.91115 1.76997 0
M  V30 1344 C 131.49 4.44371 2.95584 0
M  V30 1345 O 131.713 3.96596 4.09961 0
M  V30 1346 O 130.647 5.35549 2.74719 0
M  V30 1347 H 134.473 3.00814 0.417679 0
M  V30 1348 H 132.058 1.48741 0.140181 0
M  V30 1349 H 133.94 3.0863 2.86924 0
M  V30 1350 H 132.615 1.91967 2.60635 0
M  V30 1351 H 131.522 3.60148 1.01214 0
M  V30 1352 H 132.855 4.73307 1.3506 0
M  V30 1353 N 134.507 -0.190092 1.56449 0
M  V30 1354 C 135.756 -0.907912 1.80111 0
M  V30 1355 C 136.069 -1.84214 0.657619 0
M  V30 1356 O 137.275 -2.60094 0.778663 0
M  V30 1357 C 135.731 -1.66485 3.19078 0
M  V30 1358 C 135.339 -0.7752 4.41242 0
M  V30 1359 C 137.083 -2.37201 3.52045 0
M  V30 1360 C 134.99 -1.53129 5.71231 0
M  V30 1361 H 133.92 -0.34276 0.671589 0
M  V30 1362 H 136.571 -0.161109 1.82791 0
M  V30 1363 H 134.953 -2.45572 3.10661 0
M  V30 1364 H 136.127 -0.0226298 4.60794 0
M  V30 1365 H 134.442 -0.178627 4.16017 0
M  V30 1366 H 137.039 -2.94329 4.46402 0
M  V30 1367 H 137.382 -3.11632 2.76028 0
M  V30 1368 H 137.915 -1.65075 3.61932 0
M  V30 1369 H 134.654 -0.82967 6.50228 0
M  V30 1370 H 134.174 -2.25767 5.55688 0
M  V30 1371 H 135.853 -2.08377 6.12526 0
M  V30 1372 N 135.985 -1.50799 -0.457987 0
M  V30 1373 C 136.915 -1.73553 -1.5621 0
M  V30 1374 C 137.896 -0.584774 -1.59732 0
M  V30 1375 O 139.081 -0.825314 -1.7579 0
M  V30 1376 C 136.211 -1.84169 -2.94447 0
M  V30 1377 C 135.165 -2.99461 -3.0579 0
M  V30 1378 C 134.491 -2.95235 -4.45803 0
M  V30 1379 C 135.791 -4.39766 -2.81786 0
M  V30 1380 H 137.485 -2.66 -1.37421 0
M  V30 1381 H 135.031 -1.28002 -0.659662 0
M  V30 1382 H 136.984 -1.98672 -3.71628 0
M  V30 1383 H 135.708 -0.883545 -3.14422 0
M  V30 1384 H 134.367 -2.8463 -2.31044 0
M  V30 1385 H 134.015 -1.97239 -4.62715 0
M  V30 1386 H 133.715 -3.72642 -4.54326 0
M  V30 1387 H 135.239 -3.11803 -5.24987 0
M  V30 1388 H 136.653 -4.55054 -3.4871 0
M  V30 1389 H 135.05 -5.18722 -3.0174 0
M  V30 1390 H 136.12 -4.51229 -1.7754 0
M  V30 1391 N 137.463 0.71206 -1.40597 0
M  V30 1392 C 138.411 1.84746 -1.41321 0
M  V30 1393 C 139.405 1.66842 -0.293268 0
M  V30 1394 O 140.611 1.73904 -0.464481 0
M  V30 1395 H 136.986 0.608522 -0.441819 0
M  V30 1396 H 138.957 1.81252 -2.37045 0
M  V30 1397 C 137.706 3.22638 -1.29614 0
M  V30 1398 H 137.029 3.37023 -2.15071 0
M  V30 1399 H 138.469 4.02209 -1.3418 0
M  V30 1400 C 136.928 3.36899 -0.00673121 0
M  V30 1401 O 137.458 3.90186 0.954859 0
M  V30 1402 N 135.664 2.9053 0.0639327 0
M  V30 1403 H 135.211 2.47353 -0.719311 0
M  V30 1404 H 135.169 3.0045 0.926118 0
M  V30 1405 N 138.941 1.26152 0.944643 0
M  V30 1406 C 140.166 1.14363 1.7302 0
M  V30 1407 C 140.591 -0.29772 1.85729 0
M  V30 1408 O 139.949 -1.2157 1.34501 0
M  V30 1409 C 139.997 1.81378 3.11664 0
M  V30 1410 O 139.101 1.10022 3.97453 0
M  V30 1411 H 138.442 0.398694 0.53098 0
M  V30 1412 H 140.972 1.66906 1.18337 0
M  V30 1413 H 140.982 1.88064 3.62072 0
M  V30 1414 H 139.657 2.86237 3.0173 0
M  V30 1415 H 138.234 1.11287 3.55907 0
M  V30 1416 N 140.419 -1.14872 1.07899 0
M  V30 1417 C 141.349 -2.2193 0.725887 0
M  V30 1418 C 142.33 -1.67622 -0.28927 0
M  V30 1419 O 143.515 -1.93533 -0.160787 0
M  V30 1420 C 140.645 -3.47061 0.128856 0
M  V30 1421 C 139.599 -4.14363 1.07178 0
M  V30 1422 C 138.925 -5.33636 0.337229 0
M  V30 1423 C 140.225 -4.63492 2.40775 0
M  V30 1424 H 141.919 -2.51724 1.62097 0
M  V30 1425 H 139.465 -1.20991 0.780838 0
M  V30 1426 H 141.418 -4.21199 -0.130147 0
M  V30 1427 H 140.142 -3.16617 -0.80134 0
M  V30 1428 H 138.801 -3.42173 1.3158 0
M  V30 1429 H 138.449 -4.99449 -0.596606 0
M  V30 1430 H 138.149 -5.79609 0.965788 0
M  V30 1431 H 139.673 -6.10539 0.0861567 0
M  V30 1432 H 141.087 -5.2913 2.20669 0
M  V30 1433 H 139.484 -5.20148 2.99276 0
M  V30 1434 H 140.554 -3.78834 3.02676 0
M  V30 1435 N 141.898 -0.863906 -1.31812 0
M  V30 1436 C 142.845 -0.313303 -2.28664 0
M  V30 1437 C 143.815 0.584868 -1.55462 0
M  V30 1438 O 145 0.517805 -1.83639 0
M  V30 1439 C 142.14 0.48441 -3.41683 0
M  V30 1440 C 141.253 -0.440594 -4.29747 0
M  V30 1441 C 140.388 0.370652 -5.29905 0
M  V30 1442 C 139.427 -0.551164 -6.09613 0
M  V30 1443 N 138.564 0.223462 -7.01744 0
M  V30 1444 H 143.404 -1.14444 -2.75148 0
M  V30 1445 H 140.941 -0.575769 -1.35364 0
M  V30 1446 H 142.899 0.962627 -4.05943 0
M  V30 1447 H 141.529 1.28029 -2.96325 0
M  V30 1448 H 140.581 -1.03724 -3.65986 0
M  V30 1449 H 141.893 -1.14767 -4.85417 0
M  V30 1450 H 141.047 0.911638 -5.99812 0
M  V30 1451 H 139.786 1.11105 -4.74876 0
M  V30 1452 H 138.791 -1.10396 -5.38603 0
M  V30 1453 H 140.016 -1.29032 -6.66729 0
M  V30 1454 H 137.962 0.946787 -6.49132 0
M  V30 1455 H 137.879 -0.424399 -7.54808 0
M  V30 1456 H 139.147 0.745876 -7.75923 0
M  V30 1457 N 143.376 1.44774 -0.622745 0
M  V30 1458 C 144.606 2.06187 -0.130532 0
M  V30 1459 C 145.014 1.46547 1.19669 0
M  V30 1460 O 144.357 0.579636 1.74316 0
M  V30 1461 C 144.419 3.59437 0.0674983 0
M  V30 1462 C 144.083 4.41496 -1.18026 0
M  V30 1463 C 145.08 4.75512 -2.102 0
M  V30 1464 C 142.765 4.82007 -1.41333 0
M  V30 1465 C 144.759 5.48912 -3.23998 0
M  V30 1466 C 142.446 5.55157 -2.55429 0
M  V30 1467 C 143.444 5.88528 -3.46589 0
M  V30 1468 O 143.132 6.60191 -4.58697 0
M  V30 1469 H 142.864 0.672045 -0.0730162 0
M  V30 1470 H 145.418 1.86768 -0.854802 0
M  V30 1471 H 143.648 3.77314 0.846825 0
M  V30 1472 H 145.337 4.02642 0.513209 0
M  V30 1473 H 146.103 4.4476 -1.93425 0
M  V30 1474 H 141.982 4.55457 -0.712709 0
M  V30 1475 H 145.526 5.74877 -3.95174 0
M  V30 1476 H 141.423 5.85324 -2.72151 0
M  V30 1477 H 142.191 6.78654 -4.57571 0
M  V30 1478 N 144.854 0.36279 1.53368 0
M  V30 1479 C 146.1 -0.228113 2.01513 0
M  V30 1480 C 146.433 -1.48648 1.2497 0
M  V30 1481 O 145.708 -1.91459 0.342616 0
M  V30 1482 C 145.991 -0.522884 3.56284 0
M  V30 1483 C 145.844 0.74892 4.43521 0
M  V30 1484 C 147.163 -1.32461 4.19693 0
M  V30 1485 H 144.282 -0.0814343 0.732487 0
M  V30 1486 H 146.924 0.48713 1.83649 0
M  V30 1487 H 145.074 -1.1322 3.71636 0
M  V30 1488 H 146.746 1.38648 4.39971 0
M  V30 1489 H 144.989 1.36986 4.11603 0
M  V30 1490 H 145.66 0.497667 5.49752 0
M  V30 1491 H 148.136 -0.809203 4.08156 0
M  V30 1492 H 147.012 -1.49961 5.28018 0
M  V30 1493 H 147.273 -2.33232 3.75573 0
M  V30 1494 N 146.332 -1.57332 0.0918853 0
M  V30 1495 C 147.748 -1.57389 -0.264766 0
M  V30 1496 C 147.948 -1.10281 -1.68643 0
M  V30 1497 O 147.004 -0.777801 -2.40222 0
M  V30 1498 C 148.317 -3.00648 -0.0561195 0
M  V30 1499 C 149.865 -3.12754 -0.124116 0
M  V30 1500 C 150.34 -4.57965 0.0564972 0
M  V30 1501 N 151.831 -4.632 0.00155611 0
M  V30 1502 C 152.566 -5.73281 0.116598 0
M  V30 1503 N 152.062 -6.92208 0.286294 0
M  V30 1504 N 153.855 -5.6207 0.0580973 0
M  V30 1505 H 146.006 -1.86262 1.02079 0
M  V30 1506 H 148.269 -0.859579 0.399786 0
M  V30 1507 H 147.975 -3.393 0.925669 0
M  V30 1508 H 147.849 -3.68623 -0.799823 0
M  V30 1509 H 150.236 -2.73976 -1.09641 0
M  V30 1510 H 150.317 -2.47377 0.651024 0
M  V30 1511 H 149.961 -4.97436 1.02564 0
M  V30 1512 H 149.891 -5.21399 -0.738297 0
M  V30 1513 H 152.382 -3.77686 -0.127192 0
M  V30 1514 H 152.695 -7.71934 0.365676 0
M  V30 1515 H 151.04 -6.94254 0.32192 0
M  V30 1516 H 154.231 -4.68043 -0.0733204 0
M  V30 1517 H 154.404 -6.47824 0.151203 0
M  V30 1518 N 147.81 0.181792 -1.56548 0
M  V30 1519 C 149.221 0.745244 -1.71181 0
M  V30 1520 C 149.572 1.83262 -0.70068 0
M  V30 1521 O 148.697 2.15946 0.140154 0
M  V30 1522 C 149.292 1.35859 -3.10367 0
M  V30 1523 C 147.851 1.86898 -3.2672 0
M  V30 1524 C 146.998 0.743942 -2.67134 0
M  V30 1525 H 149.949 -0.0434661 -1.5864 0
M  V30 1526 H 149.97 2.22817 -3.08436 0
M  V30 1527 H 149.482 0.566948 -3.83937 0
M  V30 1528 H 147.583 2.68738 -2.5809 0
M  V30 1529 H 147.696 2.02162 -4.34359 0
M  V30 1530 H 146.06 1.16169 -2.26665 0
M  V30 1531 H 146.843 -0.035676 -3.43281 0
M  V30 1532 N 149.288 1.51039 0.449983 0
M  V30 1533 C 150.536 1.62759 1.19808 0
M  V30 1534 C 150.857 0.339981 1.92013 0
M  V30 1535 O 150.127 -0.643606 1.85026 0
M  V30 1536 H 148.707 0.599811 0.445237 0
M  V30 1537 H 151.369 1.87914 0.517138 0
M  V30 1538 H 150.465 2.44911 1.93455 0
M  V30 1539 N 150.766 -0.704594 1.40972 0
M  V30 1540 C 152.014 -1.46169 1.39568 0
M  V30 1541 C 152.335 -1.95 0.00253745 0
M  V30 1542 O 151.605 -1.71095 -0.954114 0
M  V30 1543 H 150.185 -0.542326 0.513704 0
M  V30 1544 H 152.847 -0.834553 1.76128 0
M  V30 1545 H 151.943 -2.32922 2.07735 0
M  V30 1546 N 152.244 -1.26651 -0.937939 0
M  V30 1547 C 153.492 -1.12165 -1.68118 0
M  V30 1548 C 153.813 0.334983 -1.92101 0
M  V30 1549 O 153.083 1.23583 -1.52 0
M  V30 1550 H 151.663 -0.412093 -0.623048 0
M  V30 1551 H 154.325 -1.59027 -1.12678 0
M  V30 1552 H 153.421 -1.64289 -2.6536 0
M  V30 1553 N 153.722 1.14298 -1.08507 0
M  V30 1554 C 154.969 1.85359 -0.815373 0
M  V30 1555 C 155.297 1.83001 0.658865 0
M  V30 1556 O 154.552 1.25655 1.50031 0
M  V30 1557 C 154.851 3.33547 -1.28379 0
M  V30 1558 C 154.517 3.56093 -2.76602 0
M  V30 1559 C 153.179 3.61955 -3.17084 0
M  V30 1560 C 155.531 3.64834 -3.72217 0
M  V30 1561 C 152.859 3.74082 -4.51973 0
M  V30 1562 C 155.211 3.78487 -5.06883 0
M  V30 1563 C 153.875 3.82598 -5.46969 0
M  V30 1564 H 153.145 0.678276 -0.298366 0
M  V30 1565 H 155.792 1.35002 -1.35819 0
M  V30 1566 H 154.097 3.86191 -0.660593 0
M  V30 1567 H 155.794 3.86959 -1.05186 0
M  V30 1568 H 152.384 3.52179 -2.4427 0
M  V30 1569 H 156.568 3.59595 -3.42061 0
M  V30 1570 H 151.824 3.75527 -4.82483 0
M  V30 1571 H 155.998 3.84193 -5.80834 0
M  V30 1572 H 153.625 3.91747 -6.51489 0
M  V30 1573 N 155.201 0.870884 1.31352 0
M  V30 1574 C 156.111 0.330783 2.32256 0
M  V30 1575 C 157.127 -0.559767 1.6475 0
M  V30 1576 O 158.303 -0.456263 1.96164 0
M  V30 1577 C 155.368 -0.458137 3.4366 0
M  V30 1578 C 154.429 0.460482 4.26823 0
M  V30 1579 C 153.662 -0.290881 5.32907 0
M  V30 1580 O 153.885 -1.51885 5.49806 0
M  V30 1581 O 152.819 0.351732 6.00871 0
M  V30 1582 H 156.645 1.16718 2.80376 0
M  V30 1583 H 154.23 0.634285 1.35267 0
M  V30 1584 H 156.112 -0.905343 4.1156 0
M  V30 1585 H 154.787 -1.27106 2.97701 0
M  V30 1586 H 153.694 0.956207 3.61673 0
M  V30 1587 H 155.027 1.23903 4.7635 0
M  V30 1588 N 156.679 -1.44442 0.630414 0
M  V30 1589 C 158.09 -1.85434 0.217063 0
M  V30 1590 C 158.441 -1.52748 -1.23136 0
M  V30 1591 O 157.566 -0.965205 -1.93682 0
M  V30 1592 C 158.161 -3.36581 0.387168 0
M  V30 1593 C 156.72 -3.76389 0.0283297 0
M  V30 1594 C 155.867 -2.68296 0.700889 0
M  V30 1595 H 158.818 -1.34919 0.83562 0
M  V30 1596 H 158.839 -3.78657 -0.374086 0
M  V30 1597 H 158.351 -3.60339 1.44144 0
M  V30 1598 H 156.452 -3.58246 -1.02423 0
M  V30 1599 H 156.565 -4.77095 0.437892 0
M  V30 1600 H 154.929 -2.54335 0.136267 0
M  V30 1601 H 155.712 -2.94887 1.75774 0
M  V30 1602 N 158.157 -0.370918 -1.53173 0
M  V30 1603 C 159.105 0.488101 -2.27421 0
M  V30 1604 C 160.099 1.07884 -1.30604 0
M  V30 1605 O 161.305 1.02143 -1.48212 0
M  V30 1606 H 157.68 0.176134 -0.731082 0
M  V30 1607 H 159.651 -0.159815 -2.97972 0
M  V30 1608 C 158.4 1.61306 -3.08019 0
M  V30 1609 H 157.723 1.1678 -3.82364 0
M  V30 1610 H 159.163 2.18872 -3.63141 0
M  V30 1611 C 157.622 2.55848 -2.19188 0
M  V30 1612 O 158.152 3.58799 -1.80626 0
M  V30 1613 N 156.358 2.2516 -1.83715 0
M  V30 1614 H 155.905 1.41476 -2.15273 0
M  V30 1615 H 155.863 2.8867 -1.24567 0
M  V30 1616 N 159.635 1.57281 -0.100228 0
M  V30 1617 C 160.882 1.94537 0.562268 0
M  V30 1618 C 161.21 0.982315 1.67871 0
M  V30 1619 O 160.465 0.00280936 1.957 0
M  V30 1620 C 160.764 3.38305 1.15259 0
M  V30 1621 C 160.43 4.50618 0.159409 0
M  V30 1622 C 159.092 4.81066 -0.113741 0
M  V30 1623 C 161.444 5.18615 -0.518461 0
M  V30 1624 C 158.772 5.76835 -1.07137 0
M  V30 1625 C 161.124 6.15412 -1.46459 0
M  V30 1626 C 159.788 6.44262 -1.74592 0
M  V30 1627 H 159.058 0.711863 0.205748 0
M  V30 1628 H 161.705 1.90679 -0.17715 0
M  V30 1629 H 160.01 3.38766 1.96836 0
M  V30 1630 H 161.707 3.64435 1.67297 0
M  V30 1631 H 158.297 4.2689 0.382491 0
M  V30 1632 H 162.481 4.95264 -0.320581 0
M  V30 1633 H 157.737 5.975 -1.29628 0
M  V30 1634 H 161.911 6.67194 -1.99564 0
M  V30 1635 H 159.538 7.1828 -2.48953 0
M  V30 1636 N 161.113 -0.173488 1.56642 0
M  V30 1637 C 162.046 -1.24353 1.91342 0
M  V30 1638 C 163.024 -1.4289 0.775965 0
M  V30 1639 O 164.208 -1.57932 1.02907 0
M  V30 1640 C 161.335 -2.60683 2.16245 0
M  V30 1641 C 160.381 -2.58894 3.38934 0
M  V30 1642 S 161.214 -2.0819 4.93373 0
M  V30 1643 C 162.37 -3.46302 5.21369 0
M  V30 1644 H 162.603 -0.947345 2.81803 0
M  V30 1645 H 160.136 -0.377958 1.49703 0
M  V30 1646 H 162.094 -3.39149 2.31275 0
M  V30 1647 H 160.755 -2.87502 1.26496 0
M  V30 1648 H 159.948 -3.59188 3.53553 0
M  V30 1649 H 159.55 -1.88522 3.2301 0
M  V30 1650 H 161.842 -4.42287 5.13214 0
M  V30 1651 H 162.785 -3.3656 6.23003 0
M  V30 1652 H 163.193 -3.42214 4.48943 0
M  V30 1653 N 162.591 -1.51276 -0.441967 0
M  V30 1654 C 163.521 -1.752 -1.54361 0
M  V30 1655 C 164.502 -0.601682 -1.59103 0
M  V30 1656 O 165.687 -0.843913 -1.74905 0
M  V30 1657 C 162.817 -1.87282 -2.92477 0
M  V30 1658 C 161.771 -3.02687 -3.02596 0
M  V30 1659 C 161.097 -2.99947 -4.42647 0
M  V30 1660 C 162.397 -4.4273 -2.77106 0
M  V30 1661 H 164.091 -2.67442 -1.34592 0
M  V30 1662 H 161.637 -1.28694 -0.646048 0
M  V30 1663 H 163.59 -2.02602 -3.695 0
M  V30 1664 H 162.314 -0.916844 -3.13467 0
M  V30 1665 H 160.973 -2.87065 -2.28012 0
M  V30 1666 H 160.621 -2.02136 -4.60597 0
M  V30 1667 H 160.321 -3.77439 -4.50348 0
M  V30 1668 H 161.845 -3.17354 -5.2165 0
M  V30 1669 H 163.259 -4.58727 -3.43864 0
M  V30 1670 H 161.656 -5.21893 -2.96222 0
M  V30 1671 H 162.726 -4.53087 -1.72744 0
M  V30 1672 N 164.069 0.697108 -1.41344 0
M  V30 1673 C 165.316 1.45714 -1.40619 0
M  V30 1674 C 165.644 1.94494 -0.0147907 0
M  V30 1675 O 164.899 1.69794 0.973066 0
M  V30 1676 C 165.198 2.68553 -2.35826 0
M  V30 1677 C 164.864 2.38438 -3.82698 0
M  V30 1678 C 163.526 2.29936 -4.22709 0
M  V30 1679 C 165.878 2.13567 -4.75435 0
M  V30 1680 C 163.206 1.94656 -5.53467 0
M  V30 1681 C 165.558 1.79797 -6.06511 0
M  V30 1682 C 164.222 1.69789 -6.45545 0
M  V30 1683 H 163.492 0.533206 -0.51456 0
M  V30 1684 H 166.139 0.796901 -1.74131 0
M  V30 1685 H 164.444 3.39503 -1.95563 0
M  V30 1686 H 166.141 3.2669 -2.32539 0
M  V30 1687 H 162.731 2.4595 -3.51008 0
M  V30 1688 H 166.915 2.19082 -4.45328 0
M  V30 1689 H 162.171 1.8546 -5.82593 0
M  V30 1690 H 166.345 1.59572 -6.77872 0
M  V30 1691 H 163.972 1.4222 -7.46778 0
M  V30 1692 N 165.547 1.27147 0.931209 0
M  V30 1693 C 166.457 1.11372 2.06478 0
M  V30 1694 C 167.473 0.044645 1.73943 0
M  V30 1695 O 168.649 0.250417 1.99837 0
M  V30 1696 C 165.714 0.758838 3.38294 0
M  V30 1697 C 164.775 1.90841 3.84549 0
M  V30 1698 C 164.008 1.57036 5.10074 0
M  V30 1699 O 164.231 0.476645 5.68405 0
M  V30 1700 O 163.165 2.40839 5.51616 0
M  V30 1701 H 166.991 2.06493 2.22698 0
M  V30 1702 H 164.576 1.06301 1.04978 0
M  V30 1703 H 166.458 0.574098 4.17471 0
M  V30 1704 H 165.133 -0.162879 3.2329 0
M  V30 1705 H 164.04 2.14819 3.06274 0
M  V30 1706 H 165.373 2.81021 4.04089 0
M  V30 1707 N 167.025 -1.13721 1.09112 0
M  V30 1708 C 167.972 -2.19031 0.727591 0
M  V30 1709 C 168.942 -1.63555 -0.289656 0
M  V30 1710 O 170.127 -1.90023 -0.172026 0
M  V30 1711 C 167.267 -3.4477 0.15082 0
M  V30 1712 C 166.38 -4.14365 1.22172 0
M  V30 1713 C 165.515 -5.27709 0.608042 0
M  V30 1714 C 164.554 -5.89147 1.66047 0
M  V30 1715 N 163.691 -6.93929 1.06806 0
M  V30 1716 H 168.531 -2.49475 1.62991 0
M  V30 1717 H 166.068 -1.22499 0.81439 0
M  V30 1718 H 168.026 -4.16714 -0.201358 0
M  V30 1719 H 166.656 -3.14787 -0.714783 0
M  V30 1720 H 165.708 -3.40737 1.69122 0
M  V30 1721 H 167.02 -4.56114 2.01895 0
M  V30 1722 H 166.174 -6.06355 0.204523 0
M  V30 1723 H 164.913 -4.872 -0.220769 0
M  V30 1724 H 163.918 -5.09198 2.07357 0
M  V30 1725 H 165.143 -6.31729 2.49189 0
M  V30 1726 H 163.089 -6.55483 0.260476 0
M  V30 1727 H 163.006 -7.34202 1.8023 0
M  V30 1728 H 164.274 -7.76434 0.690644 0
M  V30 1729 N 168.503 -0.877838 -1.30888 0
M  V30 1730 C 169.743 -0.499301 -1.98208 0
M  V30 1731 C 170.107 0.932649 -1.67826 0
M  V30 1732 O 171.308 1.41694 -2.28421 0
M  V30 1733 C 169.579 -0.758221 -3.49265 0
M  V30 1734 S 171.138 -0.480719 -4.36159 0
M  V30 1735 H 167.956 -0.186062 -0.686223 0
M  V30 1736 H 170.558 -1.13556 -1.59139 0
M  V30 1737 H 169.262 -1.79903 -3.68867 0
M  V30 1738 H 168.793 -0.109247 -3.93248 0
M  V30 1739 H 170.808 0.683698 -4.91467 0
M  V30 1740 N 169.982 1.44106 -0.638065 0
M  V30 1741 C 170.892 2.34513 0.0637334 0
M  V30 1742 C 171.908 1.53018 0.828346 0
M  V30 1743 O 173.084 1.85723 0.779036 0
M  V30 1744 C 170.149 3.31095 1.02844 0
M  V30 1745 C 169.21 4.28497 0.26244 0
M  V30 1746 C 168.443 5.20465 1.1812 0
M  V30 1747 O 168.666 5.16514 2.42011 0
M  V30 1748 O 167.6 5.98251 0.661774 0
M  V30 1749 H 171.426 2.95989 -0.68003 0
M  V30 1750 H 169.011 1.43994 -0.398252 0
M  V30 1751 H 170.893 3.90526 1.58327 0
M  V30 1752 H 169.568 2.72144 1.7527 0
M  V30 1753 H 168.475 3.72592 -0.335602 0
M  V30 1754 H 169.808 4.90388 -0.421936 0
M  V30 1755 N 171.46 0.379036 1.52974 0
M  V30 1756 C 172.706 -0.206727 2.01744 0
M  V30 1757 C 173.039 -1.47314 1.26539 0
M  V30 1758 O 172.314 -1.91084 0.362903 0
M  V30 1759 C 172.597 -0.485066 3.56818 0
M  V30 1760 C 172.45 0.795919 4.42702 0
M  V30 1761 C 173.769 -1.28003 4.21074 0
M  V30 1762 H 170.888 -0.0736607 0.73331 0
M  V30 1763 H 173.53 0.506581 1.83122 0
M  V30 1764 H 171.68 -1.09272 3.72816 0
M  V30 1765 H 173.352 1.43307 4.38476 0
M  V30 1766 H 171.595 1.41344 4.10127 0
M  V30 1767 H 172.266 0.555947 5.49193 0
M  V30 1768 H 174.742 -0.765867 4.08991 0
M  V30 1769 H 173.618 -1.44352 5.29579 0
M  V30 1770 H 173.879 -2.29236 3.78026 0
M  V30 1771 N 172.938 -1.57226 0.108567 0
M  V30 1772 C 173.886 -2.16002 -0.862885 0
M  V30 1773 C 174.88 -1.10644 -1.28274 0
M  V30 1774 O 176.086 -1.28966 -1.2557 0
M  V30 1775 H 172.461 -0.691148 -0.296342 0
M  V30 1776 H 174.432 -2.96427 -0.342575 0
M  V30 1777 C 173.181 -2.76576 -2.10716 0
M  V30 1778 H 172.504 -3.5734 -1.793 0
M  V30 1779 H 173.944 -3.21253 -2.76717 0
M  V30 1780 C 172.403 -1.73137 -2.89007 0
M  V30 1781 O 172.933 -1.17842 -3.84026 0
M  V30 1782 N 171.139 -1.43317 -2.52801 0
M  V30 1783 H 170.686 -1.88473 -1.75601 0
M  V30 1784 H 170.644 -0.743485 -3.05483 0
M  V30 1785 N 174.416 0.165178 -1.56732 0
M  V30 1786 C 175.664 0.879068 -1.8198 0
M  V30 1787 C 175.985 1.82514 -0.686561 0
M  V30 1788 O 175.255 1.93694 0.293146 0
M  V30 1789 H 173.835 0.327608 -0.671329 0
M  V30 1790 H 176.497 0.163526 -1.94213 0
M  V30 1791 H 175.593 1.45228 -2.76252 0
M  V30 1792 N 175.894 1.51508 0.433938 0
M  V30 1793 C 176.857 1.72473 1.50949 0
M  V30 1794 C 177.857 0.594725 1.49398 0
M  V30 1795 O 179.047 0.862315 1.5136 0
M  V30 1796 C 176.179 1.78431 2.90474 0
M  V30 1797 H 177.372 2.68467 1.33662 0
M  V30 1798 H 174.925 1.41549 0.662836 0
M  V30 1799 H 175.66 0.842645 3.13161 0
M  V30 1800 H 175.445 2.60558 2.93005 0
M  V30 1801 H 176.935 1.96479 3.68491 0
M  V30 1802 N 177.372 -0.689602 1.41712 0
M  V30 1803 C 178.62 -1.4468 1.4111 0
M  V30 1804 C 178.941 -1.94986 0.0232196 0
M  V30 1805 O 178.211 -1.72097 -0.935913 0
M  V30 1806 H 176.791 -0.536847 0.519427 0
M  V30 1807 H 179.453 -0.815825 1.77004 0
M  V30 1808 H 178.549 -2.30706 2.10193 0
M  V30 1809 N 178.85 -1.27639 -0.924453 0
M  V30 1810 C 179.813 -1.10681 -2.00705 0
M  V30 1811 C 180.813 -0.0497823 -1.60723 0
M  V30 1812 O 182.003 -0.294654 -1.7169 0
M  V30 1813 C 179.135 -0.687164 -3.33902 0
M  V30 1814 H 180.328 -2.06817 -2.17179 0
M  V30 1815 H 177.881 -1.10473 -1.10569 0
M  V30 1816 H 178.616 0.275439 -3.23128 0
M  V30 1817 H 178.401 -1.45061 -3.6428 0
M  V30 1818 H 179.891 -0.590853 -4.13399 0
M  V30 1819 N 180.328 1.1314 -1.09713 0
M  V30 1820 C 181.278 2.16709 -0.708593 0
M  V30 1821 C 182.262 1.58471 0.278523 0
M  V30 1822 O 183.454 1.76779 0.088427 0
M  V30 1823 C 180.583 3.43039 -0.133923 0
M  V30 1824 C 179.669 4.08277 -1.14763 0
M  V30 1825 N 180.06 4.48637 -2.33577 0
M  V30 1826 C 178.358 4.34954 -0.986446 0
M  V30 1827 C 179.059 4.9952 -2.98085 0
M  V30 1828 N 178.035 4.94561 -2.25632 0
M  V30 1829 H 181.837 2.45672 -1.61315 0
M  V30 1830 H 179.351 1.29967 -0.973775 0
M  V30 1831 H 181.348 4.16583 0.162465 0
M  V30 1832 H 180.008 3.15549 0.765447 0
M  V30 1833 H 181.019 4.41246 -2.7115 0
M  V30 1834 H 177.696 4.17258 -0.142008 0
M  V30 1835 H 179.086 5.40521 -3.99108 0
M  V30 1836 N 181.806 0.884767 1.30421 0
M  V30 1837 C 183.217 0.553656 1.78302 0
M  V30 1838 C 183.568 -0.930153 1.7275 0
M  V30 1839 O 182.693 -1.72681 1.30423 0
M  V30 1840 C 183.288 0.998234 3.2376 0
M  V30 1841 C 181.847 0.71854 3.69478 0
M  V30 1842 C 180.994 1.18132 2.50879 0
M  V30 1843 H 183.945 1.06901 1.17294 0
M  V30 1844 H 183.966 0.327118 3.79091 0
M  V30 1845 H 183.478 2.0782 3.27769 0
M  V30 1846 H 181.579 -0.349444 3.70958 0
M  V30 1847 H 181.692 1.30595 4.60958 0
M  V30 1848 H 180.056 0.600669 2.47516 0
M  V30 1849 H 180.839 2.26902 2.57624 0
M  V30 1850 N 183.284 -1.43765 0.645699 0
M  V30 1851 C 184.214 -2.33471 -0.0370477 0
M  V30 1852 C 185.195 -1.49042 -0.819779 0
M  V30 1853 O 186.38 -1.77726 -0.782758 0
M  V30 1854 C 183.51 -3.32311 -1.0093 0
M  V30 1855 C 182.464 -4.2667 -0.337201 0
M  V30 1856 C 181.79 -5.1549 -1.42037 0
M  V30 1857 C 183.09 -5.16657 0.765706 0
M  V30 1858 H 184.784 -2.90809 0.712069 0
M  V30 1859 H 182.33 -1.39834 0.343876 0
M  V30 1860 H 184.283 -3.9396 -1.49578 0
M  V30 1861 H 183.007 -2.73213 -1.78948 0
M  V30 1862 H 181.666 -3.66374 0.128771 0
M  V30 1863 H 181.314 -4.52735 -2.1918 0
M  V30 1864 H 181.014 -5.79438 -0.975966 0
M  V30 1865 H 182.538 -5.80012 -1.90838 0
M  V30 1866 H 183.952 -5.72158 0.361702 0
M  V30 1867 H 182.349 -5.89286 1.13413 0
M  V30 1868 H 183.419 -4.56796 1.62683 0
M  V30 1869 N 184.763 -0.387143 -1.52771 0
M  V30 1870 C 186.01 0.195735 -2.01552 0
M  V30 1871 C 186.338 1.46995 -1.27369 0
M  V30 1872 O 185.593 1.92325 -0.361879 0
M  V30 1873 C 185.892 0.512209 -3.53711 0
M  V30 1874 C 185.558 -0.670202 -4.45891 0
M  V30 1875 C 184.22 -0.994586 -4.70809 0
M  V30 1876 C 186.572 -1.46134 -5.00294 0
M  V30 1877 C 183.9 -2.11169 -5.4738 0
M  V30 1878 C 186.252 -2.56903 -5.78086 0
M  V30 1879 C 184.916 -2.89852 -6.01284 0
M  V30 1880 H 184.186 0.0716246 -0.73753 0
M  V30 1881 H 186.833 -0.524046 -1.8419 0
M  V30 1882 H 185.138 1.31329 -3.69134 0
M  V30 1883 H 186.835 0.975804 -3.88946 0
M  V30 1884 H 183.425 -0.407366 -4.2666 0
M  V30 1885 H 187.609 -1.22397 -4.80971 0
M  V30 1886 H 182.865 -2.3707 -5.63567 0
M  V30 1887 H 187.039 -3.18608 -6.19243 0
M  V30 1888 H 184.666 -3.76533 -6.60399 0
M  V30 1889 N 186.241 1.57166 -0.116904 0
M  V30 1890 C 187.204 2.14039 0.819742 0
M  V30 1891 C 188.204 1.07477 1.19605 0
M  V30 1892 O 189.394 1.33263 1.1219 0
M  V30 1893 C 186.526 2.67891 2.10826 0
M  V30 1894 H 187.719 2.98128 0.325511 0
M  V30 1895 H 185.272 1.55739 0.132312 0
M  V30 1896 H 186.007 1.87384 2.64685 0
M  V30 1897 H 185.792 3.45823 1.84793 0
M  V30 1898 H 187.282 3.11809 2.77785 0
M  V30 1899 N 187.719 -0.156864 1.56817 0
M  V30 1900 C 188.966 -0.871125 1.82805 0
M  V30 1901 C 189.294 -1.81611 0.696262 0
M  V30 1902 O 188.549 -1.93141 -0.315459 0
M  V30 1903 C 188.848 -1.68737 3.1506 0
M  V30 1904 C 188.514 -0.890045 4.42028 0
M  V30 1905 C 187.176 -0.670042 4.76512 0
M  V30 1906 C 189.528 -0.331769 5.20143 0
M  V30 1907 C 186.856 0.119104 5.86579 0
M  V30 1908 C 189.208 0.444365 6.31037 0
M  V30 1909 C 187.872 0.675035 6.64078 0
M  V30 1910 H 187.142 -0.318767 0.668931 0
M  V30 1911 H 189.789 -0.135274 1.91022 0
M  V30 1912 H 188.094 -2.49304 3.0225 0
M  V30 1913 H 189.791 -2.24331 3.3238 0
M  V30 1914 H 186.381 -1.07157 4.14988 0
M  V30 1915 H 190.565 -0.489043 4.93885 0
M  V30 1916 H 185.821 0.307417 6.10627 0
M  V30 1917 H 189.995 0.884139 6.90765 0
M  V30 1918 H 187.622 1.28839 7.49203 0
M  V30 1919 N 189.197 -1.51736 -0.425897 0
M  V30 1920 C 190.127 -1.76827 -1.52494 0
M  V30 1921 C 191.108 -0.618524 -1.58456 0
M  V30 1922 O 192.293 -0.862416 -1.74 0
M  V30 1923 C 189.423 -1.90374 -2.90474 0
M  V30 1924 C 188.377 -3.0588 -2.99369 0
M  V30 1925 C 187.703 -3.04625 -4.3944 0
M  V30 1926 C 189.003 -4.45644 -2.72394 0
M  V30 1927 H 190.697 -2.68855 -1.31748 0
M  V30 1928 H 188.243 -1.29372 -0.632362 0
M  V30 1929 H 190.196 -2.0651 -3.6733 0
M  V30 1930 H 188.92 -0.95004 -3.12477 0
M  V30 1931 H 187.579 -2.89467 -2.24954 0
M  V30 1932 H 187.227 -2.0701 -4.58428 0
M  V30 1933 H 186.927 -3.82195 -4.46319 0
M  V30 1934 H 188.451 -3.22869 -5.18255 0
M  V30 1935 H 189.865 -4.62348 -3.38979 0
M  V30 1936 H 188.262 -5.25006 -2.9067 0
M  V30 1937 H 189.332 -4.54893 -1.67929 0
M  V30 1938 N 190.675 0.682077 -1.42076 0
M  V30 1939 C 192.091 0.994324 -1.24841 0
M  V30 1940 C 192.291 2.0096 -0.147389 0
M  V30 1941 O 191.347 2.47822 0.483782 0
M  V30 1942 C 192.66 1.50607 -2.60265 0
M  V30 1943 C 194.208 1.62421 -2.6756 0
M  V30 1944 C 194.683 2.16994 -4.03333 0
M  V30 1945 N 196.174 2.24337 -4.0525 0
M  V30 1946 C 196.909 2.67621 -5.07116 0
M  V30 1947 N 196.405 3.1041 -6.19368 0
M  V30 1948 N 198.198 2.67305 -4.94474 0
M  V30 1949 H 190.349 0.00973908 -2.12398 0
M  V30 1950 H 192.612 0.0668593 -0.945639 0
M  V30 1951 H 192.318 0.834583 -3.41654 0
M  V30 1952 H 192.192 2.48602 -2.83684 0
M  V30 1953 H 194.579 2.28678 -1.86521 0
M  V30 1954 H 194.66 0.629352 -2.47937 0
M  V30 1955 H 194.304 1.51349 -4.84826 0
M  V30 1956 H 194.234 3.17258 -4.20304 0
M  V30 1957 H 196.725 1.94158 -3.24209 0
M  V30 1958 H 197.038 3.42103 -6.92954 0
M  V30 1959 H 195.383 3.08286 -6.22884 0
M  V30 1960 H 198.574 2.33233 -4.05857 0
M  V30 1961 H 198.747 3.00718 -5.73997 0
M  V30 1962 N 192.153 1.28127 0.917671 0
M  V30 1963 C 193.063 1.13556 2.05286 0
M  V30 1964 C 194.079 0.0630914 1.73886 0
M  V30 1965 O 195.255 0.271598 1.9956 0
M  V30 1966 C 192.32 0.794676 3.3747 0
M  V30 1967 C 191.381 1.94909 3.82504 0
M  V30 1968 C 190.614 1.62437 5.0838 0
M  V30 1969 O 190.837 0.536905 5.67867 0
M  V30 1970 O 189.771 2.46677 5.4903 0
M  V30 1971 H 193.597 2.08844 2.20495 0
M  V30 1972 H 191.182 1.07409 1.03845 0
M  V30 1973 H 193.064 0.618344 4.16839 0
M  V30 1974 H 191.739 -0.128581 3.23445 0
M  V30 1975 H 190.646 2.18055 3.03978 0
M  V30 1976 H 191.979 2.85291 4.01086 0
M  V30 1977 N 193.631 -1.12557 1.10312 0
M  V30 1978 C 194.594 -2.16434 0.75424 0
M  V30 1979 C 195.594 -1.59278 -0.220685 0
M  V30 1980 O 196.784 -1.742 0.00230591 0
M  V30 1981 C 193.916 -3.40699 0.116987 0
M  V30 1982 H 195.109 -2.48811 1.67431 0
M  V30 1983 H 192.662 -1.27542 0.903475 0
M  V30 1984 H 193.397 -3.13921 -0.813877 0
M  V30 1985 H 193.182 -3.83459 0.818613 0
M  V30 1986 H 194.672 -4.17451 -0.111387 0
M  V30 1987 N 195.109 -0.891671 -1.2995 0
M  V30 1988 C 196.039 -0.379797 -2.30391 0
M  V30 1989 C 197.02 0.540919 -1.6127 0
M  V30 1990 O 198.205 0.453352 -1.88834 0
M  V30 1991 C 195.335 0.400654 -3.44981 0
M  V30 1992 C 194.289 -0.428905 -4.25846 0
M  V30 1993 C 193.615 0.478557 -5.32554 0
M  V30 1994 C 194.915 -1.67458 -4.94727 0
M  V30 1995 H 196.609 -1.21914 -2.73454 0
M  V30 1996 H 194.155 -0.587675 -1.31462 0
M  V30 1997 H 196.108 0.769434 -4.14316 0
M  V30 1998 H 194.832 1.27371 -3.0074 0
M  V30 1999 H 193.491 -0.779911 -3.58208 0
M  V30 2000 H 193.139 1.34951 -4.84559 0
M  V30 2001 H 192.839 -0.0727433 -5.87555 0
M  V30 2002 H 194.363 0.843705 -6.04743 0
M  V30 2003 H 195.777 -1.376 -5.56542 0
M  V30 2004 H 194.174 -2.16659 -5.59624 0
M  V30 2005 H 195.244 -2.41518 -4.20473 0
M  V30 2006 N 196.587 1.43421 -0.653314 0
M  V30 2007 C 197.998 1.85065 -0.246537 0
M  V30 2008 C 198.349 1.54688 1.2069 0
M  V30 2009 O 197.474 0.995896 1.92122 0
M  V30 2010 C 198.069 3.35922 -0.440666 0
M  V30 2011 C 196.628 3.76297 -0.0882064 0
M  V30 2012 C 195.775 2.67147 -0.743484 0
M  V30 2013 H 198.726 1.33572 -0.856979 0
M  V30 2014 H 198.747 3.79204 0.313798 0
M  V30 2015 H 198.259 3.58 -1.49858 0
M  V30 2016 H 196.36 3.5983 0.96711 0
M  V30 2017 H 196.473 4.76338 -0.513738 0
M  V30 2018 H 194.837 2.54086 -0.176712 0
M  V30 2019 H 195.62 2.92053 -1.80443 0
M  V30 2020 N 198.065 0.39524 1.52563 0
M  V30 2021 C 199.028 -0.425001 2.25225 0
M  V30 2022 C 200.028 -0.985266 1.27079 0
M  V30 2023 O 201.218 -0.866332 1.5113 0
M  V30 2024 C 198.35 -1.59686 3.01186 0
M  V30 2025 H 199.543 0.211233 2.99155 0
M  V30 2026 H 197.096 0.147472 1.55603 0
M  V30 2027 H 197.831 -2.27035 2.31572 0
M  V30 2028 H 197.616 -1.20176 3.73229 0
M  V30 2029 H 199.106 -2.17743 3.5634 0
M  V30 2030 N 199.544 -1.57102 0.125237 0
M  V30 2031 C 200.955 -1.82384 -0.399142 0
M  V30 2032 C 201.306 -1.04276 -1.66195 0
M  V30 2033 O 200.431 -0.281269 -2.14564 0
M  V30 2034 C 201.026 -3.30821 -0.730932 0
M  V30 2035 C 199.585 -3.56762 -1.19992 0
M  V30 2036 C 198.732 -2.7649 -0.211792 0
M  V30 2037 H 201.683 -1.54786 0.350277 0
M  V30 2038 H 201.704 -3.4579 -1.58775 0
M  V30 2039 H 201.216 -3.87643 0.188345 0
M  V30 2040 H 199.317 -3.05305 -2.13588 0
M  V30 2041 H 199.43 -4.65317 -1.14093 0
M  V30 2042 H 197.794 -2.4489 -0.700085 0
M  V30 2043 H 198.577 -3.36073 0.700691 0
M  V30 2044 N 201.022 0.148545 -1.56898 0
M  V30 2045 C 202.247 0.880385 -1.87787 0
M  V30 2046 C 202.672 1.74018 -0.714093 0
M  V30 2047 O 202.03 1.78153 0.336343 0
M  V30 2048 C 202.078 1.71422 -3.17249 0
M  V30 2049 O 201.182 2.8183 -3.01074 0
M  V30 2050 H 200.523 0.245301 -0.617028 0
M  V30 2051 H 203.053 0.139826 -2.04122 0
M  V30 2052 H 203.063 2.10954 -3.49231 0
M  V30 2053 H 201.738 1.08284 -4.01556 0
M  V30 2054 H 200.315 2.45715 -2.80497 0
M  V30 2055 N 202.5 1.5196 0.417844 0
M  V30 2056 C 203.777 1.56146 1.17803 0
M  V30 2057 C 204.157 0.337275 2.08388 0
M  V30 2058 O 203.505 -0.676447 2.18258 0
M  V30 2059 C 203.715 2.88566 1.96293 0
M  V30 2060 C 205.063 3.41244 2.52662 0
M  V30 2061 O 206.087 2.90247 2.06483 0
M  V30 2062 O 204.946 4.30273 3.36938 0
M  V30 2063 H 202.04 0.628598 0.537395 0
M  V30 2064 H 204.586 1.64283 0.425331 0
M  V30 2065 H 203.358 3.69116 1.2988 0
M  V30 2066 H 202.981 2.83681 2.78587 0
M  V30 2067 N 203.978 -0.674533 1.42435 0
M  V30 2068 C 205.255 -1.4305 1.33402 0
M  V30 2069 C 205.635 -2.11081 -0.0284674 0
M  V30 2070 O 204.983 -2.03257 -1.04397 0
M  V30 2071 C 205.193 -2.43272 2.50239 0
M  V30 2072 C 206.541 -3.07907 2.92367 0
M  V30 2073 O 207.565 -2.53599 2.50132 0
M  V30 2074 O 206.424 -4.0632 3.65467 0
M  V30 2075 H 203.518 -0.638076 0.526106 0
M  V30 2076 H 206.064 -0.703235 1.54443 0
M  V30 2077 H 204.836 -1.91803 3.41068 0
M  V30 2078 H 204.459 -3.23479 2.31186 0
M  V30 2079 N 205.456 -1.28612 -0.910864 0
M  V30 2080 C 206.419 -1.12803 -1.9952 0
M  V30 2081 C 207.419 -0.0668264 -1.60661 0
M  V30 2082 O 208.609 -0.312847 -1.71368 0
M  V30 2083 C 205.741 -0.72254 -3.33155 0
M  V30 2084 H 206.934 -2.09109 -2.14973 0
M  V30 2085 H 204.487 -1.11639 -1.09391 0
M  V30 2086 H 205.222 0.241152 -3.23402 0
M  V30 2087 H 205.007 -1.48916 -3.62721 0
M  V30 2088 H 206.497 -0.634666 -4.12749 0
M  V30 2089 N 206.934 1.1197 -1.10907 0
M  V30 2090 C 208.162 1.87402 -0.876824 0
M  V30 2091 C 208.577 1.79894 0.573025 0
M  V30 2092 O 207.934 1.17629 1.39534 0
M  V30 2093 C 207.985 3.36428 -1.32282 0
M  V30 2094 O 207.706 3.43765 -2.71582 0
M  V30 2095 C 209.207 4.28783 -1.12518 0
M  V30 2096 H 206.427 0.592793 -0.314384 0
M  V30 2097 H 208.971 1.41649 -1.47499 0
M  V30 2098 H 207.126 3.79706 -0.768229 0
M  V30 2099 H 207.54 4.3652 -2.90776 0
M  V30 2100 H 209.014 5.31613 -1.48633 0
M  V30 2101 H 209.491 4.39153 -0.0642394 0
M  V30 2102 H 210.097 3.91291 -1.66648 0
M  V30 2103 N 208.412 0.89855 1.29475 0
M  V30 2104 C 209.375 0.380272 2.26023 0
M  V30 2105 C 210.375 -0.484891 1.53315 0
M  V30 2106 O 211.565 -0.290108 1.71767 0
M  V30 2107 C 208.697 -0.45651 3.3783 0
M  V30 2108 H 209.89 1.23295 2.73383 0
M  V30 2109 H 207.443 0.676589 1.40897 0
M  V30 2110 H 208.178 -1.32922 2.95808 0
M  V30 2111 H 207.963 0.163393 3.91759 0
M  V30 2112 H 209.453 -0.810466 4.0966 0
M  V30 2113 N 209.89 -1.43072 0.660911 0
M  V30 2114 C 210.82 -2.33497 -0.0122829 0
M  V30 2115 C 211.801 -1.49903 -0.803925 0
M  V30 2116 O 212.986 -1.78546 -0.763864 0
M  V30 2117 C 210.116 -3.33363 -0.973994 0
M  V30 2118 C 209.07 -4.27003 -0.291928 0
M  V30 2119 C 208.396 -5.16967 -1.36562 0
M  V30 2120 C 209.696 -5.15816 0.820462 0
M  V30 2121 H 211.39 -2.90038 0.742873 0
M  V30 2122 H 208.936 -1.39461 0.358688 0
M  V30 2123 H 210.889 -3.95524 -1.45392 0
M  V30 2124 H 209.613 -2.75095 -1.7604 0
M  V30 2125 H 208.272 -3.66217 0.167623 0
M  V30 2126 H 207.92 -4.55034 -2.14366 0
M  V30 2127 H 207.62 -5.80441 -0.914454 0
M  V30 2128 H 209.144 -5.82003 -1.84675 0
M  V30 2129 H 210.558 -5.71742 0.422366 0
M  V30 2130 H 208.955 -5.8805 1.19656 0
M  V30 2131 H 210.025 -4.55045 1.67518 0
M  V30 2132 N 211.368 -0.403325 -1.52352 0
M  V30 2133 C 212.301 0.469463 -2.23319 0
M  V30 2134 C 213.279 1.05272 -1.23922 0
M  V30 2135 O 214.463 1.10169 -1.52954 0
M  V30 2136 C 211.59 1.6511 -2.9573 0
M  V30 2137 C 210.636 1.19178 -4.0951 0
M  V30 2138 S 211.469 0.161718 -5.35256 0
M  V30 2139 C 212.625 1.34882 -6.11194 0
M  V30 2140 H 212.858 -0.133134 -2.97002 0
M  V30 2141 H 210.391 -0.187588 -1.53256 0
M  V30 2142 H 212.349 2.3287 -3.38056 0
M  V30 2143 H 211.01 2.22503 -2.21701 0
M  V30 2144 H 210.203 2.07444 -4.59329 0
M  V30 2145 H 209.805 0.592911 -3.6927 0
M  V30 2146 H 212.097 2.27345 -6.38217 0
M  V30 2147 H 213.04 0.89128 -7.02468 0
M  V30 2148 H 213.448 1.57198 -5.42171 0
M  V30 2149 N 212.846 1.57033 -0.133567 0
M  V30 2150 C 214.074 2.00044 0.528195 0
M  V30 2151 C 214.489 1.01349 1.59291 0
M  V30 2152 O 213.846 0.00848369 1.82498 0
M  V30 2153 C 213.897 3.43018 1.1411 0
M  V30 2154 O 213.618 4.37939 0.11892 0
M  V30 2155 C 215.119 4.01237 1.88477 0
M  V30 2156 H 212.339 0.656517 0.138661 0
M  V30 2157 H 214.883 2.03267 -0.224196 0
M  V30 2158 H 213.038 3.40688 1.84418 0
M  V30 2159 H 213.452 5.21436 0.56613 0
M  V30 2160 H 214.926 5.03314 2.26669 0
M  V30 2161 H 215.403 3.41193 2.76558 0
M  V30 2162 H 216.009 4.07156 1.22898 0
M  V30 2163 N 214.325 -0.140222 1.56975 0
M  V30 2164 C 215.602 -0.880769 1.74648 0
M  V30 2165 C 215.982 -1.99036 0.703404 0
M  V30 2166 O 215.33 -2.26821 -0.27648 0
M  V30 2167 C 215.54 -1.417 3.18939 0
M  V30 2168 C 216.888 -1.87774 3.80823 0
M  V30 2169 O 217.912 -1.51427 3.2241 0
M  V30 2170 O 216.771 -2.54827 4.83452 0
M  V30 2171 H 213.865 -0.416713 0.714338 0
M  V30 2172 H 216.411 -0.125618 1.69234 0
M  V30 2173 H 215.183 -0.619902 3.86359 0
M  V30 2174 H 214.806 -2.23546 3.28805 0
M  V30 2175 N 215.803 -1.52179 -0.40978 0
M  V30 2176 C 217.214 -1.58377 -0.988615 0
M  V30 2177 C 217.565 -0.423879 -1.91566 0
M  V30 2178 O 216.69 0.455844 -2.11544 0
M  V30 2179 C 217.285 -2.87044 -1.79976 0
M  V30 2180 C 215.844 -2.95722 -2.32863 0
M  V30 2181 C 214.991 -2.53309 -1.12828 0
M  V30 2182 H 217.942 -1.57558 -0.190039 0
M  V30 2183 H 217.963 -2.7236 -2.65707 0
M  V30 2184 H 217.475 -3.71444 -1.12478 0
M  V30 2185 H 215.576 -2.15814 -3.03735 0
M  V30 2186 H 215.689 -3.99951 -2.63773 0
M  V30 2187 H 214.053 -2.07142 -1.48204 0
M  V30 2188 H 214.836 -3.40082 -0.46897 0
M  V30 2189 N 217.281 0.66697 -1.42791 0
M  V30 2190 C 218.228 1.7803 -1.4688 0
M  V30 2191 C 219.198 1.6299 -0.319919 0
M  V30 2192 O 220.383 1.83432 -0.525118 0
M  V30 2193 C 217.523 3.1611 -1.38451 0
M  V30 2194 C 216.636 3.42381 -2.63437 0
M  V30 2195 C 215.771 4.70232 -2.47094 0
M  V30 2196 C 214.81 4.89564 -3.67415 0
M  V30 2197 N 213.947 6.08661 -3.49966 0
M  V30 2198 H 218.787 1.7387 -2.42019 0
M  V30 2199 H 216.324 0.84868 -1.20149 0
M  V30 2200 H 218.282 3.95914 -1.31561 0
M  V30 2201 H 216.912 3.19374 -0.469033 0
M  V30 2202 H 215.964 2.56774 -2.80662 0
M  V30 2203 H 217.276 3.52557 -3.52853 0
M  V30 2204 H 216.43 5.5814 -2.37834 0
M  V30 2205 H 215.169 4.62353 -1.5518 0
M  V30 2206 H 214.174 4.00096 -3.77099 0
M  V30 2207 H 215.399 4.99282 -4.6032 0
M  V30 2208 H 213.345 6.0194 -2.60776 0
M  V30 2209 H 213.262 6.19733 -4.32975 0
M  V30 2210 H 214.53 6.99226 -3.44532 0
M  V30 2211 N 218.759 1.29093 0.90403 0
M  V30 2212 C 219.689 1.16401 2.02418 0
M  V30 2213 C 220.67 0.0593085 1.69997 0
M  V30 2214 O 221.855 0.238021 1.92736 0
M  V30 2215 C 218.985 0.835233 3.37107 0
M  V30 2216 C 217.939 1.89578 3.83724 0
M  V30 2217 C 217.265 1.42041 5.15489 0
M  V30 2218 C 218.565 3.30394 4.04521 0
M  V30 2219 H 220.259 2.10109 2.13295 0
M  V30 2220 H 217.805 1.01157 1.02486 0
M  V30 2221 H 219.758 0.733169 4.14973 0
M  V30 2222 H 218.482 -0.137543 3.2631 0
M  V30 2223 H 217.141 1.98715 3.08071 0
M  V30 2224 H 216.789 0.436426 5.01103 0
M  V30 2225 H 216.489 2.12964 5.4765 0
M  V30 2226 H 218.013 1.33176 5.959 0
M  V30 2227 H 219.427 3.24123 4.72882 0
M  V30 2228 H 217.824 3.99237 4.48029 0
M  V30 2229 H 218.894 3.73692 3.09002 0
M  V30 2230 N 220.237 -1.11381 1.11499 0
M  V30 2231 C 221.486 -1.82494 0.858993 0
M  V30 2232 C 221.799 -1.85605 -0.617278 0
M  V30 2233 O 223.005 -2.52824 -0.989552 0
M  V30 2234 C 221.461 -3.27745 1.48699 0
M  V30 2235 C 221.069 -3.32961 2.99735 0
M  V30 2236 C 222.813 -4.03754 1.31085 0
M  V30 2237 C 220.72 -4.72612 3.55516 0
M  V30 2238 H 219.65 -0.683802 0.317696 0
M  V30 2239 H 222.301 -1.25331 1.34031 0
M  V30 2240 H 220.683 -3.84844 0.933339 0
M  V30 2241 H 221.857 -2.85741 3.61509 0
M  V30 2242 H 220.172 -2.70433 3.16631 0
M  V30 2243 H 222.769 -5.06891 1.70192 0
M  V30 2244 H 223.112 -4.15527 0.253496 0
M  V30 2245 H 223.645 -3.53043 1.83318 0
M  V30 2246 H 220.384 -4.66036 4.60967 0
M  V30 2247 H 219.904 -5.2024 2.98513 0
M  V30 2248 H 221.583 -5.4157 3.53992 0
M  V30 2249 N 221.715 -0.905404 -1.28997 0
M  V30 2250 C 222.943 -0.549846 -1.9946 0
M  V30 2251 C 223.358 0.866834 -1.67724 0
M  V30 2252 O 222.715 1.57298 -0.925404 0
M  V30 2253 C 222.766 -0.739387 -3.53858 0
M  V30 2254 O 222.487 -2.10031 -3.84472 0
M  V30 2255 C 223.988 -0.389541 -4.41585 0
M  V30 2256 H 221.208 -0.210429 -0.637151 0
M  V30 2257 H 223.752 -1.21632 -1.64396 0
M  V30 2258 H 221.907 -0.120023 -3.87214 0
M  V30 2259 H 222.321 -2.13385 -4.79132 0
M  V30 2260 H 223.795 -0.572972 -5.49018 0
M  V30 2261 H 224.272 0.673756 -4.34001 0
M  V30 2262 H 224.878 -0.986089 -4.1371 0
M  V30 2263 N 223.193 1.4272 -0.668489 0
M  V30 2264 C 224.439 2.02443 -0.197076 0
M  V30 2265 C 224.794 1.51882 1.18109 0
M  V30 2266 O 224.087 0.708618 1.78015 0
M  V30 2267 C 224.281 3.57021 -0.164499 0
M  V30 2268 C 224.11 4.22583 -1.53797 0
M  V30 2269 C 222.88 4.58019 -2.13416 0
M  V30 2270 C 225.078 4.50588 -2.47941 0
M  V30 2271 N 223.06 5.08729 -3.4361 0
M  V30 2272 C 224.431 5.02782 -3.62782 0
M  V30 2273 C 226.486 4.32571 -2.46551 0
M  V30 2274 C 225.189 5.38852 -4.76478 0
M  V30 2275 C 227.215 4.69713 -3.59338 0
M  V30 2276 C 226.577 5.22053 -4.72906 0
M  V30 2277 H 222.676 0.773214 -0.116894 0
M  V30 2278 H 225.26 1.73673 -0.880108 0
M  V30 2279 H 223.431 3.85323 0.487925 0
M  V30 2280 H 225.163 4.03439 0.319207 0
M  V30 2281 H 221.918 4.43566 -1.65969 0
M  V30 2282 H 222.342 5.38521 -4.10273 0
M  V30 2283 H 226.984 3.91365 -1.59978 0
M  V30 2284 H 224.702 5.78993 -5.63731 0
M  V30 2285 H 228.288 4.57454 -3.59482 0
M  V30 2286 H 227.168 5.50258 -5.58736 0
M  V30 2287 N 224.671 0.411399 1.52136 0
M  V30 2288 C 225.896 -0.165538 2.06738 0
M  V30 2289 C 226.321 -1.379 1.27926 0
M  V30 2290 O 225.679 -1.78628 0.310114 0
M  V30 2291 C 225.727 -0.492124 3.57226 0
M  V30 2292 O 224.831 -1.58276 3.80818 0
M  V30 2293 H 224.172 -0.0132132 0.663869 0
M  V30 2294 H 226.702 0.585253 1.96051 0
M  V30 2295 H 226.712 -0.750104 4.01045 0
M  V30 2296 H 225.387 0.394922 4.14021 0
M  V30 2297 H 223.964 -1.31677 3.48877 0
M  V30 2298 N 226.149 -1.5696 0.141893 0
M  V30 2299 C 227.56 -1.82797 -0.379776 0
M  V30 2300 C 227.911 -1.06033 -1.6508 0
M  V30 2301 O 227.036 -0.304011 -2.14254 0
M  V30 2302 C 227.631 -3.31578 -0.695802 0
M  V30 2303 C 226.19 -3.58014 -1.16201 0
M  V30 2304 C 225.337 -2.76699 -0.182455 0
M  V30 2305 H 228.288 -1.54406 0.366675 0
M  V30 2306 H 228.309 -3.47454 -1.55099 0
M  V30 2307 H 227.821 -3.87421 0.229449 0
M  V30 2308 H 225.922 -3.07553 -2.10338 0
M  V30 2309 H 226.035 -4.66501 -1.09151 0
M  V30 2310 H 224.399 -2.45618 -0.674072 0
M  V30 2311 H 225.182 -3.35311 0.736297 0
M  V30 2312 N 227.627 0.131896 -1.57047 0
M  V30 2313 C 228.873 0.843179 -1.84441 0
M  V30 2314 C 229.206 1.80129 -0.725749 0
M  V30 2315 O 228.481 1.92624 0.269469 0
M  V30 2316 C 228.764 1.60442 -3.22382 0
M  V30 2317 C 228.617 0.666782 -4.4483 0
M  V30 2318 C 229.936 2.56354 -3.5773 0
M  V30 2319 H 227.055 0.305081 -0.670891 0
M  V30 2320 H 229.697 0.107839 -1.89694 0
M  V30 2321 H 227.847 2.23128 -3.18035 0
M  V30 2322 H 229.519 0.0497646 -4.61273 0
M  V30 2323 H 227.762 -0.022609 -4.33794 0
M  V30 2324 H 228.433 1.23579 -5.37989 0
M  V30 2325 H 230.909 2.0378 -3.62785 0
M  V30 2326 H 229.785 3.06657 -4.5525 0
M  V30 2327 H 230.046 3.38419 -2.84473 0
M  V30 2328 N 229.106 1.52395 0.401703 0
M  V30 2329 C 230.346 1.68498 1.15705 0
M  V30 2330 C 230.71 0.409748 1.87577 0
M  V30 2331 O 231.911 0.446983 2.65058 0
M  V30 2332 C 230.182 2.87789 2.11924 0
M  V30 2333 S 231.741 3.24415 2.95466 0
M  V30 2334 H 228.559 0.593267 0.391862 0
M  V30 2335 H 231.161 1.90408 0.443282 0
M  V30 2336 H 229.865 3.7884 1.57824 0
M  V30 2337 H 229.396 2.68175 2.87829 0
M  V30 2338 H 231.411 2.73614 4.13944 0
M  V30 2339 N 230.584 -0.659388 1.43143 0
M  V30 2340 C 232 -0.974337 1.26407 0
M  V30 2341 C 232.2 -2.007 0.179341 0
M  V30 2342 O 231.256 -2.4856 -0.444295 0
M  V30 2343 C 232.569 -1.46447 2.62628 0
M  V30 2344 C 234.117 -1.58144 2.7011 0
M  V30 2345 C 234.592 -2.1055 4.06734 0
M  V30 2346 N 236.083 -2.17861 4.08767 0
M  V30 2347 C 236.818 -2.59519 5.1131 0
M  V30 2348 N 236.314 -3.00518 6.24228 0
M  V30 2349 N 238.107 -2.59404 4.98664 0
M  V30 2350 H 230.258 0.0240528 2.12386 0
M  V30 2351 H 232.521 -0.0518065 0.946583 0
M  V30 2352 H 232.227 -0.780123 3.42939 0
M  V30 2353 H 232.101 -2.44058 2.87603 0
M  V30 2354 H 234.488 -2.25682 1.90136 0
M  V30 2355 H 234.569 -0.589828 2.48907 0
M  V30 2356 H 234.213 -1.43616 4.87172 0
M  V30 2357 H 234.143 -3.10531 4.25298 0
M  V30 2358 H 236.634 -1.88975 3.27257 0
M  V30 2359 H 236.947 -3.31036 6.98309 0
M  V30 2360 H 235.292 -2.98337 6.2771 0
M  V30 2361 H 238.483 -2.26747 4.09516 0
M  V30 2362 H 238.656 -2.91548 5.78709 0
M  V30 2363 N 232.062 -1.29571 -0.897171 0
M  V30 2364 C 233.01 -1.14802 -2.02295 0
M  V30 2365 C 234.004 -0.0629637 -1.69283 0
M  V30 2366 O 235.21 -0.222945 -1.78614 0
M  V30 2367 H 231.585 -0.354692 -0.663097 0
M  V30 2368 H 233.556 -2.10108 -2.11889 0
M  V30 2369 C 232.305 -0.843966 -3.37302 0
M  V30 2370 H 231.628 -1.67093 -3.63208 0
M  V30 2371 H 233.068 -0.780672 -4.16751 0
M  V30 2372 C 231.527 0.452843 -3.33843 0
M  V30 2373 O 232.057 1.47813 -3.73516 0
M  V30 2374 N 230.263 0.459601 -2.86943 0
M  V30 2375 H 229.81 -0.375213 -2.54853 0
M  V30 2376 H 229.768 1.32726 -2.85011 0
M  V30 2377 N 233.54 1.10788 -1.12088 0
M  V30 2378 C 234.817 1.79136 -0.785476 0
M  V30 2379 C 235.197 1.98246 0.725377 0
M  V30 2380 O 234.545 1.57258 1.65778 0
M  V30 2381 C 234.755 3.12375 -1.55636 0
M  V30 2382 C 236.103 3.8731 -1.74001 0
M  V30 2383 O 237.127 3.22085 -1.52117 0
M  V30 2384 O 235.986 5.04369 -2.10415 0
M  V30 2385 H 233.08 0.776226 -0.285311 0
M  V30 2386 H 235.626 1.1747 -1.2247 0
M  V30 2387 H 234.398 2.93863 -2.5838 0
M  V30 2388 H 234.021 3.81758 -1.11114 0
M  V30 2389 N 235.018 0.912232 1.28515 0
M  V30 2390 C 236.264 0.545405 1.95328 0
M  V30 2391 C 236.597 -0.908313 1.71649 0
M  V30 2392 O 235.872 -1.64575 1.03659 0
M  V30 2393 C 236.155 0.853483 3.4984 0
M  V30 2394 C 236.008 2.35982 3.82926 0
M  V30 2395 C 237.327 0.348589 4.38717 0
M  V30 2396 H 234.446 0.199626 0.709449 0
M  V30 2397 H 237.088 1.1412 1.5191 0
M  V30 2398 H 235.238 0.34643 3.86952 0
M  V30 2399 H 236.91 2.93738 3.55691 0
M  V30 2400 H 235.153 2.81543 3.30024 0
M  V30 2401 H 235.824 2.52593 4.90816 0
M  V30 2402 H 238.3 0.78294 4.08668 0
M  V30 2403 H 237.176 0.593242 5.45685 0
M  V30 2404 H 237.437 -0.751049 4.35674 0
M  V30 2405 N 236.496 -1.42363 0.676048 0
M  V30 2406 C 237.459 -2.29199 0.00766941 0
M  V30 2407 C 238.459 -1.43389 -0.727745 0
M  V30 2408 O 239.649 -1.64764 -0.56556 0
M  V30 2409 C 236.781 -3.2591 -0.999785 0
M  V30 2410 H 237.974 -2.89794 0.771988 0
M  V30 2411 H 235.527 -1.50024 0.438468 0
M  V30 2412 H 236.262 -2.70256 -1.79255 0
M  V30 2413 H 236.047 -3.89202 -0.475829 0
M  V30 2414 H 237.537 -3.91028 -1.46583 0
M  V30 2415 N 237.974 -0.419461 -1.51915 0
M  V30 2416 C 239.22 0.145505 -2.02879 0
M  V30 2417 C 239.575 1.41926 -1.29903 0
M  V30 2418 O 238.868 1.87383 -0.399782 0
M  V30 2419 C 239.062 0.437067 -3.54717 0
M  V30 2420 C 238.891 -0.806877 -4.42402 0
M  V30 2421 C 237.661 -1.33514 -4.87342 0
M  V30 2422 C 239.859 -1.68796 -4.85811 0
M  V30 2423 N 237.841 -2.53349 -5.59185 0
M  V30 2424 C 239.212 -2.73247 -5.56539 0
M  V30 2425 C 241.267 -1.70449 -4.67816 0
M  V30 2426 C 239.97 -3.79276 -6.11181 0
M  V30 2427 C 241.996 -2.75403 -5.23361 0
M  V30 2428 C 241.358 -3.78575 -5.9402 0
M  V30 2429 H 237.457 0.0145424 -0.781865 0
M  V30 2430 H 240.041 -0.576126 -1.85981 0
M  V30 2431 H 238.212 1.12774 -3.71667 0
M  V30 2432 H 239.944 0.99182 -3.92358 0
M  V30 2433 H 236.699 -0.891657 -4.65131 0
M  V30 2434 H 237.123 -3.14066 -5.99743 0
M  V30 2435 H 241.765 -0.920209 -4.12664 0
M  V30 2436 H 239.483 -4.58554 -6.65397 0
M  V30 2437 H 243.069 -2.77603 -5.113 0
M  V30 2438 H 241.949 -4.58453 -6.36231 0
M  V30 2439 N 239.452 1.56882 -0.150215 0
M  V30 2440 C 240.4 2.18214 0.805313 0
M  V30 2441 C 241.394 1.14006 1.25296 0
M  V30 2442 O 242.6 1.3225 1.22107 0
M  V30 2443 H 238.975 0.698762 0.277913 0
M  V30 2444 H 240.946 2.97231 0.263862 0
M  V30 2445 C 239.695 2.82065 2.03309 0
M  V30 2446 H 239.018 3.61968 1.69763 0
M  V30 2447 H 240.458 3.28477 2.68103 0
M  V30 2448 C 238.917 1.80739 2.84315 0
M  V30 2449 O 239.447 1.27983 3.80767 0
M  V30 2450 N 237.653 1.4997 2.48913 0
M  V30 2451 H 237.2 1.93062 1.70542 0
M  V30 2452 H 237.158 0.824217 3.03404 0
M  V30 2453 N 240.93 -0.123565 1.57115 0
M  V30 2454 C 242.177 -0.832153 1.84612 0
M  V30 2455 C 242.505 -1.80093 0.734627 0
M  V30 2456 O 241.76 -1.93766 -0.27442 0
M  V30 2457 C 242.059 -1.62016 3.18568 0
M  V30 2458 C 241.725 -0.796084 4.43817 0
M  V30 2459 C 240.387 -0.568816 4.77826 0
M  V30 2460 C 242.739 -0.221364 5.2073 0
M  V30 2461 C 240.067 0.243499 5.86194 0
M  V30 2462 C 242.419 0.578117 6.29953 0
M  V30 2463 C 241.083 0.815744 6.62497 0
M  V30 2464 H 240.353 -0.304507 0.675542 0
M  V30 2465 H 243 -0.0947248 1.91266 0
M  V30 2466 H 241.305 -2.42837 3.0747 0
M  V30 2467 H 243.002 -2.17231 3.37064 0
M  V30 2468 H 239.592 -0.983307 4.17168 0
M  V30 2469 H 243.776 -0.384173 4.94811 0
M  V30 2470 H 239.032 0.436871 6.09837 0
M  V30 2471 H 243.206 1.03046 6.88734 0
M  V30 2472 H 240.833 1.44701 7.46301 0
M  V30 2473 N 242.408 -1.52605 -0.393616 0
M  V30 2474 C 243.318 -1.79971 -1.50492 0
M  V30 2475 C 244.334 -0.686181 -1.59899 0
M  V30 2476 O 245.51 -0.973274 -1.76322 0
M  V30 2477 C 242.575 -1.95867 -2.86072 0
M  V30 2478 C 241.636 -3.19781 -2.86424 0
M  V30 2479 C 240.869 -3.34909 -4.15538 0
M  V30 2480 O 241.092 -2.54948 -5.10253 0
M  V30 2481 O 240.026 -4.28141 -4.23059 0
M  V30 2482 H 243.852 -2.74328 -1.30299 0
M  V30 2483 H 241.437 -1.3764 -0.581005 0
M  V30 2484 H 243.319 -2.08056 -3.66457 0
M  V30 2485 H 241.994 -1.04699 -3.063 0
M  V30 2486 H 240.901 -3.13038 -2.04837 0
M  V30 2487 H 242.234 -4.1078 -2.71147 0
M  V30 2488 N 243.887 0.651787 -1.4349 0
M  V30 2489 C 244.834 1.76462 -1.4876 0
M  V30 2490 C 245.804 1.62641 -0.337189 0
M  V30 2491 O 246.989 1.82864 -0.544544 0
M  V30 2492 C 244.129 3.14623 -1.41796 0
M  V30 2493 C 243.242 3.39568 -2.67053 0
M  V30 2494 C 242.377 4.67585 -2.52068 0
M  V30 2495 C 241.416 4.85639 -3.72587 0
M  V30 2496 N 240.553 6.04915 -3.56402 0
M  V30 2497 H 245.393 1.71293 -2.43849 0
M  V30 2498 H 242.93 0.835889 -1.21043 0
M  V30 2499 H 244.888 3.94496 -1.35753 0
M  V30 2500 H 243.518 3.18859 -0.50288 0
M  V30 2501 H 242.57 2.53783 -2.8337 0
M  V30 2502 H 243.882 3.48795 -3.56572 0
M  V30 2503 H 243.036 5.55586 -2.4374 0
M  V30 2504 H 241.775 4.60681 -1.60075 0
M  V30 2505 H 240.78 3.96073 -3.81321 0
M  V30 2506 H 242.005 4.94372 -4.65589 0
M  V30 2507 H 239.951 5.9914 -2.67146 0
M  V30 2508 H 239.868 6.15106 -4.39524 0
M  V30 2509 H 241.136 6.95533 -3.51929 0
M  V30 2510 N 245.365 1.30045 0.890287 0
M  V30 2511 C 246.612 1.18561 1.64163 0
M  V30 2512 C 246.94 -0.260852 1.92743 0
M  V30 2513 O 246.195 -1.20376 1.54299 0
M  V30 2514 C 246.494 1.95409 2.99249 0
M  V30 2515 C 246.16 3.45066 2.90242 0
M  V30 2516 C 244.822 3.85878 2.87492 0
M  V30 2517 C 247.174 4.4039 2.78758 0
M  V30 2518 C 244.502 5.20314 2.7109 0
M  V30 2519 C 246.854 5.74928 2.63894 0
M  V30 2520 C 245.518 6.14986 2.59516 0
M  V30 2521 H 244.788 0.433846 0.600715 0
M  V30 2522 H 247.435 1.61088 1.03552 0
M  V30 2523 H 245.74 1.45501 3.63781 0
M  V30 2524 H 247.437 1.8392 3.56334 0
M  V30 2525 H 244.027 3.12631 2.93189 0
M  V30 2526 H 248.211 4.09806 2.79952 0
M  V30 2527 H 243.467 5.50449 2.66112 0
M  V30 2528 H 247.641 6.48434 2.53981 0
M  V30 2529 H 245.268 7.19104 2.46565 0
M  V30 2530 N 246.843 -1.10192 1.12674 0
M  V30 2531 C 247.773 -2.18652 0.819362 0
M  V30 2532 C 248.754 -1.68698 -0.217915 0
M  V30 2533 O 249.939 -1.94041 -0.0785581 0
M  V30 2534 C 247.069 -3.46202 0.27594 0
M  V30 2535 C 246.023 -4.09444 1.24656 0
M  V30 2536 C 245.349 -5.31725 0.563258 0
M  V30 2537 C 246.649 -4.52863 2.60217 0
M  V30 2538 H 248.343 -2.44622 1.72628 0
M  V30 2539 H 245.889 -1.17571 0.831451 0
M  V30 2540 H 247.842 -4.21372 0.0486149 0
M  V30 2541 H 246.566 -3.1973 -0.666331 0
M  V30 2542 H 245.225 -3.36284 1.45974 0
M  V30 2543 H 244.873 -5.0153 -0.384235 0
M  V30 2544 H 244.573 -5.74991 1.21075 0
M  V30 2545 H 246.097 -6.09624 0.34503 0
M  V30 2546 H 247.511 -5.19294 2.42913 0
M  V30 2547 H 245.908 -5.06986 3.21068 0
M  V30 2548 H 246.978 -3.65656 3.18471 0
M  V30 2549 N 248.321 -0.919034 -1.28029 0
M  V30 2550 C 249.567 -0.555757 -1.95036 0
M  V30 2551 C 249.9 0.899198 -1.72128 0
M  V30 2552 O 249.175 1.64023 -1.04531 0
M  V30 2553 C 249.458 -0.872024 -3.49382 0
M  V30 2554 C 249.311 -2.3801 -3.81669 0
M  V30 2555 C 250.63 -0.37185 -4.38526 0
M  V30 2556 H 247.749 -0.203386 -0.708381 0
M  V30 2557 H 250.391 -1.14924 -1.51303 0
M  V30 2558 H 248.541 -0.366946 -3.86763 0
M  V30 2559 H 250.213 -2.9562 -3.54128 0
M  V30 2560 H 248.456 -2.83289 -3.28526 0
M  V30 2561 H 249.127 -2.55192 -4.8947 0
M  V30 2562 H 251.603 -0.804602 -4.08247 0
M  V30 2563 H 250.479 -0.622173 -5.45362 0
M  V30 2564 H 250.74 0.727934 -4.36066 0
M  V30 2565 N 249.799 1.42003 -0.683588 0
M  V30 2566 C 251.047 2.01015 -0.209101 0
M  V30 2567 C 251.368 1.54365 1.19149 0
M  V30 2568 O 250.638 0.769083 1.80172 0
M  V30 2569 H 249.218 0.743294 -0.074315 0
M  V30 2570 H 251.88 1.73798 -0.882066 0
M  V30 2571 H 250.976 3.11343 -0.2172 0
M  V30 2572 N 251.277 0.427512 1.51691 0
M  V30 2573 C 252.688 -0.0378867 1.86662 0
M  V30 2574 C 253.039 -1.42819 1.34525 0
M  V30 2575 O 252.164 -2.05037 0.692014 0
M  V30 2576 C 252.759 -0.0755266 3.38716 0
M  V30 2577 C 251.318 -0.485309 3.73258 0
M  V30 2578 C 250.465 0.328399 2.75349 0
M  V30 2579 H 253.416 0.64379 1.45055 0
M  V30 2580 H 253.437 -0.887056 3.70016 0
M  V30 2581 H 252.949 0.936487 3.76632 0
M  V30 2582 H 251.05 -1.50329 3.40928 0
M  V30 2583 H 251.163 -0.21693 4.78609 0
M  V30 2584 H 249.527 -0.211905 2.53817 0
M  V30 2585 H 250.31 1.3391 3.16106 0
M  V30 2586 N 252.755 -1.56801 0.158532 0
M  V30 2587 C 254.032 -1.88131 -0.535357 0
M  V30 2588 C 254.412 -1.06638 -1.82186 0
M  V30 2589 O 253.76 -0.156533 -2.27963 0
M  V30 2590 C 253.97 -3.39949 -0.789653 0
M  V30 2591 C 255.318 -4.09416 -1.12533 0
M  V30 2592 O 256.342 -3.45194 -0.878622 0
M  V30 2593 O 255.201 -5.22855 -1.59014 0
M  V30 2594 H 252.295 -0.780143 -0.27442 0
M  V30 2595 H 254.841 -1.68564 0.19601 0
M  V30 2596 H 253.613 -3.91115 0.120353 0
M  V30 2597 H 253.236 -3.65084 -1.57479 0
M  V30 2598 N 254.233 0.115231 -1.57178 0
M  V30 2599 C 255.481 0.820727 -1.84685 0
M  V30 2600 C 255.802 1.80237 -0.744279 0
M  V30 2601 O 255.072 1.94529 0.231375 0
M  V30 2602 H 253.652 0.306084 -0.681411 0
M  V30 2603 H 256.314 0.101656 -1.94635 0
M  V30 2604 H 255.41 1.36366 -2.80733 0
M  V30 2605 N 255.711 1.52812 0.385517 0
M  V30 2606 C 256.957 1.68275 1.13188 0
M  V30 2607 C 257.29 0.423179 1.89533 0
M  V30 2608 O 256.565 -0.579113 1.85679 0
M  V30 2609 C 256.848 2.92001 2.1073 0
M  V30 2610 C 256.701 4.28067 1.38125 0
M  V30 2611 C 258.02 3.11283 3.11113 0
M  V30 2612 H 255.139 0.612352 0.410115 0
M  V30 2613 H 257.781 1.85415 0.414869 0
M  V30 2614 H 255.931 2.77519 2.71874 0
M  V30 2615 H 257.603 4.54324 0.799187 0
M  V30 2616 H 255.846 4.28388 0.683092 0
M  V30 2617 H 256.517 5.10733 2.09417 0
M  V30 2618 H 258.993 3.2482 2.6006 0
M  V30 2619 H 257.869 3.99325 3.76605 0
M  V30 2620 H 258.13 2.25656 3.80173 0
M  V30 2621 N 257.189 -0.644168 1.43834 0
M  V30 2622 C 258.6 -1.22554 1.40845 0
M  V30 2623 C 258.951 -1.9585 0.117115 0
M  V30 2624 O 258.076 -2.01734 -0.783086 0
M  V30 2625 C 258.671 -2.22907 2.55143 0
M  V30 2626 C 257.23 -2.76501 2.5539 0
M  V30 2627 C 256.377 -1.51287 2.32396 0
M  V30 2628 H 259.328 -0.43563 1.52604 0
M  V30 2629 H 259.349 -3.05259 2.2715 0
M  V30 2630 H 258.861 -1.69533 3.49114 0
M  V30 2631 H 256.962 -3.33914 1.65324 0
M  V30 2632 H 257.075 -3.23429 3.53455 0
M  V30 2633 H 255.439 -1.78957 1.81236 0
M  V30 2634 H 256.222 -0.998336 3.28463 0
M  V30 2635 N 258.668 -1.30515 -0.883378 0
M  V30 2636 C 259.598 -1.19607 -2.00541 0
M  V30 2637 C 260.579 -0.086346 -1.69881 0
M  V30 2638 O 261.764 -0.268654 -1.92333 0
M  V30 2639 C 258.894 -0.888758 -3.35736 0
M  V30 2640 C 257.848 -1.95659 -3.8066 0
M  V30 2641 C 257.174 -1.50224 -5.13164 0
M  V30 2642 C 258.474 -3.36788 -3.99213 0
M  V30 2643 H 260.168 -2.13476 -2.09925 0
M  V30 2644 H 257.714 -1.02775 -1.00863 0
M  V30 2645 H 259.667 -0.799094 -4.13754 0
M  V30 2646 H 258.391 0.0856125 -3.26488 0
M  V30 2647 H 257.05 -2.03591 -3.04871 0
M  V30 2648 H 256.698 -0.516092 -5.00345 0
M  V30 2649 H 256.398 -2.2165 -5.44192 0
M  V30 2650 H 257.922 -1.42639 -5.93706 0
M  V30 2651 H 259.336 -3.31605 -4.67665 0
M  V30 2652 H 257.733 -4.06314 -4.41621 0
M  V30 2653 H 258.803 -3.78561 -3.03017 0
M  V30 2654 N 260.146 1.09593 -1.13257 0
M  V30 2655 C 261.562 1.33775 -0.870423 0
M  V30 2656 C 261.762 1.95327 0.494926 0
M  V30 2657 O 260.818 2.19853 1.2418 0
M  V30 2658 C 262.131 2.25106 -1.99369 0
M  V30 2659 C 263.679 2.3862 -2.02558 0
M  V30 2660 C 264.154 3.33285 -3.14142 0
M  V30 2661 N 265.645 3.40857 -3.13641 0
M  V30 2662 C 266.38 4.14101 -3.96621 0
M  V30 2663 N 265.876 4.90157 -4.8961 0
M  V30 2664 N 267.669 4.09808 -3.84726 0
M  V30 2665 H 259.82 0.680136 -2.01216 0
M  V30 2666 H 262.083 0.362133 -0.876107 0
M  V30 2667 H 261.789 1.87103 -2.97801 0
M  V30 2668 H 261.663 3.25481 -1.90635 0
M  V30 2669 H 264.05 2.75887 -1.0474 0
M  V30 2670 H 264.131 1.38028 -2.15364 0
M  V30 2671 H 263.775 2.96741 -4.12198 0
M  V30 2672 H 263.705 4.33776 -2.98574 0
M  V30 2673 H 266.196 2.86624 -2.46282 0
M  V30 2674 H 266.509 5.4347 -5.49418 0
M  V30 2675 H 264.854 4.89251 -4.93617 0
M  V30 2676 H 268.045 3.4949 -3.11408 0
M  V30 2677 H 268.218 4.66629 -4.49623 0
M  V30 2678 N 261.624 0.925811 1.2754 0
M  V30 2679 C 263.04 0.625767 1.46821 0
M  V30 2680 C 263.24 -0.825506 1.83814 0
M  V30 2681 O 262.296 -1.60356 1.95044 0
M  V30 2682 C 263.609 1.57402 2.56213 0
M  V30 2683 C 265.157 1.58204 2.70075 0
M  V30 2684 C 265.632 2.51721 3.82623 0
M  V30 2685 N 267.123 2.49917 3.89994 0
M  V30 2686 C 267.858 3.18968 4.76494 0
M  V30 2687 N 267.354 3.97391 5.67496 0
M  V30 2688 N 269.147 3.07996 4.70208 0
M  V30 2689 H 261.298 1.86409 1.01811 0
M  V30 2690 H 263.561 0.800213 0.508295 0
M  V30 2691 H 263.267 2.60925 2.35819 0
M  V30 2692 H 263.141 1.31428 3.53563 0
M  V30 2693 H 265.528 0.554124 2.89851 0
M  V30 2694 H 265.609 1.88226 1.73218 0
M  V30 2695 H 265.253 3.54622 3.63601 0
M  V30 2696 H 265.183 2.18996 4.78903 0
M  V30 2697 H 267.674 1.9296 3.24923 0
M  V30 2698 H 267.987 4.4707 6.30356 0
M  V30 2699 H 266.332 4.01495 5.67298 0
M  V30 2700 H 269.523 2.46223 3.9811 0
M  V30 2701 H 269.696 3.6208 5.37403 0
M  V30 2702 N 263.102 -1.41638 0.69111 0
M  V30 2703 C 264.332 -2.0533 0.228758 0
M  V30 2704 C 264.74 -1.52089 -1.12541 0
M  V30 2705 O 264.083 -0.662145 -1.71351 0
M  V30 2706 C 264.145 -3.59349 0.10407 0
M  V30 2707 C 263.809 -4.35362 1.38956 0
M  V30 2708 C 264.806 -4.64942 2.32648 0
M  V30 2709 C 262.491 -4.74714 1.64169 0
M  V30 2710 C 264.485 -5.32828 3.49818 0
M  V30 2711 C 262.172 -5.42338 2.81625 0
M  V30 2712 C 263.17 -5.71322 3.74273 0
M  V30 2713 O 262.858 -6.37554 4.89673 0
M  V30 2714 H 262.59 -0.667796 0.104997 0
M  V30 2715 H 265.144 -1.82477 0.942938 0
M  V30 2716 H 263.374 -3.80924 -0.665839 0
M  V30 2717 H 265.063 -4.04633 -0.320519 0
M  V30 2718 H 265.829 -4.35025 2.14425 0
M  V30 2719 H 261.708 -4.51538 0.929202 0
M  V30 2720 H 265.252 -5.55368 4.22152 0
M  V30 2721 H 261.149 -5.71673 2.99768 0
M  V30 2722 H 261.917 -6.56049 4.8943 0
M  V30 2723 N 264.58 -0.43555 -1.51462 0
M  V30 2724 C 265.805 0.132627 -2.06976 0
M  V30 2725 C 266.23 1.35848 -1.30104 0
M  V30 2726 O 265.588 1.78112 -0.338493 0
M  V30 2727 C 265.636 0.43523 -3.57964 0
M  V30 2728 O 264.74 1.52198 -3.83288 0
M  V30 2729 H 264.081 0.00265 -0.663995 0
M  V30 2730 H 266.611 -0.616369 -1.95095 0
M  V30 2731 H 266.621 0.686206 -4.02188 0
M  V30 2732 H 265.296 -0.460739 -4.1334 0
M  V30 2733 H 263.873 1.2611 -3.50928 0
M  V30 2734 N 266.058 1.56714 -0.166846 0
M  V30 2735 C 267.474 1.58473 0.189372 0
M  V30 2736 C 267.674 1.18201 1.63189 0
M  V30 2737 O 266.73 0.891528 2.36237 0
M  V30 2738 C 268.043 3.00573 -0.0873872 0
M  V30 2739 C 269.591 3.1299 -0.0252443 0
M  V30 2740 C 270.066 4.57174 -0.274934 0
M  V30 2741 N 271.557 4.62665 -0.222553 0
M  V30 2742 C 272.292 5.72072 -0.389985 0
M  V30 2743 N 271.788 6.90054 -0.616229 0
M  V30 2744 N 273.581 5.61153 -0.326202 0
M  V30 2745 H 265.732 1.8118 -1.10849 0
M  V30 2746 H 267.995 0.839525 -0.440342 0
M  V30 2747 H 267.701 3.34497 -1.0865 0
M  V30 2748 H 267.575 3.72019 0.623037 0
M  V30 2749 H 269.962 2.78895 0.96444 0
M  V30 2750 H 270.043 2.43989 -0.768309 0
M  V30 2751 H 269.687 4.91976 -1.26181 0
M  V30 2752 H 269.617 5.24328 0.48869 0
M  V30 2753 H 272.108 3.77863 -0.0531512 0
M  V30 2754 H 272.421 7.69311 -0.733559 0
M  V30 2755 H 270.766 6.91927 -0.652791 0
M  V30 2756 H 273.957 4.67859 -0.150072 0
M  V30 2757 H 274.13 6.46364 -0.460116 0
M  V30 2758 N 267.536 -0.106894 1.57237 0
M  V30 2759 C 268.952 -0.46078 1.52804 0
M  V30 2760 C 269.152 -1.81184 0.881746 0
M  V30 2761 O 268.208 -2.48102 0.469224 0
M  V30 2762 C 269.521 -0.434127 2.9755 0
M  V30 2763 C 271.069 -0.516821 3.08704 0
M  V30 2764 C 271.544 -0.520436 4.55033 0
M  V30 2765 N 273.035 -0.58153 4.59535 0
M  V30 2766 C 273.77 -0.605973 5.70189 0
M  V30 2767 N 273.266 -0.587331 6.90306 0
M  V30 2768 N 275.059 -0.649895 5.5833 0
M  V30 2769 H 267.21 0.778203 1.9763 0
M  V30 2770 H 269.473 0.288403 0.903066 0
M  V30 2771 H 269.179 0.491197 3.48253 0
M  V30 2772 H 269.053 -1.25748 3.55622 0
M  V30 2773 H 271.44 -1.43256 2.57995 0
M  V30 2774 H 271.521 0.334449 2.53604 0
M  V30 2775 H 271.165 0.391313 5.0639 0
M  V30 2776 H 271.095 -1.38876 5.07958 0
M  V30 2777 H 273.586 -0.60161 3.73081 0
M  V30 2778 H 273.899 -0.60894 7.70397 0
M  V30 2779 H 272.244 -0.554564 6.92784 0
M  V30 2780 H 275.435 -0.661907 4.63397 0
M  V30 2781 H 275.608 -0.665476 6.44574 0
M  V30 2782 N 269.014 -1.53014 -0.377408 0
M  V30 2783 C 270.261 -1.68623 -1.12128 0
M  V30 2784 C 270.589 -0.431997 -1.89642 0
M  V30 2785 O 269.844 0.585855 -1.86725 0
M  V30 2786 C 270.143 -2.87982 -2.11663 0
M  V30 2787 C 269.809 -4.24964 -1.50719 0
M  V30 2788 C 268.471 -4.62217 -1.33825 0
M  V30 2789 C 270.823 -5.10199 -1.06519 0
M  V30 2790 C 268.151 -5.82352 -0.712963 0
M  V30 2791 C 270.503 -6.30969 -0.453955 0
M  V30 2792 C 269.167 -6.66944 -0.272411 0
M  V30 2793 H 268.437 -0.617034 -0.410305 0
M  V30 2794 H 271.084 -1.8718 -0.404484 0
M  V30 2795 H 269.389 -2.63889 -2.89603 0
M  V30 2796 H 271.086 -2.97253 -2.6915 0
M  V30 2797 H 267.676 -3.95626 -1.64858 0
M  V30 2798 H 271.86 -4.81978 -1.18368 0
M  V30 2799 H 267.116 -6.08824 -0.560611 0
M  V30 2800 H 271.29 -6.96324 -0.103217 0
M  V30 2801 H 268.917 -7.59898 0.214181 0
M  V30 2802 N 270.492 0.636531 -1.44174 0
M  V30 2803 C 271.424 1.7618 -1.46606 0
M  V30 2804 C 272.437 1.58768 -0.360091 0
M  V30 2805 O 273.626 1.67181 -0.625518 0
M  V30 2806 C 270.726 3.13833 -1.27915 0
M  V30 2807 C 269.899 3.57753 -2.51658 0
M  V30 2808 C 268.958 4.74265 -2.27945 0
M  V30 2809 O 267.984 4.82852 -3.01401 0
M  V30 2810 N 269.186 5.65604 -1.30662 0
M  V30 2811 H 271.951 1.74567 -2.43612 0
M  V30 2812 H 269.512 0.820924 -1.39544 0
M  V30 2813 H 271.504 3.8949 -1.09907 0
M  V30 2814 H 270.074 3.10121 -0.39293 0
M  V30 2815 H 269.294 2.72362 -2.84978 0
M  V30 2816 H 270.582 3.83847 -3.33974 0
M  V30 2817 H 269.98 5.61354 -0.699844 0
M  V30 2818 H 268.537 6.40913 -1.18634 0
M  V30 2819 N 271.97 1.30982 0.876444 0
M  V30 2820 C 273.198 1.23242 1.6619 0
M  V30 2821 C 273.613 -0.203345 1.87702 0
M  V30 2822 O 272.97 -1.13317 1.43057 0
M  V30 2823 C 273.021 1.96623 3.03351 0
M  V30 2824 O 272.742 3.34594 2.82804 0
M  V30 2825 C 274.243 1.95644 3.97792 0
M  V30 2826 H 271.463 0.426126 0.518322 0
M  V30 2827 H 274.007 1.7275 1.09442 0
M  V30 2828 H 272.162 1.50892 3.56806 0
M  V30 2829 H 272.576 3.71873 3.69879 0
M  V30 2830 H 274.05 2.51511 4.91372 0
M  V30 2831 H 274.527 0.937395 4.2908 0
M  V30 2832 H 275.133 2.41225 3.50272 0
M  V30 2833 N 273.449 -1.08991 1.13837 0
M  V30 2834 C 274.698 -1.80631 0.897509 0
M  V30 2835 C 275.011 -1.86872 -0.57777 0
M  V30 2836 O 276.217 -2.54866 -0.935701 0
M  V30 2837 C 274.673 -3.24517 1.55618 0
M  V30 2838 C 274.281 -3.26529 3.0673 0
M  V30 2839 C 276.025 -4.00882 1.3962 0
M  V30 2840 C 273.932 -4.64965 3.65461 0
M  V30 2841 H 272.862 -0.67691 0.332129 0
M  V30 2842 H 275.513 -1.2246 1.3666 0
M  V30 2843 H 273.895 -3.82778 1.01476 0
M  V30 2844 H 275.069 -2.78008 3.67489 0
M  V30 2845 H 273.384 -2.63656 3.22296 0
M  V30 2846 H 275.981 -5.03167 1.80906 0
M  V30 2847 H 276.324 -4.14896 0.341578 0
M  V30 2848 H 276.857 -3.49075 1.90766 0
M  V30 2849 H 273.596 -4.56153 4.70749 0
M  V30 2850 H 273.116 -5.13792 3.09481 0
M  V30 2851 H 274.795 -5.3394 3.654 0
M  V30 2852 N 274.927 -0.932562 -1.27047 0
M  V30 2853 C 276.204 -0.49377 -1.89265 0
M  V30 2854 C 276.584 1.02833 -1.8436 0
M  V30 2855 O 275.932 1.88461 -1.29209 0
M  V30 2856 C 276.142 -1.04536 -3.32976 0
M  V30 2857 C 277.49 -1.10879 -4.09867 0
M  V30 2858 O 278.514 -0.995327 -3.42011 0
M  V30 2859 O 277.373 -1.28417 -5.31198 0
M  V30 2860 H 274.467 -0.159596 -0.811454 0
M  V30 2861 H 277.013 -1.02457 -1.3528 0
M  V30 2862 H 275.785 -2.08913 -3.30864 0
M  V30 2863 H 275.408 -0.496494 -3.94488 0
M  V30 2864 N 276.405 1.4127 -0.698611 0
M  V30 2865 C 277.654 2.00408 -0.227949 0
M  V30 2866 C 277.967 1.55981 1.18023 0
M  V30 2867 O 279.173 2.07699 1.74852 0
M  V30 2868 C 277.629 3.58129 -0.356636 0
M  V30 2869 C 277.237 4.11536 -1.77037 0
M  V30 2870 C 278.981 4.24466 0.0540969 0
M  V30 2871 C 276.888 5.61701 -1.85055 0
M  V30 2872 H 275.818 0.749586 -0.0814657 0
M  V30 2873 H 278.469 1.61713 -0.867249 0
M  V30 2874 H 276.851 3.94442 0.350965 0
M  V30 2875 H 278.025 3.86636 -2.50698 0
M  V30 2876 H 276.34 3.57736 -2.13105 0
M  V30 2877 H 278.937 5.34698 0.0146723 0
M  V30 2878 H 279.28 4.01687 1.09332 0
M  V30 2879 H 279.813 3.93198 -0.603337 0
M  V30 2880 H 276.552 5.89312 -2.8704 0
M  V30 2881 H 276.072 5.88519 -1.15783 0
M  V30 2882 H 277.751 6.26524 -1.61484 0
M  V30 2883 N 277.883 0.443576 1.51229 0
M  V30 2884 C 278.793 -0.370721 2.31652 0
M  V30 2885 C 279.809 -1.02186 1.40833 0
M  V30 2886 O 280.985 -1.01586 1.73903 0
M  V30 2887 C 278.05 -1.45376 3.14749 0
M  V30 2888 C 277.111 -0.822099 4.21355 0
M  V30 2889 C 276.344 -1.85353 5.0048 0
M  V30 2890 O 276.567 -3.07656 4.80316 0
M  V30 2891 O 275.501 -1.4406 5.84406 0
M  V30 2892 H 279.327 0.286002 3.0235 0
M  V30 2893 H 276.912 0.20598 1.47973 0
M  V30 2894 H 278.794 -2.08173 3.66391 0
M  V30 2895 H 277.469 -2.09445 2.46809 0
M  V30 2896 H 276.376 -0.155909 3.73775 0
M  V30 2897 H 277.709 -0.224797 4.91686 0
M  V30 2898 N 279.361 -1.56624 0.175154 0
M  V30 2899 C 280.772 -1.83561 -0.340916 0
M  V30 2900 C 281.123 -1.09511 -1.62794 0
M  V30 2901 O 280.248 -0.349389 -2.13561 0
M  V30 2902 C 280.843 -3.32979 -0.625313 0
M  V30 2903 C 279.402 -3.60399 -1.08581 0
M  V30 2904 C 278.549 -2.77024 -0.123722 0
M  V30 2905 H 281.5 -1.53593 0.399344 0
M  V30 2906 H 281.521 -3.50666 -1.47694 0
M  V30 2907 H 281.033 -3.86847 0.311575 0
M  V30 2908 H 279.134 -3.11945 -2.03767 0
M  V30 2909 H 279.247 -4.68711 -0.992317 0
M  V30 2910 H 277.611 -2.46993 -0.621821 0
M  V30 2911 H 278.394 -3.33674 0.807256 0
M  V30 2912 N 280.839 0.0985539 -1.57292 0
M  V30 2913 C 282.116 0.834155 -1.76921 0
M  V30 2914 C 282.496 1.97101 -0.755928 0
M  V30 2915 O 281.844 2.27474 0.216245 0
M  V30 2916 C 282.054 1.33194 -3.22584 0
M  V30 2917 C 283.402 1.77611 -3.85668 0
M  V30 2918 O 284.426 1.42825 -3.26312 0
M  V30 2919 O 283.285 2.4192 -4.90038 0
M  V30 2920 H 280.379 0.397628 -0.725135 0
M  V30 2921 H 282.925 0.0807044 -1.69508 0
M  V30 2922 H 281.697 0.517248 -3.87866 0
M  V30 2923 H 281.32 2.1475 -3.34616 0
M  V30 2924 N 282.317 1.53212 0.369288 0
M  V30 2925 C 283.566 1.68436 1.10961 0
M  V30 2926 C 283.879 0.440738 1.9057 0
M  V30 2927 O 285.085 0.473446 2.6734 0
M  V30 2928 C 283.541 2.97744 2.0218 0
M  V30 2929 C 283.149 4.29355 1.279 0
M  V30 2930 C 284.893 3.22334 2.76226 0
M  V30 2931 C 282.8 5.49755 2.17999 0
M  V30 2932 H 281.73 0.627568 0.41794 0
M  V30 2933 H 284.381 1.79713 0.370884 0
M  V30 2934 H 282.763 2.8026 2.79768 0
M  V30 2935 H 283.937 4.57458 0.554007 0
M  V30 2936 H 282.252 4.11179 0.657311 0
M  V30 2937 H 284.849 4.09471 3.43857 0
M  V30 2938 H 285.192 2.38238 3.41392 0
M  V30 2939 H 285.725 3.40475 2.05723 0
M  V30 2940 H 282.464 6.36318 1.57417 0
M  V30 2941 H 281.984 5.25937 2.88359 0
M  V30 2942 H 283.663 5.84401 2.77641 0
M  V30 2943 N 283.795 -0.628877 1.44509 0
M  V30 2944 C 284.705 -1.7694 1.54044 0
M  V30 2945 C 285.721 -1.68705 0.425987 0
M  V30 2946 O 286.897 -1.89442 0.683656 0
M  V30 2947 C 283.962 -3.13332 1.48405 0
M  V30 2948 C 283.023 -3.33181 2.70719 0
M  V30 2949 C 282.256 -4.63067 2.6534 0
M  V30 2950 O 282.479 -5.44017 1.71469 0
M  V30 2951 O 281.413 -4.85167 3.56226 0
M  V30 2952 H 285.239 -1.71848 2.50403 0
M  V30 2953 H 282.824 -0.790378 1.26781 0
M  V30 2954 H 284.706 -3.94634 1.47791 0
M  V30 2955 H 283.381 -3.1896 0.551898 0
M  V30 2956 H 282.288 -2.51549 2.769 0
M  V30 2957 H 283.621 -3.32416 3.62988 0
M  V30 2958 N 285.273 -1.31445 -0.869486 0
M  V30 2959 C 286.236 -1.19094 -1.9583 0
M  V30 2960 C 287.236 -0.117906 -1.60367 0
M  V30 2961 O 288.426 -0.367208 -1.70286 0
M  V30 2962 C 285.558 -0.828165 -3.30688 0
M  V30 2963 H 286.751 -2.15842 -2.08212 0
M  V30 2964 H 284.304 -1.15063 -1.05784 0
M  V30 2965 H 285.039 0.138142 -3.24006 0
M  V30 2966 H 284.824 -1.6038 -3.578 0
M  V30 2967 H 286.314 -0.765658 -4.10521 0
M  V30 2968 N 286.751 1.08385 -1.14413 0
M  V30 2969 C 287.681 2.17321 -0.854044 0
M  V30 2970 C 288.662 1.69024 0.191049 0
M  V30 2971 O 289.847 1.94141 0.0476779 0
M  V30 2972 C 286.977 3.45719 -0.330983 0
M  V30 2973 C 285.931 4.07409 -1.31155 0
M  V30 2974 C 285.257 5.30762 -0.64778 0
M  V30 2975 C 286.557 4.48665 -2.67388 0
M  V30 2976 H 288.251 2.41845 -1.76498 0
M  V30 2977 H 285.797 1.16233 -0.850051 0
M  V30 2978 H 287.75 4.21241 -0.115645 0
M  V30 2979 H 286.474 3.2075 0.615381 0
M  V30 2980 H 285.133 3.33919 -1.51306 0
M  V30 2981 H 284.781 5.02078 0.304398 0
M  V30 2982 H 284.481 5.72992 -1.30207 0
M  V30 2983 H 286.005 6.08998 -0.441972 0
M  V30 2984 H 287.419 5.15364 -2.51143 0
M  V30 2985 H 285.816 5.01814 -3.29093 0
M  V30 2986 H 286.886 3.60543 -3.24248 0
M  V30 2987 N 288.23 0.939286 1.26551 0
M  V30 2988 C 289.16 0.465044 2.28822 0
M  V30 2989 C 290.141 -0.480692 1.63167 0
M  V30 2990 O 291.326 -0.382955 1.90387 0
M  V30 2991 C 288.456 -0.27234 3.46231 0
M  V30 2992 C 287.41 0.58666 4.2396 0
M  V30 2993 C 286.736 -0.280573 5.33963 0
M  V30 2994 C 288.036 1.85704 4.88171 0
M  V30 2995 H 289.73 1.31979 2.68741 0
M  V30 2996 H 287.276 0.636061 1.29191 0
M  V30 2997 H 289.229 -0.615133 4.16886 0
M  V30 2998 H 287.953 -1.16121 3.0526 0
M  V30 2999 H 286.612 0.91232 3.55067 0
M  V30 3000 H 286.26 -1.16874 4.89234 0
M  V30 3001 H 285.96 0.29076 5.8688 0
M  V30 3002 H 287.484 -0.618678 6.07458 0
M  V30 3003 H 288.898 1.58161 5.51052 0
M  V30 3004 H 287.295 2.37279 5.51197 0
M  V30 3005 H 288.365 2.56957 4.11219 0
M  V30 3006 N 289.708 -1.40897 0.706093 0
M  V30 3007 C 290.933 -2.05895 0.249435 0
M  V30 3008 C 291.358 -1.52823 -1.09666 0
M  V30 3009 O 290.716 -0.659589 -1.68876 0
M  V30 3010 C 290.764 -3.59872 0.22904 0
M  V30 3011 O 289.868 -4.04708 -0.792784 0
M  V30 3012 H 289.209 -0.653206 0.119241 0
M  V30 3013 H 291.739 -1.80471 0.96391 0
M  V30 3014 H 291.749 -4.07951 0.0634791 0
M  V30 3015 H 290.424 -3.97866 1.21141 0
M  V30 3016 H 289.001 -3.68111 -0.59572 0
M  V30 3017 N 291.186 -0.45159 -1.50991 0
M  V30 3018 C 292.118 0.388634 -2.25881 0
M  V30 3019 C 293.131 0.974041 -1.30446 0
M  V30 3020 O 294.32 0.865758 -1.56099 0
M  V30 3021 C 291.42 1.5571 -3.01011 0
M  V30 3022 C 290.593 1.08801 -4.23652 0
M  V30 3023 C 289.652 2.12825 -4.8124 0
M  V30 3024 O 288.678 1.71678 -5.42693 0
M  V30 3025 N 289.88 3.45453 -4.66522 0
M  V30 3026 H 292.645 -0.25329 -2.98628 0
M  V30 3027 H 290.206 -0.281268 -1.59438 0
M  V30 3028 H 292.198 2.24952 -3.3642 0
M  V30 3029 H 290.768 2.10409 -2.31186 0
M  V30 3030 H 289.988 0.22215 -3.93574 0
M  V30 3031 H 291.276 0.752213 -5.03209 0
M  V30 3032 H 290.674 3.81605 -4.17605 0
M  V30 3033 H 289.231 4.10549 -5.06254 0
M  V30 3034 N 292.664 1.56529 -0.183458 0
M  V30 3035 C 293.912 1.96855 0.457452 0
M  V30 3036 C 294.233 1.07104 1.62953 0
M  V30 3037 O 293.503 0.139887 1.954 0
M  V30 3038 H 292.083 0.72693 0.171992 0
M  V30 3039 H 294.745 1.93056 -0.267476 0
M  V30 3040 H 293.841 3.01423 0.809368 0
M  V30 3041 N 294.142 -0.090211 1.57342 0
M  V30 3042 C 295.553 -0.644173 1.75235 0
M  V30 3043 C 295.904 -1.78865 0.806335 0
M  V30 3044 O 295.029 -2.16395 -0.0140128 0
M  V30 3045 C 295.624 -1.17532 3.1776 0
M  V30 3046 C 294.183 -1.67531 3.37061 0
M  V30 3047 C 293.33 -0.58693 2.71017 0
M  V30 3048 H 296.281 0.135884 1.58117 0
M  V30 3049 H 296.302 -2.04455 3.20902 0
M  V30 3050 H 295.814 -0.342138 3.86589 0
M  V30 3051 H 293.915 -2.53234 2.73319 0
M  V30 3052 H 294.028 -1.76493 4.45406 0
M  V30 3053 H 292.392 -1.02756 2.33052 0
M  V30 3054 H 293.175 0.235758 3.4249 0
M  V30 3055 N 295.62 -1.53406 -0.361157 0
M  V30 3056 C 296.845 -1.74024 -1.12829 0
M  V30 3057 C 297.27 -0.470069 -1.82132 0
M  V30 3058 O 296.628 0.57619 -1.719 0
M  V30 3059 C 296.676 -2.90903 -2.13091 0
M  V30 3060 O 295.78 -2.59821 -3.20261 0
M  V30 3061 H 295.121 -0.577804 -0.327168 0
M  V30 3062 H 297.651 -2.00307 -0.41693 0
M  V30 3063 H 297.661 -3.17194 -2.56616 0
M  V30 3064 H 296.336 -3.83034 -1.62042 0
M  V30 3065 H 294.913 -2.44362 -2.81677 0
M  V30 3066 N 297.098 0.621204 -1.44841 0
M  V30 3067 C 298.338 1.39201 -1.49674 0
M  V30 3068 C 298.702 1.91561 -0.129764 0
M  V30 3069 O 299.903 2.68748 -0.0527814 0
M  V30 3070 C 298.174 2.519 -2.53537 0
M  V30 3071 S 299.733 3.39916 -2.77494 0
M  V30 3072 H 296.551 0.474758 -0.529269 0
M  V30 3073 H 299.153 0.718171 -1.81831 0
M  V30 3074 H 297.857 2.11761 -3.51547 0
M  V30 3075 H 297.388 3.241 -2.22986 0
M  V30 3076 H 299.403 4.49646 -2.0984 0
M  V30 3077 N 298.576 1.31904 0.862503 0
M  V30 3078 C 299.539 1.20131 1.95195 0
M  V30 3079 C 300.539 0.126409 1.60302 0
M  V30 3080 O 301.729 0.376234 1.70089 0
M  V30 3081 C 298.861 0.845691 3.30244 0
M  V30 3082 H 300.054 2.16943 2.07064 0
M  V30 3083 H 297.607 1.15622 1.05172 0
M  V30 3084 H 298.342 -0.120957 3.24074 0
M  V30 3085 H 298.127 1.62276 3.56944 0
M  V30 3086 H 299.617 0.787418 4.10109 0
M  V30 3087 O 300.093 -0.999479 1.26857 0
M  V30 3088 H 300.784 -1.62077 1.0607 0
M  V30 END ATOM
M  V30 BEGIN BOND
M  V30 END BOND
M  V30 END CTAB
M  END
$$$$
