drugbank_drug|DB00112 "Bevacizumab heavy chain"
 OpenBabel12092119113D

  0  0  0     0  0            999 V3000
M  V30 BEGIN CTAB
M  V30 COUNTS 6939 7042 0 0 0
M  V30 BEGIN ATOM
M  V30 1 H -0.908 1.98254 -0.117106 0
M  V30 2 N 0 1.576 0 0
M  V30 3 C 0.91 2.11853 1.00774 0
M  V30 4 C 1.926 1.06379 1.37693 0
M  V30 5 O 3.102 1.3828 1.46426 0
M  V30 6 C 0.167 2.61108 2.28087 0
M  V30 7 C -0.772 3.81183 1.9748 0
M  V30 8 C -1.539 4.28079 3.18723 0
M  V30 9 O -1.316 3.74307 4.30407 0
M  V30 10 O -2.382 5.20234 3.02721 0
M  V30 11 H 1.444 2.98177 0.576547 0
M  V30 12 H -0.971 1.47789 0.218828 0
M  V30 13 H 0.911 2.92987 3.0288 0
M  V30 14 H -0.414 1.77881 2.70444 0
M  V30 15 H -1.507 3.54277 1.20162 0
M  V30 16 H -0.174 4.65482 1.5996 0
M  V30 17 N 1.4781 -0.272755 1.55222 0
M  V30 18 C 2.7241 -1.00581 1.761 0
M  V30 19 C 3.0571 -1.85932 0.560625 0
M  V30 20 O 2.3321 -1.89416 -0.441801 0
M  V30 21 C 2.6151 -1.88816 3.06628 0
M  V30 22 C 2.4681 -1.06457 4.37021 0
M  V30 23 C 3.7871 -2.8752 3.33197 0
M  V30 24 H 0.9061 -0.364244 0.640699 0
M  V30 25 H 3.5481 -0.278189 1.87952 0
M  V30 26 H 1.6981 -2.50856 2.96654 0
M  V30 27 H 3.3701 -0.464863 4.58952 0
M  V30 28 H 1.6131 -0.368043 4.32236 0
M  V30 29 H 2.2841 -1.71514 5.24678 0
M  V30 30 H 4.7601 -2.35615 3.42965 0
M  V30 31 H 3.6361 -3.46399 4.25792 0
M  V30 32 H 3.8971 -3.62657 2.52849 0
M  V30 33 N 2.9562 -1.48159 -0.537278 0
M  V30 34 C 3.8882 -1.58218 -1.65831 0
M  V30 35 C 4.9012 -0.466948 -1.5596 0
M  V30 36 O 6.0902 -0.73747 -1.62553 0
M  V30 37 C 3.1902 -1.48906 -3.04434 0
M  V30 38 C 2.3632 -2.75343 -3.3986 0
M  V30 39 C 1.4222 -2.59588 -4.57712 0
M  V30 40 O 0.4482 -3.33457 -4.61297 0
M  V30 41 N 1.6502 -1.68724 -5.55439 0
M  V30 42 H 4.4152 -2.54891 -1.57641 0
M  V30 43 H 1.9762 -1.4479 -0.724386 0
M  V30 44 H 3.9682 -1.36072 -3.81139 0
M  V30 45 H 2.5382 -0.602368 -3.06741 0
M  V30 46 H 1.7582 -3.02795 -2.52406 0
M  V30 47 H 3.0462 -3.5924 -3.60311 0
M  V30 48 H 2.4442 -1.07898 -5.55315 0
M  V30 49 H 1.0012 -1.61832 -6.3139 0
M  V30 50 N 4.4343 0.785586 -1.36625 0
M  V30 51 C 5.3643 1.91259 -1.33949 0
M  V30 52 C 6.3453 1.68795 -0.210325 0
M  V30 53 O 7.5303 1.89854 -0.408561 0
M  V30 54 C 4.6603 3.28339 -1.13186 0
M  V30 55 C 3.6143 3.65335 -2.22967 0
M  V30 56 C 2.9403 5.00806 -1.87342 0
M  V30 57 C 4.2403 3.7352 -3.65075 0
M  V30 58 H 5.9343 1.93755 -2.28253 0
M  V30 59 H 3.4803 0.930788 -1.09874 0
M  V30 60 H 5.4333 4.06804 -1.09948 0
M  V30 61 H 4.1573 3.2624 -0.153332 0
M  V30 62 H 2.8163 2.89169 -2.25337 0
M  V30 63 H 2.4643 4.95233 -0.880545 0
M  V30 64 H 2.1643 5.26529 -2.60846 0
M  V30 65 H 3.6883 5.81687 -1.85667 0
M  V30 66 H 5.1023 4.42168 -3.64911 0
M  V30 67 H 3.4993 4.10731 -4.37516 0
M  V30 68 H 4.5693 2.74527 -3.99703 0
M  V30 69 N 5.9124 1.20967 1.01018 0
M  V30 70 C 7.1584 1.02526 1.74975 0
M  V30 71 C 7.4914 -0.4408 1.89131 0
M  V30 72 O 6.7664 -1.32718 1.42184 0
M  V30 73 C 7.0494 1.71699 3.1653 0
M  V30 74 C 6.9024 3.25791 3.10129 0
M  V30 75 C 8.2214 1.45531 4.15342 0
M  V30 76 H 5.3404 0.373863 0.635134 0
M  V30 77 H 7.9824 1.49071 1.17805 0
M  V30 78 H 6.1324 1.32128 3.65341 0
M  V30 79 H 7.8044 3.74697 2.69072 0
M  V30 80 H 6.0474 3.56363 2.47362 0
M  V30 81 H 6.7184 3.69353 4.10222 0
M  V30 82 H 9.1944 1.79872 3.75213 0
M  V30 83 H 8.0704 1.96453 5.1254 0
M  V30 84 H 8.3314 0.384237 4.40427 0
M  V30 85 N 7.3905 -1.2043 1.01659 0
M  V30 86 C 8.3005 -2.2689 0.596484 0
M  V30 87 C 9.3165 -1.70107 -0.36599 0
M  V30 88 O 10.4925 -2.00117 -0.226942 0
M  V30 89 C 7.5575 -3.4665 -0.0586659 0
M  V30 90 C 6.6185 -4.18662 0.949751 0
M  V30 91 C 5.8515 -5.32705 0.32577 0
M  V30 92 O 6.0745 -5.63656 -0.874509 0
M  V30 93 O 5.0085 -5.92803 1.04249 0
M  V30 94 H 8.8345 -2.65041 1.4828 0
M  V30 95 H 6.4195 -1.27048 0.786082 0
M  V30 96 H 8.3015 -4.19256 -0.424564 0
M  V30 97 H 6.9765 -3.10375 -0.91918 0
M  V30 98 H 5.8835 -3.48229 1.36702 0
M  V30 99 H 7.2165 -4.58878 1.78023 0
M  V30 100 N 8.8686 -0.792821 -1.36206 0
M  V30 101 C 10.0936 -0.377701 -2.03932 0
M  V30 102 C 10.5186 0.998947 -1.59382 0
M  V30 103 O 9.8766 1.64421 -0.763903 0
M  V30 104 C 9.9246 -0.453635 -3.57735 0
M  V30 105 O 9.0286 0.538151 -4.08874 0
M  V30 106 H 8.3696 -0.159855 -0.644471 0
M  V30 107 H 10.8996 -1.07488 -1.7409 0
M  V30 108 H 10.9096 -0.318464 -4.06755 0
M  V30 109 H 9.5846 -1.45784 -3.89512 0
M  V30 110 H 8.1616 0.364359 -3.71116 0
M  V30 111 N 10.3467 1.47872 -0.545128 0
M  V30 112 C 11.5947 2.02093 -0.016553 0
M  V30 113 C 11.9157 1.42305 1.3332 0
M  V30 114 O 11.1857 0.593853 1.86682 0
M  V30 115 H 9.7657 0.746993 -0.00313038 0
M  V30 116 H 12.4277 1.81414 -0.712397 0
M  V30 117 H 11.5237 3.11996 0.0805422 0
M  V30 118 N 11.8248 0.280983 1.55075 0
M  V30 119 C 13.0728 -0.333455 1.9933 0
M  V30 120 C 13.3938 -1.55937 1.17085 0
M  V30 121 O 12.6638 -1.94143 0.261805 0
M  V30 122 H 11.2438 -0.126197 0.736263 0
M  V30 123 H 13.9058 0.387678 1.91005 0
M  V30 124 H 13.0018 -0.619292 3.05894 0
M  V30 125 N 13.3029 -1.57598 0.00835791 0
M  V30 126 C 14.5509 -1.90551 -0.6734 0
M  V30 127 C 14.8719 -0.883301 -1.73847 0
M  V30 128 O 14.1419 0.0781442 -1.95744 0
M  V30 129 H 12.7219 -0.703312 -0.251717 0
M  V30 130 H 15.3839 -1.94833 0.0512592 0
M  V30 131 H 14.4799 -2.9056 -1.13935 0
M  V30 132 N 14.781 0.264519 -1.55364 0
M  V30 133 C 15.711 1.33121 -1.91836 0
M  V30 134 C 16.692 1.51101 -0.781192 0
M  V30 135 O 17.877 1.64003 -1.04003 0
M  V30 136 C 15.007 2.68921 -2.19769 0
M  V30 137 C 13.961 2.65661 -3.35571 0
M  V30 138 C 13.287 4.05093 -3.49004 0
M  V30 139 C 14.587 2.24187 -4.71739 0
M  V30 140 H 16.281 1.02844 -2.81182 0
M  V30 141 H 13.827 0.493286 -1.35287 0
M  V30 142 H 15.78 3.43663 -2.43872 0
M  V30 143 H 14.504 3.00799 -1.27231 0
M  V30 144 H 13.163 1.93377 -3.1145 0
M  V30 145 H 12.811 4.34206 -2.53917 0
M  V30 146 H 12.511 4.03804 -4.26868 0
M  V30 147 H 14.035 4.81561 -3.75408 0
M  V30 148 H 15.449 2.88654 -4.9533 0
M  V30 149 H 13.846 2.34044 -5.52579 0
M  V30 150 H 14.916 1.19327 -4.69988 0
M  V30 151 N 16.2591 1.48442 0.529413 0
M  V30 152 C 17.5051 1.5672 1.28711 0
M  V30 153 C 17.8381 0.2406 1.92704 0
M  V30 154 O 17.1131 -0.753454 1.79313 0
M  V30 155 C 17.3961 2.70587 2.37603 0
M  V30 156 C 17.2491 4.12953 1.78297 0
M  V30 157 C 18.5681 2.80212 3.39366 0
M  V30 158 H 15.6871 0.570474 0.466613 0
M  V30 159 H 18.3291 1.80617 0.589706 0
M  V30 160 H 16.4791 2.50342 2.97088 0
M  V30 161 H 18.1511 4.44639 1.22858 0
M  V30 162 H 16.3941 4.19927 1.0883 0
M  V30 163 H 17.0651 4.88448 2.57144 0
M  V30 164 H 19.5411 2.98553 2.89836 0
M  V30 165 H 18.4171 3.61611 4.12951 0
M  V30 166 H 18.6781 1.88393 3.99951 0
M  V30 167 N 17.7372 -0.778329 1.37039 0
M  V30 168 C 18.6692 -1.90034 1.2814 0
M  V30 169 C 19.6822 -1.61585 0.198558 0
M  V30 170 O 20.8712 -1.72625 0.454175 0
M  V30 171 C 17.9712 -3.25108 0.956968 0
M  V30 172 C 17.1442 -3.81253 2.14394 0
M  V30 173 C 16.2032 -4.94789 1.79082 0
M  V30 174 O 15.2292 -5.10721 2.51301 0
M  V30 175 N 16.4312 -5.75878 0.731043 0
M  V30 176 H 19.1962 -1.98186 2.24816 0
M  V30 177 H 16.7572 -0.957129 1.30578 0
M  V30 178 H 18.7492 -3.9857 0.701701 0
M  V30 179 H 17.3192 -3.125 0.0789812 0
M  V30 180 H 16.5392 -2.99647 2.56135 0
M  V30 181 H 17.8272 -4.15495 2.93668 0
M  V30 182 H 17.2252 -5.65547 0.131618 0
M  V30 183 H 15.7822 -6.49596 0.535622 0
M  V30 184 N 19.2153 -1.21501 -1.00376 0
M  V30 185 C 20.6263 -1.03146 -1.55621 0
M  V30 186 C 20.9773 0.408375 -1.91903 0
M  V30 187 O 20.1023 1.29177 -1.73616 0
M  V30 188 C 20.6973 -1.86612 -2.82775 0
M  V30 189 C 19.2563 -1.72586 -3.34501 0
M  V30 190 C 18.4033 -1.83747 -2.07683 0
M  V30 191 H 21.3543 -1.35505 -0.826081 0
M  V30 192 H 21.3753 -1.3771 -3.54706 0
M  V30 193 H 20.8873 -2.91399 -2.56336 0
M  V30 194 H 18.9883 -0.704877 -3.65872 0
M  V30 195 H 19.1013 -2.54623 -4.05837 0
M  V30 196 H 17.4653 -1.27069 -2.20739 0
M  V30 197 H 18.2483 -2.90044 -1.83655 0
M  V30 198 N 20.6934 1.19889 -1.02296 0
M  V30 199 C 21.9414 1.89046 -0.714558 0
M  V30 200 C 22.2624 1.79636 0.758681 0
M  V30 201 O 21.5324 1.20292 1.54618 0
M  V30 202 H 20.1124 0.699802 -0.261317 0
M  V30 203 H 22.7744 1.45574 -1.29592 0
M  V30 204 H 21.8704 2.95524 -1.0036 0
M  V30 205 N 22.1715 0.800033 1.35784 0
M  V30 206 C 23.4195 0.376597 1.9856 0
M  V30 207 C 23.7405 -1.05812 1.63795 0
M  V30 208 O 23.0105 -1.73103 0.917171 0
M  V30 209 H 21.5905 0.136261 0.734467 0
M  V30 210 H 24.2525 1.02442 1.65806 0
M  V30 211 H 23.3485 0.477002 3.08433 0
M  V30 212 N 23.6496 -1.47581 0.552962 0
M  V30 213 C 24.8746 -2.07378 0.0300593 0
M  V30 214 C 25.2996 -1.40355 -1.25229 0
M  V30 215 O 24.6576 -0.477099 -1.7491 0
M  V30 216 C 24.7056 -3.60274 -0.153231 0
M  V30 217 O 23.8096 -3.94041 -1.21678 0
M  V30 218 H 23.1506 -0.662158 0.0494182 0
M  V30 219 H 25.6806 -1.89662 0.767434 0
M  V30 220 H 25.6906 -4.0633 -0.368761 0
M  V30 221 H 24.3656 -4.08455 0.783397 0
M  V30 222 H 22.9426 -3.59735 -0.982079 0
M  V30 223 N 25.1277 -0.289203 -1.54924 0
M  V30 224 C 26.0577 0.58549 -2.2604 0
M  V30 225 C 27.0387 1.14753 -1.25562 0
M  V30 226 O 28.2237 1.17906 -1.54311 0
M  V30 227 C 25.3537 1.76305 -2.99222 0
M  V30 228 C 24.3077 1.33191 -4.06748 0
M  V30 229 C 23.6337 2.5937 -4.6758 0
M  V30 230 C 24.9337 0.471775 -5.20165 0
M  V30 231 H 26.6277 -0.00763532 -2.99399 0
M  V30 232 H 24.1737 -0.00511229 -1.43999 0
M  V30 233 H 26.1267 2.38097 -3.47689 0
M  V30 234 H 24.8507 2.38223 -2.23422 0
M  V30 235 H 23.5097 0.737121 -3.59113 0
M  V30 236 H 23.1577 3.19576 -3.88433 0
M  V30 237 H 22.8577 2.31228 -5.40192 0
M  V30 238 H 24.3817 3.21985 -5.18804 0
M  V30 239 H 25.7957 0.995056 -5.64599 0
M  V30 240 H 24.1927 0.284639 -5.99425 0
M  V30 241 H 25.2627 -0.506041 -4.82252 0
M  V30 242 N 26.6058 1.57591 -0.0167156 0
M  V30 243 C 28.0218 1.55946 0.339557 0
M  V30 244 C 28.2218 1.02109 1.73713 0
M  V30 245 O 27.2778 0.662303 2.43659 0
M  V30 246 C 28.5908 3.00037 0.199499 0
M  V30 247 C 30.1388 3.11805 0.273193 0
M  V30 248 C 30.6138 4.57713 0.162068 0
M  V30 249 N 32.1048 4.6268 0.219444 0
M  V30 250 C 32.8398 5.73185 0.157054 0
M  V30 251 N 32.3358 6.92786 0.0442936 0
M  V30 252 N 34.1288 5.61707 0.21014 0
M  V30 253 H 26.2798 1.90921 -0.930758 0
M  V30 254 H 28.5428 0.877674 -0.358319 0
M  V30 255 H 28.2488 3.4333 -0.76273 0
M  V30 256 H 28.1228 3.64387 0.974786 0
M  V30 257 H 30.5098 2.68433 1.22587 0
M  V30 258 H 30.5908 2.50201 -0.532256 0
M  V30 259 H 30.2348 5.01763 -0.78714 0
M  V30 260 H 30.1648 5.17283 0.986222 0
M  V30 261 H 32.6558 3.76649 0.307246 0
M  V30 262 H 32.9688 7.728 0.00304069 0
M  V30 263 H 31.3138 6.94999 0.00968457 0
M  V30 264 H 34.5048 4.6716 0.296546 0
M  V30 265 H 34.6778 6.47807 0.158054 0
M  V30 266 N 28.0839 -0.256276 1.55502 0
M  V30 267 C 29.0139 -1.32102 1.92539 0
M  V30 268 C 29.9949 -1.50684 0.789194 0
M  V30 269 O 31.1799 -1.63449 1.04872 0
M  V30 270 C 28.3099 -2.67752 2.21192 0
M  V30 271 C 27.2639 -2.63878 3.36975 0
M  V30 272 C 26.5899 -4.03236 3.51147 0
M  V30 273 C 27.8899 -2.21682 4.72921 0
M  V30 274 H 29.5839 -1.01351 2.81724 0
M  V30 275 H 27.1299 -0.486105 1.35547 0
M  V30 276 H 29.0829 -3.42365 2.45691 0
M  V30 277 H 27.8069 -3.0012 1.28824 0
M  V30 278 H 26.4659 -1.91722 3.12471 0
M  V30 279 H 26.1139 -4.32854 2.56216 0
M  V30 280 H 25.8139 -4.01535 4.29003 0
M  V30 281 H 27.3379 -4.79563 3.77957 0
M  V30 282 H 28.7519 -2.86023 4.96854 0
M  V30 283 H 27.1489 -2.3111 5.53812 0
M  V30 284 H 28.2189 -1.16833 4.70615 0
M  V30 285 N 29.562 -1.4872 -0.521534 0
M  V30 286 C 30.787 -1.61101 -1.30618 0
M  V30 287 C 31.212 -0.274611 -1.86085 0
M  V30 288 O 30.57 0.754937 -1.64834 0
M  V30 289 C 30.618 -2.66709 -2.4269 0
M  V30 290 O 29.722 -2.24456 -3.45967 0
M  V30 291 H 29.063 -0.539921 -0.386499 0
M  V30 292 H 31.593 -1.94767 -0.626645 0
M  V30 293 H 31.603 -2.88245 -2.88754 0
M  V30 294 H 30.278 -3.63727 -2.01682 0
M  V30 295 H 28.855 -2.13168 -3.05964 0
M  V30 296 N 31.0401 0.771051 -1.3745 0
M  V30 297 C 32.2801 1.54264 -1.34096 0
M  V30 298 C 32.6441 1.91858 0.0737639 0
M  V30 299 O 33.8451 2.67797 0.23203 0
M  V30 300 C 32.1161 2.77326 -2.25445 0
M  V30 301 S 33.6751 3.67383 -2.39948 0
M  V30 302 H 30.4931 0.528122 -0.476034 0
M  V30 303 H 33.0951 0.906633 -1.73206 0
M  V30 304 H 31.7991 2.47788 -3.27153 0
M  V30 305 H 31.3301 3.45886 -1.87421 0
M  V30 306 H 33.3451 4.69334 -1.61059 0
M  V30 307 N 32.5182 1.22032 0.997298 0
M  V30 308 C 33.4812 0.987909 2.06816 0
M  V30 309 C 34.4812 -0.0440084 1.6074 0
M  V30 310 O 35.6712 0.194053 1.73116 0
M  V30 311 C 32.8032 0.49132 3.37341 0
M  V30 312 H 33.9962 1.93803 2.28868 0
M  V30 313 H 31.5492 1.03838 1.16822 0
M  V30 314 H 32.2842 -0.463364 3.20973 0
M  V30 315 H 32.0692 1.23575 3.72118 0
M  V30 316 H 33.5592 0.348824 4.16141 0
M  V30 317 N 33.9963 -1.19345 1.0293 0
M  V30 318 C 34.9593 -2.20793 0.615069 0
M  V30 319 C 35.9593 -1.57553 -0.321533 0
M  V30 320 O 37.1493 -1.73862 -0.108483 0
M  V30 321 C 34.2813 -3.40754 -0.0999222 0
M  V30 322 H 35.4743 -2.58955 1.51269 0
M  V30 323 H 33.0273 -1.3303 0.820534 0
M  V30 324 H 33.7623 -3.0811 -1.01187 0
M  V30 325 H 33.5473 -3.87889 0.57309 0
M  V30 326 H 35.0373 -4.15898 -0.376645 0
M  V30 327 N 35.4744 -0.807222 -1.35358 0
M  V30 328 C 36.6994 -0.399309 -2.0352 0
M  V30 329 C 37.1244 0.981986 -1.60433 0
M  V30 330 O 36.4824 1.63601 -0.781299 0
M  V30 331 C 36.5304 -0.491552 -3.57234 0
M  V30 332 O 35.6344 0.494754 -4.09421 0
M  V30 333 H 34.9754 -0.166682 -0.642739 0
M  V30 334 H 37.5054 -1.09328 -1.72941 0
M  V30 335 H 37.5154 -0.361588 -4.06395 0
M  V30 336 H 36.1904 -1.49907 -3.87944 0
M  V30 337 H 34.7674 0.324977 -3.71481 0
M  V30 338 N 36.9525 1.47285 -0.560781 0
M  V30 339 C 38.2005 2.02064 -0.0379868 0
M  V30 340 C 38.5215 1.43711 1.31803 0
M  V30 341 O 37.7915 0.61362 1.86042 0
M  V30 342 H 36.3715 0.746918 -0.0110531 0
M  V30 343 H 39.0335 1.80648 -0.731598 0
M  V30 344 H 38.1295 3.12064 0.0474463 0
M  V30 345 N 38.4306 0.297415 1.54768 0
M  V30 346 C 39.6606 -0.315165 2.04182 0
M  V30 347 C 40.0686 -1.4834 1.17439 0
M  V30 348 O 39.4116 -1.82695 0.191891 0
M  V30 349 C 39.4736 -0.837583 3.49607 0
M  V30 350 C 39.1376 0.204912 4.5654 0
M  V30 351 C 40.1346 1.03214 5.09552 0
M  V30 352 C 37.8196 0.345578 5.0111 0
M  V30 353 C 39.8136 1.986 6.05671 0
M  V30 354 C 37.5006 1.30289 5.97049 0
M  V30 355 C 38.4986 2.12159 6.49213 0
M  V30 356 O 38.1866 3.06268 7.43273 0
M  V30 357 H 37.9186 -0.0729646 0.672051 0
M  V30 358 H 40.4726 0.433907 2.00765 0
M  V30 359 H 38.7026 -1.63712 3.50336 0
M  V30 360 H 40.3916 -1.36566 3.82236 0
M  V30 361 H 41.1576 0.934312 4.75916 0
M  V30 362 H 37.0366 -0.28171 4.60138 0
M  V30 363 H 40.5806 2.62542 6.46311 0
M  V30 364 H 36.4776 1.40145 6.30103 0
M  V30 365 H 37.2456 3.01205 7.61064 0
M  V30 366 N 39.9087 -1.5758 0.0250728 0
M  V30 367 C 41.1367 -1.9593 -0.664747 0
M  V30 368 C 41.5517 -0.901352 -1.65895 0
M  V30 369 O 40.9087 0.117255 -1.82123 0
M  V30 370 C 40.9597 -3.34342 -1.37468 0
M  V30 371 O 40.6807 -4.36079 -0.420324 0
M  V30 372 C 42.1817 -3.873 -2.1567 0
M  V30 373 H 39.4017 -0.645405 -0.183557 0
M  V30 374 H 41.9457 -2.04329 0.0836372 0
M  V30 375 H 40.1007 -3.27175 -2.0745 0
M  V30 376 H 40.5147 -5.16297 -0.923991 0
M  V30 377 H 41.9887 -4.86504 -2.60803 0
M  V30 378 H 42.4657 -3.21331 -2.99405 0
M  V30 379 H 43.0717 -3.97723 -1.50654 0
M  V30 380 N 41.3868 0.248026 -1.55636 0
M  V30 381 C 42.6338 0.976224 -1.77415 0
M  V30 382 C 42.9618 1.85361 -0.589193 0
M  V30 383 O 42.2168 1.90973 0.427529 0
M  V30 384 C 42.5158 1.86819 -3.04686 0
M  V30 385 C 42.1818 1.14625 -4.36087 0
M  V30 386 C 40.8438 0.946723 -4.71795 0
M  V30 387 C 43.1958 0.634463 -5.17324 0
M  V30 388 C 40.5238 0.223091 -5.86276 0
M  V30 389 C 42.8758 -0.0756959 -6.32555 0
M  V30 390 C 41.5398 -0.286711 -6.66884 0
M  V30 391 H 40.8098 0.357226 -0.649208 0
M  V30 392 H 43.4568 0.246415 -1.89908 0
M  V30 393 H 41.7618 2.66502 -2.872 0
M  V30 394 H 43.4588 2.43329 -3.18735 0
M  V30 395 H 40.0488 1.3117 -4.08035 0
M  V30 396 H 44.2328 0.77616 -4.90193 0
M  V30 397 H 39.4888 0.0491185 -6.1138 0
M  V30 398 H 43.6628 -0.479899 -6.94745 0
M  V30 399 H 41.2898 -0.849389 -7.5544 0
M  V30 400 N 42.8649 1.48995 0.513639 0
M  V30 401 C 44.0929 1.61531 1.29288 0
M  V30 402 C 44.5079 0.281801 1.86685 0
M  V30 403 O 43.8649 -0.731111 1.67215 0
M  V30 404 C 43.9159 2.67449 2.43215 0
M  V30 405 O 43.6369 3.95626 1.88179 0
M  V30 406 C 45.1379 2.90575 3.34785 0
M  V30 407 H 42.3579 0.544165 0.392588 0
M  V30 408 H 44.9019 1.9494 0.617956 0
M  V30 409 H 43.0569 2.36853 3.0656 0
M  V30 410 H 43.4709 4.53868 2.62876 0
M  V30 411 H 44.9449 3.68449 4.11035 0
M  V30 412 H 45.4219 2.00011 3.91015 0
M  V30 413 H 46.0279 3.22538 2.77218 0
M  V30 414 N 44.343 -0.763751 1.37857 0
M  V30 415 C 45.291 -1.89864 1.34367 0
M  V30 416 C 46.285 -1.67816 0.231143 0
M  V30 417 O 47.491 -1.75508 0.399617 0
M  V30 418 H 43.866 -0.624501 0.41893 0
M  V30 419 H 45.837 -1.89925 2.30155 0
M  V30 420 C 44.586 -3.27227 1.1755 0
M  V30 421 H 43.909 -3.44773 2.02414 0
M  V30 422 H 45.349 -4.06911 1.1916 0
M  V30 423 C 43.808 -3.36692 -0.118311 0
M  V30 424 O 44.338 -3.86374 -1.09902 0
M  V30 425 N 42.544 -2.90092 -0.171717 0
M  V30 426 H 42.091 -2.49853 0.627012 0
M  V30 427 H 42.049 -2.96806 -1.03699 0
M  V30 428 N 45.8211 -1.22559 -0.990812 0
M  V30 429 C 47.0511 -1.07623 -1.76355 0
M  V30 430 C 47.4591 0.37601 -1.85426 0
M  V30 431 O 46.8021 1.27228 -1.32509 0
M  V30 432 C 46.8641 -1.61507 -3.21179 0
M  V30 433 C 46.5281 -3.10146 -3.35646 0
M  V30 434 C 47.5251 -4.07553 -3.22796 0
M  V30 435 C 45.2101 -3.49644 -3.60631 0
M  V30 436 C 47.2041 -5.42442 -3.34716 0
M  V30 437 C 44.8911 -4.84682 -3.72192 0
M  V30 438 C 45.8891 -5.8089 -3.59243 0
M  V30 439 O 45.5771 -7.13476 -3.70415 0
M  V30 440 H 45.3091 -0.377745 -0.560611 0
M  V30 441 H 47.8631 -1.62658 -1.25425 0
M  V30 442 H 46.0931 -1.00881 -3.73309 0
M  V30 443 H 47.7821 -1.42202 -3.80175 0
M  V30 444 H 48.5481 -3.78381 -3.03403 0
M  V30 445 H 44.4271 -2.75282 -3.69785 0
M  V30 446 H 47.9711 -6.17518 -3.24526 0
M  V30 447 H 43.8681 -5.13534 -3.91092 0
M  V30 448 H 44.6361 -7.21083 -3.87275 0
M  V30 449 N 47.2992 1.18797 -1.03562 0
M  V30 450 C 48.5472 1.88278 -0.734569 0
M  V30 451 C 48.8682 1.8043 0.739586 0
M  V30 452 O 48.1382 1.21925 1.53333 0
M  V30 453 H 46.7182 0.696991 -0.268725 0
M  V30 454 H 49.3802 1.44192 -1.31129 0
M  V30 455 H 48.4762 2.94443 -1.03489 0
M  V30 456 N 48.7773 0.814389 1.34928 0
M  V30 457 C 49.7103 0.175641 2.27523 0
M  V30 458 C 50.6883 -0.662953 1.48471 0
M  V30 459 O 51.8723 -0.628545 1.77712 0
M  V30 460 C 48.9993 -0.755516 3.30166 0
M  V30 461 C 48.0453 0.00445305 4.265 0
M  V30 462 S 48.8783 1.34582 5.18313 0
M  V30 463 C 50.0343 0.419315 6.24494 0
M  V30 464 H 50.2673 0.960691 2.8135 0
M  V30 465 H 47.8003 0.609846 1.41846 0
M  V30 466 H 49.7583 -1.28723 3.89796 0
M  V30 467 H 48.4193 -1.51402 2.75202 0
M  V30 468 H 47.6123 -0.703077 4.99072 0
M  V30 469 H 47.2143 0.466447 3.7108 0
M  V30 470 H 49.5063 -0.392432 6.76362 0
M  V30 471 H 50.4493 1.11446 6.99275 0
M  V30 472 H 50.8573 0.0115389 5.64499 0
M  V30 473 N 50.2554 -1.46986 0.568584 0
M  V30 474 C 51.2034 -2.31858 -0.185649 0
M  V30 475 C 52.1974 -1.43624 -0.898249 0
M  V30 476 O 53.4034 -1.60327 -0.818242 0
M  V30 477 H 49.7784 -0.747866 -0.0787399 0
M  V30 478 H 51.7494 -2.93303 0.549191 0
M  V30 479 C 50.4984 -3.26513 -1.19519 0
M  V30 480 H 49.8214 -3.94377 -0.656285 0
M  V30 481 H 51.2614 -3.88707 -1.6936 0
M  V30 482 C 49.7204 -2.50847 -2.24894 0
M  V30 483 O 50.2504 -2.26119 -3.32014 0
M  V30 484 N 48.4564 -2.11656 -1.99124 0
M  V30 485 H 48.0034 -2.31966 -1.12024 0
M  V30 486 H 47.9614 -1.61347 -2.69842 0
M  V30 487 N 51.7335 -0.305618 -1.54608 0
M  V30 488 C 52.9795 0.295595 -2.01241 0
M  V30 489 C 53.3345 1.51171 -1.19018 0
M  V30 490 O 52.6275 1.89832 -0.259684 0
M  V30 491 C 52.8215 0.698983 -3.50498 0
M  V30 492 C 52.6505 -0.476491 -4.47168 0
M  V30 493 C 51.4205 -0.969963 -4.95903 0
M  V30 494 C 53.6185 -1.32294 -4.96994 0
M  V30 495 N 51.6005 -2.11172 -5.76437 0
M  V30 496 C 52.9715 -2.31212 -5.75275 0
M  V30 497 C 55.0265 -1.35278 -4.7917 0
M  V30 498 C 53.7295 -3.32896 -6.37631 0
M  V30 499 C 55.7555 -2.35823 -5.42348 0
M  V30 500 C 55.1175 -3.33469 -6.20466 0
M  V30 501 H 51.2165 0.0724992 -0.778632 0
M  V30 502 H 53.8005 -0.436583 -1.89742 0
M  V30 503 H 51.9715 1.40032 -3.62278 0
M  V30 504 H 53.7035 1.28013 -3.8392 0
M  V30 505 H 50.4585 -0.544178 -4.70463 0
M  V30 506 H 50.8825 -2.68714 -6.21387 0
M  V30 507 H 55.5245 -0.61157 -4.18354 0
M  V30 508 H 53.2425 -4.07933 -6.97579 0
M  V30 509 H 56.8285 -2.38911 -5.30484 0
M  V30 510 H 55.7085 -4.09996 -6.68485 0
M  V30 511 N 53.2116 1.57565 -0.0334293 0
M  V30 512 C 54.4576 1.92262 0.645226 0
M  V30 513 C 54.7906 0.910543 1.71531 0
M  V30 514 O 54.0656 -0.066099 1.94388 0
M  V30 515 C 54.3486 3.37422 1.2577 0
M  V30 516 C 54.2016 4.49369 0.196891 0
M  V30 517 C 55.5206 3.82628 2.17449 0
M  V30 518 H 52.6396 0.699171 0.233085 0
M  V30 519 H 55.2816 1.89779 -0.0915694 0
M  V30 520 H 53.4316 3.39669 1.88566 0
M  V30 521 H 55.1036 4.59254 -0.433962 0
M  V30 522 H 53.3466 4.31168 -0.477137 0
M  V30 523 H 54.0176 5.47978 0.665124 0
M  V30 524 H 56.4936 3.82145 1.64634 0
M  V30 525 H 55.3696 4.84883 2.57254 0
M  V30 526 H 55.6306 3.18376 3.0674 0
M  V30 527 N 54.6897 -0.239769 1.55765 0
M  V30 528 C 56.1057 -0.588624 1.48349 0
M  V30 529 C 56.3057 -1.88005 0.72502 0
M  V30 530 O 55.3617 -2.51186 0.257269 0
M  V30 531 C 56.6747 -0.68474 2.928 0
M  V30 532 C 58.2227 -0.77659 3.03213 0
M  V30 533 C 58.6977 -0.904207 4.48986 0
M  V30 534 N 60.1887 -0.968896 4.52953 0
M  V30 535 C 60.9237 -1.08703 5.63002 0
M  V30 536 N 60.4197 -1.17026 6.82845 0
M  V30 537 N 62.2127 -1.12074 5.50814 0
M  V30 538 H 54.3637 0.607911 2.03515 0
M  V30 539 H 56.6267 0.21083 0.924259 0
M  V30 540 H 56.3327 0.194284 3.51163 0
M  V30 541 H 56.2067 -1.55435 3.43686 0
M  V30 542 H 58.5937 -1.64606 2.44926 0
M  V30 543 H 58.6747 0.118315 2.55526 0
M  V30 544 H 58.3187 -0.0392633 5.07885 0
M  V30 545 H 58.2487 -1.81426 4.9436 0
M  V30 546 H 60.7397 -0.915633 3.6664 0
M  V30 547 H 61.0527 -1.25966 7.62465 0
M  V30 548 H 59.3977 -1.13971 6.85591 0
M  V30 549 H 62.5887 -1.05226 4.5612 0
M  V30 550 H 62.7617 -1.20936 6.36615 0
M  V30 551 N 56.1678 -1.49265 -0.50573 0
M  V30 552 C 57.0998 -1.617 -1.62437 0
M  V30 553 C 58.1128 -0.499924 -1.54934 0
M  V30 554 O 59.3018 -0.771785 -1.60953 0
M  V30 555 C 56.4018 -1.5533 -3.01207 0
M  V30 556 C 55.5748 -2.8249 -3.33943 0
M  V30 557 C 54.6338 -2.69238 -4.52103 0
M  V30 558 O 53.6598 -3.43167 -4.5412 0
M  V30 559 N 54.8618 -1.80468 -5.51735 0
M  V30 560 H 57.6268 -2.58177 -1.52199 0
M  V30 561 H 55.1878 -1.46294 -0.693511 0
M  V30 562 H 57.1798 -1.44125 -3.78167 0
M  V30 563 H 55.7498 -0.667297 -3.05395 0
M  V30 564 H 54.9698 -3.08081 -2.45926 0
M  V30 565 H 56.2578 -3.66802 -3.5261 0
M  V30 566 H 55.6558 -1.19653 -5.52901 0
M  V30 567 H 54.2128 -1.75188 -6.27816 0
M  V30 568 N 57.6459 0.756429 -1.3826 0
M  V30 569 C 58.6089 1.85176 -1.35065 0
M  V30 570 C 59.6089 1.58818 -0.251703 0
M  V30 571 O 60.7989 1.66615 -0.508433 0
M  V30 572 C 57.9309 3.22596 -1.10201 0
M  V30 573 H 59.1239 1.89417 -2.3251 0
M  V30 574 H 56.6769 0.95783 -1.23512 0
M  V30 575 H 57.4119 3.24025 -0.133504 0
M  V30 576 H 57.1969 3.43122 -1.89762 0
M  V30 577 H 58.6869 4.02673 -1.10654 0
M  V30 578 N 59.124 1.23083 0.984299 0
M  V30 579 C 60.535 1.05609 1.5396 0
M  V30 580 C 60.886 -0.377793 1.92528 0
M  V30 581 O 60.011 -1.26398 1.75649 0
M  V30 582 C 60.606 1.91087 2.7977 0
M  V30 583 C 59.165 1.77885 3.31713 0
M  V30 584 C 58.312 1.87028 2.04733 0
M  V30 585 H 61.263 1.36802 0.804419 0
M  V30 586 H 61.284 1.43336 3.5247 0
M  V30 587 H 60.796 2.9544 2.51668 0
M  V30 588 H 58.897 0.762995 3.64704 0
M  V30 589 H 59.01 2.61047 4.01735 0
M  V30 590 H 57.374 1.30565 2.18689 0
M  V30 591 H 58.157 2.92929 1.79017 0
M  V30 592 N 60.6021 -1.18246 1.0419 0
M  V30 593 C 61.8501 -1.87886 0.744543 0
M  V30 594 C 62.1711 -1.8082 -0.730006 0
M  V30 595 O 61.4411 -1.22736 -1.52685 0
M  V30 596 H 60.0211 -0.695556 0.272417 0
M  V30 597 H 62.6831 -1.43494 1.31892 0
M  V30 598 H 61.7791 -2.9389 1.05049 0
M  V30 599 N 62.0802 -0.821533 -1.34494 0
M  V30 600 C 63.0272 -0.240397 -2.29545 0
M  V30 601 C 63.9972 0.634031 -1.53523 0
M  V30 602 O 65.1822 0.575966 -1.81899 0
M  V30 603 C 62.3222 0.592869 -3.39969 0
M  V30 604 C 61.4352 -0.30365 -4.30932 0
M  V30 605 C 60.5702 0.539049 -5.28458 0
M  V30 606 C 59.6092 -0.356942 -6.11058 0
M  V30 607 N 58.7462 0.446603 -7.00678 0
M  V30 608 H 63.5862 -1.05632 -2.7865 0
M  V30 609 H 61.1232 -0.532413 -1.37127 0
M  V30 610 H 63.0812 1.09129 -4.02675 0
M  V30 611 H 61.7112 1.37392 -2.92102 0
M  V30 612 H 60.7632 -0.920276 -3.691 0
M  V30 613 H 62.0752 -0.992661 -4.88823 0
M  V30 614 H 61.2292 1.102 -5.96608 0
M  V30 615 H 59.9682 1.26157 -4.71101 0
M  V30 616 H 58.9732 -0.932047 -5.41842 0
M  V30 617 H 60.1982 -1.07755 -6.70497 0
M  V30 618 H 58.1442 1.15282 -6.45791 0
M  V30 619 H 58.0612 -0.184048 -7.55776 0
M  V30 620 H 59.3292 0.992352 -7.73158 0
M  V30 621 N 63.5583 1.46682 -0.576371 0
M  V30 622 C 64.8063 2.02013 -0.0594163 0
M  V30 623 C 65.1273 1.45101 1.30271 0
M  V30 624 O 64.3973 0.633317 1.8538 0
M  V30 625 H 62.9773 0.746759 -0.0189745 0
M  V30 626 H 65.6393 1.79862 -0.750717 0
M  V30 627 H 64.7353 3.12097 0.014345 0
M  V30 628 N 65.0364 0.313813 1.54444 0
M  V30 629 C 65.9664 -0.549454 2.26943 0
M  V30 630 C 66.9474 -1.12741 1.27372 0
M  V30 631 O 68.1324 -1.15436 1.56167 0
M  V30 632 C 65.2624 -1.71523 3.01989 0
M  V30 633 C 64.2164 -1.26703 4.08816 0
M  V30 634 C 63.5424 -2.51898 4.71647 0
M  V30 635 C 64.8424 -0.388962 5.2085 0
M  V30 636 H 66.5364 0.0552661 2.99349 0
M  V30 637 H 64.0824 0.0280207 1.43973 0
M  V30 638 H 66.0354 -2.32535 3.51433 0
M  V30 639 H 64.7594 -2.34639 2.27183 0
M  V30 640 H 63.4184 -0.679896 3.6024 0
M  V30 641 H 63.0664 -3.13356 3.93468 0
M  V30 642 H 62.7664 -2.22605 5.43802 0
M  V30 643 H 64.2904 -3.1369 5.23861 0
M  V30 644 H 65.7044 -0.905107 5.6611 0
M  V30 645 H 64.1014 -0.18924 5.99802 0
M  V30 646 H 65.1714 0.582699 4.81386 0
M  V30 647 N 66.5145 -1.57545 0.0417849 0
M  V30 648 C 67.4245 -2.14451 -0.951213 0
M  V30 649 C 68.4405 -1.09992 -1.34825 0
M  V30 650 O 69.6165 -1.42114 -1.42708 0
M  V30 651 C 66.6815 -2.67063 -2.21084 0
M  V30 652 C 65.7425 -3.86284 -1.87304 0
M  V30 653 C 64.9755 -4.36378 -3.07261 0
M  V30 654 O 65.1985 -3.85587 -4.20332 0
M  V30 655 O 64.1325 -5.28077 -2.88822 0
M  V30 656 H 67.9585 -2.99601 -0.497287 0
M  V30 657 H 65.5435 -1.48317 -0.179567 0
M  V30 658 H 67.4255 -3.00914 -2.95006 0
M  V30 659 H 66.1005 -1.84989 -2.65633 0
M  V30 660 H 65.0075 -3.57338 -1.10727 0
M  V30 661 H 66.3405 -4.6956 -1.47562 0
M  V30 662 N 67.9926 0.231505 -1.5589 0
M  V30 663 C 69.2386 0.954429 -1.79617 0
M  V30 664 C 69.5936 1.82367 -0.613199 0
M  V30 665 O 68.8866 1.87524 0.393094 0
M  V30 666 C 69.0806 1.83577 -3.0665 0
M  V30 667 C 68.9096 1.05334 -4.3719 0
M  V30 668 C 67.6796 0.75225 -4.99669 0
M  V30 669 C 69.8776 0.423444 -5.12554 0
M  V30 670 N 67.8596 -0.052627 -6.13877 0
M  V30 671 C 69.2306 -0.245287 -6.19515 0
M  V30 672 C 71.2856 0.335466 -4.96769 0
M  V30 673 C 69.9886 -0.993566 -7.12405 0
M  V30 674 C 72.0146 -0.399321 -5.9005 0
M  V30 675 C 71.3766 -1.05663 -6.9643 0
M  V30 676 H 67.4756 0.329846 -0.709031 0
M  V30 677 H 70.0596 0.226172 -1.93382 0
M  V30 678 H 68.2306 2.53592 -2.94186 0
M  V30 679 H 69.9626 2.49541 -3.18608 0
M  V30 680 H 66.7176 1.06783 -4.61405 0
M  V30 681 H 67.1416 -0.443609 -6.75545 0
M  V30 682 H 71.7836 0.829311 -4.14587 0
M  V30 683 H 69.5016 -1.49896 -7.94076 0
M  V30 684 H 73.0876 -0.468265 -5.79913 0
M  V30 685 H 71.9676 -1.61612 -7.67366 0
M  V30 686 N 69.4707 1.49531 0.497807 0
M  V30 687 C 70.7167 1.59415 1.25358 0
M  V30 688 C 71.0497 0.281422 1.9215 0
M  V30 689 O 70.3247 -0.715249 1.80871 0
M  V30 690 C 70.6077 2.75566 2.3181 0
M  V30 691 C 70.4607 4.16642 1.69498 0
M  V30 692 C 71.7797 2.87347 3.33346 0
M  V30 693 H 68.8987 0.580244 0.454408 0
M  V30 694 H 71.5407 1.81827 0.551262 0
M  V30 695 H 69.6907 2.56587 2.91711 0
M  V30 696 H 71.3627 4.47145 1.13399 0
M  V30 697 H 69.6057 4.22141 0.998978 0
M  V30 698 H 70.2767 4.93792 2.46725 0
M  V30 699 H 72.7527 3.04634 2.83438 0
M  V30 700 H 71.6287 3.70289 4.05188 0
M  V30 701 H 71.8897 1.96834 3.95865 0
M  V30 702 N 70.9488 -0.749086 1.3866 0
M  V30 703 C 72.1968 -1.50535 1.34847 0
M  V30 704 C 72.5178 -1.94909 -0.0595016 0
M  V30 705 O 71.7878 -1.67973 -1.00806 0
M  V30 706 H 70.3678 -0.558395 0.49619 0
M  V30 707 H 73.0298 -0.890165 1.73384 0
M  V30 708 H 72.1258 -2.39413 2.00219 0
M  V30 709 N 72.4269 -1.23603 -0.977757 0
M  V30 710 C 73.6729 -1.08136 -1.72274 0
M  V30 711 C 74.0279 0.377453 -1.88661 0
M  V30 712 O 73.3209 1.27552 -1.42972 0
M  V30 713 C 73.5149 -1.7433 -3.11999 0
M  V30 714 C 73.3439 -3.26498 -3.0924 0
M  V30 715 C 72.1139 -3.9567 -3.14282 0
M  V30 716 C 74.3119 -4.2323 -2.92201 0
M  V30 717 N 72.2939 -5.34799 -3.01436 0
M  V30 718 C 73.6649 -5.49289 -2.87544 0
M  V30 719 C 75.7199 -4.13931 -2.76705 0
M  V30 720 C 74.4229 -6.67116 -2.68978 0
M  V30 721 C 76.4489 -5.31424 -2.59504 0
M  V30 722 C 75.8109 -6.5641 -2.55548 0
M  V30 723 H 71.9099 -0.450247 -0.639376 0
M  V30 724 H 74.4939 -1.5637 -1.16002 0
M  V30 725 H 72.6649 -1.28624 -3.66484 0
M  V30 726 H 74.3969 -1.51815 -3.75146 0
M  V30 727 H 71.1519 -3.46767 -3.22567 0
M  V30 728 H 71.5759 -6.07748 -2.98281 0
M  V30 729 H 76.2179 -3.1807 -2.78552 0
M  V30 730 H 73.9359 -7.63109 -2.65876 0
M  V30 731 H 77.5219 -5.26072 -2.48474 0
M  V30 732 H 76.4019 -7.45795 -2.42405 0
M  V30 733 N 73.905 1.17692 -1.04816 0
M  V30 734 C 75.154 1.87192 -0.751132 0
M  V30 735 C 75.467 1.8169 0.724441 0
M  V30 736 O 76.673 2.46625 1.13527 0
M  V30 737 C 75.129 3.35857 -1.29338 0
M  V30 738 C 74.737 3.4987 -2.79812 0
M  V30 739 C 76.481 4.10709 -1.07322 0
M  V30 740 C 74.388 4.92536 -3.27356 0
M  V30 741 H 73.318 0.701162 -0.277288 0
M  V30 742 H 75.969 1.32932 -1.26496 0
M  V30 743 H 74.351 3.89631 -0.707376 0
M  V30 744 H 75.525 3.06332 -3.44235 0
M  V30 745 H 73.84 2.88433 -3.00325 0
M  V30 746 H 76.437 5.15952 -1.4035 0
M  V30 747 H 76.78 4.16299 -0.0108001 0
M  V30 748 H 77.313 3.6313 -1.62423 0
M  V30 749 H 74.052 4.92119 -4.33012 0
M  V30 750 H 73.572 5.3676 -2.67673 0
M  V30 751 H 75.251 5.61288 -3.21815 0
M  V30 752 N 75.3831 0.828654 1.34056 0
M  V30 753 C 76.3311 0.242973 2.31327 0
M  V30 754 C 77.3251 -0.61944 1.57668 0
M  V30 755 O 78.5311 -0.51014 1.7262 0
M  V30 756 H 74.9061 0.059834 0.749616 0
M  V30 757 H 76.8771 1.07809 2.78244 0
M  V30 758 C 75.6261 -0.575733 3.429 0
M  V30 759 H 74.9491 0.0785582 3.99723 0
M  V30 760 H 76.3891 -0.951547 4.13185 0
M  V30 761 C 74.8481 -1.75044 2.87856 0
M  V30 762 O 75.3781 -2.84882 2.83205 0
M  V30 763 N 73.5841 -1.56903 2.44602 0
M  V30 764 H 73.1311 -0.675547 2.48584 0
M  V30 765 H 73.0891 -2.35652 2.08124 0
M  V30 766 N 76.8612 -1.46375 0.584142 0
M  V30 767 C 78.0892 -2.06761 0.0759296 0
M  V30 768 C 78.5042 -1.43266 -1.22965 0
M  V30 769 O 77.8612 -0.538458 -1.74376 0
M  V30 770 C 77.9122 -3.61375 -0.0950384 0
M  V30 771 O 77.6332 -4.22495 1.15887 0
M  V30 772 C 79.1342 -4.38693 -0.637434 0
M  V30 773 H 76.3542 -0.668479 0.0581075 0
M  V30 774 H 78.8982 -1.8798 0.805218 0
M  V30 775 H 77.0532 -3.79578 -0.774554 0
M  V30 776 H 77.4672 -5.15385 0.973598 0
M  V30 777 H 78.9412 -5.47464 -0.706237 0
M  V30 778 H 79.4182 -4.06836 -1.65472 0
M  V30 779 H 80.0242 -4.25299 0.00725967 0
M  V30 780 N 78.3393 -0.321999 -1.54275 0
M  V30 781 C 79.5693 0.282642 -2.04658 0
M  V30 782 C 79.9773 1.46453 -1.19784 0
M  V30 783 O 79.3203 1.82367 -0.220932 0
M  V30 784 C 79.3823 0.781857 -3.50895 0
M  V30 785 C 79.0463 -0.277517 -4.56157 0
M  V30 786 C 80.0433 -1.11307 -5.07845 0
M  V30 787 C 77.7283 -0.425256 -5.00497 0
M  V30 788 C 79.7223 -2.08211 -6.02434 0
M  V30 789 C 77.4093 -1.39771 -5.94901 0
M  V30 790 C 78.4073 -2.2246 -6.45756 0
M  V30 791 O 78.0953 -3.18054 -7.38307 0
M  V30 792 H 77.8273 0.0622636 -0.673126 0
M  V30 793 H 80.3813 -0.465792 -2.00049 0
M  V30 794 H 78.6113 1.58118 -3.52896 0
M  V30 795 H 80.3003 1.30467 -3.84361 0
M  V30 796 H 81.0663 -1.00991 -4.74369 0
M  V30 797 H 76.9453 0.20847 -4.60528 0
M  V30 798 H 80.4893 -2.72791 -6.42052 0
M  V30 799 H 76.3863 -1.50152 -6.27794 0
M  V30 800 H 77.1543 -3.13275 -7.56175 0
M  V30 801 N 79.8174 1.5752 -0.0501392 0
M  V30 802 C 81.0454 1.96963 0.633492 0
M  V30 803 C 81.4604 0.927631 1.6444 0
M  V30 804 O 80.8174 -0.0882665 1.82286 0
M  V30 805 C 80.8684 3.36487 1.32132 0
M  V30 806 O 80.5894 4.36693 0.350894 0
M  V30 807 C 82.0904 3.90682 2.09481 0
M  V30 808 H 79.3104 0.648244 0.173266 0
M  V30 809 H 81.8544 2.0417 -0.116134 0
M  V30 810 H 80.0094 3.30434 2.02218 0
M  V30 811 H 80.4234 5.17702 0.841735 0
M  V30 812 H 81.8974 4.90591 2.5303 0
M  V30 813 H 82.3744 3.26053 2.94255 0
M  V30 814 H 82.9804 4.00069 1.44307 0
M  V30 815 N 81.2955 -0.223234 1.56011 0
M  V30 816 C 82.5435 -0.946003 1.78592 0
M  V30 817 C 82.8645 -1.84936 0.618349 0
M  V30 818 O 82.1345 -1.92473 -0.364833 0
M  V30 819 H 80.7145 -0.352298 0.658707 0
M  V30 820 H 83.3765 -0.235494 1.93472 0
M  V30 821 H 82.4725 -1.55381 2.70672 0
M  V30 822 N 82.7736 -1.49793 -0.48987 0
M  V30 823 C 83.6836 -1.70036 -1.61632 0
M  V30 824 C 84.6996 -0.583102 -1.63939 0
M  V30 825 O 85.8756 -0.859169 -1.82154 0
M  V30 826 C 82.9406 -1.77277 -2.97949 0
M  V30 827 C 82.0016 -3.00918 -3.06181 0
M  V30 828 C 81.2346 -3.07804 -4.35996 0
M  V30 829 O 81.4576 -2.21982 -5.25433 0
M  V30 830 O 80.3916 -4.00369 -4.49431 0
M  V30 831 H 84.2176 -2.65486 -1.47482 0
M  V30 832 H 81.8026 -1.33666 -0.667362 0
M  V30 833 H 83.6846 -1.84329 -3.78947 0
M  V30 834 H 82.3596 -0.850076 -3.12339 0
M  V30 835 H 81.2666 -2.99377 -2.2433 0
M  V30 836 H 82.5996 -3.92704 -2.96723 0
M  V30 837 N 84.2517 0.741722 -1.39055 0
M  V30 838 C 85.6627 1.31966 -1.32068 0
M  V30 839 C 86.0137 1.96192 0.0180797 0
M  V30 840 O 85.1387 1.95861 0.920196 0
M  V30 841 C 85.7337 2.39954 -2.39181 0
M  V30 842 C 84.2927 2.93438 -2.35735 0
M  V30 843 C 83.4397 1.66936 -2.21422 0
M  V30 844 H 86.3907 0.539721 -1.4924 0
M  V30 845 H 86.4117 3.20182 -2.05581 0
M  V30 846 H 85.9237 1.9318 -3.36605 0
M  V30 847 H 84.0247 3.4451 -1.41929 0
M  V30 848 H 84.1377 3.4701 -3.30335 0
M  V30 849 H 82.5017 1.91016 -1.68478 0
M  V30 850 H 83.2847 1.22224 -3.20806 0
M  V30 851 N 85.7298 1.2412 0.971189 0
M  V30 852 C 86.9578 1.10575 1.74874 0
M  V30 853 C 87.3728 -0.342017 1.85676 0
M  V30 854 O 86.7298 -1.23617 1.34258 0
M  V30 855 C 86.7808 1.73579 3.171 0
M  V30 856 O 86.5018 3.12695 3.06844 0
M  V30 857 C 88.0028 1.65598 4.11208 0
M  V30 858 H 85.2228 0.386504 0.548503 0
M  V30 859 H 87.7668 1.64156 1.21955 0
M  V30 860 H 85.9218 1.24009 3.67016 0
M  V30 861 H 86.3358 3.43412 3.96445 0
M  V30 862 H 87.8098 2.1437 5.08674 0
M  V30 863 H 88.2868 0.616532 4.34851 0
M  V30 864 H 88.8928 2.14578 3.67201 0
M  V30 865 N 87.2079 -1.17134 1.05439 0
M  V30 866 C 88.4379 -1.91094 0.785274 0
M  V30 867 C 88.8459 -1.77198 -0.663142 0
M  V30 868 O 88.1889 -1.10835 -1.46497 0
M  V30 869 C 88.2509 -3.42594 1.08949 0
M  V30 870 C 87.9149 -3.80274 2.53458 0
M  V30 871 C 88.9119 -3.82912 3.51673 0
M  V30 872 C 86.5969 -4.11162 2.88532 0
M  V30 873 C 88.5909 -4.15913 4.83006 0
M  V30 874 C 86.2779 -4.43831 4.20068 0
M  V30 875 C 87.2759 -4.46185 5.17115 0
M  V30 876 O 86.9639 -4.78083 6.46291 0
M  V30 877 H 86.6959 -0.613073 0.284811 0
M  V30 878 H 89.2499 -1.49461 1.40893 0
M  V30 879 H 87.4799 -3.84534 0.408741 0
M  V30 880 H 89.1689 -3.97817 0.805991 0
M  V30 881 H 89.9349 -3.5917 3.25917 0
M  V30 882 H 85.8139 -4.085 2.13656 0
M  V30 883 H 89.3579 -4.17665 5.5875 0
M  V30 884 H 85.2549 -4.67037 4.45586 0
M  V30 885 H 86.0229 -4.9593 6.51149 0
M  V30 886 N 88.686 -0.835752 -1.33615 0
M  V30 887 C 89.649 -0.272 -2.2758 0
M  V30 888 C 90.649 0.557487 -1.50827 0
M  V30 889 O 91.839 0.37173 -1.70188 0
M  V30 890 C 88.971 0.617173 -3.35267 0
M  V30 891 H 90.164 -1.10111 -2.78954 0
M  V30 892 H 87.717 -0.608594 -1.43965 0
M  V30 893 H 88.452 1.46884 -2.89129 0
M  V30 894 H 88.237 0.0237066 -3.92093 0
M  V30 895 H 89.727 1.005 -4.05326 0
M  V30 896 N 90.1641 1.46063 -0.591896 0
M  V30 897 C 91.1271 2.28854 0.125973 0
M  V30 898 C 92.1271 1.38903 0.810107 0
M  V30 899 O 93.3171 1.61186 0.66066 0
M  V30 900 C 90.4491 3.19526 1.1881 0
M  V30 901 H 91.6421 2.93802 -0.601717 0
M  V30 902 H 89.1951 1.52325 -0.350254 0
M  V30 903 H 89.9301 2.59345 1.94707 0
M  V30 904 H 89.7151 3.85766 0.701936 0
M  V30 905 H 91.2051 3.81817 1.69132 0
M  V30 906 N 91.6422 0.330177 1.54103 0
M  V30 907 C 92.9192 -0.325007 1.92881 0
M  V30 908 C 93.2992 -1.6934 1.26045 0
M  V30 909 O 92.6472 -2.24855 0.406526 0
M  V30 910 C 92.8572 -0.410634 3.46576 0
M  V30 911 C 94.2052 -0.667801 4.19316 0
M  V30 912 O 95.2292 -0.49329 3.52768 0
M  V30 913 O 94.0882 -1.00491 5.37181 0
M  V30 914 H 91.1822 -0.186873 0.80561 0
M  V30 915 H 93.7282 0.380376 1.65382 0
M  V30 916 H 92.5002 0.550164 3.87413 0
M  V30 917 H 92.1232 -1.16333 3.802 0
M  V30 918 N 93.1203 -1.57491 0.0584922 0
M  V30 919 C 94.3673 -1.92978 -0.613648 0
M  V30 920 C 94.6953 -0.937461 -1.70417 0
M  V30 921 O 93.9503 0.049078 -1.95638 0
M  V30 922 C 94.2493 -3.3513 -1.24188 0
M  V30 923 C 93.9153 -4.50037 -0.278826 0
M  V30 924 C 92.5773 -4.81198 -0.0138447 0
M  V30 925 C 94.9293 -5.19807 0.380777 0
M  V30 926 C 92.2573 -5.79473 0.918052 0
M  V30 927 C 94.6093 -6.19079 1.30091 0
M  V30 928 C 93.2733 -6.48665 1.57449 0
M  V30 929 H 92.5433 -0.706157 -0.22455 0
M  V30 930 H 95.1903 -1.91082 0.126533 0
M  V30 931 H 93.4953 -3.33429 -2.05749 0
M  V30 932 H 95.1923 -3.59871 -1.769 0
M  V30 933 H 91.7823 -4.25726 -0.495539 0
M  V30 934 H 95.9663 -4.95939 0.189158 0
M  V30 935 H 91.2223 -6.00727 1.1374 0
M  V30 936 H 95.3963 -6.7225 1.81804 0
M  V30 937 H 93.0233 -7.24628 2.29822 0
M  V30 938 N 94.5984 0.214957 -1.56127 0
M  V30 939 C 95.5454 1.26642 -1.92952 0
M  V30 940 C 96.5154 1.46244 -0.78753 0
M  V30 941 O 97.7004 1.59704 -1.04399 0
M  V30 942 C 94.8404 2.6104 -2.25726 0
M  V30 943 C 93.9534 2.49183 -3.52891 0
M  V30 944 C 93.0884 3.76149 -3.7508 0
M  V30 945 C 92.1274 3.59041 -4.95738 0
M  V30 946 N 91.2644 4.77972 -5.14283 0
M  V30 947 H 96.1044 0.945384 -2.82607 0
M  V30 948 H 93.6414 0.455489 -1.3987 0
M  V30 949 H 95.5994 3.39313 -2.42739 0
M  V30 950 H 94.2294 2.91227 -1.39236 0
M  V30 951 H 93.2814 1.6231 -3.44034 0
M  V30 952 H 94.5934 2.32466 -4.41318 0
M  V30 953 H 93.7474 4.62865 -3.92226 0
M  V30 954 H 92.4864 3.95799 -2.84947 0
M  V30 955 H 91.4914 2.7071 -4.78535 0
M  V30 956 H 92.7164 3.40856 -5.87362 0
M  V30 957 H 90.6624 4.97923 -4.27093 0
M  V30 958 H 90.5794 4.64006 -5.96853 0
M  V30 959 H 91.8474 5.66096 -5.35869 0
M  V30 960 N 96.0765 1.50051 0.48192 0
M  V30 961 C 97.4925 1.37237 0.814756 0
M  V30 962 C 97.6925 0.420109 1.97072 0
M  V30 963 O 96.7485 -0.141246 2.52105 0
M  V30 964 C 98.0615 2.78375 1.13701 0
M  V30 965 C 99.6095 2.87213 1.2441 0
M  V30 966 C 100.084 4.29161 1.59954 0
M  V30 967 N 101.575 4.32061 1.66967 0
M  V30 968 C 102.31 5.38879 1.95952 0
M  V30 969 N 101.806 6.55918 2.23031 0
M  V30 970 N 103.599 5.26312 1.97363 0
M  V30 971 H 95.7505 2.10546 -0.28005 0
M  V30 972 H 98.0135 0.945921 -0.0627454 0
M  V30 973 H 97.7195 3.49845 0.360787 0
M  V30 974 H 97.5935 3.14941 2.07586 0
M  V30 975 H 99.9805 2.15969 2.01101 0
M  V30 976 H 100.061 2.54204 0.285299 0
M  V30 977 H 99.7055 5.00938 0.838067 0
M  V30 978 H 99.6355 4.59648 2.56966 0
M  V30 979 H 102.126 3.47661 1.48123 0
M  V30 980 H 102.439 7.33139 2.44391 0
M  V30 981 H 100.784 6.59112 2.20447 0
M  V30 982 H 103.975 4.33876 1.75697 0
M  V30 983 H 104.148 6.09649 2.19618 0
M  V30 984 N 97.5546 -0.734337 1.39446 0
M  V30 985 C 98.9706 -1.03997 1.21065 0
M  V30 986 C 99.1706 -2.01369 0.0727019 0
M  V30 987 O 98.2266 -2.45856 -0.575426 0
M  V30 988 C 99.5396 -1.60163 2.54496 0
M  V30 989 C 101.088 -1.7224 2.61347 0
M  V30 990 C 101.563 -2.31814 3.95002 0
M  V30 991 N 103.054 -2.39223 3.96644 0
M  V30 992 C 103.789 -2.86258 4.96834 0
M  V30 993 N 103.285 -3.33184 6.07421 0
M  V30 994 N 105.078 -2.85473 4.84213 0
M  V30 995 H 97.2286 -0.0885624 2.12215 0
M  V30 996 H 99.4916 -0.10191 0.942506 0
M  V30 997 H 99.1976 -0.960811 3.38321 0
M  V30 998 H 99.0716 -2.5896 2.74262 0
M  V30 999 H 101.459 -2.35443 1.77906 0
M  V30 1000 H 101.54 -0.720939 2.4543 0
M  V30 1001 H 101.184 -1.69238 4.78875 0
M  V30 1002 H 101.114 -3.32638 4.08239 0
M  V30 1003 H 103.605 -2.06057 3.16779 0
M  V30 1004 H 103.918 -3.67586 6.7978 0
M  V30 1005 H 102.263 -3.31191 6.11013 0
M  V30 1006 H 105.454 -2.48136 3.96921 0
M  V30 1007 H 105.627 -3.21814 5.62441 0
M  V30 1008 N 99.0327 -1.24633 -0.964593 0
M  V30 1009 C 100.28 -1.08788 -1.70796 0
M  V30 1010 C 100.608 0.372783 -1.90894 0
M  V30 1011 O 99.8627 1.29167 -1.47018 0
M  V30 1012 C 100.162 -1.7763 -3.10133 0
M  V30 1013 C 99.8277 -3.27557 -3.09866 0
M  V30 1014 C 98.4897 -3.6846 -3.09501 0
M  V30 1015 C 100.842 -4.23389 -3.03959 0
M  V30 1016 C 98.1697 -5.03624 -3.00965 0
M  V30 1017 C 100.522 -5.58565 -2.96965 0
M  V30 1018 C 99.1857 -5.98809 -2.9493 0
M  V30 1019 H 98.4557 -0.398084 -0.624988 0
M  V30 1020 H 101.103 -1.54777 -1.12767 0
M  V30 1021 H 99.4077 -1.24044 -3.71645 0
M  V30 1022 H 101.105 -1.62832 -3.66451 0
M  V30 1023 H 97.6947 -2.95006 -3.10917 0
M  V30 1024 H 101.879 -3.92787 -3.03368 0
M  V30 1025 H 97.1347 -5.33998 -2.97752 0
M  V30 1026 H 101.309 -6.32523 -2.91354 0
M  V30 1027 H 98.9357 -7.03505 -2.88071 0
M  V30 1028 N 100.511 1.16574 -1.06058 0
M  V30 1029 C 101.739 1.90952 -0.796552 0
M  V30 1030 C 102.154 1.77302 0.648808 0
M  V30 1031 O 101.511 1.11605 1.44397 0
M  V30 1032 C 101.562 3.41736 -1.17894 0
M  V30 1033 O 101.283 3.54975 -2.56758 0
M  V30 1034 C 102.784 4.33169 -0.942308 0
M  V30 1035 H 100.004 0.605594 -0.288959 0
M  V30 1036 H 102.548 1.47777 -1.41358 0
M  V30 1037 H 100.703 3.82623 -0.606491 0
M  V30 1038 H 101.117 4.4846 -2.72 0
M  V30 1039 H 102.591 5.37439 -1.25952 0
M  V30 1040 H 103.068 4.3903 0.122078 0
M  V30 1041 H 103.674 3.98007 -1.49902 0
M  V30 1042 N 101.989 0.842826 1.3317 0
M  V30 1043 C 103.236 0.440447 1.97652 0
M  V30 1044 C 103.564 -1.00123 1.6675 0
M  V30 1045 O 102.819 -1.7155 0.941761 0
M  V30 1046 C 103.118 0.612607 3.52111 0
M  V30 1047 C 102.784 2.02297 4.02972 0
M  V30 1048 C 101.446 2.40874 4.16573 0
M  V30 1049 C 103.798 2.94402 4.30089 0
M  V30 1050 C 101.126 3.70852 4.54627 0
M  V30 1051 C 103.478 4.23865 4.69597 0
M  V30 1052 C 102.142 4.62392 4.81404 0
M  V30 1053 H 101.412 0.161171 0.72326 0
M  V30 1054 H 104.059 1.07061 1.58777 0
M  V30 1055 H 102.364 -0.100849 3.9167 0
M  V30 1056 H 104.061 0.2815 4.00011 0
M  V30 1057 H 100.651 1.71338 3.92863 0
M  V30 1058 H 104.835 2.65835 4.19101 0
M  V30 1059 H 100.091 4.00501 4.61962 0
M  V30 1060 H 104.265 4.95306 4.89536 0
M  V30 1061 H 101.892 5.63154 5.10648 0
M  V30 1062 N 103.467 -1.45747 0.599634 0
M  V30 1063 C 104.692 -2.07178 0.0960198 0
M  V30 1064 C 105.117 -1.44268 -1.207 0
M  V30 1065 O 104.475 -0.532503 -1.73303 0
M  V30 1066 C 104.523 -3.60579 -0.0385348 0
M  V30 1067 O 103.627 -3.97713 -1.0908 0
M  V30 1068 H 102.968 -0.660251 0.0704593 0
M  V30 1069 H 105.498 -1.87124 0.827385 0
M  V30 1070 H 105.508 -4.07298 -0.239304 0
M  V30 1071 H 104.183 -4.05756 0.912947 0
M  V30 1072 H 102.76 -3.62678 -0.867135 0
M  V30 1073 N 104.945 -0.338344 -1.53925 0
M  V30 1074 C 105.875 0.51328 -2.27789 0
M  V30 1075 C 106.856 1.107 -1.29149 0
M  V30 1076 O 108.041 1.12937 -1.57984 0
M  V30 1077 C 105.171 1.66697 -3.04679 0
M  V30 1078 C 104.125 1.20183 -4.1078 0
M  V30 1079 C 103.451 2.44363 -4.75595 0
M  V30 1080 C 104.751 0.30605 -5.21403 0
M  V30 1081 H 106.445 -0.102883 -2.99223 0
M  V30 1082 H 103.991 -0.0509219 -1.4391 0
M  V30 1083 H 105.944 2.26915 -3.55088 0
M  V30 1084 H 104.668 2.30995 -2.30887 0
M  V30 1085 H 103.327 0.622499 -3.61276 0
M  V30 1086 H 102.975 3.07057 -3.98403 0
M  V30 1087 H 102.675 2.13925 -5.47275 0
M  V30 1088 H 104.199 3.05317 -5.28786 0
M  V30 1089 H 105.613 0.814929 -5.67478 0
M  V30 1090 H 104.01 0.0937929 -6.00027 0
M  V30 1091 H 105.08 -0.65921 -4.80398 0
M  V30 1092 N 106.423 1.57458 -0.0668435 0
M  V30 1093 C 107.7 1.8469 0.644132 0
M  V30 1094 C 108.08 0.958343 1.88093 0
M  V30 1095 O 107.428 0.0233579 2.28488 0
M  V30 1096 C 107.638 3.34767 0.986509 0
M  V30 1097 C 108.986 4.02159 1.36212 0
M  V30 1098 O 110.01 3.39484 1.07839 0
M  V30 1099 O 108.869 5.12694 1.89227 0
M  V30 1100 H 105.963 0.762816 0.319437 0
M  V30 1101 H 108.509 1.6942 -0.0973986 0
M  V30 1102 H 107.281 3.91151 0.107883 0
M  V30 1103 H 106.904 3.55281 1.78497 0
M  V30 1104 N 107.901 -0.206675 1.56239 0
M  V30 1105 C 109.129 -0.945345 1.8404 0
M  V30 1106 C 109.544 -1.77336 0.647885 0
M  V30 1107 O 108.901 -1.78425 -0.383511 0
M  V30 1108 C 108.952 -1.8509 3.10522 0
M  V30 1109 O 108.673 -1.05634 4.25174 0
M  V30 1110 C 110.174 -2.70222 3.51418 0
M  V30 1111 H 107.394 -0.276372 0.61144 0
M  V30 1112 H 109.938 -0.217417 2.03341 0
M  V30 1113 H 108.093 -2.53259 2.93153 0
M  V30 1114 H 108.507 -1.67238 4.97124 0
M  V30 1115 H 109.981 -3.29438 4.42916 0
M  V30 1116 H 110.458 -3.43358 2.73864 0
M  V30 1117 H 111.064 -2.07443 3.71278 0
M  V30 1118 N 109.379 -1.50304 -0.473955 0
M  V30 1119 C 110.604 -1.65175 -1.25427 0
M  V30 1120 C 111.029 -0.333673 -1.85117 0
M  V30 1121 O 110.387 0.702114 -1.67153 0
M  V30 1122 C 110.435 -2.74295 -2.34082 0
M  V30 1123 O 109.539 -2.35349 -3.38651 0
M  V30 1124 H 108.88 -0.551944 -0.369126 0
M  V30 1125 H 111.41 -1.96662 -0.564364 0
M  V30 1126 H 111.42 -2.97285 -2.79438 0
M  V30 1127 H 110.095 -3.69959 -1.90008 0
M  V30 1128 H 108.672 -2.22794 -2.99027 0
M  V30 1129 N 110.857 0.726932 -1.39834 0
M  V30 1130 C 111.804 1.841 -1.39197 0
M  V30 1131 C 112.774 1.642 -0.250502 0
M  V30 1132 O 113.959 1.85494 -0.446846 0
M  V30 1133 C 111.099 3.21697 -1.24919 0
M  V30 1134 C 110.212 3.53247 -2.48678 0
M  V30 1135 C 109.347 4.80289 -2.26928 0
M  V30 1136 C 108.386 5.04707 -3.4632 0
M  V30 1137 N 107.523 6.22956 -3.23836 0
M  V30 1138 H 112.363 1.83979 -2.34427 0
M  V30 1139 H 109.9 0.898876 -1.16442 0
M  V30 1140 H 111.858 4.01137 -1.1465 0
M  V30 1141 H 110.488 3.21076 -0.333153 0
M  V30 1142 H 109.54 2.68447 -2.69519 0
M  V30 1143 H 110.852 3.67205 -3.37582 0
M  V30 1144 H 110.006 5.67725 -2.13947 0
M  V30 1145 H 108.745 4.68519 -1.35431 0
M  V30 1146 H 107.75 4.1573 -3.5979 0
M  V30 1147 H 108.975 5.18357 -4.38729 0
M  V30 1148 H 106.921 6.12459 -2.35011 0
M  V30 1149 H 106.838 6.37539 -4.063 0
M  V30 1150 H 108.106 7.1321 -3.14566 0
M  V30 1151 N 112.336 1.25143 0.95797 0
M  V30 1152 C 113.561 1.12521 1.74223 0
M  V30 1153 C 113.986 -0.317402 1.85403 0
M  V30 1154 O 113.344 -1.2299 1.33204 0
M  V30 1155 C 113.392 1.78062 3.1357 0
M  V30 1156 O 112.496 1.058 3.98598 0
M  V30 1157 H 111.837 0.39304 0.535178 0
M  V30 1158 H 114.367 1.65641 1.201 0
M  V30 1159 H 114.377 1.84213 3.64046 0
M  V30 1160 H 113.052 2.83021 3.04749 0
M  V30 1161 H 111.629 1.07506 3.57067 0
M  V30 1162 N 113.814 -1.1601 1.06675 0
M  V30 1163 C 115.042 -1.90527 0.806667 0
M  V30 1164 C 115.457 -1.77643 -0.639396 0
M  V30 1165 O 114.814 -1.12369 -1.43803 0
M  V30 1166 C 114.865 -3.41106 1.19705 0
M  V30 1167 O 114.586 -3.53608 2.58636 0
M  V30 1168 C 116.087 -4.32663 0.965266 0
M  V30 1169 H 113.307 -0.604053 0.292166 0
M  V30 1170 H 115.851 -1.47026 1.4214 0
M  V30 1171 H 114.006 -3.82296 0.626774 0
M  V30 1172 H 114.42 -4.47011 2.74375 0
M  V30 1173 H 115.894 -5.36763 1.288 0
M  V30 1174 H 116.371 -4.39089 -0.0987936 0
M  V30 1175 H 116.977 -3.97206 1.52011 0
M  V30 1176 N 115.292 -0.849877 -1.32721 0
M  V30 1177 C 116.255 -0.296122 -2.27279 0
M  V30 1178 C 117.255 0.541458 -1.5141 0
M  V30 1179 O 118.445 0.353658 -1.70572 0
M  V30 1180 C 115.577 0.581579 -3.35902 0
M  V30 1181 H 116.77 -1.13064 -2.77771 0
M  V30 1182 H 114.323 -0.62383 -1.43311 0
M  V30 1183 H 115.058 1.43809 -2.9067 0
M  V30 1184 H 114.843 -0.0178814 -3.92096 0
M  V30 1185 H 116.333 0.961951 -4.0637 0
M  V30 1186 N 116.77 1.45427 -0.607355 0
M  V30 1187 C 118 2.06314 -0.108656 0
M  V30 1188 C 118.408 1.45269 1.21217 0
M  V30 1189 O 117.751 0.561115 1.74921 0
M  V30 1190 C 117.813 3.59345 0.105618 0
M  V30 1191 C 117.477 4.42723 -1.13337 0
M  V30 1192 C 118.474 4.77715 -2.05145 0
M  V30 1193 C 116.159 4.83478 -1.36213 0
M  V30 1194 C 118.153 5.52317 -3.18158 0
M  V30 1195 C 115.84 5.57835 -2.49527 0
M  V30 1196 C 116.838 5.92171 -3.40327 0
M  V30 1197 O 116.526 6.65019 -4.51669 0
M  V30 1198 H 116.258 0.672782 -0.0658842 0
M  V30 1199 H 118.812 1.87664 -0.834945 0
M  V30 1200 H 117.042 3.76394 0.886796 0
M  V30 1201 H 118.731 4.02076 0.555886 0
M  V30 1202 H 119.497 4.46787 -1.88697 0
M  V30 1203 H 115.376 4.56188 -0.664362 0
M  V30 1204 H 118.92 5.79036 -3.89054 0
M  V30 1205 H 114.817 5.88177 -2.65928 0
M  V30 1206 H 115.585 6.83469 -4.50348 0
M  V30 1207 N 118.248 0.346503 1.53744 0
M  V30 1208 C 119.178 -0.501193 2.28058 0
M  V30 1209 C 120.159 -1.10014 1.29734 0
M  V30 1210 O 121.344 -1.12097 1.58581 0
M  V30 1211 C 118.474 -1.65078 3.05559 0
M  V30 1212 C 117.428 -1.18003 4.11411 0
M  V30 1213 C 116.754 -2.41837 4.76884 0
M  V30 1214 C 118.054 -0.278394 5.21558 0
M  V30 1215 H 119.748 0.11875 2.99164 0
M  V30 1216 H 117.294 0.0585531 1.43881 0
M  V30 1217 H 119.247 -2.25028 3.56287 0
M  V30 1218 H 117.971 -2.29767 2.32109 0
M  V30 1219 H 116.63 -0.603331 3.61601 0
M  V30 1220 H 116.278 -3.0494 4.00026 0
M  V30 1221 H 115.978 -2.1102 5.48402 0
M  V30 1222 H 117.502 -3.02508 5.30397 0
M  V30 1223 H 118.916 -0.784823 5.67903 0
M  V30 1224 H 117.313 -0.0619707 6.00068 0
M  V30 1225 H 118.383 0.684677 4.80042 0
M  V30 1226 N 119.726 -1.57421 0.075193 0
M  V30 1227 C 120.658 -2.09904 -0.920483 0
M  V30 1228 C 121.671 -1.03191 -1.25918 0
M  V30 1229 O 122.86 -1.30695 -1.21577 0
M  V30 1230 C 119.96 -2.54726 -2.23534 0
M  V30 1231 C 119.133 -3.8505 -2.07498 0
M  V30 1232 C 118.192 -4.15929 -3.22319 0
M  V30 1233 O 117.218 -4.85474 -2.9716 0
M  V30 1234 N 118.42 -3.69745 -4.47514 0
M  V30 1235 H 121.185 -2.95954 -0.472359 0
M  V30 1236 H 118.746 -1.61523 -0.110444 0
M  V30 1237 H 120.738 -2.72443 -2.9926 0
M  V30 1238 H 119.308 -1.73795 -2.59835 0
M  V30 1239 H 118.528 -3.76679 -1.16219 0
M  V30 1240 H 119.816 -4.70348 -1.94038 0
M  V30 1241 H 119.214 -3.13569 -4.7084 0
M  V30 1242 H 117.771 -3.92655 -5.20255 0
M  V30 1243 N 121.204 0.198386 -1.56346 0
M  V30 1244 C 122.137 1.27381 -1.89339 0
M  V30 1245 C 123.115 1.44106 -0.753134 0
M  V30 1246 O 124.299 1.59549 -1.00381 0
M  V30 1247 C 121.426 2.6409 -2.12071 0
M  V30 1248 C 120.472 2.64253 -3.34772 0
M  V30 1249 S 121.305 2.16013 -4.89999 0
M  V30 1250 C 122.461 3.54553 -5.15794 0
M  V30 1251 H 122.694 0.992058 -2.8026 0
M  V30 1252 H 120.227 0.401726 -1.49082 0
M  V30 1253 H 122.185 3.42786 -2.2585 0
M  V30 1254 H 120.846 2.89478 -1.21906 0
M  V30 1255 H 120.039 3.64768 -3.47794 0
M  V30 1256 H 119.641 1.93637 -3.1997 0
M  V30 1257 H 121.933 4.50396 -5.06112 0
M  V30 1258 H 122.876 3.46428 -6.1757 0
M  V30 1259 H 123.284 3.49313 -4.43442 0
M  V30 1260 N 122.682 1.50554 0.465978 0
M  V30 1261 C 123.63 1.70324 1.58406 0
M  V30 1262 C 124.624 0.569139 1.59553 0
M  V30 1263 O 125.83 0.749776 1.63641 0
M  V30 1264 H 122.205 0.537688 0.525734 0
M  V30 1265 H 124.176 2.64104 1.38894 0
M  V30 1266 C 122.925 1.81928 2.96307 0
M  V30 1267 H 122.248 2.68586 2.96144 0
M  V30 1268 H 123.688 1.99784 3.73982 0
M  V30 1269 C 122.147 0.572095 3.32007 0
M  V30 1270 O 122.677 -0.286416 4.00678 0
M  V30 1271 N 120.883 0.424606 2.87481 0
M  V30 1272 H 120.43 1.12427 2.31771 0
M  V30 1273 H 120.388 -0.408697 3.11732 0
M  V30 1274 N 124.16 -0.719506 1.40217 0
M  V30 1275 C 125.385 -1.51371 1.4178 0
M  V30 1276 C 125.81 -1.88091 0.0182355 0
M  V30 1277 O 125.168 -1.52997 -0.972707 0
M  V30 1278 C 125.216 -2.768 2.31115 0
M  V30 1279 O 124.32 -3.73349 1.7517 0
M  V30 1280 H 123.661 -0.456529 0.482159 0
M  V30 1281 H 126.191 -0.88644 1.844 0
M  V30 1282 H 126.201 -3.25371 2.46167 0
M  V30 1283 H 124.876 -2.49407 3.3282 0
M  V30 1284 H 123.453 -3.32179 1.69444 0
M  V30 1285 N 125.638 -1.25649 -0.95132 0
M  V30 1286 C 126.568 -1.08808 -2.06599 0
M  V30 1287 C 127.549 0.00382547 -1.701 0
M  V30 1288 O 128.734 -0.166325 -1.93486 0
M  V30 1289 C 125.864 -0.709542 -3.39975 0
M  V30 1290 C 124.818 -1.75206 -3.90496 0
M  V30 1291 C 124.144 -1.22811 -5.20405 0
M  V30 1292 C 125.444 -3.15153 -4.16504 0
M  V30 1293 H 127.138 -2.02048 -2.20946 0
M  V30 1294 H 124.684 -0.972835 -1.06169 0
M  V30 1295 H 126.637 -0.578649 -4.17408 0
M  V30 1296 H 125.361 0.258556 -3.25575 0
M  V30 1297 H 124.02 -1.87145 -3.15234 0
M  V30 1298 H 123.668 -0.250145 -5.02378 0
M  V30 1299 H 123.368 -1.92492 -5.55176 0
M  V30 1300 H 124.892 -1.10968 -6.00432 0
M  V30 1301 H 126.306 -3.06349 -4.84586 0
M  V30 1302 H 124.703 -3.82333 -4.62538 0
M  V30 1303 H 125.773 -3.61966 -3.22658 0
M  V30 1304 N 127.117 1.15442 -1.07289 0
M  V30 1305 C 128.533 1.38201 -0.798288 0
M  V30 1306 C 128.733 1.92429 0.597769 0
M  V30 1307 O 127.789 2.12962 1.3566 0
M  V30 1308 C 129.102 2.35357 -1.87156 0
M  V30 1309 C 130.65 2.49021 -1.89624 0
M  V30 1310 C 131.125 3.49468 -2.96034 0
M  V30 1311 N 132.616 3.57003 -2.95132 0
M  V30 1312 C 133.351 4.34543 -3.74112 0
M  V30 1313 N 132.847 5.15421 -4.6294 0
M  V30 1314 N 134.64 4.29625 -3.62462 0
M  V30 1315 H 126.791 0.78584 -1.97328 0
M  V30 1316 H 129.054 0.408065 -0.855679 0
M  V30 1317 H 128.76 2.02626 -2.87464 0
M  V30 1318 H 128.634 3.35129 -1.73114 0
M  V30 1319 H 131.021 2.81051 -0.899687 0
M  V30 1320 H 131.102 1.4925 -2.07745 0
M  V30 1321 H 130.746 3.18173 -3.95889 0
M  V30 1322 H 130.676 4.48992 -2.75161 0
M  V30 1323 H 133.167 2.99276 -2.30743 0
M  V30 1324 H 133.48 5.7183 -5.19837 0
M  V30 1325 H 131.825 5.14729 -4.66989 0
M  V30 1326 H 135.016 3.65505 -2.92444 0
M  V30 1327 H 135.189 4.89807 -4.24256 0
M  V30 1328 N 128.595 0.856903 1.32268 0
M  V30 1329 C 129.558 0.308171 2.27119 0
M  V30 1330 C 130.558 -0.533421 1.51695 0
M  V30 1331 O 131.748 -0.344607 1.70757 0
M  V30 1332 C 128.88 -0.563757 3.36206 0
M  V30 1333 H 130.073 1.14535 2.77167 0
M  V30 1334 H 127.626 0.631421 1.42978 0
M  V30 1335 H 128.361 -1.42266 2.91429 0
M  V30 1336 H 128.146 0.0386749 3.92081 0
M  V30 1337 H 129.636 -0.940386 4.06874 0
M  V30 1338 N 130.073 -1.45103 0.615059 0
M  V30 1339 C 130.983 -2.34382 -0.101034 0
M  V30 1340 C 131.999 -1.51681 -0.852585 0
M  V30 1341 O 133.175 -1.8446 -0.808484 0
M  V30 1342 C 130.24 -3.29417 -1.08099 0
M  V30 1343 C 129.301 -4.28025 -0.330577 0
M  V30 1344 C 128.534 -5.1852 -1.26385 0
M  V30 1345 O 128.757 -5.12598 -2.50198 0
M  V30 1346 O 127.691 -5.97122 -0.756866 0
M  V30 1347 H 131.517 -2.97033 0.632855 0
M  V30 1348 H 129.102 -1.4461 0.375293 0
M  V30 1349 H 130.984 -3.87958 -1.6452 0
M  V30 1350 H 129.659 -2.69321 -1.79577 0
M  V30 1351 H 128.566 -3.73078 0.276283 0
M  V30 1352 H 129.899 -4.90997 0.343866 0
M  V30 1353 N 131.551 -0.354651 -1.53558 0
M  V30 1354 C 132.828 0.294281 -1.93374 0
M  V30 1355 C 133.208 1.67313 -1.28723 0
M  V30 1356 O 132.556 2.24179 -0.442247 0
M  V30 1357 C 132.766 0.355445 -3.47185 0
M  V30 1358 C 134.114 0.601007 -4.20325 0
M  V30 1359 O 135.138 0.437106 -3.53508 0
M  V30 1360 O 133.997 0.919322 -5.38712 0
M  V30 1361 H 131.091 0.174033 -0.808481 0
M  V30 1362 H 133.637 -0.406638 -1.64756 0
M  V30 1363 H 132.409 -0.611729 -3.86489 0
M  V30 1364 H 132.032 1.1027 -3.82003 0
M  V30 1365 N 133.029 1.57378 -0.0835403 0
M  V30 1366 C 134.257 1.98263 0.59157 0
M  V30 1367 C 134.672 0.962302 1.62435 0
M  V30 1368 O 134.029 -0.049581 1.82433 0
M  V30 1369 C 134.08 3.39214 1.24965 0
M  V30 1370 O 133.801 4.37339 0.258186 0
M  V30 1371 C 135.302 3.95038 2.01147 0
M  V30 1372 H 132.522 0.651773 0.159477 0
M  V30 1373 H 135.066 2.03878 -0.159415 0
M  V30 1374 H 133.221 3.34649 1.95164 0
M  V30 1375 H 133.635 5.19371 0.731734 0
M  V30 1376 H 135.109 4.95848 2.42567 0
M  V30 1377 H 135.586 3.32222 2.87272 0
M  V30 1378 H 136.192 4.0304 1.35789 0
M  V30 1379 N 134.507 -0.190092 1.56449 0
M  V30 1380 C 135.47 -1.21925 1.9408 0
M  V30 1381 C 136.47 -1.38176 0.822431 0
M  V30 1382 O 137.66 -1.35903 1.08977 0
M  V30 1383 C 134.792 -2.58773 2.21922 0
M  V30 1384 H 135.985 -0.897464 2.86157 0
M  V30 1385 H 133.538 -0.43181 1.50217 0
M  V30 1386 H 134.273 -2.95998 1.32499 0
M  V30 1387 H 134.058 -2.48348 3.03424 0
M  V30 1388 H 135.548 -3.32978 2.52022 0
M  V30 1389 N 135.985 -1.50799 -0.457987 0
M  V30 1390 C 137.231 -1.62683 -1.21088 0
M  V30 1391 C 137.564 -0.332268 -1.91336 0
M  V30 1392 O 136.839 0.667043 -1.82704 0
M  V30 1393 C 137.122 -2.81615 -2.24422 0
M  V30 1394 C 136.975 -4.20989 -1.58392 0
M  V30 1395 C 138.294 -2.96085 -3.2561 0
M  V30 1396 H 135.413 -0.592087 -0.438864 0
M  V30 1397 H 138.055 -1.83225 -0.50286 0
M  V30 1398 H 136.205 -2.64231 -2.84806 0
M  V30 1399 H 137.877 -4.49994 -1.01504 0
M  V30 1400 H 136.12 -4.24641 -0.886704 0
M  V30 1401 H 136.791 -5.0016 -2.33547 0
M  V30 1402 H 139.267 -3.12042 -2.75262 0
M  V30 1403 H 138.143 -3.80902 -3.95228 0
M  V30 1404 H 138.404 -2.0726 -3.90507 0
M  V30 1405 N 137.463 0.71206 -1.40597 0
M  V30 1406 C 138.693 1.49894 -1.42181 0
M  V30 1407 C 139.101 1.89189 -0.0208078 0
M  V30 1408 O 138.444 1.56223 0.966436 0
M  V30 1409 C 138.506 2.80215 -2.25211 0
M  V30 1410 C 138.17 2.63221 -3.73582 0
M  V30 1411 C 139.167 2.30249 -4.66135 0
M  V30 1412 C 136.852 2.79376 -4.17438 0
M  V30 1413 C 138.846 2.13645 -6.00529 0
M  V30 1414 C 136.533 2.6239 -5.51901 0
M  V30 1415 C 137.531 2.29573 -6.43262 0
M  V30 1416 O 137.219 2.12719 -7.75246 0
M  V30 1417 H 136.951 0.469031 -0.486812 0
M  V30 1418 H 139.505 0.88564 -1.85326 0
M  V30 1419 H 137.735 3.4389 -1.76852 0
M  V30 1420 H 139.424 3.41947 -2.18694 0
M  V30 1421 H 140.19 2.17398 -4.33547 0
M  V30 1422 H 136.069 3.03906 -3.46644 0
M  V30 1423 H 139.613 1.87953 -6.71803 0
M  V30 1424 H 135.51 2.74826 -5.84073 0
M  V30 1425 H 136.278 2.27611 -7.86216 0
M  V30 1426 N 138.941 1.26152 0.944643 0
M  V30 1427 C 140.171 1.14094 1.72239 0
M  V30 1428 C 140.579 -0.306931 1.86694 0
M  V30 1429 O 139.922 -1.22222 1.3714 0
M  V30 1430 C 139.984 1.73316 3.14963 0
M  V30 1431 C 139.648 3.2239 3.23904 0
M  V30 1432 C 140.645 4.19252 3.07447 0
M  V30 1433 C 138.33 3.62788 3.47405 0
M  V30 1434 C 140.324 5.54491 3.14353 0
M  V30 1435 C 138.011 4.98162 3.53947 0
M  V30 1436 C 139.009 5.93823 3.37436 0
M  V30 1437 O 138.697 7.26732 3.43679 0
M  V30 1438 H 138.429 0.398292 0.546205 0
M  V30 1439 H 140.983 1.67201 1.19301 0
M  V30 1440 H 139.213 1.14667 3.69308 0
M  V30 1441 H 140.902 1.56214 3.74636 0
M  V30 1442 H 141.668 3.8938 2.8915 0
M  V30 1443 H 137.547 2.88816 3.59313 0
M  V30 1444 H 141.091 6.29137 3.01384 0
M  V30 1445 H 136.988 5.27695 3.71763 0
M  V30 1446 H 137.756 7.3496 3.60245 0
M  V30 1447 N 140.419 -1.14872 1.07899 0
M  V30 1448 C 141.659 -1.8745 0.814965 0
M  V30 1449 C 142.023 -1.80758 -0.64733 0
M  V30 1450 O 143.224 -2.48422 -1.02664 0
M  V30 1451 C 141.495 -3.32286 1.31607 0
M  V30 1452 S 143.054 -4.22537 1.18357 0
M  V30 1453 H 139.872 -0.646833 0.295174 0
M  V30 1454 H 142.474 -1.38555 1.37923 0
M  V30 1455 H 141.178 -3.34703 2.37491 0
M  V30 1456 H 140.709 -3.86238 0.747261 0
M  V30 1457 H 142.724 -4.96044 0.124586 0
M  V30 1458 N 141.898 -0.863906 -1.31812 0
M  V30 1459 C 142.861 -0.320212 -2.26952 0
M  V30 1460 C 143.861 0.525369 -1.51975 0
M  V30 1461 O 145.051 0.335547 -1.70938 0
M  V30 1462 C 142.183 0.545919 -3.365 0
M  V30 1463 H 143.376 -1.16004 -2.76556 0
M  V30 1464 H 140.929 -0.638995 -1.42641 0
M  V30 1465 H 141.664 1.40718 -2.92179 0
M  V30 1466 H 141.449 -0.0594674 -3.92055 0
M  V30 1467 H 142.939 0.918796 -4.07367 0
M  V30 1468 N 143.376 1.44774 -0.622745 0
M  V30 1469 C 144.323 2.30635 0.0871679 0
M  V30 1470 C 145.293 1.42994 0.845097 0
M  V30 1471 O 146.478 1.71907 0.827812 0
M  V30 1472 C 143.618 3.28144 1.06844 0
M  V30 1473 C 142.731 4.30888 0.309809 0
M  V30 1474 C 141.866 5.15494 1.28215 0
M  V30 1475 C 140.905 6.09953 0.512198 0
M  V30 1476 N 140.042 6.87287 1.43458 0
M  V30 1477 H 144.882 2.90803 -0.650974 0
M  V30 1478 H 142.419 1.43286 -0.33281 0
M  V30 1479 H 144.377 3.83157 1.65066 0
M  V30 1480 H 143.007 2.69695 1.77382 0
M  V30 1481 H 142.059 3.78414 -0.388181 0
M  V30 1482 H 143.371 4.97955 -0.290254 0
M  V30 1483 H 142.525 5.74983 1.93596 0
M  V30 1484 H 141.264 4.48481 1.91614 0
M  V30 1485 H 140.269 5.49581 -0.155151 0
M  V30 1486 H 141.494 6.78999 -0.116958 0
M  V30 1487 H 139.44 6.2295 2.05594 0
M  V30 1488 H 139.357 7.50763 0.888335 0
M  V30 1489 H 140.625 7.51306 2.07749 0
M  V30 1490 N 144.854 0.36279 1.53368 0
M  V30 1491 C 146.084 -0.228281 2.05335 0
M  V30 1492 C 146.492 -1.43226 1.23625 0
M  V30 1493 O 145.835 -1.81717 0.269206 0
M  V30 1494 C 145.897 -0.688549 3.52845 0
M  V30 1495 C 145.561 0.398362 4.5526 0
M  V30 1496 C 146.558 1.24732 5.04716 0
M  V30 1497 C 144.243 0.557805 4.99193 0
M  V30 1498 C 146.237 2.2411 5.96702 0
M  V30 1499 C 143.924 1.55495 5.90986 0
M  V30 1500 C 144.922 2.39503 6.39631 0
M  V30 1501 O 144.61 3.37517 7.29615 0
M  V30 1502 H 144.342 -0.044395 0.674541 0
M  V30 1503 H 146.896 0.518668 1.98744 0
M  V30 1504 H 145.126 -1.48706 3.56964 0
M  V30 1505 H 146.815 -1.20231 3.87685 0
M  V30 1506 H 147.581 1.13532 4.71525 0
M  V30 1507 H 143.46 -0.0862959 4.60919 0
M  V30 1508 H 147.004 2.89718 6.34594 0
M  V30 1509 H 142.901 1.66744 6.23592 0
M  V30 1510 H 143.669 3.33213 7.47604 0
M  V30 1511 N 146.332 -1.57332 0.0918853 0
M  V30 1512 C 147.743 -1.81496 -0.437739 0
M  V30 1513 C 148.094 -1.00727 -1.6837 0
M  V30 1514 O 147.219 -0.235694 -2.15113 0
M  V30 1515 C 147.814 -3.29197 -0.800939 0
M  V30 1516 C 146.373 -3.54136 -1.27532 0
M  V30 1517 C 145.52 -2.75979 -0.270392 0
M  V30 1518 H 148.471 -1.55494 0.317366 0
M  V30 1519 H 148.492 -3.42344 -1.66074 0
M  V30 1520 H 148.004 -3.87955 0.106078 0
M  V30 1521 H 146.105 -3.00705 -2.20016 0
M  V30 1522 H 146.218 -4.62792 -1.23938 0
M  V30 1523 H 144.582 -2.43349 -0.751872 0
M  V30 1524 H 145.365 -3.37484 0.629248 0
M  V30 1525 N 147.81 0.181792 -1.56548 0
M  V30 1526 C 148.76 1.22961 -1.92002 0
M  V30 1527 C 149.744 1.40331 -0.787146 0
M  V30 1528 O 150.936 1.42478 -1.05019 0
M  V30 1529 C 148.065 2.57144 -2.27446 0
M  V30 1530 C 147.151 2.43512 -3.47222 0
M  V30 1531 N 147.542 1.99577 -4.64761 0
M  V30 1532 C 145.84 2.74368 -3.51622 0
M  V30 1533 C 146.541 1.98156 -5.46909 0
M  V30 1534 N 145.517 2.40164 -4.8767 0
M  V30 1535 H 149.319 0.881462 -2.8037 0
M  V30 1536 H 146.833 0.390141 -1.57644 0
M  V30 1537 H 148.83 3.32847 -2.51035 0
M  V30 1538 H 147.49 2.92771 -1.40411 0
M  V30 1539 H 148.501 1.70078 -4.89177 0
M  V30 1540 H 145.178 3.14102 -2.75038 0
M  V30 1541 H 146.568 1.65975 -6.51077 0
M  V30 1542 N 149.288 1.51039 0.449983 0
M  V30 1543 C 150.518 1.66627 1.22143 0
M  V30 1544 C 150.926 0.357776 1.85786 0
M  V30 1545 O 150.269 -0.672424 1.70951 0
M  V30 1546 C 150.331 2.71562 2.35573 0
M  V30 1547 C 149.995 4.14526 1.92399 0
M  V30 1548 C 150.992 4.99717 1.43453 0
M  V30 1549 C 148.677 4.60559 2.00475 0
M  V30 1550 C 150.671 6.28998 1.03155 0
M  V30 1551 C 148.358 5.8984 1.59788 0
M  V30 1552 C 149.356 6.73886 1.11208 0
M  V30 1553 O 149.044 8.0075 0.710935 0
M  V30 1554 H 148.776 0.562635 0.374724 0
M  V30 1555 H 151.33 1.98146 0.541036 0
M  V30 1556 H 149.56 2.3533 3.06849 0
M  V30 1557 H 151.249 2.76156 2.97478 0
M  V30 1558 H 152.015 4.65361 1.36618 0
M  V30 1559 H 147.894 3.95273 2.37235 0
M  V30 1560 H 151.438 6.9455 0.651663 0
M  V30 1561 H 147.335 6.23713 1.66289 0
M  V30 1562 H 148.103 8.142 0.837913 0
M  V30 1563 N 150.766 -0.704594 1.40972 0
M  V30 1564 C 151.996 -1.49138 1.42974 0
M  V30 1565 C 152.404 -1.89175 0.0308406 0
M  V30 1566 O 151.747 -1.56734 -0.958138 0
M  V30 1567 C 151.809 -2.79016 2.26694 0
M  V30 1568 C 151.473 -2.61236 3.74973 0
M  V30 1569 C 152.47 -2.27773 4.67349 0
M  V30 1570 C 150.155 -2.77158 4.18914 0
M  V30 1571 C 152.149 -2.10457 6.01653 0
M  V30 1572 C 149.836 -2.59459 5.53285 0
M  V30 1573 C 150.834 -2.26158 6.4447 0
M  V30 1574 O 150.522 -2.08605 7.76363 0
M  V30 1575 H 150.254 -0.466443 0.489292 0
M  V30 1576 H 152.808 -0.8758 1.85793 0
M  V30 1577 H 151.038 -3.42947 1.78673 0
M  V30 1578 H 152.727 -3.40782 2.20504 0
M  V30 1579 H 153.493 -2.15095 4.34694 0
M  V30 1580 H 149.372 -3.02064 3.48251 0
M  V30 1581 H 152.916 -1.84387 6.72791 0
M  V30 1582 H 148.813 -2.71725 5.85522 0
M  V30 1583 H 149.581 -2.23439 7.87412 0
M  V30 1584 N 152.244 -1.26651 -0.937939 0
M  V30 1585 C 153.492 -1.12165 -1.68118 0
M  V30 1586 C 153.813 0.334983 -1.92101 0
M  V30 1587 O 153.083 1.23583 -1.52 0
M  V30 1588 H 151.663 -0.412093 -0.623048 0
M  V30 1589 H 154.325 -1.59027 -1.12678 0
M  V30 1590 H 153.421 -1.64289 -2.6536 0
M  V30 1591 N 153.722 1.14298 -1.08507 0
M  V30 1592 C 154.947 1.8976 -0.837001 0
M  V30 1593 C 155.372 1.78097 0.605228 0
M  V30 1594 O 154.73 1.12188 1.4242 0
M  V30 1595 C 154.778 3.37685 -1.26495 0
M  V30 1596 O 153.882 4.10281 -0.417514 0
M  V30 1597 H 153.223 0.590365 -0.303917 0
M  V30 1598 H 155.753 1.44672 -1.44676 0
M  V30 1599 H 155.763 3.88501 -1.24625 0
M  V30 1600 H 154.438 3.45492 -2.31534 0
M  V30 1601 H 153.015 3.69536 -0.499722 0
M  V30 1602 N 155.201 0.870884 1.31352 0
M  V30 1603 C 156.426 0.495957 2.01383 0
M  V30 1604 C 156.851 -0.904324 1.64935 0
M  V30 1605 O 156.209 -1.59687 0.858466 0
M  V30 1606 C 156.257 0.661433 3.54482 0
M  V30 1607 O 155.361 -0.298851 4.11316 0
M  V30 1608 H 154.702 0.197158 0.634054 0
M  V30 1609 H 157.232 1.17455 1.67527 0
M  V30 1610 H 157.242 0.555072 4.04207 0
M  V30 1611 H 155.917 1.68246 3.8035 0
M  V30 1612 H 154.494 -0.147368 3.72609 0
M  V30 1613 N 156.679 -1.44442 0.630414 0
M  V30 1614 C 157.629 -2.27794 -0.0968103 0
M  V30 1615 C 158.613 -1.38624 -0.816834 0
M  V30 1616 O 159.805 -1.62438 -0.70306 0
M  V30 1617 C 156.934 -3.25929 -1.07819 0
M  V30 1618 C 156.02 -4.22588 -0.357826 0
M  V30 1619 N 156.411 -5.0207 0.613169 0
M  V30 1620 C 154.709 -4.41914 -0.602365 0
M  V30 1621 C 155.41 -5.72351 1.03871 0
M  V30 1622 N 154.386 -5.42287 0.377642 0
M  V30 1623 H 158.188 -2.86653 0.648621 0
M  V30 1624 H 155.702 -1.55871 0.455862 0
M  V30 1625 H 157.699 -3.84399 -1.61378 0
M  V30 1626 H 156.359 -2.68631 -1.82393 0
M  V30 1627 H 157.37 -5.08331 0.990947 0
M  V30 1628 H 154.047 -3.95714 -1.33103 0
M  V30 1629 H 155.437 -6.4619 1.84086 0
M  V30 1630 N 158.157 -0.370918 -1.53173 0
M  V30 1631 C 159.403 0.209976 -2.02313 0
M  V30 1632 C 159.758 1.45987 -1.25322 0
M  V30 1633 O 159.051 1.8856 -0.339965 0
M  V30 1634 C 159.245 0.549696 -3.53147 0
M  V30 1635 C 159.074 -0.665721 -4.44745 0
M  V30 1636 C 157.844 -1.17942 -4.91343 0
M  V30 1637 C 160.042 -1.53255 -4.90935 0
M  V30 1638 N 158.024 -2.35431 -5.66962 0
M  V30 1639 C 159.395 -2.55403 -5.64951 0
M  V30 1640 C 161.45 -1.5548 -4.73002 0
M  V30 1641 C 160.153 -3.5964 -6.22938 0
M  V30 1642 C 162.179 -2.58613 -5.31858 0
M  V30 1643 C 161.541 -3.59485 -6.05764 0
M  V30 1644 H 157.64 0.0394095 -0.781006 0
M  V30 1645 H 160.224 -0.516666 -1.8772 0
M  V30 1646 H 158.395 1.24541 -3.67891 0
M  V30 1647 H 160.127 1.11614 -3.89004 0
M  V30 1648 H 156.882 -0.743228 -4.67732 0
M  V30 1649 H 157.306 -2.94827 -6.09431 0
M  V30 1650 H 161.948 -0.788457 -4.15383 0
M  V30 1651 H 159.666 -4.37153 -6.79649 0
M  V30 1652 H 163.252 -2.61195 -5.19873 0
M  V30 1653 H 162.132 -4.3798 -6.50495 0
M  V30 1654 N 159.635 1.57281 -0.100228 0
M  V30 1655 C 160.865 1.98591 0.569681 0
M  V30 1656 C 161.273 0.978315 1.61943 0
M  V30 1657 O 160.616 -0.0396108 1.83657 0
M  V30 1658 C 160.678 3.36282 1.271 0
M  V30 1659 C 160.342 4.55488 0.371409 0
M  V30 1660 C 161.339 5.18491 -0.382504 0
M  V30 1661 C 159.024 5.01474 0.287965 0
M  V30 1662 C 161.018 6.25852 -1.20779 0
M  V30 1663 C 158.705 6.08701 -0.540965 0
M  V30 1664 C 159.703 6.70755 -1.28749 0
M  V30 1665 O 159.391 7.75914 -2.10269 0
M  V30 1666 H 159.123 0.65752 0.156982 0
M  V30 1667 H 161.677 2.0463 -0.177734 0
M  V30 1668 H 159.907 3.26941 2.0651 0
M  V30 1669 H 161.596 3.62005 1.83595 0
M  V30 1670 H 162.362 4.83891 -0.3278 0
M  V30 1671 H 158.241 4.52932 0.858689 0
M  V30 1672 H 161.785 6.74218 -1.79096 0
M  V30 1673 H 157.682 6.42732 -0.597131 0
M  V30 1674 H 158.45 7.92925 -2.03007 0
M  V30 1675 N 161.113 -0.173488 1.56642 0
M  V30 1676 C 162.36 -0.890465 1.81871 0
M  V30 1677 C 162.688 -1.82339 0.67696 0
M  V30 1678 O 161.943 -1.92795 -0.335926 0
M  V30 1679 C 162.242 -1.72069 3.13252 0
M  V30 1680 C 161.908 -0.936878 4.41059 0
M  V30 1681 C 160.57 -0.720545 4.75775 0
M  V30 1682 C 162.922 -0.386919 5.19762 0
M  V30 1683 C 160.25 0.0568829 5.86672 0
M  V30 1684 C 162.602 0.37741 6.31473 0
M  V30 1685 C 161.266 0.604563 6.64757 0
M  V30 1686 H 160.536 -0.325844 0.665512 0
M  V30 1687 H 163.183 -0.155527 1.90867 0
M  V30 1688 H 161.488 -2.52496 2.99588 0
M  V30 1689 H 163.185 -2.27844 3.29982 0
M  V30 1690 H 159.775 -1.11553 4.13828 0
M  V30 1691 H 163.959 -0.541398 4.93338 0
M  V30 1692 H 159.215 0.242635 6.10918 0
M  V30 1693 H 163.389 0.810825 6.91664 0
M  V30 1694 H 161.016 1.20885 7.50527 0
M  V30 1695 N 162.591 -1.51276 -0.441967 0
M  V30 1696 C 163.868 -1.54252 -1.20273 0
M  V30 1697 C 164.248 -0.30408 -2.08898 0
M  V30 1698 O 163.596 0.711084 -2.17154 0
M  V30 1699 C 163.806 -2.85406 -2.00859 0
M  V30 1700 C 165.154 -3.37181 -2.58059 0
M  V30 1701 O 166.178 -2.86925 -2.11074 0
M  V30 1702 O 165.037 -4.24858 -3.43741 0
M  V30 1703 H 162.131 -0.619969 -0.547328 0
M  V30 1704 H 164.677 -1.63586 -0.451413 0
M  V30 1705 H 163.449 -3.67003 -1.35736 0
M  V30 1706 H 163.072 -2.79213 -2.83065 0
M  V30 1707 N 164.069 0.697108 -1.41344 0
M  V30 1708 C 165.315 1.4593 -1.40827 0
M  V30 1709 C 165.648 1.94193 -0.0167098 0
M  V30 1710 O 164.923 1.69425 0.955263 0
M  V30 1711 C 165.206 2.67229 -2.41373 0
M  V30 1712 C 165.059 2.24741 -3.8963 0
M  V30 1713 C 166.378 3.69423 -2.39196 0
M  V30 1714 H 163.497 0.529303 -0.512842 0
M  V30 1715 H 166.139 0.794112 -1.72609 0
M  V30 1716 H 164.289 3.23982 -2.14401 0
M  V30 1717 H 165.961 1.73327 -4.27499 0
M  V30 1718 H 164.204 1.56542 -4.0457 0
M  V30 1719 H 164.875 3.1177 -4.55525 0
M  V30 1720 H 167.351 3.2234 -2.63128 0
M  V30 1721 H 166.227 4.51907 -3.11563 0
M  V30 1722 H 166.488 4.19012 -1.41001 0
M  V30 1723 N 165.547 1.27147 0.931209 0
M  V30 1724 C 166.793 1.14455 1.68141 0
M  V30 1725 C 167.148 -0.307172 1.89932 0
M  V30 1726 O 166.441 -1.22158 1.47607 0
M  V30 1727 C 166.635 1.8579 3.05314 0
M  V30 1728 C 166.464 3.3775 2.96909 0
M  V30 1729 C 165.234 4.07062 2.99381 0
M  V30 1730 C 167.432 4.33783 2.76291 0
M  V30 1731 N 165.414 5.45618 2.8138 0
M  V30 1732 C 166.785 5.59582 2.6696 0
M  V30 1733 C 168.84 4.23915 2.61152 0
M  V30 1734 C 167.543 6.76639 2.44033 0
M  V30 1735 C 169.569 5.40689 2.39602 0
M  V30 1736 C 168.931 6.65443 2.3101 0
M  V30 1737 H 165.03 0.473667 0.622225 0
M  V30 1738 H 167.614 1.60568 1.10118 0
M  V30 1739 H 165.785 1.42138 3.61457 0
M  V30 1740 H 167.517 1.65634 3.69253 0
M  V30 1741 H 164.272 3.585 3.09475 0
M  V30 1742 H 164.696 6.184 2.75519 0
M  V30 1743 H 169.338 3.28189 2.66555 0
M  V30 1744 H 167.056 7.72451 2.3737 0
M  V30 1745 H 170.642 5.34932 2.28778 0
M  V30 1746 H 169.522 7.54277 2.14558 0
M  V30 1747 N 167.025 -1.13721 1.09112 0
M  V30 1748 C 168.273 -1.84559 0.823562 0
M  V30 1749 C 168.594 -1.83754 -0.652658 0
M  V30 1750 O 167.864 -1.29102 -1.47342 0
M  V30 1751 H 166.444 -0.683376 0.301673 0
M  V30 1752 H 169.106 -1.37771 1.37859 0
M  V30 1753 H 168.202 -2.8917 1.17419 0
M  V30 1754 N 168.503 -0.877838 -1.30888 0
M  V30 1755 C 169.435 -0.296607 -2.27273 0
M  V30 1756 C 170.448 0.544799 -1.53414 0
M  V30 1757 O 171.637 0.365511 -1.74718 0
M  V30 1758 C 168.737 0.597481 -3.33592 0
M  V30 1759 C 167.91 -0.213251 -4.3688 0
M  V30 1760 C 166.969 0.610208 -5.2265 0
M  V30 1761 O 165.995 0.035441 -5.69189 0
M  V30 1762 N 167.197 1.92071 -5.47804 0
M  V30 1763 H 169.962 -1.12492 -2.77787 0
M  V30 1764 H 167.523 -0.740105 -1.43993 0
M  V30 1765 H 169.515 1.15425 -3.87891 0
M  V30 1766 H 168.085 1.32647 -2.83061 0
M  V30 1767 H 167.305 -0.951466 -3.82545 0
M  V30 1768 H 168.593 -0.769262 -5.02951 0
M  V30 1769 H 167.991 2.4107 -5.11763 0
M  V30 1770 H 166.548 2.42508 -6.05007 0
M  V30 1771 N 169.982 1.44106 -0.638065 0
M  V30 1772 C 171.23 2.01579 -0.145043 0
M  V30 1773 C 171.551 1.50496 1.24 0
M  V30 1774 O 170.821 0.711374 1.82527 0
M  V30 1775 H 169.401 0.745282 -0.05063 0
M  V30 1776 H 172.063 1.76516 -0.826327 0
M  V30 1777 H 171.159 3.11877 -0.118039 0
M  V30 1778 N 171.46 0.379036 1.52974 0
M  V30 1779 C 172.688 -0.20679 2.05864 0
M  V30 1780 C 173.103 -1.41356 1.25155 0
M  V30 1781 O 172.46 -1.8009 0.295588 0
M  V30 1782 C 172.511 -0.587045 3.56702 0
M  V30 1783 O 172.232 0.571776 4.34353 0
M  V30 1784 C 173.733 -1.22983 4.25899 0
M  V30 1785 H 170.953 -0.0336123 0.670158 0
M  V30 1786 H 173.497 0.541298 1.97206 0
M  V30 1787 H 171.652 -1.28504 3.65466 0
M  V30 1788 H 172.066 0.261544 5.23847 0
M  V30 1789 H 173.54 -1.44635 5.32715 0
M  V30 1790 H 174.017 -2.19416 3.80465 0
M  V30 1791 H 174.623 -0.572892 4.21424 0
M  V30 1792 N 172.938 -1.57226 0.108567 0
M  V30 1793 C 173.868 -2.17778 -0.84232 0
M  V30 1794 C 174.849 -1.11487 -1.2847 0
M  V30 1795 O 176.034 -1.39681 -1.34918 0
M  V30 1796 C 173.164 -2.76888 -2.09644 0
M  V30 1797 C 172.118 -3.88669 -1.79221 0
M  V30 1798 C 171.444 -4.34541 -3.11574 0
M  V30 1799 C 172.744 -5.11251 -1.06864 0
M  V30 1800 H 174.438 -2.97489 -0.337774 0
M  V30 1801 H 171.984 -1.43097 -0.161025 0
M  V30 1802 H 173.937 -3.17904 -2.76614 0
M  V30 1803 H 172.661 -1.94451 -2.62405 0
M  V30 1804 H 171.32 -3.48213 -1.14644 0
M  V30 1805 H 170.968 -3.48977 -3.62249 0
M  V30 1806 H 170.668 -5.09914 -2.91996 0
M  V30 1807 H 172.192 -4.782 -3.7968 0
M  V30 1808 H 173.606 -5.49352 -1.63968 0
M  V30 1809 H 172.003 -5.9214 -0.974178 0
M  V30 1810 H 173.073 -4.8487 -0.0536168 0
M  V30 1811 N 174.416 0.165178 -1.56732 0
M  V30 1812 C 175.662 0.882112 -1.82611 0
M  V30 1813 C 175.995 1.81628 -0.687378 0
M  V30 1814 O 175.27 1.92009 0.310267 0
M  V30 1815 C 175.553 1.67245 -3.18906 0
M  V30 1816 C 175.406 0.760987 -4.43316 0
M  V30 1817 C 176.725 2.63884 -3.52212 0
M  V30 1818 H 173.844 0.319242 -0.664269 0
M  V30 1819 H 176.486 0.148052 -1.89422 0
M  V30 1820 H 174.636 2.29824 -3.1323 0
M  V30 1821 H 176.308 0.147596 -4.61064 0
M  V30 1822 H 174.551 0.0694102 -4.33744 0
M  V30 1823 H 175.222 1.34962 -5.35247 0
M  V30 1824 H 177.698 2.11429 -3.58381 0
M  V30 1825 H 176.574 3.16245 -4.48643 0
M  V30 1826 H 176.835 3.44377 -2.77231 0
M  V30 1827 N 175.894 1.51508 0.433938 0
M  V30 1828 C 177.122 1.68157 1.20543 0
M  V30 1829 C 177.537 0.380362 1.84929 0
M  V30 1830 O 176.894 -0.641446 1.70856 0
M  V30 1831 C 176.945 2.79965 2.28696 0
M  V30 1832 O 176.666 4.05045 1.66943 0
M  V30 1833 C 178.167 3.07912 3.18912 0
M  V30 1834 H 175.387 0.56421 0.363191 0
M  V30 1835 H 177.931 1.97941 0.513754 0
M  V30 1836 H 176.086 2.5277 2.93574 0
M  V30 1837 H 176.5 4.67165 2.38448 0
M  V30 1838 H 177.974 3.89719 3.90926 0
M  V30 1839 H 178.451 2.20456 3.79863 0
M  V30 1840 H 179.057 3.36779 2.59731 0
M  V30 1841 N 177.372 -0.689602 1.41712 0
M  V30 1842 C 178.618 -1.45181 1.41599 0
M  V30 1843 C 178.951 -1.94181 0.0270081 0
M  V30 1844 O 178.226 -1.6993 -0.946265 0
M  V30 1845 C 178.509 -2.65945 2.42787 0
M  V30 1846 C 178.362 -2.22672 3.90816 0
M  V30 1847 C 179.681 -3.68149 2.41151 0
M  V30 1848 H 176.8 -0.526576 0.515642 0
M  V30 1849 H 179.442 -0.784947 1.73028 0
M  V30 1850 H 177.592 -3.2284 2.16116 0
M  V30 1851 H 179.264 -1.71058 4.28412 0
M  V30 1852 H 177.507 -1.54394 4.05395 0
M  V30 1853 H 178.178 -3.0935 4.57172 0
M  V30 1854 H 180.654 -3.2094 2.64834 0
M  V30 1855 H 179.53 -4.50248 3.13955 0
M  V30 1856 H 179.791 -4.18259 1.43221 0
M  V30 1857 N 178.85 -1.27639 -0.924453 0
M  V30 1858 C 180.075 -1.17101 -1.71179 0
M  V30 1859 C 180.5 0.268134 -1.86179 0
M  V30 1860 O 179.858 1.19415 -1.36418 0
M  V30 1861 C 179.906 -1.86313 -3.08739 0
M  V30 1862 O 179.01 -1.16331 -3.95652 0
M  V30 1863 H 178.351 -0.407091 -0.524569 0
M  V30 1864 H 180.881 -1.68767 -1.15666 0
M  V30 1865 H 180.891 -1.938 -3.59034 0
M  V30 1866 H 179.566 -2.91001 -2.97138 0
M  V30 1867 H 178.143 -1.16935 -3.54091 0
M  V30 1868 N 180.328 1.1314 -1.09713 0
M  V30 1869 C 181.553 1.88862 -0.857081 0
M  V30 1870 C 181.978 1.78729 0.586304 0
M  V30 1871 O 181.336 1.13692 1.41222 0
M  V30 1872 C 181.384 3.36325 -1.30069 0
M  V30 1873 O 180.488 4.09815 -0.461007 0
M  V30 1874 H 179.829 0.587108 -0.310162 0
M  V30 1875 H 182.359 1.43129 -1.46203 0
M  V30 1876 H 182.369 3.87157 -1.28738 0
M  V30 1877 H 181.044 3.43017 -2.35185 0
M  V30 1878 H 179.621 3.68986 -0.538888 0
M  V30 1879 N 181.806 0.884767 1.30421 0
M  V30 1880 C 182.769 0.356277 2.26414 0
M  V30 1881 C 183.769 -0.501124 1.52792 0
M  V30 1882 O 184.959 -0.30831 1.7145 0
M  V30 1883 C 182.091 -0.492316 3.37326 0
M  V30 1884 H 183.284 1.20389 2.74675 0
M  V30 1885 H 180.837 0.661607 1.41607 0
M  V30 1886 H 181.572 -1.36052 2.94381 0
M  V30 1887 H 181.357 0.121832 3.91911 0
M  V30 1888 H 182.847 -0.853871 4.08777 0
M  V30 1889 N 183.284 -1.43765 0.645699 0
M  V30 1890 C 184.509 -2.06767 0.161883 0
M  V30 1891 C 184.934 -1.48034 -1.16049 0
M  V30 1892 O 184.292 -0.587369 -1.71522 0
M  V30 1893 C 184.34 -3.60519 0.0762003 0
M  V30 1894 O 183.444 -4.00982 -0.963721 0
M  V30 1895 H 182.785 -0.657675 0.091429 0
M  V30 1896 H 185.315 -1.84397 0.886499 0
M  V30 1897 H 185.325 -4.07853 -0.109604 0
M  V30 1898 H 184 -4.02646 1.04157 0
M  V30 1899 H 182.577 -3.65253 -0.751312 0
M  V30 1900 N 184.763 -0.387143 -1.52771 0
M  V30 1901 C 185.991 0.195869 -2.05971 0
M  V30 1902 C 186.406 1.40691 -1.25903 0
M  V30 1903 O 185.763 1.79931 -0.305134 0
M  V30 1904 C 185.814 0.56812 -3.57008 0
M  V30 1905 O 185.535 -0.594803 -4.34043 0
M  V30 1906 C 187.036 1.20723 -4.26545 0
M  V30 1907 H 184.256 0.0300578 -0.670326 0
M  V30 1908 H 186.8 -0.551749 -1.96916 0
M  V30 1909 H 184.955 1.26564 -3.66143 0
M  V30 1910 H 185.369 -0.289322 -5.23701 0
M  V30 1911 H 186.843 1.41807 -5.33474 0
M  V30 1912 H 187.32 2.17395 -3.81623 0
M  V30 1913 H 187.926 0.550535 -4.21722 0
M  V30 1914 N 186.241 1.57166 -0.116904 0
M  V30 1915 C 187.188 2.15202 0.83408 0
M  V30 1916 C 188.158 1.07644 1.26499 0
M  V30 1917 O 189.343 1.35541 1.34288 0
M  V30 1918 C 186.483 2.75405 2.07957 0
M  V30 1919 C 185.596 3.97264 1.69721 0
M  V30 1920 C 184.731 4.45561 2.89221 0
M  V30 1921 C 183.77 5.59956 2.47215 0
M  V30 1922 N 182.907 6.03006 3.59622 0
M  V30 1923 H 187.747 2.96141 0.332335 0
M  V30 1924 H 185.284 1.46309 0.152349 0
M  V30 1925 H 187.242 3.08439 2.80929 0
M  V30 1926 H 185.872 1.97159 2.55594 0
M  V30 1927 H 184.924 3.70404 0.866316 0
M  V30 1928 H 186.236 4.80226 1.34849 0
M  V30 1929 H 185.39 4.80493 3.7042 0
M  V30 1930 H 184.129 3.61544 3.27318 0
M  V30 1931 H 183.134 5.2463 1.64448 0
M  V30 1932 H 184.359 6.45738 2.10238 0
M  V30 1933 H 182.305 5.21931 3.97396 0
M  V30 1934 H 182.222 6.80819 3.28667 0
M  V30 1935 H 183.49 6.42576 4.41267 0
M  V30 1936 N 187.719 -0.156864 1.56817 0
M  V30 1937 C 188.967 -0.869404 1.82444 0
M  V30 1938 C 189.288 -1.82147 0.69623 0
M  V30 1939 O 188.558 -1.93847 -0.28287 0
M  V30 1940 H 187.138 -0.324043 0.673056 0
M  V30 1941 H 189.8 -0.153224 1.94297 0
M  V30 1942 H 188.896 -1.43761 2.77019 0
M  V30 1943 N 189.197 -1.51736 -0.425897 0
M  V30 1944 C 190.608 -1.5732 -1.00536 0
M  V30 1945 C 190.959 -0.403537 -1.92005 0
M  V30 1946 O 190.084 0.478256 -2.11049 0
M  V30 1947 C 190.679 -2.85119 -1.8301 0
M  V30 1948 C 189.238 -2.93236 -2.35987 0
M  V30 1949 C 188.385 -2.52098 -1.15508 0
M  V30 1950 H 191.336 -1.57348 -0.206739 0
M  V30 1951 H 191.357 -2.69526 -2.68581 0
M  V30 1952 H 190.869 -3.7023 -1.16411 0
M  V30 1953 H 188.97 -2.12581 -3.06007 0
M  V30 1954 H 189.083 -3.9713 -2.68001 0
M  V30 1955 H 187.447 -2.05558 -1.50393 0
M  V30 1956 H 188.23 -3.39565 -0.505014 0
M  V30 1957 N 190.675 0.682077 -1.42076 0
M  V30 1958 C 191.9 1.47558 -1.45744 0
M  V30 1959 C 192.325 1.87977 -0.0680981 0
M  V30 1960 O 191.683 1.55522 0.9318 0
M  V30 1961 C 191.731 2.70575 -2.38373 0
M  V30 1962 O 190.835 3.68573 -1.85007 0
M  V30 1963 H 190.176 0.443585 -0.494093 0
M  V30 1964 H 192.706 0.837238 -1.86686 0
M  V30 1965 H 192.716 3.18729 -2.54707 0
M  V30 1966 H 191.391 2.40495 -3.39315 0
M  V30 1967 H 189.968 3.2757 -1.78192 0
M  V30 1968 N 192.153 1.28127 0.917671 0
M  V30 1969 C 193.399 1.15223 1.66888 0
M  V30 1970 C 193.732 -0.299293 1.9188 0
M  V30 1971 O 193.007 -1.21805 1.51637 0
M  V30 1972 C 193.29 1.94706 3.02922 0
M  V30 1973 C 193.143 3.47898 2.85109 0
M  V30 1974 C 194.462 1.75939 4.03402 0
M  V30 1975 H 191.581 0.419946 0.605652 0
M  V30 1976 H 194.223 1.57398 1.06423 0
M  V30 1977 H 192.373 1.58864 3.54534 0
M  V30 1978 H 194.045 3.93624 2.40537 0
M  V30 1979 H 192.288 3.7373 2.20246 0
M  V30 1980 H 192.959 3.98765 3.81694 0
M  V30 1981 H 195.435 2.07209 3.60837 0
M  V30 1982 H 194.311 2.33931 4.96556 0
M  V30 1983 H 194.572 0.709877 4.36364 0
M  V30 1984 N 193.631 -1.12557 1.10312 0
M  V30 1985 C 194.878 -1.84038 0.844759 0
M  V30 1986 C 195.206 -1.84026 -0.629668 0
M  V30 1987 O 194.461 -1.28026 -1.48013 0
M  V30 1988 C 194.76 -3.31462 1.33669 0
M  V30 1989 C 194.426 -3.51647 2.82232 0
M  V30 1990 C 193.088 -3.56864 3.22802 0
M  V30 1991 C 195.44 -3.58867 3.77974 0
M  V30 1992 C 192.768 -3.66844 4.57867 0
M  V30 1993 C 195.12 -3.70375 5.1284 0
M  V30 1994 C 193.784 -3.73848 5.52986 0
M  V30 1995 H 193.054 -0.673444 0.309119 0
M  V30 1996 H 195.701 -1.32824 1.37949 0
M  V30 1997 H 194.006 -3.85091 0.721949 0
M  V30 1998 H 195.703 -3.85236 1.11329 0
M  V30 1999 H 192.293 -3.48249 2.49842 0
M  V30 2000 H 196.477 -3.54107 3.47738 0
M  V30 2001 H 191.733 -3.67804 4.88396 0
M  V30 2002 H 195.907 -3.74904 5.86873 0
M  V30 2003 H 193.534 -3.81333 6.57639 0
M  V30 2004 N 195.109 -0.891671 -1.2995 0
M  V30 2005 C 196.52 -0.563104 -1.78006 0
M  V30 2006 C 196.871 0.920978 -1.73241 0
M  V30 2007 O 195.996 1.71987 -1.31337 0
M  V30 2008 C 196.591 -1.01539 -3.23226 0
M  V30 2009 C 195.15 -0.738124 -3.69092 0
M  V30 2010 C 194.297 -1.19461 -2.50249 0
M  V30 2011 H 197.248 -1.07522 -1.16725 0
M  V30 2012 H 197.269 -0.347217 -3.78912 0
M  V30 2013 H 196.781 -2.09555 -3.26662 0
M  V30 2014 H 194.882 0.329766 -3.71138 0
M  V30 2015 H 194.995 -1.33037 -4.60259 0
M  V30 2016 H 193.359 -0.613787 -2.47194 0
M  V30 2017 H 194.142 -2.28265 -2.56417 0
M  V30 2018 N 196.587 1.43421 -0.653314 0
M  V30 2019 C 197.517 2.33487 0.0246656 0
M  V30 2020 C 198.498 1.49475 0.811863 0
M  V30 2021 O 199.683 1.78139 0.773322 0
M  V30 2022 C 196.813 3.32841 0.99166 0
M  V30 2023 C 195.767 4.26842 0.314568 0
M  V30 2024 C 195.093 5.16236 1.39302 0
M  V30 2025 C 196.393 5.16243 -0.793095 0
M  V30 2026 H 198.087 2.90427 -0.727481 0
M  V30 2027 H 195.633 1.39649 -0.351287 0
M  V30 2028 H 197.586 3.94747 1.47487 0
M  V30 2029 H 196.31 2.74158 1.77497 0
M  V30 2030 H 194.969 3.663 -0.148199 0
M  V30 2031 H 194.617 4.53891 2.16776 0
M  V30 2032 H 194.317 5.79948 0.945223 0
M  V30 2033 H 195.841 5.81015 1.87759 0
M  V30 2034 H 197.255 5.71958 -0.392039 0
M  V30 2035 H 195.652 5.88676 -1.16536 0
M  V30 2036 H 196.722 4.55927 -1.65103 0
M  V30 2037 N 198.065 0.39524 1.52563 0
M  V30 2038 C 199.028 -0.425001 2.25225 0
M  V30 2039 C 200.028 -0.985266 1.27079 0
M  V30 2040 O 201.218 -0.866332 1.5113 0
M  V30 2041 C 198.35 -1.59686 3.01186 0
M  V30 2042 H 199.543 0.211233 2.99155 0
M  V30 2043 H 197.096 0.147472 1.55603 0
M  V30 2044 H 197.831 -2.27035 2.31572 0
M  V30 2045 H 197.616 -1.20176 3.73229 0
M  V30 2046 H 199.106 -2.17743 3.5634 0
M  V30 2047 N 199.544 -1.57102 0.125237 0
M  V30 2048 C 200.955 -1.82384 -0.399142 0
M  V30 2049 C 201.306 -1.04276 -1.66195 0
M  V30 2050 O 200.431 -0.281269 -2.14564 0
M  V30 2051 C 201.026 -3.30821 -0.730932 0
M  V30 2052 C 199.585 -3.56762 -1.19992 0
M  V30 2053 C 198.732 -2.7649 -0.211792 0
M  V30 2054 H 201.683 -1.54786 0.350277 0
M  V30 2055 H 201.704 -3.4579 -1.58775 0
M  V30 2056 H 201.216 -3.87643 0.188345 0
M  V30 2057 H 199.317 -3.05305 -2.13588 0
M  V30 2058 H 199.43 -4.65317 -1.14093 0
M  V30 2059 H 197.794 -2.4489 -0.700085 0
M  V30 2060 H 198.577 -3.36073 0.700691 0
M  V30 2061 N 201.022 0.148545 -1.56898 0
M  V30 2062 C 202.247 0.880385 -1.87787 0
M  V30 2063 C 202.672 1.74018 -0.714093 0
M  V30 2064 O 202.03 1.78153 0.336343 0
M  V30 2065 C 202.078 1.71422 -3.17249 0
M  V30 2066 O 201.182 2.8183 -3.01074 0
M  V30 2067 H 200.523 0.245301 -0.617028 0
M  V30 2068 H 203.053 0.139826 -2.04122 0
M  V30 2069 H 203.063 2.10954 -3.49231 0
M  V30 2070 H 201.738 1.08284 -4.01556 0
M  V30 2071 H 200.315 2.45715 -2.80497 0
M  V30 2072 N 202.5 1.5196 0.417844 0
M  V30 2073 C 203.725 1.69717 1.1921 0
M  V30 2074 C 204.15 0.402148 1.83751 0
M  V30 2075 O 203.508 -0.639593 1.69643 0
M  V30 2076 C 203.556 2.82794 2.2374 0
M  V30 2077 O 202.66 2.47756 3.29683 0
M  V30 2078 H 202.001 0.565263 0.348387 0
M  V30 2079 H 204.531 1.98621 0.490985 0
M  V30 2080 H 204.541 3.07452 2.68212 0
M  V30 2081 H 203.216 3.76756 1.76146 0
M  V30 2082 H 201.793 2.33739 2.90552 0
M  V30 2083 N 203.978 -0.674533 1.42435 0
M  V30 2084 C 204.925 -1.78807 1.45934 0
M  V30 2085 C 205.895 -1.63157 0.311271 0
M  V30 2086 O 207.08 -1.83707 0.515383 0
M  V30 2087 C 204.22 -3.16839 1.36773 0
M  V30 2088 C 203.333 -3.43774 2.61617 0
M  V30 2089 C 202.468 -4.71536 2.44597 0
M  V30 2090 C 201.507 -4.91505 3.64814 0
M  V30 2091 N 200.644 -6.10508 3.46734 0
M  V30 2092 H 205.484 -1.75151 2.41093 0
M  V30 2093 H 203.021 -0.85504 1.19697 0
M  V30 2094 H 204.979 -3.96606 1.29459 0
M  V30 2095 H 203.609 -3.19619 0.452089 0
M  V30 2096 H 202.661 -2.58259 2.79297 0
M  V30 2097 H 203.973 -3.54423 3.50978 0
M  V30 2098 H 203.127 -5.59393 2.3487 0
M  V30 2099 H 201.866 -4.6317 1.52726 0
M  V30 2100 H 200.871 -4.0209 3.74972 0
M  V30 2101 H 202.096 -5.01716 4.57665 0
M  V30 2102 H 200.042 -6.03315 2.5758 0
M  V30 2103 H 199.959 -6.2202 4.29682 0
M  V30 2104 H 201.227 -7.01044 3.40819 0
M  V30 2105 N 205.456 -1.28612 -0.910864 0
M  V30 2106 C 206.681 -1.1891 -1.69927 0
M  V30 2107 C 207.106 0.248372 -1.86453 0
M  V30 2108 O 206.464 1.17961 -1.37676 0
M  V30 2109 C 206.512 -1.89578 -3.06745 0
M  V30 2110 O 205.616 -1.20521 -3.94396 0
M  V30 2111 H 204.957 -0.412632 -0.520222 0
M  V30 2112 H 207.487 -1.69985 -1.1387 0
M  V30 2113 H 207.497 -1.97597 -3.56958 0
M  V30 2114 H 206.172 -2.94136 -2.94035 0
M  V30 2115 H 204.749 -1.20684 -3.52831 0
M  V30 2116 N 206.934 1.1197 -1.10907 0
M  V30 2117 C 208.162 1.87402 -0.876824 0
M  V30 2118 C 208.577 1.79894 0.573025 0
M  V30 2119 O 207.934 1.17629 1.39534 0
M  V30 2120 C 207.985 3.36428 -1.32282 0
M  V30 2121 O 207.706 3.43765 -2.71582 0
M  V30 2122 C 209.207 4.28783 -1.12518 0
M  V30 2123 H 206.427 0.592793 -0.314384 0
M  V30 2124 H 208.971 1.41649 -1.47499 0
M  V30 2125 H 207.126 3.79706 -0.768229 0
M  V30 2126 H 207.54 4.3652 -2.90776 0
M  V30 2127 H 209.014 5.31613 -1.48633 0
M  V30 2128 H 209.491 4.39153 -0.0642394 0
M  V30 2129 H 210.097 3.91291 -1.66648 0
M  V30 2130 N 208.412 0.89855 1.29475 0
M  V30 2131 C 209.637 0.538561 2.00285 0
M  V30 2132 C 210.062 -0.869135 1.66816 0
M  V30 2133 O 209.42 -1.57831 0.892145 0
M  V30 2134 C 209.468 0.736475 3.52999 0
M  V30 2135 O 208.572 -0.211537 4.11857 0
M  V30 2136 H 207.913 0.210563 0.62973 0
M  V30 2137 H 210.443 1.20982 1.64998 0
M  V30 2138 H 210.453 0.640685 4.02938 0
M  V30 2139 H 209.128 1.76276 3.76696 0
M  V30 2140 H 207.705 -0.0682991 3.72837 0
M  V30 2141 N 209.89 -1.43072 0.660911 0
M  V30 2142 C 211.138 -2.01323 0.177094 0
M  V30 2143 C 211.459 -1.5245 -1.2159 0
M  V30 2144 O 210.729 -0.740322 -1.81373 0
M  V30 2145 H 209.309 -0.744382 0.0624804 0
M  V30 2146 H 211.971 -1.75179 0.854305 0
M  V30 2147 H 211.067 -3.11649 0.167641 0
M  V30 2148 N 211.368 -0.403325 -1.52352 0
M  V30 2149 C 212.616 0.174003 -2.0135 0
M  V30 2150 C 212.937 1.46139 -1.29106 0
M  V30 2151 O 212.207 1.91448 -0.415253 0
M  V30 2152 H 210.787 0.0672911 -0.743963 0
M  V30 2153 H 213.449 -0.538235 -1.87321 0
M  V30 2154 H 212.545 0.374254 -3.09848 0
M  V30 2155 N 212.846 1.57033 -0.133567 0
M  V30 2156 C 214.074 2.00044 0.528195 0
M  V30 2157 C 214.489 1.01349 1.59291 0
M  V30 2158 O 213.846 0.00848369 1.82498 0
M  V30 2159 C 213.897 3.43018 1.1411 0
M  V30 2160 O 213.618 4.37939 0.11892 0
M  V30 2161 C 215.119 4.01237 1.88477 0
M  V30 2162 H 212.339 0.656517 0.138661 0
M  V30 2163 H 214.883 2.03267 -0.224196 0
M  V30 2164 H 213.038 3.40688 1.84418 0
M  V30 2165 H 213.452 5.21436 0.56613 0
M  V30 2166 H 214.926 5.03314 2.26669 0
M  V30 2167 H 215.403 3.41193 2.76558 0
M  V30 2168 H 216.009 4.07156 1.22898 0
M  V30 2169 N 214.325 -0.140222 1.56975 0
M  V30 2170 C 215.288 -1.15689 1.97861 0
M  V30 2171 C 216.288 -1.3549 0.865974 0
M  V30 2172 O 217.478 -1.32367 1.13246 0
M  V30 2173 C 214.61 -2.51582 2.30042 0
M  V30 2174 H 215.803 -0.805971 2.88867 0
M  V30 2175 H 213.356 -0.383801 1.51515 0
M  V30 2176 H 214.091 -2.91632 1.41849 0
M  V30 2177 H 213.876 -2.38569 3.11171 0
M  V30 2178 H 215.366 -3.24792 2.62488 0
M  V30 2179 N 215.803 -1.52179 -0.40978 0
M  V30 2180 C 216.766 -1.74853 -1.48186 0
M  V30 2181 C 217.766 -0.618417 -1.48433 0
M  V30 2182 O 218.956 -0.886286 -1.49969 0
M  V30 2183 C 216.088 -1.8303 -2.87598 0
M  V30 2184 H 217.281 -2.70559 -1.29374 0
M  V30 2185 H 214.834 -1.42586 -0.640233 0
M  V30 2186 H 215.569 -0.89236 -3.11781 0
M  V30 2187 H 215.354 -2.65187 -2.88822 0
M  V30 2188 H 216.844 -2.02316 -3.65319 0
M  V30 2189 N 217.281 0.66697 -1.42791 0
M  V30 2190 C 218.211 1.79218 -1.49677 0
M  V30 2191 C 219.192 1.66405 -0.352623 0
M  V30 2192 O 220.377 1.85708 -0.567993 0
M  V30 2193 C 217.507 3.17565 -1.40605 0
M  V30 2194 C 216.461 3.45124 -2.53127 0
M  V30 2195 C 215.787 4.83127 -2.29112 0
M  V30 2196 C 217.087 3.41236 -3.95418 0
M  V30 2197 H 218.781 1.73713 -2.43853 0
M  V30 2198 H 216.327 0.83432 -1.17367 0
M  V30 2199 H 218.28 3.96022 -1.44029 0
M  V30 2200 H 217.004 3.23767 -0.429271 0
M  V30 2201 H 215.663 2.69031 -2.49034 0
M  V30 2202 H 215.311 4.85988 -1.29709 0
M  V30 2203 H 215.011 5.02528 -3.04531 0
M  V30 2204 H 216.535 5.63859 -2.34297 0
M  V30 2205 H 217.949 4.09651 -4.01073 0
M  V30 2206 H 216.346 3.72173 -4.70752 0
M  V30 2207 H 217.416 2.39665 -4.21532 0
M  V30 2208 N 218.759 1.29093 0.90403 0
M  V30 2209 C 220.007 1.16583 1.65085 0
M  V30 2210 C 220.328 -0.283933 1.92922 0
M  V30 2211 O 219.598 -1.19509 1.55224 0
M  V30 2212 H 218.178 0.428467 0.611903 0
M  V30 2213 H 220.84 1.61959 1.08422 0
M  V30 2214 H 219.936 1.71266 2.6091 0
M  V30 2215 N 220.237 -1.11381 1.11499 0
M  V30 2216 C 221.477 -1.84763 0.874188 0
M  V30 2217 C 221.841 -1.82726 -0.589496 0
M  V30 2218 O 223.042 -2.51562 -0.947089 0
M  V30 2219 C 221.313 -3.27931 1.42112 0
M  V30 2220 S 222.872 -4.18557 1.31739 0
M  V30 2221 H 219.69 -0.637115 0.315603 0
M  V30 2222 H 222.292 -1.34097 1.42261 0
M  V30 2223 H 220.996 -3.26978 2.48019 0
M  V30 2224 H 220.527 -3.83665 0.869761 0
M  V30 2225 H 222.542 -4.95396 0.282335 0
M  V30 2226 N 221.715 -0.905404 -1.28997 0
M  V30 2227 C 222.645 -0.404212 -2.29975 0
M  V30 2228 C 223.626 0.523784 -1.61835 0
M  V30 2229 O 224.811 0.433298 -1.89304 0
M  V30 2230 C 221.941 0.364042 -3.45387 0
M  V30 2231 C 220.895 -0.474048 -4.25367 0
M  V30 2232 C 220.221 0.422045 -5.33032 0
M  V30 2233 C 221.521 -1.72696 -4.92923 0
M  V30 2234 H 223.215 -1.24807 -2.72146 0
M  V30 2235 H 220.761 -0.601585 -1.30832 0
M  V30 2236 H 222.714 0.725447 -4.15109 0
M  V30 2237 H 221.438 1.24174 -3.02074 0
M  V30 2238 H 220.097 -0.81786 -3.57361 0
M  V30 2239 H 219.745 1.29804 -4.85963 0
M  V30 2240 H 219.445 -0.135057 -5.87445 0
M  V30 2241 H 220.969 0.779517 -6.05604 0
M  V30 2242 H 222.383 -1.43495 -5.55051 0
M  V30 2243 H 220.78 -2.22582 -5.57295 0
M  V30 2244 H 221.85 -2.45964 -4.17887 0
M  V30 2245 N 223.193 1.4272 -0.668489 0
M  V30 2246 C 224.439 2.01923 -0.188419 0
M  V30 2247 C 224.772 1.52704 1.19979 0
M  V30 2248 O 224.047 0.726566 1.8042 0
M  V30 2249 C 224.33 3.59451 -0.216085 0
M  V30 2250 C 224.183 4.18864 -1.6393 0
M  V30 2251 C 225.502 4.37903 0.439179 0
M  V30 2252 H 222.621 0.733674 -0.0699412 0
M  V30 2253 H 225.263 1.69822 -0.852076 0
M  V30 2254 H 223.413 3.86929 0.349012 0
M  V30 2255 H 225.085 4.02362 -2.25616 0
M  V30 2256 H 223.328 3.74933 -2.18193 0
M  V30 2257 H 223.999 5.27987 -1.61039 0
M  V30 2258 H 226.475 4.16079 -0.0417878 0
M  V30 2259 H 225.351 5.47519 0.389157 0
M  V30 2260 H 225.612 4.15303 1.51577 0
M  V30 2261 N 224.671 0.411399 1.52136 0
M  V30 2262 C 225.618 -0.412975 2.27075 0
M  V30 2263 C 226.588 -1.03912 1.29582 0
M  V30 2264 O 227.773 -1.06296 1.58448 0
M  V30 2265 C 224.913 -1.52247 3.09701 0
M  V30 2266 C 224.026 -0.917021 4.22155 0
M  V30 2267 C 223.161 -1.9994 4.92135 0
M  V30 2268 C 222.2 -1.37101 5.96548 0
M  V30 2269 N 221.337 -2.39364 6.60038 0
M  V30 2270 H 226.177 0.232499 2.97092 0
M  V30 2271 H 223.714 0.126496 1.46555 0
M  V30 2272 H 225.672 -2.17674 3.55913 0
M  V30 2273 H 224.302 -2.13794 2.41851 0
M  V30 2274 H 223.354 -0.151742 3.80097 0
M  V30 2275 H 224.666 -0.418006 4.97045 0
M  V30 2276 H 223.82 -2.73088 5.41763 0
M  V30 2277 H 222.559 -2.53208 4.16818 0
M  V30 2278 H 221.564 -0.624873 5.46237 0
M  V30 2279 H 222.789 -0.845998 6.7381 0
M  V30 2280 H 220.735 -2.91759 5.87548 0
M  V30 2281 H 220.652 -1.9428 7.3061 0
M  V30 2282 H 221.92 -3.12074 7.14304 0
M  V30 2283 N 226.149 -1.5696 0.141893 0
M  V30 2284 C 227.426 -1.87553 -0.555281 0
M  V30 2285 C 227.806 -1.04699 -1.83306 0
M  V30 2286 O 227.154 -0.132346 -2.28116 0
M  V30 2287 C 227.364 -3.39093 -0.825664 0
M  V30 2288 C 228.712 -4.08199 -1.16869 0
M  V30 2289 O 229.736 -3.44242 -0.915185 0
M  V30 2290 O 228.595 -5.21139 -1.6455 0
M  V30 2291 H 225.689 -0.777188 -0.282679 0
M  V30 2292 H 228.235 -1.68763 0.17812 0
M  V30 2293 H 227.007 -3.91221 0.0788633 0
M  V30 2294 H 226.63 -3.63393 -1.61343 0
M  V30 2295 N 227.627 0.131896 -1.57047 0
M  V30 2296 C 228.857 0.855219 -1.88068 0
M  V30 2297 C 229.265 1.74557 -0.729817 0
M  V30 2298 O 228.608 1.81083 0.308962 0
M  V30 2299 C 228.67 1.75119 -3.13964 0
M  V30 2300 C 228.334 1.03646 -4.45091 0
M  V30 2301 C 229.331 0.383276 -5.18485 0
M  V30 2302 C 227.016 1.02148 -4.91804 0
M  V30 2303 C 229.01 -0.275347 -6.36805 0
M  V30 2304 C 226.697 0.359047 -6.10044 0
M  V30 2305 C 227.695 -0.288222 -6.82392 0
M  V30 2306 O 227.383 -0.94011 -7.98384 0
M  V30 2307 H 227.115 0.251864 -0.627328 0
M  V30 2308 H 229.669 0.124782 -2.05021 0
M  V30 2309 H 227.899 2.52295 -2.9306 0
M  V30 2310 H 229.588 2.3478 -3.31109 0
M  V30 2311 H 230.354 0.386562 -4.83457 0
M  V30 2312 H 226.233 1.5147 -4.35405 0
M  V30 2313 H 229.777 -0.781148 -6.93213 0
M  V30 2314 H 225.674 0.35348 -6.44531 0
M  V30 2315 H 226.442 -0.84329 -8.14144 0
M  V30 2316 N 229.106 1.52395 0.401703 0
M  V30 2317 C 230.353 1.66817 1.14796 0
M  V30 2318 C 230.681 0.401772 1.90305 0
M  V30 2319 O 229.936 -0.615487 1.85769 0
M  V30 2320 C 230.235 2.84578 2.16217 0
M  V30 2321 C 229.901 4.22513 1.5746 0
M  V30 2322 C 228.563 4.60029 1.41161 0
M  V30 2323 C 230.915 5.0844 1.14622 0
M  V30 2324 C 228.243 5.81144 0.80552 0
M  V30 2325 C 230.595 6.30167 0.55428 0
M  V30 2326 C 229.259 6.66426 0.378482 0
M  V30 2327 H 228.529 0.610428 0.420069 0
M  V30 2328 H 231.176 1.86512 0.434212 0
M  V30 2329 H 229.481 2.59248 2.93764 0
M  V30 2330 H 231.178 2.92933 2.73845 0
M  V30 2331 H 227.768 3.92953 1.71132 0
M  V30 2332 H 231.952 4.80034 1.26021 0
M  V30 2333 H 227.208 6.07855 0.657399 0
M  V30 2334 H 231.382 6.96071 0.213983 0
M  V30 2335 H 229.009 7.60143 -0.0932606 0
M  V30 2336 N 230.584 -0.659388 1.43143 0
M  V30 2337 C 231.995 -1.24041 1.39537 0
M  V30 2338 C 232.346 -1.95963 0.0963364 0
M  V30 2339 O 231.471 -2.00892 -0.804438 0
M  V30 2340 C 232.066 -2.25601 2.52764 0
M  V30 2341 C 230.625 -2.79195 2.52443 0
M  V30 2342 C 229.772 -1.53743 2.30778 0
M  V30 2343 H 232.723 -0.451792 1.52133 0
M  V30 2344 H 232.744 -3.07651 2.23899 0
M  V30 2345 H 232.256 -1.73226 3.47296 0
M  V30 2346 H 230.357 -3.35649 1.61773 0
M  V30 2347 H 230.47 -3.2716 3.50004 0
M  V30 2348 H 228.834 -1.80869 1.79328 0
M  V30 2349 H 229.617 -1.03312 3.27386 0
M  V30 2350 N 232.062 -1.29571 -0.897171 0
M  V30 2351 C 232.972 -1.16808 -2.03453 0
M  V30 2352 C 233.988 -0.0907471 -1.73763 0
M  V30 2353 O 235.164 -0.303312 -1.99103 0
M  V30 2354 C 232.229 -0.848264 -3.36163 0
M  V30 2355 C 231.29 -2.0097 -3.79354 0
M  V30 2356 C 230.523 -1.70505 -5.05731 0
M  V30 2357 O 230.746 -0.62718 -5.66941 0
M  V30 2358 O 229.68 -2.5538 -5.45036 0
M  V30 2359 H 233.506 -2.12325 -2.17144 0
M  V30 2360 H 231.091 -1.09047 -1.02123 0
M  V30 2361 H 232.973 -0.684581 -4.15802 0
M  V30 2362 H 231.648 0.0771071 -3.23608 0
M  V30 2363 H 230.555 -2.22863 -3.00471 0
M  V30 2364 H 231.888 -2.91636 -3.96496 0
M  V30 2365 N 233.54 1.10788 -1.12088 0
M  V30 2366 C 234.951 1.64181 -0.88891 0
M  V30 2367 C 235.302 1.87508 0.577498 0
M  V30 2368 O 234.427 1.61434 1.44112 0
M  V30 2369 C 235.022 2.98257 -1.60712 0
M  V30 2370 C 233.581 3.4853 -1.42139 0
M  V30 2371 C 232.728 2.23208 -1.6454 0
M  V30 2372 H 235.679 0.943368 -1.27618 0
M  V30 2373 H 235.7 3.65552 -1.05604 0
M  V30 2374 H 235.212 2.81246 -2.67436 0
M  V30 2375 H 233.313 3.70692 -0.376552 0
M  V30 2376 H 233.426 4.26882 -2.17505 0
M  V30 2377 H 231.79 2.31169 -1.06925 0
M  V30 2378 H 232.573 2.08733 -2.72554 0
M  V30 2379 N 235.018 0.912232 1.28515 0
M  V30 2380 C 236.264 0.545405 1.95328 0
M  V30 2381 C 236.597 -0.908313 1.71649 0
M  V30 2382 O 235.872 -1.64575 1.03659 0
M  V30 2383 C 236.155 0.853483 3.4984 0
M  V30 2384 C 236.008 2.35982 3.82926 0
M  V30 2385 C 237.327 0.348589 4.38717 0
M  V30 2386 H 234.446 0.199626 0.709449 0
M  V30 2387 H 237.088 1.1412 1.5191 0
M  V30 2388 H 235.238 0.34643 3.86952 0
M  V30 2389 H 236.91 2.93738 3.55691 0
M  V30 2390 H 235.153 2.81543 3.30024 0
M  V30 2391 H 235.824 2.52593 4.90816 0
M  V30 2392 H 238.3 0.78294 4.08668 0
M  V30 2393 H 237.176 0.593242 5.45685 0
M  V30 2394 H 237.437 -0.751049 4.35674 0
M  V30 2395 N 236.496 -1.42363 0.676048 0
M  V30 2396 C 237.724 -2.05859 0.207268 0
M  V30 2397 C 238.139 -1.50796 -1.13605 0
M  V30 2398 O 237.496 -0.648265 -1.70598 0
M  V30 2399 C 237.547 -3.61248 0.134975 0
M  V30 2400 O 237.268 -4.1427 1.42521 0
M  V30 2401 C 238.769 -4.41859 -0.357151 0
M  V30 2402 H 235.989 -0.663431 0.100503 0
M  V30 2403 H 238.533 -1.82479 0.923136 0
M  V30 2404 H 236.688 -3.83735 -0.531588 0
M  V30 2405 H 237.102 -5.0815 1.29939 0
M  V30 2406 H 238.576 -5.50847 -0.356641 0
M  V30 2407 H 239.053 -4.16536 -1.39264 0
M  V30 2408 H 239.659 -4.24392 0.27772 0
M  V30 2409 N 237.974 -0.419461 -1.51915 0
M  V30 2410 C 239.22 0.153166 -2.02221 0
M  V30 2411 C 239.553 1.43907 -1.30401 0
M  V30 2412 O 238.828 1.90055 -0.413438 0
M  V30 2413 C 239.111 0.390291 -3.57979 0
M  V30 2414 C 238.964 -0.913014 -4.40436 0
M  V30 2415 C 240.283 1.16794 -4.2432 0
M  V30 2416 H 237.402 0.0541924 -0.735005 0
M  V30 2417 H 240.044 -0.554955 -1.81715 0
M  V30 2418 H 238.194 0.993491 -3.75582 0
M  V30 2419 H 239.866 -1.54882 -4.34522 0
M  V30 2420 H 238.109 -1.52168 -4.06236 0
M  V30 2421 H 238.78 -0.701361 -5.47526 0
M  V30 2422 H 241.256 0.657161 -4.10878 0
M  V30 2423 H 240.132 1.3026 -5.3322 0
M  V30 2424 H 240.393 2.19132 -3.83971 0
M  V30 2425 N 239.452 1.56882 -0.150215 0
M  V30 2426 C 240.677 2.01027 0.510184 0
M  V30 2427 C 241.102 1.02966 1.57415 0
M  V30 2428 O 240.46 0.00590158 1.81299 0
M  V30 2429 C 240.508 3.43899 1.08472 0
M  V30 2430 O 239.612 3.4885 2.19948 0
M  V30 2431 H 238.953 0.652233 0.124451 0
M  V30 2432 H 241.483 2.03093 -0.247894 0
M  V30 2433 H 241.493 3.82766 1.41259 0
M  V30 2434 H 240.168 4.14776 0.305582 0
M  V30 2435 H 238.745 3.21827 1.88366 0
M  V30 2436 N 240.93 -0.123565 1.57115 0
M  V30 2437 C 242.176 -0.828428 1.85765 0
M  V30 2438 C 242.531 -1.77709 0.737371 0
M  V30 2439 O 241.824 -1.89787 -0.262978 0
M  V30 2440 C 242.018 -1.62016 3.18568 0
M  V30 2441 C 241.847 -0.749663 4.43407 0
M  V30 2442 C 240.617 -0.406251 5.03664 0
M  V30 2443 C 242.815 -0.0693505 5.14253 0
M  V30 2444 N 240.797 0.475389 6.12057 0
M  V30 2445 C 242.168 0.671474 6.16353 0
M  V30 2446 C 244.223 0.00754393 4.97899 0
M  V30 2447 C 242.926 1.48197 7.03868 0
M  V30 2448 C 244.952 0.804845 5.85898 0
M  V30 2449 C 244.314 1.53388 6.87497 0
M  V30 2450 H 240.413 -0.280219 0.73007 0
M  V30 2451 H 242.997 -0.0924183 1.94481 0
M  V30 2452 H 241.168 -2.32724 3.10957 0
M  V30 2453 H 242.9 -2.27 3.35042 0
M  V30 2454 H 239.655 -0.747446 4.67665 0
M  V30 2455 H 240.079 0.907924 6.70884 0
M  V30 2456 H 244.721 -0.541741 4.19315 0
M  V30 2457 H 242.439 2.04242 7.81864 0
M  V30 2458 H 246.025 0.866642 5.75309 0
M  V30 2459 H 244.905 2.1409 7.5441 0
M  V30 2460 N 242.408 -1.52605 -0.393616 0
M  V30 2461 C 243.356 -1.77688 -1.50099 0
M  V30 2462 C 244.35 -0.644615 -1.56656 0
M  V30 2463 O 245.556 -0.826997 -1.59877 0
M  V30 2464 H 241.931 -0.562159 -0.499481 0
M  V30 2465 H 243.902 -2.7043 -1.26135 0
M  V30 2466 C 242.651 -1.95858 -2.87289 0
M  V30 2467 H 241.974 -2.8241 -2.82992 0
M  V30 2468 H 243.414 -2.174 -3.64024 0
M  V30 2469 C 241.873 -0.729848 -3.28899 0
M  V30 2470 O 242.403 0.0949217 -4.01588 0
M  V30 2471 N 240.609 -0.561283 -2.85128 0
M  V30 2472 H 240.156 -1.23357 -2.26143 0
M  V30 2473 H 240.114 0.2595 -3.13327 0
M  V30 2474 N 243.887 0.651787 -1.4349 0
M  V30 2475 C 245.112 1.44434 -1.48841 0
M  V30 2476 C 245.537 1.8779 -0.107955 0
M  V30 2477 O 244.895 1.57464 0.898602 0
M  V30 2478 C 244.943 2.65458 -2.44059 0
M  V30 2479 O 244.047 3.64566 -1.92784 0
M  V30 2480 H 243.388 0.433005 -0.503391 0
M  V30 2481 H 245.918 0.797451 -1.88419 0
M  V30 2482 H 245.928 3.13255 -2.6141 0
M  V30 2483 H 244.603 2.33244 -3.4434 0
M  V30 2484 H 243.18 3.23716 -1.851 0
M  V30 2485 N 245.365 1.30045 0.890287 0
M  V30 2486 C 246.613 1.18327 1.63839 0
M  V30 2487 C 246.934 -0.263455 1.93212 0
M  V30 2488 O 246.204 -1.17856 1.56482 0
M  V30 2489 H 244.784 0.434933 0.607324 0
M  V30 2490 H 247.446 1.631 1.06698 0
M  V30 2491 H 246.542 1.74024 2.59079 0
M  V30 2492 N 246.843 -1.10192 1.12674 0
M  V30 2493 C 247.806 -2.14786 0.799979 0
M  V30 2494 C 248.806 -1.59711 -0.18685 0
M  V30 2495 O 249.996 -1.74156 0.0392558 0
M  V30 2496 C 247.128 -3.40374 0.189228 0
M  V30 2497 H 248.321 -2.45203 1.72671 0
M  V30 2498 H 245.874 -1.25597 0.930326 0
M  V30 2499 H 246.609 -3.15577 -0.747107 0
M  V30 2500 H 246.394 -3.81637 0.899766 0
M  V30 2501 H 247.884 -4.17594 -0.0228143 0
M  V30 2502 N 248.321 -0.919034 -1.28029 0
M  V30 2503 C 249.251 -0.428581 -2.29533 0
M  V30 2504 C 250.232 0.50659 -1.62381 0
M  V30 2505 O 251.417 0.413195 -1.89753 0
M  V30 2506 C 248.547 0.327388 -3.45753 0
M  V30 2507 C 247.501 -0.519137 -4.2484 0
M  V30 2508 C 246.827 0.365486 -5.33449 0
M  V30 2509 C 248.127 -1.77914 -4.91064 0
M  V30 2510 H 249.821 -1.27687 -2.70807 0
M  V30 2511 H 247.367 -0.615428 -1.30186 0
M  V30 2512 H 249.32 0.681378 -4.15855 0
M  V30 2513 H 248.044 1.20963 -3.03374 0
M  V30 2514 H 246.703 -0.855717 -3.56473 0
M  V30 2515 H 246.351 1.24642 -4.87312 0
M  V30 2516 H 246.051 -0.197356 -5.87268 0
M  V30 2517 H 247.575 0.715241 -6.06396 0
M  V30 2518 H 248.989 -1.49374 -5.53498 0
M  V30 2519 H 247.386 -2.2848 -5.54903 0
M  V30 2520 H 248.456 -2.50382 -4.15255 0
M  V30 2521 N 249.799 1.42003 -0.683588 0
M  V30 2522 C 251.027 2.05746 -0.218182 0
M  V30 2523 C 251.442 1.51396 1.12804 0
M  V30 2524 O 250.799 0.657303 1.70252 0
M  V30 2525 C 250.85 3.61171 -0.154131 0
M  V30 2526 O 250.571 4.13508 -1.44716 0
M  V30 2527 C 252.072 4.42042 0.333713 0
M  V30 2528 H 249.292 0.662888 -0.10402 0
M  V30 2529 H 251.836 1.81987 -0.9328 0
M  V30 2530 H 249.991 3.84012 0.511231 0
M  V30 2531 H 250.405 5.07453 -1.32632 0
M  V30 2532 H 251.879 5.51028 0.327423 0
M  V30 2533 H 252.356 4.17269 1.37053 0
M  V30 2534 H 252.962 4.24239 -0.300222 0
M  V30 2535 N 251.277 0.427512 1.51691 0
M  V30 2536 C 252.502 -0.143601 2.06902 0
M  V30 2537 C 252.927 -1.36536 1.29382 0
M  V30 2538 O 252.285 -1.78289 0.329043 0
M  V30 2539 C 252.333 -0.454207 3.57728 0
M  V30 2540 O 251.437 -1.54228 3.82475 0
M  V30 2541 H 250.778 -0.00617128 0.663971 0
M  V30 2542 H 253.308 0.606014 1.95419 0
M  V30 2543 H 253.318 -0.707525 4.01818 0
M  V30 2544 H 251.993 0.438812 4.13579 0
M  V30 2545 H 250.57 -1.2797 3.50254 0
M  V30 2546 N 252.755 -1.56801 0.158532 0
M  V30 2547 C 254.003 -1.96102 -0.488712 0
M  V30 2548 C 254.324 -1.04498 -1.64636 0
M  V30 2549 O 253.594 -0.108783 -1.95598 0
M  V30 2550 H 252.174 -0.724102 -0.183535 0
M  V30 2551 H 254.836 -1.93457 0.236728 0
M  V30 2552 H 253.932 -3.00097 -0.857219 0
M  V30 2553 N 254.233 0.115231 -1.57178 0
M  V30 2554 C 255.479 0.82357 -1.85325 0
M  V30 2555 C 255.812 1.79349 -0.744814 0
M  V30 2556 O 255.087 1.92899 0.249024 0
M  V30 2557 C 255.37 1.57014 -3.24066 0
M  V30 2558 C 255.223 0.619565 -4.45513 0
M  V30 2559 C 256.542 2.52545 -3.60429 0
M  V30 2560 H 253.661 0.297948 -0.674089 0
M  V30 2561 H 256.303 0.0877138 -1.89797 0
M  V30 2562 H 254.453 2.19742 -3.20383 0
M  V30 2563 H 256.125 0.000837639 -4.613 0
M  V30 2564 H 254.368 -0.0686174 -4.33746 0
M  V30 2565 H 255.039 1.17866 -5.3927 0
M  V30 2566 H 257.515 1.9992 -3.64926 0
M  V30 2567 H 256.391 3.01811 -4.58477 0
M  V30 2568 H 256.652 3.35383 -2.88047 0
M  V30 2569 N 255.711 1.52812 0.385517 0
M  V30 2570 C 256.661 1.74219 1.47078 0
M  V30 2571 C 257.645 0.59632 1.49442 0
M  V30 2572 O 258.837 0.85428 1.5502 0
M  V30 2573 C 255.966 1.9176 2.84751 0
M  V30 2574 C 255.052 3.12289 2.86943 0
M  V30 2575 N 255.443 4.34575 2.58802 0
M  V30 2576 C 253.741 3.12605 3.1811 0
M  V30 2577 C 254.442 5.162 2.68166 0
M  V30 2578 N 253.418 4.51964 3.02043 0
M  V30 2579 H 257.22 2.6639 1.24152 0
M  V30 2580 H 254.734 1.51166 0.593504 0
M  V30 2581 H 256.731 2.05218 3.62893 0
M  V30 2582 H 255.391 1.00805 3.08656 0
M  V30 2583 H 256.402 4.62649 2.32759 0
M  V30 2584 H 253.079 2.31472 3.47458 0
M  V30 2585 H 254.469 6.23689 2.49923 0
M  V30 2586 N 257.189 -0.644168 1.43834 0
M  V30 2587 C 258.417 -1.43147 1.49387 0
M  V30 2588 C 258.832 -1.88452 0.114583 0
M  V30 2589 O 258.189 -1.60047 -0.876989 0
M  V30 2590 C 258.24 -2.66046 2.44748 0
M  V30 2591 O 257.961 -2.22633 3.77314 0
M  V30 2592 C 259.462 -3.59311 2.59635 0
M  V30 2593 H 256.682 -0.439447 0.507077 0
M  V30 2594 H 259.226 -0.78895 1.88669 0
M  V30 2595 H 257.381 -3.26418 2.08638 0
M  V30 2596 H 257.795 -3.02216 4.28679 0
M  V30 2597 H 259.269 -4.42187 3.30416 0
M  V30 2598 H 259.746 -4.07259 1.64427 0
M  V30 2599 H 260.352 -3.04816 2.96593 0
M  V30 2600 N 258.668 -1.30515 -0.883378 0
M  V30 2601 C 259.915 -1.1943 -1.63532 0
M  V30 2602 C 260.243 0.250627 -1.92878 0
M  V30 2603 O 259.498 1.19556 -1.54935 0
M  V30 2604 C 259.797 -1.96994 -2.98209 0
M  V30 2605 C 259.463 -3.466 -2.88408 0
M  V30 2606 C 258.125 -3.87397 -2.85442 0
M  V30 2607 C 260.477 -4.41863 -2.76418 0
M  V30 2608 C 257.805 -5.21745 -2.68327 0
M  V30 2609 C 260.157 -5.7632 -2.60841 0
M  V30 2610 C 258.821 -6.16354 -2.56251 0
M  V30 2611 H 258.091 -0.437025 -0.598406 0
M  V30 2612 H 260.738 -1.61635 -1.02696 0
M  V30 2613 H 259.043 -1.47429 -3.63004 0
M  V30 2614 H 260.74 -1.85808 -3.55354 0
M  V30 2615 H 257.33 -3.14182 -2.91527 0
M  V30 2616 H 261.514 -4.11285 -2.77775 0
M  V30 2617 H 256.77 -5.51853 -2.63189 0
M  V30 2618 H 260.944 -6.49772 -2.50538 0
M  V30 2619 H 258.571 -7.20401 -2.42748 0
M  V30 2620 N 260.146 1.09593 -1.13257 0
M  V30 2621 C 261.557 1.63229 -0.906274 0
M  V30 2622 C 261.908 1.8811 0.557578 0
M  V30 2623 O 261.033 1.62953 1.42391 0
M  V30 2624 C 261.628 2.96535 -1.63867 0
M  V30 2625 C 260.187 3.47003 -1.45828 0
M  V30 2626 C 259.334 2.2145 -1.66898 0
M  V30 2627 H 262.285 0.92978 -1.28611 0
M  V30 2628 H 262.306 3.64411 -1.09476 0
M  V30 2629 H 261.818 2.78394 -2.70404 0
M  V30 2630 H 259.919 3.70272 -0.415848 0
M  V30 2631 H 260.032 4.24551 -2.2202 0
M  V30 2632 H 258.396 2.30022 -1.09371 0
M  V30 2633 H 259.179 2.0583 -2.74752 0
M  V30 2634 N 261.624 0.925811 1.2754 0
M  V30 2635 C 262.587 0.428129 2.25166 0
M  V30 2636 C 263.587 -0.452261 1.54309 0
M  V30 2637 O 264.777 -0.253608 1.72344 0
M  V30 2638 C 261.909 -0.384749 3.38722 0
M  V30 2639 H 263.102 1.29066 2.70706 0
M  V30 2640 H 260.655 0.706323 1.3943 0
M  V30 2641 H 261.39 -1.26618 2.98561 0
M  V30 2642 H 261.175 0.246454 3.91325 0
M  V30 2643 H 262.665 -0.723389 4.11287 0
M  V30 2644 N 263.102 -1.41638 0.69111 0
M  V30 2645 C 264.348 -2.01598 0.220519 0
M  V30 2646 C 264.681 -1.54594 -1.17535 0
M  V30 2647 O 263.956 -0.755177 -1.79241 0
M  V30 2648 C 264.239 -3.59062 0.273243 0
M  V30 2649 C 264.092 -4.16203 1.70573 0
M  V30 2650 C 265.411 -4.38546 -0.369457 0
M  V30 2651 H 262.53 -0.732468 0.0816045 0
M  V30 2652 H 265.172 -1.68445 0.878986 0
M  V30 2653 H 263.322 -3.87435 -0.287411 0
M  V30 2654 H 264.994 -3.98722 2.31989 0
M  V30 2655 H 263.237 -3.71414 2.2413 0
M  V30 2656 H 263.908 -5.25358 1.69419 0
M  V30 2657 H 266.384 -4.1596 0.107977 0
M  V30 2658 H 265.26 -5.48069 -0.302002 0
M  V30 2659 H 265.521 -4.17662 -1.44951 0
M  V30 2660 N 264.58 -0.43555 -1.51462 0
M  V30 2661 C 265.51 0.367376 -2.30592 0
M  V30 2662 C 266.491 1.02263 -1.35928 0
M  V30 2663 O 267.676 1.02661 -1.64847 0
M  V30 2664 C 264.806 1.46983 -3.14664 0
M  V30 2665 C 263.76 0.938161 -4.17591 0
M  V30 2666 C 263.086 2.13622 -4.90173 0
M  V30 2667 C 264.386 -0.0261621 -5.22293 0
M  V30 2668 H 266.08 -0.292969 -2.97963 0
M  V30 2669 H 263.626 -0.14234 -1.43295 0
M  V30 2670 H 265.579 2.03873 -3.688 0
M  V30 2671 H 264.303 2.15843 -2.4511 0
M  V30 2672 H 262.962 0.391481 -3.64504 0
M  V30 2673 H 262.61 2.81098 -4.17124 0
M  V30 2674 H 262.31 1.78688 -5.59772 0
M  V30 2675 H 263.834 2.7107 -5.47132 0
M  V30 2676 H 265.248 0.452384 -5.71512 0
M  V30 2677 H 263.645 -0.287992 -5.99409 0
M  V30 2678 H 264.715 -0.963391 -4.75233 0
M  V30 2679 N 266.058 1.56714 -0.166846 0
M  V30 2680 C 266.99 2.14914 0.796537 0
M  V30 2681 C 268.003 1.10357 1.19688 0
M  V30 2682 O 269.192 1.37561 1.13751 0
M  V30 2683 C 266.292 2.67326 2.08303 0
M  V30 2684 C 265.465 3.96493 1.84696 0
M  V30 2685 C 264.524 4.34014 2.97521 0
M  V30 2686 O 263.55 5.01973 2.6835 0
M  V30 2687 N 264.752 3.95208 4.25196 0
M  V30 2688 H 267.517 2.98205 0.299006 0
M  V30 2689 H 265.078 1.61892 0.0160839 0
M  V30 2690 H 267.07 2.89428 2.82867 0
M  V30 2691 H 265.64 1.88649 2.4926 0
M  V30 2692 H 264.86 3.82814 0.940602 0
M  V30 2693 H 266.148 4.8086 1.66285 0
M  V30 2694 H 265.546 3.40487 4.51758 0
M  V30 2695 H 264.103 4.2232 4.96477 0
M  V30 2696 N 267.536 -0.106894 1.57237 0
M  V30 2697 C 268.761 -0.830287 1.90055 0
M  V30 2698 C 269.186 -1.72064 0.75998 0
M  V30 2699 O 268.544 -1.78982 -0.288991 0
M  V30 2700 C 268.592 -1.6295 3.21683 0
M  V30 2701 O 267.696 -2.73748 3.08441 0
M  V30 2702 H 267.037 -0.228855 0.623315 0
M  V30 2703 H 269.567 -0.085658 2.04421 0
M  V30 2704 H 269.577 -2.01621 3.54701 0
M  V30 2705 H 268.252 -0.975989 4.04286 0
M  V30 2706 H 266.829 -2.38192 2.86913 0
M  V30 2707 N 269.014 -1.53014 -0.377408 0
M  V30 2708 C 270.239 -1.72818 -1.14668 0
M  V30 2709 C 270.664 -0.450725 -1.8262 0
M  V30 2710 O 270.022 0.59439 -1.7128 0
M  V30 2711 C 270.07 -2.88627 -2.16164 0
M  V30 2712 O 269.174 -2.56409 -3.22998 0
M  V30 2713 H 268.515 -0.574301 -0.333278 0
M  V30 2714 H 271.045 -1.99853 -0.438152 0
M  V30 2715 H 271.055 -3.14455 -2.59966 0
M  V30 2716 H 269.73 -3.81294 -1.66095 0
M  V30 2717 H 268.307 -2.4136 -2.84253 0
M  V30 2718 N 270.492 0.636531 -1.44174 0
M  V30 2719 C 271.74 1.39343 -1.46383 0
M  V30 2720 C 272.061 1.94766 -0.0955715 0
M  V30 2721 O 271.331 1.75452 0.871395 0
M  V30 2722 H 269.911 0.517199 -0.538994 0
M  V30 2723 H 272.573 0.74957 -1.7991 0
M  V30 2724 H 271.669 2.22746 -2.18611 0
M  V30 2725 N 271.97 1.30982 0.876444 0
M  V30 2726 C 272.9 1.20668 1.99903 0
M  V30 2727 C 273.881 0.095354 1.69833 0
M  V30 2728 O 275.066 0.27885 1.92188 0
M  V30 2729 C 272.196 0.90655 3.3526 0
M  V30 2730 C 271.15 1.97675 3.79617 0
M  V30 2731 C 270.476 1.52943 5.1236 0
M  V30 2732 C 271.776 3.389 3.97422 0
M  V30 2733 H 273.47 2.14586 2.0879 0
M  V30 2734 H 271.016 1.03308 1.00317 0
M  V30 2735 H 272.969 0.821025 4.13324 0
M  V30 2736 H 271.693 -0.0682969 3.26529 0
M  V30 2737 H 270.352 2.05205 3.03787 0
M  V30 2738 H 270 0.54262 5.00065 0
M  V30 2739 H 269.7 2.24532 5.43009 0
M  V30 2740 H 271.224 1.45786 5.92941 0
M  V30 2741 H 272.638 3.34081 4.659 0
M  V30 2742 H 271.035 4.0865 4.3946 0
M  V30 2743 H 272.105 3.80163 3.01006 0
M  V30 2744 N 273.449 -1.08991 1.13837 0
M  V30 2745 C 274.679 -1.84743 0.924859 0
M  V30 2746 C 275.087 -1.81629 -0.529874 0
M  V30 2747 O 274.43 -1.21397 -1.37872 0
M  V30 2748 C 274.492 -3.33568 1.34061 0
M  V30 2749 C 274.156 -3.60425 2.80968 0
M  V30 2750 C 275.153 -3.55771 3.79108 0
M  V30 2751 C 272.838 -3.88627 3.18236 0
M  V30 2752 C 274.832 -3.78939 5.12527 0
M  V30 2753 C 272.519 -4.11449 4.51833 0
M  V30 2754 C 273.517 -4.06598 5.48787 0
M  V30 2755 O 273.205 -4.28826 6.79973 0
M  V30 2756 H 272.937 -0.590258 0.329502 0
M  V30 2757 H 275.491 -1.38598 1.51591 0
M  V30 2758 H 273.721 -3.80442 0.692853 0
M  V30 2759 H 275.41 -3.90743 1.09886 0
M  V30 2760 H 276.176 -3.34005 3.51661 0
M  V30 2761 H 272.055 -3.91526 2.43369 0
M  V30 2762 H 275.599 -3.75068 5.88192 0
M  V30 2763 H 271.496 -4.32698 4.79002 0
M  V30 2764 H 272.264 -4.46264 6.86142 0
M  V30 2765 N 274.927 -0.932562 -1.27047 0
M  V30 2766 C 276.152 -0.591474 -1.98787 0
M  V30 2767 C 276.577 0.824601 -1.69062 0
M  V30 2768 O 275.935 1.5541 -0.933677 0
M  V30 2769 C 275.983 -0.829808 -3.50922 0
M  V30 2770 O 275.087 0.102266 -4.12273 0
M  V30 2771 H 274.428 -0.227185 -0.623926 0
M  V30 2772 H 276.958 -1.25314 -1.61733 0
M  V30 2773 H 276.968 -0.747292 -4.01098 0
M  V30 2774 H 275.643 -1.86201 -3.7189 0
M  V30 2775 H 274.22 -0.0305761 -3.72887 0
M  V30 2776 N 276.405 1.4127 -0.698611 0
M  V30 2777 C 277.335 2.33447 -0.049629 0
M  V30 2778 C 278.316 1.51982 0.763898 0
M  V30 2779 O 279.501 1.80509 0.716257 0
M  V30 2780 C 276.631 3.35828 0.885267 0
M  V30 2781 C 275.585 4.27627 0.178613 0
M  V30 2782 C 274.911 5.20406 1.22807 0
M  V30 2783 C 276.211 5.13459 -0.956933 0
M  V30 2784 H 277.905 2.87966 -0.81951 0
M  V30 2785 H 275.451 1.38461 -0.395538 0
M  V30 2786 H 277.404 3.9924 1.34854 0
M  V30 2787 H 276.128 2.79666 1.68685 0
M  V30 2788 H 274.787 3.65643 -0.26466 0
M  V30 2789 H 274.435 4.60558 2.02226 0
M  V30 2790 H 274.135 5.82661 0.760239 0
M  V30 2791 H 275.659 5.86695 1.69179 0
M  V30 2792 H 277.073 5.70421 -0.573805 0
M  V30 2793 H 275.47 5.8467 -1.35205 0
M  V30 2794 H 276.54 4.50443 -1.79524 0
M  V30 2795 N 277.883 0.443576 1.51229 0
M  V30 2796 C 279.108 -0.121648 2.07043 0
M  V30 2797 C 279.533 -1.35156 1.30823 0
M  V30 2798 O 278.891 -1.7793 0.347934 0
M  V30 2799 C 278.939 -0.41624 3.5819 0
M  V30 2800 O 278.043 -1.50163 3.8409 0
M  V30 2801 H 277.384 0.000871367 0.663999 0
M  V30 2802 H 279.914 0.626706 1.94765 0
M  V30 2803 H 279.924 -0.664867 4.02546 0
M  V30 2804 H 278.599 0.482653 4.1309 0
M  V30 2805 H 277.176 -1.24248 3.51592 0
M  V30 2806 N 279.361 -1.56624 0.175154 0
M  V30 2807 C 280.586 -2.01813 -0.478137 0
M  V30 2808 C 281.011 -1.05457 -1.55757 0
M  V30 2809 O 280.369 -0.0347439 -1.81267 0
M  V30 2810 C 280.417 -3.45581 -1.02987 0
M  V30 2811 O 279.521 -3.52305 -2.14371 0
M  V30 2812 H 278.862 -0.65413 -0.114059 0
M  V30 2813 H 281.392 -2.02673 0.280173 0
M  V30 2814 H 281.402 -3.84965 -1.35151 0
M  V30 2815 H 280.077 -4.1521 -0.239556 0
M  V30 2816 H 278.654 -3.24783 -1.83222 0
M  V30 2817 N 280.839 0.0985539 -1.57292 0
M  V30 2818 C 282.085 0.803867 -1.86188 0
M  V30 2819 C 282.418 1.78549 -0.763794 0
M  V30 2820 O 281.693 1.93153 0.22855 0
M  V30 2821 C 281.976 1.53568 -3.25713 0
M  V30 2822 C 281.829 0.572277 -4.46145 0
M  V30 2823 C 283.148 2.48708 -3.63087 0
M  V30 2824 H 280.267 0.290781 -0.677211 0
M  V30 2825 H 282.909 0.0675783 -1.8988 0
M  V30 2826 H 281.059 2.16332 -3.22696 0
M  V30 2827 H 282.731 -0.0480894 -4.61275 0
M  V30 2828 H 280.974 -0.114618 -4.33649 0
M  V30 2829 H 281.645 1.12139 -5.40489 0
M  V30 2830 H 284.121 1.96039 -3.67026 0
M  V30 2831 H 282.997 2.96932 -4.61652 0
M  V30 2832 H 283.258 3.32309 -2.91588 0
M  V30 2833 N 282.317 1.53212 0.369288 0
M  V30 2834 C 283.563 1.69466 1.11397 0
M  V30 2835 C 283.896 0.443257 1.89074 0
M  V30 2836 O 283.171 -0.559386 1.86282 0
M  V30 2837 C 283.454 2.9422 2.07621 0
M  V30 2838 C 283.307 4.29508 1.33577 0
M  V30 2839 C 284.626 3.14565 3.07794 0
M  V30 2840 H 281.745 0.616667 0.403597 0
M  V30 2841 H 284.387 1.85845 0.395179 0
M  V30 2842 H 282.537 2.80387 2.68916 0
M  V30 2843 H 284.209 4.55147 0.750955 0
M  V30 2844 H 282.452 4.29088 0.637618 0
M  V30 2845 H 283.123 5.12926 2.03989 0
M  V30 2846 H 285.599 3.2756 2.56601 0
M  V30 2847 H 284.475 4.03297 3.72348 0
M  V30 2848 H 284.736 2.29675 3.77759 0
M  V30 2849 N 283.795 -0.628877 1.44509 0
M  V30 2850 C 285.023 -1.41554 1.50897 0
M  V30 2851 C 285.438 -1.8832 0.134564 0
M  V30 2852 O 284.795 -1.60969 -0.859965 0
M  V30 2853 C 284.846 -2.63435 2.47556 0
M  V30 2854 O 284.567 -2.18619 3.79654 0
M  V30 2855 C 286.068 -3.56537 2.63431 0
M  V30 2856 H 283.288 -0.434044 0.511709 0
M  V30 2857 H 285.832 -0.768895 1.89495 0
M  V30 2858 H 283.987 -3.24187 2.12089 0
M  V30 2859 H 284.401 -2.97652 4.31861 0
M  V30 2860 H 285.875 -4.38657 3.35088 0
M  V30 2861 H 286.352 -4.05493 1.68738 0
M  V30 2862 H 286.958 -3.01653 2.9981 0
M  V30 2863 N 285.273 -1.31445 -0.869486 0
M  V30 2864 C 286.519 -1.21337 -1.62496 0
M  V30 2865 C 286.852 0.227872 -1.92858 0
M  V30 2866 O 286.127 1.16094 -1.56053 0
M  V30 2867 C 286.41 -2.05814 -2.95487 0
M  V30 2868 C 286.263 -3.5824 -2.72 0
M  V30 2869 C 287.582 -1.9079 -3.96594 0
M  V30 2870 H 284.701 -0.442135 -0.589649 0
M  V30 2871 H 287.343 -1.6124 -1.00507 0
M  V30 2872 H 285.493 -1.71913 -3.48394 0
M  V30 2873 H 287.165 -4.0228 -2.25762 0
M  V30 2874 H 285.408 -3.81647 -2.06224 0
M  V30 2875 H 286.079 -4.12657 -3.66631 0
M  V30 2876 H 288.555 -2.20459 -3.52898 0
M  V30 2877 H 287.431 -2.52199 -4.87531 0
M  V30 2878 H 287.692 -0.871341 -4.33428 0
M  V30 2879 N 286.751 1.08385 -1.14413 0
M  V30 2880 C 288.162 1.62258 -0.923535 0
M  V30 2881 C 288.513 1.88691 0.537595 0
M  V30 2882 O 287.638 1.64454 1.40655 0
M  V30 2883 C 288.233 2.94781 -1.67002 0
M  V30 2884 C 286.792 3.45437 -1.495 0
M  V30 2885 C 285.939 2.19668 -1.69238 0
M  V30 2886 H 288.89 0.916086 -1.2959 0
M  V30 2887 H 288.911 3.63229 -1.13334 0
M  V30 2888 H 288.423 2.7551 -2.73342 0
M  V30 2889 H 286.524 3.6981 -0.455097 0
M  V30 2890 H 286.637 4.22173 -2.2651 0
M  V30 2891 H 285.001 2.28849 -1.11804 0
M  V30 2892 H 285.784 2.02905 -2.7692 0
M  V30 2893 N 288.23 0.939286 1.26551 0
M  V30 2894 C 289.455 0.602008 1.98471 0
M  V30 2895 C 289.88 -0.815624 1.69497 0
M  V30 2896 O 289.238 -1.54912 0.941905 0
M  V30 2897 C 289.286 0.848407 3.50477 0
M  V30 2898 O 288.39 -0.0804009 4.12322 0
M  V30 2899 H 287.731 0.23049 0.622712 0
M  V30 2900 H 290.261 1.2617 1.61066 0
M  V30 2901 H 290.271 0.768553 4.00696 0
M  V30 2902 H 288.946 1.88171 3.70897 0
M  V30 2903 H 287.523 0.0503508 3.72866 0
M  V30 2904 N 289.708 -1.40897 0.706093 0
M  V30 2905 C 290.933 -2.05895 0.249435 0
M  V30 2906 C 291.358 -1.52823 -1.09666 0
M  V30 2907 O 290.716 -0.659589 -1.68876 0
M  V30 2908 C 290.764 -3.59872 0.22904 0
M  V30 2909 O 289.868 -4.04708 -0.792784 0
M  V30 2910 H 289.209 -0.653206 0.119241 0
M  V30 2911 H 291.739 -1.80471 0.96391 0
M  V30 2912 H 291.749 -4.07951 0.0634791 0
M  V30 2913 H 290.424 -3.97866 1.21141 0
M  V30 2914 H 289.001 -3.68111 -0.59572 0
M  V30 2915 N 291.186 -0.45159 -1.50991 0
M  V30 2916 C 292.411 0.110667 -2.07105 0
M  V30 2917 C 292.836 1.3446 -1.31538 0
M  V30 2918 O 292.194 1.77743 -0.357365 0
M  V30 2919 C 292.242 0.397238 -3.58405 0
M  V30 2920 O 291.346 1.48124 -3.84881 0
M  V30 2921 H 290.687 -0.00439271 -0.663985 0
M  V30 2922 H 293.217 -0.637026 -1.9443 0
M  V30 2923 H 293.227 0.64351 -4.02893 0
M  V30 2924 H 291.902 -0.504553 -4.12828 0
M  V30 2925 H 290.479 1.22381 -3.52246 0
M  V30 2926 N 292.664 1.56529 -0.183458 0
M  V30 2927 C 293.594 2.21549 0.737456 0
M  V30 2928 C 294.575 1.17489 1.23005 0
M  V30 2929 O 295.76 1.45959 1.281 0
M  V30 2930 C 292.89 2.86575 1.96194 0
M  V30 2931 C 291.844 3.96778 1.60473 0
M  V30 2932 C 291.17 4.48911 2.90487 0
M  V30 2933 C 292.47 5.15767 0.823497 0
M  V30 2934 H 294.164 2.98761 0.195453 0
M  V30 2935 H 291.71 1.43702 0.0925686 0
M  V30 2936 H 293.663 3.30739 2.61131 0
M  V30 2937 H 292.387 2.06749 2.52828 0
M  V30 2938 H 291.046 3.53286 0.978997 0
M  V30 2939 H 290.694 3.65862 3.45186 0
M  V30 2940 H 290.394 5.23265 2.67335 0
M  V30 2941 H 291.918 4.95771 3.56432 0
M  V30 2942 H 293.332 5.56549 1.37571 0
M  V30 2943 H 291.729 5.96114 0.690551 0
M  V30 2944 H 292.799 4.84574 -0.177782 0
M  V30 2945 N 294.142 -0.090211 1.57342 0
M  V30 2946 C 295.39 -0.791241 1.85967 0
M  V30 2947 C 295.711 -1.7903 0.772859 0
M  V30 2948 O 294.981 -1.94872 -0.200398 0
M  V30 2949 H 293.561 -0.295205 0.686195 0
M  V30 2950 H 296.223 -0.0706782 1.94772 0
M  V30 2951 H 295.319 -1.31882 2.82867 0
M  V30 2952 N 295.62 -1.53406 -0.361157 0
M  V30 2953 C 296.848 -1.73717 -1.12383 0
M  V30 2954 C 297.263 -0.468161 -1.82904 0
M  V30 2955 O 296.62 0.559198 -1.73722 0
M  V30 2956 C 296.671 -2.90558 -2.15078 0
M  V30 2957 O 296.392 -4.12549 -1.47428 0
M  V30 2958 C 297.893 -3.22777 -3.03858 0
M  V30 2959 H 295.113 -0.580896 -0.335858 0
M  V30 2960 H 297.657 -2.00167 -0.418728 0
M  V30 2961 H 295.812 -2.66489 -2.8118 0
M  V30 2962 H 296.226 -4.78009 -2.15887 0
M  V30 2963 H 297.7 -4.07927 -3.71887 0
M  V30 2964 H 298.177 -2.38329 -3.68912 0
M  V30 2965 H 298.783 -3.48787 -2.43367 0
M  V30 2966 N 297.098 0.621204 -1.44841 0
M  V30 2967 C 298.03 1.74615 -1.48466 0
M  V30 2968 C 299.043 1.58377 -0.37691 0
M  V30 2969 O 300.232 1.66508 -0.643215 0
M  V30 2970 C 297.332 3.12459 -1.31236 0
M  V30 2971 C 296.505 3.55064 -2.55438 0
M  V30 2972 C 295.564 4.71821 -2.32963 0
M  V30 2973 O 294.59 4.79628 -3.06505 0
M  V30 2974 N 295.792 5.64186 -1.36654 0
M  V30 2975 H 298.557 1.71973 -2.45449 0
M  V30 2976 H 296.118 0.806077 -1.40407 0
M  V30 2977 H 298.11 3.88302 -1.14032 0
M  V30 2978 H 296.68 3.09686 -0.4258 0
M  V30 2979 H 295.9 2.69324 -2.87851 0
M  V30 2980 H 297.188 3.80284 -3.38026 0
M  V30 2981 H 296.586 5.6058 -0.759344 0
M  V30 2982 H 295.143 6.39618 -1.25425 0
M  V30 2983 N 298.576 1.31904 0.862503 0
M  V30 2984 C 299.804 1.24998 1.64873 0
M  V30 2985 C 300.219 -0.183425 1.87907 0
M  V30 2986 O 299.576 -1.11794 1.44251 0
M  V30 2987 C 299.627 1.99829 3.01248 0
M  V30 2988 O 299.348 3.37575 2.79239 0
M  V30 2989 C 300.849 1.99852 3.95694 0
M  V30 2990 H 298.069 0.431599 0.513773 0
M  V30 2991 H 300.613 1.73901 1.07604 0
M  V30 2992 H 298.768 1.54668 3.55185 0
M  V30 2993 H 299.182 3.75776 3.65914 0
M  V30 2994 H 300.656 2.56709 4.88676 0
M  V30 2995 H 301.133 0.982852 4.28062 0
M  V30 2996 H 301.739 2.44926 3.47694 0
M  V30 2997 N 300.054 -1.07777 1.14986 0
M  V30 2998 C 301.284 -1.83752 0.944402 0
M  V30 2999 C 301.692 -1.8218 -0.51058 0
M  V30 3000 O 301.035 -1.22852 -1.36576 0
M  V30 3001 C 301.097 -3.32128 1.37592 0
M  V30 3002 C 300.761 -3.57425 2.84775 0
M  V30 3003 C 301.758 -3.5173 3.8286 0
M  V30 3004 C 299.443 -3.8523 3.2234 0
M  V30 3005 C 301.437 -3.73482 5.16517 0
M  V30 3006 C 299.124 -4.06634 4.56171 0
M  V30 3007 C 300.122 -4.00754 5.53069 0
M  V30 3008 O 299.81 -4.2159 6.84483 0
M  V30 3009 H 299.542 -0.58673 0.335744 0
M  V30 3010 H 302.096 -1.36982 1.53052 0
M  V30 3011 H 300.326 -3.79686 0.733165 0
M  V30 3012 H 302.015 -3.89555 1.14024 0
M  V30 3013 H 302.781 -3.30256 3.55184 0
M  V30 3014 H 298.66 -3.88923 2.47508 0
M  V30 3015 H 302.204 -3.68808 5.92137 0
M  V30 3016 H 298.101 -4.27593 4.83564 0
M  V30 3017 H 298.869 -4.38961 6.90837 0
M  V30 3018 N 301.532 -0.945985 -1.26051 0
M  V30 3019 C 302.781 -0.591836 -1.92822 0
M  V30 3020 C 303.094 0.873956 -1.7499 0
M  V30 3021 O 304.3 1.33769 -2.36259 0
M  V30 3022 C 302.756 -1.00776 -3.45503 0
M  V30 3023 C 302.364 -2.4955 -3.7206 0
M  V30 3024 C 304.108 -0.725735 -4.1825 0
M  V30 3025 C 302.015 -2.84988 -5.18205 0
M  V30 3026 H 300.945 -0.217635 -0.721908 0
M  V30 3027 H 303.596 -1.14927 -1.43052 0
M  V30 3028 H 301.978 -0.378812 -3.94184 0
M  V30 3029 H 303.152 -3.1739 -3.34066 0
M  V30 3030 H 301.467 -2.75133 -3.12555 0
M  V30 3031 H 304.064 -0.966771 -5.25887 0
M  V30 3032 H 304.407 0.337639 -4.14929 0
M  V30 3033 H 304.94 -1.31463 -3.7545 0
M  V30 3034 H 301.679 -3.90307 -5.26631 0
M  V30 3035 H 301.199 -2.21813 -5.57278 0
M  V30 3036 H 302.878 -2.73712 -5.86252 0
M  V30 3037 N 303.011 1.40521 -0.713556 0
M  V30 3038 C 304.251 2.02783 -0.256584 0
M  V30 3039 C 304.615 1.55352 1.12827 0
M  V30 3040 O 305.816 2.09663 1.68211 0
M  V30 3041 C 304.087 3.5586 -0.331414 0
M  V30 3042 S 305.646 4.38773 0.0488703 0
M  V30 3043 H 302.464 0.703655 -0.101934 0
M  V30 3044 H 305.066 1.71674 -0.935325 0
M  V30 3045 H 303.77 3.87874 -1.34098 0
M  V30 3046 H 303.301 3.91695 0.365873 0
M  V30 3047 H 305.316 4.79633 1.2715 0
M  V30 3048 N 304.489 0.459591 1.5075 0
M  V30 3049 C 305.437 -0.354678 2.2988 0
M  V30 3050 C 306.431 -1.00086 1.36672 0
M  V30 3051 O 307.637 -0.933277 1.53915 0
M  V30 3052 H 304.012 -0.13321 0.740107 0
M  V30 3053 H 305.983 0.333269 2.96533 0
M  V30 3054 C 304.732 -1.43073 3.169 0
M  V30 3055 H 304.055 -0.942882 3.88523 0
M  V30 3056 H 305.495 -1.97328 3.75284 0
M  V30 3057 C 303.954 -2.42633 2.33732 0
M  V30 3058 O 304.484 -3.47658 2.01238 0
M  V30 3059 N 302.69 -2.14066 1.9653 0
M  V30 3060 H 302.237 -1.28685 2.23155 0
M  V30 3061 H 302.195 -2.80917 1.41185 0
M  V30 3062 N 305.967 -1.56429 0.191757 0
M  V30 3063 C 307.213 -1.97777 -0.448554 0
M  V30 3064 C 307.546 -1.07847 -1.61501 0
M  V30 3065 O 306.821 -0.129774 -1.94067 0
M  V30 3066 C 307.104 -3.48362 -0.911906 0
M  V30 3067 C 306.957 -4.4907 0.256136 0
M  V30 3068 C 308.276 -4.02561 -1.77857 0
M  V30 3069 H 305.395 -0.719071 -0.161572 0
M  V30 3070 H 308.037 -1.87896 0.282007 0
M  V30 3071 H 306.187 -3.56914 -1.53442 0
M  V30 3072 H 307.859 -4.5256 0.893733 0
M  V30 3073 H 306.102 -4.24181 0.908436 0
M  V30 3074 H 306.773 -5.51889 -0.11053 0
M  V30 3075 H 309.249 -3.96767 -1.25359 0
M  V30 3076 H 308.125 -5.08301 -2.07174 0
M  V30 3077 H 308.386 -3.47616 -2.73158 0
M  V30 3078 N 307.445 0.0818655 -1.57387 0
M  V30 3079 C 308.393 1.11712 -2.04018 0
M  V30 3080 C 309.387 1.40683 -0.94364 0
M  V30 3081 O 310.593 1.40209 -1.12878 0
M  V30 3082 H 306.968 0.377542 -0.650358 0
M  V30 3083 H 308.939 0.697614 -2.90131 0
M  V30 3084 C 307.688 2.42537 -2.49141 0
M  V30 3085 H 307.011 2.21092 -3.33104 0
M  V30 3086 H 308.451 3.13446 -2.85531 0
M  V30 3087 C 306.91 3.0778 -1.37014 0
M  V30 3088 O 307.44 3.95436 -0.706621 0
M  V30 3089 N 305.646 2.68242 -1.11779 0
M  V30 3090 H 305.193 1.97052 -1.65917 0
M  V30 3091 H 305.151 3.1222 -0.369594 0
M  V30 3092 N 308.923 1.53595 0.353017 0
M  V30 3093 C 309.873 1.77299 1.43349 0
M  V30 3094 C 310.857 0.627884 1.48143 0
M  V30 3095 O 312.049 0.88697 1.53173 0
M  V30 3096 C 309.178 1.97757 2.80619 0
M  V30 3097 C 308.264 3.18305 2.80254 0
M  V30 3098 N 308.655 4.39967 2.49526 0
M  V30 3099 C 306.953 3.19283 3.11407 0
M  V30 3100 C 307.654 5.21772 2.57156 0
M  V30 3101 N 306.63 4.58269 2.92388 0
M  V30 3102 H 310.432 2.68963 1.18474 0
M  V30 3103 H 307.946 1.52391 0.561306 0
M  V30 3104 H 309.943 2.1287 3.58458 0
M  V30 3105 H 308.603 1.07329 3.06448 0
M  V30 3106 H 309.614 4.67482 2.22893 0
M  V30 3107 H 306.291 2.3879 3.4247 0
M  V30 3108 H 307.681 6.2885 2.36638 0
M  V30 3109 N 310.401 -0.613514 1.45168 0
M  V30 3110 C 311.348 -1.72456 1.53387 0
M  V30 3111 C 312.318 -1.6169 0.380191 0
M  V30 3112 O 313.503 -1.81356 0.592836 0
M  V30 3113 C 310.643 -3.10753 1.50088 0
M  V30 3114 C 309.756 -3.32368 2.75963 0
M  V30 3115 C 308.891 -4.60737 2.64376 0
M  V30 3116 C 307.93 -4.7559 3.85332 0
M  V30 3117 N 307.067 -5.95253 3.72315 0
M  V30 3118 H 311.907 -1.64768 2.48305 0
M  V30 3119 H 309.444 -0.803503 1.23216 0
M  V30 3120 H 311.402 -3.90758 1.46164 0
M  V30 3121 H 310.032 -3.17413 0.587243 0
M  V30 3122 H 309.084 -2.4618 2.89999 0
M  V30 3123 H 310.396 -3.39218 3.65695 0
M  V30 3124 H 309.55 -5.48928 2.58385 0
M  V30 3125 H 308.289 -4.56275 1.72233 0
M  V30 3126 H 307.294 -3.85824 3.91688 0
M  V30 3127 H 308.519 -4.81854 4.78533 0
M  V30 3128 H 306.465 -5.91847 2.82937 0
M  V30 3129 H 306.382 -6.03236 4.55677 0
M  V30 3130 H 307.65 -6.85958 3.70246 0
M  V30 3131 N 311.879 -1.3236 -0.855495 0
M  V30 3132 C 313.29 -1.2056 -1.42556 0
M  V30 3133 C 313.641 0.182209 -1.95352 0
M  V30 3134 O 312.766 1.08088 -1.87472 0
M  V30 3135 C 313.361 -2.1826 -2.59129 0
M  V30 3136 C 311.92 -2.10351 -3.12137 0
M  V30 3137 C 311.067 -2.06674 -1.84882 0
M  V30 3138 H 314.018 -1.442 -0.662727 0
M  V30 3139 H 314.039 -1.78064 -3.36264 0
M  V30 3140 H 313.551 -3.19257 -2.20673 0
M  V30 3141 H 311.652 -1.12599 -3.55179 0
M  V30 3142 H 311.765 -3.00135 -3.73438 0
M  V30 3143 H 310.129 -1.51901 -2.04446 0
M  V30 3144 H 310.912 -3.09451 -1.48643 0
M  V30 3145 N 313.357 1.07166 -1.15556 0
M  V30 3146 C 314.582 1.84053 -0.955988 0
M  V30 3147 C 315.007 1.81586 0.490739 0
M  V30 3148 O 314.365 1.21018 1.34997 0
M  V30 3149 C 314.413 3.28957 -1.47714 0
M  V30 3150 O 313.517 4.06795 -0.677593 0
M  V30 3151 H 312.858 0.569842 -0.340847 0
M  V30 3152 H 315.388 1.35178 -1.53584 0
M  V30 3153 H 315.398 3.79788 -1.4908 0
M  V30 3154 H 314.073 3.30068 -2.53037 0
M  V30 3155 H 312.65 3.6561 -0.733721 0
M  V30 3156 N 314.835 0.952656 1.25548 0
M  V30 3157 C 315.783 0.462354 2.27958 0
M  V30 3158 C 316.777 -0.46634 1.62855 0
M  V30 3159 O 317.983 -0.343287 1.76696 0
M  V30 3160 H 314.358 0.13101 0.7405 0
M  V30 3161 H 316.329 1.33839 2.66702 0
M  V30 3162 C 315.078 -0.24628 3.46827 0
M  V30 3163 H 314.401 0.459192 3.97154 0
M  V30 3164 H 315.841 -0.553393 4.20373 0
M  V30 3165 C 314.3 -1.4681 3.0323 0
M  V30 3166 O 314.83 -2.56591 3.09069 0
M  V30 3167 N 313.036 -1.32874 2.58443 0
M  V30 3168 H 312.583 -0.435536 2.53891 0
M  V30 3169 H 312.541 -2.14742 2.29637 0
M  V30 3170 N 316.313 -1.40141 0.720998 0
M  V30 3171 C 317.541 -2.05096 0.272656 0
M  V30 3172 C 317.956 -1.54334 -1.0875 0
M  V30 3173 O 317.313 -0.702211 -1.6845 0
M  V30 3174 C 317.364 -3.60636 0.249835 0
M  V30 3175 O 317.085 -4.09526 1.55629 0
M  V30 3176 C 318.586 -4.42772 -0.216396 0
M  V30 3177 H 315.806 -0.659897 0.121558 0
M  V30 3178 H 318.35 -1.79449 0.980723 0
M  V30 3179 H 316.505 -3.85232 -0.409237 0
M  V30 3180 H 316.919 -5.03758 1.4604 0
M  V30 3181 H 318.393 -5.51702 -0.181212 0
M  V30 3182 H 318.87 -4.20756 -1.25941 0
M  V30 3183 H 319.476 -4.23294 0.412596 0
M  V30 3184 N 317.792 -0.46758 -1.50504 0
M  V30 3185 C 318.739 0.328413 -2.28452 0
M  V30 3186 C 319.709 0.990313 -1.33349 0
M  V30 3187 O 320.894 1.00343 -1.62284 0
M  V30 3188 C 318.034 1.40648 -3.15138 0
M  V30 3189 C 317.147 0.759709 -4.25267 0
M  V30 3190 C 316.282 1.81537 -4.99217 0
M  V30 3191 C 315.321 1.14866 -6.01226 0
M  V30 3192 N 314.458 2.14702 -6.68467 0
M  V30 3193 H 319.298 -0.342603 -2.96024 0
M  V30 3194 H 316.835 -0.180801 -1.45985 0
M  V30 3195 H 318.793 2.04315 -3.63746 0
M  V30 3196 H 317.423 2.04671 -2.49619 0
M  V30 3197 H 316.475 0.0105671 -3.80399 0
M  V30 3198 H 317.787 0.233243 -4.98254 0
M  V30 3199 H 316.941 2.52793 -5.51526 0
M  V30 3200 H 315.68 2.37564 -4.25928 0
M  V30 3201 H 314.685 0.42171 -5.4818 0
M  V30 3202 H 315.91 0.595334 -6.76485 0
M  V30 3203 H 313.856 2.69752 -5.97972 0
M  V30 3204 H 313.773 1.6703 -7.37317 0
M  V30 3205 H 315.041 2.85348 -7.25394 0
M  V30 3206 N 319.27 1.56325 -0.20005 0
M  V30 3207 C 320.516 1.98012 0.438059 0
M  V30 3208 C 320.849 1.08702 1.60927 0
M  V30 3209 O 320.124 0.140064 1.93995 0
M  V30 3210 C 320.407 3.48841 0.893419 0
M  V30 3211 C 320.26 4.48928 -0.279947 0
M  V30 3212 C 321.579 4.03498 1.75719 0
M  V30 3213 H 318.698 0.719918 0.157757 0
M  V30 3214 H 321.34 1.87743 -0.291968 0
M  V30 3215 H 319.49 3.57723 1.51547 0
M  V30 3216 H 321.162 4.52079 -0.91772 0
M  V30 3217 H 319.405 4.23694 -0.930919 0
M  V30 3218 H 320.076 5.5194 0.0812601 0
M  V30 3219 H 322.552 3.97427 1.23253 0
M  V30 3220 H 321.428 5.09393 2.04476 0
M  V30 3221 H 321.689 3.4906 2.71311 0
M  V30 3222 N 320.748 -0.0735177 1.57428 0
M  V30 3223 C 322.025 -0.805903 1.78226 0
M  V30 3224 C 322.405 -1.95874 0.787189 0
M  V30 3225 O 321.753 -2.2779 -0.180029 0
M  V30 3226 C 321.963 -1.28045 3.24662 0
M  V30 3227 C 323.311 -1.71453 3.88444 0
M  V30 3228 O 324.335 -1.37616 3.28543 0
M  V30 3229 O 323.194 -2.34093 4.93825 0
M  V30 3230 H 320.288 -0.386041 0.73137 0
M  V30 3231 H 322.834 -0.0537269 1.69615 0
M  V30 3232 H 321.606 -0.455476 3.8864 0
M  V30 3233 H 321.229 -2.094 3.37991 0
M  V30 3234 N 322.226 -1.5378 -0.344866 0
M  V30 3235 C 323.173 -1.81676 -1.42346 0
M  V30 3236 C 324.143 -0.662376 -1.52321 0
M  V30 3237 O 325.328 -0.906675 -1.67881 0
M  V30 3238 C 322.468 -2.03087 -2.79015 0
M  V30 3239 C 321.581 -3.30799 -2.77842 0
M  V30 3240 C 320.716 -3.42285 -4.0622 0
M  V30 3241 C 319.755 -4.6395 -3.9927 0
M  V30 3242 N 318.892 -4.72477 -5.19336 0
M  V30 3243 H 323.732 -2.73703 -1.17858 0
M  V30 3244 H 321.269 -1.35568 -0.570949 0
M  V30 3245 H 323.227 -2.1349 -3.58438 0
M  V30 3246 H 321.857 -1.14375 -3.01858 0
M  V30 3247 H 320.909 -3.29244 -1.90533 0
M  V30 3248 H 322.221 -4.20314 -2.68584 0
M  V30 3249 H 321.375 -3.52113 -4.94066 0
M  V30 3250 H 320.114 -2.50823 -4.18258 0
M  V30 3251 H 319.119 -4.54201 -3.09809 0
M  V30 3252 H 320.344 -5.56775 -3.88817 0
M  V30 3253 H 318.29 -3.83924 -5.3192 0
M  V30 3254 H 318.207 -5.55927 -5.12329 0
M  V30 3255 H 319.475 -4.86613 -6.08957 0
M  V30 3256 N 323.704 0.605807 -1.45491 0
M  V30 3257 C 324.651 1.7164 -1.54299 0
M  V30 3258 C 325.621 1.61486 -0.388761 0
M  V30 3259 O 326.806 1.81039 -0.602445 0
M  V30 3260 C 323.946 3.09953 -1.51734 0
M  V30 3261 C 323.059 3.309 -2.77721 0
M  V30 3262 C 322.194 4.59329 -2.66816 0
M  V30 3263 C 321.233 4.7354 -3.87848 0
M  V30 3264 N 320.37 5.9327 -3.75467 0
M  V30 3265 H 325.21 1.63449 -2.49176 0
M  V30 3266 H 322.747 0.796957 -1.23641 0
M  V30 3267 H 324.705 3.89977 -1.48235 0
M  V30 3268 H 323.335 3.17098 -0.604068 0
M  V30 3269 H 322.387 2.44639 -2.913 0
M  V30 3270 H 323.699 3.37274 -3.67488 0
M  V30 3271 H 322.853 5.4755 -2.61292 0
M  V30 3272 H 321.592 4.55355 -1.74651 0
M  V30 3273 H 320.597 3.83741 -3.93729 0
M  V30 3274 H 321.822 4.79309 -4.81082 0
M  V30 3275 H 319.768 5.90338 -2.86072 0
M  V30 3276 H 319.685 6.00811 -4.5887 0
M  V30 3277 H 320.953 6.83984 -3.73879 0
M  V30 3278 N 325.182 1.32811 0.848464 0
M  V30 3279 C 326.428 1.23907 1.60546 0
M  V30 3280 C 326.761 -0.197161 1.93197 0
M  V30 3281 O 326.036 -1.13596 1.5788 0
M  V30 3282 C 326.319 2.10489 2.92175 0
M  V30 3283 C 326.172 3.62522 2.66266 0
M  V30 3284 C 327.491 1.97075 3.93509 0
M  V30 3285 H 324.61 0.451459 0.58254 0
M  V30 3286 H 327.252 1.62818 0.979296 0
M  V30 3287 H 325.402 1.77434 3.45614 0
M  V30 3288 H 327.074 4.05821 2.19334 0
M  V30 3289 H 325.317 3.84879 2.00126 0
M  V30 3290 H 325.988 4.18437 3.6002 0
M  V30 3291 H 328.464 2.26045 3.49346 0
M  V30 3292 H 327.34 2.59923 4.83457 0
M  V30 3293 H 327.601 0.940186 4.31987 0
M  V30 3294 N 326.66 -1.06551 1.16123 0
M  V30 3295 C 327.57 -2.17484 0.879662 0
M  V30 3296 C 328.586 -1.73377 -0.147104 0
M  V30 3297 O 329.762 -2.01379 0.0289128 0
M  V30 3298 C 326.827 -3.44591 0.381829 0
M  V30 3299 C 325.888 -4.0322 1.4735 0
M  V30 3300 C 325.121 -5.24261 0.999324 0
M  V30 3301 O 325.344 -5.70198 -0.151957 0
M  V30 3302 O 324.278 -5.74775 1.78653 0
M  V30 3303 H 328.104 -2.44075 1.80724 0
M  V30 3304 H 325.689 -1.16042 0.940992 0
M  V30 3305 H 327.571 -4.21254 0.111053 0
M  V30 3306 H 326.246 -3.19532 -0.51777 0
M  V30 3307 H 325.153 -3.2806 1.79798 0
M  V30 3308 H 326.486 -4.32568 2.34831 0
M  V30 3309 N 328.138 -0.959301 -1.25041 0
M  V30 3310 C 329.549 -0.65667 -1.74771 0
M  V30 3311 C 329.9 0.827852 -1.77879 0
M  V30 3312 O 329.025 1.64783 -1.40269 0
M  V30 3313 C 329.62 -1.1853 -3.1739 0
M  V30 3314 C 328.179 -0.932734 -3.6466 0
M  V30 3315 C 327.326 -1.32558 -2.43564 0
M  V30 3316 H 330.277 -1.13558 -1.10862 0
M  V30 3317 H 330.298 -0.547582 -3.76539 0
M  V30 3318 H 329.81 -2.26576 -3.15095 0
M  V30 3319 H 327.911 0.13257 -3.72364 0
M  V30 3320 H 328.024 -1.57248 -4.52559 0
M  V30 3321 H 326.388 -0.743956 -2.43593 0
M  V30 3322 H 327.171 -2.41537 -2.43957 0
M  V30 3323 N 329.616 1.39756 -0.72842 0
M  V30 3324 C 330.563 2.30647 -0.0841519 0
M  V30 3325 C 331.533 1.48869 0.7367 0
M  V30 3326 O 332.718 1.77574 0.698015 0
M  V30 3327 C 329.858 3.35165 0.822091 0
M  V30 3328 C 328.971 4.31999 -0.0106663 0
M  V30 3329 C 328.106 5.23585 0.896241 0
M  V30 3330 C 327.145 6.12072 0.0583381 0
M  V30 3331 N 326.282 6.96035 0.920818 0
M  V30 3332 H 331.122 2.85173 -0.864891 0
M  V30 3333 H 328.659 1.40422 -0.438179 0
M  V30 3334 H 330.617 3.94345 1.36189 0
M  V30 3335 H 329.247 2.8211 1.56888 0
M  V30 3336 H 328.299 3.74492 -0.66781 0
M  V30 3337 H 329.611 4.9443 -0.658825 0
M  V30 3338 H 328.765 5.87759 1.50412 0
M  V30 3339 H 327.504 4.61459 1.57819 0
M  V30 3340 H 326.509 5.46916 -0.562389 0
M  V30 3341 H 327.734 6.76261 -0.6203 0
M  V30 3342 H 325.68 6.36485 1.58818 0
M  V30 3343 H 325.597 7.55284 0.32899 0
M  V30 3344 H 326.865 7.64646 1.51447 0
M  V30 3345 N 331.094 0.475555 1.50254 0
M  V30 3346 C 332.319 -0.0777042 2.07254 0
M  V30 3347 C 332.744 -1.3235 1.3366 0
M  V30 3348 O 332.102 -1.77152 0.385597 0
M  V30 3349 C 332.15 -0.340169 3.58992 0
M  V30 3350 O 331.254 -1.41982 3.87188 0
M  V30 3351 H 330.595 0.0149556 0.663832 0
M  V30 3352 H 333.125 0.667878 1.93392 0
M  V30 3353 H 333.135 -0.579332 4.03866 0
M  V30 3354 H 331.81 0.570167 4.11973 0
M  V30 3355 H 330.387 -1.16762 3.54148 0
M  V30 3356 N 332.573 -1.56217 0.208337 0
M  V30 3357 C 333.813 -1.99849 -0.428927 0
M  V30 3358 C 334.177 -1.09262 -1.57879 0
M  V30 3359 O 335.378 -1.42185 -2.28116 0
M  V30 3360 C 333.649 -3.46777 -0.864879 0
M  V30 3361 S 335.208 -4.12434 -1.49811 0
M  V30 3362 H 332.026 -0.697742 -0.136665 0
M  V30 3363 H 334.628 -1.92953 0.314519 0
M  V30 3364 H 333.332 -4.10396 -0.0181326 0
M  V30 3365 H 332.863 -3.57518 -1.64147 0
M  V30 3366 H 334.878 -4.10532 -2.78707 0
M  V30 3367 N 334.051 0.0651679 -1.57465 0
M  V30 3368 C 335.328 0.79644 -1.78651 0
M  V30 3369 C 335.708 1.95454 -0.797566 0
M  V30 3370 O 335.056 2.27882 0.167946 0
M  V30 3371 C 335.266 1.26322 -3.25337 0
M  V30 3372 C 336.614 1.6939 -3.89348 0
M  V30 3373 O 337.638 1.35872 -3.29268 0
M  V30 3374 O 336.497 2.31471 -4.95059 0
M  V30 3375 H 333.591 0.382157 -0.733407 0
M  V30 3376 H 336.137 0.0447311 -1.69641 0
M  V30 3377 H 334.909 0.434859 -3.88876 0
M  V30 3378 H 334.532 2.07604 -3.39096 0
M  V30 3379 N 335.529 1.53961 0.336706 0
M  V30 3380 C 336.476 1.82428 1.41381 0
M  V30 3381 C 337.446 0.670444 1.51968 0
M  V30 3382 O 338.631 0.915565 1.67398 0
M  V30 3383 C 335.771 2.04564 2.77934 0
M  V30 3384 C 334.884 3.32267 2.76084 0
M  V30 3385 C 334.019 3.44434 4.04399 0
M  V30 3386 C 333.058 4.66061 3.96804 0
M  V30 3387 N 332.195 4.75224 5.16823 0
M  V30 3388 H 337.035 2.74324 1.16405 0
M  V30 3389 H 334.572 1.35869 0.563752 0
M  V30 3390 H 336.53 2.15388 3.57301 0
M  V30 3391 H 335.16 1.15974 3.01247 0
M  V30 3392 H 334.212 3.3025 1.88784 0
M  V30 3393 H 335.524 4.21733 2.66351 0
M  V30 3394 H 334.678 3.54728 4.92192 0
M  V30 3395 H 333.417 2.53037 4.16921 0
M  V30 3396 H 332.422 4.55838 3.07396 0
M  V30 3397 H 333.647 5.58829 3.85858 0
M  V30 3398 H 331.593 3.86739 5.29876 0
M  V30 3399 H 331.51 5.58636 5.09374 0
M  V30 3400 H 332.778 4.89835 6.06367 0
M  V30 3401 N 337.007 -0.598083 1.45811 0
M  V30 3402 C 338.235 -1.38322 1.53866 0
M  V30 3403 C 338.65 -1.87992 0.174479 0
M  V30 3404 O 338.007 -1.62756 -0.825627 0
M  V30 3405 C 338.058 -2.58125 2.53089 0
M  V30 3406 O 337.779 -2.10516 3.84206 0
M  V30 3407 C 339.28 -3.50869 2.70935 0
M  V30 3408 H 336.5 -0.423093 0.520801 0
M  V30 3409 H 339.044 -0.728527 1.91083 0
M  V30 3410 H 337.199 -3.19615 2.18917 0
M  V30 3411 H 337.613 -2.88425 4.38077 0
M  V30 3412 H 339.087 -4.31451 3.44317 0
M  V30 3413 H 339.564 -4.01822 1.77301 0
M  V30 3414 H 340.17 -2.95225 3.06141 0
M  V30 3415 N 338.485 -1.33259 -0.841409 0
M  V30 3416 C 339.435 -1.19872 -1.93945 0
M  V30 3417 C 340.419 -0.102269 -1.60575 0
M  V30 3418 O 341.611 -0.330114 -1.73894 0
M  V30 3419 C 338.74 -0.937517 -3.30251 0
M  V30 3420 C 337.826 -2.07629 -3.69799 0
M  V30 3421 N 338.217 -3.32604 -3.81062 0
M  V30 3422 C 336.515 -1.98242 -3.9952 0
M  V30 3423 C 337.216 -4.07275 -4.15333 0
M  V30 3424 N 336.192 -3.35691 -4.27566 0
M  V30 3425 H 339.994 -2.14604 -2.00805 0
M  V30 3426 H 337.508 -1.2523 -1.03398 0
M  V30 3427 H 339.505 -0.822545 -4.08705 0
M  V30 3428 H 338.165 0.00128798 -3.247 0
M  V30 3429 H 339.176 -3.67382 -3.65035 0
M  V30 3430 H 335.853 -1.12005 -4.02195 0
M  V30 3431 H 337.243 -5.1511 -4.31406 0
M  V30 3432 N 339.963 1.05934 -1.16686 0
M  V30 3433 C 341.191 1.8249 -0.974929 0
M  V30 3434 C 341.606 1.82679 0.476861 0
M  V30 3435 O 340.963 1.2486 1.33103 0
M  V30 3436 C 341.014 3.28943 -1.49929 0
M  V30 3437 O 340.735 3.28886 -2.89423 0
M  V30 3438 C 342.236 4.22215 -1.35089 0
M  V30 3439 H 339.456 0.575295 -0.345365 0
M  V30 3440 H 342 1.33631 -1.548 0
M  V30 3441 H 340.155 3.751 -0.968423 0
M  V30 3442 H 340.569 4.20493 -3.13506 0
M  V30 3443 H 342.043 5.22987 -1.76603 0
M  V30 3444 H 342.52 4.38195 -0.296935 0
M  V30 3445 H 343.126 3.81907 -1.87155 0
M  V30 3446 N 341.441 0.965919 1.2453 0
M  V30 3447 C 342.681 0.634656 1.94297 0
M  V30 3448 C 343.045 -0.814822 1.73852 0
M  V30 3449 O 344.246 -1.25622 2.3764 0
M  V30 3450 C 342.517 0.99702 3.43212 0
M  V30 3451 S 344.076 0.780038 4.31811 0
M  V30 3452 H 340.894 0.232893 0.671775 0
M  V30 3453 H 343.496 1.24249 1.50938 0
M  V30 3454 H 342.2 2.04886 3.55598 0
M  V30 3455 H 341.731 0.379888 3.91562 0
M  V30 3456 H 343.746 -0.343512 4.9501 0
M  V30 3457 N 342.919 -1.39368 0.735821 0
M  V30 3458 C 344.33 -1.83313 0.354015 0
M  V30 3459 C 344.681 -1.61461 -1.11466 0
M  V30 3460 O 343.806 -1.10621 -1.85989 0
M  V30 3461 C 344.401 -3.32781 0.635769 0
M  V30 3462 C 342.96 -3.75142 0.307448 0
M  V30 3463 C 342.107 -2.62358 0.897974 0
M  V30 3464 H 345.058 -1.28349 0.933398 0
M  V30 3465 H 345.079 -3.80388 -0.0921773 0
M  V30 3466 H 344.591 -3.48654 1.70476 0
M  V30 3467 H 342.692 -3.64857 -0.755674 0
M  V30 3468 H 342.805 -4.72532 0.790583 0
M  V30 3469 H 341.169 -2.52624 0.324551 0
M  V30 3470 H 341.952 -2.81036 1.97164 0
M  V30 3471 N 344.397 -0.483516 -1.5 0
M  V30 3472 C 345.808 -0.0314176 -1.86674 0
M  V30 3473 C 346.159 1.37728 -1.39733 0
M  V30 3474 O 345.284 2.02327 -0.767635 0
M  V30 3475 C 345.879 -0.0502376 -3.38763 0
M  V30 3476 C 344.438 0.346442 -3.74802 0
M  V30 3477 C 343.585 -0.430366 -2.7394 0
M  V30 3478 H 346.536 -0.697182 -1.42566 0
M  V30 3479 H 346.557 0.749116 -3.73053 0
M  V30 3480 H 346.069 -1.07563 -3.72897 0
M  V30 3481 H 344.17 1.37572 -3.46273 0
M  V30 3482 H 344.283 0.0391486 -4.79084 0
M  V30 3483 H 342.647 0.117557 -2.54429 0
M  V30 3484 H 343.43 -1.4555 -3.10918 0
M  V30 3485 N 345.875 1.56104 -0.216619 0
M  V30 3486 C 347.115 2.00074 0.418322 0
M  V30 3487 C 347.479 1.10098 1.57297 0
M  V30 3488 O 348.68 1.43393 2.27359 0
M  V30 3489 C 346.951 3.47231 0.846477 0
M  V30 3490 S 348.51 4.13223 1.47622 0
M  V30 3491 H 345.328 0.698457 0.132962 0
M  V30 3492 H 347.93 1.92784 -0.324748 0
M  V30 3493 H 346.634 4.104 -0.0036319 0
M  V30 3494 H 346.165 3.58384 1.62248 0
M  V30 3495 H 348.18 4.12005 2.76526 0
M  V30 3496 N 347.353 -0.0568162 1.57498 0
M  V30 3497 C 348.764 -0.606858 1.76562 0
M  V30 3498 C 349.115 -1.77114 0.844094 0
M  V30 3499 O 348.24 -2.16376 0.0318911 0
M  V30 3500 C 348.835 -1.10766 3.20182 0
M  V30 3501 C 347.394 -1.60344 3.40539 0
M  V30 3502 C 346.541 -0.529311 2.72201 0
M  V30 3503 H 349.492 0.169393 1.57793 0
M  V30 3504 H 349.513 -1.97602 3.25167 0
M  V30 3505 H 349.025 -0.26006 3.87228 0
M  V30 3506 H 347.126 -2.47379 2.78629 0
M  V30 3507 H 347.239 -1.67006 4.4905 0
M  V30 3508 H 345.603 -0.977893 2.35179 0
M  V30 3509 H 346.386 0.308352 3.41912 0
M  V30 3510 N 348.832 -1.54138 -0.328536 0
M  V30 3511 C 349.795 -1.82462 -1.38709 0
M  V30 3512 C 350.795 -0.696229 -1.44946 0
M  V30 3513 O 351.985 -0.964535 -1.4506 0
M  V30 3514 C 349.117 -1.98018 -2.77492 0
M  V30 3515 H 350.31 -2.77037 -1.14851 0
M  V30 3516 H 347.863 -1.45779 -0.563751 0
M  V30 3517 H 348.598 -1.05637 -3.06613 0
M  V30 3518 H 348.383 -2.80124 -2.74359 0
M  V30 3519 H 349.873 -2.21396 -3.54081 0
M  V30 3520 N 350.31 0.590341 -1.46126 0
M  V30 3521 C 351.721 1.17243 -1.45296 0
M  V30 3522 C 352.072 1.95281 -0.189723 0
M  V30 3523 O 351.197 2.04502 0.707674 0
M  V30 3524 C 351.792 2.13284 -2.6324 0
M  V30 3525 C 350.351 2.66832 -2.65476 0
M  V30 3526 C 349.498 1.42557 -2.3785 0
M  V30 3527 H 352.449 0.378692 -1.54116 0
M  V30 3528 H 352.47 2.96619 -2.38323 0
M  V30 3529 H 351.982 1.56459 -3.55165 0
M  V30 3530 H 350.083 3.27548 -1.77603 0
M  V30 3531 H 350.196 3.10088 -3.65215 0
M  V30 3532 H 348.56 1.72107 -1.87753 0
M  V30 3533 H 349.343 0.875741 -3.31942 0
M  V30 3534 N 351.788 1.33704 0.83433 0
M  V30 3535 C 352.698 1.26382 1.97648 0
M  V30 3536 C 353.714 0.173548 1.73132 0
M  V30 3537 O 354.89 0.397962 1.97429 0
M  V30 3538 C 351.955 1.00769 3.31733 0
M  V30 3539 C 351.016 2.1884 3.69334 0
M  V30 3540 C 350.249 1.9444 4.9702 0
M  V30 3541 O 350.472 0.896961 5.63303 0
M  V30 3542 O 349.406 2.81093 5.32231 0
M  V30 3543 H 353.232 2.22444 2.06767 0
M  V30 3544 H 350.817 1.13795 0.968037 0
M  V30 3545 H 352.699 0.882186 4.12062 0
M  V30 3546 H 351.374 0.0773783 3.23608 0
M  V30 3547 H 350.281 2.36946 2.89495 0
M  V30 3548 H 351.614 3.10221 3.82131 0
M  V30 3549 N 353.266 -1.05314 1.17247 0
M  V30 3550 C 354.196 -2.1498 0.911362 0
M  V30 3551 C 355.177 -1.69471 -0.146169 0
M  V30 3552 O 356.362 -1.942 0.003812 0
M  V30 3553 C 353.492 -3.4472 0.422528 0
M  V30 3554 C 352.446 -4.03789 1.4191 0
M  V30 3555 C 351.772 -5.28858 0.788274 0
M  V30 3556 C 353.072 -4.41418 2.7919 0
M  V30 3557 H 354.766 -2.3708 1.82848 0
M  V30 3558 H 352.312 -1.13938 0.880569 0
M  V30 3559 H 354.265 -4.20787 0.227289 0
M  V30 3560 H 352.989 -3.22269 -0.530123 0
M  V30 3561 H 351.648 -3.2979 1.60106 0
M  V30 3562 H 351.296 -5.02709 -0.171173 0
M  V30 3563 H 350.996 -5.69338 1.45353 0
M  V30 3564 H 352.52 -6.07612 0.603282 0
M  V30 3565 H 353.934 -5.08524 2.64719 0
M  V30 3566 H 352.331 -4.92913 3.42282 0
M  V30 3567 H 353.401 -3.51819 3.33693 0
M  V30 3568 N 354.744 -0.972509 -1.24016 0
M  V30 3569 C 355.674 -0.525548 -2.27509 0
M  V30 3570 C 356.655 0.437262 -1.64384 0
M  V30 3571 O 357.84 0.332343 -1.91335 0
M  V30 3572 C 354.97 0.180448 -3.46831 0
M  V30 3573 C 353.924 -0.698859 -4.22256 0
M  V30 3574 C 353.25 0.138903 -5.3452 0
M  V30 3575 C 354.55 -1.98582 -4.83076 0
M  V30 3576 H 356.244 -1.39058 -2.65148 0
M  V30 3577 H 353.79 -0.67009 -1.27459 0
M  V30 3578 H 355.743 0.504387 -4.18371 0
M  V30 3579 H 354.467 1.07987 -3.08231 0
M  V30 3580 H 353.126 -1.00614 -3.52523 0
M  V30 3581 H 352.774 1.03862 -4.9216 0
M  V30 3582 H 352.474 -0.446259 -5.85903 0
M  V30 3583 H 353.998 0.457404 -6.08884 0
M  V30 3584 H 355.412 -1.72715 -5.46665 0
M  V30 3585 H 353.809 -2.5181 -5.44713 0
M  V30 3586 H 354.879 -2.67769 -4.04262 0
M  V30 3587 N 356.222 1.38976 -0.743202 0
M  V30 3588 C 357.47 1.99948 -0.29417 0
M  V30 3589 C 357.791 1.59279 1.12495 0
M  V30 3590 O 357.061 0.844808 1.76748 0
M  V30 3591 H 355.641 0.739473 -0.105774 0
M  V30 3592 H 358.303 1.699 -0.954986 0
M  V30 3593 H 357.399 3.10142 -0.349056 0
M  V30 3594 N 357.7 0.491464 1.49741 0
M  V30 3595 C 358.948 -0.0563141 2.02022 0
M  V30 3596 C 359.269 -1.38363 1.37407 0
M  V30 3597 O 358.539 -1.88702 0.526166 0
M  V30 3598 H 357.119 -0.0238014 0.746621 0
M  V30 3599 H 359.781 0.646533 1.83864 0
M  V30 3600 H 358.877 -0.192967 3.11503 0
M  V30 3601 N 359.178 -1.55987 0.224894 0
M  V30 3602 C 360.589 -1.84553 -0.282345 0
M  V30 3603 C 360.94 -1.14634 -1.59227 0
M  V30 3604 O 360.065 -0.417155 -2.12341 0
M  V30 3605 C 360.66 -3.348 -0.519062 0
M  V30 3606 C 359.219 -3.63671 -0.970604 0
M  V30 3607 C 358.366 -2.77277 -0.0355261 0
M  V30 3608 H 361.317 -1.52245 0.448006 0
M  V30 3609 H 361.338 -3.55187 -1.36463 0
M  V30 3610 H 360.85 -3.8566 0.43449 0
M  V30 3611 H 358.951 -3.1827 -1.9374 0
M  V30 3612 H 359.064 -4.71631 -0.842698 0
M  V30 3613 H 357.428 -2.48846 -0.542927 0
M  V30 3614 H 358.211 -3.30937 0.913003 0
M  V30 3615 N 360.656 0.0484629 -1.57525 0
M  V30 3616 C 361.881 0.759177 -1.93006 0
M  V30 3617 C 362.306 1.69125 -0.823317 0
M  V30 3618 O 361.664 1.79931 0.222364 0
M  V30 3619 C 361.712 1.50899 -3.27509 0
M  V30 3620 O 360.816 2.62112 -3.18388 0
M  V30 3621 H 360.157 0.205564 -0.631379 0
M  V30 3622 H 362.687 0.00972959 -2.04598 0
M  V30 3623 H 362.697 1.88317 -3.6194 0
M  V30 3624 H 361.372 0.825269 -4.0763 0
M  V30 3625 H 359.949 2.27379 -2.95556 0
M  V30 3626 N 362.134 1.5431 0.320358 0
M  V30 3627 C 363.38 1.72924 1.05949 0
M  V30 3628 C 363.713 0.503185 1.87568 0
M  V30 3629 O 362.988 -0.499839 1.87968 0
M  V30 3630 C 363.271 3.00676 1.98156 0
M  V30 3631 C 363.124 4.3354 1.19845 0
M  V30 3632 C 364.443 3.24198 2.9763 0
M  V30 3633 H 361.562 0.629195 0.383774 0
M  V30 3634 H 364.204 1.87008 0.335854 0
M  V30 3635 H 362.354 2.888 2.59859 0
M  V30 3636 H 364.026 4.57305 0.605773 0
M  V30 3637 H 362.269 4.309 0.500784 0
M  V30 3638 H 362.94 5.19156 1.87567 0
M  V30 3639 H 365.416 3.35557 2.4605 0
M  V30 3640 H 364.292 4.14938 3.59329 0
M  V30 3641 H 364.553 2.41577 3.7026 0
M  V30 3642 N 363.613 -0.582584 1.46437 0
M  V30 3643 C 364.86 -1.34079 1.51753 0
M  V30 3644 C 365.188 -1.93762 0.169299 0
M  V30 3645 O 364.443 -1.76989 -0.835062 0
M  V30 3646 C 364.742 -2.48964 2.56421 0
M  V30 3647 C 364.408 -2.07273 4.00436 0
M  V30 3648 C 363.07 -1.95618 4.39644 0
M  V30 3649 C 365.422 -1.75111 4.90903 0
M  V30 3650 C 362.75 -1.5006 5.67185 0
M  V30 3651 C 365.102 -1.31032 6.18881 0
M  V30 3652 C 363.766 -1.17954 6.56996 0
M  V30 3653 H 363.036 -0.49063 0.555304 0
M  V30 3654 H 365.683 -0.656007 1.79913 0
M  V30 3655 H 363.988 -3.22889 2.21923 0
M  V30 3656 H 365.685 -3.07178 2.57765 0
M  V30 3657 H 362.275 -2.17279 3.69443 0
M  V30 3658 H 366.459 -1.83001 4.61329 0
M  V30 3659 H 361.715 -1.38577 5.95488 0
M  V30 3660 H 365.889 -1.052 6.88408 0
M  V30 3661 H 363.516 -0.824279 7.55718 0
M  V30 3662 N 365.091 -1.34144 -0.827227 0
M  V30 3663 C 366.021 -1.28005 -1.95287 0
M  V30 3664 C 367.002 -0.158321 -1.69362 0
M  V30 3665 O 368.187 -0.349987 -1.9102 0
M  V30 3666 C 365.317 -1.03036 -3.31664 0
M  V30 3667 C 364.271 -2.11628 -3.72019 0
M  V30 3668 C 363.597 -1.71854 -5.0633 0
M  V30 3669 C 364.897 -3.53417 -3.8457 0
M  V30 3670 H 366.591 -2.22187 -2.00682 0
M  V30 3671 H 364.137 -1.0696 -0.964135 0
M  V30 3672 H 366.09 -0.973863 -4.09993 0
M  V30 3673 H 364.814 -0.0529391 -3.26557 0
M  V30 3674 H 363.473 -2.16339 -2.95961 0
M  V30 3675 H 363.121 -0.727841 -4.97706 0
M  V30 3676 H 362.821 -2.44531 -5.34302 0
M  V30 3677 H 364.345 -1.67692 -5.87122 0
M  V30 3678 H 365.759 -3.51142 -4.5318 0
M  V30 3679 H 364.156 -4.24679 -4.2399 0
M  V30 3680 H 365.226 -3.91072 -2.86689 0
M  V30 3681 N 366.569 1.04691 -1.17803 0
M  V30 3682 C 367.816 1.77782 -0.969532 0
M  V30 3683 C 368.144 1.87926 0.501401 0
M  V30 3684 O 367.399 1.37918 1.38842 0
M  V30 3685 C 367.698 3.21467 -1.56186 0
M  V30 3686 C 367.364 3.3137 -3.05786 0
M  V30 3687 C 366.026 3.3378 -3.46619 0
M  V30 3688 C 368.378 3.31976 -4.01797 0
M  V30 3689 C 365.706 3.34431 -4.82051 0
M  V30 3690 C 368.058 3.34167 -5.37136 0
M  V30 3691 C 366.722 3.34866 -5.77426 0
M  V30 3692 H 365.992 0.650549 -0.354777 0
M  V30 3693 H 368.639 1.23006 -1.46772 0
M  V30 3694 H 366.944 3.79203 -0.985515 0
M  V30 3695 H 368.641 3.76652 -1.37602 0
M  V30 3696 H 365.231 3.3021 -2.73238 0
M  V30 3697 H 369.415 3.29311 -3.71306 0
M  V30 3698 H 364.671 3.33285 -5.12573 0
M  V30 3699 H 368.845 3.33585 -6.11305 0
M  V30 3700 H 366.472 3.35124 -6.82346 0
M  V30 3701 N 368.047 0.979072 1.23499 0
M  V30 3702 C 369.458 0.684391 1.73704 0
M  V30 3703 C 369.809 -0.799448 1.79174 0
M  V30 3704 O 368.934 -1.62531 1.42873 0
M  V30 3705 C 369.529 1.23564 3.15464 0
M  V30 3706 C 368.088 0.99063 3.6313 0
M  V30 3707 C 367.235 1.36416 2.41425 0
M  V30 3708 H 370.186 1.15307 1.09041 0
M  V30 3709 H 370.207 0.607417 3.7562 0
M  V30 3710 H 369.719 2.31561 3.1145 0
M  V30 3711 H 367.82 -0.0733136 3.72528 0
M  V30 3712 H 367.933 1.64427 4.5 0
M  V30 3713 H 366.297 0.782616 2.42378 0
M  V30 3714 H 367.08 2.45387 2.40083 0
M  V30 3715 N 369.525 -1.3858 0.750561 0
M  V30 3716 C 370.936 -1.82927 0.373438 0
M  V30 3717 C 371.287 -1.62634 -1.09748 0
M  V30 3718 O 370.412 -1.12588 -1.84805 0
M  V30 3719 C 371.007 -3.32088 0.671029 0
M  V30 3720 C 369.566 -3.74795 0.34722 0
M  V30 3721 C 368.713 -2.61391 0.92575 0
M  V30 3722 H 371.664 -1.27351 0.946958 0
M  V30 3723 H 371.685 -3.80465 -0.0518269 0
M  V30 3724 H 371.197 -3.46826 1.74164 0
M  V30 3725 H 369.298 -3.65638 -0.716933 0
M  V30 3726 H 369.411 -4.71667 0.840656 0
M  V30 3727 H 367.775 -2.52265 0.351327 0
M  V30 3728 H 368.558 -2.78929 2.00133 0
M  V30 3729 N 371.003 -0.499398 -1.49478 0
M  V30 3730 C 371.95 0.279881 -2.29097 0
M  V30 3731 C 372.92 0.961805 -1.3542 0
M  V30 3732 O 374.105 0.968777 -1.64376 0
M  V30 3733 C 371.245 1.33932 -3.18051 0
M  V30 3734 C 370.358 0.669333 -4.26783 0
M  V30 3735 C 369.493 1.70907 -5.02955 0
M  V30 3736 C 368.532 1.02087 -6.03527 0
M  V30 3737 N 367.669 2.00474 -6.7287 0
M  V30 3738 H 372.509 -0.405317 -2.95231 0
M  V30 3739 H 370.046 -0.211726 -1.45568 0
M  V30 3740 H 372.004 1.96553 -3.67998 0
M  V30 3741 H 370.634 1.9933 -2.53904 0
M  V30 3742 H 369.686 -0.0701234 -3.80335 0
M  V30 3743 H 370.998 0.127503 -4.98637 0
M  V30 3744 H 370.152 2.41037 -5.56764 0
M  V30 3745 H 368.891 2.28476 -4.30871 0
M  V30 3746 H 367.896 0.305338 -5.48951 0
M  V30 3747 H 369.121 0.451708 -6.77596 0
M  V30 3748 H 367.067 2.57007 -6.03559 0
M  V30 3749 H 366.984 1.51353 -7.40694 0
M  V30 3750 H 368.252 2.69897 -7.31284 0
M  V30 3751 N 372.481 1.55866 -0.233164 0
M  V30 3752 C 373.892 1.847 0.272554 0
M  V30 3753 C 374.243 1.15477 1.58617 0
M  V30 3754 O 373.368 0.42841 2.12117 0
M  V30 3755 C 373.963 3.35071 0.501299 0
M  V30 3756 C 372.522 3.6418 0.951304 0
M  V30 3757 C 371.669 2.77292 0.0208209 0
M  V30 3758 H 374.62 1.52005 -0.456074 0
M  V30 3759 H 374.641 3.55906 1.34577 0
M  V30 3760 H 374.153 3.85424 -0.454936 0
M  V30 3761 H 372.254 3.19293 1.92049 0
M  V30 3762 H 372.367 4.72071 0.817675 0
M  V30 3763 H 370.731 2.49131 0.529723 0
M  V30 3764 H 371.514 3.30448 -0.93054 0
M  V30 3765 N 373.959 -0.0401083 1.57549 0
M  V30 3766 C 374.906 -1.04413 2.05831 0
M  V30 3767 C 375.876 -1.36585 0.945184 0
M  V30 3768 O 377.061 -1.47112 1.21502 0
M  V30 3769 C 374.201 -2.34336 2.53339 0
M  V30 3770 C 373.314 -2.08419 3.78398 0
M  V30 3771 C 372.449 -3.32133 4.14561 0
M  V30 3772 C 371.488 -3.01721 5.3257 0
M  V30 3773 N 370.625 -4.17855 5.64218 0
M  V30 3774 H 375.465 -0.625442 2.91363 0
M  V30 3775 H 373.002 -0.297218 1.44066 0
M  V30 3776 H 374.96 -3.10234 2.78946 0
M  V30 3777 H 373.59 -2.73948 1.7074 0
M  V30 3778 H 372.642 -1.23069 3.59942 0
M  V30 3779 H 373.954 -1.81978 4.64419 0
M  V30 3780 H 373.108 -4.16406 4.41238 0
M  V30 3781 H 371.847 -3.61678 3.2717 0
M  V30 3782 H 370.852 -2.15849 5.05657 0
M  V30 3783 H 372.077 -2.73466 6.21605 0
M  V30 3784 H 370.023 -4.47372 4.79786 0
M  V30 3785 H 369.94 -3.94798 6.44725 0
M  V30 3786 H 371.208 -5.03033 5.95465 0
M  V30 3787 N 375.437 -1.54477 -0.31217 0
M  V30 3788 C 376.714 -1.63891 -1.06767 0
M  V30 3789 C 377.094 -0.480028 -2.0557 0
M  V30 3790 O 376.442 0.524487 -2.22399 0
M  V30 3791 C 376.652 -3.01402 -1.75948 0
M  V30 3792 C 378 -3.57838 -2.28554 0
M  V30 3793 O 379.024 -3.03782 -1.85998 0
M  V30 3794 O 377.883 -4.52462 -3.06497 0
M  V30 3795 H 374.977 -0.664125 -0.492816 0
M  V30 3796 H 377.523 -1.66823 -0.311149 0
M  V30 3797 H 376.295 -3.77187 -1.04144 0
M  V30 3798 H 375.918 -3.02199 -2.58383 0
M  V30 3799 N 376.915 0.57481 -1.46744 0
M  V30 3800 C 378.143 1.35856 -1.56047 0
M  V30 3801 C 378.558 1.87691 -0.204365 0
M  V30 3802 O 377.915 1.64049 0.79963 0
M  V30 3803 C 377.966 2.54066 -2.57163 0
M  V30 3804 O 377.687 2.04377 -3.87507 0
M  V30 3805 C 379.188 3.46514 -2.76483 0
M  V30 3806 H 376.408 0.414754 -0.527466 0
M  V30 3807 H 378.952 0.698035 -1.92218 0
M  V30 3808 H 377.107 3.16092 -2.23974 0
M  V30 3809 H 377.521 2.81419 -4.4261 0
M  V30 3810 H 378.995 4.25919 -3.51137 0
M  V30 3811 H 379.472 3.98951 -1.83671 0
M  V30 3812 H 380.078 2.90318 -3.10799 0
M  V30 3813 N 378.394 1.34581 0.820102 0
M  V30 3814 C 379.324 1.29038 1.94606 0
M  V30 3815 C 380.305 0.1673 1.69275 0
M  V30 3816 O 381.49 0.360112 1.90832 0
M  V30 3817 C 378.62 1.04793 3.31113 0
M  V30 3818 C 377.574 2.13597 3.70891 0
M  V30 3819 C 376.9 1.74537 5.05412 0
M  V30 3820 C 378.2 3.55451 3.8269 0
M  V30 3821 H 379.894 2.23248 1.99501 0
M  V30 3822 H 377.44 1.0747 0.958449 0
M  V30 3823 H 379.393 0.995592 4.0947 0
M  V30 3824 H 378.117 0.0702565 3.26524 0
M  V30 3825 H 376.776 2.17905 2.9481 0
M  V30 3826 H 376.424 0.754226 4.97313 0
M  V30 3827 H 376.124 2.47361 5.32997 0
M  V30 3828 H 377.648 1.70803 5.86224 0
M  V30 3829 H 379.062 3.5354 4.51312 0
M  V30 3830 H 377.459 4.26922 4.21732 0
M  V30 3831 H 378.529 3.92587 2.84611 0
M  V30 3832 N 379.872 -1.04064 1.18357 0
M  V30 3833 C 380.805 -2.11618 0.854 0
M  V30 3834 C 381.783 -1.61555 -0.184043 0
M  V30 3835 O 382.967 -1.88395 -0.0630048 0
M  V30 3836 C 380.094 -3.37574 0.27597 0
M  V30 3837 C 379.14 -4.06485 1.2912 0
M  V30 3838 S 379.973 -4.53543 2.84709 0
M  V30 3839 C 381.129 -5.82732 2.28417 0
M  V30 3840 H 381.362 -2.39247 1.76488 0
M  V30 3841 H 378.895 -1.16832 1.00944 0
M  V30 3842 H 380.853 -4.10468 -0.051026 0
M  V30 3843 H 379.514 -3.0806 -0.613028 0
M  V30 3844 H 378.707 -4.97024 0.835633 0
M  V30 3845 H 378.309 -3.39708 1.56443 0
M  V30 3846 H 380.601 -6.56677 1.66677 0
M  V30 3847 H 381.544 -6.33052 3.17256 0
M  V30 3848 H 381.952 -5.37838 1.71436 0
M  V30 3849 N 381.35 -0.985608 -1.22978 0
M  V30 3850 C 382.599 -0.652881 -1.90841 0
M  V30 3851 C 382.912 0.817842 -1.77681 0
M  V30 3852 O 384.118 1.26185 -2.40395 0
M  V30 3853 C 382.574 -1.11717 -3.42122 0
M  V30 3854 C 382.182 -2.6126 -3.63933 0
M  V30 3855 C 383.926 -0.85843 -4.1573 0
M  V30 3856 C 381.833 -3.0133 -5.08876 0
M  V30 3857 H 380.763 -0.240491 -0.714619 0
M  V30 3858 H 383.414 -1.1942 -1.39324 0
M  V30 3859 H 381.796 -0.504027 -3.92779 0
M  V30 3860 H 382.97 -3.27858 -3.23799 0
M  V30 3861 H 381.285 -2.84937 -3.03644 0
M  V30 3862 H 383.882 -1.13359 -5.22546 0
M  V30 3863 H 384.225 0.205461 -4.15793 0
M  V30 3864 H 384.758 -1.43341 -3.71077 0
M  V30 3865 H 381.497 -4.06864 -5.13947 0
M  V30 3866 H 381.017 -2.3943 -5.49939 0
M  V30 3867 H 382.696 -2.92224 -5.77247 0
M  V30 3868 N 382.828 1.3818 -0.7579 0
M  V30 3869 C 384.053 2.04827 -0.325679 0
M  V30 3870 C 384.478 1.56788 1.03919 0
M  V30 3871 O 383.836 0.721811 1.66312 0
M  V30 3872 C 383.884 3.58774 -0.362447 0
M  V30 3873 O 382.988 4.07372 0.642033 0
M  V30 3874 H 382.329 0.64833 -0.143402 0
M  V30 3875 H 384.859 1.7677 -1.03023 0
M  V30 3876 H 384.869 4.07434 -0.214844 0
M  V30 3877 H 383.544 3.93096 -1.35824 0
M  V30 3878 H 382.121 3.70068 0.458688 0
M  V30 3879 N 384.306 0.507319 1.49211 0
M  V30 3880 C 385.722 0.163682 1.58758 0
M  V30 3881 C 385.922 -1.33208 1.51188 0
M  V30 3882 O 384.978 -2.10855 1.38911 0
M  V30 3883 C 386.291 0.746095 2.91297 0
M  V30 3884 C 387.839 0.712773 3.04776 0
M  V30 3885 C 388.314 1.27336 4.39943 0
M  V30 3886 N 389.805 1.23433 4.46451 0
M  V30 3887 C 390.54 1.63821 5.495 0
M  V30 3888 N 390.036 2.11832 6.5962 0
M  V30 3889 N 391.829 1.55198 5.4025 0
M  V30 3890 H 383.98 1.47972 1.52375 0
M  V30 3891 H 386.243 0.614147 0.722168 0
M  V30 3892 H 385.949 1.79534 3.02424 0
M  V30 3893 H 385.823 0.210137 3.76614 0
M  V30 3894 H 388.21 -0.327656 2.93275 0
M  V30 3895 H 388.291 1.28595 2.21127 0
M  V30 3896 H 387.935 2.3126 4.52196 0
M  V30 3897 H 387.865 0.676066 5.22242 0
M  V30 3898 H 390.356 0.882627 3.67448 0
M  V30 3899 H 390.669 2.40703 7.34358 0
M  V30 3900 H 389.014 2.1581 6.60644 0
M  V30 3901 H 392.205 1.17505 4.53112 0
M  V30 3902 H 392.378 1.86997 6.20432 0
M  V30 3903 N 385.784 -1.5574 0.241426 0
M  V30 3904 C 387.012 -2.03208 -0.389134 0
M  V30 3905 C 387.427 -1.12082 -1.51931 0
M  V30 3906 O 386.784 -0.134183 -1.82006 0
M  V30 3907 C 386.835 -3.50064 -0.902087 0
M  V30 3908 O 386.556 -4.37717 0.18305 0
M  V30 3909 C 388.057 -4.13268 -1.60389 0
M  V30 3910 H 385.277 -0.664509 -0.0931053 0
M  V30 3911 H 387.821 -2.0124 0.36369 0
M  V30 3912 H 385.976 -3.52583 -1.60511 0
M  V30 3913 H 386.39 -5.24097 -0.205579 0
M  V30 3914 H 387.864 -5.17733 -1.91458 0
M  V30 3915 H 388.341 -3.59434 -2.52397 0
M  V30 3916 H 388.947 -4.14655 -0.945576 0
M  V30 3917 N 387.262 0.0317525 -1.57568 0
M  V30 3918 C 388.673 0.578692 -1.77505 0
M  V30 3919 C 389.024 1.75749 -0.872164 0
M  V30 3920 O 388.149 2.16298 -0.0663106 0
M  V30 3921 C 388.744 1.05658 -3.21904 0
M  V30 3922 C 387.303 1.54906 -3.43047 0
M  V30 3923 C 386.45 0.485939 -2.73009 0
M  V30 3924 H 389.401 -0.194475 -1.57504 0
M  V30 3925 H 389.422 1.92404 -3.28269 0
M  V30 3926 H 388.934 0.198422 -3.87592 0
M  V30 3927 H 387.035 2.42915 -2.82529 0
M  V30 3928 H 387.148 1.59841 -4.5165 0
M  V30 3929 H 385.512 0.940354 -2.36705 0
M  V30 3930 H 386.295 -0.362709 -3.41379 0
M  V30 3931 N 388.74 1.54641 0.303973 0
M  V30 3932 C 389.65 1.88439 1.39743 0
M  V30 3933 C 390.666 0.778239 1.55626 0
M  V30 3934 O 391.842 1.07442 1.70347 0
M  V30 3935 C 388.907 2.12212 2.74166 0
M  V30 3936 C 387.968 3.35936 2.67293 0
M  V30 3937 C 387.201 3.58566 3.95305 0
M  V30 3938 O 387.424 2.84263 4.9452 0
M  V30 3939 O 386.358 4.52078 3.97378 0
M  V30 3940 H 390.184 2.81458 1.14083 0
M  V30 3941 H 387.769 1.40793 0.499768 0
M  V30 3942 H 389.651 2.29067 3.53704 0
M  V30 3943 H 388.326 1.22379 2.99675 0
M  V30 3944 H 387.233 3.24448 1.86237 0
M  V30 3945 H 388.566 4.2589 2.46736 0
M  V30 3946 N 390.218 -0.567019 1.47046 0
M  V30 3947 C 391.464 -1.32658 1.53394 0
M  V30 3948 C 391.797 -1.93254 0.19148 0
M  V30 3949 O 391.072 -1.77338 -0.798844 0
M  V30 3950 C 391.355 -2.44412 2.64452 0
M  V30 3951 C 391.208 -1.88749 4.08282 0
M  V30 3952 C 392.527 -3.46387 2.71485 0
M  V30 3953 H 389.646 -0.48098 0.558415 0
M  V30 3954 H 392.288 -0.635481 1.79058 0
M  V30 3955 H 390.438 -3.03363 2.427 0
M  V30 3956 H 392.11 -1.34134 4.41368 0
M  V30 3957 H 390.353 -1.19481 4.17021 0
M  V30 3958 H 391.024 -2.69491 4.81745 0
M  V30 3959 H 393.5 -2.9734 2.91081 0
M  V30 3960 H 392.376 -4.2202 3.50985 0
M  V30 3961 H 392.637 -4.04616 1.78153 0
M  V30 3962 N 391.696 -1.35014 -0.812953 0
M  V30 3963 C 392.924 -1.31031 -1.6012 0
M  V30 3964 C 393.339 0.113558 -1.88458 0
M  V30 3965 O 392.696 1.06363 -1.48301 0
M  V30 3966 C 392.747 -2.10872 -2.93624 0
M  V30 3967 O 392.468 -3.47706 -2.66518 0
M  V30 3968 C 393.969 -2.14401 -3.88004 0
M  V30 3969 H 391.189 -0.45037 -0.497401 0
M  V30 3970 H 393.733 -1.77775 -1.01076 0
M  V30 3971 H 391.888 -1.67744 -3.492 0
M  V30 3972 H 392.302 -3.89097 -3.51715 0
M  V30 3973 H 393.776 -2.74669 -4.78812 0
M  V30 3974 H 394.253 -1.14105 -4.24119 0
M  V30 3975 H 394.859 -2.57662 -3.38364 0
M  V30 3976 N 393.175 1.03435 -1.18907 0
M  V30 3977 C 394.415 1.78302 -0.999391 0
M  V30 3978 C 394.779 1.86353 0.462219 0
M  V30 3979 O 395.98 2.57489 0.771543 0
M  V30 3980 C 394.251 3.17362 -1.64365 0
M  V30 3981 S 395.81 4.08488 -1.6026 0
M  V30 3982 H 392.628 0.613861 -0.358742 0
M  V30 3983 H 395.23 1.23979 -1.51161 0
M  V30 3984 H 393.934 3.09116 -2.69955 0
M  V30 3985 H 393.465 3.76762 -1.13199 0
M  V30 3986 H 395.48 4.92274 -0.622932 0
M  V30 3987 N 394.653 0.992116 1.22453 0
M  V30 3988 C 395.899 0.668523 1.91464 0
M  V30 3989 C 396.232 -0.797313 1.77078 0
M  V30 3990 O 395.507 -1.5765 1.13916 0
M  V30 3991 C 395.79 1.07424 3.43703 0
M  V30 3992 C 395.643 2.59857 3.67143 0
M  V30 3993 C 396.962 0.626891 4.35612 0
M  V30 3994 H 394.081 0.244341 0.695318 0
M  V30 3995 H 396.723 1.2355 1.44345 0
M  V30 3996 H 394.873 0.591816 3.83966 0
M  V30 3997 H 396.545 3.15764 3.3629 0
M  V30 3998 H 394.788 3.01961 3.11451 0
M  V30 3999 H 395.459 2.83296 4.73759 0
M  V30 4000 H 397.935 1.04125 4.02861 0
M  V30 4001 H 396.811 0.939076 5.40807 0
M  V30 4002 H 397.072 -0.472457 4.39568 0
M  V30 4003 N 396.131 -1.37776 0.765217 0
M  V30 4004 C 397.377 -2.00145 0.327072 0
M  V30 4005 C 397.71 -1.60607 -1.09175 0
M  V30 4006 O 396.985 -0.849127 -1.74986 0
M  V30 4007 C 397.268 -3.57109 0.46319 0
M  V30 4008 C 397.121 -4.06576 1.92395 0
M  V30 4009 C 398.44 -4.39888 -0.136473 0
M  V30 4010 H 395.559 -0.727113 0.120316 0
M  V30 4011 H 398.201 -1.63549 0.967039 0
M  V30 4012 H 396.351 -3.88414 -0.0816358 0
M  V30 4013 H 398.023 -3.85864 2.52798 0
M  V30 4014 H 396.266 -3.59011 2.43503 0
M  V30 4015 H 396.937 -5.15639 1.97028 0
M  V30 4016 H 399.413 -4.14803 0.328317 0
M  V30 4017 H 398.289 -5.48899 -0.0110582 0
M  V30 4018 H 398.55 -4.24758 -1.22608 0
M  V30 4019 N 397.609 -0.515225 -1.4894 0
M  V30 4020 C 398.855 0.0242508 -2.02785 0
M  V30 4021 C 399.188 1.35323 -1.39289 0
M  V30 4022 O 398.463 1.87041 -0.533469 0
M  V30 4023 C 398.746 0.16184 -3.59736 0
M  V30 4024 C 398.599 -1.19127 -4.33738 0
M  V30 4025 C 399.918 0.895719 -4.30888 0
M  V30 4026 H 397.037 0.00733914 -0.736963 0
M  V30 4027 H 399.679 -0.669395 -1.77818 0
M  V30 4028 H 397.829 0.752624 -3.8114 0
M  V30 4029 H 399.501 -1.82202 -4.23792 0
M  V30 4030 H 397.744 -1.77695 -3.95736 0
M  V30 4031 H 398.415 -1.04815 -5.41957 0
M  V30 4032 H 400.891 0.394528 -4.14225 0
M  V30 4033 H 399.767 0.960859 -5.40425 0
M  V30 4034 H 400.028 1.9427 -3.97129 0
M  V30 4035 N 399.087 1.5561 -0.249682 0
M  V30 4036 C 400.364 1.90932 0.424761 0
M  V30 4037 C 400.744 1.17078 1.75658 0
M  V30 4038 O 400.092 0.289176 2.26663 0
M  V30 4039 C 400.302 3.43975 0.590109 0
M  V30 4040 C 401.65 4.15281 0.884714 0
M  V30 4041 O 402.674 3.49729 0.67587 0
M  V30 4042 O 401.533 5.31236 1.28259 0
M  V30 4043 H 398.627 0.794815 0.228468 0
M  V30 4044 H 401.173 1.67135 -0.293954 0
M  V30 4045 H 399.945 3.89748 -0.34818 0
M  V30 4046 H 399.568 3.73644 1.35926 0
M  V30 4047 N 400.565 -0.0233959 1.57583 0
M  V30 4048 C 401.811 -0.714119 1.89811 0
M  V30 4049 C 402.144 -1.74702 0.848113 0
M  V30 4050 O 401.419 -1.94023 -0.136135 0
M  V30 4051 C 401.702 -1.37853 3.32669 0
M  V30 4052 C 401.555 -0.358764 4.48367 0
M  V30 4053 C 402.874 -2.31101 3.7454 0
M  V30 4054 H 399.993 -0.25814 0.690314 0
M  V30 4055 H 402.635 0.0230927 1.89986 0
M  V30 4056 H 400.785 -2.00689 3.3265 0
M  V30 4057 H 402.457 0.268115 4.6052 0
M  V30 4058 H 400.7 0.321387 4.32608 0
M  V30 4059 H 401.371 -0.862242 5.45224 0
M  V30 4060 H 403.847 -1.78304 3.75961 0
M  V30 4061 H 402.723 -2.74567 4.75294 0
M  V30 4062 H 402.984 -3.18018 3.0711 0
M  V30 4063 N 402.043 -1.548 -0.295768 0
M  V30 4064 C 403.268 -1.78653 -1.05346 0
M  V30 4065 C 403.693 -0.546894 -1.79974 0
M  V30 4066 O 403.051 0.502763 -1.7419 0
M  V30 4067 C 403.099 -2.99679 -2.00561 0
M  V30 4068 O 402.203 -2.7317 -3.08953 0
M  V30 4069 H 401.544 -0.59116 -0.302367 0
M  V30 4070 H 404.074 -2.01895 -0.331598 0
M  V30 4071 H 404.084 -3.27793 -2.42932 0
M  V30 4072 H 402.759 -3.89562 -1.4565 0
M  V30 4073 H 401.336 -2.56089 -2.71059 0
M  V30 4074 N 403.521 0.559213 -1.47345 0
M  V30 4075 C 404.471 1.66192 -1.5609 0
M  V30 4076 C 405.455 1.55323 -0.419957 0
M  V30 4077 O 406.647 1.63839 -0.669762 0
M  V30 4078 C 403.776 3.0497 -1.57634 0
M  V30 4079 C 402.862 3.2105 -2.77106 0
M  V30 4080 N 403.253 3.07203 -4.01821 0
M  V30 4081 C 401.551 3.52046 -2.73825 0
M  V30 4082 C 402.252 3.25919 -4.81821 0
M  V30 4083 N 401.228 3.52161 -4.14106 0
M  V30 4084 H 405.03 1.54052 -2.5029 0
M  V30 4085 H 402.544 0.763914 -1.43311 0
M  V30 4086 H 404.541 3.84142 -1.61989 0
M  V30 4087 H 403.201 3.18224 -0.645281 0
M  V30 4088 H 404.212 2.84572 -4.32711 0
M  V30 4089 H 400.889 3.71839 -1.89848 0
M  V30 4090 H 402.279 3.20198 -5.90697 0
M  V30 4091 N 404.999 1.35443 0.805782 0
M  V30 4092 C 405.909 1.30546 1.94923 0
M  V30 4093 C 406.925 0.210233 1.72725 0
M  V30 4094 O 408.101 0.43975 1.9654 0
M  V30 4095 C 405.166 1.07782 3.29521 0
M  V30 4096 C 404.227 2.26625 3.64609 0
M  V30 4097 C 403.46 2.04938 4.92784 0
M  V30 4098 O 403.683 1.01624 5.61274 0
M  V30 4099 O 402.617 2.9232 5.26149 0
M  V30 4100 H 406.443 2.26779 2.02002 0
M  V30 4101 H 404.028 1.15823 0.943682 0
M  V30 4102 H 405.91 0.969392 4.10098 0
M  V30 4103 H 404.585 0.146003 3.23371 0
M  V30 4104 H 403.492 2.43033 2.84404 0
M  V30 4105 H 404.825 3.18257 3.75464 0
M  V30 4106 N 406.477 -1.02803 1.19454 0
M  V30 4107 C 407.754 -1.73299 0.907013 0
M  V30 4108 C 408.134 -2.02772 -0.587086 0
M  V30 4109 O 407.482 -1.68304 -1.54551 0
M  V30 4110 C 407.692 -3.00912 1.76785 0
M  V30 4111 C 409.04 -3.74403 2.00268 0
M  V30 4112 O 410.064 -3.10841 1.73943 0
M  V30 4113 O 408.923 -4.88675 2.4466 0
M  V30 4114 H 406.017 -0.754727 0.338106 0
M  V30 4115 H 408.563 -1.08754 1.30271 0
M  V30 4116 H 407.335 -2.75366 2.7801 0
M  V30 4117 H 406.958 -3.73197 1.37149 0
M  V30 4118 N 407.956 -0.998596 -1.21925 0
M  V30 4119 C 409.367 -0.711939 -1.72593 0
M  V30 4120 C 409.718 0.770842 -1.80423 0
M  V30 4121 O 408.843 1.60237 -1.4544 0
M  V30 4122 C 409.438 -1.28567 -3.13458 0
M  V30 4123 C 407.997 -1.04828 -3.61508 0
M  V30 4124 C 407.144 -1.4024 -2.39224 0
M  V30 4125 H 410.095 -1.17027 -1.07193 0
M  V30 4126 H 410.116 -0.667098 -3.74607 0
M  V30 4127 H 409.628 -2.36486 -3.07727 0
M  V30 4128 H 407.729 0.0140383 -3.72597 0
M  V30 4129 H 407.842 -1.71566 -4.47328 0
M  V30 4130 H 406.206 -0.821077 -2.41103 0
M  V30 4131 H 406.989 -2.49176 -2.36149 0
M  V30 4132 N 409.434 1.37368 -0.772513 0
M  V30 4133 C 410.344 2.34053 -0.160081 0
M  V30 4134 C 411.36 1.60216 0.678728 0
M  V30 4135 O 412.536 1.92303 0.59847 0
M  V30 4136 C 409.601 3.3939 0.708182 0
M  V30 4137 C 408.662 4.29048 -0.147172 0
M  V30 4138 C 407.895 5.29354 0.679744 0
M  V30 4139 O 408.118 5.3723 1.91678 0
M  V30 4140 O 407.052 6.01835 0.0885444 0
M  V30 4141 H 410.878 2.88159 -0.959053 0
M  V30 4142 H 408.463 1.39543 -0.533685 0
M  V30 4143 H 410.345 4.03839 1.20384 0
M  V30 4144 H 409.02 2.8761 1.48533 0
M  V30 4145 H 407.927 3.67697 -0.689205 0
M  V30 4146 H 409.26 4.84134 -0.887423 0
M  V30 4147 N 410.912 0.523116 1.48665 0
M  V30 4148 C 412.158 -0.0134963 2.02796 0
M  V30 4149 C 412.491 -1.34582 1.40004 0
M  V30 4150 O 411.766 -1.86756 0.543381 0
M  V30 4151 C 412.049 -0.14276 3.59817 0
M  V30 4152 C 411.902 1.21425 4.331 0
M  V30 4153 C 413.221 -0.872856 4.31357 0
M  V30 4154 H 410.34 -0.00343074 0.736992 0
M  V30 4155 H 412.982 0.678816 1.7746 0
M  V30 4156 H 411.132 -0.732401 3.81534 0
M  V30 4157 H 412.804 1.84447 4.2282 0
M  V30 4158 H 411.047 1.79791 3.94788 0
M  V30 4159 H 411.718 1.07687 5.41394 0
M  V30 4160 H 414.194 -0.372555 4.14429 0
M  V30 4161 H 413.07 -0.932185 5.40927 0
M  V30 4162 H 413.331 -1.92161 3.98154 0
M  V30 4163 N 412.39 -1.55475 0.257931 0
M  V30 4164 C 413.337 -2.21837 -0.636939 0
M  V30 4165 C 414.307 -1.18596 -1.16294 0
M  V30 4166 O 415.492 -1.47081 -1.21539 0
M  V30 4167 C 412.632 -2.9301 -1.82317 0
M  V30 4168 C 411.745 -4.10931 -1.33265 0
M  V30 4169 C 410.88 -4.69791 -2.47931 0
M  V30 4170 C 409.919 -5.7994 -1.95796 0
M  V30 4171 N 409.056 -6.32935 -3.0387 0
M  V30 4172 H 413.896 -2.9793 -0.0643591 0
M  V30 4173 H 411.433 -1.47086 -0.0200031 0
M  V30 4174 H 413.391 -3.3248 -2.52018 0
M  V30 4175 H 412.021 -2.1937 -2.36805 0
M  V30 4176 H 411.073 -3.76699 -0.52931 0
M  V30 4177 H 412.385 -4.90417 -0.910654 0
M  V30 4178 H 411.539 -5.11892 -3.25656 0
M  V30 4179 H 410.278 -3.89545 -2.93438 0
M  V30 4180 H 409.283 -5.37305 -1.16546 0
M  V30 4181 H 410.508 -6.62043 -1.51246 0
M  V30 4182 H 408.454 -5.55591 -3.48791 0
M  V30 4183 H 408.371 -7.07645 -2.66035 0
M  V30 4184 H 409.639 -6.79695 -3.81621 0
M  V30 4185 N 413.868 0.0150385 -1.57593 0
M  V30 4186 C 415.115 0.703001 -1.89906 0
M  V30 4187 C 415.443 1.74604 -0.856944 0
M  V30 4188 O 414.698 1.95197 0.140287 0
M  V30 4189 C 414.997 1.39686 -3.28972 0
M  V30 4190 C 414.663 0.488457 -4.48246 0
M  V30 4191 C 413.325 0.2383 -4.8061 0
M  V30 4192 C 415.677 -0.137881 -5.21018 0
M  V30 4193 C 413.005 -0.646738 -5.83125 0
M  V30 4194 C 415.357 -1.0107 -6.24474 0
M  V30 4195 C 414.021 -1.27019 -6.55303 0
M  V30 4196 H 413.291 0.257246 -0.694914 0
M  V30 4197 H 415.938 -0.037259 -1.91464 0
M  V30 4198 H 414.243 2.21079 -3.23468 0
M  V30 4199 H 415.94 1.93495 -3.51227 0
M  V30 4200 H 412.53 0.693593 -4.22951 0
M  V30 4201 H 416.714 0.0423953 -4.96282 0
M  V30 4202 H 411.97 -0.855937 -6.05379 0
M  V30 4203 H 416.144 -1.50247 -6.79999 0
M  V30 4204 H 413.771 -1.95769 -7.3456 0
M  V30 4205 N 415.346 1.54954 0.287554 0
M  V30 4206 C 416.294 1.87606 1.37502 0
M  V30 4207 C 417.288 0.751001 1.51843 0
M  V30 4208 O 418.494 0.935169 1.53801 0
M  V30 4209 H 414.869 0.595231 0.459569 0
M  V30 4210 H 416.84 2.78477 1.07206 0
M  V30 4211 C 415.589 2.15183 2.73115 0
M  V30 4212 H 414.912 3.01234 2.62866 0
M  V30 4213 H 416.352 2.4196 3.48183 0
M  V30 4214 C 414.811 0.954686 3.2309 0
M  V30 4215 O 415.341 0.181949 4.01288 0
M  V30 4216 N 413.547 0.756368 2.80584 0
M  V30 4217 H 413.094 1.38643 2.17108 0
M  V30 4218 H 413.052 -0.0430391 3.14371 0
M  V30 4219 N 416.824 -0.551391 1.4764 0
M  V30 4220 C 418.07 -1.30789 1.55774 0
M  V30 4221 C 418.425 -1.91143 0.219562 0
M  V30 4222 O 417.718 -1.7521 -0.775375 0
M  V30 4223 C 417.912 -2.43469 2.61644 0
M  V30 4224 C 417.741 -1.94157 4.05627 0
M  V30 4225 C 416.511 -1.77734 4.7301 0
M  V30 4226 C 418.709 -1.48262 4.92466 0
M  V30 4227 N 416.691 -1.22823 6.01488 0
M  V30 4228 C 418.062 -1.05156 6.11017 0
M  V30 4229 C 420.117 -1.36367 4.78862 0
M  V30 4230 C 418.82 -0.513357 7.17466 0
M  V30 4231 C 420.846 -0.839484 5.85411 0
M  V30 4232 C 420.208 -0.418377 7.03156 0
M  V30 4233 H 416.307 -0.470406 0.624694 0
M  V30 4234 H 418.891 -0.624331 1.84419 0
M  V30 4235 H 417.062 -3.09348 2.34859 0
M  V30 4236 H 418.794 -3.10477 2.59589 0
M  V30 4237 H 415.549 -2.00623 4.29007 0
M  V30 4238 H 415.973 -0.974393 6.69951 0
M  V30 4239 H 420.615 -1.67535 3.88191 0
M  V30 4240 H 418.333 -0.189318 8.07878 0
M  V30 4241 H 421.919 -0.750921 5.76934 0
M  V30 4242 H 420.799 -0.0190538 7.84198 0
M  V30 4243 N 418.302 -1.35869 -0.798587 0
M  V30 4244 C 419.532 -1.32529 -1.58491 0
M  V30 4245 C 419.94 0.0975405 -1.88948 0
M  V30 4246 O 419.283 1.06224 -1.49874 0
M  V30 4247 C 419.345 -2.07247 -2.9375 0
M  V30 4248 C 419.009 -3.56391 -2.86068 0
M  V30 4249 C 420.006 -4.50824 -2.58947 0
M  V30 4250 C 417.691 -3.9915 -3.04933 0
M  V30 4251 C 419.685 -5.85993 -2.5078 0
M  V30 4252 C 417.372 -5.34413 -2.96389 0
M  V30 4253 C 418.37 -6.27646 -2.69349 0
M  V30 4254 O 418.058 -7.60426 -2.60782 0
M  V30 4255 H 417.79 -0.456529 -0.498556 0
M  V30 4256 H 420.344 -1.79425 -0.999799 0
M  V30 4257 H 418.574 -1.55001 -3.54276 0
M  V30 4258 H 420.263 -1.96883 -3.54954 0
M  V30 4259 H 421.029 -4.19104 -2.44084 0
M  V30 4260 H 416.908 -3.26961 -3.24989 0
M  V30 4261 H 420.452 -6.58735 -2.29595 0
M  V30 4262 H 416.349 -5.65743 -3.10813 0
M  V30 4263 H 417.117 -7.70444 -2.76331 0
M  V30 4264 N 419.78 1.02168 -1.19998 0
M  V30 4265 C 421.026 1.75945 -1.00852 0
M  V30 4266 C 421.359 1.88702 0.458828 0
M  V30 4267 O 420.634 1.40911 1.34069 0
M  V30 4268 C 420.917 3.18154 -1.68671 0
M  V30 4269 C 420.77 3.13224 -3.22817 0
M  V30 4270 C 422.089 4.16711 -1.41561 0
M  V30 4271 H 419.208 0.638673 -0.367785 0
M  V30 4272 H 421.85 1.19222 -1.4794 0
M  V30 4273 H 420 3.66586 -1.28636 0
M  V30 4274 H 421.672 2.72635 -3.72112 0
M  V30 4275 H 419.915 2.50751 -3.53986 0
M  V30 4276 H 420.586 4.13728 -3.65422 0
M  V30 4277 H 423.062 3.76913 -1.76284 0
M  V30 4278 H 421.938 5.14391 -1.91553 0
M  V30 4279 H 422.199 4.40774 -0.342193 0
M  V30 4280 N 421.258 1.00505 1.21394 0
M  V30 4281 C 422.535 0.603277 1.86064 0
M  V30 4282 C 422.915 -0.919095 1.90042 0
M  V30 4283 O 422.263 -1.80607 1.39977 0
M  V30 4284 C 422.473 1.23772 3.26315 0
M  V30 4285 C 423.821 1.34586 4.02705 0
M  V30 4286 O 424.845 1.19304 3.35626 0
M  V30 4287 O 423.704 1.59169 5.22807 0
M  V30 4288 H 420.798 0.206634 0.800769 0
M  V30 4289 H 423.344 1.1017 1.29076 0
M  V30 4290 H 422.116 2.27848 3.18121 0
M  V30 4291 H 421.739 0.725648 3.90922 0
M  V30 4292 N 422.737 -1.36956 0.779787 0
M  V30 4293 C 423.985 -1.99097 0.347079 0
M  V30 4294 C 424.306 -1.62206 -1.08232 0
M  V30 4295 O 423.576 -0.891373 -1.74446 0
M  V30 4296 H 422.156 -0.736409 0.125342 0
M  V30 4297 H 424.818 -1.67308 0.999696 0
M  V30 4298 H 423.914 -3.09107 0.431162 0
M  V30 4299 N 424.215 -0.530993 -1.48385 0
M  V30 4300 C 425.461 0.00274135 -2.028 0
M  V30 4301 C 425.794 1.33838 -1.40716 0
M  V30 4302 O 425.069 1.86465 -0.553277 0
M  V30 4303 C 425.352 0.123676 -3.59888 0
M  V30 4304 C 425.205 -1.2372 -4.3245 0
M  V30 4305 C 426.524 0.849967 -4.31814 0
M  V30 4306 H 423.643 -0.000477758 -0.737 0
M  V30 4307 H 426.285 -0.688217 -1.77098 0
M  V30 4308 H 424.435 0.712157 -3.81917 0
M  V30 4309 H 426.107 -1.86687 -4.21836 0
M  V30 4310 H 424.35 -1.81882 -3.93829 0
M  V30 4311 H 425.021 -1.10557 -5.40815 0
M  V30 4312 H 427.497 0.350572 -4.14621 0
M  V30 4313 H 426.373 0.903486 -5.41413 0
M  V30 4314 H 426.634 1.90047 -3.99167 0
M  V30 4315 N 425.693 1.55336 -0.266172 0
M  V30 4316 C 426.603 2.2583 0.635458 0
M  V30 4317 C 427.619 1.28106 1.17749 0
M  V30 4318 O 428.795 1.61024 1.20968 0
M  V30 4319 C 425.86 2.95879 1.80712 0
M  V30 4320 C 424.921 4.09059 1.30265 0
M  V30 4321 C 424.154 4.75759 2.41846 0
M  V30 4322 O 424.377 4.41622 3.61007 0
M  V30 4323 O 423.311 5.63888 2.1051 0
M  V30 4324 H 427.137 3.03631 0.0646693 0
M  V30 4325 H 424.722 1.49361 -0.0339177 0
M  V30 4326 H 426.604 3.39932 2.49047 0
M  V30 4327 H 425.279 2.21002 2.36516 0
M  V30 4328 H 424.186 3.69482 0.586019 0
M  V30 4329 H 425.519 4.85811 0.790458 0
M  V30 4330 N 427.171 -0.0066808 1.57599 0
M  V30 4331 C 428.417 -0.693947 1.90558 0
M  V30 4332 C 428.75 -1.73792 0.866594 0
M  V30 4333 O 428.025 -1.94156 -0.115548 0
M  V30 4334 C 428.308 -1.34317 3.34112 0
M  V30 4335 C 428.161 -0.311189 4.48722 0
M  V30 4336 C 429.48 -2.27116 3.7697 0
M  V30 4337 H 426.599 -0.250803 0.693013 0
M  V30 4338 H 429.241 0.043242 1.89951 0
M  V30 4339 H 427.391 -1.9715 3.3476 0
M  V30 4340 H 429.063 0.316944 4.6021 0
M  V30 4341 H 427.306 0.367253 4.32243 0
M  V30 4342 H 427.977 -0.804366 5.46108 0
M  V30 4343 H 430.453 -1.74306 3.77831 0
M  V30 4344 H 429.329 -2.69511 4.78179 0
M  V30 4345 H 429.59 -3.14743 3.10466 0
M  V30 4346 N 428.649 -1.55105 -0.279332 0
M  V30 4347 C 429.599 -1.83937 -1.34727 0
M  V30 4348 C 430.583 -0.69785 -1.44979 0
M  V30 4349 O 431.775 -0.95904 -1.48766 0
M  V30 4350 C 428.904 -2.1092 -2.70864 0
M  V30 4351 C 427.99 -3.31314 -2.64748 0
M  V30 4352 N 428.381 -4.51371 -2.2825 0
M  V30 4353 C 426.679 -3.33777 -2.95819 0
M  V30 4354 C 427.38 -5.33447 -2.31969 0
M  V30 4355 N 426.356 -4.71697 -2.7019 0
M  V30 4356 H 430.158 -2.74309 -1.05506 0
M  V30 4357 H 427.672 -1.54896 -0.487959 0
M  V30 4358 H 429.669 -2.2973 -3.47893 0
M  V30 4359 H 428.329 -1.21828 -3.00979 0
M  V30 4360 H 429.34 -4.77584 -2.00335 0
M  V30 4361 H 426.017 -2.54858 -3.30687 0
M  V30 4362 H 427.407 -6.39424 -2.06365 0
M  V30 4363 N 430.127 0.543554 -1.4793 0
M  V30 4364 C 431.075 1.67039 -1.61866 0
M  V30 4365 C 432.069 1.62294 -0.48549 0
M  V30 4366 O 433.275 1.67315 -0.66376 0
M  V30 4367 H 429.65 0.552954 -0.509652 0
M  V30 4368 H 431.621 1.52426 -2.56533 0
M  V30 4369 C 430.37 3.05357 -1.6629 0
M  V30 4370 H 429.693 3.09696 -2.5284 0
M  V30 4371 H 431.133 3.83855 -1.80088 0
M  V30 4372 C 429.592 3.34531 -0.398861 0
M  V30 4373 O 430.122 3.98649 0.494162 0
M  V30 4374 N 428.328 2.89299 -0.2747 0
M  V30 4375 H 427.875 2.37298 -1.00236 0
M  V30 4376 H 427.833 3.09188 0.570075 0
M  V30 4377 N 431.605 1.3629 0.791371 0
M  V30 4378 C 432.568 1.30309 1.88553 0
M  V30 4379 C 433.568 0.211204 1.59407 0
M  V30 4380 O 434.758 0.465865 1.67855 0
M  V30 4381 C 431.89 1.01956 3.25297 0
M  V30 4382 H 433.083 2.27614 1.95273 0
M  V30 4383 H 430.636 1.21035 0.988953 0
M  V30 4384 H 431.371 0.050998 3.2426 0
M  V30 4385 H 431.156 1.80968 3.4784 0
M  V30 4386 H 432.646 1.0037 4.05359 0
M  V30 4387 N 433.083 -1.0153 1.20538 0
M  V30 4388 C 434.03 -2.10098 0.955383 0
M  V30 4389 C 435 -1.65702 -0.114878 0
M  V30 4390 O 436.185 -1.90776 0.0301118 0
M  V30 4391 C 433.325 -3.41236 0.514969 0
M  V30 4392 C 432.438 -3.99102 1.65353 0
M  V30 4393 C 431.573 -5.18306 1.16329 0
M  V30 4394 C 430.612 -5.68258 2.27485 0
M  V30 4395 N 429.749 -6.78722 1.7967 0
M  V30 4396 H 434.589 -2.30818 1.88486 0
M  V30 4397 H 432.126 -1.13189 0.939499 0
M  V30 4398 H 434.084 -4.16504 0.240935 0
M  V30 4399 H 432.714 -3.20585 -0.377512 0
M  V30 4400 H 431.766 -3.20918 2.04245 0
M  V30 4401 H 433.078 -4.32177 2.49047 0
M  V30 4402 H 432.232 -6.00782 0.845302 0
M  V30 4403 H 430.971 -4.86799 0.296254 0
M  V30 4404 H 429.976 -4.84385 2.60099 0
M  V30 4405 H 431.201 -6.01798 3.14667 0
M  V30 4406 H 429.147 -6.49042 0.95295 0
M  V30 4407 H 429.064 -7.10996 2.56944 0
M  V30 4408 H 430.332 -7.64759 1.50875 0
M  V30 4409 N 434.561 -1.01147 -1.20859 0
M  V30 4410 C 435.789 -0.716911 -1.94082 0
M  V30 4411 C 436.204 0.721568 -1.74467 0
M  V30 4412 O 435.561 1.48889 -1.05539 0
M  V30 4413 C 435.612 -1.03662 -3.46318 0
M  V30 4414 O 435.333 -2.4186 -3.65288 0
M  V30 4415 C 436.834 -0.762386 -4.36695 0
M  V30 4416 H 434.054 -0.26367 -0.617024 0
M  V30 4417 H 436.598 -1.35127 -1.53496 0
M  V30 4418 H 434.753 -0.447757 -3.84804 0
M  V30 4419 H 435.167 -2.53224 -4.59323 0
M  V30 4420 H 436.641 -1.03621 -5.42187 0
M  V30 4421 H 437.118 0.303514 -4.3815 0
M  V30 4422 H 437.724 -1.33316 -4.03865 0
M  V30 4423 N 436.039 1.36541 -0.78704 0
M  V30 4424 C 436.986 2.30082 -0.181901 0
M  V30 4425 C 437.956 1.5186 0.672896 0
M  V30 4426 O 439.141 1.80374 0.622072 0
M  V30 4427 C 436.281 3.3835 0.679197 0
M  V30 4428 C 435.394 4.31565 -0.193882 0
M  V30 4429 C 434.529 5.26915 0.673364 0
M  V30 4430 C 433.568 6.11769 -0.201315 0
M  V30 4431 N 432.705 6.99315 0.624777 0
M  V30 4432 H 437.545 2.81248 -0.985064 0
M  V30 4433 H 435.082 1.38437 -0.497342 0
M  V30 4434 H 437.04 3.99767 1.19341 0
M  V30 4435 H 435.67 2.8851 1.44781 0
M  V30 4436 H 434.722 3.71323 -0.826044 0
M  V30 4437 H 436.034 4.91191 -0.867937 0
M  V30 4438 H 435.188 5.9361 1.25348 0
M  V30 4439 H 433.927 4.67737 1.38105 0
M  V30 4440 H 432.932 5.44039 -0.793849 0
M  V30 4441 H 434.157 6.73022 -0.906568 0
M  V30 4442 H 432.103 6.42648 1.3168 0
M  V30 4443 H 432.02 7.56 0.00835237 0
M  V30 4444 H 433.288 7.70382 1.18879 0
M  V30 4445 N 437.518 0.538854 1.48102 0
M  V30 4446 C 438.929 0.100679 1.86428 0
M  V30 4447 C 439.28 -1.32447 1.44749 0
M  V30 4448 O 438.405 -1.99339 0.842199 0
M  V30 4449 C 439 0.175933 3.38343 0
M  V30 4450 C 437.559 -0.207098 3.7583 0
M  V30 4451 C 436.706 0.531741 2.72154 0
M  V30 4452 H 439.657 0.749614 1.3988 0
M  V30 4453 H 439.678 -0.610144 3.75576 0
M  V30 4454 H 439.19 1.21328 3.68648 0
M  V30 4455 H 437.291 -1.24626 3.5114 0
M  V30 4456 H 437.404 0.138687 4.78899 0
M  V30 4457 H 435.768 -0.0230462 2.5469 0
M  V30 4458 H 436.551 1.56989 3.05302 0
M  V30 4459 N 438.996 -1.55193 0.274407 0
M  V30 4460 C 440.412 -1.59401 -0.0797543 0
M  V30 4461 C 440.612 -1.29162 -1.54659 0
M  V30 4462 O 439.668 -1.05215 -2.29534 0
M  V30 4463 C 440.981 -2.99257 0.294238 0
M  V30 4464 C 442.529 -3.12072 0.240796 0
M  V30 4465 C 443.004 -4.54194 0.589218 0
M  V30 4466 N 444.495 -4.60033 0.540744 0
M  V30 4467 C 445.23 -5.68027 0.783147 0
M  V30 4468 N 444.726 -6.8417 1.09013 0
M  V30 4469 N 446.519 -5.57572 0.711993 0
M  V30 4470 H 438.67 -1.73113 1.23067 0
M  V30 4471 H 440.933 -0.807197 0.497129 0
M  V30 4472 H 440.639 -3.26217 1.31435 0
M  V30 4473 H 440.513 -3.75427 -0.365281 0
M  V30 4474 H 442.9 -2.84877 -0.770024 0
M  V30 4475 H 442.981 -2.38117 0.934563 0
M  V30 4476 H 442.625 -4.82115 1.59772 0
M  V30 4477 H 442.555 -5.26448 -0.126331 0
M  V30 4478 H 445.046 -3.76599 0.313327 0
M  V30 4479 H 445.359 -7.6243 1.26178 0
M  V30 4480 H 443.704 -6.85787 1.12789 0
M  V30 4481 H 446.895 -4.65714 0.472014 0
M  V30 4482 H 447.068 -6.41659 0.90429 0
M  V30 4483 N 440.474 -0.00167713 -1.576 0
M  V30 4484 C 441.384 1.00548 -2.1196 0
M  V30 4485 C 442.4 1.3758 -1.06526 0
M  V30 4486 O 443.576 1.46278 -1.38436 0
M  V30 4487 C 440.641 2.27809 -2.6135 0
M  V30 4488 C 439.702 1.97074 -3.81393 0
M  V30 4489 C 438.935 3.18267 -4.28417 0
M  V30 4490 O 439.158 4.30009 -3.74765 0
M  V30 4491 O 438.092 3.02167 -5.20556 0
M  V30 4492 H 441.918 0.573373 -2.98238 0
M  V30 4493 H 439.503 0.217255 -1.47812 0
M  V30 4494 H 441.385 3.02568 -2.93309 0
M  V30 4495 H 440.06 2.70254 -1.78169 0
M  V30 4496 H 438.967 1.19785 -3.54404 0
M  V30 4497 H 440.3 1.59464 -4.65652 0
M  V30 4498 N 441.952 1.55251 0.271103 0
M  V30 4499 C 442.862 1.9136 1.35714 0
M  V30 4500 C 443.878 0.811075 1.5394 0
M  V30 4501 O 445.054 1.11031 1.6803 0
M  V30 4502 C 442.119 2.1798 2.69603 0
M  V30 4503 C 441.18 3.4153 2.60107 0
M  V30 4504 C 440.413 3.66871 3.8761 0
M  V30 4505 O 440.636 2.94689 4.8838 0
M  V30 4506 O 439.57 4.60405 3.87699 0
M  V30 4507 H 443.396 2.83815 1.08088 0
M  V30 4508 H 440.981 1.41821 0.469792 0
M  V30 4509 H 442.863 2.36518 3.48765 0
M  V30 4510 H 441.538 1.28708 2.97012 0
M  V30 4511 H 440.445 3.28325 1.79314 0
M  V30 4512 H 441.778 4.31027 2.37647 0
M  V30 4513 N 443.43 -0.535701 1.48216 0
M  V30 4514 C 444.362 -1.65662 1.58394 0
M  V30 4515 C 445.375 -1.5591 0.468607 0
M  V30 4516 O 446.564 -1.62475 0.7392 0
M  V30 4517 C 443.664 -3.04276 1.4923 0
M  V30 4518 C 442.837 -3.39567 2.75705 0
M  V30 4519 C 441.896 -4.57436 2.60075 0
M  V30 4520 O 440.922 -4.60942 3.33948 0
M  V30 4521 N 442.124 -5.55259 1.69315 0
M  V30 4522 H 444.889 -1.5737 2.55058 0
M  V30 4523 H 442.45 -0.722845 1.44867 0
M  V30 4524 H 444.442 -3.80994 1.36477 0
M  V30 4525 H 443.012 -3.06677 0.605632 0
M  V30 4526 H 442.232 -2.52083 3.03064 0
M  V30 4527 H 443.52 -3.59929 3.59623 0
M  V30 4528 H 442.918 -5.552 1.08489 0
M  V30 4529 H 441.475 -6.31218 1.62504 0
M  V30 4530 N 444.908 -1.36708 -0.784132 0
M  V30 4531 C 446.138 -1.34203 -1.57077 0
M  V30 4532 C 446.546 0.0774945 -1.89041 0
M  V30 4533 O 445.889 1.04628 -1.50992 0
M  V30 4534 C 445.951 -2.10351 -2.91535 0
M  V30 4535 C 445.615 -3.59405 -2.82272 0
M  V30 4536 C 446.612 -4.53545 -2.54151 0
M  V30 4537 C 444.297 -4.02362 -3.00683 0
M  V30 4538 C 446.291 -5.8862 -2.44551 0
M  V30 4539 C 443.978 -5.37526 -2.90704 0
M  V30 4540 C 444.976 -6.30468 -2.62677 0
M  V30 4541 O 444.664 -7.63149 -2.52702 0
M  V30 4542 H 444.396 -0.461791 -0.493685 0
M  V30 4543 H 446.95 -1.80475 -0.980712 0
M  V30 4544 H 445.18 -1.5875 -3.52612 0
M  V30 4545 H 446.869 -2.00636 -3.52845 0
M  V30 4546 H 447.635 -4.21669 -2.39625 0
M  V30 4547 H 443.514 -3.30389 -3.21503 0
M  V30 4548 H 447.058 -6.61133 -2.22596 0
M  V30 4549 H 442.955 -5.69008 -3.04795 0
M  V30 4550 H 443.723 -7.73331 -2.68144 0
M  V30 4551 N 446.386 1.0089 -1.21074 0
M  V30 4552 C 447.334 2.11707 -0.963476 0
M  V30 4553 C 448.328 1.69172 0.0879032 0
M  V30 4554 O 449.534 1.79889 -0.0631415 0
M  V30 4555 H 445.909 0.692026 -0.294287 0
M  V30 4556 H 447.88 2.29743 -1.90422 0
M  V30 4557 C 446.629 3.43473 -0.540509 0
M  V30 4558 H 445.952 3.76634 -1.34114 0
M  V30 4559 H 447.392 4.22044 -0.406777 0
M  V30 4560 C 445.851 3.2849 0.748079 0
M  V30 4561 O 446.381 3.58883 1.8046 0
M  V30 4562 N 444.587 2.81715 0.713081 0
M  V30 4563 H 444.134 2.5718 -0.146973 0
M  V30 4564 H 444.092 2.72071 1.57558 0
M  V30 4565 N 447.864 1.01787 1.20321 0
M  V30 4566 C 449.089 0.727009 1.9424 0
M  V30 4567 C 449.514 -0.706179 1.74341 0
M  V30 4568 O 448.872 -1.48609 1.03852 0
M  V30 4569 C 448.92 1.06958 3.44372 0
M  V30 4570 O 448.024 0.181983 4.11998 0
M  V30 4571 H 447.365 0.269626 0.606793 0
M  V30 4572 H 449.895 1.36158 1.52716 0
M  V30 4573 H 449.905 1.02182 3.94997 0
M  V30 4574 H 448.58 2.11378 3.58179 0
M  V30 4575 H 447.157 0.287378 3.71791 0
M  V30 4576 N 449.342 -1.36122 0.79427 0
M  V30 4577 C 450.57 -2.03362 0.380989 0
M  V30 4578 C 450.985 -1.59881 -1.00416 0
M  V30 4579 O 450.342 -0.790515 -1.6449 0
M  V30 4580 C 450.393 -3.58804 0.440649 0
M  V30 4581 O 450.114 -4.007 1.77118 0
M  V30 4582 C 451.615 -4.43296 0.0186117 0
M  V30 4583 H 448.835 -0.652526 0.156367 0
M  V30 4584 H 451.379 -1.73998 1.07447 0
M  V30 4585 H 449.534 -3.8686 -0.204458 0
M  V30 4586 H 449.948 -4.95309 1.72538 0
M  V30 4587 H 451.422 -5.51887 0.111488 0
M  V30 4588 H 451.899 -4.2684 -1.03461 0
M  V30 4589 H 452.505 -4.20512 0.636395 0
M  V30 4590 N 450.82 -0.546701 -1.47814 0
M  V30 4591 C 452.05 -0.0232519 -2.06587 0
M  V30 4592 C 452.458 1.2712 -1.40133 0
M  V30 4593 O 451.801 1.77091 -0.488305 0
M  V30 4594 C 451.863 0.254117 -3.58601 0
M  V30 4595 C 451.527 -0.949331 -4.47031 0
M  V30 4596 C 452.524 -1.85216 -4.85789 0
M  V30 4597 C 450.209 -1.16104 -4.88697 0
M  V30 4598 C 452.203 -2.95047 -5.65001 0
M  V30 4599 C 449.89 -2.26247 -5.67676 0
M  V30 4600 C 450.888 -3.1555 -6.05737 0
M  V30 4601 O 450.576 -4.23784 -6.83127 0
M  V30 4602 H 450.308 -0.0380082 -0.674931 0
M  V30 4603 H 452.862 -0.756631 -1.90956 0
M  V30 4604 H 451.092 1.04168 -3.72406 0
M  V30 4605 H 452.781 0.72167 -3.99433 0
M  V30 4606 H 453.547 -1.70061 -4.54207 0
M  V30 4607 H 449.426 -0.475159 -4.58545 0
M  V30 4608 H 452.97 -3.64778 -5.94628 0
M  V30 4609 H 448.867 -2.41379 -5.98671 0
M  V30 4610 H 449.635 -4.21701 -7.01506 0
M  V30 4611 N 452.299 1.55045 -0.282633 0
M  V30 4612 C 453.715 1.59441 0.0712997 0
M  V30 4613 C 453.915 1.2998 1.53972 0
M  V30 4614 O 452.971 1.06431 2.28973 0
M  V30 4615 C 454.284 2.99097 -0.310104 0
M  V30 4616 C 455.832 3.1194 -0.257343 0
M  V30 4617 C 456.307 4.53875 -0.613297 0
M  V30 4618 N 457.798 4.5974 -0.565134 0
M  V30 4619 C 458.533 5.67603 -0.81326 0
M  V30 4620 N 458.029 6.83582 -1.1264 0
M  V30 4621 N 459.822 5.57187 -0.741553 0
M  V30 4622 H 451.973 1.72458 -1.23984 0
M  V30 4623 H 454.236 0.804549 -0.501403 0
M  V30 4624 H 453.942 3.25516 -1.33163 0
M  V30 4625 H 453.816 3.75616 0.345366 0
M  V30 4626 H 456.203 2.85281 0.754905 0
M  V30 4627 H 456.284 2.37618 -0.947178 0
M  V30 4628 H 455.928 4.81261 -1.62327 0
M  V30 4629 H 455.858 5.26508 0.09841 0
M  V30 4630 H 458.349 3.76427 -0.333294 0
M  V30 4631 H 458.662 7.6175 -1.30219 0
M  V30 4632 H 457.007 6.85179 -1.16425 0
M  V30 4633 H 460.198 4.65457 -0.496705 0
M  V30 4634 H 460.371 6.41171 -0.938306 0
M  V30 4635 N 453.777 0.010035 1.57597 0
M  V30 4636 C 455.023 -0.673697 1.91283 0
M  V30 4637 C 455.356 -1.72863 0.884979 0
M  V30 4638 O 454.631 -1.94268 -0.0949487 0
M  V30 4639 C 454.914 -1.30766 3.35518 0
M  V30 4640 C 454.767 -0.263578 4.49027 0
M  V30 4641 C 456.086 -2.23105 3.79358 0
M  V30 4642 H 453.205 -0.243439 0.695634 0
M  V30 4643 H 455.847 0.0633864 1.89894 0
M  V30 4644 H 453.997 -1.93588 3.36832 0
M  V30 4645 H 455.669 0.365738 4.59848 0
M  V30 4646 H 453.912 0.413077 4.31829 0
M  V30 4647 H 454.583 -0.746398 5.4693 0
M  V30 4648 H 457.059 -1.70289 3.79659 0
M  V30 4649 H 455.935 -2.64424 4.81011 0
M  V30 4650 H 456.196 -3.11433 3.13787 0
M  V30 4651 N 455.255 -1.55392 -0.262866 0
M  V30 4652 C 456.501 -1.76737 -0.99458 0
M  V30 4653 C 456.834 -0.572453 -1.85571 0
M  V30 4654 O 456.109 0.429732 -1.89693 0
M  V30 4655 C 456.392 -3.07824 -1.8686 0
M  V30 4656 C 456.245 -4.3769 -1.03672 0
M  V30 4657 C 457.564 -3.35021 -2.85393 0
M  V30 4658 H 454.683 -0.643005 -0.360157 0
M  V30 4659 H 457.325 -1.88126 -0.266216 0
M  V30 4660 H 455.475 -2.98245 -2.48962 0
M  V30 4661 H 457.147 -4.59238 -0.43563 0
M  V30 4662 H 455.39 -4.32461 -0.340513 0
M  V30 4663 H 456.061 -5.25759 -1.6817 0
M  V30 4664 H 458.537 -3.44458 -2.33426 0
M  V30 4665 H 457.413 -4.27989 -3.43681 0
M  V30 4666 H 457.674 -2.55153 -3.61039 0
M  V30 4667 N 456.733 0.527833 -1.48498 0
M  V30 4668 C 457.958 1.313 -1.60546 0
M  V30 4669 C 458.383 1.86199 -0.26672 0
M  V30 4670 O 457.741 1.64513 0.761918 0
M  V30 4671 C 457.789 2.43818 -2.65678 0
M  V30 4672 O 456.893 3.46916 -2.22987 0
M  V30 4673 H 456.234 0.388784 -0.538277 0
M  V30 4674 H 458.764 0.634896 -1.945 0
M  V30 4675 H 458.774 2.89973 -2.87018 0
M  V30 4676 H 457.449 2.03222 -3.62869 0
M  V30 4677 H 456.026 3.06864 -2.11869 0
M  V30 4678 N 458.211 1.37122 0.776871 0
M  V30 4679 C 459.457 1.32243 1.53752 0
M  V30 4680 C 459.79 -0.0944745 1.9397 0
M  V30 4681 O 459.065 -1.05068 1.6368 0
M  V30 4682 C 459.348 2.25681 2.80607 0
M  V30 4683 C 459.201 3.76127 2.46676 0
M  V30 4684 C 460.52 2.17657 3.82509 0
M  V30 4685 H 457.639 0.481704 0.557791 0
M  V30 4686 H 460.281 1.6778 0.891612 0
M  V30 4687 H 458.431 1.95505 3.35723 0
M  V30 4688 H 460.103 4.16877 1.97513 0
M  V30 4689 H 458.346 3.94946 1.79443 0
M  V30 4690 H 459.017 4.36933 3.37333 0
M  V30 4691 H 461.493 2.44245 3.36873 0
M  V30 4692 H 460.369 2.85185 4.69 0
M  V30 4693 H 460.63 1.16785 4.26396 0
M  V30 4694 N 459.689 -1.00246 1.21608 0
M  V30 4695 C 460.619 -2.10921 1.00172 0
M  V30 4696 C 461.6 -1.69938 -0.0741587 0
M  V30 4697 O 462.785 -1.94009 0.0861753 0
M  V30 4698 C 459.915 -3.42618 0.568355 0
M  V30 4699 C 458.869 -3.97407 1.58909 0
M  V30 4700 C 458.195 -5.25038 1.01187 0
M  V30 4701 C 459.495 -4.2918 2.97661 0
M  V30 4702 H 461.189 -2.29112 1.92739 0
M  V30 4703 H 458.735 -1.10101 0.928102 0
M  V30 4704 H 460.688 -4.19444 0.405555 0
M  V30 4705 H 459.412 -3.24227 -0.392961 0
M  V30 4706 H 458.071 -3.22703 1.73949 0
M  V30 4707 H 457.719 -5.02982 0.0421965 0
M  V30 4708 H 457.419 -5.62661 1.6937 0
M  V30 4709 H 458.943 -6.04507 0.860448 0
M  V30 4710 H 460.357 -4.96839 2.86049 0
M  V30 4711 H 458.754 -4.77952 3.6288 0
M  V30 4712 H 459.824 -3.3735 3.48315 0
M  V30 4713 N 461.167 -1.02423 -1.1978 0
M  V30 4714 C 462.395 -0.737456 -1.93311 0
M  V30 4715 C 462.81 0.703023 -1.75223 0
M  V30 4716 O 462.167 1.47761 -1.07112 0
M  V30 4717 C 462.218 -1.0733 -3.45199 0
M  V30 4718 O 461.939 -2.4572 -3.62702 0
M  V30 4719 C 463.44 -0.80866 -4.35862 0
M  V30 4720 H 460.66 -0.2702 -0.614193 0
M  V30 4721 H 463.204 -1.36747 -1.52054 0
M  V30 4722 H 461.359 -0.488545 -3.84307 0
M  V30 4723 H 461.773 -2.58081 -4.56612 0
M  V30 4724 H 463.247 -1.09365 -5.41057 0
M  V30 4725 H 463.724 0.257025 -4.38447 0
M  V30 4726 H 464.33 -1.37592 -4.02428 0
M  V30 4727 N 462.645 1.35699 -0.801477 0
M  V30 4728 C 463.891 1.99208 -0.380022 0
M  V30 4729 C 464.224 1.63445 1.04878 0
M  V30 4730 O 463.499 0.895223 1.72673 0
M  V30 4731 C 463.782 3.55755 -0.557708 0
M  V30 4732 C 463.635 4.01332 -2.03107 0
M  V30 4733 C 464.954 4.40096 0.0197968 0
M  V30 4734 H 462.073 0.723667 -0.139552 0
M  V30 4735 H 464.715 1.60928 -1.01006 0
M  V30 4736 H 462.865 3.88494 -0.0213741 0
M  V30 4737 H 464.537 3.79026 -2.62939 0
M  V30 4738 H 462.78 3.52429 -2.52936 0
M  V30 4739 H 463.451 5.10234 -2.1063 0
M  V30 4740 H 465.927 4.13786 -0.438179 0
M  V30 4741 H 464.803 5.48735 -0.134477 0
M  V30 4742 H 465.064 4.2786 1.11303 0
M  V30 4743 N 464.123 0.554532 1.47522 0
M  V30 4744 C 465.053 -0.182974 2.32782 0
M  V30 4745 C 466.034 -0.911377 1.43624 0
M  V30 4746 O 467.219 -0.892366 1.72483 0
M  V30 4747 C 464.349 -1.21513 3.25349 0
M  V30 4748 C 463.303 -0.603355 4.23726 0
M  V30 4749 C 462.629 -1.73995 5.05598 0
M  V30 4750 C 463.929 0.441121 5.20434 0
M  V30 4751 H 465.623 0.52882 2.94693 0
M  V30 4752 H 463.169 0.255759 1.41711 0
M  V30 4753 H 465.122 -1.73922 3.83835 0
M  V30 4754 H 463.846 -1.95683 2.61487 0
M  V30 4755 H 462.505 -0.10059 3.66462 0
M  V30 4756 H 462.153 -2.47063 4.38143 0
M  V30 4757 H 461.853 -1.3364 5.72201 0
M  V30 4758 H 463.377 -2.26735 5.66942 0
M  V30 4759 H 464.791 0.00319931 5.733 0
M  V30 4760 H 463.188 0.763402 5.95224 0
M  V30 4761 H 464.258 1.33799 4.66075 0
M  V30 4762 N 465.601 -1.54893 0.290851 0
M  V30 4763 C 466.551 -2.19838 -0.604599 0
M  V30 4764 C 467.535 -1.16805 -1.10659 0
M  V30 4765 O 468.727 -1.42562 -1.04905 0
M  V30 4766 C 465.856 -2.93497 -1.78086 0
M  V30 4767 C 464.942 -4.03835 -1.29531 0
M  V30 4768 N 465.333 -5.03047 -0.527024 0
M  V30 4769 C 463.631 -4.17192 -1.57693 0
M  V30 4770 C 464.332 -5.81074 -0.269728 0
M  V30 4771 N 463.308 -5.36966 -0.846651 0
M  V30 4772 H 467.11 -2.93898 -0.00995032 0
M  V30 4773 H 464.624 -1.62121 0.0951353 0
M  V30 4774 H 466.621 -3.38484 -2.43381 0
M  V30 4775 H 465.281 -2.2095 -2.37931 0
M  V30 4776 H 466.292 -5.17611 -0.172872 0
M  V30 4777 H 462.969 -3.55845 -2.18359 0
M  V30 4778 H 464.359 -6.71005 0.346643 0
M  V30 4779 N 467.08 -0.0183926 -1.57589 0
M  V30 4780 C 468.012 0.995557 -2.06449 0
M  V30 4781 C 469.025 1.29556 -0.985849 0
M  V30 4782 O 470.214 1.2621 -1.26227 0
M  V30 4783 C 467.314 2.32572 -2.46502 0
M  V30 4784 C 466.487 2.21245 -3.77319 0
M  V30 4785 C 465.546 3.37104 -4.04039 0
M  V30 4786 O 464.572 3.14468 -4.74445 0
M  V30 4787 N 465.774 4.60553 -3.53372 0
M  V30 4788 H 468.539 0.578746 -2.94059 0
M  V30 4789 H 466.1 0.168603 -1.6102 0
M  V30 4790 H 468.092 3.08887 -2.61478 0
M  V30 4791 H 466.662 2.65931 -1.64315 0
M  V30 4792 H 465.882 1.29723 -3.72244 0
M  V30 4793 H 467.17 2.10868 -4.63047 0
M  V30 4794 H 466.568 4.81839 -2.96391 0
M  V30 4795 H 465.125 5.34072 -3.73644 0
M  V30 4796 N 468.558 1.5553 0.254621 0
M  V30 4797 C 469.835 1.6774 1.00611 0
M  V30 4798 C 470.215 0.555993 2.03647 0
M  V30 4799 O 469.563 -0.441583 2.24193 0
M  V30 4800 C 469.773 3.07725 1.6464 0
M  V30 4801 C 471.121 3.66074 2.15116 0
M  V30 4802 O 472.145 3.10476 1.74595 0
M  V30 4803 O 471.004 4.63526 2.89493 0
M  V30 4804 H 468.098 0.681958 0.467828 0
M  V30 4805 H 470.644 1.67863 0.24902 0
M  V30 4806 H 469.416 3.80792 0.900734 0
M  V30 4807 H 469.039 3.1158 2.46989 0
M  V30 4808 N 470.036 -0.519951 1.48776 0
M  V30 4809 C 471.282 -1.27456 1.58514 0
M  V30 4810 C 471.637 -1.90634 0.260057 0
M  V30 4811 O 470.93 -1.76815 -0.738036 0
M  V30 4812 C 471.124 -2.37864 2.6675 0
M  V30 4813 C 470.953 -1.85509 4.09654 0
M  V30 4814 C 469.723 -1.67661 4.76674 0
M  V30 4815 C 471.921 -1.37783 4.955 0
M  V30 4816 N 469.903 -1.10037 6.03958 0
M  V30 4817 C 471.274 -0.921714 6.1311 0
M  V30 4818 C 473.329 -1.26179 4.81646 0
M  V30 4819 C 472.032 -0.361057 7.18393 0
M  V30 4820 C 474.058 -0.715121 5.8706 0
M  V30 4821 C 473.42 -0.269132 7.03886 0
M  V30 4822 H 469.519 -0.457049 0.634531 0
M  V30 4823 H 472.103 -0.585073 1.85701 0
M  V30 4824 H 470.274 -3.04296 2.41367 0
M  V30 4825 H 472.006 -3.04901 2.66116 0
M  V30 4826 H 468.761 -1.91478 4.33166 0
M  V30 4827 H 469.185 -0.832067 6.71867 0
M  V30 4828 H 473.827 -1.59263 3.91657 0
M  V30 4829 H 471.545 -0.0179127 8.08098 0
M  V30 4830 H 475.131 -0.628376 5.78397 0
M  V30 4831 H 474.011 0.14729 7.84062 0
M  V30 4832 N 471.514 -1.37532 -0.769588 0
M  V30 4833 C 472.444 -1.36172 -1.89682 0
M  V30 4834 C 473.425 -0.23001 -1.68538 0
M  V30 4835 O 474.61 -0.43069 -1.89364 0
M  V30 4836 C 471.74 -1.1701 -3.26995 0
M  V30 4837 C 470.694 -2.27216 -3.62708 0
M  V30 4838 C 470.02 -1.93174 -4.98586 0
M  V30 4839 C 471.32 -3.6941 -3.69234 0
M  V30 4840 H 473.014 -2.30499 -1.91078 0
M  V30 4841 H 470.56 -1.10953 -0.917902 0
M  V30 4842 H 472.513 -1.14688 -4.05493 0
M  V30 4843 H 471.237 -0.191395 -3.26039 0
M  V30 4844 H 469.896 -2.28697 -2.86519 0
M  V30 4845 H 469.544 -0.938281 -4.94171 0
M  V30 4846 H 469.244 -2.66973 -5.23449 0
M  V30 4847 H 470.768 -1.92443 -5.79481 0
M  V30 4848 H 472.182 -3.70047 -4.37879 0
M  V30 4849 H 470.579 -4.4228 -4.05597 0
M  V30 4850 H 471.649 -4.0288 -2.69844 0
M  V30 4851 N 472.992 0.995999 -1.22138 0
M  V30 4852 C 473.94 2.10673 -0.985876 0
M  V30 4853 C 474.934 1.69255 0.0699553 0
M  V30 4854 O 476.14 1.79812 -0.0822176 0
M  V30 4855 H 472.515 0.688865 -0.30161 0
M  V30 4856 H 474.486 2.27711 -1.92848 0
M  V30 4857 C 473.235 3.42881 -0.576909 0
M  V30 4858 H 472.558 3.75191 -1.38101 0
M  V30 4859 H 473.998 4.21589 -0.451518 0
M  V30 4860 C 472.457 3.29265 0.713196 0
M  V30 4861 O 472.987 3.60777 1.76643 0
M  V30 4862 N 471.193 2.82456 0.683162 0
M  V30 4863 H 470.74 2.5701 -0.174242 0
M  V30 4864 H 470.698 2.73727 1.54663 0
M  V30 4865 N 474.47 1.03057 1.19235 0
M  V30 4866 C 475.718 0.726581 1.88587 0
M  V30 4867 C 476.039 -0.747227 1.80115 0
M  V30 4868 O 475.309 -1.53849 1.21274 0
M  V30 4869 H 473.889 0.265768 0.698124 0
M  V30 4870 H 476.551 1.30516 1.44746 0
M  V30 4871 H 475.647 1.0224 2.94879 0
M  V30 4872 N 475.948 -1.35272 0.808662 0
M  V30 4873 C 476.895 -2.29764 0.218482 0
M  V30 4874 C 477.865 -1.52911 -0.648652 0
M  V30 4875 O 479.05 -1.81341 -0.593297 0
M  V30 4876 C 476.19 -3.39388 -0.625282 0
M  V30 4877 C 475.303 -4.31202 0.262516 0
M  V30 4878 C 474.438 -5.27919 -0.589451 0
M  V30 4879 C 473.477 -6.11371 0.298617 0
M  V30 4880 N 472.614 -7.0022 -0.513443 0
M  V30 4881 H 477.454 -2.79645 1.02968 0
M  V30 4882 H 474.991 -1.37629 0.519303 0
M  V30 4883 H 476.949 -4.01615 -1.12966 0
M  V30 4884 H 475.579 -2.90777 -1.40173 0
M  V30 4885 H 474.631 -3.69962 0.885013 0
M  V30 4886 H 475.943 -4.89748 0.945971 0
M  V30 4887 H 475.097 -5.95529 -1.15888 0
M  V30 4888 H 473.836 -4.69875 -1.30647 0
M  V30 4889 H 472.841 -5.42707 0.880301 0
M  V30 4890 H 474.066 -6.71494 1.01352 0
M  V30 4891 H 472.012 -6.44662 -1.21439 0
M  V30 4892 H 471.929 -7.55917 0.111922 0
M  V30 4893 H 473.197 -7.72175 -1.06608 0
M  V30 4894 N 477.426 -0.562348 -1.47226 0
M  V30 4895 C 478.336 0.185466 -2.33866 0
M  V30 4896 C 479.352 0.906713 -1.48508 0
M  V30 4897 O 480.528 0.874458 -1.81425 0
M  V30 4898 C 477.593 1.19904 -3.25306 0
M  V30 4899 C 476.654 0.484669 -4.26555 0
M  V30 4900 C 475.887 1.44996 -5.13626 0
M  V30 4901 O 476.11 2.68515 -5.03245 0
M  V30 4902 O 475.044 0.971642 -5.94006 0
M  V30 4903 H 478.87 -0.525361 -2.99121 0
M  V30 4904 H 476.455 -0.322916 -1.45868 0
M  V30 4905 H 478.337 1.78399 -3.81774 0
M  V30 4906 H 477.012 1.8917 -2.62672 0
M  V30 4907 H 475.919 -0.141605 -3.73832 0
M  V30 4908 H 477.252 -0.166634 -4.91918 0
M  V30 4909 N 478.904 1.54736 -0.299062 0
M  V30 4910 C 480.134 2.04215 0.312992 0
M  V30 4911 C 480.542 1.17596 1.48215 0
M  V30 4912 O 479.885 0.193835 1.82674 0
M  V30 4913 C 479.947 3.49696 0.833862 0
M  V30 4914 C 479.611 4.56518 -0.20977 0
M  V30 4915 C 480.608 5.09442 -1.03756 0
M  V30 4916 C 478.293 5.01073 -0.35091 0
M  V30 4917 C 480.287 6.05459 -1.99244 0
M  V30 4918 C 477.974 5.9691 -1.30924 0
M  V30 4919 C 478.972 6.48987 -2.1285 0
M  V30 4920 O 478.66 7.42947 -3.07059 0
M  V30 4921 H 478.392 0.672128 0.0722494 0
M  V30 4922 H 480.946 2.00718 -0.436043 0
M  V30 4923 H 479.176 3.5051 1.63339 0
M  V30 4924 H 480.865 3.82381 1.36159 0
M  V30 4925 H 481.631 4.75816 -0.939376 0
M  V30 4926 H 477.51 4.60168 0.276813 0
M  V30 4927 H 481.054 6.46031 -2.63229 0
M  V30 4928 H 476.951 6.29953 -1.40815 0
M  V30 4929 H 477.719 7.60743 -3.02015 0
M  V30 4930 N 480.382 0.0267497 1.57577 0
M  V30 4931 C 481.329 -0.955894 2.10075 0
M  V30 4932 C 482.299 -1.32453 1.00226 0
M  V30 4933 O 483.484 -1.41826 1.27632 0
M  V30 4934 C 480.624 -2.2338 2.6305 0
M  V30 4935 C 479.737 -1.92183 3.86898 0
M  V30 4936 C 478.872 -3.14251 4.28275 0
M  V30 4937 C 477.911 -2.78862 5.44888 0
M  V30 4938 N 477.048 -3.93548 5.81433 0
M  V30 4939 H 481.888 -0.501303 2.93753 0
M  V30 4940 H 479.425 -0.235847 1.45197 0
M  V30 4941 H 481.383 -2.98124 2.91853 0
M  V30 4942 H 480.013 -2.6646 1.82205 0
M  V30 4943 H 479.065 -1.07692 3.64838 0
M  V30 4944 H 480.377 -1.62117 4.7172 0
M  V30 4945 H 479.531 -3.97317 4.58502 0
M  V30 4946 H 478.27 -3.47476 3.42215 0
M  V30 4947 H 477.275 -1.94208 5.14357 0
M  V30 4948 H 478.5 -2.46855 6.32645 0
M  V30 4949 H 476.446 -4.2662 4.98328 0
M  V30 4950 H 476.363 -3.67098 6.6089 0
M  V30 4951 H 477.631 -4.77325 6.16264 0
M  V30 4952 N 481.861 -1.55662 -0.24637 0
M  V30 4953 C 483.101 -1.79283 -0.981685 0
M  V30 4954 C 483.465 -0.596356 -1.82504 0
M  V30 4955 O 484.666 -0.711342 -2.59217 0
M  V30 4956 C 482.937 -3.07648 -1.819 0
M  V30 4957 S 484.496 -3.52491 -2.61334 0
M  V30 4958 H 481.314 -0.629676 -0.330196 0
M  V30 4959 H 483.916 -1.93901 -0.249498 0
M  V30 4960 H 482.62 -3.92794 -1.18915 0
M  V30 4961 H 482.151 -2.95768 -2.59393 0
M  V30 4962 H 484.166 -3.13866 -3.84321 0
M  V30 4963 N 483.339 0.512053 -1.4905 0
M  V30 4964 C 484.286 1.6148 -1.64902 0
M  V30 4965 C 485.256 1.58687 -0.490673 0
M  V30 4966 O 486.441 1.76842 -0.71636 0
M  V30 4967 C 483.581 2.99676 -1.71139 0
M  V30 4968 C 482.694 3.12568 -2.98203 0
M  V30 4969 C 481.829 4.4143 -2.95487 0
M  V30 4970 C 480.868 4.47916 -4.17179 0
M  V30 4971 N 480.005 5.68191 -4.12437 0
M  V30 4972 H 484.845 1.47271 -2.59066 0
M  V30 4973 H 482.382 0.716713 -1.28459 0
M  V30 4974 H 484.34 3.79761 -1.72736 0
M  V30 4975 H 482.97 3.12614 -0.804508 0
M  V30 4976 H 482.022 2.25618 -3.06269 0
M  V30 4977 H 483.334 3.1322 -3.88194 0
M  V30 4978 H 482.488 5.29825 -2.95585 0
M  V30 4979 H 481.227 4.43326 -2.03256 0
M  V30 4980 H 480.232 3.57925 -4.17337 0
M  V30 4981 H 481.457 4.47744 -5.1059 0
M  V30 4982 H 479.403 5.7095 -3.23036 0
M  V30 4983 H 479.32 5.70413 -4.96151 0
M  V30 4984 H 480.588 6.58823 -4.16621 0
M  V30 4985 N 484.817 1.37938 0.762283 0
M  V30 4986 C 486.063 1.33866 1.52341 0
M  V30 4987 C 486.396 -0.0738961 1.94059 0
M  V30 4988 O 485.671 -1.03326 1.64785 0
M  V30 4989 C 485.954 2.28644 2.78197 0
M  V30 4990 C 485.807 3.78722 2.42672 0
M  V30 4991 C 487.126 2.21702 3.80179 0
M  V30 4992 H 484.245 0.487593 0.55265 0
M  V30 4993 H 486.887 1.68717 0.873767 0
M  V30 4994 H 485.037 1.99055 3.33631 0
M  V30 4995 H 486.709 4.18948 1.93081 0
M  V30 4996 H 484.952 3.96827 1.75244 0
M  V30 4997 H 485.623 4.40486 3.3268 0
M  V30 4998 H 488.099 2.47805 3.34263 0
M  V30 4999 H 486.975 2.90143 4.65949 0
M  V30 5000 H 487.236 1.21301 4.25133 0
M  V30 5001 N 486.295 -0.989507 1.22664 0
M  V30 5002 C 487.52 -1.77031 1.08051 0
M  V30 5003 C 487.945 -1.84535 -0.364483 0
M  V30 5004 O 487.303 -1.3003 -1.2634 0
M  V30 5005 C 487.351 -3.18 1.70024 0
M  V30 5006 O 486.455 -4.01161 0.956216 0
M  V30 5007 H 485.796 -0.545008 0.379292 0
M  V30 5008 H 488.326 -1.24277 1.62531 0
M  V30 5009 H 488.336 -3.68616 1.74888 0
M  V30 5010 H 487.011 -3.11853 2.75174 0
M  V30 5011 H 485.588 -3.59687 0.98384 0
M  V30 5012 N 487.773 -1.03688 -1.18687 0
M  V30 5013 C 488.721 -0.618292 -2.24232 0
M  V30 5014 C 489.715 0.353045 -1.6568 0
M  V30 5015 O 490.921 0.220749 -1.78641 0
M  V30 5016 H 487.296 -0.181711 -0.729716 0
M  V30 5017 H 489.267 -1.51893 -2.56848 0
M  V30 5018 C 488.016 0.00677342 -3.47699 0
M  V30 5019 H 487.339 -0.731692 -3.93047 0
M  V30 5020 H 488.779 0.262492 -4.23187 0
M  V30 5021 C 487.238 1.25572 -3.12623 0
M  V30 5022 O 487.768 2.34691 -3.26011 0
M  V30 5023 N 485.974 1.14755 -2.66982 0
M  V30 5024 H 485.521 0.259601 -2.56289 0
M  V30 5025 H 485.479 1.98412 -2.43885 0
M  V30 5026 N 489.251 1.34841 -0.815825 0
M  V30 5027 C 490.198 2.29644 -0.230664 0
M  V30 5028 C 491.168 1.53253 0.640533 0
M  V30 5029 O 492.353 1.81653 0.583672 0
M  V30 5030 C 489.493 3.39715 0.607275 0
M  V30 5031 C 488.606 4.31056 -0.28538 0
M  V30 5032 C 487.741 5.28225 0.561446 0
M  V30 5033 C 486.78 6.11204 -0.331035 0
M  V30 5034 N 485.917 7.00483 0.476302 0
M  V30 5035 H 490.757 2.79095 -1.0445 0
M  V30 5036 H 488.294 1.37351 -0.526595 0
M  V30 5037 H 490.252 4.02208 1.10835 0
M  V30 5038 H 488.882 2.91517 1.38629 0
M  V30 5039 H 487.934 3.69487 -0.904621 0
M  V30 5040 H 489.246 4.89239 -0.97193 0
M  V30 5041 H 488.4 5.96135 1.12728 0
M  V30 5042 H 487.139 4.70562 1.28153 0
M  V30 5043 H 486.144 5.42232 -0.909069 0
M  V30 5044 H 487.369 6.70947 -1.04912 0
M  V30 5045 H 485.315 6.45296 1.18019 0
M  V30 5046 H 485.232 7.55847 -0.152008 0
M  V30 5047 H 486.5 7.7273 1.02512 0
M  V30 5048 N 490.729 0.570148 1.46925 0
M  V30 5049 C 491.692 -0.159933 2.28641 0
M  V30 5050 C 492.692 -0.830638 1.37685 0
M  V30 5051 O 493.882 -0.684516 1.60187 0
M  V30 5052 C 491.014 -1.2354 3.17727 0
M  V30 5053 H 492.207 0.558035 2.94662 0
M  V30 5054 H 489.76 0.327603 1.52828 0
M  V30 5055 H 490.495 -1.98535 2.56426 0
M  V30 5056 H 490.28 -0.759125 3.84681 0
M  V30 5057 H 491.77 -1.74782 3.79264 0
M  V30 5058 N 492.207 -1.54576 0.307264 0
M  V30 5059 C 493.137 -2.26708 -0.55907 0
M  V30 5060 C 494.118 -1.26893 -1.1328 0
M  V30 5061 O 495.303 -1.55677 -1.16097 0
M  V30 5062 C 492.433 -3.01259 -1.72801 0
M  V30 5063 C 491.387 -4.08275 -1.28435 0
M  V30 5064 C 490.713 -4.70575 -2.53895 0
M  V30 5065 C 492.013 -5.2068 -0.411038 0
M  V30 5066 H 493.707 -2.9937 0.042576 0
M  V30 5067 H 491.253 -1.43983 0.0219173 0
M  V30 5068 H 493.206 -3.50444 -2.34023 0
M  V30 5069 H 491.93 -2.26187 -2.356 0
M  V30 5070 H 490.589 -3.59949 -0.695161 0
M  V30 5071 H 490.237 -3.92136 -3.15021 0
M  V30 5072 H 489.937 -5.42854 -2.24908 0
M  V30 5073 H 491.461 -5.22527 -3.15908 0
M  V30 5074 H 492.875 -5.65721 -0.929097 0
M  V30 5075 H 491.272 -5.99716 -0.214664 0
M  V30 5076 H 492.342 -4.81629 0.562287 0
M  V30 5077 N 493.685 -0.035106 -1.57561 0
M  V30 5078 C 495.096 0.502885 -1.798 0
M  V30 5079 C 495.447 1.71892 -0.945921 0
M  V30 5080 O 494.572 2.15822 -0.157991 0
M  V30 5081 C 495.167 0.919097 -3.26095 0
M  V30 5082 C 493.726 1.40216 -3.49308 0
M  V30 5083 C 492.873 0.369709 -2.74824 0
M  V30 5084 H 495.824 -0.261102 -1.56537 0
M  V30 5085 H 495.845 1.78308 -3.36135 0
M  V30 5086 H 495.357 0.0338526 -3.88085 0
M  V30 5087 H 493.458 2.30714 -2.92578 0
M  V30 5088 H 493.571 1.40541 -4.58023 0
M  V30 5089 H 491.935 0.839113 -2.40481 0
M  V30 5090 H 492.718 -0.507173 -3.39533 0
M  V30 5091 N 495.163 1.55791 0.238111 0
M  V30 5092 C 496.126 1.90239 1.27835 0
M  V30 5093 C 497.126 0.779552 1.4064 0
M  V30 5094 O 498.316 1.04747 1.3919 0
M  V30 5095 C 495.448 2.13859 2.65475 0
M  V30 5096 H 496.641 2.83262 0.985034 0
M  V30 5097 H 494.194 1.48818 0.477799 0
M  V30 5098 H 494.929 1.23334 2.99932 0
M  V30 5099 H 494.714 2.95643 2.57561 0
M  V30 5100 H 496.204 2.41664 3.40571 0
M  V30 5101 N 496.642 -0.504142 1.49319 0
M  V30 5102 C 498.053 -1.08572 1.51885 0
M  V30 5103 C 498.404 -1.93842 0.303255 0
M  V30 5104 O 497.529 -2.0828 -0.58724 0
M  V30 5105 C 498.124 -1.97574 2.75227 0
M  V30 5106 C 496.683 -2.509 2.80581 0
M  V30 5107 C 495.83 -1.28447 2.45757 0
M  V30 5108 H 498.781 -0.288194 1.56061 0
M  V30 5109 H 498.802 -2.82219 2.55211 0
M  V30 5110 H 498.314 -1.35486 3.63683 0
M  V30 5111 H 496.415 -3.16636 1.96398 0
M  V30 5112 H 496.528 -2.88268 3.82673 0
M  V30 5113 H 494.892 -1.60868 1.97468 0
M  V30 5114 H 495.675 -0.68072 3.36483 0
M  V30 5115 N 498.12 -1.38341 -0.754957 0
M  V30 5116 C 499.369 -1.33791 -1.5094 0
M  V30 5117 C 499.682 0.0699267 -1.95475 0
M  V30 5118 O 500.888 0.237956 -2.70455 0
M  V30 5119 C 499.344 -2.34934 -2.72643 0
M  V30 5120 C 498.952 -3.81332 -2.35138 0
M  V30 5121 C 500.696 -2.39425 -3.50536 0
M  V30 5122 C 498.603 -4.74164 -3.53444 0
M  V30 5123 H 497.533 -0.497314 -0.566741 0
M  V30 5124 H 500.184 -1.63888 -0.825403 0
M  V30 5125 H 498.566 -1.97878 -3.43017 0
M  V30 5126 H 499.74 -4.27319 -1.7244 0
M  V30 5127 H 498.055 -3.79946 -1.70382 0
M  V30 5128 H 500.652 -3.0598 -4.38498 0
M  V30 5129 H 500.995 -1.41278 -3.91594 0
M  V30 5130 H 501.528 -2.75274 -2.87174 0
M  V30 5131 H 498.267 -5.73501 -3.17453 0
M  V30 5132 H 497.787 -4.3287 -4.15191 0
M  V30 5133 H 499.466 -4.92111 -4.20043 0
M  V30 5134 N 499.598 0.982988 -1.23187 0
M  V30 5135 C 500.508 2.10907 -1.02739 0
M  V30 5136 C 501.524 1.73979 0.0273188 0
M  V30 5137 O 502.7 2.00702 -0.16757 0
M  V30 5138 C 499.765 3.41142 -0.618304 0
M  V30 5139 C 498.826 3.92112 -1.74777 0
M  V30 5140 C 498.059 5.16131 -1.3581 0
M  V30 5141 O 498.282 5.6989 -0.241201 0
M  V30 5142 O 497.216 5.61103 -2.17824 0
M  V30 5143 H 501.042 2.31046 -1.97108 0
M  V30 5144 H 498.627 1.09284 -1.01869 0
M  V30 5145 H 500.509 4.19488 -0.400982 0
M  V30 5146 H 499.184 3.2234 0.296421 0
M  V30 5147 H 498.091 3.14895 -2.0197 0
M  V30 5148 H 499.424 4.15364 -2.64071 0
M  V30 5149 N 501.076 1.04316 1.18135 0
M  V30 5150 C 502.023 0.636398 2.21853 0
M  V30 5151 C 502.993 -0.357039 1.62217 0
M  V30 5152 O 504.178 -0.250453 1.89149 0
M  V30 5153 C 501.318 0.00812779 3.45099 0
M  V30 5154 C 500.431 1.04933 4.19062 0
M  V30 5155 C 499.566 0.389313 5.29771 0
M  V30 5156 C 498.605 1.41544 5.9551 0
M  V30 5157 N 497.742 0.78021 6.97751 0
M  V30 5158 H 502.582 1.52536 2.56002 0
M  V30 5159 H 500.119 0.76304 1.25762 0
M  V30 5160 H 502.077 -0.373497 4.15525 0
M  V30 5161 H 500.707 -0.844336 3.11562 0
M  V30 5162 H 499.759 1.54888 3.47439 0
M  V30 5163 H 501.071 1.82862 4.64072 0
M  V30 5164 H 500.225 -0.0463805 6.06682 0
M  V30 5165 H 498.964 -0.422038 4.8587 0
M  V30 5166 H 497.969 1.86124 5.17337 0
M  V30 5167 H 499.194 2.22854 6.41493 0
M  V30 5168 H 497.14 -0.0107899 6.55999 0
M  V30 5169 H 497.057 1.49716 7.41027 0
M  V30 5170 H 498.325 0.368996 7.78626 0
M  V30 5171 N 502.554 -1.34406 0.822964 0
M  V30 5172 C 503.782 -2.02508 0.424039 0
M  V30 5173 C 504.197 -1.61975 -0.970022 0
M  V30 5174 O 503.554 -0.825228 -1.62777 0
M  V30 5175 C 503.605 -3.57789 0.516657 0
M  V30 5176 O 503.326 -3.96853 1.85577 0
M  V30 5177 C 504.827 -4.43157 0.112637 0
M  V30 5178 H 502.047 -0.649063 0.170173 0
M  V30 5179 H 504.591 -1.7168 1.11113 0
M  V30 5180 H 502.746 -3.87207 -0.122353 0
M  V30 5181 H 503.16 -4.91538 1.83005 0
M  V30 5182 H 504.634 -5.51527 0.228526 0
M  V30 5183 H 505.111 -4.28939 -0.943837 0
M  V30 5184 H 505.717 -4.19067 0.725449 0
M  V30 5185 N 504.032 -0.577932 -1.46621 0
M  V30 5186 C 505.281 -0.0594281 -2.01612 0
M  V30 5187 C 505.594 1.30663 -1.45556 0
M  V30 5188 O 506.8 1.91621 -1.92337 0
M  V30 5189 C 505.256 -0.0556666 -3.59857 0
M  V30 5190 C 504.864 -1.41975 -4.24908 0
M  V30 5191 C 506.608 0.409143 -4.22524 0
M  V30 5192 C 504.515 -1.37397 -5.75218 0
M  V30 5193 H 503.445 -0.0184469 -0.753774 0
M  V30 5194 H 506.096 -0.728869 -1.68404 0
M  V30 5195 H 504.478 0.679843 -3.90121 0
M  V30 5196 H 505.652 -2.17461 -4.0626 0
M  V30 5197 H 503.967 -1.82419 -3.74316 0
M  V30 5198 H 506.564 0.46211 -5.32699 0
M  V30 5199 H 506.907 1.42565 -3.91128 0
M  V30 5200 H 507.44 -0.272152 -3.96868 0
M  V30 5201 H 504.179 -2.36714 -6.11267 0
M  V30 5202 H 503.699 -0.661239 -5.96144 0
M  V30 5203 H 505.378 -1.08484 -6.3784 0
M  V30 5204 N 505.51 1.54411 -0.315457 0
M  V30 5205 C 506.735 2.05299 0.294496 0
M  V30 5206 C 507.16 1.19052 1.4563 0
M  V30 5207 O 506.518 0.197804 1.80218 0
M  V30 5208 C 506.566 3.5345 0.714549 0
M  V30 5209 O 505.67 3.70175 1.81781 0
M  V30 5210 H 505.011 0.661743 0.0547019 0
M  V30 5211 H 507.541 1.99327 -0.461508 0
M  V30 5212 H 507.551 3.9557 0.999426 0
M  V30 5213 H 506.226 4.1568 -0.135244 0
M  V30 5214 H 504.803 3.3996 1.53236 0
M  V30 5215 N 506.988 0.0434614 1.5754 0
M  V30 5216 C 507.935 -0.93356 2.11077 0
M  V30 5217 C 508.905 -1.31383 1.01626 0
M  V30 5218 O 510.09 -1.40465 1.29129 0
M  V30 5219 C 507.23 -2.20578 2.65404 0
M  V30 5220 C 506.343 -1.88068 3.88914 0
M  V30 5221 C 505.478 -3.09691 4.31584 0
M  V30 5222 C 504.517 -2.73067 5.47815 0
M  V30 5223 N 503.654 -3.87359 5.85574 0
M  V30 5224 H 508.494 -0.470118 2.94268 0
M  V30 5225 H 506.031 -0.220434 1.45439 0
M  V30 5226 H 507.989 -2.95011 2.94999 0
M  V30 5227 H 506.619 -2.64513 1.85021 0
M  V30 5228 H 505.671 -1.03816 3.6596 0
M  V30 5229 H 506.983 -1.57104 4.73413 0
M  V30 5230 H 506.137 -3.92431 4.62691 0
M  V30 5231 H 504.876 -3.43827 3.45882 0
M  V30 5232 H 503.881 -1.88742 5.16388 0
M  V30 5233 H 505.106 -2.40131 6.35227 0
M  V30 5234 H 503.052 -4.21311 5.02825 0
M  V30 5235 H 502.969 -3.60068 6.64746 0
M  V30 5236 H 504.237 -4.70761 6.21292 0
M  V30 5237 N 508.466 -1.55915 -0.229846 0
M  V30 5238 C 509.429 -1.90914 -1.26824 0
M  V30 5239 C 510.429 -0.786999 -1.40225 0
M  V30 5240 O 511.619 -1.05484 -1.38632 0
M  V30 5241 C 508.751 -2.15264 -2.64337 0
M  V30 5242 H 509.944 -2.8378 -0.969998 0
M  V30 5243 H 507.497 -1.49069 -0.4699 0
M  V30 5244 H 508.232 -1.24923 -2.99274 0
M  V30 5245 H 508.017 -2.97005 -2.55989 0
M  V30 5246 H 509.507 -2.43467 -3.39284 0
M  V30 5247 N 509.944 0.496216 -1.49584 0
M  V30 5248 C 510.891 1.59722 -1.66606 0
M  V30 5249 C 511.861 1.58158 -0.507477 0
M  V30 5250 O 513.046 1.76072 -0.735076 0
M  V30 5251 C 510.186 2.97844 -1.74308 0
M  V30 5252 C 509.299 3.09388 -3.01502 0
M  V30 5253 C 508.434 4.38271 -3.00153 0
M  V30 5254 C 507.473 4.43466 -4.21906 0
M  V30 5255 N 506.61 5.63784 -4.1844 0
M  V30 5256 H 511.45 1.44515 -2.60613 0
M  V30 5257 H 508.987 0.703048 -1.29212 0
M  V30 5258 H 510.945 3.77907 -1.76754 0
M  V30 5259 H 509.575 3.11743 -0.837619 0
M  V30 5260 H 508.627 2.22357 -3.08645 0
M  V30 5261 H 509.939 3.09085 -3.91494 0
M  V30 5262 H 509.093 5.2666 -3.01188 0
M  V30 5263 H 507.832 4.41146 -2.07947 0
M  V30 5264 H 506.837 3.53478 -4.21109 0
M  V30 5265 H 508.062 4.42303 -5.1531 0
M  V30 5266 H 506.008 5.67491 -3.29074 0
M  V30 5267 H 505.925 5.65118 -5.02173 0
M  V30 5268 H 507.193 6.54367 -4.23585 0
M  V30 5269 N 511.423 1.38739 0.74761 0
M  V30 5270 C 512.671 1.35007 1.50391 0
M  V30 5271 C 512.992 -0.0574274 1.94915 0
M  V30 5272 O 512.262 -1.00628 1.6808 0
M  V30 5273 H 510.842 0.496784 0.557866 0
M  V30 5274 H 513.504 1.73479 0.888319 0
M  V30 5275 H 512.6 2.00474 2.392 0
M  V30 5276 N 512.901 -0.976442 1.23707 0
M  V30 5277 C 513.833 -2.07212 0.979574 0
M  V30 5278 C 514.846 -1.6273 -0.0478528 0
M  V30 5279 O 516.035 -1.77506 0.18815 0
M  V30 5280 C 513.135 -3.35835 0.45479 0
M  V30 5281 C 512.308 -4.09268 1.54331 0
M  V30 5282 C 511.367 -5.16166 1.02271 0
M  V30 5283 O 510.393 -5.42827 1.71254 0
M  V30 5284 N 511.595 -5.80313 -0.147419 0
M  V30 5285 H 514.36 -2.29878 1.92292 0
M  V30 5286 H 511.921 -1.14343 1.14618 0
M  V30 5287 H 513.913 -4.04597 0.0914631 0
M  V30 5288 H 512.483 -3.10106 -0.394068 0
M  V30 5289 H 511.703 -3.34906 2.07923 0
M  V30 5290 H 512.991 -4.55095 2.27522 0
M  V30 5291 H 512.389 -5.61043 -0.724353 0
M  V30 5292 H 510.946 -6.50231 -0.451972 0
M  V30 5293 N 514.379 -1.04941 -1.1758 0
M  V30 5294 C 515.79 -0.784501 -1.69418 0
M  V30 5295 C 516.141 0.693625 -1.8353 0
M  V30 5296 O 515.266 1.53925 -1.52106 0
M  V30 5297 C 515.861 -1.41746 -3.07723 0
M  V30 5298 C 514.42 -1.20066 -3.56737 0
M  V30 5299 C 513.567 -1.5026 -2.33061 0
M  V30 5300 H 516.518 -1.21469 -1.02133 0
M  V30 5301 H 516.539 -0.825381 -3.7144 0
M  V30 5302 H 516.051 -2.49325 -2.9742 0
M  V30 5303 H 514.152 -0.144006 -3.72322 0
M  V30 5304 H 514.265 -1.90384 -4.39648 0
M  V30 5305 H 512.629 -0.922598 -2.37403 0
M  V30 5306 H 513.412 -2.58967 -2.25368 0
M  V30 5307 N 515.857 1.33968 -0.830081 0
M  V30 5308 C 517.273 1.51003 -0.516742 0
M  V30 5309 C 517.473 1.77286 0.957694 0
M  V30 5310 O 516.529 1.82797 1.74188 0
M  V30 5311 C 517.842 2.67036 -1.38247 0
M  V30 5312 C 519.39 2.80919 -1.38034 0
M  V30 5313 C 519.865 4.00004 -2.23071 0
M  V30 5314 N 521.356 4.07224 -2.20733 0
M  V30 5315 C 522.091 4.98541 -2.83275 0
M  V30 5316 N 521.587 5.95033 -3.54835 0
M  V30 5317 N 523.38 4.91469 -2.72791 0
M  V30 5318 H 515.531 1.15168 -1.78466 0
M  V30 5319 H 517.794 0.565443 -0.760906 0
M  V30 5320 H 517.5 2.54266 -2.42985 0
M  V30 5321 H 517.374 3.62226 -1.05225 0
M  V30 5322 H 519.761 2.93127 -0.340713 0
M  V30 5323 H 519.842 1.86517 -1.75057 0
M  V30 5324 H 519.486 3.88557 -3.27087 0
M  V30 5325 H 519.416 4.93634 -1.83394 0
M  V30 5326 H 521.907 3.38162 -1.68687 0
M  V30 5327 H 522.22 6.61357 -3.99784 0
M  V30 5328 H 520.565 5.95135 -3.58942 0
M  V30 5329 H 523.756 4.15048 -2.16456 0
M  V30 5330 H 523.929 5.62439 -3.21818 0
M  V30 5331 N 517.335 0.585699 1.46312 0
M  V30 5332 C 518.245 -0.148236 2.34131 0
M  V30 5333 C 519.261 -0.882972 1.49932 0
M  V30 5334 O 520.437 -0.845484 1.82794 0
M  V30 5335 C 517.502 -1.14714 3.27172 0
M  V30 5336 C 516.563 -0.416746 4.27272 0
M  V30 5337 C 515.796 -1.36806 5.15868 0
M  V30 5338 O 516.019 -2.60475 5.07454 0
M  V30 5339 O 514.953 -0.877018 5.95476 0
M  V30 5340 H 518.779 0.572882 2.98248 0
M  V30 5341 H 516.364 0.346082 1.45336 0
M  V30 5342 H 518.246 -1.72303 3.84564 0
M  V30 5343 H 516.921 -1.84967 2.65648 0
M  V30 5344 H 515.828 0.201061 3.73559 0
M  V30 5345 H 517.161 0.244872 4.9159 0
M  V30 5346 N 518.813 -1.54241 0.323641 0
M  V30 5347 C 520.224 -1.85975 -0.164405 0
M  V30 5348 C 520.575 -1.24529 -1.51615 0
M  V30 5349 O 519.7 -0.551351 -2.09258 0
M  V30 5350 C 520.295 -3.37424 -0.305091 0
M  V30 5351 C 518.854 -3.69107 -0.737358 0
M  V30 5352 C 518.001 -2.76942 0.140884 0
M  V30 5353 H 520.952 -1.49088 0.543922 0
M  V30 5354 H 520.973 -3.63147 -1.13598 0
M  V30 5355 H 520.485 -3.82116 0.678876 0
M  V30 5356 H 518.586 -3.29947 -1.73107 0
M  V30 5357 H 518.699 -4.76035 -0.541053 0
M  V30 5358 H 517.063 -2.51795 -0.383572 0
M  V30 5359 H 517.846 -3.24461 1.12162 0
M  V30 5360 N 520.291 -0.0518155 -1.57515 0
M  V30 5361 C 521.223 0.951542 -2.08515 0
M  V30 5362 C 522.236 1.27436 -1.01311 0
M  V30 5363 O 523.425 1.23504 -1.28876 0
M  V30 5364 C 520.525 2.27291 -2.5138 0
M  V30 5365 C 519.698 2.13191 -3.81927 0
M  V30 5366 C 518.757 3.28458 -4.11098 0
M  V30 5367 O 517.783 3.04334 -4.81009 0
M  V30 5368 N 518.985 4.52954 -3.63061 0
M  V30 5369 H 521.75 0.516242 -2.9522 0
M  V30 5370 H 519.311 0.13441 -1.61341 0
M  V30 5371 H 521.303 3.03272 -2.67971 0
M  V30 5372 H 519.873 2.62386 -1.69919 0
M  V30 5373 H 519.093 1.21798 -3.74912 0
M  V30 5374 H 520.381 2.00999 -4.67415 0
M  V30 5375 H 519.779 4.75444 -3.06545 0
M  V30 5376 H 518.336 5.26026 -3.84889 0
M  V30 5377 N 521.769 1.56035 0.221574 0
M  V30 5378 C 523.015 1.79312 0.947372 0
M  V30 5379 C 523.348 0.621453 1.83988 0
M  V30 5380 O 522.623 -0.379287 1.90766 0
M  V30 5381 C 522.906 3.1267 1.78633 0
M  V30 5382 C 522.759 4.40284 0.920312 0
M  V30 5383 C 524.078 3.4247 2.7641 0
M  V30 5384 H 521.197 0.652328 0.342982 0
M  V30 5385 H 523.839 1.88765 0.216244 0
M  V30 5386 H 521.989 3.04741 2.40967 0
M  V30 5387 H 523.661 4.60232 0.313718 0
M  V30 5388 H 521.904 4.33212 0.225734 0
M  V30 5389 H 522.575 5.30033 1.54171 0
M  V30 5390 H 525.051 3.50526 2.24211 0
M  V30 5391 H 523.927 4.3695 3.32213 0
M  V30 5392 H 524.188 2.64635 3.54148 0
M  V30 5393 N 523.247 -0.488276 1.49845 0
M  V30 5394 C 524.477 -1.26344 1.63465 0
M  V30 5395 C 524.885 -1.86637 0.310379 0
M  V30 5396 O 524.228 -1.69184 -0.715712 0
M  V30 5397 C 524.29 -2.42407 2.65479 0
M  V30 5398 C 523.954 -2.02886 4.09495 0
M  V30 5399 C 524.951 -1.56124 4.95904 0
M  V30 5400 C 522.636 -2.12131 4.55308 0
M  V30 5401 C 524.63 -1.19129 6.26169 0
M  V30 5402 C 522.317 -1.74747 5.85582 0
M  V30 5403 C 523.315 -1.28322 6.70837 0
M  V30 5404 O 523.003 -0.914491 7.98682 0
M  V30 5405 H 522.735 -0.388921 0.552916 0
M  V30 5406 H 525.289 -0.591288 1.96705 0
M  V30 5407 H 523.519 -3.12739 2.27445 0
M  V30 5408 H 525.208 -3.04409 2.68495 0
M  V30 5409 H 525.974 -1.48417 4.61733 0
M  V30 5410 H 521.853 -2.47217 3.89107 0
M  V30 5411 H 525.397 -0.828211 6.92666 0
M  V30 5412 H 521.294 -1.82109 6.19279 0
M  V30 5413 H 522.062 -1.04485 8.11804 0
M  V30 5414 N 524.725 -1.39134 -0.740242 0
M  V30 5415 C 525.953 -1.39334 -1.5295 0
M  V30 5416 C 526.368 0.0135008 -1.88795 0
M  V30 5417 O 525.725 0.983524 -1.5373 0
M  V30 5418 C 525.776 -2.2614 -2.82034 0
M  V30 5419 O 525.497 -3.61345 -2.47712 0
M  V30 5420 C 526.998 -2.34666 -3.76094 0
M  V30 5421 H 524.218 -0.476103 -0.472828 0
M  V30 5422 H 526.762 -1.82883 -0.9151 0
M  V30 5423 H 524.917 -1.86018 -3.39818 0
M  V30 5424 H 525.331 -4.07194 -3.30595 0
M  V30 5425 H 526.805 -2.99663 -4.63579 0
M  V30 5426 H 527.282 -1.36426 -4.17474 0
M  V30 5427 H 527.888 -2.75236 -3.2423 0
M  V30 5428 N 526.204 0.969867 -1.24223 0
M  V30 5429 C 527.134 2.08191 -1.05729 0
M  V30 5430 C 528.115 1.70075 0.0290765 0
M  V30 5431 O 529.3 1.93712 -0.137583 0
M  V30 5432 C 526.43 3.40991 -0.658995 0
M  V30 5433 C 525.384 3.93054 -1.69389 0
M  V30 5434 C 524.71 5.22171 -1.15072 0
M  V30 5435 C 526.01 4.21137 -3.08935 0
M  V30 5436 H 527.704 2.23921 -1.98746 0
M  V30 5437 H 525.25 1.07602 -0.956967 0
M  V30 5438 H 527.203 4.18221 -0.51662 0
M  V30 5439 H 525.927 3.25155 0.30686 0
M  V30 5440 H 524.586 3.17977 -1.82444 0
M  V30 5441 H 524.234 5.02694 -0.175539 0
M  V30 5442 H 523.934 5.57973 -1.84229 0
M  V30 5443 H 525.458 6.02013 -1.02042 0
M  V30 5444 H 526.872 4.8908 -2.99121 0
M  V30 5445 H 525.269 4.68163 -3.75425 0
M  V30 5446 H 526.339 3.27996 -3.57137 0
M  V30 5447 N 527.682 1.05563 1.17022 0
M  V30 5448 C 529.093 0.793475 1.69 0
M  V30 5449 C 529.444 -0.683882 1.83895 0
M  V30 5450 O 528.569 -1.53116 1.5292 0
M  V30 5451 C 529.164 1.43376 3.06967 0
M  V30 5452 C 527.723 1.21956 3.56095 0
M  V30 5453 C 526.87 1.51494 2.3226 0
M  V30 5454 H 529.821 1.22008 1.01487 0
M  V30 5455 H 529.842 0.845068 3.70997 0
M  V30 5456 H 529.354 2.50899 2.96093 0
M  V30 5457 H 527.455 0.163749 3.7224 0
M  V30 5458 H 527.568 1.92713 4.38633 0
M  V30 5459 H 525.932 0.935175 2.3691 0
M  V30 5460 H 526.715 2.60159 2.23992 0
M  V30 5461 N 529.16 -1.33526 0.837174 0
M  V30 5462 C 530.571 -1.80182 0.489017 0
M  V30 5463 C 530.922 -1.69285 -0.991826 0
M  V30 5464 O 530.047 -1.24113 -1.77271 0
M  V30 5465 C 530.642 -3.27149 0.880866 0
M  V30 5466 C 529.201 -3.71828 0.584872 0
M  V30 5467 C 528.348 -2.54974 1.09011 0
M  V30 5468 H 531.299 -1.21071 1.02603 0
M  V30 5469 H 531.32 -3.80024 0.190239 0
M  V30 5470 H 530.832 -3.35048 1.95869 0
M  V30 5471 H 528.933 -3.69457 -0.48295 0
M  V30 5472 H 529.046 -4.65366 1.13892 0
M  V30 5473 H 527.41 -2.4952 0.511047 0
M  V30 5474 H 528.193 -2.65637 2.17467 0
M  V30 5475 N 530.638 -0.59345 -1.46 0
M  V30 5476 C 531.863 -0.0872365 -2.07216 0
M  V30 5477 C 532.288 1.2131 -1.43755 0
M  V30 5478 O 531.646 1.73528 -0.525152 0
M  V30 5479 C 531.694 0.0538197 -3.6056 0
M  V30 5480 O 530.798 1.10765 -3.97247 0
M  V30 5481 H 530.139 -0.0676598 -0.660544 0
M  V30 5482 H 532.669 -0.819445 -1.87473 0
M  V30 5483 H 532.679 0.256567 -4.07193 0
M  V30 5484 H 531.354 -0.895739 -4.0614 0
M  V30 5485 H 529.931 0.882501 -3.62307 0
M  V30 5486 N 532.116 1.54067 -0.331816 0
M  V30 5487 C 533.532 1.59587 0.0205388 0
M  V30 5488 C 533.732 1.34813 1.49759 0
M  V30 5489 O 532.788 1.13661 2.25471 0
M  V30 5490 C 534.101 2.97959 -0.405103 0
M  V30 5491 C 535.649 3.10964 -0.356454 0
M  V30 5492 C 536.124 4.51694 -0.757384 0
M  V30 5493 N 537.615 4.57709 -0.71111 0
M  V30 5494 C 538.35 5.64729 -0.993427 0
M  V30 5495 N 537.846 6.79652 -1.3433 0
M  V30 5496 N 539.639 5.54546 -0.918442 0
M  V30 5497 H 531.79 1.68426 -1.29407 0
M  V30 5498 H 534.053 0.78819 -0.526745 0
M  V30 5499 H 533.759 3.21115 -1.43451 0
M  V30 5500 H 533.633 3.76524 0.225692 0
M  V30 5501 H 536.02 2.87538 0.663763 0
M  V30 5502 H 536.101 2.34484 -1.02229 0
M  V30 5503 H 535.745 4.75853 -1.77555 0
M  V30 5504 H 535.675 5.26555 -0.0691444 0
M  V30 5505 H 538.166 3.75176 -0.452883 0
M  V30 5506 H 538.479 7.57221 -1.54388 0
M  V30 5507 H 536.824 6.81128 -1.38164 0
M  V30 5508 H 540.015 4.63641 -0.644536 0
M  V30 5509 H 540.188 6.37861 -1.14181 0
M  V30 5510 N 533.594 0.0601682 1.57485 0
M  V30 5511 C 534.504 -0.926121 2.15546 0
M  V30 5512 C 535.52 -1.33532 1.11558 0
M  V30 5513 O 536.696 -1.4104 1.4377 0
M  V30 5514 C 533.761 -2.17952 2.69625 0
M  V30 5515 C 532.822 -1.82783 3.88444 0
M  V30 5516 C 532.055 -3.02148 4.39935 0
M  V30 5517 O 532.278 -4.15803 3.90466 0
M  V30 5518 O 531.212 -2.82639 5.31412 0
M  V30 5519 H 535.038 -0.462289 3.00161 0
M  V30 5520 H 532.623 -0.162246 1.48516 0
M  V30 5521 H 534.505 -2.91474 3.04337 0
M  V30 5522 H 533.18 -2.63456 1.88077 0
M  V30 5523 H 532.087 -1.06549 3.58606 0
M  V30 5524 H 533.42 -1.42072 4.7125 0
M  V30 5525 N 535.072 -1.5615 -0.213296 0
M  V30 5526 C 535.982 -1.96265 -1.28519 0
M  V30 5527 C 536.998 -0.86765 -1.50824 0
M  V30 5528 O 538.174 -1.17191 -1.63793 0
M  V30 5529 C 535.239 -2.27836 -2.61327 0
M  V30 5530 C 534.3 -3.50949 -2.47252 0
M  V30 5531 C 533.533 -3.81004 -3.73727 0
M  V30 5532 O 533.756 -3.12612 -4.77106 0
M  V30 5533 O 532.69 -4.74477 -3.70344 0
M  V30 5534 H 536.516 -2.87631 -0.974795 0
M  V30 5535 H 534.101 -1.43467 -0.416832 0
M  V30 5536 H 535.983 -2.49299 -3.39747 0
M  V30 5537 H 534.658 -1.39643 -2.9203 0
M  V30 5538 H 533.565 -3.34754 -1.67004 0
M  V30 5539 H 534.898 -4.39551 -2.21486 0
M  V30 5540 N 536.55 0.480323 -1.50102 0
M  V30 5541 C 537.483 1.59789 -1.62919 0
M  V30 5542 C 538.461 1.55429 -0.477557 0
M  V30 5543 O 539.645 1.75186 -0.695851 0
M  V30 5544 C 536.772 2.98351 -1.60325 0
M  V30 5545 C 535.818 3.20899 -2.80938 0
M  V30 5546 S 536.651 3.01791 -4.4236 0
M  V30 5547 C 537.807 4.42712 -4.42444 0
M  V30 5548 H 538.04 1.48676 -2.57454 0
M  V30 5549 H 535.573 0.666996 -1.3925 0
M  V30 5550 H 537.531 3.7824 -1.59514 0
M  V30 5551 H 536.192 3.06862 -0.670419 0
M  V30 5552 H 535.385 4.22102 -2.75401 0
M  V30 5553 H 534.987 2.48768 -2.79268 0
M  V30 5554 H 537.279 5.3518 -4.15438 0
M  V30 5555 H 538.222 4.53294 -5.43995 0
M  V30 5556 H 538.63 4.24359 -3.72263 0
M  V30 5557 N 538.028 1.39524 0.732853 0
M  V30 5558 C 539.256 1.40143 1.52209 0
M  V30 5559 C 539.671 -0.00348836 1.888 0
M  V30 5560 O 539.028 -0.975357 1.5425 0
M  V30 5561 C 539.079 2.27632 2.8083 0
M  V30 5562 O 538.8 3.62654 2.45792 0
M  V30 5563 C 540.301 2.36658 3.74844 0
M  V30 5564 H 537.521 0.478604 0.470297 0
M  V30 5565 H 540.065 1.83366 0.905388 0
M  V30 5566 H 538.22 1.87818 3.38826 0
M  V30 5567 H 538.634 4.08941 3.28431 0
M  V30 5568 H 540.108 3.02118 4.61984 0
M  V30 5569 H 540.585 1.38638 4.16745 0
M  V30 5570 H 541.191 2.76951 3.22766 0
M  V30 5571 N 539.506 -0.963266 1.24736 0
M  V30 5572 C 540.453 -2.05857 1.04363 0
M  V30 5573 C 541.423 -1.6604 -0.0444951 0
M  V30 5574 O 542.608 -1.90477 0.110999 0
M  V30 5575 C 539.748 -3.38745 0.659235 0
M  V30 5576 C 538.861 -3.9173 1.82131 0
M  V30 5577 C 537.996 -5.12906 1.38208 0
M  V30 5578 C 537.035 -5.58098 2.51382 0
M  V30 5579 N 536.172 -6.7049 2.08295 0
M  V30 5580 H 541.012 -2.22616 1.98107 0
M  V30 5581 H 538.549 -1.09103 0.986661 0
M  V30 5582 H 540.507 -4.15107 0.417371 0
M  V30 5583 H 539.137 -3.21898 -0.241201 0
M  V30 5584 H 538.189 -3.11966 2.17672 0
M  V30 5585 H 539.501 -4.21225 2.67153 0
M  V30 5586 H 538.655 -5.96657 1.09935 0
M  V30 5587 H 537.394 -4.85105 0.502456 0
M  V30 5588 H 536.399 -4.72917 2.80409 0
M  V30 5589 H 537.624 -5.87911 3.39909 0
M  V30 5590 H 535.57 -6.44416 1.22737 0
M  V30 5591 H 535.487 -6.99458 2.86869 0
M  V30 5592 H 536.755 -7.57672 1.83175 0
M  V30 5593 N 540.985 -1.06182 -1.16461 0
M  V30 5594 C 541.933 -0.665716 -2.2287 0
M  V30 5595 C 542.927 0.317822 -1.66392 0
M  V30 5596 O 544.133 0.182807 -1.79069 0
M  V30 5597 H 540.508 -0.197148 -0.725697 0
M  V30 5598 H 542.479 -1.57307 -2.53569 0
M  V30 5599 C 541.228 -0.0669803 -3.47635 0
M  V30 5600 H 540.551 -0.814899 -3.91407 0
M  V30 5601 H 541.991 0.172669 -4.23648 0
M  V30 5602 C 540.45 1.18913 -3.15216 0
M  V30 5603 O 540.98 2.27723 -3.30916 0
M  V30 5604 N 539.186 1.09066 -2.69357 0
M  V30 5605 H 538.733 0.20518 -2.56782 0
M  V30 5606 H 538.691 1.93195 -2.48039 0
M  V30 5607 N 542.463 1.3308 -0.844243 0
M  V30 5608 C 543.395 2.27954 -0.238671 0
M  V30 5609 C 544.408 1.51978 0.583665 0
M  V30 5610 O 545.597 1.73731 0.409857 0
M  V30 5611 C 542.697 3.31963 0.682185 0
M  V30 5612 C 541.87 4.37281 -0.101998 0
M  V30 5613 C 540.929 5.20928 0.743022 0
M  V30 5614 O 539.955 5.68914 0.180285 0
M  V30 5615 N 541.157 5.42738 2.0595 0
M  V30 5616 H 543.922 2.8056 -1.05386 0
M  V30 5617 H 541.483 1.4583 -0.70322 0
M  V30 5618 H 543.475 3.84828 1.25259 0
M  V30 5619 H 542.045 2.79594 1.39808 0
M  V30 5620 H 541.265 3.84843 -0.853802 0
M  V30 5621 H 542.553 5.04746 -0.641015 0
M  V30 5622 H 541.951 5.05463 2.54016 0
M  V30 5623 H 540.508 5.98639 2.57827 0
M  V30 5624 N 543.941 0.601185 1.45683 0
M  V30 5625 C 545.187 0.0940202 2.02582 0
M  V30 5626 C 545.52 -1.26972 1.46941 0
M  V30 5627 O 544.795 -1.83613 0.641612 0
M  V30 5628 C 545.078 0.0481715 3.60068 0
M  V30 5629 C 544.931 1.44212 4.26055 0
M  V30 5630 C 546.25 -0.642975 4.35378 0
M  V30 5631 H 543.369 0.0356404 0.736138 0
M  V30 5632 H 546.011 0.771929 1.73612 0
M  V30 5633 H 544.161 -0.529128 3.8488 0
M  V30 5634 H 545.833 2.06601 4.12449 0
M  V30 5635 H 544.076 2.00465 3.84703 0
M  V30 5636 H 544.747 1.36234 5.34925 0
M  V30 5637 H 547.223 -0.152351 4.15821 0
M  V30 5638 H 546.099 -0.644141 5.45107 0
M  V30 5639 H 546.36 -1.70785 4.0778 0
M  V30 5640 N 545.419 -1.53889 0.339982 0
M  V30 5641 C 546.644 -2.05741 -0.261798 0
M  V30 5642 C 547.069 -1.21354 -1.43718 0
M  V30 5643 O 546.427 -0.22645 -1.7988 0
M  V30 5644 C 546.475 -3.54542 -0.658228 0
M  V30 5645 O 545.579 -3.7302 -1.75869 0
M  V30 5646 H 544.92 -0.662529 -0.0441672 0
M  V30 5647 H 547.45 -1.98568 0.493161 0
M  V30 5648 H 547.46 -3.9711 -0.936368 0
M  V30 5649 H 546.135 -4.15412 0.201358 0
M  V30 5650 H 544.712 -3.42355 -1.47809 0
M  V30 5651 N 546.897 -0.0685191 -1.57451 0
M  V30 5652 C 547.827 0.89747 -2.15564 0
M  V30 5653 C 548.808 1.31266 -1.08181 0
M  V30 5654 O 549.993 1.38429 -1.36202 0
M  V30 5655 C 547.123 2.16623 -2.71463 0
M  V30 5656 C 546.077 1.89054 -3.83982 0
M  V30 5657 C 545.403 3.22532 -4.26471 0
M  V30 5658 C 546.703 1.1984 -5.08366 0
M  V30 5659 H 548.397 0.413373 -2.96533 0
M  V30 5660 H 545.943 0.197391 -1.42641 0
M  V30 5661 H 547.896 2.84614 -3.10761 0
M  V30 5662 H 546.62 2.67269 -1.8771 0
M  V30 5663 H 545.279 1.23469 -3.45183 0
M  V30 5664 H 544.927 3.71013 -3.39644 0
M  V30 5665 H 544.627 3.04879 -5.02317 0
M  V30 5666 H 546.151 3.91727 -4.68383 0
M  V30 5667 H 547.565 1.77896 -5.45001 0
M  V30 5668 H 545.962 1.12456 -5.89469 0
M  V30 5669 H 547.032 0.176996 -4.84577 0
M  V30 5670 N 548.375 1.56261 0.205012 0
M  V30 5671 C 549.603 1.84141 0.943386 0
M  V30 5672 C 550.018 0.649772 1.77266 0
M  V30 5673 O 549.375 -0.381612 1.78466 0
M  V30 5674 C 549.426 3.10719 1.84759 0
M  V30 5675 O 549.147 4.25286 1.05181 0
M  V30 5676 C 550.648 3.51706 2.69848 0
M  V30 5677 H 547.868 0.611734 0.275721 0
M  V30 5678 H 550.412 2.03364 0.215253 0
M  V30 5679 H 548.567 2.93422 2.52947 0
M  V30 5680 H 548.981 4.97301 1.66709 0
M  V30 5681 H 550.455 4.43266 3.28967 0
M  V30 5682 H 550.932 2.7423 3.43067 0
M  V30 5683 H 551.538 3.71499 2.07047 0
M  V30 5684 N 549.853 -0.472356 1.50355 0
M  V30 5685 C 551.093 -1.23439 1.62918 0
M  V30 5686 C 551.457 -1.89284 0.321801 0
M  V30 5687 O 552.658 -2.66854 0.322852 0
M  V30 5688 C 550.929 -2.25119 2.7759 0
M  V30 5689 S 552.488 -3.10278 3.10279 0
M  V30 5690 H 549.306 -0.41911 0.574341 0
M  V30 5691 H 551.908 -0.531621 1.88133 0
M  V30 5692 H 550.612 -1.75324 3.71066 0
M  V30 5693 H 550.143 -3.00026 2.54457 0
M  V30 5694 H 552.158 -4.26257 2.54007 0
M  V30 5695 N 551.331 -1.39911 -0.725443 0
M  V30 5696 C 552.261 -1.42138 -1.85254 0
M  V30 5697 C 553.242 -0.283513 -1.67721 0
M  V30 5698 O 554.427 -0.490717 -1.87898 0
M  V30 5699 C 551.557 -1.27354 -3.23107 0
M  V30 5700 C 550.511 -2.3864 -3.55296 0
M  V30 5701 C 549.837 -2.08939 -4.92188 0
M  V30 5702 C 551.137 -3.8097 -3.57295 0
M  V30 5703 H 552.831 -2.36461 -1.83648 0
M  V30 5704 H 550.377 -1.13817 -0.882138 0
M  V30 5705 H 552.33 -1.2753 -4.01639 0
M  V30 5706 H 551.054 -0.295025 -3.25265 0
M  V30 5707 H 549.713 -2.37696 -2.79099 0
M  V30 5708 H 549.361 -1.09502 -4.90936 0
M  V30 5709 H 549.061 -2.83491 -5.14691 0
M  V30 5710 H 550.585 -2.10781 -5.73065 0
M  V30 5711 H 551.999 -3.8379 -4.25885 0
M  V30 5712 H 550.396 -4.5496 -3.9132 0
M  V30 5713 H 551.466 -4.11261 -2.5689 0
M  V30 5714 N 552.809 0.956637 -1.25245 0
M  V30 5715 C 554.055 1.70352 -1.10036 0
M  V30 5716 C 554.388 1.90869 0.358156 0
M  V30 5717 O 553.663 1.47819 1.26411 0
M  V30 5718 C 553.946 3.08766 -1.85298 0
M  V30 5719 C 553.799 2.95672 -3.38966 0
M  V30 5720 C 555.118 4.08622 -1.63451 0
M  V30 5721 H 552.237 0.618279 -0.401123 0
M  V30 5722 H 554.879 1.11212 -1.54051 0
M  V30 5723 H 553.029 3.59252 -1.47887 0
M  V30 5724 H 554.701 2.52527 -3.86041 0
M  V30 5725 H 552.944 2.31634 -3.6678 0
M  V30 5726 H 553.615 3.93776 -3.86839 0
M  V30 5727 H 556.091 3.67038 -1.96015 0
M  V30 5728 H 554.967 5.03514 -2.18551 0
M  V30 5729 H 555.228 4.3834 -0.575357 0
M  V30 5730 N 554.287 1.06798 1.15896 0
M  V30 5731 C 555.234 0.683314 2.20453 0
M  V30 5732 C 556.204 -0.32255 1.62938 0
M  V30 5733 O 557.389 -0.210276 1.89638 0
M  V30 5734 C 554.529 0.0813266 3.45004 0
M  V30 5735 C 553.642 1.13799 4.16742 0
M  V30 5736 C 552.777 0.501598 5.28826 0
M  V30 5737 C 551.816 1.54144 5.92373 0
M  V30 5738 N 550.953 0.928038 6.9594 0
M  V30 5739 H 555.793 1.57932 2.52708 0
M  V30 5740 H 553.33 0.789544 1.24115 0
M  V30 5741 H 555.288 -0.285274 4.16224 0
M  V30 5742 H 553.918 -0.77806 3.13283 0
M  V30 5743 H 552.97 1.62223 3.44075 0
M  V30 5744 H 554.282 1.92664 4.60089 0
M  V30 5745 H 553.436 0.0823162 6.06644 0
M  V30 5746 H 552.175 -0.318883 4.86656 0
M  V30 5747 H 551.18 1.97056 5.13273 0
M  V30 5748 H 552.405 2.3641 6.36621 0
M  V30 5749 H 550.351 0.12836 6.55874 0
M  V30 5750 H 550.268 1.65401 7.37685 0
M  V30 5751 H 551.536 0.534071 7.77668 0
M  V30 5752 N 555.766 -1.3263 0.851289 0
M  V30 5753 C 557.014 -1.96978 0.452128 0
M  V30 5754 C 557.335 -1.67715 -0.99482 0
M  V30 5755 O 556.605 -0.98259 -1.69476 0
M  V30 5756 H 555.185 -0.72873 0.164202 0
M  V30 5757 H 557.847 -1.61774 1.08698 0
M  V30 5758 H 556.943 -3.06387 0.594407 0
M  V30 5759 N 557.244 -0.608902 -1.45362 0
M  V30 5760 C 558.491 -0.104607 -2.0223 0
M  V30 5761 C 558.819 1.26534 -1.47714 0
M  V30 5762 O 558.074 1.84855 -0.642435 0
M  V30 5763 C 558.373 -0.0167296 -3.57396 0
M  V30 5764 C 558.039 -1.32251 -4.31069 0
M  V30 5765 C 556.701 -1.68019 -4.50914 0
M  V30 5766 C 559.053 -2.18542 -4.73169 0
M  V30 5767 C 556.381 -2.89828 -5.10114 0
M  V30 5768 C 558.733 -3.39602 -5.33717 0
M  V30 5769 C 557.397 -3.7562 -5.51784 0
M  V30 5770 H 556.667 -0.0382785 -0.740011 0
M  V30 5771 H 559.314 -0.790782 -1.7441 0
M  V30 5772 H 557.619 0.752715 -3.84502 0
M  V30 5773 H 559.316 0.389634 -3.99103 0
M  V30 5774 H 555.906 -1.03411 -4.15938 0
M  V30 5775 H 560.09 -1.92208 -4.5757 0
M  V30 5776 H 555.346 -3.17839 -5.22291 0
M  V30 5777 H 559.52 -4.06716 -5.65292 0
M  V30 5778 H 557.147 -4.70093 -5.97425 0
M  V30 5779 N 558.722 1.53707 -0.348139 0
M  V30 5780 C 559.952 2.05108 0.247864 0
M  V30 5781 C 560.36 1.22252 1.44399 0
M  V30 5782 O 559.703 0.251853 1.81965 0
M  V30 5783 C 559.765 3.52171 0.722187 0
M  V30 5784 C 559.429 4.5562 -0.354902 0
M  V30 5785 C 560.426 5.05883 -1.19911 0
M  V30 5786 C 558.111 4.99703 -0.510145 0
M  V30 5787 C 560.105 5.98814 -2.18406 0
M  V30 5788 C 557.792 5.92443 -1.49848 0
M  V30 5789 C 558.79 6.41887 -2.33389 0
M  V30 5790 O 558.478 7.32802 -3.3054 0
M  V30 5791 H 558.21 0.674086 0.0508296 0
M  V30 5792 H 560.764 1.99229 -0.49968 0
M  V30 5793 H 558.994 3.55529 1.52105 0
M  V30 5794 H 560.683 3.8652 1.23925 0
M  V30 5795 H 561.449 4.72586 -1.09028 0
M  V30 5796 H 557.328 4.60816 0.130274 0
M  V30 5797 H 560.872 6.3733 -2.83649 0
M  V30 5798 H 556.769 6.25155 -1.60786 0
M  V30 5799 H 557.537 7.50749 -3.26064 0
M  V30 5800 N 560.2 0.0768682 1.57412 0
M  V30 5801 C 561.611 -0.455037 1.8107 0
M  V30 5802 C 561.962 -1.69323 0.991162 0
M  V30 5803 O 561.087 -2.15328 0.215156 0
M  V30 5804 C 561.682 -0.832316 3.28417 0
M  V30 5805 C 560.241 -1.30906 3.52903 0
M  V30 5806 C 559.388 -0.296714 2.75708 0
M  V30 5807 H 562.339 0.302514 1.5579 0
M  V30 5808 H 562.36 -1.69333 3.40744 0
M  V30 5809 H 561.872 0.0690532 3.88039 0
M  V30 5810 H 559.973 -2.22875 2.98592 0
M  V30 5811 H 560.086 -1.28348 4.61588 0
M  V30 5812 H 558.45 -0.775059 2.42621 0
M  V30 5813 H 559.233 0.597015 3.38069 0
M  V30 5814 N 561.678 -1.56367 -0.196722 0
M  V30 5815 C 562.903 -1.84991 -0.937714 0
M  V30 5816 C 563.328 -0.660244 -1.76132 0
M  V30 5817 O 562.686 0.390967 -1.77034 0
M  V30 5818 C 562.734 -3.11828 -1.81096 0
M  V30 5819 O 561.838 -2.92266 -2.90955 0
M  V30 5820 H 561.179 -0.609193 -0.264159 0
M  V30 5821 H 563.709 -2.03595 -0.202529 0
M  V30 5822 H 563.719 -3.42579 -2.21594 0
M  V30 5823 H 562.394 -3.98037 -1.2058 0
M  V30 5824 H 560.971 -2.72809 -2.54224 0
M  V30 5825 N 563.156 0.464375 -1.50603 0
M  V30 5826 C 564.433 1.22549 -1.5245 0
M  V30 5827 C 564.813 2.09327 -0.273035 0
M  V30 5828 O 564.161 2.16074 0.743242 0
M  V30 5829 C 564.371 2.05074 -2.82393 0
M  V30 5830 C 565.719 2.63036 -3.33313 0
M  V30 5831 O 566.743 2.1531 -2.8376 0
M  V30 5832 O 565.602 3.5001 -4.19709 0
M  V30 5833 H 562.696 0.556471 -0.611775 0
M  V30 5834 H 565.242 0.475648 -1.62898 0
M  V30 5835 H 564.014 1.41169 -3.64948 0
M  V30 5836 H 563.637 2.87179 -2.7498 0
M  V30 5837 N 564.634 1.40294 0.718013 0
M  V30 5838 C 565.883 1.37746 1.4734 0
M  V30 5839 C 566.196 -0.0180754 1.95592 0
M  V30 5840 O 567.402 -0.166166 2.70991 0
M  V30 5841 C 565.858 2.4208 2.66318 0
M  V30 5842 C 565.466 3.87432 2.24945 0
M  V30 5843 C 567.21 2.48635 3.44065 0
M  V30 5844 C 565.117 4.83368 3.40748 0
M  V30 5845 H 564.047 0.512165 0.553356 0
M  V30 5846 H 566.698 1.66019 0.781661 0
M  V30 5847 H 565.08 2.06903 3.3765 0
M  V30 5848 H 566.254 4.3174 1.6105 0
M  V30 5849 H 564.569 3.8433 1.60249 0
M  V30 5850 H 567.166 3.17499 4.30231 0
M  V30 5851 H 567.509 1.51611 3.87711 0
M  V30 5852 H 568.042 2.82791 2.79775 0
M  V30 5853 H 564.781 5.81716 3.02136 0
M  V30 5854 H 564.301 4.43726 4.03568 0
M  V30 5855 H 565.98 5.03074 4.06848 0
M  V30 5856 N 566.112 -0.949982 1.2575 0
M  V30 5857 C 567.075 -2.02894 1.06615 0
M  V30 5858 C 568.075 -1.60791 0.0173905 0
M  V30 5859 O 569.265 -1.72249 0.260003 0
M  V30 5860 C 566.397 -3.35219 0.619751 0
M  V30 5861 H 567.59 -2.21302 2.02399 0
M  V30 5862 H 565.143 -1.12772 1.08223 0
M  V30 5863 H 565.878 -3.22508 -0.340486 0
M  V30 5864 H 565.663 -3.67129 1.37692 0
M  V30 5865 H 567.153 -4.14505 0.507443 0
M  V30 5866 N 567.59 -1.07411 -1.15328 0
M  V30 5867 C 568.836 -0.798831 -1.86404 0
M  V30 5868 C 569.169 0.673433 -1.8215 0
M  V30 5869 O 568.444 1.49428 -1.24505 0
M  V30 5870 C 568.727 -1.30846 -3.35487 0
M  V30 5871 C 568.58 -2.84532 -3.4837 0
M  V30 5872 C 569.899 -0.925486 -4.30259 0
M  V30 5873 H 567.018 -0.291659 -0.676834 0
M  V30 5874 H 569.66 -1.332 -1.35491 0
M  V30 5875 H 567.81 -0.854916 -3.78977 0
M  V30 5876 H 569.482 -3.3818 -3.13739 0
M  V30 5877 H 567.725 -3.22699 -2.8991 0
M  V30 5878 H 568.396 -3.15259 -4.53118 0
M  V30 5879 H 570.872 -1.3163 -3.94731 0
M  V30 5880 H 569.748 -1.3094 -5.33053 0
M  V30 5881 H 570.009 0.168525 -4.41779 0
M  V30 5882 N 569.068 1.32177 -0.85831 0
M  V30 5883 C 569.978 2.32561 -0.308606 0
M  V30 5884 C 570.994 1.64209 0.575462 0
M  V30 5885 O 572.17 1.95719 0.474961 0
M  V30 5886 C 569.235 3.43207 0.490909 0
M  V30 5887 C 568.296 4.27243 -0.419733 0
M  V30 5888 C 567.529 5.32605 0.341719 0
M  V30 5889 O 567.752 5.48332 1.57125 0
M  V30 5890 O 566.686 6.0118 -0.294379 0
M  V30 5891 H 570.512 2.81477 -1.14037 0
M  V30 5892 H 568.097 1.35866 -0.621349 0
M  V30 5893 H 569.979 4.10677 0.944574 0
M  V30 5894 H 568.654 2.96474 1.29941 0
M  V30 5895 H 567.561 3.62569 -0.921652 0
M  V30 5896 H 568.894 4.7751 -1.19352 0
M  V30 5897 N 570.547 0.616602 1.45037 0
M  V30 5898 C 571.793 0.123965 2.03022 0
M  V30 5899 C 572.148 -1.23508 1.47525 0
M  V30 5900 O 571.441 -1.80453 0.643981 0
M  V30 5901 C 571.635 0.0356829 3.57382 0
M  V30 5902 C 571.464 1.38462 4.27853 0
M  V30 5903 C 570.234 1.96766 4.65415 0
M  V30 5904 C 572.432 2.31536 4.59234 0
M  V30 5905 N 570.414 3.25046 5.20786 0
M  V30 5906 C 571.785 3.4442 5.15533 0
M  V30 5907 C 573.84 2.30796 4.41178 0
M  V30 5908 C 572.543 4.56742 5.55679 0
M  V30 5909 C 574.569 3.42171 4.82362 0
M  V30 5910 C 573.931 4.53778 5.38762 0
M  V30 5911 H 570.03 0.0889428 0.776925 0
M  V30 5912 H 572.614 0.816925 1.76733 0
M  V30 5913 H 570.785 -0.62652 3.83314 0
M  V30 5914 H 572.517 -0.464443 4.02026 0
M  V30 5915 H 569.272 1.4987 4.49261 0
M  V30 5916 H 569.696 3.90592 5.52962 0
M  V30 5917 H 574.338 1.45765 3.96878 0
M  V30 5918 H 572.056 5.42491 5.9894 0
M  V30 5919 H 575.642 3.42757 4.70116 0
M  V30 5920 H 574.522 5.38536 5.70043 0
M  V30 5921 N 572.025 -1.5352 0.356285 0
M  V30 5922 C 572.935 -2.29151 -0.502712 0
M  V30 5923 C 573.951 -1.34753 -1.1008 0
M  V30 5924 O 575.127 -1.67803 -1.11374 0
M  V30 5925 C 572.192 -3.05911 -1.63154 0
M  V30 5926 C 571.253 -4.15958 -1.06194 0
M  V30 5927 C 570.486 -4.8905 -2.13696 0
M  V30 5928 O 570.709 -4.61919 -3.34645 0
M  V30 5929 O 569.643 -5.75202 -1.77275 0
M  V30 5930 H 573.469 -3.03492 0.112466 0
M  V30 5931 H 571.054 -1.4891 0.120942 0
M  V30 5932 H 572.936 -3.53874 -2.28804 0
M  V30 5933 H 571.611 -2.34415 -2.23229 0
M  V30 5934 H 570.518 -3.7227 -0.369603 0
M  V30 5935 H 571.851 -4.89593 -0.505872 0
M  V30 5936 N 573.503 -0.0852151 -1.57369 0
M  V30 5937 C 574.728 0.592872 -1.98746 0
M  V30 5938 C 575.153 1.61538 -0.963689 0
M  V30 5939 O 574.511 1.81168 0.069071 0
M  V30 5940 C 574.559 1.22599 -3.39119 0
M  V30 5941 O 573.663 2.34185 -3.39457 0
M  V30 5942 H 573.004 0.151314 -0.646529 0
M  V30 5943 H 575.534 -0.163703 -2.03944 0
M  V30 5944 H 575.544 1.56965 -3.76598 0
M  V30 5945 H 574.219 0.476831 -4.13158 0
M  V30 5946 H 572.796 2.01512 -3.13763 0
M  V30 5947 N 574.981 1.5647 0.188427 0
M  V30 5948 C 575.929 1.95971 1.25293 0
M  V30 5949 C 576.923 0.846047 1.4676 0
M  V30 5950 O 578.129 1.03109 1.47542 0
M  V30 5951 H 574.504 0.623253 0.420784 0
M  V30 5952 H 576.475 2.84731 0.892792 0
M  V30 5953 C 575.224 2.32116 2.58877 0
M  V30 5954 H 574.547 3.17341 2.43176 0
M  V30 5955 H 575.987 2.63613 3.3209 0
M  V30 5956 C 574.446 1.15823 3.16365 0
M  V30 5957 O 574.976 0.436785 3.99318 0
M  V30 5958 N 573.182 0.933278 2.75206 0
M  V30 5959 H 572.729 1.52169 2.07852 0
M  V30 5960 H 572.687 0.156976 3.14008 0
M  V30 5961 N 576.459 -0.456382 1.50847 0
M  V30 5962 C 577.707 -1.20497 1.62249 0
M  V30 5963 C 578.028 -1.92156 0.331839 0
M  V30 5964 O 577.298 -1.84751 -0.651443 0
M  V30 5965 H 575.878 -0.447775 0.597918 0
M  V30 5966 H 578.54 -0.525099 1.87693 0
M  V30 5967 H 577.636 -1.94492 2.44089 0
M  V30 5968 N 577.937 -1.40673 -0.710563 0
M  V30 5969 C 578.869 -1.37256 -1.83558 0
M  V30 5970 C 579.882 -0.277133 -1.60424 0
M  V30 5971 O 581.071 -0.537831 -1.70205 0
M  V30 5972 C 578.171 -1.1144 -3.20054 0
M  V30 5973 C 577.344 -2.32734 -3.70342 0
M  V30 5974 C 576.403 -2.03002 -4.85465 0
M  V30 5975 O 575.429 -2.75912 -4.97857 0
M  V30 5976 N 576.631 -1.01105 -5.71627 0
M  V30 5977 H 579.396 -2.34215 -1.86985 0
M  V30 5978 H 576.957 -1.35091 -0.892301 0
M  V30 5979 H 578.949 -0.895265 -3.94673 0
M  V30 5980 H 577.519 -0.231307 -3.11743 0
M  V30 5981 H 576.739 -2.70446 -2.86798 0
M  V30 5982 H 578.027 -3.13584 -4.00678 0
M  V30 5983 H 577.425 -0.407303 -5.64232 0
M  V30 5984 H 575.982 -0.85182 -6.4621 0
M  V30 5985 N 579.415 0.9433 -1.26252 0
M  V30 5986 C 580.826 1.50404 -1.10614 0
M  V30 5987 C 581.177 1.93666 0.31429 0
M  V30 5988 O 580.302 1.79709 1.20555 0
M  V30 5989 C 580.897 2.73336 -2.00182 0
M  V30 5990 C 579.456 3.25686 -1.88695 0
M  V30 5991 C 578.603 1.98474 -1.93658 0
M  V30 5992 H 581.554 0.759006 -1.39373 0
M  V30 5993 H 581.575 3.47567 -1.54847 0
M  V30 5994 H 581.087 2.41818 -3.03555 0
M  V30 5995 H 579.188 3.61998 -0.882489 0
M  V30 5996 H 579.301 3.92935 -2.74115 0
M  V30 5997 H 577.665 2.14278 -1.37684 0
M  V30 5998 H 578.448 1.6929 -2.98657 0
M  V30 5999 N 580.893 1.08022 1.14757 0
M  V30 6000 C 581.803 0.718292 2.23333 0
M  V30 6001 C 582.819 -0.273477 1.71837 0
M  V30 6002 O 583.995 -0.118406 2.01052 0
M  V30 6003 C 581.06 0.128855 3.4646 0
M  V30 6004 C 580.121 1.17473 4.12915 0
M  V30 6005 C 579.354 0.61333 5.30164 0
M  V30 6006 O 579.577 -0.568458 5.6756 0
M  V30 6007 O 578.511 1.3615 5.86299 0
M  V30 6008 H 582.337 1.62394 2.56636 0
M  V30 6009 H 579.922 0.853628 1.22611 0
M  V30 6010 H 581.804 -0.197249 4.20938 0
M  V30 6011 H 580.479 -0.750014 3.14891 0
M  V30 6012 H 579.386 1.5533 3.40328 0
M  V30 6013 H 580.719 2.02574 4.48581 0
M  V30 6014 N 582.371 -1.3172 0.865308 0
M  V30 6015 C 583.319 -2.30569 0.306674 0
M  V30 6016 C 584.313 -1.59317 -0.575724 0
M  V30 6017 O 585.519 -1.73961 -0.462343 0
M  V30 6018 H 581.894 -0.747681 0.0804834 0
M  V30 6019 H 583.865 -2.75165 1.15441 0
M  V30 6020 C 582.614 -3.44358 -0.480952 0
M  V30 6021 H 581.937 -3.99354 0.18876 0
M  V30 6022 H 583.377 -4.15652 -0.837241 0
M  V30 6023 C 581.836 -2.92574 -1.67039 0
M  V30 6024 O 582.366 -2.90954 -2.76964 0
M  V30 6025 N 580.572 -2.48835 -1.50097 0
M  V30 6026 H 580.119 -2.50353 -0.606738 0
M  V30 6027 H 580.077 -2.14543 -2.29823 0
M  V30 6028 N 583.85 -0.624285 -1.44708 0
M  V30 6029 C 584.798 0.0969952 -2.32398 0
M  V30 6030 C 585.792 0.842762 -1.46949 0
M  V30 6031 O 586.998 0.756436 -1.63334 0
M  V30 6032 H 583.373 0.0501306 -0.750327 0
M  V30 6033 H 585.344 -0.660767 -2.90992 0
M  V30 6034 C 584.093 1.06967 -3.30837 0
M  V30 6035 H 583.416 0.505242 -3.96595 0
M  V30 6036 H 584.856 1.54397 -3.94889 0
M  V30 6037 C 583.315 2.15153 -2.5925 0
M  V30 6038 O 583.845 3.23139 -2.3863 0
M  V30 6039 N 582.051 1.90898 -2.19103 0
M  V30 6040 H 581.598 1.03086 -2.36074 0
M  V30 6041 H 581.556 2.63485 -1.71531 0
M  V30 6042 N 585.328 1.53329 -0.364422 0
M  V30 6043 C 586.558 2.05359 0.226096 0
M  V30 6044 C 586.966 1.23777 1.43094 0
M  V30 6045 O 586.309 0.271139 1.81688 0
M  V30 6046 C 586.371 3.52918 0.684794 0
M  V30 6047 C 586.035 4.55218 -0.403206 0
M  V30 6048 C 587.032 5.04583 -1.2527 0
M  V30 6049 C 584.717 4.99134 -0.563117 0
M  V30 6050 C 586.711 5.96463 -2.24745 0
M  V30 6051 C 584.398 5.9082 -1.56124 0
M  V30 6052 C 585.396 6.39375 -2.40184 0
M  V30 6053 O 585.084 7.29255 -3.38293 0
M  V30 6054 H 584.816 0.674588 0.0436772 0
M  V30 6055 H 587.37 1.98688 -0.520782 0
M  V30 6056 H 585.6 3.57122 1.48326 0
M  V30 6057 H 587.289 3.87812 1.19818 0
M  V30 6058 H 588.055 4.71403 -1.14034 0
M  V30 6059 H 583.934 4.60928 0.0813909 0
M  V30 6060 H 587.478 6.34285 -2.90393 0
M  V30 6061 H 583.375 6.23414 -1.67407 0
M  V30 6062 H 584.143 7.47249 -3.34009 0
M  V30 6063 N 586.806 0.0935595 1.57322 0
M  V30 6064 C 587.753 -0.865935 2.1394 0
M  V30 6065 C 588.723 -1.28083 1.05754 0
M  V30 6066 O 589.908 -1.36285 1.33533 0
M  V30 6067 C 587.048 -2.12023 2.72287 0
M  V30 6068 C 586.161 -1.756 3.94701 0
M  V30 6069 C 585.296 -2.95804 4.41218 0
M  V30 6070 C 584.335 -2.555 5.56225 0
M  V30 6071 N 583.472 -3.68534 5.97601 0
M  V30 6072 H 588.312 -0.376261 2.95615 0
M  V30 6073 H 585.849 -0.174052 1.46067 0
M  V30 6074 H 587.807 -2.85477 3.04235 0
M  V30 6075 H 586.437 -2.58492 1.93343 0
M  V30 6076 H 585.489 -0.921208 3.69077 0
M  V30 6077 H 586.801 -1.41964 4.78171 0
M  V30 6078 H 585.955 -3.77513 4.74941 0
M  V30 6079 H 584.694 -3.32649 3.56645 0
M  V30 6080 H 583.699 -1.72218 5.22131 0
M  V30 6081 H 584.924 -2.19801 6.42545 0
M  V30 6082 H 582.87 -4.051 5.15974 0
M  V30 6083 H 582.787 -3.38737 6.75865 0
M  V30 6084 H 584.055 -4.50757 6.35955 0
M  V30 6085 N 588.284 -1.56567 -0.180126 0
M  V30 6086 C 589.512 -1.85618 -0.913972 0
M  V30 6087 C 589.927 -0.677892 -1.7621 0
M  V30 6088 O 589.284 0.353171 -1.7905 0
M  V30 6089 C 589.335 -3.13619 -1.79793 0
M  V30 6090 O 589.056 -4.26906 -0.98402 0
M  V30 6091 C 590.557 -3.55954 -2.64219 0
M  V30 6092 H 587.777 -0.616043 -0.265954 0
M  V30 6093 H 590.321 -2.03681 -0.182872 0
M  V30 6094 H 588.476 -2.97409 -2.48247 0
M  V30 6095 H 588.89 -4.9989 -1.58776 0
M  V30 6096 H 590.364 -4.48444 -3.21873 0
M  V30 6097 H 590.841 -2.79653 -3.38661 0
M  V30 6098 H 591.447 -3.74746 -2.01111 0
M  V30 6099 N 589.762 0.448376 -1.51087 0
M  V30 6100 C 590.99 1.22143 -1.66999 0
M  V30 6101 C 591.405 1.85283 -0.362699 0
M  V30 6102 O 590.762 1.70236 0.65772 0
M  V30 6103 C 590.813 2.31357 -2.7777 0
M  V30 6104 O 590.534 1.70801 -4.03434 0
M  V30 6105 C 592.035 3.21836 -3.04855 0
M  V30 6106 H 589.255 0.368558 -0.560719 0
M  V30 6107 H 591.799 0.532618 -1.97442 0
M  V30 6108 H 589.954 2.95973 -2.49958 0
M  V30 6109 H 590.368 2.42895 -4.64868 0
M  V30 6110 H 591.842 3.94627 -3.85971 0
M  V30 6111 H 592.319 3.81949 -2.16821 0
M  V30 6112 H 592.925 2.62933 -3.34285 0
M  V30 6113 N 591.24 1.41047 0.703093 0
M  V30 6114 C 592.651 1.35657 1.28274 0
M  V30 6115 C 593.002 0.0360309 1.96167 0
M  V30 6116 O 592.127 -0.865833 1.98324 0
M  V30 6117 C 592.722 2.45707 2.33267 0
M  V30 6118 C 591.281 2.43738 2.86825 0
M  V30 6119 C 590.428 2.25941 1.60767 0
M  V30 6120 H 593.379 1.50672 0.49836 0
M  V30 6121 H 593.4 2.14333 3.14391 0
M  V30 6122 H 592.912 3.41805 1.83824 0
M  V30 6123 H 591.013 1.51375 3.40465 0
M  V30 6124 H 591.126 3.39779 3.37768 0
M  V30 6125 H 589.49 1.73681 1.86298 0
M  V30 6126 H 590.273 3.24054 1.1333 0
M  V30 6127 N 592.718 -0.936591 1.26751 0
M  V30 6128 C 594.129 -1.49816 1.1141 0
M  V30 6129 C 594.48 -1.9383 -0.304015 0
M  V30 6130 O 593.605 -1.80346 -1.196 0
M  V30 6131 C 594.2 -2.72271 2.01629 0
M  V30 6132 C 592.759 -3.2468 1.9042 0
M  V30 6133 C 591.906 -1.97444 1.94708 0
M  V30 6134 H 594.857 -0.751604 1.39773 0
M  V30 6135 H 594.878 -3.46741 1.56688 0
M  V30 6136 H 594.39 -2.40205 3.04833 0
M  V30 6137 H 592.491 -3.61525 0.901674 0
M  V30 6138 H 592.604 -3.91476 2.76195 0
M  V30 6139 H 590.968 -2.13545 1.38818 0
M  V30 6140 H 591.751 -1.67703 2.9955 0
M  V30 6141 N 594.196 -1.08629 -1.14182 0
M  V30 6142 C 595.442 -0.818556 -1.85546 0
M  V30 6143 C 595.775 0.654076 -1.82854 0
M  V30 6144 O 595.05 1.48099 -1.26083 0
M  V30 6145 C 595.333 -1.34397 -3.3408 0
M  V30 6146 C 595.186 -2.8821 -3.45333 0
M  V30 6147 C 596.505 -0.971069 -4.29253 0
M  V30 6148 H 593.624 -0.298821 -0.673702 0
M  V30 6149 H 596.266 -1.34629 -1.34071 0
M  V30 6150 H 594.416 -0.895064 -3.78049 0
M  V30 6151 H 596.088 -3.41488 -3.10134 0
M  V30 6152 H 594.331 -3.25756 -2.86471 0
M  V30 6153 H 595.002 -3.20047 -4.49749 0
M  V30 6154 H 597.478 -1.35809 -3.93313 0
M  V30 6155 H 596.354 -1.36586 -5.31635 0
M  V30 6156 H 596.615 0.121659 -4.41933 0
M  V30 6157 N 595.674 1.31259 -0.872281 0
M  V30 6158 C 596.604 2.30929 -0.345554 0
M  V30 6159 C 597.585 1.60449 0.5648 0
M  V30 6160 O 598.77 1.8814 0.481335 0
M  V30 6161 C 595.9 3.44348 0.451823 0
M  V30 6162 C 594.854 4.26435 -0.365641 0
M  V30 6163 C 594.18 5.31785 0.557562 0
M  V30 6164 C 595.48 4.97159 -1.60095 0
M  V30 6165 H 597.174 2.75234 -1.17841 0
M  V30 6166 H 594.72 1.3232 -0.568094 0
M  V30 6167 H 596.673 4.13128 0.830854 0
M  V30 6168 H 595.397 2.98816 1.31821 0
M  V30 6169 H 594.056 3.59326 -0.726649 0
M  V30 6170 H 593.704 4.82502 1.4213 0
M  V30 6171 H 593.404 5.87598 0.0144878 0
M  V30 6172 H 594.928 6.03424 0.933387 0
M  V30 6173 H 596.342 5.58523 -1.29323 0
M  V30 6174 H 594.739 5.62779 -2.08327 0
M  V30 6175 H 595.809 4.24012 -2.35249 0
M  V30 6176 N 597.152 0.631951 1.44375 0
M  V30 6177 C 598.429 0.067646 1.95483 0
M  V30 6178 C 598.809 -1.40683 1.57389 0
M  V30 6179 O 598.157 -2.12167 0.848375 0
M  V30 6180 C 598.367 0.291392 3.47781 0
M  V30 6181 C 599.715 0.185028 4.24197 0
M  V30 6182 O 600.739 0.222803 3.55503 0
M  V30 6183 O 599.598 0.0906642 5.46425 0
M  V30 6184 H 596.692 -0.0218379 0.826712 0
M  V30 6185 H 599.238 0.703711 1.54421 0
M  V30 6186 H 598.01 1.31449 3.68561 0
M  V30 6187 H 597.633 -0.378772 3.95792 0
M  V30 6188 N 598.631 -1.53133 0.372548 0
M  V30 6189 C 599.856 -2.0625 -0.218098 0
M  V30 6190 C 600.281 -1.24375 -1.41111 0
M  V30 6191 O 599.639 -0.264554 -1.79359 0
M  V30 6192 C 599.687 -3.55858 -0.582876 0
M  V30 6193 O 598.791 -3.76667 -1.67917 0
M  V30 6194 H 598.132 -0.663317 -0.030104 0
M  V30 6195 H 600.662 -1.97477 0.535169 0
M  V30 6196 H 600.672 -3.99007 -0.851925 0
M  V30 6197 H 599.347 -4.14892 0.289428 0
M  V30 6198 H 597.924 -3.45413 -1.40513 0
M  V30 6199 N 600.109 -0.101901 -1.5727 0
M  V30 6200 C 601.386 0.602832 -1.86079 0
M  V30 6201 C 601.766 1.85912 -1 0
M  V30 6202 O 601.114 2.28379 -0.0742488 0
M  V30 6203 C 601.324 0.911694 -3.36881 0
M  V30 6204 C 602.672 1.2722 -4.05093 0
M  V30 6205 O 603.696 1.0025 -3.41802 0
M  V30 6206 O 602.555 1.7776 -5.16782 0
M  V30 6207 H 599.649 0.302366 -0.769743 0
M  V30 6208 H 602.195 -0.135113 -1.69161 0
M  V30 6209 H 600.967 0.0207256 -3.91295 0
M  V30 6210 H 600.59 1.70538 -3.59169 0
M  V30 6211 N 601.587 1.56661 0.17182 0
M  V30 6212 C 602.835 1.81606 0.886774 0
M  V30 6213 C 603.156 0.678818 1.82803 0
M  V30 6214 O 602.426 -0.301354 1.93568 0
M  V30 6215 H 601.006 0.669934 0.330451 0
M  V30 6216 H 603.668 1.94142 0.171757 0
M  V30 6217 H 602.764 2.75634 1.46398 0
M  V30 6218 N 603.065 -0.440357 1.51323 0
M  V30 6219 C 604.29 -1.21716 1.67928 0
M  V30 6220 C 604.715 -1.84328 0.374826 0
M  V30 6221 O 604.073 -1.68675 -0.664706 0
M  V30 6222 C 604.121 -2.27914 2.79442 0
M  V30 6223 O 603.225 -3.33325 2.42834 0
M  V30 6224 H 602.566 -0.35674 0.560029 0
M  V30 6225 H 605.096 -0.520417 1.97871 0
M  V30 6226 H 605.106 -2.72746 3.03436 0
M  V30 6227 H 603.781 -1.8172 3.741 0
M  V30 6228 H 602.358 -2.9399 2.294 0
M  V30 6229 N 604.543 -1.41418 -0.695603 0
M  V30 6230 C 605.79 -1.40774 -1.45564 0
M  V30 6231 C 606.118 -0.0168604 -1.94493 0
M  V30 6232 O 605.373 0.971259 -1.69897 0
M  V30 6233 C 605.672 -2.36112 -2.68302 0
M  V30 6234 C 605.338 -3.82952 -2.38031 0
M  V30 6235 C 604 -4.22954 -2.29486 0
M  V30 6236 C 606.352 -4.75662 -2.13061 0
M  V30 6237 C 603.68 -5.53674 -1.94067 0
M  V30 6238 C 606.032 -6.06702 -1.79151 0
M  V30 6239 C 604.696 -6.45725 -1.69102 0
M  V30 6240 H 603.966 -0.515128 -0.532658 0
M  V30 6241 H 606.613 -1.74216 -0.795047 0
M  V30 6242 H 604.918 -1.95924 -3.39295 0
M  V30 6243 H 606.615 -2.32887 -3.26442 0
M  V30 6244 H 603.205 -3.5127 -2.45576 0
M  V30 6245 H 607.389 -4.45561 -2.18608 0
M  V30 6246 H 602.645 -5.8279 -1.8484 0
M  V30 6247 H 606.819 -6.78041 -1.5885 0
M  V30 6248 H 604.446 -7.46929 -1.41426 0
M  V30 6249 N 606.021 0.929856 -1.27246 0
M  V30 6250 C 607.268 1.67731 -1.13457 0
M  V30 6251 C 607.596 1.9185 0.319998 0
M  V30 6252 O 606.851 1.50524 1.25064 0
M  V30 6253 C 607.15 3.05116 -1.86115 0
M  V30 6254 C 606.816 3.00715 -3.35978 0
M  V30 6255 C 605.478 2.99222 -3.76855 0
M  V30 6256 C 607.83 2.92168 -4.3161 0
M  V30 6257 C 605.158 2.86962 -5.11732 0
M  V30 6258 C 607.51 2.81449 -5.66542 0
M  V30 6259 C 606.174 2.78305 -6.06715 0
M  V30 6260 H 605.444 0.613772 -0.415168 0
M  V30 6261 H 608.091 1.08456 -1.57827 0
M  V30 6262 H 606.396 3.68083 -1.34246 0
M  V30 6263 H 608.093 3.61822 -1.72876 0
M  V30 6264 H 604.683 3.02664 -3.03468 0
M  V30 6265 H 608.867 2.92421 -4.01003 0
M  V30 6266 H 604.123 2.82913 -5.42006 0
M  V30 6267 H 608.297 2.738 -6.40317 0
M  V30 6268 H 605.924 2.68561 -7.11181 0
M  V30 6269 N 607.499 1.09233 1.13605 0
M  V30 6270 C 608.429 0.751738 2.21068 0
M  V30 6271 C 609.41 -0.269688 1.67948 0
M  V30 6272 O 610.595 -0.13819 1.93708 0
M  V30 6273 C 607.725 0.16935 3.46887 0
M  V30 6274 C 606.679 1.12007 4.13084 0
M  V30 6275 C 606.005 0.399483 5.33206 0
M  V30 6276 C 607.305 2.46168 4.6065 0
M  V30 6277 H 608.999 1.65024 2.49815 0
M  V30 6278 H 606.545 0.794905 1.20072 0
M  V30 6279 H 608.498 -0.0809824 4.21322 0
M  V30 6280 H 607.222 -0.764335 3.1753 0
M  V30 6281 H 605.881 1.35564 3.40614 0
M  V30 6282 H 605.529 -0.538277 5.00112 0
M  V30 6283 H 605.229 1.03337 5.78442 0
M  V30 6284 H 606.753 0.157403 6.10397 0
M  V30 6285 H 608.167 2.26829 5.26518 0
M  V30 6286 H 606.564 3.05326 5.1662 0
M  V30 6287 H 607.634 3.07076 3.75276 0
M  V30 6288 N 608.977 -1.30795 0.87923 0
M  V30 6289 C 610.207 -2.00237 0.50881 0
M  V30 6290 C 610.615 -1.66115 -0.905682 0
M  V30 6291 O 609.958 -0.89138 -1.60624 0
M  V30 6292 C 610.02 -3.54508 0.597003 0
M  V30 6293 C 609.684 -4.12131 1.97477 0
M  V30 6294 C 610.681 -4.28552 2.94346 0
M  V30 6295 C 608.366 -4.47644 2.2786 0
M  V30 6296 C 610.36 -4.79689 4.19735 0
M  V30 6297 C 608.047 -4.98481 3.53496 0
M  V30 6298 C 609.045 -5.14456 4.49248 0
M  V30 6299 O 608.733 -5.64199 5.72656 0
M  V30 6300 H 608.465 -0.647026 0.195788 0
M  V30 6301 H 611.019 -1.67785 1.1848 0
M  V30 6302 H 609.249 -3.86461 -0.135945 0
M  V30 6303 H 610.938 -4.05198 0.238684 0
M  V30 6304 H 611.704 -4.01424 2.72183 0
M  V30 6305 H 607.583 -4.34481 1.54102 0
M  V30 6306 H 611.127 -4.92073 4.9448 0
M  V30 6307 H 607.024 -5.25044 3.75498 0
M  V30 6308 H 607.792 -5.82551 5.74957 0
M  V30 6309 N 610.455 -0.639598 -1.44038 0
M  V30 6310 C 611.68 -0.153117 -2.06834 0
M  V30 6311 C 612.105 1.16676 -1.47541 0
M  V30 6312 O 611.463 1.71769 -0.580093 0
M  V30 6313 C 611.511 -0.0609169 -3.60549 0
M  V30 6314 O 610.615 0.98071 -4.00569 0
M  V30 6315 H 609.956 -0.0886402 -0.658057 0
M  V30 6316 H 612.486 -0.878674 -1.84771 0
M  V30 6317 H 612.496 0.126892 -4.07803 0
M  V30 6318 H 611.171 -1.0245 -4.03084 0
M  V30 6319 H 609.748 0.766789 -3.64931 0
M  V30 6320 N 611.933 1.52934 -0.380664 0
M  V30 6321 C 612.88 2.26197 0.458641 0
M  V30 6322 C 613.85 1.27462 1.06502 0
M  V30 6323 O 615.035 1.56274 1.09467 0
M  V30 6324 C 612.175 3.06571 1.58456 0
M  V30 6325 C 611.288 4.20222 1.00189 0
M  V30 6326 C 610.423 4.88007 2.09815 0
M  V30 6327 C 609.462 5.93665 1.49092 0
M  V30 6328 N 608.599 6.55081 2.52613 0
M  V30 6329 H 613.439 2.975 -0.172595 0
M  V30 6330 H 610.976 1.4678 -0.0969426 0
M  V30 6331 H 612.934 3.51455 2.24801 0
M  V30 6332 H 611.564 2.37494 2.18624 0
M  V30 6333 H 610.616 3.79714 0.228292 0
M  V30 6334 H 611.928 4.96102 0.518064 0
M  V30 6335 H 611.082 5.36151 2.83948 0
M  V30 6336 H 609.821 4.11632 2.61555 0
M  V30 6337 H 608.826 5.44868 0.7348 0
M  V30 6338 H 610.051 6.71969 0.981582 0
M  V30 6339 H 607.997 5.8155 3.03538 0
M  V30 6340 H 607.914 7.26548 2.08961 0
M  V30 6341 H 609.182 7.07871 3.26402 0
M  V30 6342 N 613.412 0.11024 1.57214 0
M  V30 6343 C 614.342 -0.840002 2.17867 0
M  V30 6344 C 615.323 -1.28352 1.11624 0
M  V30 6345 O 616.508 -1.3477 1.39824 0
M  V30 6346 C 613.638 -2.09349 2.77111 0
M  V30 6347 C 612.592 -1.78807 3.8886 0
M  V30 6348 C 611.918 -3.11112 4.34872 0
M  V30 6349 C 613.218 -1.0632 5.11364 0
M  V30 6350 H 614.912 -0.334608 2.97524 0
M  V30 6351 H 612.458 -0.159502 1.43114 0
M  V30 6352 H 614.411 -2.76275 3.18198 0
M  V30 6353 H 613.135 -2.62198 1.9473 0
M  V30 6354 H 611.794 -1.14273 3.48335 0
M  V30 6355 H 611.442 -3.61877 3.49362 0
M  V30 6356 H 611.142 -2.91453 5.10224 0
M  V30 6357 H 612.666 -3.79171 4.78604 0
M  V30 6358 H 614.08 -1.63383 5.49526 0
M  V30 6359 H 612.477 -0.967876 5.92243 0
M  V30 6360 H 613.547 -0.0484569 4.84876 0
M  V30 6361 N 614.89 -1.56749 -0.16351 0
M  V30 6362 C 616.118 -1.86577 -0.894233 0
M  V30 6363 C 616.533 -0.696543 -1.75481 0
M  V30 6364 O 615.89 0.334161 -1.79415 0
M  V30 6365 C 615.941 -3.15508 -1.76456 0
M  V30 6366 O 615.662 -4.27926 -0.938685 0
M  V30 6367 C 617.163 -3.58737 -2.60428 0
M  V30 6368 H 614.383 -0.618829 -0.259405 0
M  V30 6369 H 616.927 -2.03863 -0.161259 0
M  V30 6370 H 615.082 -3.00025 -2.45079 0
M  V30 6371 H 615.496 -5.01546 -1.53465 0
M  V30 6372 H 616.97 -4.51832 -3.17099 0
M  V30 6373 H 617.447 -2.83229 -3.35675 0
M  V30 6374 H 618.053 -3.76858 -1.97125 0
M  V30 6375 N 616.368 0.432326 -1.51554 0
M  V30 6376 C 617.614 1.18309 -1.64714 0
M  V30 6377 C 617.947 1.90745 -0.364696 0
M  V30 6378 O 617.222 1.8381 0.635936 0
M  V30 6379 C 617.505 2.1961 -2.85383 0
M  V30 6380 C 617.358 1.51223 -4.23617 0
M  V30 6381 C 618.677 3.20538 -3.01569 0
M  V30 6382 H 615.796 0.428751 -0.599451 0
M  V30 6383 H 618.438 0.471689 -1.84052 0
M  V30 6384 H 616.588 2.8028 -2.69027 0
M  V30 6385 H 618.26 0.938516 -4.51652 0
M  V30 6386 H 616.503 0.814501 -4.26085 0
M  V30 6387 H 617.174 2.25024 -5.04052 0
M  V30 6388 H 619.65 2.69926 -3.16669 0
M  V30 6389 H 618.526 3.88706 -3.87555 0
M  V30 6390 H 618.787 3.86933 -2.13859 0
M  V30 6391 N 617.846 1.41785 0.688094 0
M  V30 6392 C 619.123 1.32031 1.44316 0
M  V30 6393 C 619.503 -0.0486079 2.11044 0
M  V30 6394 O 618.851 -1.06332 2.02252 0
M  V30 6395 C 619.061 2.47906 2.45649 0
M  V30 6396 C 620.409 2.89415 3.10683 0
M  V30 6397 O 621.433 2.477 2.55975 0
M  V30 6398 O 620.292 3.61573 4.09789 0
M  V30 6399 H 617.386 0.519994 0.643067 0
M  V30 6400 H 619.932 1.53765 0.71794 0
M  V30 6401 H 618.704 3.39222 1.95048 0
M  V30 6402 H 618.327 2.28089 3.25671 0
M  V30 6403 N 619.324 -0.923095 1.27737 0
M  V30 6404 C 620.271 -2.02432 1.1086 0
M  V30 6405 C 621.241 -1.66098 0.00835195 0
M  V30 6406 O 622.426 -1.90027 0.171542 0
M  V30 6407 C 619.566 -3.36476 0.766671 0
M  V30 6408 C 618.679 -3.85737 1.94501 0
M  V30 6409 C 617.814 -5.08249 1.54455 0
M  V30 6410 C 616.853 -5.49818 2.6901 0
M  V30 6411 N 615.99 -6.63524 2.29521 0
M  V30 6412 H 620.83 -2.16201 2.05089 0
M  V30 6413 H 618.367 -1.05909 1.02087 0
M  V30 6414 H 620.325 -4.13569 0.549223 0
M  V30 6415 H 618.955 -3.22502 -0.13867 0
M  V30 6416 H 618.007 -3.04883 2.27487 0
M  V30 6417 H 619.319 -4.12513 2.80419 0
M  V30 6418 H 618.473 -5.92857 1.28862 0
M  V30 6419 H 617.212 -4.83261 0.656534 0
M  V30 6420 H 616.217 -4.63757 2.95313 0
M  V30 6421 H 617.442 -5.76799 3.5844 0
M  V30 6422 H 615.388 -6.40185 1.43177 0
M  V30 6423 H 615.305 -6.89978 3.08977 0
M  V30 6424 H 616.573 -7.51461 2.07187 0
M  V30 6425 N 620.802 -1.09834 -1.13024 0
M  V30 6426 C 622.027 -0.85909 -1.88771 0
M  V30 6427 C 622.452 0.584402 -1.78791 0
M  V30 6428 O 621.81 1.41101 -1.13842 0
M  V30 6429 C 621.858 -1.30427 -3.36186 0
M  V30 6430 O 620.962 -0.465368 -4.09766 0
M  V30 6431 H 620.303 -0.310786 -0.586778 0
M  V30 6432 H 622.833 -1.46355 -1.42973 0
M  V30 6433 H 622.843 -1.2915 -3.8702 0
M  V30 6434 H 621.518 -2.3555 -3.42767 0
M  V30 6435 H 620.095 -0.542814 -3.68928 0
M  V30 6436 N 622.28 1.30327 -0.886154 0
M  V30 6437 C 623.696 1.48676 -0.580323 0
M  V30 6438 C 623.896 1.81189 0.881639 0
M  V30 6439 O 622.952 1.90021 1.66278 0
M  V30 6440 C 624.265 2.60932 -1.49449 0
M  V30 6441 C 625.813 2.74812 -1.49824 0
M  V30 6442 C 626.288 3.90183 -2.39836 0
M  V30 6443 N 627.779 3.97495 -2.37806 0
M  V30 6444 C 628.514 4.86078 -3.04165 0
M  V30 6445 N 628.01 5.79448 -3.79753 0
M  V30 6446 N 629.803 4.79456 -2.93391 0
M  V30 6447 H 621.954 1.07495 -1.8319 0
M  V30 6448 H 624.217 0.532661 -0.784204 0
M  V30 6449 H 623.923 2.43731 -2.5355 0
M  V30 6450 H 623.797 3.57437 -1.20494 0
M  V30 6451 H 626.184 2.91418 -0.464731 0
M  V30 6452 H 626.265 1.78924 -1.82811 0
M  V30 6453 H 625.909 3.74334 -3.43273 0
M  V30 6454 H 625.839 4.85411 -2.04166 0
M  V30 6455 H 628.33 3.30703 -1.82877 0
M  V30 6456 H 628.643 6.43805 -4.27475 0
M  V30 6457 H 626.988 5.79376 -3.8386 0
M  V30 6458 H 630.179 4.05494 -2.33864 0
M  V30 6459 H 630.352 5.48283 -3.45383 0
M  V30 6460 N 623.758 0.647228 1.43697 0
M  V30 6461 C 625.004 0.167001 2.02713 0
M  V30 6462 C 625.359 -1.20351 1.50111 0
M  V30 6463 O 624.652 -1.79047 0.682113 0
M  V30 6464 C 624.846 0.111481 3.57226 0
M  V30 6465 C 624.675 1.47507 4.2482 0
M  V30 6466 C 623.445 2.06594 4.61137 0
M  V30 6467 C 625.643 2.41224 4.54219 0
M  V30 6468 N 623.625 3.3602 5.13774 0
M  V30 6469 C 624.996 3.55278 5.08112 0
M  V30 6470 C 627.051 2.40102 4.36183 0
M  V30 6471 C 625.754 4.68426 5.45866 0
M  V30 6472 C 627.78 3.52326 4.74995 0
M  V30 6473 C 627.142 4.65104 5.29015 0
M  V30 6474 H 623.241 0.105402 0.774864 0
M  V30 6475 H 625.825 0.854229 1.7496 0
M  V30 6476 H 623.996 -0.545073 3.84556 0
M  V30 6477 H 625.728 -0.379063 4.02921 0
M  V30 6478 H 622.483 1.59366 4.45981 0
M  V30 6479 H 622.907 4.02233 5.44552 0
M  V30 6480 H 627.549 1.54151 3.93697 0
M  V30 6481 H 625.267 5.55074 5.87298 0
M  V30 6482 H 628.853 3.52652 4.6274 0
M  V30 6483 H 627.733 5.50506 5.58492 0
M  V30 6484 N 625.236 -1.5273 0.388769 0
M  V30 6485 C 626.168 -2.24081 -0.481704 0
M  V30 6486 C 627.181 -1.26307 -1.02715 0
M  V30 6487 O 628.37 -1.52386 -0.929565 0
M  V30 6488 C 625.47 -2.94315 -1.68024 0
M  V30 6489 C 624.643 -4.18791 -1.26226 0
M  V30 6490 C 623.702 -4.72028 -2.32542 0
M  V30 6491 O 622.728 -5.35129 -1.93972 0
M  V30 6492 N 623.93 -4.51838 -3.64448 0
M  V30 6493 H 626.695 -2.9942 0.129591 0
M  V30 6494 H 624.256 -1.60465 0.2151 0
M  V30 6495 H 626.248 -3.26831 -2.38671 0
M  V30 6496 H 624.818 -2.22287 -2.19789 0
M  V30 6497 H 624.038 -3.92318 -0.384703 0
M  V30 6498 H 625.326 -4.99668 -0.959647 0
M  V30 6499 H 624.724 -4.01468 -3.98547 0
M  V30 6500 H 623.281 -4.88845 -4.31131 0
M  V30 6501 N 626.714 -0.118576 -1.57153 0
M  V30 6502 C 627.646 0.862247 -2.12363 0
M  V30 6503 C 628.659 1.23025 -1.06625 0
M  V30 6504 O 629.848 1.17927 -1.33998 0
M  V30 6505 C 626.948 2.16425 -2.60794 0
M  V30 6506 C 626.121 1.96801 -3.90626 0
M  V30 6507 C 625.18 3.10726 -4.2466 0
M  V30 6508 O 624.206 2.83659 -4.93484 0
M  V30 6509 N 625.408 4.37147 -3.81946 0
M  V30 6510 H 628.173 0.390564 -2.97144 0
M  V30 6511 H 625.734 0.0658591 -1.61766 0
M  V30 6512 H 627.726 2.91633 -2.80593 0
M  V30 6513 H 626.296 2.54943 -1.80895 0
M  V30 6514 H 625.516 1.05787 -3.7974 0
M  V30 6515 H 626.804 1.80993 -4.7552 0
M  V30 6516 H 626.202 4.62014 -3.26435 0
M  V30 6517 H 624.759 5.09229 -4.06853 0
M  V30 6518 N 628.193 1.56834 0.155195 0
M  V30 6519 C 629.441 1.82536 0.867462 0
M  V30 6520 C 629.762 0.698168 1.82073 0
M  V30 6521 O 629.032 -0.280807 1.93877 0
M  V30 6522 H 627.612 0.673401 0.323327 0
M  V30 6523 H 630.274 1.94313 0.151156 0
M  V30 6524 H 629.37 2.77171 1.43466 0
M  V30 6525 N 629.671 -0.424282 1.51781 0
M  V30 6526 C 630.619 -1.53649 1.74628 0
M  V30 6527 C 631.613 -1.57923 0.612922 0
M  V30 6528 O 632.819 -1.61511 0.794618 0
M  V30 6529 H 629.194 -0.510706 0.551981 0
M  V30 6530 H 631.165 -1.31558 2.67834 0
M  V30 6531 C 629.914 -2.91177 1.9003 0
M  V30 6532 H 629.237 -2.88625 2.76651 0
M  V30 6533 H 630.677 -3.6833 2.10021 0
M  V30 6534 C 629.136 -3.30303 0.663435 0
M  V30 6535 O 629.666 -4.01315 -0.175812 0
M  V30 6536 N 627.872 -2.86201 0.503723 0
M  V30 6537 H 627.419 -2.28583 1.18776 0
M  V30 6538 H 627.377 -3.12741 -0.322575 0
M  V30 6539 N 631.149 -1.42148 -0.680565 0
M  V30 6540 C 632.395 -1.42521 -1.44277 0
M  V30 6541 C 632.728 -0.0393718 -1.9416 0
M  V30 6542 O 632.003 0.935425 -1.70529 0
M  V30 6543 C 632.286 -2.44475 -2.64394 0
M  V30 6544 C 632.139 -3.92226 -2.20179 0
M  V30 6545 C 633.458 -2.43491 -3.66606 0
M  V30 6546 H 630.577 -0.518985 -0.523282 0
M  V30 6547 H 633.219 -1.73524 -0.773914 0
M  V30 6548 H 631.369 -2.18168 -3.21458 0
M  V30 6549 H 633.041 -4.29493 -1.68327 0
M  V30 6550 H 631.284 -4.0637 -1.5181 0
M  V30 6551 H 631.955 -4.59133 -3.06433 0
M  V30 6552 H 634.431 -2.66872 -3.19247 0
M  V30 6553 H 633.307 -3.16816 -4.4824 0
M  V30 6554 H 633.568 -1.45881 -4.17338 0
M  V30 6555 N 632.627 0.916307 -1.28225 0
M  V30 6556 C 633.874 1.66518 -1.1523 0
M  V30 6557 C 634.202 1.92178 0.299632 0
M  V30 6558 O 633.457 1.51842 1.2346 0
M  V30 6559 C 633.756 3.03125 -1.8934 0
M  V30 6560 C 633.422 2.97135 -3.39148 0
M  V30 6561 C 632.084 2.95208 -3.80007 0
M  V30 6562 C 634.436 2.87574 -4.34685 0
M  V30 6563 C 631.764 2.81518 -5.14747 0
M  V30 6564 C 634.116 2.75424 -5.69495 0
M  V30 6565 C 632.78 2.71854 -6.09632 0
M  V30 6566 H 632.05 0.609334 -0.421655 0
M  V30 6567 H 634.697 1.06776 -1.58969 0
M  V30 6568 H 633.002 3.66639 -1.38143 0
M  V30 6569 H 634.699 3.59968 -1.76704 0
M  V30 6570 H 631.289 2.99428 -3.06661 0
M  V30 6571 H 635.473 2.88152 -4.04082 0
M  V30 6572 H 630.729 2.77148 -5.44976 0
M  V30 6573 H 634.903 2.66993 -6.43185 0
M  V30 6574 H 632.53 2.61003 -7.1399 0
M  V30 6575 N 634.105 1.10431 1.1244 0
M  V30 6576 C 635.33 0.869089 1.88313 0
M  V30 6577 C 635.755 -0.574912 1.79099 0
M  V30 6578 O 635.113 -1.40496 1.14589 0
M  V30 6579 C 635.161 1.32208 3.3549 0
M  V30 6580 O 634.265 0.487092 4.09513 0
M  V30 6581 H 633.606 0.313894 0.585121 0
M  V30 6582 H 636.136 1.47111 1.42195 0
M  V30 6583 H 636.146 1.31201 3.86329 0
M  V30 6584 H 634.821 2.37364 3.41513 0
M  V30 6585 H 633.398 0.562372 3.68635 0
M  V30 6586 N 635.583 -1.29855 0.893053 0
M  V30 6587 C 636.823 -1.97612 0.522399 0
M  V30 6588 C 637.187 -1.68903 -0.913 0
M  V30 6589 O 638.388 -2.30059 -1.39019 0
M  V30 6590 C 636.659 -3.48356 0.79893 0
M  V30 6591 S 638.218 -4.35568 0.531588 0
M  V30 6592 H 635.036 -0.684005 0.194058 0
M  V30 6593 H 637.638 -1.57803 1.15406 0
M  V30 6594 H 636.342 -3.66743 1.84196 0
M  V30 6595 H 635.873 -3.93094 0.155133 0
M  V30 6596 H 637.888 -4.92232 -0.626295 0
M  V30 6597 N 637.061 -0.65484 -1.43351 0
M  V30 6598 C 638.286 -0.175046 -2.0666 0
M  V30 6599 C 638.711 1.15104 -1.4877 0
M  V30 6600 O 638.069 1.71144 -0.598279 0
M  V30 6601 C 638.117 -0.0991544 -3.60464 0
M  V30 6602 O 637.221 0.938169 -4.01587 0
M  V30 6603 H 636.562 -0.0956148 -0.65708 0
M  V30 6604 H 639.092 -0.898222 -1.83829 0
M  V30 6605 H 639.102 0.083632 -4.07914 0
M  V30 6606 H 637.777 -1.06719 -4.01975 0
M  V30 6607 H 636.354 0.72804 -3.65724 0
M  V30 6608 N 638.539 1.52521 -0.396863 0
M  V30 6609 C 639.785 2.01971 0.183169 0
M  V30 6610 C 640.118 1.2825 1.45827 0
M  V30 6611 O 639.393 0.385179 1.90648 0
M  V30 6612 C 639.676 3.5736 0.443391 0
M  V30 6613 C 639.529 4.41743 -0.84753 0
M  V30 6614 C 640.848 4.22539 1.2308 0
M  V30 6615 H 637.967 0.734119 0.0650976 0
M  V30 6616 H 640.609 1.82519 -0.527918 0
M  V30 6617 H 638.759 3.74066 1.04914 0
M  V30 6618 H 640.431 4.36773 -1.48414 0
M  V30 6619 H 638.674 4.0845 -1.4612 0
M  V30 6620 H 639.345 5.48507 -0.620003 0
M  V30 6621 H 641.821 4.09857 0.718084 0
M  V30 6622 H 640.697 5.31227 1.38162 0
M  V30 6623 H 640.958 3.80675 2.24808 0
M  V30 6624 N 640.017 0.126909 1.57088 0
M  V30 6625 C 640.95 -0.857844 2.11462 0
M  V30 6626 C 641.928 -1.25569 1.03301 0
M  V30 6627 O 643.112 -1.35535 1.31006 0
M  V30 6628 C 640.239 -2.14912 2.61784 0
M  V30 6629 C 639.285 -1.89874 3.81903 0
M  V30 6630 S 640.118 -1.10785 5.23915 0
M  V30 6631 C 641.274 -2.41075 5.7761 0
M  V30 6632 H 641.507 -0.395384 2.94659 0
M  V30 6633 H 639.04 -0.0870151 1.54155 0
M  V30 6634 H 640.998 -2.89101 2.91429 0
M  V30 6635 H 639.659 -2.58275 1.78754 0
M  V30 6636 H 638.852 -2.85572 4.15289 0
M  V30 6637 H 638.454 -1.23802 3.52915 0
M  V30 6638 H 640.746 -3.36864 5.87817 0
M  V30 6639 H 641.689 -2.12223 6.75549 0
M  V30 6640 H 642.097 -2.50804 5.05725 0
M  V30 6641 N 641.495 -1.56914 -0.146875 0
M  V30 6642 C 642.445 -1.94693 -1.18653 0
M  V30 6643 C 643.429 -0.81821 -1.38543 0
M  V30 6644 O 644.621 -1.08167 -1.40103 0
M  V30 6645 C 641.75 -2.33117 -2.52014 0
M  V30 6646 C 640.836 -3.5256 -2.35717 0
M  V30 6647 N 641.227 -4.69091 -1.89175 0
M  V30 6648 C 639.525 -3.57647 -2.66467 0
M  V30 6649 C 640.226 -5.51187 -1.85924 0
M  V30 6650 N 639.202 -4.92899 -2.29242 0
M  V30 6651 H 643.004 -2.82264 -0.81879 0
M  V30 6652 H 640.518 -1.58474 -0.354929 0
M  V30 6653 H 642.515 -2.58387 -3.27172 0
M  V30 6654 H 641.175 -1.46898 -2.89571 0
M  V30 6655 H 642.186 -4.92844 -1.59139 0
M  V30 6656 H 638.863 -2.81967 -3.07898 0
M  V30 6657 H 640.253 -6.54613 -1.51431 0
M  V30 6658 N 642.974 0.416227 -1.52004 0
M  V30 6659 C 643.884 1.53147 -1.77717 0
M  V30 6660 C 644.9 1.609 -0.662368 0
M  V30 6661 O 646.076 1.77747 -0.946991 0
M  V30 6662 C 643.141 2.88948 -1.91598 0
M  V30 6663 C 642.202 2.9114 -3.15493 0
M  V30 6664 C 641.435 4.20464 -3.28703 0
M  V30 6665 O 641.658 5.13981 -2.47345 0
M  V30 6666 O 640.592 4.29368 -4.21813 0
M  V30 6667 H 644.418 1.34357 -2.72363 0
M  V30 6668 H 642.003 0.601373 -1.36762 0
M  V30 6669 H 643.885 3.69505 -2.02593 0
M  V30 6670 H 642.56 3.07821 -1.00141 0
M  V30 6671 H 641.467 2.09461 -3.09962 0
M  V30 6672 H 642.8 2.77216 -4.06709 0
M  V30 6673 N 644.452 1.42507 0.673017 0
M  V30 6674 C 645.415 1.4582 1.76831 0
M  V30 6675 C 646.415 0.345542 1.57043 0
M  V30 6676 O 647.605 0.606447 1.63303 0
M  V30 6677 C 644.737 1.29158 3.15485 0
M  V30 6678 H 645.93 2.43345 1.7528 0
M  V30 6679 H 643.483 1.28981 0.882817 0
M  V30 6680 H 644.218 0.325626 3.22661 0
M  V30 6681 H 644.003 2.09797 3.31252 0
M  V30 6682 H 645.493 1.34363 3.95394 0
M  V30 6683 N 645.93 -0.909495 1.28709 0
M  V30 6684 C 646.86 -2.0291 1.15542 0
M  V30 6685 C 647.841 -1.7002 0.0521017 0
M  V30 6686 O 649.026 -1.92835 0.229849 0
M  V30 6687 C 646.156 -3.37458 0.820935 0
M  V30 6688 C 645.11 -3.84524 1.87949 0
M  V30 6689 C 644.436 -5.16086 1.39854 0
M  V30 6690 C 645.736 -4.05918 3.28676 0
M  V30 6691 H 647.43 -2.14183 2.09203 0
M  V30 6692 H 644.976 -1.02913 1.00722 0
M  V30 6693 H 646.929 -4.1528 0.715571 0
M  V30 6694 H 645.653 -3.26249 -0.151374 0
M  V30 6695 H 644.312 -3.08911 1.97408 0
M  V30 6696 H 643.96 -5.01284 0.41518 0
M  V30 6697 H 643.66 -5.48547 2.1064 0
M  V30 6698 H 645.184 -5.96459 1.30649 0
M  V30 6699 H 646.598 -4.74252 3.22115 0
M  V30 6700 H 644.995 -4.49717 3.97334 0
M  V30 6701 H 646.065 -3.10583 3.72379 0
M  V30 6702 N 647.408 -1.11026 -1.11852 0
M  V30 6703 C 648.358 -0.733836 -2.15868 0
M  V30 6704 C 649.342 0.26001 -1.58785 0
M  V30 6705 O 650.534 0.0677901 -1.7687 0
M  V30 6706 C 647.663 -0.173948 -3.42859 0
M  V30 6707 C 646.749 -1.1952 -4.0691 0
M  V30 6708 N 647.14 -2.38797 -4.45881 0
M  V30 6709 C 645.438 -1.03714 -4.33773 0
M  V30 6710 C 646.139 -3.03894 -4.96007 0
M  V30 6711 N 645.115 -2.31389 -4.91894 0
M  V30 6712 H 648.917 -1.64171 -2.43773 0
M  V30 6713 H 646.431 -0.988877 -1.28822 0
M  V30 6714 H 648.428 0.113836 -4.16745 0
M  V30 6715 H 647.088 0.728568 -3.16421 0
M  V30 6716 H 648.099 -2.76281 -4.38051 0
M  V30 6717 H 644.776 -0.190694 -4.17064 0
M  V30 6718 H 646.166 -4.05389 -5.35826 0
M  V30 6719 N 648.886 1.2938 -0.899927 0
M  V30 6720 C 649.834 2.29675 -0.367698 0
M  V30 6721 C 650.828 1.60787 0.533282 0
M  V30 6722 O 652.034 1.75126 0.416058 0
M  V30 6723 H 648.409 0.745284 -0.100279 0
M  V30 6724 H 650.38 2.72008 -1.22696 0
M  V30 6725 C 649.129 3.45512 0.389483 0
M  V30 6726 H 648.452 3.98713 -0.294575 0
M  V30 6727 H 649.892 4.17725 0.726744 0
M  V30 6728 C 648.351 2.969 1.59223 0
M  V30 6729 O 648.881 2.98195 2.69152 0
M  V30 6730 N 647.087 2.52728 1.43447 0
M  V30 6731 H 646.634 2.51873 0.540148 0
M  V30 6732 H 646.592 2.20561 2.24054 0
M  V30 6733 N 650.364 0.662433 1.43002 0
M  V30 6734 C 651.314 -0.0460442 2.27954 0
M  V30 6735 C 652.298 -0.785753 1.40409 0
M  V30 6736 O 653.49 -0.666701 1.63964 0
M  V30 6737 C 650.619 -1.00532 3.2825 0
M  V30 6738 C 649.705 -0.263604 4.2328 0
M  V30 6739 N 650.096 0.724855 5.00579 0
M  V30 6740 C 648.394 -0.503778 4.43146 0
M  V30 6741 C 649.095 1.16594 5.69895 0
M  V30 6742 N 648.071 0.498345 5.41311 0
M  V30 6743 H 651.873 0.712314 2.85137 0
M  V30 6744 H 649.387 0.490469 1.54817 0
M  V30 6745 H 651.384 -1.52775 3.87899 0
M  V30 6746 H 650.044 -1.76364 2.72628 0
M  V30 6747 H 651.055 1.10393 5.05998 0
M  V30 6748 H 647.732 -1.24255 3.98581 0
M  V30 6749 H 649.122 1.98434 6.4193 0
M  V30 6750 N 651.842 -1.52309 0.404946 0
M  V30 6751 C 653.072 -2.05886 -0.171569 0
M  V30 6752 C 653.48 -1.27527 -1.39762 0
M  V30 6753 O 652.823 -0.319215 -1.80905 0
M  V30 6754 C 652.885 -3.54609 -0.590983 0
M  V30 6755 C 652.549 -4.53989 0.523757 0
M  V30 6756 C 653.546 -5.01084 1.38604 0
M  V30 6757 C 651.231 -4.97465 0.695255 0
M  V30 6758 C 653.225 -5.90295 2.4048 0
M  V30 6759 C 650.912 -5.86473 1.71733 0
M  V30 6760 C 651.91 -6.32782 2.57051 0
M  V30 6761 O 651.598 -7.20029 3.57509 0
M  V30 6762 H 651.33 -0.675508 -0.0257763 0
M  V30 6763 H 653.884 -1.97238 0.573278 0
M  V30 6764 H 652.114 -3.60929 -1.38805 0
M  V30 6765 H 653.803 -3.90853 -1.09494 0
M  V30 6766 H 654.569 -4.68214 1.26492 0
M  V30 6767 H 650.448 -4.60982 0.0408447 0
M  V30 6768 H 653.992 -6.26363 3.07108 0
M  V30 6769 H 649.889 -6.18756 1.83877 0
M  V30 6770 H 650.657 -7.3813 3.53703 0
M  V30 6771 N 653.32 -0.135238 -1.57019 0
M  V30 6772 C 654.548 0.526066 -2.001 0
M  V30 6773 C 654.963 1.59184 -1.01519 0
M  V30 6774 O 654.32 1.82497 -0.0104258 0
M  V30 6775 C 654.371 1.13744 -3.43139 0
M  V30 6776 O 654.092 0.114259 -4.37951 0
M  V30 6777 C 655.593 1.8805 -4.01438 0
M  V30 6778 H 652.813 0.137962 -0.656664 0
M  V30 6779 H 655.357 -0.226359 -2.03243 0
M  V30 6780 H 653.512 1.84056 -3.40885 0
M  V30 6781 H 653.926 0.56058 -5.21496 0
M  V30 6782 H 655.4 2.26133 -5.03555 0
M  V30 6783 H 655.877 2.76194 -3.41487 0
M  V30 6784 H 656.483 1.22464 -4.07287 0
M  V30 6785 N 654.798 1.5699 0.138552 0
M  V30 6786 C 655.73 1.95515 1.1961 0
M  V30 6787 C 656.743 0.852002 1.38726 0
M  V30 6788 O 657.932 1.13038 1.38147 0
M  V30 6789 C 655.032 2.2213 2.55952 0
M  V30 6790 C 654.205 3.53424 2.57702 0
M  V30 6791 C 653.264 3.6848 3.75645 0
M  V30 6792 O 652.29 4.4079 3.60129 0
M  V30 6793 N 653.492 3.05777 4.93438 0
M  V30 6794 H 656.257 2.86838 0.868557 0
M  V30 6795 H 653.818 1.58542 0.328033 0
M  V30 6796 H 655.81 2.29435 3.33379 0
M  V30 6797 H 654.38 1.3703 2.80965 0
M  V30 6798 H 653.6 3.57484 1.6613 0
M  V30 6799 H 654.888 4.39759 2.55909 0
M  V30 6800 H 654.286 2.46961 5.08947 0
M  V30 6801 H 652.843 3.18631 5.6861 0
M  V30 6802 N 656.276 -0.40816 1.52223 0
M  V30 6803 C 657.223 -1.49737 1.75635 0
M  V30 6804 C 658.193 -1.5493 0.598824 0
M  V30 6805 O 659.378 -1.71487 0.83648 0
M  V30 6806 C 656.518 -2.87174 1.91376 0
M  V30 6807 C 655.631 -2.91283 3.19027 0
M  V30 6808 C 654.766 -4.20026 3.25195 0
M  V30 6809 C 653.805 -4.18113 4.47044 0
M  V30 6810 N 652.942 -5.38429 4.50598 0
M  V30 6811 H 657.782 -1.29075 2.68596 0
M  V30 6812 H 655.319 -0.626518 1.33091 0
M  V30 6813 H 657.277 -3.66959 1.98486 0
M  V30 6814 H 655.907 -3.06329 1.01795 0
M  V30 6815 H 654.959 -2.03984 3.21084 0
M  V30 6816 H 656.271 -2.85734 4.08849 0
M  V30 6817 H 655.425 -5.08204 3.31382 0
M  V30 6818 H 654.164 -4.28271 2.33313 0
M  V30 6819 H 653.169 -3.28325 4.41002 0
M  V30 6820 H 654.394 -4.11507 5.40221 0
M  V30 6821 H 652.34 -5.4734 3.616 0
M  V30 6822 H 652.257 -5.34879 5.34266 0
M  V30 6823 H 653.525 -6.28557 4.61016 0
M  V30 6824 N 657.755 -1.42862 -0.66545 0
M  V30 6825 C 658.98 -1.47456 -1.45848 0
M  V30 6826 C 659.405 -0.0900312 -1.87884 0
M  V30 6827 O 658.763 0.913587 -1.56599 0
M  V30 6828 C 658.811 -2.41514 -2.67774 0
M  V30 6829 O 657.915 -1.89296 -3.66389 0
M  V30 6830 H 657.256 -0.499236 -0.437789 0
M  V30 6831 H 659.786 -1.8765 -0.815394 0
M  V30 6832 H 659.796 -2.58409 -3.15735 0
M  V30 6833 H 658.471 -3.42099 -2.36519 0
M  V30 6834 H 657.048 -1.82003 -3.25468 0
M  V30 6835 N 659.233 0.902656 -1.29189 0
M  V30 6836 C 660.163 2.02294 -1.16616 0
M  V30 6837 C 661.144 1.6999 -0.0611175 0
M  V30 6838 O 662.329 1.9271 -0.240072 0
M  V30 6839 C 659.459 3.37018 -0.83882 0
M  V30 6840 C 658.413 3.83522 -1.89986 0
M  V30 6841 C 657.739 5.15337 -1.42589 0
M  V30 6842 C 659.039 4.04169 -3.30824 0
M  V30 6843 H 660.733 2.13071 -2.10336 0
M  V30 6844 H 658.279 1.02378 -1.01266 0
M  V30 6845 H 660.232 4.14895 -0.737584 0
M  V30 6846 H 658.956 3.26325 0.134071 0
M  V30 6847 H 657.615 3.07859 -1.99043 0
M  V30 6848 H 657.263 5.01056 -0.441759 0
M  V30 6849 H 656.963 5.47423 -2.13547 0
M  V30 6850 H 658.487 5.95758 -1.3381 0
M  V30 6851 H 659.901 4.72537 -3.24626 0
M  V30 6852 H 658.298 4.47604 -3.99713 0
M  V30 6853 H 659.368 3.08604 -3.74021 0
M  V30 6854 N 660.711 1.11618 1.11262 0
M  V30 6855 C 661.936 0.889013 1.8738 0
M  V30 6856 C 662.361 -0.555884 1.79698 0
M  V30 6857 O 661.719 -1.39272 1.16073 0
M  V30 6858 C 661.767 1.35759 3.34069 0
M  V30 6859 O 660.871 0.530499 4.08974 0
M  V30 6860 H 660.212 0.320082 0.581759 0
M  V30 6861 H 662.742 1.48611 1.40627 0
M  V30 6862 H 662.752 1.35291 3.84916 0
M  V30 6863 H 661.427 2.40973 3.38976 0
M  V30 6864 H 660.004 0.601439 3.68018 0
M  V30 6865 N 662.189 -1.289 0.906776 0
M  V30 6866 C 663.119 -2.29932 0.406659 0
M  V30 6867 C 664.1 -1.6189 -0.522061 0
M  V30 6868 O 665.285 -1.8935 -0.431283 0
M  V30 6869 C 662.415 -3.45425 -0.360366 0
M  V30 6870 C 661.369 -4.25316 0.478574 0
M  V30 6871 C 660.695 -5.33076 -0.416373 0
M  V30 6872 C 661.995 -4.92739 1.7322 0
M  V30 6873 H 663.689 -2.72013 1.25097 0
M  V30 6874 H 661.235 -1.30768 0.602977 0
M  V30 6875 H 663.188 -4.15186 -0.721029 0
M  V30 6876 H 661.912 -3.02206 -1.23852 0
M  V30 6877 H 660.571 -3.57273 0.821662 0
M  V30 6878 H 660.219 -4.86101 -1.29287 0
M  V30 6879 H 659.919 -5.8743 0.141309 0
M  V30 6880 H 661.443 -6.05686 -0.773072 0
M  V30 6881 H 662.857 -5.54898 1.44086 0
M  V30 6882 H 661.254 -5.57057 2.23175 0
M  V30 6883 H 662.324 -4.17625 2.46408 0
M  V30 6884 N 663.667 -0.670007 -1.42649 0
M  V30 6885 C 664.892 -0.196955 -2.06463 0
M  V30 6886 C 665.317 1.1352 -1.49983 0
M  V30 6887 O 664.675 1.705 -0.616397 0
M  V30 6888 C 664.723 -0.137381 -3.60338 0
M  V30 6889 O 663.827 0.895523 -4.02559 0
M  V30 6890 H 663.168 -0.102579 -0.656029 0
M  V30 6891 H 665.698 -0.917669 -1.82866 0
M  V30 6892 H 665.708 0.0403625 -4.0798 0
M  V30 6893 H 664.383 -1.10977 -4.0082 0
M  V30 6894 H 662.96 0.689209 -3.66476 0
M  V30 6895 N 665.145 1.52092 -0.413018 0
M  V30 6896 C 666.556 1.86617 0.0556967 0
M  V30 6897 C 666.907 1.33156 1.44097 0
M  V30 6898 O 666.032 0.672417 2.05688 0
M  V30 6899 C 666.627 3.38628 0.107844 0
M  V30 6900 C 665.186 3.72778 0.520904 0
M  V30 6901 C 664.333 2.75649 -0.302109 0
M  V30 6902 H 667.284 1.45663 -0.629919 0
M  V30 6903 H 667.305 3.69152 0.922324 0
M  V30 6904 H 666.817 3.77508 -0.900506 0
M  V30 6905 H 664.918 3.39478 1.53575 0
M  V30 6906 H 665.031 4.7838 0.262591 0
M  V30 6907 H 663.395 2.53603 0.236115 0
M  V30 6908 H 664.178 3.17369 -1.30888 0
M  V30 6909 N 666.623 0.143563 1.56945 0
M  V30 6910 C 667.871 -0.507402 1.95627 0
M  V30 6911 C 668.192 -1.65626 1.02922 0
M  V30 6912 O 667.462 -1.95693 0.0901136 0
M  V30 6913 H 666.042 -0.190436 0.722318 0
M  V30 6914 H 668.704 0.218257 1.93674 0
M  V30 6915 H 667.8 -0.885816 2.99265 0
M  V30 6916 N 668.101 -1.57061 -0.130224 0
M  V30 6917 C 669.048 -1.99517 -1.16024 0
M  V30 6918 C 670.018 -0.865452 -1.41771 0
M  V30 6919 O 671.203 -1.12882 -1.53826 0
M  V30 6920 C 668.343 -2.3951 -2.48453 0
M  V30 6921 C 667.456 -3.65848 -2.29737 0
M  V30 6922 C 666.591 -3.9487 -3.55318 0
M  V30 6923 C 665.63 -5.14426 -3.31711 0
M  V30 6924 N 664.767 -5.39375 -4.49466 0
M  V30 6925 H 669.607 -2.87305 -0.791194 0
M  V30 6926 H 667.144 -1.42129 -0.379195 0
M  V30 6927 H 669.102 -2.60731 -3.25692 0
M  V30 6928 H 667.732 -1.54779 -2.83272 0
M  V30 6929 H 666.784 -3.52307 -1.4347 0
M  V30 6930 H 668.096 -4.53241 -2.08263 0
M  V30 6931 H 667.25 -4.16679 -4.4098 0
M  V30 6932 H 665.989 -3.05931 -3.79813 0
M  V30 6933 H 664.994 -4.92473 -2.44439 0
M  V30 6934 H 666.219 -6.04933 -3.08598 0
M  V30 6935 H 664.165 -4.53391 -4.74102 0
M  V30 6936 H 664.082 -6.21069 -4.31055 0
M  V30 6937 H 665.35 -5.65694 -5.36293 0
M  V30 6938 O 669.618 0.274706 -1.59147 0
M  V30 6939 H 670.309 0.920013 -1.70457 0
M  V30 END ATOM
M  V30 BEGIN BOND
M  V30 END BOND
M  V30 END CTAB
M  END
$$$$
