drugbank_target|Q06432 Voltage-dependent calcium channel gamma-1 subunit (DB00308; DB00343; DB00528; DB00898; DB04842)
 OpenBabel12092119373D

  0  0  0     0  0            999 V3000
M  V30 BEGIN CTAB
M  V30 COUNTS 3509 3556 0 0 0
M  V30 BEGIN ATOM
M  V30 1 H -0.908 1.98254 -0.117106 0
M  V30 2 N 0 1.576 0 0
M  V30 3 C 0.933 2.03868 1.02534 0
M  V30 4 C 1.911 0.928543 1.3348 0
M  V30 5 O 3.095 1.19667 1.45644 0
M  V30 6 C 0.222 2.43627 2.35294 0
M  V30 7 C -0.732 3.65373 2.2001 0
M  V30 8 S 0.101 5.13292 1.52614 0
M  V30 9 C 1.257 5.56322 2.86805 0
M  V30 10 H 1.49 2.90518 0.631377 0
M  V30 11 H -0.977 1.52953 0.210867 0
M  V30 12 H 0.981 2.67203 3.11629 0
M  V30 13 H -0.358 1.57376 2.7183 0
M  V30 14 H -1.165 3.90944 3.18086 0
M  V30 15 H -1.563 3.418 1.51819 0
M  V30 16 H 0.729 5.58782 3.83104 0
M  V30 17 H 1.672 6.56266 2.65933 0
M  V30 18 H 2.08 4.83886 2.90714 0
M  V30 19 N 1.4781 -0.272755 1.55222 0
M  V30 20 C 2.7031 -1.02683 1.80197 0
M  V30 21 C 3.1281 -1.79142 0.573551 0
M  V30 22 O 2.4861 -1.74917 -0.476849 0
M  V30 23 C 2.5341 -1.9609 3.02624 0
M  V30 24 O 1.6381 -3.04863 2.77727 0
M  V30 25 H 0.9791 -0.293557 0.595584 0
M  V30 26 H 3.5091 -0.30159 2.02365 0
M  V30 27 H 3.5191 -2.38039 3.31363 0
M  V30 28 H 2.1941 -1.39851 3.91682 0
M  V30 29 H 0.7711 -2.67228 2.60084 0
M  V30 30 N 2.9562 -1.48159 -0.537278 0
M  V30 31 C 3.8882 -1.58218 -1.65831 0
M  V30 32 C 4.9012 -0.466948 -1.5596 0
M  V30 33 O 6.0902 -0.73747 -1.62553 0
M  V30 34 C 3.1902 -1.48906 -3.04434 0
M  V30 35 C 2.3632 -2.75343 -3.3986 0
M  V30 36 C 1.4222 -2.59588 -4.57712 0
M  V30 37 O 0.4482 -3.33457 -4.61297 0
M  V30 38 N 1.6502 -1.68724 -5.55439 0
M  V30 39 H 4.4152 -2.54891 -1.57641 0
M  V30 40 H 1.9762 -1.4479 -0.724386 0
M  V30 41 H 3.9682 -1.36072 -3.81139 0
M  V30 42 H 2.5382 -0.602368 -3.06741 0
M  V30 43 H 1.7582 -3.02795 -2.52406 0
M  V30 44 H 3.0462 -3.5924 -3.60311 0
M  V30 45 H 2.4442 -1.07898 -5.55315 0
M  V30 46 H 1.0012 -1.61832 -6.3139 0
M  V30 47 N 4.4343 0.785586 -1.36625 0
M  V30 48 C 5.6623 1.57448 -1.3423 0
M  V30 49 C 6.0773 1.88649 0.0755653 0
M  V30 50 O 5.4343 1.50414 1.03354 0
M  V30 51 C 5.4853 2.89316 -2.16745 0
M  V30 52 O 5.2063 2.59459 -3.53005 0
M  V30 53 C 6.7073 3.83606 -2.22174 0
M  V30 54 H 3.9273 0.488226 -0.4603 0
M  V30 55 H 6.4713 0.974733 -1.79775 0
M  V30 56 H 4.6263 3.4575 -1.74745 0
M  V30 57 H 5.0403 3.43804 -3.96105 0
M  V30 58 H 6.5143 4.73181 -2.8426 0
M  V30 59 H 6.9913 4.21734 -1.22627 0
M  V30 60 H 7.5973 3.33104 -2.64427 0
M  V30 61 N 5.9124 1.20967 1.01018 0
M  V30 62 C 6.8594 0.964281 2.09691 0
M  V30 63 C 7.8294 -0.107853 1.65749 0
M  V30 64 O 9.0144 0.0381987 1.90762 0
M  V30 65 C 6.1544 0.52943 3.41015 0
M  V30 66 C 5.2674 1.67043 3.98398 0
M  V30 67 C 4.4024 1.18525 5.17808 0
M  V30 68 C 3.4414 2.29892 5.67288 0
M  V30 69 N 2.5784 1.82546 6.77954 0
M  V30 70 H 7.4184 1.89463 2.30017 0
M  V30 71 H 4.9554 0.944289 1.1279 0
M  V30 72 H 6.9134 0.258588 4.16398 0
M  V30 73 H 5.5434 -0.363919 3.20742 0
M  V30 74 H 4.5954 2.05603 3.20049 0
M  V30 75 H 5.9074 2.50877 4.31117 0
M  V30 76 H 5.0614 0.870762 6.00419 0
M  V30 77 H 3.8004 0.316887 4.86669 0
M  V30 78 H 2.8054 2.6215 4.83278 0
M  V30 79 H 4.0304 3.17216 6.00459 0
M  V30 80 H 1.9764 0.980454 6.48632 0
M  V30 81 H 1.8934 2.59956 7.09901 0
M  V30 82 H 3.1614 1.54115 7.64113 0
M  V30 83 N 7.3905 -1.2043 1.01659 0
M  V30 84 C 8.3235 -2.21924 0.531521 0
M  V30 85 C 9.3015 -1.57054 -0.421032 0
M  V30 86 O 10.4855 -1.85389 -0.341035 0
M  V30 87 C 7.6125 -3.37942 -0.226496 0
M  V30 88 C 6.6585 -4.21115 0.67561 0
M  V30 89 S 7.4915 -4.90674 2.14475 0
M  V30 90 C 8.6475 -6.10113 1.3969 0
M  V30 91 H 8.8805 -2.62725 1.3915 0
M  V30 92 H 6.4135 -1.30481 0.825479 0
M  V30 93 H 8.3715 -4.05196 -0.657738 0
M  V30 94 H 7.0325 -2.956 -1.06205 0
M  V30 95 H 6.2255 -5.03918 0.091108 0
M  V30 96 H 5.8275 -3.59115 1.04463 0
M  V30 97 H 8.1195 -6.7411 0.676897 0
M  V30 98 H 9.0625 -6.73022 2.20107 0
M  V30 99 H 9.4705 -5.57283 0.899786 0
M  V30 100 N 8.8686 -0.792821 -1.36206 0
M  V30 101 C 9.7986 -0.207853 -2.32573 0
M  V30 102 C 10.7796 0.659055 -1.56813 0
M  V30 103 O 11.9646 0.592176 -1.84951 0
M  V30 104 C 9.0946 0.655449 -3.41059 0
M  V30 105 C 8.0486 -0.111842 -4.27854 0
M  V30 106 C 7.3746 0.872274 -5.27537 0
M  V30 107 C 8.6746 -1.30299 -5.05786 0
M  V30 108 H 10.3686 -1.01294 -2.81744 0
M  V30 109 H 7.9146 -0.48854 -1.3546 0
M  V30 110 H 9.8676 1.07464 -4.07467 0
M  V30 111 H 8.5916 1.49328 -2.90463 0
M  V30 112 H 7.2506 -0.512053 -3.63006 0
M  V30 113 H 6.8986 1.70523 -4.73214 0
M  V30 114 H 6.5986 0.363291 -5.86476 0
M  V30 115 H 8.1226 1.28996 -5.96818 0
M  V30 116 H 9.5366 -0.959379 -5.65216 0
M  V30 117 H 7.9336 -1.7455 -5.74154 0
M  V30 118 H 9.0036 -2.09663 -4.37229 0
M  V30 119 N 10.3467 1.47872 -0.545128 0
M  V30 120 C 11.2937 2.29849 0.2093 0
M  V30 121 C 12.2637 1.38313 0.919707 0
M  V30 122 O 13.4487 1.67277 0.917772 0
M  V30 123 C 10.5887 3.22019 1.24088 0
M  V30 124 C 9.7017 4.2864 0.537778 0
M  V30 125 C 8.8367 5.07973 1.5536 0
M  V30 126 C 7.8757 6.06381 0.8348 0
M  V30 127 N 7.0127 6.78717 1.79688 0
M  V30 128 H 11.8527 2.93845 -0.49591 0
M  V30 129 H 9.3897 1.44848 -0.256389 0
M  V30 130 H 11.3477 3.73868 1.85144 0
M  V30 131 H 9.9777 2.59914 1.91428 0
M  V30 132 H 9.0297 3.7994 -0.187046 0
M  V30 133 H 10.3417 4.98793 -0.0258907 0
M  V30 134 H 9.4957 5.63912 2.23803 0
M  V30 135 H 8.2347 4.37693 2.15118 0
M  V30 136 H 7.2397 5.49631 0.136388 0
M  V30 137 H 8.4647 6.78665 0.24313 0
M  V30 138 H 6.4107 6.11177 2.38326 0
M  V30 139 H 6.3277 7.44998 1.28505 0
M  V30 140 H 7.5957 7.39237 2.47282 0
M  V30 141 N 11.8248 0.280983 1.55075 0
M  V30 142 C 13.0708 -0.33461 2.00021 0
M  V30 143 C 13.4038 -1.55063 1.16915 0
M  V30 144 O 12.6788 -1.93006 0.240646 0
M  V30 145 C 12.9618 -0.711007 3.53011 0
M  V30 146 C 12.8148 0.512766 4.46868 0
M  V30 147 C 14.1338 -1.54522 4.12081 0
M  V30 148 H 11.2528 -0.120147 0.727141 0
M  V30 149 H 13.8948 0.389097 1.85973 0
M  V30 150 H 12.0448 -1.32761 3.65112 0
M  V30 151 H 13.7168 1.15131 4.46702 0
M  V30 152 H 11.9598 1.14975 4.18286 0
M  V30 153 H 12.6308 0.205556 5.51617 0
M  V30 154 H 15.1068 -1.02442 4.03293 0
M  V30 155 H 13.9828 -1.77739 5.19327 0
M  V30 156 H 14.2438 -2.52813 3.62682 0
M  V30 157 N 13.3029 -1.57598 0.00835791 0
M  V30 158 C 14.7189 -1.55764 -0.347822 0
M  V30 159 C 14.9189 -1.01186 -1.74252 0
M  V30 160 O 13.9749 -0.649371 -2.44007 0
M  V30 161 C 15.2879 -2.99927 -0.215407 0
M  V30 162 C 16.8359 -3.11656 -0.289725 0
M  V30 163 C 17.3109 -4.57621 -0.18634 0
M  V30 164 N 18.8019 -4.62557 -0.243978 0
M  V30 165 C 19.5369 -5.73094 -0.18745 0
M  V30 166 N 19.0329 -6.92753 -0.0810331 0
M  V30 167 N 20.8259 -5.61588 -0.239925 0
M  V30 168 H 12.9769 -1.91411 0.92062 0
M  V30 169 H 15.2399 -0.879562 0.353659 0
M  V30 170 H 14.9459 -3.43729 0.744512 0
M  V30 171 H 14.8199 -3.63865 -0.994097 0
M  V30 172 H 17.2069 -2.67779 -1.24009 0
M  V30 173 H 17.2879 -2.5048 0.51898 0
M  V30 174 H 16.9319 -5.02174 0.760519 0
M  V30 175 H 16.8619 -5.16752 -1.01364 0
M  V30 176 H 19.3529 -3.76481 -0.327217 0
M  V30 177 H 19.6659 -7.72787 -0.0440241 0
M  V30 178 H 18.0109 -6.94984 -0.0465419 0
M  V30 179 H 21.2019 -4.66996 -0.321317 0
M  V30 180 H 21.3749 -6.47714 -0.192407 0
M  V30 181 N 14.781 0.264519 -1.55364 0
M  V30 182 C 16.027 0.99646 -1.76631 0
M  V30 183 C 16.36 1.85632 -0.570478 0
M  V30 184 O 15.635 1.89647 0.43175 0
M  V30 185 C 15.918 1.87187 -3.07625 0
M  V30 186 C 15.771 1.04138 -4.37579 0
M  V30 187 C 17.09 2.85749 -3.34717 0
M  V30 188 H 14.209 0.360841 -0.642622 0
M  V30 189 H 16.851 0.268218 -1.88097 0
M  V30 190 H 15.001 2.49279 -2.9798 0
M  V30 191 H 16.673 0.440517 -4.59192 0
M  V30 192 H 14.916 0.345115 -4.32425 0
M  V30 193 H 15.587 1.68729 -5.2558 0
M  V30 194 H 18.063 2.33793 -3.4421 0
M  V30 195 H 16.939 3.44136 -4.27623 0
M  V30 196 H 17.2 3.61311 -2.54768 0
M  V30 197 N 16.2591 1.48442 0.529413 0
M  V30 198 C 17.4871 1.60151 1.30994 0
M  V30 199 C 17.9021 0.261985 1.86973 0
M  V30 200 O 17.2591 -0.748805 1.66431 0
M  V30 201 C 17.3101 2.64854 2.46038 0
M  V30 202 O 17.0311 3.93608 1.92365 0
M  V30 203 C 18.5321 2.87007 3.37849 0
M  V30 204 H 15.7521 0.539971 0.398338 0
M  V30 205 H 18.2961 1.94273 0.638597 0
M  V30 206 H 16.4511 2.33589 3.09055 0
M  V30 207 H 16.8651 4.51055 2.67675 0
M  V30 208 H 18.3391 3.64068 4.14919 0
M  V30 209 H 18.8161 1.95852 3.93114 0
M  V30 210 H 19.4221 3.19579 2.80623 0
M  V30 211 N 17.7372 -0.778329 1.37039 0
M  V30 212 C 18.6672 -1.90546 1.34962 0
M  V30 213 C 19.6482 -1.68681 0.219274 0
M  V30 214 O 20.8332 -1.89634 0.418624 0
M  V30 215 C 17.9632 -3.27734 1.14925 0
M  V30 216 C 16.9172 -3.64147 2.24902 0
M  V30 217 C 16.2432 -4.99806 1.89996 0
M  V30 218 C 17.5432 -3.71579 3.67051 0
M  V30 219 H 19.2372 -1.92541 2.29277 0
M  V30 220 H 16.7832 -0.924948 1.10366 0
M  V30 221 H 18.7362 -4.06215 1.12104 0
M  V30 222 H 17.4602 -3.26154 0.170631 0
M  V30 223 H 16.1192 -2.8797 2.26868 0
M  V30 224 H 15.7672 -4.94759 0.906796 0
M  V30 225 H 15.4672 -5.25139 2.63634 0
M  V30 226 H 16.9912 -5.80694 1.88749 0
M  V30 227 H 18.4052 -4.40227 3.67251 0
M  V30 228 H 16.8022 -4.08405 4.39688 0
M  V30 229 H 17.8722 -2.72404 4.01154 0
M  V30 230 N 19.2153 -1.21501 -1.00376 0
M  V30 231 C 20.4623 -1.03299 -1.74171 0
M  V30 232 C 20.7903 0.433326 -1.89612 0
M  V30 233 O 20.0453 1.33779 -1.42834 0
M  V30 234 C 20.3443 -1.67673 -3.15627 0
M  V30 235 C 20.0103 -3.17533 -3.2013 0
M  V30 236 C 18.6723 -3.58427 -3.21067 0
M  V30 237 C 21.0243 -4.13504 -3.17275 0
M  V30 238 C 18.3523 -4.93794 -3.16835 0
M  V30 239 C 20.7043 -5.48834 -3.14585 0
M  V30 240 C 19.3683 -5.89123 -3.13831 0
M  V30 241 H 18.6383 -0.377999 -0.637336 0
M  V30 242 H 21.2853 -1.51111 -1.17634 0
M  V30 243 H 19.5903 -1.12158 -3.75404 0
M  V30 244 H 21.2873 -1.51091 -3.71446 0
M  V30 245 H 17.8773 -2.84965 -3.20145 0
M  V30 246 H 22.0613 -3.82936 -3.15711 0
M  V30 247 H 17.3173 -5.24255 -3.1459 0
M  V30 248 H 21.4913 -6.22934 -3.1133 0
M  V30 249 H 19.1183 -6.93984 -3.10307 0
M  V30 250 N 20.6934 1.19889 -1.02296 0
M  V30 251 C 21.9334 1.91125 -0.724602 0
M  V30 252 C 22.2974 1.77464 0.732835 0
M  V30 253 O 23.4984 2.43241 1.144 0
M  V30 254 C 21.7694 3.38187 -1.15604 0
M  V30 255 S 23.3284 4.27702 -0.980621 0
M  V30 256 H 20.1464 0.66018 -0.263976 0
M  V30 257 H 22.7484 1.44978 -1.31155 0
M  V30 258 H 21.4524 3.45653 -2.21251 0
M  V30 259 H 20.9834 3.89363 -0.562131 0
M  V30 260 H 22.9984 4.96073 0.112225 0
M  V30 261 N 22.1715 0.800033 1.35784 0
M  V30 262 C 23.4205 0.37387 1.98205 0
M  V30 263 C 23.7335 -1.06302 1.64193 0
M  V30 264 O 24.9395 -1.59198 2.19928 0
M  V30 265 C 23.3955 0.617532 3.54562 0
M  V30 266 C 23.0035 2.06654 3.9749 0
M  V30 267 C 24.7475 0.256401 4.23725 0
M  V30 268 C 22.6545 2.2563 5.46667 0
M  V30 269 H 21.5845 0.136055 0.741623 0
M  V30 270 H 24.2355 0.983166 1.54939 0
M  V30 271 H 22.6175 -0.0616248 3.95952 0
M  V30 272 H 23.7915 2.78296 3.67271 0
M  V30 273 H 22.1065 2.38691 3.41197 0
M  V30 274 H 24.7035 0.376318 5.33374 0
M  V30 275 H 25.0465 -0.796692 4.08606 0
M  V30 276 H 25.5795 0.889214 3.87734 0
M  V30 277 H 22.3185 3.2936 5.66747 0
M  V30 278 H 21.8385 1.58504 5.78478 0
M  V30 279 H 23.5175 2.06861 6.1304 0
M  V30 280 N 23.6496 -1.47581 0.552962 0
M  V30 281 C 24.5796 -2.32762 -0.185451 0
M  V30 282 C 25.5606 -1.43527 -0.912905 0
M  V30 283 O 26.7456 -1.72388 -0.894201 0
M  V30 284 C 23.8756 -3.25219 -1.21859 0
M  V30 285 C 22.8296 -4.23661 -0.607864 0
M  V30 286 C 22.1556 -5.05413 -1.74533 0
M  V30 287 C 23.4556 -5.20481 0.435582 0
M  V30 288 H 25.1496 -2.94749 0.525684 0
M  V30 289 H 22.6956 -1.41738 0.254251 0
M  V30 290 H 24.6486 -3.8365 -1.7433 0
M  V30 291 H 23.3726 -2.61279 -1.95961 0
M  V30 292 H 22.0316 -3.66451 -0.104489 0
M  V30 293 H 21.6796 -4.3788 -2.47529 0
M  V30 294 H 21.3796 -5.72059 -1.34249 0
M  V30 295 H 22.9036 -5.66701 -2.27338 0
M  V30 296 H 24.3176 -5.733 -0.00290157 0
M  V30 297 H 22.7146 -5.95305 0.757067 0
M  V30 298 H 23.7846 -4.66217 1.33303 0
M  V30 299 N 25.1277 -0.289203 -1.54924 0
M  V30 300 C 26.0907 0.579144 -2.21762 0
M  V30 301 C 27.0907 1.07047 -1.1999 0
M  V30 302 O 28.2807 0.968384 -1.44803 0
M  V30 303 C 25.4127 1.80055 -2.8947 0
M  V30 304 H 26.6057 -0.00464908 -2.999 0
M  V30 305 H 24.1587 -0.0399306 -1.56249 0
M  V30 306 H 24.8937 2.42449 -2.15381 0
M  V30 307 H 24.6787 1.45602 -3.64064 0
M  V30 308 H 26.1687 2.41773 -3.40493 0
M  V30 309 N 26.6058 1.57591 -0.0167156 0
M  V30 310 C 27.8538 1.90906 0.663285 0
M  V30 311 C 28.1748 0.892509 1.73376 0
M  V30 312 O 27.4448 -0.0677623 1.95783 0
M  V30 313 H 26.0248 0.704637 0.247983 0
M  V30 314 H 28.6868 1.94803 -0.0615909 0
M  V30 315 H 27.7828 2.9116 1.12393 0
M  V30 316 N 28.0839 -0.256276 1.55502 0
M  V30 317 C 29.3329 -0.983486 1.76098 0
M  V30 318 C 29.6459 -1.86837 0.578896 0
M  V30 319 O 30.8519 -2.63163 0.667648 0
M  V30 320 C 29.3079 -1.79868 3.1173 0
M  V30 321 C 28.9159 -0.961648 4.37557 0
M  V30 322 C 30.6599 -2.51919 3.41668 0
M  V30 323 C 28.5669 -1.77219 5.64223 0
M  V30 324 H 27.4969 -0.370936 0.656447 0
M  V30 325 H 30.1479 -0.238492 1.81944 0
M  V30 326 H 28.5299 -2.58527 2.99966 0
M  V30 327 H 29.7039 -0.218048 4.60284 0
M  V30 328 H 28.0189 -0.354913 4.14885 0
M  V30 329 H 30.6159 -3.12998 4.33516 0
M  V30 330 H 30.9589 -3.23059 2.62562 0
M  V30 331 H 31.4919 -1.80278 3.54605 0
M  V30 332 H 28.2309 -1.10471 6.46124 0
M  V30 333 H 27.7509 -2.49132 5.45613 0
M  V30 334 H 29.4299 -2.34169 6.03137 0
M  V30 335 N 29.562 -1.4872 -0.521534 0
M  V30 336 C 30.808 -1.574 -1.27879 0
M  V30 337 C 31.141 -0.250817 -1.92573 0
M  V30 338 O 30.416 0.743934 -1.79711 0
M  V30 339 C 30.699 -2.71843 -2.36164 0
M  V30 340 C 30.552 -4.13893 -1.76105 0
M  V30 341 C 31.871 -2.82008 -3.37875 0
M  V30 342 H 28.99 -0.572941 -0.463581 0
M  V30 343 H 31.632 -1.80927 -0.580119 0
M  V30 344 H 29.782 -2.51914 -2.95756 0
M  V30 345 H 31.454 -4.45284 -1.20499 0
M  V30 346 H 29.697 -4.20498 -1.06601 0
M  V30 347 H 30.368 -4.89804 -2.5455 0
M  V30 348 H 32.844 -3.00086 -2.88249 0
M  V30 349 H 31.72 -3.63796 -4.11028 0
M  V30 350 H 31.981 -1.90511 -3.98946 0
M  V30 351 N 31.0401 0.771051 -1.3745 0
M  V30 352 C 31.9701 1.89827 -1.3597 0
M  V30 353 C 32.9511 1.68562 -0.228216 0
M  V30 354 O 34.1361 1.8941 -0.428675 0
M  V30 355 C 31.2661 3.2712 -1.16662 0
M  V30 356 C 30.2201 3.6295 -2.2683 0
M  V30 357 C 29.5461 4.98791 -1.92644 0
M  V30 358 C 30.8461 3.69627 -3.69017 0
M  V30 359 H 32.5401 1.91323 -2.30295 0
M  V30 360 H 30.0861 0.919082 -1.10855 0
M  V30 361 H 32.0391 4.05615 -1.14256 0
M  V30 362 H 30.7631 3.26059 -0.187926 0
M  V30 363 H 29.4221 2.86763 -2.28392 0
M  V30 364 H 29.0701 4.94271 -0.933021 0
M  V30 365 H 28.7701 5.23733 -2.66416 0
M  V30 366 H 30.2941 5.79685 -1.91826 0
M  V30 367 H 31.7081 4.38273 -3.69581 0
M  V30 368 H 30.1051 4.06067 -4.41848 0
M  V30 369 H 31.1751 2.70273 -4.02592 0
M  V30 370 N 32.5182 1.22032 0.997298 0
M  V30 371 C 33.4812 0.987909 2.06816 0
M  V30 372 C 34.4812 -0.0440084 1.6074 0
M  V30 373 O 35.6712 0.194053 1.73116 0
M  V30 374 C 32.8032 0.49132 3.37341 0
M  V30 375 H 33.9962 1.93803 2.28868 0
M  V30 376 H 31.5492 1.03838 1.16822 0
M  V30 377 H 32.2842 -0.463364 3.20973 0
M  V30 378 H 32.0692 1.23575 3.72118 0
M  V30 379 H 33.5592 0.348824 4.16141 0
M  V30 380 N 33.9963 -1.19345 1.0293 0
M  V30 381 C 34.9293 -2.21347 0.555029 0
M  V30 382 C 35.9073 -1.57492 -0.404351 0
M  V30 383 O 37.0913 -1.85741 -0.321352 0
M  V30 384 C 34.2183 -3.38163 -0.19064 0
M  V30 385 C 33.2643 -4.20375 0.720236 0
M  V30 386 S 34.0973 -4.88371 2.19668 0
M  V30 387 C 35.2533 -6.08597 1.46153 0
M  V30 388 H 35.4863 -2.61235 1.41929 0
M  V30 389 H 33.0193 -1.29598 0.839272 0
M  V30 390 H 34.9773 -4.05871 -0.614724 0
M  V30 391 H 33.6383 -2.9671 -1.03063 0
M  V30 392 H 32.8313 -5.03793 0.14455 0
M  V30 393 H 32.4333 -3.57987 1.08266 0
M  V30 394 H 34.7253 -6.73354 0.748357 0
M  V30 395 H 35.6683 -6.7065 2.27233 0
M  V30 396 H 36.0763 -5.56297 0.958842 0
M  V30 397 N 35.4744 -0.807222 -1.35358 0
M  V30 398 C 36.7024 -0.400377 -2.02989 0
M  V30 399 C 37.1174 0.988859 -1.60832 0
M  V30 400 O 36.4744 1.63729 -0.806175 0
M  V30 401 C 36.5254 -0.474867 -3.58368 0
M  V30 402 O 36.2464 -1.80933 -3.98992 0
M  V30 403 C 37.7474 -0.0609112 -4.43258 0
M  V30 404 H 34.9674 -0.162587 -0.651004 0
M  V30 405 H 37.5114 -1.09102 -1.72965 0
M  V30 406 H 35.6664 0.167534 -3.87038 0
M  V30 407 H 36.0804 -1.77256 -4.9364 0
M  V30 408 H 37.5544 -0.164145 -5.51756 0
M  V30 409 H 38.0314 0.993831 -4.27808 0
M  V30 410 H 38.6374 -0.676492 -4.19885 0
M  V30 411 N 36.9525 1.47285 -0.560781 0
M  V30 412 C 37.9155 2.28535 0.174488 0
M  V30 413 C 38.9155 1.37153 0.839388 0
M  V30 414 O 40.1055 1.59748 0.694702 0
M  V30 415 C 37.2375 3.16934 1.25561 0
M  V30 416 H 38.4305 2.95012 -0.539262 0
M  V30 417 H 35.9835 1.53034 -0.317865 0
M  V30 418 H 36.7185 2.55157 2.00164 0
M  V30 419 H 36.5035 3.8419 0.783604 0
M  V30 420 H 37.9935 3.78143 1.77193 0
M  V30 421 N 38.4306 0.297415 1.54768 0
M  V30 422 C 39.6766 -0.313376 2.00364 0
M  V30 423 C 40.0096 -1.53815 1.18553 0
M  V30 424 O 39.2846 -1.92739 0.261103 0
M  V30 425 C 39.5676 -0.673525 3.53745 0
M  V30 426 C 39.4206 0.560133 4.46299 0
M  V30 427 C 40.7396 -1.50143 4.13697 0
M  V30 428 H 37.8586 -0.112428 0.728374 0
M  V30 429 H 40.5006 0.4088 1.8555 0
M  V30 430 H 38.6506 -1.28881 3.665 0
M  V30 431 H 40.3226 1.19863 4.45455 0
M  V30 432 H 38.5656 1.19405 4.17043 0
M  V30 433 H 39.2366 0.26405 5.51368 0
M  V30 434 H 41.7126 -0.981588 4.04356 0
M  V30 435 H 40.5886 -1.72221 5.21182 0
M  V30 436 H 40.8496 -2.48952 3.65343 0
M  V30 437 N 39.9087 -1.5758 0.0250728 0
M  V30 438 C 41.1547 -1.91917 -0.655413 0
M  V30 439 C 41.4877 -0.901433 -1.72011 0
M  V30 440 O 40.7627 0.0764069 -1.9435 0
M  V30 441 C 41.0457 -3.36751 -1.27558 0
M  V30 442 C 40.8987 -4.49258 -0.220719 0
M  V30 443 C 42.2177 -3.81469 -2.19475 0
M  V30 444 H 39.3367 -0.697925 -0.23679 0
M  V30 445 H 41.9787 -1.89825 0.0815036 0
M  V30 446 H 40.1287 -3.38664 -1.90365 0
M  V30 447 H 41.8007 -4.59478 0.409601 0
M  V30 448 H 40.0437 -4.31415 0.454264 0
M  V30 449 H 40.7147 -5.47618 -0.694175 0
M  V30 450 H 43.1907 -3.81266 -1.66659 0
M  V30 451 H 42.0667 -4.83512 -2.59822 0
M  V30 452 H 42.3277 -3.16744 -3.08424 0
M  V30 453 N 41.3868 0.248026 -1.55636 0
M  V30 454 C 42.6148 0.993808 -1.81469 0
M  V30 455 C 43.0298 1.78991 -0.60064 0
M  V30 456 O 42.3868 1.77345 0.430682 0
M  V30 457 C 42.4378 1.93258 -3.05506 0
M  V30 458 O 42.1588 1.16869 -4.22224 0
M  V30 459 C 43.6598 2.79444 -3.4413 0
M  V30 460 H 40.8798 0.292486 -0.603898 0
M  V30 461 H 43.4238 0.271253 -2.02693 0
M  V30 462 H 41.5788 2.60943 -2.86335 0
M  V30 463 H 41.9928 1.80359 -4.92515 0
M  V30 464 H 43.4668 3.41066 -4.34026 0
M  V30 465 H 43.9438 3.50499 -2.64665 0
M  V30 466 H 44.5498 2.17214 -3.65648 0
M  V30 467 N 42.8649 1.48995 0.513639 0
M  V30 468 C 44.1419 1.48338 1.27495 0
M  V30 469 C 44.5219 0.204065 2.10111 0
M  V30 470 O 43.8699 -0.813881 2.13514 0
M  V30 471 C 44.0799 2.75498 2.14247 0
M  V30 472 C 45.4279 3.24484 2.73852 0
M  V30 473 O 46.4519 2.76528 2.24523 0
M  V30 474 O 45.3109 4.07974 3.6362 0
M  V30 475 H 42.4049 0.593149 0.576284 0
M  V30 476 H 44.9509 1.61246 0.528948 0
M  V30 477 H 43.7229 3.60109 1.53092 0
M  V30 478 H 43.3459 2.6539 2.96064 0
M  V30 479 N 44.343 -0.763751 1.37857 0
M  V30 480 C 45.293 -1.86765 1.30777 0
M  V30 481 C 46.277 -1.59726 0.194015 0
M  V30 482 O 47.469 -1.7172 0.42911 0
M  V30 483 C 44.598 -3.24343 1.12502 0
M  V30 484 C 43.684 -3.57307 2.28456 0
M  V30 485 N 44.075 -3.61398 3.53871 0
M  V30 486 C 42.373 -3.87517 2.20786 0
M  V30 487 C 43.074 -3.91339 4.30382 0
M  V30 488 N 42.05 -4.07649 3.59615 0
M  V30 489 H 45.852 -1.88191 2.25746 0
M  V30 490 H 43.366 -0.9606 1.30944 0
M  V30 491 H 45.363 -4.03327 1.05514 0
M  V30 492 H 44.023 -3.24175 0.184574 0
M  V30 493 H 45.034 -3.43407 3.87675 0
M  V30 494 H 41.711 -3.95125 1.34844 0
M  V30 495 H 43.101 -4.01213 5.3896 0
M  V30 496 N 45.8211 -1.22559 -0.990812 0
M  V30 497 C 47.0671 -1.06303 -1.73411 0
M  V30 498 C 47.4221 0.397442 -1.8825 0
M  V30 499 O 46.7151 1.29062 -1.41611 0
M  V30 500 C 46.9091 -1.71011 -3.13831 0
M  V30 501 C 46.7381 -3.232 -3.12685 0
M  V30 502 C 45.5081 -3.92314 -3.18461 0
M  V30 503 C 47.7061 -4.20107 -2.96673 0
M  V30 504 N 45.6881 -5.31571 -3.07091 0
M  V30 505 C 47.0591 -5.46208 -2.93354 0
M  V30 506 C 49.1141 -4.10973 -2.8108 0
M  V30 507 C 47.8171 -6.64225 -2.76039 0
M  V30 508 C 49.8431 -5.28642 -2.65126 0
M  V30 509 C 49.2051 -6.53663 -2.62496 0
M  V30 510 H 45.3041 -0.443441 -0.644115 0
M  V30 511 H 47.8881 -1.55131 -1.17654 0
M  V30 512 H 46.0591 -1.2473 -3.67827 0
M  V30 513 H 47.7911 -1.47828 -3.76735 0
M  V30 514 H 44.5461 -3.43326 -3.26227 0
M  V30 515 H 44.9701 -6.0455 -3.0471 0
M  V30 516 H 49.6121 -3.15098 -2.8191 0
M  V30 517 H 47.3301 -7.60246 -2.73954 0
M  V30 518 H 50.9161 -5.23407 -2.54039 0
M  V30 519 H 49.7961 -7.43182 -2.50302 0
M  V30 520 N 47.2992 1.18797 -1.03562 0
M  V30 521 C 48.2622 2.20464 -0.626769 0
M  V30 522 C 49.2622 1.57721 0.313173 0
M  V30 523 O 50.4522 1.73917 0.0992615 0
M  V30 524 C 47.5842 3.40802 0.0818498 0
M  V30 525 H 48.7772 2.58149 -1.5264 0
M  V30 526 H 46.3302 1.32593 -0.827578 0
M  V30 527 H 47.0652 3.08642 0.995518 0
M  V30 528 H 46.8502 3.8758 -0.593652 0
M  V30 529 H 48.3402 4.16092 0.354584 0
M  V30 530 N 48.7773 0.814389 1.34928 0
M  V30 531 C 50.0233 0.399013 1.98836 0
M  V30 532 C 50.3563 -1.03314 1.64438 0
M  V30 533 O 49.6313 -1.71811 0.911659 0
M  V30 534 C 49.9143 0.591629 3.55207 0
M  V30 535 C 49.7673 2.06928 3.99376 0
M  V30 536 C 51.0863 0.022199 4.40094 0
M  V30 537 H 48.2053 0.146451 0.722303 0
M  V30 538 H 50.8473 1.02537 1.59957 0
M  V30 539 H 48.9973 0.0584441 3.88456 0
M  V30 540 H 50.6693 2.66544 3.76499 0
M  V30 541 H 48.9123 2.56287 3.49999 0
M  V30 542 H 49.5833 2.1549 5.08201 0
M  V30 543 H 52.0593 0.477643 4.13349 0
M  V30 544 H 50.9353 0.186832 5.48582 0
M  V30 545 H 51.1963 -1.07215 4.28902 0
M  V30 546 N 50.2554 -1.46986 0.568584 0
M  V30 547 C 51.1854 -2.32946 -0.160753 0
M  V30 548 C 52.1664 -1.44487 -0.897631 0
M  V30 549 O 53.3514 -1.73327 -0.875867 0
M  V30 550 C 50.4814 -3.26494 -1.18403 0
M  V30 551 C 49.4354 -4.24282 -0.562895 0
M  V30 552 C 48.7614 -5.07236 -1.69163 0
M  V30 553 C 50.0614 -5.19989 0.490761 0
M  V30 554 H 51.7554 -2.94175 0.556916 0
M  V30 555 H 49.3014 -1.4146 0.26927 0
M  V30 556 H 51.2544 -3.85477 -1.70251 0
M  V30 557 H 49.9784 -2.63343 -1.93179 0
M  V30 558 H 48.6374 -3.66541 -0.0656164 0
M  V30 559 H 48.2854 -4.4048 -2.42871 0
M  V30 560 H 47.9854 -5.7345 -1.28174 0
M  V30 561 H 49.5094 -5.6908 -2.21314 0
M  V30 562 H 50.9234 -5.73271 0.0579047 0
M  V30 563 H 49.3204 -5.94469 0.820165 0
M  V30 564 H 50.3904 -4.64777 1.3824 0
M  V30 565 N 51.7335 -0.305618 -1.54608 0
M  V30 566 C 52.9585 0.307562 -2.05107 0
M  V30 567 C 53.3835 1.46385 -1.18123 0
M  V30 568 O 52.7415 1.8034 -0.186324 0
M  V30 569 C 52.7895 0.73704 -3.52987 0
M  V30 570 O 51.8935 1.84134 -3.6901 0
M  V30 571 H 51.2345 0.0589143 -0.661381 0
M  V30 572 H 53.7645 -0.448807 -1.99617 0
M  V30 573 H 53.7745 1.02459 -3.94925 0
M  V30 574 H 52.4495 -0.108773 -4.15758 0
M  V30 575 H 51.0265 1.55398 -3.38978 0
M  V30 576 N 53.2116 1.57565 -0.0334293 0
M  V30 577 C 54.6226 1.79746 0.504798 0
M  V30 578 C 54.9736 0.944091 1.71992 0
M  V30 579 O 54.0986 0.155694 2.15839 0
M  V30 580 C 54.6936 3.25997 0.922567 0
M  V30 581 C 53.2526 3.49159 1.40588 0
M  V30 582 C 52.3996 2.74785 0.372633 0
M  V30 583 H 55.3506 1.56565 -0.259436 0
M  V30 584 H 55.3716 3.35945 1.78666 0
M  V30 585 H 54.8836 3.88081 0.0379825 0
M  V30 586 H 52.9846 2.92332 2.31025 0
M  V30 587 H 53.0976 4.57873 1.41028 0
M  V30 588 H 51.4616 2.40391 0.841672 0
M  V30 589 H 52.2446 3.39587 -0.503559 0
M  V30 590 N 54.6897 -0.239769 1.55765 0
M  V30 591 C 55.6397 -1.30002 1.87306 0
M  V30 592 C 56.6237 -1.43156 0.73452 0
M  V30 593 O 57.8157 -1.46277 0.99659 0
M  V30 594 C 54.9447 -2.65409 2.17745 0
M  V30 595 C 54.0307 -2.56231 3.37945 0
M  V30 596 N 54.4217 -2.16689 4.57033 0
M  V30 597 C 52.7197 -2.87229 3.41197 0
M  V30 598 C 53.4207 -2.18318 5.39177 0
M  V30 599 N 52.3967 -2.58098 4.78421 0
M  V30 600 H 56.1987 -0.984912 2.76906 0
M  V30 601 H 53.7127 -0.448381 1.56087 0
M  V30 602 H 55.7097 -3.41934 2.38509 0
M  V30 603 H 54.3697 -2.97781 1.29448 0
M  V30 604 H 55.3807 -1.88116 4.82528 0
M  V30 605 H 52.0577 -3.24094 2.63191 0
M  V30 606 H 53.4477 -1.90025 6.44469 0
M  V30 607 N 56.1678 -1.49265 -0.50573 0
M  V30 608 C 57.1008 -1.60183 -1.62532 0
M  V30 609 C 58.0788 -0.451107 -1.56217 0
M  V30 610 O 59.2628 -0.666016 -1.76342 0
M  V30 611 C 56.3898 -1.55238 -3.01029 0
M  V30 612 C 55.4358 -2.7545 -3.25621 0
M  V30 613 S 56.2688 -4.37174 -3.09256 0
M  V30 614 C 57.4248 -4.34866 -4.50158 0
M  V30 615 H 57.6578 -2.54894 -1.53025 0
M  V30 616 H 55.1908 -1.38098 -0.690535 0
M  V30 617 H 57.1488 -1.53071 -3.80893 0
M  V30 618 H 55.8098 -0.618238 -3.07956 0
M  V30 619 H 55.0028 -2.68197 -4.26716 0
M  V30 620 H 54.6048 -2.75005 -2.53472 0
M  V30 621 H 56.8968 -4.06295 -5.42154 0
M  V30 622 H 57.8398 -5.36223 -4.62462 0
M  V30 623 H 58.2478 -3.65007 -4.30616 0
M  V30 624 N 57.6459 0.756429 -1.3826 0
M  V30 625 C 58.5559 1.9009 -1.37488 0
M  V30 626 C 59.5719 1.71855 -0.272366 0
M  V30 627 O 60.7479 1.94827 -0.510318 0
M  V30 628 C 57.8129 3.25421 -1.19592 0
M  V30 629 C 56.8739 3.56202 -2.39622 0
M  V30 630 C 56.1069 4.85075 -2.2257 0
M  V30 631 O 56.3299 5.57246 -1.21793 0
M  V30 632 O 55.2639 5.15269 -3.11098 0
M  V30 633 H 59.0899 1.93695 -2.33914 0
M  V30 634 H 56.6749 0.901313 -1.1915 0
M  V30 635 H 58.5569 4.06337 -1.11661 0
M  V30 636 H 57.2319 3.22634 -0.262486 0
M  V30 637 H 56.1389 2.75458 -2.53128 0
M  V30 638 H 57.4719 3.63747 -3.31586 0
M  V30 639 N 59.124 1.23083 0.984299 0
M  V30 640 C 60.074 0.975749 2.06066 0
M  V30 641 C 61.058 -0.0768251 1.60716 0
M  V30 642 O 62.25 0.134805 1.76486 0
M  V30 643 C 59.379 0.564673 3.38624 0
M  V30 644 C 58.465 1.65244 3.90583 0
M  V30 645 N 58.856 2.88193 4.15666 0
M  V30 646 C 57.154 1.52612 4.19077 0
M  V30 647 C 57.855 3.58593 4.58024 0
M  V30 648 N 56.831 2.86093 4.62225 0
M  V30 649 H 60.633 1.90957 2.23411 0
M  V30 650 H 58.147 1.12963 1.16675 0
M  V30 651 H 60.144 0.36322 4.15315 0
M  V30 652 H 58.804 -0.362147 3.22674 0
M  V30 653 H 59.815 3.24537 4.03604 0
M  V30 654 H 56.492 0.666121 4.12152 0
M  V30 655 H 57.882 4.63974 4.85982 0
M  V30 656 N 60.6021 -1.18246 1.0419 0
M  V30 657 C 61.5521 -2.19843 0.604392 0
M  V30 658 C 62.5361 -1.56962 -0.353814 0
M  V30 659 O 63.7281 -1.76156 -0.17267 0
M  V30 660 C 60.8571 -3.43287 -0.0298975 0
M  V30 661 C 59.9431 -4.13288 0.951531 0
M  V30 662 N 60.3341 -4.59271 2.11906 0
M  V30 663 C 58.6321 -4.39165 0.7778 0
M  V30 664 C 59.3331 -5.13173 2.73912 0
M  V30 665 N 58.3091 -5.04763 2.01779 0
M  V30 666 H 62.1111 -2.53089 1.4941 0
M  V30 667 H 59.6251 -1.34465 0.910658 0
M  V30 668 H 61.6221 -4.15334 -0.361037 0
M  V30 669 H 60.2821 -3.11537 -0.915127 0
M  V30 670 H 61.2931 -4.5368 2.49789 0
M  V30 671 H 57.9701 -4.17461 -0.0572331 0
M  V30 672 H 59.3601 -5.58947 3.72864 0
M  V30 673 N 62.0802 -0.821533 -1.34494 0
M  V30 674 C 63.0282 -0.230702 -2.31453 0
M  V30 675 C 64.0222 0.627793 -1.57338 0
M  V30 676 O 65.2282 0.519288 -1.72347 0
M  V30 677 H 61.6032 -0.0558577 -0.749923 0
M  V30 678 H 63.5742 -1.06332 -2.78812 0
M  V30 679 C 62.3232 0.59391 -3.4259 0
M  V30 680 H 61.6462 -0.0573588 -3.99759 0
M  V30 681 H 63.0862 0.973446 -4.12674 0
M  V30 682 C 61.5452 1.76568 -2.86924 0
M  V30 683 O 62.0752 2.8638 -2.81691 0
M  V30 684 N 60.2812 1.58198 -2.43766 0
M  V30 685 H 59.8282 0.68872 -2.48222 0
M  V30 686 H 59.7862 2.36752 -2.06871 0
M  V30 687 N 63.5583 1.46682 -0.576371 0
M  V30 688 C 64.7863 2.06798 -0.0649635 0
M  V30 689 C 65.2013 1.42612 1.23723 0
M  V30 690 O 64.5583 0.529203 1.74659 0
M  V30 691 C 64.6093 3.6132 0.114202 0
M  V30 692 O 64.3303 4.23104 -1.13644 0
M  V30 693 C 65.8313 4.38349 0.66069 0
M  V30 694 H 63.0513 0.668778 -0.0545616 0
M  V30 695 H 65.5953 1.88404 -0.795237 0
M  V30 696 H 63.7503 3.79162 0.794673 0
M  V30 697 H 64.1643 5.15894 -0.946253 0
M  V30 698 H 65.6383 5.47081 0.73526 0
M  V30 699 H 66.1153 4.05953 1.67627 0
M  V30 700 H 66.7213 4.25297 0.0152951 0
M  V30 701 N 65.0364 0.313813 1.54444 0
M  V30 702 C 66.2644 -0.293918 2.04802 0
M  V30 703 C 66.6794 -1.46537 1.19047 0
M  V30 704 O 66.0364 -1.81182 0.218939 0
M  V30 705 C 66.0874 -0.737806 3.53891 0
M  V30 706 O 65.8084 0.387038 4.36387 0
M  V30 707 C 67.3094 -1.40936 4.203 0
M  V30 708 H 64.5294 -0.0620057 0.668129 0
M  V30 709 H 67.0734 0.457169 1.99324 0
M  V30 710 H 65.2284 -1.43889 3.59687 0
M  V30 711 H 65.6424 0.0391274 5.24485 0
M  V30 712 H 67.1164 -1.67099 5.26101 0
M  V30 713 H 67.5934 -2.35355 3.70816 0
M  V30 714 H 68.1994 -0.751117 4.18615 0
M  V30 715 N 66.5145 -1.57545 0.0417849 0
M  V30 716 C 67.7545 -1.94185 -0.63809 0
M  V30 717 C 68.1185 -0.919339 -1.68559 0
M  V30 718 O 69.3195 -1.17236 -2.41886 0
M  V30 719 C 67.5905 -3.35672 -1.22714 0
M  V30 720 S 69.1495 -3.94256 -1.92633 0
M  V30 721 H 65.9675 -0.679353 -0.209764 0
M  V30 722 H 68.5695 -1.95199 0.108479 0
M  V30 723 H 67.2735 -4.07898 -0.452503 0
M  V30 724 H 66.8045 -3.38132 -2.01073 0
M  V30 725 H 68.8195 -3.7872 -3.20602 0
M  V30 726 N 67.9926 0.231505 -1.5589 0
M  V30 727 C 68.9026 1.308 -1.94752 0
M  V30 728 C 69.9186 1.51826 -0.849989 0
M  V30 729 O 71.0946 1.6515 -1.15271 0
M  V30 730 C 68.1596 2.63968 -2.24771 0
M  V30 731 C 67.2206 2.51331 -3.48039 0
M  V30 732 C 66.4536 3.78148 -3.76616 0
M  V30 733 O 66.6766 4.80722 -3.07022 0
M  V30 734 O 65.6106 3.75857 -4.70123 0
M  V30 735 H 69.4366 1.0083 -2.86474 0
M  V30 736 H 67.0216 0.433547 -1.42971 0
M  V30 737 H 68.9036 3.42633 -2.45318 0
M  V30 738 H 67.5786 2.9364 -1.36225 0
M  V30 739 H 66.4856 1.709 -3.32782 0
M  V30 740 H 67.8186 2.26601 -4.36936 0
M  V30 741 N 69.4707 1.49531 0.497807 0
M  V30 742 C 70.4337 1.65916 1.58128 0
M  V30 743 C 71.4337 0.530825 1.51786 0
M  V30 744 O 72.6237 0.797342 1.54881 0
M  V30 745 C 69.7557 1.65951 2.9778 0
M  V30 746 H 70.9487 2.62556 1.44929 0
M  V30 747 H 68.5017 1.38611 0.722275 0
M  V30 748 H 69.2367 0.709065 3.16453 0
M  V30 749 H 69.0217 2.47897 3.03792 0
M  V30 750 H 70.5117 1.80673 3.76493 0
M  V30 751 N 70.9488 -0.749086 1.3866 0
M  V30 752 C 71.9118 -1.84457 1.36045 0
M  V30 753 C 72.9118 -1.58682 0.260122 0
M  V30 754 O 74.1018 -1.66343 0.517261 0
M  V30 755 C 71.2338 -3.22008 1.11911 0
M  V30 756 H 72.4268 -1.88182 2.33512 0
M  V30 757 H 69.9798 -0.951266 1.24019 0
M  V30 758 H 70.7148 -3.2395 0.150686 0
M  V30 759 H 70.4998 -3.42111 1.91579 0
M  V30 760 H 71.9898 -4.0208 1.12788 0
M  V30 761 N 72.4269 -1.23603 -0.977757 0
M  V30 762 C 73.3769 -0.986664 -2.05545 0
M  V30 763 C 74.3609 0.0683009 -1.60755 0
M  V30 764 O 75.5529 -0.144162 -1.76412 0
M  V30 765 C 72.6819 -0.582623 -3.3832 0
M  V30 766 C 71.7679 -1.67313 -3.89701 0
M  V30 767 N 72.1589 -2.90394 -4.14132 0
M  V30 768 C 70.4569 -1.54832 -4.18262 0
M  V30 769 C 71.1579 -3.61017 -4.56116 0
M  V30 770 N 70.1339 -2.8854 -4.60701 0
M  V30 771 H 73.9359 -1.92139 -2.22396 0
M  V30 772 H 71.4499 -1.1358 -1.16074 0
M  V30 773 H 73.4469 -0.38524 -4.15116 0
M  V30 774 H 72.1069 0.34503 -3.22862 0
M  V30 775 H 73.1179 -3.26673 -4.01877 0
M  V30 776 H 69.7949 -0.687969 -4.11793 0
M  V30 777 H 71.1849 -4.66544 -4.83514 0
M  V30 778 N 73.905 1.17692 -1.04816 0
M  V30 779 C 75.152 1.87859 -0.75599 0
M  V30 780 C 75.48 1.80812 0.716752 0
M  V30 781 O 74.735 1.20819 1.53952 0
M  V30 782 C 75.034 3.37462 -1.17703 0
M  V30 783 C 74.7 3.64713 -2.65133 0
M  V30 784 C 73.362 3.71859 -3.05408 0
M  V30 785 C 75.714 3.76492 -3.60421 0
M  V30 786 C 73.042 3.88271 -4.39843 0
M  V30 787 C 75.394 3.94421 -4.94585 0
M  V30 788 C 74.058 3.99806 -5.3452 0
M  V30 789 H 73.328 0.687425 -0.276636 0
M  V30 790 H 75.975 1.39255 -1.31455 0
M  V30 791 H 74.28 3.88097 -0.537395 0
M  V30 792 H 75.977 3.90109 -0.928218 0
M  V30 793 H 72.567 3.59772 -2.32942 0
M  V30 794 H 76.751 3.70295 -3.30447 0
M  V30 795 H 72.007 3.90687 -4.70291 0
M  V30 796 H 76.181 4.02477 -5.68318 0
M  V30 797 H 73.808 4.12276 -6.38696 0
M  V30 798 N 75.3831 0.828654 1.34056 0
M  V30 799 C 76.6311 0.41863 1.97717 0
M  V30 800 C 76.9521 -1.02314 1.66002 0
M  V30 801 O 76.2221 -1.71119 0.953683 0
M  V30 802 H 74.8021 0.151809 0.731412 0
M  V30 803 H 77.4641 1.05936 1.63596 0
M  V30 804 H 76.5601 0.542318 3.07352 0
M  V30 805 N 76.8612 -1.46375 0.584142 0
M  V30 806 C 77.7912 -2.33103 -0.136037 0
M  V30 807 C 78.7722 -1.45431 -0.882255 0
M  V30 808 O 79.9572 -1.74246 -0.857434 0
M  V30 809 C 77.0872 -3.27731 -1.14933 0
M  V30 810 C 76.0412 -4.24855 -0.517862 0
M  V30 811 C 75.3672 -5.09001 -1.63773 0
M  V30 812 C 76.6672 -5.19439 0.545886 0
M  V30 813 H 78.3612 -2.93568 0.588086 0
M  V30 814 H 75.9072 -1.41166 0.284259 0
M  V30 815 H 77.8602 -3.87261 -1.66153 0
M  V30 816 H 76.5842 -2.65377 -1.90375 0
M  V30 817 H 75.2432 -3.6659 -0.0267361 0
M  V30 818 H 74.8912 -4.43031 -2.38185 0
M  V30 819 H 74.5912 -5.74777 -1.22085 0
M  V30 820 H 76.1152 -5.71396 -2.15266 0
M  V30 821 H 77.5292 -5.73177 0.118704 0
M  V30 822 H 75.9262 -5.93566 0.88317 0
M  V30 823 H 76.9962 -4.63285 1.43162 0
M  V30 824 N 78.3393 -0.321999 -1.54275 0
M  V30 825 C 79.5853 0.274234 -2.01543 0
M  V30 826 C 79.9403 1.499 -1.20614 0
M  V30 827 O 79.2333 1.89546 -0.279804 0
M  V30 828 C 79.4273 0.661769 -3.5122 0
M  V30 829 C 79.2563 -0.523892 -4.46638 0
M  V30 830 C 78.0263 -1.02251 -4.94846 0
M  V30 831 C 80.2243 -1.37558 -4.95563 0
M  V30 832 N 78.2063 -2.17274 -5.74165 0
M  V30 833 C 79.5773 -2.37301 -5.7279 0
M  V30 834 C 81.6323 -1.40353 -4.77709 0
M  V30 835 C 80.3353 -3.3964 -6.34064 0
M  V30 836 C 82.3613 -2.41562 -5.39817 0
M  V30 837 C 81.7233 -3.40031 -6.16894 0
M  V30 838 H 77.8223 0.0642367 -0.779357 0
M  V30 839 H 80.4063 -0.456683 -1.89268 0
M  V30 840 H 78.5773 1.36182 -3.63743 0
M  V30 841 H 80.3093 1.23934 -3.85256 0
M  V30 842 H 77.0643 -0.594046 -4.6986 0
M  V30 843 H 77.4883 -2.75289 -6.18502 0
M  V30 844 H 82.1303 -0.655907 -4.17681 0
M  V30 845 H 79.8483 -4.15309 -6.93213 0
M  V30 846 H 83.4343 -2.44524 -5.2792 0
M  V30 847 H 82.3143 -4.17063 -6.64099 0
M  V30 848 N 79.8174 1.5752 -0.0501392 0
M  V30 849 C 81.2334 1.56631 0.306402 0
M  V30 850 C 81.4334 1.0577 1.71508 0
M  V30 851 O 80.4894 0.713837 2.422 0
M  V30 852 C 81.8024 3.00393 0.135811 0
M  V30 853 C 83.3504 3.12315 0.206993 0
M  V30 854 C 83.8254 4.57954 0.064944 0
M  V30 855 N 85.3164 4.63041 0.121254 0
M  V30 856 C 86.0514 5.73389 0.0354381 0
M  V30 857 N 85.5474 6.92724 -0.102666 0
M  V30 858 N 87.3404 5.62026 0.090946 0
M  V30 859 H 79.4914 1.88903 -0.971046 0
M  V30 860 H 81.7544 0.869876 -0.376855 0
M  V30 861 H 81.4604 3.41635 -0.835384 0
M  V30 862 H 81.3344 3.66373 0.897275 0
M  V30 863 H 83.7214 2.70973 1.16866 0
M  V30 864 H 83.8024 2.49016 -0.585208 0
M  V30 865 H 83.4464 4.99981 -0.893394 0
M  V30 866 H 83.3764 5.19258 0.876277 0
M  V30 867 H 85.8674 3.77216 0.227284 0
M  V30 868 H 86.1804 7.72633 -0.160882 0
M  V30 869 H 84.5254 6.94864 -0.137737 0
M  V30 870 H 87.7164 4.67684 0.197388 0
M  V30 871 H 87.8894 6.47997 0.0206089 0
M  V30 872 N 81.2955 -0.223234 1.56011 0
M  V30 873 C 82.5445 -0.945912 1.78144 0
M  V30 874 C 82.8575 -1.85567 0.618396 0
M  V30 875 O 84.0635 -2.61688 0.723318 0
M  V30 876 C 82.5195 -1.73216 3.15475 0
M  V30 877 C 82.1275 -0.868619 4.39499 0
M  V30 878 C 83.8715 -2.44615 3.46935 0
M  V30 879 C 81.7785 -1.65212 5.67855 0
M  V30 880 H 80.7085 -0.356929 0.664167 0
M  V30 881 H 83.3595 -0.199845 1.82409 0
M  V30 882 H 81.7415 -2.52107 3.05382 0
M  V30 883 H 82.9155 -0.120366 4.60643 0
M  V30 884 H 81.2305 -0.26683 4.15544 0
M  V30 885 H 83.8275 -3.03732 4.40058 0
M  V30 886 H 84.1705 -3.17417 2.69355 0
M  V30 887 H 84.7035 -1.72715 3.58349 0
M  V30 888 H 81.4425 -0.967407 6.48322 0
M  V30 889 H 80.9625 -2.37503 5.50774 0
M  V30 890 H 82.6415 -2.21322 6.07968 0
M  V30 891 N 82.7736 -1.49793 -0.48987 0
M  V30 892 C 84.0136 -1.61466 -1.25332 0
M  V30 893 C 84.3776 -0.299688 -1.89647 0
M  V30 894 O 85.5786 -0.291687 -2.67213 0
M  V30 895 C 83.8496 -2.74944 -2.28343 0
M  V30 896 S 85.4086 -3.06637 -3.13878 0
M  V30 897 H 82.2266 -0.569411 -0.425784 0
M  V30 898 H 84.8286 -1.875 -0.553541 0
M  V30 899 H 83.5326 -3.68994 -1.79643 0
M  V30 900 H 83.0636 -2.50938 -3.02975 0
M  V30 901 H 85.0786 -2.49015 -4.29192 0
M  V30 902 N 84.2517 0.741722 -1.39055 0
M  V30 903 C 85.4797 1.53098 -1.39171 0
M  V30 904 C 85.8947 1.88794 0.0155099 0
M  V30 905 O 85.2517 1.53626 0.985159 0
M  V30 906 C 85.3027 2.82274 -2.2584 0
M  V30 907 O 85.0237 2.48097 -3.61081 0
M  V30 908 C 86.5247 3.76343 -2.34266 0
M  V30 909 H 83.7447 0.473335 -0.4756 0
M  V30 910 H 86.2887 0.917045 -1.82785 0
M  V30 911 H 84.4437 3.40015 -1.85656 0
M  V30 912 H 84.8577 3.31029 -4.06842 0
M  V30 913 H 86.3317 4.63898 -2.9917 0
M  V30 914 H 86.8087 4.17619 -1.35982 0
M  V30 915 H 87.4147 3.24523 -2.74891 0
M  V30 916 N 85.7298 1.2412 0.971189 0
M  V30 917 C 86.6768 1.0305 2.06517 0
M  V30 918 C 87.6468 -0.0550666 1.66009 0
M  V30 919 O 88.8318 0.0988688 1.90544 0
M  V30 920 C 85.9718 0.637653 3.39158 0
M  V30 921 C 85.0848 1.79633 3.92882 0
M  V30 922 C 84.2198 1.34939 5.13775 0
M  V30 923 C 83.2588 2.47823 5.59687 0
M  V30 924 N 82.3958 2.04022 6.71803 0
M  V30 925 H 87.2358 1.96685 2.23873 0
M  V30 926 H 84.7728 0.979694 1.09729 0
M  V30 927 H 86.7308 0.390931 4.15364 0
M  V30 928 H 85.3608 -0.261693 3.21737 0
M  V30 929 H 84.4128 2.15681 3.13346 0
M  V30 930 H 85.7248 2.64466 4.22918 0
M  V30 931 H 84.8788 1.06134 5.97345 0
M  V30 932 H 83.6178 0.471557 4.85415 0
M  V30 933 H 82.6228 2.77392 4.74693 0
M  V30 934 H 83.8478 3.36158 5.90063 0
M  V30 935 H 81.7938 1.18632 6.45184 0
M  V30 936 H 81.7108 2.82409 7.01271 0
M  V30 937 H 82.9788 1.78347 7.58823 0
M  V30 938 N 87.2079 -1.17134 1.05439 0
M  V30 939 C 88.6239 -1.39454 0.776201 0
M  V30 940 C 88.8239 -1.91454 -0.628307 0
M  V30 941 O 87.8799 -2.10777 -1.39031 0
M  V30 942 C 89.1929 -2.38305 1.83388 0
M  V30 943 C 90.7409 -2.52006 1.85639 0
M  V30 944 C 91.2159 -3.54133 2.90437 0
M  V30 945 N 92.7069 -3.61653 2.89415 0
M  V30 946 C 93.4419 -4.4044 3.67152 0
M  V30 947 N 92.9379 -5.22721 4.54681 0
M  V30 948 N 94.7309 -4.35337 3.55581 0
M  V30 949 H 86.8819 -0.817134 1.96053 0
M  V30 950 H 89.1449 -0.421626 0.849079 0
M  V30 951 H 88.8509 -2.07173 2.84204 0
M  V30 952 H 88.7249 -3.37841 1.67761 0
M  V30 953 H 91.1119 -2.82447 0.85486 0
M  V30 954 H 91.1929 -1.52537 2.05344 0
M  V30 955 H 90.8369 -3.24431 3.90777 0
M  V30 956 H 90.7669 -4.53313 2.67983 0
M  V30 957 H 93.2579 -3.02909 2.25952 0
M  V30 958 H 93.5709 -5.80027 5.10674 0
M  V30 959 H 91.9159 -5.22093 4.58741 0
M  V30 960 H 95.1069 -3.70112 2.86592 0
M  V30 961 H 95.2799 -4.96494 4.1641 0
M  V30 962 N 88.686 -0.835752 -1.33615 0
M  V30 963 C 89.935 -0.426289 -1.97144 0
M  V30 964 C 90.248 1.01912 -1.66953 0
M  V30 965 O 91.454 1.53311 -2.24072 0
M  V30 966 C 89.91 -0.711321 -3.52801 0
M  V30 967 C 89.518 -2.1712 -3.91871 0
M  V30 968 C 91.262 -0.368654 -4.22896 0
M  V30 969 C 89.169 -2.40044 -5.40493 0
M  V30 970 H 88.099 -0.15567 -0.737755 0
M  V30 971 H 90.75 -1.0239 -1.52278 0
M  V30 972 H 89.132 -0.0433766 -3.95976 0
M  V30 973 H 90.306 -2.87936 -3.59763 0
M  V30 974 H 88.621 -2.47654 -3.34749 0
M  V30 975 H 91.218 -0.517601 -5.32189 0
M  V30 976 H 91.561 0.688078 -4.10574 0
M  V30 977 H 92.094 -0.991702 -3.8524 0
M  V30 978 H 88.833 -3.44271 -5.57815 0
M  V30 979 H 88.353 -1.73785 -5.74072 0
M  V30 980 H 90.032 -2.23042 -6.0734 0
M  V30 981 N 90.1641 1.46063 -0.591896 0
M  V30 982 C 91.5751 1.85944 -0.167822 0
M  V30 983 C 91.9261 1.49429 1.27143 0
M  V30 984 O 91.0511 0.913515 1.96173 0
M  V30 985 C 91.6461 3.37489 -0.297794 0
M  V30 986 C 90.2051 3.76332 0.0714732 0
M  V30 987 C 89.3521 2.7006 -0.629509 0
M  V30 988 H 92.3031 1.37087 -0.799555 0
M  V30 989 H 92.3241 3.77532 0.474349 0
M  V30 990 H 91.8361 3.64034 -1.3454 0
M  V30 991 H 89.9371 3.55405 1.11886 0
M  V30 992 H 90.0501 4.78088 -0.311245 0
M  V30 993 H 88.4141 2.54607 -0.0687867 0
M  V30 994 H 89.1971 2.99444 -1.67894 0
M  V30 995 N 91.6422 0.330177 1.54103 0
M  V30 996 C 92.5752 -0.575477 2.20825 0
M  V30 997 C 93.5532 -1.11064 1.18758 0
M  V30 998 O 94.7372 -1.17341 1.47524 0
M  V30 999 C 91.8642 -1.79032 2.87516 0
M  V30 1000 C 90.9102 -1.38581 4.03358 0
M  V30 1001 S 91.7432 -0.416911 5.33875 0
M  V30 1002 C 92.8992 -1.63889 6.04062 0
M  V30 1003 H 93.1322 -0.00872114 2.97299 0
M  V30 1004 H 90.6652 0.114254 1.53977 0
M  V30 1005 H 92.6232 -2.48734 3.2656 0
M  V30 1006 H 91.2842 -2.32827 2.10832 0
M  V30 1007 H 90.4772 -2.29123 4.48908 0
M  V30 1008 H 90.0792 -0.768419 3.66021 0
M  V30 1009 H 92.3712 -2.57536 6.26643 0
M  V30 1010 H 93.3142 -1.22542 6.97416 0
M  V30 1011 H 93.7222 -1.82887 5.34053 0
M  V30 1012 N 93.1203 -1.57491 0.0584922 0
M  V30 1013 C 94.3973 -1.84346 -0.653918 0
M  V30 1014 C 94.7773 -0.948355 -1.88599 0
M  V30 1015 O 94.1253 -0.0112403 -2.28497 0
M  V30 1016 C 94.3353 -3.34239 -1.00425 0
M  V30 1017 C 95.6833 -4.01431 -1.38342 0
M  V30 1018 O 96.7073 -3.38907 -1.09637 0
M  V30 1019 O 95.5663 -5.11683 -1.91943 0
M  V30 1020 H 92.6603 -0.761112 -0.323478 0
M  V30 1021 H 95.2063 -1.6947 0.0884125 0
M  V30 1022 H 93.9783 -3.91089 -0.128625 0
M  V30 1023 H 93.6013 -3.54329 -1.80378 0
M  V30 1024 N 94.5984 0.214957 -1.56127 0
M  V30 1025 C 95.8754 0.963093 -1.70247 0
M  V30 1026 C 96.2554 2.02166 -0.60764 0
M  V30 1027 O 95.6034 2.25244 0.384385 0
M  V30 1028 C 95.8134 1.56756 -3.11815 0
M  V30 1029 C 97.1614 2.0573 -3.7143 0
M  V30 1030 O 98.1854 1.66637 -3.14818 0
M  V30 1031 O 97.0444 2.77603 -4.70743 0
M  V30 1032 H 94.1384 0.450321 -0.693643 0
M  V30 1033 H 96.6844 0.206219 -1.68442 0
M  V30 1034 H 95.4564 0.803533 -3.82961 0
M  V30 1035 H 95.0794 2.3898 -3.17765 0
M  V30 1036 N 96.0765 1.50051 0.48192 0
M  V30 1037 C 97.3015 1.64508 1.26301 0
M  V30 1038 C 97.7265 0.323851 1.85291 0
M  V30 1039 O 97.0845 -0.710969 1.66778 0
M  V30 1040 C 97.1325 2.7305 2.35533 0
M  V30 1041 O 96.2365 2.3355 3.39895 0
M  V30 1042 H 95.5775 0.549978 0.372048 0
M  V30 1043 H 98.1075 1.9636 0.574786 0
M  V30 1044 H 98.1175 2.95799 2.8101 0
M  V30 1045 H 96.7925 3.68946 1.91967 0
M  V30 1046 H 95.3695 2.21205 3.00204 0
M  V30 1047 N 97.5546 -0.734337 1.39446 0
M  V30 1048 C 98.5016 -1.84835 1.38219 0
M  V30 1049 C 99.4716 -1.64331 0.24179 0
M  V30 1050 O 100.657 -1.85728 0.437002 0
M  V30 1051 C 97.7966 -3.22355 1.23212 0
M  V30 1052 C 96.9096 -3.5456 2.46801 0
M  V30 1053 C 96.0446 -4.81485 2.24377 0
M  V30 1054 C 95.0836 -5.06536 3.43639 0
M  V30 1055 N 94.2206 -6.24665 3.20528 0
M  V30 1056 H 99.0606 -1.85219 2.33448 0
M  V30 1057 H 96.5976 -0.905039 1.15963 0
M  V30 1058 H 98.5556 -4.0174 1.12522 0
M  V30 1059 H 97.1856 -3.21248 0.316121 0
M  V30 1060 H 96.2376 -2.69872 2.68092 0
M  V30 1061 H 97.5496 -3.6899 3.3563 0
M  V30 1062 H 96.7036 -5.68852 2.10933 0
M  V30 1063 H 95.4426 -4.6923 1.32944 0
M  V30 1064 H 94.4476 -4.17632 3.5758 0
M  V30 1065 H 95.6726 -5.20676 4.35974 0
M  V30 1066 H 93.6186 -6.13696 2.3176 0
M  V30 1067 H 93.5356 -6.39685 4.02913 0
M  V30 1068 H 94.8036 -7.14868 3.10779 0
M  V30 1069 N 99.0327 -1.24633 -0.964593 0
M  V30 1070 C 100.261 -1.11501 -1.74285 0
M  V30 1071 C 100.676 0.332165 -1.85855 0
M  V30 1072 O 100.033 1.22903 -1.34911 0
M  V30 1073 C 100.084 -1.75258 -3.16175 0
M  V30 1074 O 99.8047 -3.14318 -3.05182 0
M  V30 1075 C 101.306 -1.67776 -4.10324 0
M  V30 1076 H 98.5257 -0.389407 -0.546446 0
M  V30 1077 H 101.07 -1.64801 -1.21083 0
M  V30 1078 H 99.2247 -1.25954 -3.66353 0
M  V30 1079 H 99.6387 -3.4551 -3.94618 0
M  V30 1080 H 101.113 -2.17064 -5.0753 0
M  V30 1081 H 101.59 -0.639584 -4.34518 0
M  V30 1082 H 102.196 -2.16522 -3.66058 0
M  V30 1083 N 100.511 1.16574 -1.06058 0
M  V30 1084 C 101.751 1.88723 -0.78504 0
M  V30 1085 C 102.115 1.79706 0.676006 0
M  V30 1086 O 103.316 2.46757 1.06603 0
M  V30 1087 C 101.587 3.34338 -1.26304 0
M  V30 1088 S 103.146 4.24366 -1.1162 0
M  V30 1089 H 99.9638 0.651448 -0.284846 0
M  V30 1090 H 102.566 1.40732 -1.35701 0
M  V30 1091 H 101.27 3.38439 -2.32136 0
M  V30 1092 H 100.801 3.87378 -0.685719 0
M  V30 1093 H 102.816 4.96179 -0.0456539 0
M  V30 1094 N 101.989 0.842826 1.3317 0
M  V30 1095 C 103.237 0.439577 1.97262 0
M  V30 1096 C 103.558 -1.00548 1.67078 0
M  V30 1097 O 102.828 -1.70098 0.971779 0
M  V30 1098 H 101.408 0.159558 0.72976 0
M  V30 1099 H 104.07 1.07665 1.62463 0
M  V30 1100 H 103.166 0.574886 3.0676 0
M  V30 1101 N 103.467 -1.45747 0.599634 0
M  V30 1102 C 104.878 -1.85853 0.177681 0
M  V30 1103 C 105.229 -1.50102 -1.26348 0
M  V30 1104 O 104.354 -0.923905 -1.95686 0
M  V30 1105 C 104.949 -3.37326 0.315688 0
M  V30 1106 C 103.508 -3.76365 -0.0515144 0
M  V30 1107 C 102.655 -2.69722 0.643822 0
M  V30 1108 H 105.606 -1.36661 0.806814 0
M  V30 1109 H 105.627 -3.77778 -0.454321 0
M  V30 1110 H 105.139 -3.63315 1.36468 0
M  V30 1111 H 103.24 -3.55993 -1.09999 0
M  V30 1112 H 103.353 -4.77916 0.336594 0
M  V30 1113 H 101.717 -2.54567 0.0822881 0
M  V30 1114 H 102.5 -2.98549 1.6948 0
M  V30 1115 N 104.945 -0.338344 -1.53925 0
M  V30 1116 C 106.194 0.260732 -2.00008 0
M  V30 1117 C 106.507 1.52073 -1.23017 0
M  V30 1118 O 107.713 2.19672 -1.5955 0
M  V30 1119 C 106.169 0.51515 -3.56194 0
M  V30 1120 C 105.777 -0.728645 -4.42035 0
M  V30 1121 C 107.521 1.07337 -4.10706 0
M  V30 1122 C 105.428 -0.445315 -5.89721 0
M  V30 1123 H 104.358 0.101205 -0.747177 0
M  V30 1124 H 107.009 -0.452866 -1.77824 0
M  V30 1125 H 105.391 1.28932 -3.74423 0
M  V30 1126 H 106.565 -1.50352 -4.35581 0
M  V30 1127 H 104.88 -1.20813 -3.98489 0
M  V30 1128 H 107.477 1.30022 -5.18651 0
M  V30 1129 H 107.82 2.0273 -3.63602 0
M  V30 1130 H 108.353 0.360034 -3.96167 0
M  V30 1131 H 105.092 -1.36883 -6.41049 0
M  V30 1132 H 104.612 0.291569 -5.99091 0
M  V30 1133 H 106.291 -0.0606218 -6.46972 0
M  V30 1134 N 106.423 1.57458 -0.0668435 0
M  V30 1135 C 107.651 1.97624 0.612565 0
M  V30 1136 C 108.066 0.94502 1.63447 0
M  V30 1137 O 107.423 -0.0689276 1.8237 0
M  V30 1138 C 107.474 3.37869 1.28555 0
M  V30 1139 O 107.195 4.3704 0.304557 0
M  V30 1140 C 108.696 3.92882 2.05325 0
M  V30 1141 H 105.916 0.650045 0.166381 0
M  V30 1142 H 108.46 2.04035 -0.137782 0
M  V30 1143 H 106.615 3.3256 1.98702 0
M  V30 1144 H 107.029 5.18565 0.786779 0
M  V30 1145 H 108.503 4.93247 2.47812 0
M  V30 1146 H 108.98 3.29156 2.9078 0
M  V30 1147 H 109.586 4.01577 1.40056 0
M  V30 1148 N 107.901 -0.206675 1.56239 0
M  V30 1149 C 108.831 -1.25909 1.96645 0
M  V30 1150 C 109.812 -1.48097 0.836734 0
M  V30 1151 O 110.997 -1.6003 1.10019 0
M  V30 1152 C 108.127 -2.6058 2.29599 0
M  V30 1153 C 107.081 -2.53024 3.452 0
M  V30 1154 C 106.407 -3.91861 3.63798 0
M  V30 1155 C 107.707 -2.06524 4.79734 0
M  V30 1156 H 109.401 -0.923369 2.84806 0
M  V30 1157 H 106.947 -0.442735 1.37025 0
M  V30 1158 H 108.9 -3.34375 2.56459 0
M  V30 1159 H 107.624 -2.95869 1.38307 0
M  V30 1160 H 106.283 -1.81684 3.18412 0
M  V30 1161 H 105.931 -4.24483 2.69857 0
M  V30 1162 H 105.631 -3.87683 4.4156 0
M  V30 1163 H 107.155 -4.67296 3.93022 0
M  V30 1164 H 108.569 -2.70072 5.05702 0
M  V30 1165 H 106.966 -2.13374 5.60885 0
M  V30 1166 H 108.036 -1.01802 4.74093 0
M  V30 1167 N 109.379 -1.50304 -0.473955 0
M  V30 1168 C 110.79 -1.54042 -1.0549 0
M  V30 1169 C 111.141 -0.342248 -1.93192 0
M  V30 1170 O 110.266 0.545157 -2.09421 0
M  V30 1171 C 110.861 -2.79152 -1.91989 0
M  V30 1172 C 109.42 -2.8558 -2.45196 0
M  V30 1173 C 108.567 -2.48295 -1.2347 0
M  V30 1174 H 111.518 -1.5661 -0.256693 0
M  V30 1175 H 111.539 -2.60845 -2.7702 0
M  V30 1176 H 111.051 -3.66339 -1.28131 0
M  V30 1177 H 109.152 -2.02738 -3.12615 0
M  V30 1178 H 109.265 -3.88403 -2.80499 0
M  V30 1179 H 107.629 -2.00669 -1.56856 0
M  V30 1180 H 108.412 -3.37787 -0.612789 0
M  V30 1181 N 110.857 0.726932 -1.39834 0
M  V30 1182 C 112.105 1.4837 -1.37225 0
M  V30 1183 C 112.426 1.94979 0.0284857 0
M  V30 1184 O 111.696 1.69555 0.981213 0
M  V30 1185 H 110.276 0.55043 -0.505011 0
M  V30 1186 H 112.938 0.862468 -1.74778 0
M  V30 1187 H 112.034 2.36198 -2.04003 0
M  V30 1188 N 112.336 1.25143 0.95797 0
M  V30 1189 C 113.246 1.06968 2.08794 0
M  V30 1190 C 114.262 0.00773911 1.73998 0
M  V30 1191 O 115.438 0.207972 2.00323 0
M  V30 1192 C 112.503 0.68691 3.39827 0
M  V30 1193 C 111.564 1.82641 3.88511 0
M  V30 1194 C 110.797 1.46181 5.1329 0
M  V30 1195 O 111.02 0.355971 5.69288 0
M  V30 1196 O 109.954 2.29085 5.566 0
M  V30 1197 H 113.78 2.01723 2.27027 0
M  V30 1198 H 111.365 1.04051 1.07209 0
M  V30 1199 H 113.247 0.485417 4.18595 0
M  V30 1200 H 111.922 -0.231417 3.22872 0
M  V30 1201 H 110.829 2.08274 3.10762 0
M  V30 1202 H 112.162 2.72386 4.09959 0
M  V30 1203 N 113.814 -1.1601 1.06675 0
M  V30 1204 C 114.761 -2.20525 0.680967 0
M  V30 1205 C 115.731 -1.62904 -0.324283 0
M  V30 1206 O 116.916 -1.89615 -0.212294 0
M  V30 1207 C 114.056 -3.45013 0.0776551 0
M  V30 1208 C 113.169 -4.16863 1.13355 0
M  V30 1209 C 112.304 -5.2888 0.49597 0
M  V30 1210 C 111.343 -5.92537 1.53513 0
M  V30 1211 N 110.48 -6.96038 0.920631 0
M  V30 1212 H 115.32 -2.52876 1.57663 0
M  V30 1213 H 112.857 -1.24199 0.788223 0
M  V30 1214 H 114.815 -4.16193 -0.289704 0
M  V30 1215 H 113.445 -3.132 -0.781393 0
M  V30 1216 H 112.497 -3.44248 1.61857 0
M  V30 1217 H 113.809 -4.60294 1.92174 0
M  V30 1218 H 112.963 -6.06653 0.0758604 0
M  V30 1219 H 111.702 -4.86622 -0.324062 0
M  V30 1220 H 110.707 -5.13482 1.9651 0
M  V30 1221 H 111.932 -6.36873 2.35733 0
M  V30 1222 H 109.878 -6.55888 0.12138 0
M  V30 1223 H 109.795 -7.3786 1.64616 0
M  V30 1224 H 111.063 -7.77725 0.525795 0
M  V30 1225 N 115.292 -0.849877 -1.32721 0
M  V30 1226 C 116.24 -0.279745 -2.30912 0
M  V30 1227 C 117.234 0.594278 -1.58634 0
M  V30 1228 O 118.44 0.482613 -1.73409 0
M  V30 1229 H 114.815 -0.0717521 -0.748569 0
M  V30 1230 H 116.786 -1.12222 -2.76494 0
M  V30 1231 C 115.535 0.521108 -3.43773 0
M  V30 1232 H 114.858 -0.142141 -3.99547 0
M  V30 1233 H 116.298 0.885693 -4.14646 0
M  V30 1234 C 114.757 1.70442 -2.90605 0
M  V30 1235 O 115.287 2.8034 -2.87702 0
M  V30 1236 N 113.493 1.52991 -2.47067 0
M  V30 1237 H 113.04 0.635914 -2.49628 0
M  V30 1238 H 112.998 2.32311 -2.11847 0
M  V30 1239 N 116.77 1.45427 -0.607355 0
M  V30 1240 C 118.01 2.04128 -0.105458 0
M  V30 1241 C 118.374 1.46555 1.24039 0
M  V30 1242 O 119.575 1.96608 1.833 0
M  V30 1243 C 117.846 3.57338 -0.0665324 0
M  V30 1244 S 119.405 4.37201 0.374207 0
M  V30 1245 H 116.223 0.709278 -0.0494575 0
M  V30 1246 H 118.825 1.78139 -0.805404 0
M  V30 1247 H 117.529 3.96752 -1.04957 0
M  V30 1248 H 117.06 3.87902 0.655415 0
M  V30 1249 H 119.075 4.6888 1.62377 0
M  V30 1250 N 118.248 0.346503 1.53744 0
M  V30 1251 C 119.473 -0.253074 2.0585 0
M  V30 1252 C 119.898 -1.43202 1.21962 0
M  V30 1253 O 119.256 -1.79783 0.234073 0
M  V30 1254 C 119.304 -0.643193 3.54817 0
M  V30 1255 O 118.408 -1.74286 3.73762 0
M  V30 1256 H 117.749 -0.0413583 0.662711 0
M  V30 1257 H 120.279 0.501574 1.98357 0
M  V30 1258 H 120.289 -0.919526 3.97503 0
M  V30 1259 H 118.964 0.218966 4.15323 0
M  V30 1260 H 117.541 -1.46356 3.42979 0
M  V30 1261 N 119.726 -1.57421 0.075193 0
M  V30 1262 C 120.956 -1.97659 -0.601203 0
M  V30 1263 C 121.364 -0.952427 -1.63479 0
M  V30 1264 O 120.707 0.0688241 -1.83571 0
M  V30 1265 C 120.769 -3.34218 -1.32434 0
M  V30 1266 C 120.433 -4.5484 -0.443826 0
M  V30 1267 C 121.43 -5.19034 0.299969 0
M  V30 1268 C 119.115 -5.00952 -0.367709 0
M  V30 1269 C 121.109 -6.27695 1.10807 0
M  V30 1270 C 118.796 -6.09484 0.444058 0
M  V30 1271 C 119.794 -6.72719 1.18061 0
M  V30 1272 O 119.482 -7.79161 1.97898 0
M  V30 1273 H 119.214 -0.65494 -0.167422 0
M  V30 1274 H 121.768 -2.04886 0.145157 0
M  V30 1275 H 119.998 -3.23615 -2.11685 0
M  V30 1276 H 121.687 -3.59038 -1.89331 0
M  V30 1277 H 122.453 -4.84351 0.250776 0
M  V30 1278 H 118.332 -4.51509 -0.930638 0
M  V30 1279 H 121.876 -6.76982 1.68347 0
M  V30 1280 H 117.773 -6.43601 0.494803 0
M  V30 1281 H 118.541 -7.96055 1.90367 0
M  V30 1282 N 121.204 0.198386 -1.56346 0
M  V30 1283 C 122.451 0.919286 -1.80431 0
M  V30 1284 C 122.779 1.83393 -0.647866 0
M  V30 1285 O 122.034 1.92236 0.366556 0
M  V30 1286 C 122.333 1.77031 -3.10475 0
M  V30 1287 C 121.999 1.00693 -4.39513 0
M  V30 1288 C 120.661 0.796145 -4.74568 0
M  V30 1289 C 123.013 0.469559 -5.19081 0
M  V30 1290 C 120.341 0.0364588 -5.86689 0
M  V30 1291 C 122.693 -0.2769 -6.31994 0
M  V30 1292 C 121.357 -0.49873 -6.65634 0
M  V30 1293 H 120.627 0.336391 -0.660244 0
M  V30 1294 H 123.274 0.185872 -1.90596 0
M  V30 1295 H 121.579 2.5723 -2.95533 0
M  V30 1296 H 123.276 2.33065 -3.26315 0
M  V30 1297 H 119.866 1.18122 -4.12001 0
M  V30 1298 H 124.05 0.619816 -4.92414 0
M  V30 1299 H 119.306 -0.145412 -6.11227 0
M  V30 1300 H 123.48 -0.700684 -6.92866 0
M  V30 1301 H 121.107 -1.0893 -7.52355 0
M  V30 1302 N 122.682 1.50554 0.465978 0
M  V30 1303 C 124.098 1.38093 0.800154 0
M  V30 1304 C 124.298 0.440988 1.96615 0
M  V30 1305 O 123.354 -0.114499 2.5224 0
M  V30 1306 C 124.667 2.79565 1.10742 0
M  V30 1307 C 126.215 2.88516 1.21357 0
M  V30 1308 C 126.69 4.30833 1.55393 0
M  V30 1309 N 128.181 4.33807 1.62375 0
M  V30 1310 C 128.916 5.40927 1.90225 0
M  V30 1311 N 128.412 6.58247 2.16062 0
M  V30 1312 N 130.205 5.28376 1.9177 0
M  V30 1313 H 122.356 2.10237 -0.302366 0
M  V30 1314 H 124.619 0.945203 -0.0727746 0
M  V30 1315 H 124.325 3.50208 0.323661 0
M  V30 1316 H 124.199 3.17125 2.04234 0
M  V30 1317 H 126.586 2.1809 1.98799 0
M  V30 1318 H 126.667 2.54492 0.258321 0
M  V30 1319 H 126.311 5.01799 0.784889 0
M  V30 1320 H 126.241 4.62347 2.52076 0
M  V30 1321 H 128.732 3.49212 1.44427 0
M  V30 1322 H 129.045 7.3569 2.36601 0
M  V30 1323 H 127.39 6.61413 2.13444 0
M  V30 1324 H 130.581 4.35715 1.71085 0
M  V30 1325 H 130.754 6.11944 2.13139 0
M  V30 1326 N 124.16 -0.719506 1.40217 0
M  V30 1327 C 125.11 -1.8251 1.36653 0
M  V30 1328 C 126.094 -1.59028 0.244732 0
M  V30 1329 O 127.286 -1.70268 0.483524 0
M  V30 1330 C 124.415 -3.20599 1.22763 0
M  V30 1331 C 123.501 -3.49858 2.39708 0
M  V30 1332 N 123.892 -3.49957 3.6519 0
M  V30 1333 C 122.19 -3.80297 2.33002 0
M  V30 1334 C 122.891 -3.77449 4.42614 0
M  V30 1335 N 121.867 -3.96002 3.72402 0
M  V30 1336 H 125.669 -1.80914 2.31619 0
M  V30 1337 H 123.183 -0.918455 1.33933 0
M  V30 1338 H 125.18 -3.99766 1.18292 0
M  V30 1339 H 123.84 -3.23424 0.287614 0
M  V30 1340 H 124.851 -3.309 3.98404 0
M  V30 1341 H 121.528 -3.90635 1.47346 0
M  V30 1342 H 122.918 -3.83863 5.51451 0
M  V30 1343 N 125.638 -1.25649 -0.95132 0
M  V30 1344 C 126.885 -1.10594 -1.69633 0
M  V30 1345 C 127.213 0.352515 -1.91279 0
M  V30 1346 O 126.468 1.27601 -1.4838 0
M  V30 1347 C 126.767 -1.80909 -3.08231 0
M  V30 1348 C 126.433 -3.30825 -3.06375 0
M  V30 1349 C 125.095 -3.71722 -3.05576 0
M  V30 1350 C 127.447 -4.26589 -2.99452 0
M  V30 1351 C 124.775 -5.06788 -2.95606 0
M  V30 1352 C 127.127 -5.61683 -2.91024 0
M  V30 1353 C 125.791 -6.01904 -2.88562 0
M  V30 1354 H 125.061 -0.404691 -0.620731 0
M  V30 1355 H 127.708 -1.55964 -1.11119 0
M  V30 1356 H 126.013 -1.27979 -3.70309 0
M  V30 1357 H 127.71 -1.6671 -3.64704 0
M  V30 1358 H 124.3 -2.98287 -3.07771 0
M  V30 1359 H 128.484 -3.95982 -2.99185 0
M  V30 1360 H 123.74 -5.37126 -2.92071 0
M  V30 1361 H 127.914 -6.35578 -2.84629 0
M  V30 1362 H 125.541 -7.06521 -2.80593 0
M  V30 1363 N 127.117 1.15442 -1.07289 0
M  V30 1364 C 128.065 2.22225 -0.686952 0
M  V30 1365 C 129.059 1.66688 0.30193 0
M  V30 1366 O 130.265 1.79236 0.165712 0
M  V30 1367 H 126.64 0.723783 -0.204064 0
M  V30 1368 H 128.611 2.52056 -1.5972 0
M  V30 1369 C 127.36 3.47556 -0.100149 0
M  V30 1370 H 126.683 3.90612 -0.852211 0
M  V30 1371 H 128.123 4.23794 0.132235 0
M  V30 1372 C 126.582 3.16337 1.159 0
M  V30 1373 O 127.112 3.33074 2.24555 0
M  V30 1374 N 125.318 2.70385 1.06491 0
M  V30 1375 H 124.865 2.56966 0.180668 0
M  V30 1376 H 124.823 2.49871 1.90819 0
M  V30 1377 N 128.595 0.856903 1.32268 0
M  V30 1378 C 130.006 0.515711 1.79436 0
M  V30 1379 C 130.357 -0.966586 1.70738 0
M  V30 1380 O 129.482 -1.75409 1.26731 0
M  V30 1381 C 130.077 0.929335 3.25805 0
M  V30 1382 C 128.636 0.640006 3.70919 0
M  V30 1383 C 127.783 1.12784 2.53328 0
M  V30 1384 H 130.734 1.04389 1.19535 0
M  V30 1385 H 130.755 0.246633 3.797 0
M  V30 1386 H 130.267 2.00821 3.32103 0
M  V30 1387 H 128.368 -0.428051 3.70133 0
M  V30 1388 H 128.481 1.20788 4.63624 0
M  V30 1389 H 126.845 0.548033 2.48734 0
M  V30 1390 H 127.628 2.21387 2.62379 0
M  V30 1391 N 130.073 -1.45103 0.615059 0
M  V30 1392 C 131.321 -2.01784 0.112955 0
M  V30 1393 C 131.642 -1.48504 -1.26378 0
M  V30 1394 O 130.912 -0.682245 -1.83636 0
M  V30 1395 H 129.492 -0.745993 0.0387668 0
M  V30 1396 H 132.154 -1.77808 0.798141 0
M  V30 1397 H 131.25 -3.12025 0.0684069 0
M  V30 1398 N 131.551 -0.354651 -1.53558 0
M  V30 1399 C 132.461 0.50515 -2.29097 0
M  V30 1400 C 133.477 1.10223 -1.34636 0
M  V30 1401 O 134.653 1.11553 -1.67684 0
M  V30 1402 C 131.718 1.63479 -3.05738 0
M  V30 1403 C 130.779 1.06636 -4.15845 0
M  V30 1404 C 130.012 2.14217 -4.88822 0
M  V30 1405 O 130.235 3.35137 -4.61562 0
M  V30 1406 O 129.169 1.77887 -5.75013 0
M  V30 1407 H 132.995 -0.109237 -3.03503 0
M  V30 1408 H 130.58 -0.119357 -1.48922 0
M  V30 1409 H 132.462 2.2918 -3.5363 0
M  V30 1410 H 131.137 2.23478 -2.34178 0
M  V30 1411 H 130.044 0.373565 -3.7223 0
M  V30 1412 H 131.377 0.511081 -4.89539 0
M  V30 1413 N 133.029 1.57378 -0.0835403 0
M  V30 1414 C 134.254 1.98682 0.594987 0
M  V30 1415 C 134.679 0.961969 1.61641 0
M  V30 1416 O 134.037 -0.0709989 1.81161 0
M  V30 1417 C 134.085 3.38988 1.2296 0
M  V30 1418 O 133.189 3.39208 2.34546 0
M  V30 1419 H 132.53 0.646368 0.152002 0
M  V30 1420 H 135.06 2.03961 -0.161533 0
M  V30 1421 H 135.07 3.76431 1.57366 0
M  V30 1422 H 133.745 4.13107 0.481228 0
M  V30 1423 H 132.322 3.13548 2.01846 0
M  V30 1424 N 134.507 -0.190092 1.56449 0
M  V30 1425 C 135.732 -0.929864 1.85387 0
M  V30 1426 C 136.157 -1.7585 0.667704 0
M  V30 1427 O 135.515 -1.77198 -0.383459 0
M  V30 1428 C 135.563 -1.79773 3.12593 0
M  V30 1429 O 134.667 -2.89713 2.93496 0
M  V30 1430 H 134.008 -0.261574 0.610307 0
M  V30 1431 H 136.538 -0.193896 2.03679 0
M  V30 1432 H 136.548 -2.20139 3.43515 0
M  V30 1433 H 135.223 -1.18892 3.98544 0
M  V30 1434 H 133.8 -2.53065 2.73884 0
M  V30 1435 N 135.985 -1.50799 -0.457987 0
M  V30 1436 C 136.895 -1.73426 -1.57989 0
M  V30 1437 C 137.911 -0.617745 -1.62665 0
M  V30 1438 O 139.087 -0.897614 -1.80291 0
M  V30 1439 C 136.152 -1.83557 -2.94122 0
M  V30 1440 C 135.213 -3.07345 -2.99729 0
M  V30 1441 C 134.446 -3.16983 -4.29368 0
M  V30 1442 O 134.669 -2.33077 -5.20607 0
M  V30 1443 O 133.603 -4.09812 -4.40837 0
M  V30 1444 H 137.429 -2.68555 -1.41817 0
M  V30 1445 H 135.014 -1.35052 -0.638859 0
M  V30 1446 H 136.896 -1.92326 -3.74952 0
M  V30 1447 H 135.571 -0.916137 -3.10465 0
M  V30 1448 H 134.478 -3.04068 -2.1793 0
M  V30 1449 H 135.811 -3.9891 -2.88326 0
M  V30 1450 N 137.463 0.71206 -1.40597 0
M  V30 1451 C 138.712 1.46754 -1.38369 0
M  V30 1452 C 139.025 1.95598 0.0097839 0
M  V30 1453 O 140.231 2.71059 0.154677 0
M  V30 1454 C 138.687 2.65289 -2.43207 0
M  V30 1455 C 138.295 2.23301 -3.88382 0
M  V30 1456 C 140.039 3.43008 -2.50091 0
M  V30 1457 C 137.946 3.38696 -4.84808 0
M  V30 1458 H 136.876 0.55118 -0.514506 0
M  V30 1459 H 139.527 0.774616 -1.66349 0
M  V30 1460 H 137.909 3.36769 -2.08332 0
M  V30 1461 H 139.083 1.59218 -4.32419 0
M  V30 1462 H 137.398 1.58618 -3.85006 0
M  V30 1463 H 139.995 4.28881 -3.1932 0
M  V30 1464 H 140.338 3.87065 -1.53253 0
M  V30 1465 H 140.871 2.78574 -2.83974 0
M  V30 1466 H 137.61 2.99668 -5.82992 0
M  V30 1467 H 137.13 4.01683 -4.45433 0
M  V30 1468 H 138.809 4.04712 -5.04794 0
M  V30 1469 N 138.941 1.26152 0.944643 0
M  V30 1470 C 140.188 1.11492 1.69044 0
M  V30 1471 C 140.516 -0.342366 1.91463 0
M  V30 1472 O 139.771 -1.26812 1.49054 0
M  V30 1473 C 140.07 1.82541 3.07268 0
M  V30 1474 C 139.736 3.32445 3.04616 0
M  V30 1475 C 138.398 3.73337 3.036 0
M  V30 1476 C 140.75 4.28171 2.97185 0
M  V30 1477 C 138.078 5.08348 2.92915 0
M  V30 1478 C 140.43 5.63218 2.88041 0
M  V30 1479 C 139.094 6.03426 2.85366 0
M  V30 1480 H 138.364 0.407977 0.618576 0
M  V30 1481 H 141.011 1.56551 1.10291 0
M  V30 1482 H 139.316 1.29941 3.69625 0
M  V30 1483 H 141.013 1.68642 3.63815 0
M  V30 1484 H 137.603 2.99915 3.06185 0
M  V30 1485 H 141.787 3.97563 2.97081 0
M  V30 1486 H 137.043 5.38667 2.89219 0
M  V30 1487 H 141.217 6.37078 2.81254 0
M  V30 1488 H 138.844 7.07999 2.76842 0
M  V30 1489 N 140.419 -1.14872 1.07899 0
M  V30 1490 C 141.329 -2.2341 0.715915 0
M  V30 1491 C 142.345 -1.71808 -0.275306 0
M  V30 1492 O 143.521 -2.01039 -0.120545 0
M  V30 1493 C 140.586 -3.46474 0.125168 0
M  V30 1494 C 139.647 -4.13039 1.17034 0
M  V30 1495 C 138.88 -5.30229 0.607688 0
M  V30 1496 O 139.103 -5.675 -0.574497 0
M  V30 1497 O 138.037 -5.86444 1.35526 0
M  V30 1498 H 141.863 -2.56808 1.62121 0
M  V30 1499 H 139.448 -1.22702 0.852322 0
M  V30 1500 H 141.33 -4.20917 -0.201729 0
M  V30 1501 H 140.005 -3.14811 -0.753364 0
M  V30 1502 H 138.912 -3.40493 1.54968 0
M  V30 1503 H 140.245 -4.48796 2.02097 0
M  V30 1504 N 141.898 -0.863906 -1.31812 0
M  V30 1505 C 143.145 -0.471836 -1.96926 0
M  V30 1506 C 143.473 0.974578 -1.68322 0
M  V30 1507 O 142.728 1.7003 -0.968933 0
M  V30 1508 C 143.027 -0.668547 -3.51091 0
M  V30 1509 C 142.693 -2.08683 -3.99703 0
M  V30 1510 C 141.355 -2.47471 -4.12688 0
M  V30 1511 C 143.707 -3.01207 -4.25351 0
M  V30 1512 C 141.035 -3.78037 -4.4867 0
M  V30 1513 C 143.387 -4.31282 -4.62794 0
M  V30 1514 C 142.051 -4.69992 -4.73987 0
M  V30 1515 H 141.321 -0.172657 -0.720604 0
M  V30 1516 H 143.968 -1.09573 -1.57054 0
M  V30 1517 H 142.273 0.0385252 -3.91781 0
M  V30 1518 H 143.97 -0.345102 -3.99512 0
M  V30 1519 H 140.56 -1.77566 -3.90087 0
M  V30 1520 H 144.744 -2.72469 -4.14819 0
M  V30 1521 H 140 -4.078 -4.55532 0
M  V30 1522 H 144.174 -5.03031 -4.81594 0
M  V30 1523 H 141.801 -5.71207 -5.01624 0
M  V30 1524 N 143.376 1.44774 -0.622745 0
M  V30 1525 C 144.604 2.06487 -0.130722 0
M  V30 1526 C 145.019 1.46476 1.19123 0
M  V30 1527 O 144.376 0.584502 1.72887 0
M  V30 1528 C 144.427 3.615 -0.000807207 0
M  V30 1529 O 144.148 4.19274 -1.27048 0
M  V30 1530 C 145.649 4.40229 0.520898 0
M  V30 1531 H 142.869 0.666704 -0.0758106 0
M  V30 1532 H 145.413 1.85779 -0.854774 0
M  V30 1533 H 143.568 3.81498 0.673643 0
M  V30 1534 H 143.982 5.12622 -1.1099 0
M  V30 1535 H 145.456 5.49144 0.560838 0
M  V30 1536 H 145.933 4.1108 1.54627 0
M  V30 1537 H 146.539 4.25131 -0.120018 0
M  V30 1538 N 144.854 0.36279 1.53368 0
M  V30 1539 C 146.082 -0.228613 2.05633 0
M  V30 1540 C 146.497 -1.42676 1.23649 0
M  V30 1541 O 145.854 -1.80394 0.27647 0
M  V30 1542 C 145.905 -0.624845 3.56059 0
M  V30 1543 O 145.626 0.525675 4.34935 0
M  V30 1544 C 147.127 -1.27493 4.24571 0
M  V30 1545 H 144.347 -0.0407183 0.669763 0
M  V30 1546 H 146.891 0.520352 1.97769 0
M  V30 1547 H 145.046 -1.32373 3.64083 0
M  V30 1548 H 145.46 0.205969 5.24095 0
M  V30 1549 H 146.934 -1.50277 5.31151 0
M  V30 1550 H 147.411 -2.23439 3.78116 0
M  V30 1551 H 148.017 -0.617558 4.20792 0
M  V30 1552 N 146.332 -1.57332 0.0918853 0
M  V30 1553 C 147.264 -2.10869 -0.898168 0
M  V30 1554 C 148.277 -1.04521 -1.24817 0
M  V30 1555 O 149.466 -1.31977 -1.20184 0
M  V30 1556 C 146.566 -2.57083 -2.2082 0
M  V30 1557 C 145.739 -3.87229 -2.03402 0
M  V30 1558 C 144.798 -4.19324 -3.17889 0
M  V30 1559 O 143.824 -4.88598 -2.91994 0
M  V30 1560 N 145.026 -3.74471 -4.43567 0
M  V30 1561 H 147.791 -2.96439 -0.440943 0
M  V30 1562 H 145.352 -1.61631 -0.0933064 0
M  V30 1563 H 147.344 -2.75602 -2.96354 0
M  V30 1564 H 145.914 -1.76541 -2.57977 0
M  V30 1565 H 145.134 -3.7789 -1.12218 0
M  V30 1566 H 146.422 -4.72379 -1.89038 0
M  V30 1567 H 145.82 -3.18546 -4.67488 0
M  V30 1568 H 144.377 -3.98151 -5.16061 0
M  V30 1569 N 147.81 0.181792 -1.56548 0
M  V30 1570 C 148.757 1.22521 -1.95595 0
M  V30 1571 C 149.727 1.4454 -0.818373 0
M  V30 1572 O 150.912 1.57454 -1.07763 0
M  V30 1573 C 148.052 2.56193 -2.31212 0
M  V30 1574 C 147.165 2.41641 -3.58097 0
M  V30 1575 C 146.3 3.68108 -3.82975 0
M  V30 1576 C 145.339 3.48445 -5.03242 0
M  V30 1577 N 144.476 4.66956 -5.24306 0
M  V30 1578 H 149.316 0.885226 -2.84548 0
M  V30 1579 H 146.853 0.425718 -1.40805 0
M  V30 1580 H 148.811 3.34088 -2.49882 0
M  V30 1581 H 147.441 2.88208 -1.45382 0
M  V30 1582 H 146.493 1.54976 -3.474 0
M  V30 1583 H 147.805 2.23052 -4.46149 0
M  V30 1584 H 146.959 4.54441 -4.01956 0
M  V30 1585 H 145.698 3.89666 -2.93278 0
M  V30 1586 H 144.703 2.60499 -4.8417 0
M  V30 1587 H 145.928 3.2832 -5.9446 0
M  V30 1588 H 143.874 4.88752 -4.37559 0
M  V30 1589 H 143.791 4.51242 -6.06561 0
M  V30 1590 H 145.059 5.54602 -5.47756 0
M  V30 1591 N 149.288 1.51039 0.449983 0
M  V30 1592 C 150.198 1.74261 1.57067 0
M  V30 1593 C 151.214 0.626363 1.62335 0
M  V30 1594 O 152.39 0.907162 1.79812 0
M  V30 1595 C 149.455 1.85114 2.93144 0
M  V30 1596 C 148.516 3.0893 2.98095 0
M  V30 1597 C 147.749 3.19256 4.27681 0
M  V30 1598 O 147.972 2.35835 5.19363 0
M  V30 1599 O 146.906 4.12144 4.38658 0
M  V30 1600 H 150.732 2.69303 1.40391 0
M  V30 1601 H 148.317 1.35389 0.631688 0
M  V30 1602 H 150.199 1.94311 3.73926 0
M  V30 1603 H 148.874 0.932588 3.09975 0
M  V30 1604 H 147.781 3.0522 2.16314 0
M  V30 1605 H 149.114 4.00433 2.86206 0
M  V30 1606 N 150.766 -0.704594 1.40972 0
M  V30 1607 C 151.996 -1.49138 1.42974 0
M  V30 1608 C 152.404 -1.89175 0.0308406 0
M  V30 1609 O 151.747 -1.56734 -0.958138 0
M  V30 1610 C 151.809 -2.79016 2.26694 0
M  V30 1611 C 151.473 -2.61236 3.74973 0
M  V30 1612 C 152.47 -2.27773 4.67349 0
M  V30 1613 C 150.155 -2.77158 4.18914 0
M  V30 1614 C 152.149 -2.10457 6.01653 0
M  V30 1615 C 149.836 -2.59459 5.53285 0
M  V30 1616 C 150.834 -2.26158 6.4447 0
M  V30 1617 O 150.522 -2.08605 7.76363 0
M  V30 1618 H 150.254 -0.466443 0.489292 0
M  V30 1619 H 152.808 -0.8758 1.85793 0
M  V30 1620 H 151.038 -3.42947 1.78673 0
M  V30 1621 H 152.727 -3.40782 2.20504 0
M  V30 1622 H 153.493 -2.15095 4.34694 0
M  V30 1623 H 149.372 -3.02064 3.48251 0
M  V30 1624 H 152.916 -1.84387 6.72791 0
M  V30 1625 H 148.813 -2.71725 5.85522 0
M  V30 1626 H 149.581 -2.23439 7.87412 0
M  V30 1627 N 152.244 -1.26651 -0.937939 0
M  V30 1628 C 153.469 -1.15279 -1.72411 0
M  V30 1629 C 153.894 0.287866 -1.85884 0
M  V30 1630 O 153.252 1.20855 -1.35143 0
M  V30 1631 C 153.3 -1.83028 -3.10698 0
M  V30 1632 O 152.404 -1.12128 -3.96864 0
M  V30 1633 H 151.745 -0.401504 -0.528858 0
M  V30 1634 H 154.275 -1.67531 -1.1745 0
M  V30 1635 H 154.285 -1.89981 -3.6107 0
M  V30 1636 H 152.96 -2.87833 -3.00208 0
M  V30 1637 H 151.537 -1.13173 -3.55312 0
M  V30 1638 N 153.722 1.14298 -1.08507 0
M  V30 1639 C 154.971 1.84708 -0.810305 0
M  V30 1640 C 155.284 1.83903 0.666271 0
M  V30 1641 O 156.49 2.50112 1.05624 0
M  V30 1642 C 154.946 3.31572 -1.39957 0
M  V30 1643 C 154.554 3.40791 -2.90801 0
M  V30 1644 C 156.298 4.07087 -1.20334 0
M  V30 1645 C 154.205 4.81872 -3.4286 0
M  V30 1646 H 153.135 0.691985 -0.299454 0
M  V30 1647 H 155.786 1.28841 -1.30661 0
M  V30 1648 H 154.168 3.87183 -0.830976 0
M  V30 1649 H 155.342 2.95225 -3.53806 0
M  V30 1650 H 153.657 2.78732 -3.0935 0
M  V30 1651 H 156.254 5.11225 -1.56693 0
M  V30 1652 H 156.597 4.16054 -0.143237 0
M  V30 1653 H 157.13 3.57779 -1.73893 0
M  V30 1654 H 153.869 4.78094 -4.48449 0
M  V30 1655 H 153.389 5.27972 -2.84615 0
M  V30 1656 H 155.068 5.50765 -3.39509 0
M  V30 1657 N 155.201 0.870884 1.31352 0
M  V30 1658 C 156.426 0.495957 2.01383 0
M  V30 1659 C 156.851 -0.904324 1.64935 0
M  V30 1660 O 156.209 -1.59687 0.858466 0
M  V30 1661 C 156.257 0.661433 3.54482 0
M  V30 1662 O 155.361 -0.298851 4.11316 0
M  V30 1663 H 154.702 0.197158 0.634054 0
M  V30 1664 H 157.232 1.17455 1.67527 0
M  V30 1665 H 157.242 0.555072 4.04207 0
M  V30 1666 H 155.917 1.68246 3.8035 0
M  V30 1667 H 154.494 -0.147368 3.72609 0
M  V30 1668 N 156.679 -1.44442 0.630414 0
M  V30 1669 C 157.642 -2.29107 -0.0652523 0
M  V30 1670 C 158.642 -1.41002 -0.772995 0
M  V30 1671 O 159.832 -1.62881 -0.617692 0
M  V30 1672 C 156.964 -3.22564 -1.10296 0
M  V30 1673 H 158.157 -2.92103 0.679401 0
M  V30 1674 H 155.71 -1.51343 0.390517 0
M  V30 1675 H 156.445 -2.64416 -1.87762 0
M  V30 1676 H 156.23 -3.87491 -0.59941 0
M  V30 1677 H 157.72 -3.86167 -1.5895 0
M  V30 1678 N 158.157 -0.370918 -1.53173 0
M  V30 1679 C 159.12 0.460778 -2.24521 0
M  V30 1680 C 160.12 1.00536 -1.25496 0
M  V30 1681 O 161.31 0.890266 -1.49733 0
M  V30 1682 C 158.442 1.64457 -2.98608 0
M  V30 1683 H 159.635 -0.163613 -2.99453 0
M  V30 1684 H 157.188 -0.122699 -1.55818 0
M  V30 1685 H 157.923 2.30691 -2.2793 0
M  V30 1686 H 157.708 1.26099 -3.7127 0
M  V30 1687 H 159.198 2.23384 -3.5283 0
M  V30 1688 N 159.635 1.57281 -0.100228 0
M  V30 1689 C 160.598 2.13158 0.842398 0
M  V30 1690 C 161.598 1.06202 1.20738 0
M  V30 1691 O 162.788 1.32066 1.13597 0
M  V30 1692 C 159.92 2.65639 2.13655 0
M  V30 1693 H 161.113 2.97766 0.357114 0
M  V30 1694 H 158.666 1.5559 0.148823 0
M  V30 1695 H 159.401 1.84566 2.66657 0
M  V30 1696 H 159.186 3.43844 1.88451 0
M  V30 1697 H 160.676 3.08846 2.81077 0
M  V30 1698 N 161.113 -0.173488 1.56642 0
M  V30 1699 C 162.362 -0.888758 1.81063 0
M  V30 1700 C 162.675 -1.83506 0.67712 0
M  V30 1701 O 163.881 -2.59254 0.806206 0
M  V30 1702 C 162.337 -1.63091 3.20826 0
M  V30 1703 C 161.945 -0.728357 4.4204 0
M  V30 1704 C 163.689 -2.33454 3.54541 0
M  V30 1705 C 161.596 -1.47062 5.72823 0
M  V30 1706 H 160.526 -0.335618 0.675186 0
M  V30 1707 H 163.177 -0.141712 1.82952 0
M  V30 1708 H 161.559 -2.42263 3.13248 0
M  V30 1709 H 162.733 0.0262449 4.60793 0
M  V30 1710 H 161.048 -0.134492 4.16183 0
M  V30 1711 H 163.645 -2.89578 4.49498 0
M  V30 1712 H 163.988 -3.08687 2.79317 0
M  V30 1713 H 164.521 -1.61227 3.63663 0
M  V30 1714 H 161.26 -0.760658 6.51072 0
M  V30 1715 H 160.78 -2.1986 5.58052 0
M  V30 1716 H 162.459 -2.01868 6.14702 0
M  V30 1717 N 162.591 -1.51276 -0.441967 0
M  V30 1718 C 163.554 -1.7167 -1.51862 0
M  V30 1719 C 164.554 -0.586793 -1.49711 0
M  V30 1720 O 165.744 -0.854276 -1.51815 0
M  V30 1721 C 162.876 -1.76889 -2.91416 0
M  V30 1722 H 164.069 -2.67754 -1.35084 0
M  V30 1723 H 161.622 -1.41196 -0.670333 0
M  V30 1724 H 162.357 -0.826026 -3.13604 0
M  V30 1725 H 162.142 -2.59001 -2.94382 0
M  V30 1726 H 163.632 -1.94522 -3.69528 0
M  V30 1727 N 164.069 0.697108 -1.41344 0
M  V30 1728 C 165.318 1.45279 -1.39918 0
M  V30 1729 C 165.631 1.95597 -0.0109624 0
M  V30 1730 O 166.837 2.71208 0.125919 0
M  V30 1731 C 165.293 2.62695 -2.46007 0
M  V30 1732 C 164.901 2.19169 -3.90729 0
M  V30 1733 C 166.645 3.40336 -2.53715 0
M  V30 1734 C 164.552 3.33535 -4.88373 0
M  V30 1735 H 163.482 0.545692 -0.520323 0
M  V30 1736 H 166.133 0.756929 -1.67161 0
M  V30 1737 H 164.515 3.34541 -2.11892 0
M  V30 1738 H 165.689 1.54623 -4.34083 0
M  V30 1739 H 164.004 1.54525 -3.86666 0
M  V30 1740 H 166.601 4.2547 -3.2385 0
M  V30 1741 H 166.944 3.85418 -1.5735 0
M  V30 1742 H 167.477 2.75546 -2.86913 0
M  V30 1743 H 164.216 2.93468 -5.86137 0
M  V30 1744 H 163.736 3.96936 -4.49668 0
M  V30 1745 H 165.415 3.99335 -5.09059 0
M  V30 1746 N 165.547 1.27147 0.931209 0
M  V30 1747 C 166.794 1.13278 1.67852 0
M  V30 1748 C 167.122 -0.32204 1.91815 0
M  V30 1749 O 166.377 -1.25224 1.50391 0
M  V30 1750 C 166.676 1.8579 3.05314 0
M  V30 1751 C 166.342 3.35657 3.01073 0
M  V30 1752 C 165.004 3.76536 2.99623 0
M  V30 1753 C 167.356 4.31299 2.92627 0
M  V30 1754 C 164.684 5.11426 2.87506 0
M  V30 1755 C 167.036 5.66242 2.82051 0
M  V30 1756 C 165.7 6.06418 2.7895 0
M  V30 1757 H 164.97 0.414515 0.614214 0
M  V30 1758 H 167.617 1.57712 1.08624 0
M  V30 1759 H 165.922 1.33854 3.68226 0
M  V30 1760 H 167.619 1.72491 3.62005 0
M  V30 1761 H 164.209 3.03146 3.02986 0
M  V30 1762 H 168.393 4.00692 2.92848 0
M  V30 1763 H 163.649 5.41705 2.83489 0
M  V30 1764 H 167.823 6.40026 2.74481 0
M  V30 1765 H 165.45 7.10895 2.69318 0
M  V30 1766 N 167.025 -1.13721 1.09112 0
M  V30 1767 C 168.25 -1.89314 0.847053 0
M  V30 1768 C 168.675 -1.78416 -0.595774 0
M  V30 1769 O 168.033 -1.12942 -1.41823 0
M  V30 1770 C 168.081 -3.3701 1.28284 0
M  V30 1771 O 167.185 -4.10054 0.439267 0
M  V30 1772 H 166.526 -0.588745 0.307044 0
M  V30 1773 H 169.056 -1.43902 1.45442 0
M  V30 1774 H 169.066 -3.87834 1.26683 0
M  V30 1775 H 167.741 -3.4426 2.33363 0
M  V30 1776 H 166.318 -3.69266 0.519312 0
M  V30 1777 N 168.503 -0.877838 -1.30888 0
M  V30 1778 C 169.433 -0.35534 -2.3078 0
M  V30 1779 C 170.414 0.557994 -1.60687 0
M  V30 1780 O 171.599 0.473355 -1.88343 0
M  V30 1781 C 168.729 0.437221 -3.44537 0
M  V30 1782 C 167.683 -0.383715 -4.26276 0
M  V30 1783 C 167.009 0.535014 -5.32017 0
M  V30 1784 C 168.309 -1.62201 -4.96476 0
M  V30 1785 H 170.003 -1.19007 -2.74732 0
M  V30 1786 H 167.549 -0.573698 -1.32078 0
M  V30 1787 H 169.502 0.813334 -4.13477 0
M  V30 1788 H 168.226 1.30553 -2.99372 0
M  V30 1789 H 166.885 -0.741874 -3.59015 0
M  V30 1790 H 166.533 1.40083 -4.831 0
M  V30 1791 H 166.233 -0.0104211 -5.87599 0
M  V30 1792 H 167.757 0.907799 -6.03814 0
M  V30 1793 H 169.171 -1.31689 -5.5797 0
M  V30 1794 H 167.568 -2.10711 -5.61891 0
M  V30 1795 H 168.638 -2.37044 -4.23011 0
M  V30 1796 N 169.982 1.44106 -0.638065 0
M  V30 1797 C 171.23 2.01579 -0.145043 0
M  V30 1798 C 171.551 1.50496 1.24 0
M  V30 1799 O 170.821 0.711374 1.82527 0
M  V30 1800 H 169.401 0.745282 -0.05063 0
M  V30 1801 H 172.063 1.76516 -0.826327 0
M  V30 1802 H 171.159 3.11877 -0.118039 0
M  V30 1803 N 171.46 0.379036 1.52974 0
M  V30 1804 C 172.707 -0.206421 2.01445 0
M  V30 1805 C 173.035 -1.47668 1.26587 0
M  V30 1806 O 172.29 -1.92514 0.351675 0
M  V30 1807 C 172.589 -0.53096 3.53434 0
M  V30 1808 C 172.255 0.646546 4.46241 0
M  V30 1809 C 170.917 0.969604 4.7133 0
M  V30 1810 C 173.269 1.43479 5.01062 0
M  V30 1811 C 170.597 2.08263 5.48492 0
M  V30 1812 C 172.949 2.53834 5.7944 0
M  V30 1813 C 171.613 2.86659 6.02812 0
M  V30 1814 H 170.883 -0.0755349 0.73714 0
M  V30 1815 H 173.53 0.514271 1.84465 0
M  V30 1816 H 171.835 -1.33285 3.68432 0
M  V30 1817 H 173.532 -0.996417 3.88423 0
M  V30 1818 H 170.122 0.384734 4.2687 0
M  V30 1819 H 174.306 1.19844 4.81613 0
M  V30 1820 H 169.562 2.34078 5.64816 0
M  V30 1821 H 173.736 3.15319 6.20924 0
M  V30 1822 H 171.363 3.73026 6.62387 0
M  V30 1823 N 172.938 -1.57226 0.108567 0
M  V30 1824 C 174.187 -1.94008 -0.551703 0
M  V30 1825 C 174.5 -0.993442 -1.68494 0
M  V30 1826 O 175.706 -1.25551 -2.40726 0
M  V30 1827 C 174.162 -3.44763 -1.03279 0
M  V30 1828 C 173.77 -4.47943 0.0714193 0
M  V30 1829 C 175.514 -3.90483 -1.66503 0
M  V30 1830 C 173.421 -5.89865 -0.425779 0
M  V30 1831 H 172.351 -0.724206 -0.209863 0
M  V30 1832 H 175.002 -1.82547 0.186741 0
M  V30 1833 H 173.384 -3.51422 -1.82533 0
M  V30 1834 H 174.558 -4.52942 0.847365 0
M  V30 1835 H 172.873 -4.11913 0.609669 0
M  V30 1836 H 175.47 -4.93925 -2.04798 0
M  V30 1837 H 175.813 -3.29877 -2.53942 0
M  V30 1838 H 176.346 -3.86581 -0.938074 0
M  V30 1839 H 173.085 -6.54202 0.412316 0
M  V30 1840 H 172.605 -5.88309 -1.16843 0
M  V30 1841 H 174.284 -6.40844 -0.890397 0
M  V30 1842 N 174.416 0.165178 -1.56732 0
M  V30 1843 C 175.665 0.879143 -1.81532 0
M  V30 1844 C 175.978 1.83144 -0.686842 0
M  V30 1845 O 177.184 2.58823 -0.819944 0
M  V30 1846 C 175.64 1.61388 -3.21686 0
M  V30 1847 C 175.248 0.704904 -4.4242 0
M  V30 1848 C 176.992 2.3157 -3.55774 0
M  V30 1849 C 174.899 1.44022 -5.73595 0
M  V30 1850 H 173.829 0.332033 -0.676957 0
M  V30 1851 H 176.48 0.132008 -1.83025 0
M  V30 1852 H 174.862 2.40599 -3.14529 0
M  V30 1853 H 176.036 -0.0506815 -4.60772 0
M  V30 1854 H 174.351 0.112419 -4.16248 0
M  V30 1855 H 176.948 2.8719 -4.51028 0
M  V30 1856 H 177.291 3.07201 -2.8095 0
M  V30 1857 H 177.824 1.59297 -3.64513 0
M  V30 1858 H 174.563 0.72612 -6.51466 0
M  V30 1859 H 174.083 2.16898 -5.5921 0
M  V30 1860 H 175.762 1.98606 -6.15764 0
M  V30 1861 N 175.894 1.51508 0.433938 0
M  V30 1862 C 176.824 1.76016 1.53429 0
M  V30 1863 C 177.805 0.610112 1.58782 0
M  V30 1864 O 178.99 0.853177 1.74455 0
M  V30 1865 C 176.12 1.88831 2.9148 0
M  V30 1866 C 175.074 3.04288 3.00987 0
M  V30 1867 C 174.4 3.0229 4.4105 0
M  V30 1868 C 175.7 4.44193 2.74754 0
M  V30 1869 H 177.394 2.68152 1.33171 0
M  V30 1870 H 174.94 1.29035 0.639214 0
M  V30 1871 H 176.893 2.04559 3.6842 0
M  V30 1872 H 175.617 0.933455 3.12976 0
M  V30 1873 H 174.276 2.8827 2.26486 0
M  V30 1874 H 173.924 2.04576 4.59519 0
M  V30 1875 H 173.624 3.79822 4.4834 0
M  V30 1876 H 175.148 3.20116 5.1996 0
M  V30 1877 H 176.562 4.60544 3.41426 0
M  V30 1878 H 174.959 5.23457 2.9345 0
M  V30 1879 H 176.029 4.53996 1.70339 0
M  V30 1880 N 177.372 -0.689602 1.41712 0
M  V30 1881 C 178.62 -1.4468 1.4111 0
M  V30 1882 C 178.941 -1.94986 0.0232196 0
M  V30 1883 O 178.211 -1.72097 -0.935913 0
M  V30 1884 H 176.791 -0.536847 0.519427 0
M  V30 1885 H 179.453 -0.815825 1.77004 0
M  V30 1886 H 178.549 -2.30706 2.10193 0
M  V30 1887 N 178.85 -1.27639 -0.924453 0
M  V30 1888 C 180.075 -1.17101 -1.71179 0
M  V30 1889 C 180.5 0.268134 -1.86179 0
M  V30 1890 O 179.858 1.19415 -1.36418 0
M  V30 1891 C 179.906 -1.86313 -3.08739 0
M  V30 1892 O 179.01 -1.16331 -3.95652 0
M  V30 1893 H 178.351 -0.407091 -0.524569 0
M  V30 1894 H 180.881 -1.68767 -1.15666 0
M  V30 1895 H 180.891 -1.938 -3.59034 0
M  V30 1896 H 179.566 -2.91001 -2.97138 0
M  V30 1897 H 178.143 -1.16935 -3.54091 0
M  V30 1898 N 180.328 1.1314 -1.09713 0
M  V30 1899 C 181.258 2.20748 -0.761102 0
M  V30 1900 C 182.239 1.68061 0.262566 0
M  V30 1901 O 183.424 1.93765 0.129977 0
M  V30 1902 C 180.554 3.46812 -0.184054 0
M  V30 1903 C 179.508 4.12606 -1.13757 0
M  V30 1904 C 178.834 5.33031 -0.422083 0
M  V30 1905 C 180.134 4.59603 -2.48118 0
M  V30 1906 H 181.828 2.49113 -1.66082 0
M  V30 1907 H 179.374 1.19734 -0.799987 0
M  V30 1908 H 181.327 4.21353 0.0631215 0
M  V30 1909 H 180.051 3.17851 0.750868 0
M  V30 1910 H 178.71 3.40036 -1.37007 0
M  V30 1911 H 178.358 5.00335 0.517072 0
M  V30 1912 H 178.058 5.77999 -1.05788 0
M  V30 1913 H 179.582 6.10325 -0.183277 0
M  V30 1914 H 180.996 5.25552 -2.29059 0
M  V30 1915 H 179.393 5.15321 -3.07514 0
M  V30 1916 H 180.463 3.73971 -3.08665 0
M  V30 1917 N 181.806 0.884767 1.30421 0
M  V30 1918 C 183.046 0.509806 1.9794 0
M  V30 1919 C 183.41 -0.923736 1.68319 0
M  V30 1920 O 184.611 -1.40481 2.29169 0
M  V30 1921 C 182.882 0.776732 3.48858 0
M  V30 1922 S 184.441 0.503843 4.35898 0
M  V30 1923 H 181.259 0.189699 0.685227 0
M  V30 1924 H 183.861 1.14399 1.58535 0
M  V30 1925 H 182.565 1.81857 3.67908 0
M  V30 1926 H 182.096 0.1301 3.93185 0
M  V30 1927 H 184.111 -0.657625 4.91823 0
M  V30 1928 N 183.284 -1.43765 0.645699 0
M  V30 1929 C 184.53 -2.02197 0.156271 0
M  V30 1930 C 184.863 -1.50776 -1.22393 0
M  V30 1931 O 184.138 -0.697771 -1.81553 0
M  V30 1932 C 184.421 -3.59749 0.158872 0
M  V30 1933 C 184.274 -4.21419 1.57245 0
M  V30 1934 C 185.593 -4.37149 -0.50879 0
M  V30 1935 H 182.712 -0.734694 0.0582602 0
M  V30 1936 H 185.354 -1.71157 0.824951 0
M  V30 1937 H 183.504 -3.86325 -0.410525 0
M  V30 1938 H 185.176 -4.059 2.19186 0
M  V30 1939 H 183.419 -3.78356 2.122 0
M  V30 1940 H 184.09 -5.30482 1.52619 0
M  V30 1941 H 186.566 -4.16093 -0.024412 0
M  V30 1942 H 185.442 -5.4683 -0.476213 0
M  V30 1943 H 185.703 -4.12839 -1.58165 0
M  V30 1944 N 184.763 -0.387143 -1.52771 0
M  V30 1945 C 185.693 0.440551 -2.29306 0
M  V30 1946 C 186.674 1.06535 -1.32606 0
M  V30 1947 O 187.859 1.07853 -1.61497 0
M  V30 1948 C 184.989 1.56919 -3.09829 0
M  V30 1949 C 183.943 1.07054 -4.14395 0
M  V30 1950 C 183.269 2.29109 -4.83129 0
M  V30 1951 C 184.569 0.140015 -5.22112 0
M  V30 1952 H 186.263 -0.198026 -2.98744 0
M  V30 1953 H 183.809 -0.09668 -1.43675 0
M  V30 1954 H 185.762 2.15503 -3.62128 0
M  V30 1955 H 184.486 2.23532 -2.3812 0
M  V30 1956 H 183.145 0.507247 -3.63074 0
M  V30 1957 H 182.793 2.94227 -4.0797 0
M  V30 1958 H 182.493 1.96406 -5.53804 0
M  V30 1959 H 184.017 2.88339 -5.38231 0
M  V30 1960 H 185.431 0.633978 -5.69784 0
M  V30 1961 H 183.828 -0.0971485 -6.00021 0
M  V30 1962 H 184.898 -0.811711 -4.78058 0
M  V30 1963 N 186.241 1.57166 -0.116904 0
M  V30 1964 C 187.171 2.18222 0.830759 0
M  V30 1965 C 188.152 1.12167 1.27877 0
M  V30 1966 O 189.337 1.40394 1.34176 0
M  V30 1967 C 186.467 2.77996 2.08172 0
M  V30 1968 C 185.421 3.89614 1.77157 0
M  V30 1969 C 184.747 4.36187 3.09265 0
M  V30 1970 C 186.047 5.1181 1.04151 0
M  V30 1971 H 187.741 2.97664 0.321992 0
M  V30 1972 H 185.287 1.4318 0.153434 0
M  V30 1973 H 187.24 3.19366 2.74924 0
M  V30 1974 H 185.964 1.9584 2.6137 0
M  V30 1975 H 184.623 3.48816 1.12796 0
M  V30 1976 H 184.271 3.50893 3.60393 0
M  V30 1977 H 183.971 5.11455 2.89288 0
M  V30 1978 H 185.495 4.80207 3.77139 0
M  V30 1979 H 186.909 5.50214 1.61052 0
M  V30 1980 H 185.306 5.92648 0.942762 0
M  V30 1981 H 186.376 4.84892 0.0279022 0
M  V30 1982 N 187.719 -0.156864 1.56817 0
M  V30 1983 C 188.944 -0.890331 1.87318 0
M  V30 1984 C 189.369 -1.74394 0.704855 0
M  V30 1985 O 188.727 -1.77972 -0.345786 0
M  V30 1986 C 188.775 -1.73102 3.16336 0
M  V30 1987 O 187.879 -2.83422 2.99576 0
M  V30 1988 H 187.22 -0.24857 0.615718 0
M  V30 1989 H 189.75 -0.150649 2.04045 0
M  V30 1990 H 189.76 -2.12803 3.48107 0
M  V30 1991 H 188.435 -1.10412 4.00976 0
M  V30 1992 H 187.012 -2.47199 2.7919 0
M  V30 1993 N 189.197 -1.51736 -0.425897 0
M  V30 1994 C 190.127 -1.76827 -1.52494 0
M  V30 1995 C 191.108 -0.618524 -1.58456 0
M  V30 1996 O 192.293 -0.862416 -1.74 0
M  V30 1997 C 189.423 -1.90374 -2.90474 0
M  V30 1998 C 188.377 -3.0588 -2.99369 0
M  V30 1999 C 187.703 -3.04625 -4.3944 0
M  V30 2000 C 189.003 -4.45644 -2.72394 0
M  V30 2001 H 190.697 -2.68855 -1.31748 0
M  V30 2002 H 188.243 -1.29372 -0.632362 0
M  V30 2003 H 190.196 -2.0651 -3.6733 0
M  V30 2004 H 188.92 -0.95004 -3.12477 0
M  V30 2005 H 187.579 -2.89467 -2.24954 0
M  V30 2006 H 187.227 -2.0701 -4.58428 0
M  V30 2007 H 186.927 -3.82195 -4.46319 0
M  V30 2008 H 188.451 -3.22869 -5.18255 0
M  V30 2009 H 189.865 -4.62348 -3.38979 0
M  V30 2010 H 188.262 -5.25006 -2.9067 0
M  V30 2011 H 189.332 -4.54893 -1.67929 0
M  V30 2012 N 190.675 0.682077 -1.42076 0
M  V30 2013 C 191.923 1.4393 -1.41876 0
M  V30 2014 C 192.244 1.94971 -0.0335599 0
M  V30 2015 O 191.514 1.72591 0.926773 0
M  V30 2016 H 190.094 0.534085 -0.522267 0
M  V30 2017 H 192.756 0.806427 -1.77434 0
M  V30 2018 H 191.852 2.29588 -2.11414 0
M  V30 2019 N 192.153 1.28127 0.917671 0
M  V30 2020 C 193.1 1.11717 2.0196 0
M  V30 2021 C 194.07 0.0153929 1.66093 0
M  V30 2022 O 195.255 0.179596 1.89953 0
M  V30 2023 C 192.395 0.780927 3.36148 0
M  V30 2024 C 191.508 1.96135 3.84909 0
M  V30 2025 C 190.643 1.56609 5.0759 0
M  V30 2026 C 189.682 2.71339 5.48673 0
M  V30 2027 N 188.819 2.32332 6.62545 0
M  V30 2028 H 193.659 2.06003 2.15329 0
M  V30 2029 H 191.196 1.02535 1.05475 0
M  V30 2030 H 193.154 0.56675 4.13333 0
M  V30 2031 H 191.784 -0.124998 3.22558 0
M  V30 2032 H 190.836 2.28777 3.03916 0
M  V30 2033 H 192.148 2.82165 4.1132 0
M  V30 2034 H 191.302 1.31374 5.92305 0
M  V30 2035 H 190.041 0.677014 4.82978 0
M  V30 2036 H 189.046 2.97276 4.62501 0
M  V30 2037 H 190.271 3.60882 5.75274 0
M  V30 2038 H 188.217 1.45889 6.39572 0
M  V30 2039 H 188.134 3.11899 6.88662 0
M  V30 2040 H 189.402 2.10371 7.50576 0
M  V30 2041 N 193.631 -1.12557 1.10312 0
M  V30 2042 C 194.578 -2.18247 0.750781 0
M  V30 2043 C 195.548 -1.63853 -0.272293 0
M  V30 2044 O 196.733 -1.90195 -0.151862 0
M  V30 2045 C 193.873 -3.44591 0.187379 0
M  V30 2046 C 192.986 -4.13046 1.2656 0
M  V30 2047 C 192.121 -5.27034 0.663978 0
M  V30 2048 C 191.16 -5.87353 1.72287 0
M  V30 2049 N 190.297 -6.92757 1.1416 0
M  V30 2050 H 195.137 -2.47732 1.65628 0
M  V30 2051 H 192.674 -1.21629 0.827337 0
M  V30 2052 H 194.632 -4.16904 -0.157148 0
M  V30 2053 H 193.262 -3.15527 -0.681355 0
M  V30 2054 H 192.314 -3.38924 1.72727 0
M  V30 2055 H 193.626 -4.53947 2.06721 0
M  V30 2056 H 192.78 -6.06104 0.268824 0
M  V30 2057 H 191.519 -4.87407 -0.169082 0
M  V30 2058 H 190.524 -5.06971 2.12746 0
M  V30 2059 H 191.749 -6.29051 2.55875 0
M  V30 2060 H 189.695 -6.5517 0.329984 0
M  V30 2061 H 189.612 -7.3225 1.88007 0
M  V30 2062 H 190.88 -7.75658 0.772956 0
M  V30 2063 N 195.109 -0.891671 -1.2995 0
M  V30 2064 C 196.525 -0.58662 -1.48428 0
M  V30 2065 C 196.725 0.873951 -1.81561 0
M  V30 2066 O 195.781 1.65471 -1.90724 0
M  V30 2067 C 197.094 -1.50553 -2.60296 0
M  V30 2068 C 198.642 -1.50988 -2.74175 0
M  V30 2069 C 199.117 -2.41488 -3.89163 0
M  V30 2070 N 200.608 -2.39489 -3.96483 0
M  V30 2071 C 201.343 -3.06223 -4.84784 0
M  V30 2072 N 200.839 -3.82206 -5.77833 0
M  V30 2073 N 202.632 -2.95421 -4.78208 0
M  V30 2074 H 194.783 -1.83644 -1.06718 0
M  V30 2075 H 197.046 -0.786455 -0.529332 0
M  V30 2076 H 196.752 -2.54581 -2.42654 0
M  V30 2077 H 196.626 -1.22008 -3.56923 0
M  V30 2078 H 199.013 -0.47708 -2.91218 0
M  V30 2079 H 199.094 -1.83567 -1.78148 0
M  V30 2080 H 198.738 -3.44857 -3.72876 0
M  V30 2081 H 198.668 -2.06222 -4.84541 0
M  V30 2082 H 201.159 -1.84278 -3.29924 0
M  V30 2083 H 201.472 -4.302 -6.41988 0
M  V30 2084 H 199.817 -3.86313 -5.77743 0
M  V30 2085 H 203.008 -2.35581 -4.04499 0
M  V30 2086 H 203.181 -3.47704 -5.46814 0
M  V30 2087 N 196.587 1.43421 -0.653314 0
M  V30 2088 C 197.864 1.95361 -0.0966581 0
M  V30 2089 C 198.244 1.59461 1.38331 0
M  V30 2090 O 197.592 0.879777 2.10884 0
M  V30 2091 C 197.802 3.47311 -0.342988 0
M  V30 2092 C 199.15 4.23875 -0.24798 0
M  V30 2093 O 200.174 3.55133 -0.275553 0
M  V30 2094 O 199.033 5.4623 -0.171771 0
M  V30 2095 H 196.127 0.826945 0.00956291 0
M  V30 2096 H 198.673 1.5336 -0.726558 0
M  V30 2097 H 197.445 3.66569 -1.36906 0
M  V30 2098 H 197.068 3.9631 0.319975 0
M  V30 2099 N 198.065 0.39524 1.52563 0
M  V30 2100 C 199.295 -0.184675 2.05773 0
M  V30 2101 C 199.703 -1.40571 1.26635 0
M  V30 2102 O 199.046 -1.81105 0.30769 0
M  V30 2103 C 199.108 -0.613551 3.54226 0
M  V30 2104 C 198.772 0.49484 4.54313 0
M  V30 2105 C 199.769 1.3541 5.01956 0
M  V30 2106 C 197.454 0.663565 4.97898 0
M  V30 2107 C 199.448 2.36716 5.91814 0
M  V30 2108 C 197.135 1.67996 5.87555 0
M  V30 2109 C 198.133 2.53017 6.34406 0
M  V30 2110 O 197.821 3.52917 7.22291 0
M  V30 2111 H 197.553 -0.030077 0.675331 0
M  V30 2112 H 200.107 0.560708 1.97599 0
M  V30 2113 H 198.337 -1.411 3.60038 0
M  V30 2114 H 200.026 -1.11981 3.90148 0
M  V30 2115 H 200.792 1.23509 4.6901 0
M  V30 2116 H 196.671 0.0114913 4.60999 0
M  V30 2117 H 200.215 3.03113 6.28306 0
M  V30 2118 H 196.112 1.79933 6.19915 0
M  V30 2119 H 196.88 3.48996 7.40367 0
M  V30 2120 N 199.544 -1.57102 0.125237 0
M  V30 2121 C 200.474 -2.18659 -0.819174 0
M  V30 2122 C 201.455 -1.12843 -1.27281 0
M  V30 2123 O 202.64 -1.41104 -1.33429 0
M  V30 2124 C 199.77 -2.79096 -2.06695 0
M  V30 2125 C 198.724 -3.90548 -1.75088 0
M  V30 2126 C 198.05 -4.37821 -3.06948 0
M  V30 2127 C 199.35 -5.12356 -1.01435 0
M  V30 2128 H 201.044 -2.9783 -0.306202 0
M  V30 2129 H 198.59 -1.4326 -0.145839 0
M  V30 2130 H 200.543 -3.2082 -2.73226 0
M  V30 2131 H 199.267 -1.97223 -2.60328 0
M  V30 2132 H 197.926 -3.49409 -1.10944 0
M  V30 2133 H 197.574 -3.52799 -3.58527 0
M  V30 2134 H 197.274 -5.12982 -2.86571 0
M  V30 2135 H 198.798 -4.822 -3.74587 0
M  V30 2136 H 200.212 -5.5106 -1.58132 0
M  V30 2137 H 198.609 -5.9314 -0.911319 0
M  V30 2138 H 199.679 -4.849 -0.00218681 0
M  V30 2139 N 201.022 0.148545 -1.56898 0
M  V30 2140 C 201.952 1.18524 -2.01182 0
M  V30 2141 C 202.933 1.4489 -0.891123 0
M  V30 2142 O 204.118 1.55836 -1.15882 0
M  V30 2143 C 201.248 2.51879 -2.39112 0
M  V30 2144 C 200.202 2.40038 -3.54353 0
M  V30 2145 C 199.528 3.78089 -3.78091 0
M  V30 2146 C 200.828 1.88577 -4.87069 0
M  V30 2147 H 202.522 0.817029 -2.88036 0
M  V30 2148 H 200.068 0.391575 -1.38574 0
M  V30 2149 H 202.021 3.24627 -2.68692 0
M  V30 2150 H 200.745 2.90532 -1.49193 0
M  V30 2151 H 199.404 1.69742 -3.24936 0
M  V30 2152 H 199.052 4.14175 -2.85426 0
M  V30 2153 H 198.752 3.71028 -4.55645 0
M  V30 2154 H 200.276 4.52387 -4.10095 0
M  V30 2155 H 201.69 2.51117 -5.15377 0
M  V30 2156 H 200.087 1.9241 -5.68417 0
M  V30 2157 H 201.157 0.84136 -4.77545 0
M  V30 2158 N 202.5 1.5196 0.417844 0
M  V30 2159 C 203.916 1.40569 0.755816 0
M  V30 2160 C 204.116 0.503316 1.95113 0
M  V30 2161 O 203.172 -0.0341925 2.52477 0
M  V30 2162 C 204.485 2.82947 1.01791 0
M  V30 2163 C 206.033 2.92231 1.12116 0
M  V30 2164 C 206.508 4.35559 1.41608 0
M  V30 2165 N 207.999 4.38753 1.48491 0
M  V30 2166 C 208.734 5.46705 1.7292 0
M  V30 2167 N 208.23 6.64788 1.95011 0
M  V30 2168 N 210.023 5.34209 1.74863 0
M  V30 2169 H 202.174 2.09168 -0.369098 0
M  V30 2170 H 204.437 0.942409 -0.102809 0
M  V30 2171 H 204.143 3.5106 0.212081 0
M  V30 2172 H 204.017 3.23462 1.94042 0
M  V30 2173 H 206.404 2.24304 1.9176 0
M  V30 2174 H 206.485 2.55185 0.177225 0
M  V30 2175 H 206.129 5.04042 0.624848 0
M  V30 2176 H 206.059 4.70133 2.37239 0
M  V30 2177 H 208.55 3.5363 1.33244 0
M  V30 2178 H 208.863 7.42845 2.13076 0
M  V30 2179 H 207.208 6.67869 1.92293 0
M  V30 2180 H 210.399 4.40937 1.57137 0
M  V30 2181 H 210.572 6.18415 1.93563 0
M  V30 2182 N 203.978 -0.674533 1.42435 0
M  V30 2183 C 205.389 -1.25514 1.38214 0
M  V30 2184 C 205.74 -1.96055 0.0755464 0
M  V30 2185 O 204.865 -2.00028 -0.8257 0
M  V30 2186 C 205.46 -2.28269 2.50357 0
M  V30 2187 C 204.019 -2.81856 2.49467 0
M  V30 2188 C 203.166 -1.56182 2.29134 0
M  V30 2189 H 206.117 -0.467902 1.51646 0
M  V30 2190 H 206.138 -3.10009 2.20624 0
M  V30 2191 H 205.65 -1.769 3.45439 0
M  V30 2192 H 203.751 -3.37346 1.58204 0
M  V30 2193 H 203.864 -3.30854 3.46515 0
M  V30 2194 H 202.228 -1.82761 1.774 0
M  V30 2195 H 203.011 -1.06778 3.26272 0
M  V30 2196 N 205.456 -1.28612 -0.910864 0
M  V30 2197 C 206.419 -1.12803 -1.9952 0
M  V30 2198 C 207.419 -0.0668264 -1.60661 0
M  V30 2199 O 208.609 -0.312847 -1.71368 0
M  V30 2200 C 205.741 -0.72254 -3.33155 0
M  V30 2201 H 206.934 -2.09109 -2.14973 0
M  V30 2202 H 204.487 -1.11639 -1.09391 0
M  V30 2203 H 205.222 0.241152 -3.23402 0
M  V30 2204 H 205.007 -1.48916 -3.62721 0
M  V30 2205 H 206.497 -0.634666 -4.12749 0
M  V30 2206 N 206.934 1.1197 -1.10907 0
M  V30 2207 C 208.159 1.87942 -0.877064 0
M  V30 2208 C 208.584 1.79341 0.567314 0
M  V30 2209 O 207.942 1.15184 1.40009 0
M  V30 2210 C 207.99 3.34926 -1.33629 0
M  V30 2211 O 207.094 4.09303 -0.504447 0
M  V30 2212 H 206.435 0.583785 -0.316371 0
M  V30 2213 H 208.965 1.4157 -1.47712 0
M  V30 2214 H 208.975 3.8577 -1.32837 0
M  V30 2215 H 207.65 3.40504 -2.3881 0
M  V30 2216 H 206.227 3.68393 -0.577993 0
M  V30 2217 N 208.412 0.89855 1.29475 0
M  V30 2218 C 209.345 0.319981 2.25945 0
M  V30 2219 C 210.323 -0.567189 1.52387 0
M  V30 2220 O 211.507 -0.514254 1.8135 0
M  V30 2221 C 208.634 -0.544013 3.34303 0
M  V30 2222 C 207.68 0.275682 4.25608 0
M  V30 2223 S 208.513 1.67272 5.08704 0
M  V30 2224 C 209.669 0.815621 6.20563 0
M  V30 2225 H 209.902 1.13767 2.74671 0
M  V30 2226 H 207.435 0.69882 1.3768 0
M  V30 2227 H 209.393 -1.03673 3.97193 0
M  V30 2228 H 208.054 -1.33593 2.84274 0
M  V30 2229 H 207.247 -0.384263 5.02533 0
M  V30 2230 H 206.849 0.701496 3.67362 0
M  V30 2231 H 209.141 0.0385042 6.77489 0
M  V30 2232 H 210.084 1.55691 6.90772 0
M  V30 2233 H 210.492 0.370516 5.63283 0
M  V30 2234 N 209.89 -1.43072 0.660911 0
M  V30 2235 C 211.137 -2.01721 0.177445 0
M  V30 2236 C 211.465 -1.5218 -1.21126 0
M  V30 2237 O 210.72 -0.708659 -1.82419 0
M  V30 2238 C 211.019 -3.57103 0.145563 0
M  V30 2239 C 210.685 -4.26021 1.47705 0
M  V30 2240 C 209.347 -4.44563 1.84165 0
M  V30 2241 C 211.699 -4.64983 2.35458 0
M  V30 2242 C 209.027 -4.99334 3.0803 0
M  V30 2243 C 211.379 -5.21127 3.58622 0
M  V30 2244 C 210.043 -5.37884 3.95268 0
M  V30 2245 H 209.313 -0.73815 0.0649317 0
M  V30 2246 H 211.96 -1.71446 0.853144 0
M  V30 2247 H 210.265 -3.86965 -0.61361 0
M  V30 2248 H 211.962 -4.00248 -0.2455 0
M  V30 2249 H 208.552 -4.11939 1.18339 0
M  V30 2250 H 212.736 -4.50343 2.08579 0
M  V30 2251 H 207.992 -5.10493 3.36462 0
M  V30 2252 H 212.166 -5.50262 4.26831 0
M  V30 2253 H 209.793 -5.80089 4.91325 0
M  V30 2254 N 211.368 -0.403325 -1.52352 0
M  V30 2255 C 212.598 0.17376 -2.05868 0
M  V30 2256 C 213.006 1.39898 -1.27378 0
M  V30 2257 O 212.349 1.80939 -0.31729 0
M  V30 2258 C 212.411 0.594756 -3.54546 0
M  V30 2259 C 212.075 -0.518926 -4.54044 0
M  V30 2260 C 213.072 -1.3807 -5.01231 0
M  V30 2261 C 210.757 -0.689961 -4.97539 0
M  V30 2262 C 212.751 -2.39852 -5.90551 0
M  V30 2263 C 210.438 -1.71109 -5.86656 0
M  V30 2264 C 211.436 -2.56378 -6.33056 0
M  V30 2265 O 211.124 -3.56743 -7.20409 0
M  V30 2266 H 210.856 0.0264951 -0.675481 0
M  V30 2267 H 213.41 -0.571179 -1.97299 0
M  V30 2268 H 211.64 1.39189 -3.60782 0
M  V30 2269 H 213.329 1.0991 -3.90736 0
M  V30 2270 H 214.095 -1.25994 -4.68349 0
M  V30 2271 H 209.974 -0.035939 -4.60986 0
M  V30 2272 H 213.518 -3.06441 -6.26689 0
M  V30 2273 H 209.415 -1.83218 -6.18952 0
M  V30 2274 H 210.183 -3.52918 -7.38506 0
M  V30 2275 N 212.846 1.57033 -0.133567 0
M  V30 2276 C 213.809 2.14897 0.796995 0
M  V30 2277 C 214.809 1.0874 1.18458 0
M  V30 2278 O 215.999 1.34446 1.1077 0
M  V30 2279 C 213.131 2.70112 2.07973 0
M  V30 2280 H 214.324 2.98457 0.293873 0
M  V30 2281 H 211.877 1.55871 0.115787 0
M  V30 2282 H 212.612 1.9018 2.62682 0
M  V30 2283 H 212.397 3.47764 1.81115 0
M  V30 2284 H 213.887 3.14738 2.74462 0
M  V30 2285 N 214.325 -0.140222 1.56975 0
M  V30 2286 C 215.572 -0.851687 1.83719 0
M  V30 2287 C 215.9 -1.80862 0.715485 0
M  V30 2288 O 215.155 -1.93464 -0.294956 0
M  V30 2289 C 215.454 -1.65386 3.16832 0
M  V30 2290 C 215.12 -0.843112 4.42947 0
M  V30 2291 C 213.782 -0.619464 4.77196 0
M  V30 2292 C 216.134 -0.276582 5.20466 0
M  V30 2293 C 213.462 0.181312 5.8642 0
M  V30 2294 C 215.814 0.51127 6.30531 0
M  V30 2295 C 214.478 0.745432 6.63325 0
M  V30 2296 H 213.748 -0.311654 0.672274 0
M  V30 2297 H 216.395 -0.115006 1.91154 0
M  V30 2298 H 214.7 -2.46084 3.04877 0
M  V30 2299 H 216.397 -2.20793 3.34741 0
M  V30 2300 H 212.987 -1.0275 4.16101 0
M  V30 2301 H 217.171 -0.436632 4.94376 0
M  V30 2302 H 212.427 0.372165 6.10266 0
M  V30 2303 H 216.601 0.957354 6.89788 0
M  V30 2304 H 214.228 1.36778 7.47794 0
M  V30 2305 N 215.803 -1.52179 -0.40978 0
M  V30 2306 C 216.766 -1.74853 -1.48186 0
M  V30 2307 C 217.766 -0.618417 -1.48433 0
M  V30 2308 O 218.956 -0.886286 -1.49969 0
M  V30 2309 C 216.088 -1.8303 -2.87598 0
M  V30 2310 H 217.281 -2.70559 -1.29374 0
M  V30 2311 H 214.834 -1.42586 -0.640233 0
M  V30 2312 H 215.569 -0.89236 -3.11781 0
M  V30 2313 H 215.354 -2.65187 -2.88822 0
M  V30 2314 H 216.844 -2.02316 -3.65319 0
M  V30 2315 N 217.281 0.66697 -1.42791 0
M  V30 2316 C 218.529 1.42417 -1.43394 0
M  V30 2317 C 218.85 1.94925 -0.0542373 0
M  V30 2318 O 218.12 1.73564 0.908415 0
M  V30 2319 H 216.7 0.528515 -0.527902 0
M  V30 2320 H 219.362 0.787562 -1.78279 0
M  V30 2321 H 218.458 2.27333 -2.13837 0
M  V30 2322 N 218.759 1.29093 0.90403 0
M  V30 2323 C 219.689 1.16401 2.02418 0
M  V30 2324 C 220.67 0.0593085 1.69997 0
M  V30 2325 O 221.855 0.238021 1.92736 0
M  V30 2326 C 218.985 0.835233 3.37107 0
M  V30 2327 C 217.939 1.89578 3.83724 0
M  V30 2328 C 217.265 1.42041 5.15489 0
M  V30 2329 C 218.565 3.30394 4.04521 0
M  V30 2330 H 220.259 2.10109 2.13295 0
M  V30 2331 H 217.805 1.01157 1.02486 0
M  V30 2332 H 219.758 0.733169 4.14973 0
M  V30 2333 H 218.482 -0.137543 3.2631 0
M  V30 2334 H 217.141 1.98715 3.08071 0
M  V30 2335 H 216.789 0.436426 5.01103 0
M  V30 2336 H 216.489 2.12964 5.4765 0
M  V30 2337 H 218.013 1.33176 5.959 0
M  V30 2338 H 219.427 3.24123 4.72882 0
M  V30 2339 H 217.824 3.99237 4.48029 0
M  V30 2340 H 218.894 3.73692 3.09002 0
M  V30 2341 N 220.237 -1.11381 1.11499 0
M  V30 2342 C 221.477 -1.84763 0.874188 0
M  V30 2343 C 221.841 -1.82726 -0.589496 0
M  V30 2344 O 223.042 -2.51562 -0.947089 0
M  V30 2345 C 221.313 -3.27931 1.42112 0
M  V30 2346 S 222.872 -4.18557 1.31739 0
M  V30 2347 H 219.69 -0.637115 0.315603 0
M  V30 2348 H 222.292 -1.34097 1.42261 0
M  V30 2349 H 220.996 -3.26978 2.48019 0
M  V30 2350 H 220.527 -3.83665 0.869761 0
M  V30 2351 H 222.542 -4.95396 0.282335 0
M  V30 2352 N 221.715 -0.905404 -1.28997 0
M  V30 2353 C 222.964 -0.530191 -1.94607 0
M  V30 2354 C 223.277 0.929185 -1.72121 0
M  V30 2355 O 224.483 1.41218 -2.31883 0
M  V30 2356 C 222.939 -0.897333 -3.48534 0
M  V30 2357 C 222.547 -2.37587 -3.79811 0
M  V30 2358 C 224.291 -0.592304 -4.20347 0
M  V30 2359 C 222.198 -2.68357 -5.27009 0
M  V30 2360 H 221.128 -0.194558 -0.728466 0
M  V30 2361 H 223.779 -1.10318 -1.46636 0
M  V30 2362 H 222.161 -0.253214 -3.9519 0
M  V30 2363 H 223.335 -3.06602 -3.43994 0
M  V30 2364 H 221.65 -2.6505 -3.2115 0
M  V30 2365 H 224.247 -0.798975 -5.28697 0
M  V30 2366 H 224.59 0.469474 -4.13644 0
M  V30 2367 H 225.123 -1.19452 -3.79442 0
M  V30 2368 H 221.862 -3.73355 -5.38782 0
M  V30 2369 H 221.382 -2.03971 -5.64053 0
M  V30 2370 H 223.061 -2.54922 -5.94663 0
M  V30 2371 N 223.193 1.4272 -0.668489 0
M  V30 2372 C 224.123 2.335 -0.000100175 0
M  V30 2373 C 225.104 1.50328 0.795964 0
M  V30 2374 O 226.289 1.78949 0.754385 0
M  V30 2375 C 223.419 3.33874 0.956302 0
M  V30 2376 C 222.373 4.27152 0.269278 0
M  V30 2377 C 221.699 5.17684 1.33818 0
M  V30 2378 C 222.999 5.15373 -0.847805 0
M  V30 2379 H 224.693 2.89639 -0.758244 0
M  V30 2380 H 222.239 1.39269 -0.366079 0
M  V30 2381 H 224.192 3.9629 1.43292 0
M  V30 2382 H 222.916 2.76025 1.74579 0
M  V30 2383 H 221.575 3.66123 -0.187042 0
M  V30 2384 H 221.223 4.56165 2.1195 0
M  V30 2385 H 220.923 5.80918 0.883659 0
M  V30 2386 H 222.447 5.82974 1.81586 0
M  V30 2387 H 223.861 5.7151 -0.452681 0
M  V30 2388 H 222.258 5.87407 -1.22773 0
M  V30 2389 H 223.328 4.5415 -1.69929 0
M  V30 2390 N 224.671 0.411399 1.52136 0
M  V30 2391 C 225.917 -0.163888 2.02137 0
M  V30 2392 C 226.25 -1.44597 1.29636 0
M  V30 2393 O 225.525 -1.90272 0.403353 0
M  V30 2394 C 225.808 -0.40927 3.57767 0
M  V30 2395 C 225.661 0.889643 4.40914 0
M  V30 2396 C 226.98 -1.19042 4.23694 0
M  V30 2397 H 224.099 -0.0580896 0.734707 0
M  V30 2398 H 226.741 0.54531 1.82007 0
M  V30 2399 H 224.891 -1.0134 3.7505 0
M  V30 2400 H 226.563 1.52575 4.35337 0
M  V30 2401 H 224.806 1.50011 4.07037 0
M  V30 2402 H 225.477 0.672314 5.4789 0
M  V30 2403 H 227.953 -0.678942 4.10524 0
M  V30 2404 H 226.829 -1.33086 5.32522 0
M  V30 2405 H 227.09 -2.21166 3.82803 0
M  V30 2406 N 226.149 -1.5696 0.141893 0
M  V30 2407 C 227.374 -2.00754 -0.520838 0
M  V30 2408 C 227.799 -1.0213 -1.57959 0
M  V30 2409 O 227.157 0.00371324 -1.813 0
M  V30 2410 C 227.205 -3.43318 -1.10294 0
M  V30 2411 O 226.309 -3.47679 -2.21795 0
M  V30 2412 H 225.65 -0.651564 -0.127908 0
M  V30 2413 H 228.18 -2.03221 0.23712 0
M  V30 2414 H 228.19 -3.82012 -1.43287 0
M  V30 2415 H 226.865 -4.14608 -0.327574 0
M  V30 2416 H 225.442 -3.20824 -1.9007 0
M  V30 2417 N 227.627 0.131896 -1.57047 0
M  V30 2418 C 228.873 0.843179 -1.84441 0
M  V30 2419 C 229.206 1.80129 -0.725749 0
M  V30 2420 O 228.481 1.92624 0.269469 0
M  V30 2421 C 228.764 1.60442 -3.22382 0
M  V30 2422 C 228.617 0.666782 -4.4483 0
M  V30 2423 C 229.936 2.56354 -3.5773 0
M  V30 2424 H 227.055 0.305081 -0.670891 0
M  V30 2425 H 229.697 0.107839 -1.89694 0
M  V30 2426 H 227.847 2.23128 -3.18035 0
M  V30 2427 H 229.519 0.0497646 -4.61273 0
M  V30 2428 H 227.762 -0.022609 -4.33794 0
M  V30 2429 H 228.433 1.23579 -5.37989 0
M  V30 2430 H 230.909 2.0378 -3.62785 0
M  V30 2431 H 229.785 3.06657 -4.5525 0
M  V30 2432 H 230.046 3.38419 -2.84473 0
M  V30 2433 N 229.106 1.52395 0.401703 0
M  V30 2434 C 230.016 1.7917 1.51444 0
M  V30 2435 C 231.032 0.677691 1.6026 0
M  V30 2436 O 232.208 0.963909 1.76835 0
M  V30 2437 C 229.273 1.94347 2.87107 0
M  V30 2438 C 228.334 3.18257 2.88116 0
M  V30 2439 C 227.567 3.32701 4.17308 0
M  V30 2440 O 227.79 2.52238 5.11598 0
M  V30 2441 O 226.724 4.25891 4.25324 0
M  V30 2442 H 230.55 2.73633 1.31752 0
M  V30 2443 H 228.135 1.3733 0.588296 0
M  V30 2444 H 230.017 2.06109 3.67555 0
M  V30 2445 H 228.692 1.03073 3.06851 0
M  V30 2446 H 227.599 3.11947 2.06494 0
M  V30 2447 H 228.932 4.09336 2.73322 0
M  V30 2448 N 230.584 -0.659388 1.43143 0
M  V30 2449 C 231.83 -1.42145 1.44647 0
M  V30 2450 C 232.163 -1.9408 0.0681907 0
M  V30 2451 O 231.438 -1.71899 -0.910007 0
M  V30 2452 C 231.721 -2.60735 2.48373 0
M  V30 2453 C 231.574 -2.14332 3.95451 0
M  V30 2454 C 232.893 -3.62951 2.48906 0
M  V30 2455 H 230.012 -0.51552 0.526696 0
M  V30 2456 H 232.654 -0.748069 1.74654 0
M  V30 2457 H 230.804 -3.18184 2.22916 0
M  V30 2458 H 232.476 -1.61932 4.31944 0
M  V30 2459 H 230.719 -1.4576 4.08578 0
M  V30 2460 H 231.39 -2.99583 4.63631 0
M  V30 2461 H 233.866 -3.1525 2.71582 0
M  V30 2462 H 232.742 -4.43487 3.23435 0
M  V30 2463 H 233.003 -4.15126 1.52061 0
M  V30 2464 N 232.062 -1.29571 -0.897171 0
M  V30 2465 C 232.995 -1.0924 -2.00354 0
M  V30 2466 C 233.973 -0.00354011 -1.626 0
M  V30 2467 O 235.157 -0.15473 -1.87864 0
M  V30 2468 C 232.284 -0.66352 -3.32137 0
M  V30 2469 C 231.33 -1.75146 -3.88878 0
M  V30 2470 S 232.163 -3.35124 -4.17674 0
M  V30 2471 C 233.319 -2.9411 -5.52494 0
M  V30 2472 H 233.552 -2.02907 -2.17292 0
M  V30 2473 H 231.085 -1.13746 -1.04408 0
M  V30 2474 H 233.043 -0.422791 -4.08317 0
M  V30 2475 H 231.704 0.253588 -3.13075 0
M  V30 2476 H 230.897 -1.40337 -4.84068 0
M  V30 2477 H 230.499 -1.94584 -3.19395 0
M  V30 2478 H 232.791 -2.41312 -6.33068 0
M  V30 2479 H 233.734 -3.88161 -5.9223 0
M  V30 2480 H 234.142 -2.32332 -5.14473 0
M  V30 2481 N 233.54 1.10788 -1.12088 0
M  V30 2482 C 234.956 1.34691 -0.856186 0
M  V30 2483 C 235.156 1.94791 0.515615 0
M  V30 2484 O 234.212 2.18524 1.26505 0
M  V30 2485 C 235.525 2.27208 -1.9697 0
M  V30 2486 C 237.073 2.40755 -2.00016 0
M  V30 2487 C 237.548 3.36598 -3.1059 0
M  V30 2488 N 239.039 3.44164 -3.10008 0
M  V30 2489 C 239.774 4.18284 -3.92206 0
M  V30 2490 N 239.27 4.95322 -4.84384 0
M  V30 2491 N 241.063 4.13865 -3.80357 0
M  V30 2492 H 233.214 0.70144 -2.00483 0
M  V30 2493 H 235.477 0.371405 -0.872217 0
M  V30 2494 H 235.183 1.90251 -2.958 0
M  V30 2495 H 235.057 3.27485 -1.87172 0
M  V30 2496 H 237.444 2.76982 -1.01808 0
M  V30 2497 H 237.525 1.40305 -2.13888 0
M  V30 2498 H 237.169 3.01096 -4.09028 0
M  V30 2499 H 237.099 4.36918 -2.93956 0
M  V30 2500 H 239.59 2.8922 -2.43228 0
M  V30 2501 H 239.903 5.49267 -5.43623 0
M  V30 2502 H 238.248 4.94459 -4.884 0
M  V30 2503 H 241.439 3.52773 -3.07683 0
M  V30 2504 H 241.612 4.71372 -4.44649 0
M  V30 2505 N 235.018 0.912232 1.28515 0
M  V30 2506 C 235.95 0.35676 2.26406 0
M  V30 2507 C 236.963 -0.503933 1.54804 0
M  V30 2508 O 238.152 -0.319059 1.75625 0
M  V30 2509 C 235.252 -0.508825 3.35058 0
M  V30 2510 C 234.425 0.329007 4.36161 0
M  V30 2511 C 233.484 -0.471422 5.24084 0
M  V30 2512 O 232.51 0.115482 5.69083 0
M  V30 2513 N 233.712 -1.77479 5.52704 0
M  V30 2514 H 236.477 1.19818 2.74707 0
M  V30 2515 H 234.038 0.778022 1.4198 0
M  V30 2516 H 236.03 -1.051 3.90815 0
M  V30 2517 H 234.6 -1.25095 2.86478 0
M  V30 2518 H 233.82 1.05256 3.79888 0
M  V30 2519 H 235.108 0.90234 5.00735 0
M  V30 2520 H 234.506 -2.27417 5.17975 0
M  V30 2521 H 233.063 -2.26382 6.11224 0
M  V30 2522 N 236.496 -1.42363 0.676048 0
M  V30 2523 C 237.721 -2.06377 0.205705 0
M  V30 2524 C 238.146 -1.50463 -1.12883 0
M  V30 2525 O 237.504 -0.623619 -1.70237 0
M  V30 2526 C 237.552 -3.60277 0.152655 0
M  V30 2527 O 236.656 -4.02935 -0.87845 0
M  V30 2528 H 235.997 -0.655588 0.105359 0
M  V30 2529 H 238.527 -1.82475 0.925412 0
M  V30 2530 H 238.537 -4.07993 -0.0230675 0
M  V30 2531 H 237.212 -4.00346 1.12675 0
M  V30 2532 H 235.789 -3.66764 -0.673668 0
M  V30 2533 N 237.974 -0.419461 -1.51915 0
M  V30 2534 C 239.22 0.153166 -2.02221 0
M  V30 2535 C 239.553 1.43907 -1.30401 0
M  V30 2536 O 238.828 1.90055 -0.413438 0
M  V30 2537 C 239.111 0.390291 -3.57979 0
M  V30 2538 C 238.964 -0.913014 -4.40436 0
M  V30 2539 C 240.283 1.16794 -4.2432 0
M  V30 2540 H 237.402 0.0541924 -0.735005 0
M  V30 2541 H 240.044 -0.554955 -1.81715 0
M  V30 2542 H 238.194 0.993491 -3.75582 0
M  V30 2543 H 239.866 -1.54882 -4.34522 0
M  V30 2544 H 238.109 -1.52168 -4.06236 0
M  V30 2545 H 238.78 -0.701361 -5.47526 0
M  V30 2546 H 241.256 0.657161 -4.10878 0
M  V30 2547 H 240.132 1.3026 -5.3322 0
M  V30 2548 H 240.393 2.19132 -3.83971 0
M  V30 2549 N 239.452 1.56882 -0.150215 0
M  V30 2550 C 240.399 2.16922 0.788244 0
M  V30 2551 C 241.369 1.10303 1.24187 0
M  V30 2552 O 242.554 1.38359 1.31383 0
M  V30 2553 C 239.694 2.79754 2.02068 0
M  V30 2554 C 238.807 4.00775 1.61257 0
M  V30 2555 C 237.942 4.51595 2.79705 0
M  V30 2556 C 236.981 5.65074 2.35282 0
M  V30 2557 N 236.118 6.10499 3.4675 0
M  V30 2558 H 240.958 2.96779 0.269444 0
M  V30 2559 H 238.495 1.46599 0.12128 0
M  V30 2560 H 240.453 3.14329 2.74323 0
M  V30 2561 H 239.083 2.02536 2.51354 0
M  V30 2562 H 238.135 3.72158 0.787553 0
M  V30 2563 H 239.447 4.82978 1.24633 0
M  V30 2564 H 238.601 4.88242 3.60145 0
M  V30 2565 H 237.34 3.68406 3.19576 0
M  V30 2566 H 236.345 5.28 1.53283 0
M  V30 2567 H 237.57 6.50052 1.96493 0
M  V30 2568 H 235.516 5.30243 3.86236 0
M  V30 2569 H 235.433 6.87637 3.14152 0
M  V30 2570 H 236.701 6.51791 4.27537 0
M  V30 2571 N 240.93 -0.123565 1.57115 0
M  V30 2572 C 242.346 -0.476961 1.52306 0
M  V30 2573 C 242.546 -1.82109 0.86248 0
M  V30 2574 O 241.602 -2.48586 0.442884 0
M  V30 2575 C 242.915 -0.465661 2.97073 0
M  V30 2576 C 244.463 -0.549534 3.08138 0
M  V30 2577 C 244.938 -0.568669 4.54456 0
M  V30 2578 N 246.429 -0.630237 4.58892 0
M  V30 2579 C 247.164 -0.666415 5.69514 0
M  V30 2580 N 246.66 -0.660514 6.89644 0
M  V30 2581 N 248.453 -0.709077 5.5761 0
M  V30 2582 H 240.604 0.757198 1.98445 0
M  V30 2583 H 242.867 0.278808 0.906074 0
M  V30 2584 H 242.573 0.454232 3.48754 0
M  V30 2585 H 242.447 -1.29513 3.54269 0
M  V30 2586 H 244.834 -1.45985 2.56461 0
M  V30 2587 H 244.915 0.307532 2.53945 0
M  V30 2588 H 244.559 0.337581 5.06777 0
M  V30 2589 H 244.489 -1.44256 5.06456 0
M  V30 2590 H 246.98 -0.641146 3.72421 0
M  V30 2591 H 247.293 -0.690616 7.69708 0
M  V30 2592 H 245.638 -0.628012 6.92157 0
M  V30 2593 H 248.829 -0.711019 4.62668 0
M  V30 2594 H 249.002 -0.733804 6.43832 0
M  V30 2595 N 242.408 -1.52605 -0.393616 0
M  V30 2596 C 243.341 -1.71798 -1.50202 0
M  V30 2597 C 244.319 -0.565743 -1.52441 0
M  V30 2598 O 245.503 -0.794987 -1.70916 0
M  V30 2599 C 242.63 -1.7714 -2.88685 0
M  V30 2600 C 241.676 -2.98845 -3.04292 0
M  V30 2601 S 242.509 -4.58909 -2.75976 0
M  V30 2602 C 243.665 -4.6706 -4.1666 0
M  V30 2603 H 243.898 -2.65542 -1.33696 0
M  V30 2604 H 241.431 -1.42839 -0.586195 0
M  V30 2605 H 243.389 -1.80903 -3.68489 0
M  V30 2606 H 242.05 -0.844969 -3.02521 0
M  V30 2607 H 241.243 -2.99111 -4.05646 0
M  V30 2608 H 240.845 -2.9305 -2.32374 0
M  V30 2609 H 243.137 -4.45391 -5.10523 0
M  V30 2610 H 244.08 -5.6905 -4.21412 0
M  V30 2611 H 244.488 -3.95944 -4.02354 0
M  V30 2612 N 243.887 0.651787 -1.4349 0
M  V30 2613 C 245.136 1.40754 -1.44469 0
M  V30 2614 C 245.449 1.95463 -0.0731845 0
M  V30 2615 O 246.655 2.71471 0.0395721 0
M  V30 2616 C 245.111 2.54735 -2.5424 0
M  V30 2617 C 244.719 2.06628 -3.97504 0
M  V30 2618 C 246.463 3.32092 -2.64414 0
M  V30 2619 C 244.37 3.17829 -4.98737 0
M  V30 2620 H 243.3 0.528862 -0.53742 0
M  V30 2621 H 245.951 0.703365 -1.69485 0
M  V30 2622 H 244.333 3.2763 -2.22428 0
M  V30 2623 H 245.507 1.40734 -4.38783 0
M  V30 2624 H 243.822 1.42146 -3.91387 0
M  V30 2625 H 246.419 4.14952 -3.37223 0
M  V30 2626 H 246.762 3.80217 -1.69532 0
M  V30 2627 H 247.295 2.66279 -2.95534 0
M  V30 2628 H 244.034 2.74671 -5.95177 0
M  V30 2629 H 243.554 3.82429 -4.62069 0
M  V30 2630 H 245.233 3.82937 -5.21505 0
M  V30 2631 N 245.365 1.30045 0.890287 0
M  V30 2632 C 246.642 1.09227 1.62262 0
M  V30 2633 C 247.022 -0.360305 2.08002 0
M  V30 2634 O 246.37 -1.35084 1.84295 0
M  V30 2635 C 246.58 2.08835 2.79623 0
M  V30 2636 C 247.928 2.40266 3.50082 0
M  V30 2637 O 248.952 2.07104 2.89804 0
M  V30 2638 O 247.811 2.96967 4.58773 0
M  V30 2639 H 244.905 0.419132 0.712922 0
M  V30 2640 H 247.451 1.41451 0.937529 0
M  V30 2641 H 246.223 3.06633 2.43089 0
M  V30 2642 H 245.846 1.77397 3.55832 0
M  V30 2643 N 246.843 -1.10192 1.12674 0
M  V30 2644 C 248.068 -1.86523 0.906853 0
M  V30 2645 C 248.493 -1.80221 -0.538711 0
M  V30 2646 O 247.851 -1.17396 -1.38158 0
M  V30 2647 C 247.899 -3.32758 1.3894 0
M  V30 2648 O 247.003 -4.08449 0.5695 0
M  V30 2649 H 246.344 -0.578678 0.325619 0
M  V30 2650 H 248.874 -1.39203 1.49946 0
M  V30 2651 H 248.884 -3.83608 1.38958 0
M  V30 2652 H 247.559 -3.36661 2.44197 0
M  V30 2653 H 246.136 -3.67427 0.636528 0
M  V30 2654 N 248.321 -0.919034 -1.28029 0
M  V30 2655 C 249.231 -0.416756 -2.30869 0
M  V30 2656 C 250.247 0.498235 -1.66714 0
M  V30 2657 O 251.423 0.383144 -1.97722 0
M  V30 2658 C 248.488 0.330274 -3.45123 0
M  V30 2659 C 247.549 -0.618578 -4.2482 0
M  V30 2660 C 246.782 0.0928959 -5.33619 0
M  V30 2661 O 247.005 1.31375 -5.55065 0
M  V30 2662 O 245.939 -0.574499 -5.99152 0
M  V30 2663 H 249.765 -1.27043 -2.75851 0
M  V30 2664 H 247.35 -0.684052 -1.3282 0
M  V30 2665 H 249.232 0.751972 -4.14636 0
M  V30 2666 H 247.907 1.1597 -3.02213 0
M  V30 2667 H 246.814 -1.08978 -3.57875 0
M  V30 2668 H 248.147 -1.41497 -4.71423 0
M  V30 2669 N 249.799 1.42003 -0.683588 0
M  V30 2670 C 251.076 1.95112 -0.138075 0
M  V30 2671 C 251.456 1.62359 1.34918 0
M  V30 2672 O 250.804 0.924311 2.08971 0
M  V30 2673 C 251.014 3.46505 -0.416581 0
M  V30 2674 C 252.362 4.23254 -0.337834 0
M  V30 2675 O 253.386 3.54468 -0.35082 0
M  V30 2676 O 252.245 5.45743 -0.287596 0
M  V30 2677 H 249.339 0.826961 -0.00797996 0
M  V30 2678 H 251.885 1.51784 -0.758924 0
M  V30 2679 H 250.657 3.63582 -1.4465 0
M  V30 2680 H 250.28 3.969 0.235839 0
M  V30 2681 N 251.277 0.427512 1.51691 0
M  V30 2682 C 252.505 -0.141191 2.06418 0
M  V30 2683 C 252.92 -1.37303 1.29589 0
M  V30 2684 O 252.277 -1.79059 0.352732 0
M  V30 2685 C 252.328 -0.473266 3.58389 0
M  V30 2686 O 252.049 0.709673 4.32314 0
M  V30 2687 C 253.55 -1.09371 4.29596 0
M  V30 2688 H 250.77 -0.0122747 0.670888 0
M  V30 2689 H 253.314 0.603764 1.95384 0
M  V30 2690 H 251.469 -1.16812 3.69369 0
M  V30 2691 H 251.883 0.42807 5.2275 0
M  V30 2692 H 253.357 -1.27613 5.37046 0
M  V30 2693 H 253.834 -2.072 3.87253 0
M  V30 2694 H 254.44 -0.43853 4.23033 0
M  V30 2695 N 252.755 -1.56801 0.158532 0
M  V30 2696 C 254.001 -1.96781 -0.490405 0
M  V30 2697 C 254.334 -1.04397 -1.63753 0
M  V30 2698 O 253.609 -0.0885805 -1.94298 0
M  V30 2699 C 253.892 -3.4635 -0.985594 0
M  V30 2700 C 253.745 -4.49512 0.160824 0
M  V30 2701 C 255.064 -3.98697 -1.86355 0
M  V30 2702 H 252.183 -0.715482 -0.176788 0
M  V30 2703 H 254.825 -1.88451 0.242088 0
M  V30 2704 H 252.975 -3.53579 -1.60978 0
M  V30 2705 H 254.647 -4.54353 0.797537 0
M  V30 2706 H 252.89 -4.26013 0.818256 0
M  V30 2707 H 253.561 -5.51531 -0.227569 0
M  V30 2708 H 256.037 -3.94019 -1.33746 0
M  V30 2709 H 254.913 -5.03792 -2.17909 0
M  V30 2710 H 255.174 -3.41744 -2.8047 0
M  V30 2711 N 254.233 0.115231 -1.57178 0
M  V30 2712 C 255.479 0.818565 -1.86202 0
M  V30 2713 C 255.834 1.77316 -0.746785 0
M  V30 2714 O 255.127 1.89923 0.25291 0
M  V30 2715 C 255.321 1.60324 -3.19423 0
M  V30 2716 C 255.15 0.726138 -4.43799 0
M  V30 2717 C 253.92 0.379535 -5.03873 0
M  V30 2718 C 256.118 0.0420774 -5.14283 0
M  V30 2719 N 254.1 -0.507841 -6.11796 0
M  V30 2720 C 255.471 -0.704152 -6.15988 0
M  V30 2721 C 257.526 -0.0339486 -4.97888 0
M  V30 2722 C 256.229 -1.51927 -7.03072 0
M  V30 2723 C 258.255 -0.835906 -5.85463 0
M  V30 2724 C 257.617 -1.57031 -6.86673 0
M  V30 2725 H 253.716 0.276343 -0.731545 0
M  V30 2726 H 256.3 0.0821032 -1.94527 0
M  V30 2727 H 254.471 2.31072 -3.12186 0
M  V30 2728 H 256.203 2.2522 -3.36241 0
M  V30 2729 H 252.958 0.722634 -4.68054 0
M  V30 2730 H 253.382 -0.94349 -6.70393 0
M  V30 2731 H 258.024 0.519496 -4.19596 0
M  V30 2732 H 255.742 -2.08386 -7.80769 0
M  V30 2733 H 259.328 -0.89714 -5.74841 0
M  V30 2734 H 258.208 -2.18088 -7.53264 0
M  V30 2735 N 255.711 1.52812 0.385517 0
M  V30 2736 C 256.96 1.67249 1.12741 0
M  V30 2737 C 257.273 0.4205 1.91027 0
M  V30 2738 O 258.479 0.445064 2.67827 0
M  V30 2739 C 256.935 2.95583 2.05326 0
M  V30 2740 C 256.543 4.27974 1.32447 0
M  V30 2741 C 258.287 3.19386 2.7963 0
M  V30 2742 C 256.194 5.47412 2.23818 0
M  V30 2743 H 255.124 0.6231 0.424573 0
M  V30 2744 H 257.775 1.79309 0.389924 0
M  V30 2745 H 256.157 2.77277 2.82725 0
M  V30 2746 H 257.331 4.56844 0.602495 0
M  V30 2747 H 255.646 4.10459 0.700885 0
M  V30 2748 H 258.243 4.05801 3.48181 0
M  V30 2749 H 258.586 2.34604 3.43899 0
M  V30 2750 H 259.119 3.38274 2.09322 0
M  V30 2751 H 255.858 6.34612 1.64157 0
M  V30 2752 H 255.378 5.22849 2.93921 0
M  V30 2753 H 257.057 5.81423 2.83824 0
M  V30 2754 N 257.189 -0.644168 1.43834 0
M  V30 2755 C 258.099 -1.78563 1.52159 0
M  V30 2756 C 259.115 -1.69147 0.408069 0
M  V30 2757 O 260.291 -1.90156 0.663524 0
M  V30 2758 C 257.356 -3.14888 1.45073 0
M  V30 2759 C 256.417 -3.36034 2.6717 0
M  V30 2760 C 255.65 -4.65855 2.60413 0
M  V30 2761 O 255.873 -5.45805 1.65689 0
M  V30 2762 O 254.807 -4.88918 3.5106 0
M  V30 2763 H 258.633 -1.74494 2.48567 0
M  V30 2764 H 256.218 -0.80378 1.25935 0
M  V30 2765 H 258.1 -3.96179 1.43597 0
M  V30 2766 H 256.775 -3.19528 0.518037 0
M  V30 2767 H 255.682 -2.54472 2.74217 0
M  V30 2768 H 257.015 -3.36247 3.59442 0
M  V30 2769 N 258.668 -1.30515 -0.883378 0
M  V30 2770 C 259.898 -1.22182 -1.66599 0
M  V30 2771 C 260.306 0.217507 -1.87946 0
M  V30 2772 O 259.649 1.1554 -1.42815 0
M  V30 2773 C 259.711 -1.88146 -3.06335 0
M  V30 2774 C 259.375 -3.37476 -3.08154 0
M  V30 2775 C 260.372 -4.33443 -2.87094 0
M  V30 2776 C 258.057 -3.7895 -3.29701 0
M  V30 2777 C 260.051 -5.68858 -2.8754 0
M  V30 2778 C 257.738 -5.14482 -3.29776 0
M  V30 2779 C 258.736 -6.09246 -3.0872 0
M  V30 2780 O 258.424 -7.42302 -3.08615 0
M  V30 2781 H 258.156 -0.423898 -0.52658 0
M  V30 2782 H 260.71 -1.72703 -1.11188 0
M  V30 2783 H 258.94 -1.32157 -3.63416 0
M  V30 2784 H 260.629 -1.7391 -3.66756 0
M  V30 2785 H 261.395 -4.02733 -2.70243 0
M  V30 2786 H 257.274 -3.05631 -3.45124 0
M  V30 2787 H 260.818 -6.428 -2.71024 0
M  V30 2788 H 256.715 -5.44832 -3.46163 0
M  V30 2789 H 257.483 -7.5131 -3.24769 0
M  V30 2790 N 260.146 1.09593 -1.13257 0
M  V30 2791 C 261.376 1.85231 -0.915049 0
M  V30 2792 C 261.784 1.81345 0.539498 0
M  V30 2793 O 261.127 1.20664 1.38513 0
M  V30 2794 C 261.189 3.34275 -1.3229 0
M  V30 2795 C 260.853 3.6191 -2.79052 0
M  V30 2796 C 261.85 3.57777 -3.77216 0
M  V30 2797 C 259.535 3.90309 -3.16171 0
M  V30 2798 C 261.529 3.81652 -5.1051 0
M  V30 2799 C 259.216 4.13839 -4.49644 0
M  V30 2800 C 260.214 4.09502 -5.46623 0
M  V30 2801 O 259.902 4.32426 -6.77689 0
M  V30 2802 H 259.634 0.591997 -0.326367 0
M  V30 2803 H 262.188 1.394 -1.50854 0
M  V30 2804 H 260.418 3.80805 -0.672667 0
M  V30 2805 H 262.107 3.9132 -1.07812 0
M  V30 2806 H 262.873 3.35865 -3.49885 0
M  V30 2807 H 258.752 3.92811 -2.41289 0
M  V30 2808 H 262.296 3.78182 -5.86195 0
M  V30 2809 H 258.193 4.35232 -4.767 0
M  V30 2810 H 258.961 4.49896 -6.83766 0
M  V30 2811 N 261.624 0.925811 1.2754 0
M  V30 2812 C 262.854 0.580666 1.98272 0
M  V30 2813 C 263.262 -0.845207 1.69272 0
M  V30 2814 O 262.605 -1.57306 0.948707 0
M  V30 2815 C 262.667 0.724418 3.52126 0
M  V30 2816 C 262.331 2.12206 4.04744 0
M  V30 2817 C 263.328 3.09604 4.17662 0
M  V30 2818 C 261.013 2.4385 4.39138 0
M  V30 2819 C 263.007 4.36755 4.64246 0
M  V30 2820 C 260.694 3.71237 4.85414 0
M  V30 2821 C 261.692 4.67503 4.97926 0
M  V30 2822 O 261.38 5.92624 5.43187 0
M  V30 2823 H 261.112 0.218987 0.639547 0
M  V30 2824 H 263.666 1.24452 1.63404 0
M  V30 2825 H 261.896 0.0034663 3.867 0
M  V30 2826 H 263.585 0.384607 4.04074 0
M  V30 2827 H 264.351 2.86478 3.91351 0
M  V30 2828 H 260.23 1.69665 4.28643 0
M  V30 2829 H 263.774 5.11898 4.73927 0
M  V30 2830 H 259.671 3.94182 5.11166 0
M  V30 2831 H 260.439 5.95585 5.61445 0
M  V30 2832 N 263.102 -1.41638 0.69111 0
M  V30 2833 C 264.327 -2.06148 0.227583 0
M  V30 2834 C 264.752 -1.51652 -1.11281 0
M  V30 2835 O 264.11 -0.64164 -1.69566 0
M  V30 2836 C 264.158 -3.60095 0.190858 0
M  V30 2837 O 263.262 -4.03845 -0.835664 0
M  V30 2838 H 262.603 -0.654434 0.112306 0
M  V30 2839 H 265.133 -1.81484 0.944714 0
M  V30 2840 H 265.143 -4.07995 0.020207 0
M  V30 2841 H 263.818 -3.99129 1.16915 0
M  V30 2842 H 262.395 -3.67458 -0.63473 0
M  V30 2843 N 264.58 -0.43555 -1.51462 0
M  V30 2844 C 265.826 0.123979 -2.03022 0
M  V30 2845 C 266.181 1.4054 -1.31401 0
M  V30 2846 O 265.474 1.86948 -0.419634 0
M  V30 2847 C 265.668 0.39942 -3.55161 0
M  V30 2848 C 265.497 -0.853754 -4.41521 0
M  V30 2849 C 264.267 -1.38675 -4.85898 0
M  V30 2850 C 266.465 -1.73939 -4.83994 0
M  V30 2851 N 264.447 -2.59265 -5.56466 0
M  V30 2852 C 265.818 -2.79135 -5.5361 0
M  V30 2853 C 267.873 -1.75402 -4.65981 0
M  V30 2854 C 266.576 -3.85737 -6.07124 0
M  V30 2855 C 268.602 -2.80938 -5.20411 0
M  V30 2856 C 267.964 -3.84854 -5.89972 0
M  V30 2857 H 264.063 0.00624887 -0.781975 0
M  V30 2858 H 266.647 -0.59582 -1.85359 0
M  V30 2859 H 264.818 1.08825 -3.72843 0
M  V30 2860 H 266.55 0.95015 -3.93388 0
M  V30 2861 H 263.305 -0.94094 -4.64159 0
M  V30 2862 H 263.729 -3.2041 -5.96378 0
M  V30 2863 H 268.371 -0.963926 -4.11665 0
M  V30 2864 H 266.089 -4.65586 -6.60496 0
M  V30 2865 H 269.675 -2.8301 -5.08327 0
M  V30 2866 H 268.555 -4.65176 -6.31333 0
M  V30 2867 N 266.058 1.56714 -0.166846 0
M  V30 2868 C 267.283 2.01557 0.488833 0
M  V30 2869 C 267.708 1.0463 1.56314 0
M  V30 2870 O 267.066 0.0251304 1.81283 0
M  V30 2871 C 267.114 3.4503 1.04818 0
M  V30 2872 O 266.218 3.51163 2.16236 0
M  V30 2873 H 265.559 0.653516 0.117526 0
M  V30 2874 H 268.089 2.02818 -0.269421 0
M  V30 2875 H 268.099 3.84243 1.37191 0
M  V30 2876 H 266.774 4.15077 0.261572 0
M  V30 2877 H 265.351 3.23807 1.84942 0
M  V30 2878 N 267.536 -0.106894 1.57237 0
M  V30 2879 C 268.783 -0.812526 1.85484 0
M  V30 2880 C 269.111 -1.79304 0.753687 0
M  V30 2881 O 268.366 -1.94047 -0.253853 0
M  V30 2882 C 268.665 -1.58628 3.20268 0
M  V30 2883 C 268.331 -0.748967 4.44636 0
M  V30 2884 C 266.993 -0.518104 4.78403 0
M  V30 2885 C 269.345 -0.166122 5.20935 0
M  V30 2886 C 266.673 0.305659 5.85903 0
M  V30 2887 C 269.025 0.644899 6.29304 0
M  V30 2888 C 267.689 0.885965 6.61594 0
M  V30 2889 H 266.959 -0.297324 0.678734 0
M  V30 2890 H 269.606 -0.0744332 1.91355 0
M  V30 2891 H 267.911 -2.39562 3.10028 0
M  V30 2892 H 269.608 -2.13643 3.39349 0
M  V30 2893 H 266.198 -0.939006 4.18187 0
M  V30 2894 H 270.382 -0.33167 4.95191 0
M  V30 2895 H 265.638 0.501528 6.0934 0
M  V30 2896 H 269.812 1.10345 6.87602 0
M  V30 2897 H 267.439 1.52609 7.44725 0
M  V30 2898 N 269.014 -1.53014 -0.377408 0
M  V30 2899 C 269.977 -1.77957 -1.44444 0
M  V30 2900 C 270.977 -0.649763 -1.47087 0
M  V30 2901 O 272.167 -0.917897 -1.48055 0
M  V30 2902 C 269.299 -1.89089 -2.83651 0
M  V30 2903 H 270.492 -2.73243 -1.23606 0
M  V30 2904 H 268.045 -1.43912 -0.609844 0
M  V30 2905 H 268.78 -0.958293 -3.09818 0
M  V30 2906 H 268.565 -2.71254 -2.83132 0
M  V30 2907 H 270.055 -2.1002 -3.60945 0
M  V30 2908 N 270.492 0.636531 -1.44174 0
M  V30 2909 C 271.732 1.40781 -1.48189 0
M  V30 2910 C 272.096 1.91688 -0.10944 0
M  V30 2911 O 273.297 2.68789 -0.0242741 0
M  V30 2912 C 271.568 2.54575 -2.50851 0
M  V30 2913 S 273.127 3.4284 -2.73873 0
M  V30 2914 H 269.945 0.480345 -0.524204 0
M  V30 2915 H 272.547 0.737416 -1.81059 0
M  V30 2916 H 271.251 2.15478 -3.49281 0
M  V30 2917 H 270.782 3.26447 -2.19536 0
M  V30 2918 H 272.797 4.51846 -2.05059 0
M  V30 2919 N 271.97 1.30982 0.876444 0
M  V30 2920 C 272.933 1.18054 1.96459 0
M  V30 2921 C 273.933 0.109399 1.60427 0
M  V30 2922 O 275.123 0.358173 1.70478 0
M  V30 2923 C 272.255 0.810616 3.31122 0
M  V30 2924 H 273.448 2.14735 2.09354 0
M  V30 2925 H 271.001 1.145 1.06392 0
M  V30 2926 H 271.736 -0.155322 3.23928 0
M  V30 2927 H 271.521 1.58481 3.58645 0
M  V30 2928 H 273.011 0.743876 4.10921 0
M  V30 2929 N 273.449 -1.08991 1.13837 0
M  V30 2930 C 274.689 -1.82867 0.913183 0
M  V30 2931 C 275.053 -1.83936 -0.550604 0
M  V30 2932 O 276.254 -2.53515 -0.893515 0
M  V30 2933 C 274.525 -3.24843 1.49036 0
M  V30 2934 S 276.084 -4.15669 1.40588 0
M  V30 2935 H 272.902 -0.630278 0.329046 0
M  V30 2936 H 275.504 -1.31049 1.45073 0
M  V30 2937 H 274.208 -3.21644 2.54899 0
M  V30 2938 H 273.739 -3.81734 0.950947 0
M  V30 2939 H 275.754 -4.94686 0.387353 0
M  V30 2940 N 274.927 -0.932562 -1.27047 0
M  V30 2941 C 275.89 -0.440064 -2.24936 0
M  V30 2942 C 276.89 0.444071 -1.54547 0
M  V30 2943 O 278.08 0.244465 -1.72476 0
M  V30 2944 C 275.212 0.36678 -3.38921 0
M  V30 2945 H 276.405 -1.305 -2.70018 0
M  V30 2946 H 273.958 -0.713707 -1.39054 0
M  V30 2947 H 274.693 1.25033 -2.99228 0
M  V30 2948 H 274.478 -0.267204 -3.91188 0
M  V30 2949 H 275.968 0.701567 -4.11665 0
M  V30 2950 N 276.405 1.4127 -0.698611 0
M  V30 2951 C 277.368 2.29158 -0.044132 0
M  V30 2952 C 278.368 1.44529 0.704841 0
M  V30 2953 O 279.558 1.65643 0.539276 0
M  V30 2954 C 276.69 3.27459 0.947809 0
M  V30 2955 H 277.883 2.88529 -0.817994 0
M  V30 2956 H 275.436 1.49307 -0.46228 0
M  V30 2957 H 276.171 2.73073 1.74933 0
M  V30 2958 H 275.956 3.8991 0.41385 0
M  V30 2959 H 277.446 3.93311 1.40344 0
M  V30 2960 N 277.883 0.443576 1.51229 0
M  V30 2961 C 279.13 -0.120796 2.02139 0
M  V30 2962 C 279.458 -1.42166 1.32736 0
M  V30 2963 O 278.713 -1.90849 0.43301 0
M  V30 2964 C 279.012 -0.380579 3.55368 0
M  V30 2965 C 278.678 0.83523 4.43097 0
M  V30 2966 C 277.34 1.16864 4.66794 0
M  V30 2967 C 279.692 1.64601 4.94526 0
M  V30 2968 C 277.02 2.31339 5.39165 0
M  V30 2969 C 279.372 2.78181 5.68153 0
M  V30 2970 C 278.036 3.11969 5.90112 0
M  V30 2971 H 277.306 -0.0442023 0.73968 0
M  V30 2972 H 279.953 0.592046 1.82118 0
M  V30 2973 H 278.258 -1.17538 3.73754 0
M  V30 2974 H 279.955 -0.830777 3.923 0
M  V30 2975 H 276.545 0.565437 4.24854 0
M  V30 2976 H 280.729 1.40163 4.76097 0
M  V30 2977 H 275.985 2.57823 5.5438 0
M  V30 2978 H 280.159 3.41371 6.06992 0
M  V30 2979 H 277.786 4.00784 6.45969 0
M  V30 2980 N 279.361 -1.56624 0.175154 0
M  V30 2981 C 280.61 -1.96173 -0.468921 0
M  V30 2982 C 280.923 -1.06401 -1.64128 0
M  V30 2983 O 282.129 -1.35648 -2.35185 0
M  V30 2984 C 280.585 -3.48833 -0.885633 0
M  V30 2985 C 280.193 -4.47237 0.261343 0
M  V30 2986 C 281.937 -3.97194 -1.49791 0
M  V30 2987 C 279.844 -5.9114 -0.175214 0
M  V30 2988 H 278.774 -0.732455 -0.178958 0
M  V30 2989 H 281.425 -1.81591 0.263997 0
M  V30 2990 H 279.807 -3.58848 -1.67464 0
M  V30 2991 H 280.981 -4.4894 1.03871 0
M  V30 2992 H 279.296 -4.08956 0.783827 0
M  V30 2993 H 281.893 -5.02167 -1.83665 0
M  V30 2994 H 282.236 -3.40351 -2.39722 0
M  V30 2995 H 282.769 -3.90212 -0.773267 0
M  V30 2996 H 279.508 -6.51865 0.689414 0
M  V30 2997 H 279.028 -5.92735 -0.91786 0
M  V30 2998 H 280.707 -6.44044 -0.617792 0
M  V30 2999 N 280.839 0.0985539 -1.57292 0
M  V30 3000 C 281.769 1.12064 -2.04851 0
M  V30 3001 C 282.75 1.41981 -0.936767 0
M  V30 3002 O 283.935 1.52071 -1.20781 0
M  V30 3003 C 281.065 2.44144 -2.47004 0
M  V30 3004 C 280.019 2.28643 -3.6181 0
M  V30 3005 C 279.345 3.65869 -3.89929 0
M  V30 3006 C 280.645 1.72986 -4.92822 0
M  V30 3007 H 282.339 0.724979 -2.9049 0
M  V30 3008 H 279.885 0.34729 -1.39749 0
M  V30 3009 H 281.838 3.15914 -2.78884 0
M  V30 3010 H 280.562 2.85639 -1.5836 0
M  V30 3011 H 279.221 1.59318 -3.30172 0
M  V30 3012 H 278.869 4.04885 -2.98458 0
M  V30 3013 H 278.569 3.56344 -4.67218 0
M  V30 3014 H 280.093 4.39112 -4.2428 0
M  V30 3015 H 281.507 2.34593 -5.23105 0
M  V30 3016 H 279.904 1.74229 -5.74251 0
M  V30 3017 H 280.974 0.689007 -4.7998 0
M  V30 3018 N 282.317 1.53212 0.369288 0
M  V30 3019 C 283.247 1.82365 1.45826 0
M  V30 3020 C 284.228 0.676907 1.56051 0
M  V30 3021 O 285.413 0.926401 1.70679 0
M  V30 3022 C 282.543 2.01023 2.83208 0
M  V30 3023 C 281.497 3.1678 2.8781 0
M  V30 3024 C 280.823 3.20724 4.27832 0
M  V30 3025 C 282.123 4.55447 2.55667 0
M  V30 3026 H 283.817 2.73559 1.21678 0
M  V30 3027 H 281.363 1.3163 0.583911 0
M  V30 3028 H 283.316 2.20001 3.59413 0
M  V30 3029 H 282.04 1.06536 3.08736 0
M  V30 3030 H 280.699 2.97616 2.14056 0
M  V30 3031 H 280.347 2.23882 4.50429 0
M  V30 3032 H 280.047 3.98496 4.31827 0
M  V30 3033 H 281.571 3.41881 5.05915 0
M  V30 3034 H 282.985 4.74611 3.21586 0
M  V30 3035 H 281.382 5.35432 2.70984 0
M  V30 3036 H 282.452 4.60812 1.5093 0
M  V30 3037 N 283.795 -0.628877 1.44509 0
M  V30 3038 C 285.042 -1.38839 1.47411 0
M  V30 3039 C 285.37 -1.94202 0.10757 0
M  V30 3040 O 284.625 -1.74243 -0.890947 0
M  V30 3041 C 284.924 -2.56995 2.48371 0
M  V30 3042 C 284.59 -2.19908 3.93639 0
M  V30 3043 C 283.252 -2.09506 4.33198 0
M  V30 3044 C 285.604 -1.9064 4.85083 0
M  V30 3045 C 282.932 -1.68028 5.62124 0
M  V30 3046 C 285.284 -1.50655 6.14399 0
M  V30 3047 C 283.948 -1.38796 6.5291 0
M  V30 3048 H 283.218 -0.508048 0.539414 0
M  V30 3049 H 285.865 -0.712913 1.77735 0
M  V30 3050 H 284.17 -3.29786 2.11538 0
M  V30 3051 H 285.867 -3.15223 2.47861 0
M  V30 3052 H 282.457 -2.28922 3.62343 0
M  V30 3053 H 286.641 -1.97585 4.55273 0
M  V30 3054 H 281.897 -1.57452 5.90778 0
M  V30 3055 H 286.071 -1.27048 6.84713 0
M  V30 3056 H 283.698 -1.06429 7.52713 0
M  V30 3057 N 285.273 -1.31445 -0.869486 0
M  V30 3058 C 286.203 -1.21727 -1.99261 0
M  V30 3059 C 287.184 -0.104359 -1.6978 0
M  V30 3060 O 288.369 -0.289038 -1.92037 0
M  V30 3061 C 285.499 -0.924317 -3.34774 0
M  V30 3062 C 284.453 -1.99685 -3.78563 0
M  V30 3063 C 283.779 -1.55658 -5.11541 0
M  V30 3064 C 285.079 -3.41003 -3.95619 0
M  V30 3065 H 286.773 -2.1569 -2.07649 0
M  V30 3066 H 284.319 -1.03839 -0.997675 0
M  V30 3067 H 286.272 -0.842934 -4.12883 0
M  V30 3068 H 284.996 0.0509793 -3.2656 0
M  V30 3069 H 283.655 -2.06813 -3.02694 0
M  V30 3070 H 283.303 -0.569132 -4.9977 0
M  V30 3071 H 283.003 -2.27409 -5.41811 0
M  V30 3072 H 284.527 -1.48928 -5.92159 0
M  V30 3073 H 285.941 -3.36547 -4.64122 0
M  V30 3074 H 284.338 -4.10975 -4.37286 0
M  V30 3075 H 285.408 -3.81754 -2.98985 0
M  V30 3076 N 286.751 1.08385 -1.14413 0
M  V30 3077 C 287.999 1.80419 -0.910679 0
M  V30 3078 C 288.32 1.86658 0.564243 0
M  V30 3079 O 287.59 1.35985 1.41014 0
M  V30 3080 H 286.17 0.668204 -0.333934 0
M  V30 3081 H 288.832 1.31037 -1.44275 0
M  V30 3082 H 287.928 2.83238 -1.31082 0
M  V30 3083 N 288.23 0.939286 1.26551 0
M  V30 3084 C 289.478 0.58469 1.93457 0
M  V30 3085 C 289.799 -0.878774 1.74076 0
M  V30 3086 O 289.069 -1.62421 1.09528 0
M  V30 3087 H 287.649 0.21325 0.715914 0
M  V30 3088 H 290.311 1.1942 1.54029 0
M  V30 3089 H 289.407 0.800849 3.0165 0
M  V30 3090 N 289.708 -1.40897 0.706093 0
M  V30 3091 C 290.638 -2.33418 0.0620085 0
M  V30 3092 C 291.619 -1.52385 -0.755827 0
M  V30 3093 O 292.804 -1.80886 -0.706674 0
M  V30 3094 C 289.934 -3.36293 -0.867445 0
M  V30 3095 C 288.888 -4.27716 -0.155932 0
M  V30 3096 C 288.214 -5.2105 -1.20046 0
M  V30 3097 C 289.514 -5.12944 0.984149 0
M  V30 3098 H 291.208 -2.87527 0.83477 0
M  V30 3099 H 288.754 -1.38249 0.402875 0
M  V30 3100 H 290.707 -3.99949 -1.32735 0
M  V30 3101 H 289.431 -2.80556 -1.67199 0
M  V30 3102 H 288.09 -3.65498 0.284047 0
M  V30 3103 H 287.738 -4.61624 -1.99781 0
M  V30 3104 H 287.438 -5.83056 -0.729328 0
M  V30 3105 H 288.962 -5.87584 -1.66066 0
M  V30 3106 H 290.376 -5.70109 0.604048 0
M  V30 3107 H 288.773 -5.83945 1.38304 0
M  V30 3108 H 289.843 -4.49485 1.81911 0
M  V30 3109 N 291.186 -0.45159 -1.50991 0
M  V30 3110 C 292.149 0.341117 -2.26647 0
M  V30 3111 C 293.149 0.937422 -1.30649 0
M  V30 3112 O 294.339 0.809644 -1.54241 0
M  V30 3113 C 291.471 1.48398 -3.06905 0
M  V30 3114 H 292.664 -0.322117 -2.98165 0
M  V30 3115 H 290.217 -0.205122 -1.54948 0
M  V30 3116 H 290.952 2.18284 -2.39838 0
M  V30 3117 H 290.737 1.06241 -3.77432 0
M  V30 3118 H 292.227 2.04367 -3.64176 0
M  V30 3119 N 292.664 1.56529 -0.183458 0
M  V30 3120 C 293.594 2.21549 0.737456 0
M  V30 3121 C 294.575 1.17489 1.23005 0
M  V30 3122 O 295.76 1.45959 1.281 0
M  V30 3123 C 292.89 2.86575 1.96194 0
M  V30 3124 C 291.844 3.96778 1.60473 0
M  V30 3125 C 291.17 4.48911 2.90487 0
M  V30 3126 C 292.47 5.15767 0.823497 0
M  V30 3127 H 294.164 2.98761 0.195453 0
M  V30 3128 H 291.71 1.43702 0.0925686 0
M  V30 3129 H 293.663 3.30739 2.61131 0
M  V30 3130 H 292.387 2.06749 2.52828 0
M  V30 3131 H 291.046 3.53286 0.978997 0
M  V30 3132 H 290.694 3.65862 3.45186 0
M  V30 3133 H 290.394 5.23265 2.67335 0
M  V30 3134 H 291.918 4.95771 3.56432 0
M  V30 3135 H 293.332 5.56549 1.37571 0
M  V30 3136 H 291.729 5.96114 0.690551 0
M  V30 3137 H 292.799 4.84574 -0.177782 0
M  V30 3138 N 294.142 -0.090211 1.57342 0
M  V30 3139 C 295.072 -1.10976 2.05443 0
M  V30 3140 C 296.053 -1.41482 0.944284 0
M  V30 3141 O 297.238 -1.51428 1.21586 0
M  V30 3142 C 294.368 -2.42831 2.48295 0
M  V30 3143 C 293.322 -2.26721 3.63018 0
M  V30 3144 C 292.648 -3.63796 3.91863 0
M  V30 3145 C 293.948 -1.7037 4.93732 0
M  V30 3146 H 295.642 -0.709564 2.9087 0
M  V30 3147 H 293.188 -0.339874 1.39932 0
M  V30 3148 H 295.141 -3.14431 2.80555 0
M  V30 3149 H 293.865 -2.84795 1.59873 0
M  V30 3150 H 292.524 -1.57565 3.31012 0
M  V30 3151 H 292.172 -4.03297 3.00601 0
M  V30 3152 H 291.872 -3.53861 4.69101 0
M  V30 3153 H 293.396 -4.36855 4.26603 0
M  V30 3154 H 294.81 -2.31816 5.24342 0
M  V30 3155 H 293.207 -1.71181 5.75167 0
M  V30 3156 H 294.277 -0.663542 4.80339 0
M  V30 3157 N 295.62 -1.53406 -0.361157 0
M  V30 3158 C 296.55 -1.83136 -1.44857 0
M  V30 3159 C 297.531 -0.685174 -1.5569 0
M  V30 3160 O 298.716 -0.93544 -1.70186 0
M  V30 3161 C 295.846 -2.02522 -2.82138 0
M  V30 3162 C 294.8 -3.18302 -2.86126 0
M  V30 3163 C 294.126 -3.22989 -4.26125 0
M  V30 3164 C 295.426 -4.56796 -2.53248 0
M  V30 3165 H 297.12 -2.74201 -1.20226 0
M  V30 3166 H 294.666 -1.31938 -0.576922 0
M  V30 3167 H 296.619 -2.21904 -3.58241 0
M  V30 3168 H 295.343 -1.08172 -3.08166 0
M  V30 3169 H 294.002 -2.98747 -2.12475 0
M  V30 3170 H 293.65 -2.26267 -4.49235 0
M  V30 3171 H 293.35 -4.00781 -4.29708 0
M  V30 3172 H 294.874 -3.44559 -5.04094 0
M  V30 3173 H 296.288 -4.7631 -3.19064 0
M  V30 3174 H 294.685 -5.36862 -2.68141 0
M  V30 3175 H 295.755 -4.61606 -1.48484 0
M  V30 3176 N 297.098 0.621204 -1.44841 0
M  V30 3177 C 298.345 1.38055 -1.48145 0
M  V30 3178 C 298.673 1.94143 -0.117867 0
M  V30 3179 O 297.928 1.74713 0.881694 0
M  V30 3180 C 298.227 2.55675 -2.4973 0
M  V30 3181 C 297.893 2.17817 -3.94799 0
M  V30 3182 C 296.555 2.07205 -4.34303 0
M  V30 3183 C 298.907 1.88065 -4.86087 0
M  V30 3184 C 296.235 1.65045 -5.63007 0
M  V30 3185 C 298.587 1.47394 -6.15189 0
M  V30 3186 C 297.251 1.35331 -6.53637 0
M  V30 3187 H 296.521 0.505181 -0.542101 0
M  V30 3188 H 299.168 0.703477 -1.78111 0
M  V30 3189 H 297.473 3.2866 -2.13284 0
M  V30 3190 H 299.17 3.13904 -2.4953 0
M  V30 3191 H 295.76 2.26998 -3.63552 0
M  V30 3192 H 299.944 1.95168 -4.56315 0
M  V30 3193 H 295.2 1.54317 -5.91605 0
M  V30 3194 H 299.374 1.23415 -6.85377 0
M  V30 3195 H 297.001 1.02435 -7.53267 0
M  V30 3196 N 298.576 1.31904 0.862503 0
M  V30 3197 C 299.801 1.25135 1.65397 0
M  V30 3198 C 300.226 -0.179 1.87246 0
M  V30 3199 O 299.584 -1.1277 1.4196 0
M  V30 3200 C 299.632 2.00832 2.99498 0
M  V30 3201 O 298.736 1.35075 3.89652 0
M  V30 3202 H 298.077 0.431655 0.504549 0
M  V30 3203 H 300.607 1.74094 1.07483 0
M  V30 3204 H 300.617 2.10709 3.49379 0
M  V30 3205 H 299.292 3.04847 2.82916 0
M  V30 3206 H 297.869 1.33696 3.48109 0
M  V30 3207 N 300.054 -1.07777 1.14986 0
M  V30 3208 C 300.984 -2.16865 0.865557 0
M  V30 3209 C 301.965 -1.69123 -0.182083 0
M  V30 3210 O 303.15 -1.94164 -0.0373815 0
M  V30 3211 C 300.28 -3.45539 0.349313 0
M  V30 3212 C 299.234 -4.06708 1.33313 0
M  V30 3213 C 298.56 -5.30411 0.675918 0
M  V30 3214 C 299.86 -4.47241 2.69764 0
M  V30 3215 H 301.554 -2.40905 1.77778 0
M  V30 3216 H 299.1 -1.15781 0.856203 0
M  V30 3217 H 301.053 -4.21174 0.137983 0
M  V30 3218 H 299.777 -3.21072 -0.598362 0
M  V30 3219 H 298.436 -3.33112 1.53075 0
M  V30 3220 H 298.084 -5.02232 -0.277767 0
M  V30 3221 H 297.784 -5.72293 1.33244 0
M  V30 3222 H 299.308 -6.08755 0.474262 0
M  V30 3223 H 300.722 -5.14025 2.53873 0
M  V30 3224 H 299.119 -5.00062 3.3175 0
M  V30 3225 H 300.189 -3.58818 3.26156 0
M  V30 3226 N 301.532 -0.945985 -1.26051 0
M  V30 3227 C 302.943 -0.638096 -1.75457 0
M  V30 3228 C 303.294 0.846672 -1.76991 0
M  V30 3229 O 302.419 1.66262 -1.38513 0
M  V30 3230 C 303.014 -1.15157 -3.18629 0
M  V30 3231 C 301.573 -0.894004 -3.65629 0
M  V30 3232 C 300.72 -1.29967 -2.44957 0
M  V30 3233 H 303.671 -1.12376 -1.1206 0
M  V30 3234 H 303.692 -0.507615 -3.77099 0
M  V30 3235 H 303.204 -2.23222 -3.1748 0
M  V30 3236 H 301.305 0.172057 -3.72203 0
M  V30 3237 H 301.418 -1.52439 -4.54202 0
M  V30 3238 H 299.782 -0.718078 -2.44368 0
M  V30 3239 H 300.565 -2.38935 -2.46505 0
M  V30 3240 N 303.011 1.40521 -0.713556 0
M  V30 3241 C 304.427 1.54839 -0.386907 0
M  V30 3242 C 304.627 1.68532 1.1045 0
M  V30 3243 O 303.683 1.67377 1.89053 0
M  V30 3244 C 304.996 2.77792 -1.15118 0
M  V30 3245 C 306.544 2.91607 -1.13729 0
M  V30 3246 C 307.019 4.1747 -1.88368 0
M  V30 3247 N 308.51 4.24466 -1.85427 0
M  V30 3248 C 309.245 5.20755 -2.40004 0
M  V30 3249 N 308.741 6.22965 -3.03129 0
M  V30 3250 N 310.534 5.1282 -2.30158 0
M  V30 3251 H 302.685 1.29879 -1.68063 0
M  V30 3252 H 304.948 0.627896 -0.710247 0
M  V30 3253 H 304.654 2.73944 -2.20561 0
M  V30 3254 H 304.528 3.6984 -0.741477 0
M  V30 3255 H 306.915 2.94959 -0.0910608 0
M  V30 3256 H 306.996 2.00682 -1.5862 0
M  V30 3257 H 306.64 4.1488 -2.9298 0
M  V30 3258 H 306.57 5.074 -1.40898 0
M  V30 3259 H 309.061 3.51241 -1.3942 0
M  V30 3260 H 309.374 6.92859 -3.42295 0
M  V30 3261 H 307.719 6.23415 -3.07212 0
M  V30 3262 H 310.91 4.31899 -1.80501 0
M  V30 3263 H 311.083 5.87689 -2.72993 0
M  V30 3264 N 304.489 0.459591 1.5075 0
M  V30 3265 C 305.422 -0.386257 2.24907 0
M  V30 3266 C 306.4 -1.006 1.27744 0
M  V30 3267 O 307.584 -1.04416 1.56938 0
M  V30 3268 C 304.711 -1.54021 3.01654 0
M  V30 3269 C 303.757 -1.03898 4.13651 0
M  V30 3270 S 304.59 0.0370501 5.35487 0
M  V30 3271 C 305.746 -1.12105 6.15779 0
M  V30 3272 H 305.979 0.243272 2.96303 0
M  V30 3273 H 303.512 0.244339 1.52454 0
M  V30 3274 H 305.47 -2.20163 3.46466 0
M  V30 3275 H 304.131 -2.14121 2.29806 0
M  V30 3276 H 303.324 -1.90254 4.66711 0
M  V30 3277 H 302.926 -0.45545 3.71216 0
M  V30 3278 H 305.218 -2.03501 6.46215 0
M  V30 3279 H 306.161 -0.62995 7.05292 0
M  V30 3280 H 306.569 -1.36967 5.47631 0
M  V30 3281 N 305.967 -1.56429 0.191757 0
M  V30 3282 C 307.378 -1.83912 -0.321428 0
M  V30 3283 C 307.729 -1.11231 -1.61623 0
M  V30 3284 O 306.854 -0.37202 -2.13178 0
M  V30 3285 C 307.449 -3.33624 -0.589961 0
M  V30 3286 C 306.008 -3.6153 -1.04753 0
M  V30 3287 C 305.155 -2.7714 -0.0943327 0
M  V30 3288 H 308.106 -1.53161 0.415612 0
M  V30 3289 H 308.127 -3.52213 -1.43966 0
M  V30 3290 H 307.639 -3.86495 0.352588 0
M  V30 3291 H 305.74 -3.14089 -2.00447 0
M  V30 3292 H 305.853 -4.69737 -0.942549 0
M  V30 3293 H 304.217 -2.47638 -0.595589 0
M  V30 3294 H 305 -3.32799 0.842601 0
M  V30 3295 N 307.445 0.0818655 -1.57387 0
M  V30 3296 C 308.861 0.436412 -1.53517 0
M  V30 3297 C 309.061 1.79758 -0.910459 0
M  V30 3298 O 308.117 2.47324 -0.508636 0
M  V30 3299 C 309.43 0.386734 -2.98203 0
M  V30 3300 C 310.978 0.467644 -3.09487 0
M  V30 3301 C 311.453 0.447978 -4.55804 0
M  V30 3302 N 312.944 0.508348 -4.60402 0
M  V30 3303 C 313.679 0.515184 -5.71081 0
M  V30 3304 N 313.175 0.477435 -6.91153 0
M  V30 3305 N 314.968 0.560988 -5.59294 0
M  V30 3306 H 307.119 -0.809546 -1.96367 0
M  V30 3307 H 309.382 -0.302733 -0.898363 0
M  V30 3308 H 309.088 -0.546539 -3.47427 0
M  V30 3309 H 308.962 1.20075 -3.57578 0
M  V30 3310 H 311.349 1.39134 -2.60242 0
M  V30 3311 H 311.43 -0.374753 -2.5304 0
M  V30 3312 H 311.074 -0.471826 -5.05704 0
M  V30 3313 H 311.004 1.30777 -5.10103 0
M  V30 3314 H 313.495 0.54218 -3.7399 0
M  V30 3315 H 313.808 0.486299 -7.71268 0
M  V30 3316 H 312.153 0.444278 -6.93579 0
M  V30 3317 H 315.344 0.5881 -4.64391 0
M  V30 3318 H 315.517 0.562846 -6.45551 0
M  V30 3319 N 308.923 1.53595 0.353017 0
M  V30 3320 C 309.871 1.81605 1.45335 0
M  V30 3321 C 310.865 0.685923 1.54892 0
M  V30 3322 O 312.071 0.869095 1.57628 0
M  V30 3323 H 308.446 0.575204 0.484401 0
M  V30 3324 H 310.417 2.73679 1.18921 0
M  V30 3325 C 309.166 2.03406 2.81995 0
M  V30 3326 H 308.489 2.89814 2.75405 0
M  V30 3327 H 309.929 2.26975 3.58132 0
M  V30 3328 C 308.388 0.816794 3.26849 0
M  V30 3329 O 308.918 0.0115856 4.01698 0
M  V30 3330 N 307.124 0.636682 2.8354 0
M  V30 3331 H 306.671 1.2931 2.22793 0
M  V30 3332 H 306.629 -0.176336 3.13905 0
M  V30 3333 N 310.401 -0.613514 1.45168 0
M  V30 3334 C 311.812 -1.19539 1.43413 0
M  V30 3335 C 312.163 -1.95558 0.158632 0
M  V30 3336 O 311.288 -2.0335 -0.740119 0
M  V30 3337 C 311.883 -2.17445 2.59813 0
M  V30 3338 C 310.442 -2.71022 2.61197 0
M  V30 3339 C 309.589 -1.46323 2.35552 0
M  V30 3340 H 312.54 -0.403163 1.53494 0
M  V30 3341 H 312.561 -3.00373 2.33574 0
M  V30 3342 H 312.073 -1.62089 3.52631 0
M  V30 3343 H 310.174 -3.30332 1.7237 0
M  V30 3344 H 310.287 -3.15859 3.60236 0
M  V30 3345 H 308.651 -1.75072 1.84992 0
M  V30 3346 H 309.434 -0.92844 3.30507 0
M  V30 3347 N 311.879 -1.3236 -0.855495 0
M  V30 3348 C 313.125 -1.24064 -1.61182 0
M  V30 3349 C 313.48 0.195914 -1.914 0
M  V30 3350 O 312.773 1.13345 -1.54478 0
M  V30 3351 C 312.967 -2.03275 -2.93963 0
M  V30 3352 C 312.796 -3.54486 -2.76712 0
M  V30 3353 C 311.566 -4.23824 -2.75139 0
M  V30 3354 C 313.764 -4.49154 -2.50531 0
M  V30 3355 N 311.746 -5.61095 -2.4909 0
M  V30 3356 C 313.117 -5.74195 -2.3388 0
M  V30 3357 C 315.172 -4.3842 -2.35992 0
M  V30 3358 C 313.875 -6.89716 -2.04168 0
M  V30 3359 C 315.901 -5.53739 -2.0767 0
M  V30 3360 C 315.263 -6.77779 -1.9182 0
M  V30 3361 H 311.362 -0.509139 -0.59355 0
M  V30 3362 H 313.946 -1.66715 -1.00569 0
M  V30 3363 H 312.117 -1.6297 -3.52555 0
M  V30 3364 H 313.849 -1.86881 -3.58967 0
M  V30 3365 H 310.604 -3.75934 -2.88047 0
M  V30 3366 H 311.028 -6.33411 -2.38996 0
M  V30 3367 H 315.67 -3.43172 -2.46967 0
M  V30 3368 H 313.388 -7.84977 -1.9193 0
M  V30 3369 H 316.974 -5.4736 -1.97201 0
M  V30 3370 H 315.854 -7.65504 -1.70217 0
M  V30 3371 N 313.357 1.07166 -1.15556 0
M  V30 3372 C 314.267 2.17947 -0.868116 0
M  V30 3373 C 315.283 1.73297 0.156297 0
M  V30 3374 O 316.459 2.01392 -0.0182327 0
M  V30 3375 C 313.524 3.44789 -0.36355 0
M  V30 3376 C 312.585 4.03996 -1.45209 0
M  V30 3377 C 311.818 5.24783 -0.971508 0
M  V30 3378 O 312.041 5.70109 0.182194 0
M  V30 3379 O 310.975 5.75715 -1.75603 0
M  V30 3380 H 314.801 2.4503 -1.79427 0
M  V30 3381 H 312.386 1.16539 -0.934824 0
M  V30 3382 H 314.268 4.21307 -0.0887113 0
M  V30 3383 H 312.943 3.19253 0.534708 0
M  V30 3384 H 311.85 3.29009 -1.78056 0
M  V30 3385 H 313.183 4.33808 -2.32533 0
M  V30 3386 N 314.835 0.952656 1.25548 0
M  V30 3387 C 316.06 0.623025 1.97821 0
M  V30 3388 C 316.485 -0.7976 1.70352 0
M  V30 3389 O 315.843 -1.53905 0.958283 0
M  V30 3390 C 315.891 0.885532 3.49558 0
M  V30 3391 O 314.995 -0.0366641 4.12384 0
M  V30 3392 H 314.336 0.237082 0.620232 0
M  V30 3393 H 316.866 1.27871 1.59719 0
M  V30 3394 H 316.876 0.811009 3.99858 0
M  V30 3395 H 315.551 1.92094 3.6888 0
M  V30 3396 H 314.128 0.0898954 3.72792 0
M  V30 3397 N 316.313 -1.40141 0.720998 0
M  V30 3398 C 317.553 -2.02644 0.267335 0
M  V30 3399 C 317.917 -1.55948 -1.12001 0
M  V30 3400 O 319.118 -2.10552 -1.67097 0
M  V30 3401 C 317.389 -3.55679 0.350281 0
M  V30 3402 S 318.948 -4.38793 -0.0256004 0
M  V30 3403 H 315.766 -0.703105 0.105664 0
M  V30 3404 H 318.368 -1.71175 0.944416 0
M  V30 3405 H 317.072 -3.87157 1.36153 0
M  V30 3406 H 316.603 -3.91883 -0.345096 0
M  V30 3407 H 318.618 -4.803 -1.24604 0
M  V30 3408 N 317.792 -0.46758 -1.50504 0
M  V30 3409 C 318.725 0.374324 -2.25109 0
M  V30 3410 C 319.703 0.99921 -1.28275 0
M  V30 3411 O 320.887 1.03583 -1.57489 0
M  V30 3412 C 318.014 1.52419 -3.02467 0
M  V30 3413 C 317.06 1.01702 -4.14197 0
M  V30 3414 S 317.893 -0.0654477 -5.3546 0
M  V30 3415 C 319.049 1.08837 -6.16365 0
M  V30 3416 H 319.282 -0.258983 -2.9617 0
M  V30 3417 H 316.815 -0.252421 -1.52323 0
M  V30 3418 H 318.773 2.18322 -3.47628 0
M  V30 3419 H 317.434 2.129 -2.30938 0
M  V30 3420 H 316.627 1.87776 -4.67714 0
M  V30 3421 H 316.229 0.435757 -3.71453 0
M  V30 3422 H 318.521 2.00071 -6.47285 0
M  V30 3423 H 319.464 0.592538 -7.05616 0
M  V30 3424 H 319.872 1.34061 -5.4835 0
M  V30 3425 N 319.27 1.56325 -0.20005 0
M  V30 3426 C 320.547 1.89484 0.48529 0
M  V30 3427 C 320.927 1.1143 1.79294 0
M  V30 3428 O 320.275 0.216919 2.27468 0
M  V30 3429 C 320.485 3.41923 0.699243 0
M  V30 3430 C 321.833 4.12256 1.01638 0
M  V30 3431 O 322.857 3.47402 0.786792 0
M  V30 3432 O 321.716 5.26887 1.45095 0
M  V30 3433 H 318.81 0.787144 0.253639 0
M  V30 3434 H 321.356 1.67985 -0.240633 0
M  V30 3435 H 320.128 3.90658 -0.224008 0
M  V30 3436 H 319.751 3.69131 1.47744 0
M  V30 3437 N 320.748 -0.0735177 1.57428 0
M  V30 3438 C 321.711 -1.07192 2.02589 0
M  V30 3439 C 322.711 -1.31695 0.922661 0
M  V30 3440 O 323.901 -1.27445 1.18758 0
M  V30 3441 C 321.033 -2.41599 2.40506 0
M  V30 3442 H 322.226 -0.682727 2.92025 0
M  V30 3443 H 319.779 -0.319193 1.53006 0
M  V30 3444 H 320.514 -2.85354 1.5409 0
M  V30 3445 H 320.299 -2.25156 3.21009 0
M  V30 3446 H 321.789 -3.13367 2.76027 0
M  V30 3447 N 322.226 -1.5378 -0.344866 0
M  V30 3448 C 323.136 -1.84667 -1.4469 0
M  V30 3449 C 324.152 -0.736704 -1.57635 0
M  V30 3450 O 325.328 -1.02888 -1.73136 0
M  V30 3451 C 322.393 -2.04869 -2.79696 0
M  V30 3452 C 321.454 -3.28731 -2.76106 0
M  V30 3453 C 320.687 -3.4796 -4.04673 0
M  V30 3454 O 320.91 -2.71052 -5.01883 0
M  V30 3455 O 319.844 -4.41383 -4.09224 0
M  V30 3456 H 323.67 -2.78334 -1.21506 0
M  V30 3457 H 321.255 -1.39418 -0.536921 0
M  V30 3458 H 323.137 -2.19609 -3.59652 0
M  V30 3459 H 321.812 -1.14391 -3.02814 0
M  V30 3460 H 320.719 -3.19396 -1.94774 0
M  V30 3461 H 322.052 -4.19198 -2.57941 0
M  V30 3462 N 323.704 0.605807 -1.45491 0
M  V30 3463 C 325.115 1.18777 -1.44045 0
M  V30 3464 C 325.466 1.95471 -0.169001 0
M  V30 3465 O 324.591 2.0374 0.729324 0
M  V30 3466 C 325.186 2.16064 -2.60963 0
M  V30 3467 C 323.745 2.69633 -2.62631 0
M  V30 3468 C 322.892 1.45072 -2.36325 0
M  V30 3469 H 325.843 0.395017 -1.53705 0
M  V30 3470 H 325.864 2.9913 -2.35163 0
M  V30 3471 H 325.376 1.60217 -3.53486 0
M  V30 3472 H 323.477 3.29414 -1.74119 0
M  V30 3473 H 323.59 3.13944 -3.61906 0
M  V30 3474 H 321.954 1.74089 -1.85917 0
M  V30 3475 H 322.737 0.910899 -3.30995 0
M  V30 3476 N 325.182 1.32811 0.848464 0
M  V30 3477 C 326.092 1.24278 1.98978 0
M  V30 3478 C 327.108 0.155176 1.73307 0
M  V30 3479 O 328.284 0.376999 1.9784 0
M  V30 3480 C 325.349 0.972444 3.32783 0
M  V30 3481 C 324.41 2.14911 3.71634 0
M  V30 3482 C 323.643 1.89157 4.99054 0
M  V30 3483 O 323.866 0.837165 5.64223 0
M  V30 3484 O 322.8 2.75433 5.35183 0
M  V30 3485 H 326.626 2.20238 2.09115 0
M  V30 3486 H 324.211 1.12762 0.980052 0
M  V30 3487 H 326.093 0.838432 4.12975 0
M  V30 3488 H 324.768 0.043051 3.23671 0
M  V30 3489 H 323.675 2.33862 2.91992 0
M  V30 3490 H 325.008 3.06151 3.85399 0
M  V30 3491 N 326.66 -1.06551 1.16123 0
M  V30 3492 C 327.61 -2.12209 0.833736 0
M  V30 3493 C 328.594 -1.59825 -0.185656 0
M  V30 3494 O 329.786 -1.76994 0.0147906 0
M  V30 3495 C 326.915 -3.41674 0.333697 0
M  V30 3496 C 326.001 -4.00892 1.38372 0
M  V30 3497 N 326.392 -4.34256 2.59337 0
M  V30 3498 C 324.69 -4.28463 1.23836 0
M  V30 3499 C 325.391 -4.81291 3.26701 0
M  V30 3500 N 324.367 -4.80565 2.54083 0
M  V30 3501 H 328.169 -2.35849 1.75364 0
M  V30 3502 H 325.683 -1.24068 1.04789 0
M  V30 3503 H 327.68 -4.16822 0.0806918 0
M  V30 3504 H 326.34 -3.19475 -0.58017 0
M  V30 3505 H 327.351 -4.24687 2.96415 0
M  V30 3506 H 324.028 -4.15721 0.38504 0
M  V30 3507 H 325.418 -5.16332 4.29943 0
M  V30 3508 O 328.177 -1.08916 -1.19246 0
M  V30 3509 H 328.868 -0.783022 -1.77168 0
M  V30 END ATOM
M  V30 BEGIN BOND
M  V30 END BOND
M  V30 END CTAB
M  END
$$$$
