drugbank_target|Q02192 C protein alpha-antigen (DB04447)
 OpenBabel12092120293D

  0  0  0     0  0            999 V3000
M  V30 BEGIN CTAB
M  V30 COUNTS 15272 15438 0 0 0
M  V30 BEGIN ATOM
M  V30 1 H -0.908 1.98254 -0.117106 0
M  V30 2 N 0 1.576 0 0
M  V30 3 C 0.933 2.03868 1.02534 0
M  V30 4 C 1.911 0.928543 1.3348 0
M  V30 5 O 3.095 1.19667 1.45644 0
M  V30 6 C 0.222 2.43627 2.35294 0
M  V30 7 C -0.732 3.65373 2.2001 0
M  V30 8 S 0.101 5.13292 1.52614 0
M  V30 9 C 1.257 5.56322 2.86805 0
M  V30 10 H 1.49 2.90518 0.631377 0
M  V30 11 H -0.977 1.52953 0.210867 0
M  V30 12 H 0.981 2.67203 3.11629 0
M  V30 13 H -0.358 1.57376 2.7183 0
M  V30 14 H -1.165 3.90944 3.18086 0
M  V30 15 H -1.563 3.418 1.51819 0
M  V30 16 H 0.729 5.58782 3.83104 0
M  V30 17 H 1.672 6.56266 2.65933 0
M  V30 18 H 2.08 4.83886 2.90714 0
M  V30 19 N 1.4781 -0.272755 1.55222 0
M  V30 20 C 2.7251 -1.00433 1.7584 0
M  V30 21 C 3.0531 -1.86275 0.559629 0
M  V30 22 O 2.3081 -1.90269 -0.457857 0
M  V30 23 C 2.6071 -1.91642 3.01675 0
M  V30 24 C 2.2731 -1.21548 4.34208 0
M  V30 25 C 0.9351 -1.02166 4.70229 0
M  V30 26 C 3.2871 -0.716684 5.16249 0
M  V30 27 C 0.6151 -0.316334 5.85847 0
M  V30 28 C 2.9671 -0.0249476 6.32595 0
M  V30 29 C 1.6311 0.180579 6.67256 0
M  V30 30 H 0.9011 -0.367509 0.643443 0
M  V30 31 H 3.5481 -0.276596 1.89492 0
M  V30 32 H 1.8531 -2.71037 2.82924 0
M  V30 33 H 3.5501 -2.48369 3.14824 0
M  V30 34 H 0.1401 -1.37645 4.05896 0
M  V30 35 H 4.3241 -0.854047 4.88896 0
M  V30 36 H -0.4199 -0.146378 6.11225 0
M  V30 37 H 3.7541 0.369311 6.9542 0
M  V30 38 H 1.3811 0.729098 7.56696 0
M  V30 39 N 2.9562 -1.48159 -0.537278 0
M  V30 40 C 4.3722 -1.34118 -0.865129 0
M  V30 41 C 4.5722 -0.346678 -1.98495 0
M  V30 42 O 3.6282 0.234715 -2.51407 0
M  V30 43 C 4.9412 -2.73963 -1.23954 0
M  V30 44 C 6.4892 -2.82397 -1.34984 0
M  V30 45 C 6.9642 -4.22928 -1.75772 0
M  V30 46 N 8.4552 -4.25566 -1.82887 0
M  V30 47 C 9.1902 -5.31235 -2.15817 0
M  V30 48 N 8.6862 -6.47189 -2.47222 0
M  V30 49 N 10.4792 -5.18624 -2.16761 0
M  V30 50 H 2.6302 -2.1144 0.201715 0
M  V30 51 H 4.8932 -0.947598 0.0275949 0
M  V30 52 H 4.5992 -3.48264 -0.490381 0
M  V30 53 H 4.4732 -3.0702 -2.19132 0
M  V30 54 H 6.8602 -2.08356 -2.08978 0
M  V30 55 H 6.9412 -2.5297 -0.379448 0
M  V30 56 H 6.5852 -4.97482 -1.02341 0
M  V30 57 H 6.5152 -4.49794 -2.73848 0
M  V30 58 H 9.0062 -3.41924 -1.60924 0
M  V30 59 H 9.3192 -7.23564 -2.71433 0
M  V30 60 H 7.6642 -6.50476 -2.44757 0
M  V30 61 H 10.8552 -4.27056 -1.91679 0
M  V30 62 H 11.0282 -6.01078 -2.42093 0
M  V30 63 N 4.4343 0.785586 -1.36625 0
M  V30 64 C 5.8503 1.08419 -1.17122 0
M  V30 65 C 6.0503 2.015 0.00208491 0
M  V30 66 O 5.1063 2.43551 0.666278 0
M  V30 67 C 6.4193 1.69498 -2.48377 0
M  V30 68 C 7.9673 1.81821 -2.54775 0
M  V30 69 C 8.4423 2.46315 -3.86126 0
M  V30 70 N 9.9333 2.53779 -3.87492 0
M  V30 71 C 10.6683 3.045 -4.85868 0
M  V30 72 N 10.1643 3.55499 -5.94637 0
M  V30 73 N 11.9573 3.03247 -4.73284 0
M  V30 74 H 4.1083 0.167264 -2.1174 0
M  V30 75 H 6.3713 0.13682 -0.938075 0
M  V30 76 H 6.0773 1.08571 -3.34522 0
M  V30 77 H 5.9513 2.6896 -2.64462 0
M  V30 78 H 8.3383 2.41884 -1.69045 0
M  V30 79 H 8.4193 0.811532 -2.42586 0
M  V30 80 H 8.0633 1.86895 -4.72263 0
M  V30 81 H 7.9933 3.47561 -3.95612 0
M  V30 82 H 10.4843 2.17672 -3.08913 0
M  V30 83 H 10.7973 3.92562 -6.65669 0
M  V30 84 H 9.1423 3.5364 -5.98301 0
M  V30 85 H 12.3333 2.62696 -3.87438 0
M  V30 86 H 12.5063 3.42467 -5.50109 0
M  V30 87 N 5.9124 1.20967 1.01018 0
M  V30 88 C 7.1374 1.0503 1.78839 0
M  V30 89 C 7.5624 -0.395752 1.8389 0
M  V30 90 O 6.9204 -1.28529 1.27867 0
M  V30 91 C 6.9684 1.64602 3.2084 0
M  V30 92 O 6.0724 0.887988 4.02726 0
M  V30 93 H 5.4134 0.369987 0.551367 0
M  V30 94 H 7.9434 1.60399 1.27018 0
M  V30 95 H 7.9534 1.68607 3.71532 0
M  V30 96 H 6.6284 2.69841 3.16479 0
M  V30 97 H 5.2054 0.922648 3.61305 0
M  V30 98 N 7.3905 -1.2043 1.01659 0
M  V30 99 C 8.3375 -2.23215 0.586822 0
M  V30 100 C 9.3075 -1.61382 -0.393085 0
M  V30 101 O 10.4925 -1.88544 -0.292525 0
M  V30 102 C 7.6325 -3.45032 -0.0687464 0
M  V30 103 C 6.7455 -4.21296 0.955724 0
M  V30 104 C 5.8805 -5.30507 0.271208 0
M  V30 105 C 4.9195 -5.98515 1.28244 0
M  V30 106 N 4.0565 -6.99316 0.62459 0
M  V30 107 H 8.8965 -2.59336 1.46796 0
M  V30 108 H 6.4335 -1.27431 0.734836 0
M  V30 109 H 8.3915 -4.1459 -0.465965 0
M  V30 110 H 7.0215 -3.09604 -0.913529 0
M  V30 111 H 6.0735 -3.50803 1.4711 0
M  V30 112 H 7.3855 -4.6803 1.72479 0
M  V30 113 H 6.5395 -6.06428 -0.18151 0
M  V30 114 H 5.2785 -4.8481 -0.530163 0
M  V30 115 H 4.2835 -5.21355 1.74554 0
M  V30 116 H 5.5085 -6.46298 2.08509 0
M  V30 117 H 3.4545 -6.55812 -0.156914 0
M  V30 118 H 3.3715 -7.44178 1.33172 0
M  V30 119 H 4.6395 -7.79255 0.195462 0
M  V30 120 N 8.8686 -0.792821 -1.36206 0
M  V30 121 C 9.8166 -0.181555 -2.3189 0
M  V30 122 C 10.8106 0.661025 -1.55971 0
M  V30 123 O 12.0166 0.555728 -1.71206 0
M  V30 124 H 8.3916 -0.0399382 -0.750939 0
M  V30 125 H 10.3626 -1.00394 -2.81005 0
M  V30 126 C 9.1116 0.666444 -3.41253 0
M  V30 127 H 8.4346 0.0274489 -3.99791 0
M  V30 128 H 9.8746 1.06076 -4.10517 0
M  V30 129 C 8.3336 1.82614 -2.83114 0
M  V30 130 O 8.8636 2.9229 -2.75553 0
M  V30 131 N 7.0696 1.63333 -2.40356 0
M  V30 132 H 6.6166 0.741217 -2.46706 0
M  V30 133 H 6.5746 2.41087 -2.01803 0
M  V30 134 N 10.3467 1.47872 -0.545128 0
M  V30 135 C 11.2947 2.31533 0.222512 0
M  V30 136 C 12.2887 1.42177 0.920985 0
M  V30 137 O 13.4947 1.59005 0.843645 0
M  V30 138 H 9.8697 0.746519 0.0906278 0
M  V30 139 H 11.8407 2.94139 -0.50246 0
M  V30 140 C 10.5897 3.2457 1.24699 0
M  V30 141 H 9.9127 3.93283 0.718944 0
M  V30 142 H 11.3527 3.85963 1.75523 0
M  V30 143 C 9.8117 2.47237 2.28856 0
M  V30 144 O 10.3417 2.20808 3.35569 0
M  V30 145 N 8.5477 2.08461 2.02466 0
M  V30 146 H 8.0947 2.30155 1.157 0
M  V30 147 H 8.0527 1.57033 2.72375 0
M  V30 148 N 11.8248 0.280983 1.55075 0
M  V30 149 C 13.0498 -0.340154 2.04592 0
M  V30 150 C 13.4748 -1.48246 1.15779 0
M  V30 151 O 12.8328 -1.80614 0.15761 0
M  V30 152 C 12.8808 -0.793104 3.5177 0
M  V30 153 O 11.9848 -1.89981 3.66034 0
M  V30 154 H 11.3258 -0.0694289 0.66036 0
M  V30 155 H 13.8558 0.416993 2.00306 0
M  V30 156 H 13.8658 -1.08729 3.93245 0
M  V30 157 H 12.5408 0.0426163 4.15878 0
M  V30 158 H 11.1178 -1.60771 3.36463 0
M  V30 159 N 13.3029 -1.57598 0.00835791 0
M  V30 160 C 14.5329 -1.94931 -0.684496 0
M  V30 161 C 14.9409 -0.882233 -1.67372 0
M  V30 162 O 14.2839 0.146621 -1.83114 0
M  V30 163 C 14.3459 -3.283 -1.4649 0
M  V30 164 C 14.0099 -4.52548 -0.63634 0
M  V30 165 C 15.0069 -5.19839 0.0795586 0
M  V30 166 C 12.6919 -4.98942 -0.579849 0
M  V30 167 C 14.6859 -6.3183 0.840843 0
M  V30 168 C 12.3729 -6.10819 0.185155 0
M  V30 169 C 13.3709 -6.77121 0.894227 0
M  V30 170 O 13.0589 -7.86853 1.64673 0
M  V30 171 H 12.7909 -0.647249 -0.19505 0
M  V30 172 H 15.3449 -2.05318 0.0581272 0
M  V30 173 H 13.5749 -3.14345 -2.2522 0
M  V30 174 H 15.2639 -3.50685 -2.04389 0
M  V30 175 H 16.0299 -4.84979 0.0451202 0
M  V30 176 H 11.9089 -4.47155 -1.1213 0
M  V30 177 H 15.4529 -6.83513 1.39483 0
M  V30 178 H 11.3499 -6.4512 0.221384 0
M  V30 179 H 12.1179 -8.03412 1.56432 0
M  V30 180 N 14.781 0.264519 -1.55364 0
M  V30 181 C 16.058 1.01677 -1.67096 0
M  V30 182 C 16.438 2.03996 -0.543015 0
M  V30 183 O 15.786 2.23907 0.45585 0
M  V30 184 C 15.996 1.66596 -3.0667 0
M  V30 185 C 17.344 2.17442 -3.64697 0
M  V30 186 O 18.368 1.76568 -3.09358 0
M  V30 187 O 17.227 2.92439 -4.61673 0
M  V30 188 H 14.321 0.472161 -0.678965 0
M  V30 189 H 16.867 0.259703 -1.67701 0
M  V30 190 H 15.639 0.924962 -3.80211 0
M  V30 191 H 15.262 2.48968 -3.10001 0
M  V30 192 N 16.2591 1.48442 0.529413 0
M  V30 193 C 17.4871 1.60151 1.30994 0
M  V30 194 C 17.9021 0.261985 1.86973 0
M  V30 195 O 17.2591 -0.748805 1.66431 0
M  V30 196 C 17.3101 2.64854 2.46038 0
M  V30 197 O 17.0311 3.93608 1.92365 0
M  V30 198 C 18.5321 2.87007 3.37849 0
M  V30 199 H 15.7521 0.539971 0.398338 0
M  V30 200 H 18.2961 1.94273 0.638597 0
M  V30 201 H 16.4511 2.33589 3.09055 0
M  V30 202 H 16.8651 4.51055 2.67675 0
M  V30 203 H 18.3391 3.64068 4.14919 0
M  V30 204 H 18.8161 1.95852 3.93114 0
M  V30 205 H 19.4221 3.19579 2.80623 0
M  V30 206 N 17.7372 -0.778329 1.37039 0
M  V30 207 C 18.9622 -1.57248 1.35233 0
M  V30 208 C 19.3872 -1.87999 -0.0615568 0
M  V30 209 O 18.7452 -1.48734 -1.03672 0
M  V30 210 C 18.7932 -2.86353 2.19167 0
M  V30 211 O 17.8972 -3.80442 1.59178 0
M  V30 212 H 17.2382 -0.476569 0.462362 0
M  V30 213 H 19.7682 -0.963853 1.80474 0
M  V30 214 H 19.7782 -3.35519 2.32145 0
M  V30 215 H 18.4532 -2.63299 3.21942 0
M  V30 216 H 17.0302 -3.39067 1.55203 0
M  V30 217 N 19.2153 -1.21501 -1.00376 0
M  V30 218 C 20.1473 -0.933174 -2.09343 0
M  V30 219 C 21.1603 0.0840896 -1.62583 0
M  V30 220 O 22.3493 -0.148563 -1.77881 0
M  V30 221 C 19.4493 -0.379869 -3.36764 0
M  V30 222 C 18.6223 -1.45176 -4.12605 0
M  V30 223 C 17.6813 -0.907476 -5.18316 0
M  V30 224 O 16.7073 -1.5912 -5.46507 0
M  V30 225 N 17.9093 0.276649 -5.7984 0
M  V30 226 H 20.6743 -1.87124 -2.34104 0
M  V30 227 H 18.2353 -1.12043 -1.16867 0
M  V30 228 H 20.2273 -0.00131488 -4.047 0
M  V30 229 H 18.7973 0.463048 -3.09151 0
M  V30 230 H 18.0173 -2.00411 -3.39454 0
M  V30 231 H 19.3053 -2.17328 -4.6005 0
M  V30 232 H 18.7033 0.849147 -5.59291 0
M  V30 233 H 17.2603 0.596702 -6.49063 0
M  V30 234 N 20.6934 1.19889 -1.02296 0
M  V30 235 C 21.9214 1.9339 -0.735399 0
M  V30 236 C 22.3364 1.75148 0.704887 0
M  V30 237 O 21.6934 1.06954 1.47875 0
M  V30 238 C 21.7444 3.45313 -1.06962 0
M  V30 239 O 21.4654 3.62964 -2.45334 0
M  V30 240 C 22.9664 4.35948 -0.804021 0
M  V30 241 H 20.1864 0.61448 -0.269546 0
M  V30 242 H 22.7304 1.522 -1.36585 0
M  V30 243 H 20.8854 3.84359 -0.484455 0
M  V30 244 H 21.2994 4.56886 -2.57595 0
M  V30 245 H 22.7734 5.41174 -1.0879 0
M  V30 246 H 23.2504 4.3842 0.261691 0
M  V30 247 H 23.8564 4.02574 -1.37164 0
M  V30 248 N 22.1715 0.800033 1.35784 0
M  V30 249 C 23.1185 0.203848 2.29898 0
M  V30 250 C 24.0885 -0.658375 1.52495 0
M  V30 251 O 25.2735 -0.604832 1.8096 0
M  V30 252 C 22.4135 -0.64688 3.38983 0
M  V30 253 C 21.5265 0.235054 4.3136 0
M  V30 254 C 20.6615 -0.623054 5.27533 0
M  V30 255 C 19.7005 0.259682 6.11549 0
M  V30 256 N 18.8375 -0.558019 6.99879 0
M  V30 257 H 23.6775 1.01186 2.80295 0
M  V30 258 H 21.2145 0.51053 1.37957 0
M  V30 259 H 23.1725 -1.15521 4.00887 0
M  V30 260 H 21.8025 -1.42021 2.89879 0
M  V30 261 H 20.8545 0.861438 3.70518 0
M  V30 262 H 22.1665 0.914768 4.9034 0
M  V30 263 H 21.3205 -1.19678 5.94779 0
M  V30 264 H 20.0595 -1.33636 4.69034 0
M  V30 265 H 19.0645 0.845726 5.43256 0
M  V30 266 H 20.2895 0.970748 6.72126 0
M  V30 267 H 18.2355 -1.25542 6.43875 0
M  V30 268 H 18.1525 0.0637872 7.55973 0
M  V30 269 H 19.4205 -1.11523 7.71481 0
M  V30 270 N 23.6496 -1.47581 0.552962 0
M  V30 271 C 24.5816 -2.27997 -0.234533 0
M  V30 272 C 25.5946 -1.36753 -0.883321 0
M  V30 273 O 26.7836 -1.61612 -0.757889 0
M  V30 274 C 23.8836 -3.10879 -1.34935 0
M  V30 275 C 23.0566 -4.30056 -0.798158 0
M  V30 276 C 22.1156 -4.94567 -1.79694 0
M  V30 277 O 21.1416 -5.53087 -1.34474 0
M  V30 278 N 22.3436 -4.88878 -3.13015 0
M  V30 279 H 25.1086 -2.96222 0.455255 0
M  V30 280 H 22.6696 -1.57163 0.388761 0
M  V30 281 H 24.6616 -3.50903 -2.01616 0
M  V30 282 H 23.2316 -2.44924 -1.94244 0
M  V30 283 H 22.4516 -3.94174 0.0453079 0
M  V30 284 H 23.7396 -5.07152 -0.409173 0
M  V30 285 H 23.1376 -4.42526 -3.52402 0
M  V30 286 H 21.6946 -5.32934 -3.75266 0
M  V30 287 N 25.1277 -0.289203 -1.54924 0
M  V30 288 C 26.5437 0.0645403 -1.59469 0
M  V30 289 C 26.7437 1.53419 -1.30632 0
M  V30 290 O 25.7997 2.2852 -1.074 0
M  V30 291 C 27.1127 -0.32278 -2.98963 0
M  V30 292 C 28.6607 -0.270564 -3.11828 0
M  V30 293 C 29.1357 -0.632532 -4.53611 0
M  V30 294 N 30.6267 -0.584617 -4.59496 0
M  V30 295 C 31.3617 -0.837314 -5.67254 0
M  V30 296 N 30.8577 -1.15536 -6.83098 0
M  V30 297 N 32.6507 -0.765166 -5.56868 0
M  V30 298 H 24.8017 -1.24714 -1.71931 0
M  V30 299 H 27.0647 -0.504809 -0.802416 0
M  V30 300 H 26.7707 -1.34541 -3.24948 0
M  V30 301 H 26.6447 0.32944 -3.75759 0
M  V30 302 H 29.0317 0.742805 -2.85598 0
M  V30 303 H 29.1127 -0.957242 -2.37214 0
M  V30 304 H 28.7567 -1.64365 -4.80569 0
M  V30 305 H 28.6867 0.07609 -5.26545 0
M  V30 306 H 31.1777 -0.349248 -3.76283 0
M  V30 307 H 31.4907 -1.33447 -7.61191 0
M  V30 308 H 29.8357 -1.19328 -6.84679 0
M  V30 309 H 33.0267 -0.516432 -4.65243 0
M  V30 310 H 33.1997 -0.965477 -6.40767 0
M  V30 311 N 26.6058 1.57591 -0.0167156 0
M  V30 312 C 27.8528 1.91283 0.664597 0
M  V30 313 C 28.1808 0.891949 1.72842 0
M  V30 314 O 27.4358 -0.100931 1.9544 0
M  V30 315 C 27.7348 3.3172 1.33029 0
M  V30 316 C 27.4008 4.4914 0.398047 0
M  V30 317 C 26.0628 4.80992 0.141421 0
M  V30 318 C 28.4148 5.20634 -0.242825 0
M  V30 319 C 25.7428 5.81703 -0.764092 0
M  V30 320 C 28.0948 6.22311 -1.13632 0
M  V30 321 C 26.7588 6.52611 -1.40196 0
M  V30 322 H 26.0288 0.699956 0.243193 0
M  V30 323 H 28.6758 1.9135 -0.0758267 0
M  V30 324 H 26.9808 3.27856 2.14517 0
M  V30 325 H 28.6778 3.55055 1.86379 0
M  V30 326 H 25.2678 4.24262 0.608238 0
M  V30 327 H 29.4518 4.96267 -0.0576019 0
M  V30 328 H 24.7078 6.03532 -0.977732 0
M  V30 329 H 28.8818 6.76834 -1.63917 0
M  V30 330 H 26.5088 7.30467 -2.10529 0
M  V30 331 N 28.0839 -0.256276 1.55502 0
M  V30 332 C 29.3089 -1.00766 1.81276 0
M  V30 333 C 29.7339 -1.78524 0.59252 0
M  V30 334 O 29.0919 -1.75413 -0.45827 0
M  V30 335 C 29.1399 -1.92869 3.04687 0
M  V30 336 O 28.2439 -3.019 2.80945 0
M  V30 337 H 27.5849 -0.287224 0.598664 0
M  V30 338 H 30.1149 -0.280109 2.02674 0
M  V30 339 H 30.1249 -2.34511 3.33869 0
M  V30 340 H 28.7999 -1.35689 3.93143 0
M  V30 341 H 27.3769 -2.64454 2.62904 0
M  V30 342 N 29.562 -1.4872 -0.521534 0
M  V30 343 C 30.811 -1.56419 -1.27341 0
M  V30 344 C 31.124 -0.246805 -1.94037 0
M  V30 345 O 32.33 -0.202122 -2.70747 0
M  V30 346 C 30.786 -2.75896 -2.31105 0
M  V30 347 C 30.394 -4.14311 -1.70441 0
M  V30 348 C 32.138 -2.92913 -3.07249 0
M  V30 349 C 30.045 -5.25038 -2.72194 0
M  V30 350 H 28.975 -0.582344 -0.478949 0
M  V30 351 H 31.626 -1.75071 -0.549779 0
M  V30 352 H 30.008 -2.50697 -3.06541 0
M  V30 353 H 31.182 -4.49564 -1.01136 0
M  V30 354 H 29.497 -4.02482 -1.06759 0
M  V30 355 H 32.094 -3.72805 -3.83302 0
M  V30 356 H 32.437 -2.02689 -3.63625 0
M  V30 357 H 32.97 -3.18054 -2.38928 0
M  V30 358 H 29.709 -6.17255 -2.20627 0
M  V30 359 H 29.229 -4.94263 -3.39801 0
M  V30 360 H 30.908 -5.53508 -3.35019 0
M  V30 361 N 31.0401 0.771051 -1.3745 0
M  V30 362 C 31.9871 1.88435 -1.3327 0
M  V30 363 C 32.9571 1.64914 -0.198136 0
M  V30 364 O 34.1421 1.86821 -0.387606 0
M  V30 365 C 31.2821 3.25509 -1.14622 0
M  V30 366 C 30.3951 3.60979 -2.37314 0
M  V30 367 C 29.5301 4.87265 -2.11533 0
M  V30 368 C 28.5691 5.15469 -3.30088 0
M  V30 369 N 27.7061 6.32944 -3.03853 0
M  V30 370 H 32.5461 1.91344 -2.28455 0
M  V30 371 H 30.0831 0.935466 -1.13523 0
M  V30 372 H 32.0411 4.04582 -1.01831 0
M  V30 373 H 30.6711 3.21974 -0.230837 0
M  V30 374 H 29.7231 2.76885 -2.60842 0
M  V30 375 H 31.0351 3.77759 -3.25729 0
M  V30 376 H 30.1891 5.74244 -1.95777 0
M  V30 377 H 28.9281 4.7259 -1.20457 0
M  V30 378 H 27.9331 4.26966 -3.46382 0
M  V30 379 H 29.1581 5.32052 -4.22016 0
M  V30 380 H 27.1041 6.19625 -2.15407 0
M  V30 381 H 27.0211 6.50143 -3.85812 0
M  V30 382 H 28.2891 7.22857 -2.91716 0
M  V30 383 N 32.5182 1.22032 0.997298 0
M  V30 384 C 33.4652 0.986467 2.08656 0
M  V30 385 C 34.4352 -0.0902671 1.65855 0
M  V30 386 O 35.6202 0.0584294 1.90711 0
M  V30 387 C 32.7602 0.565569 3.40434 0
M  V30 388 C 31.8732 1.71259 3.96604 0
M  V30 389 C 31.0082 1.24011 5.16522 0
M  V30 390 C 30.0472 2.35896 5.64818 0
M  V30 391 N 29.1842 1.89726 6.7598 0
M  V30 392 H 34.0242 1.91892 2.27994 0
M  V30 393 H 31.5612 0.956199 1.11782 0
M  V30 394 H 33.5192 0.302738 4.161 0
M  V30 395 H 32.1492 -0.329879 3.2111 0
M  V30 396 H 31.2012 2.08986 3.17851 0
M  V30 397 H 32.5132 2.55436 4.28432 0
M  V30 398 H 31.6672 0.934395 5.99461 0
M  V30 399 H 30.4062 0.368487 4.86306 0
M  V30 400 H 29.4112 2.67261 4.8047 0
M  V30 401 H 30.6362 3.23567 5.97061 0
M  V30 402 H 28.5822 1.0492 6.47555 0
M  V30 403 H 28.4992 2.67471 7.07103 0
M  V30 404 H 29.7672 1.62211 7.62435 0
M  V30 405 N 33.9963 -1.19345 1.0293 0
M  V30 406 C 35.2433 -1.89038 0.726008 0
M  V30 407 C 35.5713 -1.79649 -0.745427 0
M  V30 408 O 34.8263 -1.18354 -1.55855 0
M  V30 409 C 35.1253 -3.39292 1.12319 0
M  V30 410 C 34.7913 -3.68885 2.59297 0
M  V30 411 C 33.4533 -3.76671 2.99453 0
M  V30 412 C 35.8053 -3.82178 3.54386 0
M  V30 413 C 33.1333 -3.9522 4.33611 0
M  V30 414 C 35.4853 -4.0224 4.88248 0
M  V30 415 C 34.1493 -4.08259 5.28092 0
M  V30 416 H 33.4193 -0.691739 0.265665 0
M  V30 417 H 36.0663 -1.41328 1.29223 0
M  V30 418 H 34.3713 -3.88903 0.475584 0
M  V30 419 H 36.0683 -3.91536 0.866037 0
M  V30 420 H 32.6583 -3.63433 2.27189 0
M  V30 421 H 36.8423 -3.75505 3.24514 0
M  V30 422 H 32.0983 -3.98119 4.64016 0
M  V30 423 H 36.2723 -4.11468 5.61843 0
M  V30 424 H 33.8993 -4.22384 6.32057 0
M  V30 425 N 35.4744 -0.807222 -1.35358 0
M  V30 426 C 36.4214 -0.216037 -2.29787 0
M  V30 427 C 37.3914 0.650278 -1.52842 0
M  V30 428 O 38.5764 0.595227 -1.81278 0
M  V30 429 C 35.7164 0.628893 -3.39321 0
M  V30 430 C 34.8294 -0.257927 -4.31229 0
M  V30 431 C 33.9644 0.595069 -5.27856 0
M  V30 432 C 33.0034 -0.292111 -6.11403 0
M  V30 433 N 32.1404 0.520895 -7.00165 0
M  V30 434 H 36.9804 -1.02671 -2.79755 0
M  V30 435 H 34.5174 -0.517839 -1.37684 0
M  V30 436 H 36.4754 1.13393 -4.01494 0
M  V30 437 H 35.1054 1.40482 -2.90628 0
M  V30 438 H 34.1574 -0.881076 -3.70056 0
M  V30 439 H 35.4694 -0.940759 -4.89848 0
M  V30 440 H 34.6234 1.16522 -5.95405 0
M  V30 441 H 33.3624 1.31146 -4.69736 0
M  V30 442 H 32.3674 -0.874525 -5.428 0
M  V30 443 H 33.5924 -1.00638 -6.71602 0
M  V30 444 H 31.5384 1.22125 -6.44532 0
M  V30 445 H 31.4554 -0.103877 -7.55929 0
M  V30 446 H 32.7234 1.0743 -7.72062 0
M  V30 447 N 36.9525 1.47285 -0.560781 0
M  V30 448 C 38.1995 2.02464 -0.038062 0
M  V30 449 C 38.5275 1.43474 1.31322 0
M  V30 450 O 37.7825 0.581311 1.86867 0
M  V30 451 C 38.0815 3.57258 0.100784 0
M  V30 452 C 37.7475 4.35184 -1.18007 0
M  V30 453 C 36.4095 4.56194 -1.53103 0
M  V30 454 C 38.7615 4.80098 -2.02867 0
M  V30 455 C 36.0895 5.19367 -2.729 0
M  V30 456 C 38.4415 5.44593 -3.21871 0
M  V30 457 C 37.1055 5.63835 -3.57276 0
M  V30 458 H 36.3755 0.740869 -0.0139279 0
M  V30 459 H 39.0225 1.76916 -0.733012 0
M  V30 460 H 37.3275 3.81819 0.878724 0
M  V30 461 H 39.0245 3.97606 0.520639 0
M  V30 462 H 35.6145 4.19113 -0.8968 0
M  V30 463 H 39.7985 4.63642 -1.7706 0
M  V30 464 H 35.0545 5.32459 -3.00496 0
M  V30 465 H 39.2285 5.78358 -3.87911 0
M  V30 466 H 36.8555 6.12557 -4.50197 0
M  V30 467 N 38.4306 0.297415 1.54768 0
M  V30 468 C 39.6786 -0.312295 1.99673 0
M  V30 469 C 39.9996 -1.54686 1.18732 0
M  V30 470 O 39.2696 -1.93854 0.282382 0
M  V30 471 H 37.8496 -0.118381 0.73756 0
M  V30 472 H 40.5116 0.407915 1.90583 0
M  V30 473 H 39.6076 -0.586813 3.06534 0
M  V30 474 N 39.9087 -1.5758 0.0250728 0
M  V30 475 C 40.8717 -2.08896 -0.943139 0
M  V30 476 C 41.8717 -1.00321 -1.25668 0
M  V30 477 O 43.0617 -1.26495 -1.19769 0
M  V30 478 C 40.1937 -2.55143 -2.26086 0
M  V30 479 H 41.3867 -2.95723 -0.498775 0
M  V30 480 H 38.9397 -1.54703 -0.222888 0
M  V30 481 H 39.6747 -1.71633 -2.75159 0
M  V30 482 H 39.4597 -3.34461 -2.04641 0
M  V30 483 H 40.9497 -2.95083 -2.95492 0
M  V30 484 N 41.3868 0.248026 -1.55636 0
M  V30 485 C 42.3498 1.29044 -1.89421 0
M  V30 486 C 43.3498 1.41134 -0.770581 0
M  V30 487 O 44.5398 1.39854 -1.03858 0
M  V30 488 C 41.6718 2.66831 -2.12165 0
M  V30 489 H 42.8648 1.00305 -2.82629 0
M  V30 490 H 40.4178 0.487265 -1.48511 0
M  V30 491 H 41.1528 3.00711 -1.21422 0
M  V30 492 H 40.9378 2.59438 -2.93997 0
M  V30 493 H 42.4278 3.42103 -2.3949 0
M  V30 494 N 42.8649 1.48995 0.513639 0
M  V30 495 C 44.0899 1.61792 1.29762 0
M  V30 496 C 44.5149 0.284475 1.85936 0
M  V30 497 O 43.8729 -0.746185 1.65232 0
M  V30 498 C 43.9209 2.67993 2.41272 0
M  V30 499 O 43.0249 2.26287 3.44772 0
M  V30 500 H 42.3659 0.541963 0.38363 0
M  V30 501 H 44.8959 1.95097 0.616307 0
M  V30 502 H 44.9059 2.89772 2.87221 0
M  V30 503 H 43.5809 3.64791 1.9975 0
M  V30 504 H 42.1579 2.14788 3.04829 0
M  V30 505 N 44.343 -0.763751 1.37857 0
M  V30 506 C 45.589 -1.52483 1.33704 0
M  V30 507 C 45.922 -1.94051 -0.0759612 0
M  V30 508 O 45.197 -1.64675 -1.03501 0
M  V30 509 C 45.48 -2.78441 2.28348 0
M  V30 510 C 45.333 -2.43075 3.78463 0
M  V30 511 C 46.652 -3.80415 2.21298 0
M  V30 512 H 43.771 -0.553169 0.487005 0
M  V30 513 H 46.413 -0.875562 1.68624 0
M  V30 514 H 44.563 -3.33842 1.987 0
M  V30 515 H 46.235 -1.93527 4.18742 0
M  V30 516 H 44.478 -1.75666 3.96641 0
M  V30 517 H 45.149 -3.33149 4.40132 0
M  V30 518 H 47.625 -3.34527 2.47449 0
M  V30 519 H 46.501 -4.66257 2.89647 0
M  V30 520 H 46.762 -4.25262 1.20849 0
M  V30 521 N 45.8211 -1.22559 -0.990812 0
M  V30 522 C 46.7511 -1.0218 -2.09956 0
M  V30 523 C 47.7321 0.0579394 -1.70001 0
M  V30 524 O 48.9171 -0.104684 -1.93918 0
M  V30 525 C 46.0471 -0.601023 -3.4206 0
M  V30 526 C 45.0011 -1.62694 -3.95872 0
M  V30 527 C 44.3271 -1.06193 -5.24049 0
M  V30 528 C 45.6271 -3.01743 -4.2632 0
M  V30 529 H 47.3211 -1.94916 -2.27262 0
M  V30 530 H 44.8671 -0.938566 -1.09211 0
M  V30 531 H 46.8201 -0.445561 -4.19038 0
M  V30 532 H 45.5441 0.362005 -3.24588 0
M  V30 533 H 44.2031 -1.77021 -3.21028 0
M  V30 534 H 43.8511 -0.0901903 -5.02919 0
M  V30 535 H 43.5511 -1.74732 -5.61019 0
M  V30 536 H 45.0751 -0.918092 -6.03658 0
M  V30 537 H 46.4891 -2.90777 -4.94087 0
M  V30 538 H 44.8861 -3.67425 -4.74467 0
M  V30 539 H 45.9561 -3.51518 -3.34011 0
M  V30 540 N 47.2992 1.18797 -1.03562 0
M  V30 541 C 48.5482 1.87978 -0.731235 0
M  V30 542 C 48.8612 1.80911 0.743671 0
M  V30 543 O 50.0672 2.45407 1.16137 0
M  V30 544 C 48.5232 3.3721 -1.25768 0
M  V30 545 C 48.1312 3.52818 -2.76085 0
M  V30 546 C 49.8752 4.11825 -1.0296 0
M  V30 547 C 47.7822 4.9598 -3.22114 0
M  V30 548 H 46.7122 0.704063 -0.269835 0
M  V30 549 H 49.3632 1.34266 -1.25079 0
M  V30 550 H 47.7452 3.90359 -0.666011 0
M  V30 551 H 48.9192 3.09965 -3.40966 0
M  V30 552 H 47.2342 2.91602 -2.97249 0
M  V30 553 H 49.8312 5.17411 -1.34869 0
M  V30 554 H 50.1742 4.16287 0.0333546 0
M  V30 555 H 50.7072 3.64833 -1.58562 0
M  V30 556 H 47.4462 4.96684 -4.27768 0
M  V30 557 H 46.9662 5.39569 -2.61965 0
M  V30 558 H 48.6452 5.6467 -3.15844 0
M  V30 559 N 48.7773 0.814389 1.34928 0
M  V30 560 C 50.0253 0.397636 1.9815 0
M  V30 561 C 50.3463 -1.04069 1.64908 0
M  V30 562 O 49.6163 -1.72121 0.93548 0
M  V30 563 H 48.1963 0.144043 0.732981 0
M  V30 564 H 50.8583 1.04195 1.6471 0
M  V30 565 H 49.9543 0.509688 3.0791 0
M  V30 566 N 50.2554 -1.46986 0.568584 0
M  V30 567 C 51.1854 -2.32946 -0.160753 0
M  V30 568 C 52.1664 -1.44487 -0.897631 0
M  V30 569 O 53.3514 -1.73327 -0.875867 0
M  V30 570 C 50.4814 -3.26494 -1.18403 0
M  V30 571 C 49.4354 -4.24282 -0.562895 0
M  V30 572 C 48.7614 -5.07236 -1.69163 0
M  V30 573 C 50.0614 -5.19989 0.490761 0
M  V30 574 H 51.7554 -2.94175 0.556916 0
M  V30 575 H 49.3014 -1.4146 0.26927 0
M  V30 576 H 51.2544 -3.85477 -1.70251 0
M  V30 577 H 49.9784 -2.63343 -1.93179 0
M  V30 578 H 48.6374 -3.66541 -0.0656164 0
M  V30 579 H 48.2854 -4.4048 -2.42871 0
M  V30 580 H 47.9854 -5.7345 -1.28174 0
M  V30 581 H 49.5094 -5.6908 -2.21314 0
M  V30 582 H 50.9234 -5.73271 0.0579047 0
M  V30 583 H 49.3204 -5.94469 0.820165 0
M  V30 584 H 50.3904 -4.64777 1.3824 0
M  V30 585 N 51.7335 -0.305618 -1.54608 0
M  V30 586 C 52.9585 0.307562 -2.05107 0
M  V30 587 C 53.3835 1.46385 -1.18123 0
M  V30 588 O 52.7415 1.8034 -0.186324 0
M  V30 589 C 52.7895 0.73704 -3.52987 0
M  V30 590 O 51.8935 1.84134 -3.6901 0
M  V30 591 H 51.2345 0.0589143 -0.661381 0
M  V30 592 H 53.7645 -0.448807 -1.99617 0
M  V30 593 H 53.7745 1.02459 -3.94925 0
M  V30 594 H 52.4495 -0.108773 -4.15758 0
M  V30 595 H 51.0265 1.55398 -3.38978 0
M  V30 596 N 53.2116 1.57565 -0.0334293 0
M  V30 597 C 54.4586 1.91978 0.644272 0
M  V30 598 C 54.7866 0.910231 1.71887 0
M  V30 599 O 54.0416 -0.0801961 1.95536 0
M  V30 600 C 54.3406 3.33112 1.29504 0
M  V30 601 C 54.0066 4.49537 0.350388 0
M  V30 602 C 52.6686 4.81115 0.0903974 0
M  V30 603 C 55.0206 5.20347 -0.298032 0
M  V30 604 C 52.3486 5.8086 -0.825746 0
M  V30 605 C 54.7006 6.2107 -1.20226 0
M  V30 606 C 53.3646 6.51088 -1.4711 0
M  V30 607 H 52.6346 0.702496 0.235756 0
M  V30 608 H 55.2816 1.91259 -0.0961176 0
M  V30 609 H 53.5866 3.30113 2.11028 0
M  V30 610 H 55.2836 3.57011 1.82603 0
M  V30 611 H 51.8736 4.24883 0.563205 0
M  V30 612 H 56.0576 4.96178 -0.110234 0
M  V30 613 H 51.3136 6.02461 -1.04169 0
M  V30 614 H 55.4876 6.75057 -1.71086 0
M  V30 615 H 53.1146 7.28193 -2.18264 0
M  V30 616 N 54.6897 -0.239769 1.55765 0
M  V30 617 C 55.6197 -1.30052 1.9393 0
M  V30 618 C 56.6007 -1.49839 0.805132 0
M  V30 619 O 57.7857 -1.62328 1.06599 0
M  V30 620 C 54.9157 -2.65391 2.2402 0
M  V30 621 C 53.8697 -2.60289 3.39755 0
M  V30 622 C 53.1957 -3.99489 3.55405 0
M  V30 623 C 54.4957 -2.16654 4.75246 0
M  V30 624 H 56.1897 -0.983573 2.82783 0
M  V30 625 H 53.7357 -0.471701 1.36055 0
M  V30 626 H 55.6887 -3.3974 2.49308 0
M  V30 627 H 54.4127 -2.98736 1.32 0
M  V30 628 H 53.0717 -1.88398 3.14487 0
M  V30 629 H 52.7197 -4.30112 2.60793 0
M  V30 630 H 52.4197 -3.96962 4.33238 0
M  V30 631 H 53.9437 -4.75528 3.83022 0
M  V30 632 H 55.3577 -2.80737 4.99859 0
M  V30 633 H 53.7547 -2.25223 5.56232 0
M  V30 634 H 54.8247 -1.11835 4.71827 0
M  V30 635 N 56.1678 -1.49265 -0.50573 0
M  V30 636 C 57.4158 -1.582 -1.25766 0
M  V30 637 C 57.7368 -0.268482 -1.93143 0
M  V30 638 O 57.0068 0.711833 -1.8251 0
M  V30 639 H 55.5868 -0.582873 -0.467191 0
M  V30 640 H 58.2488 -1.85865 -0.586525 0
M  V30 641 H 57.3448 -2.37563 -2.02412 0
M  V30 642 N 57.6459 0.756429 -1.3826 0
M  V30 643 C 58.8939 1.51248 -1.34047 0
M  V30 644 C 59.2149 1.94875 0.0698372 0
M  V30 645 O 58.4849 1.67436 1.01696 0
M  V30 646 H 57.0649 0.561018 -0.493222 0
M  V30 647 H 59.7269 0.899347 -1.7291 0
M  V30 648 H 58.8229 2.40472 -1.98947 0
M  V30 649 N 59.124 1.23083 0.984299 0
M  V30 650 C 60.37 1.06214 1.72761 0
M  V30 651 C 60.703 -0.400584 1.90024 0
M  V30 652 O 59.978 -1.29672 1.44967 0
M  V30 653 C 60.261 1.78375 3.12817 0
M  V30 654 C 60.114 3.32296 3.03149 0
M  V30 655 C 61.433 1.54309 4.12161 0
M  V30 656 H 58.552 0.387251 0.627061 0
M  V30 657 H 61.194 1.51536 1.14616 0
M  V30 658 H 59.344 1.39848 3.62457 0
M  V30 659 H 61.016 3.8032 2.61064 0
M  V30 660 H 59.259 3.6153 2.39747 0
M  V30 661 H 59.93 3.77972 4.02295 0
M  V30 662 H 62.406 1.87791 3.71314 0
M  V30 663 H 61.282 2.07281 5.08258 0
M  V30 664 H 61.543 0.477572 4.39513 0
M  V30 665 N 60.6021 -1.18246 1.0419 0
M  V30 666 C 61.8301 -1.92195 0.766072 0
M  V30 667 C 62.2451 -1.76247 -0.676933 0
M  V30 668 O 61.6021 -1.09293 -1.46155 0
M  V30 669 C 61.6531 -3.43568 1.12442 0
M  V30 670 O 61.3741 -3.59015 2.51078 0
M  V30 671 C 62.8751 -4.34613 0.873275 0
M  V30 672 H 60.0951 -0.610114 0.279288 0
M  V30 673 H 62.6391 -1.50007 1.38989 0
M  V30 674 H 60.7941 -3.8354 0.545542 0
M  V30 675 H 61.2081 -4.5273 2.64831 0
M  V30 676 H 62.6821 -5.39374 1.17385 0
M  V30 677 H 63.1591 -4.38781 -0.191909 0
M  V30 678 H 63.7651 -4.00341 1.43551 0
M  V30 679 N 62.0802 -0.821533 -1.34494 0
M  V30 680 C 63.0122 -0.199946 -2.28326 0
M  V30 681 C 64.0252 0.609377 -1.50965 0
M  V30 682 O 65.2142 0.439285 -1.7301 0
M  V30 683 C 62.3142 0.738431 -3.30757 0
M  V30 684 C 61.4872 -0.0277632 -4.37391 0
M  V30 685 C 60.5462 0.831332 -5.19591 0
M  V30 686 O 59.5722 0.276822 -5.68526 0
M  V30 687 N 60.7742 2.15132 -5.39165 0
M  V30 688 H 63.5392 -1.00609 -2.82308 0
M  V30 689 H 61.1002 -0.678366 -1.47003 0
M  V30 690 H 63.0922 1.31773 -3.82646 0
M  V30 691 H 61.6622 1.44533 -2.7718 0
M  V30 692 H 60.8822 -0.788359 -3.86236 0
M  V30 693 H 62.1702 -0.555251 -5.05761 0
M  V30 694 H 61.5682 2.62559 -5.01078 0
M  V30 695 H 60.1252 2.6795 -5.94177 0
M  V30 696 N 63.5583 1.46682 -0.576371 0
M  V30 697 C 64.8063 2.02013 -0.0594163 0
M  V30 698 C 65.1273 1.45101 1.30271 0
M  V30 699 O 64.3973 0.633317 1.8538 0
M  V30 700 H 62.9773 0.746759 -0.0189745 0
M  V30 701 H 65.6393 1.79862 -0.750717 0
M  V30 702 H 64.7353 3.12097 0.014345 0
M  V30 703 N 65.0364 0.313813 1.54444 0
M  V30 704 C 65.9844 -0.572171 2.25453 0
M  V30 705 C 66.9784 -1.12657 1.2651 0
M  V30 706 O 68.1844 -1.07573 1.44319 0
M  V30 707 H 64.5594 -0.203146 0.724041 0
M  V30 708 H 66.5304 0.0491145 2.9836 0
M  V30 709 C 65.2794 -1.72626 3.0182 0
M  V30 710 H 64.6024 -1.30891 3.77767 0
M  V30 711 H 66.0424 -2.32199 3.54767 0
M  V30 712 C 64.5014 -2.63806 2.09542 0
M  V30 713 O 65.0314 -3.65256 1.67185 0
M  V30 714 N 63.2374 -2.31824 1.75232 0
M  V30 715 H 62.7844 -1.49368 2.09873 0
M  V30 716 H 62.7424 -2.93095 1.13767 0
M  V30 717 N 66.5145 -1.57545 0.0417849 0
M  V30 718 C 67.4445 -2.14009 -0.933929 0
M  V30 719 C 68.4255 -1.05938 -1.33083 0
M  V30 720 O 69.6105 -1.33833 -1.40721 0
M  V30 721 C 66.7405 -2.67747 -2.21199 0
M  V30 722 C 65.6945 -3.80718 -1.95544 0
M  V30 723 C 65.0205 -4.20935 -3.29724 0
M  V30 724 C 66.3205 -5.06258 -1.28452 0
M  V30 725 H 68.0145 -2.95788 -0.463645 0
M  V30 726 H 65.5605 -1.42285 -0.221573 0
M  V30 727 H 67.5135 -3.05886 -2.89848 0
M  V30 728 H 66.2375 -1.83147 -2.70416 0
M  V30 729 H 64.8965 -3.43037 -1.2931 0
M  V30 730 H 64.5445 -3.33298 -3.76724 0
M  V30 731 H 64.2445 -4.9707 -3.13361 0
M  V30 732 H 65.7685 -4.61666 -3.9962 0
M  V30 733 H 67.1825 -5.41903 -1.8712 0
M  V30 734 H 65.5795 -5.87475 -1.22445 0
M  V30 735 H 66.6495 -4.84207 -0.259219 0
M  V30 736 N 67.9926 0.231505 -1.5589 0
M  V30 737 C 68.9406 1.30649 -1.92441 0
M  V30 738 C 69.9346 1.49037 -0.805254 0
M  V30 739 O 71.1406 1.50329 -0.990007 0
M  V30 740 H 67.5156 0.437812 -0.611412 0
M  V30 741 H 69.4866 0.970973 -2.82161 0
M  V30 742 C 68.2356 2.65179 -2.24889 0
M  V30 743 H 67.5586 2.51835 -3.10514 0
M  V30 744 H 68.9986 3.39234 -2.54355 0
M  V30 745 C 67.4576 3.19439 -1.07054 0
M  V30 746 O 67.9876 4.00371 -0.326499 0
M  V30 747 N 66.1936 2.77675 -0.85703 0
M  V30 748 H 65.7406 2.11969 -1.46379 0
M  V30 749 H 65.6986 3.14321 -0.0703223 0
M  V30 750 N 69.4707 1.49531 0.497807 0
M  V30 751 C 70.7197 1.58426 1.24837 0
M  V30 752 C 71.0327 0.277643 1.93619 0
M  V30 753 O 72.2387 0.24517 2.70391 0
M  V30 754 C 70.6947 2.79538 2.26686 0
M  V30 755 C 70.3027 4.16971 1.63828 0
M  V30 756 C 72.0467 2.97764 3.0255 0
M  V30 757 C 69.9537 5.29301 2.63807 0
M  V30 758 H 68.8837 0.58989 0.469623 0
M  V30 759 H 71.5347 1.75923 0.521857 0
M  V30 760 H 69.9167 2.55542 3.02514 0
M  V30 761 H 71.0907 4.51116 0.939711 0
M  V30 762 H 69.4057 4.04129 1.00342 0
M  V30 763 H 72.0027 3.78856 3.77323 0
M  V30 764 H 72.3457 2.08448 3.60354 0
M  V30 765 H 72.8787 3.21815 2.33838 0
M  V30 766 H 69.6177 6.20687 2.10779 0
M  V30 767 H 69.1377 4.99606 3.31894 0
M  V30 768 H 70.8167 5.58768 3.2617 0
M  V30 769 N 70.9488 -0.749086 1.3866 0
M  V30 770 C 72.1958 -1.50833 1.35114 0
M  V30 771 C 72.5238 -1.94415 -0.0574049 0
M  V30 772 O 71.7788 -1.66065 -1.03541 0
M  V30 773 C 72.0778 -2.7712 2.25697 0
M  V30 774 C 71.7438 -2.52477 3.73585 0
M  V30 775 C 70.4058 -2.45466 4.13884 0
M  V30 776 C 72.7578 -2.31066 4.67181 0
M  V30 777 C 70.0858 -2.15064 5.45861 0
M  V30 778 C 72.4378 -2.02183 5.9942 0
M  V30 779 C 71.1018 -1.93631 6.38798 0
M  V30 780 H 70.3718 -0.551936 0.494416 0
M  V30 781 H 73.0188 -0.860979 1.71054 0
M  V30 782 H 71.3238 -3.46528 1.82827 0
M  V30 783 H 73.0208 -3.35096 2.20254 0
M  V30 784 H 69.6108 -2.58807 3.41638 0
M  V30 785 H 73.7948 -2.35459 4.3689 0
M  V30 786 H 69.0508 -2.06954 5.75308 0
M  V30 787 H 73.2248 -1.8462 6.71482 0
M  V30 788 H 70.8518 -1.69839 7.40985 0
M  V30 789 N 72.4269 -1.23603 -0.977757 0
M  V30 790 C 73.3369 -1.03632 -2.1047 0
M  V30 791 C 74.3529 0.0199435 -1.73989 0
M  V30 792 O 75.5289 -0.176076 -2.00629 0
M  V30 793 C 72.5939 -0.63276 -3.40877 0
M  V30 794 C 71.6549 -1.76437 -3.91367 0
M  V30 795 C 70.8879 -1.37997 -5.15551 0
M  V30 796 O 71.1109 -0.265357 -5.69782 0
M  V30 797 O 70.0449 -2.20201 -5.60174 0
M  V30 798 H 73.8709 -1.98086 -2.30208 0
M  V30 799 H 71.4559 -1.02332 -1.08851 0
M  V30 800 H 73.3379 -0.418761 -4.19314 0
M  V30 801 H 72.0129 0.282754 -3.22463 0
M  V30 802 H 70.9199 -2.03304 -3.14036 0
M  V30 803 H 72.2529 -2.6583 -4.14241 0
M  V30 804 N 73.905 1.17692 -1.04816 0
M  V30 805 C 74.815 2.25229 -0.65643 0
M  V30 806 C 75.831 1.71018 0.320761 0
M  V30 807 O 77.007 2.00649 0.173805 0
M  V30 808 C 74.072 3.46684 -0.0332629 0
M  V30 809 C 73.133 4.15997 -1.06042 0
M  V30 810 C 72.366 5.31654 -0.466893 0
M  V30 811 O 72.589 5.65777 0.724758 0
M  V30 812 O 71.523 5.89831 -1.1993 0
M  V30 813 H 75.349 2.61016 -1.55255 0
M  V30 814 H 72.934 1.24919 -0.81949 0
M  V30 815 H 74.816 4.20234 0.313256 0
M  V30 816 H 73.491 3.12703 0.836566 0
M  V30 817 H 72.398 3.44482 -1.45886 0
M  V30 818 H 73.731 4.53996 -1.90127 0
M  V30 819 N 75.3831 0.828654 1.34056 0
M  V30 820 C 76.6081 0.431637 2.02859 0
M  V30 821 C 77.0331 -0.956339 1.61975 0
M  V30 822 O 76.3911 -1.62338 0.807228 0
M  V30 823 C 76.4391 0.548323 3.56407 0
M  V30 824 O 75.5431 -0.429556 4.10157 0
M  V30 825 H 74.8841 0.176886 0.640006 0
M  V30 826 H 77.4141 1.12066 1.71179 0
M  V30 827 H 77.4241 0.426196 4.05768 0
M  V30 828 H 76.0991 1.5606 3.8551 0
M  V30 829 H 74.6761 -0.265836 3.71951 0
M  V30 830 N 76.8612 -1.46375 0.584142 0
M  V30 831 C 78.1102 -2.01585 0.0679741 0
M  V30 832 C 78.4232 -1.46109 -1.30045 0
M  V30 833 O 79.6292 -1.93148 -1.90804 0
M  V30 834 C 78.0852 -3.5983 0.0709207 0
M  V30 835 C 77.6932 -4.24303 1.43775 0
M  V30 836 C 79.4372 -4.22693 -0.391228 0
M  V30 837 C 77.3442 -5.74631 1.39834 0
M  V30 838 H 76.2742 -0.753689 0.0216421 0
M  V30 839 H 78.9252 -1.68093 0.736001 0
M  V30 840 H 77.3072 -3.90405 -0.663299 0
M  V30 841 H 78.4812 -4.05335 2.19181 0
M  V30 842 H 76.7962 -3.73539 1.84004 0
M  V30 843 H 79.3932 -5.3289 -0.439524 0
M  V30 844 H 79.7362 -3.91728 -1.40906 0
M  V30 845 H 80.2692 -3.96749 0.288974 0
M  V30 846 H 77.0082 -6.10258 2.39303 0
M  V30 847 H 76.5282 -5.95858 0.686505 0
M  V30 848 H 78.2072 -6.37375 1.11187 0
M  V30 849 N 78.3393 -0.321999 -1.54275 0
M  V30 850 C 79.5853 0.281461 -2.00837 0
M  V30 851 C 79.9183 1.51909 -1.20985 0
M  V30 852 O 79.1933 1.923 -0.291733 0
M  V30 853 C 79.4763 0.617162 -3.54772 0
M  V30 854 C 79.3293 -0.631064 -4.45351 0
M  V30 855 C 80.6483 1.43542 -4.16033 0
M  V30 856 H 77.7673 0.100826 -0.730071 0
M  V30 857 H 80.4093 -0.438268 -1.84876 0
M  V30 858 H 78.5593 1.23034 -3.68504 0
M  V30 859 H 80.2313 -1.26934 -4.43492 0
M  V30 860 H 78.4743 -1.26025 -4.15091 0
M  V30 861 H 79.1453 -0.351735 -5.50878 0
M  V30 862 H 81.6213 0.917134 -4.05867 0
M  V30 863 H 80.4973 1.63907 -5.23856 0
M  V30 864 H 80.7583 2.43108 -3.69257 0
M  V30 865 N 79.8174 1.5752 -0.0501392 0
M  V30 866 C 80.7804 2.1037 0.909786 0
M  V30 867 C 81.7804 1.02308 1.24056 0
M  V30 868 O 82.9704 1.28385 1.17741 0
M  V30 869 C 80.1024 2.58708 2.21998 0
M  V30 870 H 81.2954 2.96479 0.451665 0
M  V30 871 H 78.8484 1.55038 0.198248 0
M  V30 872 H 79.5834 1.75989 2.72394 0
M  V30 873 H 79.3684 3.37675 1.99295 0
M  V30 874 H 80.8584 2.99747 2.9076 0
M  V30 875 N 81.2955 -0.223234 1.56011 0
M  V30 876 C 82.2585 -1.26014 1.9145 0
M  V30 877 C 83.2585 -1.3989 0.792937 0
M  V30 878 O 84.4485 -1.38184 1.0607 0
M  V30 879 C 81.5805 -2.63422 2.16383 0
M  V30 880 H 82.7735 -0.95796 2.84189 0
M  V30 881 H 80.3265 -0.463576 1.49267 0
M  V30 882 H 81.0615 -2.98741 1.2619 0
M  V30 883 H 80.8465 -2.54728 2.98088 0
M  V30 884 H 82.3365 -3.38249 2.44903 0
M  V30 885 N 82.7736 -1.49793 -0.48987 0
M  V30 886 C 83.9986 -1.63836 -1.27172 0
M  V30 887 C 84.4236 -0.31402 -1.8546 0
M  V30 888 O 83.7816 0.719803 -1.66399 0
M  V30 889 C 83.8296 -2.71797 -2.36978 0
M  V30 890 O 82.9336 -2.31744 -3.41128 0
M  V30 891 H 82.2746 -0.547997 -0.37496 0
M  V30 892 H 84.8046 -1.96053 -0.585191 0
M  V30 893 H 84.8146 -2.94305 -2.82575 0
M  V30 894 H 83.4896 -3.67923 -1.93921 0
M  V30 895 H 82.0666 -2.1961 -3.01373 0
M  V30 896 N 84.2517 0.741722 -1.39055 0
M  V30 897 C 85.4797 1.53098 -1.39171 0
M  V30 898 C 85.8947 1.88794 0.0155099 0
M  V30 899 O 85.2517 1.53626 0.985159 0
M  V30 900 C 85.3027 2.82274 -2.2584 0
M  V30 901 O 85.0237 2.48097 -3.61081 0
M  V30 902 C 86.5247 3.76343 -2.34266 0
M  V30 903 H 83.7447 0.473335 -0.4756 0
M  V30 904 H 86.2887 0.917045 -1.82785 0
M  V30 905 H 84.4437 3.40015 -1.85656 0
M  V30 906 H 84.8577 3.31029 -4.06842 0
M  V30 907 H 86.3317 4.63898 -2.9917 0
M  V30 908 H 86.8087 4.17619 -1.35982 0
M  V30 909 H 87.4147 3.24523 -2.74891 0
M  V30 910 N 85.7298 1.2412 0.971189 0
M  V30 911 C 86.9788 1.07284 1.70801 0
M  V30 912 C 87.2918 -0.388902 1.91695 0
M  V30 913 O 88.4978 -0.677379 2.62914 0
M  V30 914 C 86.9538 1.87145 3.07416 0
M  V30 915 C 86.5618 3.37707 2.94377 0
M  V30 916 C 88.3058 1.78828 3.84995 0
M  V30 917 C 86.2128 4.09925 4.26281 0
M  V30 918 H 85.1428 0.397854 0.64049 0
M  V30 919 H 87.7938 1.4817 1.0825 0
M  V30 920 H 86.1758 1.39071 3.70777 0
M  V30 921 H 87.3498 3.93335 2.4005 0
M  V30 922 H 85.6648 3.46938 2.30267 0
M  V30 923 H 88.2618 2.30089 4.82662 0
M  V30 924 H 88.6048 0.75284 4.09436 0
M  V30 925 H 89.1378 2.24563 3.28354 0
M  V30 926 H 85.8768 5.13813 4.07033 0
M  V30 927 H 85.3968 3.59083 4.80437 0
M  V30 928 H 87.0758 4.1673 4.94919 0
M  V30 929 N 87.2079 -1.17134 1.05439 0
M  V30 930 C 88.6189 -1.69084 0.791676 0
M  V30 931 C 88.9699 -1.83822 -0.685839 0
M  V30 932 O 88.0949 -1.52757 -1.53278 0
M  V30 933 C 88.6899 -3.07119 1.4305 0
M  V30 934 C 87.2489 -3.56225 1.21577 0
M  V30 935 C 86.3959 -2.32421 1.51247 0
M  V30 936 H 89.3469 -1.01617 1.219 0
M  V30 937 H 89.3679 -3.71087 0.84112 0
M  V30 938 H 88.8799 -2.9636 2.50584 0
M  V30 939 H 86.9809 -3.72257 0.159787 0
M  V30 940 H 87.0939 -4.38837 1.92246 0
M  V30 941 H 85.4579 -2.3701 0.932653 0
M  V30 942 H 86.2409 -2.24268 2.5992 0
M  V30 943 N 88.686 -0.835752 -1.33615 0
M  V30 944 C 89.934 -0.429109 -1.97492 0
M  V30 945 C 90.255 1.01433 -1.66543 0
M  V30 946 O 89.525 1.70611 -0.962744 0
M  V30 947 H 88.105 -0.155686 -0.730596 0
M  V30 948 H 90.767 -1.06802 -1.63031 0
M  V30 949 H 89.863 -0.55861 -3.0706 0
M  V30 950 N 90.1641 1.46063 -0.591896 0
M  V30 951 C 91.3891 2.07226 -0.0850314 0
M  V30 952 C 91.8141 1.43625 1.21463 0
M  V30 953 O 91.1721 0.523305 1.73583 0
M  V30 954 C 91.2201 3.60554 0.0576567 0
M  V30 955 O 90.3241 3.97128 1.11188 0
M  V30 956 H 89.6651 0.660615 -0.0669568 0
M  V30 957 H 92.1951 1.8756 -0.81745 0
M  V30 958 H 92.2051 4.07165 0.2609 0
M  V30 959 H 90.8801 4.06235 -0.891416 0
M  V30 960 H 89.4571 3.62213 0.886356 0
M  V30 961 N 91.6422 0.330177 1.54103 0
M  V30 962 C 92.6052 -0.520144 2.2322 0
M  V30 963 C 93.6052 -1.03828 1.22786 0
M  V30 964 O 94.7952 -0.929652 1.4732 0
M  V30 965 C 91.9272 -1.72317 2.94142 0
M  V30 966 H 93.1202 0.0841605 2.99782 0
M  V30 967 H 90.6732 0.0813433 1.56088 0
M  V30 968 H 91.4082 -2.36653 2.21734 0
M  V30 969 H 91.1932 -1.35898 3.67796 0
M  V30 970 H 92.6832 -2.3266 3.46784 0
M  V30 971 N 93.1203 -1.57491 0.0584922 0
M  V30 972 C 94.0833 -2.1085 -0.898617 0
M  V30 973 C 95.0833 -1.02964 -1.23511 0
M  V30 974 O 96.2733 -1.29007 -1.17059 0
M  V30 975 C 93.4053 -2.59881 -2.20623 0
M  V30 976 H 94.5983 -2.96715 -0.435936 0
M  V30 977 H 92.1513 -1.55141 -0.190023 0
M  V30 978 H 92.8863 -1.77431 -2.71457 0
M  V30 979 H 92.6713 -3.38727 -1.97501 0
M  V30 980 H 94.1613 -3.01285 -2.89166 0
M  V30 981 N 94.5984 0.214957 -1.56127 0
M  V30 982 C 95.8264 0.955092 -1.83536 0
M  V30 983 C 96.2414 1.77677 -0.638472 0
M  V30 984 O 95.5984 1.78219 0.392968 0
M  V30 985 C 95.6494 1.86734 -3.09536 0
M  V30 986 O 95.3704 1.07887 -4.24608 0
M  V30 987 C 96.8714 2.72082 -3.4998 0
M  V30 988 H 94.0914 0.279611 -0.609966 0
M  V30 989 H 96.6354 0.228197 -2.03223 0
M  V30 990 H 94.7904 2.5481 -2.91806 0
M  V30 991 H 95.2044 1.69872 -4.9623 0
M  V30 992 H 96.6784 3.31782 -4.41163 0
M  V30 993 H 97.1554 3.44806 -2.7204 0
M  V30 994 H 97.7614 2.09409 -3.70173 0
M  V30 995 N 96.0765 1.50051 0.48192 0
M  V30 996 C 97.0065 1.71046 1.58951 0
M  V30 997 C 97.9875 0.559288 1.60642 0
M  V30 998 O 99.1725 0.797243 1.77081 0
M  V30 999 C 96.3025 1.79462 2.97339 0
M  V30 1000 C 95.2565 2.94558 3.10515 0
M  V30 1001 C 94.5825 2.88105 4.50444 0
M  V30 1002 C 95.8825 4.35227 2.88747 0
M  V30 1003 H 97.5765 2.6378 1.41635 0
M  V30 1004 H 95.1225 1.26936 0.679942 0
M  V30 1005 H 97.0755 1.92734 3.74742 0
M  V30 1006 H 95.7995 0.833412 3.15788 0
M  V30 1007 H 94.4585 2.80918 2.35543 0
M  V30 1008 H 94.1065 1.89853 4.65795 0
M  V30 1009 H 93.8065 3.65366 4.60197 0
M  V30 1010 H 95.3305 3.03412 5.29881 0
M  V30 1011 H 96.7445 4.49449 3.55905 0
M  V30 1012 H 95.1415 5.13856 3.09955 0
M  V30 1013 H 96.2115 4.48347 1.84696 0
M  V30 1014 N 97.5546 -0.734337 1.39446 0
M  V30 1015 C 98.5026 -1.86971 1.38364 0
M  V30 1016 C 99.4966 -1.67288 0.266687 0
M  V30 1017 O 100.703 -1.74621 0.436755 0
M  V30 1018 H 97.0776 -0.615474 0.432082 0
M  V30 1019 H 99.0486 -1.85 2.34132 0
M  V30 1020 C 97.7976 -3.2466 1.24465 0
M  V30 1021 H 97.1206 -3.40402 2.09682 0
M  V30 1022 H 98.5606 -4.04292 1.27764 0
M  V30 1023 C 97.0196 -3.36867 -0.0468674 0
M  V30 1024 O 97.5496 -3.88618 -1.01681 0
M  V30 1025 N 95.7556 -2.90391 -0.110145 0
M  V30 1026 H 95.3026 -2.48466 0.679868 0
M  V30 1027 H 95.2606 -2.98939 -0.973799 0
M  V30 1028 N 99.0327 -1.24633 -0.964593 0
M  V30 1029 C 100.261 -1.11501 -1.74285 0
M  V30 1030 C 100.676 0.332165 -1.85855 0
M  V30 1031 O 100.033 1.22903 -1.34911 0
M  V30 1032 C 100.084 -1.75258 -3.16175 0
M  V30 1033 O 99.8047 -3.14318 -3.05182 0
M  V30 1034 C 101.306 -1.67776 -4.10324 0
M  V30 1035 H 98.5257 -0.389407 -0.546446 0
M  V30 1036 H 101.07 -1.64801 -1.21083 0
M  V30 1037 H 99.2247 -1.25954 -3.66353 0
M  V30 1038 H 99.6387 -3.4551 -3.94618 0
M  V30 1039 H 101.113 -2.17064 -5.0753 0
M  V30 1040 H 101.59 -0.639584 -4.34518 0
M  V30 1041 H 102.196 -2.16522 -3.66058 0
M  V30 1042 N 100.511 1.16574 -1.06058 0
M  V30 1043 C 101.736 1.91493 -0.796562 0
M  V30 1044 C 102.161 1.76773 0.642868 0
M  V30 1045 O 101.519 1.09142 1.44768 0
M  V30 1046 C 101.567 3.40293 -1.19303 0
M  V30 1047 O 100.671 4.11074 -0.330394 0
M  V30 1048 H 100.012 0.596678 -0.291326 0
M  V30 1049 H 102.542 1.47708 -1.41575 0
M  V30 1050 H 102.552 3.91057 -1.16356 0
M  V30 1051 H 101.227 3.50326 -2.24153 0
M  V30 1052 H 99.8038 3.70513 -0.421225 0
M  V30 1053 N 101.989 0.842826 1.3317 0
M  V30 1054 C 103.238 0.436738 1.96915 0
M  V30 1055 C 103.551 -1.01025 1.67491 0
M  V30 1056 O 104.757 -1.5212 2.24881 0
M  V30 1057 C 103.213 0.730021 3.52418 0
M  V30 1058 C 102.821 2.19195 3.90714 0
M  V30 1059 C 104.565 0.391076 4.22695 0
M  V30 1060 C 102.472 2.42907 5.39212 0
M  V30 1061 H 101.402 0.15958 0.736919 0
M  V30 1062 H 104.053 1.03196 1.51733 0
M  V30 1063 H 102.435 0.0643755 3.95948 0
M  V30 1064 H 103.609 2.8984 3.58231 0
M  V30 1065 H 101.924 2.49425 3.33431 0
M  V30 1066 H 104.521 0.545817 5.31907 0
M  V30 1067 H 104.864 -0.666294 4.10933 0
M  V30 1068 H 105.397 1.01212 3.84709 0
M  V30 1069 H 102.136 3.47224 5.55982 0
M  V30 1070 H 101.656 1.76827 5.73142 0
M  V30 1071 H 103.335 2.2626 6.06148 0
M  V30 1072 N 103.467 -1.45747 0.599634 0
M  V30 1073 C 104.695 -2.06668 0.0978551 0
M  V30 1074 C 105.11 -1.44562 -1.21439 0
M  V30 1075 O 104.467 -0.556923 -1.73795 0
M  V30 1076 C 104.518 -3.61456 -0.0567044 0
M  V30 1077 O 104.239 -4.21242 1.20361 0
M  V30 1078 C 105.74 -4.39345 -0.590869 0
M  V30 1079 H 102.96 -0.667825 0.0651943 0
M  V30 1080 H 105.504 -1.87115 0.82511 0
M  V30 1081 H 103.659 -3.80378 -0.734251 0
M  V30 1082 H 104.073 -5.14323 1.02821 0
M  V30 1083 H 105.547 -5.48182 -0.648131 0
M  V30 1084 H 106.024 -4.08568 -1.61147 0
M  V30 1085 H 106.63 -4.25268 0.0523679 0
M  V30 1086 N 104.945 -0.338344 -1.53925 0
M  V30 1087 C 105.892 0.520845 -2.24846 0
M  V30 1088 C 106.862 1.09976 -1.24477 0
M  V30 1089 O 108.047 1.13735 -1.53196 0
M  V30 1090 C 105.187 1.6685 -3.02084 0
M  V30 1091 C 104.3 1.11739 -4.17299 0
M  V30 1092 C 103.435 2.23193 -4.82036 0
M  V30 1093 C 102.474 1.65407 -5.89328 0
M  V30 1094 N 101.611 2.70582 -6.47866 0
M  V30 1095 H 106.451 -0.0904881 -2.97863 0
M  V30 1096 H 103.988 -0.0564282 -1.46992 0
M  V30 1097 H 105.946 2.34407 -3.45122 0
M  V30 1098 H 104.576 2.2509 -2.31375 0
M  V30 1099 H 103.628 0.332919 -3.7894 0
M  V30 1100 H 104.94 0.654677 -4.94485 0
M  V30 1101 H 104.094 2.98626 -5.28117 0
M  V30 1102 H 102.833 2.72807 -4.04262 0
M  V30 1103 H 101.838 0.884779 -5.42634 0
M  V30 1104 H 103.063 1.16652 -6.69006 0
M  V30 1105 H 101.009 3.1946 -5.72959 0
M  V30 1106 H 100.926 2.28917 -7.20509 0
M  V30 1107 H 102.194 3.45799 -6.98601 0
M  V30 1108 N 106.423 1.57458 -0.0668435 0
M  V30 1109 C 107.371 2.13639 0.919851 0
M  V30 1110 C 108.365 1.07204 1.31163 0
M  V30 1111 O 109.571 1.25591 1.28945 0
M  V30 1112 H 105.946 0.683048 0.314562 0
M  V30 1113 H 107.917 2.95415 0.421047 0
M  V30 1114 C 106.666 2.70892 2.17975 0
M  V30 1115 H 105.989 3.5246 1.88711 0
M  V30 1116 H 107.429 3.13803 2.85138 0
M  V30 1117 C 105.888 1.65414 2.93496 0
M  V30 1118 O 106.418 1.07619 3.87015 0
M  V30 1119 N 104.624 1.36564 2.56512 0
M  V30 1120 H 104.171 1.83751 1.80536 0
M  V30 1121 H 104.129 0.66223 3.07347 0
M  V30 1122 N 107.901 -0.206675 1.56239 0
M  V30 1123 C 109.15 -0.926964 1.79138 0
M  V30 1124 C 109.463 -1.84901 0.638043 0
M  V30 1125 O 110.669 -2.60906 0.751033 0
M  V30 1126 C 109.125 -1.6986 3.17294 0
M  V30 1127 C 108.733 -0.821956 4.40395 0
M  V30 1128 C 110.477 -2.40922 3.4951 0
M  V30 1129 C 108.384 -1.59179 5.69575 0
M  V30 1130 H 107.314 -0.349864 0.667915 0
M  V30 1131 H 109.965 -0.180487 1.8261 0
M  V30 1132 H 108.347 -2.48853 3.08039 0
M  V30 1133 H 109.521 -0.0715019 4.60745 0
M  V30 1134 H 107.836 -0.222741 4.15804 0
M  V30 1135 H 110.433 -2.99047 4.43255 0
M  V30 1136 H 110.776 -3.14542 2.72707 0
M  V30 1137 H 111.309 -1.68905 3.60161 0
M  V30 1138 H 108.048 -0.898589 6.49312 0
M  V30 1139 H 107.568 -2.31648 5.53262 0
M  V30 1140 H 109.247 -2.14862 6.10281 0
M  V30 1141 N 109.379 -1.50304 -0.473955 0
M  V30 1142 C 110.311 -1.65109 -1.58971 0
M  V30 1143 C 111.324 -0.532676 -1.53839 0
M  V30 1144 O 112.513 -0.805751 -1.59279 0
M  V30 1145 C 109.613 -1.61684 -2.97845 0
M  V30 1146 C 108.786 -2.8951 -3.27876 0
M  V30 1147 C 107.845 -2.78768 -4.4629 0
M  V30 1148 O 106.871 -3.52722 -4.46739 0
M  V30 1149 N 108.073 -1.9213 -5.47783 0
M  V30 1150 H 110.838 -2.61347 -1.46689 0
M  V30 1151 H 108.399 -1.47732 -0.662324 0
M  V30 1152 H 110.391 -1.52114 -3.75024 0
M  V30 1153 H 108.961 -0.731925 -3.03911 0
M  V30 1154 H 108.181 -3.13228 -2.39336 0
M  V30 1155 H 109.469 -3.74199 -3.4475 0
M  V30 1156 H 108.867 -1.31353 -5.50239 0
M  V30 1157 H 107.424 -1.88466 -6.23958 0
M  V30 1158 N 110.857 0.726932 -1.39834 0
M  V30 1159 C 111.805 1.86235 -1.39353 0
M  V30 1160 C 112.799 1.67144 -0.275555 0
M  V30 1161 O 114.005 1.74387 -0.44601 0
M  V30 1162 H 110.38 0.613174 -0.43534 0
M  V30 1163 H 112.351 1.83756 -2.35109 0
M  V30 1164 C 111.1 3.23995 -1.26185 0
M  V30 1165 H 110.423 3.39285 -2.11484 0
M  V30 1166 H 111.863 4.03609 -1.29907 0
M  V30 1167 C 110.322 3.36888 0.0290018 0
M  V30 1168 O 110.852 3.89152 0.99619 0
M  V30 1169 N 109.058 2.90446 0.0947437 0
M  V30 1170 H 108.605 2.48102 -0.693035 0
M  V30 1171 H 108.563 2.99451 0.957932 0
M  V30 1172 N 112.336 1.25143 0.95797 0
M  V30 1173 C 113.584 1.09476 1.69881 0
M  V30 1174 C 113.905 -0.365502 1.91544 0
M  V30 1175 O 113.175 -1.25985 1.50015 0
M  V30 1176 H 111.755 0.402128 0.629525 0
M  V30 1177 H 114.417 1.57214 1.15194 0
M  V30 1178 H 113.513 1.60046 2.6794 0
M  V30 1179 N 113.814 -1.1601 1.06675 0
M  V30 1180 C 114.762 -2.22586 0.675157 0
M  V30 1181 C 115.756 -1.66525 -0.310766 0
M  V30 1182 O 116.962 -1.79145 -0.175215 0
M  V30 1183 H 113.337 -0.724855 0.200223 0
M  V30 1184 H 115.308 -2.52899 1.58381 0
M  V30 1185 C 114.057 -3.47604 0.0817162 0
M  V30 1186 H 113.38 -3.91058 0.831484 0
M  V30 1187 H 114.82 -4.23718 -0.154708 0
M  V30 1188 C 113.279 -3.15718 -1.17576 0
M  V30 1189 O 113.809 -3.31878 -2.26318 0
M  V30 1190 N 112.015 -2.69816 -1.07923 0
M  V30 1191 H 111.562 -2.56866 -0.194293 0
M  V30 1192 H 111.52 -2.48855 -1.92141 0
M  V30 1193 N 115.292 -0.849877 -1.32721 0
M  V30 1194 C 116.255 -0.296122 -2.27279 0
M  V30 1195 C 117.255 0.541458 -1.5141 0
M  V30 1196 O 118.445 0.353658 -1.70572 0
M  V30 1197 C 115.577 0.581579 -3.35902 0
M  V30 1198 H 116.77 -1.13064 -2.77771 0
M  V30 1199 H 114.323 -0.62383 -1.43311 0
M  V30 1200 H 115.058 1.43809 -2.9067 0
M  V30 1201 H 114.843 -0.0178814 -3.92096 0
M  V30 1202 H 116.333 0.961951 -4.0637 0
M  V30 1203 N 116.77 1.45427 -0.607355 0
M  V30 1204 C 118 2.06314 -0.108656 0
M  V30 1205 C 118.408 1.45269 1.21217 0
M  V30 1206 O 117.751 0.561115 1.74921 0
M  V30 1207 C 117.813 3.59345 0.105618 0
M  V30 1208 C 117.477 4.42723 -1.13337 0
M  V30 1209 C 118.474 4.77715 -2.05145 0
M  V30 1210 C 116.159 4.83478 -1.36213 0
M  V30 1211 C 118.153 5.52317 -3.18158 0
M  V30 1212 C 115.84 5.57835 -2.49527 0
M  V30 1213 C 116.838 5.92171 -3.40327 0
M  V30 1214 O 116.526 6.65019 -4.51669 0
M  V30 1215 H 116.258 0.672782 -0.0658842 0
M  V30 1216 H 118.812 1.87664 -0.834945 0
M  V30 1217 H 117.042 3.76394 0.886796 0
M  V30 1218 H 118.731 4.02076 0.555886 0
M  V30 1219 H 119.497 4.46787 -1.88697 0
M  V30 1220 H 115.376 4.56188 -0.664362 0
M  V30 1221 H 118.92 5.79036 -3.89054 0
M  V30 1222 H 114.817 5.88177 -2.65928 0
M  V30 1223 H 115.585 6.83469 -4.50348 0
M  V30 1224 N 118.248 0.346503 1.53744 0
M  V30 1225 C 119.497 -0.250122 2.00143 0
M  V30 1226 C 119.81 -1.51418 1.23822 0
M  V30 1227 O 121.016 -2.18823 1.60713 0
M  V30 1228 C 119.472 -0.496252 3.56462 0
M  V30 1229 C 119.08 0.752077 4.41642 0
M  V30 1230 C 120.824 -1.05157 4.11269 0
M  V30 1231 C 118.731 0.476583 5.89477 0
M  V30 1232 H 117.661 -0.0972409 0.747703 0
M  V30 1233 H 120.312 0.46229 1.77581 0
M  V30 1234 H 118.694 -1.26944 3.75102 0
M  V30 1235 H 119.868 1.5266 4.34778 0
M  V30 1236 H 118.183 1.22925 3.97842 0
M  V30 1237 H 120.78 -1.27269 5.19333 0
M  V30 1238 H 121.123 -2.00799 3.64672 0
M  V30 1239 H 121.656 -0.339019 3.96353 0
M  V30 1240 H 118.395 1.4028 6.40314 0
M  V30 1241 H 117.915 -0.259794 5.99237 0
M  V30 1242 H 119.594 0.0949315 6.4693 0
M  V30 1243 N 119.726 -1.57421 0.075193 0
M  V30 1244 C 121.003 -1.85029 -0.634329 0
M  V30 1245 C 121.383 -0.968305 -1.87582 0
M  V30 1246 O 120.731 -0.0354749 -2.28472 0
M  V30 1247 C 120.941 -3.35286 -0.968742 0
M  V30 1248 C 122.289 -4.02875 -1.34077 0
M  V30 1249 O 123.313 -3.40051 -1.06037 0
M  V30 1250 O 122.172 -5.13691 -1.86506 0
M  V30 1251 H 119.266 -0.7645 -0.315387 0
M  V30 1252 H 121.812 -1.69366 0.106382 0
M  V30 1253 H 120.584 -3.91203 -0.0871376 0
M  V30 1254 H 120.207 -3.56223 -1.7661 0
M  V30 1255 N 121.204 0.198386 -1.56346 0
M  V30 1256 C 122.134 1.24865 -1.9731 0
M  V30 1257 C 123.115 1.47651 -0.844576 0
M  V30 1258 O 124.3 1.59444 -1.10866 0
M  V30 1259 C 121.43 2.59358 -2.30977 0
M  V30 1260 C 120.384 2.5119 -3.46537 0
M  V30 1261 C 119.71 3.89926 -3.65871 0
M  V30 1262 C 121.01 2.03977 -4.80823 0
M  V30 1263 H 122.704 0.908252 -2.85291 0
M  V30 1264 H 120.25 0.435462 -1.37258 0
M  V30 1265 H 122.203 3.33011 -2.58228 0
M  V30 1266 H 120.927 2.95132 -1.39874 0
M  V30 1267 H 119.586 1.79993 -3.19371 0
M  V30 1268 H 119.234 4.23046 -2.72105 0
M  V30 1269 H 118.934 3.85336 -4.4361 0
M  V30 1270 H 120.458 4.65205 -3.95495 0
M  V30 1271 H 121.872 2.67386 -5.07127 0
M  V30 1272 H 120.269 2.10397 -5.62008 0
M  V30 1273 H 121.339 0.992861 -4.74626 0
M  V30 1274 N 122.682 1.50554 0.465978 0
M  V30 1275 C 123.912 1.65323 1.23903 0
M  V30 1276 C 124.32 0.338051 1.86155 0
M  V30 1277 O 123.663 -0.690518 1.70228 0
M  V30 1278 C 123.725 2.69048 2.3844 0
M  V30 1279 C 123.389 4.12462 1.96784 0
M  V30 1280 C 124.386 4.98168 1.48745 0
M  V30 1281 C 122.071 4.58407 2.05349 0
M  V30 1282 C 124.065 6.27868 1.0982 0
M  V30 1283 C 121.752 5.88112 1.66035 0
M  V30 1284 C 122.75 6.72668 1.18349 0
M  V30 1285 O 122.438 7.99951 0.795825 0
M  V30 1286 H 122.17 0.558629 0.38067 0
M  V30 1287 H 124.724 1.97561 0.562022 0
M  V30 1288 H 122.954 2.32062 3.09328 0
M  V30 1289 H 124.643 2.72985 3.0039 0
M  V30 1290 H 125.409 4.63885 1.41546 0
M  V30 1291 H 121.288 3.92735 2.41414 0
M  V30 1292 H 124.832 6.93819 0.725293 0
M  V30 1293 H 120.729 6.21914 1.72895 0
M  V30 1294 H 121.497 8.13265 0.924222 0
M  V30 1295 N 124.16 -0.719506 1.40217 0
M  V30 1296 C 125.437 -1.47221 1.28784 0
M  V30 1297 C 125.817 -2.10883 -0.0956067 0
M  V30 1298 O 125.165 -1.99833 -1.10811 0
M  V30 1299 C 125.375 -2.5111 2.42373 0
M  V30 1300 C 126.723 -3.17053 2.82423 0
M  V30 1301 O 127.747 -2.61429 2.41937 0
M  V30 1302 O 126.606 -4.17742 3.52355 0
M  V30 1303 H 123.7 -0.654491 0.50554 0
M  V30 1304 H 126.246 -0.752014 1.52128 0
M  V30 1305 H 125.018 -2.02556 3.34793 0
M  V30 1306 H 124.641 -3.3067 2.20778 0
M  V30 1307 N 125.638 -1.25649 -0.95132 0
M  V30 1308 C 126.884 -1.10757 -1.69884 0
M  V30 1309 C 127.217 0.350061 -1.91019 0
M  V30 1310 O 126.492 1.25783 -1.48354 0
M  V30 1311 C 126.775 -1.86606 -3.07978 0
M  V30 1312 C 126.628 -3.40217 -2.94232 0
M  V30 1313 C 127.947 -1.65182 -4.07925 0
M  V30 1314 H 125.066 -0.40374 -0.616574 0
M  V30 1315 H 127.708 -1.54521 -1.10558 0
M  V30 1316 H 125.858 -1.49409 -3.58621 0
M  V30 1317 H 127.53 -3.87108 -2.50889 0
M  V30 1318 H 125.773 -3.67759 -2.30078 0
M  V30 1319 H 126.444 -3.88505 -3.92133 0
M  V30 1320 H 128.92 -1.9757 -3.66204 0
M  V30 1321 H 127.796 -2.20683 -5.02583 0
M  V30 1322 H 128.057 -0.593933 -4.38092 0
M  V30 1323 N 127.117 1.15442 -1.07289 0
M  V30 1324 C 128.064 2.20161 -0.692653 0
M  V30 1325 C 129.034 1.63073 0.31564 0
M  V30 1326 O 130.219 1.89725 0.202235 0
M  V30 1327 C 127.359 3.44967 -0.0959509 0
M  V30 1328 C 126.472 4.16256 -1.15564 0
M  V30 1329 C 125.607 5.28609 -0.524011 0
M  V30 1330 C 124.646 5.91715 -1.56653 0
M  V30 1331 N 123.783 6.9554 -0.957531 0
M  V30 1332 H 128.623 2.52037 -1.59002 0
M  V30 1333 H 126.16 1.2378 -0.794798 0
M  V30 1334 H 128.118 4.16341 0.267628 0
M  V30 1335 H 126.748 3.1361 0.764772 0
M  V30 1336 H 125.8 3.43385 -1.6368 0
M  V30 1337 H 127.112 4.59268 -1.94613 0
M  V30 1338 H 126.266 6.06604 -0.108032 0
M  V30 1339 H 125.005 4.86787 0.29825 0
M  V30 1340 H 124.01 5.12433 -1.9923 0
M  V30 1341 H 125.235 6.35614 -2.39107 0
M  V30 1342 H 123.181 6.55814 -0.156162 0
M  V30 1343 H 123.098 7.36977 -1.68526 0
M  V30 1344 H 124.366 7.77435 -0.567032 0
M  V30 1345 N 128.595 0.856903 1.32268 0
M  V30 1346 C 129.525 0.31858 2.31316 0
M  V30 1347 C 130.506 -0.583487 1.59779 0
M  V30 1348 O 131.691 -0.503259 1.87566 0
M  V30 1349 C 128.821 -0.491979 3.43798 0
M  V30 1350 C 127.775 0.315849 4.26833 0
M  V30 1351 C 127.101 -0.619586 5.31098 0
M  V30 1352 C 128.401 1.54282 4.98993 0
M  V30 1353 H 130.095 1.14621 2.76591 0
M  V30 1354 H 127.641 0.552613 1.32974 0
M  V30 1355 H 129.594 -0.879012 4.1213 0
M  V30 1356 H 128.318 -1.35299 2.97257 0
M  V30 1357 H 126.977 0.684664 3.6015 0
M  V30 1358 H 126.625 -1.47751 4.8081 0
M  V30 1359 H 126.325 -0.0830621 5.87541 0
M  V30 1360 H 127.849 -1.00375 6.02293 0
M  V30 1361 H 129.263 1.22796 5.59995 0
M  V30 1362 H 127.66 2.01745 5.65172 0
M  V30 1363 H 128.73 2.30285 4.26728 0
M  V30 1364 N 130.073 -1.45103 0.615059 0
M  V30 1365 C 131.321 -2.01784 0.112955 0
M  V30 1366 C 131.642 -1.48504 -1.26378 0
M  V30 1367 O 130.912 -0.682245 -1.83636 0
M  V30 1368 H 129.492 -0.745993 0.0387668 0
M  V30 1369 H 132.154 -1.77808 0.798141 0
M  V30 1370 H 131.25 -3.12025 0.0684069 0
M  V30 1371 N 131.551 -0.354651 -1.53558 0
M  V30 1372 C 132.498 0.496968 -2.25386 0
M  V30 1373 C 133.468 1.0865 -1.25636 0
M  V30 1374 O 134.653 1.12104 -1.54394 0
M  V30 1375 C 131.793 1.63637 -3.03837 0
M  V30 1376 C 130.906 1.07307 -4.18461 0
M  V30 1377 C 130.041 2.18068 -4.84376 0
M  V30 1378 C 129.08 1.59147 -5.91049 0
M  V30 1379 N 128.217 2.63695 -6.50699 0
M  V30 1380 H 133.057 -0.122075 -2.9775 0
M  V30 1381 H 130.594 -0.0720154 -1.46924 0
M  V30 1382 H 132.552 2.30734 -3.47589 0
M  V30 1383 H 131.182 2.22623 -2.33749 0
M  V30 1384 H 130.234 0.292708 -3.79272 0
M  V30 1385 H 131.546 0.602193 -4.95152 0
M  V30 1386 H 130.7 2.93007 -5.31255 0
M  V30 1387 H 129.439 2.68504 -4.07133 0
M  V30 1388 H 128.444 0.827175 -5.43542 0
M  V30 1389 H 129.669 1.09549 -6.70206 0
M  V30 1390 H 127.615 3.13365 -5.76315 0
M  V30 1391 H 127.532 2.21263 -7.22896 0
M  V30 1392 H 128.8 3.3837 -7.02229 0
M  V30 1393 N 133.029 1.57378 -0.0835403 0
M  V30 1394 C 134.278 1.93106 0.582498 0
M  V30 1395 C 134.591 0.96651 1.70053 0
M  V30 1396 O 135.797 1.21705 2.42693 0
M  V30 1397 C 134.253 3.43076 1.08751 0
M  V30 1398 C 133.861 4.48 -0.000146404 0
M  V30 1399 C 135.605 3.87785 1.72694 0
M  V30 1400 C 133.512 5.89113 0.519568 0
M  V30 1401 H 132.442 0.720775 0.221358 0
M  V30 1402 H 135.093 1.82821 -0.157675 0
M  V30 1403 H 133.475 3.48474 1.88101 0
M  V30 1404 H 134.649 4.54233 -0.775199 0
M  V30 1405 H 132.964 4.1283 -0.54406 0
M  V30 1406 H 135.561 4.90604 2.1263 0
M  V30 1407 H 135.904 3.25796 2.59158 0
M  V30 1408 H 136.437 3.8504 0.999457 0
M  V30 1409 H 133.176 6.54775 -0.308186 0
M  V30 1410 H 132.696 5.86376 1.26188 0
M  V30 1411 H 134.375 6.39346 0.992237 0
M  V30 1412 N 134.507 -0.190092 1.56449 0
M  V30 1413 C 135.784 -0.935886 1.71757 0
M  V30 1414 C 136.164 -2.01173 0.639726 0
M  V30 1415 O 135.512 -2.25827 -0.348502 0
M  V30 1416 C 135.722 -1.51775 3.1427 0
M  V30 1417 C 137.07 -1.99794 3.74656 0
M  V30 1418 O 138.094 -1.61607 3.1743 0
M  V30 1419 O 136.953 -2.70079 4.751 0
M  V30 1420 H 134.047 -0.439229 0.700719 0
M  V30 1421 H 136.593 -0.179395 1.68749 0
M  V30 1422 H 135.365 -0.742505 3.84191 0
M  V30 1423 H 134.988 -2.33894 3.21527 0
M  V30 1424 N 135.985 -1.50799 -0.457987 0
M  V30 1425 C 137.396 -1.55152 -1.0385 0
M  V30 1426 C 137.747 -0.362719 -1.92818 0
M  V30 1427 O 136.872 0.522915 -2.09987 0
M  V30 1428 C 137.467 -2.81173 -1.89017 0
M  V30 1429 C 136.026 -2.88164 -2.42154 0
M  V30 1430 C 135.173 -2.49591 -1.20829 0
M  V30 1431 H 138.124 -1.56874 -0.240068 0
M  V30 1432 H 138.145 -2.63769 -2.74238 0
M  V30 1433 H 137.657 -3.67677 -1.24238 0
M  V30 1434 H 135.758 -2.06042 -3.10447 0
M  V30 1435 H 135.871 -3.91356 -2.76364 0
M  V30 1436 H 134.235 -2.02322 -1.54719 0
M  V30 1437 H 135.018 -3.38418 -0.576927 0
M  V30 1438 N 137.463 0.71206 -1.40597 0
M  V30 1439 C 138.393 1.83889 -1.43899 0
M  V30 1440 C 139.374 1.67442 -0.299504 0
M  V30 1441 O 140.559 1.87421 -0.508624 0
M  V30 1442 C 137.689 3.21877 -1.30431 0
M  V30 1443 C 136.643 3.53002 -2.42019 0
M  V30 1444 C 135.969 4.90172 -2.13626 0
M  V30 1445 C 137.269 3.53643 -3.84362 0
M  V30 1446 H 138.963 1.81383 -2.38203 0
M  V30 1447 H 136.509 0.871237 -1.14654 0
M  V30 1448 H 138.462 4.00404 -1.31357 0
M  V30 1449 H 137.186 3.24968 -0.326049 0
M  V30 1450 H 135.845 2.76818 -2.40349 0
M  V30 1451 H 135.493 4.89869 -1.14182 0
M  V30 1452 H 135.193 5.11962 -2.88389 0
M  V30 1453 H 136.717 5.71028 -2.1624 0
M  V30 1454 H 138.131 4.22203 -3.87837 0
M  V30 1455 H 136.528 3.86961 -4.58673 0
M  V30 1456 H 137.598 2.52954 -4.13693 0
M  V30 1457 N 138.941 1.26152 0.944643 0
M  V30 1458 C 139.873 1.03199 2.04652 0
M  V30 1459 C 140.886 -0.00642356 1.62799 0
M  V30 1460 O 142.075 0.233263 1.76969 0
M  V30 1461 C 139.175 0.540111 3.34568 0
M  V30 1462 C 138.348 1.64697 4.05208 0
M  V30 1463 C 137.407 1.15374 5.13396 0
M  V30 1464 O 136.433 1.85013 5.38293 0
M  V30 1465 N 137.635 0.00031529 5.805 0
M  V30 1466 H 140.4 1.9808 2.2491 0
M  V30 1467 H 137.961 1.17491 1.11389 0
M  V30 1468 H 139.953 0.194401 4.04233 0
M  V30 1469 H 138.523 -0.315021 3.11009 0
M  V30 1470 H 137.743 2.16379 3.29506 0
M  V30 1471 H 139.031 2.3903 4.49157 0
M  V30 1472 H 138.429 -0.581336 5.62705 0
M  V30 1473 H 136.986 -0.286346 6.51171 0
M  V30 1474 N 140.419 -1.14872 1.07899 0
M  V30 1475 C 141.349 -2.2193 0.725887 0
M  V30 1476 C 142.33 -1.67622 -0.28927 0
M  V30 1477 O 143.515 -1.93533 -0.160787 0
M  V30 1478 C 140.645 -3.47061 0.128856 0
M  V30 1479 C 139.599 -4.14363 1.07178 0
M  V30 1480 C 138.925 -5.33636 0.337229 0
M  V30 1481 C 140.225 -4.63492 2.40775 0
M  V30 1482 H 141.919 -2.51724 1.62097 0
M  V30 1483 H 139.465 -1.20991 0.780838 0
M  V30 1484 H 141.418 -4.21199 -0.130147 0
M  V30 1485 H 140.142 -3.16617 -0.80134 0
M  V30 1486 H 138.801 -3.42173 1.3158 0
M  V30 1487 H 138.449 -4.99449 -0.596606 0
M  V30 1488 H 138.149 -5.79609 0.965788 0
M  V30 1489 H 139.673 -6.10539 0.0861567 0
M  V30 1490 H 141.087 -5.2913 2.20669 0
M  V30 1491 H 139.484 -5.20148 2.99276 0
M  V30 1492 H 140.554 -3.78834 3.02676 0
M  V30 1493 N 141.898 -0.863906 -1.31812 0
M  V30 1494 C 143.147 -0.46801 -1.96195 0
M  V30 1495 C 143.46 0.983474 -1.69077 0
M  V30 1496 O 144.666 1.48523 -2.27273 0
M  V30 1497 C 143.122 -0.785995 -3.51212 0
M  V30 1498 C 142.73 -2.25383 -3.87178 0
M  V30 1499 C 144.474 -0.458274 -4.22019 0
M  V30 1500 C 142.381 -2.51455 -5.3528 0
M  V30 1501 H 141.311 -0.171283 -0.734287 0
M  V30 1502 H 143.962 -1.05597 -1.50072 0
M  V30 1503 H 142.344 -0.127359 -3.95795 0
M  V30 1504 H 143.518 -2.95502 -3.53575 0
M  V30 1505 H 141.833 -2.54698 -3.2942 0
M  V30 1506 H 144.43 -0.630369 -5.30971 0
M  V30 1507 H 144.773 0.600834 -4.11941 0
M  V30 1508 H 145.306 -1.07319 -3.8305 0
M  V30 1509 H 142.045 -3.56025 -5.50387 0
M  V30 1510 H 141.565 -1.85923 -5.70257 0
M  V30 1511 H 143.244 -2.35874 -6.02472 0
M  V30 1512 N 143.376 1.44774 -0.622745 0
M  V30 1513 C 144.622 2.0242 -0.124083 0
M  V30 1514 C 144.955 1.4881 1.24777 0
M  V30 1515 O 144.23 0.668799 1.8264 0
M  V30 1516 C 144.513 3.59957 -0.101619 0
M  V30 1517 C 144.366 4.23867 -1.50521 0
M  V30 1518 C 145.685 4.36284 0.578272 0
M  V30 1519 H 142.804 0.735528 -0.0465645 0
M  V30 1520 H 145.446 1.72447 -0.797617 0
M  V30 1521 H 143.596 3.85623 0.471934 0
M  V30 1522 H 145.268 4.09336 -2.12701 0
M  V30 1523 H 143.511 3.81684 -2.06154 0
M  V30 1524 H 144.182 5.32843 -1.4416 0
M  V30 1525 H 146.658 4.16001 0.0906057 0
M  V30 1526 H 145.534 5.46004 0.563149 0
M  V30 1527 H 145.795 4.10271 1.64713 0
M  V30 1528 N 144.854 0.36279 1.53368 0
M  V30 1529 C 145.784 -0.476976 2.28576 0
M  V30 1530 C 146.765 -1.08631 1.30894 0
M  V30 1531 O 147.95 -1.10409 1.59761 0
M  V30 1532 C 145.08 -1.61828 3.07293 0
M  V30 1533 C 144.034 -1.13633 4.1264 0
M  V30 1534 C 143.36 -2.36766 4.79423 0
M  V30 1535 C 144.66 -0.223061 5.21823 0
M  V30 1536 H 146.354 0.150474 2.99022 0
M  V30 1537 H 143.9 0.0738103 1.43811 0
M  V30 1538 H 145.853 -2.21237 3.58653 0
M  V30 1539 H 144.577 -2.27292 2.34533 0
M  V30 1540 H 143.236 -0.564945 3.62221 0
M  V30 1541 H 142.884 -3.0068 4.03238 0
M  V30 1542 H 142.584 -2.05192 5.50609 0
M  V30 1543 H 144.108 -2.96865 5.33576 0
M  V30 1544 H 145.522 -0.724545 5.68703 0
M  V30 1545 H 143.919 0.001678 6.001 0
M  V30 1546 H 144.989 0.735553 4.79289 0
M  V30 1547 N 146.332 -1.57332 0.0918853 0
M  V30 1548 C 147.242 -2.17368 -0.882505 0
M  V30 1549 C 148.258 -1.14226 -1.31257 0
M  V30 1550 O 149.434 -1.46582 -1.38115 0
M  V30 1551 C 146.499 -2.73962 -2.12476 0
M  V30 1552 C 145.56 -3.92048 -1.7492 0
M  V30 1553 C 144.793 -4.45933 -2.93223 0
M  V30 1554 O 145.016 -3.98764 -4.07852 0
M  V30 1555 O 143.95 -5.36999 -2.71875 0
M  V30 1556 H 147.776 -3.01031 -0.40172 0
M  V30 1557 H 145.361 -1.48813 -0.132291 0
M  V30 1558 H 147.243 -3.10147 -2.85283 0
M  V30 1559 H 145.918 -1.93347 -2.59613 0
M  V30 1560 H 144.825 -3.6068 -0.993025 0
M  V30 1561 H 146.158 -4.74017 -1.32548 0
M  V30 1562 N 147.81 0.181792 -1.56548 0
M  V30 1563 C 148.742 1.24956 -1.92142 0
M  V30 1564 C 149.755 1.41022 -0.813422 0
M  V30 1565 O 150.944 1.41212 -1.09186 0
M  V30 1566 C 148.044 2.61981 -2.14987 0
M  V30 1567 C 147.217 2.6735 -3.46183 0
M  V30 1568 C 146.276 3.85664 -3.5798 0
M  V30 1569 O 145.302 3.72148 -4.30691 0
M  V30 1570 N 146.504 5.01683 -2.92053 0
M  V30 1571 H 149.269 0.947329 -2.84334 0
M  V30 1572 H 146.83 0.371629 -1.57577 0
M  V30 1573 H 148.822 3.3958 -2.20154 0
M  V30 1574 H 147.392 2.84637 -1.2923 0
M  V30 1575 H 146.612 1.75925 -3.52766 0
M  V30 1576 H 147.9 2.67939 -4.32534 0
M  V30 1577 H 147.298 5.15564 -2.32832 0
M  V30 1578 H 145.855 5.77181 -3.0283 0
M  V30 1579 N 149.288 1.51039 0.449983 0
M  V30 1580 C 150.536 1.62759 1.19808 0
M  V30 1581 C 150.857 0.339981 1.92013 0
M  V30 1582 O 150.127 -0.643606 1.85026 0
M  V30 1583 H 148.707 0.599811 0.445237 0
M  V30 1584 H 151.369 1.87914 0.517138 0
M  V30 1585 H 150.465 2.44911 1.93455 0
M  V30 1586 N 150.766 -0.704594 1.40972 0
M  V30 1587 C 152.013 -1.46458 1.39844 0
M  V30 1588 C 152.341 -1.94499 0.00447594 0
M  V30 1589 O 151.596 -1.69275 -0.982057 0
M  V30 1590 C 151.895 -2.698 2.34399 0
M  V30 1591 C 151.561 -2.40464 3.81429 0
M  V30 1592 C 150.223 -2.32174 4.21484 0
M  V30 1593 C 152.575 -2.16086 4.74296 0
M  V30 1594 C 149.903 -1.97589 5.52427 0
M  V30 1595 C 152.255 -1.83011 6.05549 0
M  V30 1596 C 150.919 -1.7321 6.44635 0
M  V30 1597 H 150.189 -0.535927 0.511725 0
M  V30 1598 H 152.836 -0.806124 1.73706 0
M  V30 1599 H 151.141 -3.40536 1.93759 0
M  V30 1600 H 152.838 -3.27919 2.30804 0
M  V30 1601 H 149.428 -2.47808 3.49699 0
M  V30 1602 H 153.612 -2.2144 4.4416 0
M  V30 1603 H 148.868 -1.88547 5.81601 0
M  V30 1604 H 153.042 -1.63164 6.77016 0
M  V30 1605 H 150.669 -1.46179 7.46013 0
M  V30 1606 N 152.244 -1.26651 -0.937939 0
M  V30 1607 C 153.472 -1.15173 -1.7188 0
M  V30 1608 C 153.887 0.292668 -1.86518 0
M  V30 1609 O 153.244 1.20014 -1.37488 0
M  V30 1610 C 153.295 -1.81925 -3.12387 0
M  V30 1611 O 153.016 -3.2072 -2.98446 0
M  V30 1612 C 154.517 -1.76442 -4.06673 0
M  V30 1613 H 151.737 -0.400911 -0.538063 0
M  V30 1614 H 154.281 -1.67332 -1.1756 0
M  V30 1615 H 152.436 -1.33696 -3.63599 0
M  V30 1616 H 152.85 -3.53802 -3.872 0
M  V30 1617 H 154.324 -2.27781 -5.02812 0
M  V30 1618 H 154.801 -0.731608 -4.33064 0
M  V30 1619 H 155.407 -2.24238 -3.61382 0
M  V30 1620 N 153.722 1.14298 -1.08507 0
M  V30 1621 C 154.685 2.17607 -0.719711 0
M  V30 1622 C 155.685 1.58907 0.245997 0
M  V30 1623 O 156.875 1.74181 0.0254081 0
M  V30 1624 C 154.007 3.40842 -0.0627695 0
M  V30 1625 H 155.2 2.51443 -1.63452 0
M  V30 1626 H 152.753 1.28963 -0.88307 0
M  V30 1627 H 153.488 3.12587 0.863716 0
M  V30 1628 H 153.273 3.84713 -0.757504 0
M  V30 1629 H 154.763 4.17221 0.177786 0
M  V30 1630 N 155.201 0.870884 1.31352 0
M  V30 1631 C 156.148 0.325425 2.28494 0
M  V30 1632 C 157.118 -0.576615 1.5577 0
M  V30 1633 O 158.303 -0.508059 1.83911 0
M  V30 1634 C 155.443 -0.466283 3.41935 0
M  V30 1635 C 154.556 0.463378 4.29508 0
M  V30 1636 C 153.691 -0.342544 5.30094 0
M  V30 1637 C 152.73 0.583486 6.09313 0
M  V30 1638 N 151.867 -0.186244 7.01853 0
M  V30 1639 H 156.707 1.15901 2.74538 0
M  V30 1640 H 154.244 0.58294 1.35056 0
M  V30 1641 H 156.202 -0.941085 4.06447 0
M  V30 1642 H 154.832 -1.26456 2.97 0
M  V30 1643 H 153.884 1.05663 3.65431 0
M  V30 1644 H 155.196 1.1734 4.84802 0
M  V30 1645 H 154.35 -0.879816 6.00287 0
M  V30 1646 H 153.089 -1.08585 4.75458 0
M  V30 1647 H 152.094 1.13251 5.3801 0
M  V30 1648 H 153.319 1.32566 6.66035 0
M  V30 1649 H 151.265 -0.912348 6.49625 0
M  V30 1650 H 151.182 0.464422 7.54572 0
M  V30 1651 H 152.45 -0.704716 7.76308 0
M  V30 1652 N 156.679 -1.44442 0.630414 0
M  V30 1653 C 157.909 -2.06115 0.141465 0
M  V30 1654 C 158.317 -1.47179 -1.1889 0
M  V30 1655 O 157.66 -0.588873 -1.74006 0
M  V30 1656 C 157.722 -3.59467 -0.0484355 0
M  V30 1657 C 157.386 -4.40864 1.20366 0
M  V30 1658 C 158.383 -4.74391 2.12719 0
M  V30 1659 C 156.068 -4.8125 1.43887 0
M  V30 1660 C 158.062 -5.47186 3.26904 0
M  V30 1661 C 155.749 -5.53795 2.5837 0
M  V30 1662 C 156.747 -5.86682 3.49705 0
M  V30 1663 O 156.435 -6.57749 4.62191 0
M  V30 1664 H 156.167 -0.671648 0.0765792 0
M  V30 1665 H 158.721 -1.86312 0.864695 0
M  V30 1666 H 156.951 -3.77758 -0.826803 0
M  V30 1667 H 158.64 -4.02909 -0.491849 0
M  V30 1668 H 159.406 -4.43728 1.95781 0
M  V30 1669 H 155.285 -4.55073 0.736853 0
M  V30 1670 H 158.829 -5.72773 3.98217 0
M  V30 1671 H 154.726 -5.83872 2.75251 0
M  V30 1672 H 155.494 -6.76217 4.61164 0
M  V30 1673 N 158.157 -0.370918 -1.53173 0
M  V30 1674 C 159.403 0.217423 -2.01631 0
M  V30 1675 C 159.736 1.47983 -1.25756 0
M  V30 1676 O 159.011 1.91274 -0.352764 0
M  V30 1677 C 159.294 0.503982 -3.56556 0
M  V30 1678 C 159.147 -0.77243 -4.43118 0
M  V30 1679 C 160.466 1.30234 -4.20389 0
M  V30 1680 H 157.585 0.0775486 -0.732909 0
M  V30 1681 H 160.227 -0.496863 -1.83388 0
M  V30 1682 H 158.377 1.11248 -3.72231 0
M  V30 1683 H 160.049 -1.4098 -4.39229 0
M  V30 1684 H 158.292 -1.39167 -4.10871 0
M  V30 1685 H 158.963 -0.526815 -5.4948 0
M  V30 1686 H 161.439 0.787546 -4.08579 0
M  V30 1687 H 160.315 1.47158 -5.28806 0
M  V30 1688 H 160.576 2.31237 -3.76805 0
M  V30 1689 N 159.635 1.57281 -0.100228 0
M  V30 1690 C 160.882 1.94537 0.562268 0
M  V30 1691 C 161.21 0.982315 1.67871 0
M  V30 1692 O 160.465 0.00280936 1.957 0
M  V30 1693 C 160.764 3.38305 1.15259 0
M  V30 1694 C 160.43 4.50618 0.159409 0
M  V30 1695 C 159.092 4.81066 -0.113741 0
M  V30 1696 C 161.444 5.18615 -0.518461 0
M  V30 1697 C 158.772 5.76835 -1.07137 0
M  V30 1698 C 161.124 6.15412 -1.46459 0
M  V30 1699 C 159.788 6.44262 -1.74592 0
M  V30 1700 H 159.058 0.711863 0.205748 0
M  V30 1701 H 161.705 1.90679 -0.17715 0
M  V30 1702 H 160.01 3.38766 1.96836 0
M  V30 1703 H 161.707 3.64435 1.67297 0
M  V30 1704 H 158.297 4.2689 0.382491 0
M  V30 1705 H 162.481 4.95264 -0.320581 0
M  V30 1706 H 157.737 5.975 -1.29628 0
M  V30 1707 H 161.911 6.67194 -1.99564 0
M  V30 1708 H 159.538 7.1828 -2.48953 0
M  V30 1709 N 161.113 -0.173488 1.56642 0
M  V30 1710 C 162.529 -0.525174 1.50712 0
M  V30 1711 C 162.729 -1.8476 0.804107 0
M  V30 1712 O 161.785 -2.49869 0.363574 0
M  V30 1713 C 163.098 -0.559937 2.95441 0
M  V30 1714 C 164.646 -0.647288 3.06234 0
M  V30 1715 C 165.121 -0.712963 4.52417 0
M  V30 1716 N 166.612 -0.775911 4.56655 0
M  V30 1717 C 167.347 -0.847264 5.67106 0
M  V30 1718 N 166.843 -0.879585 6.87194 0
M  V30 1719 N 168.636 -0.886117 5.55071 0
M  V30 1720 H 160.787 0.693681 2.00753 0
M  V30 1721 H 163.05 0.249841 0.914485 0
M  V30 1722 H 162.756 0.343049 3.50023 0
M  V30 1723 H 162.63 -1.40718 3.49969 0
M  V30 1724 H 165.017 -1.5407 2.51687 0
M  V30 1725 H 165.098 0.226586 2.54794 0
M  V30 1726 H 164.742 0.176183 5.07594 0
M  V30 1727 H 164.672 -1.60295 5.0161 0
M  V30 1728 H 167.163 -0.759304 3.70193 0
M  V30 1729 H 167.476 -0.935144 7.67121 0
M  V30 1730 H 165.821 -0.847898 6.89808 0
M  V30 1731 H 169.012 -0.857853 4.60172 0
M  V30 1732 H 169.185 -0.938263 6.41171 0
M  V30 1733 N 162.591 -1.51276 -0.441967 0
M  V30 1734 C 163.523 -1.68444 -1.55433 0
M  V30 1735 C 164.536 -0.565187 -1.52674 0
M  V30 1736 O 165.725 -0.839356 -1.57534 0
M  V30 1737 C 162.825 -1.67966 -2.94348 0
M  V30 1738 C 161.998 -2.964 -3.21661 0
M  V30 1739 C 161.057 -2.88171 -4.40277 0
M  V30 1740 O 160.083 -3.62119 -4.39157 0
M  V30 1741 N 161.285 -2.03706 -5.43584 0
M  V30 1742 H 164.05 -2.644 -1.41112 0
M  V30 1743 H 161.611 -1.49104 -0.630838 0
M  V30 1744 H 163.603 -1.60035 -3.71713 0
M  V30 1745 H 162.173 -0.796225 -3.0229 0
M  V30 1746 H 161.393 -3.18234 -2.32638 0
M  V30 1747 H 162.681 -3.81427 -3.36736 0
M  V30 1748 H 162.079 -1.42995 -5.47329 0
M  V30 1749 H 160.636 -2.01658 -6.1982 0
M  V30 1750 N 164.069 0.697108 -1.41344 0
M  V30 1751 C 165.317 1.45426 -1.40341 0
M  V30 1752 C 165.638 1.94996 -0.0128787 0
M  V30 1753 O 164.908 1.71599 0.945027 0
M  V30 1754 H 163.488 0.539594 -0.516573 0
M  V30 1755 H 166.15 0.825201 -1.76569 0
M  V30 1756 H 165.246 2.31817 -2.08967 0
M  V30 1757 N 165.547 1.27147 0.931209 0
M  V30 1758 C 166.775 1.16082 1.71267 0
M  V30 1759 C 167.19 -0.282772 1.8667 0
M  V30 1760 O 166.547 -1.19283 1.38122 0
M  V30 1761 C 166.598 1.8358 3.11417 0
M  V30 1762 O 166.319 3.22299 2.96741 0
M  V30 1763 C 167.82 1.78597 4.05732 0
M  V30 1764 H 165.04 0.403758 0.535929 0
M  V30 1765 H 167.584 1.67953 1.16671 0
M  V30 1766 H 165.739 1.35623 3.62885 0
M  V30 1767 H 166.153 3.55851 3.85319 0
M  V30 1768 H 167.627 2.30444 5.01597 0
M  V30 1769 H 168.104 0.754564 4.3267 0
M  V30 1770 H 168.71 2.26152 3.60188 0
M  V30 1771 N 167.025 -1.13721 1.09112 0
M  V30 1772 C 167.972 -2.19031 0.727591 0
M  V30 1773 C 168.942 -1.63555 -0.289656 0
M  V30 1774 O 170.127 -1.90023 -0.172026 0
M  V30 1775 C 167.267 -3.4477 0.15082 0
M  V30 1776 C 166.38 -4.14365 1.22172 0
M  V30 1777 C 165.515 -5.27709 0.608042 0
M  V30 1778 C 164.554 -5.89147 1.66047 0
M  V30 1779 N 163.691 -6.93929 1.06806 0
M  V30 1780 H 168.531 -2.49475 1.62991 0
M  V30 1781 H 166.068 -1.22499 0.81439 0
M  V30 1782 H 168.026 -4.16714 -0.201358 0
M  V30 1783 H 166.656 -3.14787 -0.714783 0
M  V30 1784 H 165.708 -3.40737 1.69122 0
M  V30 1785 H 167.02 -4.56114 2.01895 0
M  V30 1786 H 166.174 -6.06355 0.204523 0
M  V30 1787 H 164.913 -4.872 -0.220769 0
M  V30 1788 H 163.918 -5.09198 2.07357 0
M  V30 1789 H 165.143 -6.31729 2.49189 0
M  V30 1790 H 163.089 -6.55483 0.260476 0
M  V30 1791 H 163.006 -7.34202 1.8023 0
M  V30 1792 H 164.274 -7.76434 0.690644 0
M  V30 1793 N 168.503 -0.877838 -1.30888 0
M  V30 1794 C 169.733 -0.506678 -2.00291 0
M  V30 1795 C 170.141 0.907449 -1.66018 0
M  V30 1796 O 169.484 1.60719 -0.88967 0
M  V30 1797 C 169.546 -0.59323 -3.54572 0
M  V30 1798 C 169.21 -1.97038 -4.12341 0
M  V30 1799 C 170.207 -2.93889 -4.28865 0
M  V30 1800 C 167.892 -2.27383 -4.47886 0
M  V30 1801 C 169.886 -4.19224 -4.80136 0
M  V30 1802 C 167.573 -3.52965 -4.98857 0
M  V30 1803 C 168.571 -4.48701 -5.14934 0
M  V30 1804 O 168.259 -5.72056 -5.64808 0
M  V30 1805 H 167.991 -0.1951 -0.647234 0
M  V30 1806 H 170.545 -1.18301 -1.6791 0
M  V30 1807 H 168.775 0.140057 -3.86446 0
M  V30 1808 H 170.464 -0.234372 -4.05223 0
M  V30 1809 H 171.23 -2.71756 -4.01714 0
M  V30 1810 H 167.109 -1.53639 -4.34645 0
M  V30 1811 H 170.653 -4.93956 -4.92599 0
M  V30 1812 H 166.55 -3.74939 -5.25443 0
M  V30 1813 H 167.318 -5.74337 -5.83163 0
M  V30 1814 N 169.982 1.44106 -0.638065 0
M  V30 1815 C 171.212 2.06037 -0.152394 0
M  V30 1816 C 171.62 1.47808 1.18108 0
M  V30 1817 O 170.963 0.598092 1.73691 0
M  V30 1818 C 171.025 3.59488 0.0293714 0
M  V30 1819 C 170.689 4.4022 -1.22702 0
M  V30 1820 C 171.686 4.73256 -2.15232 0
M  V30 1821 C 169.371 4.8048 -1.46437 0
M  V30 1822 C 171.365 5.45444 -3.29802 0
M  V30 1823 C 169.052 5.52417 -2.61303 0
M  V30 1824 C 170.05 5.84819 -3.52811 0
M  V30 1825 O 169.738 6.55289 -4.65673 0
M  V30 1826 H 169.47 0.671233 -0.0801401 0
M  V30 1827 H 172.024 1.85851 -0.874563 0
M  V30 1828 H 170.254 3.78191 0.806758 0
M  V30 1829 H 171.943 4.03164 0.470475 0
M  V30 1830 H 172.709 4.42684 -1.98131 0
M  V30 1831 H 168.588 4.54676 -0.760977 0
M  V30 1832 H 172.132 5.70653 -4.01249 0
M  V30 1833 H 168.029 5.82404 -2.78344 0
M  V30 1834 H 168.797 6.73762 -4.64744 0
M  V30 1835 N 171.46 0.379036 1.52974 0
M  V30 1836 C 172.708 -0.206014 2.01047 0
M  V30 1837 C 173.029 -1.48175 1.26765 0
M  V30 1838 O 172.299 -1.92085 0.384743 0
M  V30 1839 H 170.879 -0.0791184 0.742798 0
M  V30 1840 H 173.541 0.508366 1.88153 0
M  V30 1841 H 172.637 -0.423501 3.09213 0
M  V30 1842 N 172.938 -1.57226 0.108567 0
M  V30 1843 C 174.215 -1.86333 -0.594939 0
M  V30 1844 C 174.595 -1.00788 -1.85486 0
M  V30 1845 O 173.943 -0.0839293 -2.28346 0
M  V30 1846 C 174.153 -3.37265 -0.897405 0
M  V30 1847 C 175.501 -4.05629 -1.25501 0
M  V30 1848 O 176.525 -3.42224 -0.987998 0
M  V30 1849 O 175.384 -5.17531 -1.75567 0
M  V30 1850 H 172.478 -0.771018 -0.2991 0
M  V30 1851 H 175.024 -1.69102 0.142283 0
M  V30 1852 H 173.796 -3.913 -0.00413806 0
M  V30 1853 H 173.419 -3.59889 -1.69014 0
M  V30 1854 N 174.416 0.165178 -1.56732 0
M  V30 1855 C 175.662 0.882112 -1.82611 0
M  V30 1856 C 175.995 1.81628 -0.687378 0
M  V30 1857 O 175.27 1.92009 0.310267 0
M  V30 1858 C 175.553 1.67245 -3.18906 0
M  V30 1859 C 175.406 0.760987 -4.43316 0
M  V30 1860 C 176.725 2.63884 -3.52212 0
M  V30 1861 H 173.844 0.319242 -0.664269 0
M  V30 1862 H 176.486 0.148052 -1.89422 0
M  V30 1863 H 174.636 2.29824 -3.1323 0
M  V30 1864 H 176.308 0.147596 -4.61064 0
M  V30 1865 H 174.551 0.0694102 -4.33744 0
M  V30 1866 H 175.222 1.34962 -5.35247 0
M  V30 1867 H 177.698 2.11429 -3.58381 0
M  V30 1868 H 176.574 3.16245 -4.48643 0
M  V30 1869 H 176.835 3.44377 -2.77231 0
M  V30 1870 N 175.894 1.51508 0.433938 0
M  V30 1871 C 177.119 1.68443 1.21003 0
M  V30 1872 C 177.544 0.382636 1.84167 0
M  V30 1873 O 176.902 -0.65755 1.68956 0
M  V30 1874 C 176.95 2.80405 2.26727 0
M  V30 1875 O 176.054 2.44245 3.32292 0
M  V30 1876 H 175.395 0.561536 0.354363 0
M  V30 1877 H 177.925 1.9809 0.512024 0
M  V30 1878 H 177.935 3.0459 2.71457 0
M  V30 1879 H 176.61 3.74867 1.80132 0
M  V30 1880 H 175.187 2.30644 2.93015 0
M  V30 1881 N 177.372 -0.689602 1.41712 0
M  V30 1882 C 178.304 -1.815 1.39966 0
M  V30 1883 C 179.317 -1.59995 0.300917 0
M  V30 1884 O 180.506 -1.69387 0.563039 0
M  V30 1885 C 177.606 -3.18364 1.16179 0
M  V30 1886 C 176.779 -3.66847 2.38206 0
M  V30 1887 C 175.838 -4.82398 2.10186 0
M  V30 1888 O 174.864 -4.93706 2.83272 0
M  V30 1889 N 176.066 -5.70064 1.0958 0
M  V30 1890 H 178.831 -1.83488 2.36965 0
M  V30 1891 H 176.392 -0.872149 1.36401 0
M  V30 1892 H 178.384 -3.93301 0.953756 0
M  V30 1893 H 176.954 -3.11365 0.27756 0
M  V30 1894 H 176.174 -2.82751 2.74673 0
M  V30 1895 H 177.462 -3.95978 3.19498 0
M  V30 1896 H 176.86 -5.63565 0.491019 0
M  V30 1897 H 175.417 -6.44874 0.947656 0
M  V30 1898 N 178.85 -1.27639 -0.924453 0
M  V30 1899 C 179.78 -1.13166 -2.04244 0
M  V30 1900 C 180.761 -0.032256 -1.70069 0
M  V30 1901 O 181.946 -0.207328 -1.9309 0
M  V30 1902 C 179.076 -0.781496 -3.38393 0
M  V30 1903 C 178.03 -1.83449 -3.86692 0
M  V30 1904 C 177.356 -1.33822 -5.17683 0
M  V30 1905 C 178.656 -3.23917 -4.09726 0
M  V30 1906 H 180.35 -2.06689 -2.1661 0
M  V30 1907 H 177.896 -0.995136 -1.04082 0
M  V30 1908 H 179.849 -0.667057 -4.16087 0
M  V30 1909 H 178.573 0.189439 -3.2605 0
M  V30 1910 H 177.232 -1.93789 -3.11193 0
M  V30 1911 H 176.88 -0.35665 -5.01734 0
M  V30 1912 H 176.58 -2.04224 -5.50968 0
M  V30 1913 H 178.104 -1.23679 -5.97943 0
M  V30 1914 H 179.518 -3.16559 -4.77978 0
M  V30 1915 H 177.915 -3.92059 -4.54324 0
M  V30 1916 H 178.985 -3.68729 -3.14908 0
M  V30 1917 N 180.328 1.1314 -1.09713 0
M  V30 1918 C 181.26 2.18343 -0.697056 0
M  V30 1919 C 182.273 1.60669 0.262551 0
M  V30 1920 O 183.462 1.78435 0.0481527 0
M  V30 1921 C 180.562 3.38899 -0.00684728 0
M  V30 1922 C 179.735 4.26078 -0.988741 0
M  V30 1923 C 178.794 5.25155 -0.331394 0
M  V30 1924 O 177.82 5.60701 -0.979926 0
M  V30 1925 N 179.022 5.73271 0.913261 0
M  V30 1926 H 181.787 2.5328 -1.60216 0
M  V30 1927 H 179.348 1.28491 -0.984971 0
M  V30 1928 H 181.34 4.02255 0.444191 0
M  V30 1929 H 179.91 3.02175 0.800551 0
M  V30 1930 H 179.13 3.59453 -1.61826 0
M  V30 1931 H 180.418 4.81178 -1.65364 0
M  V30 1932 H 179.816 5.46544 1.45966 0
M  V30 1933 H 178.373 6.3855 1.30757 0
M  V30 1934 N 181.806 0.884767 1.30421 0
M  V30 1935 C 183.031 0.517288 2.00845 0
M  V30 1936 C 183.456 -0.886779 1.65885 0
M  V30 1937 O 182.814 -1.58768 0.875354 0
M  V30 1938 C 182.862 0.698994 3.5376 0
M  V30 1939 O 181.966 -0.255208 4.1161 0
M  V30 1940 H 181.307 0.203872 0.631927 0
M  V30 1941 H 183.837 1.19225 1.66272 0
M  V30 1942 H 183.847 0.597912 4.03595 0
M  V30 1943 H 182.522 1.72271 3.78544 0
M  V30 1944 H 181.099 -0.10784 3.72744 0
M  V30 1945 N 183.284 -1.43765 0.645699 0
M  V30 1946 C 184.512 -2.06253 0.163556 0
M  V30 1947 C 184.927 -1.48352 -1.16778 0
M  V30 1948 O 184.284 -0.611932 -1.71935 0
M  V30 1949 C 184.335 -3.61453 0.0583186 0
M  V30 1950 O 184.056 -4.172 1.33702 0
M  V30 1951 C 185.557 -4.41002 -0.450795 0
M  V30 1952 H 182.777 -0.665413 0.0864077 0
M  V30 1953 H 185.321 -1.84396 0.884222 0
M  V30 1954 H 183.476 -3.82522 -0.612865 0
M  V30 1955 H 183.89 -5.10791 1.19131 0
M  V30 1956 H 185.364 -5.49966 -0.473403 0
M  V30 1957 H 185.841 -4.13488 -1.48068 0
M  V30 1958 H 186.447 -4.24886 0.187637 0
M  V30 1959 N 184.763 -0.387143 -1.52771 0
M  V30 1960 C 186.011 0.195349 -2.01154 0
M  V30 1961 C 186.332 1.475 -1.27549 0
M  V30 1962 O 185.602 1.91878 -0.394924 0
M  V30 1963 H 184.182 0.075178 -0.743207 0
M  V30 1964 H 186.844 -0.518337 -1.87881 0
M  V30 1965 H 185.94 0.407096 -3.09434 0
M  V30 1966 N 186.241 1.57166 -0.116904 0
M  V30 1967 C 187.657 1.5779 0.239693 0
M  V30 1968 C 187.857 1.1295 1.66867 0
M  V30 1969 O 186.913 0.81592 2.38954 0
M  V30 1970 C 188.226 3.00699 0.00828202 0
M  V30 1971 C 189.774 3.12912 0.0743438 0
M  V30 1972 C 190.249 4.57817 -0.129348 0
M  V30 1973 N 191.74 4.63139 -0.075247 0
M  V30 1974 C 192.475 5.73023 -0.207788 0
M  V30 1975 N 191.971 6.91665 -0.396382 0
M  V30 1976 N 193.764 5.61906 -0.14751 0
M  V30 1977 H 185.915 1.84615 -1.05029 0
M  V30 1978 H 188.178 0.85311 -0.41341 0
M  V30 1979 H 187.884 3.37784 -0.979531 0
M  V30 1980 H 187.758 3.69848 0.741077 0
M  V30 1981 H 190.145 2.75686 1.05268 0
M  V30 1982 H 190.226 2.4631 -0.690297 0
M  V30 1983 H 189.87 4.95742 -1.10465 0
M  V30 1984 H 189.8 5.22507 0.655253 0
M  V30 1985 H 192.291 3.7784 0.0670898 0
M  V30 1986 H 192.604 7.71255 -0.488437 0
M  V30 1987 H 190.949 6.93654 -0.432329 0
M  V30 1988 H 194.14 4.681 -0.00115036 0
M  V30 1989 H 194.313 6.47501 -0.254247 0
M  V30 1990 N 187.719 -0.156864 1.56817 0
M  V30 1991 C 188.682 -1.17781 1.96622 0
M  V30 1992 C 189.682 -1.36401 0.851555 0
M  V30 1993 O 190.872 -1.33561 1.11836 0
M  V30 1994 C 188.004 -2.54008 2.27361 0
M  V30 1995 H 189.197 -0.836564 2.87996 0
M  V30 1996 H 186.75 -0.39985 1.51099 0
M  V30 1997 H 187.485 -2.9312 1.38748 0
M  V30 1998 H 187.27 -2.41856 3.08623 0
M  V30 1999 H 188.76 -3.27558 2.59029 0
M  V30 2000 N 189.197 -1.51736 -0.425897 0
M  V30 2001 C 190.422 -1.69082 -1.20108 0
M  V30 2002 C 190.847 -0.392398 -1.83962 0
M  V30 2003 O 190.205 0.64858 -1.69302 0
M  V30 2004 C 190.253 -2.81604 -2.25237 0
M  V30 2005 O 189.357 -2.46004 -3.30992 0
M  V30 2006 H 188.698 -0.563408 -0.35138 0
M  V30 2007 H 191.228 -1.98358 -0.501512 0
M  V30 2008 H 191.238 -3.06025 -2.69838 0
M  V30 2009 H 189.913 -3.75817 -1.78142 0
M  V30 2010 H 188.49 -2.32195 -2.91787 0
M  V30 2011 N 190.675 0.682077 -1.42076 0
M  V30 2012 C 191.605 1.80796 -1.47767 0
M  V30 2013 C 192.586 1.6677 -0.334954 0
M  V30 2014 O 193.771 1.863 -0.548264 0
M  V30 2015 C 190.901 3.19038 -1.37229 0
M  V30 2016 C 189.855 3.47789 -2.49453 0
M  V30 2017 C 189.181 4.8553 -2.23975 0
M  V30 2018 C 190.481 3.45411 -3.91776 0
M  V30 2019 H 192.175 1.7629 -2.41997 0
M  V30 2020 H 189.721 0.846721 -1.16476 0
M  V30 2021 H 191.674 3.97528 -1.39821 0
M  V30 2022 H 190.398 3.24204 -0.394907 0
M  V30 2023 H 189.057 2.71657 -2.46166 0
M  V30 2024 H 188.705 4.87337 -1.24547 0
M  V30 2025 H 188.405 5.0573 -2.99184 0
M  V30 2026 H 189.929 5.66312 -2.28304 0
M  V30 2027 H 191.343 4.13882 -3.96705 0
M  V30 2028 H 189.74 3.77145 -4.66778 0
M  V30 2029 H 190.81 2.44122 -4.18966 0
M  V30 2030 N 192.153 1.28127 0.917671 0
M  V30 2031 C 193.381 1.17892 1.70026 0
M  V30 2032 C 193.796 -0.262958 1.8696 0
M  V30 2033 O 193.153 -1.17811 1.3938 0
M  V30 2034 C 193.204 1.86872 3.09453 0
M  V30 2035 O 192.925 3.25428 2.93306 0
M  V30 2036 C 194.426 1.8289 4.03815 0
M  V30 2037 H 191.646 0.40942 0.531617 0
M  V30 2038 H 194.19 1.69181 1.14883 0
M  V30 2039 H 192.345 1.39464 3.61426 0
M  V30 2040 H 192.759 3.59918 3.81523 0
M  V30 2041 H 194.233 2.35751 4.99125 0
M  V30 2042 H 194.71 0.800412 4.31845 0
M  V30 2043 H 195.316 2.29959 3.57769 0
M  V30 2044 N 193.631 -1.12557 1.10312 0
M  V30 2045 C 194.861 -1.87592 0.865617 0
M  V30 2046 C 195.269 -1.79851 -0.587389 0
M  V30 2047 O 194.612 -1.16949 -1.41664 0
M  V30 2048 C 194.674 -3.37665 1.23381 0
M  V30 2049 C 194.338 -3.69181 2.69359 0
M  V30 2050 C 195.335 -3.67652 3.67597 0
M  V30 2051 C 193.02 -3.98555 3.05711 0
M  V30 2052 C 195.014 -3.95053 5.00212 0
M  V30 2053 C 192.701 -4.25616 4.38514 0
M  V30 2054 C 193.699 -4.23851 5.35574 0
M  V30 2055 O 193.387 -4.50242 6.65986 0
M  V30 2056 H 193.119 -0.600442 0.310557 0
M  V30 2057 H 195.673 -1.4335 1.47105 0
M  V30 2058 H 193.903 -3.82454 0.571467 0
M  V30 2059 H 195.592 -3.94041 0.973994 0
M  V30 2060 H 196.358 -3.45024 3.40857 0
M  V30 2061 H 192.237 -3.99071 2.30789 0
M  V30 2062 H 195.781 -3.93591 5.75962 0
M  V30 2063 H 191.678 -4.47718 4.64994 0
M  V30 2064 H 192.446 -4.67867 6.71597 0
M  V30 2065 N 195.109 -0.891671 -1.2995 0
M  V30 2066 C 196.057 -0.353066 -2.29905 0
M  V30 2067 C 197.051 0.543509 -1.60444 0
M  V30 2068 O 198.257 0.4272 -1.74857 0
M  V30 2069 H 194.632 -0.095531 -0.745907 0
M  V30 2070 H 196.603 -1.20961 -2.72784 0
M  V30 2071 C 195.352 0.411475 -3.45257 0
M  V30 2072 H 194.675 -0.269182 -3.98893 0
M  V30 2073 H 196.115 0.753328 -4.17254 0
M  V30 2074 C 194.574 1.6111 -2.9588 0
M  V30 2075 O 195.104 2.71045 -2.96475 0
M  V30 2076 N 193.31 1.45054 -2.51809 0
M  V30 2077 H 192.857 0.556175 -2.51524 0
M  V30 2078 H 192.815 2.25453 -2.1913 0
M  V30 2079 N 196.587 1.43421 -0.653314 0
M  V30 2080 C 197.836 2.01032 -0.164076 0
M  V30 2081 C 198.149 1.52147 1.22926 0
M  V30 2082 O 199.355 2.02031 1.81371 0
M  V30 2083 C 197.811 3.59082 -0.24252 0
M  V30 2084 C 197.419 4.1696 -1.63855 0
M  V30 2085 C 199.163 4.24079 0.18911 0
M  V30 2086 C 197.07 5.67304 -1.67092 0
M  V30 2087 H 196 0.751798 -0.0575769 0
M  V30 2088 H 198.651 1.6439 -0.815362 0
M  V30 2089 H 197.033 3.93125 0.476276 0
M  V30 2090 H 198.207 3.94416 -2.38271 0
M  V30 2091 H 196.522 3.64335 -2.01616 0
M  V30 2092 H 199.119 5.34381 0.184775 0
M  V30 2093 H 199.462 3.98005 1.22056 0
M  V30 2094 H 199.995 3.94918 -0.477938 0
M  V30 2095 H 196.734 5.98145 -2.68146 0
M  V30 2096 H 196.254 5.91904 -0.970014 0
M  V30 2097 H 197.933 6.31344 -1.4147 0
M  V30 2098 N 198.065 0.39524 1.52563 0
M  V30 2099 C 199.312 -0.185044 2.01653 0
M  V30 2100 C 199.64 -1.46317 1.28146 0
M  V30 2101 O 198.895 -1.9213 0.372074 0
M  V30 2102 C 199.194 -0.493444 3.53977 0
M  V30 2103 C 198.86 0.69384 4.4553 0
M  V30 2104 C 197.522 1.01954 4.70275 0
M  V30 2105 C 199.874 1.48785 4.99512 0
M  V30 2106 C 197.202 2.14069 5.46252 0
M  V30 2107 C 199.554 2.59965 5.76716 0
M  V30 2108 C 198.218 2.93037 5.99738 0
M  V30 2109 H 197.488 -0.0677123 0.7379 0
M  V30 2110 H 200.135 0.533807 1.8391 0
M  V30 2111 H 198.44 -1.29369 3.69825 0
M  V30 2112 H 200.137 -0.955163 3.89458 0
M  V30 2113 H 196.727 0.429987 4.26438 0
M  V30 2114 H 200.911 1.24946 4.80315 0
M  V30 2115 H 196.167 2.40056 5.62302 0
M  V30 2116 H 200.341 3.21887 6.17545 0
M  V30 2117 H 197.968 3.8003 6.58393 0
M  V30 2118 N 199.544 -1.57102 0.125237 0
M  V30 2119 C 200.792 -1.95021 -0.530198 0
M  V30 2120 C 201.113 -1.00982 -1.66816 0
M  V30 2121 O 200.383 -0.0672693 -1.95784 0
M  V30 2122 H 198.963 -0.720046 -0.198853 0
M  V30 2123 H 201.625 -1.93916 0.19564 0
M  V30 2124 H 200.721 -2.98211 -0.920681 0
M  V30 2125 N 201.022 0.148545 -1.56898 0
M  V30 2126 C 201.932 1.20293 -2.01412 0
M  V30 2127 C 202.948 1.47107 -0.929273 0
M  V30 2128 O 204.124 1.58807 -1.23863 0
M  V30 2129 C 201.189 2.51682 -2.38447 0
M  V30 2130 C 200.25 2.32529 -3.60872 0
M  V30 2131 C 199.483 3.57653 -3.96132 0
M  V30 2132 O 199.706 4.63771 -3.32073 0
M  V30 2133 O 198.64 3.50408 -4.89385 0
M  V30 2134 H 202.466 0.855025 -2.91416 0
M  V30 2135 H 200.051 0.357151 -1.45068 0
M  V30 2136 H 201.933 3.29147 -2.63135 0
M  V30 2137 H 200.608 2.86006 -1.51599 0
M  V30 2138 H 199.515 1.53019 -3.41373 0
M  V30 2139 H 200.848 2.03121 -4.48333 0
M  V30 2140 N 202.5 1.5196 0.417844 0
M  V30 2141 C 203.777 1.56146 1.17803 0
M  V30 2142 C 204.157 0.337275 2.08388 0
M  V30 2143 O 203.505 -0.676447 2.18258 0
M  V30 2144 C 203.715 2.88566 1.96293 0
M  V30 2145 C 205.063 3.41244 2.52662 0
M  V30 2146 O 206.087 2.90247 2.06483 0
M  V30 2147 O 204.946 4.30273 3.36938 0
M  V30 2148 H 202.04 0.628598 0.537395 0
M  V30 2149 H 204.586 1.64283 0.425331 0
M  V30 2150 H 203.358 3.69116 1.2988 0
M  V30 2151 H 202.981 2.83681 2.78587 0
M  V30 2152 N 203.978 -0.674533 1.42435 0
M  V30 2153 C 205.226 -1.43175 1.42637 0
M  V30 2154 C 205.547 -1.94951 0.0438992 0
M  V30 2155 O 204.817 -1.7308 -0.917607 0
M  V30 2156 H 203.397 -0.531307 0.525092 0
M  V30 2157 H 206.059 -0.797006 1.77859 0
M  V30 2158 H 205.155 -2.28463 2.12629 0
M  V30 2159 N 205.456 -1.28612 -0.910864 0
M  V30 2160 C 206.386 -1.15326 -2.03032 0
M  V30 2161 C 207.367 -0.0502924 -1.70026 0
M  V30 2162 O 208.552 -0.227797 -1.92859 0
M  V30 2163 C 205.682 -0.817343 -3.37545 0
M  V30 2164 C 204.636 -1.8754 -3.84724 0
M  V30 2165 C 203.962 -1.39305 -5.16235 0
M  V30 2166 C 205.262 -3.28244 -4.06267 0
M  V30 2167 H 206.956 -2.08975 -2.14406 0
M  V30 2168 H 204.502 -1.00612 -1.03021 0
M  V30 2169 H 206.455 -0.711151 -4.15356 0
M  V30 2170 H 205.179 0.154846 -3.26233 0
M  V30 2171 H 203.838 -1.97079 -3.09121 0
M  V30 2172 H 203.486 -0.409846 -5.01328 0
M  V30 2173 H 203.186 -2.10057 -5.48771 0
M  V30 2174 H 204.71 -1.30014 -5.96598 0
M  V30 2175 H 206.124 -3.21611 -4.74594 0
M  V30 2176 H 204.521 -3.96855 -4.5014 0
M  V30 2177 H 205.591 -3.72048 -3.10979 0
M  V30 2178 N 206.934 1.1197 -1.10907 0
M  V30 2179 C 208.345 1.65114 -0.871446 0
M  V30 2180 C 208.696 1.86885 0.597353 0
M  V30 2181 O 207.821 1.59896 1.45816 0
M  V30 2182 C 208.416 2.99944 -1.5754 0
M  V30 2183 C 206.975 3.50018 -1.38435 0
M  V30 2184 C 206.122 2.24941 -1.62164 0
M  V30 2185 H 209.073 0.956851 -1.2661 0
M  V30 2186 H 209.094 3.66651 -1.01721 0
M  V30 2187 H 208.606 2.84067 -2.64438 0
M  V30 2188 H 206.707 3.71071 -0.337214 0
M  V30 2189 H 206.82 4.29165 -2.12965 0
M  V30 2190 H 205.184 2.3229 -1.04467 0
M  V30 2191 H 205.967 2.11612 -2.70324 0
M  V30 2192 N 208.412 0.89855 1.29475 0
M  V30 2193 C 209.362 0.346767 2.25348 0
M  V30 2194 C 210.346 -0.532509 1.51833 0
M  V30 2195 O 211.538 -0.374714 1.72988 0
M  V30 2196 C 208.667 -0.425681 3.40651 0
M  V30 2197 C 207.753 0.46845 4.21505 0
M  V30 2198 N 208.144 1.57514 4.80648 0
M  V30 2199 C 206.442 0.26603 4.45206 0
M  V30 2200 C 207.143 2.12889 5.41344 0
M  V30 2201 N 206.119 1.42208 5.24669 0
M  V30 2202 H 209.921 1.19219 2.68634 0
M  V30 2203 H 207.435 0.749473 1.44072 0
M  V30 2204 H 209.432 -0.837716 4.08397 0
M  V30 2205 H 208.092 -1.26838 2.98902 0
M  V30 2206 H 209.103 1.95789 4.79465 0
M  V30 2207 H 205.78 -0.538394 4.14014 0
M  V30 2208 H 207.17 3.05901 5.98226 0
M  V30 2209 N 209.89 -1.43072 0.660911 0
M  V30 2210 C 211.136 -2.0202 0.177708 0
M  V30 2211 C 211.469 -1.52066 -1.20787 0
M  V30 2212 O 210.744 -0.716987 -1.80802 0
M  V30 2213 C 211.027 -3.59561 0.197019 0
M  V30 2214 C 210.88 -4.19727 1.61706 0
M  V30 2215 C 212.199 -4.37664 -0.462396 0
M  V30 2216 H 209.318 -0.734034 0.0660494 0
M  V30 2217 H 211.96 -1.70272 0.843058 0
M  V30 2218 H 210.11 -3.86739 -0.369527 0
M  V30 2219 H 211.782 -4.03553 2.23479 0
M  V30 2220 H 210.025 -3.76084 2.16201 0
M  V30 2221 H 210.696 -5.28834 1.58237 0
M  V30 2222 H 213.172 -4.16095 0.0197215 0
M  V30 2223 H 212.048 -5.47305 -0.418188 0
M  V30 2224 H 212.309 -4.14493 -1.53778 0
M  V30 2225 N 211.368 -0.403325 -1.52352 0
M  V30 2226 C 212.315 0.425011 -2.26853 0
M  V30 2227 C 213.285 1.04598 -1.29029 0
M  V30 2228 O 214.47 1.07135 -1.57882 0
M  V30 2229 C 211.61 1.53888 -3.08889 0
M  V30 2230 C 210.723 0.939396 -4.21663 0
M  V30 2231 C 209.858 2.02547 -4.91068 0
M  V30 2232 C 208.897 1.40263 -5.95813 0
M  V30 2233 N 208.034 2.4286 -6.58759 0
M  V30 2234 H 212.874 -0.21674 -2.97211 0
M  V30 2235 H 210.411 -0.118722 -1.4662 0
M  V30 2236 H 212.369 2.19558 -3.54753 0
M  V30 2237 H 210.999 2.15074 -2.40714 0
M  V30 2238 H 210.051 0.171898 -3.80011 0
M  V30 2239 H 211.363 0.44436 -4.96817 0
M  V30 2240 H 210.517 2.75958 -5.40308 0
M  V30 2241 H 209.256 2.55415 -4.15469 0
M  V30 2242 H 208.261 0.653833 -5.45898 0
M  V30 2243 H 209.486 0.881719 -6.73352 0
M  V30 2244 H 207.432 2.94871 -5.85992 0
M  V30 2245 H 207.349 1.98152 -7.2957 0
M  V30 2246 H 208.617 3.15858 -7.12639 0
M  V30 2247 N 212.846 1.57033 -0.133567 0
M  V30 2248 C 214.074 2.00044 0.528195 0
M  V30 2249 C 214.489 1.01349 1.59291 0
M  V30 2250 O 213.846 0.00848369 1.82498 0
M  V30 2251 C 213.897 3.43018 1.1411 0
M  V30 2252 O 213.618 4.37939 0.11892 0
M  V30 2253 C 215.119 4.01237 1.88477 0
M  V30 2254 H 212.339 0.656517 0.138661 0
M  V30 2255 H 214.883 2.03267 -0.224196 0
M  V30 2256 H 213.038 3.40688 1.84418 0
M  V30 2257 H 213.452 5.21436 0.56613 0
M  V30 2258 H 214.926 5.03314 2.26669 0
M  V30 2259 H 215.403 3.41193 2.76558 0
M  V30 2260 H 216.009 4.07156 1.22898 0
M  V30 2261 N 214.325 -0.140222 1.56975 0
M  V30 2262 C 215.602 -0.880769 1.74648 0
M  V30 2263 C 215.982 -1.99036 0.703404 0
M  V30 2264 O 215.33 -2.26821 -0.27648 0
M  V30 2265 C 215.54 -1.417 3.18939 0
M  V30 2266 C 216.888 -1.87774 3.80823 0
M  V30 2267 O 217.912 -1.51427 3.2241 0
M  V30 2268 O 216.771 -2.54827 4.83452 0
M  V30 2269 H 213.865 -0.416713 0.714338 0
M  V30 2270 H 216.411 -0.125618 1.69234 0
M  V30 2271 H 215.183 -0.619902 3.86359 0
M  V30 2272 H 214.806 -2.23546 3.28805 0
M  V30 2273 N 215.803 -1.52179 -0.40978 0
M  V30 2274 C 217.051 -1.65878 -1.15451 0
M  V30 2275 C 217.372 -0.390771 -1.91044 0
M  V30 2276 O 216.642 0.594323 -1.86667 0
M  V30 2277 H 215.222 -0.611405 -0.429177 0
M  V30 2278 H 217.884 -1.89219 -0.467134 0
M  V30 2279 H 216.98 -2.49954 -1.86894 0
M  V30 2280 N 217.281 0.66697 -1.42791 0
M  V30 2281 C 218.213 1.7925 -1.42836 0
M  V30 2282 C 219.226 1.59496 -0.326333 0
M  V30 2283 O 220.415 1.6847 -0.589916 0
M  V30 2284 C 217.515 3.16476 -1.21229 0
M  V30 2285 C 216.688 3.63011 -2.44013 0
M  V30 2286 C 215.747 4.78993 -2.17834 0
M  V30 2287 O 214.773 4.89137 -2.91091 0
M  V30 2288 N 215.975 5.68248 -1.18635 0
M  V30 2289 H 218.74 1.79695 -2.39854 0
M  V30 2290 H 216.301 0.850338 -1.37771 0
M  V30 2291 H 218.293 3.91734 -1.01621 0
M  V30 2292 H 216.863 3.10884 -0.32706 0
M  V30 2293 H 216.083 2.78346 -2.79137 0
M  V30 2294 H 217.371 3.90845 -3.25757 0
M  V30 2295 H 216.769 5.62712 -0.580615 0
M  V30 2296 H 215.326 6.43285 -1.05013 0
M  V30 2297 N 218.759 1.29093 0.90403 0
M  V30 2298 C 220.008 1.16187 1.64874 0
M  V30 2299 C 220.321 -0.286742 1.93487 0
M  V30 2300 O 221.527 -0.537062 2.66135 0
M  V30 2301 C 219.983 2.03177 2.97064 0
M  V30 2302 C 219.591 3.52836 2.76062 0
M  V30 2303 C 221.335 1.98984 3.74974 0
M  V30 2304 C 219.242 4.31945 4.03952 0
M  V30 2305 H 218.172 0.431246 0.618501 0
M  V30 2306 H 220.823 1.53699 1.00243 0
M  V30 2307 H 219.205 1.5853 3.62883 0
M  V30 2308 H 220.379 4.05507 2.18863 0
M  V30 2309 H 218.694 3.58656 2.11553 0
M  V30 2310 H 221.291 2.55351 4.69787 0
M  V30 2311 H 221.634 0.968815 4.0487 0
M  V30 2312 H 222.167 2.41652 3.15989 0
M  V30 2313 H 218.906 5.34667 3.79225 0
M  V30 2314 H 218.426 3.84045 4.60727 0
M  V30 2315 H 220.105 4.42379 4.72133 0
M  V30 2316 N 220.237 -1.11381 1.11499 0
M  V30 2317 C 221.514 -1.7955 0.775965 0
M  V30 2318 C 221.894 -1.97859 -0.73588 0
M  V30 2319 O 221.242 -1.56376 -1.66609 0
M  V30 2320 C 221.452 -3.13196 1.53977 0
M  V30 2321 C 222.8 -3.88227 1.71944 0
M  V30 2322 O 223.824 -3.22887 1.50407 0
M  V30 2323 O 222.683 -5.05477 2.07738 0
M  V30 2324 H 219.777 -0.777728 0.28119 0
M  V30 2325 H 222.323 -1.18118 1.21845 0
M  V30 2326 H 221.095 -2.95229 2.56818 0
M  V30 2327 H 220.718 -3.82342 1.09088 0
M  V30 2328 N 221.715 -0.905404 -1.28997 0
M  V30 2329 C 222.964 -0.530191 -1.94607 0
M  V30 2330 C 223.277 0.929185 -1.72121 0
M  V30 2331 O 224.483 1.41218 -2.31883 0
M  V30 2332 C 222.939 -0.897333 -3.48534 0
M  V30 2333 C 222.547 -2.37587 -3.79811 0
M  V30 2334 C 224.291 -0.592304 -4.20347 0
M  V30 2335 C 222.198 -2.68357 -5.27009 0
M  V30 2336 H 221.128 -0.194558 -0.728466 0
M  V30 2337 H 223.779 -1.10318 -1.46636 0
M  V30 2338 H 222.161 -0.253214 -3.9519 0
M  V30 2339 H 223.335 -3.06602 -3.43994 0
M  V30 2340 H 221.65 -2.6505 -3.2115 0
M  V30 2341 H 224.247 -0.798975 -5.28697 0
M  V30 2342 H 224.59 0.469474 -4.13644 0
M  V30 2343 H 225.123 -1.19452 -3.79442 0
M  V30 2344 H 221.862 -3.73355 -5.38782 0
M  V30 2345 H 221.382 -2.03971 -5.64053 0
M  V30 2346 H 223.061 -2.54922 -5.94663 0
M  V30 2347 N 223.193 1.4272 -0.668489 0
M  V30 2348 C 224.439 2.01923 -0.188419 0
M  V30 2349 C 224.772 1.52704 1.19979 0
M  V30 2350 O 224.047 0.726566 1.8042 0
M  V30 2351 C 224.33 3.59451 -0.216085 0
M  V30 2352 C 224.183 4.18864 -1.6393 0
M  V30 2353 C 225.502 4.37903 0.439179 0
M  V30 2354 H 222.621 0.733674 -0.0699412 0
M  V30 2355 H 225.263 1.69822 -0.852076 0
M  V30 2356 H 223.413 3.86929 0.349012 0
M  V30 2357 H 225.085 4.02362 -2.25616 0
M  V30 2358 H 223.328 3.74933 -2.18193 0
M  V30 2359 H 223.999 5.27987 -1.61039 0
M  V30 2360 H 226.475 4.16079 -0.0417878 0
M  V30 2361 H 225.351 5.47519 0.389157 0
M  V30 2362 H 225.612 4.15303 1.51577 0
M  V30 2363 N 224.671 0.411399 1.52136 0
M  V30 2364 C 225.896 -0.165538 2.06738 0
M  V30 2365 C 226.321 -1.379 1.27926 0
M  V30 2366 O 225.679 -1.78628 0.310114 0
M  V30 2367 C 225.727 -0.492124 3.57226 0
M  V30 2368 O 224.831 -1.58276 3.80818 0
M  V30 2369 H 224.172 -0.0132132 0.663869 0
M  V30 2370 H 226.702 0.585253 1.96051 0
M  V30 2371 H 226.712 -0.750104 4.01045 0
M  V30 2372 H 225.387 0.394922 4.14021 0
M  V30 2373 H 223.964 -1.31677 3.48877 0
M  V30 2374 N 226.149 -1.5696 0.141893 0
M  V30 2375 C 227.395 -1.9625 -0.511248 0
M  V30 2376 C 227.728 -1.02654 -1.64851 0
M  V30 2377 O 227.003 -0.0679676 -1.94381 0
M  V30 2378 C 227.286 -3.45285 -1.02227 0
M  V30 2379 C 227.139 -4.49658 0.113138 0
M  V30 2380 C 228.458 -3.96698 -1.90574 0
M  V30 2381 H 225.577 -0.713567 -0.184367 0
M  V30 2382 H 228.219 -1.88698 0.222087 0
M  V30 2383 H 226.369 -3.51852 -1.64719 0
M  V30 2384 H 228.041 -4.55174 0.749302 0
M  V30 2385 H 226.284 -4.26857 0.773026 0
M  V30 2386 H 226.955 -5.51258 -0.286053 0
M  V30 2387 H 229.431 -3.92578 -1.37918 0
M  V30 2388 H 228.307 -5.01453 -2.2324 0
M  V30 2389 H 228.568 -3.3875 -2.84079 0
M  V30 2390 N 227.627 0.131896 -1.57047 0
M  V30 2391 C 228.59 1.14638 -1.98471 0
M  V30 2392 C 229.59 1.35029 -0.873148 0
M  V30 2393 O 230.78 1.31764 -1.13946 0
M  V30 2394 C 227.912 2.50358 -2.31373 0
M  V30 2395 H 229.105 0.79064 -2.8929 0
M  V30 2396 H 226.658 0.375761 -1.51716 0
M  V30 2397 H 227.393 2.90876 -1.43393 0
M  V30 2398 H 227.178 2.36915 -3.12432 0
M  V30 2399 H 228.668 3.23395 -2.64207 0
M  V30 2400 N 229.106 1.52395 0.401703 0
M  V30 2401 C 230.036 1.79231 1.49661 0
M  V30 2402 C 231.017 0.643654 1.57452 0
M  V30 2403 O 232.202 0.889989 1.72606 0
M  V30 2404 C 229.332 1.94971 2.87409 0
M  V30 2405 C 228.286 3.10604 2.94465 0
M  V30 2406 C 227.612 3.11577 4.34538 0
M  V30 2407 C 228.912 4.49921 2.6527 0
M  V30 2408 H 230.606 2.70917 1.27454 0
M  V30 2409 H 228.152 1.30362 0.6117 0
M  V30 2410 H 230.105 2.12328 3.63999 0
M  V30 2411 H 228.829 0.999632 3.10926 0
M  V30 2412 H 227.488 2.93009 2.20321 0
M  V30 2413 H 227.136 2.14277 4.55076 0
M  V30 2414 H 226.836 3.89247 4.40183 0
M  V30 2415 H 228.36 3.31073 5.13053 0
M  V30 2416 H 229.774 4.67683 3.31581 0
M  V30 2417 H 228.171 5.29564 2.82281 0
M  V30 2418 H 229.241 4.57507 1.60671 0
M  V30 2419 N 230.584 -0.659388 1.43143 0
M  V30 2420 C 231.812 -1.44723 1.47861 0
M  V30 2421 C 232.227 -1.88563 0.0945886 0
M  V30 2422 O 231.584 -1.59108 -0.893915 0
M  V30 2423 C 231.635 -2.68627 2.41913 0
M  V30 2424 O 231.356 -2.26623 3.74932 0
M  V30 2425 C 232.857 -3.62045 2.55809 0
M  V30 2426 H 230.077 -0.444801 0.502387 0
M  V30 2427 H 232.621 -0.808916 1.87821 0
M  V30 2428 H 230.776 -3.28613 2.05164 0
M  V30 2429 H 231.19 -3.06745 4.2545 0
M  V30 2430 H 232.664 -4.45666 3.25708 0
M  V30 2431 H 233.141 -4.08981 1.60099 0
M  V30 2432 H 233.747 -3.07944 2.93344 0
M  V30 2433 N 232.062 -1.29571 -0.897171 0
M  V30 2434 C 233.311 -1.1706 -1.64256 0
M  V30 2435 C 233.624 0.276476 -1.93636 0
M  V30 2436 O 234.83 0.52294 -2.66416 0
M  V30 2437 C 233.286 -2.0475 -2.95982 0
M  V30 2438 C 232.894 -3.54295 -2.74187 0
M  V30 2439 C 234.638 -2.0097 -3.73914 0
M  V30 2440 C 232.545 -4.34081 -4.01656 0
M  V30 2441 H 231.475 -0.43452 -0.616205 0
M  V30 2442 H 234.126 -1.54229 -0.994268 0
M  V30 2443 H 232.508 -1.60452 -3.62038 0
M  V30 2444 H 233.682 -4.06662 -2.1671 0
M  V30 2445 H 231.997 -3.59773 -2.09648 0
M  V30 2446 H 234.594 -2.57838 -4.68427 0
M  V30 2447 H 234.937 -0.990273 -4.0435 0
M  V30 2448 H 235.47 -2.43325 -3.14703 0
M  V30 2449 H 232.209 -5.36671 -3.76384 0
M  V30 2450 H 231.729 -3.86483 -4.58684 0
M  V30 2451 H 233.408 -4.44877 -4.69781 0
M  V30 2452 N 233.54 1.10788 -1.12088 0
M  V30 2453 C 234.77 1.86191 -0.895351 0
M  V30 2454 C 235.178 1.80763 0.558702 0
M  V30 2455 O 234.521 1.19188 1.39785 0
M  V30 2456 C 234.583 3.35659 -1.28737 0
M  V30 2457 C 234.247 3.64849 -2.75198 0
M  V30 2458 C 235.244 3.61757 -3.734 0
M  V30 2459 C 232.929 3.93641 -3.12013 0
M  V30 2460 C 234.923 3.87045 -5.06434 0
M  V30 2461 C 232.61 4.18585 -4.4523 0
M  V30 2462 C 233.608 4.15277 -5.42249 0
M  V30 2463 O 233.296 4.3959 -6.73065 0
M  V30 2464 H 233.028 0.595425 -0.32007 0
M  V30 2465 H 235.582 1.40992 -1.49367 0
M  V30 2466 H 233.812 3.81497 -0.63224 0
M  V30 2467 H 235.501 3.92441 -1.03656 0
M  V30 2468 H 236.267 3.39557 -3.46303 0
M  V30 2469 H 232.146 3.95348 -2.37109 0
M  V30 2470 H 235.69 3.84378 -5.82151 0
M  V30 2471 H 231.587 4.40264 -4.72057 0
M  V30 2472 H 232.355 4.57123 -6.78956 0
M  V30 2473 N 235.018 0.912232 1.28515 0
M  V30 2474 C 236.295 0.463597 1.90027 0
M  V30 2475 C 236.675 -1.05753 1.82701 0
M  V30 2476 O 236.023 -1.90492 1.26194 0
M  V30 2477 C 236.233 0.992253 3.34597 0
M  V30 2478 C 237.581 1.04344 4.11579 0
M  V30 2479 O 238.605 0.94079 3.43551 0
M  V30 2480 O 237.464 1.1995 5.33174 0
M  V30 2481 H 234.558 0.146666 0.813891 0
M  V30 2482 H 237.104 1.00292 1.36893 0
M  V30 2483 H 235.876 2.03623 3.34146 0
M  V30 2484 H 235.499 0.433672 3.95228 0
M  V30 2485 N 236.496 -1.42363 0.676048 0
M  V30 2486 C 237.721 -2.06377 0.205705 0
M  V30 2487 C 238.146 -1.50463 -1.12883 0
M  V30 2488 O 237.504 -0.623619 -1.70237 0
M  V30 2489 C 237.552 -3.60277 0.152655 0
M  V30 2490 O 236.656 -4.02935 -0.87845 0
M  V30 2491 H 235.997 -0.655588 0.105359 0
M  V30 2492 H 238.527 -1.82475 0.925412 0
M  V30 2493 H 238.537 -4.07993 -0.0230675 0
M  V30 2494 H 237.212 -4.00346 1.12675 0
M  V30 2495 H 235.789 -3.66764 -0.673668 0
M  V30 2496 N 237.974 -0.419461 -1.51915 0
M  V30 2497 C 239.202 0.152136 -2.0634 0
M  V30 2498 C 239.617 1.37988 -1.28859 0
M  V30 2499 O 238.974 1.79243 -0.343232 0
M  V30 2500 C 239.025 0.492266 -3.58133 0
M  V30 2501 O 238.746 -0.686736 -4.32684 0
M  V30 2502 C 240.247 1.11648 -4.2901 0
M  V30 2503 H 237.467 0.0158325 -0.670813 0
M  V30 2504 H 240.011 -0.593394 -1.95702 0
M  V30 2505 H 238.166 1.18769 -3.68745 0
M  V30 2506 H 238.58 -0.400341 -5.2297 0
M  V30 2507 H 240.054 1.3046 -5.36362 0
M  V30 2508 H 240.531 2.09251 -3.86148 0
M  V30 2509 H 241.137 0.460958 -4.22795 0
M  V30 2510 N 239.452 1.56882 -0.150215 0
M  V30 2511 C 240.68 2.00593 0.506948 0
M  V30 2512 C 241.095 1.03033 1.58208 0
M  V30 2513 O 240.452 0.0278396 1.82479 0
M  V30 2514 C 240.503 3.44209 1.10465 0
M  V30 2515 O 240.224 4.3804 0.0724636 0
M  V30 2516 C 241.725 4.03214 1.84211 0
M  V30 2517 H 238.945 0.65795 0.13169 0
M  V30 2518 H 241.489 2.03018 -0.245743 0
M  V30 2519 H 239.644 3.42625 1.80795 0
M  V30 2520 H 240.058 5.22007 0.510793 0
M  V30 2521 H 241.532 5.0569 2.21318 0
M  V30 2522 H 242.009 3.44107 2.72923 0
M  V30 2523 H 242.615 4.08437 1.18572 0
M  V30 2524 N 240.93 -0.123565 1.57115 0
M  V30 2525 C 241.86 -1.15309 2.03042 0
M  V30 2526 C 242.841 -1.43454 0.914061 0
M  V30 2527 O 244.026 -1.53973 1.18347 0
M  V30 2528 C 241.156 -2.48043 2.43089 0
M  V30 2529 C 240.11 -2.3437 3.58127 0
M  V30 2530 C 239.436 -3.72026 3.84059 0
M  V30 2531 C 240.736 -1.80804 4.90007 0
M  V30 2532 H 242.43 -0.771102 2.893 0
M  V30 2533 H 239.976 -0.369479 1.39179 0
M  V30 2534 H 241.929 -3.20311 2.73823 0
M  V30 2535 H 240.653 -2.88122 1.53796 0
M  V30 2536 H 239.312 -1.64551 3.27595 0
M  V30 2537 H 238.96 -4.09582 2.91979 0
M  V30 2538 H 238.66 -3.63732 4.6149 0
M  V30 2539 H 240.184 -4.45806 4.1724 0
M  V30 2540 H 241.598 -2.42886 5.19307 0
M  V30 2541 H 239.995 -1.83343 5.71407 0
M  V30 2542 H 241.065 -0.76528 4.78823 0
M  V30 2543 N 242.408 -1.52605 -0.393616 0
M  V30 2544 C 243.824 -1.41753 -0.733357 0
M  V30 2545 C 244.024 -0.534293 -1.94287 0
M  V30 2546 O 243.08 -0.0059787 -2.52499 0
M  V30 2547 C 244.393 -2.84531 -0.972772 0
M  V30 2548 C 245.941 -2.93978 -1.07453 0
M  V30 2549 C 246.416 -4.37756 -1.3466 0
M  V30 2550 N 247.907 -4.4106 -1.41492 0
M  V30 2551 C 248.642 -5.49387 -1.642 0
M  V30 2552 N 248.138 -6.67806 -1.8441 0
M  V30 2553 N 249.931 -5.36923 -1.66342 0
M  V30 2554 H 242.082 -2.08555 0.402328 0
M  V30 2555 H 244.345 -0.940654 0.117789 0
M  V30 2556 H 244.051 -3.51353 -0.156204 0
M  V30 2557 H 243.925 -3.26508 -1.88871 0
M  V30 2558 H 246.312 -2.27326 -1.88167 0
M  V30 2559 H 246.393 -2.55435 -0.136605 0
M  V30 2560 H 246.037 -5.04972 -0.544581 0
M  V30 2561 H 245.967 -4.73848 -2.2973 0
M  V30 2562 H 248.458 -3.55705 -1.27601 0
M  V30 2563 H 248.771 -7.46141 -2.01231 0
M  V30 2564 H 247.116 -6.70843 -1.81644 0
M  V30 2565 H 250.307 -4.43381 -1.50102 0
M  V30 2566 H 250.48 -6.21416 -1.837 0
M  V30 2567 N 243.887 0.651787 -1.4349 0
M  V30 2568 C 245.164 1.40909 -1.35661 0
M  V30 2569 C 245.544 2.11099 -0.00511733 0
M  V30 2570 O 244.892 2.04892 1.0115 0
M  V30 2571 C 245.102 2.3926 -2.54078 0
M  V30 2572 C 246.45 3.03217 -2.97228 0
M  V30 2573 O 247.474 2.49588 -2.54135 0
M  V30 2574 O 246.333 4.00455 -3.71885 0
M  V30 2575 H 243.427 0.629625 -0.536191 0
M  V30 2576 H 245.973 0.678575 -1.55542 0
M  V30 2577 H 244.745 1.86352 -3.44076 0
M  V30 2578 H 244.368 3.1976 -2.36303 0
M  V30 2579 N 245.365 1.30045 0.890287 0
M  V30 2580 C 246.312 1.15976 1.99545 0
M  V30 2581 C 247.282 0.0506202 1.66023 0
M  V30 2582 O 248.467 0.219847 1.89529 0
M  V30 2583 C 245.607 0.852054 3.34416 0
M  V30 2584 C 244.72 2.04255 3.80662 0
M  V30 2585 C 243.855 1.6734 5.04154 0
M  V30 2586 C 242.894 2.82916 5.42794 0
M  V30 2587 N 242.031 2.46333 6.57468 0
M  V30 2588 H 246.871 2.10524 2.10911 0
M  V30 2589 H 244.408 1.04749 1.03276 0
M  V30 2590 H 246.366 0.654296 4.12037 0
M  V30 2591 H 244.996 -0.0565502 3.2275 0
M  V30 2592 H 244.048 2.35172 2.98995 0
M  V30 2593 H 245.36 2.90826 4.05242 0
M  V30 2594 H 244.514 1.43908 5.89386 0
M  V30 2595 H 243.253 0.779308 4.81433 0
M  V30 2596 H 242.258 3.0702 4.56091 0
M  V30 2597 H 243.483 3.73004 5.6749 0
M  V30 2598 H 241.429 1.59423 6.36334 0
M  V30 2599 H 241.346 3.26436 6.81891 0
M  V30 2600 H 242.614 2.26244 7.45945 0
M  V30 2601 N 246.843 -1.10192 1.12674 0
M  V30 2602 C 248.092 -1.81573 0.8783 0
M  V30 2603 C 248.405 -1.86249 -0.597557 0
M  V30 2604 O 249.611 -2.5386 -0.962681 0
M  V30 2605 C 248.067 -3.26149 1.52167 0
M  V30 2606 C 247.675 -3.29763 3.03249 0
M  V30 2607 C 249.419 -4.0234 1.3536 0
M  V30 2608 C 247.326 -4.68815 3.60508 0
M  V30 2609 H 246.256 -0.680394 0.324931 0
M  V30 2610 H 248.907 -1.23902 1.35353 0
M  V30 2611 H 247.289 -3.83832 0.974104 0
M  V30 2612 H 248.463 -2.8189 3.6452 0
M  V30 2613 H 246.778 -2.67059 3.19481 0
M  V30 2614 H 249.375 -5.05058 1.75559 0
M  V30 2615 H 249.718 -4.15235 0.297554 0
M  V30 2616 H 250.251 -3.51079 1.87052 0
M  V30 2617 H 246.99 -4.61121 4.65884 0
M  V30 2618 H 246.51 -5.17045 3.04014 0
M  V30 2619 H 248.189 -5.37785 3.59717 0
M  V30 2620 N 248.321 -0.919034 -1.28029 0
M  V30 2621 C 249.231 -0.416756 -2.30869 0
M  V30 2622 C 250.247 0.498235 -1.66714 0
M  V30 2623 O 251.423 0.383144 -1.97722 0
M  V30 2624 C 248.488 0.330274 -3.45123 0
M  V30 2625 C 247.549 -0.618578 -4.2482 0
M  V30 2626 C 246.782 0.0928959 -5.33619 0
M  V30 2627 O 247.005 1.31375 -5.55065 0
M  V30 2628 O 245.939 -0.574499 -5.99152 0
M  V30 2629 H 249.765 -1.27043 -2.75851 0
M  V30 2630 H 247.35 -0.684052 -1.3282 0
M  V30 2631 H 249.232 0.751972 -4.14636 0
M  V30 2632 H 247.907 1.1597 -3.02213 0
M  V30 2633 H 246.814 -1.08978 -3.57875 0
M  V30 2634 H 248.147 -1.41497 -4.71423 0
M  V30 2635 N 249.799 1.42003 -0.683588 0
M  V30 2636 C 250.709 2.34597 -0.0109075 0
M  V30 2637 C 251.725 1.55576 0.779245 0
M  V30 2638 O 252.901 1.88107 0.719555 0
M  V30 2639 C 249.966 3.34199 0.922588 0
M  V30 2640 C 249.027 4.29115 0.125984 0
M  V30 2641 C 248.26 5.23959 1.01502 0
M  V30 2642 O 248.483 5.23952 2.25456 0
M  V30 2643 O 247.417 6.00053 0.47111 0
M  V30 2644 H 251.243 2.93675 -0.773853 0
M  V30 2645 H 248.828 1.42654 -0.443861 0
M  V30 2646 H 250.71 3.95365 1.45823 0
M  V30 2647 H 249.385 2.77582 1.66523 0
M  V30 2648 H 248.292 3.71335 -0.453969 0
M  V30 2649 H 249.625 4.88798 -0.577736 0
M  V30 2650 N 251.277 0.427512 1.51691 0
M  V30 2651 C 252.523 -0.142439 2.02299 0
M  V30 2652 C 252.856 -1.43214 1.31162 0
M  V30 2653 O 252.131 -1.89833 0.423511 0
M  V30 2654 C 252.414 -0.371301 3.58181 0
M  V30 2655 C 252.267 0.936358 4.39946 0
M  V30 2656 C 253.586 -1.14542 4.24933 0
M  V30 2657 H 250.705 -0.0502937 0.735282 0
M  V30 2658 H 253.347 0.564584 1.81418 0
M  V30 2659 H 251.497 -0.973559 3.76104 0
M  V30 2660 H 253.169 1.57184 4.33694 0
M  V30 2661 H 251.412 1.5432 4.05423 0
M  V30 2662 H 252.083 0.730388 5.47147 0
M  V30 2663 H 254.559 -0.635362 4.11221 0
M  V30 2664 H 253.435 -1.27431 5.33903 0
M  V30 2665 H 253.696 -2.17093 3.85127 0
M  V30 2666 N 252.755 -1.56801 0.158532 0
M  V30 2667 C 254.171 -1.5837 -0.197774 0
M  V30 2668 C 254.371 -1.17334 -1.63814 0
M  V30 2669 O 253.427 -0.878988 -2.36707 0
M  V30 2670 C 254.74 -3.00615 0.0714459 0
M  V30 2671 C 256.288 -3.12999 0.00864533 0
M  V30 2672 C 256.763 -4.57313 0.250685 0
M  V30 2673 N 258.254 -4.62777 0.198014 0
M  V30 2674 C 258.989 -5.72271 0.359642 0
M  V30 2675 N 258.485 -6.90371 0.579625 0
M  V30 2676 N 260.278 -5.61318 0.296438 0
M  V30 2677 H 252.429 -1.81765 1.09887 0
M  V30 2678 H 254.692 -0.841849 0.435884 0
M  V30 2679 H 254.398 -3.35068 1.06874 0
M  V30 2680 H 254.272 -3.71683 -0.642757 0
M  V30 2681 H 256.659 -2.7838 -0.979217 0
M  V30 2682 H 256.74 -2.44393 0.755359 0
M  V30 2683 H 256.384 -4.92639 1.2357 0
M  V30 2684 H 256.314 -5.24061 -0.516489 0
M  V30 2685 H 258.805 -3.77885 0.0331115 0
M  V30 2686 H 259.118 -7.69689 0.69275 0
M  V30 2687 H 257.463 -6.92264 0.616087 0
M  V30 2688 H 260.654 -4.67932 0.125258 0
M  V30 2689 H 260.827 -6.46599 0.425831 0
M  V30 2690 N 254.233 0.115231 -1.57178 0
M  V30 2691 C 255.461 0.836437 -1.89239 0
M  V30 2692 C 255.876 1.73256 -0.750175 0
M  V30 2693 O 255.233 1.80357 0.278832 0
M  V30 2694 C 255.284 1.66671 -3.20785 0
M  V30 2695 O 255.005 0.806652 -4.3061 0
M  V30 2696 C 256.506 2.49274 -3.66575 0
M  V30 2697 H 253.726 0.240253 -0.626514 0
M  V30 2698 H 256.27 0.0984932 -2.04263 0
M  V30 2699 H 254.425 2.35737 -3.0742 0
M  V30 2700 H 254.839 1.37969 -5.06028 0
M  V30 2701 H 256.313 3.03055 -4.6137 0
M  V30 2702 H 256.79 3.26807 -2.93417 0
M  V30 2703 H 257.396 1.85443 -3.82741 0
M  V30 2704 N 255.711 1.52812 0.385517 0
M  V30 2705 C 256.659 1.78482 1.49155 0
M  V30 2706 C 257.653 0.652914 1.56312 0
M  V30 2707 O 258.859 0.835464 1.59436 0
M  V30 2708 H 255.234 0.5648 0.496493 0
M  V30 2709 H 257.205 2.71095 1.24699 0
M  V30 2710 C 255.954 1.97378 2.86247 0
M  V30 2711 H 255.277 2.83907 2.81491 0
M  V30 2712 H 256.717 2.19327 3.62866 0
M  V30 2713 C 255.176 0.74728 3.28508 0
M  V30 2714 O 255.706 -0.0736232 4.01633 0
M  V30 2715 N 253.912 0.576396 2.84826 0
M  V30 2716 H 253.459 1.24555 2.25486 0
M  V30 2717 H 253.417 -0.24288 3.1346 0
M  V30 2718 N 257.189 -0.644168 1.43834 0
M  V30 2719 C 258.152 -1.73857 1.49353 0
M  V30 2720 C 259.152 -1.56315 0.377112 0
M  V30 2721 O 260.342 -1.62048 0.639226 0
M  V30 2722 C 257.474 -3.12819 1.35488 0
M  V30 2723 H 258.667 -1.70342 2.46827 0
M  V30 2724 H 256.22 -0.856652 1.30733 0
M  V30 2725 H 256.955 -3.2194 0.390569 0
M  V30 2726 H 256.74 -3.26958 2.16428 0
M  V30 2727 H 258.23 -3.92606 1.42302 0
M  V30 2728 N 258.668 -1.30515 -0.883378 0
M  V30 2729 C 259.616 -1.16941 -2.01066 0
M  V30 2730 C 260.61 -0.0809148 -1.69207 0
M  V30 2731 O 261.816 -0.241877 -1.78367 0
M  V30 2732 H 258.191 -0.361705 -0.659298 0
M  V30 2733 H 260.162 -2.12344 -2.09649 0
M  V30 2734 C 258.911 -0.879694 -3.36388 0
M  V30 2735 H 258.234 -1.70936 -3.61415 0
M  V30 2736 H 259.674 -0.82483 -4.159 0
M  V30 2737 C 258.133 0.417409 -3.34304 0
M  V30 2738 O 258.663 1.43843 -3.75063 0
M  V30 2739 N 256.869 0.429141 -2.87414 0
M  V30 2740 H 256.416 -0.402222 -2.5444 0
M  V30 2741 H 256.374 1.29696 -2.86403 0
M  V30 2742 N 260.146 1.09593 -1.13257 0
M  V30 2743 C 261.423 1.78293 -0.804432 0
M  V30 2744 C 261.803 1.99004 0.70431 0
M  V30 2745 O 261.151 1.59007 1.641 0
M  V30 2746 C 261.361 3.10707 -1.5894 0
M  V30 2747 C 262.709 3.85443 -1.78099 0
M  V30 2748 O 263.733 3.20454 -1.55525 0
M  V30 2749 O 262.592 5.02108 -2.15753 0
M  V30 2750 H 259.686 0.773156 -0.293528 0
M  V30 2751 H 262.232 1.16164 -1.23709 0
M  V30 2752 H 261.004 2.91106 -2.61482 0
M  V30 2753 H 260.627 3.80558 -1.15157 0
M  V30 2754 N 261.624 0.925811 1.2754 0
M  V30 2755 C 263.035 0.610102 1.7645 0
M  V30 2756 C 263.386 -0.874723 1.75622 0
M  V30 2757 O 262.511 -1.68444 1.35851 0
M  V30 2758 C 263.106 1.10073 3.20421 0
M  V30 2759 C 261.665 0.835723 3.67005 0
M  V30 2760 C 260.812 1.26054 2.46993 0
M  V30 2761 H 263.763 1.10579 1.13833 0
M  V30 2762 H 263.784 0.447557 3.77859 0
M  V30 2763 H 263.296 2.18143 3.20991 0
M  V30 2764 H 261.397 -0.231249 3.71882 0
M  V30 2765 H 261.51 1.45193 4.56569 0
M  V30 2766 H 259.874 0.679111 2.45479 0
M  V30 2767 H 260.657 2.34984 2.50275 0
M  V30 2768 N 263.102 -1.41638 0.69111 0
M  V30 2769 C 264.049 -2.30789 0.0229705 0
M  V30 2770 C 265.019 -1.46863 -0.775911 0
M  V30 2771 O 266.204 -1.75661 -0.74485 0
M  V30 2772 C 263.344 -3.32868 -0.910666 0
M  V30 2773 C 262.457 -4.31875 -0.103874 0
M  V30 2774 C 261.592 -5.21024 -1.03475 0
M  V30 2775 C 260.631 -6.11702 -0.220598 0
M  V30 2776 N 259.768 -6.93349 -1.10504 0
M  V30 2777 H 264.608 -2.87366 0.788978 0
M  V30 2778 H 262.145 -1.41535 0.400794 0
M  V30 2779 H 264.103 -3.90596 -1.46597 0
M  V30 2780 H 262.733 -2.77851 -1.64312 0
M  V30 2781 H 261.785 -3.76131 0.568285 0
M  V30 2782 H 263.097 -4.96003 0.527504 0
M  V30 2783 H 262.251 -5.83565 -1.65943 0
M  V30 2784 H 260.99 -4.57112 -1.69999 0
M  V30 2785 H 259.995 -5.48215 0.417187 0
M  V30 2786 H 261.22 -6.77668 0.440784 0
M  V30 2787 H 259.166 -6.3205 -1.75638 0
M  V30 2788 H 259.083 -7.54146 -0.529125 0
M  V30 2789 H 260.351 -7.60362 -1.71667 0
M  V30 2790 N 264.58 -0.43555 -1.51462 0
M  V30 2791 C 265.826 0.123979 -2.03022 0
M  V30 2792 C 266.181 1.4054 -1.31401 0
M  V30 2793 O 265.474 1.86948 -0.419634 0
M  V30 2794 C 265.668 0.39942 -3.55161 0
M  V30 2795 C 265.497 -0.853754 -4.41521 0
M  V30 2796 C 264.267 -1.38675 -4.85898 0
M  V30 2797 C 266.465 -1.73939 -4.83994 0
M  V30 2798 N 264.447 -2.59265 -5.56466 0
M  V30 2799 C 265.818 -2.79135 -5.5361 0
M  V30 2800 C 267.873 -1.75402 -4.65981 0
M  V30 2801 C 266.576 -3.85737 -6.07124 0
M  V30 2802 C 268.602 -2.80938 -5.20411 0
M  V30 2803 C 267.964 -3.84854 -5.89972 0
M  V30 2804 H 264.063 0.00624887 -0.781975 0
M  V30 2805 H 266.647 -0.59582 -1.85359 0
M  V30 2806 H 264.818 1.08825 -3.72843 0
M  V30 2807 H 266.55 0.95015 -3.93388 0
M  V30 2808 H 263.305 -0.94094 -4.64159 0
M  V30 2809 H 263.729 -3.2041 -5.96378 0
M  V30 2810 H 268.371 -0.963926 -4.11665 0
M  V30 2811 H 266.089 -4.65586 -6.60496 0
M  V30 2812 H 269.675 -2.8301 -5.08327 0
M  V30 2813 H 268.555 -4.65176 -6.31333 0
M  V30 2814 N 266.058 1.56714 -0.166846 0
M  V30 2815 C 267.286 2.0112 0.485644 0
M  V30 2816 C 267.701 1.04705 1.57106 0
M  V30 2817 O 267.058 0.0471923 1.82439 0
M  V30 2818 C 267.109 3.45361 1.06808 0
M  V30 2819 O 266.83 4.38092 0.0259995 0
M  V30 2820 C 268.331 4.05145 1.79924 0
M  V30 2821 H 265.551 0.65931 0.124704 0
M  V30 2822 H 268.095 2.02746 -0.267262 0
M  V30 2823 H 266.25 3.44524 1.7715 0
M  V30 2824 H 266.664 5.22519 0.455398 0
M  V30 2825 H 268.138 5.08009 2.15942 0
M  V30 2826 H 268.615 3.46982 2.69258 0
M  V30 2827 H 269.221 4.09672 1.14234 0
M  V30 2828 N 267.536 -0.106894 1.57237 0
M  V30 2829 C 268.446 -1.14911 2.0453 0
M  V30 2830 C 269.462 -1.44592 0.96795 0
M  V30 2831 O 270.638 -1.55468 1.2803 0
M  V30 2832 C 267.703 -2.45272 2.45036 0
M  V30 2833 C 266.764 -2.22879 3.66911 0
M  V30 2834 C 265.997 -3.47024 4.05475 0
M  V30 2835 O 266.22 -4.54804 3.44252 0
M  V30 2836 O 265.154 -3.3731 4.98504 0
M  V30 2837 H 268.98 -0.777461 2.9358 0
M  V30 2838 H 266.565 -0.318563 1.45964 0
M  V30 2839 H 268.447 -3.22055 2.71769 0
M  V30 2840 H 267.122 -2.81886 1.59129 0
M  V30 2841 H 266.029 -1.43915 3.45311 0
M  V30 2842 H 267.362 -1.91163 4.53561 0
M  V30 2843 N 269.014 -1.53014 -0.377408 0
M  V30 2844 C 269.924 -1.81557 -1.48574 0
M  V30 2845 C 270.94 -0.703102 -1.59162 0
M  V30 2846 O 272.116 -0.99192 -1.75279 0
M  V30 2847 C 269.181 -1.9889 -2.83978 0
M  V30 2848 C 268.242 -3.22801 -2.83016 0
M  V30 2849 C 267.475 -3.39298 -4.11962 0
M  V30 2850 O 267.698 -2.60345 -5.0752 0
M  V30 2851 O 266.632 -4.32604 -4.18494 0
M  V30 2852 H 270.458 -2.75695 -1.27382 0
M  V30 2853 H 268.043 -1.38248 -0.566373 0
M  V30 2854 H 269.925 -2.11931 -3.6423 0
M  V30 2855 H 268.6 -1.07942 -3.05172 0
M  V30 2856 H 267.507 -3.15193 -2.01505 0
M  V30 2857 H 268.84 -4.13632 -2.66775 0
M  V30 2858 N 270.492 0.636531 -1.44174 0
M  V30 2859 C 271.717 1.42847 -1.50364 0
M  V30 2860 C 272.142 1.87665 -0.127867 0
M  V30 2861 O 271.5 1.58408 0.88185 0
M  V30 2862 C 271.548 2.62854 -2.4686 0
M  V30 2863 O 270.652 3.62501 -1.9664 0
M  V30 2864 H 269.993 0.427642 -0.507955 0
M  V30 2865 H 272.523 0.777422 -1.89255 0
M  V30 2866 H 272.533 3.10465 -2.64718 0
M  V30 2867 H 271.208 2.29578 -3.46795 0
M  V30 2868 H 269.785 3.21735 -1.88523 0
M  V30 2869 N 271.97 1.30982 0.876444 0
M  V30 2870 C 273.386 1.09498 1.16113 0
M  V30 2871 C 273.586 -0.13875 2.01022 0
M  V30 2872 O 272.642 -0.829935 2.38471 0
M  V30 2873 C 273.955 2.36308 1.85954 0
M  V30 2874 C 275.503 2.41856 1.98683 0
M  V30 2875 C 275.978 3.6853 2.71937 0
M  V30 2876 N 277.469 3.69387 2.79477 0
M  V30 2877 C 278.204 4.64096 3.36753 0
M  V30 2878 N 277.7 5.69155 3.95012 0
M  V30 2879 N 279.493 4.51626 3.3465 0
M  V30 2880 H 271.644 2.10118 0.310494 0
M  V30 2881 H 273.907 0.926634 0.200131 0
M  V30 2882 H 273.613 3.26388 1.31011 0
M  V30 2883 H 273.487 2.4561 2.86278 0
M  V30 2884 H 275.874 1.52249 2.52793 0
M  V30 2885 H 275.955 2.36523 0.9742 0
M  V30 2886 H 275.599 4.58499 2.18496 0
M  V30 2887 H 275.529 3.71127 3.73593 0
M  V30 2888 H 278.02 2.93438 2.38123 0
M  V30 2889 H 278.333 6.3751 4.36808 0
M  V30 2890 H 276.678 5.72937 3.93406 0
M  V30 2891 H 279.869 3.68728 2.8837 0
M  V30 2892 H 280.042 5.25614 3.7899 0
M  V30 2893 N 273.449 -1.08991 1.13837 0
M  V30 2894 C 274.677 -1.85011 0.926202 0
M  V30 2895 C 275.092 -1.8135 -0.525127 0
M  V30 2896 O 274.449 -1.21287 -1.36366 0
M  V30 2897 C 274.5 -3.32802 1.41155 0
M  V30 2898 O 274.221 -3.36444 2.80601 0
M  V30 2899 C 275.722 -4.25649 1.23847 0
M  V30 2900 H 272.942 -0.584249 0.32999 0
M  V30 2901 H 275.486 -1.37688 1.51202 0
M  V30 2902 H 273.641 -3.77536 0.868631 0
M  V30 2903 H 274.055 -4.28657 3.02248 0
M  V30 2904 H 275.529 -5.27485 1.62675 0
M  V30 2905 H 276.006 -4.38828 0.18065 0
M  V30 2906 H 276.612 -3.86735 1.76964 0
M  V30 2907 N 274.927 -0.932562 -1.27047 0
M  V30 2908 C 275.837 -0.441219 -2.30414 0
M  V30 2909 C 276.853 0.480525 -1.67233 0
M  V30 2910 O 278.029 0.362151 -1.98117 0
M  V30 2911 C 275.094 0.293651 -3.45454 0
M  V30 2912 C 274.155 -0.663601 -4.2414 0
M  V30 2913 C 273.388 0.0362932 -5.33688 0
M  V30 2914 O 273.611 1.2548 -5.56427 0
M  V30 2915 O 272.545 -0.638015 -5.98509 0
M  V30 2916 H 276.371 -1.29962 -2.74488 0
M  V30 2917 H 273.956 -0.6981 -1.32087 0
M  V30 2918 H 275.838 0.707951 -4.15411 0
M  V30 2919 H 274.513 1.12758 -3.03426 0
M  V30 2920 H 273.42 -1.12768 -3.56699 0
M  V30 2921 H 274.753 -1.46489 -4.69896 0
M  V30 2922 N 276.405 1.4127 -0.698611 0
M  V30 2923 C 277.651 2.01478 -0.231207 0
M  V30 2924 C 277.984 1.55215 1.16713 0
M  V30 2925 O 277.259 0.764672 1.78838 0
M  V30 2926 C 277.542 3.58912 -0.292281 0
M  V30 2927 C 277.395 4.15293 -1.72778 0
M  V30 2928 C 278.714 4.38736 0.346194 0
M  V30 2929 H 275.833 0.732025 -0.0854878 0
M  V30 2930 H 278.475 1.67977 -0.887906 0
M  V30 2931 H 276.625 3.87582 0.26686 0
M  V30 2932 H 278.297 3.97486 -2.341 0
M  V30 2933 H 276.54 3.7022 -2.26096 0
M  V30 2934 H 277.211 5.24452 -1.72202 0
M  V30 2935 H 279.687 4.15897 -0.130035 0
M  V30 2936 H 278.563 5.48221 0.272932 0
M  V30 2937 H 278.824 4.18425 1.42734 0
M  V30 2938 N 277.883 0.443576 1.51229 0
M  V30 2939 C 278.813 -0.355142 2.30783 0
M  V30 2940 C 279.794 -1.0154 1.36468 0
M  V30 2941 O 280.979 -1.01785 1.65389 0
M  V30 2942 C 278.109 -1.45312 3.15439 0
M  V30 2943 C 277.063 -0.916002 4.18083 0
M  V30 2944 C 276.389 -2.1102 4.91299 0
M  V30 2945 C 277.689 0.0538602 5.22272 0
M  V30 2946 H 279.383 0.308767 2.97804 0
M  V30 2947 H 276.929 0.149937 1.43217 0
M  V30 2948 H 278.882 -2.01914 3.69876 0
M  V30 2949 H 277.606 -2.14541 2.46252 0
M  V30 2950 H 276.265 -0.372145 3.64706 0
M  V30 2951 H 275.913 -2.78882 4.18609 0
M  V30 2952 H 275.613 -1.75717 5.60712 0
M  V30 2953 H 277.137 -2.68164 5.48562 0
M  V30 2954 H 278.551 -0.422069 5.71744 0
M  V30 2955 H 276.948 0.319776 5.99247 0
M  V30 2956 H 278.018 0.98858 4.74716 0
M  V30 2957 N 279.361 -1.56624 0.175154 0
M  V30 2958 C 280.589 -2.01374 -0.474971 0
M  V30 2959 C 281.004 -1.05537 -1.56548 0
M  V30 2960 O 280.361 -0.0568668 -1.82411 0
M  V30 2961 C 280.412 -3.45923 -1.04975 0
M  V30 2962 O 280.133 -4.381 -0.00276605 0
M  V30 2963 C 281.634 -4.06093 -1.77773 0
M  V30 2964 H 278.854 -0.659962 -0.121206 0
M  V30 2965 H 281.398 -2.02601 0.27801 0
M  V30 2966 H 279.553 -3.45458 -1.75321 0
M  V30 2967 H 279.967 -5.22753 -0.427681 0
M  V30 2968 H 281.441 -5.09147 -2.13245 0
M  V30 2969 H 281.918 -3.48405 -2.67414 0
M  V30 2970 H 282.524 -4.10272 -1.12059 0
M  V30 2971 N 280.839 0.0985539 -1.57292 0
M  V30 2972 C 282.087 0.801092 -1.85545 0
M  V30 2973 C 282.408 1.79438 -0.763353 0
M  V30 2974 O 281.678 1.94763 0.21073 0
M  V30 2975 H 280.258 0.29884 -0.684619 0
M  V30 2976 H 282.92 0.0810064 -1.94732 0
M  V30 2977 H 282.016 1.3338 -2.82163 0
M  V30 2978 N 282.317 1.53212 0.369288 0
M  V30 2979 C 283.247 1.82365 1.45826 0
M  V30 2980 C 284.228 0.676907 1.56051 0
M  V30 2981 O 285.413 0.926401 1.70679 0
M  V30 2982 C 282.543 2.01023 2.83208 0
M  V30 2983 C 281.497 3.1678 2.8781 0
M  V30 2984 C 280.823 3.20724 4.27832 0
M  V30 2985 C 282.123 4.55447 2.55667 0
M  V30 2986 H 283.817 2.73559 1.21678 0
M  V30 2987 H 281.363 1.3163 0.583911 0
M  V30 2988 H 283.316 2.20001 3.59413 0
M  V30 2989 H 282.04 1.06536 3.08736 0
M  V30 2990 H 280.699 2.97616 2.14056 0
M  V30 2991 H 280.347 2.23882 4.50429 0
M  V30 2992 H 280.047 3.98496 4.31827 0
M  V30 2993 H 281.571 3.41881 5.05915 0
M  V30 2994 H 282.985 4.74611 3.21586 0
M  V30 2995 H 281.382 5.35432 2.70984 0
M  V30 2996 H 282.452 4.60812 1.5093 0
M  V30 2997 N 283.795 -0.628877 1.44509 0
M  V30 2998 C 285.072 -1.38733 1.37886 0
M  V30 2999 C 285.452 -2.11065 0.0387008 0
M  V30 3000 O 284.8 -2.06476 -0.97878 0
M  V30 3001 C 285.01 -2.35188 2.57852 0
M  V30 3002 C 286.358 -2.9845 3.02014 0
M  V30 3003 O 287.382 -2.45513 2.58073 0
M  V30 3004 O 286.241 -3.94487 3.78209 0
M  V30 3005 H 283.335 -0.621015 0.54614 0
M  V30 3006 H 285.881 -0.653744 1.56602 0
M  V30 3007 H 284.653 -1.80855 3.46998 0
M  V30 3008 H 284.276 -3.1596 2.4136 0
M  V30 3009 N 285.273 -1.31445 -0.869486 0
M  V30 3010 C 286.501 -1.24122 -1.65534 0
M  V30 3011 C 286.916 0.193387 -1.87807 0
M  V30 3012 O 286.273 1.12557 -1.43656 0
M  V30 3013 C 286.324 -1.98229 -3.02304 0
M  V30 3014 O 286.045 -3.3609 -2.81026 0
M  V30 3015 C 287.546 -1.97751 -3.96749 0
M  V30 3016 H 284.766 -0.428868 -0.516055 0
M  V30 3017 H 287.31 -1.73328 -1.08525 0
M  V30 3018 H 285.465 -1.52782 -3.56001 0
M  V30 3019 H 285.879 -3.7383 -3.67902 0
M  V30 3020 H 287.353 -2.54114 -4.90031 0
M  V30 3021 H 287.83 -0.960137 -4.28577 0
M  V30 3022 H 288.436 -2.43079 -3.48988 0
M  V30 3023 N 286.751 1.08385 -1.14413 0
M  V30 3024 C 288 1.80153 -0.907076 0
M  V30 3025 C 288.313 1.87176 0.567851 0
M  V30 3026 O 289.519 2.55359 0.922172 0
M  V30 3027 C 287.975 3.23687 -1.57336 0
M  V30 3028 C 287.583 3.24897 -3.08457 0
M  V30 3029 C 289.327 4.00136 -1.41744 0
M  V30 3030 C 287.234 4.6302 -3.67921 0
M  V30 3031 H 286.164 0.675139 -0.335714 0
M  V30 3032 H 288.815 1.21733 -1.37307 0
M  V30 3033 H 287.197 3.82234 -1.03505 0
M  V30 3034 H 288.371 2.76055 -3.68958 0
M  V30 3035 H 286.686 2.61943 -3.2369 0
M  V30 3036 H 289.283 5.02201 -1.83572 0
M  V30 3037 H 289.626 4.14709 -0.363576 0
M  V30 3038 H 290.159 3.48058 -1.92614 0
M  V30 3039 H 286.898 4.5365 -4.73161 0
M  V30 3040 H 286.418 5.12143 -3.12201 0
M  V30 3041 H 288.097 5.31994 -3.68227 0
M  V30 3042 N 288.23 0.939286 1.26551 0
M  V30 3043 C 289.177 0.446088 2.26448 0
M  V30 3044 C 290.147 -0.493234 1.58608 0
M  V30 3045 O 291.332 -0.409857 1.86346 0
M  V30 3046 C 288.472 -0.284375 3.43926 0
M  V30 3047 C 287.585 0.690399 4.26448 0
M  V30 3048 C 286.72 -0.0610712 5.31165 0
M  V30 3049 C 285.759 0.905649 6.05363 0
M  V30 3050 N 284.896 0.186055 7.01853 0
M  V30 3051 H 289.736 1.30291 2.68008 0
M  V30 3052 H 287.273 0.65371 1.31776 0
M  V30 3053 H 289.231 -0.724313 4.10864 0
M  V30 3054 H 287.861 -1.10535 3.03285 0
M  V30 3055 H 286.913 1.24885 3.59316 0
M  V30 3056 H 288.225 1.42873 4.779 0
M  V30 3057 H 287.379 -0.56038 6.04106 0
M  V30 3058 H 286.118 -0.832297 4.80546 0
M  V30 3059 H 285.123 1.4161 5.3125 0
M  V30 3060 H 286.348 1.67685 6.58072 0
M  V30 3061 H 284.294 -0.566714 6.53548 0
M  V30 3062 H 284.211 0.863752 7.51049 0
M  V30 3063 H 285.479 -0.292221 7.78952 0
M  V30 3064 N 289.708 -1.40897 0.706093 0
M  V30 3065 C 290.936 -2.05373 0.250887 0
M  V30 3066 C 291.351 -1.53172 -1.10381 0
M  V30 3067 O 290.708 -0.684305 -1.69185 0
M  V30 3068 C 290.759 -3.6088 0.211571 0
M  V30 3069 O 290.48 -4.11153 1.51276 0
M  V30 3070 C 291.981 -4.42517 -0.263346 0
M  V30 3071 H 289.201 -0.66115 0.114552 0
M  V30 3072 H 291.745 -1.80479 0.961635 0
M  V30 3073 H 289.9 -3.84777 -0.450073 0
M  V30 3074 H 290.314 -5.05279 1.40689 0
M  V30 3075 H 291.788 -5.51479 -0.239718 0
M  V30 3076 H 292.265 -4.19396 -1.30397 0
M  V30 3077 H 292.871 -4.23708 0.367677 0
M  V30 3078 N 291.186 -0.45159 -1.50991 0
M  V30 3079 C 292.463 0.170707 -1.94854 0
M  V30 3080 C 292.843 1.58788 -1.39103 0
M  V30 3081 O 292.191 2.20913 -0.583921 0
M  V30 3082 C 292.401 0.133929 -3.48743 0
M  V30 3083 C 293.749 0.33248 -4.23296 0
M  V30 3084 O 294.773 0.211403 -3.55572 0
M  V30 3085 O 293.632 0.57486 -5.43468 0
M  V30 3086 H 290.726 0.122264 -0.817912 0
M  V30 3087 H 293.272 -0.510594 -1.61836 0
M  V30 3088 H 292.044 -0.856283 -3.81816 0
M  V30 3089 H 291.667 0.857529 -3.88242 0
M  V30 3090 N 292.664 1.56529 -0.183458 0
M  V30 3091 C 293.913 1.96419 0.458511 0
M  V30 3092 C 294.226 1.0727 1.63562 0
M  V30 3093 O 295.432 1.36893 2.34462 0
M  V30 3094 C 293.888 3.49298 0.867122 0
M  V30 3095 C 293.496 4.47092 -0.285057 0
M  V30 3096 C 295.24 3.97983 1.47683 0
M  V30 3097 C 293.147 5.91225 0.143862 0
M  V30 3098 H 292.077 0.733394 0.175071 0
M  V30 3099 H 294.728 1.81448 -0.273624 0
M  V30 3100 H 293.11 3.59731 1.65559 0
M  V30 3101 H 294.284 4.48383 -1.0625 0
M  V30 3102 H 292.599 4.08535 -0.805503 0
M  V30 3103 H 295.196 5.03134 1.80999 0
M  V30 3104 H 295.539 3.41618 2.37914 0
M  V30 3105 H 296.072 3.90617 0.752562 0
M  V30 3106 H 292.811 6.5149 -0.723974 0
M  V30 3107 H 292.331 5.93214 0.886413 0
M  V30 3108 H 294.01 6.44362 0.583628 0
M  V30 3109 N 294.142 -0.090211 1.57342 0
M  V30 3110 C 295.419 -0.824761 1.77361 0
M  V30 3111 C 295.799 -1.96698 0.76637 0
M  V30 3112 O 295.147 -2.27586 -0.204179 0
M  V30 3113 C 295.357 -1.31481 3.23286 0
M  V30 3114 C 296.705 -1.75563 3.86604 0
M  V30 3115 O 297.729 -1.41093 3.27065 0
M  V30 3116 O 296.588 -2.39317 4.91314 0
M  V30 3117 H 293.682 -0.393776 0.727234 0
M  V30 3118 H 296.228 -0.0717138 1.69548 0
M  V30 3119 H 295 -0.496671 3.88135 0
M  V30 3120 H 294.623 -2.12973 3.35751 0
M  V30 3121 N 295.62 -1.53406 -0.361157 0
M  V30 3122 C 296.568 -1.80832 -1.46296 0
M  V30 3123 C 297.562 -0.677699 -1.55253 0
M  V30 3124 O 298.768 -0.860723 -1.58087 0
M  V30 3125 H 295.143 -0.572627 -0.487445 0
M  V30 3126 H 297.114 -2.73045 -1.20371 0
M  V30 3127 C 295.863 -2.01907 -2.8307 0
M  V30 3128 H 295.186 -2.88349 -2.76938 0
M  V30 3129 H 296.626 -2.25072 -3.59331 0
M  V30 3130 C 295.085 -0.799449 -3.27277 0
M  V30 3131 O 295.615 0.00971761 -4.01699 0
M  V30 3132 N 293.821 -0.621637 -2.83873 0
M  V30 3133 H 293.368 -1.28126 -2.23476 0
M  V30 3134 H 293.326 0.19298 -3.13807 0
M  V30 3135 N 297.098 0.621204 -1.44841 0
M  V30 3136 C 298.046 1.75385 -1.52784 0
M  V30 3137 C 299.04 1.64639 -0.398779 0
M  V30 3138 O 300.246 1.70598 -0.574137 0
M  V30 3139 H 296.621 0.579193 -0.479625 0
M  V30 3140 H 298.592 1.6581 -2.48092 0
M  V30 3141 C 297.341 3.13742 -1.4987 0
M  V30 3142 H 296.664 3.22663 -2.36069 0
M  V30 3143 H 298.104 3.92861 -1.59487 0
M  V30 3144 C 296.563 3.36175 -0.220973 0
M  V30 3145 O 297.093 3.95469 0.704782 0
M  V30 3146 N 295.299 2.90348 -0.120963 0
M  V30 3147 H 294.846 2.42278 -0.875162 0
M  V30 3148 H 294.804 3.05732 0.733168 0
M  V30 3149 N 298.576 1.31904 0.862503 0
M  V30 3150 C 299.987 1.19803 1.43193 0
M  V30 3151 C 300.338 -0.192567 1.95253 0
M  V30 3152 O 299.463 -1.09081 1.86896 0
M  V30 3153 C 300.058 2.16883 2.60283 0
M  V30 3154 C 298.617 2.08692 3.13248 0
M  V30 3155 C 297.764 2.05691 1.85975 0
M  V30 3156 H 300.715 1.43846 0.670365 0
M  V30 3157 H 300.736 1.76278 3.37204 0
M  V30 3158 H 300.248 3.18083 2.22363 0
M  V30 3159 H 298.349 1.10713 3.55771 0
M  V30 3160 H 298.462 2.9815 3.75025 0
M  V30 3161 H 296.826 1.50814 2.05249 0
M  V30 3162 H 297.609 3.08659 1.50282 0
M  V30 3163 N 300.054 -1.07777 1.14986 0
M  V30 3164 C 301.001 -2.14867 0.842672 0
M  V30 3165 C 301.971 -1.6486 -0.202552 0
M  V30 3166 O 303.156 -1.90668 -0.0710568 0
M  V30 3167 C 300.296 -3.43486 0.333363 0
M  V30 3168 C 299.409 -4.07306 1.43965 0
M  V30 3169 C 298.544 -5.23744 0.886914 0
M  V30 3170 C 297.583 -5.79517 1.97043 0
M  V30 3171 N 296.72 -6.87291 1.4344 0
M  V30 3172 H 301.56 -2.40485 1.75986 0
M  V30 3173 H 299.097 -1.1801 0.878179 0
M  V30 3174 H 301.055 -4.17195 0.0198163 0
M  V30 3175 H 299.685 -3.18133 -0.546916 0
M  V30 3176 H 298.737 -3.31293 1.86946 0
M  V30 3177 H 300.049 -4.44771 2.25788 0
M  V30 3178 H 299.203 -6.04419 0.525651 0
M  V30 3179 H 297.942 -4.87685 0.0377957 0
M  V30 3180 H 296.947 -4.97491 2.34057 0
M  V30 3181 H 298.172 -6.17632 2.82325 0
M  V30 3182 H 296.118 -6.5318 0.607567 0
M  V30 3183 H 296.035 -7.23617 2.18895 0
M  V30 3184 H 297.303 -7.71682 1.10124 0
M  V30 3185 N 301.532 -0.945985 -1.26051 0
M  V30 3186 C 302.76 -0.613025 -1.9761 0
M  V30 3187 C 303.175 0.813035 -1.70397 0
M  V30 3188 O 302.532 1.54274 -0.974979 0
M  V30 3189 C 302.583 -0.85159 -3.51326 0
M  V30 3190 O 302.304 -2.22157 -3.77595 0
M  V30 3191 C 303.805 -0.529831 -4.40122 0
M  V30 3192 H 301.025 -0.230593 -0.630133 0
M  V30 3193 H 303.569 -1.268 -1.60443 0
M  V30 3194 H 301.724 -0.243151 -3.86636 0
M  V30 3195 H 302.138 -2.2852 -4.721 0
M  V30 3196 H 303.612 -0.747348 -5.46917 0
M  V30 3197 H 304.089 0.535341 -4.35925 0
M  V30 3198 H 304.695 -1.11721 -4.10364 0
M  V30 3199 N 303.011 1.40521 -0.713556 0
M  V30 3200 C 303.943 2.29191 -0.0203126 0
M  V30 3201 C 304.956 1.45723 0.725864 0
M  V30 3202 O 306.145 1.69033 0.573581 0
M  V30 3203 C 303.245 3.2395 0.995486 0
M  V30 3204 C 302.418 4.36262 0.315256 0
M  V30 3205 C 301.477 5.11474 1.23616 0
M  V30 3206 O 300.503 5.64606 0.721719 0
M  V30 3207 N 301.705 5.20638 2.56743 0
M  V30 3208 H 304.47 2.89327 -0.781652 0
M  V30 3209 H 302.031 1.51869 -0.561022 0
M  V30 3210 H 304.023 3.71137 1.61368 0
M  V30 3211 H 302.593 2.64995 1.6582 0
M  V30 3212 H 301.813 3.91228 -0.483106 0
M  V30 3213 H 303.101 5.08558 -0.157004 0
M  V30 3214 H 302.499 4.7895 3.01037 0
M  V30 3215 H 301.056 5.71339 3.13712 0
M  V30 3216 N 304.489 0.459591 1.5075 0
M  V30 3217 C 305.717 -0.0973749 2.06671 0
M  V30 3218 C 306.132 -1.34524 1.32472 0
M  V30 3219 O 305.489 -1.7827 0.390634 0
M  V30 3220 C 305.54 -0.39714 3.59312 0
M  V30 3221 O 305.261 0.801214 4.30711 0
M  V30 3222 C 306.762 -1.00234 4.31819 0
M  V30 3223 H 303.982 0.00195854 0.670997 0
M  V30 3224 H 306.526 0.645072 1.94059 0
M  V30 3225 H 304.681 -1.08951 3.71764 0
M  V30 3226 H 305.095 0.538857 5.21725 0
M  V30 3227 H 306.569 -1.16193 5.39632 0
M  V30 3228 H 307.046 -1.98939 3.91561 0
M  V30 3229 H 307.652 -0.348699 4.23868 0
M  V30 3230 N 305.967 -1.56429 0.191757 0
M  V30 3231 C 307.244 -1.89224 -0.495332 0
M  V30 3232 C 307.624 -1.10478 -1.79883 0
M  V30 3233 O 306.972 -0.204852 -2.2758 0
M  V30 3234 C 307.182 -3.41548 -0.717367 0
M  V30 3235 C 308.53 -4.11711 -1.03823 0
M  V30 3236 O 309.554 -3.4698 -0.805204 0
M  V30 3237 O 308.413 -5.2611 -1.47887 0
M  V30 3238 H 305.507 -0.785788 -0.25781 0
M  V30 3239 H 308.053 -1.68111 0.231721 0
M  V30 3240 H 306.825 -3.90772 0.203287 0
M  V30 3241 H 306.448 -3.68342 -1.497 0
M  V30 3242 N 307.445 0.0818655 -1.57387 0
M  V30 3243 C 308.694 0.781681 -1.85937 0
M  V30 3244 C 309.007 1.79246 -0.782957 0
M  V30 3245 O 310.213 2.54112 -0.955987 0
M  V30 3246 C 308.669 1.44109 -3.29789 0
M  V30 3247 C 308.277 0.469396 -4.45534 0
M  V30 3248 C 310.021 2.12386 -3.67549 0
M  V30 3249 C 307.928 1.13415 -5.80423 0
M  V30 3250 H 306.858 0.295682 -0.693605 0
M  V30 3251 H 309.509 0.0348051 -1.83467 0
M  V30 3252 H 307.891 2.23588 -3.2684 0
M  V30 3253 H 309.065 -0.294856 -4.59856 0
M  V30 3254 H 307.38 -0.108383 -4.16259 0
M  V30 3255 H 309.977 2.62878 -4.65617 0
M  V30 3256 H 310.32 2.91877 -2.96839 0
M  V30 3257 H 310.853 1.39751 -3.72444 0
M  V30 3258 H 307.592 0.379771 -6.54399 0
M  V30 3259 H 307.112 1.8695 -5.69921 0
M  V30 3260 H 308.791 1.65686 -6.25426 0
M  V30 3261 N 308.923 1.53595 0.353017 0
M  V30 3262 C 310.2 1.61002 1.11075 0
M  V30 3263 C 310.58 0.425356 2.0677 0
M  V30 3264 O 309.928 -0.583267 2.2093 0
M  V30 3265 C 310.138 2.96631 1.83877 0
M  V30 3266 C 311.486 3.51653 2.37961 0
M  V30 3267 O 312.51 2.98743 1.93987 0
M  V30 3268 O 311.369 4.44177 3.18386 0
M  V30 3269 H 308.463 0.650825 0.510251 0
M  V30 3270 H 311.009 1.6594 0.35527 0
M  V30 3271 H 309.781 3.74293 1.14108 0
M  V30 3272 H 309.404 2.95242 2.66304 0
M  V30 3273 N 310.401 -0.613514 1.45168 0
M  V30 3274 C 311.626 -1.40437 1.52618 0
M  V30 3275 C 312.051 -1.87438 0.157707 0
M  V30 3276 O 311.409 -1.59791 -0.856537 0
M  V30 3277 C 311.457 -2.58894 2.51011 0
M  V30 3278 O 310.561 -3.59326 2.02382 0
M  V30 3279 H 309.902 -0.419506 0.514695 0
M  V30 3280 H 312.432 -0.747215 1.90467 0
M  V30 3281 H 312.442 -3.06214 2.69624 0
M  V30 3282 H 311.117 -2.24032 3.50403 0
M  V30 3283 H 309.694 -3.18695 1.93618 0
M  V30 3284 N 311.879 -1.3236 -0.855495 0
M  V30 3285 C 312.826 -1.21225 -1.964 0
M  V30 3286 C 313.796 -0.0946204 -1.6583 0
M  V30 3287 O 314.981 -0.27002 -1.8888 0
M  V30 3288 C 312.121 -0.940419 -3.32039 0
M  V30 3289 C 311.234 -2.14276 -3.75113 0
M  V30 3290 C 310.369 -1.80648 -4.9954 0
M  V30 3291 C 309.408 -2.97208 -5.35102 0
M  V30 3292 N 308.545 -2.63678 -6.50706 0
M  V30 3293 H 313.385 -2.16042 -2.05255 0
M  V30 3294 H 310.922 -1.07451 -1.00463 0
M  V30 3295 H 312.88 -0.763311 -4.10158 0
M  V30 3296 H 311.51 -0.0290413 -3.22787 0
M  V30 3297 H 310.562 -2.43017 -2.92655 0
M  V30 3298 H 311.874 -3.01468 -3.97389 0
M  V30 3299 H 311.028 -1.59484 -5.85363 0
M  V30 3300 H 309.767 -0.906678 -4.79198 0
M  V30 3301 H 308.772 -3.19004 -4.47791 0
M  V30 3302 H 309.997 -3.87918 -5.57401 0
M  V30 3303 H 307.943 -1.76238 -6.31883 0
M  V30 3304 H 307.86 -3.444 -6.72997 0
M  V30 3305 H 309.128 -2.45942 -7.39684 0
M  V30 3306 N 313.357 1.07166 -1.15556 0
M  V30 3307 C 314.606 1.79181 -0.926132 0
M  V30 3308 C 314.919 1.87768 0.547967 0
M  V30 3309 O 316.125 2.56323 0.895036 0
M  V30 3310 C 314.581 3.22 -1.60761 0
M  V30 3311 C 314.189 3.21607 -3.11886 0
M  V30 3312 C 315.933 3.9861 -1.4598 0
M  V30 3313 C 313.84 4.59092 -3.72812 0
M  V30 3314 H 312.77 0.67154 -0.342856 0
M  V30 3315 H 315.421 1.2027 -1.3859 0
M  V30 3316 H 313.803 3.81115 -1.07553 0
M  V30 3317 H 314.977 2.72127 -3.71865 0
M  V30 3318 H 313.292 2.58495 -3.2645 0
M  V30 3319 H 315.889 5.00225 -1.88888 0
M  V30 3320 H 316.232 4.143 -0.407541 0
M  V30 3321 H 316.765 3.45996 -1.96295 0
M  V30 3322 H 313.504 4.48606 -4.77946 0
M  V30 3323 H 313.024 5.08803 -3.17616 0
M  V30 3324 H 314.703 5.28059 -3.73848 0
M  V30 3325 N 314.835 0.952656 1.25548 0
M  V30 3326 C 316.081 0.607272 1.93494 0
M  V30 3327 C 316.414 -0.853245 1.74452 0
M  V30 3328 O 315.689 -1.61194 1.08843 0
M  V30 3329 C 315.972 0.96435 3.46947 0
M  V30 3330 C 315.825 2.48045 3.75225 0
M  V30 3331 C 317.144 0.487987 4.37386 0
M  V30 3332 H 314.263 0.222096 0.702739 0
M  V30 3333 H 316.905 1.18895 1.48203 0
M  V30 3334 H 315.055 0.469361 3.85654 0
M  V30 3335 H 316.727 3.04905 3.46166 0
M  V30 3336 H 314.97 2.919 3.209 0
M  V30 3337 H 315.641 2.6808 4.82532 0
M  V30 3338 H 318.117 0.912558 4.0597 0
M  V30 3339 H 316.993 0.766547 5.43521 0
M  V30 3340 H 317.254 -0.612063 4.37843 0
M  V30 3341 N 316.313 -1.40141 0.720998 0
M  V30 3342 C 317.223 -2.34486 0.0731031 0
M  V30 3343 C 318.239 -1.57587 -0.737723 0
M  V30 3344 O 319.415 -1.89949 -0.669429 0
M  V30 3345 C 316.48 -3.36528 -0.833656 0
M  V30 3346 C 315.541 -4.29298 -0.0121673 0
M  V30 3347 C 314.774 -5.26466 -0.875742 0
M  V30 3348 O 314.997 -5.29745 -2.11485 0
M  V30 3349 O 313.931 -6.01092 -0.31185 0
M  V30 3350 H 317.757 -2.9152 0.851444 0
M  V30 3351 H 315.342 -1.41427 0.481527 0
M  V30 3352 H 317.224 -3.99093 -1.35289 0
M  V30 3353 H 315.899 -2.81899 -1.59105 0
M  V30 3354 H 314.806 -3.70001 0.552262 0
M  V30 3355 H 316.139 -4.87094 0.707129 0
M  V30 3356 N 317.792 -0.46758 -1.50504 0
M  V30 3357 C 319.038 0.0887532 -2.02606 0
M  V30 3358 C 319.371 1.39686 -1.34913 0
M  V30 3359 O 318.646 1.88644 -0.473694 0
M  V30 3360 C 318.929 0.276206 -3.59039 0
M  V30 3361 C 318.782 -1.05267 -4.37309 0
M  V30 3362 C 320.101 1.03235 -4.27821 0
M  V30 3363 H 317.22 0.0307814 -0.736357 0
M  V30 3364 H 319.862 -0.612485 -1.79857 0
M  V30 3365 H 318.012 0.8735 -3.78553 0
M  V30 3366 H 319.684 -1.68628 -4.29374 0
M  V30 3367 H 317.927 -1.65015 -4.01189 0
M  V30 3368 H 318.598 -0.875197 -5.45018 0
M  V30 3369 H 321.074 0.526111 -4.12761 0
M  V30 3370 H 319.95 1.1323 -5.37094 0
M  V30 3371 H 320.211 2.06806 -3.90748 0
M  V30 3372 N 319.27 1.56325 -0.20005 0
M  V30 3373 C 320.218 2.20666 0.735482 0
M  V30 3374 C 321.212 1.17934 1.21605 0
M  V30 3375 O 322.418 1.36068 1.17837 0
M  V30 3376 H 318.793 0.70725 0.255542 0
M  V30 3377 H 320.764 2.9792 0.169166 0
M  V30 3378 C 319.513 2.88391 1.94232 0
M  V30 3379 H 318.836 3.67185 1.58161 0
M  V30 3380 H 320.276 3.3684 2.57517 0
M  V30 3381 C 318.735 1.89692 2.78421 0
M  V30 3382 O 319.265 1.40032 3.76502 0
M  V30 3383 N 317.471 1.57813 2.44015 0
M  V30 3384 H 317.018 1.9839 1.64314 0
M  V30 3385 H 316.976 0.920325 3.00628 0
M  V30 3386 N 320.748 -0.0735177 1.57428 0
M  V30 3387 C 321.658 -1.10547 2.06922 0
M  V30 3388 C 322.674 -1.42506 0.998402 0
M  V30 3389 O 323.85 -1.52717 1.31299 0
M  V30 3390 C 320.915 -2.40019 2.50184 0
M  V30 3391 C 319.976 -2.15046 3.71556 0
M  V30 3392 C 319.209 -3.38345 4.12745 0
M  V30 3393 O 319.432 -4.47399 3.53822 0
M  V30 3394 O 318.366 -3.2666 5.05546 0
M  V30 3395 H 322.192 -0.715013 2.95163 0
M  V30 3396 H 319.777 -0.287531 1.46607 0
M  V30 3397 H 321.659 -3.16218 2.78539 0
M  V30 3398 H 320.334 -2.78447 1.65072 0
M  V30 3399 H 319.241 -1.36558 3.48285 0
M  V30 3400 H 320.574 -1.81499 4.57514 0
M  V30 3401 N 322.226 -1.5378 -0.344866 0
M  V30 3402 C 323.156 -1.84662 -1.42906 0
M  V30 3403 C 324.137 -0.701648 -1.54955 0
M  V30 3404 O 325.322 -0.953438 -1.69184 0
M  V30 3405 C 322.452 -2.05503 -2.79974 0
M  V30 3406 C 321.406 -3.21318 -2.82734 0
M  V30 3407 C 320.732 -3.2749 -4.22675 0
M  V30 3408 C 322.032 -4.59456 -2.48389 0
M  V30 3409 H 323.726 -2.75461 -1.17311 0
M  V30 3410 H 321.272 -1.32542 -0.562896 0
M  V30 3411 H 323.225 -2.25691 -3.55867 0
M  V30 3412 H 321.949 -1.11434 -3.07002 0
M  V30 3413 H 320.608 -3.00984 -2.09294 0
M  V30 3414 H 320.256 -2.31019 -4.4681 0
M  V30 3415 H 319.956 -4.05316 -4.25433 0
M  V30 3416 H 321.48 -3.49887 -5.00412 0
M  V30 3417 H 322.894 -4.79667 -3.13995 0
M  V30 3418 H 321.291 -5.39675 -2.62432 0
M  V30 3419 H 322.361 -4.63155 -1.4358 0
M  V30 3420 N 323.704 0.605807 -1.45491 0
M  V30 3421 C 324.614 1.74466 -1.56839 0
M  V30 3422 C 325.63 1.68006 -0.452772 0
M  V30 3423 O 326.806 1.8833 -0.713708 0
M  V30 3424 C 323.871 3.10931 -1.53371 0
M  V30 3425 C 322.932 3.28832 -2.75986 0
M  V30 3426 C 322.165 4.58787 -2.72673 0
M  V30 3427 O 322.388 5.4122 -1.80102 0
M  V30 3428 O 321.322 4.79438 -3.63899 0
M  V30 3429 H 325.148 1.67843 -2.53106 0
M  V30 3430 H 322.733 0.770108 -1.28022 0
M  V30 3431 H 324.615 3.92233 -1.54051 0
M  V30 3432 H 323.29 3.18042 -0.602572 0
M  V30 3433 H 322.197 2.47112 -2.80867 0
M  V30 3434 H 323.53 3.26599 -3.68231 0
M  V30 3435 N 325.182 1.32811 0.848464 0
M  V30 3436 C 326.129 1.22265 1.95755 0
M  V30 3437 C 327.099 0.103413 1.65778 0
M  V30 3438 O 328.284 0.280033 1.88734 0
M  V30 3439 C 325.424 0.958014 3.31536 0
M  V30 3440 C 324.537 2.16262 3.73971 0
M  V30 3441 C 323.672 1.83295 4.98575 0
M  V30 3442 C 322.711 3.00041 5.33518 0
M  V30 3443 N 321.848 2.67125 6.49299 0
M  V30 3444 H 326.688 2.17128 2.04107 0
M  V30 3445 H 324.225 1.07982 0.998913 0
M  V30 3446 H 326.183 0.785052 4.09747 0
M  V30 3447 H 324.813 0.046159 3.22767 0
M  V30 3448 H 323.865 2.44565 2.91362 0
M  V30 3449 H 325.177 3.03572 3.95785 0
M  V30 3450 H 324.331 1.62586 5.84509 0
M  V30 3451 H 323.07 0.932078 4.7871 0
M  V30 3452 H 322.075 3.21374 4.46093 0
M  V30 3453 H 323.3 3.90869 5.55336 0
M  V30 3454 H 321.246 1.79586 6.3094 0
M  V30 3455 H 321.163 3.47965 6.71161 0
M  V30 3456 H 322.431 2.49861 7.3837 0
M  V30 3457 N 326.66 -1.06551 1.16123 0
M  V30 3458 C 327.59 -2.15935 0.88851 0
M  V30 3459 C 328.571 -1.69306 -0.164135 0
M  V30 3460 O 329.756 -1.94193 -0.0167857 0
M  V30 3461 C 326.886 -3.45149 0.385942 0
M  V30 3462 C 325.84 -4.05271 1.3762 0
M  V30 3463 C 325.166 -5.29664 0.732137 0
M  V30 3464 C 326.466 -4.44355 2.74493 0
M  V30 3465 H 328.16 -2.39006 1.80323 0
M  V30 3466 H 325.706 -1.14866 0.868435 0
M  V30 3467 H 327.659 -4.21004 0.182647 0
M  V30 3468 H 326.383 -3.21689 -0.564274 0
M  V30 3469 H 325.042 -3.3147 1.56599 0
M  V30 3470 H 324.69 -5.02499 -0.224483 0
M  V30 3471 H 324.39 -5.70848 1.39307 0
M  V30 3472 H 325.914 -6.08218 0.538802 0
M  V30 3473 H 327.328 -5.11303 2.59311 0
M  V30 3474 H 325.725 -4.96515 3.37035 0
M  V30 3475 H 326.795 -3.55339 3.29943 0
M  V30 3476 N 328.138 -0.959301 -1.25041 0
M  V30 3477 C 329.068 -0.501388 -2.28053 0
M  V30 3478 C 330.049 0.454673 -1.63911 0
M  V30 3479 O 331.234 0.352618 -1.90972 0
M  V30 3480 C 328.364 0.217224 -3.4662 0
M  V30 3481 C 327.318 -0.654034 -4.22973 0
M  V30 3482 C 326.644 0.195589 -5.34342 0
M  V30 3483 C 327.944 -1.93447 -4.85155 0
M  V30 3484 H 329.638 -1.36238 -2.66608 0
M  V30 3485 H 327.184 -0.656534 -1.28163 0
M  V30 3486 H 329.137 0.548732 -4.17812 0
M  V30 3487 H 327.861 1.1125 -3.07068 0
M  V30 3488 H 326.52 -0.968693 -3.5357 0
M  V30 3489 H 326.168 1.09076 -4.91031 0
M  V30 3490 H 325.868 -0.384091 -5.86343 0
M  V30 3491 H 327.392 0.521958 -6.08365 0
M  V30 3492 H 328.806 -1.66908 -5.48466 0
M  V30 3493 H 327.203 -2.46018 -5.47353 0
M  V30 3494 H 328.273 -2.63466 -4.07079 0
M  V30 3495 N 329.616 1.39756 -0.72842 0
M  V30 3496 C 330.862 2.00942 -0.273892 0
M  V30 3497 C 331.195 1.57656 1.13394 0
M  V30 3498 O 330.47 0.802434 1.77176 0
M  V30 3499 C 330.753 3.58211 -0.368346 0
M  V30 3500 C 330.606 4.11534 -1.81548 0
M  V30 3501 C 331.925 4.39372 0.253054 0
M  V30 3502 H 329.044 0.730047 -0.100996 0
M  V30 3503 H 331.686 1.66056 -0.923337 0
M  V30 3504 H 329.836 3.88061 0.184588 0
M  V30 3505 H 331.508 3.92431 -2.42478 0
M  V30 3506 H 329.751 3.65341 -2.33898 0
M  V30 3507 H 330.422 5.20682 -1.83288 0
M  V30 3508 H 332.898 4.15527 -0.218224 0
M  V30 3509 H 331.774 5.48677 0.156585 0
M  V30 3510 H 332.035 4.21358 1.33826 0
M  V30 3511 N 331.094 0.475555 1.50254 0
M  V30 3512 C 332.024 -0.30611 2.31485 0
M  V30 3513 C 333.005 -0.986228 1.38591 0
M  V30 3514 O 334.19 -0.982541 1.67511 0
M  V30 3515 C 331.32 -1.38588 3.1845 0
M  V30 3516 C 330.274 -0.827115 4.19932 0
M  V30 3517 C 329.6 -2.00551 4.95665 0
M  V30 3518 C 330.9 0.16463 5.2204 0
M  V30 3519 H 332.594 0.371866 2.97082 0
M  V30 3520 H 330.14 0.180282 1.42867 0
M  V30 3521 H 332.093 -1.94023 3.74076 0
M  V30 3522 H 330.817 -2.09269 2.50747 0
M  V30 3523 H 329.476 -0.294702 3.65414 0
M  V30 3524 H 329.124 -2.6994 4.2443 0
M  V30 3525 H 328.824 -1.63784 5.64313 0
M  V30 3526 H 330.348 -2.56468 5.54127 0
M  V30 3527 H 331.762 -0.300699 5.72511 0
M  V30 3528 H 330.159 0.446813 5.98434 0
M  V30 3529 H 331.229 1.08905 4.72512 0
M  V30 3530 N 332.573 -1.56217 0.208337 0
M  V30 3531 C 333.798 -2.02782 -0.435222 0
M  V30 3532 C 334.223 -1.08738 -1.53485 0
M  V30 3533 O 333.581 -0.0731855 -1.81152 0
M  V30 3534 C 333.629 -3.47687 -0.956335 0
M  V30 3535 O 332.733 -3.56773 -2.06849 0
M  V30 3536 H 332.074 -0.656403 -0.100158 0
M  V30 3537 H 334.604 -2.02033 0.3231 0
M  V30 3538 H 334.614 -3.87745 -1.26955 0
M  V30 3539 H 333.289 -4.15624 -0.15143 0
M  V30 3540 H 331.866 -3.28597 -1.76292 0
M  V30 3541 N 334.051 0.0651679 -1.57465 0
M  V30 3542 C 335.297 0.764193 -1.87851 0
M  V30 3543 C 335.63 1.76889 -0.801495 0
M  V30 3544 O 334.905 1.93594 0.187528 0
M  V30 3545 C 335.188 1.46625 -3.28897 0
M  V30 3546 C 335.041 0.477515 -4.47258 0
M  V30 3547 C 336.36 2.4095 -3.68281 0
M  V30 3548 H 333.479 0.276351 -0.683227 0
M  V30 3549 H 336.121 0.0272868 -1.8998 0
M  V30 3550 H 334.271 2.09438 -3.27212 0
M  V30 3551 H 335.943 -0.145922 -4.61069 0
M  V30 3552 H 334.186 -0.206576 -4.33308 0
M  V30 3553 H 334.857 1.0065 -5.42746 0
M  V30 3554 H 337.333 1.88209 -3.71102 0
M  V30 3555 H 336.209 2.87072 -4.67847 0
M  V30 3556 H 336.47 3.26049 -2.98571 0
M  V30 3557 N 335.529 1.53961 0.336706 0
M  V30 3558 C 336.94 1.62914 0.911925 0
M  V30 3559 C 337.291 0.514795 1.89326 0
M  V30 3560 O 336.416 -0.354395 2.13478 0
M  V30 3561 C 337.011 2.95304 1.66076 0
M  V30 3562 C 335.57 3.06496 2.18489 0
M  V30 3563 C 334.717 2.58403 1.00613 0
M  V30 3564 H 337.668 1.58285 0.114649 0
M  V30 3565 H 337.689 2.84727 2.5241 0
M  V30 3566 H 337.201 3.76387 0.946276 0
M  V30 3567 H 335.302 2.3006 2.93092 0
M  V30 3568 H 335.415 4.1208 2.44391 0
M  V30 3569 H 333.779 2.13977 1.38152 0
M  V30 3570 H 334.562 3.41932 0.306179 0
M  V30 3571 N 337.007 -0.598083 1.45811 0
M  V30 3572 C 338.284 -1.35777 1.40797 0
M  V30 3573 C 338.664 -2.10935 0.083462 0
M  V30 3574 O 338.012 -2.08505 -0.934763 0
M  V30 3575 C 338.222 -2.29666 2.62783 0
M  V30 3576 C 339.57 -2.91977 3.08277 0
M  V30 3577 O 340.594 -2.39984 2.63223 0
M  V30 3578 O 339.453 -3.86376 3.86491 0
M  V30 3579 H 336.547 -0.609291 0.55919 0
M  V30 3580 H 339.093 -0.620379 1.57954 0
M  V30 3581 H 337.865 -1.73454 3.50756 0
M  V30 3582 H 337.488 -3.1077 2.48008 0
M  V30 3583 N 338.485 -1.33259 -0.841409 0
M  V30 3584 C 339.432 -1.23302 -1.95103 0
M  V30 3585 C 340.402 -0.112204 -1.65721 0
M  V30 3586 O 341.587 -0.290038 -1.88583 0
M  V30 3587 C 338.727 -0.975583 -3.31023 0
M  V30 3588 C 337.84 -2.18243 -3.72819 0
M  V30 3589 C 336.975 -1.85936 -4.97595 0
M  V30 3590 C 336.014 -3.02866 -5.3192 0
M  V30 3591 N 335.151 -2.70565 -6.47873 0
M  V30 3592 H 339.991 -2.18207 -2.02952 0
M  V30 3593 H 337.528 -1.0851 -0.993173 0
M  V30 3594 H 339.486 -0.80677 -4.09325 0
M  V30 3595 H 338.116 -0.0632755 -3.22738 0
M  V30 3596 H 337.168 -2.46107 -2.90061 0
M  V30 3597 H 338.48 -3.05666 -3.94169 0
M  V30 3598 H 337.634 -1.65684 -5.83638 0
M  V30 3599 H 336.373 -0.957452 -4.78209 0
M  V30 3600 H 335.378 -3.23736 -4.44382 0
M  V30 3601 H 336.603 -3.93809 -5.53255 0
M  V30 3602 H 334.549 -1.8293 -6.29978 0
M  V30 3603 H 334.466 -3.51519 -6.69306 0
M  V30 3604 H 335.734 -2.53774 -7.37034 0
M  V30 3605 N 339.963 1.05934 -1.16686 0
M  V30 3606 C 341.24 1.75643 -0.860747 0
M  V30 3607 C 341.62 2.01144 0.640641 0
M  V30 3608 O 340.968 1.64147 1.58959 0
M  V30 3609 C 341.178 3.05493 -1.68745 0
M  V30 3610 C 342.526 3.79581 -1.90271 0
M  V30 3611 O 343.55 3.15344 -1.65641 0
M  V30 3612 O 342.409 4.9499 -2.31618 0
M  V30 3613 H 339.503 0.763426 -0.317977 0
M  V30 3614 H 342.049 1.1217 -1.27342 0
M  V30 3615 H 340.821 2.8264 -2.70611 0
M  V30 3616 H 340.444 3.76702 -1.27206 0
M  V30 3617 N 341.441 0.965919 1.2453 0
M  V30 3618 C 342.388 0.49402 2.25451 0
M  V30 3619 C 343.358 -0.45948 1.59618 0
M  V30 3620 O 344.543 -0.370238 1.87173 0
M  V30 3621 C 341.683 -0.211359 3.44452 0
M  V30 3622 C 340.796 0.7807 4.24887 0
M  V30 3623 C 339.931 0.0516105 5.31175 0
M  V30 3624 C 338.97 1.03385 6.03306 0
M  V30 3625 N 338.107 0.334887 7.01301 0
M  V30 3626 H 342.947 1.35946 2.65184 0
M  V30 3627 H 340.484 0.681515 1.3036 0
M  V30 3628 H 342.442 -0.637 4.12308 0
M  V30 3629 H 341.072 -1.04077 3.05562 0
M  V30 3630 H 340.124 1.32479 3.56586 0
M  V30 3631 H 341.436 1.52978 4.74762 0
M  V30 3632 H 340.59 -0.432114 6.05159 0
M  V30 3633 H 339.329 -0.730179 4.82203 0
M  V30 3634 H 338.334 1.52847 5.28127 0
M  V30 3635 H 339.559 1.81606 6.54367 0
M  V30 3636 H 337.505 -0.427959 6.54603 0
M  V30 3637 H 337.422 1.02287 7.49048 0
M  V30 3638 H 338.69 -0.126928 7.79397 0
M  V30 3639 N 342.919 -1.39368 0.735821 0
M  V30 3640 C 344.149 -2.04498 0.293967 0
M  V30 3641 C 344.557 -1.55593 -1.07645 0
M  V30 3642 O 343.9 -0.716324 -1.69158 0
M  V30 3643 C 343.962 -3.58836 0.218342 0
M  V30 3644 C 343.626 -4.30721 1.52736 0
M  V30 3645 C 344.623 -4.57305 2.47322 0
M  V30 3646 C 342.308 -4.69251 1.79189 0
M  V30 3647 C 344.302 -5.21429 3.66593 0
M  V30 3648 C 341.989 -5.33104 2.98737 0
M  V30 3649 C 342.987 -5.59125 3.9226 0
M  V30 3650 O 342.675 -6.21653 5.09708 0
M  V30 3651 H 342.407 -0.664118 0.126189 0
M  V30 3652 H 344.961 -1.79385 1.00051 0
M  V30 3653 H 343.191 -3.8285 -0.544314 0
M  V30 3654 H 344.88 -4.05447 -0.191626 0
M  V30 3655 H 345.646 -4.27983 2.28156 0
M  V30 3656 H 341.525 -4.48354 1.07239 0
M  V30 3657 H 345.069 -5.41656 4.39607 0
M  V30 3658 H 340.966 -5.61846 3.17803 0
M  V30 3659 H 341.734 -6.40146 5.10054 0
M  V30 3660 N 344.397 -0.483516 -1.5 0
M  V30 3661 C 345.674 0.129337 -1.95172 0
M  V30 3662 C 346.054 1.55802 -1.4244 0
M  V30 3663 O 345.402 2.19625 -0.630649 0
M  V30 3664 C 345.612 0.0599251 -3.48949 0
M  V30 3665 C 346.96 0.242617 -4.23906 0
M  V30 3666 O 347.984 0.135933 -3.55941 0
M  V30 3667 O 346.843 0.459454 -5.44565 0
M  V30 3668 H 343.937 0.104887 -0.820322 0
M  V30 3669 H 346.483 -0.544807 -1.60717 0
M  V30 3670 H 345.255 -0.937079 -3.79914 0
M  V30 3671 H 344.878 0.774984 -3.89974 0
M  V30 3672 N 345.875 1.56104 -0.216619 0
M  V30 3673 C 347.286 1.844 0.292128 0
M  V30 3674 C 347.637 1.13788 1.59833 0
M  V30 3675 O 346.762 0.405888 2.12559 0
M  V30 3676 C 347.357 3.3452 0.53681 0
M  V30 3677 C 345.916 3.63151 0.989876 0
M  V30 3678 C 345.063 2.77255 0.0502302 0
M  V30 3679 H 348.014 1.52481 -0.439926 0
M  V30 3680 H 348.035 3.54459 1.38345 0
M  V30 3681 H 347.547 3.85885 -0.414031 0
M  V30 3682 H 345.648 3.17238 1.95425 0
M  V30 3683 H 345.761 4.71177 0.867698 0
M  V30 3684 H 344.125 2.48555 0.556117 0
M  V30 3685 H 344.908 3.31416 -0.89544 0
M  V30 3686 N 347.353 -0.0568162 1.57498 0
M  V30 3687 C 348.581 -0.765626 1.92213 0
M  V30 3688 C 348.996 -1.70353 0.813961 0
M  V30 3689 O 348.353 -1.81268 -0.211701 0
M  V30 3690 C 348.404 -1.5465 3.2675 0
M  V30 3691 O 348.125 -0.646278 4.33307 0
M  V30 3692 C 349.626 -2.35497 3.75574 0
M  V30 3693 H 346.846 -0.216835 0.634999 0
M  V30 3694 H 349.39 -0.0226146 2.04487 0
M  V30 3695 H 347.545 -2.24165 3.15957 0
M  V30 3696 H 347.959 -1.19093 5.108 0
M  V30 3697 H 349.433 -2.85722 4.72299 0
M  V30 3698 H 349.91 -3.15692 3.05344 0
M  V30 3699 H 350.516 -1.7111 3.8936 0
M  V30 3700 N 348.832 -1.54138 -0.328536 0
M  V30 3701 C 350.08 -1.71765 -1.06496 0
M  V30 3702 C 350.401 -0.49149 -1.88704 0
M  V30 3703 O 349.671 0.494539 -1.89555 0
M  V30 3704 H 348.251 -0.633295 -0.396164 0
M  V30 3705 H 350.913 -1.91429 -0.366176 0
M  V30 3706 H 350.009 -2.5951 -1.73381 0
M  V30 3707 N 350.31 0.590341 -1.46126 0
M  V30 3708 C 351.558 1.34616 -1.50742 0
M  V30 3709 C 351.879 1.94363 -0.157486 0
M  V30 3710 O 351.149 1.78136 0.815136 0
M  V30 3711 H 349.729 0.499789 -0.555175 0
M  V30 3712 H 352.391 0.691953 -1.82203 0
M  V30 3713 H 351.487 2.15678 -2.25587 0
M  V30 3714 N 351.788 1.33704 0.83433 0
M  V30 3715 C 352.698 1.26382 1.97648 0
M  V30 3716 C 353.714 0.173548 1.73132 0
M  V30 3717 O 354.89 0.397962 1.97429 0
M  V30 3718 C 351.955 1.00769 3.31733 0
M  V30 3719 C 351.016 2.1884 3.69334 0
M  V30 3720 C 350.249 1.9444 4.9702 0
M  V30 3721 O 350.472 0.896961 5.63303 0
M  V30 3722 O 349.406 2.81093 5.32231 0
M  V30 3723 H 353.232 2.22444 2.06767 0
M  V30 3724 H 350.817 1.13795 0.968037 0
M  V30 3725 H 352.699 0.882186 4.12062 0
M  V30 3726 H 351.374 0.0773783 3.23608 0
M  V30 3727 H 350.281 2.36946 2.89495 0
M  V30 3728 H 351.614 3.10221 3.82131 0
M  V30 3729 N 353.266 -1.05314 1.17247 0
M  V30 3730 C 354.494 -1.81971 0.984593 0
M  V30 3731 C 354.909 -1.82929 -0.467166 0
M  V30 3732 O 354.266 -1.25564 -1.32438 0
M  V30 3733 C 354.317 -3.28143 1.51672 0
M  V30 3734 O 354.038 -3.27347 2.91163 0
M  V30 3735 C 355.539 -4.21493 1.37326 0
M  V30 3736 H 352.759 -0.573455 0.348411 0
M  V30 3737 H 355.303 -1.32808 1.55506 0
M  V30 3738 H 353.458 -3.74582 0.988302 0
M  V30 3739 H 353.872 -4.18824 3.15732 0
M  V30 3740 H 355.346 -5.22043 1.79375 0
M  V30 3741 H 355.823 -4.38031 0.320169 0
M  V30 3742 H 356.429 -3.80909 1.89178 0
M  V30 3743 N 354.744 -0.972509 -1.24016 0
M  V30 3744 C 355.972 -0.654803 -1.96265 0
M  V30 3745 C 356.387 0.776708 -1.72083 0
M  V30 3746 O 355.744 1.52171 -1.00748 0
M  V30 3747 C 355.795 -0.92592 -3.49441 0
M  V30 3748 O 355.516 -2.30116 -3.72798 0
M  V30 3749 C 357.017 -0.623068 -4.38899 0
M  V30 3750 H 354.237 -0.243907 -0.6251 0
M  V30 3751 H 356.781 -1.30175 -1.57717 0
M  V30 3752 H 354.936 -0.325108 -3.86033 0
M  V30 3753 H 355.35 -2.38483 -4.67147 0
M  V30 3754 H 356.824 -0.863189 -5.45209 0
M  V30 3755 H 357.301 0.442754 -4.36963 0
M  V30 3756 H 357.907 -1.204 -4.07902 0
M  V30 3757 N 356.222 1.38976 -0.743202 0
M  V30 3758 C 357.468 2.0064 -0.295189 0
M  V30 3759 C 357.801 1.5885 1.11716 0
M  V30 3760 O 357.076 0.821181 1.76315 0
M  V30 3761 C 357.359 3.578 -0.406318 0
M  V30 3762 C 357.212 4.09586 -1.85903 0
M  V30 3763 C 358.531 4.39616 0.206439 0
M  V30 3764 H 355.65 0.728935 -0.108733 0
M  V30 3765 H 358.292 1.65067 -0.940897 0
M  V30 3766 H 356.442 3.88235 0.143419 0
M  V30 3767 H 358.114 3.89837 -2.46627 0
M  V30 3768 H 356.357 3.6284 -2.3776 0
M  V30 3769 H 357.028 5.18708 -1.888 0
M  V30 3770 H 359.504 4.15273 -0.262283 0
M  V30 3771 H 358.38 5.48812 0.0983819 0
M  V30 3772 H 358.641 4.22754 1.2935 0
M  V30 3773 N 357.7 0.491464 1.49741 0
M  V30 3774 C 359.111 0.0413169 1.86654 0
M  V30 3775 C 359.462 -1.36985 1.40462 0
M  V30 3776 O 358.587 -2.01917 0.778354 0
M  V30 3777 C 359.182 0.0682023 3.38731 0
M  V30 3778 C 357.741 -0.32656 3.74981 0
M  V30 3779 C 356.888 0.444888 2.73708 0
M  V30 3780 H 359.839 0.704733 1.42194 0
M  V30 3781 H 359.86 -0.729322 3.73445 0
M  V30 3782 H 359.372 1.09539 3.72321 0
M  V30 3783 H 357.473 -1.35734 3.46997 0
M  V30 3784 H 357.586 -0.013741 4.79098 0
M  V30 3785 H 355.95 -0.104062 2.54487 0
M  V30 3786 H 356.733 1.47197 3.10142 0
M  V30 3787 N 359.178 -1.55987 0.224894 0
M  V30 3788 C 360.11 -2.17722 -0.716224 0
M  V30 3789 C 361.123 -1.14723 -1.15509 0
M  V30 3790 O 362.312 -1.41688 -1.08567 0
M  V30 3791 C 359.412 -2.74873 -1.98238 0
M  V30 3792 C 358.585 -4.03074 -1.69853 0
M  V30 3793 C 357.644 -4.44757 -2.81208 0
M  V30 3794 O 356.67 -5.11587 -2.49534 0
M  V30 3795 N 357.872 -4.10716 -4.10235 0
M  V30 3796 H 360.637 -2.99109 -0.188123 0
M  V30 3797 H 358.198 -1.6184 0.0440123 0
M  V30 3798 H 360.19 -2.99727 -2.7193 0
M  V30 3799 H 358.76 -1.9777 -2.42086 0
M  V30 3800 H 357.98 -3.86041 -0.797875 0
M  V30 3801 H 359.268 -4.86701 -1.48324 0
M  V30 3802 H 358.666 -3.57019 -4.38809 0
M  V30 3803 H 357.223 -4.40455 -4.80461 0
M  V30 3804 N 360.656 0.0484629 -1.57525 0
M  V30 3805 C 361.904 0.741657 -1.88 0
M  V30 3806 C 362.225 1.76918 -0.820054 0
M  V30 3807 O 361.495 1.95335 0.148661 0
M  V30 3808 H 360.075 0.276908 -0.69378 0
M  V30 3809 H 362.737 0.019013 -1.94891 0
M  V30 3810 H 361.833 1.24336 -2.86264 0
M  V30 3811 N 362.134 1.5431 0.320358 0
M  V30 3812 C 363.362 1.76636 1.07738 0
M  V30 3813 C 363.777 0.51649 1.81598 0
M  V30 3814 O 363.134 -0.512942 1.75143 0
M  V30 3815 C 363.185 2.96158 2.07299 0
M  V30 3816 O 362.906 4.16313 1.36438 0
M  V30 3817 C 364.407 3.3072 2.95193 0
M  V30 3818 H 361.627 0.589597 0.320339 0
M  V30 3819 H 364.171 2.01207 0.36551 0
M  V30 3820 H 362.326 2.73851 2.74016 0
M  V30 3821 H 362.74 4.83565 2.03138 0
M  V30 3822 H 364.214 4.17643 3.60941 0
M  V30 3823 H 364.691 2.48026 3.62463 0
M  V30 3824 H 365.297 3.55117 2.34034 0
M  V30 3825 N 363.613 -0.582584 1.46437 0
M  V30 3826 C 365.024 -1.1647 1.45916 0
M  V30 3827 C 365.375 -1.95177 0.200077 0
M  V30 3828 O 364.5 -2.04874 -0.696819 0
M  V30 3829 C 365.095 -2.11885 2.64367 0
M  V30 3830 C 363.654 -2.65421 2.66887 0
M  V30 3831 C 362.801 -1.41294 2.38603 0
M  V30 3832 H 365.752 -0.370514 1.54314 0
M  V30 3833 H 365.773 -2.9535 2.39892 0
M  V30 3834 H 365.285 -1.54573 3.5599 0
M  V30 3835 H 363.386 -3.26602 1.79338 0
M  V30 3836 H 363.499 -3.08147 3.66854 0
M  V30 3837 H 361.863 -1.71109 1.88663 0
M  V30 3838 H 362.646 -0.858125 3.32402 0
M  V30 3839 N 365.091 -1.34144 -0.827227 0
M  V30 3840 C 366.337 -1.26446 -1.58554 0
M  V30 3841 C 366.67 0.1664 -1.93486 0
M  V30 3842 O 365.945 1.1107 -1.59667 0
M  V30 3843 C 366.228 -2.15111 -2.8879 0
M  V30 3844 C 366.081 -3.66712 -2.60465 0
M  V30 3845 C 367.4 -2.03311 -3.90324 0
M  V30 3846 H 364.519 -0.46067 -0.575284 0
M  V30 3847 H 367.161 -1.64356 -0.953269 0
M  V30 3848 H 365.311 -1.8291 -3.42748 0
M  V30 3849 H 366.983 -4.09259 -2.1285 0
M  V30 3850 H 365.226 -3.88014 -1.93978 0
M  V30 3851 H 365.897 -4.24112 -3.53317 0
M  V30 3852 H 368.373 -2.31574 -3.45706 0
M  V30 3853 H 367.249 -2.67582 -4.79261 0
M  V30 3854 H 367.51 -1.00879 -4.30437 0
M  V30 3855 N 366.569 1.04691 -1.17803 0
M  V30 3856 C 367.794 1.81984 -0.994813 0
M  V30 3857 C 368.219 1.82586 0.452112 0
M  V30 3858 O 367.577 1.23854 1.324 0
M  V30 3859 C 367.625 3.2575 -1.54659 0
M  V30 3860 O 366.729 4.05267 -0.763728 0
M  V30 3861 H 366.07 0.562483 -0.352857 0
M  V30 3862 H 368.6 1.3189 -1.56417 0
M  V30 3863 H 368.61 3.76541 -1.57102 0
M  V30 3864 H 367.285 3.24627 -2.59981 0
M  V30 3865 H 365.862 3.63972 -0.811108 0
M  V30 3866 N 368.047 0.979072 1.23499 0
M  V30 3867 C 369.324 0.563674 1.87302 0
M  V30 3868 C 369.704 -0.959199 1.88049 0
M  V30 3869 O 369.052 -1.83535 1.36114 0
M  V30 3870 C 369.262 1.16822 3.28867 0
M  V30 3871 C 370.61 1.26014 4.0547 0
M  V30 3872 O 371.634 1.12158 3.38082 0
M  V30 3873 O 370.493 1.48044 5.26066 0
M  V30 3874 H 367.587 0.189602 0.804972 0
M  V30 3875 H 370.133 1.07407 1.31384 0
M  V30 3876 H 368.905 2.21049 3.22883 0
M  V30 3877 H 368.528 0.642564 3.92373 0
M  V30 3878 N 369.525 -1.3858 0.750561 0
M  V30 3879 C 370.472 -2.30483 0.120835 0
M  V30 3880 C 371.442 -1.50022 -0.712923 0
M  V30 3881 O 372.627 -1.78662 -0.669676 0
M  V30 3882 C 369.767 -3.36431 -0.768666 0
M  V30 3883 C 368.88 -4.31927 0.0793922 0
M  V30 3884 C 368.015 -5.24944 -0.81283 0
M  V30 3885 C 367.054 -6.12088 0.0390447 0
M  V30 3886 N 366.191 -6.97412 -0.809969 0
M  V30 3887 H 371.031 -2.83761 0.91015 0
M  V30 3888 H 368.568 -1.39707 0.460463 0
M  V30 3889 H 370.526 -3.96462 -1.29898 0
M  V30 3890 H 369.156 -2.8457 -1.5238 0
M  V30 3891 H 368.208 -3.73382 0.727303 0
M  V30 3892 H 369.52 -4.93319 0.737401 0
M  V30 3893 H 368.674 -5.90078 -1.41042 0
M  V30 3894 H 367.413 -4.63911 -1.50458 0
M  V30 3895 H 366.418 -5.45952 0.649328 0
M  V30 3896 H 367.643 -6.75189 0.727809 0
M  V30 3897 H 365.589 -6.38931 -1.48672 0
M  V30 3898 H 365.506 -7.55712 -0.208789 0
M  V30 3899 H 366.774 -7.66959 -1.39263 0
M  V30 3900 N 371.003 -0.499398 -1.49478 0
M  V30 3901 C 371.913 0.284489 -2.32869 0
M  V30 3902 C 372.929 0.968885 -1.44529 0
M  V30 3903 O 374.105 0.95062 -1.77553 0
M  V30 3904 C 371.17 1.33594 -3.19928 0
M  V30 3905 C 370.231 0.665149 -4.24116 0
M  V30 3906 C 369.464 1.6665 -5.07014 0
M  V30 3907 O 369.687 2.89618 -4.91404 0
M  V30 3908 O 368.621 1.22271 -5.8935 0
M  V30 3909 H 372.447 -0.39802 -3.01081 0
M  V30 3910 H 370.032 -0.260758 -1.47107 0
M  V30 3911 H 371.914 1.94431 -3.73864 0
M  V30 3912 H 370.589 2.0014 -2.54412 0
M  V30 3913 H 369.496 0.0170769 -3.74096 0
M  V30 3914 H 370.829 0.0421555 -4.92182 0
M  V30 3915 N 372.481 1.55866 -0.233164 0
M  V30 3916 C 373.73 1.97779 0.39579 0
M  V30 3917 C 374.043 1.12419 1.60066 0
M  V30 3918 O 375.249 1.44283 2.29988 0
M  V30 3919 C 373.705 3.5188 0.755556 0
M  V30 3920 C 373.313 4.45959 -0.427152 0
M  V30 3921 C 375.057 4.02479 1.34946 0
M  V30 3922 C 372.964 5.91383 -0.0443043 0
M  V30 3923 H 371.894 0.738592 0.15165 0
M  V30 3924 H 374.545 1.80486 -0.331212 0
M  V30 3925 H 372.927 3.64816 1.5403 0
M  V30 3926 H 374.101 4.44776 -1.20462 0
M  V30 3927 H 372.416 4.05765 -0.935068 0
M  V30 3928 H 375.013 5.08637 1.649 0
M  V30 3929 H 375.356 3.49014 2.26925 0
M  V30 3930 H 375.889 3.92813 0.62791 0
M  V30 3931 H 372.628 6.48857 -0.930874 0
M  V30 3932 H 372.148 5.95734 0.697238 0
M  V30 3933 H 373.827 6.45893 0.378334 0
M  V30 3934 N 373.959 -0.0401083 1.57549 0
M  V30 3935 C 375.187 -0.745196 1.93014 0
M  V30 3936 C 375.602 -1.6948 0.831984 0
M  V30 3937 O 374.959 -1.81482 -0.192463 0
M  V30 3938 C 375.01 -1.51176 3.28372 0
M  V30 3939 O 374.731 -0.600284 4.33968 0
M  V30 3940 C 376.232 -2.315 3.78051 0
M  V30 3941 H 373.452 -0.210088 0.637263 0
M  V30 3942 H 375.996 -0.000924689 2.045 0
M  V30 3943 H 374.151 -2.20801 3.18317 0
M  V30 3944 H 374.565 -1.13669 5.12035 0
M  V30 3945 H 376.039 -2.80697 4.75303 0
M  V30 3946 H 376.516 -3.12436 3.08675 0
M  V30 3947 H 377.122 -1.66971 3.91153 0
M  V30 3948 N 375.437 -1.54477 -0.31217 0
M  V30 3949 C 376.714 -1.63891 -1.06767 0
M  V30 3950 C 377.094 -0.480028 -2.0557 0
M  V30 3951 O 376.442 0.524487 -2.22399 0
M  V30 3952 C 376.652 -3.01402 -1.75948 0
M  V30 3953 C 378 -3.57838 -2.28554 0
M  V30 3954 O 379.024 -3.03782 -1.85998 0
M  V30 3955 O 377.883 -4.52462 -3.06497 0
M  V30 3956 H 374.977 -0.664125 -0.492816 0
M  V30 3957 H 377.523 -1.66823 -0.311149 0
M  V30 3958 H 376.295 -3.77187 -1.04144 0
M  V30 3959 H 375.918 -3.02199 -2.58383 0
M  V30 3960 N 376.915 0.57481 -1.46744 0
M  V30 3961 C 377.845 1.69337 -1.60771 0
M  V30 3962 C 378.826 1.63825 -0.457736 0
M  V30 3963 O 380.011 1.8172 -0.684947 0
M  V30 3964 C 377.141 3.0798 -1.60517 0
M  V30 3965 C 376.095 3.28327 -2.74564 0
M  V30 3966 C 375.421 4.67578 -2.59373 0
M  V30 3967 C 376.721 3.15398 -4.16319 0
M  V30 3968 H 378.415 1.57853 -2.54407 0
M  V30 3969 H 375.961 0.75799 -1.22436 0
M  V30 3970 H 377.914 3.86061 -1.68923 0
M  V30 3971 H 376.638 3.20381 -0.634305 0
M  V30 3972 H 375.297 2.52649 -2.65639 0
M  V30 3973 H 374.945 4.76755 -1.60353 0
M  V30 3974 H 374.645 4.82144 -3.35873 0
M  V30 3975 H 376.169 5.47817 -2.69682 0
M  V30 3976 H 377.583 3.83315 -4.26313 0
M  V30 3977 H 375.98 3.41482 -4.93468 0
M  V30 3978 H 377.05 2.12372 -4.3592 0
M  V30 3979 N 378.394 1.34581 0.820102 0
M  V30 3980 C 379.64 1.27285 1.57881 0
M  V30 3981 C 379.973 -0.156137 1.93571 0
M  V30 3982 O 379.248 -1.10222 1.60254 0
M  V30 3983 C 379.531 2.16639 2.87645 0
M  V30 3984 C 379.384 3.68088 2.58517 0
M  V30 3985 C 380.703 2.05378 3.8924 0
M  V30 3986 H 377.822 0.463714 0.572833 0
M  V30 3987 H 380.464 1.64859 0.944539 0
M  V30 3988 H 378.614 1.84725 3.41773 0
M  V30 3989 H 380.286 4.10382 2.10676 0
M  V30 3990 H 378.529 3.89038 1.91917 0
M  V30 3991 H 379.2 4.2598 3.51063 0
M  V30 3992 H 381.676 2.33404 3.44473 0
M  V30 3993 H 380.552 2.7012 4.77835 0
M  V30 3994 H 380.813 1.0316 4.29896 0
M  V30 3995 N 379.872 -1.04064 1.18357 0
M  V30 3996 C 380.819 -2.12077 0.910603 0
M  V30 3997 C 381.789 -1.65421 -0.15 0
M  V30 3998 O 382.974 -1.90797 -0.0103614 0
M  V30 3999 C 380.114 -3.42252 0.442472 0
M  V30 4000 C 379.227 -4.0252 1.5685 0
M  V30 4001 C 378.362 -5.20657 1.05309 0
M  V30 4002 C 377.401 -5.72955 2.1538 0
M  V30 4003 N 376.538 -6.8238 1.65233 0
M  V30 4004 H 381.378 -2.34764 1.83548 0
M  V30 4005 H 378.915 -1.15157 0.915279 0
M  V30 4006 H 380.873 -4.16921 0.152534 0
M  V30 4007 H 379.503 -3.19712 -0.445428 0
M  V30 4008 H 378.555 -3.25178 1.97391 0
M  V30 4009 H 379.867 -4.37362 2.39824 0
M  V30 4010 H 379.021 -6.0244 0.717677 0
M  V30 4011 H 377.76 -4.87318 0.19293 0
M  V30 4012 H 376.765 -4.89793 2.49766 0
M  V30 4013 H 377.99 -6.08337 3.01832 0
M  V30 4014 H 375.936 -6.50917 0.815064 0
M  V30 4015 H 375.853 -7.16286 2.41805 0
M  V30 4016 H 377.121 -7.67788 1.34619 0
M  V30 4017 N 381.35 -0.985608 -1.22978 0
M  V30 4018 C 382.599 -0.652881 -1.90841 0
M  V30 4019 C 382.912 0.817842 -1.77681 0
M  V30 4020 O 384.118 1.26185 -2.40395 0
M  V30 4021 C 382.574 -1.11717 -3.42122 0
M  V30 4022 C 382.182 -2.6126 -3.63933 0
M  V30 4023 C 383.926 -0.85843 -4.1573 0
M  V30 4024 C 381.833 -3.0133 -5.08876 0
M  V30 4025 H 380.763 -0.240491 -0.714619 0
M  V30 4026 H 383.414 -1.1942 -1.39324 0
M  V30 4027 H 381.796 -0.504027 -3.92779 0
M  V30 4028 H 382.97 -3.27858 -3.23799 0
M  V30 4029 H 381.285 -2.84937 -3.03644 0
M  V30 4030 H 383.882 -1.13359 -5.22546 0
M  V30 4031 H 384.225 0.205461 -4.15793 0
M  V30 4032 H 384.758 -1.43341 -3.71077 0
M  V30 4033 H 381.497 -4.06864 -5.13947 0
M  V30 4034 H 381.017 -2.3943 -5.49939 0
M  V30 4035 H 382.696 -2.92224 -5.77247 0
M  V30 4036 N 382.828 1.3818 -0.7579 0
M  V30 4037 C 384.239 1.82726 -0.383134 0
M  V30 4038 C 384.59 1.63214 1.08884 0
M  V30 4039 O 383.715 1.13566 1.84205 0
M  V30 4040 C 384.31 3.31728 -0.688631 0
M  V30 4041 C 382.869 3.74606 -0.367091 0
M  V30 4042 C 382.016 2.60896 -0.939599 0
M  V30 4043 H 384.967 1.26847 -0.953699 0
M  V30 4044 H 384.988 3.80487 0.0316492 0
M  V30 4045 H 384.5 3.45898 -1.76001 0
M  V30 4046 H 382.601 3.66013 0.697532 0
M  V30 4047 H 382.714 4.71215 -0.865658 0
M  V30 4048 H 381.078 2.52075 -0.3647 0
M  V30 4049 H 381.861 2.77864 -2.0161 0
M  V30 4050 N 384.306 0.507319 1.49211 0
M  V30 4051 C 385.583 -0.0982702 1.95353 0
M  V30 4052 C 385.963 -1.53516 1.449 0
M  V30 4053 O 385.311 -2.18594 0.66551 0
M  V30 4054 C 385.521 -0.00440283 3.49 0
M  V30 4055 C 386.869 -0.175147 4.24239 0
M  V30 4056 O 387.893 -0.0792891 3.56112 0
M  V30 4057 O 386.752 -0.37276 5.45227 0
M  V30 4058 H 383.846 -0.0918236 0.821887 0
M  V30 4059 H 386.392 0.570307 1.5983 0
M  V30 4060 H 385.164 0.997402 3.78375 0
M  V30 4061 H 384.787 -0.712845 3.91158 0
M  V30 4062 N 385.784 -1.5574 0.241426 0
M  V30 4063 C 387.032 -1.98417 -0.384075 0
M  V30 4064 C 387.353 -1.13078 -1.58866 0
M  V30 4065 O 386.623 -0.212312 -1.94746 0
M  V30 4066 H 385.203 -0.732813 -0.144894 0
M  V30 4067 H 387.865 -1.9193 0.338943 0
M  V30 4068 H 386.961 -3.04219 -0.696939 0
M  V30 4069 N 387.262 0.0317525 -1.57568 0
M  V30 4070 C 388.487 0.738664 -1.938 0
M  V30 4071 C 388.912 1.68242 -0.841208 0
M  V30 4072 O 388.27 1.80157 0.203267 0
M  V30 4073 C 388.318 1.47417 -3.29091 0
M  V30 4074 O 387.422 2.5872 -3.2115 0
M  V30 4075 H 386.763 0.198856 -0.633524 0
M  V30 4076 H 389.293 -0.0119713 -2.04596 0
M  V30 4077 H 389.303 1.84468 -3.63917 0
M  V30 4078 H 387.978 0.781988 -4.08482 0
M  V30 4079 H 386.555 2.24231 -2.97951 0
M  V30 4080 N 388.74 1.54641 0.303973 0
M  V30 4081 C 389.687 1.85386 1.37479 0
M  V30 4082 C 390.657 0.702528 1.50512 0
M  V30 4083 O 391.842 0.950867 1.65418 0
M  V30 4084 C 388.982 2.10413 2.73533 0
M  V30 4085 C 388.095 3.38049 2.68974 0
M  V30 4086 C 387.23 3.52934 3.97002 0
M  V30 4087 C 386.269 4.74373 3.86829 0
M  V30 4088 N 385.406 4.8608 5.06627 0
M  V30 4089 H 390.246 2.76732 1.1056 0
M  V30 4090 H 387.783 1.37034 0.534805 0
M  V30 4091 H 389.741 2.22919 3.52652 0
M  V30 4092 H 388.371 1.22338 2.98719 0
M  V30 4093 H 387.423 3.3418 1.81736 0
M  V30 4094 H 388.735 4.27288 2.57346 0
M  V30 4095 H 387.889 3.65088 4.84557 0
M  V30 4096 H 386.628 2.61824 4.1146 0
M  V30 4097 H 385.633 4.62255 2.97658 0
M  V30 4098 H 386.858 5.66888 3.73918 0
M  V30 4099 H 384.804 3.97891 5.21554 0
M  V30 4100 H 384.721 5.69315 4.9741 0
M  V30 4101 H 385.989 5.02587 5.95841 0
M  V30 4102 N 390.218 -0.567019 1.47046 0
M  V30 4103 C 391.466 -1.322 1.52864 0
M  V30 4104 C 391.787 -1.94088 0.188388 0
M  V30 4105 O 391.057 -1.7941 -0.786693 0
M  V30 4106 H 389.637 -0.490894 0.563056 0
M  V30 4107 H 392.299 -0.662879 1.83281 0
M  V30 4108 H 391.395 -2.12062 2.2899 0
M  V30 4109 N 391.696 -1.35014 -0.812953 0
M  V30 4110 C 392.942 -1.2812 -1.57204 0
M  V30 4111 C 393.275 0.145869 -1.93651 0
M  V30 4112 O 392.55 1.0937 -1.60836 0
M  V30 4113 C 392.833 -2.18162 -2.86492 0
M  V30 4114 C 392.686 -3.69454 -2.56561 0
M  V30 4115 C 394.005 -2.07439 -3.88145 0
M  V30 4116 H 391.124 -0.466746 -0.570366 0
M  V30 4117 H 393.766 -1.65357 -0.935783 0
M  V30 4118 H 391.916 -1.86535 -3.40789 0
M  V30 4119 H 393.588 -4.11493 -2.08497 0
M  V30 4120 H 391.831 -3.9005 -1.89851 0
M  V30 4121 H 392.502 -4.27835 -3.48799 0
M  V30 4122 H 394.978 -2.35228 -3.4323 0
M  V30 4123 H 393.854 -2.7265 -4.76396 0
M  V30 4124 H 394.115 -1.05439 -4.29343 0
M  V30 4125 N 393.175 1.03435 -1.18907 0
M  V30 4126 C 394.586 1.58195 -0.991523 0
M  V30 4127 C 394.937 1.90801 0.457081 0
M  V30 4128 O 394.062 1.70272 1.33553 0
M  V30 4129 C 394.657 2.87432 -1.79355 0
M  V30 4130 C 393.216 3.38785 -1.64017 0
M  V30 4131 C 392.363 2.12292 -1.78402 0
M  V30 4132 H 395.314 0.860299 -1.33359 0
M  V30 4133 H 395.335 3.58096 -1.28638 0
M  V30 4134 H 394.847 2.63669 -2.84781 0
M  V30 4135 H 392.948 3.67547 -0.611536 0
M  V30 4136 H 393.061 4.12186 -2.44212 0
M  V30 4137 H 391.425 2.23901 -1.2141 0
M  V30 4138 H 392.208 1.90977 -2.85277 0
M  V30 4139 N 394.653 0.992116 1.22453 0
M  V30 4140 C 395.881 0.685944 1.95198 0
M  V30 4141 C 396.296 -0.749233 1.73297 0
M  V30 4142 O 395.653 -1.50549 1.03156 0
M  V30 4143 C 395.704 0.981395 3.47924 0
M  V30 4144 O 395.425 2.36018 3.6909 0
M  V30 4145 C 396.926 0.692815 4.37853 0
M  V30 4146 H 394.146 0.253821 0.621141 0
M  V30 4147 H 396.69 1.32668 1.55626 0
M  V30 4148 H 394.845 0.386481 3.85467 0
M  V30 4149 H 395.259 2.45884 4.63294 0
M  V30 4150 H 396.733 0.949818 5.43767 0
M  V30 4151 H 397.21 -0.373181 4.37612 0
M  V30 4152 H 397.816 1.26874 4.05935 0
M  V30 4153 N 396.131 -1.37776 0.765217 0
M  V30 4154 C 397.377 -2.00145 0.327072 0
M  V30 4155 C 397.71 -1.60607 -1.09175 0
M  V30 4156 O 396.985 -0.849127 -1.74986 0
M  V30 4157 C 397.268 -3.57109 0.46319 0
M  V30 4158 C 397.121 -4.06576 1.92395 0
M  V30 4159 C 398.44 -4.39888 -0.136473 0
M  V30 4160 H 395.559 -0.727113 0.120316 0
M  V30 4161 H 398.201 -1.63549 0.967039 0
M  V30 4162 H 396.351 -3.88414 -0.0816358 0
M  V30 4163 H 398.023 -3.85864 2.52798 0
M  V30 4164 H 396.266 -3.59011 2.43503 0
M  V30 4165 H 396.937 -5.15639 1.97028 0
M  V30 4166 H 399.413 -4.14803 0.328317 0
M  V30 4167 H 398.289 -5.48899 -0.0110582 0
M  V30 4168 H 398.55 -4.24758 -1.22608 0
M  V30 4169 N 397.609 -0.515225 -1.4894 0
M  V30 4170 C 398.855 0.0242508 -2.02785 0
M  V30 4171 C 399.188 1.35323 -1.39289 0
M  V30 4172 O 398.463 1.87041 -0.533469 0
M  V30 4173 C 398.746 0.16184 -3.59736 0
M  V30 4174 C 398.599 -1.19127 -4.33738 0
M  V30 4175 C 399.918 0.895719 -4.30888 0
M  V30 4176 H 397.037 0.00733914 -0.736963 0
M  V30 4177 H 399.679 -0.669395 -1.77818 0
M  V30 4178 H 397.829 0.752624 -3.8114 0
M  V30 4179 H 399.501 -1.82202 -4.23792 0
M  V30 4180 H 397.744 -1.77695 -3.95736 0
M  V30 4181 H 398.415 -1.04815 -5.41957 0
M  V30 4182 H 400.891 0.394528 -4.14225 0
M  V30 4183 H 399.767 0.960859 -5.40425 0
M  V30 4184 H 400.028 1.9427 -3.97129 0
M  V30 4185 N 399.087 1.5561 -0.249682 0
M  V30 4186 C 400.335 1.98618 0.373548 0
M  V30 4187 C 400.656 1.13919 1.58264 0
M  V30 4188 O 399.926 0.222637 1.94631 0
M  V30 4189 H 398.506 0.733571 0.141006 0
M  V30 4190 H 401.168 1.91748 -0.349117 0
M  V30 4191 H 400.264 3.04584 0.680796 0
M  V30 4192 N 400.565 -0.0233959 1.57583 0
M  V30 4193 C 401.842 -0.748794 1.807 0
M  V30 4194 C 402.222 -1.9327 0.849106 0
M  V30 4195 O 401.57 -2.28247 -0.107468 0
M  V30 4196 C 401.78 -1.17651 3.28571 0
M  V30 4197 C 403.128 -1.59008 3.93702 0
M  V30 4198 O 404.152 -1.27094 3.32755 0
M  V30 4199 O 403.011 -2.18264 5.01022 0
M  V30 4200 H 400.105 -0.362578 0.743281 0
M  V30 4201 H 402.651 0.000261958 1.697 0
M  V30 4202 H 401.423 -0.331603 3.89892 0
M  V30 4203 H 401.046 -1.98541 3.44481 0
M  V30 4204 N 402.043 -1.548 -0.295768 0
M  V30 4205 C 403.459 -1.4613 -0.641722 0
M  V30 4206 C 403.659 -0.656771 -1.90496 0
M  V30 4207 O 402.715 -0.166547 -2.5195 0
M  V30 4208 C 404.028 -2.90141 -0.789852 0
M  V30 4209 C 405.576 -3.00216 -0.885396 0
M  V30 4210 C 406.051 -4.45434 -1.06548 0
M  V30 4211 N 407.542 -4.49166 -1.13156 0
M  V30 4212 C 408.277 -5.58717 -1.28929 0
M  V30 4213 N 407.773 -6.78182 -1.41567 0
M  V30 4214 N 409.566 -5.46415 -1.31859 0
M  V30 4215 H 401.717 -2.05574 0.534147 0
M  V30 4216 H 403.98 -0.931259 0.177372 0
M  V30 4217 H 403.686 -3.51635 0.0675598 0
M  V30 4218 H 403.56 -3.37859 -1.67724 0
M  V30 4219 H 405.947 -2.38833 -1.73329 0
M  V30 4220 H 406.028 -2.55787 0.0261185 0
M  V30 4221 H 405.672 -5.07413 -0.222335 0
M  V30 4222 H 405.602 -4.87499 -1.9913 0
M  V30 4223 H 408.093 -3.631 -1.04721 0
M  V30 4224 H 408.406 -7.57428 -1.53372 0
M  V30 4225 H 406.751 -6.81037 -1.38613 0
M  V30 4226 H 409.942 -4.5203 -1.21601 0
M  V30 4227 H 410.115 -6.31841 -1.43808 0
M  V30 4228 N 403.521 0.559213 -1.47345 0
M  V30 4229 C 404.932 1.14134 -1.47751 0
M  V30 4230 C 405.283 1.94834 -0.231103 0
M  V30 4231 O 404.408 2.05957 0.664137 0
M  V30 4232 C 405.003 2.07653 -2.67705 0
M  V30 4233 C 403.562 2.61141 -2.71076 0
M  V30 4234 C 402.709 1.3748 -2.40821 0
M  V30 4235 H 405.66 0.345917 -1.54884 0
M  V30 4236 H 405.681 2.91497 -2.44561 0
M  V30 4237 H 405.193 1.4889 -3.58404 0
M  V30 4238 H 403.294 3.23707 -1.84511 0
M  V30 4239 H 403.407 3.02272 -3.7171 0
M  V30 4240 H 401.771 1.68086 -1.91362 0
M  V30 4241 H 402.554 0.805135 -3.33725 0
M  V30 4242 N 404.999 1.35443 0.805782 0
M  V30 4243 C 406.276 1.19325 1.54987 0
M  V30 4244 C 406.656 -0.227294 2.09873 0
M  V30 4245 O 406.004 -1.2309 1.92512 0
M  V30 4246 C 406.214 2.26196 2.65775 0
M  V30 4247 C 407.562 2.62043 3.34094 0
M  V30 4248 O 408.586 2.25115 2.76046 0
M  V30 4249 O 407.445 3.25542 4.38958 0
M  V30 4250 H 404.539 0.463623 0.684823 0
M  V30 4251 H 407.085 1.47127 0.845674 0
M  V30 4252 H 405.857 3.21471 2.23096 0
M  V30 4253 H 405.48 1.99667 3.43829 0
M  V30 4254 N 406.477 -1.02803 1.19454 0
M  V30 4255 C 407.705 -1.79841 1.02297 0
M  V30 4256 C 408.12 -1.83879 -0.428259 0
M  V30 4257 O 407.477 -1.28345 -1.29745 0
M  V30 4258 C 407.528 -3.24852 1.58598 0
M  V30 4259 O 407.249 -3.21097 2.98041 0
M  V30 4260 C 408.75 -4.18485 1.46236 0
M  V30 4261 H 405.97 -0.565936 0.360496 0
M  V30 4262 H 408.514 -1.2948 1.58288 0
M  V30 4263 H 406.669 -3.72401 1.06753 0
M  V30 4264 H 407.083 -4.12033 3.24545 0
M  V30 4265 H 408.557 -5.18121 1.90407 0
M  V30 4266 H 409.034 -4.37254 0.41301 0
M  V30 4267 H 409.64 -3.76811 1.97215 0
M  V30 4268 N 407.956 -0.998596 -1.21925 0
M  V30 4269 C 408.904 -0.546641 -2.26085 0
M  V30 4270 C 409.898 0.405576 -1.64473 0
M  V30 4271 O 411.104 0.277471 -1.77849 0
M  V30 4272 H 407.479 -0.158403 -0.735127 0
M  V30 4273 H 409.45 -1.43645 -2.61551 0
M  V30 4274 C 408.199 0.117388 -3.47502 0
M  V30 4275 H 407.522 -0.606277 -3.95176 0
M  V30 4276 H 408.962 0.396993 -4.22137 0
M  V30 4277 C 407.421 1.35455 -3.0847 0
M  V30 4278 O 407.951 2.44944 -3.18379 0
M  V30 4279 N 406.157 1.23191 -2.63196 0
M  V30 4280 H 405.704 0.341006 -2.55333 0
M  V30 4281 H 405.662 2.06071 -2.37449 0
M  V30 4282 N 409.434 1.37368 -0.772513 0
M  V30 4283 C 410.68 1.99969 -0.337681 0
M  V30 4284 C 411.013 1.61184 1.08321 0
M  V30 4285 O 410.288 0.858395 1.74533 0
M  V30 4286 C 410.571 3.56858 -0.482121 0
M  V30 4287 C 410.424 4.0555 -1.94549 0
M  V30 4288 C 411.743 4.39955 0.113143 0
M  V30 4289 H 408.862 0.726464 -0.124171 0
M  V30 4290 H 411.504 1.63034 -0.975699 0
M  V30 4291 H 409.654 3.88452 0.0610361 0
M  V30 4292 H 411.326 3.84518 -2.54841 0
M  V30 4293 H 409.569 3.57715 -2.45403 0
M  V30 4294 H 410.24 5.14587 -1.9976 0
M  V30 4295 H 412.716 4.14623 -0.35031 0
M  V30 4296 H 411.592 5.48897 -0.0180514 0
M  V30 4297 H 411.853 4.25403 1.20354 0
M  V30 4298 N 410.912 0.523116 1.48665 0
M  V30 4299 C 412.323 0.0808997 1.86525 0
M  V30 4300 C 412.674 -1.33975 1.43336 0
M  V30 4301 O 411.799 -2.00221 0.821009 0
M  V30 4302 C 412.394 0.140037 3.3851 0
M  V30 4303 C 410.953 -0.246948 3.75589 0
M  V30 4304 C 410.1 0.502845 2.72703 0
M  V30 4305 H 413.051 0.734736 1.40667 0
M  V30 4306 H 413.072 -0.649945 3.74908 0
M  V30 4307 H 412.584 1.17412 3.69914 0
M  V30 4308 H 410.685 -1.28343 3.49798 0
M  V30 4309 H 410.798 0.0878859 4.79019 0
M  V30 4310 H 409.162 -0.0500581 2.54651 0
M  V30 4311 H 409.945 1.53743 3.0695 0
M  V30 4312 N 412.39 -1.55475 0.257931 0
M  V30 4313 C 413.638 -1.98813 -0.363009 0
M  V30 4314 C 413.959 -1.14757 -1.57657 0
M  V30 4315 O 413.229 -0.232956 -1.9451 0
M  V30 4316 H 411.809 -0.734308 -0.137113 0
M  V30 4317 H 414.471 -1.9156 0.359281 0
M  V30 4318 H 413.567 -3.04941 -0.664634 0
M  V30 4319 N 413.868 0.0150385 -1.57593 0
M  V30 4320 C 415.145 0.7392 -1.81094 0
M  V30 4321 C 415.525 1.92817 -0.859344 0
M  V30 4322 O 414.873 2.28301 0.095362 0
M  V30 4323 C 415.083 1.15907 -3.29191 0
M  V30 4324 C 416.431 1.56918 -3.9454 0
M  V30 4325 O 417.455 1.25328 -3.33424 0
M  V30 4326 O 416.314 2.15604 -5.02173 0
M  V30 4327 H 413.408 0.358631 -0.745193 0
M  V30 4328 H 415.954 -0.00926156 -1.69697 0
M  V30 4329 H 414.726 0.310921 -3.90063 0
M  V30 4330 H 414.349 1.96711 -3.45529 0
M  V30 4331 N 415.346 1.54954 0.287554 0
M  V30 4332 C 416.296 1.8322 1.357 0
M  V30 4333 C 417.28 0.690152 1.45347 0
M  V30 4334 O 418.472 0.951137 1.49273 0
M  V30 4335 C 415.601 2.09481 2.71979 0
M  V30 4336 C 414.687 3.29906 2.66502 0
M  V30 4337 N 415.078 4.50154 2.30641 0
M  V30 4338 C 413.376 3.32203 2.97585 0
M  V30 4339 C 414.077 5.32209 2.34794 0
M  V30 4340 N 413.053 4.70258 2.72688 0
M  V30 4341 H 416.855 2.73746 1.0696 0
M  V30 4342 H 414.369 1.54635 0.496167 0
M  V30 4343 H 416.366 2.27882 3.49107 0
M  V30 4344 H 415.026 1.2023 3.0162 0
M  V30 4345 H 416.037 4.76515 2.02865 0
M  V30 4346 H 412.714 2.53101 3.32034 0
M  V30 4347 H 414.104 6.38321 2.09753 0
M  V30 4348 N 416.824 -0.551391 1.4764 0
M  V30 4349 C 417.771 -1.65796 1.60563 0
M  V30 4350 C 418.741 -1.59932 0.448428 0
M  V30 4351 O 419.926 -1.78679 0.669222 0
M  V30 4352 C 417.066 -3.04108 1.63133 0
M  V30 4353 C 416.179 -3.20365 2.89811 0
M  V30 4354 C 415.314 -4.49109 2.8368 0
M  V30 4355 C 414.353 -4.58819 4.05156 0
M  V30 4356 N 413.49 -5.78926 3.97227 0
M  V30 4357 H 418.33 -1.54088 2.5507 0
M  V30 4358 H 415.867 -0.75052 1.26513 0
M  V30 4359 H 417.825 -3.84207 1.62606 0
M  V30 4360 H 416.455 -3.14637 0.721341 0
M  V30 4361 H 415.507 -2.33659 3.00179 0
M  V30 4362 H 416.819 -3.23402 3.79753 0
M  V30 4363 H 415.973 -5.37475 2.81434 0
M  V30 4364 H 414.712 -4.4856 1.91431 0
M  V30 4365 H 413.717 -3.68864 4.077 0
M  V30 4366 H 414.942 -4.61124 4.98539 0
M  V30 4367 H 412.888 -5.79314 3.07785 0
M  V30 4368 H 412.805 -5.83367 4.80853 0
M  V30 4369 H 414.073 -6.69637 3.99007 0
M  V30 4370 N 418.302 -1.35869 -0.798587 0
M  V30 4371 C 419.548 -1.2978 -1.55836 0
M  V30 4372 C 419.881 0.125322 -1.93795 0
M  V30 4373 O 419.156 1.07658 -1.61987 0
M  V30 4374 C 419.439 -2.21188 -2.84162 0
M  V30 4375 C 419.292 -3.72155 -2.52628 0
M  V30 4376 C 420.611 -2.11545 -3.85923 0
M  V30 4377 H 417.73 -0.472769 -0.565383 0
M  V30 4378 H 420.372 -1.66341 -0.918192 0
M  V30 4379 H 418.522 -1.90139 -3.38791 0
M  V30 4380 H 420.194 -4.13682 -2.04121 0
M  V30 4381 H 418.437 -3.92042 -1.85704 0
M  V30 4382 H 419.108 -4.31511 -3.44242 0
M  V30 4383 H 421.584 -2.38855 -3.40716 0
M  V30 4384 H 420.46 -2.77688 -4.73477 0
M  V30 4385 H 420.721 -1.09987 -4.282 0
M  V30 4386 N 419.78 1.02168 -1.19998 0
M  V30 4387 C 421.008 1.79296 -1.03249 0
M  V30 4388 C 421.423 1.84103 0.418502 0
M  V30 4389 O 420.78 1.29031 1.29063 0
M  V30 4390 C 420.831 3.24007 -1.60319 0
M  V30 4391 O 420.552 3.19512 -2.99739 0
M  V30 4392 C 422.053 4.17704 -1.48453 0
M  V30 4393 H 419.273 0.564016 -0.363493 0
M  V30 4394 H 421.817 1.28639 -1.58973 0
M  V30 4395 H 419.972 3.7183 -1.08727 0
M  V30 4396 H 420.386 4.10306 -3.26725 0
M  V30 4397 H 421.86 5.17104 -1.93153 0
M  V30 4398 H 422.337 4.37029 -0.436193 0
M  V30 4399 H 422.943 3.7576 -1.99211 0
M  V30 4400 N 421.258 1.00505 1.21394 0
M  V30 4401 C 422.504 0.688793 1.90745 0
M  V30 4402 C 422.837 -0.778486 1.77914 0
M  V30 4403 O 422.112 -1.56433 1.15581 0
M  V30 4404 C 422.395 1.11063 3.42545 0
M  V30 4405 C 422.248 2.63737 3.64367 0
M  V30 4406 C 423.567 0.673059 4.34923 0
M  V30 4407 H 420.686 0.251702 0.692687 0
M  V30 4408 H 423.328 1.25074 1.43026 0
M  V30 4409 H 421.478 0.632508 3.83317 0
M  V30 4410 H 423.15 3.19313 3.32922 0
M  V30 4411 H 421.393 3.05248 3.08231 0
M  V30 4412 H 422.064 2.88305 4.70727 0
M  V30 4413 H 424.54 1.08392 4.01734 0
M  V30 4414 H 423.416 0.996383 5.39781 0
M  V30 4415 H 423.677 -0.425808 4.40045 0
M  V30 4416 N 422.737 -1.36956 0.779787 0
M  V30 4417 C 423.647 -2.33965 0.172491 0
M  V30 4418 C 424.663 -1.60574 -0.670222 0
M  V30 4419 O 425.839 -1.92617 -0.588263 0
M  V30 4420 C 422.904 -3.39761 -0.690173 0
M  V30 4421 C 421.965 -4.28964 0.169924 0
M  V30 4422 C 421.198 -5.29707 -0.651662 0
M  V30 4423 O 421.421 -5.38238 -1.88827 0
M  V30 4424 O 420.355 -6.01873 -0.0566264 0
M  V30 4425 H 424.181 -2.87647 0.974321 0
M  V30 4426 H 421.766 -1.39258 0.541078 0
M  V30 4427 H 423.648 -4.04471 -1.1824 0
M  V30 4428 H 422.323 -2.88394 -1.47006 0
M  V30 4429 H 421.23 -3.67326 0.708696 0
M  V30 4430 H 422.563 -4.83656 0.913085 0
M  V30 4431 N 424.215 -0.530993 -1.48385 0
M  V30 4432 C 425.461 0.00274135 -2.028 0
M  V30 4433 C 425.794 1.33838 -1.40716 0
M  V30 4434 O 425.069 1.86465 -0.553277 0
M  V30 4435 C 425.352 0.123676 -3.59888 0
M  V30 4436 C 425.205 -1.2372 -4.3245 0
M  V30 4437 C 426.524 0.849967 -4.31814 0
M  V30 4438 H 423.643 -0.000477758 -0.737 0
M  V30 4439 H 426.285 -0.688217 -1.77098 0
M  V30 4440 H 424.435 0.712157 -3.81917 0
M  V30 4441 H 426.107 -1.86687 -4.21836 0
M  V30 4442 H 424.35 -1.81882 -3.93829 0
M  V30 4443 H 425.021 -1.10557 -5.40815 0
M  V30 4444 H 427.497 0.350572 -4.14621 0
M  V30 4445 H 426.373 0.903486 -5.41413 0
M  V30 4446 H 426.634 1.90047 -3.99167 0
M  V30 4447 N 425.693 1.55336 -0.266172 0
M  V30 4448 C 426.921 2.03801 0.356756 0
M  V30 4449 C 427.336 1.14485 1.50129 0
M  V30 4450 O 426.693 0.163121 1.8177 0
M  V30 4451 C 426.744 3.51455 0.846281 0
M  V30 4452 O 426.465 4.37371 -0.252663 0
M  V30 4453 C 427.966 4.15767 1.53794 0
M  V30 4454 H 425.186 0.665906 0.0825218 0
M  V30 4455 H 427.73 2.00636 -0.39566 0
M  V30 4456 H 425.885 3.55092 1.54881 0
M  V30 4457 H 426.299 5.24358 0.122173 0
M  V30 4458 H 427.773 5.20714 1.83198 0
M  V30 4459 H 428.25 3.63404 2.46646 0
M  V30 4460 H 428.856 4.16107 0.879488 0
M  V30 4461 N 427.171 -0.0066808 1.57599 0
M  V30 4462 C 428.401 -0.703066 1.94269 0
M  V30 4463 C 428.809 -1.68206 0.866222 0
M  V30 4464 O 428.152 -1.82966 -0.164087 0
M  V30 4465 C 428.214 -1.49616 3.26887 0
M  V30 4466 C 427.878 -0.679494 4.5192 0
M  V30 4467 C 428.875 0.0299508 5.19891 0
M  V30 4468 C 426.56 -0.627433 4.98366 0
M  V30 4469 C 428.554 0.780514 6.32603 0
M  V30 4470 C 426.241 0.126861 6.10968 0
M  V30 4471 C 427.239 0.829574 6.77943 0
M  V30 4472 O 426.927 1.57157 7.88389 0
M  V30 4473 H 426.659 -0.201217 0.645359 0
M  V30 4474 H 429.213 0.0385326 2.05364 0
M  V30 4475 H 427.443 -2.28209 3.12182 0
M  V30 4476 H 429.132 -2.07726 3.48719 0
M  V30 4477 H 429.898 -0.00115963 4.85 0
M  V30 4478 H 425.777 -1.16392 4.46065 0
M  V30 4479 H 429.321 1.32954 6.84813 0
M  V30 4480 H 425.218 0.159815 6.45302 0
M  V30 4481 H 425.986 1.48758 8.04868 0
M  V30 4482 N 428.649 -1.55105 -0.279332 0
M  V30 4483 C 430.06 -1.66186 -0.850832 0
M  V30 4484 C 430.411 -0.584707 -1.87285 0
M  V30 4485 O 429.536 0.274919 -2.14647 0
M  V30 4486 C 430.131 -3.01264 -1.55001 0
M  V30 4487 C 428.69 -3.14394 -2.06963 0
M  V30 4488 C 427.837 -2.61959 -0.909536 0
M  V30 4489 H 430.788 -1.58602 -0.0558235 0
M  V30 4490 H 430.809 -2.93899 -2.41669 0
M  V30 4491 H 430.321 -3.7964 -0.805931 0
M  V30 4492 H 428.422 -2.4078 -2.84352 0
M  V30 4493 H 428.535 -4.20867 -2.28928 0
M  V30 4494 H 426.899 -2.18957 -1.30116 0
M  V30 4495 H 427.682 -3.42833 -0.179062 0
M  V30 4496 N 430.127 0.543554 -1.4793 0
M  V30 4497 C 431.404 1.30458 -1.4574 0
M  V30 4498 C 431.784 2.1048 -0.161692 0
M  V30 4499 O 431.132 2.11831 0.856734 0
M  V30 4500 C 431.342 2.19754 -2.71126 0
M  V30 4501 C 432.69 2.80334 -3.18901 0
M  V30 4502 O 433.714 2.30049 -2.71948 0
M  V30 4503 O 432.573 3.71766 -4.00565 0
M  V30 4504 H 429.667 0.588117 -0.581418 0
M  V30 4505 H 432.213 0.561328 -1.60147 0
M  V30 4506 H 430.985 1.60316 -3.56952 0
M  V30 4507 H 430.608 3.01351 -2.59371 0
M  V30 4508 N 431.605 1.3629 0.791371 0
M  V30 4509 C 432.853 1.30154 1.5461 0
M  V30 4510 C 433.174 -0.119409 1.94634 0
M  V30 4511 O 432.444 -1.05924 1.64794 0
M  V30 4512 H 431.024 0.478784 0.573389 0
M  V30 4513 H 433.686 1.70565 0.94306 0
M  V30 4514 H 432.782 1.92762 2.45457 0
M  V30 4515 N 433.083 -1.0153 1.20538 0
M  V30 4516 C 434.311 -1.78746 1.04199 0
M  V30 4517 C 434.726 -1.84323 -0.408733 0
M  V30 4518 O 434.083 -1.29714 -1.28377 0
M  V30 4519 C 434.134 -3.23152 1.62035 0
M  V30 4520 O 433.855 -3.17918 3.0143 0
M  V30 4521 C 435.356 -4.16911 1.50666 0
M  V30 4522 H 432.576 -0.56208 0.366479 0
M  V30 4523 H 435.12 -1.27794 1.59653 0
M  V30 4524 H 433.275 -3.71248 1.10697 0
M  V30 4525 H 433.689 -4.08567 3.28897 0
M  V30 4526 H 435.163 -5.16072 1.95892 0
M  V30 4527 H 435.64 -4.36791 0.459363 0
M  V30 4528 H 436.246 -3.74698 2.01201 0
M  V30 4529 N 434.561 -1.01147 -1.20859 0
M  V30 4530 C 435.508 -0.577354 -2.23462 0
M  V30 4531 C 436.478 0.399922 -1.61214 0
M  V30 4532 O 437.663 0.300515 -1.88419 0
M  V30 4533 C 434.803 0.083372 -3.44999 0
M  V30 4534 C 433.916 -0.937856 -4.21697 0
M  V30 4535 C 433.051 -0.248717 -5.30617 0
M  V30 4536 C 432.09 -1.25705 -5.99053 0
M  V30 4537 N 431.227 -0.594939 -6.99575 0
M  V30 4538 H 436.067 -1.45695 -2.59956 0
M  V30 4539 H 433.604 -0.729428 -1.27741 0
M  V30 4540 H 435.562 0.483535 -4.14388 0
M  V30 4541 H 434.192 0.926645 -3.09214 0
M  V30 4542 H 433.244 -1.45622 -3.51423 0
M  V30 4543 H 434.556 -1.70493 -4.68757 0
M  V30 4544 H 433.71 0.207215 -6.06346 0
M  V30 4545 H 432.449 0.55071 -4.84581 0
M  V30 4546 H 431.454 -1.72343 -5.2209 0
M  V30 4547 H 432.679 -2.05767 -6.47176 0
M  V30 4548 H 430.625 0.184713 -6.5574 0
M  V30 4549 H 430.542 -1.30017 -7.44736 0
M  V30 4550 H 431.81 -0.162427 -7.79331 0
M  V30 4551 N 436.039 1.36541 -0.78704 0
M  V30 4552 C 437.316 1.9355 -0.282424 0
M  V30 4553 C 437.696 1.71919 1.22503 0
M  V30 4554 O 437.044 1.07677 2.01539 0
M  V30 4555 C 437.254 3.4246 -0.672462 0
M  V30 4556 C 438.602 4.19582 -0.650863 0
M  V30 4557 O 439.626 3.50889 -0.612789 0
M  V30 4558 O 438.485 5.42106 -0.691623 0
M  V30 4559 H 435.579 0.824091 -0.0693 0
M  V30 4560 H 438.125 1.45736 -0.869423 0
M  V30 4561 H 436.897 3.51851 -1.71221 0
M  V30 4562 H 436.52 3.97556 -0.0592211 0
M  V30 4563 N 437.518 0.538854 1.48102 0
M  V30 4564 C 438.746 0.0123136 2.06896 0
M  V30 4565 C 439.161 -1.27312 1.39417 0
M  V30 4566 O 438.518 -1.75949 0.484582 0
M  V30 4567 C 438.569 -0.206118 3.60912 0
M  V30 4568 O 438.29 1.0284 4.25859 0
M  V30 4569 C 439.791 -0.772033 4.36526 0
M  V30 4570 H 437.011 0.0375239 0.66995 0
M  V30 4571 H 439.555 0.747032 1.90367 0
M  V30 4572 H 437.71 -0.89091 3.77017 0
M  V30 4573 H 438.124 0.814654 5.18135 0
M  V30 4574 H 439.598 -0.874251 5.45033 0
M  V30 4575 H 440.075 -1.77904 4.01555 0
M  V30 4576 H 440.681 -0.123526 4.25121 0
M  V30 4577 N 438.996 -1.55193 0.274407 0
M  V30 4578 C 440.242 -1.99877 -0.343086 0
M  V30 4579 C 440.575 -1.16256 -1.55558 0
M  V30 4580 O 439.85 -0.232462 -1.93106 0
M  V30 4581 C 440.133 -3.52706 -0.725965 0
M  V30 4582 C 439.986 -4.47081 0.493818 0
M  V30 4583 C 441.305 -4.11422 -1.56268 0
M  V30 4584 H 438.424 -0.726625 -0.123229 0
M  V30 4585 H 441.066 -1.86136 0.38121 0
M  V30 4586 H 439.216 -3.64546 -1.34307 0
M  V30 4587 H 440.888 -4.47186 1.13237 0
M  V30 4588 H 439.131 -4.1877 1.13201 0
M  V30 4589 H 439.802 -5.51699 0.18217 0
M  V30 4590 H 442.278 -4.02855 -1.04151 0
M  V30 4591 H 441.154 -5.18568 -1.79939 0
M  V30 4592 H 441.415 -3.61607 -2.54348 0
M  V30 4593 N 440.474 -0.00167713 -1.576 0
M  V30 4594 C 441.384 1.00548 -2.1196 0
M  V30 4595 C 442.4 1.3758 -1.06526 0
M  V30 4596 O 443.576 1.46278 -1.38436 0
M  V30 4597 C 440.641 2.27809 -2.6135 0
M  V30 4598 C 439.702 1.97074 -3.81393 0
M  V30 4599 C 438.935 3.18267 -4.28417 0
M  V30 4600 O 439.158 4.30009 -3.74765 0
M  V30 4601 O 438.092 3.02167 -5.20556 0
M  V30 4602 H 441.918 0.573373 -2.98238 0
M  V30 4603 H 439.503 0.217255 -1.47812 0
M  V30 4604 H 441.385 3.02568 -2.93309 0
M  V30 4605 H 440.06 2.70254 -1.78169 0
M  V30 4606 H 438.967 1.19785 -3.54404 0
M  V30 4607 H 440.3 1.59464 -4.65652 0
M  V30 4608 N 441.952 1.55251 0.271103 0
M  V30 4609 C 443.198 1.76207 1.00394 0
M  V30 4610 C 443.531 0.562604 1.85872 0
M  V30 4611 O 442.806 -0.439785 1.89463 0
M  V30 4612 C 443.089 3.06828 1.8849 0
M  V30 4613 C 442.942 4.37134 1.05992 0
M  V30 4614 C 444.261 3.33503 2.87165 0
M  V30 4615 H 441.38 0.641086 0.363562 0
M  V30 4616 H 444.022 1.87982 0.276189 0
M  V30 4617 H 442.172 2.96921 2.5054 0
M  V30 4618 H 443.844 4.59001 0.459978 0
M  V30 4619 H 442.087 4.32275 0.363443 0
M  V30 4620 H 442.758 5.2486 1.70955 0
M  V30 4621 H 445.234 3.43215 2.3525 0
M  V30 4622 H 444.11 4.2616 3.45946 0
M  V30 4623 H 444.371 2.53235 3.62387 0
M  V30 4624 N 443.43 -0.535701 1.48216 0
M  V30 4625 C 444.658 -1.31671 1.59594 0
M  V30 4626 C 445.073 -1.87083 0.254056 0
M  V30 4627 O 444.43 -1.66112 -0.755854 0
M  V30 4628 C 444.481 -2.47158 2.63809 0
M  V30 4629 O 444.202 -1.94032 3.92789 0
M  V30 4630 C 445.703 -3.39062 2.85573 0
M  V30 4631 H 442.923 -0.400623 0.538277 0
M  V30 4632 H 445.467 -0.646827 1.94001 0
M  V30 4633 H 443.622 -3.10043 2.32276 0
M  V30 4634 H 444.036 -2.69585 4.49916 0
M  V30 4635 H 445.51 -4.16459 3.62306 0
M  V30 4636 H 445.987 -3.93941 1.94184 0
M  V30 4637 H 446.593 -2.81975 3.18387 0
M  V30 4638 N 444.908 -1.36708 -0.784132 0
M  V30 4639 C 446.154 -1.31426 -1.54451 0
M  V30 4640 C 446.487 0.10476 -1.93917 0
M  V30 4641 O 445.762 1.05934 -1.6312 0
M  V30 4642 C 446.045 -2.24189 -2.818 0
M  V30 4643 C 445.898 -3.74813 -2.48667 0
M  V30 4644 C 447.217 -2.15626 -3.83658 0
M  V30 4645 H 444.336 -0.478739 -0.560337 0
M  V30 4646 H 446.978 -1.67305 -0.900498 0
M  V30 4647 H 445.128 -1.93722 -3.36755 0
M  V30 4648 H 446.8 -4.15823 -1.99722 0
M  V30 4649 H 445.043 -3.93989 -1.81535 0
M  V30 4650 H 445.714 -4.35138 -3.39646 0
M  V30 4651 H 448.19 -2.42456 -3.38163 0
M  V30 4652 H 447.066 -2.82694 -4.70506 0
M  V30 4653 H 447.327 -1.14522 -4.27009 0
M  V30 4654 N 446.386 1.0089 -1.21074 0
M  V30 4655 C 447.336 2.0799 -0.934034 0
M  V30 4656 C 448.32 1.60529 0.10919 0
M  V30 4657 O 449.512 1.76722 -0.0992198 0
M  V30 4658 C 446.641 3.39693 -0.496334 0
M  V30 4659 C 445.727 3.93833 -1.57341 0
M  V30 4660 N 446.118 4.21388 -2.7976 0
M  V30 4661 C 444.416 4.22067 -1.44137 0
M  V30 4662 C 445.117 4.65156 -3.49292 0
M  V30 4663 N 444.093 4.67895 -2.76722 0
M  V30 4664 H 447.895 2.27213 -1.86417 0
M  V30 4665 H 445.409 1.18927 -1.10589 0
M  V30 4666 H 447.406 4.15962 -0.279471 0
M  V30 4667 H 446.066 3.21879 0.427084 0
M  V30 4668 H 447.077 4.10061 -3.1634 0
M  V30 4669 H 443.754 4.1341 -0.582947 0
M  V30 4670 H 445.144 4.95231 -4.54088 0
M  V30 4671 N 447.864 1.01787 1.20321 0
M  V30 4672 C 449.11 0.708985 1.90003 0
M  V30 4673 C 449.443 -0.759572 1.78729 0
M  V30 4674 O 448.718 -1.55198 1.17234 0
M  V30 4675 C 449.001 1.1469 3.41348 0
M  V30 4676 C 448.854 2.67586 3.61549 0
M  V30 4677 C 450.173 0.71915 4.34185 0
M  V30 4678 H 447.292 0.259034 0.689978 0
M  V30 4679 H 449.934 1.26584 1.41692 0
M  V30 4680 H 448.084 0.673128 3.82624 0
M  V30 4681 H 449.756 3.22826 3.29517 0
M  V30 4682 H 447.999 3.085 3.04976 0
M  V30 4683 H 448.67 2.93281 4.67643 0
M  V30 4684 H 451.146 1.12647 4.00562 0
M  V30 4685 H 450.022 1.05358 5.38694 0
M  V30 4686 H 450.283 -0.379111 4.40472 0
M  V30 4687 N 449.342 -1.36122 0.79427 0
M  V30 4688 C 450.57 -2.03362 0.380989 0
M  V30 4689 C 450.985 -1.59881 -1.00416 0
M  V30 4690 O 450.342 -0.790515 -1.6449 0
M  V30 4691 C 450.393 -3.58804 0.440649 0
M  V30 4692 O 450.114 -4.007 1.77118 0
M  V30 4693 C 451.615 -4.43296 0.0186117 0
M  V30 4694 H 448.835 -0.652526 0.156367 0
M  V30 4695 H 451.379 -1.73998 1.07447 0
M  V30 4696 H 449.534 -3.8686 -0.204458 0
M  V30 4697 H 449.948 -4.95309 1.72538 0
M  V30 4698 H 451.422 -5.51887 0.111488 0
M  V30 4699 H 451.899 -4.2684 -1.03461 0
M  V30 4700 H 452.505 -4.20512 0.636395 0
M  V30 4701 N 450.82 -0.546701 -1.47814 0
M  V30 4702 C 452.231 -0.110564 -1.86372 0
M  V30 4703 C 452.582 1.31678 -1.45449 0
M  V30 4704 O 451.707 1.98889 -0.852758 0
M  V30 4705 C 452.302 -0.193873 -3.38245 0
M  V30 4706 C 450.861 0.187164 -3.75934 0
M  V30 4707 C 450.008 -0.546166 -2.71868 0
M  V30 4708 H 452.959 -0.757022 -1.39481 0
M  V30 4709 H 452.98 0.590218 -3.75895 0
M  V30 4710 H 452.492 -1.23282 -3.67999 0
M  V30 4711 H 450.593 1.22762 -3.51796 0
M  V30 4712 H 450.706 -0.164083 -4.78819 0
M  V30 4713 H 449.07 0.00953904 -2.54698 0
M  V30 4714 H 449.853 -1.58606 -3.04465 0
M  V30 4715 N 452.299 1.55045 -0.282633 0
M  V30 4716 C 453.246 2.22822 0.601566 0
M  V30 4717 C 454.216 1.20431 1.14392 0
M  V30 4718 O 455.401 1.48996 1.19184 0
M  V30 4719 C 452.541 2.95873 1.77632 0
M  V30 4720 C 451.654 4.12999 1.26711 0
M  V30 4721 C 450.789 4.73676 2.40426 0
M  V30 4722 C 449.828 5.82981 1.86545 0
M  V30 4723 N 448.965 6.3769 2.93762 0
M  V30 4724 H 453.805 2.97995 0.0169528 0
M  V30 4725 H 451.342 1.471 -0.00339964 0
M  V30 4726 H 453.3 3.36447 2.46697 0
M  V30 4727 H 451.93 2.2311 2.33285 0
M  V30 4728 H 450.982 3.77494 0.469314 0
M  V30 4729 H 452.294 4.91803 0.832518 0
M  V30 4730 H 451.448 5.17008 3.17471 0
M  V30 4731 H 450.187 3.94164 2.87203 0
M  V30 4732 H 449.192 5.39092 1.07983 0
M  V30 4733 H 450.417 6.64366 1.40694 0
M  V30 4734 H 448.363 5.61069 3.39908 0
M  V30 4735 H 448.28 7.11788 2.54744 0
M  V30 4736 H 449.548 6.8568 3.7076 0
M  V30 4737 N 453.777 0.010035 1.57597 0
M  V30 4738 C 455.188 -0.531426 1.78977 0
M  V30 4739 C 455.539 -1.73375 0.918454 0
M  V30 4740 O 454.664 -2.16047 0.123635 0
M  V30 4741 C 455.259 -0.97086 3.24592 0
M  V30 4742 C 453.818 -1.45756 3.47033 0
M  V30 4743 C 452.965 -0.413384 2.74201 0
M  V30 4744 H 455.916 0.236166 1.56933 0
M  V30 4745 H 455.937 -1.83633 3.33255 0
M  V30 4746 H 455.449 -0.0955893 3.87982 0
M  V30 4747 H 453.55 -2.35339 2.88871 0
M  V30 4748 H 453.663 -1.4781 4.55729 0
M  V30 4749 H 452.027 -0.877266 2.39115 0
M  V30 4750 H 452.81 0.453092 3.40297 0
M  V30 4751 N 455.255 -1.55392 -0.262866 0
M  V30 4752 C 456.501 -1.76737 -0.99458 0
M  V30 4753 C 456.834 -0.572453 -1.85571 0
M  V30 4754 O 456.109 0.429732 -1.89693 0
M  V30 4755 C 456.392 -3.07824 -1.8686 0
M  V30 4756 C 456.245 -4.3769 -1.03672 0
M  V30 4757 C 457.564 -3.35021 -2.85393 0
M  V30 4758 H 454.683 -0.643005 -0.360157 0
M  V30 4759 H 457.325 -1.88126 -0.266216 0
M  V30 4760 H 455.475 -2.98245 -2.48962 0
M  V30 4761 H 457.147 -4.59238 -0.43563 0
M  V30 4762 H 455.39 -4.32461 -0.340513 0
M  V30 4763 H 456.061 -5.25759 -1.6817 0
M  V30 4764 H 458.537 -3.44458 -2.33426 0
M  V30 4765 H 457.413 -4.27989 -3.43681 0
M  V30 4766 H 457.674 -2.55153 -3.61039 0
M  V30 4767 N 456.733 0.527833 -1.48498 0
M  V30 4768 C 458.144 1.10975 -1.50138 0
M  V30 4769 C 458.495 1.943 -0.272378 0
M  V30 4770 O 457.62 2.07319 0.620301 0
M  V30 4771 C 458.215 2.01927 -2.72049 0
M  V30 4772 C 456.774 2.55332 -2.76554 0
M  V30 4773 C 455.921 1.32341 -2.43683 0
M  V30 4774 H 458.872 0.312986 -1.55583 0
M  V30 4775 H 458.893 2.86244 -2.50689 0
M  V30 4776 H 458.405 1.41254 -3.61481 0
M  V30 4777 H 456.506 3.19721 -1.91336 0
M  V30 4778 H 456.619 2.94319 -3.78038 0
M  V30 4779 H 454.983 1.63989 -1.94884 0
M  V30 4780 H 455.766 0.734165 -3.35358 0
M  V30 4781 N 458.211 1.37122 0.776871 0
M  V30 4782 C 459.488 1.22586 1.52421 0
M  V30 4783 C 459.868 -0.182726 2.10308 0
M  V30 4784 O 459.216 -1.18979 1.9508 0
M  V30 4785 C 459.426 2.31782 2.60918 0
M  V30 4786 C 460.774 2.69071 3.2846 0
M  V30 4787 O 461.798 2.3092 2.71209 0
M  V30 4788 O 460.657 3.3478 4.31954 0
M  V30 4789 H 457.751 0.478045 0.674835 0
M  V30 4790 H 460.297 1.48888 0.814275 0
M  V30 4791 H 459.069 3.26131 2.16227 0
M  V30 4792 H 458.692 2.06916 3.39517 0
M  V30 4793 N 459.689 -1.00246 1.21608 0
M  V30 4794 C 460.636 -2.09073 0.977613 0
M  V30 4795 C 461.606 -1.65815 -0.097297 0
M  V30 4796 O 462.791 -1.90734 0.0503445 0
M  V30 4797 C 459.931 -3.40671 0.551133 0
M  V30 4798 C 459.044 -3.97326 1.69576 0
M  V30 4799 C 458.179 -5.17043 1.2182 0
M  V30 4800 C 457.218 -5.65813 2.335 0
M  V30 4801 N 456.355 -6.76778 1.86859 0
M  V30 4802 H 461.195 -2.28806 1.90924 0
M  V30 4803 H 458.732 -1.12186 0.951452 0
M  V30 4804 H 460.69 -4.16225 0.285097 0
M  V30 4805 H 459.32 -3.20967 -0.343489 0
M  V30 4806 H 458.372 -3.18734 2.07637 0
M  V30 4807 H 459.684 -4.29511 2.53617 0
M  V30 4808 H 458.838 -5.99852 0.908975 0
M  V30 4809 H 457.577 -4.86458 0.347869 0
M  V30 4810 H 456.582 -4.81599 2.65222 0
M  V30 4811 H 457.807 -5.98427 3.21033 0
M  V30 4812 H 455.753 -6.47994 1.02174 0
M  V30 4813 H 455.67 -7.08231 2.64471 0
M  V30 4814 H 456.938 -7.63116 1.58978 0
M  V30 4815 N 461.167 -1.02423 -1.1978 0
M  V30 4816 C 462.444 -0.632802 -1.85081 0
M  V30 4817 C 462.824 0.888745 -1.9148 0
M  V30 4818 O 462.172 1.78357 -1.42832 0
M  V30 4819 C 462.382 -1.28947 -3.24305 0
M  V30 4820 C 463.73 -1.40976 -4.00513 0
M  V30 4821 O 464.754 -1.24628 -3.33686 0
M  V30 4822 O 463.613 -1.67467 -5.20209 0
M  V30 4823 H 460.707 -0.219348 -0.79738 0
M  V30 4824 H 463.253 -1.12209 -1.27307 0
M  V30 4825 H 462.025 -2.3288 -3.14456 0
M  V30 4826 H 461.648 -0.787748 -3.89718 0
M  V30 4827 N 462.645 1.35699 -0.801477 0
M  V30 4828 C 463.592 2.29876 -0.206294 0
M  V30 4829 C 464.562 1.52565 0.656752 0
M  V30 4830 O 465.747 1.81024 0.602906 0
M  V30 4831 C 462.887 3.39052 0.643272 0
M  V30 4832 C 462 4.31335 -0.239644 0
M  V30 4833 C 461.135 5.27599 0.61744 0
M  V30 4834 C 460.174 6.11521 -0.26619 0
M  V30 4835 N 459.311 6.99938 0.550571 0
M  V30 4836 H 464.151 2.80187 -1.01484 0
M  V30 4837 H 461.688 1.37902 -0.511997 0
M  V30 4838 H 463.646 4.0101 1.15094 0
M  V30 4839 H 462.276 2.9003 1.41713 0
M  V30 4840 H 461.328 3.70426 -0.865381 0
M  V30 4841 H 462.64 4.90243 -0.919985 0
M  V30 4842 H 461.794 5.94906 1.19045 0
M  V30 4843 H 460.533 4.69176 1.33137 0
M  V30 4844 H 459.538 5.43166 -0.851507 0
M  V30 4845 H 460.763 6.72022 -0.9779 0
M  V30 4846 H 458.709 6.44008 1.24856 0
M  V30 4847 H 458.626 7.55966 -0.071832 0
M  V30 4848 H 459.894 7.71599 1.10702 0
M  V30 4849 N 464.123 0.554532 1.47522 0
M  V30 4850 C 465.353 0.0342074 2.06572 0
M  V30 4851 C 465.761 -1.26375 1.40805 0
M  V30 4852 O 465.104 -1.7683 0.49769 0
M  V30 4853 C 465.166 -0.235096 3.5873 0
M  V30 4854 C 464.83 0.973024 4.46521 0
M  V30 4855 C 465.827 1.8779 4.848 0
M  V30 4856 C 463.512 1.18694 4.88075 0
M  V30 4857 C 465.506 2.98039 5.63428 0
M  V30 4858 C 463.193 2.29254 5.66468 0
M  V30 4859 C 464.191 3.18757 6.04055 0
M  V30 4860 O 463.879 4.27401 6.8087 0
M  V30 4861 H 463.611 0.041587 0.67472 0
M  V30 4862 H 466.165 0.766748 1.90552 0
M  V30 4863 H 464.395 -1.02191 3.72953 0
M  V30 4864 H 466.084 -0.700477 3.9981 0
M  V30 4865 H 466.85 1.72467 4.53299 0
M  V30 4866 H 462.729 0.49947 4.58286 0
M  V30 4867 H 466.273 3.67926 5.92685 0
M  V30 4868 H 462.17 2.4455 5.97382 0
M  V30 4869 H 462.938 4.25415 6.9926 0
M  V30 4870 N 465.601 -1.54893 0.290851 0
M  V30 4871 C 466.878 -1.91991 -0.373989 0
M  V30 4872 C 467.258 -1.21694 -1.72493 0
M  V30 4873 O 466.606 -0.34917 -2.25816 0
M  V30 4874 C 466.816 -3.45419 -0.498703 0
M  V30 4875 C 468.164 -4.1748 -0.774298 0
M  V30 4876 O 469.188 -3.51398 -0.582908 0
M  V30 4877 O 468.047 -5.3445 -1.14129 0
M  V30 4878 H 465.141 -0.800593 -0.207315 0
M  V30 4879 H 467.687 -1.66297 0.338164 0
M  V30 4880 H 466.459 -3.88688 0.451392 0
M  V30 4881 H 466.082 -3.77117 -1.25972 0
M  V30 4882 N 467.08 -0.0183926 -1.57589 0
M  V30 4883 C 468.491 0.521927 -1.79256 0
M  V30 4884 C 468.842 1.72885 -0.927636 0
M  V30 4885 O 467.967 2.15978 -0.135091 0
M  V30 4886 C 468.562 0.953632 -3.25102 0
M  V30 4887 C 467.121 1.43913 -3.47801 0
M  V30 4888 C 466.268 0.398837 -2.74417 0
M  V30 4889 H 469.219 -0.244485 -1.56805 0
M  V30 4890 H 469.24 1.81863 -3.34224 0
M  V30 4891 H 468.752 0.0750123 -3.88028 0
M  V30 4892 H 466.853 2.33804 -2.90115 0
M  V30 4893 H 466.966 1.45391 -4.56507 0
M  V30 4894 H 465.33 0.864572 -2.39577 0
M  V30 4895 H 466.113 -0.471132 -3.40052 0
M  V30 4896 N 468.558 1.5553 0.254621 0
M  V30 4897 C 469.786 1.81046 1.00149 0
M  V30 4898 C 470.201 0.593047 1.79244 0
M  V30 4899 O 469.558 -0.438196 1.77161 0
M  V30 4900 C 469.609 3.04684 1.94551 0
M  V30 4901 O 469.33 4.21725 1.18658 0
M  V30 4902 C 470.831 3.42943 2.80901 0
M  V30 4903 H 468.051 0.602653 0.295044 0
M  V30 4904 H 470.595 2.02576 0.279842 0
M  V30 4905 H 468.75 2.85226 2.62154 0
M  V30 4906 H 469.164 4.91746 1.82445 0
M  V30 4907 H 470.638 4.32576 3.42902 0
M  V30 4908 H 471.115 2.63176 3.51617 0
M  V30 4909 H 471.721 3.64724 2.18762 0
M  V30 4910 N 470.036 -0.519951 1.48776 0
M  V30 4911 C 471.284 -1.2727 1.56993 0
M  V30 4912 C 471.605 -1.9339 0.25004 0
M  V30 4913 O 470.875 -1.81822 -0.729216 0
M  V30 4914 H 469.455 -0.472732 0.578389 0
M  V30 4915 H 472.117 -0.604234 1.85297 0
M  V30 4916 H 471.213 -2.04669 2.3562 0
M  V30 4917 N 471.514 -1.37532 -0.769588 0
M  V30 4918 C 472.762 -1.32597 -1.5252 0
M  V30 4919 C 473.083 0.0884294 -1.94799 0
M  V30 4920 O 472.353 1.03289 -1.66458 0
M  V30 4921 H 470.933 -0.487846 -0.565699 0
M  V30 4922 H 473.595 -1.72044 -0.915806 0
M  V30 4923 H 472.691 -1.96643 -2.42359 0
M  V30 4924 N 472.992 0.995999 -1.22138 0
M  V30 4925 C 473.902 2.11985 -1.00496 0
M  V30 4926 C 474.918 1.7394 0.0457701 0
M  V30 4927 O 476.094 2.00868 -0.146273 0
M  V30 4928 C 473.159 3.41779 -0.582086 0
M  V30 4929 C 472.22 3.93943 -1.70608 0
M  V30 4930 C 471.453 5.17542 -1.30328 0
M  V30 4931 O 471.676 5.70114 -0.180743 0
M  V30 4932 O 470.61 5.63382 -2.11861 0
M  V30 4933 H 474.436 2.33123 -1.94647 0
M  V30 4934 H 472.021 1.10358 -1.00705 0
M  V30 4935 H 473.903 4.1989 -0.356467 0
M  V30 4936 H 472.578 3.22007 0.330592 0
M  V30 4937 H 471.485 3.17019 -1.98619 0
M  V30 4938 H 472.818 4.18141 -2.59651 0
M  V30 4939 N 474.47 1.03057 1.19235 0
M  V30 4940 C 475.698 0.747697 1.92917 0
M  V30 4941 C 476.113 -0.69372 1.75593 0
M  V30 4942 O 475.47 -1.47191 1.07894 0
M  V30 4943 C 475.521 1.09159 3.44625 0
M  V30 4944 O 475.242 2.47641 3.61394 0
M  V30 4945 C 476.743 0.831763 4.35427 0
M  V30 4946 H 473.963 0.273453 0.612751 0
M  V30 4947 H 476.507 1.37552 1.51327 0
M  V30 4948 H 474.662 0.508919 3.84043 0
M  V30 4949 H 475.076 2.60499 4.55237 0
M  V30 4950 H 476.55 1.12233 5.4047 0
M  V30 4951 H 477.027 -0.233769 4.38577 0
M  V30 4952 H 477.633 1.39725 4.01693 0
M  V30 4953 N 475.948 -1.35272 0.808662 0
M  V30 4954 C 477.176 -2.02946 0.402537 0
M  V30 4955 C 477.591 -1.60937 -0.987147 0
M  V30 4956 O 476.948 -0.807917 -1.63643 0
M  V30 4957 C 476.999 -3.58317 0.47868 0
M  V30 4958 O 476.72 -3.98799 1.81358 0
M  V30 4959 C 478.221 -4.43251 0.0656281 0
M  V30 4960 H 475.441 -0.650831 0.163279 0
M  V30 4961 H 477.985 -1.72849 1.09286 0
M  V30 4962 H 476.14 -3.87055 -0.163415 0
M  V30 4963 H 476.554 -4.93451 1.77781 0
M  V30 4964 H 478.028 -5.51738 0.170017 0
M  V30 4965 H 478.505 -4.27913 -0.989278 0
M  V30 4966 H 479.111 -4.19813 0.68096 0
M  V30 4967 N 477.426 -0.562348 -1.47226 0
M  V30 4968 C 478.672 -0.0402761 -2.0276 0
M  V30 4969 C 479.005 1.30823 -1.43523 0
M  V30 4970 O 478.28 1.85249 -0.592705 0
M  V30 4971 C 478.563 0.047311 -3.60069 0
M  V30 4972 C 478.416 -1.32865 -4.29729 0
M  V30 4973 C 479.735 0.758182 -4.3352 0
M  V30 4974 H 476.854 -0.0161105 -0.736824 0
M  V30 4975 H 479.496 -0.725628 -1.75598 0
M  V30 4976 H 477.646 0.630986 -3.83342 0
M  V30 4977 H 479.318 -1.95593 -4.17781 0
M  V30 4978 H 477.561 -1.90195 -3.89882 0
M  V30 4979 H 478.232 -1.22004 -5.38349 0
M  V30 4980 H 480.708 0.262546 -4.15271 0
M  V30 4981 H 479.584 0.78844 -5.43208 0
M  V30 4982 H 479.845 1.81537 -4.03109 0
M  V30 4983 N 478.904 1.54736 -0.299062 0
M  V30 4984 C 480.315 1.8569 0.193971 0
M  V30 4985 C 480.666 1.22101 1.53577 0
M  V30 4986 O 479.791 0.51799 2.10109 0
M  V30 4987 C 480.386 3.36895 0.358733 0
M  V30 4988 C 478.945 3.67887 0.795986 0
M  V30 4989 C 478.092 2.77131 -0.096807 0
M  V30 4990 H 481.043 1.49934 -0.520134 0
M  V30 4991 H 481.064 3.61294 1.19361 0
M  V30 4992 H 480.576 3.83148 -0.617998 0
M  V30 4993 H 478.677 3.27151 1.78334 0
M  V30 4994 H 478.79 4.75114 0.616718 0
M  V30 4995 H 477.154 2.51153 0.423581 0
M  V30 4996 H 477.937 3.26204 -1.06986 0
M  V30 4997 N 480.382 0.0267497 1.57577 0
M  V30 4998 C 481.314 -0.984594 2.06974 0
M  V30 4999 C 482.327 -1.29032 0.992705 0
M  V30 5000 O 483.516 -1.25539 1.26895 0
M  V30 5001 C 480.616 -2.31262 2.47732 0
M  V30 5002 C 479.789 -2.1924 3.78487 0
M  V30 5003 C 478.848 -3.34956 4.05821 0
M  V30 5004 O 477.874 -3.11948 4.76106 0
M  V30 5005 N 479.076 -4.58672 3.55809 0
M  V30 5006 H 481.841 -0.563143 2.94362 0
M  V30 5007 H 479.402 -0.160061 1.61107 0
M  V30 5008 H 481.394 -3.07496 2.63112 0
M  V30 5009 H 479.964 -2.65056 1.65723 0
M  V30 5010 H 479.184 -1.27747 3.72927 0
M  V30 5011 H 480.472 -2.08409 4.64158 0
M  V30 5012 H 479.87 -4.8026 2.98942 0
M  V30 5013 H 478.427 -5.32083 3.76472 0
M  V30 5014 N 481.861 -1.55662 -0.24637 0
M  V30 5015 C 483.109 -1.77168 -0.972411 0
M  V30 5016 C 483.43 -0.590827 -1.85834 0
M  V30 5017 O 482.7 0.393365 -1.9191 0
M  V30 5018 H 481.28 -0.653405 -0.362038 0
M  V30 5019 H 483.942 -1.93101 -0.264189 0
M  V30 5020 H 483.038 -2.68335 -1.59382 0
M  V30 5021 N 483.339 0.512053 -1.4905 0
M  V30 5022 C 484.567 1.29116 -1.61669 0
M  V30 5023 C 484.982 1.86655 -0.283787 0
M  V30 5024 O 484.339 1.67293 0.729331 0
M  V30 5025 C 484.39 2.4293 -2.67707 0
M  V30 5026 O 484.111 1.87758 -3.95826 0
M  V30 5027 C 485.612 3.34476 -2.90931 0
M  V30 5028 H 482.832 0.392009 -0.544583 0
M  V30 5029 H 485.376 0.615881 -1.95006 0
M  V30 5030 H 483.531 3.06308 -2.37179 0
M  V30 5031 H 483.945 2.62393 -4.54148 0
M  V30 5032 H 485.419 4.10642 -3.68886 0
M  V30 5033 H 485.896 3.90801 -2.00427 0
M  V30 5034 H 486.502 2.76874 -3.22832 0
M  V30 5035 N 484.817 1.37938 0.762283 0
M  V30 5036 C 486.228 1.30094 1.33912 0
M  V30 5037 C 486.579 -0.0472026 1.96143 0
M  V30 5038 O 485.704 -0.94917 1.94473 0
M  V30 5039 C 486.299 2.35592 2.43478 0
M  V30 5040 C 484.858 2.31353 2.96905 0
M  V30 5041 C 484.005 2.18919 1.70205 0
M  V30 5042 H 486.956 1.48423 0.561816 0
M  V30 5043 H 486.977 2.00806 3.23199 0
M  V30 5044 H 486.489 3.33701 1.98155 0
M  V30 5045 H 484.59 1.36799 3.46579 0
M  V30 5046 H 484.703 3.25147 3.51875 0
M  V30 5047 H 483.067 1.65624 1.93496 0
M  V30 5048 H 483.85 3.18956 1.26973 0
M  V30 5049 N 486.295 -0.989507 1.22664 0
M  V30 5050 C 487.541 -1.7321 1.05481 0
M  V30 5051 C 487.874 -1.89852 -0.408635 0
M  V30 5052 O 487.149 -1.44416 -1.30285 0
M  V30 5053 C 487.432 -3.1357 1.77047 0
M  V30 5054 C 487.285 -3.04555 3.31008 0
M  V30 5055 C 488.604 -4.12812 1.5256 0
M  V30 5056 H 485.723 -0.628697 0.384589 0
M  V30 5057 H 488.365 -1.15258 1.51049 0
M  V30 5058 H 486.515 -3.63046 1.3831 0
M  V30 5059 H 488.187 -2.62674 3.7921 0
M  V30 5060 H 486.43 -2.41278 3.6051 0
M  V30 5061 H 487.101 -4.03894 3.76263 0
M  V30 5062 H 489.577 -3.72106 1.86215 0
M  V30 5063 H 488.453 -5.09132 2.05124 0
M  V30 5064 H 488.714 -4.39711 0.458936 0
M  V30 5065 N 487.773 -1.03688 -1.18687 0
M  V30 5066 C 488.998 -0.757819 -1.93059 0
M  V30 5067 C 489.423 0.678353 -1.75442 0
M  V30 5068 O 488.781 1.46938 -1.06203 0
M  V30 5069 C 488.829 -1.12423 -3.42627 0
M  V30 5070 O 487.933 -0.247505 -4.11657 0
M  V30 5071 H 487.274 -0.279245 -0.602427 0
M  V30 5072 H 489.804 -1.3857 -1.5053 0
M  V30 5073 H 489.814 -1.08454 -3.93322 0
M  V30 5074 H 488.489 -2.17049 -3.54771 0
M  V30 5075 H 487.066 -0.34649 -3.71287 0
M  V30 5076 N 489.251 1.34841 -0.815825 0
M  V30 5077 C 490.528 1.92908 -0.323416 0
M  V30 5078 C 490.908 1.74479 1.18828 0
M  V30 5079 O 490.256 1.11928 1.99209 0
M  V30 5080 C 490.466 3.40957 -0.744952 0
M  V30 5081 C 491.814 4.18107 -0.739716 0
M  V30 5082 O 492.838 3.49511 -0.68708 0
M  V30 5083 O 491.697 5.40517 -0.806456 0
M  V30 5084 H 488.791 0.822436 -0.0867646 0
M  V30 5085 H 491.337 1.4386 -0.90014 0
M  V30 5086 H 490.109 3.4814 -1.78646 0
M  V30 5087 H 489.732 3.97341 -0.143535 0
M  V30 5088 N 490.729 0.570148 1.46925 0
M  V30 5089 C 491.676 -0.170257 2.30171 0
M  V30 5090 C 492.646 -0.896099 1.39855 0
M  V30 5091 O 493.831 -0.889248 1.68811 0
M  V30 5092 C 490.971 -1.18605 3.24079 0
M  V30 5093 C 490.084 -0.464947 4.29491 0
M  V30 5094 C 489.219 -1.46716 5.10537 0
M  V30 5095 C 488.258 -0.731758 6.0771 0
M  V30 5096 N 487.395 -1.68142 6.81669 0
M  V30 5097 H 492.235 0.545713 2.92961 0
M  V30 5098 H 489.772 0.280938 1.44392 0
M  V30 5099 H 491.73 -1.78771 3.76957 0
M  V30 5100 H 490.36 -1.86989 2.63125 0
M  V30 5101 H 489.412 0.251506 3.79568 0
M  V30 5102 H 490.724 0.110548 4.98677 0
M  V30 5103 H 489.878 -2.14199 5.6763 0
M  V30 5104 H 488.617 -2.07658 4.41282 0
M  V30 5105 H 487.622 -0.0430787 5.49783 0
M  V30 5106 H 488.847 -0.127904 6.7898 0
M  V30 5107 H 486.793 -2.27918 6.15134 0
M  V30 5108 H 486.71 -1.15841 7.47072 0
M  V30 5109 H 487.978 -2.347 7.43328 0
M  V30 5110 N 492.207 -1.54576 0.307264 0
M  V30 5111 C 493.117 -2.27435 -0.57536 0
M  V30 5112 C 494.133 -1.31183 -1.14311 0
M  V30 5113 O 495.309 -1.64175 -1.16656 0
M  V30 5114 C 492.374 -3.00566 -1.72803 0
M  V30 5115 C 491.435 -4.12369 -1.19373 0
M  V30 5116 C 490.668 -4.82003 -2.29147 0
M  V30 5117 O 490.891 -4.51038 -3.49171 0
M  V30 5118 O 489.825 -5.69271 -1.95485 0
M  V30 5119 H 493.651 -3.03696 0.0158558 0
M  V30 5120 H 491.236 -1.49219 0.0735064 0
M  V30 5121 H 493.118 -3.46416 -2.39946 0
M  V30 5122 H 491.793 -2.27195 -2.30574 0
M  V30 5123 H 490.7 -3.70905 -0.487851 0
M  V30 5124 H 492.033 -4.87736 -0.661376 0
M  V30 5125 N 493.685 -0.035106 -1.57561 0
M  V30 5126 C 494.934 0.641604 -1.91223 0
M  V30 5127 C 495.247 1.72944 -0.913761 0
M  V30 5128 O 496.453 2.46321 -1.14185 0
M  V30 5129 C 494.909 1.19249 -3.3957 0
M  V30 5130 C 494.517 0.137616 -4.47789 0
M  V30 5131 C 496.261 1.84537 -3.82291 0
M  V30 5132 C 494.168 0.700478 -5.87237 0
M  V30 5133 H 493.098 0.243417 -0.713627 0
M  V30 5134 H 495.749 -0.101382 -1.8322 0
M  V30 5135 H 494.131 1.98728 -3.42525 0
M  V30 5136 H 495.305 -0.635153 -4.56402 0
M  V30 5137 H 493.62 -0.416855 -4.14308 0
M  V30 5138 H 496.217 2.27616 -4.83834 0
M  V30 5139 H 496.56 2.69054 -3.17672 0
M  V30 5140 H 497.093 1.11739 -3.81784 0
M  V30 5141 H 493.832 -0.106693 -6.55413 0
M  V30 5142 H 493.352 1.4416 -5.82218 0
M  V30 5143 H 495.031 1.18837 -6.35993 0
M  V30 5144 N 495.163 1.55791 0.238111 0
M  V30 5145 C 496.391 1.82098 0.982233 0
M  V30 5146 C 496.806 0.612025 1.78605 0
M  V30 5147 O 496.163 -0.419381 1.77616 0
M  V30 5148 C 496.214 3.0673 1.91309 0
M  V30 5149 O 495.935 4.2296 1.14179 0
M  V30 5150 C 497.436 3.45903 2.77248 0
M  V30 5151 H 494.656 0.605748 0.288635 0
M  V30 5152 H 497.2 2.02862 0.258341 0
M  V30 5153 H 495.355 2.87991 2.59114 0
M  V30 5154 H 495.769 4.93653 1.7722 0
M  V30 5155 H 497.243 4.36189 3.38295 0
M  V30 5156 H 497.72 2.66891 3.48806 0
M  V30 5157 H 498.326 3.67024 2.14881 0
M  V30 5158 N 496.642 -0.504142 1.49319 0
M  V30 5159 C 497.919 -1.26548 1.49147 0
M  V30 5160 C 498.299 -2.09977 0.21744 0
M  V30 5161 O 497.647 -2.14028 -0.800269 0
M  V30 5162 C 497.857 -2.12489 2.76857 0
M  V30 5163 C 499.205 -2.7178 3.26222 0
M  V30 5164 O 500.229 -2.22758 2.77952 0
M  V30 5165 O 499.088 -3.61015 4.10281 0
M  V30 5166 H 496.182 -0.572495 0.596806 0
M  V30 5167 H 498.728 -0.51867 1.61579 0
M  V30 5168 H 497.5 -1.50796 3.61077 0
M  V30 5169 H 497.123 -2.94368 2.6727 0
M  V30 5170 N 498.12 -1.38341 -0.754957 0
M  V30 5171 C 499.05 -1.38176 -1.88227 0
M  V30 5172 C 500.031 -0.247873 -1.68284 0
M  V30 5173 O 501.216 -0.45075 -1.88896 0
M  V30 5174 C 498.346 -1.20471 -3.25736 0
M  V30 5175 C 497.3 -2.3105 -3.60278 0
M  V30 5176 C 496.626 -1.98452 -4.96509 0
M  V30 5177 C 497.926 -3.73305 -3.65295 0
M  V30 5178 H 499.62 -2.32512 -1.88622 0
M  V30 5179 H 497.166 -1.1192 -0.906082 0
M  V30 5180 H 499.119 -1.18982 -4.04254 0
M  V30 5181 H 497.843 -0.225965 -3.25817 0
M  V30 5182 H 496.502 -2.31723 -2.84078 0
M  V30 5183 H 496.15 -0.990641 -4.93148 0
M  V30 5184 H 495.85 -2.7251 -5.20588 0
M  V30 5185 H 497.374 -1.98578 -5.77407 0
M  V30 5186 H 498.788 -3.7467 -4.3393 0
M  V30 5187 H 497.185 -4.46557 -4.00883 0
M  V30 5188 H 498.255 -4.05719 -2.65556 0
M  V30 5189 N 499.598 0.982988 -1.23187 0
M  V30 5190 C 500.844 1.72648 -1.06398 0
M  V30 5191 C 501.177 1.90066 0.398561 0
M  V30 5192 O 500.452 1.45105 1.29518 0
M  V30 5193 C 500.735 3.12627 -1.78707 0
M  V30 5194 C 500.588 3.02795 -3.32618 0
M  V30 5195 C 501.907 4.11997 -1.54747 0
M  V30 5196 H 499.026 0.626649 -0.387918 0
M  V30 5197 H 501.668 1.14455 -1.51658 0
M  V30 5198 H 499.818 3.62308 -1.40234 0
M  V30 5199 H 501.49 2.60659 -3.80598 0
M  V30 5200 H 499.733 2.39362 -3.61785 0
M  V30 5201 H 500.404 4.01893 -3.78399 0
M  V30 5202 H 502.88 3.71114 -1.88186 0
M  V30 5203 H 501.756 5.08037 -2.07821 0
M  V30 5204 H 502.017 4.39462 -0.482249 0
M  V30 5205 N 501.076 1.04316 1.18135 0
M  V30 5206 C 502.023 0.636398 2.21853 0
M  V30 5207 C 502.993 -0.357039 1.62217 0
M  V30 5208 O 504.178 -0.250453 1.89149 0
M  V30 5209 C 501.318 0.00812779 3.45099 0
M  V30 5210 C 500.431 1.04933 4.19062 0
M  V30 5211 C 499.566 0.389313 5.29771 0
M  V30 5212 C 498.605 1.41544 5.9551 0
M  V30 5213 N 497.742 0.78021 6.97751 0
M  V30 5214 H 502.582 1.52536 2.56002 0
M  V30 5215 H 500.119 0.76304 1.25762 0
M  V30 5216 H 502.077 -0.373497 4.15525 0
M  V30 5217 H 500.707 -0.844336 3.11562 0
M  V30 5218 H 499.759 1.54888 3.47439 0
M  V30 5219 H 501.071 1.82862 4.64072 0
M  V30 5220 H 500.225 -0.0463805 6.06682 0
M  V30 5221 H 498.964 -0.422038 4.8587 0
M  V30 5222 H 497.969 1.86124 5.17337 0
M  V30 5223 H 499.194 2.22854 6.41493 0
M  V30 5224 H 497.14 -0.0107899 6.55999 0
M  V30 5225 H 497.057 1.49716 7.41027 0
M  V30 5226 H 498.325 0.368996 7.78626 0
M  V30 5227 N 502.554 -1.34406 0.822964 0
M  V30 5228 C 503.803 -1.97542 0.407458 0
M  V30 5229 C 504.116 -1.65973 -1.035 0
M  V30 5230 O 505.322 -2.22598 -1.55442 0
M  V30 5231 C 503.778 -3.53463 0.677623 0
M  V30 5232 C 503.386 -3.93925 2.1337 0
M  V30 5233 C 505.13 -4.23229 0.328284 0
M  V30 5234 C 503.037 -5.42759 2.34876 0
M  V30 5235 H 501.967 -0.739207 0.148623 0
M  V30 5236 H 504.618 -1.53248 1.00932 0
M  V30 5237 H 503 -3.96 0.00558965 0
M  V30 5238 H 504.174 -3.62494 2.8449 0
M  V30 5239 H 502.489 -3.37097 2.44448 0
M  V30 5240 H 505.086 -5.32659 0.466794 0
M  V30 5241 H 505.429 -4.09899 -0.727224 0
M  V30 5242 H 505.962 -3.86169 0.954896 0
M  V30 5243 H 502.701 -5.61075 3.38932 0
M  V30 5244 H 502.221 -5.75704 1.68299 0
M  V30 5245 H 503.9 -6.0944 2.17236 0
M  V30 5246 N 504.032 -0.577932 -1.46621 0
M  V30 5247 C 505.443 -0.150071 -1.86096 0
M  V30 5248 C 505.794 1.28563 -1.48209 0
M  V30 5249 O 504.919 1.97036 -0.894754 0
M  V30 5250 C 505.514 -0.265576 -3.37758 0
M  V30 5251 C 504.073 0.10738 -3.76247 0
M  V30 5252 C 503.22 -0.603711 -2.70649 0
M  V30 5253 H 506.171 -0.786438 -1.37844 0
M  V30 5254 H 506.192 0.510352 -3.77062 0
M  V30 5255 H 505.704 -1.3106 -3.65301 0
M  V30 5256 H 503.805 1.15272 -3.54321 0
M  V30 5257 H 503.918 -0.26561 -4.78363 0
M  V30 5258 H 502.282 -0.0444884 -2.54661 0
M  V30 5259 H 503.065 -1.65029 -3.01032 0
M  V30 5260 N 505.51 1.54411 -0.315457 0
M  V30 5261 C 506.787 1.92562 0.343398 0
M  V30 5262 C 507.167 1.24423 1.70535 0
M  V30 5263 O 506.515 0.385051 2.25232 0
M  V30 5264 C 506.725 3.46168 0.443687 0
M  V30 5265 C 508.073 4.18659 0.707783 0
M  V30 5266 O 509.097 3.52281 0.52693 0
M  V30 5267 O 507.956 5.36198 1.05612 0
M  V30 5268 H 505.05 0.80379 0.194552 0
M  V30 5269 H 507.596 1.65738 -0.364577 0
M  V30 5270 H 506.368 3.8792 -0.513172 0
M  V30 5271 H 505.991 3.79073 1.19956 0
M  V30 5272 N 506.988 0.0434614 1.5754 0
M  V30 5273 C 508.236 -0.630786 1.92004 0
M  V30 5274 C 508.557 -1.71836 0.921807 0
M  V30 5275 O 507.827 -1.9587 -0.034522 0
M  V30 5276 H 506.407 -0.235988 0.708745 0
M  V30 5277 H 509.069 0.0946462 1.9467 0
M  V30 5278 H 508.165 -1.07434 2.93026 0
M  V30 5279 N 508.466 -1.55915 -0.229846 0
M  V30 5280 C 509.691 -1.8296 -0.976743 0
M  V30 5281 C 510.116 -0.622735 -1.77493 0
M  V30 5282 O 509.474 0.428431 -1.76165 0
M  V30 5283 C 509.522 -3.07916 -1.8767 0
M  V30 5284 O 508.626 -2.86028 -2.97088 0
M  V30 5285 H 507.967 -0.603453 -0.277021 0
M  V30 5286 H 510.497 -2.0312 -0.245669 0
M  V30 5287 H 510.507 -3.37802 -2.2881 0
M  V30 5288 H 509.182 -3.95389 -1.28996 0
M  V30 5289 H 507.759 -2.67355 -2.59954 0
M  V30 5290 N 509.944 0.496216 -1.49584 0
M  V30 5291 C 510.891 1.59722 -1.66606 0
M  V30 5292 C 511.861 1.58158 -0.507477 0
M  V30 5293 O 513.046 1.76072 -0.735076 0
M  V30 5294 C 510.186 2.97844 -1.74308 0
M  V30 5295 C 509.299 3.09388 -3.01502 0
M  V30 5296 C 508.434 4.38271 -3.00153 0
M  V30 5297 C 507.473 4.43466 -4.21906 0
M  V30 5298 N 506.61 5.63784 -4.1844 0
M  V30 5299 H 511.45 1.44515 -2.60613 0
M  V30 5300 H 508.987 0.703048 -1.29212 0
M  V30 5301 H 510.945 3.77907 -1.76754 0
M  V30 5302 H 509.575 3.11743 -0.837619 0
M  V30 5303 H 508.627 2.22357 -3.08645 0
M  V30 5304 H 509.939 3.09085 -3.91494 0
M  V30 5305 H 509.093 5.2666 -3.01188 0
M  V30 5306 H 507.832 4.41146 -2.07947 0
M  V30 5307 H 506.837 3.53478 -4.21109 0
M  V30 5308 H 508.062 4.42303 -5.1531 0
M  V30 5309 H 506.008 5.67491 -3.29074 0
M  V30 5310 H 505.925 5.65118 -5.02173 0
M  V30 5311 H 507.193 6.54367 -4.23585 0
M  V30 5312 N 511.423 1.38739 0.74761 0
M  V30 5313 C 512.671 1.35007 1.50391 0
M  V30 5314 C 512.992 -0.0574274 1.94915 0
M  V30 5315 O 512.262 -1.00628 1.6808 0
M  V30 5316 H 510.842 0.496784 0.557866 0
M  V30 5317 H 513.504 1.73479 0.888319 0
M  V30 5318 H 512.6 2.00474 2.392 0
M  V30 5319 N 512.901 -0.976442 1.23707 0
M  V30 5320 C 514.147 -1.72081 1.07312 0
M  V30 5321 C 514.48 -1.90275 -0.388476 0
M  V30 5322 O 513.755 -1.4579 -1.28746 0
M  V30 5323 C 514.038 -3.11675 1.80363 0
M  V30 5324 C 513.891 -3.01027 3.3422 0
M  V30 5325 C 515.21 -4.1117 1.5693 0
M  V30 5326 H 512.329 -0.624583 0.391236 0
M  V30 5327 H 514.971 -1.13649 1.52263 0
M  V30 5328 H 513.121 -3.61559 1.42153 0
M  V30 5329 H 514.793 -2.58637 3.81975 0
M  V30 5330 H 513.036 -2.3744 3.63049 0
M  V30 5331 H 513.707 -3.9988 3.80525 0
M  V30 5332 H 516.183 -3.7011 1.90151 0
M  V30 5333 H 515.059 -5.06928 2.10513 0
M  V30 5334 H 515.32 -4.392 0.505548 0
M  V30 5335 N 514.379 -1.04941 -1.1758 0
M  V30 5336 C 515.79 -0.784501 -1.69418 0
M  V30 5337 C 516.141 0.693625 -1.8353 0
M  V30 5338 O 515.266 1.53925 -1.52106 0
M  V30 5339 C 515.861 -1.41746 -3.07723 0
M  V30 5340 C 514.42 -1.20066 -3.56737 0
M  V30 5341 C 513.567 -1.5026 -2.33061 0
M  V30 5342 H 516.518 -1.21469 -1.02133 0
M  V30 5343 H 516.539 -0.825381 -3.7144 0
M  V30 5344 H 516.051 -2.49325 -2.9742 0
M  V30 5345 H 514.152 -0.144006 -3.72322 0
M  V30 5346 H 514.265 -1.90384 -4.39648 0
M  V30 5347 H 512.629 -0.922598 -2.37403 0
M  V30 5348 H 513.412 -2.58967 -2.25368 0
M  V30 5349 N 515.857 1.33968 -0.830081 0
M  V30 5350 C 517.085 2.0228 -0.434773 0
M  V30 5351 C 517.5 1.62487 0.961419 0
M  V30 5352 O 516.857 0.833849 1.62337 0
M  V30 5353 C 516.908 3.5751 -0.535625 0
M  V30 5354 O 516.629 3.95864 -1.87679 0
M  V30 5355 C 518.13 4.43091 -0.136137 0
M  V30 5356 H 515.35 0.648151 -0.173613 0
M  V30 5357 H 517.894 1.71089 -1.12022 0
M  V30 5358 H 516.049 3.87266 0.101817 0
M  V30 5359 H 516.463 4.9056 -1.85609 0
M  V30 5360 H 517.937 5.51398 -0.257772 0
M  V30 5361 H 518.414 4.29433 0.921076 0
M  V30 5362 H 519.02 4.18677 -0.747662 0
M  V30 5363 N 517.335 0.585699 1.46312 0
M  V30 5364 C 518.581 0.0725284 2.0267 0
M  V30 5365 C 518.914 -1.28523 1.45586 0
M  V30 5366 O 518.189 -1.84283 0.622101 0
M  V30 5367 C 518.472 0.0099788 3.60099 0
M  V30 5368 C 518.325 1.39685 4.27561 0
M  V30 5369 C 519.644 -0.689117 4.34671 0
M  V30 5370 H 516.763 0.0278307 0.736474 0
M  V30 5371 H 519.405 0.753472 1.74421 0
M  V30 5372 H 517.555 -0.56992 3.84297 0
M  V30 5373 H 519.227 2.02215 4.14617 0
M  V30 5374 H 517.47 1.96374 3.86807 0
M  V30 5375 H 518.141 1.30553 5.36339 0
M  V30 5376 H 520.617 -0.196446 4.15636 0
M  V30 5377 H 519.493 -0.701921 5.44393 0
M  V30 5378 H 519.754 -1.75101 4.05946 0
M  V30 5379 N 518.813 -1.54241 0.323641 0
M  V30 5380 C 520.059 -2.00867 -0.279323 0
M  V30 5381 C 520.392 -1.21146 -1.5178 0
M  V30 5382 O 519.667 -0.29378 -1.92269 0
M  V30 5383 C 519.95 -3.54837 -0.613387 0
M  V30 5384 C 519.803 -4.45284 0.635803 0
M  V30 5385 C 521.122 -4.16186 -1.43099 0
M  V30 5386 H 518.241 -0.730177 -0.100049 0
M  V30 5387 H 520.883 -1.84829 0.440235 0
M  V30 5388 H 519.033 -3.68634 -1.22641 0
M  V30 5389 H 520.705 -4.43357 1.27406 0
M  V30 5390 H 518.948 -4.14956 1.26466 0
M  V30 5391 H 519.619 -5.5084 0.357597 0
M  V30 5392 H 522.095 -4.05964 -0.912814 0
M  V30 5393 H 520.971 -5.24031 -1.6335 0
M  V30 5394 H 521.232 -3.69516 -2.42715 0
M  V30 5395 N 520.291 -0.0518155 -1.57515 0
M  V30 5396 C 521.539 0.620595 -1.92336 0
M  V30 5397 C 521.86 1.71345 -0.930907 0
M  V30 5398 O 521.13 1.95885 0.0241341 0
M  V30 5399 H 519.71 0.232226 -0.709986 0
M  V30 5400 H 522.372 -0.104969 -1.94617 0
M  V30 5401 H 521.468 1.05879 -2.93592 0
M  V30 5402 N 521.769 1.56035 0.221574 0
M  V30 5403 C 523.046 1.69837 0.970301 0
M  V30 5404 C 523.426 0.599065 2.02421 0
M  V30 5405 O 522.774 -0.393929 2.25079 0
M  V30 5406 C 522.984 3.11148 1.58076 0
M  V30 5407 C 524.332 3.70555 2.07302 0
M  V30 5408 O 525.356 3.14109 1.6797 0
M  V30 5409 O 524.215 4.69562 2.79596 0
M  V30 5410 H 521.309 0.691727 0.453257 0
M  V30 5411 H 523.855 1.68353 0.213358 0
M  V30 5412 H 522.627 3.82617 0.819759 0
M  V30 5413 H 522.25 3.16749 2.40324 0
M  V30 5414 N 523.247 -0.488276 1.49845 0
M  V30 5415 C 524.663 -0.820566 1.3689 0
M  V30 5416 C 524.863 -1.97248 0.411752 0
M  V30 5417 O 523.919 -2.52042 -0.151931 0
M  V30 5418 C 525.232 -1.1488 2.77891 0
M  V30 5419 C 526.78 -1.25626 2.86683 0
M  V30 5420 C 527.255 -1.61772 4.28479 0
M  V30 5421 N 528.746 -1.68797 4.31349 0
M  V30 5422 C 529.481 -1.98235 5.38043 0
M  V30 5423 N 528.977 -2.2581 6.54967 0
M  V30 5424 N 530.77 -1.99593 5.2547 0
M  V30 5425 H 522.921 0.271123 2.10662 0
M  V30 5426 H 525.184 0.058735 0.946179 0
M  V30 5427 H 524.89 -0.375614 3.49688 0
M  V30 5428 H 524.764 -2.08919 3.14058 0
M  V30 5429 H 527.151 -2.02014 2.15114 0
M  V30 5430 H 527.232 -0.296072 2.54081 0
M  V30 5431 H 526.876 -0.859295 5.00578 0
M  V30 5432 H 526.806 -2.58912 4.58554 0
M  V30 5433 H 529.297 -1.49595 3.4703 0
M  V30 5434 H 529.61 -2.47497 7.32096 0
M  V30 5435 H 527.955 -2.23239 6.58171 0
M  V30 5436 H 531.146 -1.77535 4.33127 0
M  V30 5437 H 531.319 -2.222 6.08713 0
M  V30 5438 N 524.725 -1.39134 -0.740242 0
M  V30 5439 C 526.136 -1.32208 -1.31825 0
M  V30 5440 C 526.487 0.0159919 -1.96193 0
M  V30 5441 O 525.612 0.918111 -1.95958 0
M  V30 5442 C 526.207 -2.39436 -2.39699 0
M  V30 5443 C 524.766 -2.36048 -2.93187 0
M  V30 5444 C 523.913 -2.21599 -1.66701 0
M  V30 5445 H 526.864 -1.49298 -0.538133 0
M  V30 5446 H 526.885 -2.05922 -3.19963 0
M  V30 5447 H 526.397 -3.36811 -1.92821 0
M  V30 5448 H 524.498 -1.42295 -3.44359 0
M  V30 5449 H 524.611 -3.30704 -3.46658 0
M  V30 5450 H 522.975 -1.68681 -1.90837 0
M  V30 5451 H 523.758 -3.20936 -1.21882 0
M  V30 5452 N 526.204 0.969867 -1.24223 0
M  V30 5453 C 527.481 1.68774 -0.988664 0
M  V30 5454 C 527.861 2.05342 0.489673 0
M  V30 5455 O 527.209 1.75486 1.46345 0
M  V30 5456 C 527.419 2.92135 -1.90941 0
M  V30 5457 C 528.767 3.64422 -2.17903 0
M  V30 5458 O 529.791 3.02188 -1.88576 0
M  V30 5459 O 528.65 4.76446 -2.67697 0
M  V30 5460 H 525.744 0.737736 -0.37373 0
M  V30 5461 H 528.29 1.02415 -1.35312 0
M  V30 5462 H 527.062 2.61788 -2.90831 0
M  V30 5463 H 526.685 3.66228 -1.54798 0
M  V30 5464 N 527.682 1.05563 1.17022 0
M  V30 5465 C 528.91 0.78845 1.91288 0
M  V30 5466 C 529.325 -0.656318 1.77025 0
M  V30 5467 O 528.682 -1.44869 1.10992 0
M  V30 5468 C 528.733 1.16444 3.42232 0
M  V30 5469 O 528.454 2.5525 3.5606 0
M  V30 5470 C 529.955 0.923937 4.33565 0
M  V30 5471 H 527.175 0.286389 0.606813 0
M  V30 5472 H 529.719 1.4073 1.48375 0
M  V30 5473 H 527.874 0.590266 3.82877 0
M  V30 5474 H 528.288 2.70097 4.49609 0
M  V30 5475 H 529.762 1.23672 5.37968 0
M  V30 5476 H 530.239 -0.140688 4.38975 0
M  V30 5477 H 530.845 1.48214 3.98639 0
M  V30 5478 N 529.16 -1.33526 0.837174 0
M  V30 5479 C 530.108 -2.31168 0.257698 0
M  V30 5480 C 531.102 -1.5806 -0.609388 0
M  V30 5481 O 532.308 -1.72941 -0.499139 0
M  V30 5482 H 528.683 -0.74922 0.0646058 0
M  V30 5483 H 530.654 -2.77552 1.09578 0
M  V30 5484 C 529.403 -3.4326 -0.553887 0
M  V30 5485 H 528.726 -3.99665 0.104008 0
M  V30 5486 H 530.166 -4.13782 -0.925219 0
M  V30 5487 C 528.625 -2.88965 -1.73207 0
M  V30 5488 O 529.155 -2.85013 -2.83073 0
M  V30 5489 N 527.361 -2.45596 -1.55342 0
M  V30 5490 H 526.908 -2.49009 -0.659705 0
M  V30 5491 H 526.866 -2.0962 -2.34322 0
M  V30 5492 N 530.638 -0.59345 -1.46 0
M  V30 5493 C 531.884 -0.0832754 -2.02629 0
M  V30 5494 C 532.217 1.27749 -1.46266 0
M  V30 5495 O 531.492 1.8395 -0.631866 0
M  V30 5496 C 531.775 -0.0290756 -3.60088 0
M  V30 5497 C 531.628 -1.41951 -4.26814 0
M  V30 5498 C 532.947 0.666055 -4.35031 0
M  V30 5499 H 530.066 -0.031736 -0.736316 0
M  V30 5500 H 532.708 -0.762711 -1.74019 0
M  V30 5501 H 530.858 0.549532 -3.84594 0
M  V30 5502 H 532.53 -2.04411 -4.13538 0
M  V30 5503 H 530.773 -1.98422 -3.8576 0
M  V30 5504 H 531.444 -1.33395 -5.3564 0
M  V30 5505 H 533.92 0.174401 -4.15734 0
M  V30 5506 H 532.796 0.673041 -5.44758 0
M  V30 5507 H 533.057 1.72946 -4.06869 0
M  V30 5508 N 532.116 1.54067 -0.331816 0
M  V30 5509 C 533.527 1.86059 0.15454 0
M  V30 5510 C 533.878 1.25331 1.50952 0
M  V30 5511 O 533.003 0.562441 2.08963 0
M  V30 5512 C 533.598 3.37581 0.287192 0
M  V30 5513 C 532.157 3.69493 0.717773 0
M  V30 5514 C 531.304 2.76863 -0.155569 0
M  V30 5515 H 534.255 1.48797 -0.55182 0
M  V30 5516 H 534.276 3.63744 1.11671 0
M  V30 5517 H 533.788 3.81751 -0.699131 0
M  V30 5518 H 531.889 3.3086 1.71354 0
M  V30 5519 H 532.002 4.76315 0.5158 0
M  V30 5520 H 530.366 2.51995 0.370213 0
M  V30 5521 H 531.149 3.23861 -1.13881 0
M  V30 5522 N 533.594 0.0601682 1.57485 0
M  V30 5523 C 534.842 -0.610386 1.92662 0
M  V30 5524 C 535.163 -1.70849 0.939981 0
M  V30 5525 O 534.433 -1.95895 -0.0137455 0
M  V30 5526 H 533.013 -0.228457 0.711208 0
M  V30 5527 H 535.675 0.115288 1.94559 0
M  V30 5528 H 534.771 -1.0432 2.94149 0
M  V30 5529 N 535.072 -1.5615 -0.213296 0
M  V30 5530 C 536.349 -1.70349 -0.961281 0
M  V30 5531 C 536.729 -0.609791 -2.02101 0
M  V30 5532 O 536.077 0.381987 -2.25285 0
M  V30 5533 C 536.287 -3.11982 -1.56424 0
M  V30 5534 C 537.635 -3.71649 -2.05334 0
M  V30 5535 O 538.659 -3.14995 -1.66302 0
M  V30 5536 O 537.518 -4.71038 -2.77102 0
M  V30 5537 H 534.612 -0.694121 -0.449582 0
M  V30 5538 H 537.158 -1.68464 -0.204426 0
M  V30 5539 H 535.93 -3.83046 -0.799457 0
M  V30 5540 H 535.553 -3.18019 -2.38641 0
M  V30 5541 N 536.55 0.480323 -1.50102 0
M  V30 5542 C 537.5 1.57685 -1.6468 0
M  V30 5543 C 538.484 1.52878 -0.5017 0
M  V30 5544 O 539.676 1.60058 -0.755668 0
M  V30 5545 C 536.805 2.96185 -1.73578 0
M  V30 5546 C 535.891 3.0591 -2.93734 0
M  V30 5547 N 536.282 2.85471 -4.1754 0
M  V30 5548 C 534.58 3.37036 -2.92101 0
M  V30 5549 C 535.281 2.99921 -4.9842 0
M  V30 5550 N 534.257 3.29715 -4.32191 0
M  V30 5551 H 538.059 1.40568 -2.58104 0
M  V30 5552 H 535.573 0.686874 -1.47159 0
M  V30 5553 H 537.57 3.75015 -1.82124 0
M  V30 5554 H 536.23 3.14356 -0.813057 0
M  V30 5555 H 537.241 2.61235 -4.47188 0
M  V30 5556 H 533.918 3.61253 -2.09291 0
M  V30 5557 H 535.308 2.88436 -6.06839 0
M  V30 5558 N 538.028 1.39524 0.732853 0
M  V30 5559 C 538.975 1.38416 1.84688 0
M  V30 5560 C 539.945 0.243539 1.64305 0
M  V30 5561 O 541.13 0.438979 1.85681 0
M  V30 5562 C 538.27 1.23555 3.22224 0
M  V30 5563 C 537.383 2.47179 3.54298 0
M  V30 5564 C 536.518 2.2489 4.81246 0
M  V30 5565 C 535.557 3.44178 5.0617 0
M  V30 5566 N 534.694 3.21192 6.24323 0
M  V30 5567 H 539.534 2.33645 1.84971 0
M  V30 5568 H 537.071 1.16059 0.903804 0
M  V30 5569 H 539.029 1.12949 4.0162 0
M  V30 5570 H 537.659 0.31954 3.21215 0
M  V30 5571 H 536.711 2.68379 2.69587 0
M  V30 5572 H 538.023 3.36022 3.68633 0
M  V30 5573 H 537.177 2.11538 5.68627 0
M  V30 5574 H 535.916 1.33443 4.69089 0
M  V30 5575 H 534.921 3.58025 4.17251 0
M  V30 5576 H 536.146 4.36528 5.20212 0
M  V30 5577 H 534.092 2.32413 6.1345 0
M  V30 5578 H 534.009 4.03594 6.39256 0
M  V30 5579 H 535.277 3.1154 7.14537 0
M  V30 5580 N 539.506 -0.963266 1.24736 0
M  V30 5581 C 540.752 -1.70933 1.09131 0
M  V30 5582 C 541.085 -1.90676 -0.368273 0
M  V30 5583 O 540.36 -1.47147 -1.27193 0
M  V30 5584 C 540.643 -3.09744 1.83658 0
M  V30 5585 C 540.496 -2.97465 3.37394 0
M  V30 5586 C 541.815 -4.09483 1.61282 0
M  V30 5587 H 538.934 -0.620398 0.397838 0
M  V30 5588 H 541.576 -1.12028 1.53459 0
M  V30 5589 H 539.726 -3.60031 1.4598 0
M  V30 5590 H 541.398 -2.54571 3.84696 0
M  V30 5591 H 539.641 -2.33576 3.65547 0
M  V30 5592 H 540.312 -3.95822 3.84745 0
M  V30 5593 H 542.788 -3.68073 1.94066 0
M  V30 5594 H 541.664 -5.04666 2.15878 0
M  V30 5595 H 541.925 -4.38639 0.552102 0
M  V30 5596 N 540.985 -1.06182 -1.16461 0
M  V30 5597 C 542.213 -0.798583 -1.90867 0
M  V30 5598 C 542.628 0.646921 -1.77371 0
M  V30 5599 O 541.985 1.44279 -1.11758 0
M  V30 5600 C 542.036 -1.18258 -3.4161 0
M  V30 5601 O 541.757 -2.57135 -3.54701 0
M  V30 5602 C 543.258 -0.946917 -4.33069 0
M  V30 5603 H 540.478 -0.289603 -0.605286 0
M  V30 5604 H 543.022 -1.41515 -1.47627 0
M  V30 5605 H 541.177 -0.610562 -3.82558 0
M  V30 5606 H 541.591 -2.72477 -4.4817 0
M  V30 5607 H 543.065 -1.26523 -5.37304 0
M  V30 5608 H 543.542 0.117406 -4.39043 0
M  V30 5609 H 544.148 -1.50326 -3.97847 0
M  V30 5610 N 542.463 1.3308 -0.844243 0
M  V30 5611 C 543.709 1.97898 -0.443206 0
M  V30 5612 C 544.042 1.66699 0.99625 0
M  V30 5613 O 543.317 0.949704 1.69738 0
M  V30 5614 C 543.6 3.53801 -0.670606 0
M  V30 5615 C 543.453 3.94667 -2.15772 0
M  V30 5616 C 544.772 4.39936 -0.120226 0
M  V30 5617 H 541.891 0.718861 -0.162504 0
M  V30 5618 H 544.533 1.57633 -1.06075 0
M  V30 5619 H 542.683 3.88229 -0.14496 0
M  V30 5620 H 544.355 3.70469 -2.74865 0
M  V30 5621 H 542.598 3.44203 -2.6402 0
M  V30 5622 H 543.269 5.03275 -2.26757 0
M  V30 5623 H 545.745 4.12183 -0.5696 0
M  V30 5624 H 544.621 5.4803 -0.308984 0
M  V30 5625 H 544.882 4.31184 0.976347 0
M  V30 5626 N 543.941 0.601185 1.45683 0
M  V30 5627 C 544.851 -0.123395 2.34275 0
M  V30 5628 C 545.867 -0.86702 1.5086 0
M  V30 5629 O 547.043 -0.826049 1.8368 0
M  V30 5630 C 544.108 -1.11237 3.2837 0
M  V30 5631 C 543.169 -0.371405 4.2769 0
M  V30 5632 C 542.402 -1.31327 5.1729 0
M  V30 5633 O 542.625 -2.55078 5.10188 0
M  V30 5634 O 541.559 -0.813811 5.96373 0
M  V30 5635 H 545.385 0.604483 2.97623 0
M  V30 5636 H 542.97 0.361477 1.44961 0
M  V30 5637 H 544.852 -1.68214 3.8637 0
M  V30 5638 H 543.527 -1.82139 2.67595 0
M  V30 5639 H 542.434 0.24067 3.73325 0
M  V30 5640 H 543.767 0.296998 4.91303 0
M  V30 5641 N 545.419 -1.53889 0.339982 0
M  V30 5642 C 546.665 -2.01152 -0.258003 0
M  V30 5643 C 546.998 -1.22749 -1.50487 0
M  V30 5644 O 546.273 -0.314156 -1.91946 0
M  V30 5645 C 546.556 -3.55468 -0.575717 0
M  V30 5646 C 546.409 -4.44584 0.682996 0
M  V30 5647 C 547.728 -4.1768 -1.38677 0
M  V30 5648 H 544.847 -0.731198 -0.0922992 0
M  V30 5649 H 547.489 -1.84352 0.459814 0
M  V30 5650 H 545.639 -3.69914 -1.18725 0
M  V30 5651 H 547.311 -4.41981 1.32102 0
M  V30 5652 H 545.554 -4.13592 1.3086 0
M  V30 5653 H 546.225 -5.5043 0.416001 0
M  V30 5654 H 548.701 -4.0691 -0.869705 0
M  V30 5655 H 547.577 -5.25734 -1.57783 0
M  V30 5656 H 547.838 -3.72069 -2.38782 0
M  V30 5657 N 546.897 -0.0685191 -1.57451 0
M  V30 5658 C 548.125 0.610462 -1.97689 0
M  V30 5659 C 548.54 1.63346 -0.946758 0
M  V30 5660 O 547.897 1.82377 0.0669868 0
M  V30 5661 C 547.948 1.28196 -3.38006 0
M  V30 5662 O 547.669 0.299906 -4.37072 0
M  V30 5663 C 549.17 2.04907 -3.931 0
M  V30 5664 H 546.39 0.165689 -0.650222 0
M  V30 5665 H 548.934 -0.139953 -2.04021 0
M  V30 5666 H 547.089 1.98348 -3.32771 0
M  V30 5667 H 547.503 0.78126 -5.18649 0
M  V30 5668 H 548.977 2.47287 -4.93511 0
M  V30 5669 H 549.454 2.9043 -3.29465 0
M  V30 5670 H 550.06 1.39629 -4.01726 0
M  V30 5671 N 548.375 1.56261 0.205012 0
M  V30 5672 C 549.605 1.83874 0.942018 0
M  V30 5673 C 550.013 0.647595 1.77772 0
M  V30 5674 O 549.356 -0.393098 1.79445 0
M  V30 5675 C 549.418 3.05453 1.89575 0
M  V30 5676 C 549.082 4.39772 1.24296 0
M  V30 5677 C 550.079 5.16133 0.624724 0
M  V30 5678 C 547.764 4.86504 1.24978 0
M  V30 5679 C 549.758 6.37396 0.0220117 0
M  V30 5680 C 547.445 6.07705 0.643232 0
M  V30 5681 C 548.443 6.82993 0.0304164 0
M  V30 5682 O 548.131 8.019 -0.566654 0
M  V30 5683 H 547.863 0.614896 0.280854 0
M  V30 5684 H 550.417 2.04215 0.220285 0
M  V30 5685 H 548.647 2.80972 2.65691 0
M  V30 5686 H 550.336 3.19797 2.4997 0
M  V30 5687 H 551.102 4.81127 0.611666 0
M  V30 5688 H 546.981 4.27865 1.71616 0
M  V30 5689 H 550.525 6.96102 -0.456926 0
M  V30 5690 H 546.422 6.42181 0.653759 0
M  V30 5691 H 547.19 8.17192 -0.462588 0
M  V30 5692 N 549.853 -0.472356 1.50355 0
M  V30 5693 C 551.264 -1.05326 1.54154 0
M  V30 5694 C 551.615 -1.93155 0.344303 0
M  V30 5695 O 550.74 -2.09479 -0.542928 0
M  V30 5696 C 551.335 -1.91691 2.79356 0
M  V30 5697 C 549.894 -2.44892 2.8584 0
M  V30 5698 C 549.041 -1.23205 2.48426 0
M  V30 5699 H 551.992 -0.255027 1.56637 0
M  V30 5700 H 552.013 -2.76742 2.6114 0
M  V30 5701 H 551.525 -1.27741 3.66475 0
M  V30 5702 H 549.626 -3.12399 2.0307 0
M  V30 5703 H 549.739 -2.80086 3.88701 0
M  V30 5704 H 548.103 -1.56643 2.00836 0
M  V30 5705 H 548.886 -0.609194 3.37852 0
M  V30 5706 N 551.331 -1.39911 -0.725443 0
M  V30 5707 C 552.608 -1.28158 -1.47766 0
M  V30 5708 C 552.988 0.104545 -2.10841 0
M  V30 5709 O 552.336 1.11657 -1.99361 0
M  V30 5710 C 552.546 -2.41306 -2.52135 0
M  V30 5711 C 553.894 -2.81076 -3.18247 0
M  V30 5712 O 554.918 -2.40827 -2.62452 0
M  V30 5713 O 553.777 -3.50581 -4.19231 0
M  V30 5714 H 550.871 -0.502761 -0.656628 0
M  V30 5715 H 553.417 -1.51808 -0.758456 0
M  V30 5716 H 552.189 -3.33932 -2.03974 0
M  V30 5717 H 551.812 -2.19374 -3.31603 0
M  V30 5718 N 552.809 0.956637 -1.25245 0
M  V30 5719 C 554.057 1.69764 -1.09657 0
M  V30 5720 C 554.378 1.91583 0.363464 0
M  V30 5721 O 553.648 1.50149 1.25825 0
M  V30 5722 H 552.228 0.629097 -0.402798 0
M  V30 5723 H 554.89 1.15026 -1.57337 0
M  V30 5724 H 553.986 2.67769 -1.60331 0
M  V30 5725 N 554.287 1.06798 1.15896 0
M  V30 5726 C 555.515 0.808694 1.90441 0
M  V30 5727 C 555.93 -0.637506 1.77711 0
M  V30 5728 O 555.287 -1.43684 1.12522 0
M  V30 5729 C 555.338 1.20068 3.40978 0
M  V30 5730 O 555.059 2.59013 3.53333 0
M  V30 5731 C 556.56 0.96987 4.3256 0
M  V30 5732 H 553.78 0.292809 0.603742 0
M  V30 5733 H 556.324 1.42296 1.46874 0
M  V30 5734 H 554.479 0.630842 3.82229 0
M  V30 5735 H 554.893 2.7485 4.46719 0
M  V30 5736 H 556.367 1.29371 5.36626 0
M  V30 5737 H 556.844 -0.0941209 4.39099 0
M  V30 5738 H 557.45 1.52433 3.97044 0
M  V30 5739 N 555.766 -1.3263 0.851289 0
M  V30 5740 C 556.713 -2.28952 0.291469 0
M  V30 5741 C 557.683 -1.54897 -0.599676 0
M  V30 5742 O 558.868 -1.83137 -0.535305 0
M  V30 5743 C 556.008 -3.41206 -0.516992 0
M  V30 5744 C 555.121 -4.30148 0.399566 0
M  V30 5745 C 554.256 -5.29527 -0.4212 0
M  V30 5746 C 553.295 -6.10112 0.492969 0
M  V30 5747 N 552.432 -7.01499 -0.290414 0
M  V30 5748 H 557.272 -2.76228 1.11813 0
M  V30 5749 H 554.809 -1.35907 0.562826 0
M  V30 5750 H 556.767 -4.05005 -1.00132 0
M  V30 5751 H 555.397 -2.9509 -1.30851 0
M  V30 5752 H 554.449 -3.66959 1.00227 0
M  V30 5753 H 555.761 -4.8649 1.1013 0
M  V30 5754 H 554.915 -5.98914 -0.968832 0
M  V30 5755 H 553.654 -4.73794 -1.15632 0
M  V30 5756 H 552.659 -5.39632 1.05251 0
M  V30 5757 H 553.884 -6.6793 1.22664 0
M  V30 5758 H 551.83 -6.48199 -1.00868 0
M  V30 5759 H 551.747 -7.55178 0.352354 0
M  V30 5760 H 553.015 -7.75176 -0.819882 0
M  V30 5761 N 557.244 -0.608902 -1.45362 0
M  V30 5762 C 558.521 -0.0365378 -1.95566 0
M  V30 5763 C 558.901 1.43169 -1.55131 0
M  V30 5764 O 558.249 2.1349 -0.814513 0
M  V30 5765 C 558.459 -0.236026 -3.48201 0
M  V30 5766 C 559.807 -0.117518 -4.24437 0
M  V30 5767 O 560.831 -0.166217 -3.55812 0
M  V30 5768 O 559.69 -0.00372127 -5.465 0
M  V30 5769 H 556.784 0.0349874 -0.82626 0
M  V30 5770 H 559.33 -0.679055 -1.55521 0
M  V30 5771 H 558.102 -1.25569 -3.70605 0
M  V30 5772 H 557.725 0.441691 -3.95139 0
M  V30 5773 N 558.722 1.53707 -0.348139 0
M  V30 5774 C 559.95 2.05406 0.248224 0
M  V30 5775 C 560.365 1.22282 1.43849 0
M  V30 5776 O 559.722 0.259244 1.80649 0
M  V30 5777 C 559.773 3.55446 0.658793 0
M  V30 5778 O 559.494 4.35417 -0.484149 0
M  V30 5779 C 560.995 4.23335 1.31539 0
M  V30 5780 H 558.215 0.669344 0.0471075 0
M  V30 5781 H 560.759 1.98257 -0.501456 0
M  V30 5782 H 558.914 3.62803 1.35841 0
M  V30 5783 H 559.328 5.24268 -0.155949 0
M  V30 5784 H 560.802 5.29692 1.55338 0
M  V30 5785 H 561.279 3.75967 2.27036 0
M  V30 5786 H 561.885 4.20184 0.657683 0
M  V30 5787 N 560.2 0.0768682 1.57412 0
M  V30 5788 C 561.446 -0.591961 1.93968 0
M  V30 5789 C 561.779 -1.68954 0.9575 0
M  V30 5790 O 561.054 -1.94496 -0.0124675 0
M  V30 5791 C 561.337 -1.16418 3.40762 0
M  V30 5792 C 561.19 -0.0728933 4.49741 0
M  V30 5793 C 562.509 -2.06814 3.88479 0
M  V30 5794 H 559.628 -0.213716 0.705333 0
M  V30 5795 H 562.27 0.14387 1.89455 0
M  V30 5796 H 560.42 -1.79128 3.4474 0
M  V30 5797 H 562.092 0.560446 4.57883 0
M  V30 5798 H 560.335 0.595859 4.29688 0
M  V30 5799 H 561.006 -0.513755 5.49604 0
M  V30 5800 H 563.482 -1.54033 3.8654 0
M  V30 5801 H 562.358 -2.43785 4.91793 0
M  V30 5802 H 562.619 -2.97844 3.26713 0
M  V30 5803 N 561.678 -1.56367 -0.196722 0
M  V30 5804 C 562.588 -1.97617 -1.2643 0
M  V30 5805 C 563.604 -0.883598 -1.49895 0
M  V30 5806 O 564.78 -1.18921 -1.62541 0
M  V30 5807 C 561.845 -2.30595 -2.58895 0
M  V30 5808 C 560.906 -3.53551 -2.43516 0
M  V30 5809 C 560.139 -3.84946 -3.69665 0
M  V30 5810 O 560.362 -3.17655 -4.73763 0
M  V30 5811 O 559.296 -4.78379 -3.65291 0
M  V30 5812 H 563.122 -2.88648 -0.944233 0
M  V30 5813 H 560.707 -1.43901 -0.401592 0
M  V30 5814 H 562.589 -2.52889 -3.37083 0
M  V30 5815 H 561.264 -1.42732 -2.90533 0
M  V30 5816 H 560.171 -3.36507 -1.63445 0
M  V30 5817 H 561.504 -4.41875 -2.16812 0
M  V30 5818 N 563.156 0.464375 -1.50603 0
M  V30 5819 C 564.402 1.21776 -1.62168 0
M  V30 5820 C 564.735 1.91476 -0.324154 0
M  V30 5821 O 564.01 1.8242 0.674782 0
M  V30 5822 C 564.293 2.25614 -2.80661 0
M  V30 5823 C 564.146 1.60175 -4.20314 0
M  V30 5824 C 565.465 3.26862 -2.94702 0
M  V30 5825 H 562.584 0.44137 -0.590222 0
M  V30 5826 H 565.226 0.510623 -1.8301 0
M  V30 5827 H 563.376 2.85923 -2.63021 0
M  V30 5828 H 565.048 1.03411 -4.4956 0
M  V30 5829 H 563.291 0.904697 -4.24261 0
M  V30 5830 H 563.962 2.35665 -4.99165 0
M  V30 5831 H 566.438 2.76582 -3.10872 0
M  V30 5832 H 565.314 3.96839 -3.79223 0
M  V30 5833 H 565.575 3.91382 -2.05603 0
M  V30 5834 N 564.634 1.40294 0.718013 0
M  V30 5835 C 565.862 1.4175 1.50714 0
M  V30 5836 C 566.277 0.0165366 1.88793 0
M  V30 5837 O 565.634 -0.958942 1.55276 0
M  V30 5838 C 565.685 2.30598 2.784 0
M  V30 5839 O 565.406 3.6524 2.41932 0
M  V30 5840 C 566.907 2.4062 3.72313 0
M  V30 5841 H 564.127 0.483565 0.465194 0
M  V30 5842 H 566.671 1.84316 0.885889 0
M  V30 5843 H 564.826 1.91401 3.36815 0
M  V30 5844 H 565.24 4.12402 3.24076 0
M  V30 5845 H 566.714 3.07001 4.58753 0
M  V30 5846 H 567.191 1.4305 4.15251 0
M  V30 5847 H 567.797 2.80359 3.19811 0
M  V30 5848 N 566.112 -0.949982 1.2575 0
M  V30 5849 C 567.358 -1.69766 1.10938 0
M  V30 5850 C 567.691 -1.91056 -0.348028 0
M  V30 5851 O 566.966 -1.48488 -1.25625 0
M  V30 5852 C 567.249 -3.07779 1.86933 0
M  V30 5853 C 567.102 -2.9387 3.4053 0
M  V30 5854 C 568.421 -4.07749 1.65616 0
M  V30 5855 H 565.54 -0.616144 0.404396 0
M  V30 5856 H 568.182 -1.10394 1.54639 0
M  V30 5857 H 566.332 -3.58462 1.4979 0
M  V30 5858 H 568.004 -2.50476 3.87375 0
M  V30 5859 H 566.247 -2.29686 3.68004 0
M  V30 5860 H 566.918 -3.91719 3.88922 0
M  V30 5861 H 569.394 -3.65994 1.97959 0
M  V30 5862 H 568.27 -5.02348 2.21218 0
M  V30 5863 H 568.531 -4.38029 0.598595 0
M  V30 5864 N 567.59 -1.07411 -1.15328 0
M  V30 5865 C 568.54 -0.664788 -2.18093 0
M  V30 5866 C 569.524 0.310395 -1.57878 0
M  V30 5867 O 570.716 0.124026 -1.76565 0
M  V30 5868 C 567.845 -0.0647822 -3.43239 0
M  V30 5869 C 566.931 -1.06514 -4.10506 0
M  V30 5870 N 567.322 -2.24491 -4.53252 0
M  V30 5871 C 565.62 -0.898613 -4.36853 0
M  V30 5872 C 566.321 -2.8796 -5.05424 0
M  V30 5873 N 565.297 -2.15622 -4.99007 0
M  V30 5874 H 569.099 -1.56333 -2.48872 0
M  V30 5875 H 566.613 -0.947393 -1.31902 0
M  V30 5876 H 568.61 0.246363 -4.16171 0
M  V30 5877 H 567.27 0.828866 -3.13943 0
M  V30 5878 H 568.281 -2.62205 -4.46619 0
M  V30 5879 H 564.958 -0.0579118 -4.1746 0
M  V30 5880 H 566.348 -3.88137 -5.48452 0
M  V30 5881 N 569.068 1.32177 -0.85831 0
M  V30 5882 C 570.314 1.97417 -0.46417 0
M  V30 5883 C 570.647 1.67746 0.978514 0
M  V30 5884 O 569.922 0.967654 1.68721 0
M  V30 5885 C 570.205 3.53069 -0.708094 0
M  V30 5886 C 570.058 3.92357 -2.19946 0
M  V30 5887 C 571.377 4.39783 -0.166881 0
M  V30 5888 H 568.496 0.717097 -0.17012 0
M  V30 5889 H 571.138 1.56499 -1.07741 0
M  V30 5890 H 569.288 3.88054 -0.186128 0
M  V30 5891 H 570.96 3.67533 -2.78779 0
M  V30 5892 H 569.203 3.41384 -2.67656 0
M  V30 5893 H 569.874 5.00841 -2.32082 0
M  V30 5894 H 572.35 4.11556 -0.613285 0
M  V30 5895 H 571.226 5.47671 -0.367093 0
M  V30 5896 H 571.487 4.32196 0.930559 0
M  V30 5897 N 570.547 0.616602 1.45037 0
M  V30 5898 C 571.775 0.121968 2.0654 0
M  V30 5899 C 572.19 -1.19743 1.45969 0
M  V30 5900 O 571.547 -1.73133 0.577168 0
M  V30 5901 C 571.598 -0.0145171 3.61497 0
M  V30 5902 O 571.319 1.25269 4.19809 0
M  V30 5903 C 572.82 -0.539555 4.40004 0
M  V30 5904 H 570.04 0.0729837 0.667019 0
M  V30 5905 H 572.584 0.846891 1.8614 0
M  V30 5906 H 570.739 -0.689809 3.81209 0
M  V30 5907 H 571.153 1.08816 5.13088 0
M  V30 5908 H 572.627 -0.584112 5.48901 0
M  V30 5909 H 573.104 -1.56368 4.10421 0
M  V30 5910 H 573.71 0.101995 4.25178 0
M  V30 5911 N 572.025 -1.5352 0.356285 0
M  V30 5912 C 573.436 -1.86282 -0.12492 0
M  V30 5913 C 573.787 -1.27717 -1.48939 0
M  V30 5914 O 572.912 -0.595614 -2.08042 0
M  V30 5915 C 573.507 -3.37995 -0.23345 0
M  V30 5916 C 572.066 -3.70588 -0.658899 0
M  V30 5917 C 571.213 -2.76581 0.199596 0
M  V30 5918 H 574.164 -1.47901 0.575423 0
M  V30 5919 H 574.185 -3.65475 -1.0587 0
M  V30 5920 H 573.697 -3.8059 0.759776 0
M  V30 5921 H 571.798 -3.33544 -1.66069 0
M  V30 5922 H 571.911 -4.77076 -0.439957 0
M  V30 5923 H 570.275 -2.52552 -0.330076 0
M  V30 5924 H 571.058 -3.22008 1.19019 0
M  V30 5925 N 573.503 -0.0852151 -1.57369 0
M  V30 5926 C 574.45 0.877268 -2.13478 0
M  V30 5927 C 575.42 1.28642 -1.05073 0
M  V30 5928 O 576.605 1.36992 -1.32808 0
M  V30 5929 C 573.745 2.13464 -2.71159 0
M  V30 5930 C 572.858 1.77691 -3.93764 0
M  V30 5931 C 571.993 2.98139 -4.39643 0
M  V30 5932 C 571.032 2.58447 -5.54862 0
M  V30 5933 N 570.169 3.71698 -5.95639 0
M  V30 5934 H 575.009 0.391933 -2.95411 0
M  V30 5935 H 572.546 0.181796 -1.45972 0
M  V30 5936 H 574.504 2.87086 -3.02717 0
M  V30 5937 H 573.134 2.59514 -1.91969 0
M  V30 5938 H 572.186 0.940768 -3.68583 0
M  V30 5939 H 573.498 1.44497 -4.77412 0
M  V30 5940 H 572.652 3.80026 -4.72933 0
M  V30 5941 H 571.391 3.34536 -3.54876 0
M  V30 5942 H 570.396 1.74984 -5.21211 0
M  V30 5943 H 571.621 2.23205 -6.41371 0
M  V30 5944 H 569.567 4.07831 -5.13819 0
M  V30 5945 H 569.484 3.42317 -6.74059 0
M  V30 5946 H 570.752 4.54123 -6.33555 0
M  V30 5947 N 574.981 1.5647 0.188427 0
M  V30 5948 C 576.392 1.70864 0.752494 0
M  V30 5949 C 576.743 0.692905 1.83557 0
M  V30 5950 O 575.868 -0.149307 2.15884 0
M  V30 5951 C 576.463 3.09789 1.37173 0
M  V30 5952 C 575.022 3.25925 1.88281 0
M  V30 5953 C 574.169 2.66817 0.755259 0
M  V30 5954 H 577.12 1.58657 -0.0367408 0
M  V30 5955 H 577.141 3.07489 2.24122 0
M  V30 5956 H 576.653 3.83693 0.583219 0
M  V30 5957 H 574.754 2.56948 2.6983 0
M  V30 5958 H 574.867 4.33498 2.04001 0
M  V30 5959 H 573.231 2.2617 1.17128 0
M  V30 5960 H 574.014 3.43294 -0.0211237 0
M  V30 5961 N 576.459 -0.456382 1.50847 0
M  V30 5962 C 577.705 -1.20914 1.62811 0
M  V30 5963 C 578.038 -1.91301 0.334304 0
M  V30 5964 O 577.313 -1.82775 -0.665098 0
M  V30 5965 C 577.596 -2.24122 2.81853 0
M  V30 5966 C 577.449 -1.57944 4.21158 0
M  V30 5967 C 578.768 -3.25295 2.96431 0
M  V30 5968 H 575.887 -0.438233 0.592554 0
M  V30 5969 H 578.529 -0.50091 1.83278 0
M  V30 5970 H 576.679 -2.84524 2.64534 0
M  V30 5971 H 578.351 -1.01025 4.50102 0
M  V30 5972 H 576.594 -0.882185 4.24735 0
M  V30 5973 H 577.265 -2.33014 5.00408 0
M  V30 5974 H 579.741 -2.7493 3.12335 0
M  V30 5975 H 578.617 -3.94822 3.81322 0
M  V30 5976 H 578.878 -3.90286 2.07676 0
M  V30 5977 N 577.937 -1.40673 -0.710563 0
M  V30 5978 C 579.348 -1.34975 -1.28991 0
M  V30 5979 C 579.699 -0.0256272 -1.96183 0
M  V30 5980 O 578.824 0.876339 -1.97862 0
M  V30 5981 C 579.419 -2.44467 -2.34567 0
M  V30 5982 C 577.978 -2.42213 -2.88114 0
M  V30 5983 C 577.125 -2.25085 -1.61963 0
M  V30 5984 H 580.076 -1.50406 -0.506343 0
M  V30 5985 H 580.097 -2.12663 -3.15523 0
M  V30 5986 H 579.609 -3.40825 -1.85634 0
M  V30 5987 H 577.71 -1.49568 -3.41263 0
M  V30 5988 H 577.823 -3.37983 -3.39565 0
M  V30 5989 H 576.187 -1.72691 -1.87216 0
M  V30 5990 H 576.97 -3.23449 -1.15047 0
M  V30 5991 N 579.415 0.9433 -1.26252 0
M  V30 5992 C 580.692 1.66639 -1.02424 0
M  V30 5993 C 581.072 2.06335 0.446006 0
M  V30 5994 O 580.42 1.78551 1.42589 0
M  V30 5995 C 580.63 2.88019 -1.97094 0
M  V30 5996 C 581.978 3.59718 -2.25584 0
M  V30 5997 O 583.002 2.9812 -1.94943 0
M  V30 5998 O 581.861 4.7066 -2.77743 0
M  V30 5999 H 578.955 0.729643 -0.389294 0
M  V30 6000 H 581.501 0.995218 -1.37454 0
M  V30 6001 H 580.273 2.5556 -2.96319 0
M  V30 6002 H 579.896 3.62863 -1.62532 0
M  V30 6003 N 580.893 1.08022 1.14757 0
M  V30 6004 C 581.84 0.706657 2.19716 0
M  V30 6005 C 582.81 -0.30525 1.63271 0
M  V30 6006 O 583.995 -0.19015 1.8985 0
M  V30 6007 C 581.135 0.117914 3.44898 0
M  V30 6008 C 580.248 1.18212 4.15512 0
M  V30 6009 C 579.383 0.557659 5.28265 0
M  V30 6010 C 578.422 1.60418 5.90705 0
M  V30 6011 N 577.559 1.0018 6.94916 0
M  V30 6012 H 582.399 1.60603 2.51019 0
M  V30 6013 H 579.936 0.802664 1.23271 0
M  V30 6014 H 581.894 -0.241112 4.16503 0
M  V30 6015 H 580.524 -0.744788 3.1409 0
M  V30 6016 H 579.576 1.65863 3.42335 0
M  V30 6017 H 580.888 1.97533 4.5802 0
M  V30 6018 H 580.042 0.146654 6.06523 0
M  V30 6019 H 578.781 -0.267249 4.86967 0
M  V30 6020 H 577.786 2.02489 5.11154 0
M  V30 6021 H 579.011 2.43149 6.34078 0
M  V30 6022 H 576.957 0.197917 6.55701 0
M  V30 6023 H 576.874 1.73216 7.35889 0
M  V30 6024 H 578.142 0.616523 7.77058 0
M  V30 6025 N 582.371 -1.3172 0.865308 0
M  V30 6026 C 583.648 -1.91574 0.394789 0
M  V30 6027 C 584.028 -1.78769 -1.12271 0
M  V30 6028 O 583.376 -1.19245 -1.94918 0
M  V30 6029 C 583.586 -3.37957 0.870982 0
M  V30 6030 C 584.934 -4.15073 0.894384 0
M  V30 6031 O 585.958 -3.4672 0.816325 0
M  V30 6032 O 584.817 -5.37151 1.00651 0
M  V30 6033 H 581.911 -0.818649 0.117229 0
M  V30 6034 H 584.457 -1.4042 0.952913 0
M  V30 6035 H 583.229 -3.41269 1.91444 0
M  V30 6036 H 582.852 -3.96534 0.290907 0
M  V30 6037 N 583.85 -0.624285 -1.44708 0
M  V30 6038 C 584.797 0.0847135 -2.30644 0
M  V30 6039 C 585.767 0.843575 -1.43084 0
M  V30 6040 O 586.952 0.825982 -1.71995 0
M  V30 6041 C 584.091 1.06495 -3.28257 0
M  V30 6042 C 583.205 0.305224 -4.3092 0
M  V30 6043 C 582.34 1.27667 -5.1563 0
M  V30 6044 C 581.379 0.505706 -6.10007 0
M  V30 6045 N 580.516 1.42727 -6.8744 0
M  V30 6046 H 585.356 -0.654068 -2.90733 0
M  V30 6047 H 582.893 -0.334334 -1.4325 0
M  V30 6048 H 584.851 1.64658 -3.83332 0
M  V30 6049 H 583.481 1.77094 -2.69884 0
M  V30 6050 H 582.533 -0.392207 -3.78373 0
M  V30 6051 H 583.845 -0.295553 -4.97924 0
M  V30 6052 H 582.999 1.92984 -5.75189 0
M  V30 6053 H 581.738 1.91137 -4.48685 0
M  V30 6054 H 580.743 -0.160999 -5.49564 0
M  V30 6055 H 581.968 -0.124183 -6.78986 0
M  V30 6056 H 579.913 2.04931 -6.23169 0
M  V30 6057 H 579.831 0.880345 -7.50857 0
M  V30 6058 H 581.099 2.0695 -7.51526 0
M  V30 6059 N 585.328 1.53329 -0.364422 0
M  V30 6060 C 586.558 2.05359 0.226096 0
M  V30 6061 C 586.966 1.23777 1.43094 0
M  V30 6062 O 586.309 0.271139 1.81688 0
M  V30 6063 C 586.371 3.52918 0.684794 0
M  V30 6064 C 586.035 4.55218 -0.403206 0
M  V30 6065 C 587.032 5.04583 -1.2527 0
M  V30 6066 C 584.717 4.99134 -0.563117 0
M  V30 6067 C 586.711 5.96463 -2.24745 0
M  V30 6068 C 584.398 5.9082 -1.56124 0
M  V30 6069 C 585.396 6.39375 -2.40184 0
M  V30 6070 O 585.084 7.29255 -3.38293 0
M  V30 6071 H 584.816 0.674588 0.0436772 0
M  V30 6072 H 587.37 1.98688 -0.520782 0
M  V30 6073 H 585.6 3.57122 1.48326 0
M  V30 6074 H 587.289 3.87812 1.19818 0
M  V30 6075 H 588.055 4.71403 -1.14034 0
M  V30 6076 H 583.934 4.60928 0.0813909 0
M  V30 6077 H 587.478 6.34285 -2.90393 0
M  V30 6078 H 583.375 6.23414 -1.67407 0
M  V30 6079 H 584.143 7.47249 -3.34009 0
M  V30 6080 N 586.806 0.0935595 1.57322 0
M  V30 6081 C 588.083 -0.612692 1.85756 0
M  V30 6082 C 588.463 -1.86439 0.99013 0
M  V30 6083 O 587.811 -2.28416 0.0621362 0
M  V30 6084 C 588.021 -0.929547 3.36393 0
M  V30 6085 C 589.369 -1.29366 4.04413 0
M  V30 6086 O 590.393 -1.02061 3.41265 0
M  V30 6087 O 589.252 -1.80498 5.15832 0
M  V30 6088 H 586.346 -0.306444 0.768128 0
M  V30 6089 H 588.892 0.126141 1.69231 0
M  V30 6090 H 587.664 -0.0414766 3.91278 0
M  V30 6091 H 587.287 -1.72441 3.5826 0
M  V30 6092 N 588.284 -1.56567 -0.180126 0
M  V30 6093 C 589.695 -1.7126 -0.743422 0
M  V30 6094 C 590.046 -0.70263 -1.83187 0
M  V30 6095 O 589.171 0.137856 -2.1596 0
M  V30 6096 C 589.766 -3.10512 -1.35528 0
M  V30 6097 C 588.325 -3.26919 -1.8655 0
M  V30 6098 C 587.472 -2.67213 -0.741099 0
M  V30 6099 H 590.423 -1.58636 0.0451543 0
M  V30 6100 H 590.444 -3.08673 -2.22489 0
M  V30 6101 H 589.956 -3.83997 -0.562862 0
M  V30 6102 H 588.057 -2.58376 -2.68464 0
M  V30 6103 H 588.17 -4.34574 -2.01699 0
M  V30 6104 H 586.534 -2.26788 -1.15927 0
M  V30 6105 H 587.317 -3.43277 0.0393291 0
M  V30 6106 N 589.762 0.448376 -1.51087 0
M  V30 6107 C 590.99 1.22143 -1.66999 0
M  V30 6108 C 591.405 1.85283 -0.362699 0
M  V30 6109 O 590.762 1.70236 0.65772 0
M  V30 6110 C 590.813 2.31357 -2.7777 0
M  V30 6111 O 590.534 1.70801 -4.03434 0
M  V30 6112 C 592.035 3.21836 -3.04855 0
M  V30 6113 H 589.255 0.368558 -0.560719 0
M  V30 6114 H 591.799 0.532618 -1.97442 0
M  V30 6115 H 589.954 2.95973 -2.49958 0
M  V30 6116 H 590.368 2.42895 -4.64868 0
M  V30 6117 H 591.842 3.94627 -3.85971 0
M  V30 6118 H 592.319 3.81949 -2.16821 0
M  V30 6119 H 592.925 2.62933 -3.34285 0
M  V30 6120 N 591.24 1.41047 0.703093 0
M  V30 6121 C 592.488 1.39723 1.4602 0
M  V30 6122 C 592.809 0.00461257 1.94999 0
M  V30 6123 O 592.079 -0.952292 1.71196 0
M  V30 6124 H 590.659 0.514281 0.541779 0
M  V30 6125 H 593.321 1.76217 0.832678 0
M  V30 6126 H 592.417 2.07982 2.32701 0
M  V30 6127 N 592.718 -0.936591 1.26751 0
M  V30 6128 C 593.966 -1.67998 1.12343 0
M  V30 6129 C 594.287 -1.92137 -0.332938 0
M  V30 6130 O 593.557 -1.52132 -1.23421 0
M  V30 6131 H 592.137 -0.622609 0.412756 0
M  V30 6132 H 594.799 -1.12509 1.59147 0
M  V30 6133 H 593.895 -2.65185 1.64571 0
M  V30 6134 N 594.196 -1.08629 -1.14182 0
M  V30 6135 C 595.106 -0.730126 -2.22949 0
M  V30 6136 C 596.122 0.26436 -1.7198 0
M  V30 6137 O 597.298 0.107742 -2.01112 0
M  V30 6138 C 594.363 -0.147227 -3.46387 0
M  V30 6139 C 593.424 -1.19662 -4.12286 0
M  V30 6140 C 592.657 -0.641437 -5.29831 0
M  V30 6141 O 592.88 0.538351 -5.67854 0
M  V30 6142 O 591.814 -1.39257 -5.85569 0
M  V30 6143 H 595.64 -1.63753 -2.55771 0
M  V30 6144 H 593.225 -0.860118 -1.22157 0
M  V30 6145 H 595.107 0.174923 -4.21037 0
M  V30 6146 H 593.782 0.733304 -3.15285 0
M  V30 6147 H 592.689 -1.57133 -3.395 0
M  V30 6148 H 594.022 -2.0495 -4.475 0
M  V30 6149 N 595.674 1.31259 -0.872281 0
M  V30 6150 C 596.902 2.00795 -0.498907 0
M  V30 6151 C 597.317 1.65464 0.909238 0
M  V30 6152 O 596.674 0.885073 1.59602 0
M  V30 6153 C 596.725 3.55625 -0.649092 0
M  V30 6154 O 596.446 3.89692 -2.00179 0
M  V30 6155 C 597.947 4.42434 -0.277034 0
M  V30 6156 H 595.167 0.642299 -0.194145 0
M  V30 6157 H 597.711 1.67438 -1.17408 0
M  V30 6158 H 595.866 3.87394 -0.0214402 0
M  V30 6159 H 596.28 4.84407 -2.01122 0
M  V30 6160 H 597.754 5.50299 -0.433064 0
M  V30 6161 H 598.231 4.32146 0.783989 0
M  V30 6162 H 598.837 4.16086 -0.880483 0
M  V30 6163 N 597.152 0.631951 1.44375 0
M  V30 6164 C 598.38 0.143867 2.06399 0
M  V30 6165 C 598.795 -1.18188 1.47231 0
M  V30 6166 O 598.152 -1.72511 0.595498 0
M  V30 6167 C 598.203 0.0238253 3.61492 0
M  V30 6168 O 597.924 1.29715 4.18456 0
M  V30 6169 C 599.425 -0.492856 4.40552 0
M  V30 6170 H 596.645 0.0800542 0.666207 0
M  V30 6171 H 599.189 0.866586 1.85231 0
M  V30 6172 H 597.344 -0.649338 3.81919 0
M  V30 6173 H 597.758 1.14252 5.11905 0
M  V30 6174 H 599.232 -0.525861 5.49489 0
M  V30 6175 H 599.709 -1.52006 4.12057 0
M  V30 6176 H 600.315 0.147085 4.25046 0
M  V30 6177 N 598.631 -1.53133 0.372548 0
M  V30 6178 C 599.877 -2.01654 -0.215277 0
M  V30 6179 C 600.21 -1.25914 -1.47849 0
M  V30 6180 O 599.485 -0.3548 -1.91237 0
M  V30 6181 C 599.768 -3.56609 -0.500187 0
M  V30 6182 C 599.621 -4.43036 0.777145 0
M  V30 6183 C 600.94 -4.20528 -1.29786 0
M  V30 6184 H 598.059 -0.732991 -0.0767686 0
M  V30 6185 H 600.701 -1.83335 0.498814 0
M  V30 6186 H 598.851 -3.7235 -1.10852 0
M  V30 6187 H 600.523 -4.39079 1.41447 0
M  V30 6188 H 598.766 -4.10723 1.39604 0
M  V30 6189 H 599.437 -5.49424 0.532662 0
M  V30 6190 H 601.913 -4.08663 -0.783198 0
M  V30 6191 H 600.789 -5.28962 -1.46596 0
M  V30 6192 H 601.05 -3.77051 -2.30836 0
M  V30 6193 N 600.109 -0.101901 -1.5727 0
M  V30 6194 C 601.52 0.426173 -1.81771 0
M  V30 6195 C 601.871 1.67725 -1.01797 0
M  V30 6196 O 600.996 2.14958 -0.249386 0
M  V30 6197 C 601.591 0.779962 -3.297 0
M  V30 6198 C 600.15 1.25275 -3.54941 0
M  V30 6199 C 599.297 0.252814 -2.76145 0
M  V30 6200 H 602.248 -0.32726 -1.55289 0
M  V30 6201 H 602.269 1.63891 -3.43395 0
M  V30 6202 H 601.781 -0.130778 -3.8788 0
M  V30 6203 H 599.882 2.18097 -3.021 0
M  V30 6204 H 599.995 1.20988 -4.63572 0
M  V30 6205 H 598.359 0.736362 -2.43823 0
M  V30 6206 H 599.142 -0.650724 -3.37076 0
M  V30 6207 N 601.587 1.56661 0.17182 0
M  V30 6208 C 602.519 1.92934 1.2373 0
M  V30 6209 C 603.532 0.822385 1.40502 0
M  V30 6210 O 604.721 1.10083 1.40514 0
M  V30 6211 C 601.821 2.16651 2.60607 0
M  V30 6212 C 600.994 3.47878 2.6514 0
M  V30 6213 C 600.053 3.60429 3.83377 0
M  V30 6214 O 599.079 4.33051 3.69398 0
M  V30 6215 N 600.281 2.95241 4.99813 0
M  V30 6216 H 603.046 2.84931 0.929205 0
M  V30 6217 H 600.607 1.5781 0.361588 0
M  V30 6218 H 602.599 2.22312 3.38171 0
M  V30 6219 H 601.169 1.3104 2.83809 0
M  V30 6220 H 600.389 3.53879 1.73675 0
M  V30 6221 H 601.677 4.34232 2.6518 0
M  V30 6222 H 601.075 2.3611 5.14071 0
M  V30 6223 H 599.632 3.06499 5.75241 0
M  V30 6224 N 603.065 -0.440357 1.51323 0
M  V30 6225 C 604.313 -1.18769 1.63518 0
M  V30 6226 C 604.634 -1.91793 0.352201 0
M  V30 6227 O 603.904 -1.85432 -0.631811 0
M  V30 6228 H 602.484 -0.441408 0.602634 0
M  V30 6229 H 605.146 -0.505162 1.8824 0
M  V30 6230 H 604.242 -1.91892 2.46138 0
M  V30 6231 N 604.543 -1.41418 -0.695603 0
M  V30 6232 C 605.771 -1.4413 -1.48439 0
M  V30 6233 C 606.186 -0.0465698 -1.88743 0
M  V30 6234 O 605.543 0.934117 -1.56782 0
M  V30 6235 C 605.594 -2.34998 -2.74696 0
M  V30 6236 O 605.315 -3.69043 -2.36091 0
M  V30 6237 C 606.816 -2.46513 -3.68438 0
M  V30 6238 H 604.036 -0.490905 -0.457442 0
M  V30 6239 H 606.58 -1.85702 -0.856454 0
M  V30 6240 H 604.735 -1.96735 -3.33728 0
M  V30 6241 H 605.149 -4.17505 -3.17474 0
M  V30 6242 H 606.623 -3.1426 -4.53811 0
M  V30 6243 H 607.1 -1.49638 -4.12922 0
M  V30 6244 H 607.706 -2.85412 -3.1531 0
M  V30 6245 N 606.021 0.929856 -1.27246 0
M  V30 6246 C 607.432 1.49223 -1.12203 0
M  V30 6247 C 607.783 1.93989 0.293731 0
M  V30 6248 O 606.908 1.80978 1.18642 0
M  V30 6249 C 607.503 2.71198 -2.0307 0
M  V30 6250 C 606.062 3.23666 -1.92139 0
M  V30 6251 C 605.209 1.96409 -1.95752 0
M  V30 6252 H 608.16 0.744181 -1.4017 0
M  V30 6253 H 608.181 3.45905 -1.58524 0
M  V30 6254 H 607.693 2.38585 -3.06102 0
M  V30 6255 H 605.794 3.61042 -0.920834 0
M  V30 6256 H 605.907 3.90006 -2.78267 0
M  V30 6257 H 604.271 2.12806 -1.39949 0
M  V30 6258 H 605.054 1.66113 -3.00436 0
M  V30 6259 N 607.499 1.09233 1.13605 0
M  V30 6260 C 608.745 0.828385 1.8511 0
M  V30 6261 C 609.078 -0.64437 1.83198 0
M  V30 6262 O 608.353 -1.47428 1.26867 0
M  V30 6263 C 608.636 1.36167 3.33363 0
M  V30 6264 C 608.489 2.90038 3.438 0
M  V30 6265 C 609.808 0.993819 4.28732 0
M  V30 6266 H 606.927 0.30239 0.672108 0
M  V30 6267 H 609.569 1.35339 1.33355 0
M  V30 6268 H 607.719 0.9151 3.77569 0
M  V30 6269 H 609.391 3.43128 3.08319 0
M  V30 6270 H 607.634 3.27271 2.84739 0
M  V30 6271 H 608.305 3.22428 4.48045 0
M  V30 6272 H 610.781 1.37893 3.92587 0
M  V30 6273 H 609.657 1.39403 5.30903 0
M  V30 6274 H 609.918 -0.0982206 4.41991 0
M  V30 6275 N 608.977 -1.30795 0.87923 0
M  V30 6276 C 610.202 -2.01063 0.508769 0
M  V30 6277 C 610.627 -1.65508 -0.893803 0
M  V30 6278 O 609.985 -0.868616 -1.59138 0
M  V30 6279 C 610.033 -3.54054 0.683991 0
M  V30 6280 O 609.137 -4.11498 -0.272654 0
M  V30 6281 H 608.478 -0.632786 0.201191 0
M  V30 6282 H 611.008 -1.66776 1.18519 0
M  V30 6283 H 611.018 -4.03845 0.580798 0
M  V30 6284 H 609.693 -3.79271 1.70665 0
M  V30 6285 H 608.27 -3.72695 -0.12364 0
M  V30 6286 N 610.455 -0.639598 -1.44038 0
M  V30 6287 C 611.732 -0.078012 -1.95444 0
M  V30 6288 C 612.112 1.39847 -1.58133 0
M  V30 6289 O 611.46 2.11714 -0.859614 0
M  V30 6290 C 611.67 -0.309832 -3.47622 0
M  V30 6291 C 613.018 -0.207521 -4.24093 0
M  V30 6292 O 614.042 -0.241653 -3.55379 0
M  V30 6293 O 612.901 -0.119641 -5.46369 0
M  V30 6294 H 609.995 0.0174534 -0.826816 0
M  V30 6295 H 612.541 -0.711891 -1.54046 0
M  V30 6296 H 611.313 -1.33401 -3.67858 0
M  V30 6297 H 610.936 0.357777 -3.95987 0
M  V30 6298 N 611.933 1.52934 -0.380664 0
M  V30 6299 C 612.88 2.26197 0.458641 0
M  V30 6300 C 613.85 1.27462 1.06502 0
M  V30 6301 O 615.035 1.56274 1.09467 0
M  V30 6302 C 612.175 3.06571 1.58456 0
M  V30 6303 C 611.288 4.20222 1.00189 0
M  V30 6304 C 610.423 4.88007 2.09815 0
M  V30 6305 C 609.462 5.93665 1.49092 0
M  V30 6306 N 608.599 6.55081 2.52613 0
M  V30 6307 H 613.439 2.975 -0.172595 0
M  V30 6308 H 610.976 1.4678 -0.0969426 0
M  V30 6309 H 612.934 3.51455 2.24801 0
M  V30 6310 H 611.564 2.37494 2.18624 0
M  V30 6311 H 610.616 3.79714 0.228292 0
M  V30 6312 H 611.928 4.96102 0.518064 0
M  V30 6313 H 611.082 5.36151 2.83948 0
M  V30 6314 H 609.821 4.11632 2.61555 0
M  V30 6315 H 608.826 5.44868 0.7348 0
M  V30 6316 H 610.051 6.71969 0.981582 0
M  V30 6317 H 607.997 5.8155 3.03538 0
M  V30 6318 H 607.914 7.26548 2.08961 0
M  V30 6319 H 609.182 7.07871 3.26402 0
M  V30 6320 N 613.412 0.11024 1.57214 0
M  V30 6321 C 614.322 -0.857077 2.18383 0
M  V30 6322 C 615.338 -1.29915 1.1575 0
M  V30 6323 O 616.514 -1.36394 1.48184 0
M  V30 6324 C 613.579 -2.09264 2.76423 0
M  V30 6325 C 612.64 -1.70333 3.94063 0
M  V30 6326 C 611.873 -2.87999 4.49324 0
M  V30 6327 O 612.096 -4.0317 4.03497 0
M  V30 6328 O 611.03 -2.6559 5.40135 0
M  V30 6329 H 614.856 -0.366561 3.0148 0
M  V30 6330 H 612.441 -0.114914 1.48957 0
M  V30 6331 H 614.323 -2.81644 3.13456 0
M  V30 6332 H 612.998 -2.57339 1.96363 0
M  V30 6333 H 611.905 -0.950864 3.61814 0
M  V30 6334 H 613.238 -1.27007 4.75531 0
M  V30 6335 N 614.89 -1.56749 -0.16351 0
M  V30 6336 C 616.139 -1.81626 -0.877211 0
M  V30 6337 C 616.452 -0.688791 -1.83071 0
M  V30 6338 O 617.658 -0.822697 -2.58735 0
M  V30 6339 C 616.114 -3.21858 -1.61045 0
M  V30 6340 C 615.722 -4.42494 -0.700195 0
M  V30 6341 C 617.466 -3.56021 -2.31192 0
M  V30 6342 C 615.373 -5.73748 -1.43412 0
M  V30 6343 H 614.303 -0.67731 -0.331312 0
M  V30 6344 H 616.954 -1.83039 -0.13006 0
M  V30 6345 H 615.336 -3.14784 -2.40264 0
M  V30 6346 H 616.51 -4.60766 0.0555849 0
M  V30 6347 H 614.825 -4.1626 -0.10799 0
M  V30 6348 H 617.422 -4.51333 -2.8671 0
M  V30 6349 H 617.765 -2.81277 -3.06902 0
M  V30 6350 H 618.298 -3.64682 -1.58909 0
M  V30 6351 H 615.037 -6.51543 -0.719186 0
M  V30 6352 H 614.557 -5.5944 -2.16302 0
M  V30 6353 H 616.236 -6.15975 -1.9795 0
M  V30 6354 N 616.368 0.432326 -1.51554 0
M  V30 6355 C 617.596 1.20364 -1.68286 0
M  V30 6356 C 618.011 1.84888 -0.38233 0
M  V30 6357 O 617.368 1.70924 0.639627 0
M  V30 6358 C 617.419 2.28398 -2.80208 0
M  V30 6359 O 617.14 1.66512 -4.05223 0
M  V30 6360 C 618.641 3.18584 -3.08251 0
M  V30 6361 H 615.861 0.36259 -0.564596 0
M  V30 6362 H 618.405 0.511647 -1.97996 0
M  V30 6363 H 616.56 2.93305 -2.53083 0
M  V30 6364 H 616.974 2.37951 -4.67418 0
M  V30 6365 H 618.448 3.90511 -3.90135 0
M  V30 6366 H 618.925 3.79628 -2.2086 0
M  V30 6367 H 619.531 2.59372 -3.37055 0
M  V30 6368 N 617.846 1.41785 0.688094 0
M  V30 6369 C 619.123 1.32031 1.44316 0
M  V30 6370 C 619.503 -0.0486079 2.11044 0
M  V30 6371 O 618.851 -1.06332 2.02252 0
M  V30 6372 C 619.061 2.47906 2.45649 0
M  V30 6373 C 620.409 2.89415 3.10683 0
M  V30 6374 O 621.433 2.477 2.55975 0
M  V30 6375 O 620.292 3.61573 4.09789 0
M  V30 6376 H 617.386 0.519994 0.643067 0
M  V30 6377 H 619.932 1.53765 0.71794 0
M  V30 6378 H 618.704 3.39222 1.95048 0
M  V30 6379 H 618.327 2.28089 3.25671 0
M  V30 6380 N 619.324 -0.923095 1.27737 0
M  V30 6381 C 620.254 -2.04124 1.13383 0
M  V30 6382 C 621.235 -1.70066 0.0340658 0
M  V30 6383 O 622.42 -1.93068 0.209383 0
M  V30 6384 C 619.55 -3.3831 0.785097 0
M  V30 6385 C 618.504 -3.86496 1.8386 0
M  V30 6386 C 617.83 -5.1754 1.34373 0
M  V30 6387 C 619.13 -4.09381 3.24353 0
M  V30 6388 H 620.824 -2.1639 2.06919 0
M  V30 6389 H 618.37 -1.03976 0.996243 0
M  V30 6390 H 620.323 -4.16016 0.671485 0
M  V30 6391 H 619.047 -3.2607 -0.185969 0
M  V30 6392 H 617.706 -3.10987 1.9412 0
M  V30 6393 H 617.354 -5.01696 0.361989 0
M  V30 6394 H 617.054 -5.50751 2.04811 0
M  V30 6395 H 618.578 -5.97811 1.24315 0
M  V30 6396 H 619.992 -4.77641 3.17067 0
M  V30 6397 H 618.389 -4.53906 3.92542 0
M  V30 6398 H 619.459 -3.14515 3.69064 0
M  V30 6399 N 620.802 -1.09834 -1.13024 0
M  V30 6400 C 622.048 -0.83819 -1.84668 0
M  V30 6401 C 622.381 0.634645 -1.83537 0
M  V30 6402 O 621.656 1.46753 -1.27647 0
M  V30 6403 C 621.939 -1.37933 -3.32636 0
M  V30 6404 C 621.792 -2.91857 -3.42257 0
M  V30 6405 C 623.111 -1.01654 -4.28199 0
M  V30 6406 H 620.23 -0.30595 -0.670495 0
M  V30 6407 H 622.872 -1.36044 -1.32635 0
M  V30 6408 H 621.022 -0.935111 -3.77078 0
M  V30 6409 H 622.694 -3.44759 -3.06495 0
M  V30 6410 H 620.937 -3.28776 -2.83 0
M  V30 6411 H 621.608 -3.24799 -4.46329 0
M  V30 6412 H 624.084 -1.39973 -3.9185 0
M  V30 6413 H 622.96 -1.42217 -5.30156 0
M  V30 6414 H 623.221 0.0747794 -4.42037 0
M  V30 6415 N 622.28 1.30327 -0.886154 0
M  V30 6416 C 623.227 2.28099 -0.352069 0
M  V30 6417 C 624.197 1.56433 0.558397 0
M  V30 6418 O 625.382 1.84492 0.486561 0
M  V30 6419 C 622.522 3.42456 0.426346 0
M  V30 6420 C 621.635 4.28938 -0.513472 0
M  V30 6421 C 620.77 5.30458 0.280657 0
M  V30 6422 C 619.809 6.0859 -0.654556 0
M  V30 6423 N 618.946 7.02022 0.104322 0
M  V30 6424 H 623.786 2.73166 -1.19097 0
M  V30 6425 H 621.323 1.34367 -0.598662 0
M  V30 6426 H 623.281 4.07518 0.893587 0
M  V30 6427 H 621.911 2.98455 1.22981 0
M  V30 6428 H 620.963 3.64173 -1.09921 0
M  V30 6429 H 622.275 4.83399 -1.2299 0
M  V30 6430 H 621.429 6.01273 0.8097 0
M  V30 6431 H 620.168 4.76693 1.03029 0
M  V30 6432 H 619.173 5.36651 -1.19522 0
M  V30 6433 H 620.398 6.64443 -1.4033 0
M  V30 6434 H 618.344 6.50645 0.836472 0
M  V30 6435 H 618.261 7.53979 -0.552453 0
M  V30 6436 H 619.529 7.77077 0.614069 0
M  V30 6437 N 623.758 0.647228 1.43697 0
M  V30 6438 C 625.007 0.155552 2.01099 0
M  V30 6439 C 625.32 -1.23569 1.51624 0
M  V30 6440 O 626.526 -1.82226 2.01261 0
M  V30 6441 C 624.982 0.227296 3.59182 0
M  V30 6442 C 624.59 1.62086 4.17651 0
M  V30 6443 C 626.334 -0.207085 4.23995 0
M  V30 6444 C 624.241 1.64685 5.68008 0
M  V30 6445 H 623.171 0.0543895 0.752036 0
M  V30 6446 H 625.822 0.808386 1.64734 0
M  V30 6447 H 624.204 -0.492937 3.9292 0
M  V30 6448 H 625.378 2.36597 3.95422 0
M  V30 6449 H 623.693 2.0007 3.65186 0
M  V30 6450 H 626.29 -0.207426 5.34298 0
M  V30 6451 H 626.633 -1.23742 3.97484 0
M  V30 6452 H 627.166 0.461193 3.95118 0
M  V30 6453 H 623.905 2.65608 5.99277 0
M  V30 6454 H 623.425 0.944914 5.9231 0
M  V30 6455 H 625.104 1.38792 6.31938 0
M  V30 6456 N 625.236 -1.5273 0.388769 0
M  V30 6457 C 626.647 -1.86505 -0.0853788 0
M  V30 6458 C 626.998 -1.30847 -1.46197 0
M  V30 6459 O 626.123 -0.639609 -2.06732 0
M  V30 6460 C 626.718 -3.38414 -0.161703 0
M  V30 6461 C 625.277 -3.71902 -0.580144 0
M  V30 6462 C 624.424 -2.76095 0.258218 0
M  V30 6463 H 627.375 -1.46647 0.606665 0
M  V30 6464 H 627.396 -3.67638 -0.980936 0
M  V30 6465 H 626.908 -3.78893 0.840333 0
M  V30 6466 H 625.009 -3.36992 -1.58957 0
M  V30 6467 H 625.122 -4.77902 -0.338663 0
M  V30 6468 H 623.486 -2.53195 -0.276432 0
M  V30 6469 H 624.269 -3.19411 1.25822 0
M  V30 6470 N 626.714 -0.118576 -1.57153 0
M  V30 6471 C 627.991 0.583062 -1.86708 0
M  V30 6472 C 628.371 1.84841 -1.01967 0
M  V30 6473 O 627.719 2.28288 -0.0984673 0
M  V30 6474 C 627.929 0.875912 -3.3783 0
M  V30 6475 C 629.277 1.22916 -4.0642 0
M  V30 6476 O 630.301 0.966188 -3.42846 0
M  V30 6477 O 629.16 1.72269 -5.18638 0
M  V30 6478 H 626.254 0.294185 -0.772906 0
M  V30 6479 H 628.8 -0.153048 -1.69008 0
M  V30 6480 H 627.572 -0.0207776 -3.91294 0
M  V30 6481 H 627.195 1.66719 -3.60958 0
M  V30 6482 N 628.193 1.56834 0.155195 0
M  V30 6483 C 629.441 1.82536 0.867462 0
M  V30 6484 C 629.762 0.698168 1.82073 0
M  V30 6485 O 629.032 -0.280807 1.93877 0
M  V30 6486 H 627.612 0.673401 0.323327 0
M  V30 6487 H 630.274 1.94313 0.151156 0
M  V30 6488 H 629.37 2.77171 1.43466 0
M  V30 6489 N 629.671 -0.424282 1.51781 0
M  V30 6490 C 630.896 -1.19928 1.6921 0
M  V30 6491 C 631.321 -1.8392 0.394355 0
M  V30 6492 O 630.679 -1.69371 -0.646778 0
M  V30 6493 C 630.727 -2.24937 2.81843 0
M  V30 6494 O 629.831 -3.3073 2.46356 0
M  V30 6495 H 629.172 -0.35078 0.563781 0
M  V30 6496 H 631.702 -0.499401 1.98412 0
M  V30 6497 H 631.712 -2.69512 3.06312 0
M  V30 6498 H 630.387 -1.77742 3.76006 0
M  V30 6499 H 628.964 -2.9154 2.32505 0
M  V30 6500 N 631.149 -1.42148 -0.680565 0
M  V30 6501 C 632.096 -1.45175 -1.79424 0
M  V30 6502 C 633.066 -0.304352 -1.63288 0
M  V30 6503 O 634.251 -0.507591 -1.83924 0
M  V30 6504 C 631.391 -1.35429 -3.17416 0
M  V30 6505 C 630.504 -2.60158 -3.4488 0
M  V30 6506 C 629.639 -2.42596 -4.72568 0
M  V30 6507 C 628.678 -3.62727 -4.93047 0
M  V30 6508 N 627.815 -3.44143 -6.11973 0
M  V30 6509 H 632.655 -2.40349 -1.76172 0
M  V30 6510 H 630.192 -1.19334 -0.860107 0
M  V30 6511 H 632.15 -1.27777 -3.97151 0
M  V30 6512 H 630.78 -0.438536 -3.19807 0
M  V30 6513 H 629.832 -2.78199 -2.5944 0
M  V30 6514 H 631.144 -3.49473 -3.55908 0
M  V30 6515 H 630.298 -2.32497 -5.60384 0
M  V30 6516 H 629.037 -1.50761 -4.63813 0
M  V30 6517 H 628.042 -3.73264 -4.03676 0
M  V30 6518 H 629.267 -4.55534 -5.03652 0
M  V30 6519 H 627.213 -2.5502 -6.04401 0
M  V30 6520 H 627.13 -4.27041 -6.23836 0
M  V30 6521 H 628.398 -3.37845 -7.02482 0
M  V30 6522 N 632.627 0.916307 -1.28225 0
M  V30 6523 C 633.875 1.6619 -1.15002 0
M  V30 6524 C 634.196 1.92642 0.302329 0
M  V30 6525 O 633.466 1.54076 1.20985 0
M  V30 6526 H 632.046 0.615964 -0.422608 0
M  V30 6527 H 634.708 1.09963 -1.60917 0
M  V30 6528 H 633.804 2.62533 -1.68769 0
M  V30 6529 N 634.105 1.10431 1.1244 0
M  V30 6530 C 635.351 0.847972 1.84221 0
M  V30 6531 C 635.684 -0.624903 1.83871 0
M  V30 6532 O 634.959 -1.46074 1.28423 0
M  V30 6533 C 635.242 1.39695 3.319 0
M  V30 6534 C 635.095 2.93668 3.40704 0
M  V30 6535 C 636.414 1.03924 4.27654 0
M  V30 6536 H 633.533 0.309502 0.668863 0
M  V30 6537 H 636.175 1.36745 1.31912 0
M  V30 6538 H 634.325 0.955095 3.76577 0
M  V30 6539 H 635.997 3.46379 3.04662 0
M  V30 6540 H 634.24 3.30272 2.81252 0
M  V30 6541 H 634.911 3.27162 4.446 0
M  V30 6542 H 637.387 1.42049 3.91102 0
M  V30 6543 H 636.263 1.45027 5.29394 0
M  V30 6544 H 636.524 -0.051336 4.4207 0
M  V30 6545 N 635.583 -1.29855 0.893053 0
M  V30 6546 C 636.994 -1.77946 0.564998 0
M  V30 6547 C 637.345 -1.73339 -0.919134 0
M  V30 6548 O 636.47 -1.3152 -1.71847 0
M  V30 6549 C 637.065 -3.23118 1.01883 0
M  V30 6550 C 635.624 -3.69013 0.742051 0
M  V30 6551 C 634.771 -2.50121 1.19727 0
M  V30 6552 H 637.722 -1.16611 1.07646 0
M  V30 6553 H 637.743 -3.78875 0.351249 0
M  V30 6554 H 637.255 -3.26439 2.09903 0
M  V30 6555 H 635.356 -3.71173 -0.325816 0
M  V30 6556 H 635.469 -4.60117 1.33527 0
M  V30 6557 H 633.833 -2.47128 0.616418 0
M  V30 6558 H 634.616 -2.56174 2.28538 0
M  V30 6559 N 637.061 -0.65484 -1.43351 0
M  V30 6560 C 638.289 -0.176685 -2.06144 0
M  V30 6561 C 638.704 1.15831 -1.49093 0
M  V30 6562 O 638.061 1.71542 -0.622868 0
M  V30 6563 C 638.112 -0.0813326 -3.61408 0
M  V30 6564 O 637.833 -1.36355 -4.1634 0
M  V30 6565 C 639.334 0.422706 -4.4128 0
M  V30 6566 H 636.554 -0.0906429 -0.66485 0
M  V30 6567 H 639.098 -0.895945 -1.83829 0
M  V30 6568 H 637.253 0.588496 -3.82904 0
M  V30 6569 H 637.667 -1.22381 -5.10023 0
M  V30 6570 H 639.141 0.438375 -5.50257 0
M  V30 6571 H 639.618 1.45432 -4.14423 0
M  V30 6572 H 640.224 -0.214687 -4.24758 0
M  V30 6573 N 638.539 1.52521 -0.396863 0
M  V30 6574 C 639.785 2.01971 0.183169 0
M  V30 6575 C 640.118 1.2825 1.45827 0
M  V30 6576 O 639.393 0.385179 1.90648 0
M  V30 6577 C 639.676 3.5736 0.443391 0
M  V30 6578 C 639.529 4.41743 -0.84753 0
M  V30 6579 C 640.848 4.22539 1.2308 0
M  V30 6580 H 637.967 0.734119 0.0650976 0
M  V30 6581 H 640.609 1.82519 -0.527918 0
M  V30 6582 H 638.759 3.74066 1.04914 0
M  V30 6583 H 640.431 4.36773 -1.48414 0
M  V30 6584 H 638.674 4.0845 -1.4612 0
M  V30 6585 H 639.345 5.48507 -0.620003 0
M  V30 6586 H 641.821 4.09857 0.718084 0
M  V30 6587 H 640.697 5.31227 1.38162 0
M  V30 6588 H 640.958 3.80675 2.24808 0
M  V30 6589 N 640.017 0.126909 1.57088 0
M  V30 6590 C 641.263 -0.529952 1.95753 0
M  V30 6591 C 641.596 -1.65823 1.01077 0
M  V30 6592 O 640.871 -1.94437 0.0494162 0
M  V30 6593 C 641.154 -1.05517 3.44294 0
M  V30 6594 C 641.007 0.0702253 4.49745 0
M  V30 6595 C 642.326 -1.9435 3.94862 0
M  V30 6596 H 639.445 -0.191168 0.711775 0
M  V30 6597 H 642.087 0.204071 1.88901 0
M  V30 6598 H 640.237 -1.68069 3.50264 0
M  V30 6599 H 641.909 0.705834 4.55868 0
M  V30 6600 H 640.152 0.732259 4.27575 0
M  V30 6601 H 640.823 -0.338642 5.5096 0
M  V30 6602 H 643.299 -1.41658 3.91244 0
M  V30 6603 H 642.175 -2.28015 4.993 0
M  V30 6604 H 642.436 -2.87299 3.36024 0
M  V30 6605 N 641.495 -1.56914 -0.146875 0
M  V30 6606 C 642.743 -1.82994 -0.85777 0
M  V30 6607 C 643.064 -0.707814 -1.817 0
M  V30 6608 O 642.334 0.270521 -1.94023 0
M  V30 6609 H 640.914 -0.675106 -0.319751 0
M  V30 6610 H 643.576 -1.9439 -0.140849 0
M  V30 6611 H 642.672 -2.77928 -1.41994 0
M  V30 6612 N 642.974 0.416227 -1.52004 0
M  V30 6613 C 644.251 1.17637 -1.56272 0
M  V30 6614 C 644.631 2.08352 -0.339493 0
M  V30 6615 O 643.979 2.1833 0.674124 0
M  V30 6616 C 644.189 1.95986 -2.88774 0
M  V30 6617 C 645.537 2.52299 -3.41512 0
M  V30 6618 O 646.561 2.06174 -2.90467 0
M  V30 6619 O 645.42 3.3648 -4.30631 0
M  V30 6620 H 642.514 0.536726 -0.629169 0
M  V30 6621 H 645.06 0.423583 -1.64329 0
M  V30 6622 H 643.832 1.29487 -3.69254 0
M  V30 6623 H 643.455 2.78285 -2.83978 0
M  V30 6624 N 644.452 1.42507 0.673017 0
M  V30 6625 C 645.868 1.25472 0.986355 0
M  V30 6626 C 646.068 0.160181 2.00862 0
M  V30 6627 O 645.124 -0.467993 2.48125 0
M  V30 6628 C 646.437 2.61219 1.48947 0
M  V30 6629 C 647.985 2.68589 1.60715 0
M  V30 6630 C 648.46 4.04707 2.14422 0
M  V30 6631 N 649.951 4.0667 2.21752 0
M  V30 6632 C 650.686 5.0881 2.64386 0
M  V30 6633 N 650.182 6.21332 3.0646 0
M  V30 6634 N 651.975 4.96166 2.64151 0
M  V30 6635 H 644.126 2.124 -0.00378532 0
M  V30 6636 H 646.389 0.946046 0.0608367 0
M  V30 6637 H 646.095 3.42179 0.812812 0
M  V30 6638 H 645.969 2.85261 2.46791 0
M  V30 6639 H 648.356 1.87974 2.27486 0
M  V30 6640 H 648.437 2.48333 0.613552 0
M  V30 6641 H 648.081 4.8578 1.48258 0
M  V30 6642 H 648.011 4.22315 3.14575 0
M  V30 6643 H 650.502 3.25438 1.92089 0
M  V30 6644 H 650.815 6.95118 3.37684 0
M  V30 6645 H 649.16 6.24835 3.04313 0
M  V30 6646 H 652.351 4.07334 2.30644 0
M  V30 6647 H 652.524 5.759 2.97057 0
M  V30 6648 N 645.93 -0.909495 1.28709 0
M  V30 6649 C 647.341 -1.47419 1.14563 0
M  V30 6650 C 647.692 -1.94432 -0.262832 0
M  V30 6651 O 646.817 -1.82842 -1.15748 0
M  V30 6652 C 647.412 -2.67933 2.07358 0
M  V30 6653 C 645.971 -3.20568 1.97264 0
M  V30 6654 C 645.118 -1.93269 1.98852 0
M  V30 6655 H 648.069 -0.721787 1.41336 0
M  V30 6656 H 648.09 -3.43339 1.64007 0
M  V30 6657 H 647.602 -2.33685 3.09859 0
M  V30 6658 H 645.703 -3.59531 0.978157 0
M  V30 6659 H 645.816 -3.85529 2.84436 0
M  V30 6660 H 644.18 -2.10553 1.43317 0
M  V30 6661 H 644.963 -1.61312 3.0304 0
M  V30 6662 N 647.408 -1.11026 -1.11852 0
M  V30 6663 C 648.685 -0.768347 -1.79877 0
M  V30 6664 C 649.065 0.744261 -1.97545 0
M  V30 6665 O 648.413 1.67271 -1.55669 0
M  V30 6666 C 648.623 -1.52648 -3.13846 0
M  V30 6667 C 649.971 -1.70297 -3.88953 0
M  V30 6668 O 650.995 -1.49037 -3.23522 0
M  V30 6669 O 649.854 -2.05593 -5.06353 0
M  V30 6670 H 646.948 -0.277891 -0.778913 0
M  V30 6671 H 649.494 -1.21343 -1.18633 0
M  V30 6672 H 648.266 -2.55564 -2.96315 0
M  V30 6673 H 647.889 -1.07466 -3.82801 0
M  V30 6674 N 648.886 1.2938 -0.899927 0
M  V30 6675 C 650.114 1.99691 -0.541386 0
M  V30 6676 C 650.529 1.67355 0.873936 0
M  V30 6677 O 649.886 0.918728 1.57688 0
M  V30 6678 C 649.937 3.54168 -0.72438 0
M  V30 6679 O 649.658 3.85359 -2.08399 0
M  V30 6680 C 651.159 4.41746 -0.370819 0
M  V30 6681 H 648.379 0.638037 -0.207726 0
M  V30 6682 H 650.923 1.6491 -1.20934 0
M  V30 6683 H 649.078 3.87261 -0.103607 0
M  V30 6684 H 649.492 4.80032 -2.11352 0
M  V30 6685 H 650.966 5.49256 -0.549693 0
M  V30 6686 H 651.443 4.33712 0.692148 0
M  V30 6687 H 652.049 4.14125 -0.968543 0
M  V30 6688 N 650.364 0.662433 1.43002 0
M  V30 6689 C 651.312 -0.035345 2.32573 0
M  V30 6690 C 652.306 -0.803505 1.49131 0
M  V30 6691 O 653.512 -0.712865 1.65282 0
M  V30 6692 H 649.887 -0.0302194 0.751393 0
M  V30 6693 H 651.858 0.737686 2.89138 0
M  V30 6694 C 650.607 -0.981575 3.33557 0
M  V30 6695 H 649.93 -0.399914 3.97795 0
M  V30 6696 H 651.37 -1.43873 3.98844 0
M  V30 6697 C 649.829 -2.08204 2.64863 0
M  V30 6698 O 650.359 -3.16698 2.47113 0
M  V30 6699 N 648.565 -1.85022 2.24088 0
M  V30 6700 H 648.112 -0.967909 2.38724 0
M  V30 6701 H 648.07 -2.58845 1.78457 0
M  V30 6702 N 651.842 -1.52309 0.404946 0
M  V30 6703 C 653.088 -2.02065 -0.172455 0
M  V30 6704 C 653.421 -1.29022 -1.45145 0
M  V30 6705 O 652.696 -0.395284 -1.90441 0
M  V30 6706 C 652.979 -3.5759 -0.424433 0
M  V30 6707 C 652.832 -4.41287 0.870945 0
M  V30 6708 C 654.151 -4.23186 -1.20837 0
M  V30 6709 H 651.27 -0.734454 -0.0612035 0
M  V30 6710 H 653.912 -1.82236 0.53759 0
M  V30 6711 H 652.062 -3.74617 -1.02929 0
M  V30 6712 H 653.734 -4.3598 1.50729 0
M  V30 6713 H 651.977 -4.07669 1.48284 0
M  V30 6714 H 652.648 -5.48171 0.649083 0
M  V30 6715 H 655.124 -4.10232 -0.696338 0
M  V30 6716 H 654 -5.31953 -1.35343 0
M  V30 6717 H 654.261 -3.81862 -2.22786 0
M  V30 6718 N 653.32 -0.135238 -1.57019 0
M  V30 6719 C 654.731 0.387521 -1.82634 0
M  V30 6720 C 655.082 1.65528 -1.05332 0
M  V30 6721 O 654.207 2.14381 -0.294926 0
M  V30 6722 C 654.802 0.709852 -3.3128 0
M  V30 6723 C 653.361 1.17718 -3.57518 0
M  V30 6724 C 652.508 0.194183 -2.76619 0
M  V30 6725 H 655.459 -0.360126 -1.5456 0
M  V30 6726 H 655.48 1.5657 -3.46794 0
M  V30 6727 H 654.992 -0.213024 -3.87515 0
M  V30 6728 H 653.093 2.1164 -3.06658 0
M  V30 6729 H 653.206 1.11128 -4.66034 0
M  V30 6730 H 651.57 0.684478 -2.4533 0
M  V30 6731 H 652.353 -0.722076 -3.3562 0
M  V30 6732 N 654.798 1.5699 0.138552 0
M  V30 6733 C 656.046 1.83446 0.848053 0
M  V30 6734 C 656.367 0.71744 1.81322 0
M  V30 6735 O 655.637 -0.260228 1.94164 0
M  V30 6736 H 654.217 0.676792 0.316166 0
M  V30 6737 H 656.879 1.94462 0.130538 0
M  V30 6738 H 655.975 2.78677 1.40518 0
M  V30 6739 N 656.276 -0.40816 1.52223 0
M  V30 6740 C 657.553 -1.16807 1.56893 0
M  V30 6741 C 657.933 -2.08169 0.350537 0
M  V30 6742 O 657.281 -2.18684 -0.662536 0
M  V30 6743 C 657.491 -1.94451 2.8981 0
M  V30 6744 C 658.839 -2.50484 3.42845 0
M  V30 6745 O 659.863 -2.0463 2.91556 0
M  V30 6746 O 658.722 -3.34192 4.3241 0
M  V30 6747 H 655.816 -0.533382 0.632007 0
M  V30 6748 H 658.362 -0.414862 1.64551 0
M  V30 6749 H 657.134 -1.27527 3.69936 0
M  V30 6750 H 656.757 -2.76775 2.85449 0
M  V30 6751 N 657.755 -1.42862 -0.66545 0
M  V30 6752 C 658.705 -1.43521 -1.7716 0
M  V30 6753 C 659.689 -0.305267 -1.57978 0
M  V30 6754 O 660.881 -0.548176 -1.68297 0
M  V30 6755 C 658.01 -1.34914 -3.15679 0
M  V30 6756 C 657.096 -2.5289 -3.40452 0
M  V30 6757 N 657.487 -3.78284 -3.3576 0
M  V30 6758 C 655.785 -2.47351 -3.71124 0
M  V30 6759 C 656.486 -4.56701 -3.60276 0
M  V30 6760 N 655.462 -3.87249 -3.81496 0
M  V30 6761 H 659.264 -2.38357 -1.7194 0
M  V30 6762 H 656.778 -1.37342 -0.866653 0
M  V30 6763 H 658.775 -1.33468 -3.94958 0
M  V30 6764 H 657.435 -0.410881 -3.2209 0
M  V30 6765 H 658.446 -4.10746 -3.15448 0
M  V30 6766 H 655.123 -1.62152 -3.84725 0
M  V30 6767 H 656.513 -5.65704 -3.6253 0
M  V30 6768 N 659.233 0.902656 -1.29189 0
M  V30 6769 C 660.18 2.00643 -1.14066 0
M  V30 6770 C 661.15 1.66064 -0.0347756 0
M  V30 6771 O 662.335 1.8973 -0.201752 0
M  V30 6772 C 659.475 3.35214 -0.820104 0
M  V30 6773 C 658.588 3.82594 -2.00614 0
M  V30 6774 C 657.723 5.05727 -1.62522 0
M  V30 6775 C 656.762 5.45469 -2.77724 0
M  V30 6776 N 655.899 6.59789 -2.40048 0
M  V30 6777 H 660.739 2.1291 -2.08502 0
M  V30 6778 H 658.276 1.04271 -1.03759 0
M  V30 6779 H 660.234 4.12643 -0.614949 0
M  V30 6780 H 658.864 3.22682 0.0873452 0
M  V30 6781 H 657.916 3.01226 -2.32308 0
M  V30 6782 H 659.228 4.07999 -2.86946 0
M  V30 6783 H 658.382 5.90732 -1.38277 0
M  V30 6784 H 657.121 4.82155 -0.733333 0
M  V30 6785 H 656.126 4.59 -3.02653 0
M  V30 6786 H 657.351 5.71024 -3.67572 0
M  V30 6787 H 655.297 6.37826 -1.53343 0
M  V30 6788 H 655.214 6.84975 -3.19914 0
M  V30 6789 H 656.482 7.4807 -2.19116 0
M  V30 6790 N 660.711 1.11618 1.11262 0
M  V30 6791 C 661.957 0.867463 1.83311 0
M  V30 6792 C 662.29 -0.605366 1.84524 0
M  V30 6793 O 661.565 -1.44704 1.29965 0
M  V30 6794 C 661.848 1.43207 3.30399 0
M  V30 6795 C 661.701 2.97265 3.3757 0
M  V30 6796 C 663.02 1.08454 4.26528 0
M  V30 6797 H 660.139 0.316578 0.665543 0
M  V30 6798 H 662.781 1.38137 1.30454 0
M  V30 6799 H 660.931 0.994982 3.75543 0
M  V30 6800 H 662.603 3.49591 3.00971 0
M  V30 6801 H 660.846 3.33237 2.77733 0
M  V30 6802 H 661.517 3.31859 4.41105 0
M  V30 6803 H 663.993 1.4619 3.89574 0
M  V30 6804 H 662.869 1.50633 5.27826 0
M  V30 6805 H 663.13 -0.00444568 4.421 0
M  V30 6806 N 662.189 -1.289 0.906776 0
M  V30 6807 C 663.417 -1.99401 0.551969 0
M  V30 6808 C 663.832 -1.67816 -0.865048 0
M  V30 6809 O 663.189 -0.927078 -1.57199 0
M  V30 6810 C 663.24 -3.53779 0.743152 0
M  V30 6811 O 662.961 -3.84248 2.1044 0
M  V30 6812 C 664.462 -4.41543 0.39424 0
M  V30 6813 H 661.682 -0.636926 0.211106 0
M  V30 6814 H 664.226 -1.64266 1.21807 0
M  V30 6815 H 662.381 -3.87201 0.124143 0
M  V30 6816 H 662.795 -4.78904 2.13895 0
M  V30 6817 H 664.269 -5.48957 0.578814 0
M  V30 6818 H 664.746 -4.34073 -0.669137 0
M  V30 6819 H 665.352 -4.13605 0.990491 0
M  V30 6820 N 663.667 -0.670007 -1.42649 0
M  V30 6821 C 664.913 -0.190568 -2.01903 0
M  V30 6822 C 665.246 1.19817 -1.52832 0
M  V30 6823 O 664.521 1.80342 -0.728485 0
M  V30 6824 C 664.804 -0.21991 -3.59428 0
M  V30 6825 C 664.657 -1.64376 -4.18689 0
M  V30 6826 C 665.976 0.434519 -4.3795 0
M  V30 6827 H 663.095 -0.0707219 -0.733599 0
M  V30 6828 H 665.737 -0.853883 -1.69732 0
M  V30 6829 H 663.887 0.344894 -3.86966 0
M  V30 6830 H 665.559 -2.26044 -4.02122 0
M  V30 6831 H 663.802 -2.18591 -3.747 0
M  V30 6832 H 664.473 -1.61601 -5.27815 0
M  V30 6833 H 666.949 -0.0462156 -4.16074 0
M  V30 6834 H 665.825 0.38333 -5.4756 0
M  V30 6835 H 666.086 1.51135 -4.15464 0
M  V30 6836 N 665.145 1.52092 -0.413018 0
M  V30 6837 C 666.055 2.30858 0.417318 0
M  V30 6838 C 667.071 1.38746 1.05003 0
M  V30 6839 O 668.247 1.71821 1.05069 0
M  V30 6840 C 665.312 3.11756 1.51687 0
M  V30 6841 C 664.373 4.19613 0.906825 0
M  V30 6842 C 663.606 4.96644 1.95399 0
M  V30 6843 O 663.829 4.7402 3.17271 0
M  V30 6844 O 662.763 5.81385 1.55805 0
M  V30 6845 H 666.589 3.02865 -0.225028 0
M  V30 6846 H 664.174 1.48358 -0.176126 0
M  V30 6847 H 666.056 3.62122 2.15512 0
M  V30 6848 H 664.731 2.42539 2.14375 0
M  V30 6849 H 663.638 3.73385 0.231183 0
M  V30 6850 H 664.971 4.91134 0.323814 0
M  V30 6851 N 666.623 0.143563 1.56945 0
M  V30 6852 C 667.869 -0.50916 1.96304 0
M  V30 6853 C 668.202 -1.64741 1.0283 0
M  V30 6854 O 667.477 -1.94374 0.0700361 0
M  V30 6855 C 667.76 -1.0186 3.45393 0
M  V30 6856 C 667.613 0.117923 4.49645 0
M  V30 6857 C 668.932 -1.90151 3.96901 0
M  V30 6858 H 666.051 -0.183608 0.713763 0
M  V30 6859 H 668.693 0.224095 1.88674 0
M  V30 6860 H 666.843 -1.64345 3.52027 0
M  V30 6861 H 668.515 0.754145 4.55094 0
M  V30 6862 H 666.758 0.777568 4.26774 0
M  V30 6863 H 667.429 -0.280187 5.51288 0
M  V30 6864 H 669.905 -1.375 3.92725 0
M  V30 6865 H 668.781 -2.22707 5.0169 0
M  V30 6866 H 669.042 -2.83718 3.39052 0
M  V30 6867 N 668.101 -1.57061 -0.130224 0
M  V30 6868 C 669.329 -1.88432 -0.854456 0
M  V30 6869 C 669.744 -0.733608 -1.73964 0
M  V30 6870 O 669.101 0.296029 -1.80083 0
M  V30 6871 C 669.152 -3.1918 -1.69724 0
M  V30 6872 O 668.873 -4.2982 -0.847705 0
M  V30 6873 C 670.374 -3.6418 -2.5276 0
M  V30 6874 H 667.594 -0.624193 -0.246221 0
M  V30 6875 H 670.138 -2.04159 -0.11798 0
M  V30 6876 H 668.293 -3.05156 -2.3866 0
M  V30 6877 H 668.707 -5.04689 -1.42792 0
M  V30 6878 H 670.181 -4.58457 -3.07443 0
M  V30 6879 H 670.658 -2.90285 -3.29592 0
M  V30 6880 H 671.264 -3.80954 -1.89087 0
M  V30 6881 N 669.579 0.400081 -1.52437 0
M  V30 6882 C 670.809 1.16598 -1.70553 0
M  V30 6883 C 671.217 1.8451 -0.418665 0
M  V30 6884 O 670.56 1.73069 0.615855 0
M  V30 6885 C 670.622 2.26517 -2.7916 0
M  V30 6886 C 670.286 1.78666 -4.20628 0
M  V30 6887 C 671.283 1.26946 -5.04163 0
M  V30 6888 C 668.968 1.85225 -4.66902 0
M  V30 6889 C 670.962 0.824187 -6.32049 0
M  V30 6890 C 668.649 1.40309 -5.94774 0
M  V30 6891 C 669.647 0.889922 -6.77178 0
M  V30 6892 O 669.335 0.447281 -8.02655 0
M  V30 6893 H 669.067 0.356023 -0.574651 0
M  V30 6894 H 671.621 0.475598 -1.99818 0
M  V30 6895 H 669.851 2.98946 -2.45292 0
M  V30 6896 H 671.54 2.88237 -2.85787 0
M  V30 6897 H 672.306 1.21244 -4.69601 0
M  V30 6898 H 668.185 2.24111 -4.02859 0
M  V30 6899 H 671.729 0.422958 -6.96317 0
M  V30 6900 H 667.626 1.45693 -6.28843 0
M  V30 6901 H 668.394 0.569768 -8.16514 0
M  V30 6902 N 671.057 1.43213 0.657864 0
M  V30 6903 C 672.468 1.39669 1.23893 0
M  V30 6904 C 672.819 0.0984217 1.95953 0
M  V30 6905 O 671.944 -0.8023 2.00978 0
M  V30 6906 C 672.539 2.53004 2.25332 0
M  V30 6907 C 671.098 2.5274 2.78926 0
M  V30 6908 C 670.245 2.30941 1.53497 0
M  V30 6909 H 673.196 1.52181 0.450172 0
M  V30 6910 H 673.217 2.24226 3.07413 0
M  V30 6911 H 672.729 3.4748 1.72856 0
M  V30 6912 H 670.83 1.6213 3.35477 0
M  V30 6913 H 670.943 3.50352 3.26787 0
M  V30 6914 H 669.307 1.7952 1.80678 0
M  V30 6915 H 670.09 3.27496 1.02963 0
M  V30 6916 N 672.536 -0.895792 1.29666 0
M  V30 6917 C 673.813 -1.62723 1.08538 0
M  V30 6918 C 674.193 -2.07848 -0.369119 0
M  V30 6919 O 673.541 -1.8372 -1.35864 0
M  V30 6920 C 673.751 -2.80505 2.07648 0
M  V30 6921 C 675.099 -3.51098 2.3878 0
M  V30 6922 O 676.123 -2.90679 2.05874 0
M  V30 6923 O 674.982 -4.60028 2.9502 0
M  V30 6924 H 672.076 -0.714692 0.416106 0
M  V30 6925 H 674.622 -0.943517 1.41053 0
M  V30 6926 H 673.394 -2.44386 3.05599 0
M  V30 6927 H 673.017 -3.5658 1.75887 0
M  V30 6928 N 674.014 -1.12206 -1.10668 0
M  V30 6929 C 675.262 -0.874144 -1.82217 0
M  V30 6930 C 675.583 0.601736 -1.85484 0
M  V30 6931 O 674.853 1.43725 -1.33116 0
M  V30 6932 H 673.433 -0.320404 -0.674797 0
M  V30 6933 H 676.095 -1.41606 -1.33917 0
M  V30 6934 H 675.191 -1.25349 -2.85822 0
M  V30 6935 N 675.492 1.28418 -0.913599 0
M  V30 6936 C 676.72 1.99106 -0.562536 0
M  V30 6937 C 677.135 1.68273 0.856137 0
M  V30 6938 O 676.492 0.935401 1.56705 0
M  V30 6939 C 676.543 3.5338 -0.761903 0
M  V30 6940 O 676.264 3.83127 -2.12475 0
M  V30 6941 C 677.765 4.41328 -0.417651 0
M  V30 6942 H 674.985 0.635798 -0.214481 0
M  V30 6943 H 677.529 1.63618 -1.22676 0
M  V30 6944 H 675.684 3.8713 -0.144676 0
M  V30 6945 H 676.098 4.77763 -2.16431 0
M  V30 6946 H 677.572 5.48642 -0.607919 0
M  V30 6947 H 678.049 4.34422 0.646108 0
M  V30 6948 H 678.655 4.13074 -1.01241 0
M  V30 6949 N 676.97 0.677563 1.42291 0
M  V30 6950 C 677.917 0.000947061 2.308 0
M  V30 6951 C 678.887 -0.789889 1.46116 0
M  V30 6952 O 680.072 -0.761578 1.74942 0
M  V30 6953 C 677.212 -0.942387 3.31984 0
M  V30 6954 C 676.325 -0.14508 4.31756 0
M  V30 6955 C 675.46 -1.08442 5.20013 0
M  V30 6956 C 674.499 -0.278958 6.11464 0
M  V30 6957 N 673.636 -1.17115 6.92263 0
M  V30 6958 H 678.476 0.761521 2.88106 0
M  V30 6959 H 676.013 0.38727 1.41911 0
M  V30 6960 H 677.971 -1.50317 3.89179 0
M  V30 6961 H 676.601 -1.66956 2.76271 0
M  V30 6962 H 675.653 0.532368 3.76656 0
M  V30 6963 H 676.965 0.48015 4.96484 0
M  V30 6964 H 676.119 -1.71504 5.81955 0
M  V30 6965 H 674.858 -1.74353 4.55469 0
M  V30 6966 H 673.863 0.364856 5.48588 0
M  V30 6967 H 675.088 0.376099 6.78058 0
M  V30 6968 H 673.034 -1.81661 6.30345 0
M  V30 6969 H 672.951 -0.601063 7.53607 0
M  V30 6970 H 674.219 -1.78915 7.58689 0
M  V30 6971 N 678.448 -1.51871 0.421078 0
M  V30 6972 C 679.725 -1.9447 -0.20993 0
M  V30 6973 C 680.105 -1.35875 -1.61558 0
M  V30 6974 O 679.453 -0.539294 -2.22045 0
M  V30 6975 C 679.663 -3.48402 -0.204165 0
M  V30 6976 C 681.011 -4.2254 -0.417696 0
M  V30 6977 O 682.035 -3.55074 -0.282999 0
M  V30 6978 O 680.894 -5.422 -0.684239 0
M  V30 6979 H 677.988 -0.815283 -0.138718 0
M  V30 6980 H 680.534 -1.62832 0.477884 0
M  V30 6981 H 679.306 -3.83464 0.779183 0
M  V30 6982 H 678.929 -3.86436 -0.935576 0
M  V30 6983 N 679.926 -0.151884 -1.56866 0
M  V30 6984 C 681.154 0.504813 -2.00647 0
M  V30 6985 C 681.569 1.58098 -1.03201 0
M  V30 6986 O 680.926 1.82476 -0.0297814 0
M  V30 6987 C 680.977 1.10099 -3.44326 0
M  V30 6988 O 680.698 0.0678021 -4.38048 0
M  V30 6989 C 682.199 1.83782 -4.03409 0
M  V30 6990 H 679.419 0.130989 -0.65809 0
M  V30 6991 H 681.963 -0.247903 -2.02992 0
M  V30 6992 H 680.118 1.8043 -3.42817 0
M  V30 6993 H 680.532 0.505237 -5.22061 0
M  V30 6994 H 682.006 2.2078 -5.05925 0
M  V30 6995 H 682.483 2.72557 -3.44397 0
M  V30 6996 H 683.089 1.18138 -4.08563 0
M  V30 6997 N 681.404 1.57128 0.121893 0
M  V30 6998 C 682.65 1.84974 0.831418 0
M  V30 6999 C 682.983 0.737204 1.79663 0
M  V30 7000 O 682.258 -0.257199 1.92792 0
M  V30 7001 C 682.541 3.23397 1.58386 0
M  V30 7002 C 682.394 4.45246 0.638445 0
M  V30 7003 C 683.713 3.59355 2.54071 0
M  V30 7004 H 680.832 0.67282 0.300803 0
M  V30 7005 H 683.474 1.89759 0.0957587 0
M  V30 7006 H 681.624 3.19449 2.21098 0
M  V30 7007 H 683.296 4.61295 0.0203925 0
M  V30 7008 H 681.539 4.33771 -0.05023 0
M  V30 7009 H 682.21 5.38765 1.20151 0
M  V30 7010 H 684.686 3.64075 2.01465 0
M  V30 7011 H 683.562 4.57193 3.03752 0
M  V30 7012 H 683.823 2.86622 3.36601 0
M  V30 7013 N 682.882 -0.391992 1.52647 0
M  V30 7014 C 683.792 -1.503 1.80131 0
M  V30 7015 C 684.808 -1.59825 0.687882 0
M  V30 7016 O 685.984 -1.76218 0.975149 0
M  V30 7017 C 683.049 -2.85863 1.96171 0
M  V30 7018 C 682.11 -2.86084 3.20085 0
M  V30 7019 C 681.343 -4.15181 3.35351 0
M  V30 7020 O 681.566 -5.09981 2.55491 0
M  V30 7021 O 680.5 -4.22603 4.28591 0
M  V30 7022 H 684.326 -1.30007 2.74466 0
M  V30 7023 H 681.911 -0.579539 1.37701 0
M  V30 7024 H 683.793 -3.66236 2.08445 0
M  V30 7025 H 682.468 -3.06189 1.05025 0
M  V30 7026 H 681.375 -2.04504 3.13256 0
M  V30 7027 H 682.708 -2.7071 4.11068 0
M  V30 7028 N 684.36 -1.4356 -0.65026 0
M  V30 7029 C 685.606 -1.45549 -1.41221 0
M  V30 7030 C 685.939 -0.0805472 -1.94033 0
M  V30 7031 O 685.214 0.899043 -1.72475 0
M  V30 7032 C 685.497 -2.50028 -2.59148 0
M  V30 7033 C 685.35 -3.96808 -2.1181 0
M  V30 7034 C 686.669 -2.51212 -3.61359 0
M  V30 7035 H 683.788 -0.529967 -0.512156 0
M  V30 7036 H 686.43 -1.75127 -0.736933 0
M  V30 7037 H 684.58 -2.24937 -3.16758 0
M  V30 7038 H 686.252 -4.32966 -1.59178 0
M  V30 7039 H 684.495 -4.09498 -1.43156 0
M  V30 7040 H 685.166 -4.6553 -2.96625 0
M  V30 7041 H 687.642 -2.73583 -3.13515 0
M  V30 7042 H 686.518 -3.26252 -4.41419 0
M  V30 7043 H 686.779 -1.54701 -4.1415 0
M  V30 7044 N 685.838 0.888903 -1.30139 0
M  V30 7045 C 687.066 1.67358 -1.21651 0
M  V30 7046 C 687.481 1.87499 0.221246 0
M  V30 7047 O 686.838 1.41969 1.14677 0
M  V30 7048 C 686.889 3.05213 -1.93719 0
M  V30 7049 O 686.61 2.85984 -3.31881 0
M  V30 7050 C 688.111 3.9964 -1.9184 0
M  V30 7051 H 685.331 0.522365 -0.42116 0
M  V30 7052 H 687.875 1.11086 -1.71698 0
M  V30 7053 H 686.03 3.5823 -1.4748 0
M  V30 7054 H 686.444 3.73411 -3.68327 0
M  V30 7055 H 687.918 4.93749 -2.46811 0
M  V30 7056 H 688.395 4.29955 -0.896409 0
M  V30 7057 H 689.001 3.52558 -2.37872 0
M  V30 7058 N 687.317 1.12792 1.10072 0
M  V30 7059 C 688.563 0.886857 1.82381 0
M  V30 7060 C 688.896 -0.58576 1.85155 0
M  V30 7061 O 688.171 -1.43317 1.31493 0
M  V30 7062 C 688.454 1.46703 3.28862 0
M  V30 7063 C 688.307 3.00829 3.34398 0
M  V30 7064 C 689.626 1.12971 4.25353 0
M  V30 7065 H 686.745 0.32362 0.662148 0
M  V30 7066 H 689.387 1.39513 1.28982 0
M  V30 7067 H 687.537 1.03476 3.74466 0
M  V30 7068 H 689.209 3.52764 2.97247 0
M  V30 7069 H 687.452 3.36164 2.74183 0
M  V30 7070 H 688.123 3.36519 4.3756 0
M  V30 7071 H 690.599 1.50313 3.88001 0
M  V30 7072 H 689.475 1.56223 5.26199 0
M  V30 7073 H 689.736 0.0424452 4.4208 0
M  V30 7074 N 688.795 -1.27931 0.920396 0
M  V30 7075 C 689.745 -2.24727 0.384966 0
M  V30 7076 C 690.729 -1.52715 -0.506661 0
M  V30 7077 O 691.921 -1.73599 -0.345298 0
M  V30 7078 C 689.05 -3.41324 -0.3678 0
M  V30 7079 C 688.136 -4.20649 0.539925 0
M  V30 7080 N 688.527 -4.77906 1.6565 0
M  V30 7081 C 686.825 -4.4469 0.341557 0
M  V30 7082 C 687.526 -5.37652 2.22047 0
M  V30 7083 N 686.502 -5.2218 1.51093 0
M  V30 7084 H 690.304 -2.66572 1.23761 0
M  V30 7085 H 687.818 -1.42779 0.773819 0
M  V30 7086 H 689.815 -4.0976 -0.768277 0
M  V30 7087 H 688.475 -3.01012 -1.21746 0
M  V30 7088 H 689.486 -4.76073 2.03899 0
M  V30 7089 H 686.163 -4.14868 -0.468045 0
M  V30 7090 H 687.553 -5.92948 3.1601 0
M  V30 7091 N 690.273 -0.685099 -1.4193 0
M  V30 7092 C 691.519 -0.211971 -2.01689 0
M  V30 7093 C 691.852 1.18189 -1.54094 0
M  V30 7094 O 691.127 1.79559 -0.747572 0
M  V30 7095 C 691.41 -0.258019 -3.59174 0
M  V30 7096 C 691.263 -1.68807 -4.16922 0
M  V30 7097 C 692.582 0.388044 -4.38386 0
M  V30 7098 H 689.701 -0.0784987 -0.732808 0
M  V30 7099 H 692.343 -0.871837 -1.68816 0
M  V30 7100 H 690.493 0.303832 -3.8731 0
M  V30 7101 H 692.165 -2.30296 -3.99702 0
M  V30 7102 H 690.408 -2.22553 -3.72361 0
M  V30 7103 H 691.079 -1.6719 -5.26072 0
M  V30 7104 H 693.555 -0.0903432 -4.16002 0
M  V30 7105 H 692.431 0.325232 -5.47936 0
M  V30 7106 H 692.692 1.4672 -4.17044 0
M  V30 7107 N 691.751 1.51645 -0.429126 0
M  V30 7108 C 692.979 2.06433 0.138994 0
M  V30 7109 C 693.394 1.29735 1.37165 0
M  V30 7110 O 692.751 0.354638 1.79021 0
M  V30 7111 C 692.802 3.58439 0.469452 0
M  V30 7112 O 692.523 4.32238 -0.714273 0
M  V30 7113 C 694.024 4.29712 1.08914 0
M  V30 7114 H 691.244 0.6709 0.0115608 0
M  V30 7115 H 693.788 1.9532 -0.605843 0
M  V30 7116 H 691.943 3.69494 1.16419 0
M  V30 7117 H 692.357 5.22704 -0.433633 0
M  V30 7118 H 693.831 5.37182 1.27042 0
M  V30 7119 H 694.308 3.87473 2.06788 0
M  V30 7120 H 694.914 4.2308 0.434028 0
M  V30 7121 N 693.229 0.160201 1.56784 0
M  V30 7122 C 694.64 -0.358417 1.83227 0
M  V30 7123 C 694.991 -1.63831 1.07952 0
M  V30 7124 O 694.116 -2.13885 0.328995 0
M  V30 7125 C 694.711 -0.657058 3.32368 0
M  V30 7126 C 693.27 -1.12015 3.59346 0
M  V30 7127 C 692.417 -0.15015 2.76893 0
M  V30 7128 H 695.368 0.384669 1.53967 0
M  V30 7129 H 695.389 -1.51033 3.49241 0
M  V30 7130 H 694.901 0.274647 3.87127 0
M  V30 7131 H 693.002 -2.06734 3.09987 0
M  V30 7132 H 693.115 -1.037 4.67743 0
M  V30 7133 H 691.479 -0.645361 2.46388 0
M  V30 7134 H 692.262 0.775379 3.34429 0
M  V30 7135 N 694.707 -1.5719 -0.113559 0
M  V30 7136 C 695.654 -2.00736 -1.13901 0
M  V30 7137 C 696.624 -0.88044 -1.40846 0
M  V30 7138 O 697.809 -1.14507 -1.5262 0
M  V30 7139 C 694.949 -2.42132 -2.45899 0
M  V30 7140 C 694.062 -3.68264 -2.25844 0
M  V30 7141 C 693.197 -3.98617 -3.5111 0
M  V30 7142 C 692.236 -5.17915 -3.26236 0
M  V30 7143 N 691.373 -5.44111 -4.4372 0
M  V30 7144 H 696.213 -2.88128 -0.760677 0
M  V30 7145 H 693.75 -1.42523 -0.364099 0
M  V30 7146 H 695.708 -2.6417 -3.22908 0
M  V30 7147 H 694.338 -1.57775 -2.81615 0
M  V30 7148 H 693.39 -3.53809 -1.39726 0
M  V30 7149 H 694.702 -4.55425 -2.03444 0
M  V30 7150 H 693.856 -4.21333 -4.36536 0
M  V30 7151 H 692.595 -3.09942 -3.76546 0
M  V30 7152 H 691.6 -4.95038 -2.39202 0
M  V30 7153 H 692.825 -6.08172 -3.02165 0
M  V30 7154 H 690.771 -4.58394 -4.69266 0
M  V30 7155 H 690.688 -6.25606 -4.24444 0
M  V30 7156 H 691.956 -5.71351 -5.30263 0
M  V30 7157 N 696.185 0.383891 -1.52853 0
M  V30 7158 C 697.596 0.961591 -1.60032 0
M  V30 7159 C 697.947 1.90819 -0.456333 0
M  V30 7160 O 697.072 2.12288 0.419873 0
M  V30 7161 C 697.667 1.75078 -2.90057 0
M  V30 7162 C 696.226 2.2781 -2.99632 0
M  V30 7163 C 695.373 1.08512 -2.55187 0
M  V30 7164 H 698.324 0.163269 -1.57858 0
M  V30 7165 H 698.345 2.61046 -2.7683 0
M  V30 7166 H 697.857 1.06157 -3.73299 0
M  V30 7167 H 695.958 3.00028 -2.20939 0
M  V30 7168 H 696.071 2.56947 -4.0437 0
M  V30 7169 H 694.435 1.44667 -2.09627 0
M  V30 7170 H 695.218 0.41118 -3.40829 0
M  V30 7171 N 697.663 1.43903 0.642637 0
M  V30 7172 C 698.909 1.46296 1.40447 0
M  V30 7173 C 699.242 0.0908361 1.93987 0
M  V30 7174 O 698.517 -0.889884 1.72949 0
M  V30 7175 C 698.8 2.51399 2.57819 0
M  V30 7176 C 698.653 3.97926 2.09702 0
M  V30 7177 C 699.972 2.53125 3.60022 0
M  V30 7178 H 697.091 0.532676 0.509338 0
M  V30 7179 H 699.733 1.75515 0.727635 0
M  V30 7180 H 697.883 2.26614 3.1556 0
M  V30 7181 H 699.555 4.33804 1.5688 0
M  V30 7182 H 697.798 4.10252 1.40982 0
M  V30 7183 H 698.469 4.67096 2.94152 0
M  V30 7184 H 700.945 2.75242 3.12059 0
M  V30 7185 H 699.821 3.28589 4.39682 0
M  V30 7186 H 700.082 1.56895 4.13324 0
M  V30 7187 N 699.141 -0.881989 1.30609 0
M  V30 7188 C 700.552 -1.44956 1.17664 0
M  V30 7189 C 700.903 -1.94945 -0.221531 0
M  V30 7190 O 700.028 -1.85257 -1.11844 0
M  V30 7191 C 700.623 -2.63474 2.12995 0
M  V30 7192 C 699.182 -3.16312 2.04019 0
M  V30 7193 C 698.329 -1.89008 2.02907 0
M  V30 7194 H 701.28 -0.691645 1.42835 0
M  V30 7195 H 701.301 -3.39783 1.71253 0
M  V30 7196 H 700.813 -2.2706 3.14746 0
M  V30 7197 H 698.914 -3.57376 1.0542 0
M  V30 7198 H 699.027 -3.79409 2.9255 0
M  V30 7199 H 697.391 -2.07465 1.47751 0
M  V30 7200 H 698.174 -1.54848 3.06394 0
M  V30 7201 N 700.619 -1.13374 -1.09472 0
M  V30 7202 C 701.896 -0.806329 -1.78207 0
M  V30 7203 C 702.276 0.702191 -1.99079 0
M  V30 7204 O 701.624 1.63931 -1.59182 0
M  V30 7205 C 701.834 -1.59271 -3.10538 0
M  V30 7206 C 703.182 -1.78509 -3.85253 0
M  V30 7207 O 704.206 -1.55866 -3.20288 0
M  V30 7208 O 703.065 -2.16287 -5.01879 0
M  V30 7209 H 700.159 -0.29435 -0.772843 0
M  V30 7210 H 702.705 -1.23833 -1.16033 0
M  V30 7211 H 701.477 -2.61792 -2.90828 0
M  V30 7212 H 701.1 -1.15562 -3.80436 0
M  V30 7213 N 702.098 1.27442 -0.927168 0
M  V30 7214 C 703.045 2.26863 -0.424459 0
M  V30 7215 C 704.015 1.5813 0.508346 0
M  V30 7216 O 705.2 1.85946 0.42762 0
M  V30 7217 C 702.34 3.43639 0.31718 0
M  V30 7218 C 701.453 4.27087 -0.649675 0
M  V30 7219 C 700.588 5.31082 0.111753 0
M  V30 7220 C 699.627 6.062 -0.847843 0
M  V30 7221 N 698.764 7.01999 -0.119074 0
M  V30 7222 H 703.604 2.69239 -1.27728 0
M  V30 7223 H 701.141 1.32394 -0.641106 0
M  V30 7224 H 703.099 4.10155 0.763486 0
M  V30 7225 H 701.729 3.02217 1.13424 0
M  V30 7226 H 700.781 3.60491 -1.21451 0
M  V30 7227 H 702.093 4.79242 -1.38307 0
M  V30 7228 H 701.247 6.03544 0.618 0
M  V30 7229 H 699.986 4.7973 0.878114 0
M  V30 7230 H 698.991 5.32577 -1.36534 0
M  V30 7231 H 700.216 6.59642 -1.61398 0
M  V30 7232 H 698.162 6.52977 0.629051 0
M  V30 7233 H 698.079 7.5184 -0.792046 0
M  V30 7234 H 699.347 7.78638 0.366537 0
M  V30 7235 N 703.576 0.692616 1.41565 0
M  V30 7236 C 704.853 0.150496 1.9502 0
M  V30 7237 C 705.233 -1.33881 1.63215 0
M  V30 7238 O 704.581 -2.08378 0.937598 0
M  V30 7239 C 704.791 0.438636 3.46233 0
M  V30 7240 C 706.139 0.364777 4.2303 0
M  V30 7241 O 707.163 0.373383 3.54238 0
M  V30 7242 O 706.022 0.32234 5.45549 0
M  V30 7243 H 703.116 0.0132454 0.826894 0
M  V30 7244 H 705.662 0.768574 1.51298 0
M  V30 7245 H 704.434 1.46962 3.62654 0
M  V30 7246 H 704.057 -0.210562 3.97042 0
M  V30 7247 N 705.054 -1.51416 0.437162 0
M  V30 7248 C 706.001 -2.27743 -0.374374 0
M  V30 7249 C 706.971 -1.31327 -1.01698 0
M  V30 7250 O 708.156 -1.60229 -1.03592 0
M  V30 7251 C 705.296 -3.12241 -1.46969 0
M  V30 7252 C 704.409 -4.23651 -0.845236 0
M  V30 7253 C 703.544 -4.95458 -1.91559 0
M  V30 7254 C 702.583 -5.98789 -1.26956 0
M  V30 7255 N 701.72 -6.64005 -2.28126 0
M  V30 7256 H 706.56 -2.96654 0.282892 0
M  V30 7257 H 704.097 -1.46319 0.151352 0
M  V30 7258 H 706.055 -3.59556 -2.11602 0
M  V30 7259 H 704.685 -2.45445 -2.09659 0
M  V30 7260 H 703.737 -3.803 -0.0872059 0
M  V30 7261 H 705.049 -4.97683 -0.333582 0
M  V30 7262 H 704.203 -5.46321 -2.63854 0
M  V30 7263 H 702.942 -4.21055 -2.46097 0
M  V30 7264 H 701.947 -5.47219 -0.53207 0
M  V30 7265 H 703.172 -6.75149 -0.731509 0
M  V30 7266 H 701.118 -5.92415 -2.81745 0
M  V30 7267 H 701.035 -7.33802 -1.81852 0
M  V30 7268 H 702.303 -7.19498 -2.99905 0
M  V30 7269 N 706.532 -0.168513 -1.56696 0
M  V30 7270 C 707.762 0.482802 -2.0088 0
M  V30 7271 C 708.17 1.57537 -1.0478 0
M  V30 7272 O 707.513 1.83656 -0.0402746 0
M  V30 7273 C 707.575 1.1236 -3.4149 0
M  V30 7274 C 707.239 0.173027 -4.56672 0
M  V30 7275 C 708.236 -0.607565 -5.16338 0
M  V30 7276 C 705.921 0.0696691 -5.02252 0
M  V30 7277 C 707.915 -1.47874 -6.2001 0
M  V30 7278 C 705.602 -0.805096 -6.05773 0
M  V30 7279 C 706.6 -1.57789 -6.64524 0
M  V30 7280 O 706.288 -2.43804 -7.66038 0
M  V30 7281 H 706.02 0.128246 -0.663723 0
M  V30 7282 H 708.574 -0.266532 -2.03663 0
M  V30 7283 H 706.804 1.921 -3.35611 0
M  V30 7284 H 708.493 1.67683 -3.69645 0
M  V30 7285 H 709.259 -0.53787 -4.82008 0
M  V30 7286 H 705.138 0.660957 -4.56237 0
M  V30 7287 H 708.682 -2.0824 -6.65794 0
M  V30 7288 H 704.579 -0.876005 -6.39528 0
M  V30 7289 H 705.347 -2.37289 -7.83349 0
M  V30 7290 N 708.01 1.57248 0.105221 0
M  V30 7291 C 709.287 1.76566 0.841647 0
M  V30 7292 C 709.667 0.747566 1.9742 0
M  V30 7293 O 709.015 -0.225886 2.27381 0
M  V30 7294 C 709.225 3.22016 1.3456 0
M  V30 7295 C 710.573 3.84911 1.79244 0
M  V30 7296 O 711.597 3.25703 1.44207 0
M  V30 7297 O 710.456 4.89008 2.43995 0
M  V30 7298 H 707.55 0.723443 0.400698 0
M  V30 7299 H 710.096 1.69472 0.0878893 0
M  V30 7300 H 708.868 3.87644 0.533685 0
M  V30 7301 H 708.491 3.33703 2.16167 0
M  V30 7302 N 709.488 -0.375779 1.53054 0
M  V30 7303 C 710.899 -0.95309 1.6054 0
M  V30 7304 C 711.25 -1.90575 0.466446 0
M  V30 7305 O 710.375 -2.12507 -0.408609 0
M  V30 7306 C 710.97 -1.73537 2.90982 0
M  V30 7307 C 709.529 -2.26218 3.00836 0
M  V30 7308 C 708.676 -1.07157 2.55759 0
M  V30 7309 H 711.627 -0.154895 1.57942 0
M  V30 7310 H 711.648 -2.59574 2.78211 0
M  V30 7311 H 711.16 -1.04176 3.73857 0
M  V30 7312 H 709.261 -2.98852 2.22527 0
M  V30 7313 H 709.374 -2.54799 4.05727 0
M  V30 7314 H 707.738 -1.43553 2.10391 0
M  V30 7315 H 708.521 -0.393099 3.41042 0
M  V30 7316 N 710.966 -1.44241 -0.634997 0
M  V30 7317 C 712.194 -1.50296 -1.42193 0
M  V30 7318 C 712.609 -0.12658 -1.88375 0
M  V30 7319 O 711.966 0.86678 -1.60603 0
M  V30 7320 C 712.017 -2.46437 -2.64482 0
M  V30 7321 O 711.738 -3.78724 -2.20226 0
M  V30 7322 C 713.239 -2.61918 -3.57651 0
M  V30 7323 H 710.459 -0.509865 -0.43621 0
M  V30 7324 H 713.003 -1.89167 -0.776921 0
M  V30 7325 H 711.158 -2.10712 -3.25083 0
M  V30 7326 H 711.572 -4.30595 -2.9948 0
M  V30 7327 H 713.046 -3.33225 -4.40074 0
M  V30 7328 H 713.523 -1.67017 -4.06204 0
M  V30 7329 H 714.129 -2.98528 -3.02921 0
M  V30 7330 N 712.444 0.87505 -1.31075 0
M  V30 7331 C 713.692 1.62447 -1.20231 0
M  V30 7332 C 714.013 1.93506 0.240888 0
M  V30 7333 O 713.283 1.57847 1.16022 0
M  V30 7334 H 711.863 0.602207 -0.441991 0
M  V30 7335 H 714.525 1.04788 -1.64334 0
M  V30 7336 H 713.621 2.57031 -1.77036 0
M  V30 7337 N 713.922 1.13953 1.08869 0
M  V30 7338 C 715.17 0.903023 1.80803 0
M  V30 7339 C 715.491 -0.572151 1.86417 0
M  V30 7340 O 714.761 -1.41589 1.35386 0
M  V30 7341 H 713.341 0.331099 0.669614 0
M  V30 7342 H 716.003 1.43719 1.31647 0
M  V30 7343 H 715.099 1.29881 2.83791 0
M  V30 7344 N 715.4 -1.26948 0.933913 0
M  V30 7345 C 716.31 -2.30366 0.443671 0
M  V30 7346 C 717.326 -1.67284 -0.478745 0
M  V30 7347 O 718.502 -1.98156 -0.360043 0
M  V30 7348 C 715.567 -3.45485 -0.289974 0
M  V30 7349 C 714.628 -4.24069 0.668114 0
M  V30 7350 C 713.861 -5.33691 -0.0306138 0
M  V30 7351 O 714.084 -5.5656 -1.24888 0
M  V30 7352 O 713.018 -5.98441 0.644384 0
M  V30 7353 H 716.844 -2.74349 1.30254 0
M  V30 7354 H 714.429 -1.32012 0.699506 0
M  V30 7355 H 716.311 -4.15486 -0.70353 0
M  V30 7356 H 714.986 -3.03546 -1.12435 0
M  V30 7357 H 713.893 -3.56579 1.13147 0
M  V30 7358 H 715.226 -4.69739 1.46989 0
M  V30 7359 N 716.879 -0.700114 -1.41195 0
M  V30 7360 C 718.107 -0.242179 -2.05478 0
M  V30 7361 C 718.522 1.11029 -1.52702 0
M  V30 7362 O 717.879 1.69473 -0.677127 0
M  V30 7363 C 717.93 -0.196271 -3.60967 0
M  V30 7364 O 717.651 -1.49532 -4.11791 0
M  V30 7365 C 719.152 0.282102 -4.42401 0
M  V30 7366 H 716.372 -0.111749 -0.661629 0
M  V30 7367 H 718.916 -0.953975 -1.80885 0
M  V30 7368 H 717.071 0.46638 -3.84582 0
M  V30 7369 H 717.485 -1.38545 -5.05871 0
M  V30 7370 H 718.959 0.263093 -5.51373 0
M  V30 7371 H 719.436 1.32174 -4.1884 0
M  V30 7372 H 720.042 -0.349712 -4.2386 0
M  V30 7373 N 718.357 1.51182 -0.445186 0
M  V30 7374 C 719.585 2.06568 0.117091 0
M  V30 7375 C 720 1.31182 1.35781 0
M  V30 7376 O 719.357 0.373605 1.78635 0
M  V30 7377 C 719.408 3.58917 0.431408 0
M  V30 7378 O 719.129 4.31456 -0.760078 0
M  V30 7379 C 720.63 4.30843 1.0435 0
M  V30 7380 H 717.85 0.670985 0.00444436 0
M  V30 7381 H 720.394 1.94666 -0.626525 0
M  V30 7382 H 718.549 3.70708 1.12493 0
M  V30 7383 H 718.963 5.22215 -0.489048 0
M  V30 7384 H 720.437 5.38499 1.21337 0
M  V30 7385 H 720.914 3.89644 2.02667 0
M  V30 7386 H 721.52 4.23516 0.38913 0
M  V30 7387 N 719.835 0.176821 1.56605 0
M  V30 7388 C 721.081 -0.467406 1.9734 0
M  V30 7389 C 721.414 -1.62523 1.06301 0
M  V30 7390 O 720.689 -1.94182 0.11125 0
M  V30 7391 C 720.972 -0.945106 3.47476 0
M  V30 7392 C 720.825 0.213273 4.49294 0
M  V30 7393 C 722.144 -1.8169 4.00845 0
M  V30 7394 H 719.263 -0.168426 0.717497 0
M  V30 7395 H 721.905 0.264065 1.88156 0
M  V30 7396 H 720.055 -1.56841 3.55434 0
M  V30 7397 H 721.727 0.850508 4.53392 0
M  V30 7398 H 719.97 0.867918 4.25029 0
M  V30 7399 H 720.641 -0.163187 5.51759 0
M  V30 7400 H 723.117 -1.29139 3.95553 0
M  V30 7401 H 721.993 -2.12015 5.06301 0
M  V30 7402 H 722.254 -2.76463 3.44994 0
M  V30 7403 N 721.313 -1.57302 -0.09688 0
M  V30 7404 C 722.724 -1.7496 -0.651595 0
M  V30 7405 C 723.075 -0.798746 -1.79205 0
M  V30 7406 O 722.2 0.0231858 -2.16388 0
M  V30 7407 C 722.795 -3.17259 -1.18878 0
M  V30 7408 C 721.354 -3.36348 -1.68958 0
M  V30 7409 C 720.501 -2.70766 -0.598413 0
M  V30 7410 H 723.452 -1.58173 0.12918 0
M  V30 7411 H 723.473 -3.20033 -2.05814 0
M  V30 7412 H 722.985 -3.8644 -0.358523 0
M  V30 7413 H 721.086 -2.72243 -2.5439 0
M  V30 7414 H 721.199 -4.44654 -1.7838 0
M  V30 7415 H 719.563 -2.32615 -1.03743 0
M  V30 7416 H 720.346 -3.42586 0.221238 0
M  V30 7417 N 722.791 0.367657 -1.53252 0
M  V30 7418 C 723.723 1.47032 -1.75824 0
M  V30 7419 C 724.736 1.49736 -0.63898 0
M  V30 7420 O 725.925 1.53253 -0.915193 0
M  V30 7421 C 723.025 2.85805 -1.82122 0
M  V30 7422 C 722.198 3.06822 -3.11736 0
M  V30 7423 C 721.257 4.25698 -3.09302 0
M  V30 7424 O 720.283 4.20972 -3.83107 0
M  V30 7425 N 721.485 5.33002 -2.29977 0
M  V30 7426 H 724.25 1.28048 -2.70968 0
M  V30 7427 H 721.811 0.557363 -1.52004 0
M  V30 7428 H 723.803 3.63465 -1.77975 0
M  V30 7429 H 722.373 2.98046 -0.942716 0
M  V30 7430 H 721.593 2.1684 -3.29202 0
M  V30 7431 H 722.881 3.17731 -3.97397 0
M  V30 7432 H 722.279 5.39703 -1.69521 0
M  V30 7433 H 720.836 6.09247 -2.3165 0
M  V30 7434 N 724.269 1.44576 0.627338 0
M  V30 7435 C 725.517 1.47267 1.38408 0
M  V30 7436 C 725.838 0.107971 1.94701 0
M  V30 7437 O 725.108 -0.860206 1.76004 0
M  V30 7438 H 723.688 0.542276 0.513756 0
M  V30 7439 H 726.35 1.80383 0.738099 0
M  V30 7440 H 725.446 2.20025 2.21349 0
M  V30 7441 N 725.747 -0.868086 1.31537 0
M  V30 7442 C 726.975 -1.65402 1.24298 0
M  V30 7443 C 727.39 -1.87827 -0.191389 0
M  V30 7444 O 726.747 -1.43776 -1.12404 0
M  V30 7445 C 726.798 -3.02093 1.9855 0
M  V30 7446 O 726.519 -2.80668 3.36388 0
M  V30 7447 C 728.02 -3.96538 1.98173 0
M  V30 7448 H 725.24 -0.515598 0.429417 0
M  V30 7449 H 727.784 -1.0834 1.73444 0
M  V30 7450 H 725.939 -3.55838 1.53161 0
M  V30 7451 H 726.353 -3.67504 3.74221 0
M  V30 7452 H 727.827 -4.8976 2.54635 0
M  V30 7453 H 728.304 -4.28474 0.964697 0
M  V30 7454 H 728.91 -3.48729 2.4345 0
M  V30 7455 N 727.225 -1.14528 -1.08264 0
M  V30 7456 C 728.636 -0.925261 -1.6216 0
M  V30 7457 C 728.987 0.535587 -1.88748 0
M  V30 7458 O 728.112 1.4048 -1.64604 0
M  V30 7459 C 728.707 -1.67316 -2.94603 0
M  V30 7460 C 727.266 -1.49868 -3.45278 0
M  V30 7461 C 726.413 -1.69471 -2.19487 0
M  V30 7462 H 729.364 -1.29687 -0.914707 0
M  V30 7463 H 729.385 -1.13721 -3.63109 0
M  V30 7464 H 728.897 -2.73635 -2.75219 0
M  V30 7465 H 726.998 -0.459032 -3.69762 0
M  V30 7466 H 727.111 -2.2696 -4.21931 0
M  V30 7467 H 725.475 -1.12048 -2.2873 0
M  V30 7468 H 726.258 -2.77136 -2.0261 0
M  V30 7469 N 728.703 1.26451 -0.940633 0
M  V30 7470 C 729.949 1.94065 -0.58878 0
M  V30 7471 C 730.282 1.7363 0.869853 0
M  V30 7472 O 729.557 1.073 1.62225 0
M  V30 7473 C 729.84 3.47852 -0.931199 0
M  V30 7474 C 729.693 3.77575 -2.44453 0
M  V30 7475 C 731.012 4.37832 -0.446229 0
M  V30 7476 H 728.131 0.704827 -0.21538 0
M  V30 7477 H 730.773 1.4933 -1.17475 0
M  V30 7478 H 728.923 3.86085 -0.432539 0
M  V30 7479 H 730.595 3.49059 -3.01588 0
M  V30 7480 H 728.838 3.23671 -2.88825 0
M  V30 7481 H 729.509 4.85068 -2.63464 0
M  V30 7482 H 731.985 4.06822 -0.873778 0
M  V30 7483 H 730.861 5.44228 -0.714648 0
M  V30 7484 H 731.122 4.37239 0.653815 0
M  V30 7485 N 730.181 0.707592 1.40822 0
M  V30 7486 C 731.406 0.251626 2.05868 0
M  V30 7487 C 731.831 -1.09503 1.5294 0
M  V30 7488 O 731.189 -1.68806 0.661385 0
M  V30 7489 C 731.237 0.23287 3.59847 0
M  V30 7490 O 730.341 -0.788477 4.04792 0
M  V30 7491 H 729.682 0.119936 0.653078 0
M  V30 7492 H 732.212 0.96583 1.80369 0
M  V30 7493 H 732.222 0.0678204 4.07944 0
M  V30 7494 H 730.897 1.21565 3.97737 0
M  V30 7495 H 729.474 -0.591802 3.68174 0
M  V30 7496 N 731.66 -1.50943 0.453197 0
M  V30 7497 C 732.937 -1.94872 -0.168633 0
M  V30 7498 C 733.317 -1.39272 -1.5864 0
M  V30 7499 O 732.665 -0.586272 -2.20851 0
M  V30 7500 C 732.875 -3.48757 -0.130217 0
M  V30 7501 C 734.223 -4.23331 -0.327975 0
M  V30 7502 O 735.247 -3.55594 -0.207619 0
M  V30 7503 O 734.106 -5.43529 -0.569077 0
M  V30 7504 H 731.2 -0.818042 -0.121394 0
M  V30 7505 H 733.746 -1.61782 0.512316 0
M  V30 7506 H 732.518 -3.81725 0.860346 0
M  V30 7507 H 732.141 -3.88333 -0.853397 0
M  V30 7508 N 733.138 -0.185124 -1.56509 0
M  V30 7509 C 734.085 0.739729 -2.18624 0
M  V30 7510 C 735.055 1.217 -1.13042 0
M  V30 7511 O 736.24 1.28268 -1.41251 0
M  V30 7512 C 733.38 1.95787 -2.84186 0
M  V30 7513 C 732.493 1.52289 -4.04267 0
M  V30 7514 C 731.628 2.69576 -4.57714 0
M  V30 7515 C 730.667 2.22636 -5.70175 0
M  V30 7516 N 729.804 3.33065 -6.18071 0
M  V30 7517 H 734.644 0.203269 -2.97306 0
M  V30 7518 H 732.181 0.0885946 -1.46833 0
M  V30 7519 H 734.139 2.67253 -3.20361 0
M  V30 7520 H 732.769 2.4678 -2.08085 0
M  V30 7521 H 731.821 0.704458 -3.7382 0
M  V30 7522 H 733.133 1.13843 -4.85635 0
M  V30 7523 H 732.287 3.4918 -4.96143 0
M  V30 7524 H 731.026 3.1129 -3.75433 0
M  V30 7525 H 730.031 1.41483 -5.31284 0
M  V30 7526 H 731.256 1.81964 -6.54267 0
M  V30 7527 H 729.202 3.74328 -5.38715 0
M  V30 7528 H 729.119 2.98756 -6.94464 0
M  V30 7529 H 730.387 4.12912 -6.61153 0
M  V30 7530 N 734.616 1.57351 0.0885366 0
M  V30 7531 C 735.526 2.05858 1.12516 0
M  V30 7532 C 736.542 0.984758 1.43452 0
M  V30 7533 O 737.718 1.29836 1.53963 0
M  V30 7534 C 734.783 2.47882 2.42395 0
M  V30 7535 C 733.844 3.69487 2.18582 0
M  V30 7536 C 733.077 4.09497 3.42268 0
M  V30 7537 O 733.3 3.49536 4.50755 0
M  V30 7538 O 732.234 5.02406 3.31469 0
M  V30 7539 H 736.06 2.94467 0.743146 0
M  V30 7540 H 733.645 1.46326 0.301507 0
M  V30 7541 H 735.527 2.75509 3.18862 0
M  V30 7542 H 734.202 1.62408 2.8001 0
M  V30 7543 H 733.109 3.46967 1.39875 0
M  V30 7544 H 734.442 4.55761 1.85857 0
M  V30 7545 N 736.094 -0.359525 1.53444 0
M  V30 7546 C 737.343 -1.09886 1.69139 0
M  V30 7547 C 737.656 -1.90285 0.452863 0
M  V30 7548 O 738.862 -2.67033 0.490459 0
M  V30 7549 C 737.318 -2.0028 2.99025 0
M  V30 7550 C 736.926 -1.25164 4.30161 0
M  V30 7551 C 738.67 -2.74168 3.24086 0
M  V30 7552 C 736.577 -2.14494 5.51132 0
M  V30 7553 H 735.507 -0.413936 0.630217 0
M  V30 7554 H 738.158 -0.359434 1.79945 0
M  V30 7555 H 736.54 -2.77978 2.82036 0
M  V30 7556 H 737.714 -0.524867 4.57801 0
M  V30 7557 H 736.029 -0.631116 4.11589 0
M  V30 7558 H 738.626 -3.41243 4.11652 0
M  V30 7559 H 738.969 -3.39868 2.40407 0
M  V30 7560 H 739.502 -2.0355 3.41778 0
M  V30 7561 H 736.241 -1.53362 6.37307 0
M  V30 7562 H 735.761 -2.85004 5.27762 0
M  V30 7563 H 737.44 -2.73914 5.86157 0
M  V30 7564 N 737.572 -1.44907 -0.619662 0
M  V30 7565 C 738.8 -1.51795 -1.40591 0
M  V30 7566 C 739.215 -0.146553 -1.8823 0
M  V30 7567 O 738.572 0.849698 -1.61513 0
M  V30 7568 C 738.623 -2.49229 -2.61853 0
M  V30 7569 O 738.344 -3.81039 -2.16197 0
M  V30 7570 C 739.845 -2.65696 -3.54853 0
M  V30 7571 H 737.065 -0.514463 -0.430777 0
M  V30 7572 H 739.609 -1.8998 -0.756813 0
M  V30 7573 H 737.764 -2.14149 -3.2283 0
M  V30 7574 H 738.178 -4.33747 -2.94896 0
M  V30 7575 H 739.652 -3.37874 -4.36515 0
M  V30 7576 H 740.129 -1.71316 -4.0441 0
M  V30 7577 H 740.735 -3.01724 -2.99737 0
M  V30 7578 N 739.05 0.861098 -1.31996 0
M  V30 7579 C 740.327 1.59788 -1.12814 0
M  V30 7580 C 740.707 2.08753 0.313882 0
M  V30 7581 O 740.055 1.87258 1.30946 0
M  V30 7582 C 740.265 2.74901 -2.15012 0
M  V30 7583 C 741.613 3.44643 -2.48004 0
M  V30 7584 O 742.637 2.85119 -2.13508 0
M  V30 7585 O 741.496 4.52044 -3.07113 0
M  V30 7586 H 738.59 0.703408 -0.434909 0
M  V30 7587 H 741.136 0.905788 -1.43505 0
M  V30 7588 H 739.908 2.36198 -3.11971 0
M  V30 7589 H 739.531 3.51792 -1.85279 0
M  V30 7590 N 740.528 1.15101 1.07655 0
M  V30 7591 C 741.458 0.867864 2.16773 0
M  V30 7592 C 742.439 -0.180283 1.69142 0
M  V30 7593 O 743.624 -0.0353152 1.94168 0
M  V30 7594 C 740.754 0.35299 3.45501 0
M  V30 7595 C 739.708 1.33746 4.06566 0
M  V30 7596 C 739.034 0.681562 5.30338 0
M  V30 7597 C 740.334 2.7024 4.46954 0
M  V30 7598 H 742.028 1.78034 2.40716 0
M  V30 7599 H 739.574 0.857435 1.15689 0
M  V30 7600 H 741.527 0.142465 4.21159 0
M  V30 7601 H 740.251 -0.594945 3.21135 0
M  V30 7602 H 738.91 1.53429 3.32949 0
M  V30 7603 H 738.558 -0.272422 5.02262 0
M  V30 7604 H 738.258 1.33853 5.72151 0
M  V30 7605 H 739.782 0.48074 6.08705 0
M  V30 7606 H 741.196 2.5442 5.13754 0
M  V30 7607 H 739.593 3.32282 4.99709 0
M  V30 7608 H 740.663 3.26537 3.58471 0
M  V30 7609 N 742.006 -1.2595 0.947325 0
M  V30 7610 C 743.252 -1.9375 0.599064 0
M  V30 7611 C 743.585 -1.74088 -0.860632 0
M  V30 7612 O 742.86 -1.08158 -1.61654 0
M  V30 7613 C 743.143 -3.47353 0.949634 0
M  V30 7614 C 742.996 -3.76273 2.46452 0
M  V30 7615 C 744.315 -4.37589 0.469442 0
M  V30 7616 H 741.434 -0.703674 0.219115 0
M  V30 7617 H 744.076 -1.48705 1.18266 0
M  V30 7618 H 742.226 -3.8585 0.453008 0
M  V30 7619 H 743.898 -3.47455 3.03435 0
M  V30 7620 H 742.141 -3.22135 2.90537 0
M  V30 7621 H 742.812 -4.83664 2.66032 0
M  V30 7622 H 745.288 -4.06353 0.89534 0
M  V30 7623 H 744.164 -5.43841 0.7435 0
M  V30 7624 H 744.425 -4.37579 -0.630618 0
M  V30 7625 N 743.484 -0.715051 -1.40445 0
M  V30 7626 C 744.431 -0.0621393 -2.30716 0
M  V30 7627 C 745.401 0.750871 -1.48159 0
M  V30 7628 O 746.586 0.714928 -1.76899 0
M  V30 7629 C 743.726 0.854036 -3.34365 0
M  V30 7630 C 742.839 0.0305565 -4.31989 0
M  V30 7631 C 741.974 0.946162 -5.22706 0
M  V30 7632 C 741.013 0.116741 -6.11989 0
M  V30 7633 N 740.15 0.987194 -6.95125 0
M  V30 7634 H 744.99 -0.83764 -2.85985 0
M  V30 7635 H 742.527 -0.424759 -1.40834 0
M  V30 7636 H 744.485 1.39946 -3.93028 0
M  V30 7637 H 743.115 1.59572 -2.806 0
M  V30 7638 H 742.167 -0.632044 -3.75112 0
M  V30 7639 H 743.479 -0.611615 -4.95036 0
M  V30 7640 H 742.633 1.56014 -5.86297 0
M  V30 7641 H 741.372 1.62216 -4.59932 0
M  V30 7642 H 740.377 -0.510176 -5.47428 0
M  V30 7643 H 741.602 -0.555742 -6.76822 0
M  V30 7644 H 739.548 1.64885 -6.3494 0
M  V30 7645 H 739.465 0.401046 -7.54936 0
M  V30 7646 H 740.733 1.58737 -7.63166 0
M  V30 7647 N 744.962 1.50701 -0.461195 0
M  V30 7648 C 746.211 2.01458 0.0988277 0
M  V30 7649 C 746.524 1.34863 1.41673 0
M  V30 7650 O 747.73 1.76721 2.06111 0
M  V30 7651 C 746.186 3.59186 0.226648 0
M  V30 7652 C 745.794 4.34732 -1.08223 0
M  V30 7653 C 747.538 4.18015 0.73916 0
M  V30 7654 C 745.445 5.8422 -0.918747 0
M  V30 7655 H 744.375 0.7529 0.040709 0
M  V30 7656 H 747.026 1.736 -0.594589 0
M  V30 7657 H 745.408 3.83589 0.983621 0
M  V30 7658 H 746.582 4.22059 -1.84939 0
M  V30 7659 H 744.897 3.87466 -1.52509 0
M  V30 7660 H 747.494 5.27436 0.878347 0
M  V30 7661 H 747.837 3.78746 1.72793 0
M  V30 7662 H 748.37 3.9778 0.0398469 0
M  V30 7663 H 745.109 6.27944 -1.88059 0
M  V30 7664 H 744.629 5.99493 -0.191801 0
M  V30 7665 H 746.308 6.44382 -0.581405 0
M  V30 7666 N 746.441 0.193421 1.56409 0
M  V30 7667 C 747.852 -0.319471 1.83946 0
M  V30 7668 C 748.203 -1.61505 1.11403 0
M  V30 7669 O 747.328 -2.13139 0.374289 0
M  V30 7670 C 747.923 -0.586411 3.33686 0
M  V30 7671 C 746.482 -1.04368 3.61641 0
M  V30 7672 C 745.629 -0.0913834 2.77149 0
M  V30 7673 H 748.58 0.417242 1.53117 0
M  V30 7674 H 748.601 -1.43591 3.52366 0
M  V30 7675 H 748.113 0.356701 3.86457 0
M  V30 7676 H 746.214 -2.00113 3.14302 0
M  V30 7677 H 746.327 -0.937549 4.69837 0
M  V30 7678 H 744.691 -0.592954 2.47702 0
M  V30 7679 H 745.474 0.846142 3.32709 0
M  V30 7680 N 747.919 -1.57396 -0.0801906 0
M  V30 7681 C 749.196 -1.77883 -0.813451 0
M  V30 7682 C 749.576 -0.778879 -1.96206 0
M  V30 7683 O 748.924 0.189683 -2.27711 0
M  V30 7684 C 749.134 -3.24116 -1.2942 0
M  V30 7685 C 750.482 -3.87714 -1.73098 0
M  V30 7686 O 751.506 -3.27956 -1.39007 0
M  V30 7687 O 750.365 -4.92828 -2.36184 0
M  V30 7688 H 747.459 -0.729727 -0.389138 0
M  V30 7689 H 750.005 -1.69591 -0.0609166 0
M  V30 7690 H 748.777 -3.88443 -0.471947 0
M  V30 7691 H 748.4 -3.371 -2.1083 0
M  V30 7692 N 749.397 0.351382 -1.53633 0
M  V30 7693 C 750.645 1.09034 -1.70165 0
M  V30 7694 C 750.966 1.89413 -0.463422 0
M  V30 7695 O 750.236 1.888 0.522624 0
M  V30 7696 H 748.816 0.405522 -0.627344 0
M  V30 7697 H 751.478 0.394554 -1.90865 0
M  V30 7698 H 750.574 1.77215 -2.56907 0
M  V30 7699 N 750.875 1.45233 0.611969 0
M  V30 7700 C 752.1 1.52767 1.40274 0
M  V30 7701 C 752.525 0.159701 1.87421 0
M  V30 7702 O 751.883 -0.854837 1.59882 0
M  V30 7703 C 751.931 2.51286 2.58626 0
M  V30 7704 O 751.035 2.02764 3.59111 0
M  V30 7705 H 750.376 0.515141 0.418958 0
M  V30 7706 H 752.906 1.90547 0.745188 0
M  V30 7707 H 752.916 2.69949 3.05927 0
M  V30 7708 H 751.591 3.50641 2.23659 0
M  V30 7709 H 750.168 1.93957 3.18489 0
M  V30 7710 N 752.353 -0.854086 1.3245 0
M  V30 7711 C 753.3 -1.96271 1.21434 0
M  V30 7712 C 754.27 -1.6582 0.0963851 0
M  V30 7713 O 755.455 -1.88851 0.27203 0
M  V30 7714 C 752.595 -3.31939 0.943952 0
M  V30 7715 C 751.708 -3.74885 2.14675 0
M  V30 7716 C 750.843 -4.99347 1.81179 0
M  V30 7717 C 749.882 -5.34785 2.97777 0
M  V30 7718 N 749.019 -6.50425 2.6437 0
M  V30 7719 H 753.859 -2.05025 2.16261 0
M  V30 7720 H 751.396 -1.00348 1.07558 0
M  V30 7721 H 753.354 -4.10076 0.767675 0
M  V30 7722 H 751.984 -3.22784 0.0324763 0
M  V30 7723 H 751.036 -2.92396 2.43328 0
M  V30 7724 H 752.348 -3.97068 3.01891 0
M  V30 7725 H 751.502 -5.85193 1.60107 0
M  V30 7726 H 750.241 -4.79101 0.911777 0
M  V30 7727 H 749.246 -4.47451 3.1948 0
M  V30 7728 H 750.471 -5.56988 3.88511 0
M  V30 7729 H 748.417 -6.31695 1.7691 0
M  V30 7730 H 748.334 -6.7263 3.45116 0
M  V30 7731 H 749.602 -7.39422 2.46729 0
M  V30 7732 N 753.831 -1.1567 -1.07043 0
M  V30 7733 C 755.079 -0.931673 -1.79344 0
M  V30 7734 C 755.4 0.542421 -1.87304 0
M  V30 7735 O 754.67 1.39418 -1.37621 0
M  V30 7736 H 753.25 -0.34171 -0.664262 0
M  V30 7737 H 755.912 -1.45795 -1.29344 0
M  V30 7738 H 755.008 -1.34379 -2.81689 0
M  V30 7739 N 755.309 1.25446 -0.953992 0
M  V30 7740 C 756.555 1.9343 -0.60933 0
M  V30 7741 C 756.888 1.74542 0.851388 0
M  V30 7742 O 756.163 1.09014 1.61078 0
M  V30 7743 C 756.446 3.46844 -0.968041 0
M  V30 7744 C 756.299 3.74961 -2.48444 0
M  V30 7745 C 757.618 4.37334 -0.492641 0
M  V30 7746 H 754.737 0.702502 -0.222844 0
M  V30 7747 H 757.379 1.48076 -1.19053 0
M  V30 7748 H 755.529 3.85604 -0.473465 0
M  V30 7749 H 757.201 3.45841 -3.05273 0
M  V30 7750 H 755.444 3.20589 -2.92241 0
M  V30 7751 H 756.115 4.82246 -2.68594 0
M  V30 7752 H 758.591 4.05873 -0.916878 0
M  V30 7753 H 757.467 5.43439 -0.772331 0
M  V30 7754 H 757.728 4.37908 0.607403 0
M  V30 7755 N 756.787 0.722489 1.40064 0
M  V30 7756 C 758.198 0.336507 1.83642 0
M  V30 7757 C 758.549 -1.13002 1.6039 0
M  V30 7758 O 757.674 -1.87036 1.08842 0
M  V30 7759 C 758.269 0.603985 3.33373 0
M  V30 7760 C 756.828 0.271637 3.75419 0
M  V30 7761 C 755.975 0.872898 2.63203 0
M  V30 7762 H 758.926 0.921108 1.29233 0
M  V30 7763 H 758.947 -0.128471 3.80283 0
M  V30 7764 H 758.459 1.67141 3.50265 0
M  V30 7765 H 756.56 -0.790455 3.64119 0
M  V30 7766 H 756.673 0.745457 4.73265 0
M  V30 7767 H 755.037 0.300431 2.52922 0
M  V30 7768 H 755.82 1.94473 2.82905 0
M  V30 7769 N 758.265 -1.50454 0.469181 0
M  V30 7770 C 759.493 -2.06729 -0.0842134 0
M  V30 7771 C 759.908 -1.33326 -1.33677 0
M  V30 7772 O 759.265 -0.401977 -1.78018 0
M  V30 7773 C 759.316 -3.59557 -0.374253 0
M  V30 7774 O 759.037 -4.30192 0.828622 0
M  V30 7775 C 760.538 -4.32449 -0.974824 0
M  V30 7776 H 757.758 -0.670971 0.006231 0
M  V30 7777 H 760.302 -1.93645 0.657415 0
M  V30 7778 H 758.457 -3.7245 -1.06581 0
M  V30 7779 H 758.871 -5.21371 0.572066 0
M  V30 7780 H 760.345 -5.40361 -1.12755 0
M  V30 7781 H 760.822 -3.92819 -1.96442 0
M  V30 7782 H 761.428 -4.24082 -0.321703 0
M  V30 7783 N 759.743 -0.201713 -1.56304 0
M  V30 7784 C 760.989 0.435952 -1.98059 0
M  V30 7785 C 761.322 1.60811 -1.08873 0
M  V30 7786 O 760.597 1.9398 -0.142128 0
M  V30 7787 C 760.88 0.889706 -3.48936 0
M  V30 7788 C 760.733 -0.284725 -4.48898 0
M  V30 7789 C 762.052 1.7529 -4.03685 0
M  V30 7790 H 759.171 0.15699 -0.720085 0
M  V30 7791 H 761.813 -0.293965 -1.87712 0
M  V30 7792 H 759.963 1.51166 -3.57884 0
M  V30 7793 H 761.635 -0.922531 -4.51981 0
M  V30 7794 H 759.878 -0.935427 -4.23594 0
M  V30 7795 H 760.549 0.0753865 -5.51949 0
M  V30 7796 H 763.025 1.2283 -3.97558 0
M  V30 7797 H 761.901 2.03933 -5.0961 0
M  V30 7798 H 762.162 2.70939 -3.49348 0
M  V30 7799 N 761.222 1.57436 0.0718424 0
M  V30 7800 C 762.468 1.87525 0.772149 0
M  V30 7801 C 762.801 0.79399 1.77227 0
M  V30 7802 O 762.076 -0.195733 1.93513 0
M  V30 7803 C 762.359 3.28272 1.48018 0
M  V30 7804 C 762.212 4.47052 0.49647 0
M  V30 7805 C 763.531 3.67256 2.42509 0
M  V30 7806 H 760.65 0.682049 0.279245 0
M  V30 7807 H 763.292 1.89967 0.03534 0
M  V30 7808 H 761.442 3.26321 2.10824 0
M  V30 7809 H 763.114 4.61127 -0.126375 0
M  V30 7810 H 761.357 4.33392 -0.188205 0
M  V30 7811 H 762.028 5.42315 1.02949 0
M  V30 7812 H 764.504 3.70301 1.89781 0
M  V30 7813 H 763.38 4.66626 2.89053 0
M  V30 7814 H 763.641 2.97186 3.27312 0
M  V30 7815 N 762.7 -0.34323 1.53817 0
M  V30 7816 C 763.948 -1.0813 1.70741 0
M  V30 7817 C 764.269 -1.89165 0.473461 0
M  V30 7818 O 763.539 -1.89075 -0.512605 0
M  V30 7819 H 762.119 -0.40219 0.629486 0
M  V30 7820 H 764.781 -0.384426 1.91071 0
M  V30 7821 H 763.877 -1.7585 2.57843 0
M  V30 7822 N 764.178 -1.45556 -0.604258 0
M  V30 7823 C 765.455 -1.40221 -1.36373 0
M  V30 7824 C 765.835 -0.0745195 -2.10968 0
M  V30 7825 O 765.183 0.943594 -2.08107 0
M  V30 7826 C 765.393 -2.61807 -2.30777 0
M  V30 7827 C 766.741 -3.07037 -2.93281 0
M  V30 7828 O 767.765 -2.62203 -2.41097 0
M  V30 7829 O 766.624 -3.8485 -3.88011 0
M  V30 7830 H 763.718 -0.556602 -0.611656 0
M  V30 7831 H 766.264 -1.57689 -0.627069 0
M  V30 7832 H 765.036 -3.50017 -1.74939 0
M  V30 7833 H 764.659 -2.46688 -3.11818 0
M  V30 7834 N 765.656 0.84705 -1.32902 0
M  V30 7835 C 767.072 1.13645 -1.12058 0
M  V30 7836 C 767.272 2.01281 0.093937 0
M  V30 7837 O 766.328 2.4026 0.776608 0
M  V30 7838 C 767.641 1.80644 -2.40392 0
M  V30 7839 C 769.189 1.93246 -2.46221 0
M  V30 7840 C 769.664 2.6366 -3.74496 0
M  V30 7841 N 771.155 2.71179 -3.75521 0
M  V30 7842 C 771.89 3.26332 -4.71482 0
M  V30 7843 N 771.386 3.82236 -5.77813 0
M  V30 7844 N 773.179 3.24507 -4.58968 0
M  V30 7845 H 765.33 0.263612 -2.10758 0
M  V30 7846 H 767.593 0.17944 -0.930863 0
M  V30 7847 H 767.299 1.23708 -3.29225 0
M  V30 7848 H 767.173 2.80736 -2.51926 0
M  V30 7849 H 769.56 2.49338 -1.57843 0
M  V30 7850 H 769.641 0.921272 -2.38634 0
M  V30 7851 H 769.285 2.08229 -4.63253 0
M  V30 7852 H 769.215 3.65234 -3.79357 0
M  V30 7853 H 771.706 2.31527 -2.9867 0
M  V30 7854 H 772.019 4.22499 -6.47082 0
M  V30 7855 H 770.364 3.80546 -5.81558 0
M  V30 7856 H 773.555 2.80085 -3.7506 0
M  V30 7857 H 773.728 3.67188 -5.33926 0
M  V30 7858 N 767.134 1.16236 1.06428 0
M  V30 7859 C 768.545 0.950942 1.60667 0
M  V30 7860 C 768.896 -0.505491 1.89576 0
M  V30 7861 O 768.021 -1.37843 1.66818 0
M  V30 7862 C 768.616 1.71982 2.91904 0
M  V30 7863 C 767.175 1.55342 3.4285 0
M  V30 7864 C 766.322 1.72942 2.16763 0
M  V30 7865 H 769.273 1.31126 0.893959 0
M  V30 7866 H 769.294 1.19483 3.61253 0
M  V30 7867 H 768.806 2.77978 2.70831 0
M  V30 7868 H 766.907 0.5178 3.68985 0
M  V30 7869 H 767.02 2.33643 4.18267 0
M  V30 7870 H 765.384 1.15673 2.26918 0
M  V30 7871 H 766.167 2.80324 1.98175 0
M  V30 7872 N 768.612 -1.24939 0.960631 0
M  V30 7873 C 769.889 -1.88118 0.535807 0
M  V30 7874 C 770.269 -1.86605 -0.987009 0
M  V30 7875 O 769.617 -1.33375 -1.85536 0
M  V30 7876 C 769.827 -3.30565 1.11927 0
M  V30 7877 C 771.175 -4.07296 1.19981 0
M  V30 7878 O 772.199 -3.39709 1.07126 0
M  V30 7879 O 771.058 -5.28206 1.40218 0
M  V30 7880 H 768.152 -0.807698 0.177631 0
M  V30 7881 H 770.698 -1.32964 1.05445 0
M  V30 7882 H 769.47 -3.26128 2.16231 0
M  V30 7883 H 769.093 -3.93284 0.584245 0
M  V30 7884 N 770.09 -0.729906 -1.39679 0
M  V30 7885 C 771.318 -0.285709 -2.04918 0
M  V30 7886 C 771.733 1.07765 -1.55023 0
M  V30 7887 O 771.09 1.67999 -0.712923 0
M  V30 7888 C 771.141 -0.272793 -3.60469 0
M  V30 7889 O 770.862 -1.58233 -4.08527 0
M  V30 7890 C 772.363 0.188199 -4.429 0
M  V30 7891 H 769.583 -0.125758 -0.65911 0
M  V30 7892 H 772.127 -0.992129 -1.78821 0
M  V30 7893 H 770.282 0.384699 -3.85485 0
M  V30 7894 H 770.696 -1.49245 -5.02818 0
M  V30 7895 H 772.17 0.14608 -5.51807 0
M  V30 7896 H 772.647 1.2326 -4.21549 0
M  V30 7897 H 773.253 -0.439541 -4.23023 0
M  V30 7898 N 771.568 1.50203 -0.477153 0
M  V30 7899 C 772.516 2.30278 0.327826 0
M  V30 7900 C 773.51 1.37831 0.984839 0
M  V30 7901 O 774.716 1.54994 0.915251 0
M  V30 7902 H 771.091 0.741612 0.124564 0
M  V30 7903 H 773.062 2.96124 -0.367853 0
M  V30 7904 C 771.811 3.18548 1.39365 0
M  V30 7905 H 771.134 3.89596 0.897475 0
M  V30 7906 H 772.574 3.77561 1.92934 0
M  V30 7907 C 771.033 2.36548 2.39889 0
M  V30 7908 O 771.563 2.05282 3.45286 0
M  V30 7909 N 769.769 1.99015 2.11758 0
M  V30 7910 H 769.316 2.24641 1.26071 0
M  V30 7911 H 769.274 1.44454 2.7925 0
M  V30 7912 N 773.046 0.209999 1.56195 0
M  V30 7913 C 774.292 -0.425442 1.98287 0
M  V30 7914 C 774.625 -1.60232 1.09724 0
M  V30 7915 O 773.9 -1.93902 0.152414 0
M  V30 7916 C 774.183 -0.871189 3.49403 0
M  V30 7917 C 774.036 0.308527 4.48741 0
M  V30 7918 C 775.355 -1.73146 4.04609 0
M  V30 7919 H 772.474 -0.153169 0.720908 0
M  V30 7920 H 775.116 0.303916 1.87554 0
M  V30 7921 H 773.266 -1.49266 3.58681 0
M  V30 7922 H 774.938 0.946487 4.51486 0
M  V30 7923 H 773.181 0.957878 4.23092 0
M  V30 7924 H 773.852 -0.0461143 5.51981 0
M  V30 7925 H 776.328 -1.2072 3.98203 0
M  V30 7926 H 775.204 -2.01228 5.10684 0
M  V30 7927 H 775.465 -2.69083 3.5078 0
M  V30 7928 N 774.524 -1.57472 -0.0634922 0
M  V30 7929 C 775.935 -1.76303 -0.614337 0
M  V30 7930 C 776.286 -0.836578 -1.77471 0
M  V30 7931 O 775.411 -0.0227184 -2.16388 0
M  V30 7932 C 776.006 -3.19709 -1.12122 0
M  V30 7933 C 774.565 -3.39856 -1.61786 0
M  V30 7934 C 773.712 -2.71975 -0.540845 0
M  V30 7935 H 776.663 -1.57864 0.162702 0
M  V30 7936 H 776.684 -3.24326 -1.98979 0
M  V30 7937 H 776.196 -3.87114 -0.276472 0
M  V30 7938 H 774.297 -2.77578 -2.48558 0
M  V30 7939 H 774.41 -4.48338 -1.68908 0
M  V30 7940 H 772.774 -2.34763 -0.987854 0
M  V30 7941 H 773.557 -3.4204 0.293856 0
M  V30 7942 N 776.003 0.335068 -1.53997 0
M  V30 7943 C 777.251 1.07223 -1.71312 0
M  V30 7944 C 777.572 1.88911 -0.483486 0
M  V30 7945 O 776.842 1.89344 0.50257 0
M  V30 7946 H 775.422 0.398846 -0.63161 0
M  V30 7947 H 778.084 0.374288 -1.91272 0
M  V30 7948 H 777.18 1.7448 -2.58772 0
M  V30 7949 N 777.481 1.45874 0.596531 0
M  V30 7950 C 778.758 1.40942 1.35627 0
M  V30 7951 C 779.138 0.0857066 2.10926 0
M  V30 7952 O 778.486 -0.932544 2.08605 0
M  V30 7953 C 778.696 2.63027 2.29386 0
M  V30 7954 C 780.044 3.08588 2.91649 0
M  V30 7955 O 781.068 2.63478 2.39704 0
M  V30 7956 O 779.927 3.86902 3.85965 0
M  V30 7957 H 777.021 0.559838 0.608696 0
M  V30 7958 H 779.567 1.5802 0.618698 0
M  V30 7959 H 778.339 3.5094 1.7308 0
M  V30 7960 H 777.962 2.48338 3.10506 0
M  V30 7961 N 778.959 -0.83999 1.33349 0
M  V30 7962 C 779.909 -1.93817 1.20079 0
M  V30 7963 C 780.893 -1.60564 0.103978 0
M  V30 7964 O 782.085 -1.73859 0.331964 0
M  V30 7965 C 779.214 -3.30151 0.941031 0
M  V30 7966 C 778.3 -3.69577 2.08023 0
M  V30 7967 N 778.691 -3.80707 3.3301 0
M  V30 7968 C 776.989 -3.99309 1.98667 0
M  V30 7969 C 777.69 -4.14899 4.07717 0
M  V30 7970 N 776.666 -4.27208 3.36146 0
M  V30 7971 H 780.468 -2.00576 2.14817 0
M  V30 7972 H 777.982 -1.03264 1.2534 0
M  V30 7973 H 779.979 -4.08617 0.826894 0
M  V30 7974 H 778.639 -3.247 0.00216738 0
M  V30 7975 H 779.65 -3.64644 3.67771 0
M  V30 7976 H 776.327 -4.02076 1.12433 0
M  V30 7977 H 777.717 -4.30857 5.15569 0
M  V30 7978 N 780.437 -1.16799 -1.0581 0
M  V30 7979 C 781.384 -0.87902 -2.13405 0
M  V30 7980 C 782.354 0.174541 -1.6518 0
M  V30 7981 O 783.539 0.0386843 -1.90761 0
M  V30 7982 C 780.679 -0.391616 -3.42871 0
M  V30 7983 C 779.792 -1.50857 -4.04804 0
M  V30 7984 C 778.927 -0.975682 -5.22163 0
M  V30 7985 C 777.966 -2.06851 -5.76089 0
M  V30 7986 N 777.103 -1.55085 -6.84758 0
M  V30 7987 H 781.943 -1.80043 -2.37463 0
M  V30 7988 H 779.48 -0.898083 -1.16503 0
M  V30 7989 H 781.438 -0.0906247 -4.17102 0
M  V30 7990 H 780.068 0.49284 -3.19016 0
M  V30 7991 H 779.12 -1.92542 -3.28073 0
M  V30 7992 H 780.432 -2.33305 -4.40874 0
M  V30 7993 H 779.586 -0.628165 -6.03439 0
M  V30 7994 H 778.325 -0.120566 -4.87551 0
M  V30 7995 H 777.33 -2.42467 -4.93447 0
M  V30 7996 H 778.555 -2.92768 -6.12751 0
M  V30 7997 H 776.501 -0.718345 -6.52055 0
M  V30 7998 H 776.418 -2.31145 -7.19797 0
M  V30 7999 H 777.686 -1.23206 -7.69702 0
M  V30 8000 N 781.915 1.24427 -0.967243 0
M  V30 8001 C 783.161 1.92772 -0.629812 0
M  V30 8002 C 783.494 1.75436 0.832827 0
M  V30 8003 O 782.769 1.10716 1.59913 0
M  V30 8004 C 783.052 3.45798 -1.00477 0
M  V30 8005 C 782.905 3.72304 -2.52407 0
M  V30 8006 C 784.224 4.36787 -0.538999 0
M  V30 8007 H 781.343 0.700099 -0.230282 0
M  V30 8008 H 783.985 1.46805 -1.20616 0
M  V30 8009 H 782.135 3.8508 -0.514336 0
M  V30 8010 H 783.807 3.42584 -3.08924 0
M  V30 8011 H 782.05 3.17472 -2.95625 0
M  V30 8012 H 782.721 4.7937 -2.73693 0
M  V30 8013 H 785.197 4.04877 -0.959874 0
M  V30 8014 H 784.073 5.4259 -0.829926 0
M  V30 8015 H 784.334 4.38527 0.560923 0
M  V30 8016 N 783.393 0.737304 1.3929 0
M  V30 8017 C 784.621 0.296573 2.04763 0
M  V30 8018 C 785.036 -1.06941 1.55592 0
M  V30 8019 O 784.393 -1.67619 0.721822 0
M  V30 8020 C 784.444 0.291906 3.6032 0
M  V30 8021 O 784.165 1.60397 4.07682 0
M  V30 8022 C 785.666 -0.164708 4.42994 0
M  V30 8023 H 782.886 0.129251 0.658434 0
M  V30 8024 H 785.43 1.0016 1.78293 0
M  V30 8025 H 783.585 -0.364251 3.85684 0
M  V30 8026 H 783.999 1.51909 5.0202 0
M  V30 8027 H 785.473 -0.116814 5.51876 0
M  V30 8028 H 785.95 -1.21022 4.22197 0
M  V30 8029 H 786.556 0.461968 4.22784 0
M  V30 8030 N 784.871 -1.49948 0.485112 0
M  V30 8031 C 786.117 -2.02695 -0.0651022 0
M  V30 8032 C 786.45 -1.36534 -1.38102 0
M  V30 8033 O 785.725 -0.495677 -1.88078 0
M  V30 8034 C 786.008 -3.59337 -0.234285 0
M  V30 8035 C 785.861 -4.3605 1.10364 0
M  V30 8036 C 787.18 -4.28996 -0.982351 0
M  V30 8037 H 784.299 -0.736666 -0.0221856 0
M  V30 8038 H 786.941 -1.7913 0.633433 0
M  V30 8039 H 785.091 -3.79546 -0.829262 0
M  V30 8040 H 786.763 -4.27377 1.73627 0
M  V30 8041 H 785.006 -3.99236 1.69686 0
M  V30 8042 H 785.677 -5.43959 0.938743 0
M  V30 8043 H 788.153 -4.13346 -0.477904 0
M  V30 8044 H 787.029 -5.38379 -1.06955 0
M  V30 8045 H 787.29 -3.93135 -2.02231 0
M  V30 8046 N 786.349 -0.21828 -1.56081 0
M  V30 8047 C 787.259 0.704602 -2.23769 0
M  V30 8048 C 788.275 1.21633 -1.24425 0
M  V30 8049 O 789.451 1.25862 -1.57228 0
M  V30 8050 C 786.516 1.89725 -2.90182 0
M  V30 8051 C 785.577 1.42782 -4.0486 0
M  V30 8052 C 784.81 2.56361 -4.68097 0
M  V30 8053 O 785.033 3.74417 -4.30312 0
M  V30 8054 O 783.967 2.2775 -5.57148 0
M  V30 8055 H 787.793 0.158007 -3.03289 0
M  V30 8056 H 785.378 0.0120279 -1.49395 0
M  V30 8057 H 787.26 2.59382 -3.32113 0
M  V30 8058 H 785.935 2.432 -2.13624 0
M  V30 8059 H 784.842 0.699359 -3.67505 0
M  V30 8060 H 786.175 0.939474 -4.83151 0
M  V30 8061 N 787.827 1.57504 0.0551401 0
M  V30 8062 C 789.073 1.88334 0.752216 0
M  V30 8063 C 789.406 0.812742 1.76375 0
M  V30 8064 O 788.681 -0.175198 1.93709 0
M  V30 8065 C 788.964 3.29824 1.44528 0
M  V30 8066 C 788.817 4.47553 0.449026 0
M  V30 8067 C 790.136 3.69808 2.38601 0
M  V30 8068 H 787.255 0.684973 0.271995 0
M  V30 8069 H 789.897 1.89994 0.0151895 0
M  V30 8070 H 788.047 3.28539 2.07351 0
M  V30 8071 H 789.719 4.60967 -0.175277 0
M  V30 8072 H 787.962 4.33168 -0.234162 0
M  V30 8073 H 788.633 5.43376 0.971917 0
M  V30 8074 H 791.109 3.72293 1.85842 0
M  V30 8075 H 789.985 4.69665 2.84088 0
M  V30 8076 H 790.246 3.00641 3.24141 0
M  V30 8077 N 789.305 -0.326896 1.54172 0
M  V30 8078 C 790.533 -1.08486 1.76177 0
M  V30 8079 C 790.948 -1.81815 0.508788 0
M  V30 8080 O 790.305 -1.74924 -0.520362 0
M  V30 8081 C 790.356 -2.08552 2.95276 0
M  V30 8082 O 790.077 -1.38202 4.15731 0
M  V30 8083 C 791.578 -2.96593 3.29466 0
M  V30 8084 H 788.798 -0.322835 0.588233 0
M  V30 8085 H 791.342 -0.374036 2.0105 0
M  V30 8086 H 789.497 -2.75174 2.72687 0
M  V30 8087 H 789.911 -2.05186 4.827 0
M  V30 8088 H 791.385 -3.62708 4.16109 0
M  V30 8089 H 791.862 -3.63511 2.46487 0
M  V30 8090 H 792.468 -2.35537 3.54122 0
M  V30 8091 N 790.784 -1.46188 -0.588786 0
M  V30 8092 C 792.014 -1.54519 -1.3714 0
M  V30 8093 C 792.422 -0.183075 -1.88312 0
M  V30 8094 O 791.765 0.828815 -1.6394 0
M  V30 8095 C 791.827 -2.48426 -2.59856 0
M  V30 8096 C 791.491 -3.94791 -2.30193 0
M  V30 8097 C 792.488 -4.84173 -1.894 0
M  V30 8098 C 790.173 -4.39872 -2.42525 0
M  V30 8099 C 792.167 -6.16647 -1.61325 0
M  V30 8100 C 789.854 -5.72381 -2.14063 0
M  V30 8101 C 790.852 -6.60589 -1.73527 0
M  V30 8102 O 790.54 -7.9064 -1.4541 0
M  V30 8103 H 790.272 -0.525264 -0.425527 0
M  V30 8104 H 792.826 -1.92242 -0.723344 0
M  V30 8105 H 791.056 -2.05709 -3.27446 0
M  V30 8106 H 792.745 -2.4723 -3.21919 0
M  V30 8107 H 793.511 -4.50603 -1.79393 0
M  V30 8108 H 789.39 -3.71444 -2.7304 0
M  V30 8109 H 792.934 -6.85454 -1.29611 0
M  V30 8110 H 788.831 -6.05501 -2.23693 0
M  V30 8111 H 789.599 -8.02847 -1.59306 0
M  V30 8112 N 792.262 0.832906 -1.33792 0
M  V30 8113 C 793.673 1.40489 -1.22963 0
M  V30 8114 C 794.024 1.95633 0.149026 0
M  V30 8115 O 793.149 1.8928 1.04891 0
M  V30 8116 C 793.744 2.55387 -2.22627 0
M  V30 8117 C 792.303 3.08522 -2.15618 0
M  V30 8118 C 791.45 1.81347 -2.09782 0
M  V30 8119 H 794.401 0.638156 -1.45304 0
M  V30 8120 H 794.422 3.33193 -1.83746 0
M  V30 8121 H 793.934 2.15222 -3.22957 0
M  V30 8122 H 792.035 3.53217 -1.18611 0
M  V30 8123 H 792.148 3.6829 -3.0643 0
M  V30 8124 H 790.512 2.01839 -1.55349 0
M  V30 8125 H 791.295 1.43369 -3.1193 0
M  V30 8126 N 793.74 1.17359 1.05189 0
M  V30 8127 C 795.017 0.871914 1.75091 0
M  V30 8128 C 795.397 -0.627821 2.01548 0
M  V30 8129 O 794.745 -1.5791 1.65156 0
M  V30 8130 C 794.955 1.70687 3.04413 0
M  V30 8131 C 796.303 1.92684 3.78362 0
M  V30 8132 O 797.327 1.67645 3.14282 0
M  V30 8133 O 796.186 2.34765 4.93505 0
M  V30 8134 H 793.28 0.322831 0.761386 0
M  V30 8135 H 795.826 1.28054 1.11357 0
M  V30 8136 H 794.598 2.72405 2.80911 0
M  V30 8137 H 794.221 1.29602 3.75884 0
M  V30 8138 N 795.218 -1.23913 0.973828 0
M  V30 8139 C 796.466 -1.91771 0.637817 0
M  V30 8140 C 796.787 -1.76434 -0.830435 0
M  V30 8141 O 796.057 -1.13965 -1.59339 0
M  V30 8142 H 794.637 -0.709761 0.232912 0
M  V30 8143 H 797.299 -1.50677 1.23622 0
M  V30 8144 H 796.395 -2.99327 0.883731 0
M  V30 8145 N 796.696 -0.74468 -1.38897 0
M  V30 8146 C 797.924 -0.307428 -2.04603 0
M  V30 8147 C 798.339 1.06115 -1.56157 0
M  V30 8148 O 797.696 1.67233 -0.730701 0
M  V30 8149 C 797.747 -0.31101 -3.6016 0
M  V30 8150 O 797.468 -1.62557 -4.06825 0
M  V30 8151 C 798.969 0.141213 -4.43075 0
M  V30 8152 H 796.189 -0.132741 -0.657739 0
M  V30 8153 H 798.733 -1.01104 -1.77759 0
M  V30 8154 H 796.888 0.343792 -3.85872 0
M  V30 8155 H 797.302 -1.54569 -5.01207 0
M  V30 8156 H 798.776 0.0875449 -5.51931 0
M  V30 8157 H 799.253 1.18782 -4.22833 0
M  V30 8158 H 799.859 -0.484383 -4.22533 0
M  V30 8159 N 798.174 1.49689 -0.493057 0
M  V30 8160 C 799.121 2.28976 0.28959 0
M  V30 8161 C 800.091 1.35011 0.967536 0
M  V30 8162 O 801.276 1.63964 0.975736 0
M  V30 8163 C 798.416 3.1748 1.35279 0
M  V30 8164 C 797.529 4.26496 0.687418 0
M  V30 8165 C 796.664 5.02226 1.73038 0
M  V30 8166 C 795.703 6.03089 1.04645 0
M  V30 8167 N 794.84 6.72014 2.03325 0
M  V30 8168 H 799.68 2.954 -0.392798 0
M  V30 8169 H 797.217 1.45657 -0.205554 0
M  V30 8170 H 799.175 3.67162 1.98111 0
M  V30 8171 H 797.805 2.53057 2.00405 0
M  V30 8172 H 796.857 3.80362 -0.0540001 0
M  V30 8173 H 798.169 4.98578 0.14864 0
M  V30 8174 H 797.323 5.55737 2.43395 0
M  V30 8175 H 796.062 4.29899 2.303 0
M  V30 8176 H 795.067 5.48817 0.328606 0
M  V30 8177 H 796.292 6.77398 0.480428 0
M  V30 8178 H 794.238 6.02464 2.59564 0
M  V30 8179 H 794.155 7.40046 1.54492 0
M  V30 8180 H 795.423 7.30133 2.72995 0
M  V30 8181 N 799.652 0.226554 1.55963 0
M  V30 8182 C 800.929 -0.453058 1.90281 0
M  V30 8183 C 801.309 -1.77377 1.14458 0
M  V30 8184 O 800.657 -2.27067 0.255496 0
M  V30 8185 C 800.867 -0.641108 3.43061 0
M  V30 8186 C 802.215 -0.946265 4.13921 0
M  V30 8187 O 803.239 -0.727713 3.48687 0
M  V30 8188 O 802.098 -1.36131 5.29274 0
M  V30 8189 H 799.192 -0.240242 0.791336 0
M  V30 8190 H 801.738 0.26911 1.67553 0
M  V30 8191 H 800.51 0.290283 3.90222 0
M  V30 8192 H 800.133 -1.41458 3.71585 0
M  V30 8193 N 801.13 -1.57531 -0.0467866 0
M  V30 8194 C 802.358 -1.92696 -0.753371 0
M  V30 8195 C 802.773 -0.824792 -1.69831 0
M  V30 8196 O 802.13 0.200155 -1.81399 0
M  V30 8197 C 802.181 -3.27728 -1.52566 0
M  V30 8198 O 801.902 -4.3371 -0.618674 0
M  V30 8199 C 803.403 -3.77066 -2.33101 0
M  V30 8200 H 800.623 -0.636367 -0.212788 0
M  V30 8201 H 803.167 -2.04498 -0.00959361 0
M  V30 8202 H 801.322 -3.17378 -2.22148 0
M  V30 8203 H 801.736 -5.11548 -1.15839 0
M  V30 8204 H 803.21 -4.74109 -2.82709 0
M  V30 8205 H 803.687 -3.07348 -3.13741 0
M  V30 8206 H 804.293 -3.90442 -1.68628 0
M  V30 8207 N 802.608 0.318715 -1.54344 0
M  V30 8208 C 803.854 1.05765 -1.73037 0
M  V30 8209 C 804.187 1.87514 -0.505181 0
M  V30 8210 O 803.462 1.88021 0.497838 0
M  V30 8211 C 803.745 1.97836 -3.00887 0
M  V30 8212 C 803.598 1.19384 -4.33668 0
M  V30 8213 C 804.917 2.97285 -3.24514 0
M  V30 8214 H 802.036 0.383104 -0.629603 0
M  V30 8215 H 804.678 0.333864 -1.87044 0
M  V30 8216 H 802.828 2.59552 -2.89076 0
M  V30 8217 H 804.5 0.600906 -4.57369 0
M  V30 8218 H 802.743 0.496198 -4.30953 0
M  V30 8219 H 803.414 1.87014 -5.19355 0
M  V30 8220 H 805.89 2.45693 -3.35819 0
M  V30 8221 H 804.766 3.58887 -4.15321 0
M  V30 8222 H 805.027 3.70003 -2.41971 0
M  V30 8223 N 804.086 1.46499 0.581025 0
M  V30 8224 C 804.996 1.59778 1.71779 0
M  V30 8225 C 806.012 0.481223 1.67213 0
M  V30 8226 O 807.188 0.74557 1.87091 0
M  V30 8227 C 804.253 1.58626 3.08283 0
M  V30 8228 C 803.314 2.81527 3.241 0
M  V30 8229 C 802.547 2.80421 4.54092 0
M  V30 8230 O 802.77 1.89262 5.38085 0
M  V30 8231 O 801.704 3.71984 4.73193 0
M  V30 8232 H 805.53 2.55918 1.63523 0
M  V30 8233 H 803.115 1.29311 0.748267 0
M  V30 8234 H 804.997 1.60686 3.89561 0
M  V30 8235 H 803.672 0.656467 3.16973 0
M  V30 8236 H 802.579 2.85021 2.42309 0
M  V30 8237 H 803.912 3.73721 3.20302 0
M  V30 8238 N 805.565 -0.825799 1.34232 0
M  V30 8239 C 806.811 -1.58419 1.26614 0
M  V30 8240 C 807.144 -1.93503 -0.164341 0
M  V30 8241 O 806.419 -1.59785 -1.109 0
M  V30 8242 C 806.702 -2.8856 2.15418 0
M  V30 8243 C 806.555 -2.60075 3.66989 0
M  V30 8244 C 807.874 -3.90107 2.03726 0
M  V30 8245 H 804.993 -0.574794 0.461282 0
M  V30 8246 H 807.635 -0.951519 1.64457 0
M  V30 8247 H 805.785 -3.42553 1.83275 0
M  V30 8248 H 807.457 -2.12414 4.09485 0
M  V30 8249 H 805.7 -1.93565 3.88221 0
M  V30 8250 H 806.371 -3.52866 4.24488 0
M  V30 8251 H 808.847 -3.45459 2.31942 0
M  V30 8252 H 807.723 -4.78976 2.68092 0
M  V30 8253 H 807.984 -4.30329 1.01337 0
M  V30 8254 N 807.043 -1.17915 -1.04565 0
M  V30 8255 C 808.271 -0.99616 -1.8134 0
M  V30 8256 C 808.686 0.455509 -1.83223 0
M  V30 8257 O 808.043 1.31636 -1.26405 0
M  V30 8258 C 808.094 -1.53758 -3.27171 0
M  V30 8259 O 807.815 -2.93241 -3.25486 0
M  V30 8260 C 809.316 -1.40007 -4.2061 0
M  V30 8261 H 806.536 -0.352055 -0.571225 0
M  V30 8262 H 809.08 -1.56349 -1.31815 0
M  V30 8263 H 807.235 -1.01213 -3.73945 0
M  V30 8264 H 807.649 -3.18392 -4.16805 0
M  V30 8265 H 809.123 -1.82695 -5.2089 0
M  V30 8266 H 809.6 -0.348054 -4.37819 0
M  V30 8267 H 810.206 -1.916 -3.79697 0
M  V30 8268 N 808.521 1.23394 -0.980386 0
M  V30 8269 C 809.767 1.92094 -0.650223 0
M  V30 8270 C 810.1 1.76309 0.814173 0
M  V30 8271 O 809.375 1.12406 1.5873 0
M  V30 8272 C 809.658 3.44713 -1.04139 0
M  V30 8273 C 809.511 3.69606 -2.56342 0
M  V30 8274 C 810.83 4.36191 -0.585296 0
M  V30 8275 H 807.949 0.697618 -0.237695 0
M  V30 8276 H 810.591 1.45517 -1.22167 0
M  V30 8277 H 808.741 3.84513 -0.55515 0
M  V30 8278 H 810.413 3.39288 -3.1254 0
M  V30 8279 H 808.656 3.14318 -2.98976 0
M  V30 8280 H 809.327 4.76441 -2.78762 0
M  V30 8281 H 811.803 4.03836 -1.00276 0
M  V30 8282 H 810.679 5.41679 -0.887428 0
M  V30 8283 H 810.94 4.39097 0.51438 0
M  V30 8284 N 809.999 0.752036 1.385 0
M  V30 8285 C 810.949 0.0990189 2.27785 0
M  V30 8286 C 811.933 -0.694867 1.45122 0
M  V30 8287 O 813.125 -0.561077 1.67872 0
M  V30 8288 C 810.254 -0.794531 3.33979 0
M  V30 8289 C 809.34 0.00611984 4.241 0
M  V30 8290 N 809.731 1.04174 4.94956 0
M  V30 8291 C 808.029 -0.220934 4.45452 0
M  V30 8292 C 808.73 1.52601 5.61327 0
M  V30 8293 N 807.706 0.84159 5.37046 0
M  V30 8294 H 811.508 0.892208 2.8003 0
M  V30 8295 H 809.022 0.587934 1.51384 0
M  V30 8296 H 811.019 -1.27797 3.96829 0
M  V30 8297 H 809.679 -1.58669 2.83292 0
M  V30 8298 H 810.69 1.42349 4.97953 0
M  V30 8299 H 807.367 -0.986556 4.05676 0
M  V30 8300 H 808.757 2.38857 6.2801 0
M  V30 8301 N 811.477 -1.49425 0.500989 0
M  V30 8302 C 812.723 -2.02753 -0.0436 0
M  V30 8303 C 813.056 -1.37991 -1.36646 0
M  V30 8304 O 812.331 -0.515597 -1.87542 0
M  V30 8305 C 812.614 -3.59565 -0.19616 0
M  V30 8306 C 812.467 -4.34855 1.14982 0
M  V30 8307 C 813.786 -4.30014 -0.936795 0
M  V30 8308 H 810.905 -0.73686 -0.0143711 0
M  V30 8309 H 813.547 -1.78448 0.652397 0
M  V30 8310 H 811.697 -3.80405 -0.788959 0
M  V30 8311 H 813.369 -4.25512 1.7815 0
M  V30 8312 H 811.612 -3.97414 1.73911 0
M  V30 8313 H 812.283 -5.42933 0.996385 0
M  V30 8314 H 814.759 -4.1383 -0.434036 0
M  V30 8315 H 813.635 -5.39483 -1.01238 0
M  V30 8316 H 813.896 -3.95257 -1.9805 0
M  V30 8317 N 812.955 -0.234822 -1.55841 0
M  V30 8318 C 814.183 0.397745 -2.03041 0
M  V30 8319 C 814.598 1.52405 -1.11437 0
M  V30 8320 O 813.955 1.82061 -0.126466 0
M  V30 8321 C 814.006 0.916919 -3.49678 0
M  V30 8322 O 813.727 -0.164493 -4.37791 0
M  V30 8323 C 815.228 1.62139 -4.12584 0
M  V30 8324 H 812.448 0.0959214 -0.664108 0
M  V30 8325 H 814.992 -0.355156 -2.01392 0
M  V30 8326 H 813.147 1.62004 -3.519 0
M  V30 8327 H 813.561 0.227794 -5.24005 0
M  V30 8328 H 815.035 1.93651 -5.16917 0
M  V30 8329 H 815.512 2.53918 -3.58361 0
M  V30 8330 H 816.118 0.963145 -4.14251 0
M  V30 8331 N 814.433 1.57553 0.0384317 0
M  V30 8332 C 815.844 1.77258 0.586211 0
M  V30 8333 C 816.195 0.864706 1.76117 0
M  V30 8334 O 815.32 0.057141 2.16325 0
M  V30 8335 C 815.915 3.21453 1.07021 0
M  V30 8336 C 814.474 3.42387 1.56358 0
M  V30 8337 C 813.621 2.72801 0.497508 0
M  V30 8338 H 816.572 1.57585 -0.187796 0
M  V30 8339 H 816.593 3.27451 1.93794 0
M  V30 8340 H 816.105 3.87505 0.214851 0
M  V30 8341 H 814.206 2.81497 2.44111 0
M  V30 8342 H 814.319 4.50968 1.61754 0
M  V30 8343 H 812.683 2.36305 0.95038 0
M  V30 8344 H 813.466 3.41529 -0.348234 0
M  V30 8345 N 815.911 -0.310526 1.54511 0
M  V30 8346 C 816.858 -1.38264 1.84802 0
M  V30 8347 C 817.828 -1.50808 0.696141 0
M  V30 8348 O 819.013 -1.6582 0.943846 0
M  V30 8349 C 816.153 -2.74422 2.09252 0
M  V30 8350 C 815.266 -2.70405 3.36906 0
M  V30 8351 C 814.401 -3.98495 3.51248 0
M  V30 8352 C 813.44 -3.88836 4.72729 0
M  V30 8353 N 812.577 -5.08683 4.83928 0
M  V30 8354 H 817.417 -1.11732 2.76261 0
M  V30 8355 H 814.954 -0.540609 1.36806 0
M  V30 8356 H 816.912 -3.53593 2.21422 0
M  V30 8357 H 815.542 -2.99235 1.2107 0
M  V30 8358 H 814.594 -1.83151 3.33406 0
M  V30 8359 H 815.906 -2.59155 4.26193 0
M  V30 8360 H 815.06 -4.861 3.63031 0
M  V30 8361 H 813.799 -4.12567 2.60077 0
M  V30 8362 H 812.804 -2.99615 4.60989 0
M  V30 8363 H 814.029 -3.76318 5.65298 0
M  V30 8364 H 811.975 -5.23236 3.95677 0
M  V30 8365 H 811.892 -4.99819 5.67201 0
M  V30 8366 H 813.16 -5.97966 5.00057 0
M  V30 8367 N 817.389 -1.46805 -0.573248 0
M  V30 8368 C 818.8 -1.46655 -1.15539 0
M  V30 8369 C 819.151 -0.2125 -1.95046 0
M  V30 8370 O 818.276 0.683759 -2.05314 0
M  V30 8371 C 818.871 -2.65711 -2.10198 0
M  V30 8372 C 817.43 -2.68572 -2.63716 0
M  V30 8373 C 816.577 -2.39498 -1.39772 0
M  V30 8374 H 819.528 -1.54547 -0.36068 0
M  V30 8375 H 819.549 -2.41768 -2.93817 0
M  V30 8376 H 819.061 -3.56967 -1.52303 0
M  V30 8377 H 817.162 -1.81414 -3.25453 0
M  V30 8378 H 817.275 -3.68809 -3.05805 0
M  V30 8379 H 815.639 -1.89749 -1.69904 0
M  V30 8380 H 816.422 -3.32942 -0.836943 0
M  V30 8381 N 818.867 0.818669 -1.34668 0
M  V30 8382 C 820.113 1.57746 -1.27453 0
M  V30 8383 C 820.446 1.93588 0.154077 0
M  V30 8384 O 819.721 1.60371 1.10051 0
M  V30 8385 C 820.004 2.87414 -2.16945 0
M  V30 8386 C 819.857 2.58125 -3.68363 0
M  V30 8387 C 821.176 3.89021 -2.05792 0
M  V30 8388 H 818.295 0.572339 -0.464324 0
M  V30 8389 H 820.937 0.942784 -1.64959 0
M  V30 8390 H 819.087 3.41576 -1.85089 0
M  V30 8391 H 820.759 2.10239 -4.10606 0
M  V30 8392 H 819.002 1.91503 -3.89242 0
M  V30 8393 H 819.673 3.5061 -4.26353 0
M  V30 8394 H 822.149 3.44224 -2.33771 0
M  V30 8395 H 821.025 4.77548 -2.70628 0
M  V30 8396 H 821.286 4.29786 -1.03618 0
M  V30 8397 N 820.346 1.18468 1.03938 0
M  V30 8398 C 821.757 0.984808 1.58614 0
M  V30 8399 C 822.108 -0.465165 1.90606 0
M  V30 8400 O 821.233 -1.34274 1.69704 0
M  V30 8401 C 821.828 1.78135 2.8819 0
M  V30 8402 C 820.387 1.62579 3.39478 0
M  V30 8403 C 819.534 1.77501 2.13046 0
M  V30 8404 H 822.485 1.32993 0.865944 0
M  V30 8405 H 822.506 1.27119 3.58638 0
M  V30 8406 H 822.018 2.83661 2.64874 0
M  V30 8407 H 820.119 0.59595 3.67803 0
M  V30 8408 H 820.232 2.42463 4.13217 0
M  V30 8409 H 818.596 1.2046 2.24414 0
M  V30 8410 H 819.379 2.84464 1.92185 0
M  V30 8411 N 821.824 -1.22873 0.986916 0
M  V30 8412 C 823.101 -1.86939 0.575589 0
M  V30 8413 C 823.481 -1.88656 -0.947205 0
M  V30 8414 O 822.829 -1.3728 -1.82665 0
M  V30 8415 C 823.039 -3.28117 1.18914 0
M  V30 8416 C 824.387 -4.04659 1.28593 0
M  V30 8417 O 825.411 -3.3736 1.14308 0
M  V30 8418 O 824.27 -5.25112 1.51391 0
M  V30 8419 H 821.364 -0.803748 0.194724 0
M  V30 8420 H 823.91 -1.30698 1.08241 0
M  V30 8421 H 822.682 -3.21468 2.231 0
M  V30 8422 H 822.305 -3.91956 0.667535 0
M  V30 8423 N 823.302 -0.75937 -1.38099 0
M  V30 8424 C 824.249 -0.135508 -2.30402 0
M  V30 8425 C 825.219 0.703356 -1.50473 0
M  V30 8426 O 826.404 0.658287 -1.79084 0
M  V30 8427 C 823.544 0.747228 -3.36913 0
M  V30 8428 C 822.657 -0.106893 -4.31868 0
M  V30 8429 C 821.792 0.779388 -5.25451 0
M  V30 8430 C 820.831 -0.0780179 -6.1205 0
M  V30 8431 N 819.968 0.765545 -6.97914 0
M  V30 8432 H 824.808 -0.9282 -2.83176 0
M  V30 8433 H 822.345 -0.46935 -1.39411 0
M  V30 8434 H 824.303 1.27371 -3.97281 0
M  V30 8435 H 822.933 1.50565 -2.85535 0
M  V30 8436 H 821.985 -0.751063 -3.72912 0
M  V30 8437 H 823.297 -0.768798 -4.9284 0
M  V30 8438 H 822.451 1.37282 -5.90964 0
M  V30 8439 H 821.19 1.47501 -4.6486 0
M  V30 8440 H 820.195 -0.684078 -5.45528 0
M  V30 8441 H 821.42 -0.770786 -6.74712 0
M  V30 8442 H 819.366 1.44601 -6.39864 0
M  V30 8443 H 819.283 0.160666 -7.55829 0
M  V30 8444 H 820.551 1.34377 -7.6783 0
M  V30 8445 N 824.78 1.49157 -0.508906 0
M  V30 8446 C 826.057 1.95363 0.0961913 0
M  V30 8447 C 826.437 1.45064 1.53362 0
M  V30 8448 O 825.785 0.667835 2.18523 0
M  V30 8449 C 825.995 3.49 0.000688881 0
M  V30 8450 C 827.343 4.24257 0.170632 0
M  V30 8451 O 828.367 3.5612 0.0754994 0
M  V30 8452 O 827.226 5.45267 0.366957 0
M  V30 8453 H 824.32 0.821984 0.0909489 0
M  V30 8454 H 826.866 1.59769 -0.572007 0
M  V30 8455 H 825.638 3.78269 -1.00143 0
M  V30 8456 H 825.261 3.91233 0.708682 0
M  V30 8457 N 826.258 0.243083 1.55714 0
M  V30 8458 C 827.205 -0.658078 2.21219 0
M  V30 8459 C 828.175 -1.1742 1.17481 0
M  V30 8460 O 829.36 -1.22937 1.45915 0
M  V30 8461 C 826.5 -1.85104 2.91257 0
M  V30 8462 C 825.613 -1.3718 4.09641 0
M  V30 8463 C 824.748 -2.52403 4.67404 0
M  V30 8464 C 823.787 -2.01321 5.78045 0
M  V30 8465 N 822.924 -3.09896 6.30007 0
M  V30 8466 H 827.764 -0.0927854 2.97856 0
M  V30 8467 H 825.301 -0.0340375 1.47061 0
M  V30 8468 H 827.259 -2.55179 3.3006 0
M  V30 8469 H 825.889 -2.38887 2.17101 0
M  V30 8470 H 824.941 -0.565232 3.76177 0
M  V30 8471 H 826.253 -0.957409 4.89525 0
M  V30 8472 H 825.407 -3.30525 5.08761 0
M  V30 8473 H 824.146 -2.97142 3.86728 0
M  V30 8474 H 823.151 -1.21667 5.36169 0
M  V30 8475 H 824.376 -1.57556 6.6057 0
M  V30 8476 H 822.322 -3.54077 5.52237 0
M  V30 8477 H 822.239 -2.72776 7.05074 0
M  V30 8478 H 823.507 -3.8809 6.76023 0
M  V30 8479 N 827.736 -1.57571 -0.0300757 0
M  V30 8480 C 828.966 -1.93204 -0.731828 0
M  V30 8481 C 829.374 -0.841156 -1.69473 0
M  V30 8482 O 828.717 0.191231 -1.82702 0
M  V30 8483 C 828.779 -3.2463 -1.54453 0
M  V30 8484 C 828.443 -4.50862 -0.746507 0
M  V30 8485 C 829.44 -5.19879 -0.0472309 0
M  V30 8486 C 827.125 -4.9738 -0.701347 0
M  V30 8487 C 829.119 -6.33692 0.686518 0
M  V30 8488 C 826.806 -6.11089 0.036148 0
M  V30 8489 C 827.804 -6.791 0.728841 0
M  V30 8490 O 827.492 -7.90635 1.45436 0
M  V30 8491 H 827.224 -0.6423 -0.210775 0
M  V30 8492 H 829.778 -2.05398 0.00804194 0
M  V30 8493 H 828.008 -3.0876 -2.32818 0
M  V30 8494 H 829.697 -3.45597 -2.1288 0
M  V30 8495 H 830.463 -4.84945 -0.0731582 0
M  V30 8496 H 826.342 -4.44288 -1.23001 0
M  V30 8497 H 829.886 -6.86711 1.22773 0
M  V30 8498 H 825.783 -6.45468 0.064002 0
M  V30 8499 H 826.551 -8.06988 1.36794 0
M  V30 8500 N 829.214 0.302327 -1.54673 0
M  V30 8501 C 830.491 1.05721 -1.64567 0
M  V30 8502 C 830.871 2.0526 -0.493108 0
M  V30 8503 O 830.219 2.22729 0.510315 0
M  V30 8504 C 830.429 1.74025 -3.02517 0
M  V30 8505 C 831.777 2.26271 -3.59286 0
M  V30 8506 O 832.801 1.8406 -3.0496 0
M  V30 8507 O 831.66 3.0361 -4.54404 0
M  V30 8508 H 828.754 0.488577 -0.667249 0
M  V30 8509 H 831.3 0.300521 -1.67018 0
M  V30 8510 H 830.072 1.0174 -3.77842 0
M  V30 8511 H 829.695 2.56454 -3.03838 0
M  V30 8512 N 830.692 1.47107 0.565454 0
M  V30 8513 C 832.103 1.47266 1.1476 0
M  V30 8514 C 832.454 0.222841 1.9493 0
M  V30 8515 O 831.579 -0.672862 2.05673 0
M  V30 8516 C 832.174 2.66822 2.08785 0
M  V30 8517 C 830.733 2.69967 2.62288 0
M  V30 8518 C 829.88 2.40236 1.38499 0
M  V30 8519 H 832.831 1.54736 0.352479 0
M  V30 8520 H 832.852 2.43323 2.92531 0
M  V30 8521 H 832.364 3.5777 1.50408 0
M  V30 8522 H 830.465 1.83137 3.24487 0
M  V30 8523 H 830.578 3.70426 3.03845 0
M  V30 8524 H 828.942 1.90648 1.68895 0
M  V30 8525 H 829.725 3.33381 0.819274 0
M  V30 8526 N 832.17 -0.811516 1.35101 0
M  V30 8527 C 833.398 -1.59981 1.31201 0
M  V30 8528 C 833.813 -1.8847 -0.111552 0
M  V30 8529 O 833.17 -1.48414 -1.06205 0
M  V30 8530 C 833.221 -2.934 2.11184 0
M  V30 8531 O 832.942 -2.66148 3.4799 0
M  V30 8532 C 834.443 -3.87776 2.14813 0
M  V30 8533 H 831.663 -0.496921 0.450899 0
M  V30 8534 H 834.207 -1.00886 1.77883 0
M  V30 8535 H 832.362 -3.49022 1.68115 0
M  V30 8536 H 832.776 -3.51301 3.89471 0
M  V30 8537 H 834.25 -4.7852 2.75178 0
M  V30 8538 H 834.727 -4.23997 1.14556 0
M  V30 8539 H 835.333 -3.3809 2.58022 0
M  V30 8540 N 833.648 -1.19017 -1.03309 0
M  V30 8541 C 834.896 -0.988258 -1.76289 0
M  V30 8542 C 835.217 0.482557 -1.88935 0
M  V30 8543 O 834.487 1.34969 -1.41987 0
M  V30 8544 H 833.067 -0.36267 -0.653054 0
M  V30 8545 H 835.729 -1.49836 -1.2464 0
M  V30 8546 H 834.825 -1.43273 -2.77271 0
M  V30 8547 N 835.127 1.22348 -0.993418 0
M  V30 8548 C 836.375 1.90733 -0.668246 0
M  V30 8549 C 836.696 1.77732 0.802261 0
M  V30 8550 O 835.966 1.16486 1.57505 0
M  V30 8551 H 834.546 0.705966 -0.244174 0
M  V30 8552 H 837.208 1.48691 -1.26004 0
M  V30 8553 H 836.304 2.97883 -0.931239 0
M  V30 8554 N 836.605 0.766683 1.37694 0
M  V30 8555 C 837.515 0.150158 2.34119 0
M  V30 8556 C 838.531 -0.685513 1.59927 0
M  V30 8557 O 839.707 -0.606616 1.92047 0
M  V30 8558 C 836.772 -0.722562 3.39087 0
M  V30 8559 C 835.833 0.128983 4.29106 0
M  V30 8560 C 835.066 -0.702178 5.29061 0
M  V30 8561 O 835.289 -1.93954 5.36412 0
M  V30 8562 O 834.223 -0.114056 6.01792 0
M  V30 8563 H 838.049 0.946829 2.88563 0
M  V30 8564 H 835.634 0.527765 1.39768 0
M  V30 8565 H 837.516 -1.22095 4.03325 0
M  V30 8566 H 836.191 -1.49751 2.86978 0
M  V30 8567 H 835.098 0.673612 3.67985 0
M  V30 8568 H 836.431 0.866892 4.84506 0
M  V30 8569 N 838.083 -1.48885 0.516809 0
M  V30 8570 C 839.311 -2.06892 -0.0184017 0
M  V30 8571 C 839.726 -1.37511 -1.29368 0
M  V30 8572 O 839.083 -0.458409 -1.76649 0
M  V30 8573 C 839.134 -3.60566 -0.259673 0
M  V30 8574 O 838.855 -4.27338 0.965065 0
M  V30 8575 C 840.356 -4.35331 -0.836751 0
M  V30 8576 H 837.576 -0.670433 0.0275743 0
M  V30 8577 H 840.12 -1.91455 0.718689 0
M  V30 8578 H 838.275 -3.75653 -0.94678 0
M  V30 8579 H 838.689 -5.19287 0.737647 0
M  V30 8580 H 840.163 -5.43675 -0.955065 0
M  V30 8581 H 840.64 -3.9887 -1.83845 0
M  V30 8582 H 841.246 -4.2489 -0.186622 0
M  V30 8583 N 839.561 -0.251338 -1.55583 0
M  V30 8584 C 840.789 0.376187 -2.03451 0
M  V30 8585 C 841.204 1.51215 -1.13047 0
M  V30 8586 O 840.561 1.81917 -0.145769 0
M  V30 8587 C 840.612 0.879779 -3.50631 0
M  V30 8588 O 840.333 -0.210917 -4.37592 0
M  V30 8589 C 841.834 1.57754 -4.14281 0
M  V30 8590 H 839.054 0.0888722 -0.665089 0
M  V30 8591 H 841.598 -0.376497 -2.01004 0
M  V30 8592 H 839.753 1.58263 -3.53598 0
M  V30 8593 H 840.167 0.172203 -5.24217 0
M  V30 8594 H 841.641 1.88158 -5.18942 0
M  V30 8595 H 842.118 2.50103 -3.61034 0
M  V30 8596 H 842.724 0.919154 -4.15249 0
M  V30 8597 N 841.039 1.57585 0.0217189 0
M  V30 8598 C 842.285 1.89887 0.712099 0
M  V30 8599 C 842.618 0.849971 1.74611 0
M  V30 8600 O 841.893 -0.13407 1.94037 0
M  V30 8601 C 842.176 3.32815 1.37499 0
M  V30 8602 C 842.029 4.48405 0.353993 0
M  V30 8603 C 843.348 3.74786 2.30703 0
M  V30 8604 H 840.467 0.690588 0.257405 0
M  V30 8605 H 843.109 1.89983 -0.0251145 0
M  V30 8606 H 841.259 3.32863 2.00335 0
M  V30 8607 H 842.931 4.60491 -0.273015 0
M  V30 8608 H 841.174 4.32573 -0.32599 0
M  V30 8609 H 841.845 5.45316 0.85644 0
M  V30 8610 H 844.321 3.76151 1.77904 0
M  V30 8611 H 843.197 4.75585 2.74061 0
M  V30 8612 H 843.458 3.07449 3.17691 0
M  V30 8613 N 842.517 -0.29412 1.54831 0
M  V30 8614 C 843.928 -0.866651 1.65366 0
M  V30 8615 C 844.279 -1.87834 0.56681 0
M  V30 8616 O 843.404 -2.14374 -0.295389 0
M  V30 8617 C 843.999 -1.57869 2.99771 0
M  V30 8618 C 842.558 -2.09954 3.12404 0
M  V30 8619 C 841.705 -0.934492 2.6108 0
M  V30 8620 H 844.656 -0.0709551 1.58541 0
M  V30 8621 H 844.677 -2.44462 2.91579 0
M  V30 8622 H 844.189 -0.84212 3.78853 0
M  V30 8623 H 842.29 -2.86637 2.38055 0
M  V30 8624 H 842.403 -2.32934 4.18663 0
M  V30 8625 H 840.767 -1.32199 2.17705 0
M  V30 8626 H 841.55 -0.211768 3.42646 0
M  V30 8627 N 843.995 -1.47404 -0.557645 0
M  V30 8628 C 844.927 -1.55917 -1.67995 0
M  V30 8629 C 845.94 -0.445411 -1.56588 0
M  V30 8630 O 847.129 -0.714999 -1.63554 0
M  V30 8631 C 844.229 -1.44697 -3.06457 0
M  V30 8632 C 843.402 -2.70633 -3.43622 0
M  V30 8633 C 842.461 -2.53256 -4.61246 0
M  V30 8634 O 841.487 -3.27068 -4.65849 0
M  V30 8635 N 842.689 -1.61053 -5.57711 0
M  V30 8636 H 845.454 -2.52694 -1.61139 0
M  V30 8637 H 843.015 -1.43778 -0.744271 0
M  V30 8638 H 845.007 -1.30806 -3.82978 0
M  V30 8639 H 843.577 -0.560039 -3.07542 0
M  V30 8640 H 842.797 -2.99288 -2.56555 0
M  V30 8641 H 844.085 -3.5424 -3.65228 0
M  V30 8642 H 843.483 -1.00235 -5.56749 0
M  V30 8643 H 842.04 -1.53115 -6.33561 0
M  V30 8644 N 845.473 0.80434 -1.35529 0
M  V30 8645 C 846.721 1.55845 -1.28673 0
M  V30 8646 C 847.042 1.94511 0.137976 0
M  V30 8647 O 846.312 1.63775 1.07492 0
M  V30 8648 H 844.892 0.577931 -0.473291 0
M  V30 8649 H 847.554 0.959293 -1.69657 0
M  V30 8650 H 846.65 2.47285 -1.90411 0
M  V30 8651 N 846.951 1.19563 1.02676 0
M  V30 8652 C 848.179 1.02488 1.79732 0
M  V30 8653 C 848.594 -0.426302 1.83924 0
M  V30 8654 O 847.951 -1.29609 1.28483 0
M  V30 8655 C 848.002 1.58944 3.24683 0
M  V30 8656 O 847.723 2.98382 3.2078 0
M  V30 8657 C 849.224 1.46681 4.1833 0
M  V30 8658 H 846.444 0.361098 0.565552 0
M  V30 8659 H 848.988 1.58426 1.29311 0
M  V30 8660 H 847.143 1.0715 3.72287 0
M  V30 8661 H 847.557 3.24983 4.11687 0
M  V30 8662 H 849.031 1.90959 5.17918 0
M  V30 8663 H 849.508 0.417663 4.3721 0
M  V30 8664 H 850.114 1.97616 3.76601 0
M  V30 8665 N 848.429 -1.21819 0.999893 0
M  V30 8666 C 849.84 -1.72517 0.713775 0
M  V30 8667 C 850.191 -1.80505 -0.768922 0
M  V30 8668 O 849.316 -1.45611 -1.60083 0
M  V30 8669 C 849.911 -3.13321 1.28901 0
M  V30 8670 C 848.47 -3.61396 1.05212 0
M  V30 8671 C 847.617 -2.39074 1.40494 0
M  V30 8672 H 850.568 -1.07068 1.17141 0
M  V30 8673 H 850.589 -3.74535 0.671084 0
M  V30 8674 H 850.101 -3.07475 2.36814 0
M  V30 8675 H 848.202 -3.72599 -0.0100732 0
M  V30 8676 H 848.315 -4.47145 1.72042 0
M  V30 8677 H 846.679 -2.41015 0.823642 0
M  V30 8678 H 847.462 -2.35884 2.49427 0
M  V30 8679 N 849.908 -0.773975 -1.37286 0
M  V30 8680 C 851.154 -0.339809 -1.99933 0
M  V30 8681 C 851.487 1.0815 -1.61299 0
M  V30 8682 O 850.762 1.74442 -0.860252 0
M  V30 8683 C 851.045 -0.485919 -3.56806 0
M  V30 8684 C 850.898 -1.9498 -4.05343 0
M  V30 8685 C 852.217 0.108461 -4.39966 0
M  V30 8686 H 849.336 -0.124944 -0.726332 0
M  V30 8687 H 851.978 -0.977433 -1.6293 0
M  V30 8688 H 850.128 0.0569023 -3.88458 0
M  V30 8689 H 851.8 -2.5525 -3.84246 0
M  V30 8690 H 850.043 -2.45784 -3.57453 0
M  V30 8691 H 850.714 -2.00308 -5.14374 0
M  V30 8692 H 853.19 -0.354722 -4.14585 0
M  V30 8693 H 852.066 -0.0238926 -5.48895 0
M  V30 8694 H 852.327 1.19901 -4.25531 0
M  V30 8695 N 851.386 1.48609 -0.524698 0
M  V30 8696 C 852.611 2.07398 0.00952139 0
M  V30 8697 C 853.036 1.37939 1.27884 0
M  V30 8698 O 852.394 0.443633 1.75788 0
M  V30 8699 C 852.442 3.59916 0.221956 0
M  V30 8700 O 851.546 3.91647 1.29175 0
M  V30 8701 H 850.887 0.662981 -0.0367729 0
M  V30 8702 H 853.417 1.91092 -0.7311 0
M  V30 8703 H 853.427 4.05552 0.446236 0
M  V30 8704 H 852.102 4.09876 -0.705306 0
M  V30 8705 H 850.679 3.57796 1.05055 0
M  V30 8706 N 852.864 0.259585 1.55447 0
M  V30 8707 C 854.141 -0.412595 1.91199 0
M  V30 8708 C 854.521 -1.74909 1.18194 0
M  V30 8709 O 853.869 -2.26474 0.303603 0
M  V30 8710 C 854.079 -0.568195 3.44344 0
M  V30 8711 C 855.427 -0.858253 4.15836 0
M  V30 8712 O 856.451 -0.653588 3.50152 0
M  V30 8713 O 855.31 -1.24874 5.32042 0
M  V30 8714 H 852.404 -0.223403 0.796254 0
M  V30 8715 H 854.95 0.30459 1.66944 0
M  V30 8716 H 853.722 0.372989 3.89518 0
M  V30 8717 H 853.345 -1.33544 3.74502 0
M  V30 8718 N 854.342 -1.57594 -0.0133615 0
M  V30 8719 C 855.289 -2.07574 -1.00905 0
M  V30 8720 C 856.259 -0.968231 -1.34961 0
M  V30 8721 O 857.444 -1.23981 -1.45028 0
M  V30 8722 C 854.584 -2.5728 -2.30002 0
M  V30 8723 C 853.697 -3.81881 -2.01967 0
M  V30 8724 C 852.832 -4.20139 -3.25049 0
M  V30 8725 C 851.871 -5.37614 -2.92639 0
M  V30 8726 N 851.008 -5.71229 -4.08218 0
M  V30 8727 H 855.848 -2.92382 -0.575899 0
M  V30 8728 H 853.385 -1.4455 -0.272722 0
M  V30 8729 H 855.343 -2.84171 -3.05454 0
M  V30 8730 H 853.973 -1.75365 -2.71011 0
M  V30 8731 H 853.025 -3.61979 -1.16942 0
M  V30 8732 H 854.337 -4.67441 -1.74069 0
M  V30 8733 H 853.491 -4.48242 -4.08857 0
M  V30 8734 H 852.23 -3.33262 -3.56073 0
M  V30 8735 H 851.235 -5.09248 -2.07235 0
M  V30 8736 H 852.46 -6.26157 -2.62876 0
M  V30 8737 H 850.406 -4.8731 -4.39164 0
M  V30 8738 H 850.323 -6.51333 -3.83799 0
M  V30 8739 H 851.591 -6.03917 -4.92854 0
M  V30 8740 N 855.82 0.285905 -1.54985 0
M  V30 8741 C 856.73 1.37534 -1.90057 0
M  V30 8742 C 857.746 1.54707 -0.796348 0
M  V30 8743 O 858.922 1.69082 -1.09423 0
M  V30 8744 C 855.987 2.7167 -2.15398 0
M  V30 8745 C 855.048 2.63354 -3.39033 0
M  V30 8746 C 854.281 3.91093 -3.63155 0
M  V30 8747 O 854.504 4.91169 -2.90015 0
M  V30 8748 O 853.438 3.92075 -4.56685 0
M  V30 8749 H 857.264 1.10791 -2.8277 0
M  V30 8750 H 854.849 0.483303 -1.41367 0
M  V30 8751 H 856.731 3.51006 -2.33179 0
M  V30 8752 H 855.406 2.98226 -1.25868 0
M  V30 8753 H 854.313 1.82438 -3.26599 0
M  V30 8754 H 855.646 2.41749 -4.2874 0
M  V30 8755 N 857.298 1.47698 0.54982 0
M  V30 8756 C 858.547 1.53961 1.30303 0
M  V30 8757 C 858.86 0.209731 1.94472 0
M  V30 8758 O 860.066 0.150418 2.71083 0
M  V30 8759 C 858.522 2.71436 2.36328 0
M  V30 8760 C 858.13 4.10983 1.78316 0
M  V30 8761 C 859.874 2.86996 3.12783 0
M  V30 8762 C 857.781 5.19747 2.82164 0
M  V30 8763 H 856.711 0.573098 0.489975 0
M  V30 8764 H 859.362 1.73989 0.583089 0
M  V30 8765 H 857.744 2.44801 3.11269 0
M  V30 8766 H 858.918 4.47552 1.09697 0
M  V30 8767 H 857.233 4.00371 1.1442 0
M  V30 8768 H 859.83 3.65422 3.90347 0
M  V30 8769 H 860.173 1.95712 3.67427 0
M  V30 8770 H 860.706 3.13436 2.44954 0
M  V30 8771 H 857.445 6.12932 2.32366 0
M  V30 8772 H 856.965 4.87688 3.49171 0
M  V30 8773 H 858.644 5.47014 3.4552 0
M  V30 8774 N 858.776 -0.797141 1.35954 0
M  V30 8775 C 860.004 -1.5858 1.32891 0
M  V30 8776 C 860.419 -1.88578 -0.0915564 0
M  V30 8777 O 859.776 -1.49532 -1.04625 0
M  V30 8778 C 859.827 -2.91143 2.14284 0
M  V30 8779 O 859.548 -2.62442 3.50793 0
M  V30 8780 C 861.049 -3.85476 2.18914 0
M  V30 8781 H 858.269 -0.492111 0.456144 0
M  V30 8782 H 860.813 -0.98994 1.78943 0
M  V30 8783 H 858.968 -3.47219 1.71807 0
M  V30 8784 H 859.382 -3.4715 3.93175 0
M  V30 8785 H 860.856 -4.75574 2.80238 0
M  V30 8786 H 861.333 -4.22758 1.19047 0
M  V30 8787 H 861.939 -3.35334 2.61593 0
M  V30 8788 N 860.254 -1.20106 -1.0204 0
M  V30 8789 C 861.531 -0.918029 -1.72718 0
M  V30 8790 C 861.911 0.574163 -2.03142 0
M  V30 8791 O 861.259 1.53476 -1.69285 0
M  V30 8792 C 861.469 -1.78698 -2.9978 0
M  V30 8793 C 862.817 -2.02648 -3.7312 0
M  V30 8794 O 863.841 -1.75919 -3.09727 0
M  V30 8795 O 862.7 -2.47767 -4.87107 0
M  V30 8796 H 859.794 -0.342904 -0.752559 0
M  V30 8797 H 862.34 -1.30961 -1.07923 0
M  V30 8798 H 861.112 -2.79757 -2.7359 0
M  V30 8799 H 860.735 -1.39522 -3.72316 0
M  V30 8800 N 861.732 1.21287 -1.00634 0
M  V30 8801 C 862.662 2.25973 -0.588089 0
M  V30 8802 C 863.643 1.65527 0.391764 0
M  V30 8803 O 864.828 1.92179 0.279452 0
M  V30 8804 C 861.958 3.47197 0.0847336 0
M  V30 8805 C 860.912 4.20168 -0.815039 0
M  V30 8806 C 860.238 5.34699 -0.00855393 0
M  V30 8807 C 861.538 4.77416 -2.11828 0
M  V30 8808 H 863.232 2.61212 -1.46317 0
M  V30 8809 H 860.778 1.25563 -0.704985 0
M  V30 8810 H 862.731 4.19602 0.388821 0
M  V30 8811 H 861.455 3.11092 0.994456 0
M  V30 8812 H 860.114 3.49614 -1.10297 0
M  V30 8813 H 859.762 4.94837 0.902499 0
M  V30 8814 H 859.462 5.84449 -0.607664 0
M  V30 8815 H 860.986 6.09914 0.289317 0
M  V30 8816 H 862.4 5.41694 -1.87725 0
M  V30 8817 H 860.797 5.37561 -2.66736 0
M  V30 8818 H 861.867 3.96724 -2.78816 0
M  V30 8819 N 863.21 0.781244 1.36873 0
M  V30 8820 C 864.456 0.350407 1.9975 0
M  V30 8821 C 864.789 -1.07293 1.6187 0
M  V30 8822 O 864.064 -1.73983 0.869491 0
M  V30 8823 C 864.347 0.504834 3.56544 0
M  V30 8824 C 864.2 1.97127 4.04303 0
M  V30 8825 C 865.519 -0.0851272 4.40018 0
M  V30 8826 H 862.638 0.128794 0.725659 0
M  V30 8827 H 865.28 0.98606 1.6241 0
M  V30 8828 H 863.43 -0.0363006 3.88483 0
M  V30 8829 H 865.102 2.57284 3.82887 0
M  V30 8830 H 863.345 2.47676 3.56145 0
M  V30 8831 H 864.016 2.03033 5.13305 0
M  V30 8832 H 866.492 0.376704 4.14391 0
M  V30 8833 H 865.368 0.0530015 5.48874 0
M  V30 8834 H 865.629 -1.17642 4.2616 0
M  V30 8835 N 864.689 -1.48329 0.532571 0
M  V30 8836 C 865.636 -2.29663 -0.228779 0
M  V30 8837 C 866.606 -1.37529 -0.931401 0
M  V30 8838 O 867.791 -1.66493 -0.931921 0
M  V30 8839 C 864.931 -3.20955 -1.26814 0
M  V30 8840 C 864.044 -4.28168 -0.574099 0
M  V30 8841 C 863.179 -5.06638 -1.59661 0
M  V30 8842 C 862.218 -6.05651 -0.88618 0
M  V30 8843 N 861.355 -6.77169 -1.85436 0
M  V30 8844 H 866.195 -2.94255 0.47098 0
M  V30 8845 H 863.732 -1.45061 0.2441 0
M  V30 8846 H 865.69 -3.72285 -1.88307 0
M  V30 8847 H 864.32 -2.58281 -1.93625 0
M  V30 8848 H 863.372 -3.80085 0.154827 0
M  V30 8849 H 864.684 -4.98797 -0.0163984 0
M  V30 8850 H 863.838 -5.61995 -2.28576 0
M  V30 8851 H 862.577 -4.35854 -2.18821 0
M  V30 8852 H 861.582 -5.49495 -0.182981 0
M  V30 8853 H 862.807 -6.78434 -0.300659 0
M  V30 8854 H 860.753 -6.09134 -2.43499 0
M  V30 8855 H 860.67 -7.43882 -1.34816 0
M  V30 8856 H 861.938 -7.37114 -2.53541 0
M  V30 8857 N 866.167 -0.267825 -1.55308 0
M  V30 8858 C 867.416 0.351635 -1.98611 0
M  V30 8859 C 867.729 1.57522 -1.15957 0
M  V30 8860 O 868.935 2.26717 -1.49371 0
M  V30 8861 C 867.391 0.676986 -3.53475 0
M  V30 8862 C 866.999 -0.526385 -4.44897 0
M  V30 8863 C 868.743 1.25948 -4.05386 0
M  V30 8864 C 866.65 -0.176026 -5.91138 0
M  V30 8865 H 865.58 0.13516 -0.741787 0
M  V30 8866 H 868.231 -0.371333 -1.79704 0
M  V30 8867 H 866.613 1.45866 -3.68156 0
M  V30 8868 H 867.787 -1.30339 -4.41982 0
M  V30 8869 H 866.102 -1.02522 -4.03582 0
M  V30 8870 H 868.699 1.53529 -5.12184 0
M  V30 8871 H 869.042 2.19094 -3.53982 0
M  V30 8872 H 869.575 0.540253 -3.94114 0
M  V30 8873 H 866.314 -1.07518 -6.46622 0
M  V30 8874 H 865.834 0.564363 -5.97139 0
M  V30 8875 H 867.513 0.234365 -6.46575 0
M  V30 8876 N 867.645 1.57599 0.00500368 0
M  V30 8877 C 869.056 1.78462 0.54848 0
M  V30 8878 C 869.407 0.901869 1.74243 0
M  V30 8879 O 868.532 0.103014 2.16155 0
M  V30 8880 C 869.127 3.2365 1.00179 0
M  V30 8881 C 867.686 3.45627 1.49061 0
M  V30 8882 C 866.833 2.73794 0.439531 0
M  V30 8883 H 869.784 1.57151 -0.22118 0
M  V30 8884 H 869.805 3.31488 1.86805 0
M  V30 8885 H 869.317 3.87873 0.132607 0
M  V30 8886 H 867.418 2.86612 2.38085 0
M  V30 8887 H 867.531 4.54298 1.52152 0
M  V30 8888 H 865.895 2.38267 0.900043 0
M  V30 8889 H 866.678 3.40714 -0.420599 0
M  V30 8890 N 869.123 -0.277682 1.55134 0
M  V30 8891 C 870.4 -1.0309 1.66228 0
M  V30 8892 C 870.78 -2.0445 0.525701 0
M  V30 8893 O 870.128 -2.23512 -0.474816 0
M  V30 8894 C 870.338 -1.6919 3.05247 0
M  V30 8895 C 871.686 -2.20526 3.62841 0
M  V30 8896 O 872.71 -1.79185 3.07849 0
M  V30 8897 O 871.569 -2.96342 4.59177 0
M  V30 8898 H 868.663 -0.4779 0.674937 0
M  V30 8899 H 871.209 -0.273912 1.67475 0
M  V30 8900 H 869.981 -0.957163 3.79413 0
M  V30 8901 H 869.604 -2.51587 3.07879 0
M  V30 8902 N 870.601 -1.47988 -0.541979 0
M  V30 8903 C 871.849 -1.55086 -1.29587 0
M  V30 8904 C 872.17 -0.221304 -1.9374 0
M  V30 8905 O 871.44 0.756128 -1.80719 0
M  V30 8906 H 870.02 -0.571307 -0.481266 0
M  V30 8907 H 872.682 -1.8438 -0.631675 0
M  V30 8908 H 871.778 -2.32556 -2.08144 0
M  V30 8909 N 872.079 0.78992 -1.36375 0
M  V30 8910 C 873.304 1.58389 -1.33895 0
M  V30 8911 C 873.729 1.8794 0.0774934 0
M  V30 8912 O 873.087 1.4785 1.0493 0
M  V30 8913 C 873.135 2.88201 -2.16732 0
M  V30 8914 O 872.239 3.81778 -1.55946 0
M  V30 8915 H 871.58 0.480471 -0.458305 0
M  V30 8916 H 874.11 0.979119 -1.79651 0
M  V30 8917 H 874.12 3.37475 -2.29292 0
M  V30 8918 H 872.795 2.66019 -3.19698 0
M  V30 8919 H 871.372 3.40371 -1.52323 0
M  V30 8920 N 873.557 1.20646 1.01402 0
M  V30 8921 C 874.504 0.957618 2.09996 0
M  V30 8922 C 875.474 -0.113115 1.65714 0
M  V30 8923 O 876.659 0.032142 1.90773 0
M  V30 8924 C 873.799 0.5186 3.41181 0
M  V30 8925 C 872.912 1.65777 3.98926 0
M  V30 8926 C 872.047 1.16881 5.18182 0
M  V30 8927 C 871.086 2.2809 5.68015 0
M  V30 8928 N 870.223 1.80392 6.7853 0
M  V30 8929 H 875.063 1.88732 2.30617 0
M  V30 8930 H 872.6 0.940703 1.13089 0
M  V30 8931 H 874.558 0.245367 4.16478 0
M  V30 8932 H 873.188 -0.3741 3.20625 0
M  V30 8933 H 872.24 2.04586 3.207 0
M  V30 8934 H 873.552 2.49507 4.31912 0
M  V30 8935 H 872.706 0.851694 6.00692 0
M  V30 8936 H 871.445 0.301434 4.86768 0
M  V30 8937 H 870.45 2.60614 4.84108 0
M  V30 8938 H 871.675 3.15308 6.01463 0
M  V30 8939 H 869.621 0.959856 6.4894 0
M  V30 8940 H 869.538 2.57701 7.10722 0
M  V30 8941 H 870.806 1.51688 7.64598 0
M  V30 8942 N 875.035 -1.20752 1.01276 0
M  V30 8943 C 876.283 -1.89645 0.698505 0
M  V30 8944 C 876.604 -1.78986 -0.773883 0
M  V30 8945 O 875.874 -1.18977 -1.55632 0
M  V30 8946 H 874.454 -0.701992 0.255375 0
M  V30 8947 H 877.116 -1.46668 1.28353 0
M  V30 8948 H 876.212 -2.96364 0.978512 0
M  V30 8949 N 876.513 -0.788492 -1.36457 0
M  V30 8950 C 877.759 -0.360995 -1.99561 0
M  V30 8951 C 878.092 1.06433 -1.62437 0
M  V30 8952 O 877.367 1.7352 -0.878705 0
M  V30 8953 C 877.65 -0.523735 -3.56271 0
M  V30 8954 C 877.503 -1.99268 -4.03252 0
M  V30 8955 C 878.822 0.0617908 -4.40057 0
M  V30 8956 H 875.941 -0.13264 -0.724966 0
M  V30 8957 H 878.583 -0.994659 -1.61884 0
M  V30 8958 H 876.733 0.0156979 -3.88497 0
M  V30 8959 H 878.405 -2.59311 -3.81518 0
M  V30 8960 H 876.648 -2.49561 -3.54826 0
M  V30 8961 H 877.319 -2.05752 -5.12221 0
M  V30 8962 H 879.795 -0.398674 -4.14186 0
M  V30 8963 H 878.671 -0.0821089 -5.48839 0
M  V30 8964 H 878.932 1.15381 -4.26778 0
M  V30 8965 N 877.991 1.48044 -0.54043 0
M  V30 8966 C 879.402 1.86418 -0.102662 0
M  V30 8967 C 879.753 1.4489 1.32293 0
M  V30 8968 O 878.878 0.844319 1.99249 0
M  V30 8969 C 879.473 3.38324 -0.179533 0
M  V30 8970 C 878.032 3.75852 0.203098 0
M  V30 8971 C 877.179 2.72097 -0.534637 0
M  V30 8972 H 880.13 1.398 -0.751103 0
M  V30 8973 H 880.151 3.75641 0.606147 0
M  V30 8974 H 879.663 3.68518 -1.21721 0
M  V30 8975 H 877.764 3.51272 1.24252 0
M  V30 8976 H 877.877 4.78884 -0.143784 0
M  V30 8977 H 876.241 2.54692 0.0203358 0
M  V30 8978 H 877.024 3.05135 -1.57314 0
M  V30 8979 N 879.47 0.276058 1.55163 0
M  V30 8980 C 880.698 -0.343772 2.04024 0
M  V30 8981 C 881.113 -1.49397 1.15438 0
M  V30 8982 O 880.47 -1.81662 0.174692 0
M  V30 8983 C 880.521 -0.823885 3.51986 0
M  V30 8984 O 880.242 0.280507 4.37201 0
M  V30 8985 C 881.743 -1.51143 4.16738 0
M  V30 8986 H 878.963 -0.07828 0.666418 0
M  V30 8987 H 881.507 0.408427 2.0038 0
M  V30 8988 H 879.662 -1.52617 3.56071 0
M  V30 8989 H 880.076 -0.0887831 5.24425 0
M  V30 8990 H 881.55 -1.79878 5.2187 0
M  V30 8991 H 882.027 -2.44327 3.64967 0
M  V30 8992 H 882.633 -0.852975 4.16659 0
M  V30 8993 N 880.948 -1.576 0.00335426 0
M  V30 8994 C 882.194 -1.90996 -0.681799 0
M  V30 8995 C 882.527 -0.877643 -1.73237 0
M  V30 8996 O 881.802 0.103183 -1.94226 0
M  V30 8997 C 882.085 -3.34961 -1.32187 0
M  V30 8998 C 881.938 -4.48911 -0.28261 0
M  V30 8999 C 883.257 -3.78408 -2.24711 0
M  V30 9000 H 880.376 -0.694596 -0.246386 0
M  V30 9001 H 883.018 -1.89919 0.055336 0
M  V30 9002 H 881.168 -3.36008 -1.95014 0
M  V30 9003 H 882.84 -4.59999 0.346241 0
M  V30 9004 H 881.083 -4.32 0.394768 0
M  V30 9005 H 881.754 -5.46609 -0.769576 0
M  V30 9006 H 884.23 -3.78934 -1.71897 0
M  V30 9007 H 883.106 -4.79885 -2.66461 0
M  V30 9008 H 883.367 -3.12464 -3.1276 0
M  V30 9009 N 882.426 0.269451 -1.5528 0
M  V30 9010 C 883.672 1.00206 -1.76314 0
M  V30 9011 C 884.005 1.85812 -0.564581 0
M  V30 9012 O 883.28 1.89509 0.437769 0
M  V30 9013 C 883.563 1.88163 -3.07029 0
M  V30 9014 C 883.416 1.05527 -4.37246 0
M  V30 9015 C 884.735 2.8681 -3.33808 0
M  V30 9016 H 881.854 0.36288 -0.641473 0
M  V30 9017 H 884.496 0.274188 -1.88011 0
M  V30 9018 H 882.646 2.50224 -2.97187 0
M  V30 9019 H 884.318 0.455094 -4.5905 0
M  V30 9020 H 882.561 0.358842 -4.32313 0
M  V30 9021 H 883.232 1.70397 -5.25042 0
M  V30 9022 H 885.708 2.34884 -3.43466 0
M  V30 9023 H 884.584 3.45492 -4.26528 0
M  V30 9024 H 884.845 3.62118 -2.5362 0
M  V30 9025 N 883.904 1.48273 0.534124 0
M  V30 9026 C 885.152 1.55771 1.28762 0
M  V30 9027 C 885.473 0.231575 1.9362 0
M  V30 9028 O 884.743 -0.746533 1.81118 0
M  V30 9029 H 883.323 0.573851 0.47823 0
M  V30 9030 H 885.985 1.84712 0.621888 0
M  V30 9031 H 885.081 2.33657 2.06908 0
M  V30 9032 N 885.382 -0.782676 1.36792 0
M  V30 9033 C 886.659 -1.52939 1.21939 0
M  V30 9034 C 887.039 -2.10228 -0.191639 0
M  V30 9035 O 886.387 -1.94574 -1.19805 0
M  V30 9036 C 886.597 -2.61898 2.30674 0
M  V30 9037 C 887.945 -3.29598 2.67676 0
M  V30 9038 O 888.969 -2.72186 2.29768 0
M  V30 9039 O 887.828 -4.3337 3.32946 0
M  V30 9040 H 884.922 -0.676856 0.47518 0
M  V30 9041 H 887.468 -0.82058 1.48542 0
M  V30 9042 H 886.24 -2.17607 3.25212 0
M  V30 9043 H 885.863 -3.40391 2.05475 0
M  V30 9044 N 886.86 -1.21182 -1.00761 0
M  V30 9045 C 888.276 -0.968607 -1.26847 0
M  V30 9046 C 888.476 0.346561 -1.98497 0
M  V30 9047 O 887.532 1.07287 -2.28573 0
M  V30 9048 C 888.845 -2.1574 -2.09467 0
M  V30 9049 C 890.393 -2.19937 -2.22703 0
M  V30 9050 C 890.868 -3.38328 -3.08704 0
M  V30 9051 N 892.359 -3.38398 -3.16293 0
M  V30 9052 C 893.094 -4.26653 -3.83086 0
M  V30 9053 N 892.59 -5.25101 -4.5193 0
M  V30 9054 N 894.383 -4.14469 -3.797 0
M  V30 9055 H 886.534 -2.05763 -0.526816 0
M  V30 9056 H 888.797 -0.90087 -0.29519 0
M  V30 9057 H 888.503 -3.11034 -1.64167 0
M  V30 9058 H 888.377 -2.14584 -3.10216 0
M  V30 9059 H 890.764 -1.25201 -2.67224 0
M  V30 9060 H 890.845 -2.25139 -1.21433 0
M  V30 9061 H 890.489 -4.33356 -2.64886 0
M  V30 9062 H 890.419 -3.30364 -4.10082 0
M  V30 9063 H 892.91 -2.67149 -2.67282 0
M  V30 9064 H 893.223 -5.8875 -5.00592 0
M  V30 9065 H 891.568 -5.29029 -4.50726 0
M  V30 9066 H 894.759 -3.3682 -3.25069 0
M  V30 9067 H 894.932 -4.83458 -4.31477 0
M  V30 9068 N 888.338 1.20213 -1.01915 0
M  V30 9069 C 889.749 1.7136 -0.741131 0
M  V30 9070 C 890.1 1.81705 0.740107 0
M  V30 9071 O 889.225 1.48139 1.57746 0
M  V30 9072 C 889.82 3.11231 -1.33869 0
M  V30 9073 C 888.379 3.59677 -1.10948 0
M  V30 9074 C 887.526 2.36809 -1.4428 0
M  V30 9075 H 890.477 1.05191 -1.1883 0
M  V30 9076 H 890.498 3.7342 -0.730585 0
M  V30 9077 H 890.01 3.03669 -2.41675 0
M  V30 9078 H 888.111 3.72568 -0.0492052 0
M  V30 9079 H 888.224 4.44351 -1.79134 0
M  V30 9080 H 886.588 2.39674 -0.861881 0
M  V30 9081 H 887.371 2.31886 -2.53148 0
M  V30 9082 N 889.816 0.795718 1.36037 0
M  V30 9083 C 891.093 0.294743 1.93367 0
M  V30 9084 C 891.473 -1.21406 1.72696 0
M  V30 9085 O 890.821 -2.00849 1.08959 0
M  V30 9086 C 891.031 0.694254 3.42025 0
M  V30 9087 C 892.379 0.677566 4.19159 0
M  V30 9088 O 893.403 0.635119 3.50492 0
M  V30 9089 O 892.262 0.726127 5.41655 0
M  V30 9090 H 889.356 0.0745459 0.823633 0
M  V30 9091 H 891.902 0.878685 1.4518 0
M  V30 9092 H 890.674 1.73458 3.50753 0
M  V30 9093 H 890.297 0.0845338 3.9751 0
M  V30 9094 N 891.294 -1.47756 0.548274 0
M  V30 9095 C 892.522 -2.06884 0.0254873 0
M  V30 9096 C 892.937 -1.40225 -1.26422 0
M  V30 9097 O 892.294 -0.495776 -1.75637 0
M  V30 9098 C 892.345 -3.61036 -0.183134 0
M  V30 9099 O 892.066 -4.25195 1.05549 0
M  V30 9100 C 893.567 -4.37008 -0.744222 0
M  V30 9101 H 890.787 -0.669697 0.041789 0
M  V30 9102 H 893.331 -1.89888 0.759138 0
M  V30 9103 H 891.486 -3.77576 -0.866886 0
M  V30 9104 H 891.9 -5.17606 0.847629 0
M  V30 9105 H 893.374 -5.45579 -0.839529 0
M  V30 9106 H 893.851 -4.0268 -1.75344 0
M  V30 9107 H 894.457 -4.25191 -0.0964542 0
M  V30 9108 N 892.772 -0.284283 -1.55015 0
M  V30 9109 C 893.72 0.615091 -2.2432 0
M  V30 9110 C 894.714 1.15051 -1.24337 0
M  V30 9111 O 895.92 1.10308 -1.4224 0
M  V30 9112 H 892.295 0.216927 -0.720033 0
M  V30 9113 H 894.266 0.00783216 -2.98399 0
M  V30 9114 C 893.015 1.78355 -2.98471 0
M  V30 9115 H 892.338 1.38076 -3.752 0
M  V30 9116 H 893.778 2.38927 -3.50271 0
M  V30 9117 C 892.237 2.67757 -2.04469 0
M  V30 9118 O 892.767 3.6838 -1.60185 0
M  V30 9119 N 890.973 2.35125 -1.70776 0
M  V30 9120 H 890.52 1.53346 -2.06985 0
M  V30 9121 H 890.478 2.95212 -1.08153 0
M  V30 9122 N 894.251 1.57596 -0.0117121 0
M  V30 9123 C 895.497 1.91355 0.671661 0
M  V30 9124 C 895.83 0.886818 1.72769 0
M  V30 9125 O 895.105 -0.0928813 1.94278 0
M  V30 9126 C 895.388 3.35657 1.30409 0
M  V30 9127 C 895.241 4.49055 0.2588 0
M  V30 9128 C 896.56 3.79595 2.22701 0
M  V30 9129 H 893.679 0.695893 0.242698 0
M  V30 9130 H 896.321 1.89887 -0.0654071 0
M  V30 9131 H 894.471 3.37038 1.9323 0
M  V30 9132 H 896.143 4.59809 -0.370631 0
M  V30 9133 H 894.386 4.31785 -0.417672 0
M  V30 9134 H 895.057 5.4701 0.740578 0
M  V30 9135 H 897.533 3.7984 1.69885 0
M  V30 9136 H 896.409 4.81292 2.63912 0
M  V30 9137 H 896.67 3.14118 3.11098 0
M  V30 9138 N 895.729 -0.261212 1.5542 0
M  V30 9139 C 897.14 -0.83138 1.67167 0
M  V30 9140 C 897.491 -1.8659 0.606525 0
M  V30 9141 O 896.616 -2.14953 -0.24985 0
M  V30 9142 C 897.211 -1.51475 3.03052 0
M  V30 9143 C 895.77 -2.0328 3.16787 0
M  V30 9144 C 894.917 -0.878903 2.63003 0
M  V30 9145 H 897.868 -0.0373102 1.58656 0
M  V30 9146 H 897.889 -2.38222 2.96699 0
M  V30 9147 H 897.401 -0.76157 3.80554 0
M  V30 9148 H 895.502 -2.81523 2.44082 0
M  V30 9149 H 895.615 -2.24001 4.2351 0
M  V30 9150 H 893.979 -1.27551 2.2046 0
M  V30 9151 H 894.762 -0.13904 3.43018 0
M  V30 9152 N 897.207 -1.48554 -0.526253 0
M  V30 9153 C 898.455 -1.56452 -1.27935 0
M  V30 9154 C 898.776 -0.24184 -1.93495 0
M  V30 9155 O 898.046 0.736917 -1.81511 0
M  V30 9156 H 896.626 -0.576379 -0.47518 0
M  V30 9157 H 899.288 -1.85039 -0.612083 0
M  V30 9158 H 898.384 -2.34751 -2.05666 0
M  V30 9159 N 898.685 0.775411 -1.37205 0
M  V30 9160 C 899.962 1.5229 -1.22748 0
M  V30 9161 C 900.342 2.10327 0.180487 0
M  V30 9162 O 899.69 1.95206 1.18772 0
M  V30 9163 C 899.9 2.60671 -2.3206 0
M  V30 9164 C 901.248 3.28173 -2.6942 0
M  V30 9165 O 902.272 2.70963 -2.31208 0
M  V30 9166 O 901.131 4.31598 -3.3524 0
M  V30 9167 H 898.225 0.674326 -0.478762 0
M  V30 9168 H 900.771 0.812691 -1.48975 0
M  V30 9169 H 899.543 2.1588 -3.26361 0
M  V30 9170 H 899.166 3.39296 -2.07277 0
M  V30 9171 N 900.163 1.21714 1.00117 0
M  V30 9172 C 901.113 0.947259 2.07391 0
M  V30 9173 C 902.097 -0.0989662 1.60595 0
M  V30 9174 O 903.289 0.11047 1.76655 0
M  V30 9175 C 900.418 0.517954 3.3937 0
M  V30 9176 C 899.504 1.59846 3.92823 0
M  V30 9177 N 899.895 2.82438 4.19598 0
M  V30 9178 C 898.193 1.46822 4.2114 0
M  V30 9179 C 898.894 3.52247 4.62922 0
M  V30 9180 N 897.87 2.79696 4.66124 0
M  V30 9181 H 901.672 1.8786 2.26022 0
M  V30 9182 H 899.186 1.11344 1.18221 0
M  V30 9183 H 901.183 0.305951 4.15776 0
M  V30 9184 H 899.843 -0.40658 3.22144 0
M  V30 9185 H 900.854 3.18944 4.08038 0
M  V30 9186 H 897.531 0.609259 4.13031 0
M  V30 9187 H 898.921 4.57232 4.9233 0
M  V30 9188 N 901.641 -1.19671 1.02551 0
M  V30 9189 C 902.588 -2.22773 0.603394 0
M  V30 9190 C 903.558 -1.61669 -0.381081 0
M  V30 9191 O 904.743 -1.88756 -0.278505 0
M  V30 9192 C 901.883 -3.45073 -0.0431034 0
M  V30 9193 C 900.996 -4.20574 0.987006 0
M  V30 9194 C 900.131 -5.30291 0.310626 0
M  V30 9195 C 899.17 -5.97545 1.32688 0
M  V30 9196 N 898.307 -6.98833 0.676542 0
M  V30 9197 H 903.147 -2.58238 1.48719 0
M  V30 9198 H 900.684 -1.26881 0.744286 0
M  V30 9199 H 902.642 -4.14925 -0.435141 0
M  V30 9200 H 901.272 -3.10274 -0.890495 0
M  V30 9201 H 900.324 -3.497 1.49713 0
M  V30 9202 H 901.636 -4.66736 1.75952 0
M  V30 9203 H 900.79 -6.06547 -0.136438 0
M  V30 9204 H 899.529 -4.8519 -0.49412 0
M  V30 9205 H 898.534 -5.20043 1.78424 0
M  V30 9206 H 899.759 -6.4473 2.13306 0
M  V30 9207 H 897.705 -6.55911 -0.108172 0
M  V30 9208 H 897.622 -7.43168 1.38699 0
M  V30 9209 H 898.89 -7.79088 0.253367 0
M  V30 9210 N 903.119 -0.802921 -1.35613 0
M  V30 9211 C 904.365 -0.382141 -1.99167 0
M  V30 9212 C 904.698 1.04704 -1.63556 0
M  V30 9213 O 903.973 1.72578 -0.89706 0
M  V30 9214 C 904.256 -0.561493 -3.55695 0
M  V30 9215 C 904.109 -2.03534 -4.01116 0
M  V30 9216 C 905.428 0.0151135 -4.40097 0
M  V30 9217 H 902.547 -0.140322 -0.723518 0
M  V30 9218 H 905.189 -1.01177 -1.6082 0
M  V30 9219 H 903.339 -0.0255083 -3.88492 0
M  V30 9220 H 905.011 -2.63343 -3.78746 0
M  V30 9221 H 903.254 -2.5331 -3.52159 0
M  V30 9222 H 903.925 -2.11173 -5.1001 0
M  V30 9223 H 906.401 -0.442582 -4.1374 0
M  V30 9224 H 905.277 -0.140316 -5.48721 0
M  V30 9225 H 905.538 1.10848 -4.27978 0
M  V30 9226 N 904.597 1.47463 -0.556102 0
M  V30 9227 C 905.825 2.06868 -0.0364585 0
M  V30 9228 C 906.24 1.40893 1.25677 0
M  V30 9229 O 905.597 0.505083 1.75371 0
M  V30 9230 C 905.648 3.61128 0.163984 0
M  V30 9231 O 905.369 4.24629 -1.07803 0
M  V30 9232 C 906.87 4.37397 0.721036 0
M  V30 9233 H 904.09 0.669466 -0.0453399 0
M  V30 9234 H 906.634 1.89482 -0.769198 0
M  V30 9235 H 904.789 3.78031 0.84685 0
M  V30 9236 H 905.203 5.17149 -0.875067 0
M  V30 9237 H 906.677 5.46016 0.810584 0
M  V30 9238 H 907.154 4.03604 1.73206 0
M  V30 9239 H 907.76 4.25236 0.073904 0
M  V30 9240 N 906.075 0.2925 1.54862 0
M  V30 9241 C 907.321 -0.319736 2.00264 0
M  V30 9242 C 907.654 -1.5419 1.18064 0
M  V30 9243 O 906.929 -1.92821 0.254983 0
M  V30 9244 C 907.212 -0.684753 3.5353 0
M  V30 9245 C 907.065 0.545961 4.46474 0
M  V30 9246 C 908.384 -1.51456 4.13218 0
M  V30 9247 H 905.503 -0.11474 0.728014 0
M  V30 9248 H 908.145 0.402907 1.85679 0
M  V30 9249 H 906.295 -1.30044 3.66089 0
M  V30 9250 H 907.967 1.18448 4.45834 0
M  V30 9251 H 906.21 1.1808 4.1742 0
M  V30 9252 H 906.881 0.246544 5.51449 0
M  V30 9253 H 909.357 -0.994421 4.04043 0
M  V30 9254 H 908.233 -1.73875 5.20633 0
M  V30 9255 H 908.494 -2.5011 3.64551 0
M  V30 9256 N 907.553 -1.57587 0.0200696 0
M  V30 9257 C 908.463 -2.13119 -0.980676 0
M  V30 9258 C 909.479 -1.08124 -1.36328 0
M  V30 9259 O 910.655 -1.40134 -1.44653 0
M  V30 9260 C 907.72 -2.63991 -2.24743 0
M  V30 9261 C 906.781 -3.83667 -1.9261 0
M  V30 9262 C 906.014 -4.32103 -3.13246 0
M  V30 9263 O 906.237 -3.79758 -4.25606 0
M  V30 9264 O 905.171 -5.24047 -2.96072 0
M  V30 9265 H 908.997 -2.98887 -0.538528 0
M  V30 9266 H 906.582 -1.48055 -0.19999 0
M  V30 9267 H 908.464 -2.9682 -2.99125 0
M  V30 9268 H 907.139 -1.81311 -2.68157 0
M  V30 9269 H 906.046 -3.55778 -1.15641 0
M  V30 9270 H 907.379 -4.67482 -1.54019 0
M  V30 9271 N 909.032 0.252966 -1.55557 0
M  V30 9272 C 910.278 0.983306 -1.77367 0
M  V30 9273 C 910.611 1.85203 -0.584258 0
M  V30 9274 O 909.886 1.89963 0.417644 0
M  V30 9275 C 910.169 1.84896 -3.09007 0
M  V30 9276 C 910.022 1.00883 -4.38341 0
M  V30 9277 C 911.341 2.83254 -3.36831 0
M  V30 9278 H 908.46 0.356056 -0.645286 0
M  V30 9279 H 911.102 0.254232 -1.88291 0
M  V30 9280 H 909.252 2.47058 -2.99825 0
M  V30 9281 H 910.924 0.40638 -4.59507 0
M  V30 9282 H 909.167 0.31297 -4.3267 0
M  V30 9283 H 909.838 1.64818 -5.2682 0
M  V30 9284 H 912.314 2.31228 -3.45937 0
M  V30 9285 H 911.19 3.40949 -4.30169 0
M  V30 9286 H 911.451 3.59407 -2.57447 0
M  V30 9287 N 910.51 1.48831 0.518367 0
M  V30 9288 C 911.738 1.6112 1.298 0
M  V30 9289 C 912.153 0.275872 1.86774 0
M  V30 9290 O 911.51 -0.736416 1.66983 0
M  V30 9291 C 911.561 2.66675 2.44063 0
M  V30 9292 O 911.282 3.95027 1.89434 0
M  V30 9293 C 912.783 2.8951 3.35706 0
M  V30 9294 H 910.003 0.542916 0.394314 0
M  V30 9295 H 912.547 1.94743 0.624142 0
M  V30 9296 H 910.702 2.35879 3.07311 0
M  V30 9297 H 911.116 4.53031 2.64316 0
M  V30 9298 H 912.59 3.67142 4.12202 0
M  V30 9299 H 913.067 1.98768 3.91648 0
M  V30 9300 H 913.673 3.21656 2.7824 0
M  V30 9301 N 911.988 -0.768124 1.37614 0
M  V30 9302 C 913.218 -1.555 1.36027 0
M  V30 9303 C 913.626 -1.89119 -0.0554273 0
M  V30 9304 O 912.969 -1.52203 -1.02859 0
M  V30 9305 C 913.031 -2.8906 2.13739 0
M  V30 9306 C 912.695 -2.78058 3.62674 0
M  V30 9307 C 913.692 -2.48841 4.5648 0
M  V30 9308 C 911.377 -2.95966 4.05844 0
M  V30 9309 C 913.371 -2.37665 5.91434 0
M  V30 9310 C 911.058 -2.84411 5.40882 0
M  V30 9311 C 912.056 -2.55301 6.33491 0
M  V30 9312 O 911.744 -2.43779 7.66046 0
M  V30 9313 H 911.476 -0.488263 0.467521 0
M  V30 9314 H 914.03 -0.959583 1.81607 0
M  V30 9315 H 912.26 -3.50735 1.62854 0
M  V30 9316 H 913.949 -3.5048 2.04741 0
M  V30 9317 H 914.715 -2.34687 4.24437 0
M  V30 9318 H 910.594 -3.17625 3.34119 0
M  V30 9319 H 914.138 -2.14865 6.63686 0
M  V30 9320 H 910.035 -2.98134 5.72527 0
M  V30 9321 H 910.803 -2.59101 7.76408 0
M  V30 9322 N 913.466 -1.22244 -0.994698 0
M  V30 9323 C 914.877 -1.043 -1.5485 0
M  V30 9324 C 915.228 0.394102 -1.92201 0
M  V30 9325 O 914.353 1.27883 -1.74571 0
M  V30 9326 C 914.948 -1.88708 -2.8138 0
M  V30 9327 C 913.507 -1.75067 -3.3321 0
M  V30 9328 C 912.654 -1.85286 -2.06312 0
M  V30 9329 H 915.605 -1.36115 -0.815988 0
M  V30 9330 H 915.626 -1.40342 -3.53673 0
M  V30 9331 H 915.138 -2.93296 -2.54164 0
M  V30 9332 H 913.239 -0.732047 -3.65338 0
M  V30 9333 H 913.352 -2.57632 -4.03934 0
M  V30 9334 H 911.716 -1.28706 -2.19788 0
M  V30 9335 H 912.499 -2.91401 -1.81494 0
M  V30 9336 N 914.944 1.19125 -1.03184 0
M  V30 9337 C 916.221 1.84674 -0.644574 0
M  V30 9338 C 916.601 1.92042 0.876534 0
M  V30 9339 O 915.949 1.43965 1.77444 0
M  V30 9340 C 916.159 3.23477 -1.3101 0
M  V30 9341 C 917.507 3.99608 -1.43524 0
M  V30 9342 O 918.531 3.32886 -1.2675 0
M  V30 9343 O 917.39 5.19132 -1.70776 0
M  V30 9344 H 914.484 0.795968 -0.22442 0
M  V30 9345 H 917.03 1.2659 -1.13018 0
M  V30 9346 H 915.802 3.12967 -2.34878 0
M  V30 9347 H 915.425 3.89209 -0.812547 0
M  V30 9348 N 916.422 0.810101 1.35185 0
M  V30 9349 C 917.67 0.391343 1.98275 0
M  V30 9350 C 917.991 -1.04592 1.64577 0
M  V30 9351 O 917.261 -1.72417 0.93001 0
M  V30 9352 H 915.841 0.141715 0.733434 0
M  V30 9353 H 918.503 1.03672 1.6504 0
M  V30 9354 H 917.599 0.49991 3.0807 0
M  V30 9355 N 917.9 -1.47166 0.563914 0
M  V30 9356 C 919.128 -2.06846 0.0474287 0
M  V30 9357 C 919.543 -1.41557 -1.24928 0
M  V30 9358 O 918.9 -0.514376 -1.75101 0
M  V30 9359 C 918.951 -3.6121 -0.144831 0
M  V30 9360 O 918.672 -4.24052 1.10053 0
M  V30 9361 C 920.173 -4.37773 -0.69783 0
M  V30 9362 H 917.393 -0.669217 0.0488896 0
M  V30 9363 H 919.937 -1.89072 0.779235 0
M  V30 9364 H 918.092 -3.78474 -0.82679 0
M  V30 9365 H 918.506 -5.16677 0.902481 0
M  V30 9366 H 919.98 -5.46438 -0.781616 0
M  V30 9367 H 920.457 -4.04517 -1.71063 0
M  V30 9368 H 921.063 -4.25269 -0.0513516 0
M  V30 9369 N 919.378 -0.300708 -1.54705 0
M  V30 9370 C 920.325 0.57552 -2.23509 0
M  V30 9371 C 921.295 1.12979 -1.21758 0
M  V30 9372 O 922.48 1.17437 -1.50377 0
M  V30 9373 C 919.62 1.74167 -2.97926 0
M  V30 9374 C 918.733 1.21882 -4.1445 0
M  V30 9375 C 917.868 2.34881 -4.7645 0
M  V30 9376 C 916.907 1.79729 -5.85119 0
M  V30 9377 N 916.044 2.863 -6.41075 0
M  V30 9378 H 920.884 -0.0178257 -2.97995 0
M  V30 9379 H 918.421 -0.0205666 -1.47086 0
M  V30 9380 H 920.379 2.42753 -3.39303 0
M  V30 9381 H 919.009 2.30665 -2.25817 0
M  V30 9382 H 918.061 0.425227 -3.78016 0
M  V30 9383 H 919.373 0.775065 -4.92741 0
M  V30 9384 H 918.527 3.11415 -5.20678 0
M  V30 9385 H 917.266 2.82584 -3.97489 0
M  V30 9386 H 916.271 1.01684 -5.40315 0
M  V30 9387 H 917.496 1.32931 -6.65963 0
M  V30 9388 H 915.442 3.33337 -5.64998 0
M  V30 9389 H 915.359 2.46419 -7.14712 0
M  V30 9390 H 916.627 3.62732 -6.89961 0
M  V30 9391 N 920.856 1.57574 -0.0284266 0
M  V30 9392 C 922.133 1.83064 0.688979 0
M  V30 9393 C 922.513 0.91219 1.90374 0
M  V30 9394 O 921.861 -0.0323672 2.28477 0
M  V30 9395 C 922.071 3.32262 1.06785 0
M  V30 9396 C 923.419 3.98717 1.45978 0
M  V30 9397 O 924.443 3.36753 1.16085 0
M  V30 9398 O 923.302 5.07927 2.01673 0
M  V30 9399 H 920.396 0.7548 0.337944 0
M  V30 9400 H 922.942 1.69607 -0.0560555 0
M  V30 9401 H 921.714 3.90772 0.203235 0
M  V30 9402 H 921.337 3.50823 1.87107 0
M  V30 9403 N 922.334 -0.244713 1.55689 0
M  V30 9404 C 923.562 -0.989944 1.8168 0
M  V30 9405 C 923.977 -1.78863 0.604449 0
M  V30 9406 O 923.334 -1.77437 -0.426907 0
M  V30 9407 C 923.385 -1.92607 3.05916 0
M  V30 9408 O 923.106 -1.1597 4.22472 0
M  V30 9409 C 924.607 -2.78711 3.44724 0
M  V30 9410 H 921.827 -0.2912 0.604519 0
M  V30 9411 H 924.371 -0.266938 2.0275 0
M  V30 9412 H 922.526 -2.60333 2.8689 0
M  V30 9413 H 922.94 -1.79311 4.92898 0
M  V30 9414 H 924.414 -3.40141 4.34751 0
M  V30 9415 H 924.891 -3.49935 2.6541 0
M  V30 9416 H 925.497 -2.16435 3.66109 0
M  V30 9417 N 923.813 -1.49104 -0.510467 0
M  V30 9418 C 925.059 -1.58346 -1.26705 0
M  V30 9419 C 925.392 -0.265121 -1.92382 0
M  V30 9420 O 924.667 0.730558 -1.80258 0
M  V30 9421 C 924.95 -2.7359 -2.34137 0
M  V30 9422 C 924.803 -4.1519 -1.73024 0
M  V30 9423 C 926.122 -2.84511 -3.3577 0
M  V30 9424 H 923.241 -0.57637 -0.459311 0
M  V30 9425 H 925.883 -1.81353 -0.566658 0
M  V30 9426 H 924.033 -2.54105 -2.93876 0
M  V30 9427 H 925.705 -4.46167 -1.17186 0
M  V30 9428 H 923.948 -4.21279 -1.03473 0
M  V30 9429 H 924.619 -4.91683 -2.50903 0
M  V30 9430 H 927.095 -3.0222 -2.86011 0
M  V30 9431 H 925.971 -3.6684 -4.08313 0
M  V30 9432 H 926.232 -1.93471 -3.97519 0
M  V30 9433 N 925.291 0.760815 -1.38019 0
M  V30 9434 C 926.201 1.90526 -1.36884 0
M  V30 9435 C 927.217 1.71941 -0.266908 0
M  V30 9436 O 928.393 1.94988 -0.50413 0
M  V30 9437 C 925.458 3.25799 -1.18558 0
M  V30 9438 C 924.519 3.56961 -2.3849 0
M  V30 9439 C 923.752 4.8578 -2.21029 0
M  V30 9440 O 923.975 5.57629 -1.20023 0
M  V30 9441 O 922.909 5.16254 -3.0946 0
M  V30 9442 H 926.735 1.94437 -2.33298 0
M  V30 9443 H 924.32 0.905091 -1.18863 0
M  V30 9444 H 926.202 4.0669 -1.1037 0
M  V30 9445 H 924.877 3.22716 -0.252241 0
M  V30 9446 H 923.784 2.7626 -2.52252 0
M  V30 9447 H 925.117 3.64798 -3.30429 0
M  V30 9448 N 926.769 1.22769 0.988202 0
M  V30 9449 C 928.015 1.05665 1.73097 0
M  V30 9450 C 928.348 -0.406615 1.89895 0
M  V30 9451 O 927.623 -1.30132 1.44554 0
M  V30 9452 C 927.906 1.77381 3.13382 0
M  V30 9453 C 927.759 3.31332 3.04203 0
M  V30 9454 C 929.078 1.52999 4.12649 0
M  V30 9455 H 926.197 0.385258 0.628288 0
M  V30 9456 H 928.839 1.51171 1.15097 0
M  V30 9457 H 926.989 1.38696 3.62899 0
M  V30 9458 H 928.661 3.79489 2.6227 0
M  V30 9459 H 926.904 3.60767 2.40894 0
M  V30 9460 H 927.575 3.76692 4.03493 0
M  V30 9461 H 930.051 1.86611 3.71908 0
M  V30 9462 H 928.927 2.05666 5.08913 0
M  V30 9463 H 929.188 0.463615 4.39662 0
M  V30 9464 N 928.247 -1.18576 1.03814 0
M  V30 9465 C 929.475 -1.92437 0.759966 0
M  V30 9466 C 929.89 -1.76031 -0.682526 0
M  V30 9467 O 929.247 -1.08829 -1.46501 0
M  V30 9468 C 929.298 -3.43923 1.11351 0
M  V30 9469 O 929.019 -3.5981 2.49937 0
M  V30 9470 C 930.52 -4.34888 0.859472 0
M  V30 9471 H 927.74 -0.610998 0.277349 0
M  V30 9472 H 930.284 -1.50448 1.38512 0
M  V30 9473 H 928.439 -3.83711 0.533362 0
M  V30 9474 H 928.853 -4.53569 2.63393 0
M  V30 9475 H 930.327 -5.39744 1.15672 0
M  V30 9476 H 930.804 -4.38717 -0.205839 0
M  V30 9477 H 931.41 -4.00795 1.42279 0
M  V30 9478 N 929.725 -0.817259 -1.34754 0
M  V30 9479 C 930.971 -0.403244 -1.98751 0
M  V30 9480 C 931.304 1.02963 -1.64658 0
M  V30 9481 O 930.579 1.71617 -0.915314 0
M  V30 9482 C 930.862 -0.599188 -3.5508 0
M  V30 9483 C 930.715 -2.07777 -3.98934 0
M  V30 9484 C 932.034 -0.0315656 -4.40089 0
M  V30 9485 H 929.153 -0.147988 -0.721989 0
M  V30 9486 H 931.795 -1.02877 -1.59738 0
M  V30 9487 H 929.945 -0.0667116 -3.88443 0
M  V30 9488 H 931.617 -2.67345 -3.75931 0
M  V30 9489 H 929.86 -2.57031 -3.49453 0
M  V30 9490 H 930.531 -2.16571 -5.07741 0
M  V30 9491 H 933.007 -0.48644 -4.13247 0
M  V30 9492 H 931.883 -0.198507 -5.48541 0
M  V30 9493 H 932.144 1.06302 -4.2913 0
M  V30 9494 N 931.203 1.46865 -0.571711 0
M  V30 9495 C 932.153 2.27219 0.188503 0
M  V30 9496 C 933.137 1.35221 0.872019 0
M  V30 9497 O 934.329 1.59474 0.76793 0
M  V30 9498 C 931.458 3.21321 1.20862 0
M  V30 9499 C 930.544 4.20803 0.527783 0
M  V30 9500 N 930.935 5.04132 -0.410403 0
M  V30 9501 C 929.233 4.39128 0.779909 0
M  V30 9502 C 929.934 5.76071 -0.80728 0
M  V30 9503 N 928.91 5.43368 -0.158865 0
M  V30 9504 H 932.712 2.89034 -0.532611 0
M  V30 9505 H 930.226 1.57581 -0.392696 0
M  V30 9506 H 932.223 3.77586 1.76733 0
M  V30 9507 H 930.883 2.61065 1.93067 0
M  V30 9508 H 931.894 5.11911 -0.785351 0
M  V30 9509 H 928.571 3.90031 1.48937 0
M  V30 9510 H 929.961 6.53082 -1.57903 0
M  V30 9511 N 932.681 0.308908 1.54543 0
M  V30 9512 C 933.927 -0.298478 2.00592 0
M  V30 9513 C 934.26 -1.52929 1.19692 0
M  V30 9514 O 933.535 -1.9254 0.27542 0
M  V30 9515 C 933.818 -0.647218 3.54236 0
M  V30 9516 C 933.671 0.593284 4.4587 0
M  V30 9517 C 934.99 -1.47064 4.14801 0
M  V30 9518 H 932.109 -0.107012 0.72919 0
M  V30 9519 H 934.751 0.422578 1.85241 0
M  V30 9520 H 932.901 -1.26153 3.67447 0
M  V30 9521 H 934.573 1.2317 4.44552 0
M  V30 9522 H 932.816 1.22501 4.16144 0
M  V30 9523 H 933.487 0.305018 5.51157 0
M  V30 9524 H 935.963 -0.951511 4.05075 0
M  V30 9525 H 934.839 -1.68343 5.22448 0
M  V30 9526 H 935.1 -2.4623 3.67183 0
M  V30 9527 N 934.159 -1.57557 0.0367827 0
M  V30 9528 C 935.387 -1.96419 -0.650168 0
M  V30 9529 C 935.802 -0.913656 -1.6522 0
M  V30 9530 O 935.159 0.103718 -1.82205 0
M  V30 9531 C 935.21 -3.35355 -1.3498 0
M  V30 9532 O 934.931 -4.36379 -0.387905 0
M  V30 9533 C 936.432 -3.88892 -2.12786 0
M  V30 9534 H 933.652 -0.646751 -0.178756 0
M  V30 9535 H 936.196 -2.04261 0.0988197 0
M  V30 9536 H 934.351 -3.28708 -2.05012 0
M  V30 9537 H 934.765 -5.16969 -0.885596 0
M  V30 9538 H 936.239 -4.88428 -2.5718 0
M  V30 9539 H 936.716 -3.23547 -2.97008 0
M  V30 9540 H 937.322 -3.98831 -1.47694 0
M  V30 9541 N 935.637 0.236453 -1.55816 0
M  V30 9542 C 937.048 0.80468 -1.68469 0
M  V30 9543 C 937.399 1.85601 -0.636133 0
M  V30 9544 O 936.524 2.15323 0.215622 0
M  V30 9545 C 937.119 1.46634 -3.05424 0
M  V30 9546 C 935.678 1.98214 -3.19981 0
M  V30 9547 C 934.825 0.83695 -2.64368 0
M  V30 9548 H 937.776 0.0120647 -1.58695 0
M  V30 9549 H 937.797 2.33472 -3.00451 0
M  V30 9550 H 937.309 0.700931 -3.81718 0
M  V30 9551 H 935.41 2.77604 -2.4853 0
M  V30 9552 H 935.523 2.17235 -4.2702 0
M  V30 9553 H 933.887 1.24028 -2.22462 0
M  V30 9554 H 934.67 0.084451 -3.43196 0
M  V30 9555 N 937.115 1.49373 0.502552 0
M  V30 9556 C 938.062 1.65927 1.60427 0
M  V30 9557 C 939.032 0.500768 1.58371 0
M  V30 9558 O 940.217 0.727606 1.76382 0
M  V30 9559 C 937.357 1.73043 2.9858 0
M  V30 9560 C 936.47 3.00187 3.10663 0
M  V30 9561 C 935.605 2.98292 4.3954 0
M  V30 9562 C 934.644 4.20022 4.4525 0
M  V30 9563 N 933.781 4.16046 5.65553 0
M  V30 9564 H 938.621 2.59998 1.45619 0
M  V30 9565 H 936.158 1.28912 0.708519 0
M  V30 9566 H 938.116 1.7515 3.78653 0
M  V30 9567 H 936.746 0.824397 3.12095 0
M  V30 9568 H 935.798 3.07699 2.23663 0
M  V30 9569 H 937.11 3.9018 3.10742 0
M  V30 9570 H 936.264 2.98953 5.27932 0
M  V30 9571 H 935.003 2.06075 4.42023 0
M  V30 9572 H 934.008 4.19607 3.5526 0
M  V30 9573 H 935.233 5.13431 4.44484 0
M  V30 9574 H 933.179 3.26665 5.68881 0
M  V30 9575 H 933.096 4.99773 5.67242 0
M  V30 9576 H 934.364 4.20807 6.56156 0
M  V30 9577 N 938.594 -0.753485 1.38421 0
M  V30 9578 C 940.005 -1.33081 1.30944 0
M  V30 9579 C 940.356 -1.96169 -0.0347124 0
M  V30 9580 O 939.481 -1.95073 -0.936768 0
M  V30 9581 C 940.076 -2.41973 2.37138 0
M  V30 9582 C 938.635 -2.95426 2.33239 0
M  V30 9583 C 937.782 -1.68808 2.19998 0
M  V30 9584 H 940.733 -0.552354 1.48777 0
M  V30 9585 H 940.754 -3.21913 2.02859 0
M  V30 9586 H 940.266 -1.96027 3.34956 0
M  V30 9587 H 938.367 -3.45701 1.39003 0
M  V30 9588 H 938.48 -3.49798 3.27381 0
M  V30 9589 H 936.844 -1.92438 1.66852 0
M  V30 9590 H 937.627 -1.24939 3.19758 0
M  V30 9591 N 940.072 -1.23292 -0.981677 0
M  V30 9592 C 941.318 -1.06582 -1.72535 0
M  V30 9593 C 941.651 0.396538 -1.90108 0
M  V30 9594 O 940.926 1.29363 -1.45243 0
M  V30 9595 C 941.209 -1.7904 -3.12437 0
M  V30 9596 C 941.062 -3.32941 -3.02441 0
M  V30 9597 C 942.381 -1.55185 -4.11832 0
M  V30 9598 H 939.5 -0.388585 -0.626236 0
M  V30 9599 H 942.142 -1.51779 -1.14293 0
M  V30 9600 H 940.292 -1.40619 -3.62158 0
M  V30 9601 H 941.964 -3.80875 -2.60254 0
M  V30 9602 H 940.207 -3.62039 -2.38977 0
M  V30 9603 H 940.878 -3.78827 -4.0149 0
M  V30 9604 H 943.354 -1.88581 -3.70913 0
M  V30 9605 H 942.23 -2.08362 -5.07815 0
M  V30 9606 H 942.491 -0.486925 -4.3941 0
M  V30 9607 N 941.55 1.18024 -1.04442 0
M  V30 9608 C 942.961 1.69749 -0.777312 0
M  V30 9609 C 943.312 1.83234 0.701399 0
M  V30 9610 O 942.437 1.51452 1.54568 0
M  V30 9611 C 943.032 3.08321 -1.40441 0
M  V30 9612 C 941.591 3.57243 -1.18553 0
M  V30 9613 C 940.738 2.33695 -1.49271 0
M  V30 9614 H 943.689 1.02647 -1.21035 0
M  V30 9615 H 943.71 3.71787 -0.809628 0
M  V30 9616 H 943.222 2.98474 -2.48062 0
M  V30 9617 H 941.323 3.72379 -0.128221 0
M  V30 9618 H 941.436 4.40451 -1.88519 0
M  V30 9619 H 939.8 2.37792 -0.912526 0
M  V30 9620 H 940.583 2.26464 -2.5801 0
M  V30 9621 N 943.028 0.824394 1.34319 0
M  V30 9622 C 944.305 0.335692 1.92698 0
M  V30 9623 C 944.685 -1.17715 1.75232 0
M  V30 9624 O 944.033 -1.98493 1.13194 0
M  V30 9625 C 944.243 0.766647 3.40475 0
M  V30 9626 C 945.591 0.766323 4.17627 0
M  V30 9627 O 946.615 0.709321 3.49066 0
M  V30 9628 O 945.474 0.840856 5.39992 0
M  V30 9629 H 942.568 0.0919996 0.821867 0
M  V30 9630 H 945.114 0.909282 1.43283 0
M  V30 9631 H 943.886 1.80859 3.46995 0
M  V30 9632 H 943.509 0.168833 3.97241 0
M  V30 9633 N 944.506 -1.46559 0.579492 0
M  V30 9634 C 945.453 -2.30275 -0.155598 0
M  V30 9635 C 946.423 -1.40422 -0.887175 0
M  V30 9636 O 947.608 -1.69373 -0.878481 0
M  V30 9637 C 944.748 -3.24827 -1.16539 0
M  V30 9638 C 943.861 -4.29778 -0.43759 0
M  V30 9639 C 942.996 -5.11461 -1.43462 0
M  V30 9640 C 942.035 -6.08164 -0.693048 0
M  V30 9641 N 941.172 -6.82726 -1.63799 0
M  V30 9642 H 946.012 -2.92607 0.564356 0
M  V30 9643 H 943.549 -1.44211 0.290126 0
M  V30 9644 H 945.507 -3.78088 -1.76368 0
M  V30 9645 H 944.137 -2.64311 -1.8531 0
M  V30 9646 H 943.189 -3.794 0.27567 0
M  V30 9647 H 944.501 -4.98597 0.142298 0
M  V30 9648 H 943.655 -5.68982 -2.1058 0
M  V30 9649 H 942.394 -4.42595 -2.04844 0
M  V30 9650 H 941.399 -5.49799 -0.00807093 0
M  V30 9651 H 942.624 -6.79047 -0.0846678 0
M  V30 9652 H 940.57 -6.16572 -2.23997 0
M  V30 9653 H 940.487 -7.47795 -1.11082 0
M  V30 9654 H 941.755 -7.44807 -2.29962 0
M  V30 9655 N 945.984 -0.3171 -1.54377 0
M  V30 9656 C 947.261 0.341348 -1.92598 0
M  V30 9657 C 947.641 1.70402 -1.24605 0
M  V30 9658 O 946.989 2.25191 -0.387448 0
M  V30 9659 C 947.199 0.440003 -3.46215 0
M  V30 9660 C 948.547 0.703327 -4.18734 0
M  V30 9661 O 949.571 0.523181 -3.52337 0
M  V30 9662 O 948.43 1.05042 -5.3631 0
M  V30 9663 H 945.524 0.193696 -0.803997 0
M  V30 9664 H 948.07 -0.366341 -1.65699 0
M  V30 9665 H 946.842 -0.517299 -3.87866 0
M  V30 9666 H 946.465 1.19553 -3.792 0
M  V30 9667 N 947.462 1.57535 -0.0451378 0
M  V30 9668 C 948.409 2.11176 0.931313 0
M  V30 9669 C 949.379 1.01765 1.31275 0
M  V30 9670 O 950.564 1.29279 1.40327 0
M  V30 9671 C 947.704 2.65639 2.20295 0
M  V30 9672 C 946.817 3.89114 1.87654 0
M  V30 9673 C 945.952 4.31914 3.09232 0
M  V30 9674 C 944.991 5.48105 2.72484 0
M  V30 9675 N 944.128 5.85986 3.86736 0
M  V30 9676 H 948.968 2.94318 0.466986 0
M  V30 9677 H 946.505 1.45462 0.218886 0
M  V30 9678 H 948.463 2.95312 2.94697 0
M  V30 9679 H 947.093 1.85303 2.64316 0
M  V30 9680 H 946.145 3.6607 1.03427 0
M  V30 9681 H 947.457 4.7358 1.56601 0
M  V30 9682 H 946.611 4.63108 3.91939 0
M  V30 9683 H 945.35 3.46247 3.43459 0
M  V30 9684 H 944.355 5.16589 1.88192 0
M  V30 9685 H 945.58 6.35482 2.39455 0
M  V30 9686 H 943.526 5.03273 4.20775 0
M  V30 9687 H 943.443 6.65129 3.5936 0
M  V30 9688 H 944.711 6.21793 4.701 0
M  V30 9689 N 948.94 -0.228186 1.55939 0
M  V30 9690 C 950.17 -0.969211 1.82455 0
M  V30 9691 C 950.578 -1.78714 0.621133 0
M  V30 9692 O 949.921 -1.78841 -0.419694 0
M  V30 9693 C 949.983 -1.94088 3.02605 0
M  V30 9694 C 949.647 -1.30811 4.37878 0
M  V30 9695 C 950.644 -0.701275 5.15149 0
M  V30 9696 C 948.329 -1.32187 4.84595 0
M  V30 9697 C 950.323 -0.116631 6.37293 0
M  V30 9698 C 948.01 -0.733375 6.06683 0
M  V30 9699 C 949.008 -0.131804 6.82873 0
M  V30 9700 O 948.696 0.447549 8.02653 0
M  V30 9701 H 948.428 -0.289951 0.610659 0
M  V30 9702 H 950.982 -0.250576 2.03866 0
M  V30 9703 H 949.212 -2.69833 2.76996 0
M  V30 9704 H 950.901 -2.5469 3.1605 0
M  V30 9705 H 951.667 -0.683022 4.80166 0
M  V30 9706 H 947.546 -1.77949 4.25271 0
M  V30 9707 H 951.09 0.353539 6.96704 0
M  V30 9708 H 946.987 -0.749019 6.4114 0
M  V30 9709 H 947.755 0.341224 8.17788 0
M  V30 9710 N 950.418 -1.49637 -0.494624 0
M  V30 9711 C 951.695 -1.4995 -1.25596 0
M  V30 9712 C 952.075 -0.230805 -2.09834 0
M  V30 9713 O 951.423 0.786625 -2.14533 0
M  V30 9714 C 951.633 -2.78204 -2.10721 0
M  V30 9715 C 952.981 -3.27946 -2.69698 0
M  V30 9716 O 954.005 -2.79365 -2.20984 0
M  V30 9717 O 952.864 -4.12571 -3.58395 0
M  V30 9718 H 949.958 -0.60044 -0.568684 0
M  V30 9719 H 952.504 -1.61906 -0.508371 0
M  V30 9720 H 951.276 -3.62029 -1.48494 0
M  V30 9721 H 950.899 -2.69139 -2.92661 0
M  V30 9722 N 951.896 0.746133 -1.38819 0
M  V30 9723 C 953.307 1.32384 -1.31648 0
M  V30 9724 C 953.658 1.96185 0.0243086 0
M  V30 9725 O 952.783 1.95567 0.92641 0
M  V30 9726 C 953.378 2.40712 -2.38418 0
M  V30 9727 C 951.937 2.94185 -2.34803 0
M  V30 9728 C 951.084 1.67639 -2.20891 0
M  V30 9729 H 954.035 0.544457 -1.49068 0
M  V30 9730 H 954.056 3.20833 -2.04564 0
M  V30 9731 H 953.568 1.94247 -3.3599 0
M  V30 9732 H 951.669 3.44959 -1.40834 0
M  V30 9733 H 951.782 3.48057 -3.29231 0
M  V30 9734 H 950.146 1.9155 -1.67871 0
M  V30 9735 H 950.929 1.23242 -3.20416 0
M  V30 9736 N 953.375 1.23811 0.975125 0
M  V30 9737 C 954.603 1.10019 1.75224 0
M  V30 9738 C 955.018 -0.34791 1.85567 0
M  V30 9739 O 954.375 -1.24043 1.33864 0
M  V30 9740 C 954.426 1.72572 3.1765 0
M  V30 9741 O 954.147 3.11719 3.07836 0
M  V30 9742 C 955.648 1.64292 4.11732 0
M  V30 9743 H 952.868 0.38476 0.549728 0
M  V30 9744 H 955.412 1.63768 1.22476 0
M  V30 9745 H 953.567 1.22843 3.67408 0
M  V30 9746 H 953.981 3.42152 3.97533 0
M  V30 9747 H 955.455 2.12754 5.09352 0
M  V30 9748 H 955.932 0.602722 4.35045 0
M  V30 9749 H 956.538 2.13411 3.6788 0
M  V30 9750 N 954.853 -1.17469 1.05066 0
M  V30 9751 C 956.101 -1.87327 0.758485 0
M  V30 9752 C 956.422 -1.81358 -0.716549 0
M  V30 9753 O 955.692 -1.23868 -1.51768 0
M  V30 9754 H 954.272 -0.693512 0.277579 0
M  V30 9755 H 956.934 -1.4251 1.32954 0
M  V30 9756 H 956.03 -2.93101 1.0723 0
M  V30 9757 N 956.331 -0.831506 -1.3388 0
M  V30 9758 C 957.579 -0.422837 -1.97627 0
M  V30 9759 C 957.9 1.01961 -1.6622 0
M  V30 9760 O 957.17 1.70916 -0.957323 0
M  V30 9761 H 955.75 -0.153365 -0.731087 0
M  V30 9762 H 958.412 -1.06284 -1.6337 0
M  V30 9763 H 957.508 -0.548858 -3.07236 0
M  V30 9764 N 957.809 1.4625 -0.587256 0
M  V30 9765 C 958.719 2.34147 0.145744 0
M  V30 9766 C 959.735 1.50026 0.881376 0
M  V30 9767 O 960.911 1.82884 0.843539 0
M  V30 9768 C 957.976 3.27294 1.14366 0
M  V30 9769 C 957.037 4.27317 0.412199 0
M  V30 9770 C 956.27 5.16013 1.36257 0
M  V30 9771 O 956.493 5.0773 2.59934 0
M  V30 9772 O 955.427 5.95569 0.870681 0
M  V30 9773 H 959.253 2.98187 -0.576055 0
M  V30 9774 H 956.838 1.45299 -0.347628 0
M  V30 9775 H 958.72 3.84747 1.71894 0
M  V30 9776 H 957.395 2.65845 1.84684 0
M  V30 9777 H 956.302 3.73538 -0.205036 0
M  V30 9778 H 957.635 4.91564 -0.250104 0
M  V30 9779 N 959.287 0.325282 1.54207 0
M  V30 9780 C 960.515 -0.27869 2.05014 0
M  V30 9781 C 960.93 -1.45649 1.20133 0
M  V30 9782 O 960.287 -1.81014 0.232398 0
M  V30 9783 C 960.338 -0.711486 3.54429 0
M  V30 9784 O 960.059 0.419458 4.36087 0
M  V30 9785 C 961.56 -1.37809 4.21336 0
M  V30 9786 H 958.78 -0.0570388 0.668571 0
M  V30 9787 H 961.324 0.47197 1.98979 0
M  V30 9788 H 959.479 -1.41212 3.60746 0
M  V30 9789 H 959.893 0.0781037 5.24442 0
M  V30 9790 H 961.367 -1.63184 5.27328 0
M  V30 9791 H 961.844 -2.32593 3.72555 0
M  V30 9792 H 962.45 -0.719987 4.19161 0
M  V30 9793 N 960.765 -1.57509 0.0534917 0
M  V30 9794 C 961.993 -1.97098 -0.629298 0
M  V30 9795 C 962.408 -0.931128 -1.64242 0
M  V30 9796 O 961.765 0.0843866 -1.82305 0
M  V30 9797 C 961.816 -3.36767 -1.31415 0
M  V30 9798 O 961.537 -4.36766 -0.341599 0
M  V30 9799 C 963.038 -3.91127 -2.08649 0
M  V30 9800 H 960.258 -0.648611 -0.171886 0
M  V30 9801 H 962.802 -2.04145 0.120479 0
M  V30 9802 H 960.957 -3.30863 -2.01515 0
M  V30 9803 H 961.371 -5.1788 -0.830715 0
M  V30 9804 H 962.845 -4.91129 -2.51985 0
M  V30 9805 H 963.322 -3.26679 -2.9356 0
M  V30 9806 H 963.928 -4.00376 -1.43456 0
M  V30 9807 N 962.243 0.219913 -1.56058 0
M  V30 9808 C 963.489 0.945463 -1.79412 0
M  V30 9809 C 963.822 1.83922 -0.62341 0
M  V30 9810 O 963.097 1.90806 0.377256 0
M  V30 9811 C 963.38 1.783 -3.1286 0
M  V30 9812 C 963.233 0.915626 -4.40382 0
M  V30 9813 C 964.552 2.76045 -3.42764 0
M  V30 9814 H 961.671 0.342288 -0.652693 0
M  V30 9815 H 964.313 0.214235 -1.88788 0
M  V30 9816 H 962.463 2.40642 -3.04998 0
M  V30 9817 H 964.135 0.30882 -4.60265 0
M  V30 9818 H 962.378 0.221124 -4.33236 0
M  V30 9819 H 963.049 1.53607 -5.30197 0
M  V30 9820 H 965.525 2.23838 -3.50764 0
M  V30 9821 H 964.401 3.31748 -4.37304 0
M  V30 9822 H 964.662 3.53866 -2.65012 0
M  V30 9823 N 963.721 1.49897 0.486681 0
M  V30 9824 C 965.132 1.53142 1.06792 0
M  V30 9825 C 965.483 0.325856 1.93475 0
M  V30 9826 O 964.608 -0.562893 2.08951 0
M  V30 9827 C 965.203 2.77514 1.94348 0
M  V30 9828 C 963.762 2.83491 2.47609 0
M  V30 9829 C 962.909 2.47239 1.2557 0
M  V30 9830 H 965.86 1.56387 0.269962 0
M  V30 9831 H 965.881 2.58487 2.79221 0
M  V30 9832 H 965.393 3.65239 1.31232 0
M  V30 9833 H 963.494 2.0008 3.14323 0
M  V30 9834 H 963.607 3.86011 2.83782 0
M  V30 9835 H 961.971 1.99332 1.58552 0
M  V30 9836 H 962.754 3.37255 0.641404 0
M  V30 9837 N 965.199 -0.738761 1.39212 0
M  V30 9838 C 966.131 -1.86286 1.3353 0
M  V30 9839 C 967.144 -1.6095 0.244755 0
M  V30 9840 O 968.333 -1.71254 0.50343 0
M  V30 9841 C 965.433 -3.22234 1.04969 0
M  V30 9842 C 964.606 -3.74956 2.25226 0
M  V30 9843 C 963.665 -4.89457 1.9318 0
M  V30 9844 O 962.691 -5.03314 2.65826 0
M  V30 9845 N 963.893 -5.73548 0.895679 0
M  V30 9846 H 966.658 -1.91666 2.304 0
M  V30 9847 H 964.219 -0.919338 1.33266 0
M  V30 9848 H 966.211 -3.96397 0.815566 0
M  V30 9849 H 964.781 -3.12146 0.168451 0
M  V30 9850 H 964.001 -2.92188 2.64612 0
M  V30 9851 H 965.289 -4.06914 3.05448 0
M  V30 9852 H 964.687 -5.64938 0.293541 0
M  V30 9853 H 963.244 -6.47795 0.721451 0
M  V30 9854 N 966.677 -1.24326 -0.968545 0
M  V30 9855 C 967.925 -1.08032 -1.70803 0
M  V30 9856 C 968.246 0.381728 -1.91227 0
M  V30 9857 O 967.516 1.27253 -1.48942 0
M  V30 9858 H 966.096 -0.396777 -0.632912 0
M  V30 9859 H 968.758 -1.56232 -1.16523 0
M  V30 9860 H 967.854 -1.57769 -2.69287 0
M  V30 9861 N 968.156 1.1691 -1.05688 0
M  V30 9862 C 969.384 1.91204 -0.790485 0
M  V30 9863 C 969.799 1.77095 0.654434 0
M  V30 9864 O 969.156 1.11146 1.44751 0
M  V30 9865 C 969.207 3.42108 -1.16808 0
M  V30 9866 O 968.928 3.55788 -2.55629 0
M  V30 9867 C 970.429 4.33466 -0.92855 0
M  V30 9868 H 967.649 0.606508 -0.287035 0
M  V30 9869 H 970.193 1.48225 -1.40888 0
M  V30 9870 H 968.348 3.82814 -0.59434 0
M  V30 9871 H 968.762 4.49321 -2.70575 0
M  V30 9872 H 970.236 5.37836 -1.24245 0
M  V30 9873 H 970.713 4.38989 0.136016 0
M  V30 9874 H 971.319 3.98481 -1.48638 0
M  V30 9875 N 969.634 0.838594 1.33437 0
M  V30 9876 C 971.045 0.490934 1.8013 0
M  V30 9877 C 971.396 -0.990024 1.6939 0
M  V30 9878 O 970.521 -1.77139 1.24302 0
M  V30 9879 C 971.116 0.884347 3.27055 0
M  V30 9880 C 969.675 0.588829 3.71766 0
M  V30 9881 C 968.822 1.09282 2.54858 0
M  V30 9882 H 971.773 1.02732 1.20962 0
M  V30 9883 H 971.794 0.194283 3.80004 0
M  V30 9884 H 971.306 1.96225 3.34839 0
M  V30 9885 H 969.407 -0.479018 3.69508 0
M  V30 9886 H 969.52 1.14387 4.65245 0
M  V30 9887 H 967.884 0.513702 2.49466 0
M  V30 9888 H 968.667 2.1775 2.65405 0
M  V30 9889 N 971.112 -1.45937 0.595003 0
M  V30 9890 C 972.358 -2.0262 0.0854317 0
M  V30 9891 C 972.691 -1.46402 -1.27594 0
M  V30 9892 O 971.966 -0.633823 -1.83883 0
M  V30 9893 C 972.249 -3.60085 0.0329075 0
M  V30 9894 C 972.102 -4.26663 1.42405 0
M  V30 9895 C 973.421 -4.35101 -0.661426 0
M  V30 9896 H 970.54 -0.736282 0.0325196 0
M  V30 9897 H 973.182 -1.73938 0.764563 0
M  V30 9898 H 971.332 -3.84652 -0.545439 0
M  V30 9899 H 973.004 -4.13321 2.04851 0
M  V30 9900 H 971.247 -3.85549 1.98833 0
M  V30 9901 H 971.918 -5.35497 1.33965 0
M  V30 9902 H 974.394 -4.15753 -0.169977 0
M  V30 9903 H 973.27 -5.44829 -0.667243 0
M  V30 9904 H 973.531 -4.07053 -1.72513 0
M  V30 9905 N 972.59 -0.333456 -1.54032 0
M  V30 9906 C 973.815 0.270517 -2.05628 0
M  V30 9907 C 974.24 1.44231 -1.20744 0
M  V30 9908 O 973.598 1.79975 -0.218822 0
M  V30 9909 C 973.646 0.673251 -3.54259 0
M  V30 9910 O 972.75 1.77448 -3.72271 0
M  V30 9911 H 972.091 0.0469753 -0.662336 0
M  V30 9912 H 974.621 -0.484739 -1.98775 0
M  V30 9913 H 974.631 0.953194 -3.96709 0
M  V30 9914 H 973.306 -0.183747 -4.15494 0
M  V30 9915 H 971.883 1.49259 -3.41725 0
M  V30 9916 N 974.068 1.57479 -0.061844 0
M  V30 9917 C 975.345 1.84484 0.649993 0
M  V30 9918 C 975.725 0.952366 1.88396 0
M  V30 9919 O 975.073 0.0161035 2.28494 0
M  V30 9920 C 975.283 3.34452 0.997133 0
M  V30 9921 C 976.631 4.01724 1.37488 0
M  V30 9922 O 977.655 3.3914 1.08916 0
M  V30 9923 O 976.514 5.12091 1.90854 0
M  V30 9924 H 973.608 0.761798 0.321858 0
M  V30 9925 H 976.154 1.6945 -0.0920192 0
M  V30 9926 H 974.926 3.91115 0.120301 0
M  V30 9927 H 974.549 3.54713 1.79624 0
M  V30 9928 N 975.546 -0.211634 1.56173 0
M  V30 9929 C 976.493 -1.26231 1.93221 0
M  V30 9930 C 977.463 -1.46076 0.790641 0
M  V30 9931 O 978.648 -1.59482 1.04739 0
M  V30 9932 C 975.788 -2.60559 2.26281 0
M  V30 9933 C 974.901 -2.48431 3.5342 0
M  V30 9934 C 974.036 -3.7535 3.7588 0
M  V30 9935 C 973.075 -3.57985 4.96501 0
M  V30 9936 N 972.212 -4.76877 5.15299 0
M  V30 9937 H 977.052 -0.939367 2.82807 0
M  V30 9938 H 974.589 -0.452511 1.39967 0
M  V30 9939 H 976.547 -3.38796 2.43461 0
M  V30 9940 H 975.177 -2.9093 1.39855 0
M  V30 9941 H 974.229 -1.61577 3.44379 0
M  V30 9942 H 975.541 -2.31526 4.41811 0
M  V30 9943 H 974.695 -4.62029 3.9321 0
M  V30 9944 H 973.434 -3.95191 2.85788 0
M  V30 9945 H 972.439 -2.69691 4.79111 0
M  V30 9946 H 973.664 -3.39605 5.88086 0
M  V30 9947 H 971.61 -4.97013 4.28152 0
M  V30 9948 H 971.527 -4.62735 5.9784 0
M  V30 9949 H 972.795 -5.64954 5.37073 0
M  V30 9950 N 977.024 -1.50153 -0.478725 0
M  V30 9951 C 977.934 -1.71232 -1.60364 0
M  V30 9952 C 978.95 -0.595269 -1.63501 0
M  V30 9953 O 980.126 -0.872683 -1.81511 0
M  V30 9954 C 977.191 -1.79487 -2.96623 0
M  V30 9955 C 976.252 -3.03185 -3.03937 0
M  V30 9956 C 975.485 -3.11036 -4.33696 0
M  V30 9957 O 975.708 -2.2588 -5.23769 0
M  V30 9958 O 974.642 -4.03698 -4.46443 0
M  V30 9959 H 978.468 -2.66575 -1.45505 0
M  V30 9960 H 976.053 -1.34158 -0.65741 0
M  V30 9961 H 977.935 -1.8714 -3.77567 0
M  V30 9962 H 976.61 -0.873264 -3.11698 0
M  V30 9963 H 975.517 -3.01036 -2.22099 0
M  V30 9964 H 976.85 -3.94898 -2.93796 0
M  V30 9965 N 978.502 0.731368 -1.39602 0
M  V30 9966 C 979.751 1.48647 -1.36334 0
M  V30 9967 C 980.064 1.95565 0.0367383 0
M  V30 9968 O 981.27 2.7082 0.192017 0
M  V30 9969 C 979.726 2.68616 -2.39528 0
M  V30 9970 C 979.334 2.28632 -3.85268 0
M  V30 9971 C 981.078 3.46422 -2.45341 0
M  V30 9972 C 978.985 3.45345 -4.80095 0
M  V30 9973 H 977.915 0.558218 -0.506861 0
M  V30 9974 H 980.566 0.797467 -1.65266 0
M  V30 9975 H 978.948 3.39609 -2.03671 0
M  V30 9976 H 980.122 1.65162 -4.30184 0
M  V30 9977 H 978.437 1.63909 -3.82783 0
M  V30 9978 H 981.034 4.33241 -3.13379 0
M  V30 9979 H 981.377 3.8914 -1.47904 0
M  V30 9980 H 981.91 2.82461 -2.80108 0
M  V30 9981 H 978.649 3.07674 -5.78807 0
M  V30 9982 H 978.169 4.07784 -4.39855 0
M  V30 9983 H 979.848 4.1163 -4.99169 0
M  V30 9984 N 979.98 1.24838 0.961938 0
M  V30 9985 C 981.208 1.11871 1.74047 0
M  V30 9986 C 981.623 -0.328209 1.85925 0
M  V30 9987 O 980.98 -1.22616 1.35173 0
M  V30 9988 C 981.031 1.75931 3.15801 0
M  V30 9989 O 980.752 3.14967 3.04512 0
M  V30 9990 C 982.253 1.68649 4.09966 0
M  V30 9991 H 979.473 0.390569 0.545616 0
M  V30 9992 H 982.017 1.65058 1.20732 0
M  V30 9993 H 980.172 1.26733 3.66084 0
M  V30 9994 H 980.586 3.46349 3.93882 0
M  V30 9995 H 982.06 2.18144 5.07067 0
M  V30 9996 H 982.537 0.648831 4.34381 0
M  V30 9997 H 983.143 2.17301 3.65596 0
M  V30 9998 N 981.458 -1.16348 1.06306 0
M  V30 9999 C 982.735 -1.829 0.69331 0
M  V30 10000 C 983.115 -1.94298 -0.82531 0
M  V30 10001 O 982.463 -1.48619 -1.73565 0
M  V30 10002 C 982.673 -3.1989 1.3954 0
M  V30 10003 C 984.021 -3.95662 1.54068 0
M  V30 10004 O 985.045 -3.29408 1.35532 0
M  V30 10005 O 983.904 -5.14422 1.84479 0
M  V30 10006 H 980.998 -0.789738 0.245445 0
M  V30 10007 H 983.544 -1.23549 1.16334 0
M  V30 10008 H 982.316 -3.06629 2.43093 0
M  V30 10009 H 981.939 -3.86918 0.915453 0
M  V30 10010 N 982.937 -0.845659 -1.3299 0
M  V30 10011 C 983.867 -0.298957 -2.31578 0
M  V30 10012 C 984.848 0.597012 -1.59279 0
M  V30 10013 O 986.033 0.519142 -1.87132 0
M  V30 10014 C 983.163 0.521109 -3.43368 0
M  V30 10015 C 982.117 -0.279651 -4.27085 0
M  V30 10016 C 981.443 0.664591 -5.30554 0
M  V30 10017 C 982.743 -1.50046 -5.00283 0
M  V30 10018 H 984.437 -1.12272 -2.77552 0
M  V30 10019 H 981.983 -0.54132 -1.33438 0
M  V30 10020 H 983.936 0.913921 -4.1137 0
M  V30 10021 H 982.66 1.37815 -2.96099 0
M  V30 10022 H 981.319 -0.654106 -3.60717 0
M  V30 10023 H 980.967 1.51822 -4.79541 0
M  V30 10024 H 980.667 0.132871 -5.8745 0
M  V30 10025 H 982.191 1.05477 -6.01421 0
M  V30 10026 H 983.605 -1.18044 -5.61016 0
M  V30 10027 H 982.002 -1.96946 -5.66862 0
M  V30 10028 H 983.072 -2.26659 -4.28665 0
M  V30 10029 N 984.415 1.45619 -0.602734 0
M  V30 10030 C 985.661 2.02572 -0.0961759 0
M  V30 10031 C 985.994 1.47076 1.26815 0
M  V30 10032 O 985.269 0.643566 1.83544 0
M  V30 10033 C 985.552 3.60062 -0.0520032 0
M  V30 10034 C 985.405 4.25901 -1.44665 0
M  V30 10035 C 986.724 4.35446 0.638342 0
M  V30 10036 H 983.843 0.736099 -0.0364238 0
M  V30 10037 H 986.485 1.7353 -0.773776 0
M  V30 10038 H 984.635 3.84936 0.525032 0
M  V30 10039 H 986.307 4.12228 -2.0704 0
M  V30 10040 H 984.55 3.84489 -2.00874 0
M  V30 10041 H 985.221 5.34779 -1.36803 0
M  V30 10042 H 987.697 4.15837 0.147926 0
M  V30 10043 H 986.573 5.45176 0.63834 0
M  V30 10044 H 986.834 4.07962 1.70351 0
M  V30 10045 N 985.893 0.34162 1.53853 0
M  V30 10046 C 986.84 -0.516058 2.24957 0
M  V30 10047 C 987.81 -1.09711 1.2471 0
M  V30 10048 O 988.995 -1.13409 1.53438 0
M  V30 10049 C 986.135 -1.66207 3.02439 0
M  V30 10050 C 985.248 -1.10851 4.17536 0
M  V30 10051 C 984.383 -2.22167 4.82509 0
M  V30 10052 C 983.422 -1.64152 5.89678 0
M  V30 10053 N 982.559 -2.69203 6.4844 0
M  V30 10054 H 987.399 0.0968275 2.97843 0
M  V30 10055 H 984.936 0.0595565 1.46979 0
M  V30 10056 H 986.894 -2.33672 3.4562 0
M  V30 10057 H 985.524 -2.24597 2.31853 0
M  V30 10058 H 984.576 -0.324853 3.7901 0
M  V30 10059 H 985.888 -0.644151 4.94623 0
M  V30 10060 H 985.042 -2.97501 5.28751 0
M  V30 10061 H 983.781 -2.71946 4.04842 0
M  V30 10062 H 982.786 -0.873228 5.42821 0
M  V30 10063 H 984.011 -1.15228 6.69253 0
M  V30 10064 H 981.957 -3.1824 5.73637 0
M  V30 10065 H 981.874 -2.27383 7.20994 0
M  V30 10066 H 983.142 -3.44312 6.99335 0
M  V30 10067 N 987.371 -1.57444 0.0701946 0
M  V30 10068 C 988.62 -1.92605 -0.598849 0
M  V30 10069 C 988.933 -0.952058 -1.70866 0
M  V30 10070 O 990.139 -1.19643 -2.43716 0
M  V30 10071 C 988.595 -3.42142 -1.11655 0
M  V30 10072 C 988.203 -4.47984 -0.0378355 0
M  V30 10073 C 989.947 -3.86307 -1.75975 0
M  V30 10074 C 987.854 -5.88652 -0.569495 0
M  V30 10075 H 986.784 -0.718873 -0.22746 0
M  V30 10076 H 989.435 -1.82948 0.14217 0
M  V30 10077 H 987.817 -3.46866 -1.91049 0
M  V30 10078 H 988.991 -4.54874 0.736661 0
M  V30 10079 H 987.306 -4.13277 0.50904 0
M  V30 10080 H 989.903 -4.88784 -2.16782 0
M  V30 10081 H 990.246 -3.23587 -2.61911 0
M  V30 10082 H 990.779 -3.84179 -1.03206 0
M  V30 10083 H 987.518 -6.55013 0.252662 0
M  V30 10084 H 987.038 -5.85285 -1.31155 0
M  V30 10085 H 988.717 -6.38482 -1.04641 0
M  V30 10086 N 988.849 0.203349 -1.56283 0
M  V30 10087 C 990.26 0.768764 -1.70138 0
M  V30 10088 C 990.611 1.8421 -0.675358 0
M  V30 10089 O 989.736 2.15732 0.1699 0
M  V30 10090 C 990.331 1.40123 -3.08466 0
M  V30 10091 C 988.89 1.91382 -3.24114 0
M  V30 10092 C 988.037 0.780685 -2.66084 0
M  V30 10093 H 990.988 -0.0215997 -1.58685 0
M  V30 10094 H 991.009 2.27046 -3.05336 0
M  V30 10095 H 990.521 0.619805 -3.83119 0
M  V30 10096 H 988.622 2.7227 -2.54362 0
M  V30 10097 H 988.735 2.08128 -4.31531 0
M  V30 10098 H 987.099 1.19281 -2.25042 0
M  V30 10099 H 987.882 0.0116351 -3.43298 0
M  V30 10100 N 990.327 1.50405 0.470755 0
M  V30 10101 C 991.604 1.51929 1.23195 0
M  V30 10102 C 991.984 0.264159 2.09441 0
M  V30 10103 O 991.332 -0.752395 2.15757 0
M  V30 10104 C 991.542 2.81521 2.06269 0
M  V30 10105 C 992.89 3.32195 2.64446 0
M  V30 10106 O 993.914 2.82845 2.16511 0
M  V30 10107 O 992.773 4.18221 3.51786 0
M  V30 10108 H 989.867 0.609411 0.559059 0
M  V30 10109 H 992.413 1.62695 0.482549 0
M  V30 10110 H 991.185 3.64346 1.42715 0
M  V30 10111 H 990.808 2.7376 2.88342 0
M  V30 10112 N 991.805 -0.723954 1.39988 0
M  V30 10113 C 993.053 -1.48078 1.3754 0
M  V30 10114 C 993.374 -1.94985 -0.0243358 0
M  V30 10115 O 992.644 -1.69764 -0.977602 0
M  V30 10116 H 991.224 -0.549354 0.506181 0
M  V30 10117 H 993.886 -0.858746 1.74962 0
M  V30 10118 H 992.982 -2.35763 2.04505 0
M  V30 10119 N 993.283 -1.25346 -0.955304 0
M  V30 10120 C 994.508 -1.12892 -1.73983 0
M  V30 10121 C 994.933 0.313455 -1.8547 0
M  V30 10122 O 994.291 1.22706 -1.33465 0
M  V30 10123 C 994.339 -1.78729 -3.1319 0
M  V30 10124 O 993.443 -1.06648 -3.98372 0
M  V30 10125 H 992.784 -0.394178 -0.534341 0
M  V30 10126 H 995.314 -1.65897 -1.19747 0
M  V30 10127 H 995.324 -1.84987 -3.63653 0
M  V30 10128 H 993.999 -2.83669 -3.04146 0
M  V30 10129 H 992.576 -1.08266 -3.56837 0
M  V30 10130 N 994.761 1.15782 -1.06922 0
M  V30 10131 C 995.708 2.2038 -0.685659 0
M  V30 10132 C 996.678 1.62972 0.320816 0
M  V30 10133 O 997.863 1.8966 0.208258 0
M  V30 10134 C 995.003 3.44995 -0.084998 0
M  V30 10135 C 994.116 4.16621 -1.14242 0
M  V30 10136 C 993.251 5.28773 -0.507226 0
M  V30 10137 C 992.29 5.92209 -1.54774 0
M  V30 10138 N 991.427 6.9584 -0.935443 0
M  V30 10139 H 996.267 2.5254 -1.58201 0
M  V30 10140 H 993.804 1.24031 -0.790864 0
M  V30 10141 H 995.762 4.16254 0.280845 0
M  V30 10142 H 994.392 3.13365 0.774725 0
M  V30 10143 H 993.444 3.43903 -1.62589 0
M  V30 10144 H 994.756 4.59884 -1.93154 0
M  V30 10145 H 993.91 6.06635 -0.0887719 0
M  V30 10146 H 992.649 4.8669 0.313704 0
M  V30 10147 H 991.654 5.13063 -1.97602 0
M  V30 10148 H 992.879 6.3637 -2.37088 0
M  V30 10149 H 990.825 6.5586 -0.135339 0
M  V30 10150 H 990.742 7.37508 -1.66186 0
M  V30 10151 H 992.01 7.77611 -0.542346 0
M  V30 10152 N 996.239 0.8527 1.3254 0
M  V30 10153 C 997.487 0.454224 1.96929 0
M  V30 10154 C 997.808 -0.993034 1.67821 0
M  V30 10155 O 997.078 -1.69371 0.984393 0
M  V30 10156 H 995.658 0.164977 0.728554 0
M  V30 10157 H 998.32 1.0887 1.61658 0
M  V30 10158 H 997.416 0.597667 3.06324 0
M  V30 10159 N 997.718 -1.45297 0.610449 0
M  V30 10160 C 998.964 -2.02518 0.106917 0
M  V30 10161 C 999.297 -1.47747 -1.26034 0
M  V30 10162 O 998.572 -0.65329 -1.832 0
M  V30 10163 C 998.855 -3.6003 0.0710975 0
M  V30 10164 C 998.708 -4.25128 1.46922 0
M  V30 10165 C 1000.03 -4.35778 -0.61524 0
M  V30 10166 H 997.146 -0.735896 0.040327 0
M  V30 10167 H 999.788 -1.73117 0.782968 0
M  V30 10168 H 997.938 -3.85209 -0.504611 0
M  V30 10169 H 999.61 -4.11125 2.09223 0
M  V30 10170 H 997.853 -3.83418 2.02911 0
M  V30 10171 H 998.524 -5.34046 1.39637 0
M  V30 10172 H 1001 -4.1591 -0.125871 0
M  V30 10173 H 999.876 -5.45506 -0.609419 0
M  V30 10174 H 1000.14 -4.08859 -1.68186 0
M  V30 10175 N 999.196 -0.349774 -1.5367 0
M  V30 10176 C 1000.61 0.132815 -1.86227 0
M  V30 10177 C 1000.96 1.49479 -1.27084 0
M  V30 10178 O 1000.08 2.08292 -0.58679 0
M  V30 10179 C 1000.68 0.247775 -3.37893 0
M  V30 10180 C 999.237 0.674603 -3.70305 0
M  V30 10181 C 998.384 -0.187869 -2.76663 0
M  V30 10182 H 1001.33 -0.569148 -1.48143 0
M  V30 10183 H 1001.36 1.07418 -3.65023 0
M  V30 10184 H 1000.87 -0.743635 -3.80909 0
M  V30 10185 H 998.969 1.67481 -3.32837 0
M  V30 10186 H 999.082 0.460177 -4.76885 0
M  V30 10187 H 997.446 0.340779 -2.5241 0
M  V30 10188 H 998.229 -1.17653 -3.2251 0
M  V30 10189 N 1000.67 1.57404 -0.0785433 0
M  V30 10190 C 1001.9 1.98074 0.597862 0
M  V30 10191 C 1002.32 0.95714 1.6274 0
M  V30 10192 O 1001.67 -0.0553728 1.82416 0
M  V30 10193 C 1001.72 3.38815 1.26041 0
M  V30 10194 O 1001.45 4.37254 0.27207 0
M  V30 10195 C 1002.95 3.94397 2.024 0
M  V30 10196 H 1000.17 0.651263 0.161546 0
M  V30 10197 H 1002.71 2.03927 -0.152941 0
M  V30 10198 H 1000.87 3.34028 1.96225 0
M  V30 10199 H 1001.28 5.19136 0.74822 0
M  V30 10200 H 1002.75 4.95075 2.4414 0
M  V30 10201 H 1003.23 3.31308 2.88326 0
M  V30 10202 H 1003.84 4.02607 1.37068 0
M  V30 10203 N 1002.15 -0.195058 1.56388 0
M  V30 10204 C 1003.4 -0.9168 1.80894 0
M  V30 10205 C 1003.73 -1.82907 0.652592 0
M  V30 10206 O 1003.01 -1.91382 -0.346853 0
M  V30 10207 C 1003.29 -1.733 3.15657 0
M  V30 10208 C 1003.14 -0.845449 4.41783 0
M  V30 10209 C 1004.46 -2.70557 3.47112 0
M  V30 10210 H 1001.58 -0.331861 0.658056 0
M  V30 10211 H 1004.22 -0.184174 1.89105 0
M  V30 10212 H 1002.37 -2.3576 3.08787 0
M  V30 10213 H 1004.04 -0.235557 4.60698 0
M  V30 10214 H 1002.29 -0.152172 4.33533 0
M  V30 10215 H 1002.96 -1.45152 5.32574 0
M  V30 10216 H 1005.43 -2.1823 3.54281 0
M  V30 10217 H 1004.31 -3.24749 4.42526 0
M  V30 10218 H 1004.57 -3.49605 2.70608 0
M  V30 10219 N 1003.63 -1.50653 -0.462772 0
M  V30 10220 C 1004.88 -1.62297 -1.21603 0
M  V30 10221 C 1005.21 -0.326191 -1.91441 0
M  V30 10222 O 1004.48 0.67284 -1.82491 0
M  V30 10223 C 1004.77 -2.80901 -2.25315 0
M  V30 10224 C 1004.62 -4.20484 -1.59728 0
M  V30 10225 C 1005.94 -2.95049 -3.26549 0
M  V30 10226 H 1003.06 -0.590691 -0.440741 0
M  V30 10227 H 1005.7 -1.83064 -0.508675 0
M  V30 10228 H 1003.85 -2.63325 -2.85643 0
M  V30 10229 H 1005.52 -4.49669 -1.02932 0
M  V30 10230 H 1003.76 -4.24357 -0.900181 0
M  V30 10231 H 1004.44 -4.99416 -2.35133 0
M  V30 10232 H 1006.91 -3.11166 -2.76251 0
M  V30 10233 H 1005.79 -3.79645 -3.96435 0
M  V30 10234 H 1006.05 -2.06019 -3.91163 0
M  V30 10235 N 1005.11 0.71652 -1.4037 0
M  V30 10236 C 1006.36 1.47347 -1.38324 0
M  V30 10237 C 1006.68 1.94995 0.0139949 0
M  V30 10238 O 1005.95 1.7028 0.968585 0
M  V30 10239 H 1004.53 0.546662 -0.509087 0
M  V30 10240 H 1007.19 0.849455 -1.75415 0
M  V30 10241 H 1006.29 2.34675 -2.05752 0
M  V30 10242 N 1006.59 1.25851 0.948643 0
M  V30 10243 C 1007.86 1.01717 1.67072 0
M  V30 10244 C 1008.24 -0.454749 2.06144 0
M  V30 10245 O 1007.59 -1.43345 1.77945 0
M  V30 10246 C 1007.8 1.95872 2.88852 0
M  V30 10247 C 1009.15 2.24057 3.60671 0
M  V30 10248 O 1010.17 1.93678 2.98944 0
M  V30 10249 O 1009.03 2.75745 4.71833 0
M  V30 10250 H 1006.13 0.386198 0.731287 0
M  V30 10251 H 1008.67 1.37031 1.00104 0
M  V30 10252 H 1007.44 2.95233 2.56814 0
M  V30 10253 H 1007.07 1.60992 3.63548 0
M  V30 10254 N 1008.06 -1.15214 1.07534 0
M  V30 10255 C 1009.48 -1.38031 0.801228 0
M  V30 10256 C 1009.68 -1.92556 -0.593672 0
M  V30 10257 O 1008.74 -2.1325 -1.35206 0
M  V30 10258 C 1010.05 -2.34958 1.87657 0
M  V30 10259 C 1011.6 -2.48617 1.90154 0
M  V30 10260 C 1012.07 -3.48837 2.96777 0
M  V30 10261 N 1013.56 -3.56374 2.95892 0
M  V30 10262 C 1014.3 -4.33746 3.75036 0
M  V30 10263 N 1013.79 -5.14435 4.64036 0
M  V30 10264 N 1015.59 -4.28853 3.63375 0
M  V30 10265 H 1007.74 -0.781639 1.97495 0
M  V30 10266 H 1010 -0.406243 0.856546 0
M  V30 10267 H 1009.71 -2.02013 2.87895 0
M  V30 10268 H 1009.58 -3.3476 1.73827 0
M  V30 10269 H 1011.97 -2.80859 0.905666 0
M  V30 10270 H 1012.05 -1.48808 2.08062 0
M  V30 10271 H 1011.69 -3.1733 3.96565 0
M  V30 10272 H 1011.62 -4.48406 2.76116 0
M  V30 10273 H 1014.11 -2.98784 2.31379 0
M  V30 10274 H 1014.43 -5.70722 5.21053 0
M  V30 10275 H 1012.77 -5.13734 4.68084 0
M  V30 10276 H 1015.96 -3.64882 2.93221 0
M  V30 10277 H 1016.14 -4.88903 4.25298 0
M  V30 10278 N 1009.54 -0.859717 -1.32086 0
M  V30 10279 C 1010.95 -0.519529 -1.79326 0
M  V30 10280 C 1011.3 0.96295 -1.70944 0
M  V30 10281 O 1010.43 1.75139 -1.27104 0
M  V30 10282 C 1011.02 -0.936267 -3.25606 0
M  V30 10283 C 1009.58 -0.647899 -3.70782 0
M  V30 10284 C 1008.73 -1.13323 -2.53087 0
M  V30 10285 H 1011.68 -1.04643 -1.19312 0
M  V30 10286 H 1011.7 -0.254714 -3.79646 0
M  V30 10287 H 1011.21 -2.01527 -3.31675 0
M  V30 10288 H 1009.32 0.420172 -3.70223 0
M  V30 10289 H 1009.43 -1.21774 -4.63366 0
M  V30 10290 H 1007.79 -0.553325 -2.48617 0
M  V30 10291 H 1008.58 -2.21945 -2.61907 0
M  V30 10292 N 1011.02 1.44971 -0.618145 0
M  V30 10293 C 1012.3 1.95539 -0.0489895 0
M  V30 10294 C 1012.68 1.5604 1.42179 0
M  V30 10295 O 1012.03 0.82809 2.12967 0
M  V30 10296 C 1012.24 3.48044 -0.258193 0
M  V30 10297 C 1013.58 4.24354 -0.144541 0
M  V30 10298 O 1014.61 3.55699 -0.18887 0
M  V30 10299 O 1013.47 5.46486 -0.038519 0
M  V30 10300 H 1010.56 0.826466 0.0297256 0
M  V30 10301 H 1013.11 1.55086 -0.688944 0
M  V30 10302 H 1011.88 3.69798 -1.27926 0
M  V30 10303 H 1011.5 3.95412 0.416522 0
M  V30 10304 N 1012.5 0.357919 1.53482 0
M  V30 10305 C 1013.73 -0.23514 2.05559 0
M  V30 10306 C 1014.14 -1.43068 1.23195 0
M  V30 10307 O 1013.5 -1.80481 0.270741 0
M  V30 10308 C 1013.55 -0.636147 3.55859 0
M  V30 10309 O 1013.27 0.511864 4.35099 0
M  V30 10310 C 1014.77 -1.28841 4.24164 0
M  V30 10311 H 1011.99 -0.0428446 0.669631 0
M  V30 10312 H 1014.54 0.51407 1.97933 0
M  V30 10313 H 1012.69 -1.33528 3.63661 0
M  V30 10314 H 1013.1 0.189328 5.24158 0
M  V30 10315 H 1014.58 -1.51962 5.30671 0
M  V30 10316 H 1015.06 -2.24638 3.77405 0
M  V30 10317 H 1015.66 -0.630914 4.20594 0
M  V30 10318 N 1013.98 -1.5736 0.0868897 0
M  V30 10319 C 1014.92 -2.14793 -0.892571 0
M  V30 10320 C 1015.92 -1.08866 -1.29787 0
M  V30 10321 O 1017.12 -1.27223 -1.27335 0
M  V30 10322 H 1013.5 -0.686998 -0.305838 0
M  V30 10323 H 1015.47 -2.95927 -0.383393 0
M  V30 10324 C 1014.22 -2.73646 -2.14507 0
M  V30 10325 H 1013.54 -3.54835 -1.84207 0
M  V30 10326 H 1014.98 -3.17409 -2.81118 0
M  V30 10327 C 1013.44 -1.69138 -2.91366 0
M  V30 10328 O 1013.97 -1.12539 -3.85614 0
M  V30 10329 N 1012.18 -1.3982 -2.54752 0
M  V30 10330 H 1011.72 -1.86035 -1.78182 0
M  V30 10331 H 1011.68 -0.701316 -3.06478 0
M  V30 10332 N 1015.45 0.186762 -1.56489 0
M  V30 10333 C 1016.7 0.907194 -1.81378 0
M  V30 10334 C 1017.03 1.82558 -0.662283 0
M  V30 10335 O 1016.31 1.91564 0.336699 0
M  V30 10336 C 1016.59 1.71624 -3.16571 0
M  V30 10337 C 1016.44 0.822009 -4.42225 0
M  V30 10338 C 1017.76 2.68713 -3.48542 0
M  V30 10339 H 1014.88 0.328366 -0.659806 0
M  V30 10340 H 1017.52 0.174142 -1.892 0
M  V30 10341 H 1015.67 2.34119 -3.10033 0
M  V30 10342 H 1017.35 0.211122 -4.60817 0
M  V30 10343 H 1015.59 0.129178 -4.33608 0
M  V30 10344 H 1016.26 1.42326 -5.33336 0
M  V30 10345 H 1018.74 2.16348 -3.55433 0
M  V30 10346 H 1017.61 3.22397 -4.44242 0
M  V30 10347 H 1017.87 3.48165 -2.72459 0
M  V30 10348 N 1016.93 1.50896 0.454776 0
M  V30 10349 C 1018.34 1.55372 1.0352 0
M  V30 10350 C 1018.69 0.366822 1.9274 0
M  V30 10351 O 1017.82 -0.518444 2.10098 0
M  V30 10352 C 1018.41 2.81574 1.88418 0
M  V30 10353 C 1016.97 2.88679 2.4154 0
M  V30 10354 C 1016.12 2.49847 1.20298 0
M  V30 10355 H 1019.07 1.56924 0.236729 0
M  V30 10356 H 1019.09 2.64352 2.73676 0
M  V30 10357 H 1018.6 3.67941 1.23455 0
M  V30 10358 H 1016.71 2.06702 3.10008 0
M  V30 10359 H 1016.82 3.91944 2.7553 0
M  V30 10360 H 1015.18 2.02651 1.54288 0
M  V30 10361 H 1015.97 3.3854 0.569723 0
M  V30 10362 N 1018.41 -0.709066 1.40748 0
M  V30 10363 C 1019.66 -1.46611 1.39103 0
M  V30 10364 C 1019.98 -1.95 -0.00365366 0
M  V30 10365 O 1019.25 -1.70791 -0.959541 0
M  V30 10366 H 1017.83 -0.543954 0.511979 0
M  V30 10367 H 1020.49 -0.840141 1.75863 0
M  V30 10368 H 1019.59 -2.33581 2.06994 0
M  V30 10369 N 1019.89 -1.26353 -0.941956 0
M  V30 10370 C 1021.17 -1.02601 -1.6653 0
M  V30 10371 C 1021.55 0.44381 -2.06382 0
M  V30 10372 O 1020.89 1.42399 -1.78703 0
M  V30 10373 C 1021.1 -1.97401 -2.87809 0
M  V30 10374 C 1022.45 -2.25967 -3.59478 0
M  V30 10375 O 1023.48 -1.95261 -2.97912 0
M  V30 10376 O 1022.34 -2.78244 -4.70364 0
M  V30 10377 H 1019.43 -0.39007 -0.729228 0
M  V30 10378 H 1021.98 -1.37559 -0.993754 0
M  V30 10379 H 1020.75 -2.9659 -2.55245 0
M  V30 10380 H 1020.37 -1.62918 -3.62689 0
M  V30 10381 N 1021.37 1.14642 -1.08144 0
M  V30 10382 C 1022.32 2.17665 -0.678661 0
M  V30 10383 C 1023.3 1.58072 0.300336 0
M  V30 10384 O 1024.49 1.7664 0.112781 0
M  V30 10385 C 1021.62 3.43191 -0.0866362 0
M  V30 10386 C 1020.71 4.0982 -1.09126 0
M  V30 10387 N 1021.1 4.51814 -2.27372 0
M  V30 10388 C 1019.4 4.36272 -0.926411 0
M  V30 10389 C 1020.1 5.03581 -2.91172 0
M  V30 10390 N 1019.07 4.97624 -2.18795 0
M  V30 10391 H 1022.88 2.47872 -1.57914 0
M  V30 10392 H 1020.39 1.31296 -0.955772 0
M  V30 10393 H 1022.39 4.1632 0.219859 0
M  V30 10394 H 1021.05 3.14464 0.80886 0
M  V30 10395 H 1022.06 4.44941 -2.65044 0
M  V30 10396 H 1018.74 4.17414 -0.084492 0
M  V30 10397 H 1020.13 5.45969 -3.91621 0
M  V30 10398 N 1022.85 0.866709 1.31628 0
M  V30 10399 C 1023.79 0.318169 2.28596 0
M  V30 10400 C 1024.76 -0.581558 1.55586 0
M  V30 10401 O 1025.95 -0.513895 1.83749 0
M  V30 10402 C 1023.09 -0.477137 3.41786 0
M  V30 10403 C 1022.2 0.449739 4.29653 0
M  V30 10404 C 1021.34 -0.359373 5.29983 0
M  V30 10405 C 1020.37 0.564138 6.09495 0
M  V30 10406 N 1019.51 -0.208526 7.0179 0
M  V30 10407 H 1024.35 1.15029 2.74904 0
M  V30 10408 H 1021.89 0.578649 1.35241 0
M  V30 10409 H 1023.85 -0.953985 4.06146 0
M  V30 10410 H 1022.48 -1.27398 2.96597 0
M  V30 10411 H 1021.53 1.04502 3.65764 0
M  V30 10412 H 1022.84 1.158 4.85172 0
M  V30 10413 H 1021.99 -0.89887 6.00004 0
M  V30 10414 H 1020.73 -1.10094 4.75111 0
M  V30 10415 H 1019.74 1.11542 5.38366 0
M  V30 10416 H 1020.96 1.30451 6.66453 0
M  V30 10417 H 1018.91 -0.932969 6.49332 0
M  V30 10418 H 1018.83 0.440463 7.54716 0
M  V30 10419 H 1020.09 -0.72936 7.7608 0
M  V30 10420 N 1024.32 -1.44642 0.625825 0
M  V30 10421 C 1025.57 -2.02393 0.128391 0
M  V30 10422 C 1025.9 -1.49075 -1.2446 0
M  V30 10423 O 1025.18 -0.672684 -1.82497 0
M  V30 10424 C 1025.46 -3.59934 0.109279 0
M  V30 10425 C 1025.31 -4.23546 1.51423 0
M  V30 10426 C 1026.63 -4.36406 -0.568985 0
M  V30 10427 H 1023.75 -0.735427 0.0481299 0
M  V30 10428 H 1026.39 -1.72277 0.801286 0
M  V30 10429 H 1024.54 -3.85722 -0.463726 0
M  V30 10430 H 1026.22 -4.08882 2.13572 0
M  V30 10431 H 1024.46 -3.81245 2.06966 0
M  V30 10432 H 1025.13 -5.32535 1.45294 0
M  V30 10433 H 1027.61 -4.1602 -0.0817516 0
M  V30 10434 H 1026.48 -5.46122 -0.551527 0
M  V30 10435 H 1026.74 -4.1062 -1.6384 0
M  V30 10436 N 1025.8 -0.366053 -1.5329 0
M  V30 10437 C 1027.03 0.224236 -2.05681 0
M  V30 10438 C 1027.44 1.42412 -1.23952 0
M  V30 10439 O 1026.8 1.80334 -0.280309 0
M  V30 10440 C 1026.85 0.617266 -3.56191 0
M  V30 10441 O 1026.57 -0.534931 -4.34822 0
M  V30 10442 C 1028.07 1.26589 -4.24841 0
M  V30 10443 H 1025.29 0.0392928 -0.669849 0
M  V30 10444 H 1027.84 -0.52456 -1.97658 0
M  V30 10445 H 1025.99 1.31598 -3.64364 0
M  V30 10446 H 1026.41 -0.217123 -5.2405 0
M  V30 10447 H 1027.88 1.49146 -5.31469 0
M  V30 10448 H 1028.36 2.22633 -3.78591 0
M  V30 10449 H 1028.96 0.6086 -4.20923 0
M  V30 10450 N 1027.28 1.57312 -0.0952337 0
M  V30 10451 C 1028.53 1.94646 0.569284 0
M  V30 10452 C 1028.86 0.977152 1.67825 0
M  V30 10453 O 1028.13 0.0102318 1.94497 0
M  V30 10454 C 1028.42 3.42098 1.12433 0
M  V30 10455 C 1028.27 4.49795 0.0204016 0
M  V30 10456 C 1029.59 3.90866 2.02266 0
M  V30 10457 H 1026.71 0.707779 0.205469 0
M  V30 10458 H 1029.35 1.89274 -0.16597 0
M  V30 10459 H 1027.5 3.46807 1.75092 0
M  V30 10460 H 1029.17 4.57198 -0.613845 0
M  V30 10461 H 1027.41 4.28964 -0.645965 0
M  V30 10462 H 1028.09 5.50166 0.449579 0
M  V30 10463 H 1030.56 3.88311 1.49512 0
M  V30 10464 H 1029.44 4.94604 2.38029 0
M  V30 10465 H 1029.7 3.30167 2.9401 0
M  V30 10466 N 1028.76 -0.17846 1.56586 0
M  V30 10467 C 1029.67 -1.24115 1.9908 0
M  V30 10468 C 1030.68 -1.48854 0.901031 0
M  V30 10469 O 1031.86 -1.61142 1.2081 0
M  V30 10470 C 1028.92 -2.56187 2.33601 0
M  V30 10471 C 1027.99 -2.39373 3.56369 0
M  V30 10472 C 1027.22 -3.65147 3.89234 0
M  V30 10473 O 1027.44 -4.70024 3.23162 0
M  V30 10474 O 1026.38 -3.59683 4.82609 0
M  V30 10475 H 1030.2 -0.910482 2.89731 0
M  V30 10476 H 1027.79 -0.38477 1.4436 0
M  V30 10477 H 1029.67 -3.34109 2.56806 0
M  V30 10478 H 1028.34 -2.88847 1.46113 0
M  V30 10479 H 1027.25 -1.59506 3.38391 0
M  V30 10480 H 1028.58 -2.1164 4.44375 0
M  V30 10481 N 1030.24 -1.51135 -0.446768 0
M  V30 10482 C 1031.48 -1.63578 -1.19875 0
M  V30 10483 C 1031.81 -0.346478 -1.91084 0
M  V30 10484 O 1031.09 0.653447 -1.83195 0
M  V30 10485 C 1031.37 -2.83275 -2.22323 0
M  V30 10486 C 1031.23 -4.22155 -1.55259 0
M  V30 10487 C 1032.54 -2.98496 -3.23401 0
M  V30 10488 H 1029.66 -0.595333 -0.434452 0
M  V30 10489 H 1032.31 -1.83593 -0.48923 0
M  V30 10490 H 1030.46 -2.6634 -2.82834 0
M  V30 10491 H 1032.13 -4.50736 -0.981571 0
M  V30 10492 H 1030.37 -4.25288 -0.855122 0
M  V30 10493 H 1031.04 -5.01882 -2.29823 0
M  V30 10494 H 1033.52 -3.14079 -2.72935 0
M  V30 10495 H 1032.39 -3.83828 -3.92386 0
M  V30 10496 H 1032.65 -2.10157 -3.88956 0
M  V30 10497 N 1031.71 0.701592 -1.41122 0
M  V30 10498 C 1032.94 1.49049 -1.43499 0
M  V30 10499 C 1033.36 1.88761 -0.0385684 0
M  V30 10500 O 1032.71 1.56384 0.940755 0
M  V30 10501 C 1032.76 2.7569 -2.33832 0
M  V30 10502 O 1032.49 2.37653 -3.68039 0
M  V30 10503 C 1033.99 3.69479 -2.44949 0
M  V30 10504 H 1031.21 0.459519 -0.488961 0
M  V30 10505 H 1033.75 0.864318 -1.85337 0
M  V30 10506 H 1031.91 3.34559 -1.95318 0
M  V30 10507 H 1032.32 3.19241 -4.16156 0
M  V30 10508 H 1033.79 4.55139 -3.12334 0
M  V30 10509 H 1034.27 4.13553 -1.47887 0
M  V30 10510 H 1034.88 3.16517 -2.84072 0
M  V30 10511 N 1033.19 1.2685 0.935242 0
M  V30 10512 C 1034.42 1.15371 1.71386 0
M  V30 10513 C 1034.83 -0.293048 1.86917 0
M  V30 10514 O 1034.17 -1.212 1.38044 0
M  V30 10515 C 1034.23 1.75652 3.13666 0
M  V30 10516 C 1033.9 3.24788 3.215 0
M  V30 10517 C 1034.9 4.21525 3.04323 0
M  V30 10518 C 1032.58 3.65359 3.447 0
M  V30 10519 C 1034.57 5.56812 3.10224 0
M  V30 10520 C 1032.26 5.00778 3.50235 0
M  V30 10521 C 1033.26 5.96314 3.33014 0
M  V30 10522 O 1032.95 7.29266 3.38269 0
M  V30 10523 H 1032.68 0.40234 0.54323 0
M  V30 10524 H 1035.23 1.68083 1.18056 0
M  V30 10525 H 1033.46 1.17408 3.68446 0
M  V30 10526 H 1035.15 1.58994 3.73465 0
M  V30 10527 H 1035.92 3.91519 2.86249 0
M  V30 10528 H 1031.8 2.91479 3.57157 0
M  V30 10529 H 1035.34 6.3136 2.967 0
M  V30 10530 H 1031.24 5.30444 3.67831 0
M  V30 10531 H 1032.01 7.37616 3.54774 0
M  V30 10532 N 1034.67 -1.14067 1.0875 0
M  V30 10533 C 1036.08 -1.66747 0.839778 0
M  V30 10534 C 1036.43 -1.85711 -0.632909 0
M  V30 10535 O 1035.56 -1.57084 -1.48841 0
M  V30 10536 C 1036.15 -3.02896 1.51787 0
M  V30 10537 C 1034.71 -3.52596 1.3173 0
M  V30 10538 C 1033.86 -2.27994 1.57841 0
M  V30 10539 H 1036.81 -0.980838 1.24761 0
M  V30 10540 H 1036.83 -3.68526 0.947057 0
M  V30 10541 H 1036.34 -2.89062 2.58969 0
M  V30 10542 H 1034.44 -3.71647 0.266339 0
M  V30 10543 H 1034.56 -4.33151 2.04736 0
M  V30 10544 H 1032.92 -2.34241 1.00015 0
M  V30 10545 H 1033.7 -2.16732 2.66237 0
M  V30 10546 N 1036.15 -0.873678 -1.31166 0
M  V30 10547 C 1037.43 -0.40698 -1.91319 0
M  V30 10548 C 1037.81 1.1113 -1.79481 0
M  V30 10549 O 1037.15 1.94155 -1.20483 0
M  V30 10550 C 1037.36 -0.892484 -3.37396 0
M  V30 10551 C 1038.71 -0.920795 -4.14496 0
M  V30 10552 O 1039.74 -0.838386 -3.46193 0
M  V30 10553 O 1038.59 -1.04069 -5.365 0
M  V30 10554 H 1035.69 -0.122439 -0.817886 0
M  V30 10555 H 1038.23 -0.961835 -1.3981 0
M  V30 10556 H 1037.01 -1.93613 -3.40044 0
M  V30 10557 H 1036.63 -0.31615 -3.96341 0
M  V30 10558 N 1037.63 1.44308 -0.633487 0
M  V30 10559 C 1038.87 2.01624 -0.138643 0
M  V30 10560 C 1039.2 1.50101 1.24477 0
M  V30 10561 O 1038.47 0.705575 1.82752 0
M  V30 10562 H 1037.05 0.745439 -0.0482636 0
M  V30 10563 H 1039.71 1.76777 -0.820719 0
M  V30 10564 H 1038.8 3.11913 -0.108136 0
M  V30 10565 N 1039.1 0.374177 1.53094 0
M  V30 10566 C 1040.33 -0.213325 2.05797 0
M  V30 10567 C 1040.75 -1.41753 1.24706 0
M  V30 10568 O 1040.1 -1.80183 0.289868 0
M  V30 10569 C 1040.16 -0.598367 3.56513 0
M  V30 10570 O 1039.88 0.557983 4.34532 0
M  V30 10571 C 1041.38 -1.24334 4.25507 0
M  V30 10572 H 1038.6 -0.0357398 0.670048 0
M  V30 10573 H 1041.14 0.535035 1.97377 0
M  V30 10574 H 1039.3 -1.29663 3.65056 0
M  V30 10575 H 1039.71 0.244911 5.23928 0
M  V30 10576 H 1041.18 -1.46325 5.32253 0
M  V30 10577 H 1041.66 -2.20622 3.79766 0
M  V30 10578 H 1042.27 -0.586269 4.2124 0
M  V30 10579 N 1040.58 -1.57259 0.103575 0
M  V30 10580 C 1041.53 -2.14487 -0.852295 0
M  V30 10581 C 1042.5 -1.06567 -1.27407 0
M  V30 10582 O 1043.68 -1.34398 -1.35432 0
M  V30 10583 C 1040.82 -2.73632 -2.10284 0
M  V30 10584 C 1039.94 -3.95811 -1.73083 0
M  V30 10585 C 1039.07 -4.43093 -2.92988 0
M  V30 10586 C 1038.11 -5.5784 -2.51953 0
M  V30 10587 N 1037.25 -5.99936 -3.64721 0
M  V30 10588 H 1042.09 -2.95849 -0.35743 0
M  V30 10589 H 1039.63 -1.46175 -0.164748 0
M  V30 10590 H 1041.58 -3.06046 -2.83534 0
M  V30 10591 H 1040.21 -1.94985 -2.57256 0
M  V30 10592 H 1039.27 -3.69656 -0.897688 0
M  V30 10593 H 1040.58 -4.79066 -1.38916 0
M  V30 10594 H 1039.73 -4.77335 -3.74481 0
M  V30 10595 H 1038.47 -3.58756 -3.30372 0
M  V30 10596 H 1037.48 -5.23217 -1.6889 0
M  V30 10597 H 1038.7 -6.43932 -2.15705 0
M  V30 10598 H 1036.65 -5.18543 -4.01807 0
M  V30 10599 H 1036.56 -6.78008 -3.34427 0
M  V30 10600 H 1037.83 -6.38812 -4.46699 0
M  V30 10601 N 1042.06 0.170153 -1.56679 0
M  V30 10602 C 1043.34 0.913938 -1.72935 0
M  V30 10603 C 1043.72 2.00342 -0.665293 0
M  V30 10604 O 1043.07 2.26252 0.319715 0
M  V30 10605 C 1043.28 1.47761 -3.16177 0
M  V30 10606 C 1044.62 1.95007 -3.7717 0
M  V30 10607 O 1045.65 1.57552 -3.19462 0
M  V30 10608 O 1044.51 2.64007 -4.78501 0
M  V30 10609 H 1041.6 0.43027 -0.706256 0
M  V30 10610 H 1044.15 0.157891 -1.68964 0
M  V30 10611 H 1042.92 0.69352 -3.85105 0
M  V30 10612 H 1042.54 2.2978 -3.24479 0
M  V30 10613 N 1043.54 1.5137 0.438746 0
M  V30 10614 C 1044.77 1.67774 1.21077 0
M  V30 10615 C 1045.18 0.374489 1.85049 0
M  V30 10616 O 1044.54 -0.646867 1.70651 0
M  V30 10617 C 1044.59 2.79238 2.29584 0
M  V30 10618 O 1044.31 4.04513 1.68228 0
M  V30 10619 C 1045.81 3.06898 3.19888 0
M  V30 10620 H 1043.03 0.563054 0.364981 0
M  V30 10621 H 1045.58 1.97777 0.520035 0
M  V30 10622 H 1043.73 2.51837 2.94375 0
M  V30 10623 H 1044.14 4.66405 2.3993 0
M  V30 10624 H 1045.62 3.88476 3.92162 0
M  V30 10625 H 1046.1 2.19249 3.80561 0
M  V30 10626 H 1046.7 3.35952 2.60799 0
M  V30 10627 N 1045.02 -0.694098 1.41492 0
M  V30 10628 C 1046.26 -1.4563 1.41137 0
M  V30 10629 C 1046.6 -1.94189 0.0208428 0
M  V30 10630 O 1045.87 -1.69628 -0.951655 0
M  V30 10631 C 1046.15 -2.66714 2.41941 0
M  V30 10632 C 1046.01 -2.23912 3.90107 0
M  V30 10633 C 1047.33 -3.68913 2.39981 0
M  V30 10634 H 1044.44 -0.52821 0.513968 0
M  V30 10635 H 1047.09 -0.790437 1.72778 0
M  V30 10636 H 1045.24 -3.23525 2.1509 0
M  V30 10637 H 1046.91 -1.72417 4.27867 0
M  V30 10638 H 1045.15 -1.5568 4.04903 0
M  V30 10639 H 1045.82 -3.108 4.56188 0
M  V30 10640 H 1048.3 -3.21779 2.63813 0
M  V30 10641 H 1047.17 -4.51242 3.12524 0
M  V30 10642 H 1047.44 -4.18711 1.41892 0
M  V30 10643 N 1046.49 -1.27344 -0.928501 0
M  V30 10644 C 1047.4 -1.11812 -2.06241 0
M  V30 10645 C 1048.42 -0.048347 -1.73933 0
M  V30 10646 O 1049.6 -0.25467 -1.99783 0
M  V30 10647 C 1046.66 -0.766036 -3.38131 0
M  V30 10648 C 1045.72 -1.91659 -3.84142 0
M  V30 10649 C 1044.96 -1.58121 -5.09738 0
M  V30 10650 O 1045.18 -0.488742 -5.68302 0
M  V30 10651 O 1044.11 -2.42013 -5.51102 0
M  V30 10652 H 1047.94 -2.06967 -2.22258 0
M  V30 10653 H 1045.52 -1.06524 -1.04752 0
M  V30 10654 H 1047.41 -0.582982 -4.17348 0
M  V30 10655 H 1046.08 0.155998 -3.23324 0
M  V30 10656 H 1044.99 -2.1547 -3.05816 0
M  V30 10657 H 1046.32 -2.8188 -4.0349 0
M  V30 10658 N 1047.97 1.13488 -1.09353 0
M  V30 10659 C 1049.22 1.85022 -0.830354 0
M  V30 10660 C 1049.55 1.83266 0.64242 0
M  V30 10661 O 1048.83 1.27024 1.47293 0
M  V30 10662 C 1049.11 3.33218 -1.36521 0
M  V30 10663 C 1048.96 3.43491 -2.90404 0
M  V30 10664 C 1050.28 4.28626 -0.998381 0
M  V30 10665 H 1047.4 0.671786 -0.303105 0
M  V30 10666 H 1050.04 1.33211 -1.3548 0
M  V30 10667 H 1048.19 3.77471 -0.919117 0
M  V30 10668 H 1049.86 3.07954 -3.43456 0
M  V30 10669 H 1048.11 2.84391 -3.27573 0
M  V30 10670 H 1048.78 4.47702 -3.22905 0
M  V30 10671 H 1051.25 3.9244 -1.38311 0
M  V30 10672 H 1050.13 5.30754 -1.39968 0
M  V30 10673 H 1050.39 4.42001 0.093517 0
M  V30 10674 N 1049.45 0.880621 1.30701 0
M  V30 10675 C 1050.68 0.511682 2.00473 0
M  V30 10676 C 1051.09 -0.898684 1.6604 0
M  V30 10677 O 1050.45 -1.59035 0.895218 0
M  V30 10678 C 1050.5 0.671723 3.55204 0
M  V30 10679 O 1050.22 2.02656 3.8841 0
M  V30 10680 C 1051.72 0.3052 4.42248 0
M  V30 10681 H 1048.94 0.198231 0.64105 0
M  V30 10682 H 1051.49 1.18472 1.66687 0
M  V30 10683 H 1049.64 0.0461066 3.87373 0
M  V30 10684 H 1050.06 2.04202 4.83117 0
M  V30 10685 H 1051.53 0.468095 5.50012 0
M  V30 10686 H 1052.01 -0.756456 4.32637 0
M  V30 10687 H 1052.61 0.906959 4.15517 0
M  V30 10688 N 1050.93 -1.4397 0.641131 0
M  V30 10689 C 1052.18 -2.02246 0.14985 0
M  V30 10690 C 1052.51 -1.50387 -1.22871 0
M  V30 10691 O 1051.78 -0.692003 -1.81773 0
M  V30 10692 C 1052.07 -3.59798 0.147449 0
M  V30 10693 C 1051.92 -4.21916 1.55907 0
M  V30 10694 C 1053.24 -4.36985 -0.522667 0
M  V30 10695 H 1050.36 -0.734875 0.0559274 0
M  V30 10696 H 1053 -1.71418 0.819513 0
M  V30 10697 H 1051.15 -3.86193 -0.422789 0
M  V30 10698 H 1052.82 -4.06594 2.17896 0
M  V30 10699 H 1051.06 -3.79028 2.10998 0
M  V30 10700 H 1051.74 -5.30964 1.50934 0
M  V30 10701 H 1054.21 -4.16083 -0.0376226 0
M  V30 10702 H 1053.09 -5.46676 -0.493572 0
M  V30 10703 H 1053.35 -4.12335 -1.59475 0
M  V30 10704 N 1052.41 -0.382291 -1.52893 0
M  V30 10705 C 1053.36 0.473026 -2.23039 0
M  V30 10706 C 1054.34 1.0353 -1.23168 0
M  V30 10707 O 1055.53 0.962566 -1.48538 0
M  V30 10708 C 1052.66 1.60349 -3.03551 0
M  V30 10709 C 1051.75 1.05329 -4.10812 0
M  V30 10710 N 1052.14 0.22746 -5.05288 0
M  V30 10711 C 1050.44 1.32648 -4.25818 0
M  V30 10712 C 1051.14 -0.0757032 -5.81651 0
M  V30 10713 N 1050.11 0.526387 -5.41045 0
M  V30 10714 H 1053.92 -0.164541 -2.93439 0
M  V30 10715 H 1051.43 -0.191211 -1.6127 0
M  V30 10716 H 1053.43 2.22858 -3.52335 0
M  V30 10717 H 1052.09 2.24394 -2.34685 0
M  V30 10718 H 1053.1 -0.134714 -5.17725 0
M  V30 10719 H 1049.78 1.96849 -3.6818 0
M  V30 10720 H 1051.17 -0.744375 -6.67764 0
M  V30 10721 N 1053.89 1.57202 -0.111913 0
M  V30 10722 C 1055.13 1.95239 0.548607 0
M  V30 10723 C 1055.46 0.994897 1.6678 0
M  V30 10724 O 1054.74 0.0308603 1.94476 0
M  V30 10725 C 1055.02 3.43271 1.08798 0
M  V30 10726 C 1054.88 4.49792 -0.0273064 0
M  V30 10727 C 1056.19 3.92989 1.98109 0
M  V30 10728 H 1053.31 0.709919 0.197951 0
M  V30 10729 H 1055.96 1.89087 -0.186036 0
M  V30 10730 H 1054.11 3.48644 1.71404 0
M  V30 10731 H 1055.78 4.56521 -0.662302 0
M  V30 10732 H 1054.02 4.28254 -0.691426 0
M  V30 10733 H 1054.69 5.50612 0.391201 0
M  V30 10734 H 1057.17 3.89875 1.45385 0
M  V30 10735 H 1056.04 4.97101 2.32769 0
M  V30 10736 H 1056.3 3.33267 2.90492 0
M  V30 10737 N 1055.36 -0.161842 1.56767 0
M  V30 10738 C 1056.59 -0.892247 1.86672 0
M  V30 10739 C 1057.01 -1.75407 0.69841 0
M  V30 10740 O 1056.36 -1.7945 -0.332251 0
M  V30 10741 C 1056.41 -1.7612 3.15696 0
M  V30 10742 O 1056.14 -0.934131 4.28025 0
M  V30 10743 C 1057.64 -2.60046 3.59014 0
M  V30 10744 H 1054.86 -0.258747 0.619105 0
M  V30 10745 H 1057.4 -0.159089 2.0388 0
M  V30 10746 H 1055.56 -2.44759 3.00286 0
M  V30 10747 H 1055.97 -1.52931 5.01709 0
M  V30 10748 H 1057.44 -3.16618 4.5217 0
M  V30 10749 H 1057.92 -3.35374 2.83586 0
M  V30 10750 H 1058.53 -1.96724 3.77067 0
M  V30 10751 N 1056.84 -1.516 -0.430713 0
M  V30 10752 C 1058.25 -1.57 -1.01035 0
M  V30 10753 C 1058.6 -0.397439 -1.92132 0
M  V30 10754 O 1057.73 0.484954 -2.10896 0
M  V30 10755 C 1058.32 -2.84536 -1.83915 0
M  V30 10756 C 1056.88 -2.92485 -2.36917 0
M  V30 10757 C 1056.03 -2.5173 -1.16308 0
M  V30 10758 H 1058.98 -1.57281 -0.211734 0
M  V30 10759 H 1059 -2.68672 -2.69435 0
M  V30 10760 H 1058.51 -3.69858 -1.17586 0
M  V30 10761 H 1056.61 -2.11608 -3.0668 0
M  V30 10762 H 1056.73 -3.96277 -2.6926 0
M  V30 10763 H 1055.09 -2.05079 -1.51045 0
M  V30 10764 H 1055.87 -3.39403 -0.515793 0
M  V30 10765 N 1058.32 0.686584 -1.41858 0
M  V30 10766 C 1059.27 1.80038 -1.44413 0
M  V30 10767 C 1060.24 1.63415 -0.297427 0
M  V30 10768 O 1061.42 1.84138 -0.499789 0
M  V30 10769 C 1058.56 3.17988 -1.34082 0
M  V30 10770 C 1057.67 3.45979 -2.58693 0
M  V30 10771 C 1056.81 4.73592 -2.4059 0
M  V30 10772 C 1055.85 4.94581 -3.60633 0
M  V30 10773 N 1054.99 6.13426 -3.41545 0
M  V30 10774 H 1059.83 1.77189 -2.396 0
M  V30 10775 H 1057.36 0.865158 -1.18968 0
M  V30 10776 H 1059.32 3.97689 -1.26092 0
M  V30 10777 H 1057.95 3.1999 -0.424975 0
M  V30 10778 H 1057 2.60617 -2.77097 0
M  V30 10779 H 1058.31 3.57386 -3.47961 0
M  V30 10780 H 1057.47 5.61364 -2.30119 0
M  V30 10781 H 1056.21 4.64448 -1.48794 0
M  V30 10782 H 1055.21 4.05254 -3.71549 0
M  V30 10783 H 1056.44 5.05578 -4.53395 0
M  V30 10784 H 1054.38 6.05477 -2.52456 0
M  V30 10785 H 1054.3 6.25641 -4.24393 0
M  V30 10786 H 1055.57 7.03908 -3.34864 0
M  V30 10787 N 1059.8 1.27835 0.921735 0
M  V30 10788 C 1061.21 1.13151 1.48505 0
M  V30 10789 C 1061.56 -0.281373 1.94172 0
M  V30 10790 O 1060.68 -1.17487 1.8173 0
M  V30 10791 C 1061.28 2.04792 2.69899 0
M  V30 10792 C 1059.84 1.94196 3.22436 0
M  V30 10793 C 1058.99 1.96999 1.95158 0
M  V30 10794 H 1061.94 1.40641 0.735241 0
M  V30 10795 H 1061.96 1.60724 3.44889 0
M  V30 10796 H 1061.47 3.07615 2.36631 0
M  V30 10797 H 1059.57 0.943805 3.60448 0
M  V30 10798 H 1059.68 2.80744 3.88226 0
M  V30 10799 H 1058.05 1.41301 2.11911 0
M  V30 10800 H 1058.83 3.01487 1.64196 0
M  V30 10801 N 1061.28 -1.12907 1.09954 0
M  V30 10802 C 1062.52 -1.84579 0.840155 0
M  V30 10803 C 1062.85 -1.83605 -0.632692 0
M  V30 10804 O 1062.13 -1.27803 -1.46617 0
M  V30 10805 C 1062.41 -3.32489 1.38286 0
M  V30 10806 C 1062.27 -3.41946 2.92221 0
M  V30 10807 C 1063.58 -4.28091 1.0211 0
M  V30 10808 H 1060.7 -0.670169 0.306663 0
M  V30 10809 H 1063.35 -1.3249 1.36185 0
M  V30 10810 H 1061.5 -3.76978 0.939123 0
M  V30 10811 H 1063.17 -3.06128 3.45085 0
M  V30 10812 H 1061.41 -2.8265 3.29077 0
M  V30 10813 H 1062.08 -4.45983 3.25274 0
M  V30 10814 H 1064.56 -3.91701 1.4039 0
M  V30 10815 H 1063.43 -5.30005 1.42781 0
M  V30 10816 H 1063.69 -4.42044 -0.0700753 0
M  V30 10817 N 1062.75 -0.88754 -1.30232 0
M  V30 10818 C 1064.16 -0.55745 -1.78184 0
M  V30 10819 C 1064.52 0.926474 -1.72948 0
M  V30 10820 O 1063.64 1.72403 -1.3079 0
M  V30 10821 C 1064.24 -1.00512 -3.23547 0
M  V30 10822 C 1062.79 -0.726402 -3.69324 0
M  V30 10823 C 1061.94 -1.18666 -2.50627 0
M  V30 10824 H 1064.89 -1.07151 -1.17066 0
M  V30 10825 H 1064.91 -0.335185 -3.79021 0
M  V30 10826 H 1064.43 -2.08517 -3.27326 0
M  V30 10827 H 1062.53 0.341548 -3.71031 0
M  V30 10828 H 1062.64 -1.31575 -4.60679 0
M  V30 10829 H 1061 -0.605936 -2.47387 0
M  V30 10830 H 1061.79 -2.2745 -2.57141 0
M  V30 10831 N 1064.23 1.43628 -0.648757 0
M  V30 10832 C 1065.51 1.95391 -0.0904551 0
M  V30 10833 C 1065.89 1.59021 1.38837 0
M  V30 10834 O 1065.24 0.873078 2.11163 0
M  V30 10835 C 1065.45 3.47418 -0.33196 0
M  V30 10836 C 1066.8 4.23952 -0.234521 0
M  V30 10837 O 1067.82 3.55218 -0.264276 0
M  V30 10838 O 1066.68 5.46282 -0.154428 0
M  V30 10839 H 1063.77 0.82691 0.0121884 0
M  V30 10840 H 1066.32 1.5359 -0.721685 0
M  V30 10841 H 1065.09 3.67001 -1.35741 0
M  V30 10842 H 1064.71 3.96207 0.332556 0
M  V30 10843 N 1065.71 0.390394 1.52688 0
M  V30 10844 C 1066.66 -0.444229 2.26485 0
M  V30 10845 C 1067.63 -1.05688 1.28138 0
M  V30 10846 O 1068.81 -1.0847 1.56968 0
M  V30 10847 C 1065.95 -1.56501 3.07574 0
M  V30 10848 C 1065.07 -0.975111 4.20851 0
M  V30 10849 C 1064.2 -2.06704 4.89333 0
M  V30 10850 C 1063.24 -1.45309 5.94602 0
M  V30 10851 N 1062.38 -2.48437 6.56676 0
M  V30 10852 H 1067.22 0.191535 2.97384 0
M  V30 10853 H 1064.75 0.106287 1.46716 0
M  V30 10854 H 1066.71 -2.22558 3.52879 0
M  V30 10855 H 1065.34 -2.17107 2.38881 0
M  V30 10856 H 1064.39 -0.204109 3.79852 0
M  V30 10857 H 1065.71 -0.486465 4.96422 0
M  V30 10858 H 1064.86 -2.80528 5.37949 0
M  V30 10859 H 1063.6 -2.58928 4.13289 0
M  V30 10860 H 1062.6 -0.700091 5.45324 0
M  V30 10861 H 1063.83 -0.938775 6.7258 0
M  V30 10862 H 1061.77 -2.99829 5.83471 0
M  V30 10863 H 1061.69 -2.04331 7.27863 0
M  V30 10864 H 1062.96 -3.21888 7.09935 0
M  V30 10865 N 1067.19 -1.57141 0.120249 0
M  V30 10866 C 1068.47 -1.8677 -0.581075 0
M  V30 10867 C 1068.85 -1.02163 -1.84732 0
M  V30 10868 O 1068.19 -0.100897 -2.28277 0
M  V30 10869 C 1068.4 -3.37923 -0.872316 0
M  V30 10870 C 1069.75 -4.0655 -1.22483 0
M  V30 10871 O 1070.78 -3.42948 -0.962539 0
M  V30 10872 O 1069.63 -5.18821 -1.71717 0
M  V30 10873 H 1066.73 -0.773219 -0.293362 0
M  V30 10874 H 1069.27 -1.68992 0.154846 0
M  V30 10875 H 1068.05 -3.91292 0.0249416 0
M  V30 10876 H 1067.67 -3.61135 -1.66335 0
M  V30 10877 N 1068.67 0.153526 -1.5685 0
M  V30 10878 C 1069.61 1.18973 -1.97773 0
M  V30 10879 C 1070.58 1.43041 -0.844311 0
M  V30 10880 O 1071.77 1.55484 -1.10586 0
M  V30 10881 C 1068.91 2.51981 -2.35795 0
M  V30 10882 C 1068.02 2.35143 -3.62397 0
M  V30 10883 C 1067.16 3.61141 -3.89552 0
M  V30 10884 C 1066.2 3.39311 -5.09445 0
M  V30 10885 N 1065.33 4.57423 -5.32643 0
M  V30 10886 H 1070.17 0.833758 -2.86099 0
M  V30 10887 H 1067.71 0.400252 -1.4155 0
M  V30 10888 H 1069.67 3.29527 -2.55867 0
M  V30 10889 H 1068.3 2.85539 -1.50557 0
M  V30 10890 H 1067.35 1.48684 -3.50139 0
M  V30 10891 H 1068.66 2.14969 -4.501 0
M  V30 10892 H 1067.82 4.47117 -4.10087 0
M  V30 10893 H 1066.55 3.84312 -3.00259 0
M  V30 10894 H 1065.56 2.51723 -4.8879 0
M  V30 10895 H 1066.78 3.17545 -6.00285 0
M  V30 10896 H 1064.73 4.8078 -4.46303 0
M  V30 10897 H 1064.65 4.40228 -6.14602 0
M  V30 10898 H 1065.92 5.44632 -5.57671 0
M  V30 10899 N 1070.14 1.51827 0.422667 0
M  V30 10900 C 1071.37 1.68803 1.19117 0
M  V30 10901 C 1071.78 0.391228 1.85111 0
M  V30 10902 O 1071.13 -0.64148 1.72136 0
M  V30 10903 C 1071.19 2.75767 2.30636 0
M  V30 10904 C 1070.85 4.17929 1.8489 0
M  V30 10905 C 1071.85 5.02223 1.34416 0
M  V30 10906 C 1069.53 4.641 1.92136 0
M  V30 10907 C 1071.53 6.30756 0.917925 0
M  V30 10908 C 1069.21 5.92626 1.49123 0
M  V30 10909 C 1070.21 6.75782 0.990352 0
M  V30 10910 O 1069.9 8.01902 0.566386 0
M  V30 10911 H 1069.63 0.569303 0.364514 0
M  V30 10912 H 1072.19 1.9909 0.505208 0
M  V30 10913 H 1070.42 2.40827 3.02555 0
M  V30 10914 H 1072.11 2.81476 2.92448 0
M  V30 10915 H 1072.87 4.67749 1.28202 0
M  V30 10916 H 1068.75 3.99488 2.30066 0
M  V30 10917 H 1072.29 6.95612 0.52628 0
M  V30 10918 H 1068.19 6.26611 1.55012 0
M  V30 10919 H 1068.96 8.15579 0.690918 0
M  V30 10920 N 1071.62 -0.679052 1.4222 0
M  V30 10921 C 1072.9 -1.43473 1.32947 0
M  V30 10922 C 1073.28 -2.11071 -0.0351689 0
M  V30 10923 O 1072.63 -2.02925 -1.05042 0
M  V30 10924 C 1072.84 -2.44065 2.49466 0
M  V30 10925 C 1074.19 -3.08834 2.91387 0
M  V30 10926 O 1075.21 -2.54392 2.49325 0
M  V30 10927 O 1074.07 -4.07478 3.64175 0
M  V30 10928 H 1071.16 -0.639743 0.524078 0
M  V30 10929 H 1073.71 -0.708134 1.54219 0
M  V30 10930 H 1072.48 -1.92884 3.40457 0
M  V30 10931 H 1072.1 -3.24212 2.30158 0
M  V30 10932 N 1073.1 -1.28322 -0.914942 0
M  V30 10933 C 1074.51 -1.13937 -1.47903 0
M  V30 10934 C 1074.86 0.271072 -1.94318 0
M  V30 10935 O 1073.99 1.16522 -1.8235 0
M  V30 10936 C 1074.58 -2.06221 -2.68809 0
M  V30 10937 C 1073.14 -1.95903 -3.21402 0
M  V30 10938 C 1072.29 -1.98031 -1.94111 0
M  V30 10939 H 1075.24 -1.41029 -0.727772 0
M  V30 10940 H 1075.26 -1.6255 -3.44031 0
M  V30 10941 H 1074.77 -3.08866 -2.34997 0
M  V30 10942 H 1072.87 -0.962907 -3.59943 0
M  V30 10943 H 1072.99 -2.82799 -3.86732 0
M  V30 10944 H 1071.35 -1.42423 -2.11158 0
M  V30 10945 H 1072.13 -3.02354 -1.62595 0
M  V30 10946 N 1074.58 1.12322 -1.10551 0
M  V30 10947 C 1075.81 1.87679 -0.87087 0
M  V30 10948 C 1076.22 1.79711 0.578733 0
M  V30 10949 O 1075.58 1.17185 1.39907 0
M  V30 10950 C 1075.63 3.36846 -1.31213 0
M  V30 10951 O 1075.35 3.44626 -2.70489 0
M  V30 10952 C 1076.85 4.29138 -1.11156 0
M  V30 10953 H 1074.07 0.593788 -0.3125 0
M  V30 10954 H 1076.62 1.42116 -1.47048 0
M  V30 10955 H 1074.77 3.79948 -0.756169 0
M  V30 10956 H 1075.18 4.37441 -2.89389 0
M  V30 10957 H 1076.66 5.32082 -1.46944 0
M  V30 10958 H 1077.14 4.39171 -0.0502963 0
M  V30 10959 H 1077.74 3.91818 -1.65405 0
M  V30 10960 N 1076.06 0.894434 1.2976 0
M  V30 10961 C 1077.3 0.516646 1.95385 0
M  V30 10962 C 1077.63 -0.939141 1.70895 0
M  V30 10963 O 1076.9 -1.66153 1.03778 0
M  V30 10964 H 1075.48 0.188072 0.722937 0
M  V30 10965 H 1078.14 1.13958 1.58113 0
M  V30 10966 H 1077.23 0.694819 3.04267 0
M  V30 10967 N 1077.53 -1.43282 0.656365 0
M  V30 10968 C 1078.78 -2.01378 0.170702 0
M  V30 10969 C 1079.1 -1.52063 -1.22073 0
M  V30 10970 O 1078.37 -0.73456 -1.81607 0
M  V30 10971 H 1076.95 -0.744577 0.0601168 0
M  V30 10972 H 1079.62 -1.75449 0.848739 0
M  V30 10973 H 1078.71 -3.11701 0.157745 0
M  V30 10974 N 1079.01 -0.398486 -1.52479 0
M  V30 10975 C 1079.92 0.439328 -2.3045 0
M  V30 10976 C 1080.94 1.06322 -1.37738 0
M  V30 10977 O 1082.12 1.06704 -1.7081 0
M  V30 10978 C 1079.18 1.54655 -3.10294 0
M  V30 10979 C 1078.24 0.946824 -4.18729 0
M  V30 10980 C 1077.47 2.00129 -4.94757 0
M  V30 10981 O 1077.7 3.2178 -4.70971 0
M  V30 10982 O 1076.63 1.61345 -5.79872 0
M  V30 10983 H 1080.46 -0.196118 -3.03066 0
M  V30 10984 H 1078.04 -0.161961 -1.4852 0
M  V30 10985 H 1079.92 2.18958 -3.60049 0
M  V30 10986 H 1078.6 2.1668 -2.40482 0
M  V30 10987 H 1077.51 0.266802 -3.73147 0
M  V30 10988 H 1078.84 0.370664 -4.90802 0
M  V30 10989 N 1080.49 1.57075 -0.12858 0
M  V30 10990 C 1081.72 1.99876 0.534544 0
M  V30 10991 C 1082.13 1.00843 1.59612 0
M  V30 10992 O 1081.49 0.00268947 1.825 0
M  V30 10993 C 1081.54 3.42654 1.15198 0
M  V30 10994 O 1081.26 4.37899 0.132823 0
M  V30 10995 C 1082.76 4.00637 1.8975 0
M  V30 10996 H 1079.98 0.656073 0.140744 0
M  V30 10997 H 1082.53 2.03337 -0.217742 0
M  V30 10998 H 1080.68 3.40101 1.85499 0
M  V30 10999 H 1081.1 5.21253 0.582682 0
M  V30 11000 H 1082.57 5.02592 2.28266 0
M  V30 11001 H 1083.05 3.40313 2.7764 0
M  V30 11002 H 1083.65 4.06764 1.2419 0
M  V30 11003 N 1081.97 -0.145205 1.5693 0
M  V30 11004 C 1083.2 -0.872398 1.87608 0
M  V30 11005 C 1083.61 -1.74657 0.716975 0
M  V30 11006 O 1082.97 -1.79792 -0.3132 0
M  V30 11007 C 1083.02 -1.72762 3.17546 0
M  V30 11008 O 1082.74 -0.888681 4.28992 0
M  V30 11009 C 1084.24 -2.56224 3.61751 0
M  V30 11010 H 1081.46 -0.252166 0.621815 0
M  V30 11011 H 1084.01 -0.137456 2.04038 0
M  V30 11012 H 1082.16 -2.41561 3.02865 0
M  V30 11013 H 1082.58 -1.47601 5.03303 0
M  V30 11014 H 1084.05 -3.11804 4.55502 0
M  V30 11015 H 1084.53 -3.32347 2.87127 0
M  V30 11016 H 1085.13 -1.92714 3.79133 0
M  V30 11017 N 1083.45 -1.52049 -0.414609 0
M  V30 11018 C 1084.69 -1.66084 -1.16379 0
M  V30 11019 C 1085.03 -0.386932 -1.90306 0
M  V30 11020 O 1084.3 0.614441 -1.8454 0
M  V30 11021 C 1084.58 -2.87927 -2.16264 0
M  V30 11022 C 1084.44 -4.25353 -1.46269 0
M  V30 11023 C 1085.76 -3.05289 -3.16996 0
M  V30 11024 H 1082.88 -0.604414 -0.421726 0
M  V30 11025 H 1085.52 -1.8459 -0.450177 0
M  V30 11026 H 1083.67 -2.7228 -2.77121 0
M  V30 11027 H 1085.34 -4.52717 -0.885743 0
M  V30 11028 H 1083.58 -4.27006 -0.76472 0
M  V30 11029 H 1084.25 -5.06644 -2.19126 0
M  V30 11030 H 1086.73 -3.19798 -2.66212 0
M  V30 11031 H 1085.61 -3.92065 -3.84156 0
M  V30 11032 H 1085.87 -2.1836 -3.84411 0
M  V30 11033 N 1084.93 0.6715 -1.42579 0
M  V30 11034 C 1086.34 1.2522 -1.38481 0
M  V30 11035 C 1086.69 1.96038 -0.079719 0
M  V30 11036 O 1085.81 2.00203 0.821441 0
M  V30 11037 C 1086.41 2.27736 -2.50842 0
M  V30 11038 C 1084.97 2.81325 -2.50067 0
M  V30 11039 C 1084.11 1.55694 -2.29466 0
M  V30 11040 H 1087.06 0.464673 -1.51745 0
M  V30 11041 H 1087.09 3.09539 -2.21283 0
M  V30 11042 H 1086.6 1.76164 -3.45815 0
M  V30 11043 H 1084.7 3.37008 -1.58922 0
M  V30 11044 H 1084.81 3.30116 -3.47218 0
M  V30 11045 H 1083.18 1.82383 -1.77788 0
M  V30 11046 H 1083.96 1.06084 -3.26498 0
M  V30 11047 N 1086.4 1.28806 0.908124 0
M  V30 11048 C 1087.34 1.09018 2.01613 0
M  V30 11049 C 1088.35 0.0402059 1.6275 0
M  V30 11050 O 1089.54 0.283853 1.76229 0
M  V30 11051 C 1086.64 0.635712 3.32884 0
M  V30 11052 C 1085.81 1.76235 4.00325 0
M  V30 11053 C 1084.87 1.3003 5.09881 0
M  V30 11054 O 1083.9 2.00354 5.32773 0
M  V30 11055 N 1085.1 0.166575 5.80261 0
M  V30 11056 H 1087.86 2.0444 2.19144 0
M  V30 11057 H 1085.42 1.20633 1.07978 0
M  V30 11058 H 1087.42 0.310097 4.0351 0
M  V30 11059 H 1085.99 -0.225816 3.11783 0
M  V30 11060 H 1085.21 2.25727 3.23173 0
M  V30 11061 H 1086.49 2.51796 4.42127 0
M  V30 11062 H 1085.89 -0.419934 5.64139 0
M  V30 11063 H 1084.45 -0.0997281 6.51724 0
M  V30 11064 N 1087.88 -1.11734 1.11145 0
M  V30 11065 C 1089.13 -1.83043 0.856717 0
M  V30 11066 C 1089.45 -1.84901 -0.619407 0
M  V30 11067 O 1088.72 -1.31738 -1.44989 0
M  V30 11068 H 1087.3 -0.677823 0.31395 0
M  V30 11069 H 1089.96 -1.35262 1.40322 0
M  V30 11070 H 1089.06 -2.87005 1.22616 0
M  V30 11071 N 1089.36 -0.901303 -1.29284 0
M  V30 11072 C 1090.59 -0.543511 -1.99634 0
M  V30 11073 C 1091 0.872154 -1.67448 0
M  V30 11074 O 1090.36 1.57591 -0.920406 0
M  V30 11075 C 1090.41 -0.728148 -3.54091 0
M  V30 11076 O 1090.13 -2.08809 -3.85137 0
M  V30 11077 C 1091.63 -0.375519 -4.41707 0
M  V30 11078 H 1088.85 -0.208405 -0.637815 0
M  V30 11079 H 1091.4 -1.21109 -1.64781 0
M  V30 11080 H 1089.55 -0.107728 -3.8725 0
M  V30 11081 H 1089.97 -2.11863 -4.79807 0
M  V30 11082 H 1091.44 -0.555538 -5.49197 0
M  V30 11083 H 1091.92 0.687532 -4.33785 0
M  V30 11084 H 1092.52 -0.972949 -4.14021 0
M  V30 11085 N 1090.84 1.42931 -0.663954 0
M  V30 11086 C 1092.25 1.84877 -0.260283 0
M  V30 11087 C 1092.6 1.5558 1.19538 0
M  V30 11088 O 1091.72 1.01015 1.91377 0
M  V30 11089 C 1092.32 3.35585 -0.465618 0
M  V30 11090 C 1090.88 3.76221 -0.116169 0
M  V30 11091 C 1090.03 2.66587 -0.763317 0
M  V30 11092 H 1092.98 1.32932 -0.866882 0
M  V30 11093 H 1093 3.79427 0.285608 0
M  V30 11094 H 1092.51 3.56877 -1.52515 0
M  V30 11095 H 1090.61 3.60539 0.940342 0
M  V30 11096 H 1090.72 4.75943 -0.549123 0
M  V30 11097 H 1089.09 2.53948 -0.19559 0
M  V30 11098 H 1089.87 2.90704 -1.82609 0
M  V30 11099 N 1092.32 0.406567 1.52266 0
M  V30 11100 C 1093.56 -0.170305 2.02084 0
M  V30 11101 C 1093.89 -1.45008 1.29176 0
M  V30 11102 O 1093.17 -1.90399 0.39731 0
M  V30 11103 C 1093.45 -0.420627 3.57635 0
M  V30 11104 C 1093.31 0.87564 4.41194 0
M  V30 11105 C 1094.62 -1.20387 4.23314 0
M  V30 11106 H 1091.74 -0.0604219 0.734519 0
M  V30 11107 H 1094.39 0.539529 1.82179 0
M  V30 11108 H 1092.54 -1.0253 3.74726 0
M  V30 11109 H 1094.21 1.51192 4.35819 0
M  V30 11110 H 1092.45 1.48718 4.07511 0
M  V30 11111 H 1093.12 0.654916 5.48101 0
M  V30 11112 H 1095.6 -0.691972 4.10306 0
M  V30 11113 H 1094.47 -1.34776 5.32096 0
M  V30 11114 H 1094.73 -2.2238 3.82099 0
M  V30 11115 N 1093.79 -1.57004 0.136909 0
M  V30 11116 C 1095.02 -2.00587 -0.527209 0
M  V30 11117 C 1095.44 -1.01628 -1.58283 0
M  V30 11118 O 1094.8 0.00946934 -1.81298 0
M  V30 11119 C 1094.85 -3.42967 -1.11384 0
M  V30 11120 O 1093.95 -3.46973 -2.22898 0
M  V30 11121 H 1093.3 -0.651155 -0.129976 0
M  V30 11122 H 1095.83 -2.03296 0.230667 0
M  V30 11123 H 1095.84 -3.81555 -1.44499 0
M  V30 11124 H 1094.51 -4.14502 -0.340736 0
M  V30 11125 H 1093.09 -3.20219 -1.91087 0
M  V30 11126 N 1095.27 0.136881 -1.57004 0
M  V30 11127 C 1096.55 0.87705 -1.74835 0
M  V30 11128 C 1096.93 1.98886 -0.707639 0
M  V30 11129 O 1096.28 2.26879 0.271652 0
M  V30 11130 C 1096.49 1.41021 -3.1924 0
M  V30 11131 C 1097.84 1.86963 -3.81222 0
M  V30 11132 O 1098.86 1.5074 -3.22732 0
M  V30 11133 O 1097.72 2.53798 -4.83993 0
M  V30 11134 H 1094.81 0.415192 -0.715223 0
M  V30 11135 H 1097.36 0.122016 -1.69261 0
M  V30 11136 H 1096.13 0.611677 -3.8649 0
M  V30 11137 H 1095.75 2.22846 -3.2928 0
M  V30 11138 N 1096.75 1.52266 0.40654 0
M  V30 11139 C 1097.7 1.75794 1.4955 0
M  V30 11140 C 1098.67 0.600472 1.54866 0
M  V30 11141 O 1099.85 0.838305 1.71397 0
M  V30 11142 C 1096.99 1.91682 2.86971 0
M  V30 11143 C 1096.11 3.19337 2.90943 0
M  V30 11144 C 1095.24 3.25641 4.1968 0
M  V30 11145 C 1094.28 4.47488 4.17637 0
M  V30 11146 N 1093.42 4.51171 5.37949 0
M  V30 11147 H 1098.26 2.68733 1.28789 0
M  V30 11148 H 1095.79 1.33157 0.625102 0
M  V30 11149 H 1097.75 1.98877 3.66748 0
M  V30 11150 H 1096.38 1.02121 3.06221 0
M  V30 11151 H 1095.43 3.21301 2.03642 0
M  V30 11152 H 1096.75 4.09153 2.85299 0
M  V30 11153 H 1095.9 3.31922 5.07851 0
M  V30 11154 H 1094.64 2.33769 4.28023 0
M  V30 11155 H 1093.64 4.41351 3.27856 0
M  V30 11156 H 1094.87 5.40659 4.10932 0
M  V30 11157 H 1092.81 3.62182 5.46955 0
M  V30 11158 H 1092.73 5.34835 5.3431 0
M  V30 11159 H 1094 4.61685 6.28066 0
M  V30 11160 N 1098.23 -0.663929 1.42933 0
M  V30 11161 C 1099.14 -1.80643 1.49683 0
M  V30 11162 C 1100.15 -1.69694 0.38472 0
M  V30 11163 O 1101.33 -1.91052 0.637256 0
M  V30 11164 C 1098.4 -3.16858 1.4072 0
M  V30 11165 C 1097.46 -3.39684 2.62514 0
M  V30 11166 C 1096.69 -4.69399 2.53969 0
M  V30 11167 O 1096.91 -5.48037 1.58152 0
M  V30 11168 O 1095.85 -4.93709 3.44289 0
M  V30 11169 H 1099.67 -1.77903 2.46138 0
M  V30 11170 H 1097.26 -0.821059 1.24816 0
M  V30 11171 H 1099.14 -3.9812 1.38124 0
M  V30 11172 H 1097.81 -3.20211 0.473954 0
M  V30 11173 H 1096.72 -2.58227 2.70684 0
M  V30 11174 H 1098.05 -3.41169 3.54774 0
M  V30 11175 N 1099.71 -1.29285 -0.901281 0
M  V30 11176 C 1100.96 -1.16538 -1.64626 0
M  V30 11177 C 1101.27 0.282623 -1.93547 0
M  V30 11178 O 1102.47 0.531396 -2.66249 0
M  V30 11179 C 1100.93 -2.03809 -2.96631 0
M  V30 11180 C 1100.54 -3.53423 -2.75311 0
M  V30 11181 C 1102.28 -1.99782 -3.7455 0
M  V30 11182 C 1100.19 -4.32804 -4.03032 0
M  V30 11183 H 1099.12 -0.432561 -0.617581 0
M  V30 11184 H 1101.77 -1.53912 -0.999159 0
M  V30 11185 H 1100.15 -1.59302 -3.62545 0
M  V30 11186 H 1101.33 -4.05971 -2.18 0
M  V30 11187 H 1099.64 -3.59106 -2.10789 0
M  V30 11188 H 1102.24 -2.5635 -4.69243 0
M  V30 11189 H 1102.58 -0.97743 -4.04663 0
M  V30 11190 H 1103.11 -2.42324 -3.15474 0
M  V30 11191 H 1099.85 -5.35473 -3.78086 0
M  V30 11192 H 1099.37 -3.85025 -4.59909 0
M  V30 11193 H 1101.05 -4.43383 -4.71191 0
M  V30 11194 N 1101.18 1.11143 -1.11736 0
M  V30 11195 C 1102.41 1.86745 -0.890727 0
M  V30 11196 C 1102.83 1.80315 0.55964 0
M  V30 11197 O 1102.18 1.18663 1.38656 0
M  V30 11198 C 1102.24 3.35436 -1.34779 0
M  V30 11199 O 1101.96 3.41738 -2.74129 0
M  V30 11200 C 1103.46 4.27935 -1.15702 0
M  V30 11201 H 1100.68 0.59044 -0.318781 0
M  V30 11202 H 1103.22 1.40549 -1.48547 0
M  V30 11203 H 1101.38 3.79125 -0.796425 0
M  V30 11204 H 1101.79 4.34347 -2.94012 0
M  V30 11205 H 1103.26 5.30494 -1.52579 0
M  V30 11206 H 1103.74 4.39093 -0.0968735 0
M  V30 11207 H 1104.35 3.90042 -1.69551 0
M  V30 11208 N 1102.66 0.908147 1.28804 0
M  V30 11209 C 1103.94 0.457561 1.90173 0
M  V30 11210 C 1104.32 -1.06333 1.82364 0
M  V30 11211 O 1103.67 -1.90892 1.25589 0
M  V30 11212 C 1103.88 0.981624 3.34911 0
M  V30 11213 C 1105.23 1.03037 4.11908 0
M  V30 11214 O 1106.25 0.929878 3.43848 0
M  V30 11215 O 1105.11 1.18257 5.33552 0
M  V30 11216 H 1102.2 0.144081 0.814352 0
M  V30 11217 H 1104.75 0.998565 1.37211 0
M  V30 11218 H 1103.52 2.02561 3.34791 0
M  V30 11219 H 1103.14 0.421122 3.95364 0
M  V30 11220 N 1104.14 -1.42577 0.671525 0
M  V30 11221 C 1105.07 -2.33499 0.00506984 0
M  V30 11222 C 1106.05 -1.50497 -0.792763 0
M  V30 11223 O 1107.24 -1.79109 -0.750574 0
M  V30 11224 C 1104.37 -3.34077 -0.949194 0
M  V30 11225 C 1103.32 -4.27208 -0.260187 0
M  V30 11226 C 1102.65 -5.17968 -1.32716 0
M  V30 11227 C 1103.95 -5.15192 0.858772 0
M  V30 11228 H 1105.64 -2.89477 0.764407 0
M  V30 11229 H 1103.19 -1.39191 0.369043 0
M  V30 11230 H 1105.14 -3.96594 -1.42448 0
M  V30 11231 H 1103.86 -2.76396 -1.73991 0
M  V30 11232 H 1102.52 -3.66082 0.194834 0
M  V30 11233 H 1102.17 -4.56615 -2.10979 0
M  V30 11234 H 1101.87 -5.81104 -0.871293 0
M  V30 11235 H 1103.39 -5.83359 -1.80345 0
M  V30 11236 H 1104.81 -5.71412 0.464844 0
M  V30 11237 H 1103.21 -5.87144 1.24023 0
M  V30 11238 H 1104.28 -4.53787 1.70895 0
M  V30 11239 N 1105.62 -0.414636 -1.52048 0
M  V30 11240 C 1106.86 0.159585 -2.02171 0
M  V30 11241 C 1107.2 1.44321 -1.29943 0
M  V30 11242 O 1106.47 1.90185 -0.407402 0
M  V30 11243 C 1106.76 0.401655 -3.57853 0
M  V30 11244 C 1106.61 -0.899026 -4.40724 0
M  V30 11245 C 1107.93 1.1814 -4.23947 0
M  V30 11246 H 1105.05 0.0565257 -0.734829 0
M  V30 11247 H 1107.69 -0.549183 -1.8189 0
M  V30 11248 H 1105.84 1.00541 -3.75265 0
M  V30 11249 H 1107.51 -1.53502 -4.35011 0
M  V30 11250 H 1105.75 -1.50877 -4.06717 0
M  V30 11251 H 1106.42 -0.683974 -5.47746 0
M  V30 11252 H 1108.9 0.670203 -4.10667 0
M  V30 11253 H 1107.78 1.31953 -5.32804 0
M  V30 11254 H 1108.04 2.2035 -3.83273 0
M  V30 11255 N 1107.1 1.56929 -0.145233 0
M  V30 11256 C 1108.04 2.16671 0.795128 0
M  V30 11257 C 1109.01 1.09908 1.24537 0
M  V30 11258 O 1110.2 1.37941 1.31821 0
M  V30 11259 C 1107.34 2.79111 2.02956 0
M  V30 11260 C 1106.45 4.00261 1.62528 0
M  V30 11261 C 1105.59 4.50705 2.81137 0
M  V30 11262 C 1104.63 5.64324 2.37075 0
M  V30 11263 N 1103.76 6.09395 3.48687 0
M  V30 11264 H 1108.6 2.96692 0.278865 0
M  V30 11265 H 1106.14 1.4656 0.125934 0
M  V30 11266 H 1108.1 3.13456 2.7532 0
M  V30 11267 H 1106.73 2.01737 2.51996 0
M  V30 11268 H 1105.78 3.71906 0.799365 0
M  V30 11269 H 1107.09 4.8258 1.26166 0
M  V30 11270 H 1106.25 4.87096 3.61693 0
M  V30 11271 H 1104.98 3.67389 3.20744 0
M  V30 11272 H 1103.99 5.27511 1.54958 0
M  V30 11273 H 1105.21 6.49425 1.98556 0
M  V30 11274 H 1103.16 5.29014 3.87917 0
M  V30 11275 H 1103.08 6.86636 3.16333 0
M  V30 11276 H 1104.35 6.50431 4.29605 0
M  V30 11277 N 1108.58 -0.128553 1.57075 0
M  V30 11278 C 1109.82 -0.836536 1.83535 0
M  V30 11279 C 1110.14 -1.81491 0.7294 0
M  V30 11280 O 1111.34 -2.56838 0.880128 0
M  V30 11281 C 1109.8 -1.53836 3.25365 0
M  V30 11282 C 1109.41 -0.601454 4.43944 0
M  V30 11283 C 1111.15 -2.23204 3.61082 0
M  V30 11284 C 1109.06 -1.30596 5.768 0
M  V30 11285 H 1107.99 -0.316142 0.684522 0
M  V30 11286 H 1110.64 -0.0892555 1.83283 0
M  V30 11287 H 1109.02 -2.33192 3.20058 0
M  V30 11288 H 1110.2 0.158209 4.60528 0
M  V30 11289 H 1108.51 -0.0152393 4.16397 0
M  V30 11290 H 1111.11 -2.76585 4.57608 0
M  V30 11291 H 1111.45 -3.0056 2.88044 0
M  V30 11292 H 1111.98 -1.50746 3.68131 0
M  V30 11293 H 1108.72 -0.573874 6.52983 0
M  V30 11294 H 1108.24 -2.03787 5.6412 0
M  V30 11295 H 1109.92 -1.8418 6.20231 0
M  V30 11296 N 1110.05 -1.5248 -0.398459 0
M  V30 11297 C 1111.46 -1.59107 -0.976817 0
M  V30 11298 C 1111.82 -0.438104 -1.91246 0
M  V30 11299 O 1110.94 0.440111 -2.11877 0
M  V30 11300 C 1111.54 -2.88373 -1.77838 0
M  V30 11301 C 1110.09 -2.97445 -2.30659 0
M  V30 11302 C 1109.24 -2.5414 -1.10942 0
M  V30 11303 H 1112.19 -1.57695 -0.178324 0
M  V30 11304 H 1112.21 -2.74327 -2.63676 0
M  V30 11305 H 1111.73 -3.72269 -1.09714 0
M  V30 11306 H 1109.83 -2.18066 -3.02123 0
M  V30 11307 H 1109.94 -4.019 -2.60794 0
M  V30 11308 H 1108.3 -2.08237 -1.46661 0
M  V30 11309 H 1109.09 -3.40421 -0.443684 0
M  V30 11310 N 1111.53 0.65634 -1.43283 0
M  V30 11311 C 1112.81 1.41339 -1.35213 0
M  V30 11312 C 1113.19 2.111 0.00158494 0
M  V30 11313 O 1112.54 2.0457 1.018 0
M  V30 11314 C 1112.75 2.40066 -2.53317 0
M  V30 11315 C 1114.09 3.04159 -2.96264 0
M  V30 11316 O 1115.12 2.50393 -2.53341 0
M  V30 11317 O 1113.98 4.01633 -3.70612 0
M  V30 11318 H 1111.07 0.631325 -0.534189 0
M  V30 11319 H 1113.62 0.68351 -1.55326 0
M  V30 11320 H 1112.39 1.87444 -3.43483 0
M  V30 11321 H 1112.01 3.20509 -2.35287 0
M  V30 11322 N 1113.01 1.29761 0.894412 0
M  V30 11323 C 1114.26 1.17806 1.64214 0
M  V30 11324 C 1114.58 -0.269588 1.93127 0
M  V30 11325 O 1113.85 -1.18352 1.56107 0
M  V30 11326 H 1112.43 0.433002 0.608702 0
M  V30 11327 H 1115.09 1.6276 1.07216 0
M  V30 11328 H 1114.19 1.73201 2.5963 0
M  V30 11329 N 1114.49 -1.10549 1.12324 0
M  V30 11330 C 1115.71 -1.8681 0.900927 0
M  V30 11331 C 1116.14 -1.80049 -0.54443 0
M  V30 11332 O 1115.5 -1.16957 -1.38531 0
M  V30 11333 C 1115.54 -3.33197 1.37883 0
M  V30 11334 O 1114.65 -4.08628 0.556529 0
M  V30 11335 H 1113.99 -0.579709 0.32378 0
M  V30 11336 H 1116.52 -1.39678 1.49503 0
M  V30 11337 H 1116.53 -3.84047 1.37739 0
M  V30 11338 H 1115.2 -3.37435 2.43127 0
M  V30 11339 H 1113.78 -3.67627 0.62486 0
M  V30 11340 N 1115.97 -0.914965 -1.28321 0
M  V30 11341 C 1116.91 -0.402792 -2.27258 0
M  V30 11342 C 1117.88 0.523412 -1.57638 0
M  V30 11343 O 1119.07 0.445344 -1.8553 0
M  V30 11344 C 1116.21 0.349956 -3.43321 0
M  V30 11345 C 1115.32 -0.608892 -4.27687 0
M  V30 11346 C 1114.46 0.162425 -5.30952 0
M  V30 11347 C 1113.49 -0.789959 -6.06981 0
M  V30 11348 N 1112.63 -0.0520826 -7.02081 0
M  V30 11349 H 1117.47 -1.25153 -2.70446 0
M  V30 11350 H 1115.01 -0.628444 -1.33 0
M  V30 11351 H 1116.97 0.802589 -4.09407 0
M  V30 11352 H 1115.6 1.16303 -3.01121 0
M  V30 11353 H 1114.65 -1.18005 -3.61634 0
M  V30 11354 H 1115.96 -1.33727 -4.8054 0
M  V30 11355 H 1115.11 0.675563 -6.02927 0
M  V30 11356 H 1113.85 0.923851 -4.7887 0
M  V30 11357 H 1112.86 -1.31446 -5.33856 0
M  V30 11358 H 1114.08 -1.55096 -6.61152 0
M  V30 11359 H 1112.03 0.691331 -6.52347 0
M  V30 11360 H 1111.95 -0.720267 -7.52561 0
M  V30 11361 H 1113.21 0.44082 -7.78253 0
M  V30 11362 N 1117.44 1.42219 -0.679077 0
M  V30 11363 C 1118.69 2.01081 -0.202718 0
M  V30 11364 C 1119.01 1.53986 1.19639 0
M  V30 11365 O 1118.28 0.763359 1.80415 0
M  V30 11366 H 1116.86 0.743526 -0.0719547 0
M  V30 11367 H 1119.52 1.74077 -0.876544 0
M  V30 11368 H 1118.62 3.11411 -0.207314 0
M  V30 11369 N 1118.92 0.422693 1.51826 0
M  V30 11370 C 1120.17 -0.148861 2.02253 0
M  V30 11371 C 1120.5 -1.43629 1.30707 0
M  V30 11372 O 1119.78 -1.89967 0.417482 0
M  V30 11373 C 1120.06 -0.382672 3.58061 0
M  V30 11374 C 1119.91 0.922386 4.40241 0
M  V30 11375 C 1121.23 -1.1589 4.24567 0
M  V30 11376 H 1118.35 -0.0526279 0.735119 0
M  V30 11377 H 1120.99 0.558821 1.81596 0
M  V30 11378 H 1119.14 -0.985495 3.75793 0
M  V30 11379 H 1120.81 1.55806 4.34191 0
M  V30 11380 H 1119.06 1.53032 4.05911 0
M  V30 11381 H 1119.73 0.713012 5.47376 0
M  V30 11382 H 1122.2 -0.648415 4.11017 0
M  V30 11383 H 1121.08 -1.29125 5.33496 0
M  V30 11384 H 1121.34 -2.18315 3.84436 0
M  V30 11385 N 1120.4 -1.5685 0.153553 0
M  V30 11386 C 1121.81 -1.83074 -0.36618 0
M  V30 11387 C 1122.16 -1.07257 -1.64288 0
M  V30 11388 O 1121.29 -0.319925 -2.14022 0
M  V30 11389 C 1121.88 -3.32086 -0.671142 0
M  V30 11390 C 1120.44 -3.58868 -1.13537 0
M  V30 11391 C 1119.59 -2.76827 -0.161887 0
M  V30 11392 H 1122.54 -1.54129 0.378139 0
M  V30 11393 H 1122.56 -3.48598 -1.52512 0
M  V30 11394 H 1122.07 -3.8724 0.258234 0
M  V30 11395 H 1120.17 -3.09107 -2.08047 0
M  V30 11396 H 1120.29 -4.67299 -1.05682 0
M  V30 11397 H 1118.65 -2.46112 -0.6558 0
M  V30 11398 H 1119.43 -3.34755 0.761195 0
M  V30 11399 N 1121.88 0.120221 -1.57141 0
M  V30 11400 C 1123.11 0.842441 -1.88972 0
M  V30 11401 C 1123.52 1.73494 -0.744671 0
M  V30 11402 O 1122.88 1.80268 0.284557 0
M  V30 11403 C 1122.93 1.67688 -3.20254 0
M  V30 11404 O 1122.65 0.820319 -4.30351 0
M  V30 11405 C 1124.15 2.50436 -3.65782 0
M  V30 11406 H 1121.37 0.242241 -0.625748 0
M  V30 11407 H 1123.91 0.104978 -2.0423 0
M  V30 11408 H 1122.07 2.36712 -3.0667 0
M  V30 11409 H 1122.48 1.39575 -5.05588 0
M  V30 11410 H 1123.96 3.04518 -4.60405 0
M  V30 11411 H 1124.43 3.27737 -2.92378 0
M  V30 11412 H 1125.04 1.86657 -3.82151 0
M  V30 11413 N 1123.36 1.52689 0.390367 0
M  V30 11414 C 1124.6 1.67914 1.13722 0
M  V30 11415 C 1124.94 0.417159 1.89667 0
M  V30 11416 O 1124.21 -0.585005 1.85494 0
M  V30 11417 C 1124.49 2.91331 2.11656 0
M  V30 11418 C 1124.35 4.27626 1.39484 0
M  V30 11419 C 1125.67 3.10293 3.12099 0
M  V30 11420 H 1122.78 0.611047 0.412057 0
M  V30 11421 H 1125.43 1.85283 0.420753 0
M  V30 11422 H 1123.58 2.76654 2.72754 0
M  V30 11423 H 1125.25 4.54068 0.813607 0
M  V30 11424 H 1123.49 4.28169 0.69669 0
M  V30 11425 H 1124.16 5.10066 2.11038 0
M  V30 11426 H 1126.64 3.23992 2.6109 0
M  V30 11427 H 1125.51 3.98127 3.7787 0
M  V30 11428 H 1125.78 2.24448 3.80888 0
M  V30 11429 N 1124.83 -0.648732 1.43629 0
M  V30 11430 C 1126.08 -1.41066 1.45699 0
M  V30 11431 C 1126.41 -1.94024 0.082612 0
M  V30 11432 O 1125.69 -1.7257 -0.897207 0
M  V30 11433 C 1125.97 -2.58882 2.50304 0
M  V30 11434 C 1125.82 -2.11387 3.97033 0
M  V30 11435 C 1127.14 -3.61092 2.51597 0
M  V30 11436 H 1124.26 -0.511591 0.530512 0
M  V30 11437 H 1126.9 -0.735069 1.75205 0
M  V30 11438 H 1125.05 -3.16518 2.25274 0
M  V30 11439 H 1126.73 -1.58718 4.33136 0
M  V30 11440 H 1124.97 -1.4272 4.0965 0
M  V30 11441 H 1125.64 -2.96129 4.65845 0
M  V30 11442 H 1128.12 -3.13223 2.73917 0
M  V30 11443 H 1126.99 -4.41071 3.26722 0
M  V30 11444 H 1127.25 -4.13985 1.55141 0
M  V30 11445 N 1126.31 -1.30234 -0.887518 0
M  V30 11446 C 1127.56 -1.18675 -1.63587 0
M  V30 11447 C 1127.88 0.259342 -1.93268 0
M  V30 11448 O 1127.15 1.17523 -1.56733 0
M  V30 11449 H 1125.73 -0.436224 -0.606397 0
M  V30 11450 H 1128.39 -1.63326 -1.06351 0
M  V30 11451 H 1127.49 -1.74575 -2.58708 0
M  V30 11452 N 1127.79 1.09952 -1.12909 0
M  V30 11453 C 1129.07 1.78547 -0.798767 0
M  V30 11454 C 1129.45 1.9878 0.710624 0
M  V30 11455 O 1128.8 1.58485 1.64604 0
M  V30 11456 C 1129.01 3.1121 -1.57953 0
M  V30 11457 C 1130.35 3.86006 -1.76874 0
M  V30 11458 O 1131.38 3.20946 -1.54506 0
M  V30 11459 O 1130.24 5.02791 -2.14158 0
M  V30 11460 H 1127.33 0.774084 -0.291072 0
M  V30 11461 H 1129.88 1.16557 -1.2334 0
M  V30 11462 H 1128.65 2.91935 -2.60557 0
M  V30 11463 H 1128.27 3.80922 -1.13948 0
M  V30 11464 N 1129.27 0.921757 1.27833 0
M  V30 11465 C 1130.68 0.621102 1.47019 0
M  V30 11466 C 1130.88 -0.831338 1.83551 0
M  V30 11467 O 1129.94 -1.60974 1.94534 0
M  V30 11468 C 1131.25 1.56588 2.56712 0
M  V30 11469 C 1132.8 1.57346 2.70576 0
M  V30 11470 C 1133.28 2.50505 3.8342 0
M  V30 11471 N 1134.77 2.48678 3.90786 0
M  V30 11472 C 1135.5 3.17454 4.77505 0
M  V30 11473 N 1135 3.95588 5.68755 0
M  V30 11474 N 1136.79 3.06501 4.71183 0
M  V30 11475 H 1128.94 1.86085 1.02403 0
M  V30 11476 H 1131.21 0.798595 0.510833 0
M  V30 11477 H 1130.91 2.60175 2.36647 0
M  V30 11478 H 1130.79 1.30305 3.53978 0
M  V30 11479 H 1133.17 0.544919 2.90025 0
M  V30 11480 H 1133.25 1.87675 1.73815 0
M  V30 11481 H 1132.9 3.53466 3.64725 0
M  V30 11482 H 1132.83 2.17474 4.79596 0
M  V30 11483 H 1135.32 1.91928 3.25534 0
M  V30 11484 H 1135.63 4.45066 6.31772 0
M  V30 11485 H 1133.98 3.99692 5.6857 0
M  V30 11486 H 1137.17 2.44958 3.9889 0
M  V30 11487 H 1137.34 3.60372 5.3855 0
M  V30 11488 N 1130.75 -1.41857 0.686609 0
M  V30 11489 C 1132.16 -1.84439 0.289662 0
M  V30 11490 C 1132.51 -1.57462 -1.17047 0
M  V30 11491 O 1131.63 -1.04046 -1.89745 0
M  V30 11492 C 1132.23 -3.34802 0.518948 0
M  V30 11493 C 1130.79 -3.75988 0.176007 0
M  V30 11494 C 1129.93 -2.65339 0.805632 0
M  V30 11495 H 1132.89 -1.31536 0.88792 0
M  V30 11496 H 1132.91 -3.79833 -0.225209 0
M  V30 11497 H 1132.42 -3.54405 1.58173 0
M  V30 11498 H 1130.52 -3.61989 -0.882865 0
M  V30 11499 H 1130.63 -4.75009 0.624772 0
M  V30 11500 H 1129 -2.53605 0.235966 0
M  V30 11501 H 1129.78 -2.87762 1.8721 0
M  V30 11502 N 1132.22 -0.430739 -1.51599 0
M  V30 11503 C 1133.5 0.197543 -1.946 0
M  V30 11504 C 1133.88 1.6069 -1.36901 0
M  V30 11505 O 1133.23 2.21697 -0.553422 0
M  V30 11506 C 1133.44 0.181976 -3.48525 0
M  V30 11507 C 1134.79 0.390783 -4.22798 0
M  V30 11508 O 1135.81 0.260384 -3.55247 0
M  V30 11509 O 1134.67 0.649701 -5.42624 0
M  V30 11510 H 1131.76 0.133524 -0.81615 0
M  V30 11511 H 1134.31 -0.488243 -1.62525 0
M  V30 11512 H 1133.08 -0.803584 -3.8296 0
M  V30 11513 H 1132.71 0.910952 -3.87024 0
M  V30 11514 N 1133.7 1.56767 -0.161869 0
M  V30 11515 C 1134.93 2.00964 0.492027 0
M  V30 11516 C 1135.35 1.04206 1.57437 0
M  V30 11517 O 1134.7 0.0413998 1.82453 0
M  V30 11518 C 1134.75 3.4502 1.07904 0
M  V30 11519 O 1134.47 4.38082 0.0399085 0
M  V30 11520 C 1135.98 4.04572 1.81209 0
M  V30 11521 H 1133.2 0.658911 0.126797 0
M  V30 11522 H 1135.74 2.0283 -0.260824 0
M  V30 11523 H 1133.89 3.43959 1.78243 0
M  V30 11524 H 1134.31 5.22372 0.471985 0
M  V30 11525 H 1135.78 5.07321 2.17554 0
M  V30 11526 H 1136.26 3.46126 2.70359 0
M  V30 11527 H 1136.87 4.09307 1.15534 0
M  V30 11528 N 1135.18 -0.111886 1.57202 0
M  V30 11529 C 1136.13 -1.15585 2.01849 0
M  V30 11530 C 1137.12 -1.42458 0.916621 0
M  V30 11531 O 1138.33 -1.42337 1.10182 0
M  V30 11532 H 1134.7 -0.389885 0.643035 0
M  V30 11533 H 1136.67 -0.752854 2.88747 0
M  V30 11534 C 1135.42 -2.47247 2.44467 0
M  V30 11535 H 1134.75 -2.27409 3.28824 0
M  V30 11536 H 1136.19 -3.18837 2.79497 0
M  V30 11537 C 1134.65 -3.10339 1.31115 0
M  V30 11538 O 1135.18 -3.96713 0.631029 0
M  V30 11539 N 1133.38 -2.70326 1.0664 0
M  V30 11540 H 1132.93 -2.00182 1.62126 0
M  V30 11541 H 1132.89 -3.12869 0.309944 0
M  V30 11542 N 1136.66 -1.52894 -0.382264 0
M  V30 11543 C 1137.9 -1.68515 -1.12829 0
M  V30 11544 C 1138.24 -0.427211 -1.89443 0
M  V30 11545 O 1137.51 0.57516 -1.85801 0
M  V30 11546 C 1137.8 -2.92449 -2.10108 0
M  V30 11547 C 1137.65 -4.2836 -1.37214 0
M  V30 11548 C 1138.97 -3.11944 -3.1045 0
M  V30 11549 H 1136.09 -0.613223 -0.408811 0
M  V30 11550 H 1138.73 -1.85503 -0.410921 0
M  V30 11551 H 1136.88 -2.78097 -2.71283 0
M  V30 11552 H 1138.55 -4.54493 -0.789516 0
M  V30 11553 H 1136.79 -4.28532 -0.673973 0
M  V30 11554 H 1137.46 -5.11178 -2.0833 0
M  V30 11555 H 1139.94 -3.25372 -2.59369 0
M  V30 11556 H 1138.82 -4.00125 -3.75754 0
M  V30 11557 H 1139.08 -2.26465 -3.79692 0
M  V30 11558 N 1138.14 0.641106 -1.43971 0
M  V30 11559 C 1139.55 1.22254 -1.41106 0
M  V30 11560 C 1139.9 1.95825 -0.121284 0
M  V30 11561 O 1139.02 2.01901 0.77879 0
M  V30 11562 C 1139.62 2.22364 -2.55617 0
M  V30 11563 C 1138.18 2.75957 -2.55978 0
M  V30 11564 C 1137.33 1.50792 -2.32717 0
M  V30 11565 H 1140.28 0.432381 -1.52696 0
M  V30 11566 H 1140.3 3.04775 -2.27799 0
M  V30 11567 H 1139.81 1.68789 -3.49474 0
M  V30 11568 H 1137.91 3.33562 -1.66034 0
M  V30 11569 H 1138.02 3.22676 -3.54142 0
M  V30 11570 H 1136.39 1.7857 -1.81617 0
M  V30 11571 H 1137.17 0.991343 -3.28675 0
M  V30 11572 N 1139.62 1.30703 0.880598 0
M  V30 11573 C 1140.86 1.19541 1.62955 0
M  V30 11574 C 1141.18 -0.249089 1.93403 0
M  V30 11575 O 1140.45 -1.1669 1.57354 0
M  V30 11576 H 1139.03 0.439434 0.604075 0
M  V30 11577 H 1141.7 1.63888 1.05483 0
M  V30 11578 H 1140.79 1.75945 2.57779 0
M  V30 11579 N 1141.09 -1.09351 1.1349 0
M  V30 11580 C 1142.37 -1.78121 0.808225 0
M  V30 11581 C 1142.75 -1.99154 -0.700072 0
M  V30 11582 O 1142.1 -1.59356 -1.63762 0
M  V30 11583 C 1142.31 -3.10368 1.59601 0
M  V30 11584 C 1143.66 -3.85063 1.78919 0
M  V30 11585 O 1144.68 -3.20122 1.56206 0
M  V30 11586 O 1143.54 -5.01648 2.16821 0
M  V30 11587 H 1140.63 -0.77253 0.295173 0
M  V30 11588 H 1143.18 -1.15901 1.23956 0
M  V30 11589 H 1141.95 -2.90549 2.62101 0
M  V30 11590 H 1141.57 -3.80312 1.15967 0
M  V30 11591 N 1142.57 -0.928524 -1.27343 0
M  V30 11592 C 1143.52 -0.399267 -2.24477 0
M  V30 11593 C 1144.51 0.496927 -1.53034 0
M  V30 11594 O 1145.7 0.334237 -1.73816 0
M  V30 11595 C 1142.83 0.346059 -3.41551 0
M  V30 11596 C 1141.91 -0.566699 -4.20297 0
M  V30 11597 N 1142.3 -1.6869 -4.76841 0
M  V30 11598 C 1140.6 -0.369865 -4.44464 0
M  V30 11599 C 1141.3 -2.25466 -5.36228 0
M  V30 11600 N 1140.28 -1.54414 -5.21207 0
M  V30 11601 H 1144.08 -1.25456 -2.65778 0
M  V30 11602 H 1141.59 -0.782894 -1.42283 0
M  V30 11603 H 1143.59 0.742171 -4.10241 0
M  V30 11604 H 1142.25 1.19827 -3.01781 0
M  V30 11605 H 1143.26 -2.06926 -4.74765 0
M  V30 11606 H 1139.94 0.441619 -4.15158 0
M  V30 11607 H 1141.33 -3.19779 -5.90924 0
M  V30 11608 N 1144.05 1.41491 -0.694123 0
M  V30 11609 C 1145 2.30783 -0.0278824 0
M  V30 11610 C 1145.97 1.47028 0.772783 0
M  V30 11611 O 1147.15 1.75819 0.74111 0
M  V30 11612 C 1144.29 3.33061 0.903579 0
M  V30 11613 C 1143.4 4.31896 0.0946823 0
M  V30 11614 C 1142.54 5.21243 1.02365 0
M  V30 11615 C 1141.58 6.11748 0.207578 0
M  V30 11616 N 1140.72 6.93583 1.09028 0
M  V30 11617 H 1145.56 2.87197 -0.795092 0
M  V30 11618 H 1143.09 1.41449 -0.403806 0
M  V30 11619 H 1145.05 3.90907 1.45765 0
M  V30 11620 H 1143.68 2.782 1.6372 0
M  V30 11621 H 1142.73 3.76009 -0.576289 0
M  V30 11622 H 1144.04 4.95889 -0.538059 0
M  V30 11623 H 1143.2 5.83917 1.647 0
M  V30 11624 H 1141.94 4.57473 1.69025 0
M  V30 11625 H 1140.94 5.48125 -0.428854 0
M  V30 11626 H 1142.17 6.77573 -0.455206 0
M  V30 11627 H 1140.11 6.32422 1.74292 0
M  V30 11628 H 1140.03 7.54257 0.513073 0
M  V30 11629 H 1141.3 7.60726 1.70048 0
M  V30 11630 N 1145.53 0.438773 1.51369 0
M  V30 11631 C 1146.77 -0.127401 2.02399 0
M  V30 11632 C 1147.11 -1.42235 1.32223 0
M  V30 11633 O 1146.38 -1.89513 0.437607 0
M  V30 11634 C 1146.66 -0.344673 3.58447 0
M  V30 11635 C 1146.52 0.969027 4.39238 0
M  V30 11636 C 1147.84 -1.11381 4.25773 0
M  V30 11637 H 1144.96 -0.0448281 0.735635 0
M  V30 11638 H 1147.6 0.57805 1.80993 0
M  V30 11639 H 1145.75 -0.945582 3.76817 0
M  V30 11640 H 1147.42 1.60403 4.32514 0
M  V30 11641 H 1145.66 1.57329 4.04265 0
M  V30 11642 H 1146.33 0.771029 5.46589 0
M  V30 11643 H 1148.81 -0.604785 4.11681 0
M  V30 11644 H 1147.69 -1.23459 5.34835 0
M  V30 11645 H 1147.95 -2.14225 3.8673 0
M  V30 11646 N 1147.01 -1.56678 0.170181 0
M  V30 11647 C 1148.23 -2.01223 -0.481362 0
M  V30 11648 C 1148.65 -1.05039 -1.56883 0
M  V30 11649 O 1148.01 -0.0510751 -1.82429 0
M  V30 11650 C 1148.06 -3.45588 -1.06073 0
M  V30 11651 O 1147.78 -4.38097 -0.0166754 0
M  V30 11652 C 1149.28 -4.05527 -1.79061 0
M  V30 11653 H 1146.5 -0.659574 -0.1233 0
M  V30 11654 H 1149.04 -2.02689 0.271576 0
M  V30 11655 H 1147.2 -3.449 -1.76417 0
M  V30 11656 H 1147.61 -5.22615 -0.444276 0
M  V30 11657 H 1149.09 -5.08467 -2.1486 0
M  V30 11658 H 1149.56 -3.47554 -2.68519 0
M  V30 11659 H 1150.17 -4.09914 -1.13361 0
M  V30 11660 N 1148.48 0.103547 -1.57259 0
M  V30 11661 C 1149.73 0.809774 -1.85931 0
M  V30 11662 C 1150.06 1.78791 -0.758122 0
M  V30 11663 O 1149.34 1.93079 0.234682 0
M  V30 11664 C 1149.62 1.54601 -3.25224 0
M  V30 11665 C 1149.47 0.586439 -4.45961 0
M  V30 11666 C 1150.79 2.4986 -3.62296 0
M  V30 11667 H 1147.91 0.29293 -0.676285 0
M  V30 11668 H 1150.55 0.0736065 -1.89857 0
M  V30 11669 H 1148.7 2.17355 -3.22008 0
M  V30 11670 H 1150.38 -0.0334441 -4.61288 0
M  V30 11671 H 1148.62 -0.10085 -4.33683 0
M  V30 11672 H 1149.29 1.13855 -5.40131 0
M  V30 11673 H 1151.77 1.97203 -3.66402 0
M  V30 11674 H 1150.64 2.98396 -4.60707 0
M  V30 11675 H 1150.9 3.33233 -2.90531 0
M  V30 11676 N 1149.96 1.53094 0.37415 0
M  V30 11677 C 1150.87 1.81872 1.48188 0
M  V30 11678 C 1151.89 0.706487 1.59012 0
M  V30 11679 O 1153.06 0.995648 1.75068 0
M  V30 11680 C 1150.13 1.99494 2.83554 0
M  V30 11681 C 1149.19 3.23402 2.82329 0
M  V30 11682 C 1148.42 3.40174 4.11239 0
M  V30 11683 O 1148.65 2.61425 5.06965 0
M  V30 11684 O 1147.58 4.33493 4.17573 0
M  V30 11685 H 1151.41 2.75965 1.26795 0
M  V30 11686 H 1148.99 1.38368 0.56343 0
M  V30 11687 H 1150.87 2.12705 3.63778 0
M  V30 11688 H 1149.55 1.08591 3.04942 0
M  V30 11689 H 1148.45 3.15621 2.00834 0
M  V30 11690 H 1149.79 4.14199 2.65894 0
M  V30 11691 N 1151.44 -0.633461 1.44309 0
M  V30 11692 C 1152.69 -1.39513 1.47187 0
M  V30 11693 C 1153.02 -1.93926 0.103186 0
M  V30 11694 O 1152.29 -1.73512 -0.878853 0
M  V30 11695 C 1152.58 -2.56213 2.53036 0
M  V30 11696 C 1152.43 -2.07164 3.99253 0
M  V30 11697 C 1153.75 -3.58403 2.55412 0
M  V30 11698 H 1150.87 -0.505936 0.535908 0
M  V30 11699 H 1153.51 -0.716445 1.75975 0
M  V30 11700 H 1151.66 -3.14111 2.28619 0
M  V30 11701 H 1153.33 -1.54115 4.34795 0
M  V30 11702 H 1151.57 -1.38367 4.11141 0
M  V30 11703 H 1152.25 -2.91172 4.6896 0
M  V30 11704 H 1154.72 -3.103 2.77224 0
M  V30 11705 H 1153.6 -4.37581 3.31382 0
M  V30 11706 H 1153.86 -4.12316 1.59523 0
M  V30 11707 N 1152.92 -1.31168 -0.873655 0
M  V30 11708 C 1154.15 -1.23595 -1.65927 0
M  V30 11709 C 1154.56 0.199349 -1.87745 0
M  V30 11710 O 1153.92 1.13013 -1.43298 0
M  V30 11711 C 1153.97 -1.97268 -3.02932 0
M  V30 11712 O 1153.69 -3.35196 -2.82091 0
M  V30 11713 C 1155.19 -1.9649 -3.97374 0
M  V30 11714 H 1152.41 -0.427228 -0.517414 0
M  V30 11715 H 1154.96 -1.72983 -1.09074 0
M  V30 11716 H 1153.11 -1.51651 -3.56484 0
M  V30 11717 H 1153.52 -3.7266 -3.69087 0
M  V30 11718 H 1155 -2.52557 -4.90835 0
M  V30 11719 H 1155.48 -0.946525 -4.28879 0
M  V30 11720 H 1156.08 -2.4197 -3.49758 0
M  V30 11721 N 1154.4 1.08748 -1.14068 0
M  V30 11722 C 1155.63 1.84546 -0.928789 0
M  V30 11723 C 1156.03 1.81741 0.526007 0
M  V30 11724 O 1155.38 1.2169 1.37613 0
M  V30 11725 C 1155.44 3.33282 -1.34771 0
M  V30 11726 C 1155.1 3.59826 -2.81734 0
M  V30 11727 C 1156.1 3.54964 -3.79864 0
M  V30 11728 C 1153.79 3.87949 -3.19063 0
M  V30 11729 C 1155.78 3.77847 -5.13332 0
M  V30 11730 C 1153.47 4.10487 -4.52707 0
M  V30 11731 C 1154.46 4.05429 -5.49651 0
M  V30 11732 O 1154.15 4.27378 -6.80884 0
M  V30 11733 H 1153.88 0.589555 -0.330758 0
M  V30 11734 H 1156.44 1.38275 -1.51886 0
M  V30 11735 H 1154.67 3.80294 -0.700948 0
M  V30 11736 H 1156.36 3.90508 -1.10718 0
M  V30 11737 H 1157.12 3.33256 -3.52371 0
M  V30 11738 H 1153 3.91007 -2.44201 0
M  V30 11739 H 1156.55 3.73815 -5.88989 0
M  V30 11740 H 1152.44 4.31677 -4.79922 0
M  V30 11741 H 1153.21 4.44802 -6.8709 0
M  V30 11742 N 1155.87 0.935264 1.26849 0
M  V30 11743 C 1157.29 0.623198 1.75992 0
M  V30 11744 C 1157.64 -0.861647 1.76267 0
M  V30 11745 O 1156.76 -1.6743 1.37099 0
M  V30 11746 C 1157.36 1.12451 3.19594 0
M  V30 11747 C 1155.92 0.862974 3.66374 0
M  V30 11748 C 1155.06 1.27886 2.4605 0
M  V30 11749 H 1158.01 1.11422 1.13008 0
M  V30 11750 H 1158.03 0.475626 3.77516 0
M  V30 11751 H 1157.55 2.20522 3.19361 0
M  V30 11752 H 1155.65 -0.203606 3.72043 0
M  V30 11753 H 1155.76 1.48582 4.55478 0
M  V30 11754 H 1154.12 0.697335 2.44968 0
M  V30 11755 H 1154.91 2.36837 2.48522 0
M  V30 11756 N 1157.35 -1.41121 0.701616 0
M  V30 11757 C 1158.63 -1.9492 0.162911 0
M  V30 11758 C 1159.01 -1.64064 -1.32839 0
M  V30 11759 O 1158.36 -0.950848 -2.07777 0
M  V30 11760 C 1158.57 -3.45946 0.460673 0
M  V30 11761 C 1159.92 -4.22789 0.391706 0
M  V30 11762 O 1160.94 -3.53993 0.395931 0
M  V30 11763 O 1159.8 -5.45332 0.357071 0
M  V30 11764 H 1156.89 -0.826793 0.0185103 0
M  V30 11765 H 1159.44 -1.50805 0.778192 0
M  V30 11766 H 1158.21 -3.61711 1.49269 0
M  V30 11767 H 1157.83 -3.97168 -0.185277 0
M  V30 11768 N 1158.83 -0.446794 -1.51134 0
M  V30 11769 C 1160.08 0.116263 -2.01765 0
M  V30 11770 C 1160.4 1.42382 -1.33238 0
M  V30 11771 O 1159.67 1.9018 -0.469915 0
M  V30 11772 H 1158.25 0.0459558 -0.745585 0
M  V30 11773 H 1160.91 -0.591664 -1.85702 0
M  V30 11774 H 1160.01 0.285358 -3.10793 0
M  V30 11775 N 1160.31 1.56586 -0.178487 0
M  V30 11776 C 1161.54 2.01475 0.470684 0
M  V30 11777 C 1161.95 1.0587 1.56323 0
M  V30 11778 O 1161.31 0.060749 1.82399 0
M  V30 11779 C 1161.36 3.46145 1.04238 0
M  V30 11780 O 1161.08 4.381 -0.0065582 0
M  V30 11781 C 1162.58 4.06471 1.76908 0
M  V30 11782 H 1159.8 0.660219 0.119801 0
M  V30 11783 H 1162.35 2.02542 -0.282322 0
M  V30 11784 H 1160.5 3.45831 1.74585 0
M  V30 11785 H 1160.91 5.22843 0.416554 0
M  V30 11786 H 1162.39 5.096 2.12161 0
M  V30 11787 H 1162.87 3.48974 2.66672 0
M  V30 11788 H 1163.47 4.10509 1.11186 0
M  V30 11789 N 1161.79 -0.095206 1.57312 0
M  V30 11790 C 1162.73 -1.11551 2.02052 0
M  V30 11791 C 1163.7 -1.39808 0.896818 0
M  V30 11792 O 1164.89 -1.51273 1.1628 0
M  V30 11793 C 1162.03 -2.43056 2.44985 0
M  V30 11794 C 1161.14 -2.21531 3.70875 0
M  V30 11795 C 1160.28 -3.46434 4.02687 0
M  V30 11796 C 1159.32 -3.2017 5.21687 0
M  V30 11797 N 1158.45 -4.37339 5.49253 0
M  V30 11798 H 1163.29 -0.727 2.88996 0
M  V30 11799 H 1160.83 -0.347441 1.42938 0
M  V30 11800 H 1162.79 -3.19803 2.67921 0
M  V30 11801 H 1161.42 -2.79754 1.61051 0
M  V30 11802 H 1160.47 -1.35587 3.55416 0
M  V30 11803 H 1161.78 -1.98116 4.57768 0
M  V30 11804 H 1160.94 -4.31589 4.26399 0
M  V30 11805 H 1159.67 -3.72904 3.14315 0
M  V30 11806 H 1158.68 -2.33409 4.97796 0
M  V30 11807 H 1159.9 -2.95047 6.11657 0
M  V30 11808 H 1157.85 -4.63885 4.6384 0
M  V30 11809 H 1157.77 -4.17114 6.30517 0
M  V30 11810 H 1159.04 -5.23559 5.775 0
M  V30 11811 N 1163.26 -1.53291 -0.366026 0
M  V30 11812 C 1164.54 -1.60055 -1.12436 0
M  V30 11813 C 1164.92 -0.407811 -2.07123 0
M  V30 11814 O 1164.27 0.601977 -2.20428 0
M  V30 11815 C 1164.48 -2.95062 -1.86385 0
M  V30 11816 C 1165.83 -3.49623 -2.40934 0
M  V30 11817 O 1166.85 -2.97088 -1.96512 0
M  V30 11818 O 1165.71 -4.41461 -3.2214 0
M  V30 11819 H 1162.8 -0.646476 -0.51575 0
M  V30 11820 H 1165.35 -1.65632 -0.369326 0
M  V30 11821 H 1164.12 -3.73312 -1.17277 0
M  V30 11822 H 1163.75 -2.92973 -2.68798 0
M  V30 11823 N 1164.74 0.6258 -1.44643 0
M  V30 11824 C 1165.97 1.41233 -1.51198 0
M  V30 11825 C 1166.39 1.88291 -0.138572 0
M  V30 11826 O 1165.74 1.61151 0.856537 0
M  V30 11827 C 1165.79 2.62908 -2.48117 0
M  V30 11828 O 1165.51 2.1781 -3.80119 0
M  V30 11829 C 1167.02 3.55976 -2.6419 0
M  V30 11830 H 1164.24 0.432954 -0.512632 0
M  V30 11831 H 1166.78 0.76486 -1.89658 0
M  V30 11832 H 1164.93 3.23735 -2.12778 0
M  V30 11833 H 1165.35 2.96732 -4.32493 0
M  V30 11834 H 1166.82 4.37943 -3.3602 0
M  V30 11835 H 1167.3 4.05133 -1.696 0
M  V30 11836 H 1167.91 3.01014 -3.00451 0
M  V30 11837 N 1166.22 1.31629 0.866686 0
M  V30 11838 C 1167.47 1.21683 1.62238 0
M  V30 11839 C 1167.8 -0.223767 1.92907 0
M  V30 11840 O 1167.07 -1.15761 1.563 0
M  V30 11841 C 1167.36 2.06443 2.95048 0
M  V30 11842 C 1167.21 3.58818 2.71237 0
M  V30 11843 C 1168.53 1.91634 3.96187 0
M  V30 11844 H 1165.65 0.443389 0.588707 0
M  V30 11845 H 1168.29 1.61453 1.00164 0
M  V30 11846 H 1166.44 1.72654 3.48027 0
M  V30 11847 H 1168.11 4.0276 2.24905 0
M  V30 11848 H 1166.36 3.82085 2.05411 0
M  V30 11849 H 1167.03 4.13436 3.65752 0
M  V30 11850 H 1169.5 2.21209 3.52428 0
M  V30 11851 H 1168.38 2.53236 4.86993 0
M  V30 11852 H 1168.64 0.880564 4.33242 0
M  V30 11853 N 1167.7 -1.08142 1.14644 0
M  V30 11854 C 1168.61 -2.18675 0.849607 0
M  V30 11855 C 1169.63 -1.73158 -0.170983 0
M  V30 11856 O 1170.8 -2.014 0.0011579 0
M  V30 11857 C 1167.87 -3.45084 0.334305 0
M  V30 11858 C 1166.93 -4.05213 1.41779 0
M  V30 11859 C 1166.16 -5.25588 0.926981 0
M  V30 11860 O 1166.38 -5.69934 -0.230522 0
M  V30 11861 O 1165.32 -5.77183 1.70715 0
M  V30 11862 H 1169.14 -2.46542 1.77343 0
M  V30 11863 H 1166.73 -1.17328 0.924911 0
M  V30 11864 H 1168.61 -4.21367 0.0529893 0
M  V30 11865 H 1167.29 -3.18788 -0.561755 0
M  V30 11866 H 1166.19 -3.30507 1.7526 0
M  V30 11867 H 1167.53 -4.35764 2.28847 0
M  V30 11868 N 1169.18 -0.941978 -1.26351 0
M  V30 11869 C 1170.42 -0.590845 -1.94002 0
M  V30 11870 C 1170.76 0.868004 -1.73722 0
M  V30 11871 O 1170.03 1.62111 -1.07472 0
M  V30 11872 C 1170.31 -0.934901 -3.47752 0
M  V30 11873 C 1170.17 -2.44855 -3.77314 0
M  V30 11874 C 1171.49 -0.450888 -4.37784 0
M  V30 11875 H 1168.61 -0.21613 -0.704597 0
M  V30 11876 H 1171.25 -1.17634 -1.49205 0
M  V30 11877 H 1169.4 -0.436648 -3.86038 0
M  V30 11878 H 1171.07 -3.01959 -3.48738 0
M  V30 11879 H 1169.31 -2.89169 -3.23363 0
M  V30 11880 H 1169.98 -2.6398 -4.84787 0
M  V30 11881 H 1172.46 -0.878107 -4.06729 0
M  V30 11882 H 1171.34 -0.720439 -5.44152 0
M  V30 11883 H 1171.6 0.649162 -4.37308 0
M  V30 11884 N 1170.66 1.40747 -0.709091 0
M  V30 11885 C 1171.88 2.05319 -0.255258 0
M  V30 11886 C 1172.3 1.53406 1.10054 0
M  V30 11887 O 1171.66 0.687905 1.69039 0
M  V30 11888 C 1171.71 3.60835 -0.219251 0
M  V30 11889 O 1171.43 4.1083 -1.52151 0
M  V30 11890 C 1172.93 4.42572 0.253927 0
M  V30 11891 H 1170.15 0.660904 -0.115959 0
M  V30 11892 H 1172.69 1.80274 -0.965474 0
M  V30 11893 H 1170.85 3.84872 0.441882 0
M  V30 11894 H 1171.26 5.04979 -1.41764 0
M  V30 11895 H 1172.74 5.51529 0.22798 0
M  V30 11896 H 1173.21 4.19673 1.29504 0
M  V30 11897 H 1173.82 4.23629 -0.376694 0
M  V30 11898 N 1172.13 0.454803 1.50895 0
M  V30 11899 C 1173.38 -0.105927 2.02523 0
M  V30 11900 C 1173.71 -1.40825 1.33724 0
M  V30 11901 O 1172.99 -1.89038 0.457683 0
M  V30 11902 C 1173.27 -0.306635 3.58792 0
M  V30 11903 C 1173.12 1.01556 4.38185 0
M  V30 11904 C 1174.44 -1.06858 4.2693 0
M  V30 11905 H 1171.56 -0.0370232 0.736069 0
M  V30 11906 H 1174.2 0.597215 1.8037 0
M  V30 11907 H 1172.35 -0.905563 3.77799 0
M  V30 11908 H 1174.03 1.64981 4.30789 0
M  V30 11909 H 1172.27 1.61608 4.02574 0
M  V30 11910 H 1172.94 0.828959 5.4574 0
M  V30 11911 H 1175.42 -0.561086 4.123 0
M  V30 11912 H 1174.29 -1.1778 5.36115 0
M  V30 11913 H 1174.55 -2.10111 3.8898 0
M  V30 11914 N 1173.61 -1.56489 0.186789 0
M  V30 11915 C 1174.56 -2.15311 -0.750024 0
M  V30 11916 C 1175.55 -1.09156 -1.18211 0
M  V30 11917 O 1176.74 -1.3524 -1.14189 0
M  V30 11918 C 1173.87 -2.80952 -1.97284 0
M  V30 11919 C 1172.95 -3.94286 -1.56204 0
M  V30 11920 N 1173.34 -4.98406 -0.861705 0
M  V30 11921 C 1171.64 -4.05733 -1.85194 0
M  V30 11922 C 1172.34 -5.77977 -0.657078 0
M  V30 11923 N 1171.32 -5.30116 -1.20326 0
M  V30 11924 H 1175.12 -2.93176 -0.206148 0
M  V30 11925 H 1172.63 -1.62395 -0.0133163 0
M  V30 11926 H 1174.63 -3.21479 -2.65437 0
M  V30 11927 H 1173.29 -2.04572 -2.52152 0
M  V30 11928 H 1174.3 -5.15302 -0.518067 0
M  V30 11929 H 1170.98 -3.40472 -2.4163 0
M  V30 11930 H 1172.37 -6.71822 -0.102123 0
M  V30 11931 N 1175.09 0.086862 -1.5736 0
M  V30 11932 C 1176.34 0.790008 -1.8678 0
M  V30 11933 C 1176.67 1.77977 -0.777042 0
M  V30 11934 O 1175.94 1.93317 0.21419 0
M  V30 11935 C 1176.23 1.51143 -3.26845 0
M  V30 11936 C 1176.08 0.539106 -4.46558 0
M  V30 11937 C 1177.4 2.46003 -3.64926 0
M  V30 11938 H 1174.52 0.285741 -0.679354 0
M  V30 11939 H 1177.16 0.0534655 -1.89925 0
M  V30 11940 H 1175.31 2.13928 -3.24295 0
M  V30 11941 H 1176.98 -0.0823679 -4.61226 0
M  V30 11942 H 1175.22 -0.146842 -4.33551 0
M  V30 11943 H 1175.9 1.0812 -5.41308 0
M  V30 11944 H 1178.37 1.93306 -3.68473 0
M  V30 11945 H 1177.25 2.93493 -4.63846 0
M  V30 11946 H 1177.51 3.30133 -2.94049 0
M  V30 11947 N 1176.57 1.53483 0.357892 0
M  V30 11948 C 1177.8 1.73956 1.12013 0
M  V30 11949 C 1178.21 0.472053 1.82803 0
M  V30 11950 O 1177.57 -0.555499 1.7384 0
M  V30 11951 C 1177.62 2.91015 2.14459 0
M  V30 11952 O 1177.34 4.12862 1.4655 0
M  V30 11953 C 1178.84 3.23423 3.0317 0
M  V30 11954 H 1176.06 0.58161 0.334621 0
M  V30 11955 H 1178.6 2.00256 0.414467 0
M  V30 11956 H 1176.76 2.67087 2.80612 0
M  V30 11957 H 1177.17 4.78468 2.14869 0
M  V30 11958 H 1178.65 4.08717 3.71018 0
M  V30 11959 H 1179.12 2.39114 3.68404 0
M  V30 11960 H 1179.73 3.49305 2.42624 0
M  V30 11961 N 1178.05 -0.61812 1.44973 0
M  V30 11962 C 1179.46 -1.19994 1.43033 0
M  V30 11963 C 1179.81 -1.95607 0.152422 0
M  V30 11964 O 1178.93 -2.03114 -0.746571 0
M  V30 11965 C 1179.53 -2.18269 2.59122 0
M  V30 11966 C 1178.09 -2.7185 2.60336 0
M  V30 11967 C 1177.23 -1.4707 2.35086 0
M  V30 11968 H 1180.18 -0.408034 1.53365 0
M  V30 11969 H 1180.21 -3.01113 2.32619 0
M  V30 11970 H 1179.72 -1.63208 3.52115 0
M  V30 11971 H 1177.82 -3.30878 1.7132 0
M  V30 11972 H 1177.93 -3.17001 3.59231 0
M  V30 11973 H 1176.3 -1.75658 1.84435 0
M  V30 11974 H 1177.08 -0.938928 3.30211 0
M  V30 11975 N 1179.52 -1.32087 -0.859693 0
M  V30 11976 C 1180.47 -1.20601 -1.96784 0
M  V30 11977 C 1181.44 -0.089355 -1.65859 0
M  V30 11978 O 1182.63 -0.264022 -1.88964 0
M  V30 11979 C 1179.77 -0.929872 -3.32336 0
M  V30 11980 C 1178.88 -2.13084 -3.75791 0
M  V30 11981 C 1178.01 -1.79061 -5.00111 0
M  V30 11982 C 1177.05 -2.95507 -5.36043 0
M  V30 11983 N 1176.19 -2.61611 -6.5154 0
M  V30 11984 H 1181.03 -2.1539 -2.0594 0
M  V30 11985 H 1178.57 -1.07131 -1.00803 0
M  V30 11986 H 1180.52 -0.750285 -4.10398 0
M  V30 11987 H 1179.15 -0.0187929 -3.22795 0
M  V30 11988 H 1178.21 -2.42086 -2.93425 0
M  V30 11989 H 1179.52 -3.00205 -3.98344 0
M  V30 11990 H 1178.67 -1.57625 -5.85866 0
M  V30 11991 H 1177.41 -0.891459 -4.79483 0
M  V30 11992 H 1176.42 -3.17581 -4.48801 0
M  V30 11993 H 1177.64 -3.86147 -5.5863 0
M  V30 11994 H 1175.59 -1.74231 -6.32439 0
M  V30 11995 H 1175.5 -3.42262 -6.74087 0
M  V30 11996 H 1176.77 -2.43592 -7.40461 0
M  V30 11997 N 1181 1.07532 -1.15215 0
M  V30 11998 C 1182.41 1.61567 -0.935568 0
M  V30 11999 C 1182.76 1.89085 0.523557 0
M  V30 12000 O 1181.89 1.65495 1.39429 0
M  V30 12001 C 1182.48 2.93531 -1.69189 0
M  V30 12002 C 1181.04 3.44316 -1.52063 0
M  V30 12003 C 1180.19 2.18404 -1.70866 0
M  V30 12004 H 1183.14 0.906431 -1.30267 0
M  V30 12005 H 1183.16 3.62377 -1.16031 0
M  V30 12006 H 1182.67 2.73471 -2.75381 0
M  V30 12007 H 1180.77 3.69462 -0.482567 0
M  V30 12008 H 1180.89 4.20478 -2.29642 0
M  V30 12009 H 1179.25 2.28012 -1.13502 0
M  V30 12010 H 1180.03 2.00841 -2.7842 0
M  V30 12011 N 1182.48 0.948665 1.2585 0
M  V30 12012 C 1183.73 0.601125 1.93686 0
M  V30 12013 C 1184.06 -0.858779 1.7418 0
M  V30 12014 O 1183.33 -1.61539 1.0833 0
M  V30 12015 C 1183.62 0.95333 3.47252 0
M  V30 12016 C 1183.47 2.46853 3.7601 0
M  V30 12017 C 1184.79 0.474098 4.37539 0
M  V30 12018 H 1181.91 0.219864 0.703441 0
M  V30 12019 H 1184.55 1.18424 1.48579 0
M  V30 12020 H 1182.7 0.457114 3.85801 0
M  V30 12021 H 1184.37 3.03804 3.47132 0
M  V30 12022 H 1182.62 2.9088 3.21825 0
M  V30 12023 H 1183.29 2.66547 4.83381 0
M  V30 12024 H 1185.76 0.899664 4.06258 0
M  V30 12025 H 1184.64 0.749287 5.43762 0
M  V30 12026 H 1184.9 -0.625961 4.37646 0
M  V30 12027 N 1183.96 -1.40369 0.716545 0
M  V30 12028 C 1185.37 -1.83783 0.328719 0
M  V30 12029 C 1185.72 -1.5991 -1.13681 0
M  V30 12030 O 1184.85 -1.08048 -1.87496 0
M  V30 12031 C 1185.44 -3.33626 0.589848 0
M  V30 12032 C 1184 -3.7553 0.25572 0
M  V30 12033 C 1183.15 -2.63571 0.861733 0
M  V30 12034 H 1186.1 -1.29623 0.915621 0
M  V30 12035 H 1186.12 -3.80225 -0.14459 0
M  V30 12036 H 1185.63 -3.5097 1.65655 0
M  V30 12037 H 1183.73 -3.63781 -0.805883 0
M  V30 12038 H 1183.84 -4.73577 0.725388 0
M  V30 12039 H 1182.21 -2.53047 0.289706 0
M  V30 12040 H 1182.99 -2.83727 1.93272 0
M  V30 12041 N 1185.44 -0.462799 -1.50652 0
M  V30 12042 C 1186.71 0.156221 -1.94975 0
M  V30 12043 C 1187.09 1.5775 -1.40279 0
M  V30 12044 O 1186.44 2.20473 -0.600323 0
M  V30 12045 C 1186.65 0.108008 -3.48833 0
M  V30 12046 C 1188 0.301013 -4.23532 0
M  V30 12047 O 1189.02 0.184973 -3.55719 0
M  V30 12048 O 1187.88 0.534457 -5.4388 0
M  V30 12049 H 1184.98 0.116182 -0.818798 0
M  V30 12050 H 1187.52 -0.522607 -1.61453 0
M  V30 12051 H 1186.29 -0.884634 -3.81169 0
M  V30 12052 H 1185.92 0.828653 -3.88869 0
M  V30 12053 N 1186.91 1.56388 -0.195085 0
M  V30 12054 C 1187.86 2.19091 0.725793 0
M  V30 12055 C 1188.83 1.13814 1.20977 0
M  V30 12056 O 1190.02 1.42065 1.27366 0
M  V30 12057 C 1187.16 2.85427 1.93973 0
M  V30 12058 C 1186.27 4.05229 1.49712 0
M  V30 12059 C 1185.4 4.59421 2.66656 0
M  V30 12060 C 1184.44 5.71581 2.19001 0
M  V30 12061 N 1183.58 6.2018 3.29123 0
M  V30 12062 H 1188.42 2.97429 0.184334 0
M  V30 12063 H 1185.96 1.46886 0.0792434 0
M  V30 12064 H 1187.92 3.22057 2.65208 0
M  V30 12065 H 1186.55 2.09652 2.4545 0
M  V30 12066 H 1185.6 3.74261 0.680641 0
M  V30 12067 H 1186.91 4.8635 1.10749 0
M  V30 12068 H 1186.06 4.98357 3.46014 0
M  V30 12069 H 1184.8 3.77407 3.08893 0
M  V30 12070 H 1183.81 5.32174 1.38097 0
M  V30 12071 H 1185.03 6.55413 1.77795 0
M  V30 12072 H 1182.98 5.41088 3.70891 0
M  V30 12073 H 1182.9 6.96353 2.94328 0
M  V30 12074 H 1184.16 6.63769 4.08694 0
M  V30 12075 N 1188.39 -0.0785156 1.57404 0
M  V30 12076 C 1189.67 -0.811557 1.77969 0
M  V30 12077 C 1190.05 -1.96123 0.780966 0
M  V30 12078 O 1189.4 -2.27731 -0.18726 0
M  V30 12079 C 1189.61 -1.29075 3.24254 0
M  V30 12080 C 1190.96 -1.72685 3.87898 0
M  V30 12081 O 1191.98 -1.38658 3.28104 0
M  V30 12082 O 1190.84 -2.3566 4.93079 0
M  V30 12083 H 1187.93 -0.388361 0.73014 0
M  V30 12084 H 1190.48 -0.0591118 1.69597 0
M  V30 12085 H 1189.25 -0.467813 3.88494 0
M  V30 12086 H 1188.87 -2.10472 3.37324 0
M  V30 12087 N 1189.87 -1.5367 -0.349747 0
M  V30 12088 C 1190.82 -1.81223 -1.42922 0
M  V30 12089 C 1191.79 -0.657536 -1.52531 0
M  V30 12090 O 1192.97 -0.90134 -1.68168 0
M  V30 12091 C 1190.11 -2.022 -2.79659 0
M  V30 12092 C 1189.23 -3.29915 -2.78891 0
M  V30 12093 C 1188.36 -3.40993 -4.07305 0
M  V30 12094 C 1187.4 -4.6268 -4.00741 0
M  V30 12095 N 1186.54 -4.70826 -5.20833 0
M  V30 12096 H 1191.38 -2.73328 -1.18727 0
M  V30 12097 H 1188.91 -1.35386 -0.57525 0
M  V30 12098 H 1190.87 -2.12351 -3.59114 0
M  V30 12099 H 1189.5 -1.13416 -3.0222 0
M  V30 12100 H 1188.55 -3.28637 -1.91577 0
M  V30 12101 H 1189.87 -4.19459 -2.69917 0
M  V30 12102 H 1189.02 -3.50542 -4.95182 0
M  V30 12103 H 1187.76 -2.49493 -4.19052 0
M  V30 12104 H 1186.76 -4.53215 -3.11249 0
M  V30 12105 H 1187.99 -5.55538 -3.90582 0
M  V30 12106 H 1185.93 -3.82233 -5.33136 0
M  V30 12107 H 1185.85 -5.54297 -5.14092 0
M  V30 12108 H 1187.12 -4.84677 -6.10499 0
M  V30 12109 N 1191.35 0.610423 -1.45298 0
M  V30 12110 C 1192.58 1.39419 -1.52466 0
M  V30 12111 C 1192.99 1.88563 -0.1551 0
M  V30 12112 O 1192.33 1.62692 0.853061 0
M  V30 12113 C 1192.39 2.63515 -2.44541 0
M  V30 12114 C 1192.06 2.36028 -3.91331 0
M  V30 12115 C 1193.05 1.96567 -4.81308 0
M  V30 12116 C 1190.74 2.49028 -4.36223 0
M  V30 12117 C 1192.73 1.70461 -6.14184 0
M  V30 12118 C 1190.42 2.22536 -5.6914 0
M  V30 12119 C 1191.42 1.83314 -6.5794 0
M  V30 12120 O 1191.1 1.57131 -7.88394 0
M  V30 12121 H 1190.84 0.433278 -0.518889 0
M  V30 12122 H 1193.39 0.751803 -1.91147 0
M  V30 12123 H 1191.62 3.30463 -2.00826 0
M  V30 12124 H 1193.31 3.25554 -2.42424 0
M  V30 12125 H 1194.08 1.86062 -4.4789 0
M  V30 12126 H 1189.95 2.78524 -3.67349 0
M  V30 12127 H 1193.5 1.39773 -6.83454 0
M  V30 12128 H 1189.4 2.32657 -6.02114 0
M  V30 12129 H 1190.16 1.71207 -8.00394 0
M  V30 12130 N 1192.83 1.32541 0.852676 0
M  V30 12131 C 1194.1 1.1383 1.59067 0
M  V30 12132 C 1194.48 -0.300584 2.08949 0
M  V30 12133 O 1193.83 -1.29751 1.88088 0
M  V30 12134 C 1194.04 2.16758 2.73527 0
M  V30 12135 C 1195.39 2.50194 3.43057 0
M  V30 12136 O 1196.41 2.15319 2.83754 0
M  V30 12137 O 1195.27 3.09985 4.50079 0
M  V30 12138 H 1192.37 0.439379 0.700625 0
M  V30 12139 H 1194.91 1.44078 0.896632 0
M  V30 12140 H 1193.68 3.13469 2.34207 0
M  V30 12141 H 1193.31 1.87515 3.50605 0
M  V30 12142 N 1194.3 -1.0692 1.15784 0
M  V30 12143 C 1195.72 -1.61069 0.944123 0
M  V30 12144 C 1196.07 -1.8936 -0.513522 0
M  V30 12145 O 1195.19 -1.66232 -1.38549 0
M  V30 12146 C 1195.79 -2.9263 1.70743 0
M  V30 12147 C 1194.35 -3.43505 1.53887 0
M  V30 12148 C 1193.49 -2.17495 1.72021 0
M  V30 12149 H 1196.44 -0.89951 1.30746 0
M  V30 12150 H 1196.46 -3.61757 1.17951 0
M  V30 12151 H 1195.98 -2.72007 2.76828 0
M  V30 12152 H 1194.08 -3.69201 0.502153 0
M  V30 12153 H 1194.19 -4.19254 2.31868 0
M  V30 12154 H 1192.55 -2.27407 1.1471 0
M  V30 12155 H 1193.34 -1.99362 2.79481 0
M  V30 12156 N 1195.78 -0.955326 -1.25345 0
M  V30 12157 C 1197.01 -0.627693 -1.97149 0
M  V30 12158 C 1197.43 0.800349 -1.70997 0
M  V30 12159 O 1196.78 1.53545 -0.986417 0
M  V30 12160 C 1196.83 -0.877675 -3.50684 0
M  V30 12161 O 1196.55 -2.24957 -3.75934 0
M  V30 12162 C 1198.06 -0.562524 -4.39716 0
M  V30 12163 H 1195.28 -0.235269 -0.628402 0
M  V30 12164 H 1197.82 -1.27989 -1.59496 0
M  V30 12165 H 1195.97 -0.271878 -3.86445 0
M  V30 12166 H 1196.39 -2.32022 -4.70389 0
M  V30 12167 H 1197.86 -0.787972 -5.46347 0
M  V30 12168 H 1198.34 0.50293 -4.36311 0
M  V30 12169 H 1198.95 -1.14767 -4.09522 0
M  V30 12170 N 1197.26 1.39987 -0.723979 0
M  V30 12171 C 1198.51 2.00334 -0.266587 0
M  V30 12172 C 1198.83 1.57714 1.14679 0
M  V30 12173 O 1198.1 0.82037 1.77895 0
M  V30 12174 H 1196.68 0.740861 -0.095573 0
M  V30 12175 H 1199.34 1.712 -0.931481 0
M  V30 12176 H 1198.44 3.10594 -0.306282 0
M  V30 12177 N 1198.74 0.470782 1.50404 0
M  V30 12178 C 1199.99 -0.0841494 2.01925 0
M  V30 12179 C 1200.31 -1.40244 1.35487 0
M  V30 12180 O 1199.58 -1.89409 0.500111 0
M  V30 12181 H 1198.16 -0.0340884 0.746222 0
M  V30 12182 H 1200.82 0.621133 1.84738 0
M  V30 12183 H 1199.92 -0.235877 3.11207 0
M  V30 12184 N 1200.22 -1.56282 0.203376 0
M  V30 12185 C 1201.13 -2.23086 -0.725922 0
M  V30 12186 C 1202.14 -1.23258 -1.22814 0
M  V30 12187 O 1203.32 -1.5602 -1.27357 0
M  V30 12188 C 1200.38 -2.88358 -1.92485 0
M  V30 12189 C 1199.45 -4.03479 -1.46639 0
M  V30 12190 C 1198.68 -4.65629 -2.60816 0
M  V30 12191 O 1198.9 -4.2672 -3.78506 0
M  V30 12192 O 1197.84 -5.54949 -2.33056 0
M  V30 12193 H 1201.66 -3.03124 -0.18694 0
M  V30 12194 H 1199.25 -1.49377 -0.0262829 0
M  V30 12195 H 1201.13 -3.29623 -2.62539 0
M  V30 12196 H 1199.8 -2.11294 -2.45228 0
M  V30 12197 H 1198.71 -3.66821 -0.734396 0
M  V30 12198 H 1200.04 -4.82232 -0.985535 0
M  V30 12199 N 1201.7 0.070167 -1.57444 0
M  V30 12200 C 1202.92 0.781894 -1.91557 0
M  V30 12201 C 1203.34 1.71037 -0.799489 0
M  V30 12202 O 1202.7 1.81082 0.227062 0
M  V30 12203 C 1202.75 1.57415 -3.25427 0
M  V30 12204 O 1202.47 0.682991 -4.32743 0
M  V30 12205 C 1203.97 2.38673 -3.73564 0
M  V30 12206 H 1201.19 0.222211 -0.633138 0
M  V30 12207 H 1203.73 0.0399504 -2.04461 0
M  V30 12208 H 1201.89 2.26835 -3.14045 0
M  V30 12209 H 1202.3 1.2342 -5.09772 0
M  V30 12210 H 1203.78 2.89716 -4.6986 0
M  V30 12211 H 1204.25 3.18269 -3.02657 0
M  V30 12212 H 1204.86 1.74405 -3.87896 0
M  V30 12213 N 1203.17 1.53854 0.341593 0
M  V30 12214 C 1204.4 1.75134 1.10162 0
M  V30 12215 C 1204.82 0.491415 1.82292 0
M  V30 12216 O 1204.17 -0.53703 1.7442 0
M  V30 12217 C 1204.22 2.93273 2.1136 0
M  V30 12218 O 1203.95 4.14393 1.42162 0
M  V30 12219 C 1205.45 3.26621 2.99723 0
M  V30 12220 H 1202.67 0.585126 0.328434 0
M  V30 12221 H 1205.21 2.00684 0.393204 0
M  V30 12222 H 1203.37 2.70048 2.77764 0
M  V30 12223 H 1203.78 4.8072 2.09783 0
M  V30 12224 H 1205.25 4.12629 3.66662 0
M  V30 12225 H 1205.73 2.43008 3.65847 0
M  V30 12226 H 1206.34 3.51858 2.38906 0
M  V30 12227 N 1204.65 -0.602709 1.4562 0
M  V30 12228 C 1205.9 -1.36359 1.50113 0
M  V30 12229 C 1206.23 -1.93663 0.144297 0
M  V30 12230 O 1205.51 -1.75337 -0.841851 0
M  V30 12231 C 1205.79 -2.50788 2.58413 0
M  V30 12232 C 1205.64 -1.98649 4.03557 0
M  V30 12233 C 1206.96 -3.52905 2.62957 0
M  V30 12234 H 1204.08 -0.494455 0.54652 0
M  V30 12235 H 1206.72 -0.678957 1.77455 0
M  V30 12236 H 1204.87 -3.09191 2.3523 0
M  V30 12237 H 1206.54 -1.44857 4.37966 0
M  V30 12238 H 1204.79 -1.29615 4.13984 0
M  V30 12239 H 1205.46 -2.81159 4.7503 0
M  V30 12240 H 1207.93 -3.0435 2.83743 0
M  V30 12241 H 1206.81 -4.30454 3.40589 0
M  V30 12242 H 1207.07 -4.0884 1.68233 0
M  V30 12243 N 1206.13 -1.32992 -0.845635 0
M  V30 12244 C 1207.54 -1.21616 -1.41656 0
M  V30 12245 C 1207.89 0.167687 -1.95482 0
M  V30 12246 O 1207.02 1.06692 -1.8827 0
M  V30 12247 C 1207.61 -2.2018 -2.575 0
M  V30 12248 C 1206.17 -2.12664 -3.10565 0
M  V30 12249 C 1205.32 -2.08042 -1.83341 0
M  V30 12250 H 1208.27 -1.44688 -0.651993 0
M  V30 12251 H 1208.29 -1.80558 -3.34931 0
M  V30 12252 H 1207.8 -3.20888 -2.18294 0
M  V30 12253 H 1205.9 -1.15235 -3.54333 0
M  V30 12254 H 1206.02 -3.02902 -3.71197 0
M  V30 12255 H 1204.38 -1.53416 -2.03312 0
M  V30 12256 H 1205.16 -3.10547 -1.46339 0
M  V30 12257 N 1207.61 1.06304 -1.1635 0
M  V30 12258 C 1208.54 2.13732 -0.827721 0
M  V30 12259 C 1209.55 1.61962 0.164983 0
M  V30 12260 O 1210.74 1.784 -0.0597591 0
M  V30 12261 C 1207.84 3.38239 -0.211623 0
M  V30 12262 C 1207.01 4.19325 -1.2444 0
M  V30 12263 C 1206.07 5.22193 -0.648127 0
M  V30 12264 O 1205.1 5.53755 -1.31695 0
M  V30 12265 N 1206.3 5.77742 0.565179 0
M  V30 12266 H 1209.07 2.43136 -1.75228 0
M  V30 12267 H 1206.63 1.22304 -1.06081 0
M  V30 12268 H 1208.62 4.04204 0.200306 0
M  V30 12269 H 1207.19 3.06461 0.616491 0
M  V30 12270 H 1206.41 3.49017 -1.83251 0
M  V30 12271 H 1207.7 4.70306 -1.94138 0
M  V30 12272 H 1207.1 5.54366 1.12673 0
M  V30 12273 H 1205.65 6.45284 0.919321 0
M  V30 12274 N 1209.09 0.96196 1.24836 0
M  V30 12275 C 1210.33 0.619489 1.92371 0
M  V30 12276 C 1210.65 -0.847233 1.75633 0
M  V30 12277 O 1209.92 -1.60419 1.12439 0
M  V30 12278 H 1208.5 0.226129 0.711951 0
M  V30 12279 H 1211.17 1.22179 1.5185 0
M  V30 12280 H 1210.26 0.855128 3.00157 0
M  V30 12281 N 1210.56 -1.39601 0.731392 0
M  V30 12282 C 1211.79 -2.04887 0.28789 0
M  V30 12283 C 1212.21 -1.55138 -1.076 0
M  V30 12284 O 1211.56 -0.71471 -1.67923 0
M  V30 12285 C 1211.61 -3.6044 0.276629 0
M  V30 12286 O 1211.34 -4.08358 1.58668 0
M  V30 12287 C 1212.84 -4.4292 -0.183485 0
M  V30 12288 H 1210.06 -0.658976 0.126459 0
M  V30 12289 H 1212.6 -1.78716 0.994031 0
M  V30 12290 H 1210.76 -3.85526 -0.380597 0
M  V30 12291 H 1211.17 -5.02659 1.4978 0
M  V30 12292 H 1212.64 -5.51822 -0.140207 0
M  V30 12293 H 1213.12 -4.2168 -1.22811 0
M  V30 12294 H 1213.73 -4.22976 0.444042 0
M  V30 12295 N 1212.04 -0.478751 -1.50152 0
M  V30 12296 C 1213.45 -0.0254907 -1.86683 0
M  V30 12297 C 1213.8 1.38171 -1.39295 0
M  V30 12298 O 1212.93 2.0257 -0.761207 0
M  V30 12299 C 1213.52 -0.0394819 -3.38777 0
M  V30 12300 C 1212.08 0.35834 -3.7469 0
M  V30 12301 C 1211.23 -0.421667 -2.74075 0
M  V30 12302 H 1214.18 -0.692653 -1.42787 0
M  V30 12303 H 1214.2 0.760957 -3.72813 0
M  V30 12304 H 1213.71 -1.06378 -3.73236 0
M  V30 12305 H 1211.82 1.38671 -3.45834 0
M  V30 12306 H 1211.93 0.0543589 -4.79069 0
M  V30 12307 H 1210.29 0.125634 -2.5439 0
M  V30 12308 H 1211.08 -1.44562 -3.11379 0
M  V30 12309 N 1213.52 1.56172 -0.211661 0
M  V30 12310 C 1214.77 1.98332 0.423332 0
M  V30 12311 C 1215.1 1.09895 1.60115 0
M  V30 12312 O 1214.37 0.154477 1.93886 0
M  V30 12313 C 1214.66 3.49495 0.86747 0
M  V30 12314 C 1214.51 4.48708 -0.313302 0
M  V30 12315 C 1215.83 4.04793 1.72716 0
M  V30 12316 H 1212.95 0.72107 0.152402 0
M  V30 12317 H 1215.59 1.87521 -0.305912 0
M  V30 12318 H 1213.74 3.58839 1.48885 0
M  V30 12319 H 1215.41 4.51385 -0.951291 0
M  V30 12320 H 1213.66 4.2299 -0.96238 0
M  V30 12321 H 1214.33 5.51985 0.0402402 0
M  V30 12322 H 1216.8 3.98332 1.20296 0
M  V30 12323 H 1215.68 5.10898 2.00684 0
M  V30 12324 H 1215.94 3.51067 2.68709 0
M  V30 12325 N 1215 -0.0618163 1.57479 0
M  V30 12326 C 1216.22 -0.775513 1.92355 0
M  V30 12327 C 1216.65 -1.69816 0.808949 0
M  V30 12328 O 1216.01 -1.79736 -0.23761 0
M  V30 12329 C 1216.05 -1.5367 3.26218 0
M  V30 12330 O 1215.16 -2.64802 3.16155 0
M  V30 12331 H 1214.5 -0.210909 0.629614 0
M  V30 12332 H 1217.03 -0.0270752 2.04582 0
M  V30 12333 H 1217.04 -1.91379 3.6033 0
M  V30 12334 H 1215.71 -0.859798 4.06916 0
M  V30 12335 H 1214.29 -2.29876 2.93618 0
M  V30 12336 N 1216.48 -1.54033 -0.333429 0
M  V30 12337 C 1217.75 -1.62404 -1.09015 0
M  V30 12338 C 1218.13 -0.451653 -2.06212 0
M  V30 12339 O 1217.48 0.555086 -2.21655 0
M  V30 12340 C 1217.69 -2.98949 -1.80085 0
M  V30 12341 C 1219.04 -3.54655 -2.33464 0
M  V30 12342 O 1220.06 -3.0119 -1.90166 0
M  V30 12343 O 1218.92 -4.48195 -3.12703 0
M  V30 12344 H 1216.02 -0.65727 -0.501921 0
M  V30 12345 H 1218.56 -1.66378 -0.33411 0
M  V30 12346 H 1217.33 -3.75716 -1.09332 0
M  V30 12347 H 1216.96 -2.98609 -2.62523 0
M  V30 12348 N 1217.95 0.594978 -1.45938 0
M  V30 12349 C 1218.9 1.70489 -1.5557 0
M  V30 12350 C 1219.87 1.61193 -0.400751 0
M  V30 12351 O 1221.06 1.80587 -0.615882 0
M  V30 12352 C 1218.2 3.08817 -1.54033 0
M  V30 12353 C 1217.31 3.28827 -2.80173 0
M  V30 12354 C 1216.44 4.57333 -2.70222 0
M  V30 12355 C 1215.48 4.70644 -3.91357 0
M  V30 12356 N 1214.62 5.90463 -3.79865 0
M  V30 12357 H 1219.46 1.61593 -2.50383 0
M  V30 12358 H 1217 0.787747 -1.24229 0
M  V30 12359 H 1218.96 3.88865 -1.51129 0
M  V30 12360 H 1217.59 3.1664 -0.627617 0
M  V30 12361 H 1216.64 2.42467 -2.9311 0
M  V30 12362 H 1217.95 3.34534 -3.69985 0
M  V30 12363 H 1217.1 5.45593 -2.65354 0
M  V30 12364 H 1215.84 4.54045 -1.7803 0
M  V30 12365 H 1214.85 3.80805 -3.9657 0
M  V30 12366 H 1216.07 4.75721 -4.8463 0
M  V30 12367 H 1214.02 5.88196 -2.90451 0
M  V30 12368 H 1213.94 5.97385 -4.63322 0
M  V30 12369 H 1215.2 6.81187 -3.78952 0
M  V30 12370 N 1219.43 1.33438 0.838571 0
M  V30 12371 C 1220.34 1.25753 1.98049 0
M  V30 12372 C 1221.36 0.168051 1.73187 0
M  V30 12373 O 1222.53 0.391691 1.97554 0
M  V30 12374 C 1219.6 0.997148 3.32051 0
M  V30 12375 C 1218.66 2.17667 3.70027 0
M  V30 12376 C 1217.89 1.92861 4.97635 0
M  V30 12377 O 1218.12 0.879072 5.63585 0
M  V30 12378 O 1217.05 2.79402 5.33121 0
M  V30 12379 H 1220.88 2.21786 2.07472 0
M  V30 12380 H 1218.46 1.13488 0.971645 0
M  V30 12381 H 1220.34 0.869099 4.1234 0
M  V30 12382 H 1219.02 0.0671036 3.2363 0
M  V30 12383 H 1217.93 2.36025 2.90246 0
M  V30 12384 H 1219.26 3.09006 3.83114 0
M  V30 12385 N 1220.91 -1.05686 1.16912 0
M  V30 12386 C 1222.16 -1.77987 0.948875 0
M  V30 12387 C 1222.47 -1.8845 -0.524011 0
M  V30 12388 O 1223.68 -2.57442 -0.862322 0
M  V30 12389 C 1222.13 -3.19927 1.64848 0
M  V30 12390 C 1221.74 -3.1761 3.15956 0
M  V30 12391 C 1223.49 -3.96719 1.51044 0
M  V30 12392 C 1221.39 -4.54307 3.78628 0
M  V30 12393 H 1220.32 -0.667119 0.35138 0
M  V30 12394 H 1222.97 -1.18496 1.40111 0
M  V30 12395 H 1221.36 -3.79714 1.12397 0
M  V30 12396 H 1222.53 -2.67369 3.75301 0
M  V30 12397 H 1220.85 -2.54317 3.29715 0
M  V30 12398 H 1223.44 -4.97779 1.95243 0
M  V30 12399 H 1223.79 -4.13748 0.460268 0
M  V30 12400 H 1224.32 -3.43468 2.00685 0
M  V30 12401 H 1221.06 -4.42484 4.8362 0
M  V30 12402 H 1220.58 -5.04717 3.24069 0
M  V30 12403 H 1222.26 -5.23255 3.80543 0
M  V30 12404 N 1222.39 -0.968567 -1.24324 0
M  V30 12405 C 1223.62 -0.648568 -1.96472 0
M  V30 12406 C 1224.03 0.782168 -1.71836 0
M  V30 12407 O 1223.39 1.5249 -1.00265 0
M  V30 12408 C 1223.44 -0.91482 -3.49733 0
M  V30 12409 O 1223.16 -2.28931 -3.73527 0
M  V30 12410 C 1224.66 -0.609131 -4.39095 0
M  V30 12411 H 1221.88 -0.241921 -0.625872 0
M  V30 12412 H 1224.43 -1.29673 -1.5813 0
M  V30 12413 H 1222.58 -0.31285 -3.86135 0
M  V30 12414 H 1222.99 -2.36998 -4.67902 0
M  V30 12415 H 1224.47 -0.845875 -5.4548 0
M  V30 12416 H 1224.95 0.456625 -4.3682 0
M  V30 12417 H 1225.55 -1.19105 -4.08282 0
M  V30 12418 N 1223.87 1.39211 -0.738786 0
M  V30 12419 C 1225.14 1.9442 -0.214533 0
M  V30 12420 C 1225.52 1.67528 1.28443 0
M  V30 12421 O 1224.87 1.0056 2.05183 0
M  V30 12422 C 1225.08 3.44603 -0.552232 0
M  V30 12423 C 1226.43 4.21602 -0.503663 0
M  V30 12424 O 1227.45 3.52819 -0.489647 0
M  V30 12425 O 1226.31 5.44194 -0.50153 0
M  V30 12426 H 1223.41 0.826011 -0.0404247 0
M  V30 12427 H 1225.95 1.48689 -0.817902 0
M  V30 12428 H 1224.72 3.57626 -1.58806 0
M  V30 12429 H 1224.35 3.9752 0.0799096 0
M  V30 12430 N 1225.34 0.486708 1.49896 0
M  V30 12431 C 1226.27 -0.288898 2.31706 0
M  V30 12432 C 1227.26 -0.975901 1.3932 0
M  V30 12433 O 1228.44 -0.970065 1.68236 0
M  V30 12434 C 1225.57 -1.36218 3.19471 0
M  V30 12435 C 1224.52 -0.795884 4.20535 0
M  V30 12436 C 1223.85 -1.96862 4.97141 0
M  V30 12437 C 1225.15 0.203421 5.21904 0
M  V30 12438 H 1226.84 0.393934 2.96797 0
M  V30 12439 H 1224.39 0.190894 1.42729 0
M  V30 12440 H 1226.34 -1.91238 3.75508 0
M  V30 12441 H 1225.07 -2.074 2.52295 0
M  V30 12442 H 1223.73 -0.267538 3.65622 0
M  V30 12443 H 1223.37 -2.66779 4.26425 0
M  V30 12444 H 1223.07 -1.59585 5.65514 0
M  V30 12445 H 1224.6 -2.52343 5.56017 0
M  V30 12446 H 1226.01 -0.258144 5.72719 0
M  V30 12447 H 1224.41 0.491273 5.98086 0
M  V30 12448 H 1225.48 1.12414 4.7169 0
M  V30 12449 N 1226.82 -1.56058 0.219941 0
M  V30 12450 C 1228.07 -1.98554 -0.412808 0
M  V30 12451 C 1228.4 -1.10742 -1.5953 0
M  V30 12452 O 1227.68 -0.164757 -1.93801 0
M  V30 12453 C 1227.96 -3.4995 -0.848923 0
M  V30 12454 C 1227.81 -4.48535 0.337094 0
M  V30 12455 C 1229.13 -4.05703 -1.70567 0
M  V30 12456 H 1226.25 -0.721869 -0.148576 0
M  V30 12457 H 1228.89 -1.87356 0.315852 0
M  V30 12458 H 1227.04 -3.59624 -1.46979 0
M  V30 12459 H 1228.72 -4.50874 0.975216 0
M  V30 12460 H 1226.96 -4.22474 0.984798 0
M  V30 12461 H 1227.63 -5.51999 -0.0109665 0
M  V30 12462 H 1230.11 -3.98964 -1.18182 0
M  V30 12463 H 1228.98 -5.11955 -1.97972 0
M  V30 12464 H 1229.24 -3.52487 -2.66844 0
M  V30 12465 N 1228.3 0.053464 -1.57509 0
M  V30 12466 C 1229.25 1.06155 -2.04939 0
M  V30 12467 C 1230.22 1.37382 -0.93357 0
M  V30 12468 O 1231.4 1.48137 -1.2025 0
M  V30 12469 C 1228.54 2.36476 -2.51343 0
M  V30 12470 C 1227.66 2.1162 -3.76618 0
M  V30 12471 C 1226.79 3.35636 -4.11731 0
M  V30 12472 C 1225.83 3.06226 -5.29993 0
M  V30 12473 N 1224.97 4.22623 -5.60655 0
M  V30 12474 H 1229.81 0.650122 -2.90822 0
M  V30 12475 H 1227.34 0.309421 -1.43809 0
M  V30 12476 H 1229.3 3.12588 -2.76306 0
M  V30 12477 H 1227.93 2.75386 -1.68411 0
M  V30 12478 H 1226.98 1.26116 -3.58886 0
M  V30 12479 H 1228.3 1.85909 -4.6286 0
M  V30 12480 H 1227.45 4.20132 -4.37692 0
M  V30 12481 H 1226.19 3.64439 -3.24092 0
M  V30 12482 H 1225.19 2.20128 -5.03809 0
M  V30 12483 H 1226.42 2.78726 -6.19265 0
M  V30 12484 H 1224.37 4.51424 -4.75976 0
M  V30 12485 H 1224.28 4.0025 -6.41355 0
M  V30 12486 H 1225.55 5.08063 -5.91178 0
M  V30 12487 N 1229.78 1.54207 0.325255 0
M  V30 12488 C 1231.03 1.71544 1.06091 0
M  V30 12489 C 1231.34 0.495137 1.89229 0
M  V30 12490 O 1232.55 0.54982 2.65874 0
M  V30 12491 C 1231 3.03412 1.93569 0
M  V30 12492 C 1230.61 4.32842 1.1555 0
M  V30 12493 C 1232.36 3.30113 2.66881 0
M  V30 12494 C 1230.26 5.55773 2.02164 0
M  V30 12495 H 1229.19 0.639281 0.399795 0
M  V30 12496 H 1231.84 1.80701 0.319261 0
M  V30 12497 H 1230.23 2.88158 2.71626 0
M  V30 12498 H 1231.4 4.58857 0.42276 0
M  V30 12499 H 1229.71 4.12893 0.539277 0
M  V30 12500 H 1232.31 4.19151 3.31988 0
M  V30 12501 H 1232.65 2.47918 3.34428 0
M  V30 12502 H 1233.19 3.46227 1.95887 0
M  V30 12503 H 1229.93 6.40565 1.39128 0
M  V30 12504 H 1229.45 5.3398 2.73177 0
M  V30 12505 H 1231.13 5.92113 2.60789 0
M  V30 12506 N 1231.26 -0.58723 1.46251 0
M  V30 12507 C 1232.67 -1.16933 1.45546 0
M  V30 12508 C 1233.02 -1.9524 0.193879 0
M  V30 12509 O 1232.14 -2.04652 -0.70332 0
M  V30 12510 C 1232.74 -2.12723 2.63693 0
M  V30 12511 C 1231.3 -2.66267 2.66043 0
M  V30 12512 C 1230.45 -1.42051 2.38153 0
M  V30 12513 H 1233.4 -0.375411 1.54196 0
M  V30 12514 H 1233.42 -2.96111 2.38953 0
M  V30 12515 H 1232.93 -1.55703 3.55497 0
M  V30 12516 H 1231.03 -3.2717 1.783 0
M  V30 12517 H 1231.14 -3.0931 3.65874 0
M  V30 12518 H 1229.51 -1.71707 1.88119 0
M  V30 12519 H 1230.29 -0.868675 3.32128 0
M  V30 12520 N 1232.74 -1.33881 -0.831482 0
M  V30 12521 C 1234.01 -1.16346 -1.57236 0
M  V30 12522 C 1234.39 0.267304 -2.09401 0
M  V30 12523 O 1233.74 1.26742 -1.90128 0
M  V30 12524 C 1233.95 -2.21082 -2.70044 0
M  V30 12525 C 1235.3 -2.5562 -3.39033 0
M  V30 12526 O 1236.32 -2.19806 -2.80292 0
M  V30 12527 O 1235.18 -3.17106 -4.45091 0
M  V30 12528 H 1232.28 -0.450469 -0.693546 0
M  V30 12529 H 1234.82 -1.45487 -0.873597 0
M  V30 12530 H 1233.59 -3.17155 -2.2919 0
M  V30 12531 H 1233.22 -1.9307 -3.47577 0
M  V30 12532 N 1234.21 1.05064 -1.1747 0
M  V30 12533 C 1235.46 1.77737 -0.961979 0
M  V30 12534 C 1235.78 1.88198 0.510551 0
M  V30 12535 O 1235.05 1.39968 1.37062 0
M  V30 12536 H 1233.63 0.658366 -0.352935 0
M  V30 12537 H 1236.29 1.26851 -1.47969 0
M  V30 12538 H 1235.39 2.79368 -1.39141 0
M  V30 12539 N 1235.69 0.975146 1.23809 0
M  V30 12540 C 1236.92 0.658605 1.96665 0
M  V30 12541 C 1237.34 -0.766744 1.71763 0
M  V30 12542 O 1236.7 -1.52151 0.985887 0
M  V30 12543 C 1236.75 0.948438 3.47904 0
M  V30 12544 O 1235.85 0.0377241 4.12383 0
M  V30 12545 H 1235.19 0.248231 0.615855 0
M  V30 12546 H 1237.72 1.30732 1.57386 0
M  V30 12547 H 1237.73 0.883 3.9833 0
M  V30 12548 H 1236.41 1.98717 3.65355 0
M  V30 12549 H 1234.98 0.157122 3.72569 0
M  V30 12550 N 1237.17 -1.38817 0.746158 0
M  V30 12551 C 1238.12 -2.30521 0.113517 0
M  V30 12552 C 1239.09 -1.49795 -0.717682 0
M  V30 12553 O 1240.27 -1.78448 -0.675345 0
M  V30 12554 C 1237.41 -3.36185 -0.779343 0
M  V30 12555 C 1236.52 -4.3195 0.0656784 0
M  V30 12556 C 1235.66 -5.24684 -0.829492 0
M  V30 12557 C 1234.7 -6.12097 0.0196112 0
M  V30 12558 N 1233.84 -6.97152 -0.832107 0
M  V30 12559 H 1238.68 -2.84048 0.901136 0
M  V30 12560 H 1236.21 -1.39853 0.456025 0
M  V30 12561 H 1238.17 -3.96048 -1.31156 0
M  V30 12562 H 1236.8 -2.84085 -1.53282 0
M  V30 12563 H 1235.85 -3.73611 0.715445 0
M  V30 12564 H 1237.16 -4.93551 0.721735 0
M  V30 12565 H 1236.32 -5.89627 -1.42915 0
M  V30 12566 H 1235.06 -4.63431 -1.5193 0
M  V30 12567 H 1234.06 -5.46156 0.631991 0
M  V30 12568 H 1235.29 -6.75416 0.706369 0
M  V30 12569 H 1233.23 -6.38456 -1.507 0
M  V30 12570 H 1233.15 -7.55642 -0.232782 0
M  V30 12571 H 1234.42 -7.66513 -1.41697 0
M  V30 12572 N 1238.65 -0.49465 -1.49636 0
M  V30 12573 C 1239.9 0.0520143 -2.02033 0
M  V30 12574 C 1240.22 1.38071 -1.37701 0
M  V30 12575 O 1239.49 1.88589 -0.530181 0
M  V30 12576 H 1238.07 0.0222123 -0.74667 0
M  V30 12577 H 1240.73 -0.650445 -1.83726 0
M  V30 12578 H 1239.82 0.186337 -3.11543 0
M  V30 12579 N 1240.13 1.55939 -0.228214 0
M  V30 12580 C 1241.37 1.9877 0.402272 0
M  V30 12581 C 1241.7 1.11587 1.5894 0
M  V30 12582 O 1240.98 0.175032 1.93711 0
M  V30 12583 C 1241.26 3.50396 0.830353 0
M  V30 12584 C 1241.12 4.4835 -0.360876 0
M  V30 12585 C 1242.43 4.06602 1.68413 0
M  V30 12586 H 1239.55 0.722646 0.144746 0
M  V30 12587 H 1242.2 1.87186 -0.325784 0
M  V30 12588 H 1240.35 3.60398 1.4507 0
M  V30 12589 H 1242.02 4.5035 -0.999113 0
M  V30 12590 H 1240.26 4.21946 -1.00719 0
M  V30 12591 H 1240.93 5.51997 -0.0183074 0
M  V30 12592 H 1243.41 3.99585 1.16064 0
M  V30 12593 H 1242.28 5.12998 1.95254 0
M  V30 12594 H 1242.54 3.53897 2.64971 0
M  V30 12595 N 1241.6 -0.0451101 1.57535 0
M  V30 12596 C 1243.02 -0.59372 1.77008 0
M  V30 12597 C 1243.37 -1.76482 0.857233 0
M  V30 12598 O 1242.49 -2.16347 0.0479703 0
M  V30 12599 C 1243.09 -1.08383 3.20996 0
M  V30 12600 C 1241.65 -1.57808 3.41721 0
M  V30 12601 C 1240.79 -0.509067 2.72587 0
M  V30 12602 H 1243.74 0.181114 1.57663 0
M  V30 12603 H 1243.76 -1.95181 3.26626 0
M  V30 12604 H 1243.28 -0.231276 3.8741 0
M  V30 12605 H 1241.38 -2.45302 2.8046 0
M  V30 12606 H 1241.49 -1.63664 4.50279 0
M  V30 12607 H 1239.85 -0.960389 2.359 0
M  V30 12608 H 1240.64 0.333753 3.41674 0
M  V30 12609 N 1243.08 -1.54377 -0.317073 0
M  V30 12610 C 1244.31 -1.76865 -1.07362 0
M  V30 12611 C 1244.73 -0.520354 -1.81488 0
M  V30 12612 O 1244.08 0.509213 -1.75252 0
M  V30 12613 C 1244.13 -2.96598 -2.06668 0
M  V30 12614 O 1243.85 -4.16602 -1.35552 0
M  V30 12615 C 1245.36 -3.31348 -2.94489 0
M  V30 12616 H 1242.58 -0.590277 -0.319083 0
M  V30 12617 H 1245.12 -2.01284 -0.361227 0
M  V30 12618 H 1243.27 -2.74433 -2.73432 0
M  V30 12619 H 1243.69 -4.83996 -2.02108 0
M  V30 12620 H 1245.16 -4.1841 -3.60051 0
M  V30 12621 H 1245.64 -2.48797 -3.61935 0
M  V30 12622 H 1246.25 -3.55614 -2.33278 0
M  V30 12623 N 1244.56 0.579466 -1.4656 0
M  V30 12624 C 1245.81 1.33954 -1.52264 0
M  V30 12625 C 1246.14 1.93409 -0.175089 0
M  V30 12626 O 1245.41 1.76654 0.81385 0
M  V30 12627 C 1245.7 2.46645 -2.6237 0
M  V30 12628 C 1245.55 1.92204 -4.06667 0
M  V30 12629 C 1246.87 3.48676 -2.68538 0
M  V30 12630 H 1243.99 0.485697 -0.554317 0
M  V30 12631 H 1246.63 0.650639 -1.78512 0
M  V30 12632 H 1244.78 3.0541 -2.40119 0
M  V30 12633 H 1246.45 1.37871 -4.40215 0
M  V30 12634 H 1244.7 1.23012 -4.15993 0
M  V30 12635 H 1245.37 2.73566 -4.79443 0
M  V30 12636 H 1247.84 2.99798 -2.88549 0
M  V30 12637 H 1246.72 4.24981 -3.47394 0
M  V30 12638 H 1246.98 4.06112 -1.74716 0
M  V30 12639 N 1246.04 1.3432 0.824371 0
M  V30 12640 C 1247.28 1.26783 1.58284 0
M  V30 12641 C 1247.62 -0.162282 1.93521 0
M  V30 12642 O 1246.89 -1.1073 1.59903 0
M  V30 12643 C 1247.18 2.15725 2.88331 0
M  V30 12644 C 1247.03 3.67266 2.59684 0
M  V30 12645 C 1248.35 2.04141 3.8989 0
M  V30 12646 H 1245.47 0.461893 0.574303 0
M  V30 12647 H 1248.11 1.64558 0.949769 0
M  V30 12648 H 1246.26 1.83639 3.42358 0
M  V30 12649 H 1247.93 4.09711 2.11978 0
M  V30 12650 H 1246.17 3.88426 1.93151 0
M  V30 12651 H 1246.84 4.24863 3.52414 0
M  V30 12652 H 1249.32 2.3231 3.45212 0
M  V30 12653 H 1248.2 2.68601 4.7869 0
M  V30 12654 H 1248.46 1.01795 4.30221 0
M  V30 12655 N 1247.52 -1.0444 1.18026 0
M  V30 12656 C 1248.76 -1.77224 0.971391 0
M  V30 12657 C 1249.09 -1.88466 -0.500564 0
M  V30 12658 O 1248.36 -1.40692 -1.36317 0
M  V30 12659 H 1246.94 -0.656485 0.356422 0
M  V30 12660 H 1249.6 -1.26064 1.4864 0
M  V30 12661 H 1248.69 -2.78626 1.4062 0
M  V30 12662 N 1248.99 -0.981699 -1.2329 0
M  V30 12663 C 1250.27 -0.567659 -1.87182 0
M  V30 12664 C 1250.65 0.955194 -1.88253 0
M  V30 12665 O 1250 1.83245 -1.36504 0
M  V30 12666 C 1250.21 -1.17522 -3.28618 0
M  V30 12667 C 1251.56 -1.26877 -4.052 0
M  V30 12668 O 1252.58 -1.12877 -3.37842 0
M  V30 12669 O 1251.44 -1.49163 -5.2575 0
M  V30 12670 H 1248.53 -0.191315 -0.804567 0
M  V30 12671 H 1251.08 -1.07686 -1.31155 0
M  V30 12672 H 1249.85 -2.21735 -3.22411 0
M  V30 12673 H 1249.48 -0.650913 -3.92236 0
M  V30 12674 N 1250.47 1.3842 -0.753509 0
M  V30 12675 C 1251.89 1.53668 -0.431095 0
M  V30 12676 C 1252.09 1.71626 1.05578 0
M  V30 12677 O 1251.14 1.72723 1.84182 0
M  V30 12678 C 1252.46 2.74381 -1.23027 0
M  V30 12679 C 1254.01 2.8823 -1.22034 0
M  V30 12680 C 1254.48 4.11904 -2.00248 0
M  V30 12681 N 1255.97 4.18981 -1.97508 0
M  V30 12682 C 1256.71 5.13667 -2.5482 0
M  V30 12683 N 1256.2 6.14027 -3.20846 0
M  V30 12684 N 1258 5.06017 -2.44751 0
M  V30 12685 H 1250.15 1.25012 -1.71714 0
M  V30 12686 H 1252.41 0.607296 -0.727939 0
M  V30 12687 H 1252.12 2.67515 -2.28317 0
M  V30 12688 H 1251.99 3.67565 -0.847098 0
M  V30 12689 H 1254.38 2.94578 -0.175502 0
M  V30 12690 H 1254.46 1.96057 -1.64303 0
M  V30 12691 H 1254.1 4.06318 -3.04742 0
M  V30 12692 H 1254.03 5.03157 -1.55373 0
M  V30 12693 H 1256.52 3.47104 -1.49423 0
M  V30 12694 H 1256.84 6.82771 -3.61999 0
M  V30 12695 H 1255.18 6.1436 -3.24941 0
M  V30 12696 H 1258.37 4.26552 -1.92797 0
M  V30 12697 H 1258.54 5.7963 -2.89713 0
M  V30 12698 N 1251.95 0.502579 1.49372 0
M  V30 12699 C 1253.36 0.055187 1.86618 0
M  V30 12700 C 1253.71 -1.35938 1.41476 0
M  V30 12701 O 1252.84 -2.01333 0.793338 0
M  V30 12702 C 1253.43 0.0933734 3.38671 0
M  V30 12703 C 1251.99 -0.298685 3.75213 0
M  V30 12704 C 1251.14 0.465216 2.7337 0
M  V30 12705 H 1254.09 0.715281 1.41667 0
M  V30 12706 H 1254.11 -0.701549 3.73977 0
M  V30 12707 H 1253.62 1.12303 3.71497 0
M  V30 12708 H 1251.72 -1.33151 3.47996 0
M  V30 12709 H 1251.84 0.0218637 4.79095 0
M  V30 12710 H 1250.2 -0.0851469 2.54558 0
M  V30 12711 H 1250.98 1.49498 3.09039 0
M  V30 12712 N 1253.43 -1.55816 0.23648 0
M  V30 12713 C 1254.71 -1.90565 -0.440933 0
M  V30 12714 C 1255.09 -1.15585 -1.76645 0
M  V30 12715 O 1254.43 -0.269949 -2.269 0
M  V30 12716 C 1254.64 -3.43462 -0.61925 0
M  V30 12717 C 1255.99 -4.14516 -0.91989 0
M  V30 12718 O 1257.02 -3.49144 -0.705496 0
M  V30 12719 O 1255.87 -5.3013 -1.32759 0
M  V30 12720 H 1252.97 -0.79285 -0.235199 0
M  V30 12721 H 1255.51 -1.67378 0.279774 0
M  V30 12722 H 1254.29 -3.90029 0.315124 0
M  V30 12723 H 1253.91 -3.72478 -1.39089 0
M  V30 12724 N 1254.91 0.036755 -1.57557 0
M  V30 12725 C 1256.13 0.741086 -1.93172 0
M  V30 12726 C 1256.55 1.69303 -0.835589 0
M  V30 12727 O 1255.91 1.81523 0.1886 0
M  V30 12728 C 1255.96 1.50477 -3.28693 0
M  V30 12729 O 1255.68 0.591046 -4.34095 0
M  V30 12730 C 1257.18 2.30695 -3.78543 0
M  V30 12731 H 1254.4 0.208731 -0.637709 0
M  V30 12732 H 1256.94 -0.00342776 -2.045 0
M  V30 12733 H 1255.1 2.20123 -3.18786 0
M  V30 12734 H 1255.51 1.12579 -5.12276 0
M  V30 12735 H 1256.99 2.79685 -4.759 0
M  V30 12736 H 1257.46 3.11778 -3.0934 0
M  V30 12737 H 1258.07 1.66138 -3.91508 0
M  V30 12738 N 1256.39 1.54543 0.308881 0
M  V30 12739 C 1257.33 1.85693 1.40074 0
M  V30 12740 C 1258.33 0.730004 1.52864 0
M  V30 12741 O 1259.53 0.913884 1.55075 0
M  V30 12742 H 1255.91 0.588842 0.467728 0
M  V30 12743 H 1257.88 2.76973 1.11034 0
M  V30 12744 C 1256.63 2.11399 2.76054 0
M  V30 12745 H 1255.95 2.97583 2.66992 0
M  V30 12746 H 1257.39 2.37139 3.51484 0
M  V30 12747 C 1255.85 0.91007 3.24375 0
M  V30 12748 O 1256.38 0.12663 4.015 0
M  V30 12749 N 1254.59 0.717629 2.816 0
M  V30 12750 H 1254.13 1.35637 2.18998 0
M  V30 12751 H 1254.09 -0.0863585 3.14281 0
M  V30 12752 N 1257.86 -0.571685 1.46866 0
M  V30 12753 C 1259.11 -1.33145 1.52972 0
M  V30 12754 C 1259.44 -1.93314 0.185344 0
M  V30 12755 O 1258.72 -1.77083 -0.80447 0
M  V30 12756 C 1259 -2.4525 2.63675 0
M  V30 12757 C 1258.85 -1.90044 4.0768 0
M  V30 12758 C 1260.17 -3.47247 2.70384 0
M  V30 12759 H 1257.29 -0.482751 0.556885 0
M  V30 12760 H 1259.93 -0.641163 1.78855 0
M  V30 12761 H 1258.08 -3.04132 2.41735 0
M  V30 12762 H 1259.76 -1.35535 4.4094 0
M  V30 12763 H 1258 -1.20805 4.1664 0
M  V30 12764 H 1258.67 -2.71019 4.80887 0
M  V30 12765 H 1261.15 -2.98263 2.90135 0
M  V30 12766 H 1260.02 -4.23132 3.49643 0
M  V30 12767 H 1260.28 -4.05179 1.76868 0
M  V30 12768 N 1259.34 -1.34755 -0.817236 0
M  V30 12769 C 1260.75 -1.24594 -1.39044 0
M  V30 12770 C 1261.1 0.126184 -1.95794 0
M  V30 12771 O 1260.23 1.02675 -1.90491 0
M  V30 12772 C 1260.82 -2.25592 -2.52772 0
M  V30 12773 C 1259.38 -2.19204 -3.05984 0
M  V30 12774 C 1258.53 -2.11884 -1.78886 0
M  V30 12775 H 1261.48 -1.46039 -0.621155 0
M  V30 12776 H 1261.5 -1.87622 -3.31026 0
M  V30 12777 H 1261.01 -3.25447 -2.11438 0
M  V30 12778 H 1259.11 -1.22725 -3.51809 0
M  V30 12779 H 1259.23 -3.10707 -3.64689 0
M  V30 12780 H 1257.59 -1.57694 -2.00012 0
M  V30 12781 H 1258.37 -3.13582 -1.39719 0
M  V30 12782 N 1260.82 1.03812 -1.18578 0
M  V30 12783 C 1262.07 1.76706 -0.980776 0
M  V30 12784 C 1262.39 1.88729 0.490562 0
M  V30 12785 O 1261.66 1.41413 1.35569 0
M  V30 12786 H 1260.24 0.654586 -0.359898 0
M  V30 12787 H 1262.9 1.25274 -1.49306 0
M  V30 12788 H 1262 2.77876 -1.42096 0
M  V30 12789 N 1262.3 0.988223 1.22768 0
M  V30 12790 C 1263.57 0.577578 1.86878 0
M  V30 12791 C 1263.95 -0.945197 1.88757 0
M  V30 12792 O 1263.3 -1.82519 1.37474 0
M  V30 12793 C 1263.51 1.19263 3.2799 0
M  V30 12794 C 1264.86 1.29024 4.04522 0
M  V30 12795 O 1265.88 1.14667 3.37239 0
M  V30 12796 O 1264.74 1.51949 5.24951 0
M  V30 12797 H 1261.84 0.195579 0.803541 0
M  V30 12798 H 1264.38 1.0838 1.30582 0
M  V30 12799 H 1263.16 2.23442 3.21231 0
M  V30 12800 H 1262.78 0.671706 3.91885 0
M  V30 12801 N 1263.78 -1.38018 0.760839 0
M  V30 12802 C 1264.73 -2.27717 0.113521 0
M  V30 12803 C 1265.71 -1.45562 -0.685613 0
M  V30 12804 O 1266.9 -1.68226 -0.550377 0
M  V30 12805 C 1264.03 -3.34478 -0.77325 0
M  V30 12806 C 1263.12 -4.24087 0.0331238 0
M  V30 12807 N 1263.51 -4.94283 1.07323 0
M  V30 12808 C 1261.81 -4.45584 -0.192565 0
M  V30 12809 C 1262.51 -5.60344 1.56172 0
M  V30 12810 N 1261.48 -5.36499 0.875768 0
M  V30 12811 H 1265.28 -2.79456 0.910021 0
M  V30 12812 H 1262.8 -1.51006 0.597561 0
M  V30 12813 H 1264.8 -3.97635 -1.25268 0
M  V30 12814 H 1263.46 -2.84296 -1.56862 0
M  V30 12815 H 1264.47 -4.97036 1.45517 0
M  V30 12816 H 1261.14 -4.06296 -0.960704 0
M  V30 12817 H 1262.53 -6.26477 2.42851 0
M  V30 12818 N 1265.25 -0.510493 -1.49103 0
M  V30 12819 C 1266.2 0.262848 -2.29298 0
M  V30 12820 C 1267.17 0.951714 -1.36131 0
M  V30 12821 O 1268.36 0.956534 -1.65091 0
M  V30 12822 C 1265.5 1.31565 -3.19037 0
M  V30 12823 C 1264.61 0.637598 -4.27269 0
M  V30 12824 C 1263.74 1.67165 -5.04212 0
M  V30 12825 C 1262.78 0.975992 -6.04269 0
M  V30 12826 N 1261.92 1.95468 -6.74342 0
M  V30 12827 H 1266.76 -0.427246 -2.94921 0
M  V30 12828 H 1264.3 -0.222538 -1.45407 0
M  V30 12829 H 1266.25 1.93813 -3.69449 0
M  V30 12830 H 1264.88 1.97438 -2.55379 0
M  V30 12831 H 1263.94 -0.0983863 -3.80273 0
M  V30 12832 H 1265.25 0.0904435 -4.98718 0
M  V30 12833 H 1264.4 2.36893 -5.5854 0
M  V30 12834 H 1263.14 2.25267 -4.32557 0
M  V30 12835 H 1262.15 0.264534 -5.49163 0
M  V30 12836 H 1263.37 0.40134 -6.77913 0
M  V30 12837 H 1261.32 2.52515 -6.05452 0
M  V30 12838 H 1261.23 1.45845 -7.41799 0
M  V30 12839 H 1262.5 2.64455 -7.33269 0
M  V30 12840 N 1266.73 1.55688 -0.24474 0
M  V30 12841 C 1267.98 1.99186 0.381167 0
M  V30 12842 C 1268.31 1.13266 1.57748 0
M  V30 12843 O 1267.59 0.195568 1.93514 0
M  V30 12844 C 1267.87 3.51257 0.793142 0
M  V30 12845 C 1267.72 4.47942 -0.408409 0
M  V30 12846 C 1269.04 4.08365 1.64091 0
M  V30 12847 H 1266.16 0.724141 0.137073 0
M  V30 12848 H 1268.8 1.8683 -0.345619 0
M  V30 12849 H 1266.95 3.61917 1.4124 0
M  V30 12850 H 1268.62 4.49265 -1.04682 0
M  V30 12851 H 1266.87 4.20854 -1.05189 0
M  V30 12852 H 1267.54 5.51946 -0.0768531 0
M  V30 12853 H 1270.01 4.00794 1.1182 0
M  V30 12854 H 1268.89 5.1504 1.89802 0
M  V30 12855 H 1269.15 3.56687 2.61202 0
M  V30 12856 N 1268.21 -0.0283989 1.57574 0
M  V30 12857 C 1269.44 -0.730831 1.93563 0
M  V30 12858 C 1269.85 -1.68857 0.844556 0
M  V30 12859 O 1269.21 -1.8162 -0.178971 0
M  V30 12860 C 1269.26 -1.48731 3.29486 0
M  V30 12861 O 1268.98 -0.568017 4.34402 0
M  V30 12862 C 1270.48 -2.28684 3.79761 0
M  V30 12863 H 1267.7 -0.205346 0.638807 0
M  V30 12864 H 1270.25 0.0142728 2.04495 0
M  V30 12865 H 1268.4 -2.18429 3.19949 0
M  V30 12866 H 1268.82 -1.09861 5.12865 0
M  V30 12867 H 1270.29 -2.77157 4.77376 0
M  V30 12868 H 1270.77 -3.10133 3.10989 0
M  V30 12869 H 1271.37 -1.64059 3.92383 0
M  V30 12870 N 1269.69 -1.54705 -0.300681 0
M  V30 12871 C 1270.93 -1.74259 -1.03738 0
M  V30 12872 C 1271.27 -0.52703 -1.86912 0
M  V30 12873 O 1270.54 0.475862 -1.88589 0
M  V30 12874 C 1270.82 -3.03175 -1.94311 0
M  V30 12875 C 1270.68 -4.35031 -1.14315 0
M  V30 12876 C 1272 -3.27962 -2.93478 0
M  V30 12877 H 1269.12 -0.634031 -0.37573 0
M  V30 12878 H 1271.76 -1.87421 -0.312012 0
M  V30 12879 H 1269.91 -2.92086 -2.5616 0
M  V30 12880 H 1271.58 -4.5804 -0.547489 0
M  V30 12881 H 1269.82 -4.31503 -0.44587 0
M  V30 12882 H 1270.49 -5.21502 -1.80941 0
M  V30 12883 H 1272.97 -3.38663 -2.41757 0
M  V30 12884 H 1271.85 -4.19481 -3.54016 0
M  V30 12885 H 1272.11 -2.46273 -3.67154 0
M  V30 12886 N 1271.17 0.563888 -1.47167 0
M  V30 12887 C 1272.08 1.69903 -1.61772 0
M  V30 12888 C 1273.09 1.6664 -0.500705 0
M  V30 12889 O 1274.27 1.86209 -0.767354 0
M  V30 12890 C 1271.33 3.06411 -1.62213 0
M  V30 12891 C 1270.39 3.20793 -2.8529 0
M  V30 12892 C 1269.63 4.50789 -2.85701 0
M  V30 12893 O 1269.85 5.3584 -1.95529 0
M  V30 12894 O 1268.78 4.68819 -3.77481 0
M  V30 12895 H 1272.61 1.60525 -2.57809 0
M  V30 12896 H 1270.2 0.733125 -1.30175 0
M  V30 12897 H 1272.08 3.87659 -1.65221 0
M  V30 12898 H 1270.75 3.16186 -0.693415 0
M  V30 12899 H 1269.66 2.38967 -2.87829 0
M  V30 12900 H 1270.99 3.15918 -3.77434 0
M  V30 12901 N 1272.64 1.35187 0.810078 0
M  V30 12902 C 1273.89 1.28454 1.56931 0
M  V30 12903 C 1274.22 -0.141747 1.93682 0
M  V30 12904 O 1273.5 -1.09028 1.61069 0
M  V30 12905 C 1273.78 2.18771 2.86027 0
M  V30 12906 C 1273.63 3.69999 2.55774 0
M  V30 12907 C 1274.95 2.08265 3.87703 0
M  V30 12908 H 1272.07 0.467959 0.569371 0
M  V30 12909 H 1274.71 1.65556 0.932262 0
M  V30 12910 H 1272.86 1.8726 3.40391 0
M  V30 12911 H 1274.54 4.11936 2.07621 0
M  V30 12912 H 1272.78 3.90453 1.89021 0
M  V30 12913 H 1273.45 4.28577 3.47888 0
M  V30 12914 H 1275.93 2.35958 3.42729 0
M  V30 12915 H 1274.8 2.73663 4.75815 0
M  V30 12916 H 1275.06 1.06352 4.29117 0
M  V30 12917 N 1274.12 -1.03182 1.19127 0
M  V30 12918 C 1275.35 -1.80165 1.01726 0
M  V30 12919 C 1275.77 -1.83742 -0.434095 0
M  V30 12920 O 1275.12 -1.27932 -1.30152 0
M  V30 12921 C 1275.17 -3.25354 1.57566 0
M  V30 12922 O 1274.89 -3.22042 2.9702 0
M  V30 12923 C 1276.4 -4.18948 1.44906 0
M  V30 12924 H 1273.62 -0.567078 0.358698 0
M  V30 12925 H 1276.16 -1.29982 1.57877 0
M  V30 12926 H 1274.31 -3.72738 1.0557 0
M  V30 12927 H 1274.73 -4.13061 3.23235 0
M  V30 12928 H 1276.2 -5.18723 1.88762 0
M  V30 12929 H 1276.68 -4.37383 0.399125 0
M  V30 12930 H 1277.29 -3.77435 1.96018 0
M  V30 12931 N 1275.6 -0.99472 -1.22242 0
M  V30 12932 C 1276.83 -0.689096 -1.94769 0
M  V30 12933 C 1277.24 0.750597 -1.73674 0
M  V30 12934 O 1276.58 1.51836 -1.03399 0
M  V30 12935 C 1276.64 -0.917454 -3.47596 0
M  V30 12936 C 1276.31 -2.34198 -3.92429 0
M  V30 12937 C 1277.3 -3.3216 -3.99957 0
M  V30 12938 C 1274.99 -2.6769 -4.25026 0
M  V30 12939 C 1276.98 -4.61686 -4.3946 0
M  V30 12940 C 1274.67 -3.97435 -4.64208 0
M  V30 12941 C 1275.67 -4.94244 -4.71394 0
M  V30 12942 O 1275.36 -6.2167 -5.09688 0
M  V30 12943 H 1275.09 -0.253914 -0.626501 0
M  V30 12944 H 1277.64 -1.33271 -1.56294 0
M  V30 12945 H 1275.87 -0.21666 -3.86093 0
M  V30 12946 H 1277.56 -0.6068 -4.01339 0
M  V30 12947 H 1278.33 -3.07619 -3.74961 0
M  V30 12948 H 1274.21 -1.93039 -4.18637 0
M  V30 12949 H 1277.75 -5.37248 -4.44983 0
M  V30 12950 H 1273.65 -4.21765 -4.88656 0
M  V30 12951 H 1274.42 -6.25634 -5.27755 0
M  V30 12952 N 1277.08 1.37613 -0.768148 0
M  V30 12953 C 1278.49 1.82437 -0.396703 0
M  V30 12954 C 1278.84 1.64019 1.07668 0
M  V30 12955 O 1277.97 1.14932 1.83356 0
M  V30 12956 C 1278.56 3.31207 -0.713265 0
M  V30 12957 C 1277.12 3.74323 -0.39492 0
M  V30 12958 C 1276.27 2.60191 -0.958962 0
M  V30 12959 H 1279.22 1.26135 -0.963099 0
M  V30 12960 H 1279.24 3.805 0.00337228 0
M  V30 12961 H 1278.75 3.4458 -1.78567 0
M  V30 12962 H 1276.85 3.66521 0.670313 0
M  V30 12963 H 1276.96 4.70558 -0.900653 0
M  V30 12964 H 1275.33 2.51797 -0.383423 0
M  V30 12965 H 1276.11 2.76358 -2.03669 0
M  V30 12966 N 1278.56 0.518393 1.4883 0
M  V30 12967 C 1279.83 -0.0837498 1.95421 0
M  V30 12968 C 1280.21 -1.52435 1.46037 0
M  V30 12969 O 1279.56 -2.18093 0.681736 0
M  V30 12970 C 1279.77 0.0215333 3.48993 0
M  V30 12971 C 1281.12 -0.143615 4.24357 0
M  V30 12972 O 1282.14 -0.0528223 3.56161 0
M  V30 12973 O 1281 -0.332231 5.45489 0
M  V30 12974 H 1278.1 -0.0857132 0.822546 0
M  V30 12975 H 1280.64 0.582169 1.59402 0
M  V30 12976 H 1279.41 1.02549 3.77623 0
M  V30 12977 H 1279.04 -0.683756 3.91677 0
M  V30 12978 N 1280.03 -1.55556 0.252993 0
M  V30 12979 C 1281.28 -1.98697 -0.369319 0
M  V30 12980 C 1281.6 -1.14256 -1.58021 0
M  V30 12981 O 1280.87 -0.226779 -1.94583 0
M  V30 12982 H 1279.45 -0.733869 -0.139444 0
M  V30 12983 H 1282.12 -1.91673 0.353197 0
M  V30 12984 H 1281.21 -3.04728 -0.674312 0
M  V30 12985 N 1281.51 0.0200419 -1.57587 0
M  V30 12986 C 1282.74 0.720556 -1.93947 0
M  V30 12987 C 1283.16 1.68407 -0.853499 0
M  V30 12988 O 1282.51 1.81713 0.169337 0
M  V30 12989 C 1282.56 1.46982 -3.3027 0
M  V30 12990 O 1282.28 0.544971 -4.34697 0
M  V30 12991 C 1283.79 2.26667 -3.80968 0
M  V30 12992 H 1281.01 0.201956 -0.639887 0
M  V30 12993 H 1283.55 -0.0251175 -2.04485 0
M  V30 12994 H 1281.7 2.16729 -3.21103 0
M  V30 12995 H 1282.12 1.07139 -5.13441 0
M  V30 12996 H 1283.59 2.74621 -4.78839 0
M  V30 12997 H 1284.07 3.0848 -3.12629 0
M  V30 12998 H 1284.68 1.61976 -3.93248 0
M  V30 12999 N 1282.99 1.54862 0.292472 0
M  V30 13000 C 1283.94 1.86403 1.36098 0
M  V30 13001 C 1284.91 0.713694 1.49985 0
M  V30 13002 O 1286.09 0.963134 1.64707 0
M  V30 13003 C 1283.23 2.1244 2.71962 0
M  V30 13004 C 1282.35 3.40038 2.66454 0
M  V30 13005 C 1281.48 3.55875 3.94368 0
M  V30 13006 C 1280.52 4.77235 3.83293 0
M  V30 13007 N 1279.66 4.89832 5.03 0
M  V30 13008 H 1284.5 2.77546 1.085 0
M  V30 13009 H 1282.03 1.37427 0.524607 0
M  V30 13010 H 1283.99 2.25533 3.50985 0
M  V30 13011 H 1282.62 1.24554 2.97802 0
M  V30 13012 H 1281.67 3.35521 1.79248 0
M  V30 13013 H 1282.99 4.29188 2.54163 0
M  V30 13014 H 1282.14 3.68679 4.8183 0
M  V30 13015 H 1280.88 2.64874 4.09503 0
M  V30 13016 H 1279.88 4.64455 2.94214 0
M  V30 13017 H 1281.11 5.69651 3.69695 0
M  V30 13018 H 1279.05 4.01756 5.18582 0
M  V30 13019 H 1278.97 5.72996 4.93165 0
M  V30 13020 H 1280.24 5.07001 5.92089 0
M  V30 13021 N 1284.47 -0.556076 1.47464 0
M  V30 13022 C 1285.75 -1.31689 1.44628 0
M  V30 13023 C 1286.13 -2.10609 0.143841 0
M  V30 13024 O 1285.47 -2.11097 -0.874662 0
M  V30 13025 C 1285.68 -2.22045 2.69253 0
M  V30 13026 C 1287.03 -2.83028 3.16513 0
M  V30 13027 O 1288.06 -2.32346 2.69988 0
M  V30 13028 O 1286.91 -3.75148 3.97399 0
M  V30 13029 H 1284.01 -0.593026 0.576411 0
M  V30 13030 H 1286.55 -0.574885 1.59666 0
M  V30 13031 H 1285.33 -1.63337 3.5558 0
M  V30 13032 H 1284.95 -3.03539 2.56807 0
M  V30 13033 N 1285.95 -1.35615 -0.802897 0
M  V30 13034 C 1287.18 -1.32217 -1.59142 0
M  V30 13035 C 1287.59 0.0995496 -1.88537 0
M  V30 13036 O 1286.95 1.05258 -1.49087 0
M  V30 13037 C 1287 -2.13048 -2.92049 0
M  V30 13038 O 1286.72 -3.49677 -2.63927 0
M  V30 13039 C 1288.22 -2.17278 -3.864 0
M  V30 13040 H 1285.44 -0.454054 -0.49404 0
M  V30 13041 H 1287.98 -1.78521 -0.997516 0
M  V30 13042 H 1286.14 -1.70334 -3.47944 0
M  V30 13043 H 1286.55 -3.917 -3.48814 0
M  V30 13044 H 1288.03 -2.7822 -4.76758 0
M  V30 13045 H 1288.5 -1.17253 -4.23259 0
M  V30 13046 H 1289.11 -2.6017 -3.3644 0
M  V30 13047 N 1287.43 1.02549 -1.19673 0
M  V30 13048 C 1288.67 1.76265 -1.00293 0
M  V30 13049 C 1289 1.88555 0.464816 0
M  V30 13050 O 1288.28 1.40484 1.34515 0
M  V30 13051 C 1288.56 3.18688 -1.6766 0
M  V30 13052 C 1288.42 3.14247 -3.21821 0
M  V30 13053 C 1289.73 4.17159 -1.40238 0
M  V30 13054 H 1286.85 0.639837 -0.365756 0
M  V30 13055 H 1289.5 1.19691 -1.4756 0
M  V30 13056 H 1287.65 3.66992 -1.27472 0
M  V30 13057 H 1289.32 2.73815 -3.71245 0
M  V30 13058 H 1287.56 2.51874 -3.53188 0
M  V30 13059 H 1288.23 4.14886 -3.64107 0
M  V30 13060 H 1290.71 3.77471 -1.75086 0
M  V30 13061 H 1289.58 5.14997 -1.89919 0
M  V30 13062 H 1289.84 4.4088 -0.328197 0
M  V30 13063 N 1288.9 1.00119 1.21713 0
M  V30 13064 C 1289.81 0.567582 2.27631 0
M  V30 13065 C 1290.83 -0.387593 1.69628 0
M  V30 13066 O 1292.01 -0.252372 1.99813 0
M  V30 13067 C 1289.07 -0.102745 3.46548 0
M  V30 13068 C 1288.13 0.896433 4.19836 0
M  V30 13069 C 1287.36 0.258 5.33076 0
M  V30 13070 O 1287.59 -0.946118 5.62499 0
M  V30 13071 O 1286.52 0.967021 5.94081 0
M  V30 13072 H 1290.35 1.44898 2.66905 0
M  V30 13073 H 1287.93 0.769862 1.28037 0
M  V30 13074 H 1289.81 -0.477846 4.18682 0
M  V30 13075 H 1288.49 -0.958576 3.09181 0
M  V30 13076 H 1287.4 1.32262 3.49939 0
M  V30 13077 H 1288.73 1.72173 4.61104 0
M  V30 13078 N 1290.38 -1.37203 0.775435 0
M  V30 13079 C 1291.63 -1.99897 0.341936 0
M  V30 13080 C 1291.96 -1.61414 -1.07978 0
M  V30 13081 O 1291.24 -0.862108 -1.7435 0
M  V30 13082 C 1291.52 -3.56755 0.489715 0
M  V30 13083 C 1291.37 -4.05135 1.95411 0
M  V30 13084 C 1292.69 -4.39978 -0.103779 0
M  V30 13085 H 1289.81 -0.726199 0.125717 0
M  V30 13086 H 1292.45 -1.62826 0.979167 0
M  V30 13087 H 1290.6 -3.88464 -0.0527684 0
M  V30 13088 H 1292.27 -3.83975 2.55658 0
M  V30 13089 H 1290.52 -3.57192 2.46164 0
M  V30 13090 H 1291.19 -5.14161 2.00855 0
M  V30 13091 H 1293.66 -4.14547 0.359134 0
M  V30 13092 H 1292.54 -5.48892 0.0297337 0
M  V30 13093 H 1292.8 -4.25658 -1.19448 0
M  V30 13094 N 1291.86 -0.526279 -1.48553 0
M  V30 13095 C 1293.09 0.0052277 -2.06899 0
M  V30 13096 C 1293.5 1.2849 -1.38332 0
M  V30 13097 O 1292.86 1.76354 -0.469648 0
M  V30 13098 C 1292.91 0.236709 -3.60724 0
M  V30 13099 O 1292.63 -0.992256 -4.26715 0
M  V30 13100 C 1294.13 0.809014 -4.35855 0
M  V30 13101 H 1291.35 -0.0318426 -0.670244 0
M  V30 13102 H 1293.9 -0.730865 -1.90994 0
M  V30 13103 H 1292.05 0.922842 -3.76248 0
M  V30 13104 H 1292.47 -0.770697 -5.18807 0
M  V30 13105 H 1293.94 0.920428 -5.44272 0
M  V30 13106 H 1294.42 1.81302 -4.00033 0
M  V30 13107 H 1295.02 0.159564 -4.25001 0
M  V30 13108 N 1293.34 1.5542 -0.261239 0
M  V30 13109 C 1294.58 1.99579 0.36002 0
M  V30 13110 C 1294.92 1.14933 1.56538 0
M  V30 13111 O 1294.19 0.216082 1.93296 0
M  V30 13112 C 1294.47 3.52078 0.755842 0
M  V30 13113 C 1294.33 4.47484 -0.455896 0
M  V30 13114 C 1295.65 4.10083 1.5975 0
M  V30 13115 H 1292.77 0.725554 0.129385 0
M  V30 13116 H 1295.41 1.86453 -0.365415 0
M  V30 13117 H 1293.56 3.63394 1.37393 0
M  V30 13118 H 1295.23 4.4813 -1.09441 0
M  V30 13119 H 1293.47 4.19714 -1.09646 0
M  V30 13120 H 1294.14 5.51834 -0.13539 0
M  V30 13121 H 1296.62 4.01957 1.07562 0
M  V30 13122 H 1295.5 5.17024 1.84329 0
M  V30 13123 H 1295.76 3.59438 2.57404 0
M  V30 13124 N 1294.82 -0.0116844 1.57596 0
M  V30 13125 C 1295.77 -1.01509 2.04157 0
M  V30 13126 C 1296.75 -1.31011 0.934076 0
M  V30 13127 O 1297.94 -1.30305 1.1979 0
M  V30 13128 C 1295.07 -2.31081 2.53883 0
M  V30 13129 C 1294.16 -2.04594 3.71486 0
M  V30 13130 N 1294.55 -1.48224 4.83594 0
M  V30 13131 C 1292.85 -2.34795 3.79193 0
M  V30 13132 C 1293.55 -1.37941 5.65108 0
M  V30 13133 N 1292.52 -1.861 5.10752 0
M  V30 13134 H 1296.32 -0.573556 2.88249 0
M  V30 13135 H 1293.84 -0.217632 1.60935 0
M  V30 13136 H 1295.84 -3.03793 2.85509 0
M  V30 13137 H 1294.5 -2.75897 1.71204 0
M  V30 13138 H 1295.51 -1.16261 5.04682 0
M  V30 13139 H 1292.18 -2.82566 3.07348 0
M  V30 13140 H 1293.57 -0.946997 6.65193 0
M  V30 13141 N 1296.29 -1.55015 -0.284256 0
M  V30 13142 C 1297.54 -1.7535 -1.01884 0
M  V30 13143 C 1297.87 -0.546825 -1.86342 0
M  V30 13144 O 1297.15 0.455832 -1.89083 0
M  V30 13145 C 1297.43 -3.05219 -1.91084 0
M  V30 13146 C 1297.28 -4.36219 -1.09694 0
M  V30 13147 C 1298.6 -3.31056 -2.89983 0
M  V30 13148 H 1295.72 -0.637981 -0.368984 0
M  V30 13149 H 1298.36 -1.87741 -0.292116 0
M  V30 13150 H 1296.51 -2.94786 -2.53048 0
M  V30 13151 H 1298.19 -4.58594 -0.498876 0
M  V30 13152 H 1296.43 -4.31951 -0.400078 0
M  V30 13153 H 1297.1 -5.23392 -1.75399 0
M  V30 13154 H 1299.58 -3.41209 -2.38151 0
M  V30 13155 H 1298.45 -4.23212 -3.49547 0
M  V30 13156 H 1298.71 -2.50153 -3.64521 0
M  V30 13157 N 1297.77 0.548248 -1.47757 0
M  V30 13158 C 1299 1.3302 -1.58472 0
M  V30 13159 C 1299.41 1.87292 -0.238186 0
M  V30 13160 O 1298.77 1.65465 0.76991 0
M  V30 13161 C 1298.82 2.49386 -2.61704 0
M  V30 13162 O 1298.54 1.97355 -3.9113 0
M  V30 13163 C 1300.04 3.41471 -2.82688 0
M  V30 13164 H 1297.26 0.405172 -0.534861 0
M  V30 13165 H 1299.81 0.663251 -1.93446 0
M  V30 13166 H 1297.96 3.12001 -2.29639 0
M  V30 13167 H 1298.38 2.7339 -4.47614 0
M  V30 13168 H 1299.85 4.19516 -3.58762 0
M  V30 13169 H 1300.33 3.95573 -1.90837 0
M  V30 13170 H 1300.93 2.84664 -3.15985 0
M  V30 13171 N 1299.25 1.36039 0.795694 0
M  V30 13172 C 1300.66 1.2679 1.37044 0
M  V30 13173 C 1301.01 -0.0950192 1.9597 0
M  V30 13174 O 1300.14 -0.996311 1.921 0
M  V30 13175 C 1300.73 2.29585 2.49151 0
M  V30 13176 C 1299.29 2.24044 3.02458 0
M  V30 13177 C 1298.44 2.14703 1.75493 0
M  V30 13178 H 1301.39 1.47009 0.597843 0
M  V30 13179 H 1301.41 1.92864 3.27999 0
M  V30 13180 H 1300.92 3.28769 2.06234 0
M  V30 13181 H 1299.02 1.28307 3.49812 0
M  V30 13182 H 1299.14 3.1647 3.597 0
M  V30 13183 H 1297.5 1.60856 1.97478 0
M  V30 13184 H 1298.28 3.15765 1.34713 0
M  V30 13185 N 1300.73 -1.01913 1.20215 0
M  V30 13186 C 1301.68 -2.104 0.948708 0
M  V30 13187 C 1302.65 -1.65665 -0.120139 0
M  V30 13188 O 1303.83 -1.90785 0.0240547 0
M  V30 13189 C 1300.97 -3.41398 0.504132 0
M  V30 13190 C 1300.08 -3.99625 1.64085 0
M  V30 13191 C 1299.22 -5.18673 1.14683 0
M  V30 13192 C 1298.26 -5.68977 2.2568 0
M  V30 13193 N 1297.39 -6.79289 1.77514 0
M  V30 13194 H 1302.23 -2.31415 1.87753 0
M  V30 13195 H 1299.77 -1.13487 0.935901 0
M  V30 13196 H 1301.73 -4.16578 0.22771 0
M  V30 13197 H 1300.36 -3.20463 -0.387689 0
M  V30 13198 H 1299.41 -3.21565 2.03225 0
M  V30 13199 H 1300.72 -4.32965 2.47674 0
M  V30 13200 H 1299.88 -6.01048 0.826223 0
M  V30 13201 H 1298.62 -4.86891 0.280797 0
M  V30 13202 H 1297.62 -4.85208 2.5856 0
M  V30 13203 H 1298.85 -6.02794 3.12755 0
M  V30 13204 H 1296.79 -6.49341 0.932338 0
M  V30 13205 H 1296.71 -7.11808 2.54686 0
M  V30 13206 H 1297.98 -7.65235 1.48446 0
M  V30 13207 N 1302.21 -1.00763 -1.2118 0
M  V30 13208 C 1303.62 -0.724746 -1.72059 0
M  V30 13209 C 1303.97 0.757413 -1.80991 0
M  V30 13210 O 1303.09 1.59152 -1.46627 0
M  V30 13211 C 1303.69 -1.30893 -3.12494 0
M  V30 13212 C 1302.25 -1.07511 -3.60719 0
M  V30 13213 C 1301.39 -1.42014 -2.38175 0
M  V30 13214 H 1304.35 -1.17821 -1.0632 0
M  V30 13215 H 1304.37 -0.694919 -3.741 0
M  V30 13216 H 1303.88 -2.38767 -3.05961 0
M  V30 13217 H 1301.98 -0.0136518 -3.72597 0
M  V30 13218 H 1302.09 -1.74885 -4.4604 0
M  V30 13219 H 1300.46 -0.838972 -2.40486 0
M  V30 13220 H 1301.24 -2.50924 -2.34291 0
M  V30 13221 N 1303.68 1.3679 -0.7827 0
M  V30 13222 C 1304.93 1.99712 -0.352533 0
M  V30 13223 C 1305.26 1.61984 1.0712 0
M  V30 13224 O 1304.54 0.871342 1.7389 0
M  V30 13225 C 1304.82 3.5649 -0.508628 0
M  V30 13226 C 1304.67 4.04093 -1.97557 0
M  V30 13227 C 1305.99 4.40026 0.0804447 0
M  V30 13228 H 1303.11 0.725522 -0.129566 0
M  V30 13229 H 1305.75 1.62305 -0.987788 0
M  V30 13230 H 1303.9 3.88487 0.0321664 0
M  V30 13231 H 1305.58 3.82613 -2.57691 0
M  V30 13232 H 1303.82 3.55881 -2.48055 0
M  V30 13233 H 1304.49 5.13088 -2.03579 0
M  V30 13234 H 1306.97 4.14351 -0.381113 0
M  V30 13235 H 1305.84 5.48868 -0.0588424 0
M  V30 13236 H 1306.1 4.26285 1.17189 0
M  V30 13237 N 1305.16 0.53415 1.48272 0
M  V30 13238 C 1306.57 0.0947592 1.86459 0
M  V30 13239 C 1306.92 -1.32906 1.44328 0
M  V30 13240 O 1306.05 -1.99605 0.835866 0
M  V30 13241 C 1306.64 0.16519 3.38397 0
M  V30 13242 C 1305.2 -0.219029 3.75762 0
M  V30 13243 C 1304.35 0.523097 2.72321 0
M  V30 13244 H 1307.3 0.74517 1.40117 0
M  V30 13245 H 1307.32 -0.622065 3.75381 0
M  V30 13246 H 1306.83 1.20157 3.69031 0
M  V30 13247 H 1304.94 -1.2574 3.50742 0
M  V30 13248 H 1305.05 0.123482 4.78941 0
M  V30 13249 H 1303.41 -0.0311323 2.54681 0
M  V30 13250 H 1304.2 1.56019 3.05799 0
M  V30 13251 N 1306.64 -1.55279 0.269478 0
M  V30 13252 C 1307.92 -1.91458 -0.400412 0
M  V30 13253 C 1308.3 -1.19306 -1.74153 0
M  V30 13254 O 1307.65 -0.318017 -2.26276 0
M  V30 13255 C 1307.86 -3.44698 -0.546258 0
M  V30 13256 C 1309.2 -4.16374 -0.831758 0
M  V30 13257 O 1310.23 -3.50561 -0.631279 0
M  V30 13258 O 1309.09 -5.32826 -1.21484 0
M  V30 13259 H 1306.18 -0.79766 -0.218328 0
M  V30 13260 H 1308.73 -1.66747 0.315214 0
M  V30 13261 H 1307.5 -3.89273 0.397784 0
M  V30 13262 H 1307.12 -3.75345 -1.31157 0
M  V30 13263 N 1308.12 0.00332656 -1.576 0
M  V30 13264 C 1309.07 0.99581 -2.08212 0
M  V30 13265 C 1310.04 1.34342 -0.976804 0
M  V30 13266 O 1311.22 1.44236 -1.24902 0
M  V30 13267 C 1308.36 2.2836 -2.58739 0
M  V30 13268 C 1307.47 1.99531 -3.8316 0
M  V30 13269 C 1306.61 3.22367 -4.222 0
M  V30 13270 C 1305.65 2.89209 -5.39467 0
M  V30 13271 N 1304.78 4.04572 -5.73817 0
M  V30 13272 H 1309.62 0.55727 -2.92743 0
M  V30 13273 H 1307.16 0.263513 -1.4472 0
M  V30 13274 H 1309.12 3.03639 -2.86111 0
M  V30 13275 H 1307.75 2.69889 -1.77087 0
M  V30 13276 H 1306.8 1.14634 -3.62716 0
M  V30 13277 H 1308.11 1.71089 -4.6854 0
M  V30 13278 H 1307.27 4.05994 -4.50837 0
M  V30 13279 H 1306.01 3.53944 -3.35522 0
M  V30 13280 H 1305.01 2.03989 -5.10557 0
M  V30 13281 H 1306.24 2.58883 -6.27819 0
M  V30 13282 H 1304.18 4.36052 -4.90096 0
M  V30 13283 H 1304.1 3.79643 -6.53764 0
M  V30 13284 H 1305.37 4.88998 -6.07043 0
M  V30 13285 N 1309.6 1.55164 0.276031 0
M  V30 13286 C 1310.87 1.66338 1.02913 0
M  V30 13287 C 1311.25 0.527876 2.04393 0
M  V30 13288 O 1310.6 -0.472437 2.23563 0
M  V30 13289 C 1310.81 3.05427 1.68865 0
M  V30 13290 C 1312.16 3.63075 2.2014 0
M  V30 13291 O 1313.18 3.0804 1.78857 0
M  V30 13292 O 1312.04 4.59492 2.95854 0
M  V30 13293 H 1309.14 0.675446 0.477181 0
M  V30 13294 H 1311.68 1.67504 0.272129 0
M  V30 13295 H 1310.45 3.79514 0.953125 0
M  V30 13296 H 1310.08 3.08147 2.5126 0
M  V30 13297 N 1311.07 -0.540404 1.48045 0
M  V30 13298 C 1312.02 -1.64598 1.61791 0
M  V30 13299 C 1312.99 -1.59595 0.460301 0
M  V30 13300 O 1314.18 -1.78176 0.682482 0
M  V30 13301 C 1311.32 -3.02887 1.65389 0
M  V30 13302 C 1310.43 -3.18202 2.92184 0
M  V30 13303 C 1309.56 -4.46989 2.87009 0
M  V30 13304 C 1308.6 -4.55795 4.08555 0
M  V30 13305 N 1307.74 -5.75958 4.01518 0
M  V30 13306 H 1312.58 -1.52188 2.56208 0
M  V30 13307 H 1310.12 -0.741097 1.27068 0
M  V30 13308 H 1312.08 -3.82988 1.65457 0
M  V30 13309 H 1310.71 -3.14092 0.744703 0
M  V30 13310 H 1309.76 -2.31422 3.01907 0
M  V30 13311 H 1311.07 -3.20571 3.82146 0
M  V30 13312 H 1310.22 -5.35369 2.85421 0
M  V30 13313 H 1308.96 -4.47125 1.94759 0
M  V30 13314 H 1307.97 -3.65824 4.1043 0
M  V30 13315 H 1309.19 -4.57406 5.01953 0
M  V30 13316 H 1307.14 -5.77011 3.12081 0
M  V30 13317 H 1307.06 -5.79777 4.85175 0
M  V30 13318 H 1308.32 -6.66653 4.03972 0
M  V30 13319 N 1312.55 -1.36459 -0.788468 0
M  V30 13320 C 1313.78 -1.33703 -1.57502 0
M  V30 13321 C 1314.19 0.0834961 -1.89016 0
M  V30 13322 O 1313.53 1.05107 -1.50659 0
M  V30 13323 C 1313.6 -2.09424 -2.92201 0
M  V30 13324 C 1313.26 -3.58507 -2.83411 0
M  V30 13325 C 1314.26 -4.52736 -2.5559 0
M  V30 13326 C 1311.94 -4.01405 -3.01959 0
M  V30 13327 C 1313.94 -5.87841 -2.46419 0
M  V30 13328 C 1311.62 -5.366 -2.92409 0
M  V30 13329 C 1312.62 -6.29631 -2.64677 0
M  V30 13330 O 1312.31 -7.62343 -2.55124 0
M  V30 13331 H 1312.04 -0.460221 -0.495149 0
M  V30 13332 H 1314.59 -1.80163 -0.986437 0
M  V30 13333 H 1312.82 -1.5763 -3.53114 0
M  V30 13334 H 1314.51 -1.99515 -3.53481 0
M  V30 13335 H 1315.28 -4.20906 -2.40962 0
M  V30 13336 H 1311.16 -3.29367 -3.2255 0
M  V30 13337 H 1314.7 -6.60423 -2.24694 0
M  V30 13338 H 1310.6 -5.68038 -3.066 0
M  V30 13339 H 1311.37 -7.72476 -2.70598 0
M  V30 13340 N 1314.03 1.01274 -1.20754 0
M  V30 13341 C 1315.31 1.7213 -0.929008 0
M  V30 13342 C 1315.69 2.03503 0.561217 0
M  V30 13343 O 1315.04 1.70259 1.52395 0
M  V30 13344 C 1315.25 2.98636 -1.80603 0
M  V30 13345 C 1316.59 3.71823 -2.0502 0
M  V30 13346 O 1317.62 3.08601 -1.77888 0
M  V30 13347 O 1316.48 4.8552 -2.50864 0
M  V30 13348 H 1313.57 0.750361 -0.347689 0
M  V30 13349 H 1316.12 1.07086 -1.31646 0
M  V30 13350 H 1314.89 2.71803 -2.81494 0
M  V30 13351 H 1314.51 3.7142 -1.4189 0
M  V30 13352 N 1315.51 1.01404 1.20644 0
M  V30 13353 C 1316.92 0.73386 1.71672 0
M  V30 13354 C 1317.27 -0.747803 1.8139 0
M  V30 13355 O 1316.4 -1.58372 1.47469 0
M  V30 13356 C 1316.99 1.32549 3.11795 0
M  V30 13357 C 1315.55 1.09423 3.60144 0
M  V30 13358 C 1314.7 1.43275 2.37419 0
M  V30 13359 H 1317.65 1.18383 1.05694 0
M  V30 13360 H 1317.67 0.714749 3.73727 0
M  V30 13361 H 1317.18 2.40386 3.0469 0
M  V30 13362 H 1315.28 0.0334113 3.72585 0
M  V30 13363 H 1315.4 1.77248 4.45107 0
M  V30 13364 H 1313.76 0.851714 2.40037 0
M  V30 13365 H 1314.54 2.52163 2.32957 0
M  V30 13366 N 1316.99 -1.36373 0.789944 0
M  V30 13367 C 1318.22 -2.03482 0.37453 0
M  V30 13368 C 1318.63 -1.59562 -1.00923 0
M  V30 13369 O 1317.99 -0.785289 -1.64741 0
M  V30 13370 C 1318.04 -3.58942 0.429255 0
M  V30 13371 O 1317.76 -4.01261 1.75845 0
M  V30 13372 C 1319.26 -4.433 0.00453729 0
M  V30 13373 H 1316.48 -0.653019 0.154295 0
M  V30 13374 H 1319.02 -1.74339 1.06894 0
M  V30 13375 H 1317.18 -3.86793 -0.21674 0
M  V30 13376 H 1317.59 -4.95854 1.70964 0
M  V30 13377 H 1319.07 -5.5192 0.0939653 0
M  V30 13378 H 1319.54 -4.26509 -1.04816 0
M  V30 13379 H 1320.15 -4.20712 0.623041 0
M  V30 13380 N 1318.47 -0.542005 -1.47987 0
M  V30 13381 C 1319.71 -0.0122873 -2.02096 0
M  V30 13382 C 1320.03 1.3362 -1.42024 0
M  V30 13383 O 1319.3 1.86807 -0.589911 0
M  V30 13384 H 1317.88 -0.00155365 -0.746998 0
M  V30 13385 H 1320.55 -0.708566 -1.81564 0
M  V30 13386 H 1319.64 0.0871275 -3.11978 0
M  V30 13387 N 1319.94 1.55134 -0.277709 0
M  V30 13388 C 1321.19 1.99259 0.337662 0
M  V30 13389 C 1321.51 1.16755 1.56183 0
M  V30 13390 O 1320.78 0.257707 1.94198 0
M  V30 13391 H 1319.36 0.735995 0.127751 0
M  V30 13392 H 1322.02 1.91087 -0.383646 0
M  V30 13393 H 1321.12 3.05763 0.625747 0
M  V30 13394 N 1321.42 0.00503138 1.57599 0
M  V30 13395 C 1322.33 -1.00097 2.12174 0
M  V30 13396 C 1323.35 -1.37353 1.06818 0
M  V30 13397 O 1324.52 -1.45984 1.38747 0
M  V30 13398 C 1321.59 -2.27252 2.61835 0
M  V30 13399 C 1320.65 -1.96262 3.81811 0
M  V30 13400 C 1319.88 -3.17355 4.29094 0
M  V30 13401 O 1320.11 -4.2921 3.75679 0
M  V30 13402 O 1319.04 -3.01059 5.21198 0
M  V30 13403 H 1322.87 -0.567024 2.9836 0
M  V30 13404 H 1320.45 -0.214109 1.47858 0
M  V30 13405 H 1322.33 -3.01944 2.93952 0
M  V30 13406 H 1321.01 -2.69875 1.78744 0
M  V30 13407 H 1319.91 -1.19031 3.54658 0
M  V30 13408 H 1321.25 -1.58473 4.65991 0
M  V30 13409 N 1322.9 -1.55308 -0.267798 0
M  V30 13410 C 1324.13 -1.80191 -1.01681 0
M  V30 13411 C 1324.54 -0.57783 -1.7974 0
M  V30 13412 O 1323.9 0.4532 -1.76783 0
M  V30 13413 C 1323.95 -3.03023 -1.97127 0
M  V30 13414 O 1323.67 -4.20704 -1.22229 0
M  V30 13415 C 1325.17 -3.40549 -2.83798 0
M  V30 13416 H 1322.39 -0.60013 -0.300142 0
M  V30 13417 H 1324.94 -2.02332 -0.297007 0
M  V30 13418 H 1323.09 -2.82993 -2.64563 0
M  V30 13419 H 1323.51 -4.90181 -1.86608 0
M  V30 13420 H 1324.98 -4.29653 -3.46557 0
M  V30 13421 H 1325.46 -2.60186 -3.53836 0
M  V30 13422 H 1326.06 -3.62856 -2.21846 0
M  V30 13423 N 1324.38 0.532545 -1.4833 0
M  V30 13424 C 1325.61 1.31331 -1.59874 0
M  V30 13425 C 1326.02 1.87028 -0.258037 0
M  V30 13426 O 1325.38 1.66272 0.752317 0
M  V30 13427 C 1325.43 2.46596 -2.64334 0
M  V30 13428 O 1325.15 1.93195 -3.93201 0
M  V30 13429 C 1326.65 3.38454 -2.86294 0
M  V30 13430 H 1323.87 0.399476 -0.539129 0
M  V30 13431 H 1326.41 0.642696 -1.94138 0
M  V30 13432 H 1324.57 3.09548 -2.32936 0
M  V30 13433 H 1324.98 2.68627 -4.50489 0
M  V30 13434 H 1326.46 4.15687 -3.63192 0
M  V30 13435 H 1326.93 3.93526 -1.95022 0
M  V30 13436 H 1327.54 2.81297 -3.18986 0
M  V30 13437 N 1325.86 1.36875 0.78122 0
M  V30 13438 C 1327.1 1.31754 1.54171 0
M  V30 13439 C 1327.43 -0.100632 1.93939 0
M  V30 13440 O 1326.71 -1.05587 1.63345 0
M  V30 13441 C 1326.99 2.24789 2.81322 0
M  V30 13442 C 1326.85 3.75342 2.47868 0
M  V30 13443 C 1328.16 2.16442 3.83198 0
M  V30 13444 H 1325.28 0.479931 0.559317 0
M  V30 13445 H 1327.93 1.67497 0.896935 0
M  V30 13446 H 1326.08 1.94438 3.36342 0
M  V30 13447 H 1327.75 4.16247 1.98836 0
M  V30 13448 H 1325.99 3.94375 1.80696 0
M  V30 13449 H 1326.66 4.3586 3.38719 0
M  V30 13450 H 1329.14 2.43175 3.37647 0
M  V30 13451 H 1328.01 2.83695 4.69903 0
M  V30 13452 H 1328.27 1.15431 4.26765 0
M  V30 13453 N 1327.33 -1.00632 1.21289 0
M  V30 13454 C 1328.74 -1.55838 1.02817 0
M  V30 13455 C 1329.1 -1.91816 -0.412425 0
M  V30 13456 O 1328.22 -1.73342 -1.29543 0
M  V30 13457 C 1328.82 -2.83168 1.86014 0
M  V30 13458 C 1327.37 -3.34865 1.71879 0
M  V30 13459 C 1326.52 -2.0807 1.83309 0
M  V30 13460 H 1329.47 -0.828939 1.3533 0
M  V30 13461 H 1329.49 -3.54996 1.36961 0
M  V30 13462 H 1329.01 -2.56951 2.90857 0
M  V30 13463 H 1327.11 -3.6602 0.697153 0
M  V30 13464 H 1327.22 -4.06374 2.53766 0
M  V30 13465 H 1325.58 -2.21006 1.26603 0
M  V30 13466 H 1326.37 -1.84267 2.89656 0
M  V30 13467 N 1328.81 -1.02043 -1.20104 0
M  V30 13468 C 1329.74 -0.552093 -2.22451 0
M  V30 13469 C 1330.76 0.367547 -1.58597 0
M  V30 13470 O 1331.95 0.165285 -1.77733 0
M  V30 13471 C 1329.05 0.215833 -3.38212 0
M  V30 13472 C 1328.22 -0.70666 -4.31654 0
M  V30 13473 C 1327.28 0.0143628 -5.26198 0
M  V30 13474 O 1326.3 -0.609413 -5.65928 0
M  V30 13475 N 1327.51 1.28794 -5.66032 0
M  V30 13476 H 1330.27 -1.43229 -2.6326 0
M  V30 13477 H 1327.83 -0.89842 -1.34685 0
M  V30 13478 H 1329.82 0.707523 -3.98467 0
M  V30 13479 H 1328.39 0.997358 -2.96263 0
M  V30 13480 H 1327.61 -1.37859 -3.69308 0
M  V30 13481 H 1328.9 -1.33392 -4.91003 0
M  V30 13482 H 1328.3 1.8156 -5.35773 0
M  V30 13483 H 1326.86 1.72429 -6.28579 0
M  V30 13484 N 1330.29 1.35952 -0.797165 0
M  V30 13485 C 1331.54 1.98639 -0.372405 0
M  V30 13486 C 1331.86 1.63571 1.06158 0
M  V30 13487 O 1331.13 0.913516 1.73297 0
M  V30 13488 H 1329.71 0.734753 -0.13471 0
M  V30 13489 H 1332.37 1.66022 -1.02092 0
M  V30 13490 H 1331.47 3.08533 -0.47049 0
M  V30 13491 N 1331.77 0.549846 1.47697 0
M  V30 13492 C 1333 0.0276889 2.06881 0
M  V30 13493 C 1333.41 -1.26273 1.40359 0
M  V30 13494 O 1332.77 -1.75584 0.497644 0
M  V30 13495 C 1332.82 -0.179291 3.61055 0
M  V30 13496 O 1332.54 1.06002 4.25083 0
M  V30 13497 C 1334.04 -0.739571 4.37087 0
M  V30 13498 H 1331.26 0.0425016 0.669653 0
M  V30 13499 H 1333.81 0.761158 1.89807 0
M  V30 13500 H 1331.96 -0.862867 3.77668 0
M  V30 13501 H 1332.37 0.853137 5.17515 0
M  V30 13502 H 1333.85 -0.833722 5.45668 0
M  V30 13503 H 1334.33 -1.74915 4.02867 0
M  V30 13504 H 1334.93 -0.0919294 4.25201 0
M  V30 13505 N 1333.25 -1.54984 0.285932 0
M  V30 13506 C 1334.66 -1.85519 -0.209707 0
M  V30 13507 C 1335.01 -1.20794 -1.54606 0
M  V30 13508 O 1334.13 -0.500159 -2.10541 0
M  V30 13509 C 1334.73 -3.36579 -0.387283 0
M  V30 13510 C 1333.29 -3.67199 -0.827148 0
M  V30 13511 C 1332.43 -2.77203 0.073308 0
M  V30 13512 H 1335.39 -1.5037 0.507404 0
M  V30 13513 H 1335.41 -3.60269 -1.2242 0
M  V30 13514 H 1334.92 -3.83658 0.585493 0
M  V30 13515 H 1333.02 -3.25627 -1.81101 0
M  V30 13516 H 1333.13 -4.74574 -0.656976 0
M  V30 13517 H 1331.5 -2.50785 -0.444859 0
M  V30 13518 H 1332.28 -3.27099 1.04216 0
M  V30 13519 N 1334.72 -0.0133892 -1.57594 0
M  V30 13520 C 1335.97 0.669624 -1.91426 0
M  V30 13521 C 1336.3 1.72675 -0.888656 0
M  V30 13522 O 1335.58 1.94288 0.0908138 0
M  V30 13523 C 1335.86 1.30051 -3.35796 0
M  V30 13524 C 1335.71 0.254021 -4.49082 0
M  V30 13525 C 1337.03 2.22297 -3.79832 0
M  V30 13526 H 1334.15 0.241958 -0.69615 0
M  V30 13527 H 1336.79 -0.0674278 -1.8988 0
M  V30 13528 H 1334.94 1.92871 -3.37243 0
M  V30 13529 H 1336.62 -0.375524 -4.59769 0
M  V30 13530 H 1334.86 -0.422267 -4.3174 0
M  V30 13531 H 1335.53 0.734756 -5.47088 0
M  V30 13532 H 1338.01 1.69481 -3.8002 0
M  V30 13533 H 1336.88 2.634 -4.81572 0
M  V30 13534 H 1337.14 3.10764 -3.14449 0
M  V30 13535 N 1336.2 1.55448 0.259558 0
M  V30 13536 C 1337.43 1.81063 1.01148 0
M  V30 13537 C 1337.85 0.58875 1.78649 0
M  V30 13538 O 1337.21 -0.461971 1.75315 0
M  V30 13539 C 1337.26 3.04279 1.93512 0
M  V30 13540 O 1336.36 2.80307 3.02493 0
M  V30 13541 H 1335.7 0.598056 0.288487 0
M  V30 13542 H 1338.23 2.02614 0.284387 0
M  V30 13543 H 1338.24 3.33373 2.35215 0
M  V30 13544 H 1336.92 3.92856 1.36518 0
M  V30 13545 H 1335.5 2.62345 2.65008 0
M  V30 13546 N 1337.68 -0.524672 1.4861 0
M  V30 13547 C 1338.96 -1.28592 1.47389 0
M  V30 13548 C 1339.34 -2.10257 0.188482 0
M  V30 13549 O 1338.69 -2.12905 -0.829689 0
M  V30 13550 C 1338.9 -2.16284 2.73902 0
M  V30 13551 C 1340.24 -2.7625 3.22445 0
M  V30 13552 O 1341.27 -2.26567 2.74856 0
M  V30 13553 O 1340.13 -3.66635 4.05267 0
M  V30 13554 H 1337.22 -0.580666 0.58886 0
M  V30 13555 H 1339.77 -0.540888 1.60849 0
M  V30 13556 H 1338.54 -1.55757 3.58964 0
M  V30 13557 H 1338.16 -2.98024 2.63188 0
M  V30 13558 N 1339.16 -1.37287 -0.77395 0
M  V30 13559 C 1340.11 -1.32872 -1.88716 0
M  V30 13560 C 1341.08 -0.194655 -1.64955 0
M  V30 13561 O 1342.26 -0.383662 -1.86903 0
M  V30 13562 C 1339.4 -1.13934 -3.2575 0
M  V30 13563 C 1338.51 -2.36552 -3.61479 0
M  V30 13564 C 1337.65 -2.10504 -4.87711 0
M  V30 13565 C 1336.69 -3.28999 -5.16165 0
M  V30 13566 N 1335.82 -3.02517 -6.33584 0
M  V30 13567 H 1340.66 -2.28051 -1.91825 0
M  V30 13568 H 1338.2 -1.13325 -0.93786 0
M  V30 13569 H 1340.16 -1.00976 -4.04796 0
M  V30 13570 H 1338.79 -0.22404 -3.22022 0
M  V30 13571 H 1337.84 -2.60257 -2.77435 0
M  V30 13572 H 1339.15 -3.24931 -3.78446 0
M  V30 13573 H 1338.31 -1.94564 -5.74656 0
M  V30 13574 H 1337.05 -1.19459 -4.72843 0
M  V30 13575 H 1336.05 -3.4548 -4.27696 0
M  V30 13576 H 1337.28 -4.20892 -5.32942 0
M  V30 13577 H 1335.22 -2.14099 -6.20079 0
M  V30 13578 H 1335.14 -3.84439 -6.50955 0
M  V30 13579 H 1336.41 -2.9019 -7.23471 0
M  V30 13580 N 1340.64 0.999871 -1.21821 0
M  V30 13581 C 1341.55 2.12303 -0.99823 0
M  V30 13582 C 1342.56 1.73924 0.0512923 0
M  V30 13583 O 1343.74 2.00914 -0.139895 0
M  V30 13584 C 1340.8 3.41962 -0.571232 0
M  V30 13585 C 1339.86 3.94483 -1.69356 0
M  V30 13586 C 1339.1 5.17954 -1.28685 0
M  V30 13587 O 1339.32 5.70168 -0.162641 0
M  V30 13588 O 1338.25 5.64051 -2.10071 0
M  V30 13589 H 1342.08 2.3374 -1.93905 0
M  V30 13590 H 1339.67 1.10677 -1.00354 0
M  V30 13591 H 1341.55 4.20001 -0.343134 0
M  V30 13592 H 1340.22 3.21901 0.340814 0
M  V30 13593 H 1339.13 3.17648 -1.97612 0
M  V30 13594 H 1340.46 4.18964 -2.58322 0
M  V30 13595 N 1342.11 1.02678 1.19562 0
M  V30 13596 C 1343.36 0.717279 1.88515 0
M  V30 13597 C 1343.68 -0.757063 1.80355 0
M  V30 13598 O 1344.88 -1.17953 2.44539 0
M  V30 13599 C 1343.34 1.23265 3.38133 0
M  V30 13600 C 1342.95 2.73462 3.54856 0
M  V30 13601 C 1344.69 0.99904 4.12577 0
M  V30 13602 C 1342.6 3.18428 4.98355 0
M  V30 13603 H 1341.53 0.264608 0.706044 0
M  V30 13604 H 1344.18 1.2408 1.3519 0
M  V30 13605 H 1342.56 0.637052 3.90842 0
M  V30 13606 H 1343.73 3.38659 3.12485 0
M  V30 13607 H 1342.05 2.95079 2.93798 0
M  V30 13608 H 1344.65 1.3103 5.18397 0
M  V30 13609 H 1344.99 -0.064217 4.1625 0
M  V30 13610 H 1345.52 1.55853 3.65998 0
M  V30 13611 H 1342.26 4.24074 4.99842 0
M  V30 13612 H 1341.78 2.57958 5.41496 0
M  V30 13613 H 1343.46 3.11649 5.66996 0
M  V30 13614 N 1343.59 -1.35528 0.804364 0
M  V30 13615 C 1344.82 -2.03073 0.396091 0
M  V30 13616 C 1345.24 -1.60623 -0.992252 0
M  V30 13617 O 1344.59 -0.802718 -1.63898 0
M  V30 13618 C 1344.64 -3.58467 0.467301 0
M  V30 13619 O 1344.36 -3.99373 1.80091 0
M  V30 13620 C 1345.87 -4.4327 0.0515549 0
M  V30 13621 H 1343.09 -0.651346 0.161212 0
M  V30 13622 H 1345.63 -1.73195 1.08737 0
M  V30 13623 H 1343.78 -3.87001 -0.175703 0
M  V30 13624 H 1344.2 -4.94013 1.76214 0
M  V30 13625 H 1345.67 -5.51789 0.152499 0
M  V30 13626 H 1346.15 -4.27597 -1.00286 0
M  V30 13627 H 1346.76 -4.20027 0.667628 0
M  V30 13628 N 1345.07 -0.557671 -1.47404 0
M  V30 13629 C 1346.35 0.031908 -1.95574 0
M  V30 13630 C 1346.73 1.48509 -1.50027 0
M  V30 13631 O 1346.08 2.16209 -0.73932 0
M  V30 13632 C 1346.29 -0.114055 -3.48814 0
M  V30 13633 C 1347.63 0.0310533 -4.24589 0
M  V30 13634 O 1348.66 -0.041626 -3.56176 0
M  V30 13635 O 1347.52 0.187487 -5.46178 0
M  V30 13636 H 1344.61 0.0638747 -0.82453 0
M  V30 13637 H 1347.16 -0.624227 -1.57802 0
M  V30 13638 H 1345.93 -1.12525 -3.74772 0
M  V30 13639 H 1345.55 0.57967 -3.93352 0
M  V30 13640 N 1346.55 1.54831 -0.294147 0
M  V30 13641 C 1347.48 2.26226 0.57827 0
M  V30 13642 C 1348.46 1.25928 1.14351 0
M  V30 13643 O 1349.65 1.54687 1.17412 0
M  V30 13644 C 1346.78 2.99783 1.75349 0
M  V30 13645 C 1345.73 4.07171 1.31892 0
M  V30 13646 C 1345.06 4.68406 2.57876 0
M  V30 13647 C 1346.36 5.20313 0.455167 0
M  V30 13648 H 1348.05 2.99395 -0.0171936 0
M  V30 13649 H 1345.6 1.43997 -0.00970944 0
M  V30 13650 H 1347.55 3.48448 2.36986 0
M  V30 13651 H 1346.27 2.24181 2.37509 0
M  V30 13652 H 1344.93 3.59346 0.725653 0
M  V30 13653 H 1344.58 3.89451 3.18335 0
M  V30 13654 H 1344.28 5.40927 2.29502 0
M  V30 13655 H 1345.8 5.1983 3.20327 0
M  V30 13656 H 1347.22 5.64913 0.977026 0
M  V30 13657 H 1345.61 5.99512 0.265501 0
M  V30 13658 H 1346.68 4.82088 -0.521434 0
M  V30 13659 N 1348.03 0.0217466 1.57585 0
M  V30 13660 C 1349.27 -0.659463 1.91778 0
M  V30 13661 C 1349.61 -1.72201 0.897801 0
M  V30 13662 O 1348.88 -1.94333 -0.080509 0
M  V30 13663 C 1349.16 -1.28269 3.36481 0
M  V30 13664 C 1349.02 -0.230201 4.49211 0
M  V30 13665 C 1350.34 -2.20279 3.81005 0
M  V30 13666 H 1347.46 -0.238263 0.697424 0
M  V30 13667 H 1350.1 0.0774967 1.89842 0
M  V30 13668 H 1348.25 -1.9108 3.38262 0
M  V30 13669 H 1349.92 0.399901 4.59563 0
M  V30 13670 H 1348.16 0.445157 4.3151 0
M  V30 13671 H 1348.83 -0.705732 5.4747 0
M  V30 13672 H 1351.31 -1.67463 3.80914 0
M  V30 13673 H 1350.19 -2.60842 4.82962 0
M  V30 13674 H 1350.45 -3.09092 3.16093 0
M  V30 13675 N 1349.51 -1.55583 -0.251311 0
M  V30 13676 C 1350.45 -1.89946 -1.31108 0
M  V30 13677 C 1351.42 -0.753209 -1.4804 0
M  V30 13678 O 1352.61 -1.00646 -1.62095 0
M  V30 13679 C 1349.75 -2.19576 -2.66233 0
M  V30 13680 C 1348.86 -3.46983 -2.57345 0
M  V30 13681 C 1348 -3.66206 -3.84794 0
M  V30 13682 C 1347.03 -4.87229 -3.70505 0
M  V30 13683 N 1346.17 -5.02996 -4.89836 0
M  V30 13684 H 1351.01 -2.80325 -1.01104 0
M  V30 13685 H 1348.55 -1.3877 -0.487986 0
M  V30 13686 H 1350.51 -2.3476 -3.44882 0
M  V30 13687 H 1349.14 -1.32406 -2.94395 0
M  V30 13688 H 1348.19 -3.40156 -1.70289 0
M  V30 13689 H 1349.5 -4.35776 -2.42695 0
M  V30 13690 H 1348.65 -3.81324 -4.71886 0
M  V30 13691 H 1347.39 -2.75638 -4.02337 0
M  V30 13692 H 1346.4 -4.72092 -2.81797 0
M  V30 13693 H 1347.62 -5.79253 -3.54462 0
M  V30 13694 H 1345.57 -4.15364 -5.07748 0
M  V30 13695 H 1345.49 -5.8587 -4.778 0
M  V30 13696 H 1346.75 -5.22521 -5.78439 0
M  V30 13697 N 1350.98 0.516783 -1.48886 0
M  V30 13698 C 1352.23 1.26841 -1.56825 0
M  V30 13699 C 1352.55 1.93957 -0.252998 0
M  V30 13700 O 1353.75 2.70681 -0.210765 0
M  V30 13701 C 1352.21 2.30223 -2.76633 0
M  V30 13702 C 1351.82 1.69117 -4.14853 0
M  V30 13703 C 1353.56 3.06313 -2.93893 0
M  V30 13704 C 1351.47 2.70516 -5.25904 0
M  V30 13705 H 1350.4 0.477087 -0.58387 0
M  V30 13706 H 1353.05 0.544187 -1.75245 0
M  V30 13707 H 1351.43 3.05739 -2.51674 0
M  V30 13708 H 1352.6 0.997003 -4.49885 0
M  V30 13709 H 1350.92 1.05473 -4.0282 0
M  V30 13710 H 1353.52 3.8211 -3.74027 0
M  V30 13711 H 1353.86 3.62976 -2.03848 0
M  V30 13712 H 1354.39 2.37911 -3.18815 0
M  V30 13713 H 1351.13 2.18655 -6.17956 0
M  V30 13714 H 1350.65 3.38221 -4.95345 0
M  V30 13715 H 1352.33 3.3325 -5.54575 0
M  V30 13716 N 1352.46 1.37696 0.766659 0
M  V30 13717 C 1353.87 1.29668 1.34324 0
M  V30 13718 C 1354.22 -0.0534297 1.96127 0
M  V30 13719 O 1353.35 -0.95534 1.94171 0
M  V30 13720 C 1353.94 2.34818 2.44225 0
M  V30 13721 C 1352.5 2.3041 2.97638 0
M  V30 13722 C 1351.65 2.18378 1.70899 0
M  V30 13723 H 1354.6 1.48244 0.566526 0
M  V30 13724 H 1354.62 1.99778 3.23835 0
M  V30 13725 H 1354.13 3.3307 1.99214 0
M  V30 13726 H 1352.23 1.35698 3.47011 0
M  V30 13727 H 1352.35 3.24028 3.52906 0
M  V30 13728 H 1350.71 1.65008 1.94021 0
M  V30 13729 H 1351.49 3.18551 1.27985 0
M  V30 13730 N 1353.94 -0.993397 1.22349 0
M  V30 13731 C 1355.22 -1.7063 0.956275 0
M  V30 13732 C 1355.6 -2.0437 -0.52877 0
M  V30 13733 O 1354.94 -1.72662 -1.49667 0
M  V30 13734 C 1355.15 -2.95725 1.85331 0
M  V30 13735 C 1356.5 -3.68514 2.10909 0
M  V30 13736 O 1357.53 -3.05732 1.82775 0
M  V30 13737 O 1356.39 -4.81468 2.58556 0
M  V30 13738 H 1353.48 -0.744734 0.359583 0
M  V30 13739 H 1356.03 -1.04979 1.33333 0
M  V30 13740 H 1354.8 -2.6729 2.85782 0
M  V30 13741 H 1354.42 -3.69116 1.47781 0
M  V30 13742 N 1355.42 -1.03311 -1.19015 0
M  V30 13743 C 1356.67 -0.730593 -1.88432 0
M  V30 13744 C 1356.99 0.743392 -1.80274 0
M  V30 13745 O 1356.26 1.5359 -1.21601 0
M  V30 13746 H 1354.84 -0.267253 -0.697556 0
M  V30 13747 H 1357.5 -1.30824 -1.44468 0
M  V30 13748 H 1356.59 -1.02867 -2.9466 0
M  V30 13749 N 1356.9 1.35099 -0.81154 0
M  V30 13750 C 1358.12 2.03391 -0.405805 0
M  V30 13751 C 1358.55 1.60745 0.97686 0
M  V30 13752 O 1357.9 0.786518 1.63351 0
M  V30 13753 C 1357.95 3.57075 -0.502954 0
M  V30 13754 O 1357.06 4.09577 0.481681 0
M  V30 13755 H 1356.4 0.642203 -0.168733 0
M  V30 13756 H 1358.93 1.72591 -1.0988 0
M  V30 13757 H 1358.94 4.06277 -0.37456 0
M  V30 13758 H 1357.61 3.87463 -1.51145 0
M  V30 13759 H 1356.19 3.71583 0.313115 0
M  V30 13760 N 1358.37 0.56548 1.47106 0
M  V30 13761 C 1359.32 -0.177564 2.30116 0
M  V30 13762 C 1360.29 -0.900534 1.39569 0
M  V30 13763 O 1361.48 -0.894603 1.68527 0
M  V30 13764 C 1358.62 -1.19633 3.237 0
M  V30 13765 C 1357.73 -0.47858 4.29341 0
M  V30 13766 C 1356.86 -1.48336 5.10068 0
M  V30 13767 C 1355.9 -0.751049 6.07475 0
M  V30 13768 N 1355.04 -1.70306 6.81132 0
M  V30 13769 H 1359.88 0.536409 2.93132 0
M  V30 13770 H 1357.42 0.276352 1.44481 0
M  V30 13771 H 1359.37 -1.79967 3.76388 0
M  V30 13772 H 1358 -1.87823 2.6253 0
M  V30 13773 H 1357.06 0.239454 3.79646 0
M  V30 13774 H 1358.37 0.0947147 4.9871 0
M  V30 13775 H 1357.52 -2.16 5.66947 0
M  V30 13776 H 1356.26 -2.09058 4.4062 0
M  V30 13777 H 1355.27 -0.0605336 5.49767 0
M  V30 13778 H 1356.49 -0.14946 6.78936 0
M  V30 13779 H 1354.44 -2.2987 6.14407 0
M  V30 13780 H 1354.35 -1.18213 7.46701 0
M  V30 13781 H 1355.62 -2.37058 7.42579 0
M  V30 13782 N 1359.85 -1.54672 0.302354 0
M  V30 13783 C 1361.1 -1.99771 -0.305919 0
M  V30 13784 C 1361.42 -1.19225 -1.54306 0
M  V30 13785 O 1360.69 -0.288569 -1.93763 0
M  V30 13786 H 1359.27 -0.737934 -0.116026 0
M  V30 13787 H 1361.93 -1.90452 0.413997 0
M  V30 13788 H 1361.03 -3.06719 -0.577024 0
M  V30 13789 N 1361.33 -0.0301034 -1.57571 0
M  V30 13790 C 1362.58 0.649283 -1.92125 0
M  V30 13791 C 1362.91 1.71722 -0.90692 0
M  V30 13792 O 1362.18 1.94373 0.0702019 0
M  V30 13793 C 1362.47 1.26482 -3.37156 0
M  V30 13794 C 1362.32 0.206375 -4.49326 0
M  V30 13795 C 1363.64 2.18256 -3.82168 0
M  V30 13796 H 1360.76 0.234561 -0.698678 0
M  V30 13797 H 1363.4 -0.0875634 -1.89798 0
M  V30 13798 H 1361.55 1.89283 -3.3927 0
M  V30 13799 H 1363.22 -0.424268 -4.59345 0
M  V30 13800 H 1361.47 -0.468035 -4.31268 0
M  V30 13801 H 1362.14 0.676689 -5.47837 0
M  V30 13802 H 1364.61 1.65441 -3.81797 0
M  V30 13803 H 1363.49 2.58277 -4.84339 0
M  V30 13804 H 1363.75 3.07411 -3.17727 0
M  V30 13805 N 1362.81 1.55714 0.243056 0
M  V30 13806 C 1364.22 1.68126 0.811814 0
M  V30 13807 C 1364.57 0.628259 1.85869 0
M  V30 13808 O 1363.7 -0.224747 2.1523 0
M  V30 13809 C 1364.29 3.048 1.47928 0
M  V30 13810 C 1362.85 3.19138 1.99569 0
M  V30 13811 C 1362 2.64011 0.848149 0
M  V30 13812 H 1364.95 1.58689 0.0187918 0
M  V30 13813 H 1364.97 2.99459 2.34743 0
M  V30 13814 H 1364.48 3.81417 0.717106 0
M  V30 13815 H 1362.58 2.4735 2.78655 0
M  V30 13816 H 1362.69 4.26095 2.19043 0
M  V30 13817 H 1361.06 2.21934 1.2497 0
M  V30 13818 H 1361.84 3.43157 0.0989987 0
M  V30 13819 N 1364.29 -0.50888 1.49158 0
M  V30 13820 C 1365.51 -1.28771 1.61943 0
M  V30 13821 C 1365.93 -1.86594 0.287759 0
M  V30 13822 O 1365.29 -1.67448 -0.725769 0
M  V30 13823 C 1365.34 -2.4236 2.68224 0
M  V30 13824 O 1365.06 -1.86915 3.96225 0
M  V30 13825 C 1366.56 -3.33856 2.91642 0
M  V30 13826 H 1363.78 -0.390849 0.545416 0
M  V30 13827 H 1366.32 -0.611729 1.95136 0
M  V30 13828 H 1364.48 -3.05803 2.37831 0
M  V30 13829 H 1364.89 -2.61426 4.54705 0
M  V30 13830 H 1366.37 -4.09856 3.69759 0
M  V30 13831 H 1366.84 -3.90374 2.01258 0
M  V30 13832 H 1367.45 -2.76187 3.23421 0
M  V30 13833 N 1365.76 -1.381 -0.759346 0
M  V30 13834 C 1367.01 -1.3419 -1.52055 0
M  V30 13835 C 1367.34 0.0697657 -1.94075 0
M  V30 13836 O 1366.62 1.02975 -1.65004 0
M  V30 13837 C 1366.9 -2.29236 -2.7771 0
M  V30 13838 C 1366.75 -3.79237 -2.41866 0
M  V30 13839 C 1368.07 -2.22511 -3.79706 0
M  V30 13840 H 1365.19 -0.488768 -0.551611 0
M  V30 13841 H 1367.83 -1.68902 -0.870174 0
M  V30 13842 H 1365.98 -1.99764 -3.33206 0
M  V30 13843 H 1367.66 -4.19358 -1.92189 0
M  V30 13844 H 1365.9 -3.97199 -1.74399 0
M  V30 13845 H 1366.57 -4.41193 -3.31742 0
M  V30 13846 H 1369.05 -2.48516 -3.33735 0
M  V30 13847 H 1367.92 -2.91134 -4.6533 0
M  V30 13848 H 1368.18 -1.22206 -4.24874 0
M  V30 13849 N 1367.24 0.986894 -1.22875 0
M  V30 13850 C 1368.49 1.72985 -1.05849 0
M  V30 13851 C 1368.82 1.89939 0.404594 0
M  V30 13852 O 1368.1 1.44693 1.29978 0
M  V30 13853 C 1368.38 3.13193 -1.77714 0
M  V30 13854 C 1368.23 3.0385 -3.31655 0
M  V30 13855 C 1369.55 4.12486 -1.53438 0
M  V30 13856 H 1366.67 0.627877 -0.385926 0
M  V30 13857 H 1369.31 1.14936 -1.51294 0
M  V30 13858 H 1367.46 3.62751 -1.39083 0
M  V30 13859 H 1369.13 2.61866 -3.79768 0
M  V30 13860 H 1367.38 2.4051 -3.61023 0
M  V30 13861 H 1368.05 4.03092 -3.77122 0
M  V30 13862 H 1370.52 3.71709 -1.87007 0
M  V30 13863 H 1369.4 5.08694 -2.06207 0
M  V30 13864 H 1369.66 4.39613 -0.468294 0
M  V30 13865 N 1368.72 1.0394 1.18466 0
M  V30 13866 C 1369.97 0.740576 1.88042 0
M  V30 13867 C 1370.29 -0.733822 1.80666 0
M  V30 13868 O 1369.56 -1.52943 1.22414 0
M  V30 13869 H 1368.14 0.270949 0.696129 0
M  V30 13870 H 1370.8 1.31588 1.43772 0
M  V30 13871 H 1369.9 1.04429 2.94111 0
M  V30 13872 N 1370.2 -1.34667 0.818693 0
M  V30 13873 C 1371.48 -1.92838 0.327521 0
M  V30 13874 C 1371.86 -1.74732 -1.18457 0
M  V30 13875 O 1371.2 -1.12352 -1.98971 0
M  V30 13876 C 1371.41 -3.40797 0.752207 0
M  V30 13877 C 1372.76 -4.17948 0.748613 0
M  V30 13878 O 1373.79 -3.49364 0.694517 0
M  V30 13879 O 1372.64 -5.40344 0.817958 0
M  V30 13880 H 1369.74 -0.822249 0.0885148 0
M  V30 13881 H 1372.28 -1.43668 0.9032 0
M  V30 13882 H 1371.06 -3.47759 1.79387 0
M  V30 13883 H 1370.68 -3.97309 0.151992 0
M  V30 13884 N 1371.68 -0.573274 -1.46804 0
M  V30 13885 C 1373.09 -0.23423 -1.57872 0
M  V30 13886 C 1373.29 1.26342 -1.56971 0
M  V30 13887 O 1372.35 2.04459 -1.48165 0
M  V30 13888 C 1373.66 -0.875097 -2.87685 0
M  V30 13889 C 1375.21 -0.847812 -3.01299 0
M  V30 13890 C 1375.68 -1.46804 -4.33835 0
M  V30 13891 N 1377.18 -1.43196 -4.4051 0
M  V30 13892 C 1377.91 -1.88133 -5.41658 0
M  V30 13893 N 1377.41 -2.41001 -6.49531 0
M  V30 13894 N 1379.2 -1.79107 -5.32801 0
M  V30 13895 H 1371.35 -1.54612 -1.45633 0
M  V30 13896 H 1373.61 -0.645703 -0.694098 0
M  V30 13897 H 1373.32 -1.92826 -2.94127 0
M  V30 13898 H 1373.19 -0.377671 -3.75305 0
M  V30 13899 H 1375.58 0.196707 -2.94444 0
M  V30 13900 H 1375.66 -1.38316 -2.1518 0
M  V30 13901 H 1375.31 -2.51171 -4.41447 0
M  V30 13902 H 1375.24 -0.908 -5.18713 0
M  V30 13903 H 1377.73 -1.04541 -3.63152 0
M  V30 13904 H 1378.04 -2.73172 -7.22908 0
M  V30 13905 H 1376.38 -2.45021 -6.50377 0
M  V30 13906 H 1379.58 -1.37569 -4.47429 0
M  V30 13907 H 1379.75 -2.14445 -6.11488 0
M  V30 13908 N 1373.15 1.5451 -0.310553 0
M  V30 13909 C 1374.57 1.85829 0.180166 0
M  V30 13910 C 1374.92 1.23239 1.52665 0
M  V30 13911 O 1374.04 0.53359 2.09718 0
M  V30 13912 C 1374.64 3.37153 0.333687 0
M  V30 13913 C 1373.2 3.68469 0.768625 0
M  V30 13914 C 1372.34 2.77051 -0.117399 0
M  V30 13915 H 1375.29 1.49544 -0.531262 0
M  V30 13916 H 1375.31 3.62171 1.16673 0
M  V30 13917 H 1374.83 3.82678 -0.646455 0
M  V30 13918 H 1372.93 3.28467 1.75898 0
M  V30 13919 H 1373.04 4.75559 0.581392 0
M  V30 13920 H 1371.4 2.51461 0.404905 0
M  V30 13921 H 1372.19 3.254 -1.09407 0
M  V30 13922 N 1374.63 0.0384594 1.57553 0
M  V30 13923 C 1375.91 -0.677308 1.83499 0
M  V30 13924 C 1376.29 -1.89789 0.924294 0
M  V30 13925 O 1375.64 -2.28493 -0.0178185 0
M  V30 13926 C 1375.85 -1.04667 3.32935 0
M  V30 13927 C 1377.2 -1.43436 3.99639 0
M  V30 13928 O 1378.22 -1.13938 3.37486 0
M  V30 13929 O 1377.08 -1.98435 5.09201 0
M  V30 13930 H 1374.17 -0.333131 0.756936 0
M  V30 13931 H 1376.72 0.066854 1.69568 0
M  V30 13932 H 1375.49 -0.178349 3.90893 0
M  V30 13933 H 1375.11 -1.8487 3.52007 0
M  V30 13934 N 1376.11 -1.55841 -0.234795 0
M  V30 13935 C 1377.34 -1.82307 -0.978355 0
M  V30 13936 C 1377.75 -0.615825 -1.78474 0
M  V30 13937 O 1377.11 0.4156 -1.77705 0
M  V30 13938 C 1377.16 -3.07136 -1.90655 0
M  V30 13939 O 1376.88 -4.23202 -1.13278 0
M  V30 13940 C 1378.38 -3.46492 -2.76511 0
M  V30 13941 H 1375.6 -0.606361 -0.287345 0
M  V30 13942 H 1378.15 -2.02916 -0.254023 0
M  V30 13943 H 1376.3 -2.88542 -2.58501 0
M  V30 13944 H 1376.72 -4.94029 -1.76168 0
M  V30 13945 H 1378.19 -4.36908 -3.37366 0
M  V30 13946 H 1378.67 -2.67633 -3.48238 0
M  V30 13947 H 1379.27 -3.6748 -2.14099 0
M  V30 13948 N 1377.59 0.500963 -1.49426 0
M  V30 13949 C 1378.54 1.62335 -1.66584 0
M  V30 13950 C 1379.53 1.60837 -0.531773 0
M  V30 13951 O 1380.74 1.65345 -0.711408 0
M  V30 13952 H 1377.11 0.538131 -0.52528 0
M  V30 13953 H 1379.08 1.45016 -2.60793 0
M  V30 13954 C 1377.83 3.00469 -1.74968 0
M  V30 13955 H 1377.16 3.02328 -2.61607 0
M  V30 13956 H 1378.6 3.78539 -1.91008 0
M  V30 13957 C 1377.05 3.33251 -0.49451 0
M  V30 13958 O 1377.58 3.99901 0.379783 0
M  V30 13959 N 1375.79 2.88393 -0.357445 0
M  V30 13960 H 1375.34 2.3433 -1.06991 0
M  V30 13961 H 1375.3 3.10694 0.481287 0
M  V30 13962 N 1379.07 1.38501 0.752011 0
M  V30 13963 C 1380.31 1.34995 1.51341 0
M  V30 13964 C 1380.65 -0.0594724 1.94109 0
M  V30 13965 O 1379.92 -1.02098 1.65548 0
M  V30 13966 C 1380.2 2.30705 2.76491 0
M  V30 13967 C 1380.06 3.80515 2.39851 0
M  V30 13968 C 1381.38 2.24521 3.78521 0
M  V30 13969 H 1378.5 0.491687 0.549011 0
M  V30 13970 H 1381.14 1.69361 0.861205 0
M  V30 13971 H 1379.29 2.01529 3.32142 0
M  V30 13972 H 1380.96 4.20371 1.89962 0
M  V30 13973 H 1379.2 3.98119 1.7229 0
M  V30 13974 H 1379.87 4.42946 3.29397 0
M  V30 13975 H 1382.35 2.50282 3.32413 0
M  V30 13976 H 1381.23 2.93598 4.63779 0
M  V30 13977 H 1381.49 1.24457 4.2422 0
M  V30 13978 N 1380.55 -0.980364 1.23396 0
M  V30 13979 C 1381.96 -1.53622 1.061 0
M  V30 13980 C 1382.31 -1.92648 -0.371645 0
M  V30 13981 O 1381.43 -1.76051 -1.25837 0
M  V30 13982 C 1382.03 -2.79159 1.91979 0
M  V30 13983 C 1380.59 -3.31144 1.78943 0
M  V30 13984 C 1379.73 -2.04135 1.87681 0
M  V30 13985 H 1382.68 -0.800047 1.37058 0
M  V30 13986 H 1382.71 -3.52011 1.4446 0
M  V30 13987 H 1382.22 -2.50723 2.96242 0
M  V30 13988 H 1380.32 -3.64459 0.774634 0
M  V30 13989 H 1380.43 -4.009 2.62329 0
M  V30 13990 H 1378.8 -2.18271 1.31262 0
M  V30 13991 H 1379.58 -1.78081 2.93499 0
M  V30 13992 N 1382.02 -1.04567 -1.17913 0
M  V30 13993 C 1383.27 -0.750538 -1.87647 0
M  V30 13994 C 1383.59 0.72423 -1.81052 0
M  V30 13995 O 1382.86 1.52292 -1.23223 0
M  V30 13996 H 1381.44 -0.274636 -0.694683 0
M  V30 13997 H 1384.1 -1.32349 -1.43072 0
M  V30 13998 H 1383.2 -1.05987 -2.93553 0
M  V30 13999 N 1383.5 1.34231 -0.825823 0
M  V30 14000 C 1384.78 1.92662 -0.337743 0
M  V30 14001 C 1385.16 1.75358 1.17529 0
M  V30 14002 O 1384.51 1.13405 1.98372 0
M  V30 14003 C 1384.72 3.40394 -0.770269 0
M  V30 14004 C 1386.06 4.17546 -0.770767 0
M  V30 14005 O 1387.09 3.4899 -0.713035 0
M  V30 14006 O 1385.95 5.39903 -0.846602 0
M  V30 14007 H 1383.04 0.821768 -0.0928741 0
M  V30 14008 H 1385.59 1.43187 -0.910807 0
M  V30 14009 H 1384.36 3.46802 -1.81228 0
M  V30 14010 H 1383.98 3.97223 -0.17306 0
M  V30 14011 N 1384.98 0.581051 1.46498 0
M  V30 14012 C 1385.93 -0.174031 2.27335 0
M  V30 14013 C 1386.91 -0.863391 1.35773 0
M  V30 14014 O 1388.11 -0.75776 1.59959 0
M  V30 14015 C 1385.23 -1.18814 3.22084 0
M  V30 14016 C 1384.32 -0.500978 4.21131 0
M  V30 14017 N 1384.71 0.442495 5.03861 0
M  V30 14018 C 1383.01 -0.751932 4.39616 0
M  V30 14019 C 1383.71 0.843944 5.75545 0
M  V30 14020 N 1382.69 0.19346 5.43256 0
M  V30 14021 H 1386.49 0.551004 2.88689 0
M  V30 14022 H 1384 0.402722 1.57327 0
M  V30 14023 H 1386 -1.74325 3.78703 0
M  V30 14024 H 1384.66 -1.91401 2.62289 0
M  V30 14025 H 1385.67 0.817931 5.114 0
M  V30 14026 H 1382.35 -1.46451 3.90971 0
M  V30 14027 H 1383.74 1.62058 6.52063 0
M  V30 14028 N 1386.46 -1.54343 0.318742 0
M  V30 14029 C 1387.4 -2.24166 -0.549397 0
M  V30 14030 C 1388.37 -1.23068 -1.1155 0
M  V30 14031 O 1389.56 -1.51737 -1.15674 0
M  V30 14032 C 1386.7 -2.99938 -1.70678 0
M  V30 14033 C 1385.81 -4.15844 -1.17037 0
M  V30 14034 C 1384.95 -4.79158 -2.29305 0
M  V30 14035 C 1383.99 -5.87176 -1.72888 0
M  V30 14036 N 1383.12 -6.44372 -2.78799 0
M  V30 14037 H 1387.96 -2.97954 0.0526018 0
M  V30 14038 H 1385.5 -1.47052 0.0377307 0
M  V30 14039 H 1387.46 -3.42113 -2.38777 0
M  V30 14040 H 1386.09 -2.28494 -2.28014 0
M  V30 14041 H 1385.14 -3.78486 -0.381082 0
M  V30 14042 H 1386.45 -4.93612 -0.717507 0
M  V30 14043 H 1385.61 -5.24277 -3.05317 0
M  V30 14044 H 1384.35 -4.0076 -2.77926 0
M  V30 14045 H 1383.35 -5.41465 -0.953714 0
M  V30 14046 H 1384.58 -6.67469 -1.2515 0
M  V30 14047 H 1382.52 -5.6885 -3.2672 0
M  V30 14048 H 1382.44 -7.17539 -2.38062 0
M  V30 14049 H 1383.71 -6.94147 -3.54655 0
M  V30 14050 N 1387.94 -0.0468143 -1.5753 0
M  V30 14051 C 1389.18 0.628869 -1.92803 0
M  V30 14052 C 1389.51 1.70751 -0.925083 0
M  V30 14053 O 1388.79 1.94437 0.0495821 0
M  V30 14054 C 1389.07 1.22899 -3.38479 0
M  V30 14055 C 1388.93 0.158707 -4.4952 0
M  V30 14056 C 1390.24 2.1419 -3.84461 0
M  V30 14057 H 1387.36 0.227137 -0.701126 0
M  V30 14058 H 1390.01 -0.107689 -1.89695 0
M  V30 14059 H 1388.16 1.85674 -3.41259 0
M  V30 14060 H 1389.83 -0.472963 -4.58869 0
M  V30 14061 H 1388.07 -0.51375 -4.30747 0
M  V30 14062 H 1388.74 0.618545 -5.48523 0
M  V30 14063 H 1391.22 1.61382 -3.8353 0
M  V30 14064 H 1390.09 2.53125 -4.87051 0
M  V30 14065 H 1390.35 3.04024 -3.2097 0
M  V30 14066 N 1389.41 1.55964 0.226527 0
M  V30 14067 C 1390.64 1.82823 0.968673 0
M  V30 14068 C 1391.06 0.625281 1.78145 0
M  V30 14069 O 1390.41 -0.40617 1.77923 0
M  V30 14070 C 1390.47 3.08143 1.89024 0
M  V30 14071 O 1390.19 4.23797 1.11032 0
M  V30 14072 C 1391.69 3.47954 2.74669 0
M  V30 14073 H 1388.91 0.607876 0.284126 0
M  V30 14074 H 1391.45 2.03048 0.243258 0
M  V30 14075 H 1389.61 2.89908 2.56967 0
M  V30 14076 H 1390.02 4.94957 1.73546 0
M  V30 14077 H 1391.49 4.38691 3.35044 0
M  V30 14078 H 1391.97 2.69476 3.46813 0
M  V30 14079 H 1392.58 3.6861 2.12147 0
M  V30 14080 N 1390.89 -0.493031 1.4969 0
M  V30 14081 C 1392.14 -1.24849 1.59814 0
M  V30 14082 C 1392.47 -1.92059 0.287555 0
M  V30 14083 O 1391.75 -1.81099 -0.709471 0
M  V30 14084 C 1392.03 -2.30929 2.76304 0
M  V30 14085 C 1391.88 -1.68167 4.17181 0
M  V30 14086 C 1393.2 -3.32427 2.8841 0
M  V30 14087 H 1390.32 -0.452553 0.581691 0
M  V30 14088 H 1392.96 -0.545455 1.82002 0
M  V30 14089 H 1391.11 -2.9089 2.57517 0
M  V30 14090 H 1392.78 -1.11971 4.47504 0
M  V30 14091 H 1391.03 -0.985496 4.22458 0
M  V30 14092 H 1391.7 -2.45148 4.94577 0
M  V30 14093 H 1394.17 -2.82464 3.05537 0
M  V30 14094 H 1393.05 -4.04004 3.71581 0
M  V30 14095 H 1393.31 -3.95234 1.98097 0
M  V30 14096 N 1392.37 -1.38898 -0.744656 0
M  V30 14097 C 1393.28 -1.39098 -1.88915 0
M  V30 14098 C 1394.3 -0.286956 -1.71617 0
M  V30 14099 O 1395.47 -0.526852 -1.94387 0
M  V30 14100 C 1392.54 -1.22352 -3.24393 0
M  V30 14101 C 1391.6 -2.4264 -3.54153 0
M  V30 14102 C 1390.83 -2.26683 -4.83167 0
M  V30 14103 O 1391.05 -1.26523 -5.56191 0
M  V30 14104 O 1389.99 -3.15464 -5.12607 0
M  V30 14105 H 1393.81 -2.35551 -1.91701 0
M  V30 14106 H 1391.4 -1.19911 -0.891158 0
M  V30 14107 H 1393.28 -1.15109 -4.05374 0
M  V30 14108 H 1391.96 -0.289886 -3.22399 0
M  V30 14109 H 1390.86 -2.55459 -2.73298 0
M  V30 14110 H 1392.2 -3.34664 -3.60917 0
M  V30 14111 N 1393.85 0.973806 -1.23914 0
M  V30 14112 C 1395.09 1.71852 -1.07678 0
M  V30 14113 C 1395.43 1.90357 0.384425 0
M  V30 14114 O 1394.7 1.46063 1.28436 0
M  V30 14115 C 1394.99 3.1129 -1.81026 0
M  V30 14116 C 1394.84 3.00315 -3.3486 0
M  V30 14117 C 1396.16 4.10835 -1.57805 0
M  V30 14118 H 1393.28 0.623749 -0.392564 0
M  V30 14119 H 1395.92 1.13325 -1.52504 0
M  V30 14120 H 1394.07 3.61255 -1.42922 0
M  V30 14121 H 1395.74 2.57823 -3.82524 0
M  V30 14122 H 1393.98 2.36667 -3.63553 0
M  V30 14123 H 1394.65 3.9907 -3.81376 0
M  V30 14124 H 1397.13 3.69705 -1.90939 0
M  V30 14125 H 1396.01 5.06478 -2.11591 0
M  V30 14126 H 1396.27 4.39091 -0.514894 0
M  V30 14127 N 1395.33 1.05191 1.17357 0
M  V30 14128 C 1396.55 0.782373 1.91537 0
M  V30 14129 C 1396.97 -0.661935 1.76816 0
M  V30 14130 O 1396.33 -1.45221 1.10531 0
M  V30 14131 C 1396.38 1.15357 3.426 0
M  V30 14132 O 1396.1 2.54119 3.56869 0
M  V30 14133 C 1397.6 0.910167 4.33856 0
M  V30 14134 H 1394.82 0.284461 0.607719 0
M  V30 14135 H 1397.36 1.40259 1.48821 0
M  V30 14136 H 1395.52 0.578107 3.83062 0
M  V30 14137 H 1395.93 2.68668 4.50464 0
M  V30 14138 H 1397.41 1.21964 5.38358 0
M  V30 14139 H 1397.88 -0.154624 4.38928 0
M  V30 14140 H 1398.49 1.46947 3.99107 0
M  V30 14141 N 1396.8 -1.33791 0.83293 0
M  V30 14142 C 1398.03 -2.01894 0.43844 0
M  V30 14143 C 1398.44 -1.62844 -0.963247 0
M  V30 14144 O 1397.79 -0.834636 -1.63644 0
M  V30 14145 C 1397.85 -3.5638 0.472604 0
M  V30 14146 C 1397.51 -4.18788 1.82937 0
M  V30 14147 C 1398.51 -4.38588 2.79172 0
M  V30 14148 C 1396.19 -4.55342 2.12058 0
M  V30 14149 C 1398.19 -4.94081 4.02694 0
M  V30 14150 C 1395.87 -5.10544 3.35839 0
M  V30 14151 C 1396.87 -5.29859 4.30974 0
M  V30 14152 O 1396.56 -5.83889 5.52566 0
M  V30 14153 H 1396.29 -0.65348 0.173031 0
M  V30 14154 H 1398.85 -1.71827 1.12537 0
M  V30 14155 H 1397.08 -3.85749 -0.271074 0
M  V30 14156 H 1398.77 -4.05785 0.0967701 0
M  V30 14157 H 1399.53 -4.10701 2.57972 0
M  V30 14158 H 1395.41 -4.39607 1.38806 0
M  V30 14159 H 1398.95 -5.09072 4.7696 0
M  V30 14160 H 1394.85 -5.3786 3.56898 0
M  V30 14161 H 1395.62 -6.02311 5.54224 0
M  V30 14162 N 1398.28 -0.588812 -1.46187 0
M  V30 14163 C 1399.69 -0.163897 -1.85979 0
M  V30 14164 C 1400.04 1.27458 -1.49161 0
M  V30 14165 O 1399.17 1.96365 -0.909372 0
M  V30 14166 C 1399.76 -0.29067 -3.37551 0
M  V30 14167 C 1398.32 0.0794165 -3.76316 0
M  V30 14168 C 1397.47 -0.623807 -2.70192 0
M  V30 14169 H 1400.42 -0.79666 -1.37255 0
M  V30 14170 H 1400.44 0.482316 -3.77431 0
M  V30 14171 H 1399.95 -1.33771 -3.64317 0
M  V30 14172 H 1398.06 1.12636 -3.55168 0
M  V30 14173 H 1398.17 -0.301153 -4.78153 0
M  V30 14174 H 1396.53 -0.0634124 -2.54621 0
M  V30 14175 H 1397.32 -1.67261 -2.99797 0
M  V30 14176 N 1399.76 1.54172 -0.326923 0
M  V30 14177 C 1401.04 1.92812 0.329078 0
M  V30 14178 C 1401.42 1.25687 1.69605 0
M  V30 14179 O 1400.77 0.401779 2.2494 0
M  V30 14180 C 1400.98 3.46488 0.417949 0
M  V30 14181 C 1402.32 4.19174 0.67665 0
M  V30 14182 O 1403.35 3.52663 0.500735 0
M  V30 14183 O 1402.21 5.36968 1.01625 0
M  V30 14184 H 1399.3 0.805214 0.188573 0
M  V30 14185 H 1401.85 1.65462 -0.376884 0
M  V30 14186 H 1400.62 3.87528 -0.541986 0
M  V30 14187 H 1400.24 3.79954 1.17136 0
M  V30 14188 N 1401.24 0.0551678 1.57503 0
M  V30 14189 C 1402.49 -0.6165 1.92467 0
M  V30 14190 C 1402.81 -1.71147 0.934552 0
M  V30 14191 O 1402.08 -1.9589 -0.0199649 0
M  V30 14192 H 1400.66 -0.230714 0.710479 0
M  V30 14193 H 1403.32 0.109111 1.94594 0
M  V30 14194 H 1402.42 -1.05254 2.93816 0
M  V30 14195 N 1402.72 -1.56081 -0.218252 0
M  V30 14196 C 1403.94 -1.83334 -0.958964 0
M  V30 14197 C 1404.36 -0.63472 -1.77811 0
M  V30 14198 O 1403.72 0.396729 -1.78136 0
M  V30 14199 C 1403.77 -3.09141 -1.87387 0
M  V30 14200 O 1403.49 -4.24379 -1.08783 0
M  V30 14201 C 1404.99 -3.49405 -2.7282 0
M  V30 14202 H 1402.21 -0.609375 -0.280898 0
M  V30 14203 H 1404.75 -2.03174 -0.232486 0
M  V30 14204 H 1402.91 -2.91267 -2.55426 0
M  V30 14205 H 1403.32 -4.9587 -1.70919 0
M  V30 14206 H 1404.8 -4.40461 -3.32713 0
M  V30 14207 H 1405.27 -2.71311 -3.45379 0
M  V30 14208 H 1405.88 -3.6973 -2.1019 0
M  V30 14209 N 1404.2 0.485086 -1.49949 0
M  V30 14210 C 1405.14 1.5848 -1.67788 0
M  V30 14211 C 1406.11 1.57776 -0.519216 0
M  V30 14212 O 1407.3 1.75521 -0.748141 0
M  V30 14213 C 1404.44 2.9654 -1.76516 0
M  V30 14214 C 1403.55 3.07139 -3.03792 0
M  V30 14215 C 1402.69 4.36029 -3.03401 0
M  V30 14216 C 1401.72 4.40318 -4.2519 0
M  V30 14217 N 1400.86 5.60659 -4.22618 0
M  V30 14218 H 1405.7 1.42575 -2.6168 0
M  V30 14219 H 1403.24 0.693426 -1.29731 0
M  V30 14220 H 1405.2 3.76583 -1.79557 0
M  V30 14221 H 1403.83 3.11112 -0.860764 0
M  V30 14222 H 1402.88 2.20057 -3.10289 0
M  V30 14223 H 1404.19 3.06167 -3.9378 0
M  V30 14224 H 1403.34 5.24407 -3.05094 0
M  V30 14225 H 1402.08 4.39588 -2.11219 0
M  V30 14226 H 1401.09 3.50339 -4.23725 0
M  V30 14227 H 1402.31 4.38461 -5.18583 0
M  V30 14228 H 1400.26 5.6503 -3.33282 0
M  V30 14229 H 1400.18 5.61371 -5.06359 0
M  V30 14230 H 1401.44 6.51201 -4.28436 0
M  V30 14231 N 1405.67 1.39291 0.737279 0
M  V30 14232 C 1406.95 1.26901 1.48847 0
M  V30 14233 C 1407.33 -0.122417 2.10745 0
M  V30 14234 O 1406.68 -1.13343 1.98408 0
M  V30 14235 C 1406.89 2.3916 2.54172 0
M  V30 14236 C 1408.24 2.78368 3.20619 0
M  V30 14237 O 1409.26 2.38593 2.64484 0
M  V30 14238 O 1408.12 3.47014 4.22189 0
M  V30 14239 H 1405.21 0.497176 0.660867 0
M  V30 14240 H 1407.76 1.51159 0.771299 0
M  V30 14241 H 1406.53 3.3219 2.06797 0
M  V30 14242 H 1406.15 2.16555 3.33451 0
M  V30 14243 N 1407.15 -0.967221 1.24429 0
M  V30 14244 C 1408.38 -1.7452 1.11133 0
M  V30 14245 C 1408.79 -1.85785 -0.336087 0
M  V30 14246 O 1408.15 -1.34652 -1.23188 0
M  V30 14247 C 1408.2 -3.16544 1.74591 0
M  V30 14248 O 1407.92 -3.05845 3.13673 0
M  V30 14249 C 1409.42 -4.10677 1.6691 0
M  V30 14250 H 1406.64 -0.547267 0.388253 0
M  V30 14251 H 1409.19 -1.2143 1.64545 0
M  V30 14252 H 1407.34 -3.66618 1.2518 0
M  V30 14253 H 1407.76 -3.95346 3.44676 0
M  V30 14254 H 1409.23 -5.07987 2.15992 0
M  V30 14255 H 1409.71 -4.34652 0.630411 0
M  V30 14256 H 1410.31 -3.66514 2.15749 0
M  V30 14257 N 1408.63 -1.05812 -1.16797 0
M  V30 14258 C 1409.88 -0.773066 -1.87487 0
M  V30 14259 C 1410.21 0.698471 -1.81204 0
M  V30 14260 O 1409.48 1.51129 -1.22434 0
M  V30 14261 C 1409.77 -1.2621 -3.37258 0
M  V30 14262 C 1409.62 -2.79704 -3.52258 0
M  V30 14263 C 1410.94 -0.866104 -4.31494 0
M  V30 14264 H 1408.06 -0.282304 -0.680789 0
M  V30 14265 H 1410.7 -1.3132 -1.37314 0
M  V30 14266 H 1408.85 -0.802608 -3.80119 0
M  V30 14267 H 1410.52 -3.33824 -3.1837 0
M  V30 14268 H 1408.76 -3.18673 -2.94329 0
M  V30 14269 H 1409.44 -3.08985 -4.57419 0
M  V30 14270 H 1411.91 -1.26178 -3.96508 0
M  V30 14271 H 1410.79 -1.23581 -5.34807 0
M  V30 14272 H 1411.05 0.229391 -4.41504 0
M  V30 14273 N 1410.11 1.33347 -0.840014 0
M  V30 14274 C 1411.02 2.32965 -0.276527 0
M  V30 14275 C 1412.03 1.634 0.598037 0
M  V30 14276 O 1413.21 1.95046 0.501888 0
M  V30 14277 C 1410.27 3.42498 0.53816 0
M  V30 14278 C 1409.34 4.27781 -0.360814 0
M  V30 14279 C 1408.57 5.32083 0.415085 0
M  V30 14280 O 1408.79 5.46115 1.64666 0
M  V30 14281 O 1407.73 6.01528 -0.211503 0
M  V30 14282 H 1411.55 2.83022 -1.10147 0
M  V30 14283 H 1409.14 1.3671 -0.602566 0
M  V30 14284 H 1411.02 4.09336 1.00108 0
M  V30 14285 H 1409.69 2.94655 1.34015 0
M  V30 14286 H 1408.6 3.63805 -0.871598 0
M  V30 14287 H 1409.93 4.7911 -1.1276 0
M  V30 14288 N 1411.59 0.596556 1.45873 0
M  V30 14289 C 1412.83 0.0875879 2.02611 0
M  V30 14290 C 1413.16 -1.27438 1.46538 0
M  V30 14291 O 1412.44 -1.83815 0.635779 0
M  V30 14292 C 1412.72 0.0367394 3.60081 0
M  V30 14293 C 1412.58 1.42859 4.26511 0
M  V30 14294 C 1413.89 -0.656795 4.35171 0
M  V30 14295 H 1411.01 0.0333031 0.736247 0
M  V30 14296 H 1413.66 0.766413 1.73857 0
M  V30 14297 H 1411.81 -0.541345 3.8471 0
M  V30 14298 H 1413.48 2.0529 4.13102 0
M  V30 14299 H 1411.72 1.99243 3.85337 0
M  V30 14300 H 1412.39 1.34535 5.35354 0
M  V30 14301 H 1414.87 -0.165553 4.15771 0
M  V30 14302 H 1413.74 -0.661445 5.449 0
M  V30 14303 H 1414 -1.72079 4.07236 0
M  V30 14304 N 1413.06 -1.53996 0.335095 0
M  V30 14305 C 1414.29 -2.05188 -0.26563 0
M  V30 14306 C 1414.71 -1.21058 -1.44881 0
M  V30 14307 O 1414.06 -0.243919 -1.80863 0
M  V30 14308 C 1414.11 -3.54875 -0.688904 0
M  V30 14309 O 1413.84 -4.35811 0.447217 0
M  V30 14310 C 1415.34 -4.22204 -1.35123 0
M  V30 14311 H 1412.56 -0.668921 -0.0527806 0
M  V30 14312 H 1415.1 -1.98675 0.48463 0
M  V30 14313 H 1413.26 -3.61638 -1.38912 0
M  V30 14314 H 1413.67 -5.24381 0.111495 0
M  V30 14315 H 1415.14 -5.28356 -1.59823 0
M  V30 14316 H 1415.62 -3.74029 -2.30216 0
M  V30 14317 H 1416.23 -4.19611 -0.693283 0
M  V30 14318 N 1414.54 -0.0635198 -1.57472 0
M  V30 14319 C 1415.79 0.608384 -1.93459 0
M  V30 14320 C 1416.12 1.6976 -0.943141 0
M  V30 14321 O 1415.4 1.94478 0.0289567 0
M  V30 14322 C 1415.68 1.19302 -3.39763 0
M  V30 14323 C 1415.53 0.11102 -4.49663 0
M  V30 14324 C 1416.85 2.101 -3.86712 0
M  V30 14325 H 1413.97 0.219688 -0.703496 0
M  V30 14326 H 1416.61 -0.127803 -1.8957 0
M  V30 14327 H 1414.76 1.82044 -3.43209 0
M  V30 14328 H 1416.43 -0.521606 -4.58342 0
M  V30 14329 H 1414.68 -0.559408 -4.30178 0
M  V30 14330 H 1415.35 0.560332 -5.49149 0
M  V30 14331 H 1417.82 1.57305 -3.8522 0
M  V30 14332 H 1416.7 2.47945 -4.89708 0
M  V30 14333 H 1416.96 3.00603 -3.24177 0
M  V30 14334 N 1416.02 1.56195 0.209972 0
M  V30 14335 C 1416.97 1.89755 1.26401 0
M  V30 14336 C 1417.95 0.761731 1.41727 0
M  V30 14337 O 1419.15 1.02435 1.44347 0
M  V30 14338 C 1416.27 2.22775 2.61201 0
M  V30 14339 C 1415.36 3.42777 2.49729 0
M  V30 14340 N 1415.75 4.61089 2.0792 0
M  V30 14341 C 1414.05 3.46621 2.8066 0
M  V30 14342 C 1414.75 5.43249 2.07979 0
M  V30 14343 N 1413.73 4.83263 2.48913 0
M  V30 14344 H 1417.53 2.78736 0.93184 0
M  V30 14345 H 1415.04 1.56915 0.418485 0
M  V30 14346 H 1417.04 2.44997 3.37316 0
M  V30 14347 H 1415.7 1.35112 2.95254 0
M  V30 14348 H 1416.71 4.86033 1.78865 0
M  V30 14349 H 1413.39 2.69334 3.19007 0
M  V30 14350 H 1414.78 6.47981 1.77681 0
M  V30 14351 N 1417.5 -0.477127 1.50204 0
M  V30 14352 C 1418.74 -1.23147 1.6113 0
M  V30 14353 C 1419.08 -1.91743 0.307909 0
M  V30 14354 O 1418.35 -1.81841 -0.690223 0
M  V30 14355 C 1418.63 -2.27985 2.78738 0
M  V30 14356 C 1418.49 -1.63733 4.18941 0
M  V30 14357 C 1419.81 -3.29349 2.9192 0
M  V30 14358 H 1416.93 -0.446358 0.586459 0
M  V30 14359 H 1419.57 -0.52612 1.8257 0
M  V30 14360 H 1417.72 -2.88143 2.60588 0
M  V30 14361 H 1419.39 -1.07218 4.48667 0
M  V30 14362 H 1417.63 -0.940634 4.23479 0
M  V30 14363 H 1418.3 -2.39888 4.9715 0
M  V30 14364 H 1420.78 -2.79208 3.08516 0
M  V30 14365 H 1419.66 -4.0004 3.75845 0
M  V30 14366 H 1419.92 -3.93111 2.02278 0
M  V30 14367 N 1418.98 -1.3968 -0.729882 0
M  V30 14368 C 1420.2 -1.40467 -1.5191 0
M  V30 14369 C 1420.62 -0.000529943 -1.888 0
M  V30 14370 O 1419.98 0.972072 -1.54457 0
M  V30 14371 C 1420.03 -2.2823 -2.80345 0
M  V30 14372 O 1419.75 -3.63176 -2.4502 0
M  V30 14373 C 1421.25 -2.37455 -3.74339 0
M  V30 14374 H 1418.47 -0.479604 -0.469277 0
M  V30 14375 H 1421.01 -1.83558 -0.901484 0
M  V30 14376 H 1419.17 -1.88538 -3.38426 0
M  V30 14377 H 1419.58 -4.0964 -3.2756 0
M  V30 14378 H 1421.06 -3.031 -4.6134 0
M  V30 14379 H 1421.53 -1.39525 -4.16449 0
M  V30 14380 H 1422.14 -2.77638 -3.22176 0
M  V30 14381 N 1420.45 0.960609 -1.2494 0
M  V30 14382 C 1421.87 1.51915 -1.0853 0
M  V30 14383 C 1422.22 1.93215 0.340949 0
M  V30 14384 O 1421.34 1.78031 1.2302 0
M  V30 14385 C 1421.94 2.76069 -1.96396 0
M  V30 14386 C 1420.5 3.28255 -1.84189 0
M  V30 14387 C 1419.64 2.01124 -1.90905 0
M  V30 14388 H 1422.59 0.778141 -1.38314 0
M  V30 14389 H 1422.61 3.49668 -1.50042 0
M  V30 14390 H 1422.13 2.45979 -3.00193 0
M  V30 14391 H 1420.23 3.6318 -0.832518 0
M  V30 14392 H 1420.34 3.96675 -2.68673 0
M  V30 14393 H 1418.7 2.16155 -1.34718 0
M  V30 14394 H 1419.49 1.73389 -2.96295 0
M  V30 14395 N 1421.93 1.0643 1.16234 0
M  V30 14396 C 1422.88 0.676311 2.20669 0
M  V30 14397 C 1423.85 -0.327721 1.62835 0
M  V30 14398 O 1425.03 -0.216296 1.8957 0
M  V30 14399 C 1422.17 0.0703726 3.45028 0
M  V30 14400 C 1421.29 1.12475 4.17101 0
M  V30 14401 C 1420.42 0.484806 5.28983 0
M  V30 14402 C 1419.46 1.52262 5.9286 0
M  V30 14403 N 1418.6 0.905938 6.96231 0
M  V30 14404 H 1423.44 1.57129 2.53209 0
M  V30 14405 H 1420.98 0.7856 1.24365 0
M  V30 14406 H 1422.93 -0.298488 4.16131 0
M  V30 14407 H 1421.56 -0.788002 3.13034 0
M  V30 14408 H 1420.62 1.6113 3.44589 0
M  V30 14409 H 1421.93 1.91202 4.60698 0
M  V30 14410 H 1421.08 0.0630553 6.06667 0
M  V30 14411 H 1419.82 -0.334332 4.86553 0
M  V30 14412 H 1418.83 1.95425 5.13896 0
M  V30 14413 H 1420.05 2.34388 6.37369 0
M  V30 14414 H 1418 0.107536 6.55912 0
M  V30 14415 H 1417.91 1.63058 7.38206 0
M  V30 14416 H 1419.18 0.509378 7.77834 0
M  V30 14417 N 1423.41 -1.329 0.847073 0
M  V30 14418 C 1424.82 -1.79813 0.502394 0
M  V30 14419 C 1425.17 -1.70017 -0.979218 0
M  V30 14420 O 1424.3 -1.25427 -1.76344 0
M  V30 14421 C 1424.89 -3.26485 0.905154 0
M  V30 14422 C 1423.45 -3.71383 0.612489 0
M  V30 14423 C 1422.6 -2.54157 1.10903 0
M  V30 14424 H 1425.55 -1.20306 1.035 0
M  V30 14425 H 1425.57 -3.79872 0.218476 0
M  V30 14426 H 1425.08 -3.33583 1.98353 0
M  V30 14427 H 1423.18 -3.69806 -0.45548 0
M  V30 14428 H 1423.3 -4.64507 1.17347 0
M  V30 14429 H 1421.66 -2.49134 0.529576 0
M  V30 14430 H 1422.44 -2.64013 2.19435 0
M  V30 14431 N 1424.89 -0.604284 -1.45555 0
M  V30 14432 C 1426.13 -0.0983316 -2.02561 0
M  V30 14433 C 1426.47 1.26659 -1.47211 0
M  V30 14434 O 1425.74 1.83476 -0.645519 0
M  V30 14435 C 1426.03 -0.0558349 -3.60057 0
M  V30 14436 C 1425.88 -1.45119 -4.25747 0
M  V30 14437 C 1427.2 0.633708 -4.35514 0
M  V30 14438 H 1424.32 -0.0372071 -0.73606 0
M  V30 14439 H 1426.96 -0.775623 -1.73448 0
M  V30 14440 H 1425.11 0.520935 -3.84992 0
M  V30 14441 H 1426.78 -2.07478 -4.12008 0
M  V30 14442 H 1425.02 -2.01283 -3.84275 0
M  V30 14443 H 1425.69 -1.37372 -5.34633 0
M  V30 14444 H 1428.17 0.143501 -4.15852 0
M  V30 14445 H 1427.05 0.632538 -5.45243 0
M  V30 14446 H 1427.31 1.69917 -4.08143 0
M  V30 14447 N 1426.37 1.53816 -0.343257 0
M  V30 14448 C 1427.78 1.86169 0.140709 0
M  V30 14449 C 1428.13 1.26449 1.50017 0
M  V30 14450 O 1427.25 0.577955 2.08539 0
M  V30 14451 C 1427.85 3.37785 0.262097 0
M  V30 14452 C 1426.41 3.70016 0.690294 0
M  V30 14453 C 1425.55 2.7674 -0.17614 0
M  V30 14454 H 1428.51 1.48383 -0.562863 0
M  V30 14455 H 1428.53 3.64564 1.08964 0
M  V30 14456 H 1428.04 3.81221 -0.727481 0
M  V30 14457 H 1426.14 3.32124 1.68891 0
M  V30 14458 H 1426.25 4.76686 0.480388 0
M  V30 14459 H 1424.62 2.52263 0.351476 0
M  V30 14460 H 1425.4 3.23006 -1.16285 0
M  V30 14461 N 1427.84 0.0718701 1.57436 0
M  V30 14462 C 1429.12 -0.638233 1.84894 0
M  V30 14463 C 1429.5 -1.87786 0.964343 0
M  V30 14464 O 1428.85 -2.28479 0.0306523 0
M  V30 14465 C 1429.06 -0.975817 3.3508 0
M  V30 14466 C 1430.41 -1.34927 4.02591 0
M  V30 14467 O 1431.43 -1.06754 3.39826 0
M  V30 14468 O 1430.29 -1.87589 5.13296 0
M  V30 14469 H 1427.38 -0.317 0.763832 0
M  V30 14470 H 1429.93 0.102807 1.69388 0
M  V30 14471 H 1428.7 -0.0953948 3.91184 0
M  V30 14472 H 1428.33 -1.77362 3.55849 0
M  V30 14473 N 1429.32 -1.56304 -0.201686 0
M  V30 14474 C 1430.27 -1.94021 -1.24999 0
M  V30 14475 C 1431.24 -0.799926 -1.45569 0
M  V30 14476 O 1432.42 -1.05752 -1.58811 0
M  V30 14477 C 1429.56 -2.27935 -2.59113 0
M  V30 14478 C 1428.68 -3.54995 -2.46176 0
M  V30 14479 C 1427.81 -3.78262 -3.72949 0
M  V30 14480 C 1426.85 -4.9877 -3.54817 0
M  V30 14481 N 1425.99 -5.18325 -4.73586 0
M  V30 14482 H 1430.83 -2.834 -0.92134 0
M  V30 14483 H 1428.37 -1.40252 -0.44359 0
M  V30 14484 H 1430.32 -2.45613 -3.37239 0
M  V30 14485 H 1428.95 -1.41705 -2.90034 0
M  V30 14486 H 1428.01 -3.45401 -1.59381 0
M  V30 14487 H 1429.32 -4.43277 -2.28708 0
M  V30 14488 H 1428.47 -3.96144 -4.59516 0
M  V30 14489 H 1427.21 -2.88299 -3.93364 0
M  V30 14490 H 1426.22 -4.80818 -2.66635 0
M  V30 14491 H 1427.44 -5.90237 -3.35854 0
M  V30 14492 H 1425.39 -4.31308 -4.94277 0
M  V30 14493 H 1425.3 -6.00774 -4.58919 0
M  V30 14494 H 1426.57 -5.40659 -5.61523 0
M  V30 14495 N 1430.8 0.469154 -1.50455 0
M  V30 14496 C 1432.08 1.23033 -1.5206 0
M  V30 14497 C 1432.46 2.09412 -0.266388 0
M  V30 14498 O 1431.81 2.15837 0.750099 0
M  V30 14499 C 1432.02 2.05969 -2.81741 0
M  V30 14500 C 1433.36 2.64093 -3.32476 0
M  V30 14501 O 1434.39 2.1621 -2.83075 0
M  V30 14502 O 1433.25 3.51341 -4.18595 0
M  V30 14503 H 1430.34 0.55841 -0.610006 0
M  V30 14504 H 1432.89 0.480818 -1.62746 0
M  V30 14505 H 1431.66 1.42327 -3.64498 0
M  V30 14506 H 1431.28 2.8805 -2.74067 0
M  V30 14507 N 1432.28 1.40065 0.722464 0
M  V30 14508 C 1433.23 1.39784 1.83655 0
M  V30 14509 C 1434.2 0.255743 1.64119 0
M  V30 14510 O 1435.38 0.452766 1.8535 0
M  V30 14511 C 1432.52 1.25946 3.21297 0
M  V30 14512 C 1431.63 2.49805 3.52451 0
M  V30 14513 C 1430.77 2.2846 4.79562 0
M  V30 14514 C 1429.81 3.4793 5.03598 0
M  V30 14515 N 1428.94 3.25823 6.21919 0
M  V30 14516 H 1433.78 2.35013 1.83229 0
M  V30 14517 H 1431.32 1.16728 0.895154 0
M  V30 14518 H 1433.28 1.15931 4.00769 0
M  V30 14519 H 1431.91 0.343402 3.20968 0
M  V30 14520 H 1430.96 2.70375 2.67585 0
M  V30 14521 H 1432.27 3.38753 3.66126 0
M  V30 14522 H 1431.43 2.15758 5.67039 0
M  V30 14523 H 1430.17 1.36926 4.68084 0
M  V30 14524 H 1429.17 3.61116 4.14579 0
M  V30 14525 H 1430.4 4.40382 5.16953 0
M  V30 14526 H 1428.34 2.36965 6.11705 0
M  V30 14527 H 1428.26 4.08333 6.36239 0
M  V30 14528 H 1429.53 3.16841 7.12202 0
M  V30 14529 N 1433.76 -0.95397 1.25448 0
M  V30 14530 C 1434.99 -1.7308 1.12814 0
M  V30 14531 C 1435.4 -1.86461 -0.320764 0
M  V30 14532 O 1434.74 -1.3623 -1.23236 0
M  V30 14533 C 1434.8 -3.16239 1.70976 0
M  V30 14534 C 1434.46 -3.26286 3.19979 0
M  V30 14535 C 1435.46 -3.10547 4.16961 0
M  V30 14536 C 1433.15 -3.50085 3.60202 0
M  V30 14537 C 1435.14 -3.18456 5.52146 0
M  V30 14538 C 1432.83 -3.5763 4.95524 0
M  V30 14539 C 1433.83 -3.4183 5.91305 0
M  V30 14540 O 1433.51 -3.49058 7.24164 0
M  V30 14541 H 1433.25 -0.549143 0.394231 0
M  V30 14542 H 1435.8 -1.20538 1.66312 0
M  V30 14543 H 1434.03 -3.70148 1.11926 0
M  V30 14544 H 1435.72 -3.75784 1.53432 0
M  V30 14545 H 1436.48 -2.92029 3.87226 0
M  V30 14546 H 1432.36 -3.61445 2.86145 0
M  V30 14547 H 1435.91 -3.0604 6.26885 0
M  V30 14548 H 1431.8 -3.75665 5.24925 0
M  V30 14549 H 1432.57 -3.65684 7.32269 0
M  V30 14550 N 1435.24 -1.07045 -1.15668 0
M  V30 14551 C 1436.51 -0.704942 -1.82455 0
M  V30 14552 C 1436.89 0.812921 -1.9482 0
M  V30 14553 O 1436.24 1.72615 -1.49721 0
M  V30 14554 C 1436.45 -1.41574 -3.18995 0
M  V30 14555 C 1437.8 -1.56584 -3.94673 0
M  V30 14556 O 1438.82 -1.37626 -3.28538 0
M  V30 14557 O 1437.68 -1.87751 -5.13237 0
M  V30 14558 H 1434.78 -0.250469 -0.788159 0
M  V30 14559 H 1437.32 -1.17118 -1.22806 0
M  V30 14560 H 1436.09 -2.4504 -3.05075 0
M  V30 14561 H 1435.72 -0.940071 -3.86327 0
M  V30 14562 N 1436.71 1.32449 -0.85411 0
M  V30 14563 C 1438.12 1.79545 -0.511923 0
M  V30 14564 C 1438.48 1.70534 0.970188 0
M  V30 14565 O 1437.6 1.2636 1.75676 0
M  V30 14566 C 1438.2 3.26 -0.922456 0
M  V30 14567 C 1436.75 3.71053 -0.632176 0
M  V30 14568 C 1435.9 2.53565 -1.12249 0
M  V30 14569 H 1438.85 1.19755 -1.04137 0
M  V30 14570 H 1438.87 3.79751 -0.238618 0
M  V30 14571 H 1438.39 3.32526 -2.00119 0
M  V30 14572 H 1436.49 3.70042 0.435862 0
M  V30 14573 H 1436.6 4.63878 -1.19809 0
M  V30 14574 H 1434.96 2.48849 -0.542781 0
M  V30 14575 H 1435.75 2.62846 -2.20832 0
M  V30 14576 N 1438.19 0.611994 1.45232 0
M  V30 14577 C 1439.42 0.115409 2.06578 0
M  V30 14578 C 1439.83 -1.20206 1.45588 0
M  V30 14579 O 1439.19 -1.73315 0.571668 0
M  V30 14580 C 1439.24 -0.0259943 3.61491 0
M  V30 14581 O 1438.96 1.23936 4.20204 0
M  V30 14582 C 1440.46 -0.553522 4.39831 0
M  V30 14583 H 1437.68 0.0708656 0.667247 0
M  V30 14584 H 1440.23 0.840977 1.86408 0
M  V30 14585 H 1438.38 -0.701909 3.80988 0
M  V30 14586 H 1438.8 1.07187 5.13431 0
M  V30 14587 H 1440.27 -0.601536 5.48713 0
M  V30 14588 H 1440.75 -1.57671 4.09923 0
M  V30 14589 H 1441.35 0.0884954 4.25208 0
M  V30 14590 N 1439.67 -1.53632 0.351409 0
M  V30 14591 C 1440.92 -2.00643 -0.242208 0
M  V30 14592 C 1441.24 -1.24074 -1.50435 0
M  V30 14593 O 1440.51 -0.350067 -1.92747 0
M  V30 14594 H 1439.09 -0.741252 -0.0924904 0
M  V30 14595 H 1441.75 -1.89039 0.474379 0
M  V30 14596 H 1440.85 -3.084 -0.479151 0
M  V30 14597 N 1441.15 -0.0802183 -1.57396 0
M  V30 14598 C 1442.09 0.884041 -2.13198 0
M  V30 14599 C 1443.06 1.28975 -1.04664 0
M  V30 14600 O 1444.25 1.37413 -1.32372 0
M  V30 14601 C 1441.39 2.14323 -2.7048 0
M  V30 14602 C 1440.5 1.7894 -3.93198 0
M  V30 14603 C 1439.64 2.99534 -4.38695 0
M  V30 14604 C 1438.68 2.60207 -5.54039 0
M  V30 14605 N 1437.81 3.73587 -5.94455 0
M  V30 14606 H 1442.65 0.40131 -2.95285 0
M  V30 14607 H 1440.19 0.186429 -1.45914 0
M  V30 14608 H 1442.15 2.88046 -3.01804 0
M  V30 14609 H 1440.78 2.60122 -1.91144 0
M  V30 14610 H 1439.83 0.952465 -3.68283 0
M  V30 14611 H 1441.14 1.46012 -4.76951 0
M  V30 14612 H 1440.3 3.81526 -4.71724 0
M  V30 14613 H 1439.04 3.35661 -3.53812 0
M  V30 14614 H 1438.04 1.76638 -5.20652 0
M  V30 14615 H 1439.27 2.2524 -6.40659 0
M  V30 14616 H 1437.21 4.0946 -5.12521 0
M  V30 14617 H 1437.13 3.44455 -6.72969 0
M  V30 14618 H 1438.4 4.56133 -6.3211 0
M  V30 14619 N 1442.63 1.56409 0.193394 0
M  V30 14620 C 1443.59 1.93822 1.22334 0
M  V30 14621 C 1444.59 0.819513 1.3835 0
M  V30 14622 O 1445.78 1.0869 1.36132 0
M  V30 14623 C 1442.91 2.21375 2.59241 0
M  V30 14624 H 1444.1 2.85967 0.903502 0
M  V30 14625 H 1441.66 1.50125 0.43498 0
M  V30 14626 H 1442.39 1.31874 2.96277 0
M  V30 14627 H 1442.18 3.02899 2.48988 0
M  V30 14628 H 1443.67 2.51319 3.33509 0
M  V30 14629 N 1444.1 -0.461169 1.50702 0
M  V30 14630 C 1445.04 -1.57562 1.66453 0
M  V30 14631 C 1446.05 -1.53381 0.545726 0
M  V30 14632 O 1447.24 -1.58589 0.819254 0
M  V30 14633 C 1444.34 -2.9646 1.64209 0
M  V30 14634 C 1443.51 -3.25405 2.92285 0
M  V30 14635 C 1442.57 -4.43906 2.82549 0
M  V30 14636 O 1441.6 -4.43726 3.56505 0
M  V30 14637 N 1442.8 -5.46131 1.96777 0
M  V30 14638 H 1445.56 -1.44463 2.62584 0
M  V30 14639 H 1443.12 -0.649749 1.4829 0
M  V30 14640 H 1445.12 -3.73719 1.55295 0
M  V30 14641 H 1443.69 -3.03278 0.757718 0
M  V30 14642 H 1442.91 -2.36666 3.1525 0
M  V30 14643 H 1444.19 -3.41559 3.77114 0
M  V30 14644 H 1443.59 -5.49103 1.36023 0
M  V30 14645 H 1442.15 -6.22335 1.9376 0
M  V30 14646 N 1445.58 -1.40446 -0.715026 0
M  V30 14647 C 1446.51 -1.36673 -1.83993 0
M  V30 14648 C 1447.53 -0.272038 -1.60511 0
M  V30 14649 O 1448.72 -0.532425 -1.70375 0
M  V30 14650 C 1445.82 -1.10423 -3.20406 0
M  V30 14651 C 1444.99 -2.31557 -3.71079 0
M  V30 14652 C 1444.05 -2.01459 -4.86108 0
M  V30 14653 O 1443.07 -2.7433 -4.9873 0
M  V30 14654 N 1444.28 -0.992899 -5.71946 0
M  V30 14655 H 1447.04 -2.3362 -1.87728 0
M  V30 14656 H 1444.6 -1.34807 -0.896586 0
M  V30 14657 H 1446.59 -0.88273 -3.94956 0
M  V30 14658 H 1445.16 -0.221408 -3.11815 0
M  V30 14659 H 1444.38 -2.69534 -2.87655 0
M  V30 14660 H 1445.67 -3.1231 -4.01671 0
M  V30 14661 H 1445.07 -0.389387 -5.64358 0
M  V30 14662 H 1443.63 -0.831299 -6.46477 0
M  V30 14663 N 1447.06 0.947303 -1.25952 0
M  V30 14664 C 1448.31 1.6953 -1.11299 0
M  V30 14665 C 1448.64 1.9113 0.343961 0
M  V30 14666 O 1447.91 1.48755 1.25309 0
M  V30 14667 C 1448.2 3.0738 -1.87588 0
M  V30 14668 C 1448.05 2.93145 -3.41154 0
M  V30 14669 C 1449.37 4.07396 -1.66483 0
M  V30 14670 H 1446.49 0.615281 -0.405707 0
M  V30 14671 H 1449.13 1.10064 -1.54874 0
M  V30 14672 H 1447.28 3.58143 -1.50553 0
M  V30 14673 H 1448.95 2.49651 -3.87907 0
M  V30 14674 H 1447.19 2.28902 -3.68492 0
M  V30 14675 H 1447.87 3.9089 -3.89755 0
M  V30 14676 H 1450.34 3.65572 -1.98738 0
M  V30 14677 H 1449.22 5.01876 -2.22287 0
M  V30 14678 H 1449.48 4.379 -0.607916 0
M  V30 14679 N 1448.54 1.07657 1.15099 0
M  V30 14680 C 1449.49 0.694043 2.22004 0
M  V30 14681 C 1450.48 -0.296607 1.66783 0
M  V30 14682 O 1451.69 -0.159989 1.79288 0
M  V30 14683 H 1448.06 0.206374 0.723128 0
M  V30 14684 H 1450.03 1.60523 2.51545 0
M  V30 14685 C 1448.78 0.111245 3.47522 0
M  V30 14686 H 1448.1 0.864677 3.90338 0
M  V30 14687 H 1449.54 -0.118705 4.23834 0
M  V30 14688 C 1448 -1.14889 3.16705 0
M  V30 14689 O 1448.53 -2.2349 3.33789 0
M  V30 14690 N 1446.74 -1.05627 2.70724 0
M  V30 14691 H 1446.29 -0.172463 2.57022 0
M  V30 14692 H 1446.24 -1.9002 2.50479 0
M  V30 14693 N 1450.02 -1.31994 0.861122 0
M  V30 14694 C 1451.26 -1.96636 0.466754 0
M  V30 14695 C 1451.59 -1.6845 -0.982328 0
M  V30 14696 O 1450.86 -0.995157 -1.68741 0
M  V30 14697 H 1449.44 -0.727489 0.169613 0
M  V30 14698 H 1452.1 -1.60962 1.09897 0
M  V30 14699 H 1451.19 -3.05937 0.61716 0
M  V30 14700 N 1451.49 -0.619688 -1.44906 0
M  V30 14701 C 1452.44 0.0920359 -2.30616 0
M  V30 14702 C 1453.41 0.848114 -1.42815 0
M  V30 14703 O 1454.6 0.831439 -1.71732 0
M  V30 14704 C 1451.74 1.07537 -3.27917 0
M  V30 14705 C 1450.85 0.318904 -4.30821 0
M  V30 14706 C 1449.98 1.29303 -5.15222 0
M  V30 14707 C 1449.02 0.525071 -6.09844 0
M  V30 14708 N 1448.16 1.44909 -6.86983 0
M  V30 14709 H 1453 -0.644834 -2.9094 0
M  V30 14710 H 1450.54 -0.329785 -1.43356 0
M  V30 14711 H 1452.5 1.65874 -3.82808 0
M  V30 14712 H 1451.13 1.7795 -2.6932 0
M  V30 14713 H 1450.18 -0.380192 -3.78495 0
M  V30 14714 H 1451.49 -0.279742 -4.98015 0
M  V30 14715 H 1450.64 1.94809 -5.74573 0
M  V30 14716 H 1449.38 1.92561 -4.48076 0
M  V30 14717 H 1448.39 -0.14355 -5.49613 0
M  V30 14718 H 1449.61 -0.102625 -6.79022 0
M  V30 14719 H 1447.56 2.06908 -6.22515 0
M  V30 14720 H 1447.48 0.90418 -7.50574 0
M  V30 14721 H 1448.74 2.09335 -7.50866 0
M  V30 14722 N 1452.97 1.53444 -0.359552 0
M  V30 14723 C 1454.22 2.00769 0.231564 0
M  V30 14724 C 1454.54 1.2487 1.49775 0
M  V30 14725 O 1453.81 0.360284 1.92558 0
M  V30 14726 H 1452.39 0.741732 0.0885581 0
M  V30 14727 H 1455.05 1.88785 -0.484397 0
M  V30 14728 H 1454.15 3.0865 0.462789 0
M  V30 14729 N 1454.45 0.0885642 1.57351 0
M  V30 14730 C 1455.4 -0.890284 2.14888 0
M  V30 14731 C 1456.39 -1.29671 1.09004 0
M  V30 14732 O 1457.6 -1.272 1.27359 0
M  V30 14733 H 1453.97 -0.305107 0.687324 0
M  V30 14734 H 1455.94 -0.380243 2.95967 0
M  V30 14735 C 1454.69 -2.14216 2.73874 0
M  V30 14736 H 1454.02 -1.8383 3.55031 0
M  V30 14737 H 1455.46 -2.8078 3.17708 0
M  V30 14738 C 1453.92 -2.91186 1.69448 0
M  V30 14739 O 1454.45 -3.85494 1.12949 0
M  V30 14740 N 1452.65 -2.54603 1.40091 0
M  V30 14741 H 1452.2 -1.77984 1.86225 0
M  V30 14742 H 1452.16 -3.06403 0.704577 0
M  V30 14743 N 1455.93 -1.56509 -0.185096 0
M  V30 14744 C 1456.88 -1.95336 -1.22934 0
M  V30 14745 C 1457.85 -0.81532 -1.44713 0
M  V30 14746 O 1459.03 -1.07431 -1.57681 0
M  V30 14747 C 1456.17 -2.30671 -2.56681 0
M  V30 14748 C 1455.28 -3.57586 -2.42397 0
M  V30 14749 C 1454.42 -3.82197 -3.68916 0
M  V30 14750 C 1453.46 -5.02505 -3.49507 0
M  V30 14751 N 1452.59 -5.23319 -4.68062 0
M  V30 14752 H 1457.43 -2.84361 -0.89123 0
M  V30 14753 H 1454.97 -1.40715 -0.428689 0
M  V30 14754 H 1456.93 -2.49176 -3.34615 0
M  V30 14755 H 1455.56 -1.44773 -2.88514 0
M  V30 14756 H 1454.61 -3.47072 -1.55709 0
M  V30 14757 H 1455.92 -4.45677 -2.23994 0
M  V30 14758 H 1455.08 -4.00996 -4.55288 0
M  V30 14759 H 1453.82 -2.92455 -3.90284 0
M  V30 14760 H 1452.82 -4.83619 -2.6152 0
M  V30 14761 H 1454.05 -5.93765 -3.29574 0
M  V30 14762 H 1451.99 -4.36526 -4.89674 0
M  V30 14763 H 1451.91 -6.05608 -4.52521 0
M  V30 14764 H 1453.18 -5.46585 -5.55757 0
M  V30 14765 N 1457.41 0.45317 -1.50944 0
M  V30 14766 C 1458.34 1.55655 -1.74051 0
M  V30 14767 C 1459.32 1.59545 -0.58987 0
M  V30 14768 O 1460.5 1.75526 -0.830922 0
M  V30 14769 C 1457.63 2.93857 -1.85109 0
M  V30 14770 C 1456.59 3.04832 -3.00435 0
M  V30 14771 C 1455.91 4.44858 -2.96657 0
M  V30 14772 C 1457.21 2.80381 -4.40663 0
M  V30 14773 H 1458.91 1.36571 -2.66437 0
M  V30 14774 H 1456.45 0.655572 -1.28212 0
M  V30 14775 H 1458.41 3.70992 -1.99857 0
M  V30 14776 H 1457.13 3.14138 -0.893579 0
M  V30 14777 H 1455.79 2.30134 -2.85366 0
M  V30 14778 H 1455.44 4.62083 -1.98716 0
M  V30 14779 H 1455.14 4.53134 -3.7409 0
M  V30 14780 H 1456.66 5.23989 -3.13478 0
M  V30 14781 H 1458.07 3.47255 -4.56165 0
M  V30 14782 H 1456.47 3.00083 -5.19683 0
M  V30 14783 H 1457.54 1.76099 -4.51793 0
M  V30 14784 N 1458.88 1.40823 0.707568 0
M  V30 14785 C 1460.3 1.35249 1.28704 0
M  V30 14786 C 1460.65 0.0298026 1.96177 0
M  V30 14787 O 1459.77 -0.872126 1.98048 0
M  V30 14788 C 1460.37 2.44965 2.34046 0
M  V30 14789 C 1458.93 2.42826 2.87598 0
M  V30 14790 C 1458.07 2.25429 1.61483 0
M  V30 14791 H 1461.02 1.50513 0.503141 0
M  V30 14792 H 1461.04 2.13334 3.1507 0
M  V30 14793 H 1460.56 3.41219 1.84908 0
M  V30 14794 H 1458.66 1.50294 3.40944 0
M  V30 14795 H 1458.77 3.38704 3.38845 0
M  V30 14796 H 1457.13 1.73089 1.86848 0
M  V30 14797 H 1457.92 3.23693 1.14359 0
M  V30 14798 N 1460.36 -0.94061 1.26453 0
M  V30 14799 C 1461.33 -2.02096 1.0812 0
M  V30 14800 C 1462.33 -1.60773 0.0293393 0
M  V30 14801 O 1463.52 -1.72051 0.272796 0
M  V30 14802 C 1460.65 -3.34749 0.644646 0
M  V30 14803 H 1461.84 -2.19792 2.04038 0
M  V30 14804 H 1459.39 -1.11965 1.09058 0
M  V30 14805 H 1460.13 -3.22752 -0.316509 0
M  V30 14806 H 1459.91 -3.66095 1.40416 0
M  V30 14807 H 1461.4 -4.14117 0.538233 0
M  V30 14808 N 1461.84 -1.08266 -1.14527 0
M  V30 14809 C 1463.07 -0.83288 -1.89396 0
M  V30 14810 C 1463.48 0.614823 -1.78509 0
M  V30 14811 O 1462.84 1.42239 -1.14343 0
M  V30 14812 C 1462.89 -1.244 -3.39421 0
M  V30 14813 O 1462.61 -2.63491 -3.50006 0
M  V30 14814 C 1464.11 -1.02488 -4.3129 0
M  V30 14815 H 1461.33 -0.300474 -0.599964 0
M  V30 14816 H 1463.88 -1.44155 -1.4505 0
M  V30 14817 H 1462.03 -0.679466 -3.81395 0
M  V30 14818 H 1462.45 -2.80517 -4.43182 0
M  V30 14819 H 1463.92 -1.36194 -5.34935 0
M  V30 14820 H 1464.4 0.0381961 -4.39183 0
M  V30 14821 H 1465 -1.57477 -3.95071 0
M  V30 14822 N 1463.32 1.31536 -0.86811 0
M  V30 14823 C 1464.57 1.96386 -0.477176 0
M  V30 14824 C 1464.89 1.68968 0.973381 0
M  V30 14825 O 1464.16 1.00409 1.68211 0
M  V30 14826 H 1462.74 0.726579 -0.173468 0
M  V30 14827 H 1465.4 1.60377 -1.10749 0
M  V30 14828 H 1464.5 3.05606 -0.633376 0
M  V30 14829 N 1464.8 0.627364 1.44575 0
M  V30 14830 C 1465.71 -0.0811184 2.3446 0
M  V30 14831 C 1466.72 -0.839668 1.52399 0
M  V30 14832 O 1467.9 -0.792784 1.8514 0
M  V30 14833 C 1464.96 -1.05296 3.30323 0
M  V30 14834 C 1464.03 -0.294201 4.28291 0
M  V30 14835 C 1463.26 -1.21975 5.19575 0
M  V30 14836 O 1463.48 -2.45834 5.14706 0
M  V30 14837 O 1462.42 -0.70611 5.97744 0
M  V30 14838 H 1466.24 0.658067 2.96485 0
M  V30 14839 H 1463.83 0.387565 1.44285 0
M  V30 14840 H 1465.71 -1.61218 3.89341 0
M  V30 14841 H 1464.38 -1.77283 2.70837 0
M  V30 14842 H 1463.29 0.307969 3.7283 0
M  V30 14843 H 1464.62 0.385567 4.90687 0
M  V30 14844 N 1466.28 -1.53251 0.367684 0
M  V30 14845 C 1467.22 -2.27318 -0.4929 0
M  V30 14846 C 1468.22 -1.30376 -1.08159 0
M  V30 14847 O 1469.42 -1.47996 -1.02455 0
M  V30 14848 H 1465.8 -0.730709 -0.177677 0
M  V30 14849 H 1467.77 -2.98005 0.153525 0
M  V30 14850 C 1466.52 -3.07678 -1.61955 0
M  V30 14851 H 1465.84 -3.82117 -1.17587 0
M  V30 14852 H 1467.28 -3.62678 -2.19638 0
M  V30 14853 C 1465.74 -2.18648 -2.5631 0
M  V30 14854 O 1466.27 -1.79869 -3.5918 0
M  V30 14855 N 1464.48 -1.83239 -2.25548 0
M  V30 14856 H 1464.02 -2.14973 -1.4193 0
M  V30 14857 H 1463.98 -1.23957 -2.88933 0
M  V30 14858 N 1467.75 -0.0969077 -1.57302 0
M  V30 14859 C 1468.72 0.846895 -2.1298 0
M  V30 14860 C 1469.72 1.20962 -1.05947 0
M  V30 14861 O 1470.91 1.13876 -1.31826 0
M  V30 14862 C 1468.04 2.14215 -2.65188 0
M  V30 14863 H 1469.23 0.363398 -2.9769 0
M  V30 14864 H 1466.78 0.152107 -1.55558 0
M  V30 14865 H 1467.52 2.67046 -1.84002 0
M  V30 14866 H 1467.3 1.89176 -3.43445 0
M  V30 14867 H 1468.79 2.81728 -3.08252 0
M  V30 14868 N 1469.23 1.56605 0.176793 0
M  V30 14869 C 1470.46 1.85812 0.910019 0
M  V30 14870 C 1470.87 0.68164 1.76066 0
M  V30 14871 O 1470.23 -0.34936 1.79125 0
M  V30 14872 C 1470.28 3.14001 1.79125 0
M  V30 14873 O 1470 4.27114 0.974931 0
M  V30 14874 C 1471.5 3.56516 2.6346 0
M  V30 14875 H 1468.72 0.616608 0.264643 0
M  V30 14876 H 1471.27 2.03719 0.178537 0
M  V30 14877 H 1469.42 2.97937 2.47613 0
M  V30 14878 H 1469.84 5.00227 1.57711 0
M  V30 14879 H 1471.31 4.49128 3.20918 0
M  V30 14880 H 1471.79 2.80373 3.38065 0
M  V30 14881 H 1472.39 3.75173 2.00313 0
M  V30 14882 N 1470.71 -0.445159 1.51182 0
M  V30 14883 C 1472.12 -1.02528 1.56028 0
M  V30 14884 C 1472.47 -1.92503 0.379087 0
M  V30 14885 O 1471.6 -2.10424 -0.505056 0
M  V30 14886 C 1472.19 -1.86621 2.82768 0
M  V30 14887 C 1470.75 -2.39697 2.90211 0
M  V30 14888 C 1469.9 -1.18705 2.50608 0
M  V30 14889 H 1472.85 -0.226732 1.57072 0
M  V30 14890 H 1472.87 -2.71987 2.66089 0
M  V30 14891 H 1472.38 -1.2111 3.68719 0
M  V30 14892 H 1470.48 -3.08686 2.08672 0
M  V30 14893 H 1470.6 -2.73029 3.9369 0
M  V30 14894 H 1468.96 -1.52995 2.03629 0
M  V30 14895 H 1469.74 -0.548156 3.38895 0
M  V30 14896 N 1472.19 -1.41197 -0.700089 0
M  V30 14897 C 1473.43 -1.40311 -1.46011 0
M  V30 14898 C 1473.76 -0.0106853 -1.94497 0
M  V30 14899 O 1473.02 0.976648 -1.69588 0
M  V30 14900 C 1473.32 -2.35259 -2.6905 0
M  V30 14901 C 1472.98 -3.82194 -2.39245 0
M  V30 14902 C 1471.64 -4.22223 -2.30827 0
M  V30 14903 C 1474 -4.74983 -2.1457 0
M  V30 14904 C 1471.32 -5.53055 -1.95824 0
M  V30 14905 C 1473.68 -6.0613 -1.81077 0
M  V30 14906 C 1472.34 -6.45185 -1.71151 0
M  V30 14907 H 1471.61 -0.513434 -0.534291 0
M  V30 14908 H 1474.26 -1.73963 -0.800574 0
M  V30 14909 H 1472.56 -1.94845 -3.39915 0
M  V30 14910 H 1474.26 -2.31849 -3.2718 0
M  V30 14911 H 1470.85 -3.50488 -2.4669 0
M  V30 14912 H 1475.03 -4.44864 -2.20021 0
M  V30 14913 H 1470.29 -5.822 -1.86689 0
M  V30 14914 H 1474.46 -6.77533 -1.61002 0
M  V30 14915 H 1472.09 -7.46476 -1.43796 0
M  V30 14916 N 1473.67 0.933891 -1.2695 0
M  V30 14917 C 1474.91 1.68091 -1.12924 0
M  V30 14918 C 1475.24 1.91747 0.326088 0
M  V30 14919 O 1474.5 1.50126 1.25541 0
M  V30 14920 C 1474.79 3.05706 -1.85145 0
M  V30 14921 C 1474.46 3.01781 -3.35021 0
M  V30 14922 C 1473.12 3.00417 -3.75903 0
M  V30 14923 C 1475.47 2.93537 -4.3068 0
M  V30 14924 C 1472.8 2.88585 -5.10818 0
M  V30 14925 C 1475.15 2.83246 -5.65645 0
M  V30 14926 C 1473.82 2.80229 -6.05828 0
M  V30 14927 H 1473.09 0.615087 -0.413217 0
M  V30 14928 H 1475.74 1.08957 -1.57482 0
M  V30 14929 H 1474.04 3.68508 -1.33077 0
M  V30 14930 H 1475.74 3.62369 -1.71726 0
M  V30 14931 H 1472.33 3.03626 -3.02505 0
M  V30 14932 H 1476.51 2.93693 -4.00073 0
M  V30 14933 H 1471.77 2.84632 -5.41105 0
M  V30 14934 H 1475.94 2.75832 -6.39445 0
M  V30 14935 H 1473.57 2.70818 -7.10325 0
M  V30 14936 N 1475.14 1.08871 1.13951 0
M  V30 14937 C 1476.09 0.71755 2.21255 0
M  V30 14938 C 1477.09 -0.278901 1.67088 0
M  V30 14939 O 1478.29 -0.140964 1.79447 0
M  V30 14940 H 1474.67 0.214032 0.720898 0
M  V30 14941 H 1476.64 1.63182 2.49828 0
M  V30 14942 C 1475.39 0.148098 3.47384 0
M  V30 14943 H 1474.71 0.906028 3.89398 0
M  V30 14944 H 1476.15 -0.0737451 4.23936 0
M  V30 14945 C 1474.61 -1.11524 3.17906 0
M  V30 14946 O 1475.14 -2.19937 3.3614 0
M  V30 14947 N 1473.34 -1.0275 2.71829 0
M  V30 14948 H 1472.89 -0.145193 2.5719 0
M  V30 14949 H 1472.85 -1.87353 2.5248 0
M  V30 14950 N 1476.62 -1.31073 0.875073 0
M  V30 14951 C 1477.87 -1.96809 0.489273 0
M  V30 14952 C 1478.2 -1.68979 -0.957073 0
M  V30 14953 O 1477.48 -0.989061 -1.67475 0
M  V30 14954 C 1477.76 -3.52139 0.752998 0
M  V30 14955 C 1477.61 -3.89524 2.24925 0
M  V30 14956 C 1478.93 -4.39535 0.222871 0
M  V30 14957 H 1476.05 -0.714873 0.179238 0
M  V30 14958 H 1478.69 -1.55114 1.09725 0
M  V30 14959 H 1476.84 -3.87785 0.23553 0
M  V30 14960 H 1478.51 -3.63953 2.83436 0
M  V30 14961 H 1476.76 -3.37948 2.71981 0
M  V30 14962 H 1477.43 -4.97845 2.38441 0
M  V30 14963 H 1479.9 -4.10741 0.665645 0
M  V30 14964 H 1478.78 -5.47159 0.436806 0
M  V30 14965 H 1479.04 -4.33346 -0.875445 0
M  V30 14966 N 1478.1 -0.635022 -1.4424 0
M  V30 14967 C 1479.06 0.0579377 -2.29127 0
M  V30 14968 C 1480.06 0.768489 -1.41248 0
M  V30 14969 O 1481.25 0.612489 -1.63077 0
M  V30 14970 C 1478.39 1.09266 -3.22914 0
M  V30 14971 H 1479.58 -0.688723 -2.91885 0
M  V30 14972 H 1477.13 -0.395347 -1.51217 0
M  V30 14973 H 1477.87 1.86917 -2.65014 0
M  V30 14974 H 1477.65 0.587036 -3.87681 0
M  V30 14975 H 1479.14 1.57716 -3.86672 0
M  V30 14976 N 1479.58 1.53054 -0.375806 0
M  V30 14977 C 1480.54 2.24666 0.453608 0
M  V30 14978 C 1481.54 1.25816 1.00135 0
M  V30 14979 O 1482.73 1.50016 0.885481 0
M  V30 14980 C 1479.86 2.99131 1.63503 0
M  V30 14981 H 1481.06 2.994 -0.173172 0
M  V30 14982 H 1478.61 1.55778 -0.127673 0
M  V30 14983 H 1479.34 2.28666 2.29962 0
M  V30 14984 H 1479.13 3.71671 1.24913 0
M  V30 14985 H 1480.62 3.53542 2.22256 0
M  V30 14986 N 1481.06 0.105248 1.57248 0
M  V30 14987 C 1481.99 -0.846915 2.176 0
M  V30 14988 C 1482.97 -1.28706 1.11216 0
M  V30 14989 O 1484.15 -1.35213 1.39396 0
M  V30 14990 C 1481.28 -2.10228 2.76445 0
M  V30 14991 C 1480.24 -1.80041 3.8829 0
M  V30 14992 C 1479.56 -3.12491 4.33882 0
M  V30 14993 C 1480.86 -1.07943 5.11024 0
M  V30 14994 H 1482.56 -0.344052 2.97417 0
M  V30 14995 H 1480.1 -0.164045 1.43063 0
M  V30 14996 H 1482.06 -2.77284 3.17319 0
M  V30 14997 H 1480.78 -2.62815 1.93897 0
M  V30 14998 H 1479.44 -1.15379 3.4797 0
M  V30 14999 H 1479.09 -3.62985 3.48211 0
M  V30 15000 H 1478.79 -2.93072 5.09296 0
M  V30 15001 H 1480.31 -3.80688 4.77398 0
M  V30 15002 H 1481.72 -1.65127 5.49004 0
M  V30 15003 H 1480.12 -0.986674 5.91933 0
M  V30 15004 H 1481.19 -0.0638511 4.84858 0
M  V30 15005 N 1482.53 -1.56697 -0.168486 0
M  V30 15006 C 1483.76 -1.86292 -0.900152 0
M  V30 15007 C 1484.18 -0.690968 -1.75702 0
M  V30 15008 O 1483.53 0.339855 -1.79308 0
M  V30 15009 C 1483.59 -3.14946 -1.77457 0
M  V30 15010 O 1483.31 -4.27625 -0.952267 0
M  V30 15011 C 1484.81 -3.57908 -2.61566 0
M  V30 15012 H 1482.03 -0.618003 -0.261369 0
M  V30 15013 H 1484.57 -2.03811 -0.16773 0
M  V30 15014 H 1482.73 -2.99246 -2.4603 0
M  V30 15015 H 1483.14 -5.01057 -1.55056 0
M  V30 15016 H 1484.61 -4.50823 -3.18532 0
M  V30 15017 H 1485.09 -2.82162 -3.36573 0
M  V30 15018 H 1485.7 -3.7623 -1.98321 0
M  V30 15019 N 1484.01 0.437135 -1.51416 0
M  V30 15020 C 1485.26 1.1835 -1.63328 0
M  V30 15021 C 1485.57 1.92343 -0.355455 0
M  V30 15022 O 1486.78 2.69183 -0.353951 0
M  V30 15023 C 1485.24 2.15235 -2.88447 0
M  V30 15024 C 1484.84 1.46889 -4.23235 0
M  V30 15025 C 1486.59 2.90303 -3.09716 0
M  V30 15026 C 1484.5 2.42259 -5.39504 0
M  V30 15027 H 1483.43 0.445467 -0.608338 0
M  V30 15028 H 1486.08 0.450528 -1.77883 0
M  V30 15029 H 1484.46 2.91968 -2.67527 0
M  V30 15030 H 1485.63 0.757128 -4.54537 0
M  V30 15031 H 1483.95 0.839725 -4.07845 0
M  V30 15032 H 1486.54 3.61747 -3.93756 0
M  V30 15033 H 1486.89 3.5166 -2.22802 0
M  V30 15034 H 1487.42 2.20677 -3.30978 0
M  V30 15035 H 1484.16 1.85591 -6.28678 0
M  V30 15036 H 1483.68 3.11488 -5.12577 0
M  V30 15037 H 1485.36 3.03384 -5.7146 0
M  V30 15038 N 1485.49 1.41566 0.692592 0
M  V30 15039 C 1486.74 1.40381 1.44831 0
M  V30 15040 C 1487.05 0.0172068 1.95592 0
M  V30 15041 O 1488.26 -0.11726 2.71247 0
M  V30 15042 C 1486.71 2.46844 2.61908 0
M  V30 15043 C 1486.32 3.91426 2.17921 0
M  V30 15044 C 1488.07 2.548 3.39525 0
M  V30 15045 C 1485.97 4.89436 3.31974 0
M  V30 15046 H 1484.9 0.522062 0.544028 0
M  V30 15047 H 1487.55 1.67402 0.751589 0
M  V30 15048 H 1485.94 2.12959 3.33863 0
M  V30 15049 H 1487.11 4.34575 1.53236 0
M  V30 15050 H 1485.43 3.87158 1.5329 0
M  V30 15051 H 1488.02 3.25207 4.24434 0
M  V30 15052 H 1488.37 1.58579 3.84913 0
M  V30 15053 H 1488.9 2.87791 2.74629 0
M  V30 15054 H 1485.64 5.87071 2.91595 0
M  V30 15055 H 1485.16 4.50933 3.95499 0
M  V30 15056 H 1486.84 5.10331 3.97708 0
M  V30 15057 N 1486.97 -0.927146 1.27443 0
M  V30 15058 C 1488.19 -1.71426 1.16739 0
M  V30 15059 C 1488.62 -1.86122 -0.272063 0
M  V30 15060 O 1487.98 -1.36165 -1.19703 0
M  V30 15061 C 1488.02 -3.09131 1.85661 0
M  V30 15062 O 1487.13 -3.95897 1.15495 0
M  V30 15063 H 1486.47 -0.525428 0.405983 0
M  V30 15064 H 1489 -1.16022 1.68523 0
M  V30 15065 H 1489.01 -3.59442 1.93042 0
M  V30 15066 H 1487.68 -2.97752 2.90373 0
M  V30 15067 H 1486.26 -3.54337 1.16187 0
M  V30 15068 N 1488.45 -1.09474 -1.13372 0
M  V30 15069 C 1489.67 -0.853093 -1.89043 0
M  V30 15070 C 1490.1 0.590075 -1.78605 0
M  V30 15071 O 1489.45 1.41462 -1.13394 0
M  V30 15072 C 1489.5 -1.29359 -3.36599 0
M  V30 15073 O 1488.61 -0.452355 -4.09912 0
M  V30 15074 H 1487.95 -0.308922 -0.587761 0
M  V30 15075 H 1490.48 -1.459 -1.43437 0
M  V30 15076 H 1490.49 -1.27921 -3.87428 0
M  V30 15077 H 1489.16 -2.3446 -3.43513 0
M  V30 15078 H 1487.74 -0.531098 -3.69099 0
M  V30 15079 N 1489.92 1.30607 -0.882012 0
M  V30 15080 C 1491.17 1.96547 -0.499703 0
M  V30 15081 C 1491.5 1.69484 0.948098 0
M  V30 15082 O 1490.78 0.997929 1.66948 0
M  V30 15083 C 1491.06 3.51735 -0.771662 0
M  V30 15084 C 1490.91 3.88326 -2.26987 0
M  V30 15085 C 1492.23 4.39411 -0.246178 0
M  V30 15086 H 1489.35 0.713912 -0.183026 0
M  V30 15087 H 1491.99 1.5453 -1.10546 0
M  V30 15088 H 1490.14 3.87655 -0.256092 0
M  V30 15089 H 1491.82 3.62444 -2.85362 0
M  V30 15090 H 1490.06 3.36501 -2.7377 0
M  V30 15091 H 1490.73 4.96574 -2.41078 0
M  V30 15092 H 1493.21 4.10382 -0.687419 0
M  V30 15093 H 1492.08 5.4692 -0.465817 0
M  V30 15094 H 1492.34 4.33804 0.852452 0
M  V30 15095 N 1491.4 0.642663 1.43901 0
M  V30 15096 C 1492.65 0.151478 2.01532 0
M  V30 15097 C 1492.97 -1.23519 1.50891 0
M  V30 15098 O 1492.24 -1.82299 0.717197 0
M  V30 15099 H 1490.82 0.0530091 0.745117 0
M  V30 15100 H 1493.48 0.831958 1.76251 0
M  V30 15101 H 1492.58 0.127995 3.11837 0
M  V30 15102 N 1492.88 -1.52852 0.383918 0
M  V30 15103 C 1493.81 -2.29213 -0.44539 0
M  V30 15104 C 1494.79 -1.3238 -1.06815 0
M  V30 15105 O 1495.98 -1.61269 -1.08194 0
M  V30 15106 C 1493.11 -3.09497 -1.57573 0
M  V30 15107 C 1492.06 -4.14168 -1.07928 0
M  V30 15108 C 1491.39 -4.82644 -2.30128 0
M  V30 15109 C 1492.69 -5.22082 -0.151035 0
M  V30 15110 H 1494.38 -2.98786 0.19172 0
M  V30 15111 H 1491.93 -1.43695 0.0936471 0
M  V30 15112 H 1493.88 -3.61672 -2.16267 0
M  V30 15113 H 1492.6 -2.37647 -2.24034 0
M  V30 15114 H 1491.26 -3.62966 -0.514909 0
M  V30 15115 H 1490.91 -4.07348 -2.95087 0
M  V30 15116 H 1490.61 -5.53388 -1.97574 0
M  V30 15117 H 1492.14 -5.37621 -2.89475 0
M  V30 15118 H 1493.55 -5.69649 -0.646003 0
M  V30 15119 H 1491.95 -6.00041 0.0844833 0
M  V30 15120 H 1493.02 -4.78228 0.801618 0
M  V30 15121 N 1494.36 -0.113586 -1.5719 0
M  V30 15122 C 1495.29 0.835363 -2.18046 0
M  V30 15123 C 1496.27 1.28114 -1.11897 0
M  V30 15124 O 1497.46 1.34472 -1.40111 0
M  V30 15125 C 1494.59 2.08759 -2.77556 0
M  V30 15126 C 1493.54 1.77979 -3.8924 0
M  V30 15127 C 1492.87 3.10185 -4.35533 0
M  V30 15128 C 1494.17 1.05231 -5.11589 0
M  V30 15129 H 1495.86 0.328275 -2.97595 0
M  V30 15130 H 1493.41 0.156456 -1.43148 0
M  V30 15131 H 1495.36 2.75597 -3.18785 0
M  V30 15132 H 1494.08 2.61783 -1.95288 0
M  V30 15133 H 1492.74 1.13532 -3.48577 0
M  V30 15134 H 1492.39 3.61133 -3.50131 0
M  V30 15135 H 1492.09 2.90367 -5.10843 0
M  V30 15136 H 1493.61 3.78151 -4.7941 0
M  V30 15137 H 1495.03 1.62213 -5.49872 0
M  V30 15138 H 1493.42 0.955269 -5.92448 0
M  V30 15139 H 1494.49 0.038137 -4.84885 0
M  V30 15140 N 1495.84 1.56784 0.160173 0
M  V30 15141 C 1497.06 1.87129 0.894283 0
M  V30 15142 C 1497.49 0.701172 1.74543 0
M  V30 15143 O 1496.85 -0.349542 1.77899 0
M  V30 15144 C 1496.89 3.15969 1.73769 0
M  V30 15145 O 1496 2.98977 2.84054 0
M  V30 15146 H 1495.34 0.615192 0.249869 0
M  V30 15147 H 1497.87 2.04012 0.154956 0
M  V30 15148 H 1497.88 3.47657 2.13538 0
M  V30 15149 H 1496.55 4.00742 1.11258 0
M  V30 15150 H 1495.13 2.78668 2.47788 0
M  V30 15151 N 1497.32 -0.429099 1.51646 0
M  V30 15152 C 1498.56 -1.17958 1.64966 0
M  V30 15153 C 1498.89 -1.90667 0.368755 0
M  V30 15154 O 1498.17 -1.83945 -0.632023 0
M  V30 15155 C 1498.45 -2.19002 2.8585 0
M  V30 15156 C 1498.31 -1.50321 4.23938 0
M  V30 15157 C 1499.62 -3.19895 3.0225 0
M  V30 15158 H 1496.74 -0.427474 0.600362 0
M  V30 15159 H 1499.39 -0.46777 1.84152 0
M  V30 15160 H 1497.54 -2.79707 2.69623 0
M  V30 15161 H 1499.21 -0.928902 4.51851 0
M  V30 15162 H 1497.45 -0.805431 4.26257 0
M  V30 15163 H 1498.12 -2.2395 5.0453 0
M  V30 15164 H 1500.6 -2.69251 3.17243 0
M  V30 15165 H 1499.47 -3.8788 3.88381 0
M  V30 15166 H 1499.73 -3.86477 2.14682 0
M  V30 15167 N 1498.79 -1.41931 -0.685074 0
M  V30 15168 C 1500.02 -1.45432 -1.47866 0
M  V30 15169 C 1500.44 -0.0641302 -1.87991 0
M  V30 15170 O 1499.8 0.935081 -1.55325 0
M  V30 15171 C 1499.85 -2.37801 -2.71077 0
M  V30 15172 O 1498.95 -1.84229 -3.68963 0
M  V30 15173 H 1498.29 -0.493156 -0.444627 0
M  V30 15174 H 1500.82 -1.86508 -0.841177 0
M  V30 15175 H 1500.83 -2.54033 -3.19266 0
M  V30 15176 H 1499.51 -3.38807 -2.41211 0
M  V30 15177 H 1498.09 -1.775 -3.27945 0
M  V30 15178 N 1500.27 0.920374 -1.27933 0
M  V30 15179 C 1501.22 2.02196 -1.1129 0
M  V30 15180 C 1502.19 1.66096 -0.0118871 0
M  V30 15181 O 1503.37 1.8999 -0.175586 0
M  V30 15182 C 1500.51 3.36312 -0.77383 0
M  V30 15183 C 1499.63 3.85322 -1.95322 0
M  V30 15184 C 1498.76 5.07919 -1.55537 0
M  V30 15185 C 1497.8 5.49244 -2.7018 0
M  V30 15186 N 1496.94 6.63034 -2.30933 0
M  V30 15187 H 1501.78 2.15764 -2.05548 0
M  V30 15188 H 1499.31 1.05691 -1.02312 0
M  V30 15189 H 1501.27 4.13451 -0.558024 0
M  V30 15190 H 1499.9 3.22531 0.131806 0
M  V30 15191 H 1498.95 3.04399 -2.28135 0
M  V30 15192 H 1500.27 4.11915 -2.81296 0
M  V30 15193 H 1499.42 5.92581 -1.30123 0
M  V30 15194 H 1498.16 4.8312 -0.666818 0
M  V30 15195 H 1497.16 4.63127 -2.96299 0
M  V30 15196 H 1498.39 5.76035 -3.59667 0
M  V30 15197 H 1496.34 6.39878 -1.44539 0
M  V30 15198 H 1496.25 6.89319 -3.10444 0
M  V30 15199 H 1497.52 7.51018 -2.08786 0
M  V30 15200 N 1501.75 1.10074 1.1279 0
M  V30 15201 C 1502.7 0.746173 2.18405 0
M  V30 15202 C 1503.67 -0.275751 1.63795 0
M  V30 15203 O 1504.85 -0.155876 1.90162 0
M  V30 15204 C 1501.99 0.180105 3.4463 0
M  V30 15205 C 1501.1 1.25688 4.13312 0
M  V30 15206 C 1500.24 0.652852 5.27173 0
M  V30 15207 C 1499.28 1.71046 5.87716 0
M  V30 15208 N 1498.42 1.12698 6.92996 0
M  V30 15209 H 1503.26 1.65105 2.48081 0
M  V30 15210 H 1500.79 0.824768 1.21803 0
M  V30 15211 H 1502.75 -0.165948 4.1687 0
M  V30 15212 H 1501.38 -0.688014 3.15383 0
M  V30 15213 H 1500.43 1.72011 3.39288 0
M  V30 15214 H 1501.74 2.05762 4.54382 0
M  V30 15215 H 1500.9 0.25603 6.0616 0
M  V30 15216 H 1499.64 -0.17937 4.8737 0
M  V30 15217 H 1498.64 2.11676 5.07418 0
M  V30 15218 H 1499.87 2.54547 6.29589 0
M  V30 15219 H 1497.81 0.316154 6.55238 0
M  V30 15220 H 1497.73 1.86461 7.32645 0
M  V30 15221 H 1499 0.756582 7.7582 0
M  V30 15222 N 1503.23 -1.30138 0.888926 0
M  V30 15223 C 1504.17 -2.28023 0.356923 0
M  V30 15224 C 1505.14 -1.56551 -0.555066 0
M  V30 15225 O 1506.33 -1.84595 -0.482633 0
M  V30 15226 C 1503.47 -3.42546 -0.419056 0
M  V30 15227 C 1502.58 -4.28827 0.5226 0
M  V30 15228 C 1501.72 -5.30517 -0.269366 0
M  V30 15229 C 1500.76 -6.08449 0.667507 0
M  V30 15230 N 1499.89 -7.02043 -0.08938 0
M  V30 15231 H 1504.73 -2.72912 1.19678 0
M  V30 15232 H 1502.27 -1.34239 0.60152 0
M  V30 15233 H 1504.23 -4.07707 -0.884911 0
M  V30 15234 H 1502.86 -2.98716 -1.22346 0
M  V30 15235 H 1501.91 -3.63938 1.10695 0
M  V30 15236 H 1503.22 -4.83136 1.24018 0
M  V30 15237 H 1502.38 -6.01444 -0.796901 0
M  V30 15238 H 1501.12 -4.76911 -1.02014 0
M  V30 15239 H 1500.12 -5.36396 1.20664 0
M  V30 15240 H 1501.35 -6.64143 1.41744 0
M  V30 15241 H 1499.29 -6.50822 -0.822622 0
M  V30 15242 H 1499.21 -7.53859 0.568499 0
M  V30 15243 H 1500.48 -7.77206 -0.597529 0
M  V30 15244 N 1504.71 -0.650285 -1.43559 0
M  V30 15245 C 1505.62 0.0438076 -2.34559 0
M  V30 15246 C 1506.63 0.815316 -1.53716 0
M  V30 15247 O 1507.81 0.76323 -1.86378 0
M  V30 15248 C 1504.87 1.00028 -3.31957 0
M  V30 15249 C 1503.93 0.226027 -4.28705 0
M  V30 15250 C 1503.17 1.13694 -5.21449 0
M  V30 15251 O 1503.39 2.37614 -5.18551 0
M  V30 15252 O 1502.32 0.610924 -5.98792 0
M  V30 15253 H 1506.15 -0.705152 -2.954 0
M  V30 15254 H 1503.73 -0.410471 -1.43651 0
M  V30 15255 H 1505.62 1.55004 -3.91857 0
M  V30 15256 H 1504.29 1.72952 -2.73623 0
M  V30 15257 H 1503.2 -0.367244 -3.72293 0
M  V30 15258 H 1504.53 -0.463582 -4.90012 0
M  V30 15259 N 1506.18 1.52647 -0.392018 0
M  V30 15260 C 1507.46 1.94034 0.247004 0
M  V30 15261 C 1507.84 1.32767 1.64122 0
M  V30 15262 O 1507.19 0.496822 2.23033 0
M  V30 15263 C 1507.4 3.47949 0.270615 0
M  V30 15264 C 1508.75 4.21666 0.498256 0
M  V30 15265 O 1509.77 3.54469 0.350708 0
M  V30 15266 O 1508.63 5.40795 0.787586 0
M  V30 15267 H 1505.72 0.812487 0.154251 0
M  V30 15268 H 1508.27 1.63715 -0.446723 0
M  V30 15269 H 1507.04 3.84881 -0.705862 0
M  V30 15270 H 1506.66 3.8458 1.00915 0
M  V30 15271 O 1507.7 0.262365 1.59355 0
M  V30 15272 H 1508.39 -0.310171 1.91201 0
M  V30 END ATOM
M  V30 BEGIN BOND
M  V30 END BOND
M  V30 END CTAB
M  END
$$$$
