drugbank_target|P05121 Plasminogen activator inhibitor 1 (DB00009; DB00013; DB00015; DB00029; DB00031; DB00055; DB00197; DB05254; DB09130)
 OpenBabel12092119273D

  0  0  0     0  0            999 V3000
M  V30 BEGIN CTAB
M  V30 COUNTS 6345 6421 0 0 0
M  V30 BEGIN ATOM
M  V30 1 H -0.908 1.98254 -0.117106 0
M  V30 2 N 0 1.576 0 0
M  V30 3 C 0.933 2.03868 1.02534 0
M  V30 4 C 1.911 0.928543 1.3348 0
M  V30 5 O 3.095 1.19667 1.45644 0
M  V30 6 C 0.222 2.43627 2.35294 0
M  V30 7 C -0.732 3.65373 2.2001 0
M  V30 8 S 0.101 5.13292 1.52614 0
M  V30 9 C 1.257 5.56322 2.86805 0
M  V30 10 H 1.49 2.90518 0.631377 0
M  V30 11 H -0.977 1.52953 0.210867 0
M  V30 12 H 0.981 2.67203 3.11629 0
M  V30 13 H -0.358 1.57376 2.7183 0
M  V30 14 H -1.165 3.90944 3.18086 0
M  V30 15 H -1.563 3.418 1.51819 0
M  V30 16 H 0.729 5.58782 3.83104 0
M  V30 17 H 1.672 6.56266 2.65933 0
M  V30 18 H 2.08 4.83886 2.90714 0
M  V30 19 N 1.4781 -0.272755 1.55222 0
M  V30 20 C 2.4101 -1.35946 1.8453 0
M  V30 21 C 3.4231 -1.45525 0.729818 0
M  V30 22 O 4.6121 -1.47337 1.00767 0
M  V30 23 C 1.7121 -2.74069 1.99347 0
M  V30 24 C 0.8851 -2.87079 3.30007 0
M  V30 25 C -0.0559 -4.05879 3.34886 0
M  V30 26 O -1.0299 -3.96626 4.08261 0
M  V30 27 N 0.1721 -5.17857 2.62307 0
M  V30 28 H 2.9371 -1.11149 2.78327 0
M  V30 29 H 0.4981 -0.462869 1.55142 0
M  V30 30 H 2.4901 -3.51838 1.99981 0
M  V30 31 H 1.0601 -2.91688 1.12415 0
M  V30 32 H 0.2801 -1.96193 3.41909 0
M  V30 33 H 1.5681 -2.92701 4.16177 0
M  V30 34 H 0.9661 -5.28261 2.02377 0
M  V30 35 H -0.4769 -5.93855 2.68663 0
M  V30 36 N 2.9562 -1.48159 -0.537278 0
M  V30 37 C 3.8892 -1.567 -1.65893 0
M  V30 38 C 4.8672 -0.41787 -1.57139 0
M  V30 39 O 6.0512 -0.628461 -1.77715 0
M  V30 40 C 3.1782 -1.48818 -3.04255 0
M  V30 41 C 2.2242 -2.68482 -3.31391 0
M  V30 42 S 3.0572 -4.30516 -3.1846 0
M  V30 43 C 4.2132 -4.2522 -4.59281 0
M  V30 44 H 4.4462 -2.5159 -1.58397 0
M  V30 45 H 1.9792 -1.36602 -0.719672 0
M  V30 46 H 3.9372 -1.44958 -3.84054 0
M  V30 47 H 2.5982 -0.552777 -3.09198 0
M  V30 48 H 1.7912 -2.59085 -4.32309 0
M  V30 49 H 1.3932 -2.69567 -2.59248 0
M  V30 50 H 3.6852 -3.94703 -5.5065 0
M  V30 51 H 4.6282 -5.26292 -4.73732 0
M  V30 52 H 5.0362 -3.55791 -4.38261 0
M  V30 53 N 4.4343 0.785586 -1.36625 0
M  V30 54 C 5.6593 1.57963 -1.34397 0
M  V30 55 C 6.0843 1.87964 0.071526 0
M  V30 56 O 5.4423 1.48182 1.0446 0
M  V30 57 C 5.4903 2.87511 -2.17646 0
M  V30 58 O 4.5943 3.81281 -1.57158 0
M  V30 59 H 3.9353 0.479014 -0.459828 0
M  V30 60 H 6.4653 0.973411 -1.79961 0
M  V30 61 H 6.4753 3.36745 -2.30362 0
M  V30 62 H 5.1503 2.65002 -3.20541 0
M  V30 63 H 3.7273 3.39885 -1.53403 0
M  V30 64 N 5.9124 1.20967 1.01018 0
M  V30 65 C 7.3234 1.02319 1.56165 0
M  V30 66 C 7.6744 -0.418546 1.91684 0
M  V30 67 O 6.7994 -1.30096 1.72928 0
M  V30 68 C 7.3944 1.85109 2.8376 0
M  V30 69 C 5.9534 1.70809 3.35412 0
M  V30 70 C 5.1004 1.82643 2.08655 0
M  V30 71 H 8.0514 1.35065 0.833255 0
M  V30 72 H 8.0724 1.35827 3.55431 0
M  V30 73 H 7.5844 2.90035 2.57878 0
M  V30 74 H 5.6854 0.685464 3.66241 0
M  V30 75 H 5.7984 2.52467 4.07182 0
M  V30 76 H 4.1624 1.25896 2.21409 0
M  V30 77 H 4.9454 2.89066 1.85191 0
M  V30 78 N 7.3905 -1.2043 1.01659 0
M  V30 79 C 8.3535 -2.21433 0.591616 0
M  V30 80 C 9.3535 -1.57203 -0.338226 0
M  V30 81 O 10.5435 -1.73737 -0.126918 0
M  V30 82 C 7.6755 -3.40628 -0.136058 0
M  V30 83 H 8.8685 -2.60545 1.48514 0
M  V30 84 H 6.4215 -1.33893 0.806379 0
M  V30 85 H 7.1565 -3.07019 -1.04449 0
M  V30 86 H 6.9415 -3.88475 0.531917 0
M  V30 87 H 8.4315 -4.15475 -0.420735 0
M  V30 88 N 8.8686 -0.792821 -1.36206 0
M  V30 89 C 9.7986 -0.207853 -2.32573 0
M  V30 90 C 10.7796 0.659055 -1.56813 0
M  V30 91 O 11.9646 0.592176 -1.84951 0
M  V30 92 C 9.0946 0.655449 -3.41059 0
M  V30 93 C 8.0486 -0.111842 -4.27854 0
M  V30 94 C 7.3746 0.872274 -5.27537 0
M  V30 95 C 8.6746 -1.30299 -5.05786 0
M  V30 96 H 10.3686 -1.01294 -2.81744 0
M  V30 97 H 7.9146 -0.48854 -1.3546 0
M  V30 98 H 9.8676 1.07464 -4.07467 0
M  V30 99 H 8.5916 1.49328 -2.90463 0
M  V30 100 H 7.2506 -0.512053 -3.63006 0
M  V30 101 H 6.8986 1.70523 -4.73214 0
M  V30 102 H 6.5986 0.363291 -5.86476 0
M  V30 103 H 8.1226 1.28996 -5.96818 0
M  V30 104 H 9.5366 -0.959379 -5.65216 0
M  V30 105 H 7.9336 -1.7455 -5.74154 0
M  V30 106 H 9.0036 -2.09663 -4.37229 0
M  V30 107 N 10.3467 1.47872 -0.545128 0
M  V30 108 C 11.5747 2.06889 -0.021084 0
M  V30 109 C 11.9897 1.39955 1.2672 0
M  V30 110 O 11.3467 0.492036 1.75742 0
M  V30 111 C 11.3977 3.60996 0.190817 0
M  V30 112 O 11.1187 4.25419 -1.04644 0
M  V30 113 C 12.6197 4.36849 0.753521 0
M  V30 114 H 9.8397 0.669785 -0.0403635 0
M  V30 115 H 12.3837 1.90049 -0.755095 0
M  V30 116 H 10.5387 3.77391 0.87492 0
M  V30 117 H 10.9527 5.17785 -0.836611 0
M  V30 118 H 12.4267 5.45399 0.851139 0
M  V30 119 H 12.9037 4.02306 1.762 0
M  V30 120 H 13.5097 4.25169 0.105503 0
M  V30 121 N 11.8248 0.280983 1.55075 0
M  V30 122 C 13.0648 -0.335234 2.01632 0
M  V30 123 C 13.4288 -1.5261 1.16508 0
M  V30 124 O 14.6298 -2.21235 1.52672 0
M  V30 125 C 12.9008 -0.702172 3.50434 0
M  V30 126 S 14.4598 -1.30409 4.18974 0
M  V30 127 H 11.2778 -0.103967 0.703358 0
M  V30 128 H 13.8798 0.404187 1.91276 0
M  V30 129 H 12.5838 0.17333 4.10034 0
M  V30 130 H 12.1148 -1.4729 3.64786 0
M  V30 131 H 14.1298 -2.59253 4.23087 0
M  V30 132 N 13.3029 -1.57598 0.00835791 0
M  V30 133 C 14.2329 -2.1198 -0.979113 0
M  V30 134 C 15.2139 -1.03091 -1.35301 0
M  V30 135 O 16.3989 -1.30818 -1.43528 0
M  V30 136 C 13.5289 -2.62995 -2.26828 0
M  V30 137 C 12.4829 -3.76485 -2.03576 0
M  V30 138 C 11.8089 -4.13846 -3.38579 0
M  V30 139 C 13.1089 -5.0342 -1.39161 0
M  V30 140 H 14.8029 -2.94738 -0.526281 0
M  V30 141 H 12.3489 -1.41783 -0.251704 0
M  V30 142 H 14.3019 -2.99669 -2.96271 0
M  V30 143 H 13.0259 -1.7737 -2.7424 0
M  V30 144 H 11.6849 -3.40217 -1.36557 0
M  V30 145 H 11.3329 -3.25232 -3.83709 0
M  V30 146 H 11.0329 -4.90312 -3.23834 0
M  V30 147 H 12.5569 -4.53086 -4.09323 0
M  V30 148 H 13.9709 -5.37812 -1.98573 0
M  V30 149 H 12.3679 -5.84746 -1.34878 0
M  V30 150 H 13.4379 -4.83548 -0.361868 0
M  V30 151 N 14.781 0.264519 -1.55364 0
M  V30 152 C 16.027 0.99646 -1.76631 0
M  V30 153 C 16.36 1.85632 -0.570478 0
M  V30 154 O 15.635 1.89647 0.43175 0
M  V30 155 C 15.918 1.87187 -3.07625 0
M  V30 156 C 15.771 1.04138 -4.37579 0
M  V30 157 C 17.09 2.85749 -3.34717 0
M  V30 158 H 14.209 0.360841 -0.642622 0
M  V30 159 H 16.851 0.268218 -1.88097 0
M  V30 160 H 15.001 2.49279 -2.9798 0
M  V30 161 H 16.673 0.440517 -4.59192 0
M  V30 162 H 14.916 0.345115 -4.32425 0
M  V30 163 H 15.587 1.68729 -5.2558 0
M  V30 164 H 18.063 2.33793 -3.4421 0
M  V30 165 H 16.939 3.44136 -4.27623 0
M  V30 166 H 17.2 3.61311 -2.54768 0
M  V30 167 N 16.2591 1.48442 0.529413 0
M  V30 168 C 17.1891 1.65902 1.64313 0
M  V30 169 C 18.1701 0.507897 1.6234 0
M  V30 170 O 19.3551 0.740503 1.79528 0
M  V30 171 C 16.4851 1.69911 3.02898 0
M  V30 172 C 15.4391 2.8453 3.19729 0
M  V30 173 C 14.7651 2.73629 4.59381 0
M  V30 174 C 16.0651 4.25821 3.02447 0
M  V30 175 H 17.7591 2.5914 1.49955 0
M  V30 176 H 15.3051 1.24709 0.719982 0
M  V30 177 H 17.2581 1.80715 3.80684 0
M  V30 178 H 15.9821 0.732524 3.18279 0
M  V30 179 H 14.6411 2.73283 2.44361 0
M  V30 180 H 14.2891 1.74938 4.71599 0
M  V30 181 H 13.9891 3.50541 4.71588 0
M  V30 182 H 15.5131 2.86401 5.39265 0
M  V30 183 H 16.9271 4.37898 3.70024 0
M  V30 184 H 15.3241 5.03735 3.26146 0
M  V30 185 H 16.3941 4.42244 1.98867 0
M  V30 186 N 17.7372 -0.778329 1.37039 0
M  V30 187 C 18.9852 -1.53361 1.31623 0
M  V30 188 C 19.3062 -1.94739 -0.100831 0
M  V30 189 O 18.5762 -1.65797 -1.04347 0
M  V30 190 H 17.1562 -0.568794 0.484234 0
M  V30 191 H 19.8182 -0.926742 1.71457 0
M  V30 192 H 18.9142 -2.43606 1.95096 0
M  V30 193 N 19.2153 -1.21501 -1.00376 0
M  V30 194 C 20.1453 -0.999478 -2.11028 0
M  V30 195 C 21.1263 0.0759671 -1.6993 0
M  V30 196 O 22.3113 -0.0841106 -1.94018 0
M  V30 197 C 19.4413 -0.564709 -3.42678 0
M  V30 198 C 18.3953 -1.58486 -3.97576 0
M  V30 199 C 17.7213 -1.00628 -5.25146 0
M  V30 200 C 19.0213 -2.97204 -4.29496 0
M  V30 201 H 20.7153 -1.92495 -2.29317 0
M  V30 202 H 18.2613 -0.92693 -1.102 0
M  V30 203 H 20.2143 -0.401091 -4.19487 0
M  V30 204 H 18.9383 0.396411 -3.24185 0
M  V30 205 H 17.5973 -1.73606 -3.22888 0
M  V30 206 H 17.2453 -0.0368439 -5.02987 0
M  V30 207 H 16.9453 -1.68771 -5.62841 0
M  V30 208 H 18.4693 -0.854015 -6.04598 0
M  V30 209 H 19.8833 -2.8552 -4.97143 0
M  V30 210 H 18.2803 -3.62372 -4.78338 0
M  V30 211 H 19.3503 -3.47956 -3.3772 0
M  V30 212 N 20.6934 1.19889 -1.02296 0
M  V30 213 C 21.6564 2.21116 -0.603351 0
M  V30 214 C 22.6564 1.5738 0.329884 0
M  V30 215 O 23.8464 1.73802 0.117702 0
M  V30 216 C 20.9784 3.40696 0.117992 0
M  V30 217 H 22.1714 2.59754 -1.49893 0
M  V30 218 H 19.7244 1.33463 -0.813468 0
M  V30 219 H 20.4594 3.07569 1.0282 0
M  V30 220 H 20.2444 3.88188 -0.552511 0
M  V30 221 H 21.7344 4.15692 0.398696 0
M  V30 222 N 22.1715 0.800033 1.35784 0
M  V30 223 C 23.1015 0.220184 2.3246 0
M  V30 224 C 24.0825 -0.65073 1.57161 0
M  V30 225 O 25.2675 -0.582359 1.85263 0
M  V30 226 C 22.3975 -0.637353 3.41402 0
M  V30 227 C 21.3515 0.134531 4.27789 0
M  V30 228 C 20.6775 -0.844285 5.27992 0
M  V30 229 C 21.9775 1.32979 5.05088 0
M  V30 230 H 23.6715 1.02787 2.81203 0
M  V30 231 H 21.2175 0.495717 1.35199 0
M  V30 232 H 23.1705 -1.05302 4.08031 0
M  V30 233 H 21.8945 -1.47785 2.91251 0
M  V30 234 H 20.5535 0.531296 3.6273 0
M  V30 235 H 20.2015 -1.68011 4.74111 0
M  V30 236 H 19.9015 -0.332184 5.8666 0
M  V30 237 H 21.4255 -1.2583 5.97494 0
M  V30 238 H 22.8395 0.98934 5.64699 0
M  V30 239 H 21.2365 1.77593 5.7322 0
M  V30 240 H 22.3065 2.11978 4.36111 0
M  V30 241 N 23.6496 -1.47581 0.552962 0
M  V30 242 C 24.8956 -2.02782 0.0273648 0
M  V30 243 C 25.2286 -1.42687 -1.31734 0
M  V30 244 O 24.5036 -0.580897 -1.85623 0
M  V30 245 C 24.7866 -3.60031 -0.0702371 0
M  V30 246 C 24.6396 -4.30566 1.30126 0
M  V30 247 C 25.9586 -4.33028 -0.785771 0
M  V30 248 H 23.0776 -0.736912 0.0114185 0
M  V30 249 H 25.7196 -1.76056 0.714432 0
M  V30 250 H 23.8696 -3.82932 -0.655382 0
M  V30 251 H 25.5416 -4.19018 1.92929 0
M  V30 252 H 23.7846 -3.91086 1.87709 0
M  V30 253 H 24.4556 -5.39114 1.18573 0
M  V30 254 H 26.9316 -4.15095 -0.288982 0
M  V30 255 H 25.8076 -5.42695 -0.823013 0
M  V30 256 H 26.0686 -4.01945 -1.841 0
M  V30 257 N 25.1277 -0.289203 -1.54924 0
M  V30 258 C 26.3747 0.323519 -1.99899 0
M  V30 259 C 26.7027 1.54797 -1.17762 0
M  V30 260 O 25.9577 1.94237 -0.238835 0
M  V30 261 C 26.2567 0.736119 -3.49737 0
M  V30 262 C 25.9227 -0.385276 -4.49251 0
M  V30 263 C 24.5847 -0.693156 -4.76181 0
M  V30 264 C 26.9367 -1.14021 -5.08575 0
M  V30 265 C 24.2647 -1.7593 -5.59701 0
M  V30 266 C 26.6167 -2.19619 -5.93254 0
M  V30 267 C 25.2807 -2.51026 -6.185 0
M  V30 268 H 24.5507 0.118384 -0.731482 0
M  V30 269 H 27.1977 -0.405847 -1.8715 0
M  V30 270 H 25.5027 1.54539 -3.60035 0
M  V30 271 H 27.1997 1.22118 -3.81953 0
M  V30 272 H 23.7897 -0.135202 -4.28387 0
M  V30 273 H 27.9737 -0.915611 -4.87781 0
M  V30 274 H 23.2297 -2.0075 -5.77503 0
M  V30 275 H 27.4037 -2.78581 -6.38252 0
M  V30 276 H 25.0307 -3.33772 -6.83008 0
M  V30 277 N 26.6058 1.57591 -0.0167156 0
M  V30 278 C 27.8538 1.90906 0.663285 0
M  V30 279 C 28.1748 0.892509 1.73376 0
M  V30 280 O 27.4448 -0.0677623 1.95783 0
M  V30 281 H 26.0248 0.704637 0.247983 0
M  V30 282 H 28.6868 1.94803 -0.0615909 0
M  V30 283 H 27.7828 2.9116 1.12393 0
M  V30 284 N 28.0839 -0.256276 1.55502 0
M  V30 285 C 28.9939 -1.33882 1.92647 0
M  V30 286 C 30.0099 -1.53159 0.825727 0
M  V30 287 O 31.1859 -1.66963 1.12629 0
M  V30 288 C 28.2509 -2.6751 2.20543 0
M  V30 289 C 27.3119 -2.56836 3.43997 0
M  V30 290 C 26.5449 -3.84092 3.70553 0
M  V30 291 O 26.7679 -4.85545 2.99336 0
M  V30 292 O 25.7019 -3.83288 4.64084 0
M  V30 293 H 29.5279 -1.05374 2.84833 0
M  V30 294 H 27.1129 -0.456237 1.42263 0
M  V30 295 H 28.9949 -3.46492 2.39835 0
M  V30 296 H 27.6699 -2.9577 1.31536 0
M  V30 297 H 26.5769 -1.76172 3.30021 0
M  V30 298 H 27.9099 -2.33523 4.33275 0
M  V30 299 N 29.562 -1.4872 -0.521534 0
M  V30 300 C 30.81 -1.56857 -1.27437 0
M  V30 301 C 31.131 -0.247982 -1.93417 0
M  V30 302 O 30.401 0.731151 -1.81744 0
M  V30 303 H 28.981 -0.577885 -0.473347 0
M  V30 304 H 31.643 -1.85233 -0.606205 0
M  V30 305 H 30.739 -2.35402 -2.0492 0
M  V30 306 N 31.0401 0.771051 -1.3745 0
M  V30 307 C 32.2651 1.56529 -1.36065 0
M  V30 308 C 32.6901 1.88029 0.0515859 0
M  V30 309 O 32.0481 1.49282 1.02882 0
M  V30 310 C 32.0961 2.85187 -2.20683 0
M  V30 311 O 31.2001 3.79593 -1.61193 0
M  V30 312 H 30.5411 0.47411 -0.464883 0
M  V30 313 H 33.0711 0.954269 -1.80983 0
M  V30 314 H 33.0811 3.34283 -2.33921 0
M  V30 315 H 31.7561 2.61588 -3.23334 0
M  V30 316 H 30.3331 3.38239 -1.56999 0
M  V30 317 N 32.5182 1.22032 0.997298 0
M  V30 318 C 33.4812 0.987909 2.06816 0
M  V30 319 C 34.4812 -0.0440084 1.6074 0
M  V30 320 O 35.6712 0.194053 1.73116 0
M  V30 321 C 32.8032 0.49132 3.37341 0
M  V30 322 H 33.9962 1.93803 2.28868 0
M  V30 323 H 31.5492 1.03838 1.16822 0
M  V30 324 H 32.2842 -0.463364 3.20973 0
M  V30 325 H 32.0692 1.23575 3.72118 0
M  V30 326 H 33.5592 0.348824 4.16141 0
M  V30 327 N 33.9963 -1.19345 1.0293 0
M  V30 328 C 35.2423 -1.89318 0.727083 0
M  V30 329 C 35.5753 -1.79446 -0.742483 0
M  V30 330 O 34.8503 -1.1871 -1.54072 0
M  V30 331 C 35.1333 -3.40238 1.17942 0
M  V30 332 C 34.9863 -3.58979 2.71024 0
M  V30 333 C 36.3053 -4.33479 0.760548 0
M  V30 334 H 33.4243 -0.687475 0.265606 0
M  V30 335 H 36.0663 -1.40477 1.2793 0
M  V30 336 H 34.2163 -3.81964 0.709608 0
M  V30 337 H 35.8883 -3.26421 3.25955 0
M  V30 338 H 34.1313 -3.02018 3.11396 0
M  V30 339 H 34.8023 -4.64823 2.9773 0
M  V30 340 H 37.2783 -3.99469 1.16464 0
M  V30 341 H 36.1543 -5.37664 1.10493 0
M  V30 342 H 36.4153 -4.40813 -0.337063 0
M  V30 343 N 35.4744 -0.807222 -1.35358 0
M  V30 344 C 36.4244 -0.190706 -2.27201 0
M  V30 345 C 37.4084 0.635838 -1.47804 0
M  V30 346 O 38.6004 0.492991 -1.69996 0
M  V30 347 C 35.7294 0.659337 -3.36909 0
M  V30 348 C 34.8154 -0.176971 -4.23731 0
M  V30 349 N 35.2064 -1.24029 -4.90357 0
M  V30 350 C 33.5044 0.0412953 -4.45981 0
M  V30 351 C 34.2054 -1.75092 -5.54723 0
M  V30 352 N 33.1814 -1.05727 -5.33219 0
M  V30 353 H 36.9834 -1.0043 -2.76208 0
M  V30 354 H 34.4974 -0.648445 -1.48892 0
M  V30 355 H 36.4944 1.11706 -4.01656 0
M  V30 356 H 35.1544 1.47127 -2.89454 0
M  V30 357 H 36.1654 -1.62295 -4.91814 0
M  V30 358 H 32.8424 0.82232 -4.09322 0
M  V30 359 H 34.2324 -2.63963 -6.17878 0
M  V30 360 N 36.9525 1.47285 -0.560781 0
M  V30 361 C 37.9025 2.27073 0.205384 0
M  V30 362 C 38.8865 1.34569 0.882044 0
M  V30 363 O 40.0785 1.58899 0.77976 0
M  V30 364 C 37.2075 3.20414 1.23247 0
M  V30 365 C 36.2935 4.20399 0.559041 0
M  V30 366 N 36.6845 5.04423 -0.372927 0
M  V30 367 C 34.9825 4.38536 0.812522 0
M  V30 368 C 35.6835 5.76655 -0.764446 0
M  V30 369 N 34.6595 5.43471 -0.11848 0
M  V30 370 H 38.4615 2.89422 -0.511117 0
M  V30 371 H 35.9755 1.57868 -0.380975 0
M  V30 372 H 37.9725 3.76262 1.79534 0
M  V30 373 H 36.6325 2.59623 1.95002 0
M  V30 374 H 37.6435 5.1248 -0.747287 0
M  V30 375 H 34.3205 3.88913 1.51832 0
M  V30 376 H 35.7105 6.54238 -1.53045 0
M  V30 377 N 38.4306 0.297415 1.54768 0
M  V30 378 C 39.8416 -0.195947 1.85669 0
M  V30 379 C 40.1926 -1.53707 1.21937 0
M  V30 380 O 39.3176 -2.10164 0.515754 0
M  V30 381 C 39.9126 -0.362318 3.36857 0
M  V30 382 C 38.4716 -0.799901 3.67802 0
M  V30 383 C 37.6186 0.0938578 2.77141 0
M  V30 384 H 40.5696 0.518538 1.4999 0
M  V30 385 H 40.5906 -1.19745 3.61167 0
M  V30 386 H 40.1026 0.613921 3.83214 0
M  V30 387 H 38.2036 -1.78682 3.26961 0
M  V30 388 H 38.3166 -0.621773 4.75048 0
M  V30 389 H 36.6806 -0.426254 2.51108 0
M  V30 390 H 37.4636 1.06639 3.26318 0
M  V30 391 N 39.9087 -1.5758 0.0250728 0
M  V30 392 C 41.3197 -1.79476 -0.514323 0
M  V30 393 C 41.6707 -0.934956 -1.72491 0
M  V30 394 O 40.7957 -0.144245 -2.15919 0
M  V30 395 C 41.3907 -3.25503 -0.939842 0
M  V30 396 C 39.9497 -3.48408 -1.42438 0
M  V30 397 C 39.0967 -2.74583 -0.387201 0
M  V30 398 H 42.0477 -1.567 0.25113 0
M  V30 399 H 42.0687 -3.34992 -1.80445 0
M  V30 400 H 41.5807 -3.88056 -0.0585628 0
M  V30 401 H 39.6817 -2.91103 -2.32572 0
M  V30 402 H 39.7947 -4.57119 -1.43455 0
M  V30 403 H 38.1587 -2.39942 -0.854409 0
M  V30 404 H 38.9417 -3.39849 0.485543 0
M  V30 405 N 41.3868 0.248026 -1.55636 0
M  V30 406 C 42.6118 0.998028 -1.81808 0
M  V30 407 C 43.0368 1.78207 -0.601979 0
M  V30 408 O 42.3948 1.75653 0.448961 0
M  V30 409 C 42.4428 1.9125 -3.05705 0
M  V30 410 O 41.5468 3.00406 -2.82542 0
M  V30 411 H 40.8878 0.284045 -0.600179 0
M  V30 412 H 43.4178 0.269357 -2.02819 0
M  V30 413 H 43.4278 2.32737 -3.35108 0
M  V30 414 H 42.1028 1.33602 -3.93857 0
M  V30 415 H 40.6798 2.63056 -2.64303 0
M  V30 416 N 42.8649 1.48995 0.513639 0
M  V30 417 C 44.0949 1.61297 1.291 0
M  V30 418 C 44.5029 0.278656 1.87137 0
M  V30 419 O 43.8459 -0.744325 1.67945 0
M  V30 420 C 43.9079 2.61326 2.46879 0
M  V30 421 C 43.5719 4.05993 2.09807 0
M  V30 422 C 44.5689 4.93183 1.64519 0
M  V30 423 C 42.2539 4.51642 2.19829 0
M  V30 424 C 44.2479 6.24056 1.2974 0
M  V30 425 C 41.9349 5.82532 1.84662 0
M  V30 426 C 42.9329 6.68562 1.3969 0
M  V30 427 O 42.6209 7.97014 1.04992 0
M  V30 428 H 42.3529 0.546236 0.39825 0
M  V30 429 H 44.9069 1.95673 0.62459 0
M  V30 430 H 43.1369 2.22104 3.16554 0
M  V30 431 H 44.8259 2.6329 3.08923 0
M  V30 432 H 45.5919 4.59147 1.56233 0
M  V30 433 H 41.4709 3.84855 2.53786 0
M  V30 434 H 45.0149 6.91161 0.945659 0
M  V30 435 H 40.9119 6.16099 1.92594 0
M  V30 436 H 41.6799 8.09913 1.18249 0
M  V30 437 N 44.343 -0.763751 1.37857 0
M  V30 438 C 45.589 -1.52483 1.33704 0
M  V30 439 C 45.922 -1.94051 -0.0759612 0
M  V30 440 O 45.197 -1.64675 -1.03501 0
M  V30 441 C 45.48 -2.78441 2.28348 0
M  V30 442 C 45.333 -2.43075 3.78463 0
M  V30 443 C 46.652 -3.80415 2.21298 0
M  V30 444 H 43.771 -0.553169 0.487005 0
M  V30 445 H 46.413 -0.875562 1.68624 0
M  V30 446 H 44.563 -3.33842 1.987 0
M  V30 447 H 46.235 -1.93527 4.18742 0
M  V30 448 H 44.478 -1.75666 3.96641 0
M  V30 449 H 45.149 -3.33149 4.40132 0
M  V30 450 H 47.625 -3.34527 2.47449 0
M  V30 451 H 46.501 -4.66257 2.89647 0
M  V30 452 H 46.762 -4.25262 1.20849 0
M  V30 453 N 45.8211 -1.22559 -0.990812 0
M  V30 454 C 46.7841 -0.998863 -2.0629 0
M  V30 455 C 47.7841 0.0354834 -1.60761 0
M  V30 456 O 48.9741 -0.203231 -1.7301 0
M  V30 457 C 46.1061 -0.509203 -3.37076 0
M  V30 458 H 47.2991 -1.95014 -2.27837 0
M  V30 459 H 44.8521 -1.04456 -1.16269 0
M  V30 460 H 45.5871 0.446335 -3.21214 0
M  V30 461 H 45.3721 -1.25547 -3.71457 0
M  V30 462 H 46.8621 -0.370888 -4.1595 0
M  V30 463 N 47.2992 1.18797 -1.03562 0
M  V30 464 C 48.2492 2.20161 -0.592724 0
M  V30 465 C 49.2332 1.56772 0.362133 0
M  V30 466 O 50.4252 1.76062 0.182009 0
M  V30 467 C 47.5542 3.43266 0.0481024 0
M  V30 468 C 46.6402 4.13786 -0.9296 0
M  V30 469 N 47.0312 4.60388 -2.09467 0
M  V30 470 C 45.3292 4.39572 -0.754499 0
M  V30 471 C 46.0302 5.14619 -2.71187 0
M  V30 472 N 45.0062 5.05826 -1.991 0
M  V30 473 H 48.8082 2.53877 -1.48066 0
M  V30 474 H 46.3222 1.34946 -0.903514 0
M  V30 475 H 48.3192 4.15136 0.383058 0
M  V30 476 H 46.9792 3.11048 0.931636 0
M  V30 477 H 47.9902 4.54999 -2.47379 0
M  V30 478 H 44.6672 4.17425 0.0793713 0
M  V30 479 H 46.0572 5.60917 -3.69895 0
M  V30 480 N 48.7773 0.814389 1.34928 0
M  V30 481 C 49.7073 0.244827 2.32213 0
M  V30 482 C 50.6883 -0.634024 1.57842 0
M  V30 483 O 51.8733 -0.562676 1.8587 0
M  V30 484 C 49.0033 -0.601106 3.42058 0
M  V30 485 C 47.9573 0.179896 4.27622 0
M  V30 486 C 47.2833 -0.788237 5.28858 0
M  V30 487 C 48.5833 1.38329 5.03649 0
M  V30 488 H 50.2773 1.05763 2.80097 0
M  V30 489 H 47.8233 0.510029 1.34665 0
M  V30 490 H 49.7763 -1.00968 4.09125 0
M  V30 491 H 48.5003 -1.44688 2.92802 0
M  V30 492 H 47.1593 0.569739 3.62146 0
M  V30 493 H 46.8073 -1.62973 4.75866 0
M  V30 494 H 46.5073 -0.269942 5.8698 0
M  V30 495 H 48.0313 -1.19485 5.98795 0
M  V30 496 H 49.4453 1.04918 5.63618 0
M  V30 497 H 47.8423 1.83662 5.71304 0
M  V30 498 H 48.9123 2.16592 4.33839 0
M  V30 499 N 50.2554 -1.46986 0.568584 0
M  V30 500 C 51.2184 -2.28624 -0.162366 0
M  V30 501 C 52.2184 -1.37596 -0.832103 0
M  V30 502 O 53.4084 -1.60115 -0.68622 0
M  V30 503 C 50.5404 -3.17596 -1.23878 0
M  V30 504 H 51.7334 -2.94722 0.554899 0
M  V30 505 H 49.2864 -1.52863 0.325976 0
M  V30 506 H 50.0214 -2.56214 -1.98808 0
M  V30 507 H 49.8064 -3.846 -0.763219 0
M  V30 508 H 51.2964 -3.79078 -1.75185 0
M  V30 509 N 51.7335 -0.305618 -1.54608 0
M  V30 510 C 52.9585 0.307562 -2.05107 0
M  V30 511 C 53.3835 1.46385 -1.18123 0
M  V30 512 O 52.7415 1.8034 -0.186324 0
M  V30 513 C 52.7895 0.73704 -3.52987 0
M  V30 514 O 51.8935 1.84134 -3.6901 0
M  V30 515 H 51.2345 0.0589143 -0.661381 0
M  V30 516 H 53.7645 -0.448807 -1.99617 0
M  V30 517 H 53.7745 1.02459 -3.94925 0
M  V30 518 H 52.4495 -0.108773 -4.15758 0
M  V30 519 H 51.0265 1.55398 -3.38978 0
M  V30 520 N 53.2116 1.57565 -0.0334293 0
M  V30 521 C 54.4886 1.83282 0.683163 0
M  V30 522 C 54.8686 0.91823 1.90084 0
M  V30 523 O 54.2166 -0.025113 2.28486 0
M  V30 524 C 54.4266 3.32599 1.0573 0
M  V30 525 C 55.7746 3.99179 1.44711 0
M  V30 526 O 56.7986 3.3712 1.15015 0
M  V30 527 O 55.6576 5.08565 2.0006 0
M  V30 528 H 52.7516 0.755869 0.335546 0
M  V30 529 H 55.2976 1.69589 -0.0614402 0
M  V30 530 H 54.0696 3.90834 0.190828 0
M  V30 531 H 53.6926 3.51415 1.85993 0
M  V30 532 N 54.6897 -0.239769 1.55765 0
M  V30 533 C 55.9367 -0.966801 1.7793 0
M  V30 534 C 56.2647 -1.85046 0.599015 0
M  V30 535 O 55.5197 -1.91197 -0.417395 0
M  V30 536 C 55.8187 -1.852 3.05672 0
M  V30 537 C 55.4847 -1.1231 4.36689 0
M  V30 538 C 54.1467 -0.921689 4.72291 0
M  V30 539 C 56.4987 -0.607019 5.17653 0
M  V30 540 C 53.8267 -0.191996 5.86386 0
M  V30 541 C 56.1787 0.109241 6.32506 0
M  V30 542 C 54.8427 0.322073 6.66723 0
M  V30 543 H 54.1127 -0.353778 0.651093 0
M  V30 544 H 56.7597 -0.23634 1.90036 0
M  V30 545 H 55.0647 -2.64975 2.8861 0
M  V30 546 H 56.7617 -2.41635 3.20021 0
M  V30 547 H 53.3517 -1.29004 4.08725 0
M  V30 548 H 57.5357 -0.750153 4.90598 0
M  V30 549 H 52.7917 -0.0166949 6.11398 0
M  V30 550 H 56.9657 0.516737 6.9448 0
M  V30 551 H 54.5927 0.88944 7.54979 0
M  V30 552 N 56.1678 -1.49265 -0.50573 0
M  V30 553 C 57.4158 -1.582 -1.25766 0
M  V30 554 C 57.7368 -0.268482 -1.93143 0
M  V30 555 O 57.0068 0.711833 -1.8251 0
M  V30 556 H 55.5868 -0.582873 -0.467191 0
M  V30 557 H 58.2488 -1.85865 -0.586525 0
M  V30 558 H 57.3448 -2.37563 -2.02412 0
M  V30 559 N 57.6459 0.756429 -1.3826 0
M  V30 560 C 58.8919 1.51772 -1.34511 0
M  V30 561 C 59.2249 1.94089 0.0656691 0
M  V30 562 O 58.4999 1.65221 1.02626 0
M  V30 563 C 58.7829 2.77226 -2.29821 0
M  V30 564 C 58.6359 2.41065 -3.79747 0
M  V30 565 C 59.9549 3.79236 -2.23312 0
M  V30 566 H 57.0739 0.550578 -0.489931 0
M  V30 567 H 59.7159 0.866607 -1.69086 0
M  V30 568 H 57.8659 3.32784 -2.00467 0
M  V30 569 H 59.5379 1.91303 -4.19763 0
M  V30 570 H 57.7809 1.7356 -3.97567 0
M  V30 571 H 58.4519 3.3081 -4.41892 0
M  V30 572 H 60.9279 3.3321 -2.49219 0
M  V30 573 H 59.8039 4.64714 -2.92116 0
M  V30 574 H 60.0649 4.24615 -1.23102 0
M  V30 575 N 59.124 1.23083 0.984299 0
M  V30 576 C 60.54 0.992637 1.24975 0
M  V30 577 C 60.74 -0.308618 1.99123 0
M  V30 578 O 59.796 -1.02905 2.30579 0
M  V30 579 C 61.109 2.19698 2.05312 0
M  V30 580 C 62.657 2.24147 2.18465 0
M  V30 581 C 63.132 3.44157 3.02192 0
M  V30 582 N 64.623 3.44372 3.09777 0
M  V30 583 C 65.358 4.33886 3.74874 0
M  V30 584 N 64.854 5.3363 4.41827 0
M  V30 585 N 66.647 4.21639 3.71721 0
M  V30 586 H 58.798 2.06731 0.487453 0
M  V30 587 H 61.061 0.906339 0.277944 0
M  V30 588 H 60.767 3.1411 1.58201 0
M  V30 589 H 60.641 2.20465 3.06064 0
M  V30 590 H 63.028 1.30277 2.64786 0
M  V30 591 H 63.109 2.27415 1.17115 0
M  V30 592 H 62.753 4.38332 2.56568 0
M  V30 593 H 62.683 3.3813 4.03702 0
M  V30 594 H 65.174 2.72201 2.62135 0
M  V30 595 H 65.487 5.98196 4.89266 0
M  V30 596 H 63.832 5.37534 4.40548 0
M  V30 597 H 67.023 3.42962 3.18582 0
M  V30 598 H 67.196 4.91604 4.22173 0
M  V30 599 N 60.6021 -1.18246 1.0419 0
M  V30 600 C 61.8481 -1.88536 0.747122 0
M  V30 601 C 62.1811 -1.80223 -0.723409 0
M  V30 602 O 61.4561 -1.20337 -1.52804 0
M  V30 603 C 61.7391 -3.38968 1.21544 0
M  V30 604 C 61.5921 -3.56084 2.74816 0
M  V30 605 C 62.9111 -4.32648 0.806482 0
M  V30 606 H 60.0301 -0.684619 0.272883 0
M  V30 607 H 62.6721 -1.39113 1.29413 0
M  V30 608 H 60.8221 -3.8119 0.750081 0
M  V30 609 H 62.4941 -3.22946 3.29399 0
M  V30 610 H 60.7371 -2.98699 3.14582 0
M  V30 611 H 61.4081 -4.61639 3.02644 0
M  V30 612 H 63.8841 -3.98211 1.20695 0
M  V30 613 H 62.7601 -5.36462 1.1619 0
M  V30 614 H 63.0211 -4.41146 -0.29029 0
M  V30 615 N 62.0802 -0.821533 -1.34494 0
M  V30 616 C 63.3272 -0.408946 -1.98328 0
M  V30 617 C 63.6552 1.02764 -1.65136 0
M  V30 618 O 62.9102 1.73026 -0.914349 0
M  V30 619 C 63.2092 -0.556512 -3.53041 0
M  V30 620 C 62.8752 -1.95861 -4.0614 0
M  V30 621 C 61.5372 -2.34217 -4.20352 0
M  V30 622 C 63.8892 -2.87523 -4.34718 0
M  V30 623 C 61.2172 -3.63572 -4.6047 0
M  V30 624 C 63.5692 -4.1634 -4.76281 0
M  V30 625 C 62.2332 -4.54675 -4.88699 0
M  V30 626 H 61.5032 -0.149644 -0.725732 0
M  V30 627 H 64.1502 -1.04521 -1.6046 0
M  V30 628 H 62.4552 0.163148 -3.9146 0
M  V30 629 H 64.1522 -0.217826 -4.00408 0
M  V30 630 H 60.7422 -1.65066 -3.95539 0
M  V30 631 H 64.9262 -2.59133 -4.23277 0
M  V30 632 H 60.1822 -3.93101 -4.68275 0
M  V30 633 H 64.3562 -4.87455 -4.97354 0
M  V30 634 H 61.9832 -5.54959 -5.19542 0
M  V30 635 N 63.5583 1.46682 -0.576371 0
M  V30 636 C 64.4903 2.28341 0.198231 0
M  V30 637 C 65.5033 1.38141 0.861453 0
M  V30 638 O 66.6923 1.62797 0.732082 0
M  V30 639 C 63.7923 3.12986 1.29972 0
M  V30 640 C 62.9653 4.31271 0.729639 0
M  V30 641 C 62.0243 4.97363 1.71803 0
M  V30 642 O 61.0503 5.55156 1.25658 0
M  V30 643 N 62.2523 4.93796 3.05198 0
M  V30 644 H 65.0173 2.9546 -0.502324 0
M  V30 645 H 62.5783 1.56525 -0.413715 0
M  V30 646 H 64.5703 3.54066 1.96008 0
M  V30 647 H 63.1403 2.47984 1.90323 0
M  V30 648 H 62.3603 3.94052 -0.108012 0
M  V30 649 H 63.6483 5.07739 0.328438 0
M  V30 650 H 63.0463 4.48077 3.45317 0
M  V30 651 H 61.6033 5.38837 3.6674 0
M  V30 652 N 65.0364 0.313813 1.54444 0
M  V30 653 C 65.9684 -0.590425 2.21465 0
M  V30 654 C 66.9814 -1.08753 1.21147 0
M  V30 655 O 68.1704 -1.00278 1.4767 0
M  V30 656 C 65.2704 -1.82179 2.85769 0
M  V30 657 C 64.4434 -1.46502 4.12136 0
M  V30 658 C 63.5024 -2.55288 4.60124 0
M  V30 659 O 62.5284 -2.19842 5.25032 0
M  V30 660 N 63.7304 -3.86053 4.33525 0
M  V30 661 H 66.4954 -0.0166033 2.99695 0
M  V30 662 H 64.0564 0.136578 1.61323 0
M  V30 663 H 66.0484 -2.54328 3.14801 0
M  V30 664 H 64.6184 -2.30369 2.11303 0
M  V30 665 H 63.8384 -0.575595 3.89975 0
M  V30 666 H 65.1264 -1.20221 4.94393 0
M  V30 667 H 64.5244 -4.17654 3.81552 0
M  V30 668 H 63.0814 -4.54461 4.67235 0
M  V30 669 N 66.5145 -1.57545 0.0417849 0
M  V30 670 C 67.7605 -1.92601 -0.635021 0
M  V30 671 C 68.0935 -0.919627 -1.71045 0
M  V30 672 O 67.3685 0.0557892 -1.9442 0
M  V30 673 C 67.6515 -3.38085 -1.23979 0
M  V30 674 C 67.5045 -4.49467 -0.173057 0
M  V30 675 C 68.8235 -3.83776 -2.15416 0
M  V30 676 H 65.9425 -0.700397 -0.229374 0
M  V30 677 H 68.5845 -1.89728 0.101633 0
M  V30 678 H 66.7345 -3.40664 -1.86762 0
M  V30 679 H 68.4065 -4.59018 0.458312 0
M  V30 680 H 66.6495 -4.30909 0.499996 0
M  V30 681 H 67.3205 -5.48323 -0.636054 0
M  V30 682 H 69.7965 -3.83013 -1.62605 0
M  V30 683 H 68.6725 -4.8624 -2.54679 0
M  V30 684 H 68.9335 -3.19998 -3.05047 0
M  V30 685 N 67.9926 0.231505 -1.5589 0
M  V30 686 C 68.9556 1.27028 -1.90779 0
M  V30 687 C 69.9556 1.40308 -0.785507 0
M  V30 688 O 71.1456 1.38744 -1.05336 0
M  V30 689 C 68.2776 2.64566 -2.14983 0
M  V30 690 H 69.4706 0.973017 -2.83677 0
M  V30 691 H 67.0236 0.471486 -1.49019 0
M  V30 692 H 67.7586 2.99406 -1.24604 0
M  V30 693 H 67.5436 2.56305 -2.96732 0
M  V30 694 H 69.0336 3.39543 -2.43105 0
M  V30 695 N 69.4707 1.49531 0.497807 0
M  V30 696 C 70.4027 1.62559 1.61578 0
M  V30 697 C 71.4157 0.508134 1.54667 0
M  V30 698 O 72.6047 0.780309 1.60541 0
M  V30 699 C 69.7047 1.56925 3.00379 0
M  V30 700 C 68.8777 2.84257 3.3244 0
M  V30 701 C 67.9367 2.71632 4.50669 0
M  V30 702 O 66.9627 3.4557 4.52294 0
M  V30 703 N 68.1647 1.83391 5.5077 0
M  V30 704 H 70.9297 2.58981 1.50828 0
M  V30 705 H 68.4907 1.4666 0.685743 0
M  V30 706 H 70.4827 1.46129 3.77397 0
M  V30 707 H 69.0527 0.683483 3.05037 0
M  V30 708 H 68.2727 3.09381 2.44289 0
M  V30 709 H 69.5607 3.68666 3.5066 0
M  V30 710 H 68.9587 1.22583 5.52259 0
M  V30 711 H 67.5157 1.78515 6.26878 0
M  V30 712 N 70.9488 -0.749086 1.3866 0
M  V30 713 C 71.9118 -1.84457 1.36045 0
M  V30 714 C 72.9118 -1.58682 0.260122 0
M  V30 715 O 74.1018 -1.66343 0.517261 0
M  V30 716 C 71.2338 -3.22008 1.11911 0
M  V30 717 H 72.4268 -1.88182 2.33512 0
M  V30 718 H 69.9798 -0.951266 1.24019 0
M  V30 719 H 70.7148 -3.2395 0.150686 0
M  V30 720 H 70.4998 -3.42111 1.91579 0
M  V30 721 H 71.9898 -4.0208 1.12788 0
M  V30 722 N 72.4269 -1.23603 -0.977757 0
M  V30 723 C 73.6519 -1.09735 -1.75991 0
M  V30 724 C 74.0769 0.346858 -1.84874 0
M  V30 725 O 73.4349 1.25093 -1.3123 0
M  V30 726 C 73.4829 -1.73051 -3.16363 0
M  V30 727 O 72.5869 -0.994452 -4.0023 0
M  V30 728 H 71.9279 -0.384476 -0.541364 0
M  V30 729 H 74.4579 -1.6371 -1.2272 0
M  V30 730 H 74.4679 -1.78398 -3.66931 0
M  V30 731 H 73.1429 -2.78137 -3.09213 0
M  V30 732 H 71.7199 -1.01812 -3.58732 0
M  V30 733 N 73.905 1.17692 -1.04816 0
M  V30 734 C 74.852 2.21581 -0.645797 0
M  V30 735 C 75.822 1.62367 0.350159 0
M  V30 736 O 77.007 1.89254 0.242433 0
M  V30 737 C 74.147 3.45092 -0.0227568 0
M  V30 738 C 73.26 4.18613 -1.06709 0
M  V30 739 C 72.395 5.29602 -0.411767 0
M  V30 740 C 71.434 5.94904 -1.44067 0
M  V30 741 N 70.571 6.97414 -0.809781 0
M  V30 742 H 75.411 2.55353 -1.5362 0
M  V30 743 H 72.948 1.25438 -0.768364 0
M  V30 744 H 74.906 4.15679 0.35588 0
M  V30 745 H 73.536 3.11917 0.831122 0
M  V30 746 H 72.588 3.46779 -1.5636 0
M  V30 747 H 73.9 4.63293 -1.84827 0
M  V30 748 H 73.054 6.06696 0.0206623 0
M  V30 749 H 71.793 4.86045 0.401438 0
M  V30 750 H 70.798 5.16544 -1.88316 0
M  V30 751 H 72.023 6.40542 -2.25571 0
M  V30 752 H 69.969 6.55998 -0.0170186 0
M  V30 753 H 69.886 7.40386 -1.52856 0
M  V30 754 H 71.154 7.78463 -0.401999 0
M  V30 755 N 75.3831 0.828654 1.34056 0
M  V30 756 C 76.6601 0.341809 1.9259 0
M  V30 757 C 77.0401 -1.17158 1.75605 0
M  V30 758 O 76.3881 -1.98132 1.13824 0
M  V30 759 C 76.5981 0.777453 3.4023 0
M  V30 760 C 77.9461 0.779579 4.17382 0
M  V30 761 O 78.9701 0.7204 3.48839 0
M  V30 762 O 77.8291 0.857996 5.39723 0
M  V30 763 H 74.9231 0.0946085 0.821571 0
M  V30 764 H 77.4691 0.913827 1.42994 0
M  V30 765 H 76.2411 1.8196 3.46419 0
M  V30 766 H 75.8641 0.181444 3.97186 0
M  V30 767 N 76.8612 -1.46375 0.584142 0
M  V30 768 C 78.2772 -1.57694 0.245929 0
M  V30 769 C 78.4772 -1.57903 -1.25175 0
M  V30 770 O 77.5332 -1.49676 -2.03355 0
M  V30 771 C 78.8462 -2.87028 0.896402 0
M  V30 772 C 80.3942 -3.00662 0.870127 0
M  V30 773 C 80.8692 -4.32734 1.50017 0
M  V30 774 N 82.3602 -4.39436 1.46458 0
M  V30 775 C 83.0952 -5.40248 1.92144 0
M  V30 776 N 82.5912 -6.47726 2.4581 0
M  V30 777 N 84.3842 -5.31459 1.83052 0
M  V30 778 H 76.5352 -1.44483 1.55687 0
M  V30 779 H 78.7982 -0.689291 0.650831 0
M  V30 780 H 78.5042 -2.9269 1.95002 0
M  V30 781 H 78.3782 -3.75014 0.405486 0
M  V30 782 H 80.7652 -2.94581 -0.174871 0
M  V30 783 H 80.8462 -2.14148 1.39908 0
M  V30 784 H 80.4902 -4.39573 2.54437 0
M  V30 785 H 80.4202 -5.18025 0.946432 0
M  V30 786 H 82.9112 -3.62367 1.07231 0
M  V30 787 H 83.2242 -7.20863 2.78525 0
M  V30 788 H 81.5692 -6.48542 2.49836 0
M  V30 789 H 84.7602 -4.46396 1.40883 0
M  V30 790 H 84.9332 -6.09881 2.18973 0
M  V30 791 N 78.3393 -0.321999 -1.54275 0
M  V30 792 C 79.2873 0.560206 -2.25753 0
M  V30 793 C 80.2813 1.11984 -1.27106 0
M  V30 794 O 81.4873 1.06806 -1.44888 0
M  V30 795 H 77.8623 0.199304 -0.725108 0
M  V30 796 H 79.8333 -0.0649365 -2.98329 0
M  V30 797 C 78.5823 1.71023 -3.02731 0
M  V30 798 H 77.9053 1.28885 -3.78456 0
M  V30 799 H 79.3453 2.30314 -3.55993 0
M  V30 800 C 77.8043 2.62692 -2.10938 0
M  V30 801 O 78.3343 3.64364 -1.6912 0
M  V30 802 N 76.5403 2.30891 -1.76459 0
M  V30 803 H 76.0873 1.48253 -2.10663 0
M  V30 804 H 76.0453 2.92487 -1.1532 0
M  V30 805 N 79.8174 1.5752 -0.0501392 0
M  V30 806 C 81.0634 1.92936 0.624798 0
M  V30 807 C 81.3964 0.928685 1.70555 0
M  V30 808 O 80.6714 -0.0454779 1.94447 0
M  V30 809 C 80.9544 3.38737 1.22185 0
M  V30 810 C 80.8074 4.49552 0.149218 0
M  V30 811 C 82.1264 3.84913 2.13378 0
M  V30 812 H 79.2454 0.701604 0.225657 0
M  V30 813 H 81.8874 1.89671 -0.111693 0
M  V30 814 H 80.0374 3.4165 1.84953 0
M  V30 815 H 81.7094 4.58768 -0.482648 0
M  V30 816 H 79.9524 4.30638 -0.522841 0
M  V30 817 H 80.6234 5.48653 0.606966 0
M  V30 818 H 83.0994 3.8387 1.60572 0
M  V30 819 H 81.9754 4.87584 2.52097 0
M  V30 820 H 82.2364 3.21611 3.03346 0
M  V30 821 N 81.2955 -0.223234 1.56011 0
M  V30 822 C 82.5415 -0.949279 1.79211 0
M  V30 823 C 82.8745 -1.84054 0.619494 0
M  V30 824 O 82.1495 -1.90726 -0.381317 0
M  V30 825 C 82.4325 -1.78965 3.12479 0
M  V30 826 C 82.2855 -0.924997 4.40186 0
M  V30 827 C 83.6045 -2.76774 3.42175 0
M  V30 828 H 80.7235 -0.343676 0.651963 0
M  V30 829 H 83.3655 -0.218253 1.88742 0
M  V30 830 H 81.5155 -2.41291 3.04485 0
M  V30 831 H 83.1875 -0.318615 4.60198 0
M  V30 832 H 81.4305 -0.230344 4.33188 0
M  V30 833 H 82.1015 -1.54735 5.29869 0
M  V30 834 H 84.5775 -2.24584 3.50287 0
M  V30 835 H 83.4535 -3.32678 4.36597 0
M  V30 836 H 83.7145 -3.54429 2.64258 0
M  V30 837 N 82.7736 -1.49793 -0.48987 0
M  V30 838 C 84.0206 -1.59841 -1.24327 0
M  V30 839 C 84.3486 -0.290135 -1.92324 0
M  V30 840 O 83.6036 0.722749 -1.81865 0
M  V30 841 C 83.9026 -2.71488 -2.32441 0
M  V30 842 C 83.5686 -4.12614 -1.81826 0
M  V30 843 C 82.2306 -4.51017 -1.67742 0
M  V30 844 C 84.5826 -5.00892 -1.4407 0
M  V30 845 C 81.9106 -5.75459 -1.14297 0
M  V30 846 C 84.2626 -6.25863 -0.920742 0
M  V30 847 C 82.9266 -6.63086 -0.766383 0
M  V30 848 H 82.1966 -0.584899 -0.454944 0
M  V30 849 H 84.8436 -1.83663 -0.542215 0
M  V30 850 H 83.1486 -2.4168 -3.0838 0
M  V30 851 H 84.8456 -2.76469 -2.90458 0
M  V30 852 H 81.4356 -3.82307 -1.93751 0
M  V30 853 H 85.6196 -4.7187 -1.53794 0
M  V30 854 H 80.8756 -6.02989 -1.01068 0
M  V30 855 H 85.0496 -6.9364 -0.619448 0
M  V30 856 H 82.6766 -7.59393 -0.350083 0
M  V30 857 N 84.2517 0.741722 -1.39055 0
M  V30 858 C 85.4767 1.53607 -1.39354 0
M  V30 859 C 85.9017 1.88096 0.0116905 0
M  V30 860 O 85.2597 1.5143 0.996924 0
M  V30 861 C 85.3077 2.80441 -2.26682 0
M  V30 862 O 84.4117 3.76088 -1.69208 0
M  V30 863 H 83.7527 0.464142 -0.474835 0
M  V30 864 H 86.2827 0.915665 -1.82967 0
M  V30 865 H 86.2927 3.29246 -2.40959 0
M  V30 866 H 84.9677 2.5467 -3.2881 0
M  V30 867 H 83.5447 3.34833 -1.64138 0
M  V30 868 N 85.7298 1.2412 0.971189 0
M  V30 869 C 87.1408 1.07236 1.52831 0
M  V30 870 C 87.4918 -0.357352 1.92918 0
M  V30 871 O 86.6168 -1.24528 1.76979 0
M  V30 872 C 87.2118 1.94043 2.77728 0
M  V30 873 C 85.7708 1.81394 3.29808 0
M  V30 874 C 84.9178 1.89189 2.02738 0
M  V30 875 H 87.8688 1.37648 0.789864 0
M  V30 876 H 87.8898 1.47066 3.5093 0
M  V30 877 H 87.4018 2.98093 2.4852 0
M  V30 878 H 85.5028 0.801634 3.63874 0
M  V30 879 H 85.6158 2.65294 3.98944 0
M  V30 880 H 83.9798 1.32877 2.17292 0
M  V30 881 H 84.7628 2.94812 1.759 0
M  V30 882 N 87.2079 -1.17134 1.05439 0
M  V30 883 C 88.4379 -1.91094 0.785274 0
M  V30 884 C 88.8459 -1.77198 -0.663142 0
M  V30 885 O 88.1889 -1.10835 -1.46497 0
M  V30 886 C 88.2509 -3.42594 1.08949 0
M  V30 887 C 87.9149 -3.80274 2.53458 0
M  V30 888 C 88.9119 -3.82912 3.51673 0
M  V30 889 C 86.5969 -4.11162 2.88532 0
M  V30 890 C 88.5909 -4.15913 4.83006 0
M  V30 891 C 86.2779 -4.43831 4.20068 0
M  V30 892 C 87.2759 -4.46185 5.17115 0
M  V30 893 O 86.9639 -4.78083 6.46291 0
M  V30 894 H 86.6959 -0.613073 0.284811 0
M  V30 895 H 89.2499 -1.49461 1.40893 0
M  V30 896 H 87.4799 -3.84534 0.408741 0
M  V30 897 H 89.1689 -3.97817 0.805991 0
M  V30 898 H 89.9349 -3.5917 3.25917 0
M  V30 899 H 85.8139 -4.085 2.13656 0
M  V30 900 H 89.3579 -4.17665 5.5875 0
M  V30 901 H 85.2549 -4.67037 4.45586 0
M  V30 902 H 86.0229 -4.9593 6.51149 0
M  V30 903 N 88.686 -0.835752 -1.33615 0
M  V30 904 C 89.934 -0.429109 -1.97492 0
M  V30 905 C 90.255 1.01433 -1.66543 0
M  V30 906 O 89.525 1.70611 -0.962744 0
M  V30 907 H 88.105 -0.155686 -0.730596 0
M  V30 908 H 90.767 -1.06802 -1.63031 0
M  V30 909 H 89.863 -0.55861 -3.0706 0
M  V30 910 N 90.1641 1.46063 -0.591896 0
M  V30 911 C 91.4101 2.02638 -0.0811191 0
M  V30 912 C 91.7431 1.4613 1.27905 0
M  V30 913 O 91.0181 0.629908 1.84017 0
M  V30 914 C 91.3011 3.60091 -0.0252436 0
M  V30 915 C 91.1541 4.26965 -1.41496 0
M  V30 916 C 92.4731 4.3496 0.670685 0
M  V30 917 H 89.5921 0.73635 -0.0309524 0
M  V30 918 H 92.2341 1.741 -0.760859 0
M  V30 919 H 90.3841 3.84535 0.553624 0
M  V30 920 H 92.0561 4.13756 -2.0397 0
M  V30 921 H 90.2991 3.85971 -1.98011 0
M  V30 922 H 90.9701 5.35781 -1.32825 0
M  V30 923 H 93.4461 4.15716 0.178825 0
M  V30 924 H 92.3221 5.44686 0.678837 0
M  V30 925 H 92.5831 4.06685 1.73379 0
M  V30 926 N 91.6422 0.330177 1.54103 0
M  V30 927 C 92.6052 -0.520144 2.2322 0
M  V30 928 C 93.6052 -1.03828 1.22786 0
M  V30 929 O 94.7952 -0.929652 1.4732 0
M  V30 930 C 91.9272 -1.72317 2.94142 0
M  V30 931 H 93.1202 0.0841605 2.99782 0
M  V30 932 H 90.6732 0.0813433 1.56088 0
M  V30 933 H 91.4082 -2.36653 2.21734 0
M  V30 934 H 91.1932 -1.35898 3.67796 0
M  V30 935 H 92.6832 -2.3266 3.46784 0
M  V30 936 N 93.1203 -1.57491 0.0584922 0
M  V30 937 C 94.3453 -1.97711 -0.62652 0
M  V30 938 C 94.7703 -0.936132 -1.63151 0
M  V30 939 O 94.1283 0.099811 -1.81025 0
M  V30 940 C 94.1763 -3.36989 -1.28338 0
M  V30 941 O 93.2803 -3.35433 -2.39913 0
M  V30 942 H 92.6213 -0.643868 -0.162266 0
M  V30 943 H 95.1513 -2.04193 0.129064 0
M  V30 944 H 95.1613 -3.73879 -1.63335 0
M  V30 945 H 93.8363 -4.12289 -0.546889 0
M  V30 946 H 92.4133 -3.10298 -2.06809 0
M  V30 947 N 94.5984 0.214957 -1.56127 0
M  V30 948 C 95.8444 0.939762 -1.79712 0
M  V30 949 C 96.1774 1.83723 -0.629247 0
M  V30 950 O 95.4524 1.90925 0.371197 0
M  V30 951 C 95.7354 1.77306 -3.13424 0
M  V30 952 C 95.5884 0.90164 -4.40671 0
M  V30 953 C 96.9074 2.74956 -3.43638 0
M  V30 954 H 94.0264 0.340214 -0.653776 0
M  V30 955 H 96.6684 0.20824 -1.88855 0
M  V30 956 H 94.8184 2.39673 -3.0576 0
M  V30 957 H 96.4904 0.294206 -4.60361 0
M  V30 958 H 94.7334 0.207368 -4.33304 0
M  V30 959 H 95.4044 1.51923 -5.30682 0
M  V30 960 H 97.8804 2.22724 -3.51473 0
M  V30 961 H 96.7564 3.30358 -4.38355 0
M  V30 962 H 97.0174 3.53023 -2.66134 0
M  V30 963 N 96.0765 1.50051 0.48192 0
M  V30 964 C 97.0065 1.71046 1.58951 0
M  V30 965 C 97.9875 0.559288 1.60642 0
M  V30 966 O 99.1725 0.797243 1.77081 0
M  V30 967 C 96.3025 1.79462 2.97339 0
M  V30 968 C 95.2565 2.94558 3.10515 0
M  V30 969 C 94.5825 2.88105 4.50444 0
M  V30 970 C 95.8825 4.35227 2.88747 0
M  V30 971 H 97.5765 2.6378 1.41635 0
M  V30 972 H 95.1225 1.26936 0.679942 0
M  V30 973 H 97.0755 1.92734 3.74742 0
M  V30 974 H 95.7995 0.833412 3.15788 0
M  V30 975 H 94.4585 2.80918 2.35543 0
M  V30 976 H 94.1065 1.89853 4.65795 0
M  V30 977 H 93.8065 3.65366 4.60197 0
M  V30 978 H 95.3305 3.03412 5.29881 0
M  V30 979 H 96.7445 4.49449 3.55905 0
M  V30 980 H 95.1415 5.13856 3.09955 0
M  V30 981 H 96.2115 4.48347 1.84696 0
M  V30 982 N 97.5546 -0.734337 1.39446 0
M  V30 983 C 98.5176 -1.83004 1.37994 0
M  V30 984 C 99.5176 -1.58397 0.276938 0
M  V30 985 O 100.708 -1.65785 0.534875 0
M  V30 986 C 97.8396 -3.20802 1.1532 0
M  V30 987 H 99.0326 -1.85694 2.35494 0
M  V30 988 H 96.5856 -0.938059 1.25021 0
M  V30 989 H 97.3206 -3.23772 0.185036 0
M  V30 990 H 97.1056 -3.4006 1.95197 0
M  V30 991 H 98.5956 -4.00862 1.17046 0
M  V30 992 N 99.0327 -1.24633 -0.964593 0
M  V30 993 C 99.9657 -0.984662 -2.05863 0
M  V30 994 C 100.944 0.0826554 -1.6239 0
M  V30 995 O 102.128 -0.0549296 -1.8842 0
M  V30 996 C 99.2547 -0.486529 -3.35187 0
M  V30 997 C 98.3007 -1.54286 -3.97615 0
M  V30 998 S 99.1337 -3.12513 -4.34851 0
M  V30 999 C 100.29 -2.6441 -5.67308 0
M  V30 1000 H 100.523 -1.91104 -2.27743 0
M  V30 1001 H 98.0557 -1.08052 -1.10291 0
M  V30 1002 H 100.014 -0.205757 -4.09984 0
M  V30 1003 H 98.6747 0.419186 -3.1129 0
M  V30 1004 H 97.8677 -1.14481 -4.90826 0
M  V30 1005 H 97.4697 -1.7738 -3.2926 0
M  V30 1006 H 99.7617 -2.07416 -6.44969 0
M  V30 1007 H 100.705 -3.56222 -6.11973 0
M  V30 1008 H 101.113 -2.04734 -5.26065 0
M  V30 1009 N 100.511 1.16574 -1.06058 0
M  V30 1010 C 101.441 2.23057 -0.690488 0
M  V30 1011 C 102.422 1.67141 0.315901 0
M  V30 1012 O 103.607 1.93253 0.191556 0
M  V30 1013 C 100.737 3.47222 -0.073625 0
M  V30 1014 C 99.6908 4.16016 -1.00573 0
M  V30 1015 C 99.0168 5.34104 -0.252289 0
M  V30 1016 C 100.317 4.67264 -2.33371 0
M  V30 1017 H 102.011 2.54271 -1.58072 0
M  V30 1018 H 99.5568 1.22218 -0.76149 0
M  V30 1019 H 101.51 4.20939 0.19714 0
M  V30 1020 H 100.234 3.15302 0.85161 0
M  V30 1021 H 98.8928 3.44223 -1.2612 0
M  V30 1022 H 98.5408 4.98437 0.675988 0
M  V30 1023 H 98.2408 5.81072 -0.873455 0
M  V30 1024 H 99.7648 6.10599 0.0109857 0
M  V30 1025 H 101.179 5.32573 -2.12223 0
M  V30 1026 H 99.5758 5.24843 -2.90963 0
M  V30 1027 H 100.646 3.83602 -2.96611 0
M  V30 1028 N 101.989 0.842826 1.3317 0
M  V30 1029 C 102.921 0.236245 2.27979 0
M  V30 1030 C 103.934 -0.585282 1.51915 0
M  V30 1031 O 105.123 -0.411705 1.73687 0
M  V30 1032 C 102.223 -0.685717 3.3189 0
M  V30 1033 C 101.396 0.0973448 4.37292 0
M  V30 1034 C 100.455 -0.748565 5.20848 0
M  V30 1035 O 99.4809 -0.186339 5.68895 0
M  V30 1036 N 100.683 -2.06527 5.42519 0
M  V30 1037 H 103.448 1.05088 2.80672 0
M  V30 1038 H 101.009 0.701667 1.45905 0
M  V30 1039 H 103.001 -1.25669 3.84694 0
M  V30 1040 H 101.571 -1.40105 2.79445 0
M  V30 1041 H 100.791 0.849706 3.84933 0
M  V30 1042 H 102.079 0.635643 5.04814 0
M  V30 1043 H 101.477 -2.54554 5.05192 0
M  V30 1044 H 100.034 -2.58464 5.98364 0
M  V30 1045 N 103.467 -1.45747 0.599634 0
M  V30 1046 C 104.397 -2.33235 -0.111306 0
M  V30 1047 C 105.378 -1.46359 -0.866781 0
M  V30 1048 O 106.563 -1.75146 -0.838904 0
M  V30 1049 C 103.693 -3.28932 -1.11451 0
M  V30 1050 C 102.647 -4.25381 -0.472772 0
M  V30 1051 C 101.973 -5.1071 -1.58365 0
M  V30 1052 C 103.273 -5.18831 0.600948 0
M  V30 1053 H 104.967 -2.92927 0.61919 0
M  V30 1054 H 102.513 -1.40857 0.299215 0
M  V30 1055 H 104.466 -3.89002 -1.62036 0
M  V30 1056 H 103.19 -2.67381 -1.8755 0
M  V30 1057 H 101.849 -3.66598 0.0121472 0
M  V30 1058 H 101.497 -4.45533 -2.33473 0
M  V30 1059 H 101.197 -5.7604 -1.15982 0
M  V30 1060 H 102.721 -5.73647 -2.09194 0
M  V30 1061 H 104.135 -5.73019 0.179491 0
M  V30 1062 H 102.532 -5.92595 0.946076 0
M  V30 1063 H 103.602 -4.6174 1.48068 0
M  V30 1064 N 104.945 -0.338344 -1.53925 0
M  V30 1065 C 106.173 0.261298 -2.05243 0
M  V30 1066 C 106.588 1.44625 -1.21363 0
M  V30 1067 O 105.945 1.80811 -0.247736 0
M  V30 1068 C 105.996 0.681412 -3.5502 0
M  V30 1069 O 105.717 -0.456414 -4.35716 0
M  V30 1070 C 107.218 1.34232 -4.22489 0
M  V30 1071 H 104.438 0.0513685 -0.669031 0
M  V30 1072 H 106.982 -0.488822 -1.98572 0
M  V30 1073 H 105.137 1.38148 -3.61931 0
M  V30 1074 H 105.551 -0.122564 -5.24357 0
M  V30 1075 H 107.025 1.58708 -5.28693 0
M  V30 1076 H 107.502 2.29426 -3.74514 0
M  V30 1077 H 108.108 0.684424 -4.19757 0
M  V30 1078 N 106.423 1.57458 -0.0668435 0
M  V30 1079 C 107.651 1.97624 0.612565 0
M  V30 1080 C 108.066 0.94502 1.63447 0
M  V30 1081 O 107.423 -0.0689276 1.8237 0
M  V30 1082 C 107.474 3.37869 1.28555 0
M  V30 1083 O 107.195 4.3704 0.304557 0
M  V30 1084 C 108.696 3.92882 2.05325 0
M  V30 1085 H 105.916 0.650045 0.166381 0
M  V30 1086 H 108.46 2.04035 -0.137782 0
M  V30 1087 H 106.615 3.3256 1.98702 0
M  V30 1088 H 107.029 5.18565 0.786779 0
M  V30 1089 H 108.503 4.93247 2.47812 0
M  V30 1090 H 108.98 3.29156 2.9078 0
M  V30 1091 H 109.586 4.01577 1.40056 0
M  V30 1092 N 107.901 -0.206675 1.56239 0
M  V30 1093 C 109.149 -0.927007 1.79586 0
M  V30 1094 C 109.47 -1.8427 0.637929 0
M  V30 1095 O 108.74 -1.92849 -0.344398 0
M  V30 1096 H 107.32 -0.345292 0.662407 0
M  V30 1097 H 109.982 -0.21496 1.93711 0
M  V30 1098 H 109.078 -1.52501 2.72305 0
M  V30 1099 N 109.379 -1.50304 -0.473955 0
M  V30 1100 C 110.627 -1.60832 -1.22382 0
M  V30 1101 C 110.948 -0.30939 -1.9253 0
M  V30 1102 O 110.218 0.67296 -1.83978 0
M  V30 1103 H 108.798 -0.592652 -0.454723 0
M  V30 1104 H 111.46 -1.87068 -0.546968 0
M  V30 1105 H 110.556 -2.41803 -1.97327 0
M  V30 1106 N 110.857 0.726932 -1.39834 0
M  V30 1107 C 111.767 1.87131 -1.41489 0
M  V30 1108 C 112.783 1.71239 -0.308757 0
M  V30 1109 O 113.959 1.93701 -0.551529 0
M  V30 1110 C 111.024 3.22811 -1.26468 0
M  V30 1111 C 110.085 3.51039 -2.47124 0
M  V30 1112 C 109.318 4.80245 -2.3281 0
M  V30 1113 O 109.541 5.54537 -1.33585 0
M  V30 1114 O 108.475 5.08554 -3.21957 0
M  V30 1115 H 112.301 1.8869 -2.3797 0
M  V30 1116 H 109.886 0.875837 -1.21035 0
M  V30 1117 H 111.768 4.03877 -1.20255 0
M  V30 1118 H 110.443 3.22005 -0.330862 0
M  V30 1119 H 109.35 2.70027 -2.58914 0
M  V30 1120 H 110.683 3.56632 -3.39227 0
M  V30 1121 N 112.336 1.25143 0.95797 0
M  V30 1122 C 113.564 1.12424 1.73691 0
M  V30 1123 C 113.979 -0.322304 1.86029 0
M  V30 1124 O 113.336 -1.22186 1.35561 0
M  V30 1125 C 113.387 1.76933 3.15241 0
M  V30 1126 O 113.108 3.15932 3.03511 0
M  V30 1127 C 114.609 1.6995 4.09429 0
M  V30 1128 H 111.829 0.3923 0.544373 0
M  V30 1129 H 114.373 1.6544 1.20207 0
M  V30 1130 H 112.528 1.27895 3.6568 0
M  V30 1131 H 112.942 3.47598 3.9278 0
M  V30 1132 H 114.416 2.19753 5.06372 0
M  V30 1133 H 114.893 0.662619 4.34173 0
M  V30 1134 H 115.499 2.18461 3.64904 0
M  V30 1135 N 113.814 -1.1601 1.06675 0
M  V30 1136 C 114.746 -2.20115 0.638921 0
M  V30 1137 C 115.759 -1.59916 -0.305057 0
M  V30 1138 O 116.948 -1.78245 -0.0954446 0
M  V30 1139 C 114.048 -3.38798 -0.0830083 0
M  V30 1140 C 113.221 -4.2855 0.875426 0
M  V30 1141 C 112.28 -5.25849 0.192042 0
M  V30 1142 O 111.306 -5.63102 0.830921 0
M  V30 1143 N 112.508 -5.70648 -1.06493 0
M  V30 1144 H 115.273 -2.57439 1.53444 0
M  V30 1145 H 112.834 -1.31057 0.950557 0
M  V30 1146 H 114.826 -4.00936 -0.550685 0
M  V30 1147 H 113.396 -2.99947 -0.880386 0
M  V30 1148 H 112.616 -3.63617 1.52238 0
M  V30 1149 H 113.904 -4.85393 1.52548 0
M  V30 1150 H 113.302 -5.42482 -1.60405 0
M  V30 1151 H 111.859 -6.34859 -1.47641 0
M  V30 1152 N 115.292 -0.849877 -1.32721 0
M  V30 1153 C 116.224 -0.248332 -2.27851 0
M  V30 1154 C 117.237 0.577218 -1.52224 0
M  V30 1155 O 118.426 0.402489 -1.73903 0
M  V30 1156 C 115.526 0.668107 -3.32249 0
M  V30 1157 C 114.699 -0.120534 -4.37234 0
M  V30 1158 C 113.758 0.720932 -5.21238 0
M  V30 1159 O 112.784 0.156166 -5.68986 0
M  V30 1160 N 113.986 2.03647 -5.43607 0
M  V30 1161 H 116.751 -1.06575 -2.80111 0
M  V30 1162 H 114.312 -0.709395 -1.45531 0
M  V30 1163 H 116.304 1.23627 -3.85355 0
M  V30 1164 H 114.874 1.38621 -2.80184 0
M  V30 1165 H 114.094 -0.870108 -3.84477 0
M  V30 1166 H 115.382 -0.662406 -5.0447 0
M  V30 1167 H 114.78 2.51871 -5.06535 0
M  V30 1168 H 113.337 2.55287 -5.99727 0
M  V30 1169 N 116.77 1.45427 -0.607355 0
M  V30 1170 C 117.702 2.2871 0.149752 0
M  V30 1171 C 118.715 1.39937 0.831958 0
M  V30 1172 O 119.904 1.64313 0.697385 0
M  V30 1173 C 117.004 3.15673 1.23304 0
M  V30 1174 C 116.177 4.32722 0.637996 0
M  V30 1175 C 115.236 5.00895 1.61215 0
M  V30 1176 O 114.262 5.57697 1.13854 0
M  V30 1177 N 115.464 5.00159 2.94655 0
M  V30 1178 H 118.229 2.94328 -0.564882 0
M  V30 1179 H 115.79 1.55612 -0.446823 0
M  V30 1180 H 117.782 3.58144 1.88454 0
M  V30 1181 H 116.352 2.51965 1.8502 0
M  V30 1182 H 115.572 3.93734 -0.191572 0
M  V30 1183 H 116.86 5.08321 0.220665 0
M  V30 1184 H 116.258 4.553 3.35735 0
M  V30 1185 H 114.815 5.46495 3.55228 0
M  V30 1186 N 118.248 0.346503 1.53744 0
M  V30 1187 C 119.497 -0.250122 2.00143 0
M  V30 1188 C 119.81 -1.51418 1.23822 0
M  V30 1189 O 121.016 -2.18823 1.60713 0
M  V30 1190 C 119.472 -0.496252 3.56462 0
M  V30 1191 C 119.08 0.752077 4.41642 0
M  V30 1192 C 120.824 -1.05157 4.11269 0
M  V30 1193 C 118.731 0.476583 5.89477 0
M  V30 1194 H 117.661 -0.0972409 0.747703 0
M  V30 1195 H 120.312 0.46229 1.77581 0
M  V30 1196 H 118.694 -1.26944 3.75102 0
M  V30 1197 H 119.868 1.5266 4.34778 0
M  V30 1198 H 118.183 1.22925 3.97842 0
M  V30 1199 H 120.78 -1.27269 5.19333 0
M  V30 1200 H 121.123 -2.00799 3.64672 0
M  V30 1201 H 121.656 -0.339019 3.96353 0
M  V30 1202 H 118.395 1.4028 6.40314 0
M  V30 1203 H 117.915 -0.259794 5.99237 0
M  V30 1204 H 119.594 0.0949315 6.4693 0
M  V30 1205 N 119.726 -1.57421 0.075193 0
M  V30 1206 C 120.658 -2.09904 -0.920483 0
M  V30 1207 C 121.671 -1.03191 -1.25918 0
M  V30 1208 O 122.86 -1.30695 -1.21577 0
M  V30 1209 C 119.96 -2.54726 -2.23534 0
M  V30 1210 C 119.133 -3.8505 -2.07498 0
M  V30 1211 C 118.192 -4.15929 -3.22319 0
M  V30 1212 O 117.218 -4.85474 -2.9716 0
M  V30 1213 N 118.42 -3.69745 -4.47514 0
M  V30 1214 H 121.185 -2.95954 -0.472359 0
M  V30 1215 H 118.746 -1.61523 -0.110444 0
M  V30 1216 H 120.738 -2.72443 -2.9926 0
M  V30 1217 H 119.308 -1.73795 -2.59835 0
M  V30 1218 H 118.528 -3.76679 -1.16219 0
M  V30 1219 H 119.816 -4.70348 -1.94038 0
M  V30 1220 H 119.214 -3.13569 -4.7084 0
M  V30 1221 H 117.771 -3.92655 -5.20255 0
M  V30 1222 N 121.204 0.198386 -1.56346 0
M  V30 1223 C 122.167 1.22952 -1.93431 0
M  V30 1224 C 123.167 1.38611 -0.815092 0
M  V30 1225 O 124.357 1.36479 -1.08255 0
M  V30 1226 C 121.489 2.59946 -2.20546 0
M  V30 1227 H 122.682 0.912626 -2.85677 0
M  V30 1228 H 120.235 0.43977 -1.49986 0
M  V30 1229 H 120.97 2.96696 -1.30927 0
M  V30 1230 H 120.755 2.49953 -3.02102 0
M  V30 1231 H 122.245 3.3431 -2.50253 0
M  V30 1232 N 122.682 1.50554 0.465978 0
M  V30 1233 C 123.645 1.69233 1.54574 0
M  V30 1234 C 124.645 0.562901 1.50626 0
M  V30 1235 O 125.835 0.830016 1.53155 0
M  V30 1236 C 122.967 1.7223 2.94193 0
M  V30 1237 H 124.16 2.65571 1.39327 0
M  V30 1238 H 121.713 1.40111 0.692711 0
M  V30 1239 H 122.448 0.77603 3.14878 0
M  V30 1240 H 122.233 2.54285 2.98466 0
M  V30 1241 H 123.723 1.88618 3.72576 0
M  V30 1242 N 124.16 -0.719506 1.40217 0
M  V30 1243 C 125.093 -1.84298 1.34571 0
M  V30 1244 C 126.071 -1.61149 0.216741 0
M  V30 1245 O 127.255 -1.84212 0.399756 0
M  V30 1246 C 124.382 -3.20568 1.09335 0
M  V30 1247 C 123.428 -3.62551 2.24631 0
M  V30 1248 S 124.261 -3.7012 3.87004 0
M  V30 1249 C 125.417 -5.09154 3.64024 0
M  V30 1250 H 125.65 -1.88807 2.2965 0
M  V30 1251 H 123.183 -0.885901 1.26456 0
M  V30 1252 H 125.141 -3.99246 0.954602 0
M  V30 1253 H 123.802 -3.13696 0.159164 0
M  V30 1254 H 122.995 -4.61483 2.02606 0
M  V30 1255 H 122.597 -2.91119 2.34789 0
M  V30 1256 H 124.889 -5.95955 3.22248 0
M  V30 1257 H 125.832 -5.36213 4.62473 0
M  V30 1258 H 126.24 -4.79562 2.97793 0
M  V30 1259 N 125.638 -1.25649 -0.95132 0
M  V30 1260 C 126.886 -1.10375 -1.69298 0
M  V30 1261 C 127.207 0.355339 -1.91735 0
M  V30 1262 O 126.477 1.25188 -1.50681 0
M  V30 1263 H 125.057 -0.405461 -0.627384 0
M  V30 1264 H 127.719 -1.57823 -1.14358 0
M  V30 1265 H 126.815 -1.61465 -2.67087 0
M  V30 1266 N 127.117 1.15442 -1.07289 0
M  V30 1267 C 128.364 1.86213 -0.795668 0
M  V30 1268 C 128.692 1.82291 0.678238 0
M  V30 1269 O 127.947 1.24057 1.51355 0
M  V30 1270 C 128.246 3.3489 -1.24834 0
M  V30 1271 C 127.912 3.59007 -2.72809 0
M  V30 1272 C 126.574 3.65298 -3.13227 0
M  V30 1273 C 128.926 3.68762 -3.68326 0
M  V30 1274 C 126.254 3.78854 -4.4798 0
M  V30 1275 C 128.606 3.83842 -5.0284 0
M  V30 1276 C 127.27 3.88378 -5.4288 0
M  V30 1277 H 126.54 0.681403 -0.291155 0
M  V30 1278 H 129.187 1.36435 -1.34379 0
M  V30 1279 H 127.492 3.8687 -0.619595 0
M  V30 1280 H 129.189 3.88052 -1.01076 0
M  V30 1281 H 125.779 3.5475 -2.40521 0
M  V30 1282 H 129.963 3.63202 -3.38227 0
M  V30 1283 H 125.219 3.80623 -4.78472 0
M  V30 1284 H 129.393 3.90332 -5.76727 0
M  V30 1285 H 127.02 3.98635 -6.47298 0
M  V30 1286 N 128.595 0.856903 1.32268 0
M  V30 1287 C 129.542 0.301172 2.28827 0
M  V30 1288 C 130.512 -0.593104 1.5515 0
M  V30 1289 O 131.697 -0.527537 1.83362 0
M  V30 1290 C 128.837 -0.502523 3.41422 0
M  V30 1291 C 127.95 0.417797 4.29975 0
M  V30 1292 C 127.085 -0.398749 5.29701 0
M  V30 1293 C 126.124 0.518827 6.09897 0
M  V30 1294 N 125.261 -0.260674 7.01616 0
M  V30 1295 H 130.101 1.12983 2.75751 0
M  V30 1296 H 127.638 0.568582 1.35667 0
M  V30 1297 H 129.596 -0.984141 4.05426 0
M  V30 1298 H 128.226 -1.29599 2.95642 0
M  V30 1299 H 127.278 1.01781 3.66531 0
M  V30 1300 H 128.59 1.12191 4.86019 0
M  V30 1301 H 127.744 -0.943435 5.9932 0
M  V30 1302 H 126.483 -1.13622 4.7428 0
M  V30 1303 H 125.488 1.07538 5.39181 0
M  V30 1304 H 126.713 1.25495 6.67404 0
M  V30 1305 H 124.659 -0.981198 6.4862 0
M  V30 1306 H 124.576 0.384364 7.55022 0
M  V30 1307 H 125.844 -0.787014 7.75517 0
M  V30 1308 N 130.073 -1.45103 0.615059 0
M  V30 1309 C 131.322 -2.01396 0.110718 0
M  V30 1310 C 131.635 -1.48834 -1.26916 0
M  V30 1311 O 132.841 -1.97152 -1.86664 0
M  V30 1312 C 131.297 -3.59599 0.14723 0
M  V30 1313 C 130.905 -4.21158 1.52743 0
M  V30 1314 C 132.649 -4.23428 -0.30148 0
M  V30 1315 C 130.556 -5.71535 1.51992 0
M  V30 1316 H 129.486 -0.753061 0.0376241 0
M  V30 1317 H 132.137 -1.66494 0.77149 0
M  V30 1318 H 130.519 -3.91724 -0.580339 0
M  V30 1319 H 131.693 -4.00594 2.2773 0
M  V30 1320 H 130.008 -3.69552 1.91886 0
M  V30 1321 H 132.605 -5.33703 -0.326392 0
M  V30 1322 H 132.948 -3.94629 -1.32565 0
M  V30 1323 H 133.481 -3.96047 0.373065 0
M  V30 1324 H 130.22 -6.05044 2.52193 0
M  V30 1325 H 129.74 -5.94268 0.81274 0
M  V30 1326 H 131.419 -6.34873 1.24681 0
M  V30 1327 N 131.551 -0.354651 -1.53558 0
M  V30 1328 C 132.828 0.294281 -1.93374 0
M  V30 1329 C 133.208 1.67313 -1.28723 0
M  V30 1330 O 132.556 2.24179 -0.442247 0
M  V30 1331 C 132.766 0.355445 -3.47185 0
M  V30 1332 C 134.114 0.601007 -4.20325 0
M  V30 1333 O 135.138 0.437106 -3.53508 0
M  V30 1334 O 133.997 0.919322 -5.38712 0
M  V30 1335 H 131.091 0.174033 -0.808481 0
M  V30 1336 H 133.637 -0.406638 -1.64756 0
M  V30 1337 H 132.409 -0.611729 -3.86489 0
M  V30 1338 H 132.032 1.1027 -3.82003 0
M  V30 1339 N 133.029 1.57378 -0.0835403 0
M  V30 1340 C 134.306 1.85363 0.624507 0
M  V30 1341 C 134.686 0.978239 1.87066 0
M  V30 1342 O 134.034 0.0475908 2.2845 0
M  V30 1343 C 134.244 3.35795 0.950947 0
M  V30 1344 C 135.592 4.03581 1.31939 0
M  V30 1345 O 136.616 3.40609 1.04232 0
M  V30 1346 O 135.475 5.14672 1.83779 0
M  V30 1347 H 132.569 0.766162 0.311329 0
M  V30 1348 H 135.115 1.69307 -0.115362 0
M  V30 1349 H 133.887 3.91244 0.0663899 0
M  V30 1350 H 133.51 3.57154 1.74719 0
M  V30 1351 N 134.507 -0.190092 1.56449 0
M  V30 1352 C 135.454 -1.23557 1.94942 0
M  V30 1353 C 136.424 -1.44972 0.810696 0
M  V30 1354 O 137.609 -1.58023 1.06927 0
M  V30 1355 C 134.749 -2.57416 2.2985 0
M  V30 1356 C 133.862 -2.43537 3.5681 0
M  V30 1357 C 132.997 -3.70134 3.81017 0
M  V30 1358 C 132.036 -3.51109 5.01387 0
M  V30 1359 N 131.173 -4.6973 5.21822 0
M  V30 1360 H 136.013 -0.900304 2.84075 0
M  V30 1361 H 133.55 -0.43318 1.40577 0
M  V30 1362 H 135.508 -3.35409 2.48106 0
M  V30 1363 H 134.138 -2.88975 1.43852 0
M  V30 1364 H 133.19 -1.56816 3.46573 0
M  V30 1365 H 134.502 -2.25415 4.4496 0
M  V30 1366 H 133.656 -4.56566 3.9954 0
M  V30 1367 H 132.395 -3.91215 2.91207 0
M  V30 1368 H 131.4 -2.63063 4.82782 0
M  V30 1369 H 132.625 -3.31468 5.9271 0
M  V30 1370 H 130.571 -4.91065 4.34961 0
M  V30 1371 H 130.488 -4.54452 6.0416 0
M  V30 1372 H 131.756 -5.57499 5.44808 0
M  V30 1373 N 135.985 -1.50799 -0.457987 0
M  V30 1374 C 137.233 -1.62121 -1.2067 0
M  V30 1375 C 137.554 -0.329793 -1.92191 0
M  V30 1376 O 136.824 0.653409 -1.84682 0
M  V30 1377 H 135.404 -0.597441 -0.448411 0
M  V30 1378 H 138.066 -1.87637 -0.527096 0
M  V30 1379 H 137.162 -2.43882 -1.94751 0
M  V30 1380 N 137.463 0.71206 -1.40597 0
M  V30 1381 C 138.396 1.83582 -1.35546 0
M  V30 1382 C 139.374 1.61032 -0.225284 0
M  V30 1383 O 140.558 1.83998 -0.409519 0
M  V30 1384 C 137.685 3.19983 -1.11034 0
M  V30 1385 C 136.731 3.61355 -2.2655 0
M  V30 1386 S 137.564 3.68062 -3.88961 0
M  V30 1387 C 138.72 5.07216 -3.66719 0
M  V30 1388 H 138.953 1.87586 -2.30648 0
M  V30 1389 H 136.486 0.879182 -1.26924 0
M  V30 1390 H 138.444 3.98734 -0.975761 0
M  V30 1391 H 137.105 3.13608 -0.175798 0
M  V30 1392 H 136.298 4.60403 -2.0505 0
M  V30 1393 H 135.9 2.8987 -2.36329 0
M  V30 1394 H 138.192 5.94238 -3.25404 0
M  V30 1395 H 139.135 5.33753 -4.6531 0
M  V30 1396 H 139.543 4.77976 -3.00332 0
M  V30 1397 N 138.941 1.26152 0.944643 0
M  V30 1398 C 139.904 1.07474 2.0244 0
M  V30 1399 C 140.904 0.0242064 1.60782 0
M  V30 1400 O 142.094 0.267302 1.72137 0
M  V30 1401 C 139.226 0.633956 3.34953 0
M  V30 1402 H 140.419 2.03336 2.20442 0
M  V30 1403 H 137.972 1.087 1.12312 0
M  V30 1404 H 138.707 -0.326811 3.22649 0
M  V30 1405 H 138.492 1.39247 3.66542 0
M  V30 1406 H 139.982 0.52501 4.14287 0
M  V30 1407 N 140.419 -1.14872 1.07899 0
M  V30 1408 C 141.83 -1.67367 0.827363 0
M  V30 1409 C 142.181 -1.85236 -0.646693 0
M  V30 1410 O 141.306 -1.55974 -1.50004 0
M  V30 1411 C 141.901 -3.04016 1.49532 0
M  V30 1412 C 140.46 -3.53566 1.29106 0
M  V30 1413 C 139.607 -2.29161 1.56143 0
M  V30 1414 H 142.558 -0.990083 1.24028 0
M  V30 1415 H 142.579 -3.69219 0.919643 0
M  V30 1416 H 142.091 -2.90978 2.56814 0
M  V30 1417 H 140.192 -3.71835 0.238713 0
M  V30 1418 H 140.305 -4.34661 2.01511 0
M  V30 1419 H 138.669 -2.34978 0.982717 0
M  V30 1420 H 139.452 -2.18705 2.64619 0
M  V30 1421 N 141.898 -0.863906 -1.31812 0
M  V30 1422 C 142.861 -0.320212 -2.26952 0
M  V30 1423 C 143.861 0.525369 -1.51975 0
M  V30 1424 O 145.051 0.335547 -1.70938 0
M  V30 1425 C 142.183 0.545919 -3.365 0
M  V30 1426 H 143.376 -1.16004 -2.76556 0
M  V30 1427 H 140.929 -0.638995 -1.42641 0
M  V30 1428 H 141.664 1.40718 -2.92179 0
M  V30 1429 H 141.449 -0.0594674 -3.92055 0
M  V30 1430 H 142.939 0.918796 -4.07367 0
M  V30 1431 N 143.376 1.44774 -0.622745 0
M  V30 1432 C 144.306 2.33382 0.0741861 0
M  V30 1433 C 145.287 1.47719 0.843387 0
M  V30 1434 O 146.472 1.76458 0.810934 0
M  V30 1435 C 143.602 3.30663 1.06204 0
M  V30 1436 C 142.556 4.26079 0.405037 0
M  V30 1437 C 141.882 5.13165 1.5022 0
M  V30 1438 C 143.182 5.1781 -0.683414 0
M  V30 1439 H 144.876 2.91905 -0.665713 0
M  V30 1440 H 142.422 1.40363 -0.321587 0
M  V30 1441 H 144.375 3.9153 1.55827 0
M  V30 1442 H 143.099 2.70331 1.83272 0
M  V30 1443 H 141.758 3.66532 -0.0704683 0
M  V30 1444 H 141.406 4.49191 2.26355 0
M  V30 1445 H 141.106 5.77812 1.06803 0
M  V30 1446 H 142.63 5.76902 2.00041 0
M  V30 1447 H 144.044 5.72661 -0.270631 0
M  V30 1448 H 142.441 5.91015 -1.04023 0
M  V30 1449 H 143.511 4.59326 -1.55395 0
M  V30 1450 N 144.854 0.36279 1.53368 0
M  V30 1451 C 146.27 0.0116182 1.59596 0
M  V30 1452 C 146.47 -1.47012 1.37803 0
M  V30 1453 O 145.526 -2.23136 1.18181 0
M  V30 1454 C 146.839 0.465052 2.97082 0
M  V30 1455 C 148.387 0.419033 3.10182 0
M  V30 1456 C 148.862 0.848235 4.50077 0
M  V30 1457 N 150.353 0.803183 4.56183 0
M  V30 1458 C 151.088 1.107 5.62613 0
M  V30 1459 N 150.584 1.47996 6.76808 0
M  V30 1460 N 152.377 1.02998 5.52583 0
M  V30 1461 H 144.528 1.32775 1.65785 0
M  V30 1462 H 146.791 0.542518 0.777417 0
M  V30 1463 H 146.497 1.49892 3.18159 0
M  V30 1464 H 146.371 -0.149786 3.76902 0
M  V30 1465 H 148.758 -0.605696 2.88817 0
M  V30 1466 H 148.839 1.06933 2.32377 0
M  V30 1467 H 148.483 1.87107 4.7218 0
M  V30 1468 H 148.413 0.175218 5.26308 0
M  V30 1469 H 150.904 0.52838 3.74188 0
M  V30 1470 H 151.217 1.69613 7.53957 0
M  V30 1471 H 149.562 1.51859 6.78206 0
M  V30 1472 H 152.753 0.737817 4.62249 0
M  V30 1473 H 152.926 1.2701 6.35431 0
M  V30 1474 N 146.332 -1.57332 0.0918853 0
M  V30 1475 C 147.282 -2.10385 -0.87876 0
M  V30 1476 C 148.266 -1.01814 -1.24591 0
M  V30 1477 O 149.458 -1.28093 -1.22152 0
M  V30 1478 C 146.587 -2.68517 -2.13901 0
M  V30 1479 C 145.673 -3.84126 -1.79744 0
M  V30 1480 N 146.064 -4.92288 -1.1613 0
M  V30 1481 C 144.362 -3.93801 -2.09373 0
M  V30 1482 C 145.063 -5.7295 -1.00513 0
M  V30 1483 N 144.039 -5.21876 -1.5214 0
M  V30 1484 H 147.841 -2.91395 -0.38293 0
M  V30 1485 H 145.355 -1.62017 -0.111423 0
M  V30 1486 H 147.352 -3.04852 -2.84378 0
M  V30 1487 H 146.012 -1.88961 -2.64053 0
M  V30 1488 H 147.023 -5.1123 -0.828504 0
M  V30 1489 H 143.7 -3.25249 -2.61762 0
M  V30 1490 H 145.09 -6.69978 -0.507902 0
M  V30 1491 N 147.81 0.181792 -1.56548 0
M  V30 1492 C 148.74 1.22765 -1.98623 0
M  V30 1493 C 149.721 1.46747 -0.860189 0
M  V30 1494 O 150.906 1.58259 -1.12551 0
M  V30 1495 C 148.036 2.56894 -2.33715 0
M  V30 1496 C 146.99 2.475 -3.49182 0
M  V30 1497 C 146.316 3.86023 -3.69986 0
M  V30 1498 C 147.616 1.98866 -4.82959 0
M  V30 1499 H 149.31 0.877942 -2.86239 0
M  V30 1500 H 146.856 0.42088 -1.37712 0
M  V30 1501 H 148.809 3.30253 -2.61746 0
M  V30 1502 H 147.533 2.93632 -1.42997 0
M  V30 1503 H 146.192 1.76596 -3.21262 0
M  V30 1504 H 145.84 4.20136 -2.76576 0
M  V30 1505 H 145.54 3.80609 -4.47672 0
M  V30 1506 H 147.064 4.60984 -4.00407 0
M  V30 1507 H 148.478 2.61992 -5.09934 0
M  V30 1508 H 146.875 2.04424 -5.64208 0
M  V30 1509 H 147.945 0.942465 -4.75653 0
M  V30 1510 N 149.288 1.51039 0.449983 0
M  V30 1511 C 150.518 1.66627 1.22143 0
M  V30 1512 C 150.926 0.357776 1.85786 0
M  V30 1513 O 150.269 -0.672424 1.70951 0
M  V30 1514 C 150.331 2.71562 2.35573 0
M  V30 1515 C 149.995 4.14526 1.92399 0
M  V30 1516 C 150.992 4.99717 1.43453 0
M  V30 1517 C 148.677 4.60559 2.00475 0
M  V30 1518 C 150.671 6.28998 1.03155 0
M  V30 1519 C 148.358 5.8984 1.59788 0
M  V30 1520 C 149.356 6.73886 1.11208 0
M  V30 1521 O 149.044 8.0075 0.710935 0
M  V30 1522 H 148.776 0.562635 0.374724 0
M  V30 1523 H 151.33 1.98146 0.541036 0
M  V30 1524 H 149.56 2.3533 3.06849 0
M  V30 1525 H 151.249 2.76156 2.97478 0
M  V30 1526 H 152.015 4.65361 1.36618 0
M  V30 1527 H 147.894 3.95273 2.37235 0
M  V30 1528 H 151.438 6.9455 0.651663 0
M  V30 1529 H 147.335 6.23713 1.66289 0
M  V30 1530 H 148.103 8.142 0.837913 0
M  V30 1531 N 150.766 -0.704594 1.40972 0
M  V30 1532 C 151.713 -1.81862 1.42109 0
M  V30 1533 C 152.683 -1.63781 0.276593 0
M  V30 1534 O 153.868 -1.84759 0.4763 0
M  V30 1535 C 151.008 -3.19669 1.30022 0
M  V30 1536 C 150.121 -3.49246 2.54267 0
M  V30 1537 C 149.256 -4.76618 2.3454 0
M  V30 1538 C 148.295 -4.99133 3.54306 0
M  V30 1539 N 147.432 -6.17726 3.33706 0
M  V30 1540 H 152.272 -1.80226 2.37324 0
M  V30 1541 H 149.809 -0.880238 1.17857 0
M  V30 1542 H 151.767 -3.99263 1.21018 0
M  V30 1543 H 150.397 -3.20506 0.384192 0
M  V30 1544 H 149.449 -2.64125 2.73756 0
M  V30 1545 H 150.761 -3.61788 3.43381 0
M  V30 1546 H 149.915 -5.64249 2.22952 0
M  V30 1547 H 148.654 -4.66305 1.42867 0
M  V30 1548 H 147.659 -4.09953 3.66359 0
M  V30 1549 H 148.884 -5.11311 4.4692 0
M  V30 1550 H 146.83 -6.08642 2.44725 0
M  V30 1551 H 146.747 -6.30995 4.16391 0
M  V30 1552 H 148.015 -7.08115 3.25873 0
M  V30 1553 N 152.244 -1.26651 -0.937939 0
M  V30 1554 C 153.154 -1.10276 -2.07066 0
M  V30 1555 C 154.17 -0.0354197 -1.73964 0
M  V30 1556 O 155.346 -0.239816 -1.99967 0
M  V30 1557 C 152.411 -0.740887 -3.38691 0
M  V30 1558 C 151.472 -1.88799 -3.85556 0
M  V30 1559 C 150.705 -1.54329 -5.10899 0
M  V30 1560 O 150.928 -0.446494 -5.6865 0
M  V30 1561 O 149.862 -2.37911 -5.52885 0
M  V30 1562 H 153.688 -2.05309 -2.23789 0
M  V30 1563 H 151.273 -1.05743 -1.0554 0
M  V30 1564 H 153.155 -0.55195 -4.1777 0
M  V30 1565 H 151.83 0.180022 -3.23199 0
M  V30 1566 H 150.737 -2.13191 -3.07409 0
M  V30 1567 H 152.07 -2.78874 -4.05574 0
M  V30 1568 N 153.722 1.14298 -1.08507 0
M  V30 1569 C 154.652 2.21542 -0.737646 0
M  V30 1570 C 155.633 1.67773 0.280377 0
M  V30 1571 O 156.818 1.93616 0.150521 0
M  V30 1572 C 153.948 3.46988 -0.147259 0
M  V30 1573 C 152.902 4.13789 -1.09374 0
M  V30 1574 C 152.228 5.33449 -0.365524 0
M  V30 1575 C 153.528 4.62208 -2.4323 0
M  V30 1576 H 155.222 2.5086 -1.6343 0
M  V30 1577 H 152.768 1.20576 -0.787243 0
M  V30 1578 H 154.721 4.21262 0.107808 0
M  V30 1579 H 153.445 3.17037 0.784538 0
M  V30 1580 H 152.104 3.4147 -1.33393 0
M  V30 1581 H 151.752 4.99759 0.57011 0
M  V30 1582 H 151.452 5.79088 -0.996512 0
M  V30 1583 H 152.976 6.10485 -0.118534 0
M  V30 1584 H 154.39 5.27952 -2.23472 0
M  V30 1585 H 152.787 5.18553 -3.02031 0
M  V30 1586 H 153.857 3.77224 -3.04681 0
M  V30 1587 N 155.201 0.870884 1.31352 0
M  V30 1588 C 156.134 0.271983 2.26573 0
M  V30 1589 C 157.112 -0.599385 1.51149 0
M  V30 1590 O 158.296 -0.552605 1.80218 0
M  V30 1591 C 155.423 -0.614801 3.33073 0
M  V30 1592 C 154.469 0.185342 4.26097 0
M  V30 1593 S 155.302 1.56444 5.12138 0
M  V30 1594 C 156.458 0.683807 6.22153 0
M  V30 1595 H 156.691 1.07916 2.77023 0
M  V30 1596 H 154.224 0.669459 1.39132 0
M  V30 1597 H 156.182 -1.12074 3.94905 0
M  V30 1598 H 154.843 -1.39593 2.81376 0
M  V30 1599 H 154.036 -0.490771 5.01605 0
M  V30 1600 H 153.638 0.623415 3.68768 0
M  V30 1601 H 155.93 -0.10521 6.77418 0
M  V30 1602 H 156.873 1.41004 6.93919 0
M  V30 1603 H 157.281 0.250952 5.63942 0
M  V30 1604 N 156.679 -1.44442 0.630414 0
M  V30 1605 C 157.927 -2.01653 0.134351 0
M  V30 1606 C 158.248 -1.49836 -1.24796 0
M  V30 1607 O 157.518 -0.701684 -1.82902 0
M  V30 1608 H 156.098 -0.74554 0.0466769 0
M  V30 1609 H 158.76 -1.76952 0.816955 0
M  V30 1610 H 157.856 -3.11935 0.101498 0
M  V30 1611 N 158.157 -0.370918 -1.53173 0
M  V30 1612 C 159.568 0.107139 -1.86392 0
M  V30 1613 C 159.919 1.47714 -1.29132 0
M  V30 1614 O 159.044 2.07464 -0.615439 0
M  V30 1615 C 159.639 0.201187 -3.38202 0
M  V30 1616 C 158.198 0.623507 -3.712 0
M  V30 1617 C 157.345 -0.225978 -2.76378 0
M  V30 1618 H 160.296 -0.58951 -1.47345 0
M  V30 1619 H 160.317 1.02377 -3.66468 0
M  V30 1620 H 159.829 -0.796058 -3.79848 0
M  V30 1621 H 157.93 1.62879 -3.35114 0
M  V30 1622 H 158.043 0.394414 -4.77474 0
M  V30 1623 H 156.407 0.305962 -2.52856 0
M  V30 1624 H 157.19 -1.22086 -3.20858 0
M  V30 1625 N 159.635 1.57281 -0.100228 0
M  V30 1626 C 160.881 1.95626 0.556946 0
M  V30 1627 C 161.236 0.981655 1.65473 0
M  V30 1628 O 160.529 0.00849847 1.91598 0
M  V30 1629 C 160.723 3.38305 1.15259 0
M  V30 1630 C 160.552 4.49555 0.114035 0
M  V30 1631 C 159.322 5.0434 -0.311266 0
M  V30 1632 C 161.52 5.10051 -0.659768 0
M  V30 1633 N 159.502 5.99152 -1.33755 0
M  V30 1634 C 160.873 6.00628 -1.53774 0
M  V30 1635 C 162.928 4.92772 -0.712723 0
M  V30 1636 C 161.631 6.7578 -2.46403 0
M  V30 1637 C 163.657 5.6859 -1.62663 0
M  V30 1638 C 163.019 6.58838 -2.49222 0
M  V30 1639 H 159.118 0.7624 0.173982 0
M  V30 1640 H 161.702 1.93829 -0.183988 0
M  V30 1641 H 159.873 3.40786 1.86332 0
M  V30 1642 H 161.605 3.63817 1.77254 0
M  V30 1643 H 158.36 4.73537 0.0774812 0
M  V30 1644 H 158.784 6.5126 -1.84905 0
M  V30 1645 H 163.426 4.22761 -0.0576648 0
M  V30 1646 H 161.144 7.4505 -3.12931 0
M  V30 1647 H 164.73 5.57233 -1.67281 0
M  V30 1648 H 163.61 7.16479 -3.18791 0
M  V30 1649 N 161.113 -0.173488 1.56642 0
M  V30 1650 C 162.061 -1.23417 1.97157 0
M  V30 1651 C 163.055 -1.45946 0.860013 0
M  V30 1652 O 164.261 -1.46551 1.04512 0
M  V30 1653 H 160.636 -0.414818 0.62724 0
M  V30 1654 H 162.607 -0.865582 2.8557 0
M  V30 1655 C 161.356 -2.5665 2.34576 0
M  V30 1656 H 160.679 -2.40137 3.19647 0
M  V30 1657 H 162.119 -3.2956 2.6677 0
M  V30 1658 C 160.578 -3.15245 1.18836 0
M  V30 1659 O 161.108 -3.98883 0.474869 0
M  V30 1660 N 159.314 -2.74303 0.959497 0
M  V30 1661 H 158.861 -2.0639 1.54146 0
M  V30 1662 H 158.819 -3.13844 0.186932 0
M  V30 1663 N 162.591 -1.51276 -0.441967 0
M  V30 1664 C 163.538 -1.72256 -1.53612 0
M  V30 1665 C 164.508 -0.564164 -1.56225 0
M  V30 1666 O 165.693 -0.798074 -1.73307 0
M  V30 1667 C 162.833 -1.84932 -2.91366 0
M  V30 1668 C 161.946 -3.12459 -2.98317 0
M  V30 1669 C 161.081 -3.15758 -4.27166 0
M  V30 1670 C 160.12 -4.37619 -4.27967 0
M  V30 1671 N 159.257 -4.38493 -5.48333 0
M  V30 1672 H 164.097 -2.65654 -1.35026 0
M  V30 1673 H 161.634 -1.31662 -0.656009 0
M  V30 1674 H 163.592 -1.90263 -3.7129 0
M  V30 1675 H 162.222 -0.949461 -3.08521 0
M  V30 1676 H 161.274 -3.1646 -2.11086 0
M  V30 1677 H 162.586 -4.02382 -2.94771 0
M  V30 1678 H 161.74 -3.19979 -5.15459 0
M  V30 1679 H 160.479 -2.23715 -4.33362 0
M  V30 1680 H 159.484 -4.33579 -3.38067 0
M  V30 1681 H 160.709 -5.30921 -4.23438 0
M  V30 1682 H 158.655 -3.49318 -5.55259 0
M  V30 1683 H 158.572 -5.22219 -5.46647 0
M  V30 1684 H 159.84 -4.469 -6.38671 0
M  V30 1685 N 164.069 0.697108 -1.41344 0
M  V30 1686 C 165.346 1.45154 -1.31109 0
M  V30 1687 C 165.726 2.11009 0.0620449 0
M  V30 1688 O 165.074 2.01571 1.07618 0
M  V30 1689 C 165.284 2.47223 -2.46337 0
M  V30 1690 C 166.632 3.1252 -2.87431 0
M  V30 1691 O 167.656 2.57547 -2.46065 0
M  V30 1692 O 166.515 4.12083 -3.58957 0
M  V30 1693 H 163.609 0.646365 -0.515889 0
M  V30 1694 H 166.155 0.727716 -1.53305 0
M  V30 1695 H 164.927 1.97204 -3.37974 0
M  V30 1696 H 164.55 3.27116 -2.2601 0
M  V30 1697 N 165.547 1.27147 0.931209 0
M  V30 1698 C 166.457 1.11372 2.06478 0
M  V30 1699 C 167.473 0.044645 1.73943 0
M  V30 1700 O 168.649 0.250417 1.99837 0
M  V30 1701 C 165.714 0.758838 3.38294 0
M  V30 1702 C 164.775 1.90841 3.84549 0
M  V30 1703 C 164.008 1.57036 5.10074 0
M  V30 1704 O 164.231 0.476645 5.68405 0
M  V30 1705 O 163.165 2.40839 5.51616 0
M  V30 1706 H 166.991 2.06493 2.22698 0
M  V30 1707 H 164.576 1.06301 1.04978 0
M  V30 1708 H 166.458 0.574098 4.17471 0
M  V30 1709 H 165.133 -0.162879 3.2329 0
M  V30 1710 H 164.04 2.14819 3.06274 0
M  V30 1711 H 165.373 2.81021 4.04089 0
M  V30 1712 N 167.025 -1.13721 1.09112 0
M  V30 1713 C 168.274 -1.84275 0.82009 0
M  V30 1714 C 168.587 -1.84253 -0.656509 0
M  V30 1715 O 169.793 -2.50668 -1.04296 0
M  V30 1716 C 168.249 -3.30825 1.41714 0
M  V30 1717 C 167.857 -3.39244 2.92605 0
M  V30 1718 C 169.601 -4.06443 1.22492 0
M  V30 1719 C 167.508 -4.80047 3.45411 0
M  V30 1720 H 166.438 -0.690387 0.30312 0
M  V30 1721 H 169.089 -1.28146 1.31343 0
M  V30 1722 H 167.471 -3.86737 0.851498 0
M  V30 1723 H 168.645 -2.93344 3.55367 0
M  V30 1724 H 166.96 -2.77088 3.10823 0
M  V30 1725 H 169.557 -5.10387 1.59402 0
M  V30 1726 H 169.9 -4.15972 0.165299 0
M  V30 1727 H 170.433 -3.56852 1.75788 0
M  V30 1728 H 167.172 -4.75709 4.50978 0
M  V30 1729 H 166.692 -5.26455 2.87411 0
M  V30 1730 H 168.371 -5.48957 3.42425 0
M  V30 1731 N 168.503 -0.877838 -1.30888 0
M  V30 1732 C 169.728 -0.506629 -2.01117 0
M  V30 1733 C 170.153 0.895564 -1.65412 0
M  V30 1734 O 169.511 1.5923 -0.866922 0
M  V30 1735 C 169.559 -0.680223 -3.54126 0
M  V30 1736 O 168.663 0.277033 -4.11468 0
M  V30 1737 H 168.004 -0.200518 -0.633 0
M  V30 1738 H 170.534 -1.18342 -1.66902 0
M  V30 1739 H 170.544 -0.5765 -4.03907 0
M  V30 1740 H 169.219 -1.70261 -3.79452 0
M  V30 1741 H 167.796 0.127606 -3.72682 0
M  V30 1742 N 169.982 1.44106 -0.638065 0
M  V30 1743 C 171.21 2.06336 -0.152615 0
M  V30 1744 C 171.625 1.47731 1.17563 0
M  V30 1745 O 170.982 0.602806 1.72257 0
M  V30 1746 C 171.033 3.61479 -0.0391491 0
M  V30 1747 O 170.754 4.17903 -1.31487 0
M  V30 1748 C 172.255 4.40757 0.474176 0
M  V30 1749 H 169.475 0.665862 -0.0828776 0
M  V30 1750 H 172.019 1.84862 -0.87443 0
M  V30 1751 H 170.174 3.82191 0.633142 0
M  V30 1752 H 170.588 5.11416 -1.16421 0
M  V30 1753 H 172.062 5.49707 0.502562 0
M  V30 1754 H 172.539 4.12697 1.50258 0
M  V30 1755 H 173.145 4.24979 -0.165102 0
M  V30 1756 N 171.46 0.379036 1.52974 0
M  V30 1757 C 172.688 -0.20679 2.05864 0
M  V30 1758 C 173.103 -1.41356 1.25155 0
M  V30 1759 O 172.46 -1.8009 0.295588 0
M  V30 1760 C 172.511 -0.587045 3.56702 0
M  V30 1761 O 172.232 0.571776 4.34353 0
M  V30 1762 C 173.733 -1.22983 4.25899 0
M  V30 1763 H 170.953 -0.0336123 0.670158 0
M  V30 1764 H 173.497 0.541298 1.97206 0
M  V30 1765 H 171.652 -1.28504 3.65466 0
M  V30 1766 H 172.066 0.261544 5.23847 0
M  V30 1767 H 173.54 -1.44635 5.32715 0
M  V30 1768 H 174.017 -2.19416 3.80465 0
M  V30 1769 H 174.623 -0.572892 4.21424 0
M  V30 1770 N 172.938 -1.57226 0.108567 0
M  V30 1771 C 174.215 -1.86333 -0.594939 0
M  V30 1772 C 174.595 -1.00788 -1.85486 0
M  V30 1773 O 173.943 -0.0839293 -2.28346 0
M  V30 1774 C 174.153 -3.37265 -0.897405 0
M  V30 1775 C 175.501 -4.05629 -1.25501 0
M  V30 1776 O 176.525 -3.42224 -0.987998 0
M  V30 1777 O 175.384 -5.17531 -1.75567 0
M  V30 1778 H 172.478 -0.771018 -0.2991 0
M  V30 1779 H 175.024 -1.69102 0.142283 0
M  V30 1780 H 173.796 -3.913 -0.00413806 0
M  V30 1781 H 173.419 -3.59889 -1.69014 0
M  V30 1782 N 174.416 0.165178 -1.56732 0
M  V30 1783 C 175.379 1.18822 -1.95995 0
M  V30 1784 C 176.379 1.3685 -0.84431 0
M  V30 1785 O 177.569 1.34152 -1.11126 0
M  V30 1786 C 174.701 2.5521 -2.26011 0
M  V30 1787 H 175.894 0.851825 -2.87548 0
M  V30 1788 H 173.447 0.407857 -1.50885 0
M  V30 1789 H 174.182 2.93852 -1.37191 0
M  V30 1790 H 173.967 2.43489 -3.07336 0
M  V30 1791 H 175.457 3.28927 -2.57288 0
M  V30 1792 N 175.894 1.51508 0.433938 0
M  V30 1793 C 177.143 1.63578 1.18005 0
M  V30 1794 C 177.456 0.359514 1.92268 0
M  V30 1795 O 178.662 0.359632 2.69108 0
M  V30 1796 C 177.118 2.88901 2.14626 0
M  V30 1797 C 176.726 4.23544 1.45995 0
M  V30 1798 C 178.47 3.10328 2.89649 0
M  V30 1799 C 176.377 5.40014 2.4112 0
M  V30 1800 H 175.307 0.609277 0.444182 0
M  V30 1801 H 177.958 1.77978 0.446773 0
M  V30 1802 H 176.34 2.68142 2.91403 0
M  V30 1803 H 177.514 4.54696 0.747532 0
M  V30 1804 H 175.829 4.08021 0.831115 0
M  V30 1805 H 178.426 3.94518 3.60915 0
M  V30 1806 H 178.769 2.23544 3.51189 0
M  V30 1807 H 179.302 3.31443 2.19978 0
M  V30 1808 H 176.041 6.29068 1.84264 0
M  V30 1809 H 175.561 5.13233 3.10406 0
M  V30 1810 H 177.24 5.72099 3.02177 0
M  V30 1811 N 177.372 -0.689602 1.41712 0
M  V30 1812 C 178.619 -1.44966 1.4139 0
M  V30 1813 C 178.947 -1.94484 0.025105 0
M  V30 1814 O 178.202 -1.70307 -0.964048 0
M  V30 1815 C 178.501 -2.67298 2.37247 0
M  V30 1816 C 178.167 -2.36405 3.83958 0
M  V30 1817 C 176.829 -2.27691 4.23923 0
M  V30 1818 C 179.181 -2.11043 4.76561 0
M  V30 1819 C 176.509 -1.91719 5.54492 0
M  V30 1820 C 178.861 -1.76578 6.07456 0
M  V30 1821 C 177.525 -1.66363 6.46436 0
M  V30 1822 H 176.795 -0.53047 0.517381 0
M  V30 1823 H 179.442 -0.787655 1.74552 0
M  V30 1824 H 177.747 -3.38461 1.9736 0
M  V30 1825 H 179.444 -3.25452 2.34269 0
M  V30 1826 H 176.034 -2.44085 3.52308 0
M  V30 1827 H 180.218 -2.16717 4.46483 0
M  V30 1828 H 175.474 -1.82367 5.83568 0
M  V30 1829 H 179.648 -1.55974 6.78708 0
M  V30 1830 H 177.275 -1.38258 7.47522 0
M  V30 1831 N 178.85 -1.27639 -0.924453 0
M  V30 1832 C 180.096 -1.14336 -1.67497 0
M  V30 1833 C 180.429 0.309465 -1.91718 0
M  V30 1834 O 179.704 1.22608 -1.50989 0
M  V30 1835 C 179.987 -1.93096 -3.0395 0
M  V30 1836 C 179.84 -3.46381 -2.8695 0
M  V30 1837 C 181.159 -1.73798 -4.0433 0
M  V30 1838 H 178.278 -0.416728 -0.607871 0
M  V30 1839 H 180.92 -1.56832 -1.07256 0
M  V30 1840 H 179.07 -1.56982 -3.55372 0
M  V30 1841 H 180.742 -3.92343 -2.42621 0
M  V30 1842 H 178.985 -3.72557 -2.22225 0
M  V30 1843 H 179.656 -3.96735 -3.83804 0
M  V30 1844 H 182.132 -2.05293 -3.61931 0
M  V30 1845 H 181.008 -2.31294 -4.97789 0
M  V30 1846 H 181.269 -0.686725 -4.36734 0
M  V30 1847 N 180.328 1.1314 -1.09713 0
M  V30 1848 C 181.26 2.18343 -0.697056 0
M  V30 1849 C 182.273 1.60669 0.262551 0
M  V30 1850 O 183.462 1.78435 0.0481527 0
M  V30 1851 C 180.562 3.38899 -0.00684728 0
M  V30 1852 C 179.735 4.26078 -0.988741 0
M  V30 1853 C 178.794 5.25155 -0.331394 0
M  V30 1854 O 177.82 5.60701 -0.979926 0
M  V30 1855 N 179.022 5.73271 0.913261 0
M  V30 1856 H 181.787 2.5328 -1.60216 0
M  V30 1857 H 179.348 1.28491 -0.984971 0
M  V30 1858 H 181.34 4.02255 0.444191 0
M  V30 1859 H 179.91 3.02175 0.800551 0
M  V30 1860 H 179.13 3.59453 -1.61826 0
M  V30 1861 H 180.418 4.81178 -1.65364 0
M  V30 1862 H 179.816 5.46544 1.45966 0
M  V30 1863 H 178.373 6.3855 1.30757 0
M  V30 1864 N 181.806 0.884767 1.30421 0
M  V30 1865 C 183.222 0.57874 1.48737 0
M  V30 1866 C 183.422 -0.883567 1.81095 0
M  V30 1867 O 182.478 -1.6648 1.89844 0
M  V30 1868 C 183.791 1.49171 2.61091 0
M  V30 1869 C 185.339 1.49532 2.74971 0
M  V30 1870 C 185.814 2.39421 3.90438 0
M  V30 1871 N 187.305 2.37383 3.97748 0
M  V30 1872 C 188.04 3.03647 4.86401 0
M  V30 1873 N 187.536 3.79136 5.79852 0
M  V30 1874 N 189.329 2.9288 4.79768 0
M  V30 1875 H 181.48 1.83075 1.0769 0
M  V30 1876 H 183.743 0.783637 0.533495 0
M  V30 1877 H 183.449 2.53291 2.44001 0
M  V30 1878 H 183.323 1.20113 3.57565 0
M  V30 1879 H 185.71 0.46163 2.91467 0
M  V30 1880 H 185.791 1.8262 1.79119 0
M  V30 1881 H 185.435 3.42874 3.74699 0
M  V30 1882 H 185.365 2.03649 4.85628 0
M  V30 1883 H 187.856 1.82525 3.30897 0
M  V30 1884 H 188.169 4.26789 6.4426 0
M  V30 1885 H 186.514 3.83243 5.79784 0
M  V30 1886 H 189.705 2.33433 4.05742 0
M  V30 1887 H 189.878 3.448 5.4865 0
M  V30 1888 N 183.284 -1.43765 0.645699 0
M  V30 1889 C 184.561 -1.9541 0.0862963 0
M  V30 1890 C 184.941 -1.58725 -1.39175 0
M  V30 1891 O 184.289 -0.868581 -2.11348 0
M  V30 1892 C 184.499 -3.47488 0.324565 0
M  V30 1893 C 185.847 -4.24001 0.225497 0
M  V30 1894 O 186.871 -3.55274 0.256715 0
M  V30 1895 O 185.73 -5.46313 0.142801 0
M  V30 1896 H 182.824 -0.826882 -0.0139483 0
M  V30 1897 H 185.37 -1.53743 0.718415 0
M  V30 1898 H 184.142 -3.67289 1.3496 0
M  V30 1899 H 183.765 -3.96135 -0.340987 0
M  V30 1900 N 184.763 -0.387143 -1.52771 0
M  V30 1901 C 185.693 0.440551 -2.29306 0
M  V30 1902 C 186.674 1.06535 -1.32606 0
M  V30 1903 O 187.859 1.07853 -1.61497 0
M  V30 1904 C 184.989 1.56919 -3.09829 0
M  V30 1905 C 183.943 1.07054 -4.14395 0
M  V30 1906 C 183.269 2.29109 -4.83129 0
M  V30 1907 C 184.569 0.140015 -5.22112 0
M  V30 1908 H 186.263 -0.198026 -2.98744 0
M  V30 1909 H 183.809 -0.09668 -1.43675 0
M  V30 1910 H 185.762 2.15503 -3.62128 0
M  V30 1911 H 184.486 2.23532 -2.3812 0
M  V30 1912 H 183.145 0.507247 -3.63074 0
M  V30 1913 H 182.793 2.94227 -4.0797 0
M  V30 1914 H 182.493 1.96406 -5.53804 0
M  V30 1915 H 184.017 2.88339 -5.38231 0
M  V30 1916 H 185.431 0.633978 -5.69784 0
M  V30 1917 H 183.828 -0.0971485 -6.00021 0
M  V30 1918 H 184.898 -0.811711 -4.78058 0
M  V30 1919 N 186.241 1.57166 -0.116904 0
M  V30 1920 C 187.188 2.15202 0.83408 0
M  V30 1921 C 188.158 1.07644 1.26499 0
M  V30 1922 O 189.343 1.35541 1.34288 0
M  V30 1923 C 186.483 2.75405 2.07957 0
M  V30 1924 C 185.596 3.97264 1.69721 0
M  V30 1925 C 184.731 4.45561 2.89221 0
M  V30 1926 C 183.77 5.59956 2.47215 0
M  V30 1927 N 182.907 6.03006 3.59622 0
M  V30 1928 H 187.747 2.96141 0.332335 0
M  V30 1929 H 185.284 1.46309 0.152349 0
M  V30 1930 H 187.242 3.08439 2.80929 0
M  V30 1931 H 185.872 1.97159 2.55594 0
M  V30 1932 H 184.924 3.70404 0.866316 0
M  V30 1933 H 186.236 4.80226 1.34849 0
M  V30 1934 H 185.39 4.80493 3.7042 0
M  V30 1935 H 184.129 3.61544 3.27318 0
M  V30 1936 H 183.134 5.2463 1.64448 0
M  V30 1937 H 184.359 6.45738 2.10238 0
M  V30 1938 H 182.305 5.21931 3.97396 0
M  V30 1939 H 182.222 6.80819 3.28667 0
M  V30 1940 H 183.49 6.42576 4.41267 0
M  V30 1941 N 187.719 -0.156864 1.56817 0
M  V30 1942 C 188.649 -1.19589 2.00551 0
M  V30 1943 C 189.63 -1.4536 0.883426 0
M  V30 1944 O 190.815 -1.56449 1.15054 0
M  V30 1945 C 187.945 -2.53143 2.37773 0
M  V30 1946 C 186.899 -2.41913 3.53075 0
M  V30 1947 C 186.225 -3.80088 3.76081 0
M  V30 1948 C 187.525 -1.91157 4.86062 0
M  V30 1949 H 189.219 -0.832293 2.87599 0
M  V30 1950 H 186.765 -0.398918 1.38364 0
M  V30 1951 H 188.718 -3.26047 2.66967 0
M  V30 1952 H 187.442 -2.91319 1.4765 0
M  V30 1953 H 186.101 -1.71462 3.24031 0
M  V30 1954 H 185.749 -4.15683 2.83225 0
M  V30 1955 H 185.449 -3.73439 4.53671 0
M  V30 1956 H 186.973 -4.54556 4.0769 0
M  V30 1957 H 188.387 -2.53846 5.14038 0
M  V30 1958 H 186.784 -1.95422 5.67389 0
M  V30 1959 H 187.854 -0.866673 4.77092 0
M  V30 1960 N 189.197 -1.51736 -0.425897 0
M  V30 1961 C 190.443 -1.65214 -1.1761 0
M  V30 1962 C 190.776 -0.372778 -1.90589 0
M  V30 1963 O 190.051 0.628139 -1.84078 0
M  V30 1964 C 190.334 -2.86312 -2.18398 0
M  V30 1965 C 190.187 -4.24254 -1.49426 0
M  V30 1966 C 191.506 -3.02925 -3.19256 0
M  V30 1967 H 188.625 -0.601263 -0.426206 0
M  V30 1968 H 191.267 -1.8425 -0.463882 0
M  V30 1969 H 189.417 -2.70213 -2.79137 0
M  V30 1970 H 191.089 -4.52046 -0.919362 0
M  V30 1971 H 189.332 -4.26426 -0.796432 0
M  V30 1972 H 190.003 -5.05001 -2.22885 0
M  V30 1973 H 192.479 -3.1781 -2.68581 0
M  V30 1974 H 191.355 -3.89199 -3.8706 0
M  V30 1975 H 191.616 -2.15497 -3.86023 0
M  V30 1976 N 190.675 0.682077 -1.42076 0
M  V30 1977 C 191.607 1.80755 -1.40926 0
M  V30 1978 C 192.62 1.59833 -0.309398 0
M  V30 1979 O 193.809 1.69087 -0.572014 0
M  V30 1980 C 190.909 3.17744 -1.17865 0
M  V30 1981 C 190.082 3.65578 -2.40149 0
M  V30 1982 C 189.141 4.81277 -2.12742 0
M  V30 1983 O 188.167 4.92197 -2.85887 0
M  V30 1984 N 189.369 5.69474 -1.12602 0
M  V30 1985 H 192.134 1.82229 -2.37935 0
M  V30 1986 H 189.695 0.864903 -1.36861 0
M  V30 1987 H 191.687 3.9279 -0.9746 0
M  V30 1988 H 190.257 3.11214 -0.294068 0
M  V30 1989 H 189.477 2.81291 -2.76169 0
M  V30 1990 H 190.765 3.94278 -3.21593 0
M  V30 1991 H 190.163 5.63297 -0.520899 0
M  V30 1992 H 188.72 6.44363 -0.981842 0
M  V30 1993 N 192.153 1.28127 0.917671 0
M  V30 1994 C 193.401 1.14825 1.66312 0
M  V30 1995 C 193.722 -0.304379 1.9261 0
M  V30 1996 O 192.992 -1.21149 1.53947 0
M  V30 1997 H 191.572 0.421953 0.616413 0
M  V30 1998 H 194.234 1.608 1.10134 0
M  V30 1999 H 193.33 1.68489 2.62712 0
M  V30 2000 N 193.631 -1.12557 1.10312 0
M  V30 2001 C 194.878 -1.84038 0.844759 0
M  V30 2002 C 195.206 -1.84026 -0.629668 0
M  V30 2003 O 194.461 -1.28026 -1.48013 0
M  V30 2004 C 194.76 -3.31462 1.33669 0
M  V30 2005 C 194.426 -3.51647 2.82232 0
M  V30 2006 C 193.088 -3.56864 3.22802 0
M  V30 2007 C 195.44 -3.58867 3.77974 0
M  V30 2008 C 192.768 -3.66844 4.57867 0
M  V30 2009 C 195.12 -3.70375 5.1284 0
M  V30 2010 C 193.784 -3.73848 5.52986 0
M  V30 2011 H 193.054 -0.673444 0.309119 0
M  V30 2012 H 195.701 -1.32824 1.37949 0
M  V30 2013 H 194.006 -3.85091 0.721949 0
M  V30 2014 H 195.703 -3.85236 1.11329 0
M  V30 2015 H 192.293 -3.48249 2.49842 0
M  V30 2016 H 196.477 -3.54107 3.47738 0
M  V30 2017 H 191.733 -3.67804 4.88396 0
M  V30 2018 H 195.907 -3.74904 5.86873 0
M  V30 2019 H 193.534 -3.81333 6.57639 0
M  V30 2020 N 195.109 -0.891671 -1.2995 0
M  V30 2021 C 196.042 -0.307994 -2.26112 0
M  V30 2022 C 197.02 0.575262 -1.52084 0
M  V30 2023 O 198.204 0.523864 -1.81074 0
M  V30 2024 C 195.331 0.561734 -3.34009 0
M  V30 2025 C 194.377 -0.253107 -4.25748 0
M  V30 2026 S 195.21 -1.64572 -5.09584 0
M  V30 2027 C 196.366 -0.782699 -6.20987 0
M  V30 2028 H 196.599 -1.12309 -2.75271 0
M  V30 2029 H 194.132 -0.691509 -1.38049 0
M  V30 2030 H 196.09 1.05777 -3.96638 0
M  V30 2031 H 194.751 1.35099 -2.83561 0
M  V30 2032 H 193.944 0.410908 -5.02322 0
M  V30 2033 H 193.546 -0.682004 -3.67729 0
M  V30 2034 H 195.838 -0.00257476 -6.775 0
M  V30 2035 H 196.781 -1.52026 -6.91588 0
M  V30 2036 H 197.189 -0.340638 -5.63471 0
M  V30 2037 N 196.587 1.43421 -0.653314 0
M  V30 2038 C 197.998 1.85065 -0.246537 0
M  V30 2039 C 198.349 1.54688 1.2069 0
M  V30 2040 O 197.474 0.995896 1.92122 0
M  V30 2041 C 198.069 3.35922 -0.440666 0
M  V30 2042 C 196.628 3.76297 -0.0882064 0
M  V30 2043 C 195.775 2.67147 -0.743484 0
M  V30 2044 H 198.726 1.33572 -0.856979 0
M  V30 2045 H 198.747 3.79204 0.313798 0
M  V30 2046 H 198.259 3.58 -1.49858 0
M  V30 2047 H 196.36 3.5983 0.96711 0
M  V30 2048 H 196.473 4.76338 -0.513738 0
M  V30 2049 H 194.837 2.54086 -0.176712 0
M  V30 2050 H 195.62 2.92053 -1.80443 0
M  V30 2051 N 198.065 0.39524 1.52563 0
M  V30 2052 C 199.015 -0.4541 2.23432 0
M  V30 2053 C 199.999 -1.02482 1.24042 0
M  V30 2054 O 201.191 -0.949938 1.49349 0
M  V30 2055 C 198.32 -1.57769 3.049 0
M  V30 2056 C 197.406 -1.01842 4.1169 0
M  V30 2057 N 197.797 -0.184613 5.05463 0
M  V30 2058 C 196.095 -1.29033 4.26927 0
M  V30 2059 C 196.796 0.125013 5.81566 0
M  V30 2060 N 195.772 -0.480498 5.41472 0
M  V30 2061 H 199.574 0.189413 2.93289 0
M  V30 2062 H 197.088 0.204877 1.61102 0
M  V30 2063 H 199.085 -2.19862 3.54212 0
M  V30 2064 H 197.745 -2.22397 2.36579 0
M  V30 2065 H 198.756 0.178602 5.17592 0
M  V30 2066 H 195.433 -1.93721 3.69836 0
M  V30 2067 H 196.823 0.800962 6.67109 0
M  V30 2068 N 199.544 -1.57102 0.125237 0
M  V30 2069 C 200.791 -1.95407 -0.531248 0
M  V30 2070 C 201.119 -1.0089 -1.66287 0
M  V30 2071 O 200.374 -0.0339431 -1.95671 0
M  V30 2072 C 200.673 -3.40096 -1.09862 0
M  V30 2073 C 200.339 -4.50815 -0.0876989 0
M  V30 2074 C 199.001 -4.80824 0.19026 0
M  V30 2075 C 201.353 -5.17724 0.600902 0
M  V30 2076 C 198.681 -5.75058 1.163 0
M  V30 2077 C 201.033 -6.13005 1.56231 0
M  V30 2078 C 199.697 -6.41403 1.8482 0
M  V30 2079 H 198.967 -0.715046 -0.194397 0
M  V30 2080 H 201.614 -1.90373 0.207463 0
M  V30 2081 H 199.919 -3.41855 -1.91422 0
M  V30 2082 H 201.616 -3.6705 -1.61478 0
M  V30 2083 H 198.206 -4.27444 -0.314528 0
M  V30 2084 H 202.39 -4.94691 0.399333 0
M  V30 2085 H 197.646 -5.95362 1.39117 0
M  V30 2086 H 201.82 -6.63934 2.10153 0
M  V30 2087 H 199.447 -7.14229 2.60349 0
M  V30 2088 N 201.022 0.148545 -1.56898 0
M  V30 2089 C 202.269 0.861418 -1.83264 0
M  V30 2090 C 202.597 1.81239 -0.705883 0
M  V30 2091 O 201.852 1.93305 0.305212 0
M  V30 2092 C 202.151 1.67064 -3.1595 0
M  V30 2093 C 201.817 0.866591 -4.42494 0
M  V30 2094 C 200.479 0.644762 -4.76861 0
M  V30 2095 C 202.831 0.30418 -5.20312 0
M  V30 2096 C 200.159 -0.15021 -5.86508 0
M  V30 2097 C 202.511 -0.477824 -6.30793 0
M  V30 2098 C 201.175 -0.710244 -6.63711 0
M  V30 2099 H 200.445 0.315215 -0.670612 0
M  V30 2100 H 203.092 0.125142 -1.91091 0
M  V30 2101 H 201.397 2.47698 -3.03567 0
M  V30 2102 H 203.094 2.22566 -3.33565 0
M  V30 2103 H 199.684 1.04955 -4.15551 0
M  V30 2104 H 203.868 0.462844 -4.94137 0
M  V30 2105 H 199.124 -0.339796 -6.10455 0
M  V30 2106 H 203.298 -0.92076 -6.90286 0
M  V30 2107 H 200.925 -1.3281 -7.48509 0
M  V30 2108 N 202.5 1.5196 0.417844 0
M  V30 2109 C 203.916 1.40569 0.755816 0
M  V30 2110 C 204.116 0.503316 1.95113 0
M  V30 2111 O 203.172 -0.0341925 2.52477 0
M  V30 2112 C 204.485 2.82947 1.01791 0
M  V30 2113 C 206.033 2.92231 1.12116 0
M  V30 2114 C 206.508 4.35559 1.41608 0
M  V30 2115 N 207.999 4.38753 1.48491 0
M  V30 2116 C 208.734 5.46705 1.7292 0
M  V30 2117 N 208.23 6.64788 1.95011 0
M  V30 2118 N 210.023 5.34209 1.74863 0
M  V30 2119 H 202.174 2.09168 -0.369098 0
M  V30 2120 H 204.437 0.942409 -0.102809 0
M  V30 2121 H 204.143 3.5106 0.212081 0
M  V30 2122 H 204.017 3.23462 1.94042 0
M  V30 2123 H 206.404 2.24304 1.9176 0
M  V30 2124 H 206.485 2.55185 0.177225 0
M  V30 2125 H 206.129 5.04042 0.624848 0
M  V30 2126 H 206.059 4.70133 2.37239 0
M  V30 2127 H 208.55 3.5363 1.33244 0
M  V30 2128 H 208.863 7.42845 2.13076 0
M  V30 2129 H 207.208 6.67869 1.92293 0
M  V30 2130 H 210.399 4.40937 1.57137 0
M  V30 2131 H 210.572 6.18415 1.93563 0
M  V30 2132 N 203.978 -0.674533 1.42435 0
M  V30 2133 C 204.908 -1.80009 1.48724 0
M  V30 2134 C 205.889 -1.6659 0.343793 0
M  V30 2135 O 207.074 -1.86007 0.558137 0
M  V30 2136 C 204.204 -3.18306 1.38919 0
M  V30 2137 C 203.158 -3.46461 2.51294 0
M  V30 2138 C 202.484 -4.84335 2.26547 0
M  V30 2139 C 203.784 -3.43328 3.93603 0
M  V30 2140 H 205.478 -1.75004 2.42928 0
M  V30 2141 H 203.024 -0.840533 1.16923 0
M  V30 2142 H 204.977 -3.9678 1.41927 0
M  V30 2143 H 203.701 -3.2399 0.412094 0
M  V30 2144 H 202.36 -2.70348 2.47604 0
M  V30 2145 H 202.008 -4.86669 1.2713 0
M  V30 2146 H 201.708 -5.04136 3.01861 0
M  V30 2147 H 203.232 -5.65094 2.31304 0
M  V30 2148 H 204.646 -4.11772 3.98894 0
M  V30 2149 H 203.043 -3.74664 4.68771 0
M  V30 2150 H 204.113 -2.41897 4.20255 0
M  V30 2151 N 205.456 -1.28612 -0.910864 0
M  V30 2152 C 206.703 -1.15934 -1.66029 0
M  V30 2153 C 207.031 0.291483 -1.92303 0
M  V30 2154 O 206.286 1.22816 -1.52364 0
M  V30 2155 C 206.585 -1.90624 -3.0232 0
M  V30 2156 C 206.251 -3.40405 -2.95695 0
M  V30 2157 C 204.913 -3.81255 -2.93595 0
M  V30 2158 C 207.265 -4.359 -2.85728 0
M  V30 2159 C 204.593 -5.15936 -2.79334 0
M  V30 2160 C 206.945 -5.70657 -2.73007 0
M  V30 2161 C 205.609 -6.10779 -2.69267 0
M  V30 2162 H 204.879 -0.424234 -0.607541 0
M  V30 2163 H 207.526 -1.5942 -1.06101 0
M  V30 2164 H 205.831 -1.39696 -3.6605 0
M  V30 2165 H 207.528 -1.78228 -3.59215 0
M  V30 2166 H 204.118 -3.07927 -2.98125 0
M  V30 2167 H 208.302 -4.053 -2.86436 0
M  V30 2168 H 203.558 -5.46146 -2.74835 0
M  V30 2169 H 207.732 -6.44311 -2.64264 0
M  V30 2170 H 205.359 -7.1509 -2.57974 0
M  V30 2171 N 206.934 1.1197 -1.10907 0
M  V30 2172 C 208.35 1.35591 -0.841852 0
M  V30 2173 C 208.55 1.94233 0.536246 0
M  V30 2174 O 207.606 2.1717 1.28816 0
M  V30 2175 C 208.919 2.29284 -1.94549 0
M  V30 2176 C 210.467 2.42862 -1.97451 0
M  V30 2177 C 210.942 3.39873 -3.07002 0
M  V30 2178 N 212.433 3.47433 -3.06341 0
M  V30 2179 C 213.168 4.22421 -3.87748 0
M  V30 2180 N 212.664 5.00432 -4.79103 0
M  V30 2181 N 214.457 4.17876 -3.75946 0
M  V30 2182 H 206.608 0.722664 -1.99728 0
M  V30 2183 H 208.871 0.380635 -0.868229 0
M  V30 2184 H 208.577 1.93378 -2.93765 0
M  V30 2185 H 208.451 3.29452 -1.83688 0
M  V30 2186 H 210.838 2.78046 -0.988645 0
M  V30 2187 H 210.919 1.42566 -2.12388 0
M  V30 2188 H 210.563 3.05417 -4.05811 0
M  V30 2189 H 210.493 4.40011 -2.89306 0
M  V30 2190 H 212.984 2.91784 -2.40147 0
M  V30 2191 H 213.297 5.55002 -5.37766 0
M  V30 2192 H 211.642 4.99612 -4.83128 0
M  V30 2193 H 214.833 3.56016 -3.03924 0
M  V30 2194 H 215.006 4.76061 -4.39624 0
M  V30 2195 N 208.412 0.89855 1.29475 0
M  V30 2196 C 209.637 0.538561 2.00285 0
M  V30 2197 C 210.062 -0.869135 1.66816 0
M  V30 2198 O 209.42 -1.57831 0.892145 0
M  V30 2199 C 209.468 0.736475 3.52999 0
M  V30 2200 O 208.572 -0.211537 4.11857 0
M  V30 2201 H 207.913 0.210563 0.62973 0
M  V30 2202 H 210.443 1.20982 1.64998 0
M  V30 2203 H 210.453 0.640685 4.02938 0
M  V30 2204 H 209.128 1.76276 3.76696 0
M  V30 2205 H 207.705 -0.0682991 3.72837 0
M  V30 2206 N 209.89 -1.43072 0.660911 0
M  V30 2207 C 211.118 -2.06067 0.185422 0
M  V30 2208 C 211.533 -1.49582 -1.15198 0
M  V30 2209 O 210.89 -0.630134 -1.71276 0
M  V30 2210 C 210.941 -3.61371 0.0966523 0
M  V30 2211 O 210.662 -4.15758 1.38119 0
M  V30 2212 C 212.163 -4.41455 -0.403996 0
M  V30 2213 H 209.383 -0.664459 0.0934604 0
M  V30 2214 H 211.927 -1.83447 0.90373 0
M  V30 2215 H 210.082 -3.8315 -0.572259 0
M  V30 2216 H 210.496 -5.09499 1.24542 0
M  V30 2217 H 211.97 -5.50437 -0.415045 0
M  V30 2218 H 212.447 -4.15036 -1.43674 0
M  V30 2219 H 213.053 -4.24663 0.232691 0
M  V30 2220 N 211.368 -0.403325 -1.52352 0
M  V30 2221 C 212.614 0.174605 -2.02047 0
M  V30 2222 C 212.947 1.45282 -1.28867 0
M  V30 2223 O 212.222 1.90483 -0.393257 0
M  V30 2224 C 212.505 0.428238 -3.57545 0
M  V30 2225 C 212.358 -0.866248 -4.4138 0
M  V30 2226 C 213.677 1.21287 -4.23057 0
M  V30 2227 H 210.796 0.0619851 -0.734389 0
M  V30 2228 H 213.438 -0.53565 -1.82293 0
M  V30 2229 H 211.588 1.03327 -3.74507 0
M  V30 2230 H 213.26 -1.50265 -4.3614 0
M  V30 2231 H 211.503 -1.47851 -4.07827 0
M  V30 2232 H 212.174 -0.643249 -5.48239 0
M  V30 2233 H 214.65 0.700703 -4.10158 0
M  V30 2234 H 213.526 1.35909 -5.31808 0
M  V30 2235 H 213.787 2.23193 -3.81625 0
M  V30 2236 N 212.846 1.57033 -0.133567 0
M  V30 2237 C 213.793 2.16074 0.811208 0
M  V30 2238 C 214.763 1.08979 1.2535 0
M  V30 2239 O 215.948 1.36958 1.32843 0
M  V30 2240 C 213.088 2.77595 2.05024 0
M  V30 2241 C 212.201 3.99042 1.65498 0
M  V30 2242 C 211.336 4.48603 2.84479 0
M  V30 2243 C 210.375 5.62547 2.41262 0
M  V30 2244 N 209.512 6.06787 3.53206 0
M  V30 2245 H 214.352 2.96477 0.300906 0
M  V30 2246 H 211.889 1.46462 0.136822 0
M  V30 2247 H 213.847 3.11402 2.77642 0
M  V30 2248 H 212.477 1.99859 2.53488 0
M  V30 2249 H 211.529 3.71302 0.826981 0
M  V30 2250 H 212.841 4.81629 1.29748 0
M  V30 2251 H 211.995 4.84395 3.65303 0
M  V30 2252 H 210.734 3.64995 3.23465 0
M  V30 2253 H 209.739 5.26345 1.58874 0
M  V30 2254 H 210.964 6.47931 2.03377 0
M  V30 2255 H 208.91 5.26117 3.91838 0
M  V30 2256 H 208.827 6.84266 3.21427 0
M  V30 2257 H 210.095 6.4722 4.34427 0
M  V30 2258 N 214.325 -0.140222 1.56975 0
M  V30 2259 C 215.257 -1.19818 1.95388 0
M  V30 2260 C 216.27 -1.38816 0.850525 0
M  V30 2261 O 217.459 -1.38267 1.12891 0
M  V30 2262 C 214.559 -2.56189 2.21857 0
M  V30 2263 C 213.732 -2.58077 3.5315 0
M  V30 2264 C 212.791 -3.76037 3.6808 0
M  V30 2265 O 211.817 -3.60598 4.40406 0
M  V30 2266 N 213.019 -4.93763 3.05251 0
M  V30 2267 H 215.784 -0.871609 2.86746 0
M  V30 2268 H 213.345 -0.32972 1.58507 0
M  V30 2269 H 215.337 -3.33623 2.2908 0
M  V30 2270 H 213.907 -2.81111 1.36731 0
M  V30 2271 H 213.127 -1.6651 3.57307 0
M  V30 2272 H 214.415 -2.56377 4.39486 0
M  V30 2273 H 213.813 -5.09209 2.46419 0
M  V30 2274 H 212.37 -5.68949 3.18026 0
M  V30 2275 N 215.803 -1.52179 -0.40978 0
M  V30 2276 C 217.049 -1.66453 -1.15851 0
M  V30 2277 C 217.382 -0.392972 -1.90182 0
M  V30 2278 O 216.657 0.608579 -1.84734 0
M  V30 2279 C 216.94 -2.88612 -2.15349 0
M  V30 2280 C 216.793 -4.25815 -1.44918 0
M  V30 2281 C 218.112 -3.06294 -3.16026 0
M  V30 2282 H 215.231 -0.60575 -0.419805 0
M  V30 2283 H 217.873 -1.84732 -0.444314 0
M  V30 2284 H 216.023 -2.73158 -2.76255 0
M  V30 2285 H 217.695 -4.52995 -0.871365 0
M  V30 2286 H 215.938 -4.27247 -0.751159 0
M  V30 2287 H 216.609 -5.07337 -2.17516 0
M  V30 2288 H 219.085 -3.20641 -2.65195 0
M  V30 2289 H 217.961 -3.93283 -3.8291 0
M  V30 2290 H 218.222 -2.19579 -3.83715 0
M  V30 2291 N 217.281 0.66697 -1.42791 0
M  V30 2292 C 218.558 1.4234 -1.34159 0
M  V30 2293 C 218.938 2.11093 0.0172729 0
M  V30 2294 O 218.286 2.03808 1.03318 0
M  V30 2295 C 218.496 2.41942 -2.51526 0
M  V30 2296 C 219.844 3.06353 -2.93995 0
M  V30 2297 O 220.868 2.52269 -2.51473 0
M  V30 2298 O 219.727 4.04376 -3.67617 0
M  V30 2299 H 216.821 0.635277 -0.529483 0
M  V30 2300 H 219.367 0.695034 -1.54814 0
M  V30 2301 H 218.139 1.89991 -3.42081 0
M  V30 2302 H 217.762 3.22249 -2.32898 0
M  V30 2303 N 218.759 1.29093 0.90403 0
M  V30 2304 C 220.006 1.16813 1.65411 0
M  V30 2305 C 220.334 -0.28128 1.92455 0
M  V30 2306 O 219.589 -1.22006 1.53013 0
M  V30 2307 C 219.888 1.92224 3.01305 0
M  V30 2308 C 219.554 3.41968 2.93885 0
M  V30 2309 C 218.216 3.82807 2.91569 0
M  V30 2310 C 220.568 4.37409 2.83413 0
M  V30 2311 C 217.896 5.1741 2.76594 0
M  V30 2312 C 220.248 5.72097 2.69977 0
M  V30 2313 C 218.912 6.12199 2.66024 0
M  V30 2314 H 218.182 0.42745 0.605283 0
M  V30 2315 H 220.829 1.59981 1.05254 0
M  V30 2316 H 219.134 1.41635 3.65304 0
M  V30 2317 H 220.831 1.80131 3.58265 0
M  V30 2318 H 217.421 3.09504 2.96488 0
M  V30 2319 H 221.605 4.06813 2.84283 0
M  V30 2320 H 216.861 5.47596 2.71935 0
M  V30 2321 H 221.035 6.45704 2.60844 0
M  V30 2322 H 218.662 7.16448 2.54178 0
M  V30 2323 N 220.237 -1.11381 1.11499 0
M  V30 2324 C 221.462 -1.87475 0.887019 0
M  V30 2325 C 221.887 -1.79639 -0.557796 0
M  V30 2326 O 221.245 -1.15924 -1.39396 0
M  V30 2327 C 221.293 -3.34213 1.35403 0
M  V30 2328 O 220.397 -4.0903 0.526146 0
M  V30 2329 H 219.738 -0.582099 0.319463 0
M  V30 2330 H 222.268 -1.40785 1.48461 0
M  V30 2331 H 222.278 -3.8506 1.34881 0
M  V30 2332 H 220.953 -3.39232 2.40612 0
M  V30 2333 H 219.53 -3.68082 0.597522 0
M  V30 2334 N 221.715 -0.905404 -1.28997 0
M  V30 2335 C 222.625 -0.392246 -2.31298 0
M  V30 2336 C 223.641 0.515889 -1.66176 0
M  V30 2337 O 224.817 0.404093 -1.97304 0
M  V30 2338 C 221.882 0.36686 -3.44754 0
M  V30 2339 C 220.943 -0.573485 -4.25452 0
M  V30 2340 C 220.176 0.149488 -5.33491 0
M  V30 2341 O 220.399 1.37255 -5.5364 0
M  V30 2342 O 219.333 -0.510919 -5.99728 0
M  V30 2343 H 223.159 -1.2411 -2.77183 0
M  V30 2344 H 220.744 -0.669926 -1.33538 0
M  V30 2345 H 222.626 0.795907 -4.13816 0
M  V30 2346 H 221.301 1.19169 -3.00966 0
M  V30 2347 H 220.208 -1.05176 -3.59011 0
M  V30 2348 H 221.541 -1.36489 -4.72897 0
M  V30 2349 N 223.193 1.4272 -0.668489 0
M  V30 2350 C 224.439 2.01923 -0.188419 0
M  V30 2351 C 224.772 1.52704 1.19979 0
M  V30 2352 O 224.047 0.726566 1.8042 0
M  V30 2353 C 224.33 3.59451 -0.216085 0
M  V30 2354 C 224.183 4.18864 -1.6393 0
M  V30 2355 C 225.502 4.37903 0.439179 0
M  V30 2356 H 222.621 0.733674 -0.0699412 0
M  V30 2357 H 225.263 1.69822 -0.852076 0
M  V30 2358 H 223.413 3.86929 0.349012 0
M  V30 2359 H 225.085 4.02362 -2.25616 0
M  V30 2360 H 223.328 3.74933 -2.18193 0
M  V30 2361 H 223.999 5.27987 -1.61039 0
M  V30 2362 H 226.475 4.16079 -0.0417878 0
M  V30 2363 H 225.351 5.47519 0.389157 0
M  V30 2364 H 225.612 4.15303 1.51577 0
M  V30 2365 N 224.671 0.411399 1.52136 0
M  V30 2366 C 225.581 -0.419774 2.30814 0
M  V30 2367 C 226.597 -1.0515 1.38634 0
M  V30 2368 O 227.773 -1.05252 1.71709 0
M  V30 2369 C 224.838 -1.52019 3.11594 0
M  V30 2370 C 223.899 -0.91129 4.19516 0
M  V30 2371 C 223.132 -1.95927 4.96436 0
M  V30 2372 O 223.355 -3.17775 4.73683 0
M  V30 2373 O 222.289 -1.56423 5.81219 0
M  V30 2374 H 226.115 0.221805 3.02889 0
M  V30 2375 H 223.7 0.174547 1.48377 0
M  V30 2376 H 225.582 -2.15898 3.61892 0
M  V30 2377 H 224.257 -2.14633 2.42311 0
M  V30 2378 H 223.164 -0.235157 3.7336 0
M  V30 2379 H 224.497 -0.32904 4.91099 0
M  V30 2380 N 226.149 -1.5696 0.141893 0
M  V30 2381 C 227.565 -1.58151 -0.21456 0
M  V30 2382 C 227.765 -1.1559 -1.65049 0
M  V30 2383 O 226.821 -0.853832 -2.37626 0
M  V30 2384 C 228.134 -3.00674 0.0395576 0
M  V30 2385 C 229.682 -3.1299 -0.0245529 0
M  V30 2386 C 230.157 -4.57554 0.202167 0
M  V30 2387 N 231.648 -4.62961 0.148919 0
M  V30 2388 C 232.383 -5.7262 0.298924 0
M  V30 2389 N 231.879 -6.90947 0.50637 0
M  V30 2390 N 233.672 -5.61601 0.236886 0
M  V30 2391 H 225.823 -1.8292 1.07953 0
M  V30 2392 H 228.086 -0.846425 0.42693 0
M  V30 2393 H 227.792 -3.36183 1.03315 0
M  V30 2394 H 227.666 -3.70981 -0.682143 0
M  V30 2395 H 230.053 -2.77326 -1.00869 0
M  V30 2396 H 230.134 -2.4518 0.729396 0
M  V30 2397 H 229.778 -4.93922 1.18338 0
M  V30 2398 H 229.708 -5.23484 -0.572044 0
M  V30 2399 H 232.199 -3.77899 -0.00697015 0
M  V30 2400 H 232.512 -7.7038 0.611076 0
M  V30 2401 H 230.857 -6.92878 0.542628 0
M  V30 2402 H 234.048 -4.68039 0.0756209 0
M  V30 2403 H 234.221 -6.47015 0.357227 0
M  V30 2404 N 227.627 0.131896 -1.57047 0
M  V30 2405 C 228.59 1.14638 -1.98471 0
M  V30 2406 C 229.59 1.35029 -0.873148 0
M  V30 2407 O 230.78 1.31764 -1.13946 0
M  V30 2408 C 227.912 2.50358 -2.31373 0
M  V30 2409 H 229.105 0.79064 -2.8929 0
M  V30 2410 H 226.658 0.375761 -1.51716 0
M  V30 2411 H 227.393 2.90876 -1.43393 0
M  V30 2412 H 227.178 2.36915 -3.12432 0
M  V30 2413 H 228.668 3.23395 -2.64207 0
M  V30 2414 N 229.106 1.52395 0.401703 0
M  V30 2415 C 230.522 1.41363 0.740864 0
M  V30 2416 C 230.722 0.523982 1.94568 0
M  V30 2417 O 229.778 -0.00741204 2.52499 0
M  V30 2418 C 231.091 2.84011 0.987847 0
M  V30 2419 C 232.639 2.93404 1.09011 0
M  V30 2420 C 233.114 4.37036 1.3698 0
M  V30 2421 N 234.605 4.40304 1.43829 0
M  V30 2422 C 235.34 5.48508 1.67112 0
M  V30 2423 N 234.836 6.66819 1.87949 0
M  V30 2424 N 236.629 5.36034 1.69187 0
M  V30 2425 H 228.78 2.08765 -0.391262 0
M  V30 2426 H 231.043 0.941265 -0.112798 0
M  V30 2427 H 230.749 3.51265 0.174835 0
M  V30 2428 H 230.623 3.25502 1.906 0
M  V30 2429 H 233.01 2.26325 1.8937 0
M  V30 2430 H 233.091 2.55359 0.15015 0
M  V30 2431 H 232.735 5.04676 0.571353 0
M  V30 2432 H 232.665 4.72623 2.3224 0
M  V30 2433 H 235.156 3.55024 1.29486 0
M  V30 2434 H 235.469 7.45063 2.05185 0
M  V30 2435 H 233.814 6.6987 1.85199 0
M  V30 2436 H 237.005 4.42579 1.52451 0
M  V30 2437 H 237.178 6.20434 1.86993 0
M  V30 2438 N 230.584 -0.659388 1.43143 0
M  V30 2439 C 231.831 -1.41935 1.44433 0
M  V30 2440 C 232.159 -1.94387 0.0663522 0
M  V30 2441 O 231.414 -1.72314 -0.927706 0
M  V30 2442 C 231.713 -2.62206 2.42864 0
M  V30 2443 C 231.379 -2.28208 3.88886 0
M  V30 2444 C 230.041 -2.18647 4.28657 0
M  V30 2445 C 232.393 -2.00887 4.8093 0
M  V30 2446 C 229.721 -1.79914 5.58433 0
M  V30 2447 C 232.073 -1.63653 6.11065 0
M  V30 2448 C 230.737 -1.52614 6.49819 0
M  V30 2449 H 230.007 -0.519376 0.528517 0
M  V30 2450 H 232.654 -0.750453 1.76183 0
M  V30 2451 H 230.959 -3.34199 2.04495 0
M  V30 2452 H 232.656 -3.2041 2.41119 0
M  V30 2453 H 229.246 -2.36557 3.57406 0
M  V30 2454 H 233.43 -2.07198 4.5098 0
M  V30 2455 H 228.686 -1.69948 5.87305 0
M  V30 2456 H 232.86 -1.41543 6.81864 0
M  V30 2457 H 230.487 -1.22371 7.50286 0
M  V30 2458 N 232.062 -1.29571 -0.897171 0
M  V30 2459 C 233.311 -1.1706 -1.64256 0
M  V30 2460 C 233.624 0.276476 -1.93636 0
M  V30 2461 O 234.83 0.52294 -2.66416 0
M  V30 2462 C 233.286 -2.0475 -2.95982 0
M  V30 2463 C 232.894 -3.54295 -2.74187 0
M  V30 2464 C 234.638 -2.0097 -3.73914 0
M  V30 2465 C 232.545 -4.34081 -4.01656 0
M  V30 2466 H 231.475 -0.43452 -0.616205 0
M  V30 2467 H 234.126 -1.54229 -0.994268 0
M  V30 2468 H 232.508 -1.60452 -3.62038 0
M  V30 2469 H 233.682 -4.06662 -2.1671 0
M  V30 2470 H 231.997 -3.59773 -2.09648 0
M  V30 2471 H 234.594 -2.57838 -4.68427 0
M  V30 2472 H 234.937 -0.990273 -4.0435 0
M  V30 2473 H 235.47 -2.43325 -3.14703 0
M  V30 2474 H 232.209 -5.36671 -3.76384 0
M  V30 2475 H 231.729 -3.86483 -4.58684 0
M  V30 2476 H 233.408 -4.44877 -4.69781 0
M  V30 2477 N 233.54 1.10788 -1.12088 0
M  V30 2478 C 234.789 1.82036 -0.868659 0
M  V30 2479 C 235.102 1.85929 0.607426 0
M  V30 2480 O 236.308 2.53346 0.97613 0
M  V30 2481 C 234.764 3.26951 -1.50435 0
M  V30 2482 C 234.372 3.31367 -3.01496 0
M  V30 2483 C 236.116 4.03053 -1.33225 0
M  V30 2484 C 234.023 4.7072 -3.58017 0
M  V30 2485 H 232.953 0.682108 -0.321318 0
M  V30 2486 H 235.604 1.24618 -1.34694 0
M  V30 2487 H 233.986 3.84343 -0.953735 0
M  V30 2488 H 235.16 2.83819 -3.6302 0
M  V30 2489 H 233.475 2.6875 -3.18061 0
M  V30 2490 H 236.072 5.05981 -1.72878 0
M  V30 2491 H 236.415 4.15387 -0.275529 0
M  V30 2492 H 236.948 3.52066 -1.85188 0
M  V30 2493 H 233.687 4.63585 -4.63432 0
M  V30 2494 H 233.207 5.1865 -3.01268 0
M  V30 2495 H 234.886 5.39685 -3.56859 0
M  V30 2496 N 235.018 0.912232 1.28515 0
M  V30 2497 C 235.966 0.389597 2.29314 0
M  V30 2498 C 236.96 -0.517915 1.61289 0
M  V30 2499 O 238.166 -0.399328 1.75515 0
M  V30 2500 H 234.541 0.107386 0.744293 0
M  V30 2501 H 236.512 1.25286 2.70825 0
M  V30 2502 C 235.261 -0.356496 3.45868 0
M  V30 2503 H 234.584 0.332608 3.98414 0
M  V30 2504 H 236.024 -0.686851 4.184 0
M  V30 2505 C 234.483 -1.56383 2.98406 0
M  V30 2506 O 235.013 -2.66294 3.00749 0
M  V30 2507 N 233.219 -1.41029 2.54085 0
M  V30 2508 H 232.766 -0.516089 2.52377 0
M  V30 2509 H 232.724 -2.21939 2.22689 0
M  V30 2510 N 236.496 -1.42363 0.676048 0
M  V30 2511 C 237.773 -1.95183 0.127726 0
M  V30 2512 C 238.153 -1.61641 -1.35777 0
M  V30 2513 O 237.501 -0.913216 -2.09458 0
M  V30 2514 C 237.711 -3.46721 0.398199 0
M  V30 2515 C 239.059 -4.23427 0.315383 0
M  V30 2516 O 240.083 -3.54649 0.332016 0
M  V30 2517 O 238.942 -5.45888 0.25865 0
M  V30 2518 H 236.036 -0.826992 0.00359427 0
M  V30 2519 H 238.582 -1.52184 0.750864 0
M  V30 2520 H 237.354 -3.64344 1.4272 0
M  V30 2521 H 236.977 -3.96769 -0.256885 0
M  V30 2522 N 237.974 -0.419461 -1.51915 0
M  V30 2523 C 239.22 0.145505 -2.02879 0
M  V30 2524 C 239.575 1.41926 -1.29903 0
M  V30 2525 O 238.868 1.87383 -0.399782 0
M  V30 2526 C 239.062 0.437067 -3.54717 0
M  V30 2527 C 238.891 -0.806877 -4.42402 0
M  V30 2528 C 237.661 -1.33514 -4.87342 0
M  V30 2529 C 239.859 -1.68796 -4.85811 0
M  V30 2530 N 237.841 -2.53349 -5.59185 0
M  V30 2531 C 239.212 -2.73247 -5.56539 0
M  V30 2532 C 241.267 -1.70449 -4.67816 0
M  V30 2533 C 239.97 -3.79276 -6.11181 0
M  V30 2534 C 241.996 -2.75403 -5.23361 0
M  V30 2535 C 241.358 -3.78575 -5.9402 0
M  V30 2536 H 237.457 0.0145424 -0.781865 0
M  V30 2537 H 240.041 -0.576126 -1.85981 0
M  V30 2538 H 238.212 1.12774 -3.71667 0
M  V30 2539 H 239.944 0.99182 -3.92358 0
M  V30 2540 H 236.699 -0.891657 -4.65131 0
M  V30 2541 H 237.123 -3.14066 -5.99743 0
M  V30 2542 H 241.765 -0.920209 -4.12664 0
M  V30 2543 H 239.483 -4.58554 -6.65397 0
M  V30 2544 H 243.069 -2.77603 -5.113 0
M  V30 2545 H 241.949 -4.58453 -6.36231 0
M  V30 2546 N 239.452 1.56882 -0.150215 0
M  V30 2547 C 240.698 1.96518 0.500834 0
M  V30 2548 C 241.031 1.03527 1.64304 0
M  V30 2549 O 240.306 0.0782751 1.94342 0
M  V30 2550 C 240.589 3.45822 1.00395 0
M  V30 2551 C 240.442 4.49591 -0.136983 0
M  V30 2552 C 241.761 3.97704 1.88467 0
M  V30 2553 H 238.88 0.714535 0.18058 0
M  V30 2554 H 241.522 1.88577 -0.232091 0
M  V30 2555 H 239.672 3.5272 1.62851 0
M  V30 2556 H 241.344 4.5477 -0.77343 0
M  V30 2557 H 239.587 4.26441 -0.795652 0
M  V30 2558 H 240.258 5.51402 0.256815 0
M  V30 2559 H 242.734 3.93304 1.35834 0
M  V30 2560 H 241.61 5.0263 2.20578 0
M  V30 2561 H 241.871 3.40252 2.82279 0
M  V30 2562 N 240.93 -0.123565 1.57115 0
M  V30 2563 C 241.877 -1.15177 2.00007 0
M  V30 2564 C 242.847 -1.41403 0.871454 0
M  V30 2565 O 244.032 -1.53346 1.13533 0
M  V30 2566 C 241.172 -2.47436 2.40561 0
M  V30 2567 C 240.285 -2.28184 3.66819 0
M  V30 2568 C 239.42 -3.53641 3.96373 0
M  V30 2569 C 238.459 -3.29528 5.15827 0
M  V30 2570 N 237.596 -4.47175 5.41275 0
M  V30 2571 H 242.436 -0.779008 2.87638 0
M  V30 2572 H 239.973 -0.373166 1.42288 0
M  V30 2573 H 241.931 -3.24584 2.62109 0
M  V30 2574 H 240.561 -2.82614 1.55978 0
M  V30 2575 H 239.613 -1.41976 3.52912 0
M  V30 2576 H 240.925 -2.0634 4.5412 0
M  V30 2577 H 240.079 -4.39209 4.18545 0
M  V30 2578 H 238.818 -3.78512 3.07538 0
M  V30 2579 H 237.823 -2.42349 4.93505 0
M  V30 2580 H 239.048 -3.06031 6.06236 0
M  V30 2581 H 236.994 -4.72175 4.55397 0
M  V30 2582 H 236.911 -4.28419 6.22891 0
M  V30 2583 H 238.179 -5.3389 5.67963 0
M  V30 2584 N 242.408 -1.52605 -0.393616 0
M  V30 2585 C 243.636 -1.71294 -1.16043 0
M  V30 2586 C 244.051 -0.429259 -1.83855 0
M  V30 2587 O 243.408 0.595921 -1.72496 0
M  V30 2588 C 243.459 -2.8593 -2.21193 0
M  V30 2589 O 243.18 -4.09329 -1.56146 0
M  V30 2590 C 244.681 -3.16259 -3.10636 0
M  V30 2591 H 241.901 -0.573641 -0.348104 0
M  V30 2592 H 244.445 -1.99234 -0.461092 0
M  V30 2593 H 242.6 -2.60465 -2.86769 0
M  V30 2594 H 243.014 -4.73323 -2.25978 0
M  V30 2595 H 244.488 -3.99946 -3.80456 0
M  V30 2596 H 244.965 -2.3045 -3.73884 0
M  V30 2597 H 245.571 -3.43547 -2.50711 0
M  V30 2598 N 243.887 0.651787 -1.4349 0
M  V30 2599 C 244.837 1.75783 -1.45205 0
M  V30 2600 C 245.821 1.57679 -0.320328 0
M  V30 2601 O 247.013 1.67767 -0.564211 0
M  V30 2602 C 244.142 3.14377 -1.3792 0
M  V30 2603 C 243.228 3.38023 -2.56127 0
M  V30 2604 N 243.619 3.32135 -3.81471 0
M  V30 2605 C 241.917 3.68747 -2.50882 0
M  V30 2606 C 242.618 3.55902 -4.60118 0
M  V30 2607 N 241.594 3.77783 -3.90872 0
M  V30 2608 H 245.396 1.69657 -2.39987 0
M  V30 2609 H 242.91 0.853508 -1.38163 0
M  V30 2610 H 244.907 3.93666 -1.37231 0
M  V30 2611 H 243.567 3.21683 -0.441596 0
M  V30 2612 H 244.578 3.11515 -4.13738 0
M  V30 2613 H 241.255 3.8316 -1.65816 0
M  V30 2614 H 242.645 3.57116 -5.69138 0
M  V30 2615 N 245.365 1.30045 0.890287 0
M  V30 2616 C 246.593 1.21472 1.67487 0
M  V30 2617 C 247.008 -0.223241 1.87476 0
M  V30 2618 O 246.365 -1.14828 1.41847 0
M  V30 2619 C 246.416 1.93394 3.05419 0
M  V30 2620 O 246.137 3.31576 2.86337 0
M  V30 2621 C 247.638 1.91414 3.99844 0
M  V30 2622 H 244.858 0.420604 0.522813 0
M  V30 2623 H 247.402 1.7158 1.11268 0
M  V30 2624 H 245.557 1.47099 3.58386 0
M  V30 2625 H 245.971 3.67929 3.73802 0
M  V30 2626 H 247.445 2.46285 4.94012 0
M  V30 2627 H 247.922 0.891833 4.3005 0
M  V30 2628 H 248.528 2.37496 3.52811 0
M  V30 2629 N 246.843 -1.10192 1.12674 0
M  V30 2630 C 247.79 -2.16606 0.796906 0
M  V30 2631 C 248.76 -1.64394 -0.237476 0
M  V30 2632 O 249.945 -1.90474 -0.111484 0
M  V30 2633 C 247.085 -3.44116 0.26043 0
M  V30 2634 C 246.198 -4.10268 1.35293 0
M  V30 2635 C 245.333 -5.25507 0.775621 0
M  V30 2636 C 244.372 -5.83567 1.84706 0
M  V30 2637 N 243.509 -6.90179 1.28829 0
M  V30 2638 H 248.349 -2.44163 1.70846 0
M  V30 2639 H 245.886 -1.19846 0.85295 0
M  V30 2640 H 247.844 -4.17143 -0.0686814 0
M  V30 2641 H 246.474 -3.16901 -0.614274 0
M  V30 2642 H 245.526 -3.35184 1.79877 0
M  V30 2643 H 246.838 -4.4946 2.16303 0
M  V30 2644 H 245.992 -6.05398 0.397327 0
M  V30 2645 H 244.731 -4.87656 -0.0656581 0
M  V30 2646 H 243.736 -5.02344 2.23452 0
M  V30 2647 H 244.961 -6.23482 2.69161 0
M  V30 2648 H 242.907 -6.54322 0.468881 0
M  V30 2649 H 242.824 -7.28097 2.03497 0
M  V30 2650 H 244.092 -7.73844 0.937311 0
M  V30 2651 N 248.321 -0.919034 -1.28029 0
M  V30 2652 C 249.569 -0.553838 -1.94363 0
M  V30 2653 C 249.89 0.906357 -1.72656 0
M  V30 2654 O 249.16 1.64143 -1.0693 0
M  V30 2655 H 247.74 -0.201834 -0.719216 0
M  V30 2656 H 250.402 -1.16954 -1.55909 0
M  V30 2657 H 249.498 -0.752758 -3.02886 0
M  V30 2658 N 249.799 1.42003 -0.683588 0
M  V30 2659 C 250.732 2.28166 0.039592 0
M  V30 2660 C 251.71 1.41562 0.799942 0
M  V30 2661 O 252.894 1.70997 0.793248 0
M  V30 2662 C 250.021 3.21575 1.06335 0
M  V30 2663 C 249.067 4.24643 0.397562 0
M  V30 2664 S 249.9 5.2869 -0.851296 0
M  V30 2665 C 251.056 6.25666 0.171166 0
M  V30 2666 H 251.289 2.89153 -0.691229 0
M  V30 2667 H 248.822 1.46962 -0.473435 0
M  V30 2668 H 250.78 3.75928 1.6489 0
M  V30 2669 H 249.441 2.59707 1.76667 0
M  V30 2670 H 248.634 4.90223 1.17035 0
M  V30 2671 H 248.236 3.73824 -0.114611 0
M  V30 2672 H 250.528 6.69653 1.02819 0
M  V30 2673 H 251.471 7.06666 -0.450397 0
M  V30 2674 H 251.879 5.62095 0.520578 0
M  V30 2675 N 251.277 0.427512 1.51691 0
M  V30 2676 C 252.526 -0.143679 2.01188 0
M  V30 2677 C 252.839 -1.44642 1.31674 0
M  V30 2678 O 254.045 -2.09997 1.72086 0
M  V30 2679 C 252.501 -0.306602 3.58592 0
M  V30 2680 C 252.109 0.985125 4.37035 0
M  V30 2681 C 253.853 -0.832091 4.16265 0
M  V30 2682 C 251.76 0.788382 5.86122 0
M  V30 2683 H 250.69 -0.0574701 0.751807 0
M  V30 2684 H 253.341 0.555772 1.74881 0
M  V30 2685 H 251.723 -1.06882 3.81303 0
M  V30 2686 H 252.897 1.75492 4.26074 0
M  V30 2687 H 251.212 1.4384 3.90767 0
M  V30 2688 H 253.809 -0.995617 5.25349 0
M  V30 2689 H 254.152 -1.81186 3.74803 0
M  V30 2690 H 254.685 -0.128444 3.97593 0
M  V30 2691 H 251.424 1.74025 6.31978 0
M  V30 2692 H 250.944 0.0582143 5.99772 0
M  V30 2693 H 252.623 0.437722 6.45518 0
M  V30 2694 N 252.755 -1.56801 0.158532 0
M  V30 2695 C 253.98 -2.01295 -0.499516 0
M  V30 2696 C 254.405 -1.03799 -1.56867 0
M  V30 2697 O 253.763 -0.0155162 -1.81293 0
M  V30 2698 C 253.811 -3.44469 -1.06647 0
M  V30 2699 O 252.915 -3.50012 -2.18095 0
M  V30 2700 H 252.256 -0.652884 -0.12099 0
M  V30 2701 H 254.786 -2.02958 0.258661 0
M  V30 2702 H 254.796 -3.8351 -1.39227 0
M  V30 2703 H 253.471 -4.14932 -0.283581 0
M  V30 2704 H 252.048 -3.22822 -1.86656 0
M  V30 2705 N 254.233 0.115231 -1.57178 0
M  V30 2706 C 255.181 1.16014 -2.01602 0
M  V30 2707 C 256.175 1.42653 -0.913587 0
M  V30 2708 O 257.381 1.42571 -1.09879 0
M  V30 2709 H 253.756 0.391252 -0.642204 0
M  V30 2710 H 255.727 0.758998 -2.88586 0
M  V30 2711 C 254.476 2.47767 -2.4394 0
M  V30 2712 H 253.799 2.28108 -3.28339 0
M  V30 2713 H 255.239 3.19432 -2.78818 0
M  V30 2714 C 253.698 3.10617 -1.30455 0
M  V30 2715 O 254.228 3.96846 -0.622585 0
M  V30 2716 N 252.434 2.70553 -1.06064 0
M  V30 2717 H 251.981 2.00527 -1.61699 0
M  V30 2718 H 251.939 3.12934 -0.303284 0
M  V30 2719 N 255.711 1.52812 0.385517 0
M  V30 2720 C 256.641 1.80808 1.47752 0
M  V30 2721 C 257.622 0.660318 1.5676 0
M  V30 2722 O 258.807 0.908246 1.71652 0
M  V30 2723 C 255.937 1.98008 2.85324 0
M  V30 2724 C 254.891 3.13709 2.91154 0
M  V30 2725 C 254.217 3.16169 4.31209 0
M  V30 2726 C 255.517 4.52709 2.60483 0
M  V30 2727 H 257.211 2.72253 1.24573 0
M  V30 2728 H 254.757 1.31003 0.597839 0
M  V30 2729 H 256.71 2.16176 3.61726 0
M  V30 2730 H 255.434 1.03255 3.09848 0
M  V30 2731 H 254.093 2.95329 2.17201 0
M  V30 2732 H 253.741 2.19092 4.52778 0
M  V30 2733 H 253.441 3.93894 4.36029 0
M  V30 2734 H 254.965 3.36496 5.09512 0
M  V30 2735 H 256.379 4.71173 3.26602 0
M  V30 2736 H 254.776 5.32528 2.76648 0
M  V30 2737 H 255.846 4.59186 1.55809 0
M  V30 2738 N 257.189 -0.644168 1.43834 0
M  V30 2739 C 258.119 -1.76814 1.52509 0
M  V30 2740 C 259.1 -1.65823 0.379052 0
M  V30 2741 O 260.285 -1.84781 0.597466 0
M  V30 2742 C 257.415 -3.15288 1.4564 0
M  V30 2743 C 256.369 -3.41053 2.58586 0
M  V30 2744 C 255.695 -4.79421 2.36769 0
M  V30 2745 C 256.995 -3.34902 4.00797 0
M  V30 2746 H 258.689 -1.69812 2.46586 0
M  V30 2747 H 256.235 -0.815542 1.1868 0
M  V30 2748 H 258.188 -3.93681 1.50311 0
M  V30 2749 H 256.912 -3.23043 0.480725 0
M  V30 2750 H 255.571 -2.65035 2.53282 0
M  V30 2751 H 255.219 -4.83863 1.37424 0
M  V30 2752 H 254.919 -4.9762 3.12487 0
M  V30 2753 H 256.443 -5.6006 2.43238 0
M  V30 2754 H 257.857 -4.03218 4.07539 0
M  V30 2755 H 256.254 -3.64637 4.76613 0
M  V30 2756 H 257.324 -2.32928 4.25291 0
M  V30 2757 N 258.668 -1.30515 -0.883378 0
M  V30 2758 C 259.916 -1.19194 -1.63209 0
M  V30 2759 C 260.237 0.253205 -1.93349 0
M  V30 2760 O 259.507 1.17025 -1.57105 0
M  V30 2761 H 258.087 -0.438148 -0.605009 0
M  V30 2762 H 260.749 -1.63663 -1.05832 0
M  V30 2763 H 259.845 -1.75396 -2.58153 0
M  V30 2764 N 260.146 1.09593 -1.13257 0
M  V30 2765 C 261.093 2.1618 -0.808381 0
M  V30 2766 C 262.063 1.64517 0.228754 0
M  V30 2767 O 263.248 1.9053 0.101381 0
M  V30 2768 C 260.388 3.43973 -0.278675 0
M  V30 2769 C 259.501 4.09545 -1.37466 0
M  V30 2770 C 258.636 5.25088 -0.803479 0
M  V30 2771 C 257.675 5.82579 -1.87799 0
M  V30 2772 N 256.812 6.89486 -1.32488 0
M  V30 2773 H 261.652 2.43254 -1.72138 0
M  V30 2774 H 259.189 1.19392 -0.859294 0
M  V30 2775 H 261.147 4.17174 0.0465583 0
M  V30 2776 H 259.777 3.17223 0.597459 0
M  V30 2777 H 258.829 3.34226 -1.81652 0
M  V30 2778 H 260.141 4.48307 -2.18684 0
M  V30 2779 H 259.295 6.05178 -0.429427 0
M  V30 2780 H 258.034 4.87684 0.0397956 0
M  V30 2781 H 257.039 5.01152 -2.26113 0
M  V30 2782 H 258.264 6.22045 -2.72463 0
M  V30 2783 H 256.21 6.54064 -0.503575 0
M  V30 2784 H 256.127 7.27007 -2.07355 0
M  V30 2785 H 257.395 7.73336 -0.978336 0
M  V30 2786 N 261.624 0.925811 1.2754 0
M  V30 2787 C 262.872 0.564138 1.94067 0
M  V30 2788 C 263.193 -0.897188 1.73134 0
M  V30 2789 O 262.463 -1.63573 1.07799 0
M  V30 2790 H 261.043 0.205645 0.718136 0
M  V30 2791 H 263.705 1.1778 1.55287 0
M  V30 2792 H 262.801 0.76881 3.02483 0
M  V30 2793 N 263.102 -1.41638 0.69111 0
M  V30 2794 C 264.065 -2.29178 0.0319786 0
M  V30 2795 C 265.065 -1.44153 -0.712496 0
M  V30 2796 O 266.255 -1.65354 -0.548053 0
M  V30 2797 C 263.387 -3.26952 -0.965161 0
M  V30 2798 H 264.58 -2.88959 0.802681 0
M  V30 2799 H 262.133 -1.4955 0.454356 0
M  V30 2800 H 262.868 -2.72142 -1.76378 0
M  V30 2801 H 262.653 -3.89685 -0.434522 0
M  V30 2802 H 264.143 -3.92561 -1.42428 0
M  V30 2803 N 264.58 -0.43555 -1.51462 0
M  V30 2804 C 265.826 0.131709 -2.02372 0
M  V30 2805 C 266.159 1.42516 -1.3192 0
M  V30 2806 O 265.434 1.89606 -0.433573 0
M  V30 2807 C 265.717 0.352301 -3.58373 0
M  V30 2808 C 265.57 -0.959676 -4.39443 0
M  V30 2809 C 266.889 1.12286 -4.25535 0
M  V30 2810 H 264.008 0.0463936 -0.735538 0
M  V30 2811 H 266.65 -0.574197 -1.81116 0
M  V30 2812 H 264.8 0.9536 -3.76615 0
M  V30 2813 H 266.472 -1.59482 -4.32855 0
M  V30 2814 H 264.715 -1.56468 -4.04599 0
M  V30 2815 H 265.386 -0.759394 -5.46752 0
M  V30 2816 H 267.862 0.613545 -4.11552 0
M  V30 2817 H 266.738 1.24598 -5.34571 0
M  V30 2818 H 266.999 2.15048 -3.86273 0
M  V30 2819 N 266.058 1.56714 -0.166846 0
M  V30 2820 C 267.335 1.88412 0.525373 0
M  V30 2821 C 267.715 1.07602 1.81618 0
M  V30 2822 O 267.063 0.168621 2.27877 0
M  V30 2823 C 267.273 3.40363 0.771613 0
M  V30 2824 C 268.621 4.10007 1.1036 0
M  V30 2825 O 269.645 3.45655 0.860304 0
M  V30 2826 O 268.504 5.2369 1.56239 0
M  V30 2827 H 265.598 0.781587 0.270278 0
M  V30 2828 H 268.144 1.68458 -0.204946 0
M  V30 2829 H 266.916 3.91046 -0.141093 0
M  V30 2830 H 266.539 3.65914 1.55541 0
M  V30 2831 N 267.536 -0.106894 1.57237 0
M  V30 2832 C 268.468 -1.15646 1.97885 0
M  V30 2833 C 269.481 -1.36981 0.879779 0
M  V30 2834 O 270.67 -1.35841 1.15799 0
M  V30 2835 C 267.77 -2.51425 2.27241 0
M  V30 2836 C 266.943 -2.50529 3.58545 0
M  V30 2837 C 266.002 -3.68145 3.75973 0
M  V30 2838 O 265.028 -3.51176 4.47956 0
M  V30 2839 N 266.23 -4.87177 3.15656 0
M  V30 2840 H 268.995 -0.81059 2.8853 0
M  V30 2841 H 266.556 -0.296024 1.59171 0
M  V30 2842 H 268.548 -3.28689 2.36105 0
M  V30 2843 H 267.118 -2.78147 1.42663 0
M  V30 2844 H 266.338 -1.58894 3.60758 0
M  V30 2845 H 267.626 -2.46997 4.44826 0
M  V30 2846 H 267.024 -5.03868 2.57165 0
M  V30 2847 H 265.581 -5.62075 3.30023 0
M  V30 2848 N 269.014 -1.53014 -0.377408 0
M  V30 2849 C 269.944 -1.81589 -1.46791 0
M  V30 2850 C 270.925 -0.668622 -1.56408 0
M  V30 2851 O 272.11 -0.917337 -1.71168 0
M  V30 2852 C 269.24 -1.99519 -2.8427 0
M  V30 2853 C 268.194 -3.15249 -2.89486 0
M  V30 2854 C 267.52 -3.18451 -4.29527 0
M  V30 2855 C 268.82 -4.54084 -2.58079 0
M  V30 2856 H 270.514 -2.7291 -1.23127 0
M  V30 2857 H 268.06 -1.31319 -0.590883 0
M  V30 2858 H 270.013 -2.18092 -3.60575 0
M  V30 2859 H 268.737 -1.04897 -3.09296 0
M  V30 2860 H 267.396 -2.96477 -2.15631 0
M  V30 2861 H 267.044 -2.2149 -4.5161 0
M  V30 2862 H 266.744 -3.962 -4.33934 0
M  V30 2863 H 268.268 -3.39193 -5.07721 0
M  V30 2864 H 269.682 -4.72899 -3.24098 0
M  V30 2865 H 268.079 -5.33987 -2.7382 0
M  V30 2866 H 269.149 -4.60006 -1.53372 0
M  V30 2867 N 270.492 0.636531 -1.44174 0
M  V30 2868 C 271.72 1.42353 -1.50144 0
M  V30 2869 C 272.135 1.88389 -0.124575 0
M  V30 2870 O 271.492 1.6051 0.868489 0
M  V30 2871 C 271.543 2.64744 -2.46156 0
M  V30 2872 O 271.264 2.20629 -3.7849 0
M  V30 2873 C 272.765 3.57929 -2.61537 0
M  V30 2874 H 269.985 0.436752 -0.5094 0
M  V30 2875 H 272.529 0.778933 -1.89084 0
M  V30 2876 H 270.684 3.25307 -2.10366 0
M  V30 2877 H 271.098 2.99938 -4.30276 0
M  V30 2878 H 272.572 4.40428 -3.32757 0
M  V30 2879 H 273.049 4.06382 -1.66585 0
M  V30 2880 H 273.655 3.03238 -2.98206 0
M  V30 2881 N 271.97 1.30982 0.876444 0
M  V30 2882 C 273.386 1.09498 1.16113 0
M  V30 2883 C 273.586 -0.13875 2.01022 0
M  V30 2884 O 272.642 -0.829935 2.38471 0
M  V30 2885 C 273.955 2.36308 1.85954 0
M  V30 2886 C 275.503 2.41856 1.98683 0
M  V30 2887 C 275.978 3.6853 2.71937 0
M  V30 2888 N 277.469 3.69387 2.79477 0
M  V30 2889 C 278.204 4.64096 3.36753 0
M  V30 2890 N 277.7 5.69155 3.95012 0
M  V30 2891 N 279.493 4.51626 3.3465 0
M  V30 2892 H 271.644 2.10118 0.310494 0
M  V30 2893 H 273.907 0.926634 0.200131 0
M  V30 2894 H 273.613 3.26388 1.31011 0
M  V30 2895 H 273.487 2.4561 2.86278 0
M  V30 2896 H 275.874 1.52249 2.52793 0
M  V30 2897 H 275.955 2.36523 0.9742 0
M  V30 2898 H 275.599 4.58499 2.18496 0
M  V30 2899 H 275.529 3.71127 3.73593 0
M  V30 2900 H 278.02 2.93438 2.38123 0
M  V30 2901 H 278.333 6.3751 4.36808 0
M  V30 2902 H 276.678 5.72937 3.93406 0
M  V30 2903 H 279.869 3.68728 2.8837 0
M  V30 2904 H 280.042 5.25614 3.7899 0
M  V30 2905 N 273.449 -1.08991 1.13837 0
M  V30 2906 C 274.379 -2.17771 0.842507 0
M  V30 2907 C 275.36 -1.6892 -0.20001 0
M  V30 2908 O 276.545 -1.94113 -0.0579731 0
M  V30 2909 C 273.675 -3.4589 0.312644 0
M  V30 2910 C 272.629 -4.08099 1.28992 0
M  V30 2911 C 271.955 -5.31098 0.619623 0
M  V30 2912 C 273.255 -4.50077 2.65005 0
M  V30 2913 H 274.949 -2.42777 1.75213 0
M  V30 2914 H 272.495 -1.16682 0.843875 0
M  V30 2915 H 274.448 -4.21297 0.0933043 0
M  V30 2916 H 273.172 -3.20419 -0.632382 0
M  V30 2917 H 271.831 -3.34717 1.49533 0
M  V30 2918 H 271.479 -5.0191 -0.33102 0
M  V30 2919 H 271.179 -5.73674 1.27167 0
M  V30 2920 H 272.703 -6.09224 0.409669 0
M  V30 2921 H 274.117 -5.16688 2.48407 0
M  V30 2922 H 272.514 -5.03553 3.26427 0
M  V30 2923 H 273.584 -3.62257 3.22332 0
M  V30 2924 N 274.927 -0.932562 -1.27047 0
M  V30 2925 C 276.173 -0.576412 -1.94436 0
M  V30 2926 C 276.506 0.880891 -1.73072 0
M  V30 2927 O 275.781 1.62905 -1.06264 0
M  V30 2928 C 276.064 -0.909031 -3.48437 0
M  V30 2929 C 275.917 -2.42044 -3.79123 0
M  V30 2930 C 277.236 -0.418341 -4.38107 0
M  V30 2931 H 274.355 -0.210888 -0.706184 0
M  V30 2932 H 276.997 -1.16522 -1.50075 0
M  V30 2933 H 275.147 -0.407947 -3.86352 0
M  V30 2934 H 276.819 -2.99359 -3.50973 0
M  V30 2935 H 275.062 -2.86758 -3.25503 0
M  V30 2936 H 275.733 -2.6037 -4.86736 0
M  V30 2937 H 278.209 -0.847856 -4.0737 0
M  V30 2938 H 277.085 -0.679981 -5.44672 0
M  V30 2939 H 277.346 0.681642 -4.36814 0
M  V30 2940 N 276.405 1.4127 -0.698611 0
M  V30 2941 C 277.335 2.33447 -0.049629 0
M  V30 2942 C 278.316 1.51982 0.763898 0
M  V30 2943 O 279.501 1.80509 0.716257 0
M  V30 2944 C 276.631 3.35828 0.885267 0
M  V30 2945 C 275.585 4.27627 0.178613 0
M  V30 2946 C 274.911 5.20406 1.22807 0
M  V30 2947 C 276.211 5.13459 -0.956933 0
M  V30 2948 H 277.905 2.87966 -0.81951 0
M  V30 2949 H 275.451 1.38461 -0.395538 0
M  V30 2950 H 277.404 3.9924 1.34854 0
M  V30 2951 H 276.128 2.79666 1.68685 0
M  V30 2952 H 274.787 3.65643 -0.26466 0
M  V30 2953 H 274.435 4.60558 2.02226 0
M  V30 2954 H 274.135 5.82661 0.760239 0
M  V30 2955 H 275.659 5.86695 1.69179 0
M  V30 2956 H 277.073 5.70421 -0.573805 0
M  V30 2957 H 275.47 5.8467 -1.35205 0
M  V30 2958 H 276.54 4.50443 -1.79524 0
M  V30 2959 N 277.883 0.443576 1.51229 0
M  V30 2960 C 279.129 -0.120975 2.02439 0
M  V30 2961 C 279.462 -1.41815 1.32674 0
M  V30 2962 O 278.737 -1.89373 0.443622 0
M  V30 2963 C 279.02 -0.333291 3.58554 0
M  V30 2964 C 278.873 0.982968 4.38928 0
M  V30 2965 C 280.192 -1.10028 4.26124 0
M  V30 2966 H 277.311 -0.0424923 0.735774 0
M  V30 2967 H 279.953 0.583794 1.80809 0
M  V30 2968 H 278.103 -0.933614 3.77115 0
M  V30 2969 H 279.775 1.61775 4.32003 0
M  V30 2970 H 278.018 1.58611 4.03763 0
M  V30 2971 H 278.689 0.788379 5.46341 0
M  V30 2972 H 281.165 -0.591711 4.11871 0
M  V30 2973 H 280.041 -1.21761 5.35225 0
M  V30 2974 H 280.302 -2.12996 3.87408 0
M  V30 2975 N 279.361 -1.56624 0.175154 0
M  V30 2976 C 280.309 -2.19468 -0.770495 0
M  V30 2977 C 281.303 -1.15985 -1.23466 0
M  V30 2978 O 282.509 -1.34176 -1.19987 0
M  V30 2979 H 278.884 -0.703095 -0.266761 0
M  V30 2980 H 280.855 -2.97613 -0.216542 0
M  V30 2981 C 279.604 -2.85264 -1.98796 0
M  V30 2982 H 278.927 -3.64623 -1.63983 0
M  V30 2983 H 280.367 -3.327 -2.62843 0
M  V30 2984 C 278.826 -1.85239 -2.81404 0
M  V30 2985 O 279.356 -1.34024 -3.78682 0
M  V30 2986 N 277.562 -1.53911 -2.46495 0
M  V30 2987 H 277.109 -1.95751 -1.67449 0
M  V30 2988 H 277.067 -0.872382 -3.02054 0
M  V30 2989 N 280.839 0.0985539 -1.57292 0
M  V30 2990 C 281.802 1.10402 -2.00858 0
M  V30 2991 C 282.802 1.33146 -0.901593 0
M  V30 2992 O 283.992 1.29318 -1.16716 0
M  V30 2993 C 281.124 2.45394 -2.36632 0
M  V30 2994 H 282.317 0.729099 -2.90902 0
M  V30 2995 H 279.87 0.343495 -1.52479 0
M  V30 2996 H 280.605 2.87769 -1.49531 0
M  V30 2997 H 280.39 2.30235 -3.17387 0
M  V30 2998 H 281.88 3.17718 -2.71007 0
M  V30 2999 N 282.317 1.53212 0.369288 0
M  V30 3000 C 283.247 1.82365 1.45826 0
M  V30 3001 C 284.228 0.676907 1.56051 0
M  V30 3002 O 285.413 0.926401 1.70679 0
M  V30 3003 C 282.543 2.01023 2.83208 0
M  V30 3004 C 281.497 3.1678 2.8781 0
M  V30 3005 C 280.823 3.20724 4.27832 0
M  V30 3006 C 282.123 4.55447 2.55667 0
M  V30 3007 H 283.817 2.73559 1.21678 0
M  V30 3008 H 281.363 1.3163 0.583911 0
M  V30 3009 H 283.316 2.20001 3.59413 0
M  V30 3010 H 282.04 1.06536 3.08736 0
M  V30 3011 H 280.699 2.97616 2.14056 0
M  V30 3012 H 280.347 2.23882 4.50429 0
M  V30 3013 H 280.047 3.98496 4.31827 0
M  V30 3014 H 281.571 3.41881 5.05915 0
M  V30 3015 H 282.985 4.74611 3.21586 0
M  V30 3016 H 281.382 5.35432 2.70984 0
M  V30 3017 H 282.452 4.60812 1.5093 0
M  V30 3018 N 283.795 -0.628877 1.44509 0
M  V30 3019 C 285.025 -1.41349 1.50678 0
M  V30 3020 C 285.433 -1.88745 0.131075 0
M  V30 3021 O 284.776 -1.61592 -0.87371 0
M  V30 3022 C 284.838 -2.66608 2.41165 0
M  V30 3023 C 284.502 -2.40993 3.88293 0
M  V30 3024 C 285.499 -2.0268 4.78766 0
M  V30 3025 C 283.184 -2.54563 4.33016 0
M  V30 3026 C 285.178 -1.78269 6.11963 0
M  V30 3027 C 282.865 -2.29766 5.6626 0
M  V30 3028 C 283.863 -1.91678 6.55552 0
M  V30 3029 O 283.551 -1.67158 7.86329 0
M  V30 3030 H 283.283 -0.439851 0.51333 0
M  V30 3031 H 285.837 -0.776084 1.90174 0
M  V30 3032 H 284.067 -3.32994 1.96601 0
M  V30 3033 H 285.756 -3.28615 2.38259 0
M  V30 3034 H 286.522 -1.91751 4.45485 0
M  V30 3035 H 282.401 -2.83179 3.63773 0
M  V30 3036 H 285.945 -1.48465 6.81619 0
M  V30 3037 H 281.842 -2.40306 5.99102 0
M  V30 3038 H 282.61 -1.81386 7.98149 0
M  V30 3039 N 285.273 -1.31445 -0.869486 0
M  V30 3040 C 286.52 -1.21158 -1.62256 0
M  V30 3041 C 286.848 0.230155 -1.93133 0
M  V30 3042 O 286.103 1.17906 -1.56194 0
M  V30 3043 C 286.402 -2.00145 -2.96102 0
M  V30 3044 C 286.068 -3.4964 -2.84715 0
M  V30 3045 C 284.73 -3.90403 -2.81317 0
M  V30 3046 C 287.082 -4.44769 -2.71716 0
M  V30 3047 C 284.41 -5.24561 -2.62778 0
M  V30 3048 C 286.762 -5.79054 -2.54714 0
M  V30 3049 C 285.426 -6.19037 -2.49699 0
M  V30 3050 H 284.696 -0.443348 -0.593737 0
M  V30 3051 H 287.343 -1.62715 -1.00976 0
M  V30 3052 H 285.648 -1.5127 -3.6142 0
M  V30 3053 H 287.345 -1.89566 -3.53363 0
M  V30 3054 H 283.935 -3.17256 -2.88178 0
M  V30 3055 H 288.119 -4.14208 -2.73397 0
M  V30 3056 H 283.375 -5.54613 -2.57321 0
M  V30 3057 H 287.549 -6.52393 -2.43632 0
M  V30 3058 H 285.176 -7.22935 -2.35093 0
M  V30 3059 N 286.751 1.08385 -1.14413 0
M  V30 3060 C 287.699 2.17406 -0.826888 0
M  V30 3061 C 288.693 1.6827 0.195312 0
M  V30 3062 O 289.899 1.79927 0.0513892 0
M  V30 3063 H 286.274 0.70934 -0.249681 0
M  V30 3064 H 288.245 2.41388 -1.75426 0
M  V30 3065 C 286.994 3.46215 -0.320979 0
M  V30 3066 H 286.317 3.84401 -1.0989 0
M  V30 3067 H 287.757 4.23777 -0.137549 0
M  V30 3068 C 286.216 3.23067 0.955472 0
M  V30 3069 O 286.746 3.4668 2.02918 0
M  V30 3070 N 284.952 2.7661 0.890798 0
M  V30 3071 H 284.499 2.57594 0.0168815 0
M  V30 3072 H 284.457 2.61501 1.74542 0
M  V30 3073 N 288.23 0.939286 1.26551 0
M  V30 3074 C 289.478 0.58469 1.93457 0
M  V30 3075 C 289.799 -0.878774 1.74076 0
M  V30 3076 O 289.069 -1.62421 1.09528 0
M  V30 3077 H 287.649 0.21325 0.715914 0
M  V30 3078 H 290.311 1.1942 1.54029 0
M  V30 3079 H 289.407 0.800849 3.0165 0
M  V30 3080 N 289.708 -1.40897 0.706093 0
M  V30 3081 C 290.64 -2.29199 0.00815776 0
M  V30 3082 C 291.653 -1.45336 -0.733582 0
M  V30 3083 O 292.842 -1.68727 -0.582537 0
M  V30 3084 C 289.942 -3.23417 -1.01265 0
M  V30 3085 C 289.115 -4.36089 -0.338387 0
M  V30 3086 C 288.174 -5.10811 -1.26326 0
M  V30 3087 O 287.2 -5.64215 -0.751651 0
M  V30 3088 N 288.402 -5.19269 -2.595 0
M  V30 3089 H 291.167 -2.89738 0.766297 0
M  V30 3090 H 288.728 -1.52164 0.55296 0
M  V30 3091 H 290.72 -3.70276 -1.63334 0
M  V30 3092 H 289.29 -2.64112 -1.67223 0
M  V30 3093 H 288.51 -3.91479 0.462352 0
M  V30 3094 H 289.798 -5.08634 0.130031 0
M  V30 3095 H 289.196 -4.77347 -3.03573 0
M  V30 3096 H 287.753 -5.69667 -3.16737 0
M  V30 3097 N 291.186 -0.45159 -1.50991 0
M  V30 3098 C 292.432 0.102439 -2.03142 0
M  V30 3099 C 292.787 1.39138 -1.32884 0
M  V30 3100 O 292.08 1.86493 -0.439438 0
M  V30 3101 C 292.274 0.361728 -3.55565 0
M  V30 3102 C 292.103 -0.900535 -4.40591 0
M  V30 3103 C 290.873 -1.43821 -4.844 0
M  V30 3104 C 293.071 -1.79063 -4.82121 0
M  V30 3105 N 291.053 -2.65153 -5.53685 0
M  V30 3106 C 292.424 -2.84991 -5.50618 0
M  V30 3107 C 294.479 -1.80334 -4.64095 0
M  V30 3108 C 293.182 -3.92155 -6.02998 0
M  V30 3109 C 295.208 -2.86442 -5.17402 0
M  V30 3110 C 294.57 -3.9109 -5.85857 0
M  V30 3111 H 290.669 -0.00204537 -0.781997 0
M  V30 3112 H 293.253 -0.615446 -1.84717 0
M  V30 3113 H 291.424 1.04865 -3.73976 0
M  V30 3114 H 293.156 0.908372 -3.94374 0
M  V30 3115 H 289.911 -0.990117 -4.63135 0
M  V30 3116 H 290.335 -3.26717 -5.92946 0
M  V30 3117 H 294.977 -1.00753 -4.1062 0
M  V30 3118 H 292.695 -4.72565 -6.55521 0
M  V30 3119 H 296.281 -2.88386 -5.05297 0
M  V30 3120 H 295.161 -4.71845 -6.26364 0
M  V30 3121 N 292.664 1.56529 -0.183458 0
M  V30 3122 C 293.611 2.18546 0.742055 0
M  V30 3123 C 294.581 1.12912 1.2182 0
M  V30 3124 O 295.766 1.41115 1.28418 0
M  V30 3125 C 292.906 2.83977 1.96089 0
M  V30 3126 C 292.019 4.04105 1.52719 0
M  V30 3127 C 291.154 4.57427 2.70063 0
M  V30 3128 C 290.193 5.69938 2.23243 0
M  V30 3129 N 289.33 6.17717 3.33722 0
M  V30 3130 H 294.17 2.97284 0.206432 0
M  V30 3131 H 291.707 1.46823 0.0901571 0
M  V30 3132 H 293.665 3.20077 2.67594 0
M  V30 3133 H 292.295 2.07822 2.47002 0
M  V30 3134 H 291.347 3.73745 0.708436 0
M  V30 3135 H 292.659 4.85513 1.1436 0
M  V30 3136 H 291.813 4.95772 3.49708 0
M  V30 3137 H 290.552 3.75101 3.11689 0
M  V30 3138 H 289.557 5.31133 1.42048 0
M  V30 3139 H 290.782 6.54073 1.82661 0
M  V30 3140 H 288.728 5.38317 3.74902 0
M  V30 3141 H 288.645 6.94146 2.99495 0
M  V30 3142 H 289.913 6.60713 4.13616 0
M  V30 3143 N 294.142 -0.090211 1.57342 0
M  V30 3144 C 295.37 -0.806224 1.90546 0
M  V30 3145 C 295.785 -1.72041 0.777644 0
M  V30 3146 O 295.142 -1.80778 -0.250103 0
M  V30 3147 C 295.193 -1.61546 3.23396 0
M  V30 3148 O 294.914 -0.738043 4.31839 0
M  V30 3149 C 296.415 -2.4341 3.70495 0
M  V30 3150 H 293.635 -0.230256 0.630257 0
M  V30 3151 H 296.179 -0.0659843 2.04394 0
M  V30 3152 H 294.334 -2.30816 3.11131 0
M  V30 3153 H 294.748 -1.29901 5.08159 0
M  V30 3154 H 296.222 -2.95676 4.66133 0
M  V30 3155 H 296.699 -3.22098 2.98579 0
M  V30 3156 H 297.305 -1.79331 3.85643 0
M  V30 3157 N 295.62 -1.53406 -0.361157 0
M  V30 3158 C 297.031 -1.61442 -0.937728 0
M  V30 3159 C 297.382 -0.48461 -1.90121 0
M  V30 3160 O 296.507 0.388312 -2.12888 0
M  V30 3161 C 297.102 -2.92624 -1.70753 0
M  V30 3162 C 295.661 -3.02981 -2.23337 0
M  V30 3163 C 294.808 -2.5677 -1.04712 0
M  V30 3164 H 297.759 -1.58083 -0.139816 0
M  V30 3165 H 297.78 -2.80675 -2.56908 0
M  V30 3166 H 297.292 -3.74834 -1.00604 0
M  V30 3167 H 295.393 -2.25368 -2.96715 0
M  V30 3168 H 295.506 -4.0814 -2.50916 0
M  V30 3169 H 293.87 -2.11752 -1.41539 0
M  V30 3170 H 294.653 -3.41402 -0.360539 0
M  V30 3171 N 297.098 0.621204 -1.44841 0
M  V30 3172 C 298.345 1.38055 -1.48145 0
M  V30 3173 C 298.673 1.94143 -0.117867 0
M  V30 3174 O 297.928 1.74713 0.881694 0
M  V30 3175 C 298.227 2.55675 -2.4973 0
M  V30 3176 C 297.893 2.17817 -3.94799 0
M  V30 3177 C 296.555 2.07205 -4.34303 0
M  V30 3178 C 298.907 1.88065 -4.86087 0
M  V30 3179 C 296.235 1.65045 -5.63007 0
M  V30 3180 C 298.587 1.47394 -6.15189 0
M  V30 3181 C 297.251 1.35331 -6.53637 0
M  V30 3182 H 296.521 0.505181 -0.542101 0
M  V30 3183 H 299.168 0.703477 -1.78111 0
M  V30 3184 H 297.473 3.2866 -2.13284 0
M  V30 3185 H 299.17 3.13904 -2.4953 0
M  V30 3186 H 295.76 2.26998 -3.63552 0
M  V30 3187 H 299.944 1.95168 -4.56315 0
M  V30 3188 H 295.2 1.54317 -5.91605 0
M  V30 3189 H 299.374 1.23415 -6.85377 0
M  V30 3190 H 297.001 1.02435 -7.53267 0
M  V30 3191 N 298.576 1.31904 0.862503 0
M  V30 3192 C 299.987 1.19803 1.43193 0
M  V30 3193 C 300.338 -0.192567 1.95253 0
M  V30 3194 O 299.463 -1.09081 1.86896 0
M  V30 3195 C 300.058 2.16883 2.60283 0
M  V30 3196 C 298.617 2.08692 3.13248 0
M  V30 3197 C 297.764 2.05691 1.85975 0
M  V30 3198 H 300.715 1.43846 0.670365 0
M  V30 3199 H 300.736 1.76278 3.37204 0
M  V30 3200 H 300.248 3.18083 2.22363 0
M  V30 3201 H 298.349 1.10713 3.55771 0
M  V30 3202 H 298.462 2.9815 3.75025 0
M  V30 3203 H 296.826 1.50814 2.05249 0
M  V30 3204 H 297.609 3.08659 1.50282 0
M  V30 3205 N 300.054 -1.07777 1.14986 0
M  V30 3206 C 301.331 -1.7699 0.832695 0
M  V30 3207 C 301.711 -2.001 -0.672561 0
M  V30 3208 O 301.059 -1.61598 -1.6155 0
M  V30 3209 C 301.269 -3.08139 1.63863 0
M  V30 3210 C 302.617 -3.8256 1.84208 0
M  V30 3211 O 303.641 -3.17939 1.60603 0
M  V30 3212 O 302.5 -4.98612 2.23714 0
M  V30 3213 H 299.594 -0.768389 0.305791 0
M  V30 3214 H 302.14 -1.14182 1.25541 0
M  V30 3215 H 300.912 -2.86909 2.6608 0
M  V30 3216 H 300.535 -3.78678 1.21197 0
M  V30 3217 N 301.532 -0.945985 -1.26051 0
M  V30 3218 C 302.757 -0.612525 -1.98149 0
M  V30 3219 C 303.182 0.806623 -1.69927 0
M  V30 3220 O 302.54 1.54411 -0.950108 0
M  V30 3221 C 302.588 -0.866981 -3.50023 0
M  V30 3222 O 301.692 0.0585333 -4.12358 0
M  V30 3223 H 301.033 -0.23379 -0.621481 0
M  V30 3224 H 303.563 -1.27023 -1.60395 0
M  V30 3225 H 303.573 -0.789792 -4.00283 0
M  V30 3226 H 302.248 -1.90135 -3.69894 0
M  V30 3227 H 300.825 -0.0701241 -3.72834 0
M  V30 3228 N 303.011 1.40521 -0.713556 0
M  V30 3229 C 304.236 2.05759 -0.26035 0
M  V30 3230 C 304.661 1.53403 1.08854 0
M  V30 3231 O 304.019 0.668535 1.68524 0
M  V30 3232 C 304.067 3.59745 -0.248122 0
M  V30 3233 O 303.171 4.05123 0.77131 0
M  V30 3234 H 302.512 0.652564 -0.122703 0
M  V30 3235 H 305.042 1.79958 -0.973467 0
M  V30 3236 H 305.052 4.07911 -0.0851129 0
M  V30 3237 H 303.727 3.97218 -1.2325 0
M  V30 3238 H 302.304 3.68422 0.57619 0
M  V30 3239 N 304.489 0.459591 1.5075 0
M  V30 3240 C 305.717 -0.0973749 2.06671 0
M  V30 3241 C 306.132 -1.34524 1.32472 0
M  V30 3242 O 305.489 -1.7827 0.390634 0
M  V30 3243 C 305.54 -0.39714 3.59312 0
M  V30 3244 O 305.261 0.801214 4.30711 0
M  V30 3245 C 306.762 -1.00234 4.31819 0
M  V30 3246 H 303.982 0.00195854 0.670997 0
M  V30 3247 H 306.526 0.645072 1.94059 0
M  V30 3248 H 304.681 -1.08951 3.71764 0
M  V30 3249 H 305.095 0.538857 5.21725 0
M  V30 3250 H 306.569 -1.16193 5.39632 0
M  V30 3251 H 307.046 -1.98939 3.91561 0
M  V30 3252 H 307.652 -0.348699 4.23868 0
M  V30 3253 N 305.967 -1.56429 0.191757 0
M  V30 3254 C 306.917 -2.15548 -0.743184 0
M  V30 3255 C 307.901 -1.09531 -1.17863 0
M  V30 3256 O 309.093 -1.35602 -1.13759 0
M  V30 3257 C 306.222 -2.81577 -1.96391 0
M  V30 3258 C 305.308 -3.9478 -1.54951 0
M  V30 3259 N 305.699 -4.98677 -0.845876 0
M  V30 3260 C 303.997 -4.06319 -1.83905 0
M  V30 3261 C 304.698 -5.78183 -0.638724 0
M  V30 3262 N 303.674 -5.30495 -1.18643 0
M  V30 3263 H 307.476 -2.9324 -0.196839 0
M  V30 3264 H 304.99 -1.62398 -0.0081603 0
M  V30 3265 H 306.987 -3.22321 -2.64415 0
M  V30 3266 H 305.647 -2.05371 -2.51501 0
M  V30 3267 H 306.658 -5.15464 -0.501704 0
M  V30 3268 H 303.335 -3.41238 -2.40548 0
M  V30 3269 H 304.725 -6.71851 -0.0807929 0
M  V30 3270 N 307.445 0.0818655 -1.57387 0
M  V30 3271 C 308.861 0.436412 -1.53517 0
M  V30 3272 C 309.061 1.79758 -0.910459 0
M  V30 3273 O 308.117 2.47324 -0.508636 0
M  V30 3274 C 309.43 0.386734 -2.98203 0
M  V30 3275 C 310.978 0.467644 -3.09487 0
M  V30 3276 C 311.453 0.447978 -4.55804 0
M  V30 3277 N 312.944 0.508348 -4.60402 0
M  V30 3278 C 313.679 0.515184 -5.71081 0
M  V30 3279 N 313.175 0.477435 -6.91153 0
M  V30 3280 N 314.968 0.560988 -5.59294 0
M  V30 3281 H 307.119 -0.809546 -1.96367 0
M  V30 3282 H 309.382 -0.302733 -0.898363 0
M  V30 3283 H 309.088 -0.546539 -3.47427 0
M  V30 3284 H 308.962 1.20075 -3.57578 0
M  V30 3285 H 311.349 1.39134 -2.60242 0
M  V30 3286 H 311.43 -0.374753 -2.5304 0
M  V30 3287 H 311.074 -0.471826 -5.05704 0
M  V30 3288 H 311.004 1.30777 -5.10103 0
M  V30 3289 H 313.495 0.54218 -3.7399 0
M  V30 3290 H 313.808 0.486299 -7.71268 0
M  V30 3291 H 312.153 0.444278 -6.93579 0
M  V30 3292 H 315.344 0.5881 -4.64391 0
M  V30 3293 H 315.517 0.562846 -6.45551 0
M  V30 3294 N 308.923 1.53595 0.353017 0
M  V30 3295 C 310.339 1.43648 0.695516 0
M  V30 3296 C 310.539 0.585617 1.92802 0
M  V30 3297 O 309.595 0.0729223 2.52395 0
M  V30 3298 C 310.908 2.8701 0.896991 0
M  V30 3299 C 312.456 2.96723 0.996209 0
M  V30 3300 C 312.931 4.41173 1.23007 0
M  V30 3301 N 314.422 4.44657 1.29749 0
M  V30 3302 C 315.157 5.53547 1.49577 0
M  V30 3303 N 314.653 6.72461 1.66639 0
M  V30 3304 N 316.446 5.41145 1.52048 0
M  V30 3305 H 308.597 2.07415 -0.457481 0
M  V30 3306 H 310.86 0.9372 -0.142687 0
M  V30 3307 H 310.566 3.51644 0.0629938 0
M  V30 3308 H 310.44 3.31401 1.80148 0
M  V30 3309 H 312.827 2.32235 1.82074 0
M  V30 3310 H 312.908 2.55707 0.0688331 0
M  V30 3311 H 312.552 5.06238 0.410505 0
M  V30 3312 H 312.482 4.79772 2.17086 0
M  V30 3313 H 314.973 3.58963 1.18126 0
M  V30 3314 H 315.286 7.51214 1.81378 0
M  V30 3315 H 313.631 6.75423 1.63794 0
M  V30 3316 H 316.822 4.47205 1.38294 0
M  V30 3317 H 316.995 6.26068 1.67159 0
M  V30 3318 N 310.401 -0.613514 1.45168 0
M  V30 3319 C 311.331 -1.7354 1.56225 0
M  V30 3320 C 312.312 -1.64981 0.41414 0
M  V30 3321 O 313.497 -1.83472 0.636526 0
M  V30 3322 C 310.627 -3.12128 1.52295 0
M  V30 3323 C 309.581 -3.35491 2.65762 0
M  V30 3324 C 308.907 -4.74291 2.46885 0
M  V30 3325 C 310.207 -3.26325 4.0781 0
M  V30 3326 H 311.901 -1.64543 2.50132 0
M  V30 3327 H 309.447 -0.790185 1.20383 0
M  V30 3328 H 311.4 -3.90404 1.58628 0
M  V30 3329 H 310.124 -3.2195 0.549139 0
M  V30 3330 H 308.783 -2.59603 2.58847 0
M  V30 3331 H 308.431 -4.80839 1.47657 0
M  V30 3332 H 308.131 -4.9088 3.22972 0
M  V30 3333 H 309.655 -5.54775 2.55063 0
M  V30 3334 H 311.069 -3.94483 4.16 0
M  V30 3335 H 309.466 -3.54445 4.8424 0
M  V30 3336 H 310.536 -2.23855 4.30136 0
M  V30 3337 N 311.879 -1.3236 -0.855495 0
M  V30 3338 C 313.126 -1.22872 -1.60962 0
M  V30 3339 C 313.454 0.209658 -1.93367 0
M  V30 3340 O 312.709 1.16243 -1.57436 0
M  V30 3341 C 313.008 -2.03275 -2.93963 0
M  V30 3342 C 312.674 -3.5264 -2.80991 0
M  V30 3343 C 311.336 -3.93364 -2.7716 0
M  V30 3344 C 313.688 -4.47626 -2.66983 0
M  V30 3345 C 311.016 -5.27319 -2.572 0
M  V30 3346 C 313.368 -5.81723 -2.48558 0
M  V30 3347 C 312.032 -6.2165 -2.4312 0
M  V30 3348 H 311.302 -0.44962 -0.589001 0
M  V30 3349 H 313.949 -1.63777 -0.992442 0
M  V30 3350 H 312.254 -1.55095 -3.59795 0
M  V30 3351 H 313.951 -1.93303 -3.51333 0
M  V30 3352 H 310.541 -3.20295 -2.84797 0
M  V30 3353 H 314.725 -4.17084 -2.68988 0
M  V30 3354 H 309.981 -5.57311 -2.51424 0
M  V30 3355 H 314.155 -6.5494 -2.36699 0
M  V30 3356 H 311.782 -7.25388 -2.27412 0
M  V30 3357 N 313.357 1.07166 -1.15556 0
M  V30 3358 C 314.307 2.12649 -0.82247 0
M  V30 3359 C 315.291 1.59725 0.194129 0
M  V30 3360 O 316.483 1.76999 -0.00540402 0
M  V30 3361 C 313.612 3.41847 -0.315572 0
M  V30 3362 C 312.698 4.0162 -1.36244 0
M  V30 3363 N 313.089 4.35625 -2.5703 0
M  V30 3364 C 311.387 4.29114 -1.21562 0
M  V30 3365 C 312.088 4.83017 -3.24144 0
M  V30 3366 N 311.064 4.81906 -2.51531 0
M  V30 3367 H 314.866 2.36776 -1.74111 0
M  V30 3368 H 312.38 1.24622 -1.0413 0
M  V30 3369 H 314.377 4.16859 -0.0585855 0
M  V30 3370 H 313.037 3.19163 0.597105 0
M  V30 3371 H 314.048 4.26253 -2.94158 0
M  V30 3372 H 310.725 4.15919 -0.362988 0
M  V30 3373 H 312.115 5.18605 -4.27198 0
M  V30 3374 N 314.835 0.952656 1.25548 0
M  V30 3375 C 315.782 0.47008 2.25962 0
M  V30 3376 C 316.752 -0.476384 1.59122 0
M  V30 3377 O 317.937 -0.39007 1.8677 0
M  V30 3378 C 315.077 -0.247881 3.44209 0
M  V30 3379 C 314.19 0.735591 4.25691 0
M  V30 3380 C 313.325 -0.0047306 5.312 0
M  V30 3381 C 312.364 0.969805 6.04368 0
M  V30 3382 N 311.501 0.260486 7.01617 0
M  V30 3383 H 316.341 1.33126 2.66611 0
M  V30 3384 H 313.878 0.66765 1.31076 0
M  V30 3385 H 315.836 -0.680695 4.1161 0
M  V30 3386 H 314.466 -1.07312 3.0444 0
M  V30 3387 H 313.518 1.28689 3.57971 0
M  V30 3388 H 314.83 1.47934 4.76358 0
M  V30 3389 H 313.984 -0.496275 6.04667 0
M  V30 3390 H 312.723 -0.781282 4.81401 0
M  V30 3391 H 311.728 1.47237 5.29718 0
M  V30 3392 H 312.953 1.74655 6.56256 0
M  V30 3393 H 310.899 -0.497364 6.54112 0
M  V30 3394 H 310.816 0.943362 7.50091 0
M  V30 3395 H 312.084 -0.209587 7.79218 0
M  V30 3396 N 316.313 -1.40141 0.720998 0
M  V30 3397 C 317.538 -2.05618 0.271258 0
M  V30 3398 C 317.963 -1.53978 -1.08039 0
M  V30 3399 O 317.321 -0.677463 -1.68167 0
M  V30 3400 C 317.369 -3.59609 0.267197 0
M  V30 3401 O 316.473 -4.05526 -0.749814 0
M  V30 3402 H 315.814 -0.651904 0.126162 0
M  V30 3403 H 318.344 -1.79439 0.982997 0
M  V30 3404 H 318.354 -4.0786 0.106744 0
M  V30 3405 H 317.029 -3.96559 1.25354 0
M  V30 3406 H 315.606 -3.68722 -0.556644 0
M  V30 3407 N 317.792 -0.46758 -1.50504 0
M  V30 3408 C 319.069 0.15003 -1.95024 0
M  V30 3409 C 319.449 1.57304 -1.40779 0
M  V30 3410 O 318.797 2.20281 -0.607319 0
M  V30 3411 C 319.007 0.0969324 -3.48865 0
M  V30 3412 C 320.355 0.287565 -4.23625 0
M  V30 3413 O 321.379 0.173678 -3.55776 0
M  V30 3414 O 320.238 0.517186 -5.44047 0
M  V30 3415 H 317.332 0.113582 -0.819163 0
M  V30 3416 H 319.878 -0.52773 -1.61286 0
M  V30 3417 H 318.65 -0.896732 -3.80886 0
M  V30 3418 H 318.273 0.816303 -3.8913 0
M  V30 3419 N 319.27 1.56325 -0.20005 0
M  V30 3420 C 320.518 1.97329 0.436547 0
M  V30 3421 C 320.839 1.08826 1.61808 0
M  V30 3422 O 320.109 0.160604 1.95241 0
M  V30 3423 H 318.689 0.728714 0.164272 0
M  V30 3424 H 321.351 1.92761 -0.287937 0
M  V30 3425 H 320.447 3.02264 0.777353 0
M  V30 3426 N 320.748 -0.0735177 1.57428 0
M  V30 3427 C 321.973 -0.789787 1.91774 0
M  V30 3428 C 322.398 -1.70413 0.796306 0
M  V30 3429 O 321.756 -1.79555 -0.250961 0
M  V30 3430 C 321.804 -1.5609 3.25067 0
M  V30 3431 O 320.908 -2.67144 3.14178 0
M  V30 3432 H 320.249 -0.215582 0.628029 0
M  V30 3433 H 322.779 -0.0422781 2.04556 0
M  V30 3434 H 322.789 -1.94052 3.58898 0
M  V30 3435 H 321.464 -0.890015 4.06265 0
M  V30 3436 H 320.041 -2.32052 2.91901 0
M  V30 3437 N 322.226 -1.5378 -0.344866 0
M  V30 3438 C 323.454 -1.74899 -1.10534 0
M  V30 3439 C 323.869 -0.487534 -1.82397 0
M  V30 3440 O 323.226 0.540741 -1.74305 0
M  V30 3441 C 323.277 -2.92822 -2.11984 0
M  V30 3442 O 322.998 -4.14089 -1.43044 0
M  V30 3443 C 324.499 -3.25982 -3.00417 0
M  V30 3444 H 321.719 -0.584426 -0.329678 0
M  V30 3445 H 324.263 -2.006 -0.397474 0
M  V30 3446 H 322.418 -2.69457 -2.78338 0
M  V30 3447 H 322.832 -4.80272 -2.10805 0
M  V30 3448 H 324.306 -4.11848 -3.67539 0
M  V30 3449 H 324.783 -2.42228 -3.66363 0
M  V30 3450 H 325.389 -3.51349 -2.39654 0
M  V30 3451 N 323.704 0.605807 -1.45491 0
M  V30 3452 C 324.95 1.36679 -1.49823 0
M  V30 3453 C 325.283 1.93693 -0.140175 0
M  V30 3454 O 324.558 1.75158 0.845581 0
M  V30 3455 C 324.841 2.51337 -2.57879 0
M  V30 3456 C 324.694 1.99508 -4.03134 0
M  V30 3457 C 326.013 3.53463 -2.62205 0
M  V30 3458 H 323.132 0.495617 -0.545466 0
M  V30 3459 H 325.774 0.682732 -1.7731 0
M  V30 3460 H 323.924 3.09691 -2.34571 0
M  V30 3461 H 325.596 1.45789 -4.37656 0
M  V30 3462 H 323.839 1.30496 -4.13707 0
M  V30 3463 H 324.51 2.82169 -4.74431 0
M  V30 3464 H 326.986 3.04953 -2.83095 0
M  V30 3465 H 325.862 4.31178 -3.39672 0
M  V30 3466 H 326.123 4.09197 -1.67363 0
M  V30 3467 N 325.182 1.32811 0.848464 0
M  V30 3468 C 326.407 1.26882 1.6406 0
M  V30 3469 C 326.832 -0.15913 1.87426 0
M  V30 3470 O 326.19 -1.11258 1.43148 0
M  V30 3471 C 326.238 2.03997 2.97351 0
M  V30 3472 O 325.342 1.39201 3.88197 0
M  V30 3473 H 324.683 0.436982 0.499943 0
M  V30 3474 H 327.213 1.75224 1.0563 0
M  V30 3475 H 327.223 2.14403 3.47124 0
M  V30 3476 H 325.898 3.0783 2.79666 0
M  V30 3477 H 324.475 1.37381 3.46671 0
M  V30 3478 N 326.66 -1.06551 1.16123 0
M  V30 3479 C 327.906 -1.79567 0.94252 0
M  V30 3480 C 328.239 -1.86869 -0.528547 0
M  V30 3481 O 327.514 -1.35838 -1.39206 0
M  V30 3482 C 327.797 -3.24195 1.56747 0
M  V30 3483 C 327.65 -3.24989 3.10969 0
M  V30 3484 C 328.969 -4.21678 1.25998 0
M  V30 3485 H 326.088 -0.651883 0.343828 0
M  V30 3486 H 328.73 -1.2463 1.43413 0
M  V30 3487 H 326.88 -3.71107 1.14942 0
M  V30 3488 H 328.552 -2.86258 3.61737 0
M  V30 3489 H 326.795 -2.63716 3.44436 0
M  V30 3490 H 327.466 -4.27005 3.49815 0
M  V30 3491 H 329.942 -3.83196 1.62174 0
M  V30 3492 H 328.818 -5.21146 1.7233 0
M  V30 3493 H 329.079 -4.4174 0.178367 0
M  V30 3494 N 328.138 -0.959301 -1.25041 0
M  V30 3495 C 329.549 -0.65667 -1.74771 0
M  V30 3496 C 329.9 0.827852 -1.77879 0
M  V30 3497 O 329.025 1.64783 -1.40269 0
M  V30 3498 C 329.62 -1.1853 -3.1739 0
M  V30 3499 C 328.179 -0.932734 -3.6466 0
M  V30 3500 C 327.326 -1.32558 -2.43564 0
M  V30 3501 H 330.277 -1.13558 -1.10862 0
M  V30 3502 H 330.298 -0.547582 -3.76539 0
M  V30 3503 H 329.81 -2.26576 -3.15095 0
M  V30 3504 H 327.911 0.13257 -3.72364 0
M  V30 3505 H 328.024 -1.57248 -4.52559 0
M  V30 3506 H 326.388 -0.743956 -2.43593 0
M  V30 3507 H 327.171 -2.41537 -2.43957 0
M  V30 3508 N 329.616 1.39756 -0.72842 0
M  V30 3509 C 330.549 2.28176 -0.0330172 0
M  V30 3510 C 331.527 1.44035 0.754501 0
M  V30 3511 O 332.711 1.73434 0.738445 0
M  V30 3512 C 329.838 3.24795 0.960504 0
M  V30 3513 C 328.884 4.25693 0.262264 0
M  V30 3514 S 329.717 5.25714 -1.01906 0
M  V30 3515 C 330.873 6.25894 -0.0279717 0
M  V30 3516 H 331.106 2.86807 -0.78287 0
M  V30 3517 H 328.639 1.45382 -0.519951 0
M  V30 3518 H 330.597 3.80983 1.52846 0
M  V30 3519 H 329.258 2.65196 1.68315 0
M  V30 3520 H 328.451 4.93699 1.01379 0
M  V30 3521 H 328.053 3.7327 -0.233482 0
M  V30 3522 H 330.345 6.72585 0.814621 0
M  V30 3523 H 331.288 7.04876 -0.67499 0
M  V30 3524 H 331.696 5.63466 0.341489 0
M  V30 3525 N 331.094 0.475555 1.50254 0
M  V30 3526 C 332.027 -0.362381 2.25304 0
M  V30 3527 C 333.005 -0.992393 1.28803 0
M  V30 3528 O 334.189 -1.02746 1.58036 0
M  V30 3529 C 331.316 -1.50813 3.03271 0
M  V30 3530 C 330.362 -0.995044 4.1473 0
M  V30 3531 S 331.195 0.0938436 5.35418 0
M  V30 3532 C 332.351 -1.05567 6.16933 0
M  V30 3533 H 332.584 0.274686 2.96028 0
M  V30 3534 H 330.117 0.260495 1.52187 0
M  V30 3535 H 332.075 -2.16476 3.48781 0
M  V30 3536 H 330.736 -2.11672 2.32064 0
M  V30 3537 H 329.929 -1.85293 4.68703 0
M  V30 3538 H 329.531 -0.416052 3.71679 0
M  V30 3539 H 331.823 -1.96636 6.48337 0
M  V30 3540 H 332.766 -0.555109 7.05921 0
M  V30 3541 H 333.174 -1.31151 5.49053 0
M  V30 3542 N 332.573 -1.56217 0.208337 0
M  V30 3543 C 333.536 -2.18455 -0.693557 0
M  V30 3544 C 334.536 -1.14268 -1.13135 0
M  V30 3545 O 335.726 -1.39577 -1.0423 0
M  V30 3546 C 332.858 -2.79727 -1.94848 0
M  V30 3547 H 334.051 -2.99519 -0.15114 0
M  V30 3548 H 331.604 -1.56245 -0.041287 0
M  V30 3549 H 332.339 -2.02497 -2.53309 0
M  V30 3550 H 332.124 -3.56009 -1.64316 0
M  V30 3551 H 333.614 -3.27475 -2.59133 0
M  V30 3552 N 334.051 0.0651679 -1.57465 0
M  V30 3553 C 334.983 1.10359 -2.00882 0
M  V30 3554 C 335.996 1.346 -0.915788 0
M  V30 3555 O 337.185 1.32723 -1.1936 0
M  V30 3556 C 334.285 2.45312 -2.33828 0
M  V30 3557 C 333.458 2.40934 -3.65061 0
M  V30 3558 C 332.517 3.58047 -3.85602 0
M  V30 3559 O 331.543 3.39175 -4.57109 0
M  V30 3560 N 332.745 4.78637 -3.28462 0
M  V30 3561 H 335.51 0.733807 -2.90578 0
M  V30 3562 H 333.071 0.253719 -1.599 0
M  V30 3563 H 335.063 3.22314 -2.44737 0
M  V30 3564 H 333.633 2.74267 -1.49988 0
M  V30 3565 H 332.853 1.49273 -3.64844 0
M  V30 3566 H 334.141 2.35117 -4.51218 0
M  V30 3567 H 333.539 4.96872 -2.70433 0
M  V30 3568 H 332.096 5.53127 -3.44809 0
M  V30 3569 N 335.529 1.53961 0.336706 0
M  V30 3570 C 336.757 1.75483 1.09605 0
M  V30 3571 C 337.172 0.4972 1.82136 0
M  V30 3572 O 336.529 -0.53149 1.74589 0
M  V30 3573 C 336.58 2.93943 2.10428 0
M  V30 3574 O 336.301 4.14842 1.40846 0
M  V30 3575 C 337.802 3.27571 2.98684 0
M  V30 3576 H 335.022 0.586166 0.326574 0
M  V30 3577 H 337.566 2.00808 0.38683 0
M  V30 3578 H 335.721 2.70929 2.76905 0
M  V30 3579 H 336.135 4.81383 2.08255 0
M  V30 3580 H 337.609 4.13791 3.6535 0
M  V30 3581 H 338.086 2.44168 3.65074 0
M  V30 3582 H 338.692 3.52615 2.37787 0
M  V30 3583 N 337.007 -0.598083 1.45811 0
M  V30 3584 C 337.955 -1.72932 1.55555 0
M  V30 3585 C 338.949 -1.63984 0.424921 0
M  V30 3586 O 340.155 -1.69663 0.601205 0
M  V30 3587 H 336.53 -0.571489 0.488779 0
M  V30 3588 H 338.501 -1.61842 2.50699 0
M  V30 3589 C 337.25 -3.11318 1.54843 0
M  V30 3590 H 336.573 -3.18867 2.41172 0
M  V30 3591 H 338.013 -3.90274 1.65717 0
M  V30 3592 C 336.472 -3.3578 0.274427 0
M  V30 3593 O 337.002 -3.9654 -0.641778 0
M  V30 3594 N 335.208 -2.90119 0.167139 0
M  V30 3595 H 334.755 -2.40855 0.913596 0
M  V30 3596 H 334.713 -3.0686 -0.684435 0
M  V30 3597 N 338.485 -1.33259 -0.841409 0
M  V30 3598 C 339.432 -1.23302 -1.95103 0
M  V30 3599 C 340.402 -0.112204 -1.65721 0
M  V30 3600 O 341.587 -0.290038 -1.88583 0
M  V30 3601 C 338.727 -0.975583 -3.31023 0
M  V30 3602 C 337.84 -2.18243 -3.72819 0
M  V30 3603 C 336.975 -1.85936 -4.97595 0
M  V30 3604 C 336.014 -3.02866 -5.3192 0
M  V30 3605 N 335.151 -2.70565 -6.47873 0
M  V30 3606 H 339.991 -2.18207 -2.02952 0
M  V30 3607 H 337.528 -1.0851 -0.993173 0
M  V30 3608 H 339.486 -0.80677 -4.09325 0
M  V30 3609 H 338.116 -0.0632755 -3.22738 0
M  V30 3610 H 337.168 -2.46107 -2.90061 0
M  V30 3611 H 338.48 -3.05666 -3.94169 0
M  V30 3612 H 337.634 -1.65684 -5.83638 0
M  V30 3613 H 336.373 -0.957452 -4.78209 0
M  V30 3614 H 335.378 -3.23736 -4.44382 0
M  V30 3615 H 336.603 -3.93809 -5.53255 0
M  V30 3616 H 334.549 -1.8293 -6.29978 0
M  V30 3617 H 334.466 -3.51519 -6.69306 0
M  V30 3618 H 335.734 -2.53774 -7.37034 0
M  V30 3619 N 339.963 1.05934 -1.16686 0
M  V30 3620 C 341.21 1.788 -0.950622 0
M  V30 3621 C 341.538 1.87384 0.521305 0
M  V30 3622 O 340.793 1.36438 1.40297 0
M  V30 3623 C 341.092 3.23105 -1.52767 0
M  V30 3624 C 340.758 3.34594 -3.02254 0
M  V30 3625 C 339.42 3.37437 -3.43059 0
M  V30 3626 C 341.772 3.36219 -3.98254 0
M  V30 3627 C 339.1 3.39525 -4.78477 0
M  V30 3628 C 341.452 3.39845 -5.33562 0
M  V30 3629 C 340.116 3.40971 -5.73842 0
M  V30 3630 H 339.386 0.654275 -0.347857 0
M  V30 3631 H 342.033 1.24555 -1.45459 0
M  V30 3632 H 340.338 3.80227 -0.94524 0
M  V30 3633 H 342.035 3.7809 -1.336 0
M  V30 3634 H 338.625 3.3309 -2.6972 0
M  V30 3635 H 342.809 3.33231 -3.67792 0
M  V30 3636 H 338.065 3.38703 -5.09009 0
M  V30 3637 H 342.239 3.4005 -6.07733 0
M  V30 3638 H 339.866 3.42342 -6.78753 0
M  V30 3639 N 341.441 0.965919 1.2453 0
M  V30 3640 C 342.389 0.486506 2.27455 0
M  V30 3641 C 343.383 -0.449041 1.6334 0
M  V30 3642 O 344.589 -0.324527 1.7705 0
M  V30 3643 H 340.964 0.138857 0.739069 0
M  V30 3644 H 342.935 1.3666 2.65267 0
M  V30 3645 C 341.684 -0.209481 3.47068 0
M  V30 3646 H 341.007 0.50129 3.96645 0
M  V30 3647 H 342.447 -0.508775 4.20936 0
M  V30 3648 C 340.906 -1.43586 3.0477 0
M  V30 3649 O 341.436 -2.53299 3.11773 0
M  V30 3650 N 339.642 -1.30126 2.59838 0
M  V30 3651 H 339.189 -0.408583 2.54339 0
M  V30 3652 H 339.147 -2.12294 2.31902 0
M  V30 3653 N 342.919 -1.39368 0.735821 0
M  V30 3654 C 344.149 -2.04498 0.293967 0
M  V30 3655 C 344.557 -1.55593 -1.07645 0
M  V30 3656 O 343.9 -0.716324 -1.69158 0
M  V30 3657 C 343.962 -3.58836 0.218342 0
M  V30 3658 C 343.626 -4.30721 1.52736 0
M  V30 3659 C 344.623 -4.57305 2.47322 0
M  V30 3660 C 342.308 -4.69251 1.79189 0
M  V30 3661 C 344.302 -5.21429 3.66593 0
M  V30 3662 C 341.989 -5.33104 2.98737 0
M  V30 3663 C 342.987 -5.59125 3.9226 0
M  V30 3664 O 342.675 -6.21653 5.09708 0
M  V30 3665 H 342.407 -0.664118 0.126189 0
M  V30 3666 H 344.961 -1.79385 1.00051 0
M  V30 3667 H 343.191 -3.8285 -0.544314 0
M  V30 3668 H 344.88 -4.05447 -0.191626 0
M  V30 3669 H 345.646 -4.27983 2.28156 0
M  V30 3670 H 341.525 -4.48354 1.07239 0
M  V30 3671 H 345.069 -5.41656 4.39607 0
M  V30 3672 H 340.966 -5.61846 3.17803 0
M  V30 3673 H 341.734 -6.40146 5.10054 0
M  V30 3674 N 344.397 -0.483516 -1.5 0
M  V30 3675 C 345.625 0.0644831 -2.06799 0
M  V30 3676 C 346.04 1.32399 -1.34596 0
M  V30 3677 O 345.397 1.77626 -0.418946 0
M  V30 3678 C 345.448 0.339927 -3.59898 0
M  V30 3679 O 345.169 -0.869635 -4.29382 0
M  V30 3680 C 346.67 0.933515 -4.33359 0
M  V30 3681 H 343.89 -0.0126333 -0.670881 0
M  V30 3682 H 346.434 -0.675864 -1.93009 0
M  V30 3683 H 344.589 1.03022 -3.7345 0
M  V30 3684 H 345.003 -0.62179 -5.20801 0
M  V30 3685 H 346.477 1.07593 -5.41413 0
M  V30 3686 H 346.954 1.92685 -3.94676 0
M  V30 3687 H 347.56 0.281221 -4.24369 0
M  V30 3688 N 345.875 1.56104 -0.216619 0
M  V30 3689 C 346.785 2.23694 0.706982 0
M  V30 3690 C 347.801 1.24295 1.21765 0
M  V30 3691 O 348.977 1.57094 1.2603 0
M  V30 3692 C 346.042 2.8998 1.90033 0
M  V30 3693 C 345.103 4.04708 1.43213 0
M  V30 3694 C 344.336 4.67824 2.56859 0
M  V30 3695 O 344.559 4.29913 3.74874 0
M  V30 3696 O 343.493 5.56905 2.28343 0
M  V30 3697 H 347.319 3.03272 0.161235 0
M  V30 3698 H 344.904 1.49394 0.0136177 0
M  V30 3699 H 346.786 3.31837 2.59735 0
M  V30 3700 H 345.461 2.13365 2.43428 0
M  V30 3701 H 344.368 3.6743 0.70327 0
M  V30 3702 H 345.701 4.83051 0.944615 0
M  V30 3703 N 347.353 -0.0568162 1.57498 0
M  V30 3704 C 348.6 -0.753104 1.87975 0
M  V30 3705 C 348.928 -1.76815 0.81035 0
M  V30 3706 O 348.183 -1.94756 -0.19199 0
M  V30 3707 C 348.482 -1.48359 3.25153 0
M  V30 3708 C 348.148 -0.60713 4.46794 0
M  V30 3709 C 346.81 -0.365642 4.79809 0
M  V30 3710 C 349.162 -0.000305978 5.212 0
M  V30 3711 C 346.49 0.491905 5.84634 0
M  V30 3712 C 348.842 0.844781 6.26934 0
M  V30 3713 C 347.506 1.096 6.58441 0
M  V30 3714 H 346.776 -0.27558 0.687849 0
M  V30 3715 H 349.423 -0.0135173 1.91495 0
M  V30 3716 H 347.728 -2.29577 3.17492 0
M  V30 3717 H 349.425 -2.02739 3.45974 0
M  V30 3718 H 346.015 -0.805487 4.20963 0
M  V30 3719 H 350.199 -0.173961 4.95995 0
M  V30 3720 H 345.455 0.695131 6.07436 0
M  V30 3721 H 349.629 1.32165 6.83744 0
M  V30 3722 H 347.256 1.76224 7.39492 0
M  V30 3723 N 348.832 -1.54138 -0.328536 0
M  V30 3724 C 350.06 -1.76062 -1.08673 0
M  V30 3725 C 350.475 -0.506852 -1.81869 0
M  V30 3726 O 349.832 0.522223 -1.74869 0
M  V30 3727 C 349.883 -2.95054 -2.08866 0
M  V30 3728 O 349.604 -4.15583 -1.38644 0
M  V30 3729 C 351.105 -3.2915 -2.96943 0
M  V30 3730 H 348.325 -0.587889 -0.323461 0
M  V30 3731 H 350.869 -2.0101 -0.376175 0
M  V30 3732 H 349.024 -2.72394 -2.75464 0
M  V30 3733 H 349.438 -4.82481 -2.05699 0
M  V30 3734 H 350.912 -4.15723 -3.63151 0
M  V30 3735 H 351.389 -2.461 -3.63774 0
M  V30 3736 H 351.995 -3.53871 -2.35914 0
M  V30 3737 N 350.31 0.590341 -1.46126 0
M  V30 3738 C 351.538 1.37504 -1.54597 0
M  V30 3739 C 351.953 1.87897 -0.184447 0
M  V30 3740 O 351.31 1.63192 0.816984 0
M  V30 3741 C 351.361 2.56779 -2.54454 0
M  V30 3742 O 351.082 2.08476 -3.85317 0
M  V30 3743 C 352.583 3.49427 -2.72792 0
M  V30 3744 H 349.803 0.420325 -0.523037 0
M  V30 3745 H 352.347 0.718383 -1.91467 0
M  V30 3746 H 350.502 3.1845 -2.20609 0
M  V30 3747 H 350.916 2.86097 -4.396 0
M  V30 3748 H 352.39 4.29619 -3.466 0
M  V30 3749 H 352.867 4.00876 -1.79429 0
M  V30 3750 H 353.473 2.93598 -3.07702 0
M  V30 3751 N 351.788 1.33704 0.83433 0
M  V30 3752 C 353.199 1.22813 1.4062 0
M  V30 3753 C 353.55 -0.151107 1.95617 0
M  V30 3754 O 352.675 -1.05092 1.89168 0
M  V30 3755 C 353.27 2.22355 2.55624 0
M  V30 3756 C 351.829 2.1529 3.08751 0
M  V30 3757 C 350.976 2.09589 1.8157 0
M  V30 3758 H 353.927 1.45236 0.639702 0
M  V30 3759 H 353.948 1.83391 3.33389 0
M  V30 3760 H 353.46 3.22728 2.15566 0
M  V30 3761 H 351.561 1.18235 3.53343 0
M  V30 3762 H 351.674 3.06038 3.68616 0
M  V30 3763 H 350.038 1.55134 2.02004 0
M  V30 3764 H 350.821 3.11777 1.43701 0
M  V30 3765 N 353.266 -1.05314 1.17247 0
M  V30 3766 C 354.543 -1.75184 0.87005 0
M  V30 3767 C 354.923 -2.01481 -0.629965 0
M  V30 3768 O 354.271 -1.64988 -1.58086 0
M  V30 3769 C 354.481 -3.04594 1.70363 0
M  V30 3770 C 355.829 -3.78567 1.92281 0
M  V30 3771 O 356.853 -3.14461 1.67311 0
M  V30 3772 O 355.712 -4.93755 2.3424 0
M  V30 3773 H 352.806 -0.761729 0.322021 0
M  V30 3774 H 355.352 -1.11493 1.27935 0
M  V30 3775 H 354.124 -2.81201 2.72106 0
M  V30 3776 H 353.747 -3.76022 1.29202 0
M  V30 3777 N 354.744 -0.972509 -1.24016 0
M  V30 3778 C 355.992 -0.635776 -1.91839 0
M  V30 3779 C 356.313 0.832312 -1.76345 0
M  V30 3780 O 355.583 1.5946 -1.13795 0
M  V30 3781 H 354.163 -0.232157 -0.710009 0
M  V30 3782 H 356.825 -1.23462 -1.50809 0
M  V30 3783 H 355.921 -0.880545 -2.99421 0
M  V30 3784 N 356.222 1.38976 -0.743202 0
M  V30 3785 C 357.172 2.27843 -0.084513 0
M  V30 3786 C 358.156 1.44677 0.704094 0
M  V30 3787 O 359.348 1.67511 0.571755 0
M  V30 3788 C 356.477 3.33466 0.815781 0
M  V30 3789 C 355.563 4.24095 0.0208844 0
M  V30 3790 N 355.954 4.95609 -1.0102 0
M  V30 3791 C 354.252 4.45303 0.249293 0
M  V30 3792 C 354.953 5.62287 -1.49024 0
M  V30 3793 N 353.929 5.37571 -0.807377 0
M  V30 3794 H 357.731 2.80593 -0.87436 0
M  V30 3795 H 355.245 1.51755 -0.578283 0
M  V30 3796 H 357.242 3.96008 1.30321 0
M  V30 3797 H 355.902 2.82276 1.6047 0
M  V30 3798 H 356.913 4.98849 -1.39176 0
M  V30 3799 H 353.59 4.0504 1.01237 0
M  V30 3800 H 354.98 6.29519 -2.34853 0
M  V30 3801 N 357.7 0.491464 1.49741 0
M  V30 3802 C 358.93 -0.0534375 2.06531 0
M  V30 3803 C 359.338 -1.32233 1.35318 0
M  V30 3804 O 358.681 -1.78781 0.422243 0
M  V30 3805 C 358.743 -0.387034 3.57411 0
M  V30 3806 C 358.407 0.782764 4.50246 0
M  V30 3807 C 359.404 1.67059 4.92329 0
M  V30 3808 C 357.089 0.978866 4.9267 0
M  V30 3809 C 359.083 2.73874 5.75562 0
M  V30 3810 C 356.77 2.05022 5.75682 0
M  V30 3811 C 357.768 2.92851 6.17031 0
M  V30 3812 O 357.456 3.98138 6.98385 0
M  V30 3813 H 357.188 0.0129324 0.675876 0
M  V30 3814 H 359.742 0.685238 1.93633 0
M  V30 3815 H 357.972 -1.17918 3.68283 0
M  V30 3816 H 359.661 -0.869419 3.96479 0
M  V30 3817 H 360.427 1.53086 4.60206 0
M  V30 3818 H 356.306 0.304646 4.59992 0
M  V30 3819 H 359.85 3.42458 6.07757 0
M  V30 3820 H 355.747 2.18993 6.07217 0
M  V30 3821 H 356.515 3.95374 7.16674 0
M  V30 3822 N 359.178 -1.55987 0.224894 0
M  V30 3823 C 360.408 -2.02489 -0.41007 0
M  V30 3824 C 360.816 -1.10391 -1.53657 0
M  V30 3825 O 360.159 -0.106458 -1.83391 0
M  V30 3826 C 360.221 -3.45319 -0.999757 0
M  V30 3827 C 359.885 -4.56999 -0.00827976 0
M  V30 3828 C 360.882 -5.13812 0.793314 0
M  V30 3829 C 358.567 -5.02176 0.111442 0
M  V30 3830 C 360.561 -6.14276 1.7013 0
M  V30 3831 C 358.248 -6.02477 1.02296 0
M  V30 3832 C 359.246 -6.58403 1.81643 0
M  V30 3833 O 358.934 -7.56751 2.71262 0
M  V30 3834 H 358.666 -0.667915 -0.104235 0
M  V30 3835 H 361.22 -2.0257 0.339782 0
M  V30 3836 H 359.45 -3.42318 -1.79876 0
M  V30 3837 H 361.139 -3.7545 -1.54248 0
M  V30 3838 H 361.905 -4.79756 0.711288 0
M  V30 3839 H 357.784 -4.58323 -0.49605 0
M  V30 3840 H 361.328 -6.57854 2.32107 0
M  V30 3841 H 357.225 -6.35954 1.10599 0
M  V30 3842 H 357.993 -7.74286 2.65375 0
M  V30 3843 N 360.656 0.0484629 -1.57525 0
M  V30 3844 C 361.933 0.777447 -1.79486 0
M  V30 3845 C 362.313 1.94597 -0.818251 0
M  V30 3846 O 361.661 2.28047 0.143767 0
M  V30 3847 C 361.871 1.22864 -3.26658 0
M  V30 3848 C 363.219 1.65251 -3.91123 0
M  V30 3849 O 364.243 1.32372 -3.3069 0
M  V30 3850 O 363.102 2.26207 -4.97486 0
M  V30 3851 H 360.196 0.374357 -0.737419 0
M  V30 3852 H 362.742 0.0267359 -1.69679 0
M  V30 3853 H 361.514 0.393589 -3.89316 0
M  V30 3854 H 361.137 2.03996 -3.41279 0
M  V30 3855 N 362.134 1.5431 0.320358 0
M  V30 3856 C 363.383 1.7188 1.05546 0
M  V30 3857 C 363.696 0.501143 1.89071 0
M  V30 3858 O 364.902 0.558258 2.65699 0
M  V30 3859 C 363.358 3.04025 1.92605 0
M  V30 3860 C 362.966 4.33207 1.14176 0
M  V30 3861 C 364.71 3.30959 2.65832 0
M  V30 3862 C 362.617 5.56412 2.00399 0
M  V30 3863 H 361.547 0.640547 0.397763 0
M  V30 3864 H 364.198 1.80802 0.313522 0
M  V30 3865 H 362.58 2.89019 2.7071 0
M  V30 3866 H 363.754 4.58989 0.40819 0
M  V30 3867 H 362.069 4.13062 0.526165 0
M  V30 3868 H 364.666 4.20203 3.30656 0
M  V30 3869 H 365.009 2.48979 3.33639 0
M  V30 3870 H 365.542 3.46847 1.94787 0
M  V30 3871 H 362.281 6.41004 1.37094 0
M  V30 3872 H 361.801 5.34844 2.7148 0
M  V30 3873 H 363.48 5.92938 2.58908 0
M  V30 3874 N 363.613 -0.582584 1.46437 0
M  V30 3875 C 364.543 -1.70187 1.59871 0
M  V30 3876 C 365.524 -1.64066 0.449042 0
M  V30 3877 O 366.709 -1.82081 0.6753 0
M  V30 3878 C 363.839 -3.08827 1.58881 0
M  V30 3879 C 362.793 -3.29779 2.72819 0
M  V30 3880 C 362.119 -4.68947 2.5689 0
M  V30 3881 C 363.419 -3.17601 4.1464 0
M  V30 3882 H 365.113 -1.592 2.53566 0
M  V30 3883 H 362.659 -0.764472 1.22032 0
M  V30 3884 H 364.612 -3.86951 1.66873 0
M  V30 3885 H 363.336 -3.20713 0.617306 0
M  V30 3886 H 361.995 -2.54054 2.64296 0
M  V30 3887 H 361.643 -4.77599 1.57823 0
M  V30 3888 H 361.343 -4.83919 3.33312 0
M  V30 3889 H 362.867 -5.4924 2.66773 0
M  V30 3890 H 364.281 -3.8557 4.24274 0
M  V30 3891 H 362.678 -3.44094 4.9165 0
M  V30 3892 H 363.748 -2.14681 4.34788 0
M  V30 3893 N 365.091 -1.34144 -0.827227 0
M  V30 3894 C 366.001 -1.27428 -1.96975 0
M  V30 3895 C 367.017 -0.182728 -1.73038 0
M  V30 3896 O 368.193 -0.408426 -1.97215 0
M  V30 3897 C 365.258 -1.02526 -3.31194 0
M  V30 3898 C 364.319 -2.20796 -3.68168 0
M  V30 3899 C 363.552 -1.97073 -4.95982 0
M  V30 3900 O 363.775 -0.926822 -5.6282 0
M  V30 3901 O 362.709 -2.83912 -5.30733 0
M  V30 3902 H 366.535 -2.23537 -2.05584 0
M  V30 3903 H 364.12 -1.14307 -0.961989 0
M  V30 3904 H 366.002 -0.904026 -4.11589 0
M  V30 3905 H 364.677 -0.0945389 -3.23562 0
M  V30 3906 H 363.584 -2.38477 -2.88235 0
M  V30 3907 H 364.917 -3.12243 -3.8048 0
M  V30 3908 N 366.569 1.04691 -1.17803 0
M  V30 3909 C 367.499 2.14494 -0.92275 0
M  V30 3910 C 368.48 1.69546 0.137179 0
M  V30 3911 O 369.665 1.94195 -0.0141108 0
M  V30 3912 C 366.795 3.44491 -0.440803 0
M  V30 3913 C 365.749 4.03031 -1.4405 0
M  V30 3914 C 365.075 5.28432 -0.81631 0
M  V30 3915 C 366.375 4.39932 -2.81527 0
M  V30 3916 H 368.069 2.36107 -1.84103 0
M  V30 3917 H 365.615 1.1347 -0.886599 0
M  V30 3918 H 367.568 4.2066 -0.249602 0
M  V30 3919 H 366.292 3.22546 0.513025 0
M  V30 3920 H 364.951 3.28937 -1.61853 0
M  V30 3921 H 364.599 5.02792 0.144511 0
M  V30 3922 H 364.299 5.68559 -1.48371 0
M  V30 3923 H 365.823 6.07284 -0.635496 0
M  V30 3924 H 367.237 5.07113 -2.67412 0
M  V30 3925 H 365.634 4.9109 -3.44892 0
M  V30 3926 H 366.704 3.50045 -3.35554 0
M  V30 3927 N 368.047 0.979072 1.23499 0
M  V30 3928 C 369.458 0.684391 1.73704 0
M  V30 3929 C 369.809 -0.799448 1.79174 0
M  V30 3930 O 368.934 -1.62531 1.42873 0
M  V30 3931 C 369.529 1.23564 3.15464 0
M  V30 3932 C 368.088 0.99063 3.6313 0
M  V30 3933 C 367.235 1.36416 2.41425 0
M  V30 3934 H 370.186 1.15307 1.09041 0
M  V30 3935 H 370.207 0.607417 3.7562 0
M  V30 3936 H 369.719 2.31561 3.1145 0
M  V30 3937 H 367.82 -0.0733136 3.72528 0
M  V30 3938 H 367.933 1.64427 4.5 0
M  V30 3939 H 366.297 0.782616 2.42378 0
M  V30 3940 H 367.08 2.45387 2.40083 0
M  V30 3941 N 369.525 -1.3858 0.750561 0
M  V30 3942 C 370.755 -2.04175 0.31564 0
M  V30 3943 C 371.163 -1.56726 -1.05989 0
M  V30 3944 O 370.506 -0.734225 -1.68389 0
M  V30 3945 C 370.568 -3.58585 0.256389 0
M  V30 3946 C 370.232 -4.29077 1.57296 0
M  V30 3947 C 371.229 -4.54656 2.52159 0
M  V30 3948 C 368.914 -4.67324 1.84156 0
M  V30 3949 C 370.908 -5.17512 3.72103 0
M  V30 3950 C 368.595 -5.29905 3.04374 0
M  V30 3951 C 369.593 -5.54933 3.98168 0
M  V30 3952 O 369.281 -6.16212 5.16273 0
M  V30 3953 H 369.013 -0.662742 0.133226 0
M  V30 3954 H 371.567 -1.78313 1.01948 0
M  V30 3955 H 369.797 -3.83406 -0.503677 0
M  V30 3956 H 371.486 -4.05628 -0.148612 0
M  V30 3957 H 372.252 -4.25539 2.32683 0
M  V30 3958 H 368.131 -4.47191 1.11988 0
M  V30 3959 H 371.675 -5.36963 4.45327 0
M  V30 3960 H 367.572 -5.58444 3.23745 0
M  V30 3961 H 368.34 -6.34701 5.16815 0
M  V30 3962 N 371.003 -0.499398 -1.49478 0
M  V30 3963 C 371.953 0.299103 -2.2603 0
M  V30 3964 C 372.937 0.936934 -1.30807 0
M  V30 3965 O 374.129 0.844798 -1.55538 0
M  V30 3966 C 371.258 1.36391 -3.15044 0
M  V30 3967 C 370.344 0.732398 -4.17728 0
M  V30 3968 N 370.735 -0.164028 -5.05534 0
M  V30 3969 C 369.033 0.993162 -4.34801 0
M  V30 3970 C 369.734 -0.525345 -5.79323 0
M  V30 3971 N 368.71 0.106348 -5.43496 0
M  V30 3972 H 372.512 -0.391003 -2.91287 0
M  V30 3973 H 370.026 -0.31537 -1.59308 0
M  V30 3974 H 372.023 1.94939 -3.68516 0
M  V30 3975 H 370.683 2.05571 -2.51338 0
M  V30 3976 H 371.694 -0.534736 -5.15132 0
M  V30 3977 H 368.371 1.67783 -3.82302 0
M  V30 3978 H 369.761 -1.25862 -6.60006 0
M  V30 3979 N 372.481 1.55866 -0.233164 0
M  V30 3980 C 373.729 1.9821 0.394593 0
M  V30 3981 C 374.05 1.12234 1.59463 0
M  V30 3982 O 373.32 0.201981 1.94856 0
M  V30 3983 H 371.9 0.732034 0.148778 0
M  V30 3984 H 374.562 1.92107 -0.32876 0
M  V30 3985 H 373.658 3.03845 0.713063 0
M  V30 3986 N 373.959 -0.0401083 1.57549 0
M  V30 3987 C 375.236 -0.767917 1.79896 0
M  V30 3988 C 375.616 -1.9416 0.82856 0
M  V30 3989 O 374.964 -2.2812 -0.131671 0
M  V30 3990 C 375.174 -1.2113 3.27305 0
M  V30 3991 C 376.522 -1.63175 3.91994 0
M  V30 3992 O 377.546 -1.30616 3.31388 0
M  V30 3993 O 376.405 -2.23565 4.98679 0
M  V30 3994 H 373.499 -0.370441 0.739393 0
M  V30 3995 H 376.045 -0.017737 1.69691 0
M  V30 3996 H 374.817 -0.372937 3.89519 0
M  V30 3997 H 374.44 -2.02183 3.42356 0
M  V30 3998 N 375.437 -1.54477 -0.31217 0
M  V30 3999 C 376.665 -1.77205 -1.068 0
M  V30 4000 C 377.08 -0.526114 -1.81321 0
M  V30 4001 O 376.437 0.503647 -1.75413 0
M  V30 4002 C 376.488 -2.97253 -2.05725 0
M  V30 4003 O 376.209 -4.1703 -1.34228 0
M  V30 4004 C 377.71 -3.32281 -2.93435 0
M  V30 4005 H 374.93 -0.591287 -0.317208 0
M  V30 4006 H 377.474 -2.01398 -0.354834 0
M  V30 4007 H 375.629 -2.753 -2.72559 0
M  V30 4008 H 376.043 -4.84636 -2.00571 0
M  V30 4009 H 377.517 -4.19551 -3.58721 0
M  V30 4010 H 377.994 -2.49945 -3.61143 0
M  V30 4011 H 378.6 -3.56353 -2.32147 0
M  V30 4012 N 376.915 0.57481 -1.46744 0
M  V30 4013 C 377.845 1.69337 -1.60771 0
M  V30 4014 C 378.826 1.63825 -0.457736 0
M  V30 4015 O 380.011 1.8172 -0.684947 0
M  V30 4016 C 377.141 3.0798 -1.60517 0
M  V30 4017 C 376.095 3.28327 -2.74564 0
M  V30 4018 C 375.421 4.67578 -2.59373 0
M  V30 4019 C 376.721 3.15398 -4.16319 0
M  V30 4020 H 378.415 1.57853 -2.54407 0
M  V30 4021 H 375.961 0.75799 -1.22436 0
M  V30 4022 H 377.914 3.86061 -1.68923 0
M  V30 4023 H 376.638 3.20381 -0.634305 0
M  V30 4024 H 375.297 2.52649 -2.65639 0
M  V30 4025 H 374.945 4.76755 -1.60353 0
M  V30 4026 H 374.645 4.82144 -3.35873 0
M  V30 4027 H 376.169 5.47817 -2.69682 0
M  V30 4028 H 377.583 3.83315 -4.26313 0
M  V30 4029 H 375.98 3.41482 -4.93468 0
M  V30 4030 H 377.05 2.12372 -4.3592 0
M  V30 4031 N 378.394 1.34581 0.820102 0
M  V30 4032 C 379.619 1.30333 1.61332 0
M  V30 4033 C 380.044 -0.119339 1.87721 0
M  V30 4034 O 379.402 -1.08197 1.45475 0
M  V30 4035 C 379.45 2.10258 2.92957 0
M  V30 4036 O 378.554 1.47404 3.85157 0
M  V30 4037 H 377.895 0.447488 0.490561 0
M  V30 4038 H 380.425 1.77425 1.01889 0
M  V30 4039 H 380.435 2.21718 3.42498 0
M  V30 4040 H 379.11 3.13693 2.73074 0
M  V30 4041 H 377.687 1.44703 3.43679 0
M  V30 4042 N 379.872 -1.04064 1.18357 0
M  V30 4043 C 380.805 -2.11618 0.854 0
M  V30 4044 C 381.783 -1.61555 -0.184043 0
M  V30 4045 O 382.967 -1.88395 -0.0630048 0
M  V30 4046 C 380.094 -3.37574 0.27597 0
M  V30 4047 C 379.14 -4.06485 1.2912 0
M  V30 4048 S 379.973 -4.53543 2.84709 0
M  V30 4049 C 381.129 -5.82732 2.28417 0
M  V30 4050 H 381.362 -2.39247 1.76488 0
M  V30 4051 H 378.895 -1.16832 1.00944 0
M  V30 4052 H 380.853 -4.10468 -0.051026 0
M  V30 4053 H 379.514 -3.0806 -0.613028 0
M  V30 4054 H 378.707 -4.97024 0.835633 0
M  V30 4055 H 378.309 -3.39708 1.56443 0
M  V30 4056 H 380.601 -6.56677 1.66677 0
M  V30 4057 H 381.544 -6.33052 3.17256 0
M  V30 4058 H 381.952 -5.37838 1.71436 0
M  V30 4059 N 381.35 -0.985608 -1.22978 0
M  V30 4060 C 382.597 -0.657386 -1.91532 0
M  V30 4061 C 382.925 0.809707 -1.76845 0
M  V30 4062 O 382.18 1.60021 -1.12658 0
M  V30 4063 C 382.479 -1.00014 -3.43121 0
M  V30 4064 C 382.145 -2.4583 -3.77993 0
M  V30 4065 C 380.807 -2.85679 -3.87222 0
M  V30 4066 C 383.159 -3.40378 -3.94705 0
M  V30 4067 C 380.487 -4.19081 -4.10595 0
M  V30 4068 C 382.839 -4.73429 -4.1958 0
M  V30 4069 C 381.503 -5.1303 -4.27032 0
M  V30 4070 H 380.773 -0.240555 -0.700867 0
M  V30 4071 H 383.42 -1.24044 -1.45895 0
M  V30 4072 H 381.725 -0.335072 -3.90365 0
M  V30 4073 H 383.422 -0.724322 -3.94404 0
M  V30 4074 H 380.012 -2.13939 -3.71387 0
M  V30 4075 H 384.196 -3.10766 -3.8696 0
M  V30 4076 H 379.452 -4.49362 -4.14589 0
M  V30 4077 H 383.626 -5.46644 -4.31455 0
M  V30 4078 H 381.253 -6.16418 -4.44896 0
M  V30 4079 N 382.828 1.3818 -0.7579 0
M  V30 4080 C 384.077 1.99261 -0.312744 0
M  V30 4081 C 384.39 1.60846 1.11301 0
M  V30 4082 O 385.596 2.14929 1.65885 0
M  V30 4083 C 384.052 3.56294 -0.50821 0
M  V30 4084 C 383.66 4.03657 -1.94333 0
M  V30 4085 C 385.404 4.24313 -0.125982 0
M  V30 4086 C 383.311 5.53347 -2.08712 0
M  V30 4087 H 382.241 0.745456 -0.113185 0
M  V30 4088 H 384.892 1.57889 -0.935056 0
M  V30 4089 H 383.274 3.95575 0.183353 0
M  V30 4090 H 384.448 3.75655 -2.66871 0
M  V30 4091 H 382.763 3.48376 -2.28086 0
M  V30 4092 H 385.36 5.34279 -0.212125 0
M  V30 4093 H 385.703 4.05962 0.921964 0
M  V30 4094 H 386.236 3.90285 -0.769563 0
M  V30 4095 H 382.975 5.76607 -3.11777 0
M  V30 4096 H 382.495 5.83078 -1.4064 0
M  V30 4097 H 384.174 6.19111 -1.87912 0
M  V30 4098 N 384.306 0.507319 1.49211 0
M  V30 4099 C 385.269 -0.256763 2.27757 0
M  V30 4100 C 386.269 -0.888287 1.34038 0
M  V30 4101 O 387.459 -0.751841 1.5714 0
M  V30 4102 C 384.591 -1.36905 3.12202 0
M  V30 4103 H 385.784 0.432557 2.96764 0
M  V30 4104 H 383.337 0.262488 1.5408 0
M  V30 4105 H 384.072 -2.09233 2.47775 0
M  V30 4106 H 383.857 -0.921599 3.81115 0
M  V30 4107 H 385.347 -1.9071 3.7151 0
M  V30 4108 N 385.784 -1.5574 0.241426 0
M  V30 4109 C 386.747 -2.19877 -0.647063 0
M  V30 4110 C 387.747 -1.16642 -1.10686 0
M  V30 4111 O 388.937 -1.41757 -1.01245 0
M  V30 4112 C 386.069 -2.83797 -1.88871 0
M  V30 4113 H 387.262 -2.99772 -0.087574 0
M  V30 4114 H 384.815 -1.56298 -0.00813574 0
M  V30 4115 H 385.55 -2.07824 -2.48957 0
M  V30 4116 H 385.335 -3.59414 -1.56728 0
M  V30 4117 H 386.825 -3.32898 -2.52129 0
M  V30 4118 N 387.262 0.0317525 -1.57568 0
M  V30 4119 C 388.673 0.578692 -1.77505 0
M  V30 4120 C 389.024 1.75749 -0.872164 0
M  V30 4121 O 388.149 2.16298 -0.0663106 0
M  V30 4122 C 388.744 1.05658 -3.21904 0
M  V30 4123 C 387.303 1.54906 -3.43047 0
M  V30 4124 C 386.45 0.485939 -2.73009 0
M  V30 4125 H 389.401 -0.194475 -1.57504 0
M  V30 4126 H 389.422 1.92404 -3.28269 0
M  V30 4127 H 388.934 0.198422 -3.87592 0
M  V30 4128 H 387.035 2.42915 -2.82529 0
M  V30 4129 H 387.148 1.59841 -4.5165 0
M  V30 4130 H 385.512 0.940354 -2.36705 0
M  V30 4131 H 386.295 -0.362709 -3.41379 0
M  V30 4132 N 388.74 1.54641 0.303973 0
M  V30 4133 C 389.97 1.77511 1.05705 0
M  V30 4134 C 390.378 0.533228 1.81531 0
M  V30 4135 O 389.721 -0.506423 1.76582 0
M  V30 4136 C 389.783 2.92779 2.08617 0
M  V30 4137 C 389.447 4.30977 1.52013 0
M  V30 4138 C 390.444 5.11115 0.9517 0
M  V30 4139 C 388.129 4.77571 1.55665 0
M  V30 4140 C 390.123 6.35966 0.427327 0
M  V30 4141 C 387.81 6.02384 1.02841 0
M  V30 4142 C 388.808 6.81417 0.464713 0
M  V30 4143 O 388.496 8.03881 -0.0555283 0
M  V30 4144 H 388.228 0.59579 0.319391 0
M  V30 4145 H 390.782 2.02401 0.349712 0
M  V30 4146 H 389.012 2.63506 2.83022 0
M  V30 4147 H 390.701 3.03252 2.69802 0
M  V30 4148 H 391.467 4.76264 0.916407 0
M  V30 4149 H 387.346 4.16085 1.9848 0
M  V30 4150 H 390.89 6.97599 -0.0133062 0
M  V30 4151 H 386.787 6.36723 1.06084 0
M  V30 4152 H 387.555 8.18479 0.0580522 0
M  V30 4153 N 390.218 -0.567019 1.47046 0
M  V30 4154 C 391.128 -1.70247 1.6141 0
M  V30 4155 C 392.144 -1.66746 0.497157 0
M  V30 4156 O 393.32 -1.86371 0.763389 0
M  V30 4157 C 390.385 -3.06756 1.61561 0
M  V30 4158 C 389.446 -3.21399 2.84607 0
M  V30 4159 C 388.679 -4.51396 2.84741 0
M  V30 4160 O 388.902 -5.36255 1.94388 0
M  V30 4161 O 387.836 -4.69621 3.76483 0
M  V30 4162 H 391.662 -1.61073 2.57467 0
M  V30 4163 H 389.247 -0.735894 1.30019 0
M  V30 4164 H 391.129 -3.8801 1.64396 0
M  V30 4165 H 389.804 -3.16333 0.686684 0
M  V30 4166 H 388.711 -2.39579 2.8732 0
M  V30 4167 H 390.044 -3.16721 3.76761 0
M  V30 4168 N 391.696 -1.35014 -0.812953 0
M  V30 4169 C 392.643 -1.27412 -1.92444 0
M  V30 4170 C 393.613 -0.14733 -1.65445 0
M  V30 4171 O 394.798 -0.329974 -1.87925 0
M  V30 4172 C 391.938 -1.04558 -3.28879 0
M  V30 4173 C 391.051 -2.26101 -3.68106 0
M  V30 4174 C 390.186 -1.96449 -4.9354 0
M  V30 4175 C 389.225 -3.14081 -5.25376 0
M  V30 4176 N 388.362 -2.84246 -6.41988 0
M  V30 4177 H 393.202 -2.22463 -1.98278 0
M  V30 4178 H 390.739 -1.10593 -0.969933 0
M  V30 4179 H 392.697 -0.893413 -4.07522 0
M  V30 4180 H 391.327 -0.131719 -3.22531 0
M  V30 4181 H 390.379 -2.52204 -2.84775 0
M  V30 4182 H 391.691 -3.13959 -3.87597 0
M  V30 4183 H 390.845 -1.78026 -5.79993 0
M  V30 4184 H 389.584 -1.05867 -4.76071 0
M  V30 4185 H 388.589 -3.33089 -4.37415 0
M  V30 4186 H 389.814 -4.05455 -5.44778 0
M  V30 4187 H 387.76 -1.96252 -6.25956 0
M  V30 4188 H 387.677 -3.65637 -6.61699 0
M  V30 4189 H 388.945 -2.6935 -7.31485 0
M  V30 4190 N 393.175 1.03435 -1.18907 0
M  V30 4191 C 394.085 2.15075 -0.937015 0
M  V30 4192 C 395.101 1.73706 0.101085 0
M  V30 4193 O 396.277 2.01232 -0.0822948 0
M  V30 4194 C 393.342 3.43458 -0.473057 0
M  V30 4195 C 392.403 3.99172 -1.57989 0
M  V30 4196 C 391.636 5.21427 -1.13797 0
M  V30 4197 O 391.859 5.704 0.000725941 0
M  V30 4198 O 390.793 5.69837 -1.9383 0
M  V30 4199 H 394.619 2.39198 -1.87131 0
M  V30 4200 H 392.204 1.13506 -0.971427 0
M  V30 4201 H 394.086 4.20811 -0.222702 0
M  V30 4202 H 392.761 3.20793 0.432869 0
M  V30 4203 H 391.668 3.23178 -1.88433 0
M  V30 4204 H 393.001 4.2619 -2.46217 0
M  V30 4205 N 394.653 0.992116 1.22453 0
M  V30 4206 C 395.899 0.668523 1.91464 0
M  V30 4207 C 396.232 -0.797313 1.77078 0
M  V30 4208 O 395.507 -1.5765 1.13916 0
M  V30 4209 C 395.79 1.07424 3.43703 0
M  V30 4210 C 395.643 2.59857 3.67143 0
M  V30 4211 C 396.962 0.626891 4.35612 0
M  V30 4212 H 394.081 0.244341 0.695318 0
M  V30 4213 H 396.723 1.2355 1.44345 0
M  V30 4214 H 394.873 0.591816 3.83966 0
M  V30 4215 H 396.545 3.15764 3.3629 0
M  V30 4216 H 394.788 3.01961 3.11451 0
M  V30 4217 H 395.459 2.83296 4.73759 0
M  V30 4218 H 397.935 1.04125 4.02861 0
M  V30 4219 H 396.811 0.939076 5.40807 0
M  V30 4220 H 397.072 -0.472457 4.39568 0
M  V30 4221 N 396.131 -1.37776 0.765217 0
M  V30 4222 C 397.542 -1.82521 0.392819 0
M  V30 4223 C 397.893 -1.63789 -1.08017 0
M  V30 4224 O 397.018 -1.14542 -1.83601 0
M  V30 4225 C 397.613 -3.31358 0.706214 0
M  V30 4226 C 396.172 -3.74406 0.386952 0
M  V30 4227 C 395.319 -2.60394 0.953422 0
M  V30 4228 H 398.27 -1.2634 0.960412 0
M  V30 4229 H 398.291 -3.80498 -0.0114706 0
M  V30 4230 H 397.803 -3.44959 1.77833 0
M  V30 4231 H 395.904 -3.66377 -0.678112 0
M  V30 4232 H 396.017 -4.70749 0.890636 0
M  V30 4233 H 394.381 -2.51878 0.378064 0
M  V30 4234 H 395.164 -2.76791 2.03081 0
M  V30 4235 N 397.609 -0.515225 -1.4894 0
M  V30 4236 C 398.539 0.244628 -2.32215 0
M  V30 4237 C 399.52 0.949136 -1.41157 0
M  V30 4238 O 400.705 0.937783 -1.70057 0
M  V30 4239 C 397.835 1.30096 -3.22013 0
M  V30 4240 C 396.789 0.715486 -4.21977 0
M  V30 4241 C 396.115 1.87339 -5.00808 0
M  V30 4242 C 397.415 -0.302982 -5.2142 0
M  V30 4243 H 399.109 -0.450501 -2.95991 0
M  V30 4244 H 396.655 -0.218098 -1.42339 0
M  V30 4245 H 398.608 1.84037 -3.79089 0
M  V30 4246 H 397.332 2.02547 -2.56207 0
M  V30 4247 H 395.991 0.197715 -3.66066 0
M  V30 4248 H 395.639 2.58592 -4.31438 0
M  V30 4249 H 395.339 1.48764 -5.68457 0
M  V30 4250 H 396.863 2.41686 -5.60732 0
M  V30 4251 H 398.277 0.148802 -5.73107 0
M  V30 4252 H 396.674 -0.60532 -5.97039 0
M  V30 4253 H 397.744 -1.21395 -4.69459 0
M  V30 4254 N 399.087 1.5561 -0.249682 0
M  V30 4255 C 400.312 2.03865 0.381305 0
M  V30 4256 C 400.737 1.12769 1.50548 0
M  V30 4257 O 400.095 0.121189 1.80895 0
M  V30 4258 C 400.143 3.50101 0.863816 0
M  V30 4259 O 399.247 3.62132 1.97318 0
M  V30 4260 H 398.588 0.658827 0.0827194 0
M  V30 4261 H 401.118 2.01105 -0.376552 0
M  V30 4262 H 401.128 3.90975 1.1663 0
M  V30 4263 H 399.803 4.1588 0.0411816 0
M  V30 4264 H 398.38 3.33155 1.67517 0
M  V30 4265 N 400.565 -0.0233959 1.57583 0
M  V30 4266 C 401.528 -1.00693 2.05897 0
M  V30 4267 C 402.528 -1.28693 0.964092 0
M  V30 4268 O 403.718 -1.23602 1.22753 0
M  V30 4269 C 400.85 -2.33825 2.4807 0
M  V30 4270 H 402.043 -0.589476 2.9405 0
M  V30 4271 H 399.596 -0.270354 1.53944 0
M  V30 4272 H 400.331 -2.80307 1.6309 0
M  V30 4273 H 400.116 -2.1483 3.2801 0
M  V30 4274 H 401.606 -3.04426 2.85857 0
M  V30 4275 N 402.043 -1.548 -0.295768 0
M  V30 4276 C 402.973 -1.89115 -1.36959 0
M  V30 4277 C 403.954 -0.75059 -1.52644 0
M  V30 4278 O 405.139 -1.00678 -1.66065 0
M  V30 4279 C 402.269 -2.14307 -2.73295 0
M  V30 4280 C 401.223 -3.30151 -2.72368 0
M  V30 4281 C 400.549 -3.40772 -4.12042 0
M  V30 4282 C 401.849 -4.67126 -2.33646 0
M  V30 4283 H 403.543 -2.79053 -1.08488 0
M  V30 4284 H 401.089 -1.34266 -0.520443 0
M  V30 4285 H 403.042 -2.36898 -3.48507 0
M  V30 4286 H 401.766 -1.21145 -3.03301 0
M  V30 4287 H 400.425 -3.0749 -1.99613 0
M  V30 4288 H 400.073 -2.45117 -4.39234 0
M  V30 4289 H 399.773 -4.18645 -4.12322 0
M  V30 4290 H 401.297 -3.6563 -4.89027 0
M  V30 4291 H 402.711 -4.89414 -2.98575 0
M  V30 4292 H 401.108 -5.47751 -2.45129 0
M  V30 4293 H 402.178 -4.67489 -1.28772 0
M  V30 4294 N 403.521 0.559213 -1.47345 0
M  V30 4295 C 404.749 1.34194 -1.57479 0
M  V30 4296 C 405.164 1.87463 -0.224261 0
M  V30 4297 O 404.521 1.64888 0.782185 0
M  V30 4298 C 404.572 2.51324 -2.59843 0
M  V30 4299 O 404.293 2.00256 -3.89653 0
M  V30 4300 C 405.794 3.43563 -2.80142 0
M  V30 4301 H 403.014 0.409136 -0.531835 0
M  V30 4302 H 405.558 0.677609 -1.92947 0
M  V30 4303 H 403.713 3.13699 -2.27314 0
M  V30 4304 H 404.127 2.76708 -4.4557 0
M  V30 4305 H 405.601 4.2217 -3.55635 0
M  V30 4306 H 406.078 3.9698 -1.87892 0
M  V30 4307 H 406.684 2.87005 -3.1386 0
M  V30 4308 N 404.999 1.35443 0.805782 0
M  V30 4309 C 405.947 1.28465 1.93906 0
M  V30 4310 C 406.941 0.17943 1.68447 0
M  V30 4311 O 408.147 0.345459 1.76654 0
M  V30 4312 H 404.522 0.399528 0.637088 0
M  V30 4313 H 406.493 2.24206 1.96912 0
M  V30 4314 C 405.242 1.07432 3.30687 0
M  V30 4315 H 404.565 1.91716 3.50835 0
M  V30 4316 H 406.005 1.06591 4.10383 0
M  V30 4317 C 404.464 -0.22179 3.36169 0
M  V30 4318 O 404.994 -1.21731 3.82811 0
M  V30 4319 N 403.2 -0.260841 2.89427 0
M  V30 4320 H 402.747 0.549884 2.51663 0
M  V30 4321 H 402.705 -1.12777 2.93477 0
M  V30 4322 N 406.477 -1.02803 1.19454 0
M  V30 4323 C 407.726 -1.7562 0.991996 0
M  V30 4324 C 408.039 -1.89672 -0.477901 0
M  V30 4325 O 409.245 -2.59468 -0.799287 0
M  V30 4326 C 407.701 -3.15812 1.72601 0
M  V30 4327 C 407.309 -3.0981 3.23607 0
M  V30 4328 C 409.053 -3.92918 1.60674 0
M  V30 4329 C 406.96 -4.44939 3.89594 0
M  V30 4330 H 405.89 -0.658352 0.367543 0
M  V30 4331 H 408.541 -1.15044 1.42959 0
M  V30 4332 H 406.923 -3.7686 1.21624 0
M  V30 4333 H 408.097 -2.58138 3.81709 0
M  V30 4334 H 406.412 -2.46201 3.35819 0
M  V30 4335 H 409.009 -4.9287 2.07323 0
M  V30 4336 H 409.352 -4.12502 0.561025 0
M  V30 4337 H 409.885 -3.38472 2.09001 0
M  V30 4338 H 406.624 -4.30559 4.94267 0
M  V30 4339 H 406.144 -4.96664 3.36281 0
M  V30 4340 H 407.823 -5.1382 3.93189 0
M  V30 4341 N 407.956 -0.998596 -1.21925 0
M  V30 4342 C 408.886 -0.573688 -2.26343 0
M  V30 4343 C 409.867 0.402296 -1.65274 0
M  V30 4344 O 411.052 0.291683 -1.91997 0
M  V30 4345 C 408.182 0.106839 -3.47136 0
M  V30 4346 C 407.136 -0.788269 -4.20678 0
M  V30 4347 C 406.462 0.0254927 -5.34694 0
M  V30 4348 C 407.762 -2.08784 -4.78755 0
M  V30 4349 H 409.456 -1.44651 -2.62138 0
M  V30 4350 H 407.002 -0.696975 -1.26009 0
M  V30 4351 H 408.955 0.415531 -4.19346 0
M  V30 4352 H 407.679 1.01424 -3.10452 0
M  V30 4353 H 406.338 -1.08069 -3.50309 0
M  V30 4354 H 405.986 0.933989 -4.94253 0
M  V30 4355 H 405.686 -0.570437 -5.84825 0
M  V30 4356 H 407.21 0.328147 -6.09718 0
M  V30 4357 H 408.624 -1.84272 -5.42878 0
M  V30 4358 H 407.021 -2.63307 -5.39249 0
M  V30 4359 H 408.091 -2.76284 -3.98491 0
M  V30 4360 N 409.434 1.37368 -0.772513 0
M  V30 4361 C 410.659 2.0447 -0.347386 0
M  V30 4362 C 411.084 1.57882 1.0225 0
M  V30 4363 O 410.442 0.73941 1.65537 0
M  V30 4364 C 410.49 3.58369 -0.400479 0
M  V30 4365 O 409.594 4.0803 0.598789 0
M  V30 4366 H 408.935 0.646773 -0.15027 0
M  V30 4367 H 411.465 1.75667 -1.04892 0
M  V30 4368 H 411.475 4.07183 -0.258045 0
M  V30 4369 H 410.15 3.91633 -1.39986 0
M  V30 4370 H 408.727 3.70534 0.419411 0
M  V30 4371 N 410.912 0.523116 1.48665 0
M  V30 4372 C 411.875 -0.232592 2.28017 0
M  V30 4373 C 412.875 -0.874021 1.34972 0
M  V30 4374 O 414.065 -0.735132 1.57929 0
M  V30 4375 C 411.197 -1.33586 3.13636 0
M  V30 4376 H 412.39 0.464008 2.96289 0
M  V30 4377 H 409.943 0.278816 1.53793 0
M  V30 4378 H 410.678 -2.06593 2.4998 0
M  V30 4379 H 410.463 -0.881125 3.82071 0
M  V30 4380 H 411.953 -1.86759 3.73511 0
M  V30 4381 N 412.39 -1.55475 0.257931 0
M  V30 4382 C 413.322 -2.19192 -0.669881 0
M  V30 4383 C 414.335 -1.17148 -1.1305 0
M  V30 4384 O 415.524 -1.43959 -1.05537 0
M  V30 4385 C 412.624 -2.79016 -1.92363 0
M  V30 4386 C 411.797 -4.06586 -1.61265 0
M  V30 4387 C 410.856 -4.50622 -2.7171 0
M  V30 4388 O 409.882 -5.16765 -2.38627 0
M  V30 4389 N 411.084 -4.19325 -4.01431 0
M  V30 4390 H 413.849 -2.99441 -0.124635 0
M  V30 4391 H 411.41 -1.6171 0.0783311 0
M  V30 4392 H 413.402 -3.05427 -2.65511 0
M  V30 4393 H 411.972 -2.0286 -2.37837 0
M  V30 4394 H 411.192 -3.87646 -0.715811 0
M  V30 4395 H 412.48 -4.89737 -1.37967 0
M  V30 4396 H 411.878 -3.66247 -4.31138 0
M  V30 4397 H 410.435 -4.50547 -4.7101 0
M  V30 4398 N 413.868 0.0150385 -1.57593 0
M  V30 4399 C 414.798 1.01047 -2.10503 0
M  V30 4400 C 415.779 1.36816 -1.01071 0
M  V30 4401 O 416.964 1.45455 -1.28672 0
M  V30 4402 C 414.094 2.30708 -2.59598 0
M  V30 4403 C 413.048 2.09142 -3.73421 0
M  V30 4404 C 412.374 3.44685 -4.08774 0
M  V30 4405 C 413.674 1.46619 -5.01298 0
M  V30 4406 H 415.368 0.569978 -2.93925 0
M  V30 4407 H 412.914 0.272724 -1.41394 0
M  V30 4408 H 414.867 3.00687 -2.95238 0
M  V30 4409 H 413.591 2.76843 -1.73279 0
M  V30 4410 H 412.25 1.41592 -3.38153 0
M  V30 4411 H 411.898 3.88495 -3.195 0
M  V30 4412 H 411.598 3.31077 -4.8545 0
M  V30 4413 H 413.122 4.16004 -4.4696 0
M  V30 4414 H 414.536 2.06535 -5.34805 0
M  V30 4415 H 412.933 1.43544 -5.82679 0
M  V30 4416 H 414.003 0.433611 -4.82957 0
M  V30 4417 N 415.346 1.54954 0.287554 0
M  V30 4418 C 416.595 1.74081 1.01877 0
M  V30 4419 C 416.908 0.541135 1.87966 0
M  V30 4420 O 418.114 0.614491 2.64455 0
M  V30 4421 C 416.57 3.08042 1.86113 0
M  V30 4422 C 416.178 4.35531 1.04961 0
M  V30 4423 C 417.922 3.36523 2.58752 0
M  V30 4424 C 415.829 5.60538 1.88551 0
M  V30 4425 H 414.759 0.64884 0.384087 0
M  V30 4426 H 417.41 1.81426 0.275101 0
M  V30 4427 H 415.792 2.94696 2.64519 0
M  V30 4428 H 416.966 4.59751 0.31074 0
M  V30 4429 H 415.281 4.14085 0.43843 0
M  V30 4430 H 417.878 4.27122 3.21668 0
M  V30 4431 H 418.221 2.56 3.28283 0
M  V30 4432 H 418.754 3.50901 1.87386 0
M  V30 4433 H 415.493 6.43767 1.23466 0
M  V30 4434 H 415.013 5.40483 2.60074 0
M  V30 4435 H 416.692 5.98297 2.46273 0
M  V30 4436 N 416.824 -0.551391 1.4764 0
M  V30 4437 C 418.049 -1.33837 1.58437 0
M  V30 4438 C 418.474 -1.866 0.237063 0
M  V30 4439 O 417.832 -1.6328 -0.787994 0
M  V30 4440 C 417.88 -2.48014 2.61766 0
M  V30 4441 O 416.984 -3.50419 2.1744 0
M  V30 4442 H 416.325 -0.397299 0.532024 0
M  V30 4443 H 418.855 -0.665759 1.93465 0
M  V30 4444 H 418.865 -2.94503 2.82369 0
M  V30 4445 H 417.54 -2.08969 3.5959 0
M  V30 4446 H 416.117 -3.10196 2.06961 0
M  V30 4447 N 418.302 -1.35869 -0.798587 0
M  V30 4448 C 419.252 -1.25982 -1.90033 0
M  V30 4449 C 420.236 -0.153303 -1.60168 0
M  V30 4450 O 421.428 -0.38527 -1.72756 0
M  V30 4451 C 418.557 -1.04211 -3.27101 0
M  V30 4452 C 417.643 -2.19289 -3.63006 0
M  V30 4453 N 418.034 -3.44559 -3.70287 0
M  V30 4454 C 416.332 -2.10852 -3.93011 0
M  V30 4455 C 417.033 -4.20283 -4.02166 0
M  V30 4456 N 416.009 -3.49124 -4.16669 0
M  V30 4457 H 419.811 -2.20883 -1.93876 0
M  V30 4458 H 417.325 -1.28457 -0.993614 0
M  V30 4459 H 419.322 -0.952155 -4.05881 0
M  V30 4460 H 417.982 -0.102013 -3.2454 0
M  V30 4461 H 418.993 -3.7881 -3.53162 0
M  V30 4462 H 415.67 -1.24744 -3.98428 0
M  V30 4463 H 417.06 -5.28575 -4.14799 0
M  V30 4464 N 419.78 1.02168 -1.19998 0
M  V30 4465 C 421.026 1.7606 -1.01855 0
M  V30 4466 C 421.381 1.87178 0.445222 0
M  V30 4467 O 420.674 1.3828 1.32624 0
M  V30 4468 C 420.868 3.18081 -1.62969 0
M  V30 4469 C 420.697 3.20809 -3.15137 0
M  V30 4470 C 419.467 3.28342 -3.84083 0
M  V30 4471 C 421.665 3.07268 -4.1242 0
M  V30 4472 N 419.647 3.2052 -5.23584 0
M  V30 4473 C 421.018 3.0716 -5.38566 0
M  V30 4474 C 423.073 2.91448 -4.03686 0
M  V30 4475 C 421.776 2.92853 -6.56985 0
M  V30 4476 C 423.802 2.78494 -5.21723 0
M  V30 4477 C 423.164 2.79046 -6.46771 0
M  V30 4478 H 419.263 0.655192 -0.426905 0
M  V30 4479 H 421.847 1.21564 -1.52087 0
M  V30 4480 H 420.018 3.70882 -1.15329 0
M  V30 4481 H 421.75 3.80375 -1.38192 0
M  V30 4482 H 418.505 3.34859 -3.34913 0
M  V30 4483 H 418.929 3.19997 -5.96599 0
M  V30 4484 H 423.571 2.89838 -3.07821 0
M  V30 4485 H 421.289 2.93213 -7.53028 0
M  V30 4486 H 424.875 2.67278 -5.16773 0
M  V30 4487 H 423.755 2.69134 -7.36571 0
M  V30 4488 N 421.258 1.00505 1.21394 0
M  V30 4489 C 422.205 0.565496 2.23765 0
M  V30 4490 C 423.175 -0.408466 1.60999 0
M  V30 4491 O 424.36 -0.310503 1.88257 0
M  V30 4492 C 421.5 -0.101667 3.4495 0
M  V30 4493 C 420.613 0.915479 4.22188 0
M  V30 4494 C 419.748 0.220574 5.30742 0
M  V30 4495 C 418.787 1.22527 5.99711 0
M  V30 4496 N 417.924 0.557831 6.9988 0
M  V30 4497 H 422.764 1.44314 2.60725 0
M  V30 4498 H 420.301 0.722643 1.28126 0
M  V30 4499 H 422.259 -0.505504 4.14126 0
M  V30 4500 H 420.889 -0.94303 3.08718 0
M  V30 4501 H 419.941 1.43756 3.52191 0
M  V30 4502 H 421.253 1.68005 4.69655 0
M  V30 4503 H 420.407 -0.239368 6.06228 0
M  V30 4504 H 419.146 -0.576401 4.84282 0
M  V30 4505 H 418.151 1.69571 5.22997 0
M  V30 4506 H 419.376 2.02332 6.48258 0
M  V30 4507 H 417.322 -0.219486 6.55633 0
M  V30 4508 H 417.239 1.26065 7.45415 0
M  V30 4509 H 418.507 0.121095 7.79406 0
M  V30 4510 N 422.737 -1.36956 0.779787 0
M  V30 4511 C 423.985 -1.99097 0.347079 0
M  V30 4512 C 424.306 -1.62206 -1.08232 0
M  V30 4513 O 423.576 -0.891373 -1.74446 0
M  V30 4514 H 422.156 -0.736409 0.125342 0
M  V30 4515 H 424.818 -1.67308 0.999696 0
M  V30 4516 H 423.914 -3.09107 0.431162 0
M  V30 4517 N 424.215 -0.530993 -1.48385 0
M  V30 4518 C 425.163 0.244595 -2.3131 0
M  V30 4519 C 426.157 0.93451 -1.41291 0
M  V30 4520 O 427.363 0.85878 -1.58193 0
M  V30 4521 H 423.738 0.0977472 -0.74562 0
M  V30 4522 H 425.709 -0.474369 -2.94605 0
M  V30 4523 C 424.458 1.2779 -3.23365 0
M  V30 4524 H 423.781 0.756439 -3.92579 0
M  V30 4525 H 425.221 1.79198 -3.84271 0
M  V30 4526 C 423.68 2.31205 -2.45042 0
M  V30 4527 O 424.21 3.37661 -2.17596 0
M  V30 4528 N 422.416 2.04446 -2.0652 0
M  V30 4529 H 421.963 1.17891 -2.2904 0
M  V30 4530 H 421.921 2.73861 -1.54427 0
M  V30 4531 N 425.693 1.55336 -0.266172 0
M  V30 4532 C 426.626 2.18256 0.666296 0
M  V30 4533 C 427.604 1.14064 1.1588 0
M  V30 4534 O 428.788 1.42546 1.23341 0
M  V30 4535 C 425.915 2.79867 1.90768 0
M  V30 4536 C 424.961 3.97283 1.55141 0
M  V30 4537 S 425.794 5.31694 0.637313 0
M  V30 4538 C 426.95 5.96769 1.88727 0
M  V30 4539 H 427.183 2.97008 0.131647 0
M  V30 4540 H 424.716 1.54317 -0.0504869 0
M  V30 4541 H 426.674 3.15996 2.62025 0
M  V30 4542 H 425.335 2.01025 2.41346 0
M  V30 4543 H 424.528 4.3905 2.4749 0
M  V30 4544 H 424.13 3.6253 0.919113 0
M  V30 4545 H 426.422 6.15458 2.83227 0
M  V30 4546 H 427.365 6.91752 1.51276 0
M  V30 4547 H 427.773 5.26034 2.04814 0
M  V30 4548 N 427.171 -0.0066808 1.57599 0
M  V30 4549 C 428.399 -0.704087 1.94551 0
M  V30 4550 C 428.814 -1.67677 0.867746 0
M  V30 4551 O 428.171 -1.8185 -0.153925 0
M  V30 4552 C 428.222 -1.44177 3.31505 0
M  V30 4553 O 427.943 -0.508097 4.35144 0
M  V30 4554 C 429.444 -2.23429 3.82876 0
M  V30 4555 H 426.664 -0.196523 0.641576 0
M  V30 4556 H 429.208 0.042453 2.04456 0
M  V30 4557 H 427.363 -2.13999 3.22929 0
M  V30 4558 H 427.777 -1.02782 5.14331 0
M  V30 4559 H 429.251 -2.70552 4.8115 0
M  V30 4560 H 429.728 -3.05818 3.15233 0
M  V30 4561 H 430.334 -1.58636 3.94607 0
M  V30 4562 N 428.649 -1.55105 -0.279332 0
M  V30 4563 C 430.065 -1.46803 -0.626187 0
M  V30 4564 C 430.265 -0.676939 -1.89789 0
M  V30 4565 O 429.321 -0.19326 -2.51759 0
M  V30 4566 C 430.634 -2.90962 -0.759034 0
M  V30 4567 C 432.182 -3.01138 -0.853504 0
M  V30 4568 C 432.657 -4.46539 -1.01818 0
M  V30 4569 N 434.148 -4.50341 -1.08386 0
M  V30 4570 C 434.883 -5.60053 -1.22996 0
M  V30 4571 N 434.379 -6.79645 -1.34366 0
M  V30 4572 N 436.172 -5.47783 -1.26056 0
M  V30 4573 H 428.323 -2.04996 0.555921 0
M  V30 4574 H 430.586 -0.929325 0.187239 0
M  V30 4575 H 430.292 -3.51544 0.104852 0
M  V30 4576 H 430.166 -3.39619 -1.64131 0
M  V30 4577 H 432.553 -2.40658 -1.70786 0
M  V30 4578 H 432.634 -2.55745 0.0532466 0
M  V30 4579 H 432.278 -5.0762 -0.168504 0
M  V30 4580 H 432.208 -4.89583 -1.93948 0
M  V30 4581 H 434.699 -3.64191 -1.00864 0
M  V30 4582 H 435.012 -7.59012 -1.4533 0
M  V30 4583 H 433.357 -6.82469 -1.31382 0
M  V30 4584 H 436.548 -4.53294 -1.168 0
M  V30 4585 H 436.721 -6.33331 -1.37098 0
M  V30 4586 N 430.127 0.543554 -1.4793 0
M  V30 4587 C 431.057 1.65888 -1.64327 0
M  V30 4588 C 432.038 1.62818 -0.492383 0
M  V30 4589 O 433.223 1.80226 -0.723338 0
M  V30 4590 C 430.353 3.04506 -1.67013 0
M  V30 4591 C 429.307 3.2243 -2.81466 0
M  V30 4592 C 428.633 4.61972 -2.69233 0
M  V30 4593 C 429.933 3.06496 -4.22915 0
M  V30 4594 H 431.627 1.52421 -2.57698 0
M  V30 4595 H 429.173 0.731849 -1.24016 0
M  V30 4596 H 431.126 3.82391 -1.77074 0
M  V30 4597 H 429.85 3.18964 -0.70212 0
M  V30 4598 H 428.509 2.46957 -2.70938 0
M  V30 4599 H 428.157 4.73247 -1.7043 0
M  V30 4600 H 427.857 4.74911 -3.46025 0
M  V30 4601 H 429.381 5.41974 -2.81242 0
M  V30 4602 H 430.795 3.74186 -4.34348 0
M  V30 4603 H 429.192 3.30938 -5.006 0
M  V30 4604 H 430.262 2.03077 -4.40327 0
M  V30 4605 N 431.605 1.3629 0.791371 0
M  V30 4606 C 433.016 1.27225 1.36641 0
M  V30 4607 C 433.367 -0.0887968 1.95999 0
M  V30 4608 O 432.492 -0.990207 1.92416 0
M  V30 4609 C 433.087 2.30375 2.48421 0
M  V30 4610 C 431.646 2.25004 3.01746 0
M  V30 4611 C 430.793 2.15259 1.7481 0
M  V30 4612 H 433.744 1.47198 0.593173 0
M  V30 4613 H 433.765 1.93905 3.27385 0
M  V30 4614 H 433.277 3.29422 2.05189 0
M  V30 4615 H 431.378 1.29417 3.49403 0
M  V30 4616 H 431.491 3.1761 3.58693 0
M  V30 4617 H 429.855 1.61482 1.96966 0
M  V30 4618 H 430.638 3.16191 1.33709 0
M  V30 4619 N 433.083 -1.0153 1.20538 0
M  V30 4620 C 434.499 -1.27461 0.96051 0
M  V30 4621 C 434.699 -1.98273 -0.359193 0
M  V30 4622 O 433.755 -2.27886 -1.0874 0
M  V30 4623 C 435.068 -2.10837 2.14402 0
M  V30 4624 C 436.616 -2.24099 2.18515 0
M  V30 4625 C 437.091 -3.10852 3.36355 0
M  V30 4626 N 438.582 -3.18441 3.36377 0
M  V30 4627 C 439.317 -3.85795 4.24205 0
M  V30 4628 N 438.813 -4.55264 5.22213 0
M  V30 4629 N 440.606 -3.82331 4.12043 0
M  V30 4630 H 432.757 -0.539907 2.05423 0
M  V30 4631 H 435.02 -0.30092 0.898972 0
M  V30 4632 H 434.726 -1.66144 3.09983 0
M  V30 4633 H 434.6 -3.11576 2.12604 0
M  V30 4634 H 436.987 -2.68016 1.23497 0
M  V30 4635 H 437.068 -1.22865 2.24361 0
M  V30 4636 H 436.712 -2.6764 4.31661 0
M  V30 4637 H 436.642 -4.12177 3.27746 0
M  V30 4638 H 439.133 -2.68978 2.65442 0
M  V30 4639 H 439.446 -5.04331 5.85551 0
M  V30 4640 H 437.791 -4.54085 5.26148 0
M  V30 4641 H 440.982 -3.27207 3.34743 0
M  V30 4642 H 441.155 -4.34547 4.807 0
M  V30 4643 N 434.561 -1.01147 -1.20859 0
M  V30 4644 C 435.491 -0.597663 -2.25722 0
M  V30 4645 C 436.472 0.384744 -1.65692 0
M  V30 4646 O 437.657 0.271303 -1.92296 0
M  V30 4647 C 434.787 0.0700149 -3.47229 0
M  V30 4648 C 433.741 -0.832843 -4.19819 0
M  V30 4649 C 433.067 -0.0312202 -5.34691 0
M  V30 4650 C 434.367 -2.1385 -4.76514 0
M  V30 4651 H 436.061 -1.47423 -2.60589 0
M  V30 4652 H 433.607 -0.710301 -1.25263 0
M  V30 4653 H 435.56 0.37103 -4.19763 0
M  V30 4654 H 434.284 0.981259 -3.11511 0
M  V30 4655 H 432.943 -1.11778 -3.49144 0
M  V30 4656 H 432.591 0.881515 -4.95215 0
M  V30 4657 H 432.291 -0.632434 -5.84187 0
M  V30 4658 H 433.815 0.26346 -6.10031 0
M  V30 4659 H 435.229 -1.9002 -5.40893 0
M  V30 4660 H 433.626 -2.69012 -5.36426 0
M  V30 4661 H 434.696 -2.80495 -3.95538 0
M  V30 4662 N 436.039 1.36541 -0.78704 0
M  V30 4663 C 436.969 2.32659 -0.197992 0
M  V30 4664 C 437.95 1.56533 0.665697 0
M  V30 4665 O 439.135 1.84698 0.60001 0
M  V30 4666 C 436.265 3.40778 0.669901 0
M  V30 4667 C 435.219 4.27897 -0.0937039 0
M  V30 4668 C 434.545 5.27163 0.894629 0
M  V30 4669 C 435.845 5.06334 -1.28154 0
M  V30 4670 H 437.539 2.82171 -1.00099 0
M  V30 4671 H 435.085 1.35665 -0.482793 0
M  V30 4672 H 437.038 4.07008 1.09191 0
M  V30 4673 H 435.762 2.89827 1.50558 0
M  V30 4674 H 434.421 3.6322 -0.49666 0
M  V30 4675 H 434.069 4.72486 1.72527 0
M  V30 4676 H 433.769 5.86317 0.388149 0
M  V30 4677 H 435.293 5.96266 1.31525 0
M  V30 4678 H 436.707 5.65617 -0.93541 0
M  V30 4679 H 435.104 5.74888 -1.72115 0
M  V30 4680 H 436.174 4.38114 -2.07807 0
M  V30 4681 N 437.518 0.538854 1.48102 0
M  V30 4682 C 438.764 0.00801365 2.02798 0
M  V30 4683 C 439.097 -1.3309 1.41424 0
M  V30 4684 O 438.372 -1.86169 0.563158 0
M  V30 4685 C 438.655 -0.104589 3.59948 0
M  V30 4686 C 438.508 1.26012 4.31788 0
M  V30 4687 C 439.827 -0.827055 4.32259 0
M  V30 4688 H 436.946 0.00438624 0.736987 0
M  V30 4689 H 439.588 0.6976 1.7673 0
M  V30 4690 H 437.738 -0.691893 3.82289 0
M  V30 4691 H 439.41 1.88922 4.2084 0
M  V30 4692 H 437.653 1.83968 3.92859 0
M  V30 4693 H 438.324 1.13424 5.40221 0
M  V30 4694 H 440.8 -0.328578 4.14801 0
M  V30 4695 H 439.676 -0.87476 5.41885 0
M  V30 4696 H 439.937 -1.87927 4.0017 0
M  V30 4697 N 438.996 -1.55193 0.274407 0
M  V30 4698 C 439.926 -2.25471 -0.607032 0
M  V30 4699 C 440.907 -1.24461 -1.15946 0
M  V30 4700 O 442.092 -1.53179 -1.19373 0
M  V30 4701 C 439.222 -2.97526 -1.79153 0
M  V30 4702 C 438.176 -4.05459 -1.37067 0
M  V30 4703 C 437.502 -4.65084 -2.6382 0
M  V30 4704 C 438.802 -5.19691 -0.521389 0
M  V30 4705 H 440.496 -2.99393 -0.0209343 0
M  V30 4706 H 438.042 -1.43997 -0.00862866 0
M  V30 4707 H 439.995 -3.45402 -2.41404 0
M  V30 4708 H 438.719 -2.21138 -2.40344 0
M  V30 4709 H 437.378 -3.58393 -0.771355 0
M  V30 4710 H 437.026 -3.85365 -3.23268 0
M  V30 4711 H 436.726 -5.37961 -2.36372 0
M  V30 4712 H 438.25 -5.15708 -3.26921 0
M  V30 4713 H 439.664 -5.63623 -1.04889 0
M  V30 4714 H 438.061 -5.99126 -0.341825 0
M  V30 4715 H 439.131 -4.82713 0.46 0
M  V30 4716 N 440.474 -0.00167713 -1.576 0
M  V30 4717 C 441.885 0.54091 -1.78693 0
M  V30 4718 C 442.236 1.7386 -0.909247 0
M  V30 4719 O 441.361 2.16109 -0.112176 0
M  V30 4720 C 441.956 0.98806 -3.24072 0
M  V30 4721 C 440.515 1.47594 -3.46256 0
M  V30 4722 C 439.662 0.42792 -2.73978 0
M  V30 4723 H 442.613 -0.22784 -1.57056 0
M  V30 4724 H 442.634 1.85398 -3.32277 0
M  V30 4725 H 442.146 0.116164 -3.87926 0
M  V30 4726 H 440.247 2.36868 -2.87618 0
M  V30 4727 H 440.36 1.50225 -4.54939 0
M  V30 4728 H 438.724 0.889934 -2.38647 0
M  V30 4729 H 439.507 -0.435038 -3.40532 0
M  V30 4730 N 441.952 1.55251 0.271103 0
M  V30 4731 C 442.899 1.88261 1.33516 0
M  V30 4732 C 443.869 0.734296 1.48988 0
M  V30 4733 O 445.054 0.985741 1.63364 0
M  V30 4734 C 442.194 2.16168 2.69008 0
M  V30 4735 C 441.307 3.43678 2.61743 0
M  V30 4736 C 440.442 3.61276 3.89427 0
M  V30 4737 C 439.481 4.82472 3.7668 0
M  V30 4738 N 438.618 4.96717 4.96202 0
M  V30 4739 H 443.458 2.79015 1.04665 0
M  V30 4740 H 440.995 1.38137 0.505618 0
M  V30 4741 H 442.953 2.30349 3.47844 0
M  V30 4742 H 441.583 1.28646 2.96057 0
M  V30 4743 H 440.635 3.37959 1.74607 0
M  V30 4744 H 441.947 4.3265 2.48224 0
M  V30 4745 H 441.101 3.75284 4.76704 0
M  V30 4746 H 439.84 2.70492 4.05814 0
M  V30 4747 H 438.845 4.68465 2.87786 0
M  V30 4748 H 440.07 5.74692 3.61809 0
M  V30 4749 H 438.016 4.08865 5.12997 0
M  V30 4750 H 437.933 5.79738 4.85222 0
M  V30 4751 H 439.201 5.15113 5.85046 0
M  V30 4752 N 443.43 -0.535701 1.48216 0
M  V30 4753 C 444.677 -1.29183 1.55942 0
M  V30 4754 C 445.005 -1.93125 0.230857 0
M  V30 4755 O 444.26 -1.79556 -0.778331 0
M  V30 4756 C 444.559 -2.4068 2.64212 0
M  V30 4757 C 444.225 -1.94428 4.06827 0
M  V30 4758 C 442.887 -1.81532 4.45645 0
M  V30 4759 C 445.239 -1.59405 4.96225 0
M  V30 4760 C 442.567 -1.31939 5.71672 0
M  V30 4761 C 444.919 -1.11276 6.22736 0
M  V30 4762 C 443.583 -0.969924 6.60416 0
M  V30 4763 H 442.853 -0.472715 0.570632 0
M  V30 4764 H 445.5 -0.598437 1.81909 0
M  V30 4765 H 443.805 -3.15666 2.32083 0
M  V30 4766 H 445.502 -2.98822 2.67407 0
M  V30 4767 H 442.092 -2.05415 3.76168 0
M  V30 4768 H 446.276 -1.68231 4.66917 0
M  V30 4769 H 441.532 -1.19562 5.99596 0
M  V30 4770 H 445.706 -0.832453 6.91407 0
M  V30 4771 H 443.333 -0.583436 7.57958 0
M  V30 4772 N 444.908 -1.36708 -0.784132 0
M  V30 4773 C 446.133 -1.34565 -1.5782 0
M  V30 4774 C 446.558 0.0695257 -1.87971 0
M  V30 4775 O 445.916 1.04302 -1.48293 0
M  V30 4776 C 445.964 -2.17952 -2.87279 0
M  V30 4777 O 445.068 -1.57563 -3.81114 0
M  V30 4778 H 444.409 -0.460337 -0.478524 0
M  V30 4779 H 446.939 -1.80064 -0.971495 0
M  V30 4780 H 446.949 -2.30721 -3.365 0
M  V30 4781 H 445.624 -3.20823 -2.64661 0
M  V30 4782 H 444.201 -1.53764 -3.39722 0
M  V30 4783 N 446.386 1.0089 -1.21074 0
M  V30 4784 C 447.316 2.1145 -0.990523 0
M  V30 4785 C 448.297 1.69897 0.0831699 0
M  V30 4786 O 449.482 1.94052 -0.0758853 0
M  V30 4787 C 446.612 3.42914 -0.550177 0
M  V30 4788 C 445.566 3.98244 -1.56799 0
M  V30 4789 C 444.892 5.25568 -0.984013 0
M  V30 4790 C 446.192 4.30752 -2.95381 0
M  V30 4791 H 447.886 2.3013 -1.91521 0
M  V30 4792 H 445.432 1.10592 -0.92225 0
M  V30 4793 H 447.385 4.19653 -0.383305 0
M  V30 4794 H 446.109 3.24014 0.41015 0
M  V30 4795 H 444.768 3.23621 -1.72236 0
M  V30 4796 H 444.416 5.02998 -0.0155216 0
M  V30 4797 H 444.116 5.63551 -1.66384 0
M  V30 4798 H 445.64 6.04955 -0.828378 0
M  V30 4799 H 447.054 4.98349 -2.8341 0
M  V30 4800 H 445.451 4.79869 -3.60341 0
M  V30 4801 H 446.521 3.39192 -3.46521 0
M  V30 4802 N 447.864 1.01787 1.20321 0
M  V30 4803 C 448.774 0.598898 2.26827 0
M  V30 4804 C 449.79 -0.36418 1.70146 0
M  V30 4805 O 450.966 -0.224812 2.00141 0
M  V30 4806 C 448.031 -0.0549769 3.46656 0
M  V30 4807 C 447.092 0.954205 4.18561 0
M  V30 4808 C 446.325 0.331439 5.3267 0
M  V30 4809 O 446.548 -0.86851 5.63749 0
M  V30 4810 O 445.482 1.0488 5.92692 0
M  V30 4811 H 449.308 1.48562 2.64883 0
M  V30 4812 H 446.893 0.787434 1.26964 0
M  V30 4813 H 448.775 -0.420102 4.19301 0
M  V30 4814 H 447.45 -0.915876 3.10473 0
M  V30 4815 H 446.357 1.37072 3.48083 0
M  V30 4816 H 447.69 1.78511 4.58688 0
M  V30 4817 N 449.342 -1.36122 0.79427 0
M  V30 4818 C 450.57 -2.03362 0.380989 0
M  V30 4819 C 450.985 -1.59881 -1.00416 0
M  V30 4820 O 450.342 -0.790515 -1.6449 0
M  V30 4821 C 450.393 -3.58804 0.440649 0
M  V30 4822 O 450.114 -4.007 1.77118 0
M  V30 4823 C 451.615 -4.43296 0.0186117 0
M  V30 4824 H 448.835 -0.652526 0.156367 0
M  V30 4825 H 451.379 -1.73998 1.07447 0
M  V30 4826 H 449.534 -3.8686 -0.204458 0
M  V30 4827 H 449.948 -4.95309 1.72538 0
M  V30 4828 H 451.422 -5.51887 0.111488 0
M  V30 4829 H 451.899 -4.2684 -1.03461 0
M  V30 4830 H 452.505 -4.20512 0.636395 0
M  V30 4831 N 450.82 -0.546701 -1.47814 0
M  V30 4832 C 451.73 0.21026 -2.33656 0
M  V30 4833 C 452.746 0.922413 -1.47538 0
M  V30 4834 O 453.922 0.893652 -1.80488 0
M  V30 4835 C 450.987 1.23348 -3.24016 0
M  V30 4836 C 450.048 0.529883 -4.26017 0
M  V30 4837 C 449.281 1.50435 -5.12059 0
M  V30 4838 O 449.504 2.73837 -5.00369 0
M  V30 4839 O 448.438 1.03459 -5.92942 0
M  V30 4840 H 452.264 -0.493605 -2.99662 0
M  V30 4841 H 449.849 -0.307427 -1.46203 0
M  V30 4842 H 451.731 1.82438 -3.79861 0
M  V30 4843 H 450.406 1.91945 -2.60651 0
M  V30 4844 H 449.313 -0.101948 -3.73961 0
M  V30 4845 H 450.646 -0.11445 -4.92067 0
M  V30 4846 N 452.299 1.55045 -0.282633 0
M  V30 4847 C 453.545 2.00056 0.332481 0
M  V30 4848 C 453.878 1.1708 1.54939 0
M  V30 4849 O 453.153 0.2427 1.9298 0
M  V30 4850 C 453.436 3.53086 0.70725 0
M  V30 4851 C 453.289 4.46813 -0.517521 0
M  V30 4852 C 454.608 4.12245 1.54084 0
M  V30 4853 H 451.727 0.727268 0.119373 0
M  V30 4854 H 454.369 1.85932 -0.391076 0
M  V30 4855 H 452.519 3.65253 1.32372 0
M  V30 4856 H 454.191 4.46579 -1.15607 0
M  V30 4857 H 452.434 4.18163 -1.1542 0
M  V30 4858 H 453.105 5.51595 -0.211426 0
M  V30 4859 H 455.581 4.03401 1.02013 0
M  V30 4860 H 454.457 5.19515 1.77186 0
M  V30 4861 H 454.718 3.62951 2.52427 0
M  V30 4862 N 453.777 0.010035 1.57597 0
M  V30 4863 C 455.054 -0.710296 1.82248 0
M  V30 4864 C 455.434 -1.91426 0.889911 0
M  V30 4865 O 454.782 -2.28424 -0.0590292 0
M  V30 4866 C 454.992 -1.10655 3.30993 0
M  V30 4867 C 456.34 -1.50621 3.96987 0
M  V30 4868 O 457.364 -1.20007 3.35375 0
M  V30 4869 O 456.223 -2.07587 5.05539 0
M  V30 4870 H 453.317 -0.34673 0.750804 0
M  V30 4871 H 455.863 0.0362578 1.69661 0
M  V30 4872 H 454.635 -0.248826 3.90508 0
M  V30 4873 H 454.258 -1.91189 3.48615 0
M  V30 4874 N 455.255 -1.55392 -0.262866 0
M  V30 4875 C 456.185 -1.91978 -1.32917 0
M  V30 4876 C 457.166 -0.7828 -1.51017 0
M  V30 4877 O 458.351 -1.04178 -1.63892 0
M  V30 4878 C 455.481 -2.20055 -2.68687 0
M  V30 4879 C 454.435 -3.35854 -2.65304 0
M  V30 4880 C 453.761 -3.49435 -4.04721 0
M  V30 4881 C 455.061 -4.71977 -2.23685 0
M  V30 4882 H 456.755 -2.81292 -1.02544 0
M  V30 4883 H 454.301 -1.3534 -0.491846 0
M  V30 4884 H 456.254 -2.44237 -3.43404 0
M  V30 4885 H 454.978 -1.27551 -3.00663 0
M  V30 4886 H 453.637 -3.11655 -1.93045 0
M  V30 4887 H 453.285 -2.54379 -4.33936 0
M  V30 4888 H 452.985 -4.27297 -4.0335 0
M  V30 4889 H 454.509 -3.7592 -4.81161 0
M  V30 4890 H 455.923 -4.95637 -2.88127 0
M  V30 4891 H 454.32 -5.52828 -2.33456 0
M  V30 4892 H 455.39 -4.70115 -1.18827 0
M  V30 4893 N 456.733 0.527833 -1.48498 0
M  V30 4894 C 458.149 0.856571 -1.34666 0
M  V30 4895 C 458.349 1.98271 -0.35931 0
M  V30 4896 O 457.405 2.51551 0.218703 0
M  V30 4897 C 458.718 1.22207 -2.74747 0
M  V30 4898 C 460.266 1.33183 -2.83251 0
M  V30 4899 C 460.741 1.73075 -4.24039 0
M  V30 4900 N 462.232 1.80174 -4.26722 0
M  V30 4901 C 462.967 2.1243 -5.32598 0
M  V30 4902 N 462.463 2.43096 -6.4875 0
M  V30 4903 N 464.256 2.13454 -5.19994 0
M  V30 4904 H 456.407 -0.215174 -2.11307 0
M  V30 4905 H 458.67 -0.0336281 -0.947403 0
M  V30 4906 H 458.376 0.468195 -3.4857 0
M  V30 4907 H 458.25 2.17173 -3.08409 0
M  V30 4908 H 460.637 2.07647 -2.09683 0
M  V30 4909 H 460.718 0.363333 -2.53206 0
M  V30 4910 H 460.362 0.991712 -4.98124 0
M  V30 4911 H 460.292 2.70979 -4.51529 0
M  V30 4912 H 462.783 1.58744 -3.42942 0
M  V30 4913 H 463.096 2.6682 -7.25277 0
M  V30 4914 H 461.441 2.40611 -6.52021 0
M  V30 4915 H 464.632 1.88956 -4.28268 0
M  V30 4916 H 464.805 2.38261 -6.02608 0
M  V30 4917 N 458.211 1.37122 0.776871 0
M  V30 4918 C 459.158 1.3247 1.88998 0
M  V30 4919 C 460.128 0.191143 1.64997 0
M  V30 4920 O 461.313 0.379683 1.86984 0
M  V30 4921 C 458.453 1.13241 3.25992 0
M  V30 4922 C 457.566 2.35782 3.61982 0
M  V30 4923 C 456.701 2.09465 4.88158 0
M  V30 4924 C 455.74 3.279 5.16864 0
M  V30 4925 N 454.877 3.01167 6.34226 0
M  V30 4926 H 459.717 2.27642 1.9231 0
M  V30 4927 H 457.254 1.13125 0.94027 0
M  V30 4928 H 459.212 1.00115 4.0501 0
M  V30 4929 H 457.842 0.217186 3.22069 0
M  V30 4930 H 456.894 2.59666 2.77989 0
M  V30 4931 H 458.206 3.24125 3.79137 0
M  V30 4932 H 457.36 1.93341 5.75069 0
M  V30 4933 H 456.099 1.18452 4.73097 0
M  V30 4934 H 455.104 3.44569 4.2843 0
M  V30 4935 H 456.329 4.19757 5.33836 0
M  V30 4936 H 454.275 2.12779 6.20533 0
M  V30 4937 H 454.192 3.83052 6.51772 0
M  V30 4938 H 455.46 2.88649 7.24087 0
M  V30 4939 N 459.689 -1.00246 1.21608 0
M  V30 4940 C 461.1 -1.55511 1.03312 0
M  V30 4941 C 461.451 -1.91946 -0.406332 0
M  V30 4942 O 460.576 -1.73753 -1.28992 0
M  V30 4943 C 461.171 -2.82576 1.86913 0
M  V30 4944 C 459.73 -3.34318 1.72941 0
M  V30 4945 C 458.877 -2.07487 1.83968 0
M  V30 4946 H 461.828 -0.824638 1.35593 0
M  V30 4947 H 461.849 -3.54559 1.38087 0
M  V30 4948 H 461.361 -2.56026 2.91672 0
M  V30 4949 H 459.462 -3.65797 0.70877 0
M  V30 4950 H 459.575 -4.05566 2.55055 0
M  V30 4951 H 457.939 -2.20603 1.27304 0
M  V30 4952 H 458.722 -1.83346 2.9024 0
M  V30 4953 N 461.167 -1.02423 -1.1978 0
M  V30 4954 C 462.097 -0.62157 -2.25075 0
M  V30 4955 C 463.078 0.367148 -1.6609 0
M  V30 4956 O 464.263 0.250892 -1.92573 0
M  V30 4957 C 461.393 0.0331826 -3.47284 0
M  V30 4958 C 460.347 -0.877323 -4.18912 0
M  V30 4959 C 459.673 -0.0879296 -5.34628 0
M  V30 4960 C 460.973 -2.18892 -4.74219 0
M  V30 4961 H 462.667 -1.50179 -2.59011 0
M  V30 4962 H 460.213 -0.723547 -1.24502 0
M  V30 4963 H 462.166 0.326488 -4.20133 0
M  V30 4964 H 460.89 0.948164 -3.12534 0
M  V30 4965 H 459.549 -1.15475 -3.47938 0
M  V30 4966 H 459.197 0.828941 -4.96123 0
M  V30 4967 H 458.897 -0.694359 -5.83483 0
M  V30 4968 H 460.421 0.198743 -6.10276 0
M  V30 4969 H 461.835 -1.95746 -5.38847 0
M  V30 4970 H 460.232 -2.74686 -5.33542 0
M  V30 4971 H 461.302 -2.84674 -3.92541 0
M  V30 4972 N 462.645 1.35699 -0.801477 0
M  V30 4973 C 463.555 2.33661 -0.209691 0
M  V30 4974 C 464.571 1.6162 0.644591 0
M  V30 4975 O 465.747 1.93529 0.557545 0
M  V30 4976 C 462.812 3.40816 0.636033 0
M  V30 4977 C 461.873 4.28639 -0.238147 0
M  V30 4978 C 461.106 5.30676 0.567307 0
M  V30 4979 O 461.329 5.41174 1.8024 0
M  V30 4980 O 460.263 6.01887 -0.0391336 0
M  V30 4981 H 464.089 2.8606 -1.01996 0
M  V30 4982 H 461.674 1.38379 -0.563164 0
M  V30 4983 H 463.556 4.06301 1.11791 0
M  V30 4984 H 462.231 2.90696 1.42399 0
M  V30 4985 H 461.138 3.66152 -0.767044 0
M  V30 4986 H 462.471 4.82143 -0.989915 0
M  V30 4987 N 464.123 0.554532 1.47522 0
M  V30 4988 C 465.071 -0.207765 2.3167 0
M  V30 4989 C 466.065 -0.911914 1.4276 0
M  V30 4990 O 467.271 -0.833504 1.59539 0
M  V30 4991 H 463.646 -0.0858726 0.747081 0
M  V30 4992 H 465.617 0.521178 2.93813 0
M  V30 4993 C 464.366 -1.2263 3.25357 0
M  V30 4994 H 463.689 -0.693887 3.93732 0
M  V30 4995 H 465.129 -1.73062 3.87073 0
M  V30 4996 C 463.588 -2.27278 2.4869 0
M  V30 4997 O 464.118 -3.34156 2.22941 0
M  V30 4998 N 462.324 -2.01134 2.09746 0
M  V30 4999 H 461.871 -1.14232 2.30887 0
M  V30 5000 H 461.829 -2.71369 1.58765 0
M  V30 5001 N 465.601 -1.54893 0.290851 0
M  V30 5002 C 466.531 -2.26103 -0.583084 0
M  V30 5003 C 467.512 -1.25684 -1.14619 0
M  V30 5004 O 468.697 -1.54436 -1.17741 0
M  V30 5005 C 465.827 -2.99409 -1.75987 0
M  V30 5006 C 464.781 -4.0689 -1.32758 0
M  V30 5007 C 464.107 -4.67856 -2.58872 0
M  V30 5008 C 465.407 -5.20215 -0.46624 0
M  V30 5009 H 467.101 -2.99398 0.0108214 0
M  V30 5010 H 464.647 -1.43998 0.00664468 0
M  V30 5011 H 466.6 -3.47943 -2.37727 0
M  V30 5012 H 465.324 -2.23675 -2.37985 0
M  V30 5013 H 463.983 -3.59191 -0.733299 0
M  V30 5014 H 463.631 -3.88772 -3.19163 0
M  V30 5015 H 463.331 -5.40438 -2.30653 0
M  V30 5016 H 464.855 -5.19147 -3.21433 0
M  V30 5017 H 466.269 -5.64704 -0.989047 0
M  V30 5018 H 464.666 -5.99455 -0.27826 0
M  V30 5019 H 465.736 -4.82198 0.511173 0
M  V30 5020 N 467.08 -0.0183926 -1.57589 0
M  V30 5021 C 468.328 0.661253 -1.90976 0
M  V30 5022 C 468.649 1.73281 -0.894353 0
M  V30 5023 O 467.919 1.9579 0.0656788 0
M  V30 5024 H 466.499 0.247233 -0.704901 0
M  V30 5025 H 469.161 -0.0636639 -1.94796 0
M  V30 5026 H 468.257 1.12083 -2.9128 0
M  V30 5027 N 468.558 1.5553 0.254621 0
M  V30 5028 C 469.491 1.84624 1.34124 0
M  V30 5029 C 470.469 0.700693 1.46728 0
M  V30 5030 O 471.653 0.94564 1.63064 0
M  V30 5031 C 468.78 2.02412 2.71564 0
M  V30 5032 C 467.826 3.25028 2.7615 0
M  V30 5033 S 468.659 4.81893 2.33538 0
M  V30 5034 C 469.815 5.02677 3.72917 0
M  V30 5035 H 470.048 2.76501 1.09245 0
M  V30 5036 H 467.581 1.47537 0.455211 0
M  V30 5037 H 469.539 2.13345 3.50705 0
M  V30 5038 H 468.2 1.11391 2.93685 0
M  V30 5039 H 467.393 3.34418 3.77069 0
M  V30 5040 H 466.995 3.12781 2.05046 0
M  V30 5041 H 469.287 4.89546 4.68349 0
M  V30 5042 H 470.23 6.0468 3.68467 0
M  V30 5043 H 470.638 4.30561 3.65072 0
M  V30 5044 N 470.036 -0.519951 1.48776 0
M  V30 5045 C 471.264 -1.29971 1.60982 0
M  V30 5046 C 471.679 -1.86803 0.273885 0
M  V30 5047 O 471.036 -1.66904 -0.738193 0
M  V30 5048 C 471.087 -2.44346 2.66415 0
M  V30 5049 O 470.808 -1.89855 3.94825 0
M  V30 5050 C 472.309 -3.36014 2.89153 0
M  V30 5051 H 469.529 -0.394891 0.542496 0
M  V30 5052 H 472.073 -0.626214 1.94676 0
M  V30 5053 H 470.228 -3.07562 2.35552 0
M  V30 5054 H 470.642 -2.64798 4.5275 0
M  V30 5055 H 472.116 -4.12593 3.66703 0
M  V30 5056 H 472.593 -3.91859 1.98351 0
M  V30 5057 H 473.199 -2.78582 3.21359 0
M  V30 5058 N 471.514 -1.37532 -0.769588 0
M  V30 5059 C 472.791 -1.23392 -1.51768 0
M  V30 5060 C 473.171 0.17157 -2.10402 0
M  V30 5061 O 472.519 1.17943 -1.95708 0
M  V30 5062 C 472.729 -2.33163 -2.59685 0
M  V30 5063 C 474.077 -2.70809 -3.27028 0
M  V30 5064 O 475.101 -2.32355 -2.69981 0
M  V30 5065 O 473.96 -3.37066 -4.30173 0
M  V30 5066 H 471.054 -0.481617 -0.67229 0
M  V30 5067 H 473.6 -1.49318 -0.806368 0
M  V30 5068 H 472.372 -3.27273 -2.14494 0
M  V30 5069 H 471.995 -2.08713 -3.38415 0
M  V30 5070 N 472.992 0.995999 -1.22138 0
M  V30 5071 C 473.925 2.08302 -0.931952 0
M  V30 5072 C 474.903 1.62127 0.123956 0
M  V30 5073 O 476.087 1.88499 -0.00696004 0
M  V30 5074 C 473.214 3.36317 -0.401068 0
M  V30 5075 C 472.26 4.01413 -1.44117 0
M  V30 5076 S 473.093 4.42664 -3.01345 0
M  V30 5077 C 474.249 5.73853 -2.49887 0
M  V30 5078 H 474.482 2.32532 -1.85246 0
M  V30 5079 H 472.015 1.13005 -1.0521 0
M  V30 5080 H 473.973 4.10375 -0.101352 0
M  V30 5081 H 472.634 3.10123 0.498272 0
M  V30 5082 H 471.827 4.9358 -1.01952 0
M  V30 5083 H 471.429 3.33668 -1.68943 0
M  V30 5084 H 473.721 6.50039 -1.90934 0
M  V30 5085 H 474.664 6.20841 -3.40532 0
M  V30 5086 H 475.072 5.31105 -1.9128 0
M  V30 5087 N 474.47 1.03057 1.19235 0
M  V30 5088 C 475.717 0.728019 1.88961 0
M  V30 5089 C 476.045 -0.743515 1.79728 0
M  V30 5090 O 475.3 -1.55729 1.1852 0
M  V30 5091 C 475.599 1.1268 3.39172 0
M  V30 5092 C 475.265 2.5969 3.68608 0
M  V30 5093 C 473.927 2.99854 3.76352 0
M  V30 5094 C 476.279 3.54793 3.81801 0
M  V30 5095 C 473.607 4.34031 3.94758 0
M  V30 5096 C 475.959 4.88675 4.0172 0
M  V30 5097 C 474.623 5.28526 4.07697 0
M  V30 5098 H 473.893 0.266401 0.691456 0
M  V30 5099 H 476.54 1.29373 1.41191 0
M  V30 5100 H 474.845 0.479722 3.88852 0
M  V30 5101 H 476.542 0.870203 3.91444 0
M  V30 5102 H 473.132 2.27575 3.63191 0
M  V30 5103 H 477.316 3.24914 3.7516 0
M  V30 5104 H 472.572 4.6444 3.97625 0
M  V30 5105 H 476.746 5.6228 4.1087 0
M  V30 5106 H 474.373 6.32506 4.21712 0
M  V30 5107 N 475.948 -1.35272 0.808662 0
M  V30 5108 C 477.364 -1.51806 0.492653 0
M  V30 5109 C 477.564 -1.7574 -0.985778 0
M  V30 5110 O 476.62 -1.80003 -1.77074 0
M  V30 5111 C 477.933 -2.69202 1.33981 0
M  V30 5112 C 479.481 -2.8308 1.33547 0
M  V30 5113 C 479.956 -4.03502 2.16679 0
M  V30 5114 N 481.447 -4.10684 2.14227 0
M  V30 5115 C 482.182 -5.02984 2.75308 0
M  V30 5116 N 481.678 -6.00603 3.45323 0
M  V30 5117 N 483.471 -4.95746 2.64938 0
M  V30 5118 H 475.622 -1.17993 1.76611 0
M  V30 5119 H 477.885 -0.577476 0.751814 0
M  V30 5120 H 477.591 -2.581 2.38909 0
M  V30 5121 H 477.465 -3.63854 0.994491 0
M  V30 5122 H 479.852 -2.93631 0.294036 0
M  V30 5123 H 479.933 -1.89278 1.72068 0
M  V30 5124 H 479.577 -3.93711 3.20864 0
M  V30 5125 H 479.507 -4.96489 1.75517 0
M  V30 5126 H 481.998 -3.40802 1.63285 0
M  V30 5127 H 482.311 -6.67633 3.89212 0
M  V30 5128 H 480.656 -6.0077 3.49428 0
M  V30 5129 H 483.847 -4.18439 2.09825 0
M  V30 5130 H 484.02 -5.67487 3.12829 0
M  V30 5131 N 477.426 -0.562348 -1.47226 0
M  V30 5132 C 478.358 0.220011 -2.28142 0
M  V30 5133 C 479.371 0.874596 -1.37312 0
M  V30 5134 O 480.56 0.747583 -1.62091 0
M  V30 5135 C 477.66 1.32953 -3.11732 0
M  V30 5136 C 476.833 0.770759 -4.30556 0
M  V30 5137 C 475.892 1.76541 -4.95701 0
M  V30 5138 O 474.918 1.3095 -5.53932 0
M  V30 5139 N 476.12 3.09896 -4.90861 0
M  V30 5140 H 478.885 -0.474107 -2.95926 0
M  V30 5141 H 476.446 -0.398761 -1.56912 0
M  V30 5142 H 478.438 1.99378 -3.5218 0
M  V30 5143 H 477.008 1.92681 -2.46156 0
M  V30 5144 H 476.228 -0.0704056 -3.94137 0
M  V30 5145 H 477.516 0.376872 -5.07402 0
M  V30 5146 H 476.914 3.49577 -4.44761 0
M  V30 5147 H 475.471 3.71865 -5.35313 0
M  V30 5148 N 478.904 1.54736 -0.299062 0
M  V30 5149 C 480.151 2.00101 0.310784 0
M  V30 5150 C 480.479 1.18746 1.54045 0
M  V30 5151 O 479.734 0.251198 1.94081 0
M  V30 5152 C 480.033 3.50199 0.713835 0
M  V30 5153 C 479.699 4.48997 -0.413873 0
M  V30 5154 C 478.361 4.7573 -0.723462 0
M  V30 5155 C 480.713 5.07839 -1.17257 0
M  V30 5156 C 478.041 5.5857 -1.79491 0
M  V30 5157 C 480.393 5.91844 -2.23392 0
M  V30 5158 C 479.057 6.16889 -2.54959 0
M  V30 5159 H 478.327 0.732221 0.113724 0
M  V30 5160 H 480.974 1.86888 -0.417756 0
M  V30 5161 H 479.279 3.61012 1.52243 0
M  V30 5162 H 480.976 3.82723 1.19684 0
M  V30 5163 H 477.566 4.28292 -0.162476 0
M  V30 5164 H 481.75 4.87188 -0.946651 0
M  V30 5165 H 477.006 5.76213 -2.04423 0
M  V30 5166 H 481.18 6.36465 -2.8264 0
M  V30 5167 H 478.807 6.80869 -3.38114 0
M  V30 5168 N 480.382 0.0267497 1.57577 0
M  V30 5169 C 481.314 -0.984594 2.06974 0
M  V30 5170 C 482.327 -1.29032 0.992705 0
M  V30 5171 O 483.516 -1.25539 1.26895 0
M  V30 5172 C 480.616 -2.31262 2.47732 0
M  V30 5173 C 479.789 -2.1924 3.78487 0
M  V30 5174 C 478.848 -3.34956 4.05821 0
M  V30 5175 O 477.874 -3.11948 4.76106 0
M  V30 5176 N 479.076 -4.58672 3.55809 0
M  V30 5177 H 481.841 -0.563143 2.94362 0
M  V30 5178 H 479.402 -0.160061 1.61107 0
M  V30 5179 H 481.394 -3.07496 2.63112 0
M  V30 5180 H 479.964 -2.65056 1.65723 0
M  V30 5181 H 479.184 -1.27747 3.72927 0
M  V30 5182 H 480.472 -2.08409 4.64158 0
M  V30 5183 H 479.87 -4.8026 2.98942 0
M  V30 5184 H 478.427 -5.32083 3.76472 0
M  V30 5185 N 481.861 -1.55662 -0.24637 0
M  V30 5186 C 482.824 -1.89558 -1.28842 0
M  V30 5187 C 483.824 -0.772082 -1.41052 0
M  V30 5188 O 485.014 -1.04007 -1.39743 0
M  V30 5189 C 482.146 -2.12449 -2.66605 0
M  V30 5190 H 483.339 -2.82735 -1.00004 0
M  V30 5191 H 480.892 -1.48562 -0.485684 0
M  V30 5192 H 481.627 -1.21742 -3.00582 0
M  V30 5193 H 481.412 -2.94273 -2.59125 0
M  V30 5194 H 482.902 -2.39854 -3.41847 0
M  V30 5195 N 483.339 0.512053 -1.4905 0
M  V30 5196 C 484.616 1.27337 -1.48474 0
M  V30 5197 C 484.996 2.1009 -0.206301 0
M  V30 5198 O 484.344 2.136 0.811609 0
M  V30 5199 C 484.554 2.13954 -2.75726 0
M  V30 5200 C 485.902 2.73507 -3.24776 0
M  V30 5201 O 486.926 2.24229 -2.76767 0
M  V30 5202 O 485.785 3.63186 -4.08361 0
M  V30 5203 H 482.879 0.575652 -0.593762 0
M  V30 5204 H 485.425 0.527232 -1.61302 0
M  V30 5205 H 484.197 1.52709 -3.60272 0
M  V30 5206 H 483.82 2.95782 -2.65705 0
M  V30 5207 N 484.817 1.37938 0.762283 0
M  V30 5208 C 486.064 1.33668 1.52115 0
M  V30 5209 C 486.392 -0.0759538 1.94352 0
M  V30 5210 O 485.647 -1.05121 1.6507 0
M  V30 5211 C 485.946 2.23042 2.79261 0
M  V30 5212 C 485.612 3.71159 2.56031 0
M  V30 5213 C 484.274 4.11523 2.49404 0
M  V30 5214 C 486.626 4.64955 2.35513 0
M  V30 5215 C 483.954 5.43784 2.20263 0
M  V30 5216 C 486.306 5.97464 2.07894 0
M  V30 5217 C 484.97 6.36922 1.99718 0
M  V30 5218 H 484.24 0.489127 0.556629 0
M  V30 5219 H 486.887 1.70224 0.877262 0
M  V30 5220 H 485.192 1.79512 3.48256 0
M  V30 5221 H 486.889 2.17047 3.37182 0
M  V30 5222 H 483.479 3.39153 2.62056 0
M  V30 5223 H 487.663 4.34623 2.39617 0
M  V30 5224 H 482.919 5.73307 2.12435 0
M  V30 5225 H 487.093 6.6969 1.91019 0
M  V30 5226 H 484.72 7.39331 1.76902 0
M  V30 5227 N 486.295 -0.989507 1.22664 0
M  V30 5228 C 487.523 -1.76496 1.07967 0
M  V30 5229 C 487.938 -1.85148 -0.369543 0
M  V30 5230 O 487.295 -1.32408 -1.25596 0
M  V30 5231 C 487.346 -3.19642 1.68853 0
M  V30 5232 O 487.067 -3.11453 3.08105 0
M  V30 5233 C 488.568 -4.13621 1.59475 0
M  V30 5234 H 485.788 -0.55418 0.378319 0
M  V30 5235 H 488.332 -1.24378 1.62328 0
M  V30 5236 H 486.487 -3.68816 1.18547 0
M  V30 5237 H 486.901 -4.01499 3.37489 0
M  V30 5238 H 488.375 -5.11801 2.06795 0
M  V30 5239 H 488.852 -4.35718 0.55191 0
M  V30 5240 H 489.458 -3.70346 2.09103 0
M  V30 5241 N 487.773 -1.03688 -1.18687 0
M  V30 5242 C 488.998 -0.757819 -1.93059 0
M  V30 5243 C 489.423 0.678353 -1.75442 0
M  V30 5244 O 488.781 1.46938 -1.06203 0
M  V30 5245 C 488.829 -1.12423 -3.42627 0
M  V30 5246 O 487.933 -0.247505 -4.11657 0
M  V30 5247 H 487.274 -0.279245 -0.602427 0
M  V30 5248 H 489.804 -1.3857 -1.5053 0
M  V30 5249 H 489.814 -1.08454 -3.93322 0
M  V30 5250 H 488.489 -2.17049 -3.54771 0
M  V30 5251 H 487.066 -0.34649 -3.71287 0
M  V30 5252 N 489.251 1.34841 -0.815825 0
M  V30 5253 C 490.181 2.32187 -0.247298 0
M  V30 5254 C 491.162 1.5791 0.632344 0
M  V30 5255 O 492.347 1.8593 0.560698 0
M  V30 5256 C 489.477 3.42122 0.597466 0
M  V30 5257 C 488.431 4.27602 -0.184446 0
M  V30 5258 C 487.757 5.28942 0.782609 0
M  V30 5259 C 489.057 5.03502 -1.38865 0
M  V30 5260 H 490.751 2.79985 -1.06061 0
M  V30 5261 H 488.297 1.34611 -0.511461 0
M  V30 5262 H 490.25 4.09232 1.00533 0
M  V30 5263 H 488.974 2.92956 1.44376 0
M  V30 5264 H 487.633 3.62085 -0.573592 0
M  V30 5265 H 487.281 4.7604 1.62466 0
M  V30 5266 H 486.981 5.87008 0.263695 0
M  V30 5267 H 488.505 5.98922 1.18848 0
M  V30 5268 H 489.919 5.63506 -1.05518 0
M  V30 5269 H 488.316 5.71108 -1.8427 0
M  V30 5270 H 489.386 4.33608 -2.17054 0
M  V30 5271 N 490.729 0.570148 1.46925 0
M  V30 5272 C 491.954 0.0542592 2.07329 0
M  V30 5273 C 492.379 -1.23582 1.41806 0
M  V30 5274 O 491.737 -1.74341 0.497479 0
M  V30 5275 C 491.785 -0.111175 3.60429 0
M  V30 5276 O 490.889 -1.17071 3.95434 0
M  V30 5277 H 490.23 0.0571425 0.661537 0
M  V30 5278 H 492.76 0.789516 1.88753 0
M  V30 5279 H 492.77 -0.321315 4.06733 0
M  V30 5280 H 491.445 0.831012 4.07513 0
M  V30 5281 H 490.022 -0.940029 3.60857 0
M  V30 5282 N 492.207 -1.54576 0.307264 0
M  V30 5283 C 493.484 -1.92377 -0.353605 0
M  V30 5284 C 493.864 -1.23517 -1.71192 0
M  V30 5285 O 493.212 -0.373101 -2.25433 0
M  V30 5286 C 493.422 -3.45928 -0.462039 0
M  V30 5287 C 494.77 -4.18278 -0.729975 0
M  V30 5288 O 495.794 -3.51997 -0.545605 0
M  V30 5289 O 494.653 -5.3563 -1.08454 0
M  V30 5290 H 491.747 -0.802747 -0.198812 0
M  V30 5291 H 494.293 -1.65929 0.355783 0
M  V30 5292 H 493.065 -3.88187 0.492592 0
M  V30 5293 H 492.688 -3.78431 -1.21965 0
M  V30 5294 N 493.685 -0.035106 -1.57561 0
M  V30 5295 C 494.617 0.973604 -2.07494 0
M  V30 5296 C 495.63 1.28504 -0.999534 0
M  V30 5297 O 496.819 1.24864 -1.27559 0
M  V30 5298 C 493.919 2.29945 -2.48955 0
M  V30 5299 C 493.092 2.1723 -3.79644 0
M  V30 5300 C 492.151 3.328 -4.07592 0
M  V30 5301 O 491.177 3.09418 -4.77754 0
M  V30 5302 N 492.379 4.56779 -3.58236 0
M  V30 5303 H 495.144 0.547525 -2.94656 0
M  V30 5304 H 492.705 0.151515 -1.61189 0
M  V30 5305 H 494.697 3.06097 -2.64739 0
M  V30 5306 H 493.267 2.64173 -1.67126 0
M  V30 5307 H 492.487 1.25768 -3.73599 0
M  V30 5308 H 493.775 2.05945 -4.65257 0
M  V30 5309 H 493.173 4.78668 -3.01485 0
M  V30 5310 H 491.73 5.30079 -3.79288 0
M  V30 5311 N 495.163 1.55791 0.238111 0
M  V30 5312 C 496.073 1.94196 1.31625 0
M  V30 5313 C 497.089 0.843545 1.52185 0
M  V30 5314 O 498.265 1.1457 1.65637 0
M  V30 5315 C 495.33 2.2365 2.64918 0
M  V30 5316 C 494.391 3.46971 2.52804 0
M  V30 5317 C 493.624 3.7501 3.79741 0
M  V30 5318 O 493.847 3.04982 4.82019 0
M  V30 5319 O 492.781 4.68525 3.77846 0
M  V30 5320 H 496.607 2.86044 1.02043 0
M  V30 5321 H 494.192 1.42786 0.439603 0
M  V30 5322 H 496.074 2.43863 3.4367 0
M  V30 5323 H 494.749 1.34979 2.94215 0
M  V30 5324 H 493.656 3.32055 1.72309 0
M  V30 5325 H 494.989 4.35971 2.28451 0
M  V30 5326 N 496.642 -0.504142 1.49319 0
M  V30 5327 C 498.053 -1.08572 1.51885 0
M  V30 5328 C 498.404 -1.93842 0.303255 0
M  V30 5329 O 497.529 -2.0828 -0.58724 0
M  V30 5330 C 498.124 -1.97574 2.75227 0
M  V30 5331 C 496.683 -2.509 2.80581 0
M  V30 5332 C 495.83 -1.28447 2.45757 0
M  V30 5333 H 498.781 -0.288194 1.56061 0
M  V30 5334 H 498.802 -2.82219 2.55211 0
M  V30 5335 H 498.314 -1.35486 3.63683 0
M  V30 5336 H 496.415 -3.16636 1.96398 0
M  V30 5337 H 496.528 -2.88268 3.82673 0
M  V30 5338 H 494.892 -1.60868 1.97468 0
M  V30 5339 H 495.675 -0.68072 3.36483 0
M  V30 5340 N 498.12 -1.38341 -0.754957 0
M  V30 5341 C 499.05 -1.38176 -1.88227 0
M  V30 5342 C 500.031 -0.247873 -1.68284 0
M  V30 5343 O 501.216 -0.45075 -1.88896 0
M  V30 5344 C 498.346 -1.20471 -3.25736 0
M  V30 5345 C 497.3 -2.3105 -3.60278 0
M  V30 5346 C 496.626 -1.98452 -4.96509 0
M  V30 5347 C 497.926 -3.73305 -3.65295 0
M  V30 5348 H 499.62 -2.32512 -1.88622 0
M  V30 5349 H 497.166 -1.1192 -0.906082 0
M  V30 5350 H 499.119 -1.18982 -4.04254 0
M  V30 5351 H 497.843 -0.225965 -3.25817 0
M  V30 5352 H 496.502 -2.31723 -2.84078 0
M  V30 5353 H 496.15 -0.990641 -4.93148 0
M  V30 5354 H 495.85 -2.7251 -5.20588 0
M  V30 5355 H 497.374 -1.98578 -5.77407 0
M  V30 5356 H 498.788 -3.7467 -4.3393 0
M  V30 5357 H 497.185 -4.46557 -4.00883 0
M  V30 5358 H 498.255 -4.05719 -2.65556 0
M  V30 5359 N 499.598 0.982988 -1.23187 0
M  V30 5360 C 500.548 2.05962 -0.977942 0
M  V30 5361 C 501.532 1.60725 0.0751148 0
M  V30 5362 O 502.724 1.76471 -0.136683 0
M  V30 5363 C 499.853 3.38564 -0.568276 0
M  V30 5364 C 498.939 3.90407 -1.6566 0
M  V30 5365 N 499.33 4.15359 -2.88635 0
M  V30 5366 C 497.628 4.18915 -1.53058 0
M  V30 5367 C 498.329 4.57642 -3.5908 0
M  V30 5368 N 497.305 4.6192 -2.86584 0
M  V30 5369 H 501.107 2.23208 -1.91195 0
M  V30 5370 H 498.621 1.16555 -1.13087 0
M  V30 5371 H 500.618 4.15276 -0.36764 0
M  V30 5372 H 499.278 3.22712 0.358713 0
M  V30 5373 H 500.289 4.03258 -3.24966 0
M  V30 5374 H 496.966 4.12081 -0.670506 0
M  V30 5375 H 498.356 4.85488 -4.6449 0
M  V30 5376 N 501.076 1.04316 1.18135 0
M  V30 5377 C 502.322 0.749128 1.88457 0
M  V30 5378 C 502.655 -0.72149 1.803 0
M  V30 5379 O 501.93 -1.52676 1.205 0
M  V30 5380 C 502.213 1.21905 3.38838 0
M  V30 5381 C 502.066 2.75195 3.55792 0
M  V30 5382 C 503.385 0.811085 4.32561 0
M  V30 5383 H 500.504 0.273611 0.684329 0
M  V30 5384 H 503.146 1.29561 1.38975 0
M  V30 5385 H 501.296 0.754137 3.8111 0
M  V30 5386 H 502.968 3.29743 3.22595 0
M  V30 5387 H 501.211 3.14899 2.98364 0
M  V30 5388 H 501.882 3.03135 4.61317 0
M  V30 5389 H 504.358 1.21118 3.98082 0
M  V30 5390 H 503.234 1.16761 5.36338 0
M  V30 5391 H 503.495 -0.285596 4.41177 0
M  V30 5392 N 502.554 -1.34406 0.822964 0
M  V30 5393 C 503.517 -2.2783 0.250271 0
M  V30 5394 C 504.517 -1.50288 -0.571854 0
M  V30 5395 O 505.707 -1.69825 -0.387952 0
M  V30 5396 C 502.839 -3.34663 -0.649137 0
M  V30 5397 H 504.032 -2.79992 1.07444 0
M  V30 5398 H 501.585 -1.44539 0.594829 0
M  V30 5399 H 502.32 -2.87714 -1.49637 0
M  V30 5400 H 502.105 -3.92052 -0.0611199 0
M  V30 5401 H 503.595 -4.04349 -1.04363 0
M  V30 5402 N 504.032 -0.577932 -1.46621 0
M  V30 5403 C 504.964 0.195801 -2.28362 0
M  V30 5404 C 505.977 0.859983 -1.38232 0
M  V30 5405 O 507.166 0.730349 -1.62875 0
M  V30 5406 C 504.266 1.29639 -3.13124 0
M  V30 5407 C 503.439 0.725049 -4.31349 0
M  V30 5408 C 502.498 1.71274 -4.97546 0
M  V30 5409 O 501.524 1.25067 -5.5529 0
M  V30 5410 N 502.726 3.04672 -4.94121 0
M  V30 5411 H 505.491 -0.505468 -2.95407 0
M  V30 5412 H 503.052 -0.415381 -1.56481 0
M  V30 5413 H 505.044 1.95631 -3.54275 0
M  V30 5414 H 503.614 1.90059 -2.48186 0
M  V30 5415 H 502.834 -0.112205 -3.9404 0
M  V30 5416 H 504.122 0.323034 -5.07774 0
M  V30 5417 H 503.52 3.4484 -4.48444 0
M  V30 5418 H 502.077 3.66166 -5.39227 0
M  V30 5419 N 505.51 1.54411 -0.315457 0
M  V30 5420 C 506.473 2.22713 0.54142 0
M  V30 5421 C 507.473 1.2179 1.04995 0
M  V30 5422 O 508.663 1.46426 0.943667 0
M  V30 5423 C 505.795 2.92485 1.75116 0
M  V30 5424 H 506.988 2.99849 -0.0555508 0
M  V30 5425 H 504.541 1.56159 -0.0664453 0
M  V30 5426 H 505.276 2.19466 2.38758 0
M  V30 5427 H 505.061 3.66483 1.39401 0
M  V30 5428 H 506.551 3.44548 2.35959 0
M  V30 5429 N 506.988 0.0434614 1.5754 0
M  V30 5430 C 507.918 -0.931651 2.14109 0
M  V30 5431 C 508.899 -1.32971 1.06079 0
M  V30 5432 O 510.084 -1.40579 1.33982 0
M  V30 5433 C 507.214 -2.20914 2.67982 0
M  V30 5434 C 506.168 -1.95139 3.80926 0
M  V30 5435 C 505.494 -3.29276 4.21285 0
M  V30 5436 C 506.794 -1.27913 5.06395 0
M  V30 5437 H 508.488 -0.460497 2.95837 0
M  V30 5438 H 506.034 -0.220058 1.42309 0
M  V30 5439 H 507.987 -2.89522 3.06194 0
M  V30 5440 H 506.711 -2.70221 1.83434 0
M  V30 5441 H 505.37 -1.28945 3.43175 0
M  V30 5442 H 505.018 -3.76369 3.33699 0
M  V30 5443 H 504.718 -3.12831 4.97404 0
M  V30 5444 H 506.242 -3.99129 4.62091 0
M  V30 5445 H 507.656 -1.86544 5.42102 0
M  V30 5446 H 506.053 -1.2182 5.87605 0
M  V30 5447 H 507.123 -0.254066 4.84234 0
M  V30 5448 N 508.466 -1.55915 -0.229846 0
M  V30 5449 C 509.398 -1.88209 -1.30805 0
M  V30 5450 C 510.411 -0.769672 -1.43457 0
M  V30 5451 O 511.6 -1.04792 -1.44502 0
M  V30 5452 C 508.7 -2.06829 -2.68468 0
M  V30 5453 C 507.873 -3.37798 -2.77869 0
M  V30 5454 C 506.932 -3.45952 -3.96489 0
M  V30 5455 O 505.958 -4.19043 -3.85216 0
M  V30 5456 N 507.16 -2.76488 -5.10426 0
M  V30 5457 H 509.925 -2.81286 -1.03431 0
M  V30 5458 H 507.486 -1.5636 -0.41991 0
M  V30 5459 H 509.478 -2.09608 -3.46189 0
M  V30 5460 H 508.048 -1.20416 -2.88477 0
M  V30 5461 H 507.268 -3.4719 -1.86689 0
M  V30 5462 H 508.556 -4.24091 -2.81113 0
M  V30 5463 H 507.954 -2.16868 -5.2248 0
M  V30 5464 H 506.511 -2.84938 -5.8622 0
M  V30 5465 N 509.944 0.496216 -1.49584 0
M  V30 5466 C 510.891 1.59722 -1.66606 0
M  V30 5467 C 511.861 1.58158 -0.507477 0
M  V30 5468 O 513.046 1.76072 -0.735076 0
M  V30 5469 C 510.186 2.97844 -1.74308 0
M  V30 5470 C 509.299 3.09388 -3.01502 0
M  V30 5471 C 508.434 4.38271 -3.00153 0
M  V30 5472 C 507.473 4.43466 -4.21906 0
M  V30 5473 N 506.61 5.63784 -4.1844 0
M  V30 5474 H 511.45 1.44515 -2.60613 0
M  V30 5475 H 508.987 0.703048 -1.29212 0
M  V30 5476 H 510.945 3.77907 -1.76754 0
M  V30 5477 H 509.575 3.11743 -0.837619 0
M  V30 5478 H 508.627 2.22357 -3.08645 0
M  V30 5479 H 509.939 3.09085 -3.91494 0
M  V30 5480 H 509.093 5.2666 -3.01188 0
M  V30 5481 H 507.832 4.41146 -2.07947 0
M  V30 5482 H 506.837 3.53478 -4.21109 0
M  V30 5483 H 508.062 4.42303 -5.1531 0
M  V30 5484 H 506.008 5.67491 -3.29074 0
M  V30 5485 H 505.925 5.65118 -5.02173 0
M  V30 5486 H 507.193 6.54367 -4.23585 0
M  V30 5487 N 511.423 1.38739 0.74761 0
M  V30 5488 C 512.669 1.35475 1.50912 0
M  V30 5489 C 513.002 -0.0533093 1.94127 0
M  V30 5490 O 512.277 -1.01572 1.65871 0
M  V30 5491 C 512.56 2.31582 2.75757 0
M  V30 5492 C 512.413 3.81274 2.38642 0
M  V30 5493 C 513.732 2.25722 3.77806 0
M  V30 5494 H 510.851 0.493427 0.547447 0
M  V30 5495 H 513.493 1.69634 0.855823 0
M  V30 5496 H 511.643 2.02582 3.31501 0
M  V30 5497 H 513.315 4.20972 1.88626 0
M  V30 5498 H 511.558 3.98664 1.71025 0
M  V30 5499 H 512.229 4.4399 3.27989 0
M  V30 5500 H 514.705 2.51336 3.31616 0
M  V30 5501 H 513.581 2.95069 4.62845 0
M  V30 5502 H 513.842 1.25803 4.23823 0
M  V30 5503 N 512.901 -0.976442 1.23707 0
M  V30 5504 C 513.848 -2.06952 1.02174 0
M  V30 5505 C 514.818 -1.65984 -0.0621034 0
M  V30 5506 O 516.003 -1.90584 0.0907906 0
M  V30 5507 C 513.143 -3.39425 0.62327 0
M  V30 5508 C 512.256 -3.9364 1.77966 0
M  V30 5509 C 511.391 -5.14343 1.3276 0
M  V30 5510 C 510.43 -5.60733 2.45449 0
M  V30 5511 N 509.567 -6.72662 2.01172 0
M  V30 5512 H 514.407 -2.24704 1.95734 0
M  V30 5513 H 511.944 -1.10143 0.975034 0
M  V30 5514 H 513.902 -4.15526 0.37332 0
M  V30 5515 H 512.532 -3.21624 -0.275329 0
M  V30 5516 H 511.584 -3.14258 2.14351 0
M  V30 5517 H 512.896 -4.24035 2.62671 0
M  V30 5518 H 512.05 -5.97789 1.03601 0
M  V30 5519 H 510.789 -4.8561 0.450975 0
M  V30 5520 H 509.794 -4.75865 2.75378 0
M  V30 5521 H 511.019 -5.91483 3.33654 0
M  V30 5522 H 508.965 -6.45681 1.15895 0
M  V30 5523 H 508.882 -7.02462 2.79434 0
M  V30 5524 H 510.15 -7.59572 1.75129 0
M  V30 5525 N 514.379 -1.04941 -1.1758 0
M  V30 5526 C 515.628 -0.753124 -1.87112 0
M  V30 5527 C 515.941 0.722507 -1.81767 0
M  V30 5528 O 517.147 1.13265 -2.46746 0
M  V30 5529 C 515.603 -1.29695 -3.35719 0
M  V30 5530 C 515.211 -2.80184 -3.49572 0
M  V30 5531 C 516.955 -1.07759 -4.10595 0
M  V30 5532 C 514.862 -3.2788 -4.92187 0
M  V30 5533 H 513.792 -0.278034 -0.700866 0
M  V30 5534 H 516.443 -1.26637 -1.32798 0
M  V30 5535 H 514.825 -0.711522 -3.89555 0
M  V30 5536 H 515.999 -3.44561 -3.05965 0
M  V30 5537 H 514.314 -3.00632 -2.88113 0
M  V30 5538 H 516.911 -1.40899 -5.15802 0
M  V30 5539 H 517.254 -0.0152302 -4.16297 0
M  V30 5540 H 517.787 -1.62809 -3.62957 0
M  V30 5541 H 514.526 -4.33535 -4.91658 0
M  V30 5542 H 514.046 -2.68245 -5.36475 0
M  V30 5543 H 515.725 -3.22412 -5.60945 0
M  V30 5544 N 515.857 1.33968 -0.830081 0
M  V30 5545 C 516.767 2.33164 -0.259207 0
M  V30 5546 C 517.783 1.62951 0.610164 0
M  V30 5547 O 518.959 1.94668 0.516369 0
M  V30 5548 C 516.024 3.42088 0.563598 0
M  V30 5549 C 515.085 4.28037 -0.329014 0
M  V30 5550 C 514.318 5.3176 0.454616 0
M  V30 5551 O 514.541 5.44876 1.6872 0
M  V30 5552 O 513.475 6.01669 -0.166794 0
M  V30 5553 H 517.301 2.83832 -1.08041 0
M  V30 5554 H 514.886 1.37154 -0.59239 0
M  V30 5555 H 516.768 4.08581 1.03147 0
M  V30 5556 H 515.443 2.93651 1.36201 0
M  V30 5557 H 514.35 3.64443 -0.844538 0
M  V30 5558 H 515.683 4.79934 -1.09196 0
M  V30 5559 N 517.335 0.585699 1.46312 0
M  V30 5560 C 518.581 0.0725284 2.0267 0
M  V30 5561 C 518.914 -1.28523 1.45586 0
M  V30 5562 O 518.189 -1.84283 0.622101 0
M  V30 5563 C 518.472 0.0099788 3.60099 0
M  V30 5564 C 518.325 1.39685 4.27561 0
M  V30 5565 C 519.644 -0.689117 4.34671 0
M  V30 5566 H 516.763 0.0278307 0.736474 0
M  V30 5567 H 519.405 0.753472 1.74421 0
M  V30 5568 H 517.555 -0.56992 3.84297 0
M  V30 5569 H 519.227 2.02215 4.14617 0
M  V30 5570 H 517.47 1.96374 3.86807 0
M  V30 5571 H 518.141 1.30553 5.36339 0
M  V30 5572 H 520.617 -0.196446 4.15636 0
M  V30 5573 H 519.493 -0.701921 5.44393 0
M  V30 5574 H 519.754 -1.75101 4.05946 0
M  V30 5575 N 518.813 -1.54241 0.323641 0
M  V30 5576 C 519.761 -2.25813 -0.557804 0
M  V30 5577 C 520.755 -1.27225 -1.11849 0
M  V30 5578 O 521.961 -1.45001 -1.06652 0
M  V30 5579 H 518.336 -0.72532 -0.198532 0
M  V30 5580 H 520.307 -2.98322 0.0681112 0
M  V30 5581 C 519.056 -3.02913 -1.70701 0
M  V30 5582 H 518.379 -3.78593 -1.28482 0
M  V30 5583 H 519.819 -3.56238 -2.29935 0
M  V30 5584 C 518.278 -2.11217 -2.62467 0
M  V30 5585 O 518.808 -1.69508 -3.64184 0
M  V30 5586 N 517.014 -1.76704 -2.30703 0
M  V30 5587 H 516.561 -2.1082 -1.48029 0
M  V30 5588 H 516.519 -1.15631 -2.92364 0
M  V30 5589 N 520.291 -0.0518155 -1.57515 0
M  V30 5590 C 521.201 0.937539 -2.15052 0
M  V30 5591 C 522.217 1.34121 -1.10849 0
M  V30 5592 O 523.393 1.418 -1.4302 0
M  V30 5593 C 520.458 2.19379 -2.68466 0
M  V30 5594 C 519.519 1.84841 -3.87469 0
M  V30 5595 C 518.752 3.04477 -4.38326 0
M  V30 5596 O 518.975 4.17868 -3.88256 0
M  V30 5597 O 517.909 2.85453 -5.29906 0
M  V30 5598 H 521.735 0.478201 -2.99912 0
M  V30 5599 H 519.32 0.17012 -1.48428 0
M  V30 5600 H 521.202 2.93084 -3.02787 0
M  V30 5601 H 519.877 2.64449 -1.86677 0
M  V30 5602 H 518.784 1.08449 -3.58036 0
M  V30 5603 H 520.117 1.44569 -4.7049 0
M  V30 5604 N 521.769 1.56035 0.221574 0
M  V30 5605 C 522.994 1.83476 0.967026 0
M  V30 5606 C 523.419 0.632139 1.7716 0
M  V30 5607 O 522.777 -0.419082 1.7639 0
M  V30 5608 C 522.825 3.08907 1.86034 0
M  V30 5609 O 521.929 2.876 2.95567 0
M  V30 5610 H 521.27 0.604913 0.273817 0
M  V30 5611 H 523.8 2.03247 0.234893 0
M  V30 5612 H 523.81 3.3901 2.27016 0
M  V30 5613 H 522.485 3.96068 1.26898 0
M  V30 5614 H 521.062 2.6873 2.58532 0
M  V30 5615 N 523.247 -0.488276 1.49845 0
M  V30 5616 C 524.495 -1.23911 1.59657 0
M  V30 5617 C 524.816 -1.92816 0.291005 0
M  V30 5618 O 524.086 -1.83328 -0.690485 0
M  V30 5619 H 522.666 -0.460357 0.588286 0
M  V30 5620 H 525.328 -0.564794 1.86537 0
M  V30 5621 H 524.424 -1.99625 2.39909 0
M  V30 5622 N 524.725 -1.39134 -0.740242 0
M  V30 5623 C 525.953 -1.39334 -1.5295 0
M  V30 5624 C 526.368 0.0135008 -1.88795 0
M  V30 5625 O 525.725 0.983524 -1.5373 0
M  V30 5626 C 525.776 -2.2614 -2.82034 0
M  V30 5627 O 525.497 -3.61345 -2.47712 0
M  V30 5628 C 526.998 -2.34666 -3.76094 0
M  V30 5629 H 524.218 -0.476103 -0.472828 0
M  V30 5630 H 526.762 -1.82883 -0.9151 0
M  V30 5631 H 524.917 -1.86018 -3.39818 0
M  V30 5632 H 525.331 -4.07194 -3.30595 0
M  V30 5633 H 526.805 -2.99663 -4.63579 0
M  V30 5634 H 527.282 -1.36426 -4.17474 0
M  V30 5635 H 527.888 -2.75236 -3.2423 0
M  V30 5636 N 526.204 0.969867 -1.24223 0
M  V30 5637 C 527.45 1.7151 -1.08223 0
M  V30 5638 C 527.783 1.90478 0.37838 0
M  V30 5639 O 527.058 1.4647 1.27971 0
M  V30 5640 C 527.341 3.10714 -1.82013 0
M  V30 5641 C 527.194 2.9925 -3.35811 0
M  V30 5642 C 528.513 4.10332 -1.59108 0
M  V30 5643 H 525.632 0.622499 -0.394543 0
M  V30 5644 H 528.274 1.1284 -1.52863 0
M  V30 5645 H 526.424 3.608 -1.44068 0
M  V30 5646 H 528.096 2.56608 -3.83341 0
M  V30 5647 H 526.339 2.35512 -3.64303 0
M  V30 5648 H 527.01 3.97857 -3.82641 0
M  V30 5649 H 529.486 3.69097 -1.92111 0
M  V30 5650 H 528.362 5.05804 -2.13198 0
M  V30 5651 H 528.623 4.38926 -0.528832 0
M  V30 5652 N 527.682 1.05563 1.17022 0
M  V30 5653 C 528.645 0.664098 2.19368 0
M  V30 5654 C 529.645 -0.286358 1.5823 0
M  V30 5655 O 530.835 -0.069728 1.7406 0
M  V30 5656 C 527.967 -0.0239932 3.40892 0
M  V30 5657 H 529.16 1.57 2.55521 0
M  V30 5658 H 526.713 0.849964 1.31169 0
M  V30 5659 H 527.448 -0.942988 3.10287 0
M  V30 5660 H 527.233 0.659351 3.86516 0
M  V30 5661 H 528.723 -0.283909 4.16634 0
M  V30 5662 N 529.16 -1.33526 0.837174 0
M  V30 5663 C 530.385 -2.0258 0.444545 0
M  V30 5664 C 530.81 -1.6258 -0.946006 0
M  V30 5665 O 530.168 -0.817548 -1.6182 0
M  V30 5666 C 530.216 -3.5605 0.571006 0
M  V30 5667 O 529.32 -4.10422 -0.403431 0
M  V30 5668 H 528.661 -0.638866 0.180958 0
M  V30 5669 H 531.191 -1.70462 1.13154 0
M  V30 5670 H 531.201 -4.05488 0.452024 0
M  V30 5671 H 529.876 -3.84509 1.58512 0
M  V30 5672 H 528.453 -3.72113 -0.242147 0
M  V30 5673 N 530.638 -0.59345 -1.46 0
M  V30 5674 C 531.863 -0.0872365 -2.07216 0
M  V30 5675 C 532.288 1.2131 -1.43755 0
M  V30 5676 O 531.646 1.73528 -0.525152 0
M  V30 5677 C 531.694 0.0538197 -3.6056 0
M  V30 5678 O 530.798 1.10765 -3.97247 0
M  V30 5679 H 530.139 -0.0676598 -0.660544 0
M  V30 5680 H 532.669 -0.819445 -1.87473 0
M  V30 5681 H 532.679 0.256567 -4.07193 0
M  V30 5682 H 531.354 -0.895739 -4.0614 0
M  V30 5683 H 529.931 0.882501 -3.62307 0
M  V30 5684 N 532.116 1.54067 -0.331816 0
M  V30 5685 C 533.341 2.05599 0.272705 0
M  V30 5686 C 533.766 1.2059 1.44359 0
M  V30 5687 O 533.124 0.216907 1.79998 0
M  V30 5688 C 533.172 3.54188 0.677021 0
M  V30 5689 O 532.276 3.72082 1.77844 0
M  V30 5690 H 531.617 0.662286 0.0476801 0
M  V30 5691 H 534.147 1.98826 -0.482624 0
M  V30 5692 H 534.157 3.96608 0.957415 0
M  V30 5693 H 532.832 4.15513 -0.179325 0
M  V30 5694 H 531.409 3.41566 1.49622 0
M  V30 5695 N 533.594 0.0601682 1.57485 0
M  V30 5696 C 534.822 -0.620937 1.97363 0
M  V30 5697 C 535.237 -1.63846 0.938082 0
M  V30 5698 O 534.594 -1.82339 -0.0766578 0
M  V30 5699 C 534.645 -1.29987 3.37321 0
M  V30 5700 O 534.366 -0.323081 4.36907 0
M  V30 5701 C 535.867 -2.06989 3.92008 0
M  V30 5702 H 533.087 -0.169135 0.649334 0
M  V30 5703 H 535.631 0.129132 2.04092 0
M  V30 5704 H 533.786 -2.0011 3.31715 0
M  V30 5705 H 534.2 -0.808754 5.18227 0
M  V30 5706 H 535.674 -2.49901 4.92192 0
M  V30 5707 H 536.151 -2.92173 3.2792 0
M  V30 5708 H 536.757 -1.41757 4.0098 0
M  V30 5709 N 535.072 -1.5615 -0.213296 0
M  V30 5710 C 536.035 -1.92249 -1.24792 0
M  V30 5711 C 537.035 -0.801828 -1.39382 0
M  V30 5712 O 538.225 -1.06948 -1.37506 0
M  V30 5713 C 535.357 -2.18056 -2.62039 0
M  V30 5714 H 536.55 -2.84793 -0.939845 0
M  V30 5715 H 534.103 -1.49559 -0.454062 0
M  V30 5716 H 534.838 -1.2809 -2.97932 0
M  V30 5717 H 534.623 -2.99703 -2.52825 0
M  V30 5718 H 536.113 -2.47051 -3.36683 0
M  V30 5719 N 536.55 0.480323 -1.50102 0
M  V30 5720 C 537.796 1.23489 -1.60867 0
M  V30 5721 C 538.129 1.91809 -0.303827 0
M  V30 5722 O 537.404 1.81694 0.694092 0
M  V30 5723 C 537.687 2.28578 -2.78252 0
M  V30 5724 C 537.54 1.64624 -4.18592 0
M  V30 5725 C 538.859 3.2997 -2.91218 0
M  V30 5726 H 535.978 0.447605 -0.585507 0
M  V30 5727 H 538.62 0.530005 -1.82458 0
M  V30 5728 H 536.77 2.88697 -2.59974 0
M  V30 5729 H 538.442 1.08173 -4.48438 0
M  V30 5730 H 536.685 0.949645 -4.23278 0
M  V30 5731 H 537.356 2.40946 -4.96638 0
M  V30 5732 H 539.832 2.79864 -3.07921 0
M  V30 5733 H 538.708 4.00839 -3.74993 0
M  V30 5734 H 538.969 3.93541 -2.0144 0
M  V30 5735 N 538.028 1.39524 0.732853 0
M  V30 5736 C 539.277 1.36175 1.48792 0
M  V30 5737 C 539.59 -0.0388195 1.95561 0
M  V30 5738 O 540.796 -0.194899 2.708 0
M  V30 5739 C 539.252 2.39242 2.68871 0
M  V30 5740 C 538.86 3.85024 2.29042 0
M  V30 5741 C 540.604 2.44972 3.46683 0
M  V30 5742 C 538.511 4.79727 3.45856 0
M  V30 5743 H 537.441 0.506267 0.558757 0
M  V30 5744 H 540.092 1.65181 0.799226 0
M  V30 5745 H 538.474 2.0331 3.39825 0
M  V30 5746 H 539.648 4.30008 1.6562 0
M  V30 5747 H 537.963 3.82609 1.64316 0
M  V30 5748 H 540.56 3.12918 4.33574 0
M  V30 5749 H 540.903 1.4749 3.89297 0
M  V30 5750 H 541.436 2.79808 2.82759 0
M  V30 5751 H 538.175 5.78479 3.08289 0
M  V30 5752 H 537.695 4.39421 4.08251 0
M  V30 5753 H 539.374 4.98731 4.12161 0
M  V30 5754 N 539.506 -0.963266 1.24736 0
M  V30 5755 C 540.752 -1.70933 1.09131 0
M  V30 5756 C 541.085 -1.90676 -0.368273 0
M  V30 5757 O 540.36 -1.47147 -1.27193 0
M  V30 5758 C 540.643 -3.09744 1.83658 0
M  V30 5759 C 540.496 -2.97465 3.37394 0
M  V30 5760 C 541.815 -4.09483 1.61282 0
M  V30 5761 H 538.934 -0.620398 0.397838 0
M  V30 5762 H 541.576 -1.12028 1.53459 0
M  V30 5763 H 539.726 -3.60031 1.4598 0
M  V30 5764 H 541.398 -2.54571 3.84696 0
M  V30 5765 H 539.641 -2.33576 3.65547 0
M  V30 5766 H 540.312 -3.95822 3.84745 0
M  V30 5767 H 542.788 -3.68073 1.94066 0
M  V30 5768 H 541.664 -5.04666 2.15878 0
M  V30 5769 H 541.925 -4.38639 0.552102 0
M  V30 5770 N 540.985 -1.06182 -1.16461 0
M  V30 5771 C 542.21 -0.798599 -1.91408 0
M  V30 5772 C 542.635 0.640987 -1.76842 0
M  V30 5773 O 541.993 1.44652 -1.09296 0
M  V30 5774 C 542.041 -1.19665 -3.40165 0
M  V30 5775 O 541.145 -0.334768 -4.11039 0
M  V30 5776 H 540.486 -0.291961 -0.596368 0
M  V30 5777 H 543.016 -1.41732 -1.47557 0
M  V30 5778 H 543.026 -1.16772 -3.90933 0
M  V30 5779 H 541.701 -2.24526 -3.50087 0
M  V30 5780 H 540.278 -0.425168 -3.70468 0
M  V30 5781 N 542.463 1.3308 -0.844243 0
M  V30 5782 C 543.426 2.27403 -0.286485 0
M  V30 5783 C 544.426 1.51179 0.547872 0
M  V30 5784 O 545.616 1.70421 0.360886 0
M  V30 5785 C 542.748 3.35653 0.595813 0
M  V30 5786 H 543.941 2.78248 -1.11885 0
M  V30 5787 H 541.494 1.43574 -0.617749 0
M  V30 5788 H 542.229 2.90058 1.4504 0
M  V30 5789 H 542.014 3.921 -0.00125994 0
M  V30 5790 H 543.504 4.05958 0.979168 0
M  V30 5791 N 543.941 0.601185 1.45683 0
M  V30 5792 C 545.357 0.264315 1.57396 0
M  V30 5793 C 545.557 -1.23324 1.59353 0
M  V30 5794 O 544.613 -2.01594 1.52039 0
M  V30 5795 C 545.926 0.929839 2.85962 0
M  V30 5796 C 547.474 0.905156 2.99626 0
M  V30 5797 C 547.949 1.55057 4.30954 0
M  V30 5798 N 549.44 1.51576 4.37697 0
M  V30 5799 C 550.175 1.98436 5.37969 0
M  V30 5800 N 549.671 2.53352 6.44813 0
M  V30 5801 N 551.464 1.89242 5.29286 0
M  V30 5802 H 543.615 1.57363 1.42656 0
M  V30 5803 H 545.878 0.658831 0.681649 0
M  V30 5804 H 545.584 1.98404 2.90394 0
M  V30 5805 H 545.458 0.449224 3.74515 0
M  V30 5806 H 547.845 -0.14048 2.94765 0
M  V30 5807 H 547.926 1.42397 2.12501 0
M  V30 5808 H 547.57 2.5955 4.36573 0
M  V30 5809 H 547.5 1.00682 5.16886 0
M  V30 5810 H 549.991 1.11452 3.61091 0
M  V30 5811 H 550.304 2.86918 7.17564 0
M  V30 5812 H 548.649 2.57388 6.45582 0
M  V30 5813 H 551.84 1.46083 4.44722 0
M  V30 5814 H 552.013 2.26075 6.07284 0
M  V30 5815 N 545.419 -1.53889 0.339982 0
M  V30 5816 C 546.352 -2.21187 -0.561405 0
M  V30 5817 C 547.33 -1.19463 -1.10306 0
M  V30 5818 O 548.514 -1.48268 -1.164 0
M  V30 5819 C 545.641 -2.8865 -1.77198 0
M  V30 5820 C 544.687 -4.04232 -1.3601 0
M  V30 5821 S 545.52 -5.34129 -0.382909 0
M  V30 5822 C 546.676 -6.05094 -1.60039 0
M  V30 5823 H 546.909 -2.97298 0.0102092 0
M  V30 5824 H 544.442 -1.53901 0.124056 0
M  V30 5825 H 546.4 -3.28138 -2.4665 0
M  V30 5826 H 545.061 -2.12311 -2.3148 0
M  V30 5827 H 544.254 -4.50358 -2.2626 0
M  V30 5828 H 543.856 -3.66503 -0.745098 0
M  V30 5829 H 546.148 -6.2827 -2.53541 0
M  V30 5830 H 547.091 -6.98182 -1.18099 0
M  V30 5831 H 547.499 -5.35207 -1.79483 0
M  V30 5832 N 546.897 -0.0685191 -1.57451 0
M  V30 5833 C 547.86 0.885173 -2.11417 0
M  V30 5834 C 548.86 1.22853 -1.03748 0
M  V30 5835 O 550.05 1.16235 -1.2975 0
M  V30 5836 C 547.182 2.18964 -2.61281 0
M  V30 5837 H 548.375 0.417034 -2.96986 0
M  V30 5838 H 545.928 0.18014 -1.55258 0
M  V30 5839 H 546.663 2.70321 -1.79156 0
M  V30 5840 H 546.448 1.9534 -3.39977 0
M  V30 5841 H 547.938 2.87242 -3.0312 0
M  V30 5842 N 548.375 1.56261 0.205012 0
M  V30 5843 C 549.786 1.70056 0.770574 0
M  V30 5844 C 550.137 0.673398 1.84282 0
M  V30 5845 O 549.262 -0.172196 2.15714 0
M  V30 5846 C 549.857 3.08316 1.40451 0
M  V30 5847 C 548.416 3.2391 1.91727 0
M  V30 5848 C 547.563 2.66001 0.783516 0
M  V30 5849 H 550.514 1.58688 -0.019911 0
M  V30 5850 H 550.535 3.05094 2.27371 0
M  V30 5851 H 550.047 3.83053 0.623882 0
M  V30 5852 H 548.148 2.54072 2.7254 0
M  V30 5853 H 548.261 4.3131 2.08588 0
M  V30 5854 H 546.625 2.24915 1.19521 0
M  V30 5855 H 547.408 3.43297 0.0152883 0
M  V30 5856 N 549.853 -0.472356 1.50355 0
M  V30 5857 C 550.763 -1.59637 1.7191 0
M  V30 5858 C 551.779 -1.63247 0.602195 0
M  V30 5859 O 552.955 -1.81139 0.880369 0
M  V30 5860 C 550.02 -2.9586 1.80742 0
M  V30 5861 C 549.081 -3.02649 3.04471 0
M  V30 5862 C 548.314 -4.32374 3.12872 0
M  V30 5863 O 548.537 -5.22807 2.28099 0
M  V30 5864 O 547.471 -4.44728 4.05587 0
M  V30 5865 H 551.297 -1.44373 2.67189 0
M  V30 5866 H 548.882 -0.651717 1.34436 0
M  V30 5867 H 550.764 -3.7677 1.88739 0
M  V30 5868 H 549.439 -3.11325 0.88647 0
M  V30 5869 H 548.346 -2.20821 3.01975 0
M  V30 5870 H 549.679 -2.92119 3.9614 0
M  V30 5871 N 551.331 -1.39911 -0.725443 0
M  V30 5872 C 552.241 -1.41688 -1.8698 0
M  V30 5873 C 553.257 -0.310579 -1.71206 0
M  V30 5874 O 554.433 -0.55359 -1.93642 0
M  V30 5875 C 551.498 -1.26811 -3.22676 0
M  V30 5876 C 550.559 -2.47497 -3.50776 0
M  V30 5877 C 549.792 -2.3332 -4.79997 0
M  V30 5878 O 550.015 -1.34175 -5.54394 0
M  V30 5879 O 548.949 -3.22498 -5.08211 0
M  V30 5880 H 552.775 -2.38171 -1.88436 0
M  V30 5881 H 550.36 -1.21128 -0.874548 0
M  V30 5882 H 552.242 -1.20684 -4.03749 0
M  V30 5883 H 550.917 -0.334289 -3.21969 0
M  V30 5884 H 549.824 -2.59201 -2.69751 0
M  V30 5885 H 551.157 -3.39606 -3.5627 0
M  V30 5886 N 552.809 0.956637 -1.25245 0
M  V30 5887 C 554.058 1.69537 -1.0927 0
M  V30 5888 C 554.371 1.92136 0.366503 0
M  V30 5889 O 555.577 2.63687 0.64665 0
M  V30 5890 C 554.033 3.05211 -1.9072 0
M  V30 5891 C 553.641 2.90416 -3.41119 0
M  V30 5892 C 555.385 3.82882 -1.83308 0
M  V30 5893 C 553.292 4.21468 -4.14872 0
M  V30 5894 H 552.222 0.635804 -0.405302 0
M  V30 5895 H 554.873 1.06513 -1.49423 0
M  V30 5896 H 553.255 3.69128 -1.43389 0
M  V30 5897 H 554.429 2.35444 -3.9611 0
M  V30 5898 H 552.744 2.26203 -3.49602 0
M  V30 5899 H 555.341 4.79944 -2.35706 0
M  V30 5900 H 555.684 4.0853 -0.800572 0
M  V30 5901 H 556.217 3.25711 -2.28379 0
M  V30 5902 H 552.956 4.01009 -5.18529 0
M  V30 5903 H 552.476 4.76213 -3.64665 0
M  V30 5904 H 554.155 4.90022 -4.22478 0
M  V30 5905 N 554.287 1.06798 1.15896 0
M  V30 5906 C 555.536 0.782796 1.8589 0
M  V30 5907 C 555.849 -0.693498 1.82893 0
M  V30 5908 O 557.055 -1.09325 2.48516 0
M  V30 5909 C 555.511 1.3502 3.33613 0
M  V30 5910 C 555.119 2.8571 3.45071 0
M  V30 5911 C 556.863 1.14278 4.08829 0
M  V30 5912 C 554.77 3.35669 4.86909 0
M  V30 5913 H 553.7 0.289149 0.696354 0
M  V30 5914 H 556.351 1.28734 1.30766 0
M  V30 5915 H 554.733 0.773407 3.88374 0
M  V30 5916 H 555.907 3.49385 3.00445 0
M  V30 5917 H 554.222 3.05178 2.83294 0
M  V30 5918 H 556.819 1.49087 5.13495 0
M  V30 5919 H 557.162 0.0814575 4.1622 0
M  V30 5920 H 557.695 1.68563 3.60321 0
M  V30 5921 H 554.434 4.41302 4.84698 0
M  V30 5922 H 553.954 2.76745 5.32139 0
M  V30 5923 H 555.633 3.31296 5.55745 0
M  V30 5924 N 555.766 -1.3263 0.851289 0
M  V30 5925 C 556.699 -2.26952 0.238318 0
M  V30 5926 C 557.677 -1.50243 -0.621757 0
M  V30 5927 O 558.861 -1.79378 -0.579298 0
M  V30 5928 C 555.988 -3.32124 -0.664178 0
M  V30 5929 C 555.034 -4.26325 0.122067 0
M  V30 5930 S 555.867 -5.14404 1.48824 0
M  V30 5931 C 557.023 -6.231 0.591372 0
M  V30 5932 H 557.256 -2.78594 1.03791 0
M  V30 5933 H 554.789 -1.4011 0.648731 0
M  V30 5934 H 556.747 -3.93197 -1.17924 0
M  V30 5935 H 555.408 -2.79273 -1.43755 0
M  V30 5936 H 554.601 -5.00821 -0.565181 0
M  V30 5937 H 554.203 -3.69652 0.568602 0
M  V30 5938 H 556.495 -6.77187 -0.205762 0
M  V30 5939 H 557.438 -6.95936 1.30687 0
M  V30 5940 H 557.846 -5.64252 0.167206 0
M  V30 5941 N 557.244 -0.608902 -1.45362 0
M  V30 5942 C 558.521 -0.0365378 -1.95566 0
M  V30 5943 C 558.901 1.43169 -1.55131 0
M  V30 5944 O 558.249 2.1349 -0.814513 0
M  V30 5945 C 558.459 -0.236026 -3.48201 0
M  V30 5946 C 559.807 -0.117518 -4.24437 0
M  V30 5947 O 560.831 -0.166217 -3.55812 0
M  V30 5948 O 559.69 -0.00372127 -5.465 0
M  V30 5949 H 556.784 0.0349874 -0.82626 0
M  V30 5950 H 559.33 -0.679055 -1.55521 0
M  V30 5951 H 558.102 -1.25569 -3.70605 0
M  V30 5952 H 557.725 0.441691 -3.95139 0
M  V30 5953 N 558.722 1.53707 -0.348139 0
M  V30 5954 C 560.138 1.596 0.00361134 0
M  V30 5955 C 560.338 1.36394 1.4832 0
M  V30 5956 O 559.394 1.16046 2.24253 0
M  V30 5957 C 560.707 2.97512 -0.436682 0
M  V30 5958 C 562.255 3.10568 -0.389416 0
M  V30 5959 C 562.73 4.50866 -0.805249 0
M  V30 5960 N 564.221 4.56929 -0.759616 0
M  V30 5961 C 564.956 5.63643 -1.05327 0
M  V30 5962 N 564.452 6.78189 -1.41531 0
M  V30 5963 N 566.245 5.5354 -0.977207 0
M  V30 5964 H 558.396 1.67044 -1.31187 0
M  V30 5965 H 560.659 0.782559 -0.535075 0
M  V30 5966 H 560.365 3.19575 -1.46849 0
M  V30 5967 H 560.239 3.76742 0.185744 0
M  V30 5968 H 562.626 2.88226 0.633228 0
M  V30 5969 H 562.707 2.33387 -1.04711 0
M  V30 5970 H 562.351 4.73943 -1.82593 0
M  V30 5971 H 562.281 5.26452 -0.124989 0
M  V30 5972 H 564.772 3.74675 -0.49265 0
M  V30 5973 H 565.085 7.55541 -1.62411 0
M  V30 5974 H 563.43 6.79624 -1.45381 0
M  V30 5975 H 566.621 4.62932 -0.693675 0
M  V30 5976 H 566.794 6.36614 -1.2094 0
M  V30 5977 N 560.2 0.0768682 1.57412 0
M  V30 5978 C 561.611 -0.455037 1.8107 0
M  V30 5979 C 561.962 -1.69323 0.991162 0
M  V30 5980 O 561.087 -2.15328 0.215156 0
M  V30 5981 C 561.682 -0.832316 3.28417 0
M  V30 5982 C 560.241 -1.30906 3.52903 0
M  V30 5983 C 559.388 -0.296714 2.75708 0
M  V30 5984 H 562.339 0.302514 1.5579 0
M  V30 5985 H 562.36 -1.69333 3.40744 0
M  V30 5986 H 561.872 0.0690532 3.88039 0
M  V30 5987 H 559.973 -2.22875 2.98592 0
M  V30 5988 H 560.086 -1.28348 4.61588 0
M  V30 5989 H 558.45 -0.775059 2.42621 0
M  V30 5990 H 559.233 0.597015 3.38069 0
M  V30 5991 N 561.678 -1.56367 -0.196722 0
M  V30 5992 C 562.925 -1.80529 -0.917366 0
M  V30 5993 C 563.253 -0.649817 -1.83324 0
M  V30 5994 O 562.508 0.36451 -1.92275 0
M  V30 5995 C 562.807 -3.10663 -1.767 0
M  V30 5996 C 562.473 -4.3962 -1.00225 0
M  V30 5997 C 561.135 -4.74653 -0.791095 0
M  V30 5998 C 563.487 -5.1913 -0.464035 0
M  V30 5999 C 560.815 -5.86692 -0.0302155 0
M  V30 6000 C 563.167 -6.31964 0.283625 0
M  V30 6001 C 561.831 -6.65581 0.505813 0
M  V30 6002 H 561.101 -0.660602 -0.335688 0
M  V30 6003 H 563.748 -1.90615 -0.183844 0
M  V30 6004 H 562.053 -2.95807 -2.56915 0
M  V30 6005 H 563.75 -3.26563 -2.32718 0
M  V30 6006 H 560.34 -4.12127 -1.17684 0
M  V30 6007 H 564.524 -4.9248 -0.614575 0
M  V30 6008 H 559.78 -6.11211 0.151917 0
M  V30 6009 H 563.954 -6.92791 0.708057 0
M  V30 6010 H 561.581 -7.52239 1.0973 0
M  V30 6011 N 563.156 0.464375 -1.50603 0
M  V30 6012 C 564.086 1.56944 -1.72889 0
M  V30 6013 C 565.067 1.59979 -0.577997 0
M  V30 6014 O 566.252 1.76138 -0.817855 0
M  V30 6015 C 563.382 2.95225 -1.8292 0
M  V30 6016 C 562.336 3.07056 -2.98162 0
M  V30 6017 C 561.662 4.47051 -2.93343 0
M  V30 6018 C 562.962 2.83648 -4.38567 0
M  V30 6019 H 564.656 1.38547 -2.65415 0
M  V30 6020 H 562.202 0.665082 -1.27721 0
M  V30 6021 H 564.155 3.72467 -1.97095 0
M  V30 6022 H 562.879 3.14793 -0.870209 0
M  V30 6023 H 561.538 2.32248 -2.83648 0
M  V30 6024 H 561.186 4.63547 -1.95276 0
M  V30 6025 H 560.886 4.55902 -3.70712 0
M  V30 6026 H 562.41 5.26304 -3.09575 0
M  V30 6027 H 563.824 3.50636 -4.53572 0
M  V30 6028 H 562.221 3.03937 -5.17438 0
M  V30 6029 H 563.291 1.79451 -4.50472 0
M  V30 6030 N 564.634 1.40294 0.718013 0
M  V30 6031 C 565.881 1.3844 1.47786 0
M  V30 6032 C 566.209 -0.0140838 1.94495 0
M  V30 6033 O 565.464 -0.998165 1.68331 0
M  V30 6034 C 565.763 2.31814 2.72024 0
M  V30 6035 C 565.429 3.79117 2.44093 0
M  V30 6036 C 564.091 4.19249 2.36185 0
M  V30 6037 C 566.443 4.72212 2.20602 0
M  V30 6038 C 563.771 5.50516 2.02851 0
M  V30 6039 C 566.123 6.03775 1.88781 0
M  V30 6040 C 564.787 6.42953 1.79354 0
M  V30 6041 H 564.057 0.506588 0.540786 0
M  V30 6042 H 566.704 1.72929 0.822663 0
M  V30 6043 H 565.009 1.90501 3.42369 0
M  V30 6044 H 566.706 2.27664 3.30106 0
M  V30 6045 H 563.296 3.47318 2.51133 0
M  V30 6046 H 567.48 4.42026 2.25669 0
M  V30 6047 H 562.736 5.79776 1.94088 0
M  V30 6048 H 566.91 6.75428 1.69617 0
M  V30 6049 H 564.537 7.44584 1.53291 0
M  V30 6050 N 566.112 -0.949982 1.2575 0
M  V30 6051 C 567.358 -1.69766 1.10938 0
M  V30 6052 C 567.691 -1.91056 -0.348028 0
M  V30 6053 O 566.966 -1.48488 -1.25625 0
M  V30 6054 C 567.249 -3.07779 1.86933 0
M  V30 6055 C 567.102 -2.9387 3.4053 0
M  V30 6056 C 568.421 -4.07749 1.65616 0
M  V30 6057 H 565.54 -0.616144 0.404396 0
M  V30 6058 H 568.182 -1.10394 1.54639 0
M  V30 6059 H 566.332 -3.58462 1.4979 0
M  V30 6060 H 568.004 -2.50476 3.87375 0
M  V30 6061 H 566.247 -2.29686 3.68004 0
M  V30 6062 H 566.918 -3.91719 3.88922 0
M  V30 6063 H 569.394 -3.65994 1.97959 0
M  V30 6064 H 568.27 -5.02348 2.21218 0
M  V30 6065 H 568.531 -4.38029 0.598595 0
M  V30 6066 N 567.59 -1.07411 -1.15328 0
M  V30 6067 C 568.836 -0.798831 -1.86404 0
M  V30 6068 C 569.169 0.673433 -1.8215 0
M  V30 6069 O 568.444 1.49428 -1.24505 0
M  V30 6070 C 568.727 -1.30846 -3.35487 0
M  V30 6071 C 568.58 -2.84532 -3.4837 0
M  V30 6072 C 569.899 -0.925486 -4.30259 0
M  V30 6073 H 567.018 -0.291659 -0.676834 0
M  V30 6074 H 569.66 -1.332 -1.35491 0
M  V30 6075 H 567.81 -0.854916 -3.78977 0
M  V30 6076 H 569.482 -3.3818 -3.13739 0
M  V30 6077 H 567.725 -3.22699 -2.8991 0
M  V30 6078 H 568.396 -3.15259 -4.53118 0
M  V30 6079 H 570.872 -1.3163 -3.94731 0
M  V30 6080 H 569.748 -1.3094 -5.33053 0
M  V30 6081 H 570.009 0.168525 -4.41779 0
M  V30 6082 N 569.068 1.32177 -0.85831 0
M  V30 6083 C 570.484 1.49873 -0.548656 0
M  V30 6084 C 570.684 1.79278 0.919874 0
M  V30 6085 O 569.74 1.86451 1.70271 0
M  V30 6086 C 571.053 2.64043 -1.4388 0
M  V30 6087 C 572.601 2.77928 -1.43961 0
M  V30 6088 C 573.076 3.95182 -2.31506 0
M  V30 6089 N 574.567 4.0245 -2.29321 0
M  V30 6090 C 575.302 4.9242 -2.93786 0
M  V30 6091 N 574.798 5.87373 -3.67376 0
M  V30 6092 N 576.591 4.85572 -2.83155 0
M  V30 6093 H 568.742 1.11357 -1.80868 0
M  V30 6094 H 571.005 0.549175 -0.772729 0
M  V30 6095 H 570.711 2.49055 -2.48324 0
M  V30 6096 H 570.585 3.59912 -1.12885 0
M  V30 6097 H 572.972 2.92338 -0.402813 0
M  V30 6098 H 573.053 1.82762 -1.78974 0
M  V30 6099 H 572.697 3.81531 -3.35256 0
M  V30 6100 H 572.627 4.89633 -1.93823 0
M  V30 6101 H 575.118 3.34507 -1.75822 0
M  V30 6102 H 575.431 6.52728 -4.13722 0
M  V30 6103 H 573.776 5.87388 -3.71484 0
M  V30 6104 H 576.967 4.10363 -2.25211 0
M  V30 6105 H 577.14 5.55486 -3.33676 0
M  V30 6106 N 570.547 0.616602 1.45037 0
M  V30 6107 C 571.497 -0.118543 2.27692 0
M  V30 6108 C 572.481 -0.830025 1.37838 0
M  V30 6109 O 573.673 -0.718528 1.6176 0
M  V30 6110 C 570.802 -1.10924 3.24886 0
M  V30 6111 C 569.888 -0.398134 4.22227 0
M  V30 6112 N 570.279 0.565233 5.02632 0
M  V30 6113 C 568.577 -0.644506 4.41319 0
M  V30 6114 C 569.278 0.984043 5.73316 0
M  V30 6115 N 568.254 0.325879 5.42622 0
M  V30 6116 H 572.056 0.621239 2.87259 0
M  V30 6117 H 569.57 0.440968 1.56299 0
M  V30 6118 H 571.567 -1.65038 3.82842 0
M  V30 6119 H 570.227 -1.84948 2.66879 0
M  V30 6120 H 571.238 0.942395 5.09254 0
M  V30 6121 H 567.915 -1.36873 3.94426 0
M  V30 6122 H 569.305 1.77911 6.47918 0
M  V30 6123 N 572.025 -1.5352 0.356285 0
M  V30 6124 C 572.973 -2.26945 -0.50978 0
M  V30 6125 C 573.967 -1.29569 -1.09125 0
M  V30 6126 O 575.173 -1.47231 -1.03552 0
M  V30 6127 H 571.548 -0.729368 -0.183102 0
M  V30 6128 H 573.519 -2.98111 0.131374 0
M  V30 6129 C 572.268 -3.06466 -1.64237 0
M  V30 6130 H 571.591 -3.81233 -1.20423 0
M  V30 6131 H 573.031 -3.61035 -2.22327 0
M  V30 6132 C 571.49 -2.16737 -2.57928 0
M  V30 6133 O 572.02 -1.77195 -3.60507 0
M  V30 6134 N 570.226 -1.81558 -2.26903 0
M  V30 6135 H 569.773 -2.13913 -1.43524 0
M  V30 6136 H 569.731 -1.21806 -2.89846 0
M  V30 6137 N 573.503 -0.0852151 -1.57369 0
M  V30 6138 C 574.914 0.445428 -1.81309 0
M  V30 6139 C 575.265 1.68795 -1.00013 0
M  V30 6140 O 574.39 2.15211 -0.226573 0
M  V30 6141 C 574.985 0.814887 -3.28854 0
M  V30 6142 C 573.544 1.29032 -3.53592 0
M  V30 6143 C 572.691 0.282089 -2.75861 0
M  V30 6144 H 575.642 -0.310771 -1.55627 0
M  V30 6145 H 575.663 1.67524 -3.41637 0
M  V30 6146 H 575.175 -0.0896309 -3.87996 0
M  V30 6147 H 573.276 2.21289 -2.9977 0
M  V30 6148 H 573.389 1.25898 -4.62262 0
M  V30 6149 H 571.753 0.762182 -2.43029 0
M  V30 6150 H 572.536 -0.614936 -3.37748 0
M  V30 6151 N 574.981 1.5647 0.188427 0
M  V30 6152 C 576.209 1.85131 0.923803 0
M  V30 6153 C 576.624 0.668537 1.76567 0
M  V30 6154 O 575.981 -0.362662 1.7886 0
M  V30 6155 C 576.032 3.12661 1.81453 0
M  V30 6156 O 575.753 4.26378 1.00665 0
M  V30 6157 C 577.254 3.54548 2.66103 0
M  V30 6158 H 574.474 0.614624 0.269218 0
M  V30 6159 H 577.018 2.03581 0.193671 0
M  V30 6160 H 575.173 2.96088 2.49821 0
M  V30 6161 H 575.587 4.99041 1.61425 0
M  V30 6162 H 577.061 4.4673 3.24247 0
M  V30 6163 H 577.538 2.77853 3.40139 0
M  V30 6164 H 578.144 3.73674 2.03096 0
M  V30 6165 N 576.459 -0.456382 1.50847 0
M  V30 6166 C 577.707 -1.20497 1.62249 0
M  V30 6167 C 578.028 -1.92156 0.331839 0
M  V30 6168 O 577.298 -1.84751 -0.651443 0
M  V30 6169 H 575.878 -0.447775 0.597918 0
M  V30 6170 H 578.54 -0.525099 1.87693 0
M  V30 6171 H 577.636 -1.94492 2.44089 0
M  V30 6172 N 577.937 -1.40673 -0.710563 0
M  V30 6173 C 579.165 -1.42547 -1.4996 0
M  V30 6174 C 579.58 -0.0265485 -1.88781 0
M  V30 6175 O 578.937 0.950694 -1.55782 0
M  V30 6176 C 578.988 -2.32071 -2.77173 0
M  V30 6177 O 578.709 -3.66518 -2.39992 0
M  V30 6178 C 580.21 -2.42591 -3.71032 0
M  V30 6179 H 577.43 -0.486025 -0.462623 0
M  V30 6180 H 579.974 -1.84783 -0.876102 0
M  V30 6181 H 578.129 -1.93184 -3.35795 0
M  V30 6182 H 578.543 -4.14115 -3.21884 0
M  V30 6183 H 580.017 -3.09429 -4.57119 0
M  V30 6184 H 580.494 -1.4525 -4.14486 0
M  V30 6185 H 581.1 -2.82051 -3.18319 0
M  V30 6186 N 579.415 0.9433 -1.26252 0
M  V30 6187 C 580.661 1.69175 -1.11837 0
M  V30 6188 C 580.994 1.91238 0.337891 0
M  V30 6189 O 580.269 1.49152 1.24836 0
M  V30 6190 C 580.552 3.06783 -1.88563 0
M  V30 6191 C 580.405 2.9206 -3.42083 0
M  V30 6192 C 581.724 4.06865 -1.67776 0
M  V30 6193 H 578.843 0.61399 -0.407658 0
M  V30 6194 H 581.485 1.09572 -1.55222 0
M  V30 6195 H 579.635 3.57663 -1.51689 0
M  V30 6196 H 581.307 2.48419 -3.88698 0
M  V30 6197 H 579.55 2.27731 -3.69217 0
M  V30 6198 H 580.221 3.89651 -3.90994 0
M  V30 6199 H 582.697 3.64939 -1.99897 0
M  V30 6200 H 581.573 5.01168 -2.23879 0
M  V30 6201 H 581.834 4.37705 -0.621816 0
M  V30 6202 N 580.893 1.08022 1.14757 0
M  V30 6203 C 581.823 0.728248 2.21853 0
M  V30 6204 C 582.804 -0.287486 1.67653 0
M  V30 6205 O 583.989 -0.158727 1.9355 0
M  V30 6206 C 581.119 0.132549 3.47047 0
M  V30 6207 C 580.073 1.07619 4.14249 0
M  V30 6208 C 579.399 0.342907 5.33599 0
M  V30 6209 C 580.699 2.41268 4.63235 0
M  V30 6210 H 582.393 1.62365 2.51551 0
M  V30 6211 H 579.939 0.782125 1.20908 0
M  V30 6212 H 581.892 -0.125665 4.21213 0
M  V30 6213 H 580.616 -0.797971 3.16702 0
M  V30 6214 H 579.275 1.31944 3.42033 0
M  V30 6215 H 578.923 -0.59129 4.99513 0
M  V30 6216 H 578.623 0.971955 5.79506 0
M  V30 6217 H 580.147 0.0926538 6.1053 0
M  V30 6218 H 581.561 2.21232 5.28894 0
M  V30 6219 H 579.958 2.9983 5.19829 0
M  V30 6220 H 581.028 3.03079 3.78512 0
M  V30 6221 N 582.371 -1.3172 0.865308 0
M  V30 6222 C 583.618 -1.96876 0.473931 0
M  V30 6223 C 583.946 -1.68425 -0.972786 0
M  V30 6224 O 583.201 -0.970742 -1.69927 0
M  V30 6225 C 583.5 -3.5102 0.672283 0
M  V30 6226 C 583.166 -3.9948 2.09108 0
M  V30 6227 C 581.828 -4.12425 2.4791 0
M  V30 6228 C 584.18 -4.2503 3.0166 0
M  V30 6229 C 581.508 -4.48267 3.78515 0
M  V30 6230 C 583.86 -4.62335 4.31774 0
M  V30 6231 C 582.524 -4.73486 4.70497 0
M  V30 6232 H 581.794 -0.72042 0.173424 0
M  V30 6233 H 584.441 -1.56937 1.0974 0
M  V30 6234 H 582.746 -3.91785 -0.034356 0
M  V30 6235 H 584.443 -3.99475 0.349353 0
M  V30 6236 H 581.033 -3.89898 1.77981 0
M  V30 6237 H 585.217 -4.14529 2.7291 0
M  V30 6238 H 580.473 -4.55097 4.08285 0
M  V30 6239 H 584.647 -4.81058 5.03543 0
M  V30 6240 H 582.274 -5.01016 5.71741 0
M  V30 6241 N 583.85 -0.624285 -1.44708 0
M  V30 6242 C 584.783 0.133905 -2.27807 0
M  V30 6243 C 585.76 0.857794 -1.38133 0
M  V30 6244 O 586.945 0.863277 -1.6757 0
M  V30 6245 C 584.072 1.19541 -3.16903 0
M  V30 6246 C 583.118 0.572813 -4.22636 0
M  V30 6247 S 583.951 -0.631953 -5.31758 0
M  V30 6248 C 585.106 0.429733 -6.24423 0
M  V30 6249 H 585.34 -0.571072 -2.91764 0
M  V30 6250 H 582.873 -0.412261 -1.48794 0
M  V30 6251 H 584.831 1.80293 -3.68788 0
M  V30 6252 H 583.492 1.87255 -2.5218 0
M  V30 6253 H 582.685 1.37205 -4.84965 0
M  V30 6254 H 582.287 0.0400641 -3.73979 0
M  V30 6255 H 584.579 1.30421 -6.64828 0
M  V30 6256 H 585.522 -0.157804 -7.07924 0
M  V30 6257 H 585.93 0.75256 -5.59461 0
M  V30 6258 N 585.328 1.53329 -0.364422 0
M  V30 6259 C 586.576 2.00842 0.225189 0
M  V30 6260 C 586.897 1.25345 1.49378 0
M  V30 6261 O 586.167 0.366396 1.92443 0
M  V30 6262 H 584.747 0.742009 0.0862027 0
M  V30 6263 H 587.409 1.8863 -0.490389 0
M  V30 6264 H 586.505 3.08795 0.452987 0
M  V30 6265 N 586.806 0.0935595 1.57322 0
M  V30 6266 C 587.738 -0.895923 2.10964 0
M  V30 6267 C 588.751 -1.24705 1.04654 0
M  V30 6268 O 589.94 -1.20044 1.32105 0
M  V30 6269 C 587.04 -2.20546 2.57318 0
M  V30 6270 C 586.213 -2.0299 3.87445 0
M  V30 6271 C 585.272 -3.17443 4.19662 0
M  V30 6272 O 584.298 -2.91474 4.88909 0
M  V30 6273 N 585.5 -4.43168 3.74943 0
M  V30 6274 H 588.265 -0.437788 2.96485 0
M  V30 6275 H 585.826 -0.0915863 1.61641 0
M  V30 6276 H 587.818 -2.9606 2.75917 0
M  V30 6277 H 586.388 -2.57789 1.76816 0
M  V30 6278 H 585.608 -1.11815 3.78009 0
M  V30 6279 H 586.896 -1.88535 4.7258 0
M  V30 6280 H 586.294 -4.67149 3.19043 0
M  V30 6281 H 584.851 -5.15637 3.987 0
M  V30 6282 N 588.284 -1.56567 -0.180126 0
M  V30 6283 C 589.53 -1.81761 -0.899497 0
M  V30 6284 C 589.863 -0.670015 -1.82276 0
M  V30 6285 O 589.138 0.328575 -1.91705 0
M  V30 6286 C 589.421 -3.17296 -1.7028 0
M  V30 6287 C 589.274 -4.4257 -0.803255 0
M  V30 6288 C 590.593 -3.49678 -2.67233 0
M  V30 6289 H 587.712 -0.661192 -0.325567 0
M  V30 6290 H 590.354 -1.89272 -0.16612 0
M  V30 6291 H 588.504 -3.11023 -2.32802 0
M  V30 6292 H 590.176 -4.60902 -0.191585 0
M  V30 6293 H 588.419 -4.33658 -0.110796 0
M  V30 6294 H 589.09 -5.33935 -1.40064 0
M  V30 6295 H 591.566 -3.56347 -2.14839 0
M  V30 6296 H 590.442 -4.45605 -3.20511 0
M  V30 6297 H 590.703 -2.73932 -3.47007 0
M  V30 6298 N 589.762 0.448376 -1.51087 0
M  V30 6299 C 590.695 1.56298 -1.66272 0
M  V30 6300 C 591.673 1.54381 -0.510419 0
M  V30 6301 O 592.857 1.73671 -0.732854 0
M  V30 6302 C 589.984 2.94883 -1.66618 0
M  V30 6303 C 589.03 3.14868 -2.87681 0
M  V30 6304 S 589.863 2.9234 -4.48662 0
M  V30 6305 C 591.019 4.33227 -4.51735 0
M  V30 6306 H 591.252 1.43182 -2.6055 0
M  V30 6307 H 588.785 0.637309 -1.40633 0
M  V30 6308 H 590.743 3.74771 -1.67502 0
M  V30 6309 H 589.404 3.05371 -0.735358 0
M  V30 6310 H 588.597 4.16166 -2.84292 0
M  V30 6311 H 588.199 2.42788 -2.84482 0
M  V30 6312 H 590.491 5.26247 -4.26697 0
M  V30 6313 H 591.434 4.41653 -5.53487 0
M  V30 6314 H 591.842 4.16367 -3.81181 0
M  V30 6315 N 591.24 1.41047 0.703093 0
M  V30 6316 C 592.15 1.44645 1.84703 0
M  V30 6317 C 593.166 0.337778 1.7069 0
M  V30 6318 O 594.342 0.584327 1.92737 0
M  V30 6319 C 591.407 1.31928 3.20618 0
M  V30 6320 C 590.468 2.53047 3.46794 0
M  V30 6321 C 589.701 2.40927 4.76224 0
M  V30 6322 O 589.924 1.42978 5.5219 0
M  V30 6323 O 588.858 3.30543 5.03016 0
M  V30 6324 H 592.684 2.41139 1.84624 0
M  V30 6325 H 590.269 1.22504 0.855167 0
M  V30 6326 H 592.151 1.27092 4.01778 0
M  V30 6327 H 590.826 0.385469 3.21397 0
M  V30 6328 H 589.733 2.6346 2.65593 0
M  V30 6329 H 591.066 3.45231 3.50822 0
M  V30 6330 N 592.718 -0.936591 1.26751 0
M  V30 6331 C 594.129 -1.49816 1.1141 0
M  V30 6332 C 594.48 -1.9383 -0.304015 0
M  V30 6333 O 593.605 -1.80346 -1.196 0
M  V30 6334 C 594.2 -2.72271 2.01629 0
M  V30 6335 C 592.759 -3.2468 1.9042 0
M  V30 6336 C 591.906 -1.97444 1.94708 0
M  V30 6337 H 594.857 -0.751604 1.39773 0
M  V30 6338 H 594.878 -3.46741 1.56688 0
M  V30 6339 H 594.39 -2.40205 3.04833 0
M  V30 6340 H 592.491 -3.61525 0.901674 0
M  V30 6341 H 592.604 -3.91476 2.76195 0
M  V30 6342 H 590.968 -2.13545 1.38818 0
M  V30 6343 H 591.751 -1.67703 2.9955 0
M  V30 6344 O 594.235 -1.20928 -1.07045 0
M  V30 6345 H 594.926 -0.966183 -1.67883 0
M  V30 END ATOM
M  V30 BEGIN BOND
M  V30 END BOND
M  V30 END CTAB
M  END
$$$$
