drugbank_target|P16050 Arachidonate 15-lipoxygenase (DB02709; DB08492)
 OpenBabel12092119293D

  0  0  0     0  0            999 V3000
M  V30 BEGIN CTAB
M  V30 COUNTS 10544 10678 0 0 0
M  V30 BEGIN ATOM
M  V30 1 H -0.908 1.98254 -0.117106 0
M  V30 2 N 0 1.576 0 0
M  V30 3 C 0.933 2.03868 1.02534 0
M  V30 4 C 1.911 0.928543 1.3348 0
M  V30 5 O 3.095 1.19667 1.45644 0
M  V30 6 C 0.222 2.43627 2.35294 0
M  V30 7 C -0.732 3.65373 2.2001 0
M  V30 8 S 0.101 5.13292 1.52614 0
M  V30 9 C 1.257 5.56322 2.86805 0
M  V30 10 H 1.49 2.90518 0.631377 0
M  V30 11 H -0.977 1.52953 0.210867 0
M  V30 12 H 0.981 2.67203 3.11629 0
M  V30 13 H -0.358 1.57376 2.7183 0
M  V30 14 H -1.165 3.90944 3.18086 0
M  V30 15 H -1.563 3.418 1.51819 0
M  V30 16 H 0.729 5.58782 3.83104 0
M  V30 17 H 1.672 6.56266 2.65933 0
M  V30 18 H 2.08 4.83886 2.90714 0
M  V30 19 N 1.4781 -0.272755 1.55222 0
M  V30 20 C 2.7261 -1.00234 1.75492 0
M  V30 21 C 3.0471 -1.8681 0.5592 0
M  V30 22 O 2.3171 -1.91215 -0.425882 0
M  V30 23 H 0.8971 -0.373076 0.647166 0
M  V30 24 H 3.5591 -0.296926 1.92625 0
M  V30 25 H 2.6551 -1.63913 2.65592 0
M  V30 26 N 2.9562 -1.48159 -0.537278 0
M  V30 27 C 3.8862 -1.65029 -1.6519 0
M  V30 28 C 4.8672 -0.499281 -1.62607 0
M  V30 29 O 6.0522 -0.730972 -1.79918 0
M  V30 30 C 3.1822 -1.68303 -3.03795 0
M  V30 31 C 2.1362 -2.8283 -3.21234 0
M  V30 32 C 1.4622 -2.71189 -4.60826 0
M  V30 33 C 2.7622 -4.24211 -3.04701 0
M  V30 34 H 4.4562 -2.58341 -1.51328 0
M  V30 35 H 2.0022 -1.24325 -0.726585 0
M  V30 36 H 3.9552 -1.78693 -3.81637 0
M  V30 37 H 2.6792 -0.715635 -3.18663 0
M  V30 38 H 1.3382 -2.71983 -2.45807 0
M  V30 39 H 0.9862 -1.72435 -4.7252 0
M  V30 40 H 0.6862 -3.48035 -4.7344 0
M  V30 41 H 2.2102 -2.83537 -5.40777 0
M  V30 42 H 3.6242 -4.3593 -3.72341 0
M  V30 43 H 2.0212 -5.01998 -3.28813 0
M  V30 44 H 3.0912 -4.41184 -2.01209 0
M  V30 45 N 4.4343 0.785586 -1.36625 0
M  V30 46 C 5.6643 1.5722 -1.34036 0
M  V30 47 C 6.0723 1.89033 0.0795062 0
M  V30 48 O 5.4153 1.50881 1.04789 0
M  V30 49 C 5.4773 2.91759 -2.10041 0
M  V30 50 C 5.1413 2.82654 -3.59104 0
M  V30 51 C 6.1383 2.54634 -4.53274 0
M  V30 52 C 3.8233 3.01111 -4.02042 0
M  V30 53 C 5.8173 2.45177 -5.88359 0
M  V30 54 C 3.5043 2.91276 -5.37216 0
M  V30 55 C 4.5023 2.63348 -6.30188 0
M  V30 56 O 4.1903 2.53514 -7.6288 0
M  V30 57 H 3.9223 0.494177 -0.461265 0
M  V30 58 H 6.4763 0.982632 -1.8037 0
M  V30 59 H 4.7063 3.52781 -1.58375 0
M  V30 60 H 6.3953 3.53059 -2.00261 0
M  V30 61 H 7.1613 2.40073 -4.21414 0
M  V30 62 H 3.0403 3.21854 -3.30047 0
M  V30 63 H 6.5843 2.23299 -6.60896 0
M  V30 64 H 2.4813 3.054 -5.68684 0
M  V30 65 H 3.2493 2.68967 -7.73045 0
M  V30 66 N 5.9124 1.20967 1.01018 0
M  V30 67 C 7.3284 0.965905 1.27053 0
M  V30 68 C 7.5284 -0.350785 1.98423 0
M  V30 69 O 6.5844 -1.07773 2.28344 0
M  V30 70 C 7.8974 2.15294 2.09926 0
M  V30 71 C 9.4454 2.19463 2.23171 0
M  V30 72 C 9.9204 3.3767 3.09424 0
M  V30 73 N 11.4114 3.37724 3.17012 0
M  V30 74 C 12.1464 4.25837 3.83993 0
M  V30 75 N 11.6424 5.24138 4.53047 0
M  V30 76 N 13.4354 4.1366 3.80581 0
M  V30 77 H 5.5864 2.0565 0.531194 0
M  V30 78 H 7.8494 0.90024 0.297106 0
M  V30 79 H 7.5554 3.10684 1.64828 0
M  V30 80 H 7.4294 2.13923 3.10672 0
M  V30 81 H 9.8164 1.24632 2.6749 0
M  V30 82 H 9.8974 2.2488 1.21912 0
M  V30 83 H 9.5414 4.32791 2.65808 0
M  V30 84 H 9.4714 3.29491 4.10784 0
M  V30 85 H 11.9624 2.6658 2.6785 0
M  V30 86 H 12.2754 5.87684 5.01844 0
M  V30 87 H 10.6204 5.28068 4.5185 0
M  V30 88 H 13.8114 3.36127 3.25785 0
M  V30 89 H 13.9844 4.82538 4.32505 0
M  V30 90 N 7.3905 -1.2043 1.01659 0
M  V30 91 C 8.6395 -1.89118 0.701237 0
M  V30 92 C 8.9525 -1.79705 -0.772358 0
M  V30 93 O 10.1585 -2.43528 -1.20026 0
M  V30 94 C 8.6145 -3.39168 1.20388 0
M  V30 95 C 8.2225 -3.57166 2.70438 0
M  V30 96 C 9.9665 -4.1341 0.963953 0
M  V30 97 C 7.8735 -5.01042 3.14183 0
M  V30 98 H 6.8035 -0.708267 0.2586 0
M  V30 99 H 9.4545 -1.36239 1.22927 0
M  V30 100 H 7.8365 -3.91369 0.603824 0
M  V30 101 H 9.0105 -3.15351 3.35992 0
M  V30 102 H 7.3255 -2.96294 2.92572 0
M  V30 103 H 9.9225 -5.19491 1.26621 0
M  V30 104 H 10.2655 -4.16181 -0.099578 0
M  V30 105 H 10.7985 -3.67309 1.52738 0
M  V30 106 H 7.5375 -5.03426 4.19812 0
M  V30 107 H 7.0575 -5.43668 2.53348 0
M  V30 108 H 8.7365 -5.69623 3.0682 0
M  V30 109 N 8.8686 -0.792821 -1.36206 0
M  V30 110 C 10.2846 -0.474903 -1.52371 0
M  V30 111 C 10.4846 1.00622 -1.74578 0
M  V30 112 O 9.5406 1.79162 -1.77924 0
M  V30 113 C 10.8536 -1.3083 -2.70747 0
M  V30 114 C 12.4016 -1.30234 -2.84619 0
M  V30 115 C 12.8766 -2.11956 -4.06004 0
M  V30 116 N 14.3676 -2.09419 -4.13156 0
M  V30 117 C 15.1026 -2.69419 -5.06163 0
M  V30 118 N 14.5986 -3.3829 -6.04592 0
M  V30 119 N 16.3916 -2.59134 -4.98804 0
M  V30 120 H 8.5426 -1.75222 -1.20046 0
M  V30 121 H 10.8056 -0.745024 -0.586211 0
M  V30 122 H 10.5116 -2.35881 -2.6087 0
M  V30 123 H 10.3856 -0.95196 -3.6499 0
M  V30 124 H 12.7726 -0.259748 -2.93955 0
M  V30 125 H 12.8536 -1.69847 -1.91274 0
M  V30 126 H 12.4976 -3.16248 -3.97429 0
M  V30 127 H 12.4276 -1.69711 -4.98503 0
M  V30 128 H 14.9186 -1.59297 -3.42685 0
M  V30 129 H 15.2316 -3.81394 -6.7213 0
M  V30 130 H 13.5766 -3.42393 -6.04807 0
M  V30 131 H 16.7676 -2.04927 -4.20859 0
M  V30 132 H 16.9406 -3.06185 -5.711 0
M  V30 133 N 10.3467 1.47872 -0.545128 0
M  V30 134 C 11.5927 2.02793 -0.0166104 0
M  V30 135 C 11.9257 1.41987 1.32489 0
M  V30 136 O 11.2007 0.571045 1.85928 0
M  V30 137 C 11.4837 3.59989 0.0893294 0
M  V30 138 C 11.3367 4.3125 -1.27841 0
M  V30 139 C 12.6557 4.32606 0.808724 0
M  V30 140 H 9.7747 0.736962 -0.00751035 0
M  V30 141 H 12.4167 1.76433 -0.705085 0
M  V30 142 H 10.5667 3.82579 0.675681 0
M  V30 143 H 12.2387 4.20035 -1.90704 0
M  V30 144 H 10.4817 3.92076 -1.85632 0
M  V30 145 H 11.1527 5.39736 -1.15713 0
M  V30 146 H 13.6287 4.14936 0.310992 0
M  V30 147 H 12.5047 5.42251 0.851782 0
M  V30 148 H 12.7657 4.00963 1.86229 0
M  V30 149 N 11.8248 0.280983 1.55075 0
M  V30 150 C 13.0498 -0.340154 2.04592 0
M  V30 151 C 13.4748 -1.48246 1.15779 0
M  V30 152 O 12.8328 -1.80614 0.15761 0
M  V30 153 C 12.8808 -0.793104 3.5177 0
M  V30 154 O 11.9848 -1.89981 3.66034 0
M  V30 155 H 11.3258 -0.0694289 0.66036 0
M  V30 156 H 13.8558 0.416993 2.00306 0
M  V30 157 H 13.8658 -1.08729 3.93245 0
M  V30 158 H 12.5408 0.0426163 4.15878 0
M  V30 159 H 11.1178 -1.60771 3.36463 0
M  V30 160 N 13.3029 -1.57598 0.00835791 0
M  V30 161 C 14.5309 -1.95214 -0.68549 0
M  V30 162 C 14.9459 -0.883706 -1.66841 0
M  V30 163 O 14.3029 0.136565 -1.81988 0
M  V30 164 C 14.3539 -3.32865 -1.41007 0
M  V30 165 O 14.0749 -4.35609 -0.466552 0
M  V30 166 C 15.5759 -3.84991 -2.19765 0
M  V30 167 H 12.7959 -0.643422 -0.190392 0
M  V30 168 H 15.3399 -2.04406 0.0619607 0
M  V30 169 H 13.4949 -3.24956 -2.10908 0
M  V30 170 H 13.9089 -5.15288 -0.978699 0
M  V30 171 H 15.3829 -4.8371 -2.65948 0
M  V30 172 H 15.8599 -3.18137 -3.02796 0
M  V30 173 H 16.4659 -3.96103 -1.54864 0
M  V30 174 N 14.781 0.264519 -1.55364 0
M  V30 175 C 16.029 0.993021 -1.76021 0
M  V30 176 C 16.35 1.86511 -0.569099 0
M  V30 177 O 15.62 1.91438 0.415735 0
M  V30 178 H 14.2 0.369639 -0.649135 0
M  V30 179 H 16.862 0.286707 -1.9278 0
M  V30 180 H 15.958 1.62502 -2.66457 0
M  V30 181 N 16.2591 1.48442 0.529413 0
M  V30 182 C 17.2221 1.62524 1.61612 0
M  V30 183 C 18.2221 0.498509 1.52877 0
M  V30 184 O 19.4121 0.76431 1.56537 0
M  V30 185 C 16.5441 1.59597 3.01233 0
M  V30 186 H 17.7371 2.59423 1.50465 0
M  V30 187 H 15.2901 1.37047 0.751514 0
M  V30 188 H 16.0251 0.641781 3.17886 0
M  V30 189 H 15.8101 2.41397 3.08982 0
M  V30 190 H 17.3001 1.72646 3.80241 0
M  V30 191 N 17.7372 -0.778329 1.37039 0
M  V30 192 C 18.9622 -1.57248 1.35233 0
M  V30 193 C 19.3872 -1.87999 -0.0615568 0
M  V30 194 O 18.7452 -1.48734 -1.03672 0
M  V30 195 C 18.7932 -2.86353 2.19167 0
M  V30 196 O 17.8972 -3.80442 1.59178 0
M  V30 197 H 17.2382 -0.476569 0.462362 0
M  V30 198 H 19.7682 -0.963853 1.80474 0
M  V30 199 H 19.7782 -3.35519 2.32145 0
M  V30 200 H 18.4532 -2.63299 3.21942 0
M  V30 201 H 17.0302 -3.39067 1.55203 0
M  V30 202 N 19.2153 -1.21501 -1.00376 0
M  V30 203 C 20.1453 -0.999478 -2.11028 0
M  V30 204 C 21.1263 0.0759671 -1.6993 0
M  V30 205 O 22.3113 -0.0841106 -1.94018 0
M  V30 206 C 19.4413 -0.564709 -3.42678 0
M  V30 207 C 18.3953 -1.58486 -3.97576 0
M  V30 208 C 17.7213 -1.00628 -5.25146 0
M  V30 209 C 19.0213 -2.97204 -4.29496 0
M  V30 210 H 20.7153 -1.92495 -2.29317 0
M  V30 211 H 18.2613 -0.92693 -1.102 0
M  V30 212 H 20.2143 -0.401091 -4.19487 0
M  V30 213 H 18.9383 0.396411 -3.24185 0
M  V30 214 H 17.5973 -1.73606 -3.22888 0
M  V30 215 H 17.2453 -0.0368439 -5.02987 0
M  V30 216 H 16.9453 -1.68771 -5.62841 0
M  V30 217 H 18.4693 -0.854015 -6.04598 0
M  V30 218 H 19.8833 -2.8552 -4.97143 0
M  V30 219 H 18.2803 -3.62372 -4.78338 0
M  V30 220 H 19.3503 -3.47956 -3.3772 0
M  V30 221 N 20.6934 1.19889 -1.02296 0
M  V30 222 C 21.9234 1.93109 -0.734332 0
M  V30 223 C 22.3314 1.75377 0.709889 0
M  V30 224 O 21.6744 1.06912 1.49384 0
M  V30 225 C 21.7364 3.45362 -0.99827 0
M  V30 226 C 21.4004 3.8686 -2.43287 0
M  V30 227 C 22.3974 3.92102 -3.41397 0
M  V30 228 C 20.0824 4.18668 -2.77529 0
M  V30 229 C 22.0764 4.28573 -4.71809 0
M  V30 230 C 19.7634 4.54813 -4.08153 0
M  V30 231 C 20.7614 4.59739 -5.05103 0
M  V30 232 O 20.4494 4.95051 -6.33388 0
M  V30 233 H 20.1814 0.620409 -0.268456 0
M  V30 234 H 22.7354 1.53144 -1.3688 0
M  V30 235 H 20.9654 3.85482 -0.306645 0
M  V30 236 H 22.6544 3.99814 -0.700234 0
M  V30 237 H 23.4204 3.67685 -3.1628 0
M  V30 238 H 19.2994 4.14021 -2.0275 0
M  V30 239 H 22.8434 4.32333 -5.4748 0
M  V30 240 H 18.7404 4.78687 -4.33047 0
M  V30 241 H 19.5084 5.1302 -6.37772 0
M  V30 242 N 22.1715 0.800033 1.35784 0
M  V30 243 C 23.1345 0.211565 2.28221 0
M  V30 244 C 24.1345 -0.59728 1.49296 0
M  V30 245 O 25.3245 -0.416721 1.69142 0
M  V30 246 C 22.4565 -0.705846 3.33513 0
M  V30 247 H 23.6495 1.02677 2.81776 0
M  V30 248 H 21.2025 0.570211 1.45528 0
M  V30 249 H 21.9375 -1.54498 2.85133 0
M  V30 250 H 21.7225 -0.127655 3.91892 0
M  V30 251 H 23.2125 -1.11211 4.02519 0
M  V30 252 N 23.6496 -1.47581 0.552962 0
M  V30 253 C 24.8976 -2.02082 0.0272703 0
M  V30 254 C 25.2186 -1.4301 -1.32563 0
M  V30 255 O 24.4886 -0.603745 -1.86365 0
M  V30 256 H 23.0686 -0.746966 0.00709182 0
M  V30 257 H 25.7306 -1.81033 0.722008 0
M  V30 258 H 24.8266 -3.12034 -0.0639951 0
M  V30 259 N 25.1277 -0.289203 -1.54924 0
M  V30 260 C 26.3527 0.329299 -2.04769 0
M  V30 261 C 26.7777 1.4763 -1.16564 0
M  V30 262 O 26.1357 1.80527 -0.167186 0
M  V30 263 C 26.1837 0.774438 -3.52186 0
M  V30 264 O 25.2877 1.88038 -3.67036 0
M  V30 265 H 24.6287 0.0659259 -0.660719 0
M  V30 266 H 27.1587 -0.42761 -2.00082 0
M  V30 267 H 27.1687 1.06642 -3.93816 0
M  V30 268 H 25.8437 -0.0646707 -4.1585 0
M  V30 269 H 24.4207 1.58985 -3.3731 0
M  V30 270 N 26.6058 1.57591 -0.0167156 0
M  V30 271 C 27.5538 2.10604 0.987353 0
M  V30 272 C 28.5478 1.02977 1.34507 0
M  V30 273 O 29.7538 1.21425 1.32875 0
M  V30 274 H 26.1288 0.672695 0.336134 0
M  V30 275 H 28.0998 2.93925 0.514817 0
M  V30 276 C 26.8488 2.6382 2.26483 0
M  V30 277 H 26.1718 3.46278 1.99829 0
M  V30 278 H 27.6118 3.04573 2.94977 0
M  V30 279 C 26.0708 1.55992 2.9861 0
M  V30 280 O 26.6008 0.952521 3.90243 0
M  V30 281 N 24.8068 1.28335 2.60727 0
M  V30 282 H 24.3538 1.77914 1.86291 0
M  V30 283 H 24.3118 0.564115 3.09298 0
M  V30 284 N 28.0839 -0.256276 1.55502 0
M  V30 285 C 29.0319 -1.33694 1.90338 0
M  V30 286 C 30.0259 -1.50299 0.781441 0
M  V30 287 O 31.2319 -1.51885 0.965966 0
M  V30 288 H 27.6069 -0.447483 0.60437 0
M  V30 289 H 29.5779 -1.01574 2.8058 0
M  V30 290 C 28.3269 -2.68724 2.20642 0
M  V30 291 H 27.6499 -2.56743 3.06469 0
M  V30 292 H 29.0899 -3.43237 2.48926 0
M  V30 293 C 27.5489 -3.21101 1.01959 0
M  V30 294 O 28.0789 -4.0084 0.262762 0
M  V30 295 N 26.2849 -2.79003 0.812746 0
M  V30 296 H 25.8319 -2.14271 1.42989 0
M  V30 297 H 25.7899 -3.14393 0.0203076 0
M  V30 298 N 29.562 -1.4872 -0.521534 0
M  V30 299 C 30.494 -1.59968 -1.64143 0
M  V30 300 C 31.507 -0.483463 -1.55456 0
M  V30 301 O 32.696 -0.75467 -1.61762 0
M  V30 302 C 29.796 -1.52127 -3.02838 0
M  V30 303 C 28.969 -2.78932 -3.36921 0
M  V30 304 C 28.028 -2.64428 -4.54933 0
M  V30 305 O 27.054 -3.38331 -4.57735 0
M  V30 306 N 28.256 -1.74606 -5.53618 0
M  V30 307 H 31.021 -2.56548 -1.54929 0
M  V30 308 H 28.582 -1.45551 -0.708988 0
M  V30 309 H 30.574 -1.40106 -3.79674 0
M  V30 310 H 29.144 -0.634868 -3.06085 0
M  V30 311 H 28.364 -3.05455 -2.4918 0
M  V30 312 H 29.652 -3.63041 -3.56481 0
M  V30 313 H 29.05 -1.13782 -5.54139 0
M  V30 314 H 27.607 -1.6852 -6.29638 0
M  V30 315 N 31.0401 0.771051 -1.3745 0
M  V30 316 C 32.2861 1.5319 -1.32894 0
M  V30 317 C 32.6191 1.94008 0.0862511 0
M  V30 318 O 31.8941 1.64124 1.04373 0
M  V30 319 C 32.1771 2.79648 -2.26868 0
M  V30 320 C 32.0301 2.45079 -3.77169 0
M  V30 321 C 33.3491 3.81583 -2.19277 0
M  V30 322 H 30.4681 0.555744 -0.484064 0
M  V30 323 H 33.1101 0.884492 -1.68157 0
M  V30 324 H 31.2601 3.34891 -1.96926 0
M  V30 325 H 32.9321 1.95745 -4.1771 0
M  V30 326 H 31.1751 1.77767 -3.95704 0
M  V30 327 H 31.8461 3.35478 -4.38359 0
M  V30 328 H 34.3221 3.35835 -2.45671 0
M  V30 329 H 33.1981 4.67787 -2.87171 0
M  V30 330 H 33.4591 4.25897 -1.18592 0
M  V30 331 N 32.5182 1.22032 0.997298 0
M  V30 332 C 33.4502 0.944263 2.08845 0
M  V30 333 C 34.4632 -0.0754663 1.62625 0
M  V30 334 O 35.6522 0.157994 1.77799 0
M  V30 335 C 32.7522 0.397723 3.36558 0
M  V30 336 C 31.9252 1.47362 4.11829 0
M  V30 337 C 30.9842 0.934951 5.17827 0
M  V30 338 O 30.0102 1.62016 5.45655 0
M  V30 339 N 31.2122 -0.245895 5.79979 0
M  V30 340 H 33.9772 1.88363 2.33109 0
M  V30 341 H 31.5382 1.12661 1.16272 0
M  V30 342 H 33.5302 0.0227771 4.04694 0
M  V30 343 H 32.1002 -0.446646 3.09393 0
M  V30 344 H 31.3202 2.02208 3.38386 0
M  V30 345 H 32.6082 2.19764 4.58891 0
M  V30 346 H 32.0062 -0.819475 5.59733 0
M  V30 347 H 30.5632 -0.562272 6.4937 0
M  V30 348 N 33.9963 -1.19345 1.0293 0
M  V30 349 C 34.9263 -2.2481 0.631105 0
M  V30 350 C 35.9073 -1.66245 -0.360104 0
M  V30 351 O 37.0923 -1.92677 -0.242726 0
M  V30 352 C 34.2223 -3.47295 -0.0184607 0
M  V30 353 C 33.1763 -4.18536 0.895073 0
M  V30 354 C 32.5023 -5.34586 0.110592 0
M  V30 355 C 33.8023 -4.73287 2.209 0
M  V30 356 H 35.4963 -2.58372 1.51275 0
M  V30 357 H 33.0423 -1.24194 0.728818 0
M  V30 358 H 34.9953 -4.20268 -0.308675 0
M  V30 359 H 33.7193 -3.12933 -0.934907 0
M  V30 360 H 32.3783 -3.47446 1.16949 0
M  V30 361 H 32.0263 -4.96469 -0.807902 0
M  V30 362 H 31.7263 -5.83183 0.719087 0
M  V30 363 H 33.2503 -6.10355 -0.172871 0
M  V30 364 H 34.6643 -5.38013 1.98028 0
M  V30 365 H 33.0613 -5.32373 2.76946 0
M  V30 366 H 34.1313 -3.91331 2.86336 0
M  V30 367 N 35.4744 -0.807222 -1.35358 0
M  V30 368 C 36.7204 -0.397594 -1.99476 0
M  V30 369 C 37.0754 1.02405 -1.62883 0
M  V30 370 O 36.3684 1.70077 -0.882282 0
M  V30 371 C 36.5624 -0.519036 -3.53611 0
M  V30 372 C 36.3914 -1.95094 -4.05177 0
M  V30 373 C 35.1614 -2.57945 -4.34503 0
M  V30 374 C 37.3594 -2.91558 -4.23673 0
M  V30 375 N 35.3414 -3.92539 -4.72003 0
M  V30 376 C 36.7124 -4.11024 -4.64176 0
M  V30 377 C 38.7674 -2.88381 -4.05883 0
M  V30 378 C 37.4704 -5.27745 -4.88751 0
M  V30 379 C 39.4964 -4.04306 -4.31614 0
M  V30 380 C 38.8584 -5.22519 -4.72391 0
M  V30 381 H 34.9574 -0.193274 -0.75774 0
M  V30 382 H 37.5414 -1.0486 -1.6405 0
M  V30 383 H 35.7124 0.101979 -3.88266 0
M  V30 384 H 37.4444 -0.0839321 -4.04613 0
M  V30 385 H 34.1994 -2.09295 -4.24844 0
M  V30 386 H 34.6234 -4.61836 -4.95011 0
M  V30 387 H 39.2654 -1.98137 -3.73499 0
M  V30 388 H 36.9834 -6.1856 -5.20008 0
M  V30 389 H 40.5694 -4.03229 -4.19402 0
M  V30 390 H 39.4494 -6.1073 -4.91913 0
M  V30 391 N 36.9525 1.47285 -0.560781 0
M  V30 392 C 37.8825 2.32857 0.173105 0
M  V30 393 C 38.8635 1.44009 0.905281 0
M  V30 394 O 40.0485 1.7286 0.885046 0
M  V30 395 C 37.1785 3.25861 1.20133 0
M  V30 396 C 36.1325 4.23978 0.585388 0
M  V30 397 C 35.4585 5.06332 1.7185 0
M  V30 398 C 36.7585 5.20242 -0.463178 0
M  V30 399 H 38.4525 2.94466 -0.541307 0
M  V30 400 H 35.9985 1.41601 -0.261764 0
M  V30 401 H 37.9515 3.84569 1.72293 0
M  V30 402 H 36.6755 2.62315 1.94573 0
M  V30 403 H 35.3345 3.66501 0.085054 0
M  V30 404 H 34.9825 4.39186 2.45203 0
M  V30 405 H 34.6825 5.72762 1.31213 0
M  V30 406 H 36.2065 5.67899 2.24329 0
M  V30 407 H 37.6205 5.73293 -0.027502 0
M  V30 408 H 36.0175 5.94896 -0.788627 0
M  V30 409 H 37.0875 4.65504 -1.35773 0
M  V30 410 N 38.4306 0.297415 1.54768 0
M  V30 411 C 39.6766 -0.313376 2.00364 0
M  V30 412 C 40.0096 -1.53815 1.18553 0
M  V30 413 O 39.2846 -1.92739 0.261103 0
M  V30 414 C 39.5676 -0.673525 3.53745 0
M  V30 415 C 39.4206 0.560133 4.46299 0
M  V30 416 C 40.7396 -1.50143 4.13697 0
M  V30 417 H 37.8586 -0.112428 0.728374 0
M  V30 418 H 40.5006 0.4088 1.8555 0
M  V30 419 H 38.6506 -1.28881 3.665 0
M  V30 420 H 40.3226 1.19863 4.45455 0
M  V30 421 H 38.5656 1.19405 4.17043 0
M  V30 422 H 39.2366 0.26405 5.51368 0
M  V30 423 H 41.7126 -0.981588 4.04356 0
M  V30 424 H 40.5886 -1.72221 5.21182 0
M  V30 425 H 40.8496 -2.48952 3.65343 0
M  V30 426 N 39.9087 -1.5758 0.0250728 0
M  V30 427 C 41.1567 -1.91255 -0.653151 0
M  V30 428 C 41.4777 -0.901691 -1.729 0
M  V30 429 O 40.7477 0.0573785 -1.95816 0
M  V30 430 H 39.3277 -0.705942 -0.244243 0
M  V30 431 H 41.9897 -1.94767 0.0719209 0
M  V30 432 H 41.0857 -2.91752 -1.10847 0
M  V30 433 N 41.3868 0.248026 -1.55636 0
M  V30 434 C 42.3188 1.32993 -1.8667 0
M  V30 435 C 43.3318 1.44345 -0.752877 0
M  V30 436 O 44.5208 1.45715 -1.03098 0
M  V30 437 C 41.6208 2.70863 -2.03682 0
M  V30 438 C 40.7938 2.81792 -3.34532 0
M  V30 439 C 39.8528 4.005 -3.41301 0
M  V30 440 O 38.8788 3.9008 -4.14519 0
M  V30 441 N 40.0808 5.13618 -2.70512 0
M  V30 442 H 42.8458 1.06707 -2.8006 0
M  V30 443 H 40.4068 0.438129 -1.55859 0
M  V30 444 H 42.3988 3.48612 -2.05553 0
M  V30 445 H 40.9688 2.89862 -1.17041 0
M  V30 446 H 40.1888 1.90729 -3.44987 0
M  V30 447 H 41.4768 2.86043 -4.20781 0
M  V30 448 H 40.8748 5.24975 -2.10755 0
M  V30 449 H 39.4318 5.89505 -2.78077 0
M  V30 450 N 42.8649 1.48995 0.513639 0
M  V30 451 C 43.8149 1.61127 1.61314 0
M  V30 452 C 44.7989 0.467521 1.53958 0
M  V30 453 O 45.9909 0.719826 1.61702 0
M  V30 454 C 43.1199 1.66937 2.99978 0
M  V30 455 C 42.2059 2.86847 3.12377 0
M  V30 456 N 42.5969 4.11078 2.94701 0
M  V30 457 C 40.8949 2.84521 3.43459 0
M  V30 458 C 41.5959 4.91615 3.10949 0
M  V30 459 N 40.5719 4.24739 3.3926 0
M  V30 460 H 44.3739 2.54909 1.46282 0
M  V30 461 H 41.8879 1.45593 0.719483 0
M  V30 462 H 43.8849 1.73725 3.78979 0
M  V30 463 H 42.5449 0.742831 3.16089 0
M  V30 464 H 43.5559 4.41258 2.71131 0
M  V30 465 H 40.2329 2.01192 3.65825 0
M  V30 466 H 41.6229 6.00264 3.01882 0
M  V30 467 N 44.343 -0.763751 1.37857 0
M  V30 468 C 45.591 -1.51957 1.33243 0
M  V30 469 C 45.912 -1.94835 -0.0801709 0
M  V30 470 O 45.182 -1.66894 -1.02582 0
M  V30 471 H 43.762 -0.563626 0.49024 0
M  V30 472 H 46.424 -0.908504 1.7243 0
M  V30 473 H 45.52 -2.41523 1.97669 0
M  V30 474 N 45.8211 -1.22559 -0.990812 0
M  V30 475 C 46.7311 -1.01394 -2.11557 0
M  V30 476 C 47.7471 0.0383962 -1.73958 0
M  V30 477 O 48.9231 -0.154787 -2.00804 0
M  V30 478 C 45.9881 -0.596569 -3.41529 0
M  V30 479 C 45.0491 -1.72276 -3.93217 0
M  V30 480 C 44.2821 -1.32521 -5.16985 0
M  V30 481 O 44.5051 -0.204909 -5.70032 0
M  V30 482 O 43.4391 -2.14247 -5.62478 0
M  V30 483 H 47.2651 -1.95633 -2.32296 0
M  V30 484 H 44.8501 -1.01172 -1.0993 0
M  V30 485 H 46.7321 -0.374263 -4.19735 0
M  V30 486 H 45.4071 0.316939 -3.22145 0
M  V30 487 H 44.3141 -1.99961 -3.16174 0
M  V30 488 H 45.6471 -2.61421 -4.17037 0
M  V30 489 N 47.2992 1.18797 -1.03562 0
M  V30 490 C 48.2622 2.20464 -0.626769 0
M  V30 491 C 49.2622 1.57721 0.313173 0
M  V30 492 O 50.4522 1.73917 0.0992615 0
M  V30 493 C 47.5842 3.40802 0.0818498 0
M  V30 494 H 48.7772 2.58149 -1.5264 0
M  V30 495 H 46.3302 1.32593 -0.827578 0
M  V30 496 H 47.0652 3.08642 0.995518 0
M  V30 497 H 46.8502 3.8758 -0.593652 0
M  V30 498 H 48.3402 4.16092 0.354584 0
M  V30 499 N 48.7773 0.814389 1.34928 0
M  V30 500 C 49.7403 0.235759 2.27984 0
M  V30 501 C 50.7403 -0.581412 1.49921 0
M  V30 502 O 51.9303 -0.398758 1.69575 0
M  V30 503 C 49.0623 -0.670433 3.34242 0
M  V30 504 H 50.2553 1.05659 2.80671 0
M  V30 505 H 47.8083 0.585614 1.44915 0
M  V30 506 H 48.5433 -1.51466 2.86755 0
M  V30 507 H 48.3283 -0.0860822 3.92005 0
M  V30 508 H 49.8183 -1.06935 4.03676 0
M  V30 509 N 50.2554 -1.46986 0.568584 0
M  V30 510 C 51.1854 -2.32946 -0.160753 0
M  V30 511 C 52.1664 -1.44487 -0.897631 0
M  V30 512 O 53.3514 -1.73327 -0.875867 0
M  V30 513 C 50.4814 -3.26494 -1.18403 0
M  V30 514 C 49.4354 -4.24282 -0.562895 0
M  V30 515 C 48.7614 -5.07236 -1.69163 0
M  V30 516 C 50.0614 -5.19989 0.490761 0
M  V30 517 H 51.7554 -2.94175 0.556916 0
M  V30 518 H 49.3014 -1.4146 0.26927 0
M  V30 519 H 51.2544 -3.85477 -1.70251 0
M  V30 520 H 49.9784 -2.63343 -1.93179 0
M  V30 521 H 48.6374 -3.66541 -0.0656164 0
M  V30 522 H 48.2854 -4.4048 -2.42871 0
M  V30 523 H 47.9854 -5.7345 -1.28174 0
M  V30 524 H 49.5094 -5.6908 -2.21314 0
M  V30 525 H 50.9234 -5.73271 0.0579047 0
M  V30 526 H 49.3204 -5.94469 0.820165 0
M  V30 527 H 50.3904 -4.64777 1.3824 0
M  V30 528 N 51.7335 -0.305618 -1.54608 0
M  V30 529 C 52.9815 0.301701 -1.99835 0
M  V30 530 C 53.3025 1.54054 -1.19551 0
M  V30 531 O 52.5725 1.93702 -0.292658 0
M  V30 532 H 51.1525 0.114468 -0.738178 0
M  V30 533 H 53.8145 -0.418016 -1.90364 0
M  V30 534 H 52.9105 0.570548 -3.06841 0
M  V30 535 N 53.2116 1.57565 -0.0334293 0
M  V30 536 C 54.1586 2.10478 0.946981 0
M  V30 537 C 55.1286 1.00787 1.32027 0
M  V30 538 O 56.3136 1.28232 1.41284 0
M  V30 539 C 53.4536 2.63994 2.22263 0
M  V30 540 C 52.5666 3.87709 1.90541 0
M  V30 541 C 51.7016 4.29604 3.12433 0
M  V30 542 C 50.7406 5.46065 2.76549 0
M  V30 543 N 49.8776 5.83096 3.9108 0
M  V30 544 H 54.7176 2.93963 0.488846 0
M  V30 545 H 52.2546 1.45296 0.22969 0
M  V30 546 H 54.2126 2.93114 2.96884 0
M  V30 547 H 52.8426 1.83333 2.65685 0
M  V30 548 H 51.8946 3.65291 1.06144 0
M  V30 549 H 53.2066 4.72403 1.60116 0
M  V30 550 H 52.3606 4.60182 3.9537 0
M  V30 551 H 51.0996 3.43685 3.46023 0
M  V30 552 H 50.1046 5.15176 1.92026 0
M  V30 553 H 51.3296 6.33685 2.44171 0
M  V30 554 H 49.2756 5.00132 4.24504 0
M  V30 555 H 49.1926 6.6244 3.64293 0
M  V30 556 H 50.4606 6.18282 4.74708 0
M  V30 557 N 54.6897 -0.239769 1.55765 0
M  V30 558 C 56.1057 -0.588624 1.48349 0
M  V30 559 C 56.3057 -1.88005 0.72502 0
M  V30 560 O 55.3617 -2.51186 0.257269 0
M  V30 561 C 56.6747 -0.68474 2.928 0
M  V30 562 C 58.2227 -0.77659 3.03213 0
M  V30 563 C 58.6977 -0.904207 4.48986 0
M  V30 564 N 60.1887 -0.968896 4.52953 0
M  V30 565 C 60.9237 -1.08703 5.63002 0
M  V30 566 N 60.4197 -1.17026 6.82845 0
M  V30 567 N 62.2127 -1.12074 5.50814 0
M  V30 568 H 54.3637 0.607911 2.03515 0
M  V30 569 H 56.6267 0.21083 0.924259 0
M  V30 570 H 56.3327 0.194284 3.51163 0
M  V30 571 H 56.2067 -1.55435 3.43686 0
M  V30 572 H 58.5937 -1.64606 2.44926 0
M  V30 573 H 58.6747 0.118315 2.55526 0
M  V30 574 H 58.3187 -0.0392633 5.07885 0
M  V30 575 H 58.2487 -1.81426 4.9436 0
M  V30 576 H 60.7397 -0.915633 3.6664 0
M  V30 577 H 61.0527 -1.25966 7.62465 0
M  V30 578 H 59.3977 -1.13971 6.85591 0
M  V30 579 H 62.5887 -1.05226 4.5612 0
M  V30 580 H 62.7617 -1.20936 6.36615 0
M  V30 581 N 56.1678 -1.49265 -0.50573 0
M  V30 582 C 57.0978 -1.68495 -1.61653 0
M  V30 583 C 58.0788 -0.53366 -1.61512 0
M  V30 584 O 59.2638 -0.76897 -1.78327 0
M  V30 585 C 56.3938 -1.74709 -3.00157 0
M  V30 586 C 55.3478 -2.89581 -3.15162 0
M  V30 587 C 54.6738 -2.80903 -4.5497 0
M  V30 588 C 55.9738 -4.30578 -2.95634 0
M  V30 589 H 57.6678 -2.61493 -1.45814 0
M  V30 590 H 55.2138 -1.25838 -0.70005 0
M  V30 591 H 57.1668 -1.86748 -3.77761 0
M  V30 592 H 55.8908 -0.783067 -3.17074 0
M  V30 593 H 54.5498 -2.77136 -2.39982 0
M  V30 594 H 54.1978 -1.82419 -4.68756 0
M  V30 595 H 53.8978 -3.57999 -4.65951 0
M  V30 596 H 55.4218 -2.94944 -5.34641 0
M  V30 597 H 56.8358 -4.4373 -3.63011 0
M  V30 598 H 55.2328 -5.0886 -3.18091 0
M  V30 599 H 56.3028 -4.45352 -1.91806 0
M  V30 600 N 57.6459 0.756429 -1.3826 0
M  V30 601 C 58.8919 1.5168 -1.35517 0
M  V30 602 C 59.2469 1.9232 0.0554451 0
M  V30 603 O 58.5399 1.62352 1.01746 0
M  V30 604 C 58.7339 2.78313 -2.24224 0
M  V30 605 C 58.5629 2.50053 -3.7377 0
M  V30 606 C 57.3329 2.43414 -4.42807 0
M  V30 607 C 59.5309 2.1702 -4.66269 0
M  V30 608 N 57.5129 2.07398 -5.77805 0
M  V30 609 C 58.8839 1.91271 -5.89759 0
M  V30 610 C 60.9389 2.03305 -4.54501 0
M  V30 611 C 59.6419 1.53192 -7.02798 0
M  V30 612 C 61.6679 1.66627 -5.67441 0
M  V30 613 C 61.0299 1.4175 -6.8999 0
M  V30 614 H 57.1289 0.554735 -0.551174 0
M  V30 615 H 59.7129 0.881106 -1.73622 0
M  V30 616 H 57.8839 3.39696 -1.88311 0
M  V30 617 H 59.6159 3.44343 -2.12627 0
M  V30 618 H 56.3709 2.59789 -3.95988 0
M  V30 619 H 56.7949 1.92044 -6.4919 0
M  V30 620 H 61.4369 2.21215 -3.60311 0
M  V30 621 H 59.1549 1.34022 -7.96909 0
M  V30 622 H 62.7409 1.56652 -5.60314 0
M  V30 623 H 61.6209 1.1379 -7.759 0
M  V30 624 N 59.124 1.23083 0.984299 0
M  V30 625 C 60.535 1.05609 1.5396 0
M  V30 626 C 60.886 -0.377793 1.92528 0
M  V30 627 O 60.011 -1.26398 1.75649 0
M  V30 628 C 60.606 1.91087 2.7977 0
M  V30 629 C 59.165 1.77885 3.31713 0
M  V30 630 C 58.312 1.87028 2.04733 0
M  V30 631 H 61.263 1.36802 0.804419 0
M  V30 632 H 61.284 1.43336 3.5247 0
M  V30 633 H 60.796 2.9544 2.51668 0
M  V30 634 H 58.897 0.762995 3.64704 0
M  V30 635 H 59.01 2.61047 4.01735 0
M  V30 636 H 57.374 1.30565 2.18689 0
M  V30 637 H 58.157 2.92929 1.79017 0
M  V30 638 N 60.6021 -1.18246 1.0419 0
M  V30 639 C 61.5651 -2.20128 0.638452 0
M  V30 640 C 62.5651 -1.57885 -0.304805 0
M  V30 641 O 63.7551 -1.73967 -0.0900369 0
M  V30 642 C 60.8871 -3.4084 -0.0637751 0
M  V30 643 H 62.0801 -2.57336 1.54007 0
M  V30 644 H 59.6331 -1.32152 0.834598 0
M  V30 645 H 60.3681 -3.09166 -0.979136 0
M  V30 646 H 60.1531 -3.8726 0.614198 0
M  V30 647 H 61.6431 -4.16274 -0.332512 0
M  V30 648 N 62.0802 -0.821533 -1.34494 0
M  V30 649 C 63.4962 -0.507117 -1.51329 0
M  V30 650 C 63.6962 0.968964 -1.76673 0
M  V30 651 O 62.7522 1.75348 -1.81685 0
M  V30 652 C 64.0652 -1.36544 -2.67911 0
M  V30 653 C 65.6132 -1.36242 -2.81793 0
M  V30 654 C 66.0882 -2.2052 -4.01416 0
M  V30 655 N 67.5792 -2.18136 -4.08621 0
M  V30 656 C 68.3142 -2.80095 -5.00334 0
M  V30 657 N 67.8102 -3.51039 -5.9728 0
M  V30 658 N 69.6032 -2.69656 -4.93196 0
M  V30 659 H 61.7542 -1.77729 -1.16302 0
M  V30 660 H 64.0172 -0.757291 -0.570276 0
M  V30 661 H 63.7232 -2.41361 -2.55808 0
M  V30 662 H 63.5972 -1.02917 -3.62888 0
M  V30 663 H 65.9842 -0.322041 -2.93338 0
M  V30 664 H 66.0652 -1.73866 -1.87628 0
M  V30 665 H 65.7092 -3.24607 -3.90631 0
M  V30 666 H 65.6392 -1.80247 -4.94791 0
M  V30 667 H 68.1302 -1.6653 -3.39229 0
M  V30 668 H 68.4432 -3.95565 -6.63889 0
M  V30 669 H 66.7882 -3.55145 -5.97409 0
M  V30 670 H 69.9792 -2.13808 -4.16418 0
M  V30 671 H 70.1522 -3.1823 -5.64476 0
M  V30 672 N 63.5583 1.46682 -0.576371 0
M  V30 673 C 64.8063 2.02013 -0.0594163 0
M  V30 674 C 65.1273 1.45101 1.30271 0
M  V30 675 O 64.3973 0.633317 1.8538 0
M  V30 676 H 62.9773 0.746759 -0.0189745 0
M  V30 677 H 65.6393 1.79862 -0.750717 0
M  V30 678 H 64.7353 3.12097 0.014345 0
M  V30 679 N 65.0364 0.313813 1.54444 0
M  V30 680 C 65.9834 -0.55655 2.23989 0
M  V30 681 C 66.9534 -1.11943 1.22711 0
M  V30 682 O 68.1384 -1.16158 1.51367 0
M  V30 683 C 65.2784 -1.71635 2.99392 0
M  V30 684 C 64.3914 -1.18364 4.15468 0
M  V30 685 C 63.5264 -2.30834 4.78424 0
M  V30 686 C 62.5654 -1.74762 5.86622 0
M  V30 687 N 61.7024 -2.80855 6.43479 0
M  V30 688 H 66.5424 0.0430893 2.97969 0
M  V30 689 H 64.0794 0.0330359 1.47063 0
M  V30 690 H 66.0374 -2.39868 3.41349 0
M  V30 691 H 64.6674 -2.28742 2.27765 0
M  V30 692 H 63.7194 -0.393163 3.78363 0
M  V30 693 H 65.0314 -0.733262 4.93381 0
M  V30 694 H 64.1854 -3.0699 5.23299 0
M  V30 695 H 62.9244 -2.79204 3.99871 0
M  V30 696 H 61.9294 -0.970995 5.41158 0
M  V30 697 H 63.1544 -1.2728 6.67066 0
M  V30 698 H 61.1004 -3.28535 5.67804 0
M  V30 699 H 61.0174 -2.40351 7.16776 0
M  V30 700 H 62.2854 -3.5687 6.93011 0
M  V30 701 N 66.5145 -1.57545 0.0417849 0
M  V30 702 C 67.4245 -2.14451 -0.951213 0
M  V30 703 C 68.4405 -1.09992 -1.34825 0
M  V30 704 O 69.6165 -1.42114 -1.42708 0
M  V30 705 C 66.6815 -2.67063 -2.21084 0
M  V30 706 C 65.7425 -3.86284 -1.87304 0
M  V30 707 C 64.9755 -4.36378 -3.07261 0
M  V30 708 O 65.1985 -3.85587 -4.20332 0
M  V30 709 O 64.1325 -5.28077 -2.88822 0
M  V30 710 H 67.9585 -2.99601 -0.497287 0
M  V30 711 H 65.5435 -1.48317 -0.179567 0
M  V30 712 H 67.4255 -3.00914 -2.95006 0
M  V30 713 H 66.1005 -1.84989 -2.65633 0
M  V30 714 H 65.0075 -3.57338 -1.10727 0
M  V30 715 H 66.3405 -4.6956 -1.47562 0
M  V30 716 N 67.9926 0.231505 -1.5589 0
M  V30 717 C 69.2206 0.974505 -1.82513 0
M  V30 718 C 69.6356 1.78344 -0.619591 0
M  V30 719 O 68.9926 1.77792 0.411848 0
M  V30 720 C 69.0436 1.90007 -3.07538 0
M  V30 721 O 68.7646 1.12385 -4.2344 0
M  V30 722 C 70.2656 2.75779 -3.47075 0
M  V30 723 H 67.4856 0.286065 -0.606966 0
M  V30 724 H 70.0296 0.249739 -2.02969 0
M  V30 725 H 68.1846 2.57891 -2.89086 0
M  V30 726 H 68.5986 1.75125 -4.944 0
M  V30 727 H 70.0726 3.36443 -4.37619 0
M  V30 728 H 70.5496 3.47672 -2.68367 0
M  V30 729 H 71.1556 2.13323 -3.67931 0
M  V30 730 N 69.4707 1.49531 0.497807 0
M  V30 731 C 70.3807 1.69176 1.62532 0
M  V30 732 C 71.3967 0.5744 1.64246 0
M  V30 733 O 72.5727 0.849497 1.82608 0
M  V30 734 C 69.6377 1.75695 2.98885 0
M  V30 735 C 68.6987 2.9929 3.07773 0
M  V30 736 C 67.9317 3.05488 4.37622 0
M  V30 737 O 68.1547 2.19192 5.26603 0
M  V30 738 O 67.0887 3.9798 4.51548 0
M  V30 739 H 70.9147 2.647 1.48887 0
M  V30 740 H 68.4997 1.3331 0.674441 0
M  V30 741 H 70.3817 1.82317 3.79919 0
M  V30 742 H 69.0567 0.8335 3.12785 0
M  V30 743 H 67.9637 2.98183 2.25915 0
M  V30 744 H 69.2967 3.91125 2.98801 0
M  V30 745 N 70.9488 -0.749086 1.3866 0
M  V30 746 C 71.8788 -1.8764 1.38973 0
M  V30 747 C 72.8598 -1.68178 0.255004 0
M  V30 748 O 74.0448 -1.88704 0.458754 0
M  V30 749 C 71.1748 -3.25222 1.21851 0
M  V30 750 C 70.1288 -3.59295 2.32575 0
M  V30 751 C 69.4548 -4.95663 2.00555 0
M  V30 752 C 70.7548 -3.63709 3.7485 0
M  V30 753 H 72.4488 -1.87635 2.3331 0
M  V30 754 H 69.9948 -0.901329 1.12303 0
M  V30 755 H 71.9478 -4.03746 1.20695 0
M  V30 756 H 70.6718 -3.25719 0.239775 0
M  V30 757 H 69.3308 -2.83093 2.32925 0
M  V30 758 H 68.9788 -4.92724 1.01154 0
M  V30 759 H 68.6788 -5.19429 2.74714 0
M  V30 760 H 70.2028 -5.7656 2.01024 0
M  V30 761 H 71.6168 -4.32338 3.76506 0
M  V30 762 H 70.0138 -3.98986 4.48252 0
M  V30 763 H 71.0838 -2.63834 4.06841 0
M  V30 764 N 72.4269 -1.23603 -0.977757 0
M  V30 765 C 73.3739 -1.01954 -2.07061 0
M  V30 766 C 74.3439 0.0638697 -1.65977 0
M  V30 767 O 75.5289 -0.0887624 -1.90593 0
M  V30 768 C 72.6689 -0.619658 -3.39491 0
M  V30 769 C 71.7819 -1.77547 -3.93829 0
M  V30 770 C 70.9169 -1.32212 -5.14484 0
M  V30 771 C 69.9559 -2.44852 -5.60994 0
M  V30 772 N 69.0929 -2.00456 -6.72876 0
M  V30 773 H 73.9329 -1.95495 -2.24913 0
M  V30 774 H 71.4699 -0.973861 -1.10247 0
M  V30 775 H 73.4279 -0.368898 -4.15566 0
M  V30 776 H 72.0579 0.278752 -3.21594 0
M  V30 777 H 71.1099 -2.14016 -3.14486 0
M  V30 778 H 72.4219 -2.62219 -4.24314 0
M  V30 779 H 71.5759 -1.02965 -5.97899 0
M  V30 780 H 70.3149 -0.445808 -4.85658 0
M  V30 781 H 69.3199 -2.74871 -4.76157 0
M  V30 782 H 70.5449 -3.33024 -5.91837 0
M  V30 783 H 68.4909 -1.15208 -6.45804 0
M  V30 784 H 68.4079 -2.78687 -7.02759 0
M  V30 785 H 69.6759 -1.7432 -7.59758 0
M  V30 786 N 73.905 1.17692 -1.04816 0
M  V30 787 C 75.151 1.88137 -0.75711 0
M  V30 788 C 75.484 1.80604 0.713841 0
M  V30 789 O 74.759 1.21146 1.52164 0
M  V30 790 C 75.042 3.38318 -1.2334 0
M  V30 791 C 74.895 3.54622 -2.76701 0
M  V30 792 C 76.214 4.32214 -0.829415 0
M  V30 793 H 73.333 0.683163 -0.27651 0
M  V30 794 H 75.975 1.38424 -1.30149 0
M  V30 795 H 74.125 3.80787 -0.770286 0
M  V30 796 H 75.797 3.21194 -3.31107 0
M  V30 797 H 74.04 2.97026 -3.16161 0
M  V30 798 H 74.711 4.60028 -3.05088 0
M  V30 799 H 77.187 3.97565 -1.22805 0
M  V30 800 H 76.063 5.35838 -1.19033 0
M  V30 801 H 76.324 4.41294 0.266891 0
M  V30 802 N 75.3831 0.828654 1.34056 0
M  V30 803 C 76.2931 0.256725 2.33191 0
M  V30 804 C 77.3091 -0.611898 1.62886 0
M  V30 805 O 78.4851 -0.51844 1.94613 0
M  V30 806 C 75.5501 -0.567238 3.42028 0
M  V30 807 C 74.6111 0.324458 4.28072 0
M  V30 808 C 73.8441 -0.460274 5.31712 0
M  V30 809 O 74.0671 -1.693 5.44696 0
M  V30 810 O 73.0011 0.160391 6.01686 0
M  V30 811 H 76.8271 1.07739 2.83947 0
M  V30 812 H 74.4121 0.59093 1.37217 0
M  V30 813 H 76.2941 -1.03582 4.08471 0
M  V30 814 H 74.9691 -1.36513 2.93506 0
M  V30 815 H 73.8761 0.840659 3.64532 0
M  V30 816 H 75.2091 1.08685 4.8005 0
M  V30 817 N 76.8612 -1.46375 0.584142 0
M  V30 818 C 78.1072 -2.02678 0.0703716 0
M  V30 819 C 78.4402 -1.4545 -1.28678 0
M  V30 820 O 77.7152 -0.62014 -1.84349 0
M  V30 821 C 77.9982 -3.60099 0.00614674 0
M  V30 822 C 77.8512 -4.27709 1.3923 0
M  V30 823 C 79.1702 -4.34598 -0.693742 0
M  V30 824 H 76.2892 -0.736504 0.027047 0
M  V30 825 H 78.9312 -1.74501 0.751615 0
M  V30 826 H 77.0812 -3.84236 -0.574009 0
M  V30 827 H 78.7532 -4.14832 2.01773 0
M  V30 828 H 76.9962 -3.87016 1.95962 0
M  V30 829 H 77.6672 -5.36478 1.29982 0
M  V30 830 H 80.1432 -4.15615 -0.200869 0
M  V30 831 H 79.0192 -5.44318 -0.707714 0
M  V30 832 H 79.2802 -4.05759 -1.75533 0
M  V30 833 N 78.3393 -0.321999 -1.54275 0
M  V30 834 C 79.7503 0.166384 -1.85957 0
M  V30 835 C 80.1013 1.51747 -1.24367 0
M  V30 836 O 79.2263 2.09317 -0.549124 0
M  V30 837 C 79.8213 0.308681 -3.37391 0
M  V30 838 C 78.3803 0.741286 -3.69028 0
M  V30 839 C 77.5273 -0.137937 -2.76957 0
M  V30 840 H 80.4783 -0.542335 -1.49146 0
M  V30 841 H 80.4993 1.13984 -3.63026 0
M  V30 842 H 80.0113 -0.674809 -3.82188 0
M  V30 843 H 78.1123 1.73458 -3.29762 0
M  V30 844 H 78.2253 0.546118 -4.75977 0
M  V30 845 H 76.5893 0.386251 -2.51754 0
M  V30 846 H 77.3723 -1.11816 -3.2458 0
M  V30 847 N 79.8174 1.5752 -0.0501392 0
M  V30 848 C 80.7274 2.14952 0.939827 0
M  V30 849 C 81.7434 1.10706 1.34239 0
M  V30 850 O 82.9194 1.42869 1.41952 0
M  V30 851 C 79.9844 2.68232 2.19665 0
M  V30 852 C 79.0454 3.87272 1.85253 0
M  V30 853 C 78.2784 4.38002 3.04943 0
M  V30 854 O 78.5014 3.87811 4.18281 0
M  V30 855 O 77.4354 5.29602 2.86017 0
M  V30 856 H 81.2614 2.9986 0.481392 0
M  V30 857 H 78.8464 1.4841 0.171699 0
M  V30 858 H 80.7284 3.02475 2.93406 0
M  V30 859 H 79.4034 1.86395 2.64648 0
M  V30 860 H 78.3104 3.5792 1.0883 0
M  V30 861 H 79.6434 4.70336 1.4507 0
M  V30 862 N 81.2955 -0.223234 1.56011 0
M  V30 863 C 82.5255 -0.963413 1.82762 0
M  V30 864 C 82.9335 -1.78516 0.626804 0
M  V30 865 O 82.2765 -1.78974 -0.414014 0
M  V30 866 C 82.3385 -1.93126 3.0322 0
M  V30 867 C 82.0025 -1.2942 4.38291 0
M  V30 868 C 82.9995 -0.684916 5.15369 0
M  V30 869 C 80.6845 -1.30647 4.85012 0
M  V30 870 C 82.6785 -0.0963971 6.37327 0
M  V30 871 C 80.3655 -0.71411 6.06913 0
M  V30 872 C 81.3635 -0.110123 6.82911 0
M  V30 873 O 81.0515 0.47303 8.02507 0
M  V30 874 H 80.7835 -0.288011 0.611576 0
M  V30 875 H 83.3375 -0.244103 2.03944 0
M  V30 876 H 81.5675 -2.68952 2.77852 0
M  V30 877 H 83.2565 -2.53685 3.16857 0
M  V30 878 H 84.0225 -0.667774 4.80381 0
M  V30 879 H 79.9015 -1.76598 4.25833 0
M  V30 880 H 83.4455 0.375657 6.96588 0
M  V30 881 H 79.3425 -0.728659 6.41374 0
M  V30 882 H 80.1105 0.367186 8.17676 0
M  V30 883 N 82.7736 -1.49793 -0.48987 0
M  V30 884 C 83.7036 -1.70201 -1.59856 0
M  V30 885 C 84.6846 -0.55076 -1.60937 0
M  V30 886 O 85.8696 -0.787841 -1.77501 0
M  V30 887 C 82.9996 -1.77882 -2.98287 0
M  V30 888 C 81.9536 -2.92907 -3.12073 0
M  V30 889 C 81.2796 -2.85712 -4.51965 0
M  V30 890 C 82.5796 -4.3369 -2.91051 0
M  V30 891 H 84.2736 -2.63025 -1.43032 0
M  V30 892 H 81.8196 -1.26574 -0.686664 0
M  V30 893 H 83.7726 -1.90744 -3.75759 0
M  V30 894 H 82.4966 -0.816653 -3.16225 0
M  V30 895 H 81.1556 -2.79665 -2.37029 0
M  V30 896 H 80.8036 -1.8738 -4.66795 0
M  V30 897 H 80.5036 -3.62921 -4.62128 0
M  V30 898 H 82.0276 -3.00598 -5.31482 0
M  V30 899 H 83.4416 -4.47555 -3.58284 0
M  V30 900 H 81.8386 -5.12205 -3.12675 0
M  V30 901 H 82.9086 -4.47362 -1.87071 0
M  V30 902 N 84.2517 0.741722 -1.39055 0
M  V30 903 C 85.4997 1.49818 -1.35643 0
M  V30 904 C 85.8207 1.94938 0.0491642 0
M  V30 905 O 85.0907 1.68505 0.999141 0
M  V30 906 H 83.6707 0.555755 -0.499144 0
M  V30 907 H 86.3327 0.880957 -1.73854 0
M  V30 908 H 85.4287 2.38348 -2.01486 0
M  V30 909 N 85.7298 1.2412 0.971189 0
M  V30 910 C 87.1408 1.07236 1.52831 0
M  V30 911 C 87.4918 -0.357352 1.92918 0
M  V30 912 O 86.6168 -1.24528 1.76979 0
M  V30 913 C 87.2118 1.94043 2.77728 0
M  V30 914 C 85.7708 1.81394 3.29808 0
M  V30 915 C 84.9178 1.89189 2.02738 0
M  V30 916 H 87.8688 1.37648 0.789864 0
M  V30 917 H 87.8898 1.47066 3.5093 0
M  V30 918 H 87.4018 2.98093 2.4852 0
M  V30 919 H 85.5028 0.801634 3.63874 0
M  V30 920 H 85.6158 2.65294 3.98944 0
M  V30 921 H 83.9798 1.32877 2.17292 0
M  V30 922 H 84.7628 2.94812 1.759 0
M  V30 923 N 87.2079 -1.17134 1.05439 0
M  V30 924 C 88.1379 -2.2342 0.678649 0
M  V30 925 C 89.1189 -1.66971 -0.32476 0
M  V30 926 O 90.3039 -1.93149 -0.201802 0
M  V30 927 C 87.4339 -3.47256 0.0552099 0
M  V30 928 C 86.3879 -4.16543 0.98365 0
M  V30 929 C 85.7139 -5.34231 0.223961 0
M  V30 930 C 87.0139 -4.68495 2.3089 0
M  V30 931 H 88.7079 -2.55105 1.56722 0
M  V30 932 H 86.2539 -1.2262 0.754998 0
M  V30 933 H 88.2069 -4.20828 -0.21946 0
M  V30 934 H 86.9309 -3.14846 -0.868319 0
M  V30 935 H 85.5899 -3.44887 1.24293 0
M  V30 936 H 85.2379 -4.98071 -0.702412 0
M  V30 937 H 84.9379 -5.81527 0.842627 0
M  V30 938 H 86.4619 -6.10585 -0.0433671 0
M  V30 939 H 87.8759 -5.33691 2.09396 0
M  V30 940 H 86.2729 -5.26379 2.88176 0
M  V30 941 H 87.3429 -3.85169 2.94572 0
M  V30 942 N 88.686 -0.835752 -1.33615 0
M  V30 943 C 89.616 -0.281739 -2.31794 0
M  V30 944 C 90.597 0.608833 -1.58831 0
M  V30 945 O 91.782 0.533035 -1.86741 0
M  V30 946 C 88.912 0.546612 -3.42971 0
M  V30 947 C 87.866 -0.247904 -4.27281 0
M  V30 948 C 87.192 0.704001 -5.30045 0
M  V30 949 C 88.492 -1.46324 -5.01385 0
M  V30 950 H 90.186 -1.10206 -2.78379 0
M  V30 951 H 87.732 -0.531388 -1.33837 0
M  V30 952 H 89.685 0.944467 -4.1068 0
M  V30 953 H 88.409 1.40011 -2.95067 0
M  V30 954 H 87.068 -0.627281 -3.61194 0
M  V30 955 H 86.716 1.55381 -4.78399 0
M  V30 956 H 86.416 0.176524 -5.87335 0
M  V30 957 H 87.94 1.09944 -6.0062 0
M  V30 958 H 89.354 -1.13871 -5.61877 0
M  V30 959 H 87.751 -1.92728 -5.6831 0
M  V30 960 H 88.821 -2.23467 -4.30338 0
M  V30 961 N 90.1641 1.46063 -0.591896 0
M  V30 962 C 91.4111 2.02338 -0.0809991 0
M  V30 963 C 91.7391 1.46228 1.28249 0
M  V30 964 O 90.9941 0.620818 1.85592 0
M  V30 965 C 91.2931 3.57391 0.0249813 0
M  V30 966 C 90.9591 4.32583 -1.27211 0
M  V30 967 C 89.6211 4.52844 -1.62745 0
M  V30 968 C 91.9731 4.75687 -2.13005 0
M  V30 969 C 89.3011 5.13462 -2.83855 0
M  V30 970 C 91.6531 5.37644 -3.3335 0
M  V30 971 C 90.3171 5.5613 -3.69155 0
M  V30 972 H 89.5871 0.740407 -0.0296397 0
M  V30 973 H 92.2341 1.75321 -0.770374 0
M  V30 974 H 90.5391 3.83597 0.797537 0
M  V30 975 H 92.2361 3.98621 0.436184 0
M  V30 976 H 88.8261 4.17116 -0.985499 0
M  V30 977 H 93.0101 4.59782 -1.86855 0
M  V30 978 H 88.2661 5.25965 -3.11722 0
M  V30 979 H 92.4401 5.7 -4.00092 0
M  V30 980 H 90.0671 6.0287 -4.63089 0
M  V30 981 N 91.6422 0.330177 1.54103 0
M  V30 982 C 92.8882 -0.270806 2.00984 0
M  V30 983 C 93.2212 -1.51265 1.21789 0
M  V30 984 O 92.4962 -1.92142 0.301927 0
M  V30 985 C 92.7792 -0.598339 3.55094 0
M  V30 986 C 92.6322 0.654674 4.4501 0
M  V30 987 C 93.9512 -1.41334 4.16789 0
M  V30 988 H 91.0702 -0.0969531 0.730595 0
M  V30 989 H 93.7122 0.448066 1.84641 0
M  V30 990 H 91.8622 -1.21078 3.69151 0
M  V30 991 H 93.5342 1.29285 4.42813 0
M  V30 992 H 91.7772 1.28224 4.14416 0
M  V30 993 H 92.4482 0.380944 5.50684 0
M  V30 994 H 94.9242 -0.895597 4.06347 0
M  V30 995 H 93.8002 -1.61127 5.24718 0
M  V30 996 H 94.0612 -2.41146 3.70541 0
M  V30 997 N 93.1203 -1.57491 0.0584922 0
M  V30 998 C 94.0673 -2.11958 -0.913376 0
M  V30 999 C 95.0373 -1.02875 -1.30407 0
M  V30 1000 O 96.2223 -1.30464 -1.39226 0
M  V30 1001 C 93.3623 -2.67497 -2.18035 0
M  V30 1002 C 92.4753 -3.90691 -1.84349 0
M  V30 1003 C 91.6103 -4.3452 -3.05559 0
M  V30 1004 C 90.6493 -5.50395 -2.67827 0
M  V30 1005 N 89.7863 -5.89244 -3.81754 0
M  V30 1006 H 94.6263 -2.94704 -0.442017 0
M  V30 1007 H 92.1633 -1.45643 -0.206545 0
M  V30 1008 H 94.1213 -2.978 -2.92183 0
M  V30 1009 H 92.7513 -1.87537 -2.62735 0
M  V30 1010 H 91.8033 -3.66934 -1.00319 0
M  V30 1011 H 93.1153 -4.7489 -1.5258 0
M  V30 1012 H 92.2693 -4.66414 -3.87998 0
M  V30 1013 H 91.0083 -3.49147 -3.40511 0
M  V30 1014 H 90.0133 -5.18165 -1.83806 0
M  V30 1015 H 91.2383 -6.3749 -2.34059 0
M  V30 1016 H 89.1843 -5.06823 -4.16493 0
M  V30 1017 H 89.1013 -6.68151 -3.53708 0
M  V30 1018 H 90.3693 -6.25756 -4.64811 0
M  V30 1019 N 94.5984 0.214957 -1.56127 0
M  V30 1020 C 95.5284 1.2695 -1.95974 0
M  V30 1021 C 96.5094 1.48539 -0.828868 0
M  V30 1022 O 97.6944 1.60611 -1.09168 0
M  V30 1023 C 94.8244 2.61794 -2.28214 0
M  V30 1024 C 93.7784 2.54851 -3.43853 0
M  V30 1025 C 93.1044 3.93785 -3.61715 0
M  V30 1026 C 94.4044 2.09065 -4.78632 0
M  V30 1027 H 96.0984 0.93846 -2.84312 0
M  V30 1028 H 93.6444 0.449996 -1.36788 0
M  V30 1029 H 95.5974 3.35731 -2.54682 0
M  V30 1030 H 94.3214 2.96599 -1.36736 0
M  V30 1031 H 92.9804 1.8337 -3.17444 0
M  V30 1032 H 92.6284 4.25908 -2.67602 0
M  V30 1033 H 92.3284 3.90019 -4.39498 0
M  V30 1034 H 93.8524 4.69374 -3.90539 0
M  V30 1035 H 95.2664 2.7275 -5.04262 0
M  V30 1036 H 93.6634 2.16346 -5.59745 0
M  V30 1037 H 94.7334 1.04315 -4.73547 0
M  V30 1038 N 96.0765 1.50051 0.48192 0
M  V30 1039 C 97.4925 1.37237 0.814756 0
M  V30 1040 C 97.6925 0.420109 1.97072 0
M  V30 1041 O 96.7485 -0.141246 2.52105 0
M  V30 1042 C 98.0615 2.78375 1.13701 0
M  V30 1043 C 99.6095 2.87213 1.2441 0
M  V30 1044 C 100.084 4.29161 1.59954 0
M  V30 1045 N 101.575 4.32061 1.66967 0
M  V30 1046 C 102.31 5.38879 1.95952 0
M  V30 1047 N 101.806 6.55918 2.23031 0
M  V30 1048 N 103.599 5.26312 1.97363 0
M  V30 1049 H 95.7505 2.10546 -0.28005 0
M  V30 1050 H 98.0135 0.945921 -0.0627454 0
M  V30 1051 H 97.7195 3.49845 0.360787 0
M  V30 1052 H 97.5935 3.14941 2.07586 0
M  V30 1053 H 99.9805 2.15969 2.01101 0
M  V30 1054 H 100.061 2.54204 0.285299 0
M  V30 1055 H 99.7055 5.00938 0.838067 0
M  V30 1056 H 99.6355 4.59648 2.56966 0
M  V30 1057 H 102.126 3.47661 1.48123 0
M  V30 1058 H 102.439 7.33139 2.44391 0
M  V30 1059 H 100.784 6.59112 2.20447 0
M  V30 1060 H 103.975 4.33876 1.75697 0
M  V30 1061 H 104.148 6.09649 2.19618 0
M  V30 1062 N 97.5546 -0.734337 1.39446 0
M  V30 1063 C 98.5016 -1.84835 1.38219 0
M  V30 1064 C 99.4716 -1.64331 0.24179 0
M  V30 1065 O 100.657 -1.85728 0.437002 0
M  V30 1066 C 97.7966 -3.22355 1.23212 0
M  V30 1067 C 96.9096 -3.5456 2.46801 0
M  V30 1068 C 96.0446 -4.81485 2.24377 0
M  V30 1069 C 95.0836 -5.06536 3.43639 0
M  V30 1070 N 94.2206 -6.24665 3.20528 0
M  V30 1071 H 99.0606 -1.85219 2.33448 0
M  V30 1072 H 96.5976 -0.905039 1.15963 0
M  V30 1073 H 98.5556 -4.0174 1.12522 0
M  V30 1074 H 97.1856 -3.21248 0.316121 0
M  V30 1075 H 96.2376 -2.69872 2.68092 0
M  V30 1076 H 97.5496 -3.6899 3.3563 0
M  V30 1077 H 96.7036 -5.68852 2.10933 0
M  V30 1078 H 95.4426 -4.6923 1.32944 0
M  V30 1079 H 94.4476 -4.17632 3.5758 0
M  V30 1080 H 95.6726 -5.20676 4.35974 0
M  V30 1081 H 93.6186 -6.13696 2.3176 0
M  V30 1082 H 93.5356 -6.39685 4.02913 0
M  V30 1083 H 94.8036 -7.14868 3.10779 0
M  V30 1084 N 99.0327 -1.24633 -0.964593 0
M  V30 1085 C 100.449 -1.01239 -1.2338 0
M  V30 1086 C 100.649 0.2769 -1.99588 0
M  V30 1087 O 99.7047 0.992241 -2.32187 0
M  V30 1088 C 101.018 -2.22937 -2.01791 0
M  V30 1089 C 102.566 -2.27594 -2.14872 0
M  V30 1090 C 103.041 -3.48921 -2.96678 0
M  V30 1091 N 104.532 -3.49257 -3.04259 0
M  V30 1092 C 105.267 -4.39795 -3.67924 0
M  V30 1093 N 104.763 -5.40591 -4.33281 0
M  V30 1094 N 106.556 -4.275 -3.64966 0
M  V30 1095 H 98.7067 -2.0748 -0.454502 0
M  V30 1096 H 100.97 -0.910647 -0.26349 0
M  V30 1097 H 100.676 -3.16587 -1.53184 0
M  V30 1098 H 100.55 -2.25306 -3.02518 0
M  V30 1099 H 102.937 -1.34473 -2.6268 0
M  V30 1100 H 103.018 -2.2925 -1.13482 0
M  V30 1101 H 102.662 -4.42359 -2.49562 0
M  V30 1102 H 102.592 -3.4451 -3.98272 0
M  V30 1103 H 105.083 -2.76337 -2.57771 0
M  V30 1104 H 105.396 -6.05904 -4.79687 0
M  V30 1105 H 103.741 -5.44475 -4.3194 0
M  V30 1106 H 106.932 -3.47987 -3.13086 0
M  V30 1107 H 107.105 -4.98258 -4.14298 0
M  V30 1108 N 100.511 1.16574 -1.06058 0
M  V30 1109 C 101.461 2.18854 -0.63929 0
M  V30 1110 C 102.445 1.57505 0.328798 0
M  V30 1111 O 103.637 1.76408 0.144623 0
M  V30 1112 C 100.766 3.43291 -0.0247203 0
M  V30 1113 C 99.8518 4.11722 -1.01716 0
M  V30 1114 N 100.243 4.55841 -2.19186 0
M  V30 1115 C 98.5408 4.37872 -0.847569 0
M  V30 1116 C 99.2418 5.08751 -2.82042 0
M  V30 1117 N 98.2178 5.01489 -2.09784 0
M  V30 1118 H 102.02 2.5068 -1.53417 0
M  V30 1119 H 99.5338 1.32999 -0.931935 0
M  V30 1120 H 101.531 4.15856 0.294915 0
M  V30 1121 H 100.191 3.12954 0.865448 0
M  V30 1122 H 101.202 4.49649 -2.56975 0
M  V30 1123 H 97.8788 4.17499 -0.00918848 0
M  V30 1124 H 99.2688 5.52944 -3.81709 0
M  V30 1125 N 101.989 0.842826 1.3317 0
M  V30 1126 C 102.919 0.294028 2.31641 0
M  V30 1127 C 103.9 -0.600401 1.59151 0
M  V30 1128 O 105.085 -0.523124 1.87022 0
M  V30 1129 C 102.215 -0.528416 3.43257 0
M  V30 1130 C 101.169 0.27056 4.27144 0
M  V30 1131 C 100.495 -0.675881 5.30411 0
M  V30 1132 C 101.795 1.48981 5.00602 0
M  V30 1133 H 103.489 1.11681 2.77791 0
M  V30 1134 H 101.035 0.538478 1.33553 0
M  V30 1135 H 102.988 -0.922674 4.11175 0
M  V30 1136 H 101.712 -1.38445 2.95805 0
M  V30 1137 H 100.371 0.646427 3.60856 0
M  V30 1138 H 100.019 -1.52842 4.79216 0
M  V30 1139 H 99.7189 -0.145374 5.8742 0
M  V30 1140 H 101.243 -1.06757 6.01195 0
M  V30 1141 H 102.657 1.16849 5.61266 0
M  V30 1142 H 101.054 1.95739 5.6728 0
M  V30 1143 H 102.124 2.25746 4.29147 0
M  V30 1144 N 103.467 -1.45747 0.599634 0
M  V30 1145 C 104.397 -2.33235 -0.111306 0
M  V30 1146 C 105.378 -1.46359 -0.866781 0
M  V30 1147 O 106.563 -1.75146 -0.838904 0
M  V30 1148 C 103.693 -3.28932 -1.11451 0
M  V30 1149 C 102.647 -4.25381 -0.472772 0
M  V30 1150 C 101.973 -5.1071 -1.58365 0
M  V30 1151 C 103.273 -5.18831 0.600948 0
M  V30 1152 H 104.967 -2.92927 0.61919 0
M  V30 1153 H 102.513 -1.40857 0.299215 0
M  V30 1154 H 104.466 -3.89002 -1.62036 0
M  V30 1155 H 103.19 -2.67381 -1.8755 0
M  V30 1156 H 101.849 -3.66598 0.0121472 0
M  V30 1157 H 101.497 -4.45533 -2.33473 0
M  V30 1158 H 101.197 -5.7604 -1.15982 0
M  V30 1159 H 102.721 -5.73647 -2.09194 0
M  V30 1160 H 104.135 -5.73019 0.179491 0
M  V30 1161 H 102.532 -5.92595 0.946076 0
M  V30 1162 H 103.602 -4.6174 1.48068 0
M  V30 1163 N 104.945 -0.338344 -1.53925 0
M  V30 1164 C 105.892 0.520845 -2.24846 0
M  V30 1165 C 106.862 1.09976 -1.24477 0
M  V30 1166 O 108.047 1.13735 -1.53196 0
M  V30 1167 C 105.187 1.6685 -3.02084 0
M  V30 1168 C 104.3 1.11739 -4.17299 0
M  V30 1169 C 103.435 2.23193 -4.82036 0
M  V30 1170 C 102.474 1.65407 -5.89328 0
M  V30 1171 N 101.611 2.70582 -6.47866 0
M  V30 1172 H 106.451 -0.0904881 -2.97863 0
M  V30 1173 H 103.988 -0.0564282 -1.46992 0
M  V30 1174 H 105.946 2.34407 -3.45122 0
M  V30 1175 H 104.576 2.2509 -2.31375 0
M  V30 1176 H 103.628 0.332919 -3.7894 0
M  V30 1177 H 104.94 0.654677 -4.94485 0
M  V30 1178 H 104.094 2.98626 -5.28117 0
M  V30 1179 H 102.833 2.72807 -4.04262 0
M  V30 1180 H 101.838 0.884779 -5.42634 0
M  V30 1181 H 103.063 1.16652 -6.69006 0
M  V30 1182 H 101.009 3.1946 -5.72959 0
M  V30 1183 H 100.926 2.28917 -7.20509 0
M  V30 1184 H 102.194 3.45799 -6.98601 0
M  V30 1185 N 106.423 1.57458 -0.0668435 0
M  V30 1186 C 107.7 1.8469 0.644132 0
M  V30 1187 C 108.08 0.958343 1.88093 0
M  V30 1188 O 107.428 0.0233579 2.28488 0
M  V30 1189 C 107.638 3.34767 0.986509 0
M  V30 1190 C 108.986 4.02159 1.36212 0
M  V30 1191 O 110.01 3.39484 1.07839 0
M  V30 1192 O 108.869 5.12694 1.89227 0
M  V30 1193 H 105.963 0.762816 0.319437 0
M  V30 1194 H 108.509 1.6942 -0.0973986 0
M  V30 1195 H 107.281 3.91151 0.107883 0
M  V30 1196 H 106.904 3.55281 1.78497 0
M  V30 1197 N 107.901 -0.206675 1.56239 0
M  V30 1198 C 109.178 -0.954051 1.70755 0
M  V30 1199 C 109.558 -2.01841 0.618353 0
M  V30 1200 O 108.906 -2.25444 -0.372434 0
M  V30 1201 C 109.116 -1.551 3.12642 0
M  V30 1202 C 110.464 -2.03757 3.72516 0
M  V30 1203 O 111.488 -1.64965 3.15698 0
M  V30 1204 O 110.347 -2.75103 4.72208 0
M  V30 1205 H 107.441 -0.446636 0.696021 0
M  V30 1206 H 109.987 -0.197283 1.68549 0
M  V30 1207 H 108.759 -0.783212 3.83382 0
M  V30 1208 H 108.382 -2.37291 3.19028 0
M  V30 1209 N 109.379 -1.50304 -0.473955 0
M  V30 1210 C 110.342 -1.6841 -1.55469 0
M  V30 1211 C 111.342 -0.554905 -1.50922 0
M  V30 1212 O 112.532 -0.821882 -1.53593 0
M  V30 1213 C 109.664 -1.70667 -2.95102 0
M  V30 1214 H 110.857 -2.64828 -1.40733 0
M  V30 1215 H 108.41 -1.39742 -0.700132 0
M  V30 1216 H 109.145 -0.75932 -3.15285 0
M  V30 1217 H 108.93 -2.52698 -2.9981 0
M  V30 1218 H 110.42 -1.8664 -3.73571 0
M  V30 1219 N 110.857 0.726932 -1.39834 0
M  V30 1220 C 112.103 1.48771 -1.38704 0
M  V30 1221 C 112.458 1.92394 0.0146387 0
M  V30 1222 O 111.751 1.64474 0.982797 0
M  V30 1223 C 111.945 2.73495 -2.30077 0
M  V30 1224 C 111.774 2.42068 -3.78989 0
M  V30 1225 C 110.544 2.33966 -4.4787 0
M  V30 1226 C 112.742 2.0708 -4.70768 0
M  V30 1227 N 110.724 1.95095 -5.82075 0
M  V30 1228 C 112.095 1.78719 -5.93683 0
M  V30 1229 C 114.15 1.93618 -4.58712 0
M  V30 1230 C 112.853 1.3825 -7.05889 0
M  V30 1231 C 114.879 1.54553 -5.70848 0
M  V30 1232 C 114.241 1.27082 -6.92842 0
M  V30 1233 H 110.34 0.542919 -0.562817 0
M  V30 1234 H 112.924 0.84408 -1.75452 0
M  V30 1235 H 111.095 3.35625 -1.95474 0
M  V30 1236 H 112.827 3.39755 -2.19883 0
M  V30 1237 H 109.582 2.51331 -4.0141 0
M  V30 1238 H 110.006 1.7823 -6.53118 0
M  V30 1239 H 114.648 2.13522 -3.64922 0
M  V30 1240 H 112.366 1.17088 -7.99572 0
M  V30 1241 H 115.952 1.44731 -5.6351 0
M  V30 1242 H 114.832 0.973069 -7.78139 0
M  V30 1243 N 112.336 1.25143 0.95797 0
M  V30 1244 C 113.583 1.09692 1.70217 0
M  V30 1245 C 113.911 -0.362654 1.91089 0
M  V30 1246 O 113.166 -1.28386 1.47701 0
M  V30 1247 C 113.465 1.79272 3.09187 0
M  V30 1248 C 113.131 3.29196 3.08125 0
M  V30 1249 C 111.793 3.70096 3.07543 0
M  V30 1250 C 114.145 4.24995 3.0171 0
M  V30 1251 C 111.473 5.05213 2.9829 0
M  V30 1252 C 113.825 5.60132 2.93999 0
M  V30 1253 C 112.489 6.00365 2.9175 0
M  V30 1254 H 111.759 0.401393 0.622868 0
M  V30 1255 H 114.406 1.55372 1.11945 0
M  V30 1256 H 112.711 1.26014 3.70982 0
M  V30 1257 H 114.408 1.64773 3.65583 0
M  V30 1258 H 110.998 2.96651 3.09348 0
M  V30 1259 H 115.182 3.9439 3.01281 0
M  V30 1260 H 110.438 5.35569 2.94916 0
M  V30 1261 H 114.612 6.3406 2.87996 0
M  V30 1262 H 112.239 7.05023 2.84336 0
M  V30 1263 N 113.814 -1.1601 1.06675 0
M  V30 1264 C 115.054 -1.88304 0.795037 0
M  V30 1265 C 115.418 -1.80062 -0.666466 0
M  V30 1266 O 116.619 -2.47319 -1.05293 0
M  V30 1267 C 114.89 -3.33664 1.28076 0
M  V30 1268 S 116.449 -4.23768 1.13868 0
M  V30 1269 H 113.267 -0.649928 0.288296 0
M  V30 1270 H 115.869 -1.4001 1.36445 0
M  V30 1271 H 114.573 -3.37203 2.33927 0
M  V30 1272 H 114.104 -3.87009 0.706253 0
M  V30 1273 H 116.119 -4.96148 0.0719668 0
M  V30 1274 N 115.292 -0.849877 -1.32721 0
M  V30 1275 C 116.24 -0.279745 -2.30912 0
M  V30 1276 C 117.234 0.594278 -1.58634 0
M  V30 1277 O 118.44 0.482613 -1.73409 0
M  V30 1278 H 114.815 -0.0717521 -0.748569 0
M  V30 1279 H 116.786 -1.12222 -2.76494 0
M  V30 1280 C 115.535 0.521108 -3.43773 0
M  V30 1281 H 114.858 -0.142141 -3.99547 0
M  V30 1282 H 116.298 0.885693 -4.14646 0
M  V30 1283 C 114.757 1.70442 -2.90605 0
M  V30 1284 O 115.287 2.8034 -2.87702 0
M  V30 1285 N 113.493 1.52991 -2.47067 0
M  V30 1286 H 113.04 0.635914 -2.49628 0
M  V30 1287 H 112.998 2.32311 -2.11847 0
M  V30 1288 N 116.77 1.45427 -0.607355 0
M  V30 1289 C 118.016 2.03097 -0.111035 0
M  V30 1290 C 118.371 1.46735 1.24445 0
M  V30 1291 O 117.664 0.632478 1.8086 0
M  V30 1292 C 117.858 3.57398 -0.0129263 0
M  V30 1293 C 117.687 4.28726 -1.35735 0
M  V30 1294 C 116.457 4.66659 -1.93798 0
M  V30 1295 C 118.655 4.60699 -2.28607 0
M  V30 1296 N 116.637 5.22845 -3.21723 0
M  V30 1297 C 118.008 5.17716 -3.41131 0
M  V30 1298 C 120.063 4.42638 -2.27982 0
M  V30 1299 C 118.766 5.58576 -4.53194 0
M  V30 1300 C 120.792 4.84531 -3.39093 0
M  V30 1301 C 120.154 5.4164 -4.50339 0
M  V30 1302 H 116.253 0.777476 -0.083994 0
M  V30 1303 H 118.837 1.77249 -0.805655 0
M  V30 1304 H 117.008 3.82907 0.650914 0
M  V30 1305 H 118.74 4.01722 0.490033 0
M  V30 1306 H 115.495 4.50207 -1.47007 0
M  V30 1307 H 115.919 5.55438 -3.87063 0
M  V30 1308 H 120.561 3.97798 -1.43235 0
M  V30 1309 H 118.279 6.02382 -5.38667 0
M  V30 1310 H 121.865 4.72289 -3.39757 0
M  V30 1311 H 120.745 5.73461 -5.34895 0
M  V30 1312 N 118.248 0.346503 1.53744 0
M  V30 1313 C 119.497 -0.250122 2.00143 0
M  V30 1314 C 119.81 -1.51418 1.23822 0
M  V30 1315 O 121.016 -2.18823 1.60713 0
M  V30 1316 C 119.472 -0.496252 3.56462 0
M  V30 1317 C 119.08 0.752077 4.41642 0
M  V30 1318 C 120.824 -1.05157 4.11269 0
M  V30 1319 C 118.731 0.476583 5.89477 0
M  V30 1320 H 117.661 -0.0972409 0.747703 0
M  V30 1321 H 120.312 0.46229 1.77581 0
M  V30 1322 H 118.694 -1.26944 3.75102 0
M  V30 1323 H 119.868 1.5266 4.34778 0
M  V30 1324 H 118.183 1.22925 3.97842 0
M  V30 1325 H 120.78 -1.27269 5.19333 0
M  V30 1326 H 121.123 -2.00799 3.64672 0
M  V30 1327 H 121.656 -0.339019 3.96353 0
M  V30 1328 H 118.395 1.4028 6.40314 0
M  V30 1329 H 117.915 -0.259794 5.99237 0
M  V30 1330 H 119.594 0.0949315 6.4693 0
M  V30 1331 N 119.726 -1.57421 0.075193 0
M  V30 1332 C 120.951 -1.98364 -0.605515 0
M  V30 1333 C 121.376 -0.953383 -1.62149 0
M  V30 1334 O 120.734 0.0806053 -1.81121 0
M  V30 1335 C 120.782 -3.38332 -1.24756 0
M  V30 1336 O 119.886 -3.37959 -2.36342 0
M  V30 1337 H 119.227 -0.645553 -0.155428 0
M  V30 1338 H 121.757 -2.04044 0.150714 0
M  V30 1339 H 121.767 -3.75591 -1.5936 0
M  V30 1340 H 120.442 -4.12846 -0.503129 0
M  V30 1341 H 119.019 -3.12474 -2.03506 0
M  V30 1342 N 121.204 0.198386 -1.56346 0
M  V30 1343 C 122.45 0.920648 -1.80698 0
M  V30 1344 C 122.783 1.83045 -0.648697 0
M  V30 1345 O 122.058 1.91308 0.350925 0
M  V30 1346 C 122.341 1.73971 -3.15287 0
M  V30 1347 C 122.194 0.85485 -4.41602 0
M  V30 1348 C 123.513 2.71296 -3.46535 0
M  V30 1349 H 120.632 0.333261 -0.657348 0
M  V30 1350 H 123.274 0.188198 -1.89066 0
M  V30 1351 H 121.424 2.36416 -3.08285 0
M  V30 1352 H 123.096 0.245362 -4.60647 0
M  V30 1353 H 121.339 0.161398 -4.335 0
M  V30 1354 H 122.01 1.46286 -5.32264 0
M  V30 1355 H 124.486 2.18983 -3.53816 0
M  V30 1356 H 123.362 3.2569 -4.41834 0
M  V30 1357 H 123.623 3.5018 -2.69864 0
M  V30 1358 N 122.682 1.50554 0.465978 0
M  V30 1359 C 123.614 1.65949 1.58093 0
M  V30 1360 C 124.627 0.540827 1.53554 0
M  V30 1361 O 125.816 0.814187 1.5885 0
M  V30 1362 C 122.916 1.63261 2.96983 0
M  V30 1363 C 122.089 2.91245 3.26336 0
M  V30 1364 C 121.148 2.8113 4.44806 0
M  V30 1365 O 120.174 3.55086 4.44862 0
M  V30 1366 N 121.376 1.95032 5.46756 0
M  V30 1367 H 124.141 2.62122 1.45301 0
M  V30 1368 H 121.702 1.48082 0.65448 0
M  V30 1369 H 123.694 1.54101 3.74212 0
M  V30 1370 H 122.264 0.748032 3.03518 0
M  V30 1371 H 121.484 3.14493 2.37672 0
M  V30 1372 H 122.772 3.76022 3.42761 0
M  V30 1373 H 122.17 1.3427 5.49534 0
M  V30 1374 H 120.727 1.91772 6.2295 0
M  V30 1375 N 124.16 -0.719506 1.40217 0
M  V30 1376 C 125.408 -1.47641 1.3801 0
M  V30 1377 C 125.729 -1.94992 -0.018145 0
M  V30 1378 O 124.999 -1.70073 -0.972207 0
M  V30 1379 H 123.579 -0.547744 0.507923 0
M  V30 1380 H 126.241 -0.853187 1.75233 0
M  V30 1381 H 125.337 -2.35112 2.05253 0
M  V30 1382 N 125.638 -1.25649 -0.95132 0
M  V30 1383 C 127.049 -1.09654 -1.51106 0
M  V30 1384 C 127.4 0.326615 -1.93462 0
M  V30 1385 O 126.525 1.21697 -1.78938 0
M  V30 1386 C 127.12 -1.98437 -2.74605 0
M  V30 1387 C 125.679 -1.86618 -3.2688 0
M  V30 1388 C 124.826 -1.9239 -1.99703 0
M  V30 1389 H 127.777 -1.38887 -0.767865 0
M  V30 1390 H 127.798 -1.5263 -3.48546 0
M  V30 1391 H 127.31 -3.02009 -2.43746 0
M  V30 1392 H 125.411 -0.859421 -3.62553 0
M  V30 1393 H 125.524 -2.71607 -3.94673 0
M  V30 1394 H 123.888 -1.36317 -2.15151 0
M  V30 1395 H 124.671 -2.97573 -1.71188 0
M  V30 1396 N 127.117 1.15442 -1.07289 0
M  V30 1397 C 128.365 1.85845 -0.794096 0
M  V30 1398 C 128.686 1.82692 0.681809 0
M  V30 1399 O 127.956 1.26741 1.49377 0
M  V30 1400 H 126.536 0.688089 -0.290763 0
M  V30 1401 H 129.198 1.39947 -1.3565 0
M  V30 1402 H 128.294 2.91001 -1.12804 0
M  V30 1403 N 128.595 0.856903 1.32268 0
M  V30 1404 C 129.558 0.308171 2.27119 0
M  V30 1405 C 130.558 -0.533421 1.51695 0
M  V30 1406 O 131.748 -0.344607 1.70757 0
M  V30 1407 C 128.88 -0.563757 3.36206 0
M  V30 1408 H 130.073 1.14535 2.77167 0
M  V30 1409 H 127.626 0.631421 1.42978 0
M  V30 1410 H 128.361 -1.42266 2.91429 0
M  V30 1411 H 128.146 0.0386749 3.92081 0
M  V30 1412 H 129.636 -0.940386 4.06874 0
M  V30 1413 N 130.073 -1.45103 0.615059 0
M  V30 1414 C 131.321 -2.01784 0.112955 0
M  V30 1415 C 131.642 -1.48504 -1.26378 0
M  V30 1416 O 130.912 -0.682245 -1.83636 0
M  V30 1417 H 129.492 -0.745993 0.0387668 0
M  V30 1418 H 132.154 -1.77808 0.798141 0
M  V30 1419 H 131.25 -3.12025 0.0684069 0
M  V30 1420 N 131.551 -0.354651 -1.53558 0
M  V30 1421 C 132.828 0.294281 -1.93374 0
M  V30 1422 C 133.208 1.67313 -1.28723 0
M  V30 1423 O 132.556 2.24179 -0.442247 0
M  V30 1424 C 132.766 0.355445 -3.47185 0
M  V30 1425 C 134.114 0.601007 -4.20325 0
M  V30 1426 O 135.138 0.437106 -3.53508 0
M  V30 1427 O 133.997 0.919322 -5.38712 0
M  V30 1428 H 131.091 0.174033 -0.808481 0
M  V30 1429 H 133.637 -0.406638 -1.64756 0
M  V30 1430 H 132.409 -0.611729 -3.86489 0
M  V30 1431 H 132.032 1.1027 -3.82003 0
M  V30 1432 N 133.029 1.57378 -0.0835403 0
M  V30 1433 C 133.939 2.16897 0.894021 0
M  V30 1434 C 134.955 1.13528 1.31861 0
M  V30 1435 O 136.131 1.45848 1.3889 0
M  V30 1436 C 133.196 2.72831 2.13925 0
M  V30 1437 C 132.257 3.91115 1.76997 0
M  V30 1438 C 131.49 4.44371 2.95584 0
M  V30 1439 O 131.713 3.96596 4.09961 0
M  V30 1440 O 130.647 5.35549 2.74719 0
M  V30 1441 H 134.473 3.00814 0.417679 0
M  V30 1442 H 132.058 1.48741 0.140181 0
M  V30 1443 H 133.94 3.0863 2.86924 0
M  V30 1444 H 132.615 1.91967 2.60635 0
M  V30 1445 H 131.522 3.60148 1.01214 0
M  V30 1446 H 132.855 4.73307 1.3506 0
M  V30 1447 N 134.507 -0.190092 1.56449 0
M  V30 1448 C 135.753 -0.911052 1.81184 0
M  V30 1449 C 136.086 -1.82699 0.658396 0
M  V30 1450 O 135.361 -1.91491 -0.340775 0
M  V30 1451 C 135.644 -1.72297 3.16205 0
M  V30 1452 C 135.497 -0.831419 4.42049 0
M  V30 1453 C 136.816 -2.69454 3.47969 0
M  V30 1454 H 133.935 -0.32977 0.659106 0
M  V30 1455 H 136.577 -0.178169 1.89163 0
M  V30 1456 H 134.727 -2.34778 3.09534 0
M  V30 1457 H 136.399 -0.220929 4.60771 0
M  V30 1458 H 134.642 -0.138406 4.33579 0
M  V30 1459 H 135.313 -1.43461 5.33032 0
M  V30 1460 H 137.789 -2.17104 3.54972 0
M  V30 1461 H 136.665 -3.23342 4.43555 0
M  V30 1462 H 136.926 -3.48744 2.71717 0
M  V30 1463 N 135.985 -1.50799 -0.457987 0
M  V30 1464 C 137.401 -1.38515 -0.792819 0
M  V30 1465 C 137.601 -0.451409 -1.96379 0
M  V30 1466 O 136.657 0.10112 -2.52297 0
M  V30 1467 C 137.97 -2.80149 -1.09258 0
M  V30 1468 C 139.518 -2.89156 -1.19825 0
M  V30 1469 C 139.993 -4.31651 -1.53106 0
M  V30 1470 N 141.484 -4.34662 -1.60072 0
M  V30 1471 C 142.219 -5.41928 -1.87354 0
M  V30 1472 N 141.715 -6.59384 -2.12568 0
M  V30 1473 N 143.508 -5.29385 -1.88965 0
M  V30 1474 H 135.659 -2.10073 0.313511 0
M  V30 1475 H 137.922 -0.944803 0.0777862 0
M  V30 1476 H 137.628 -3.50374 -0.305084 0
M  V30 1477 H 137.502 -3.18204 -2.02549 0
M  V30 1478 H 139.889 -2.19141 -1.97639 0
M  V30 1479 H 139.97 -2.54626 -0.244821 0
M  V30 1480 H 139.614 -5.02208 -0.758266 0
M  V30 1481 H 139.544 -4.63678 -2.49621 0
M  V30 1482 H 142.035 -3.49973 -1.42573 0
M  V30 1483 H 142.348 -7.36934 -2.32696 0
M  V30 1484 H 140.693 -6.62535 -2.09933 0
M  V30 1485 H 143.884 -4.36616 -1.68772 0
M  V30 1486 H 144.057 -6.13066 -2.09891 0
M  V30 1487 N 137.463 0.71206 -1.40597 0
M  V30 1488 C 138.71 1.47197 -1.39065 0
M  V30 1489 C 139.038 1.94499 0.00583891 0
M  V30 1490 O 138.293 1.68752 0.99102 0
M  V30 1491 C 138.592 2.71039 -2.32965 0
M  V30 1492 C 138.258 2.42484 -3.80148 0
M  V30 1493 C 136.92 2.34406 -4.20247 0
M  V30 1494 C 139.272 2.18598 -4.73143 0
M  V30 1495 C 136.6 2.00516 -5.51371 0
M  V30 1496 C 138.952 1.8622 -6.0457 0
M  V30 1497 C 137.616 1.76626 -6.43708 0
M  V30 1498 H 136.886 0.538634 -0.508876 0
M  V30 1499 H 139.533 0.815325 -1.73276 0
M  V30 1500 H 137.838 3.41558 -1.91951 0
M  V30 1501 H 139.535 3.29138 -2.29061 0
M  V30 1502 H 136.125 2.49659 -3.4838 0
M  V30 1503 H 140.309 2.23793 -4.42979 0
M  V30 1504 H 135.565 1.91628 -5.80593 0
M  V30 1505 H 139.739 1.66752 -6.76141 0
M  V30 1506 H 137.366 1.50133 -7.45228 0
M  V30 1507 N 138.941 1.26152 0.944643 0
M  V30 1508 C 140.352 1.10454 1.50522 0
M  V30 1509 C 140.703 -0.31635 1.93633 0
M  V30 1510 O 139.828 -1.20746 1.79581 0
M  V30 1511 C 140.423 1.99891 2.73549 0
M  V30 1512 C 138.982 1.88348 3.25886 0
M  V30 1513 C 138.129 1.93447 1.9868 0
M  V30 1514 H 141.08 1.39292 0.760489 0
M  V30 1515 H 141.101 1.54477 3.47732 0
M  V30 1516 H 140.613 3.03297 2.42141 0
M  V30 1517 H 138.714 0.878636 3.62092 0
M  V30 1518 H 138.827 2.73696 3.93227 0
M  V30 1519 H 137.191 1.37456 2.14425 0
M  V30 1520 H 137.974 2.98476 1.69607 0
M  V30 1521 N 140.419 -1.14872 1.07899 0
M  V30 1522 C 141.659 -1.8745 0.814965 0
M  V30 1523 C 142.023 -1.80758 -0.64733 0
M  V30 1524 O 143.224 -2.48422 -1.02664 0
M  V30 1525 C 141.495 -3.32286 1.31607 0
M  V30 1526 S 143.054 -4.22537 1.18357 0
M  V30 1527 H 139.872 -0.646833 0.295174 0
M  V30 1528 H 142.474 -1.38555 1.37923 0
M  V30 1529 H 141.178 -3.34703 2.37491 0
M  V30 1530 H 140.709 -3.86238 0.747261 0
M  V30 1531 H 142.724 -4.96044 0.124586 0
M  V30 1532 N 141.898 -0.863906 -1.31812 0
M  V30 1533 C 143.128 -0.485406 -2.00817 0
M  V30 1534 C 143.536 0.925007 -1.65046 0
M  V30 1535 O 142.879 1.61653 -0.872574 0
M  V30 1536 C 142.941 -0.555589 -3.55181 0
M  V30 1537 C 142.605 -1.92654 -4.14407 0
M  V30 1538 C 143.602 -2.89324 -4.31958 0
M  V30 1539 C 141.287 -2.2262 -4.50273 0
M  V30 1540 C 143.281 -4.14108 -4.84555 0
M  V30 1541 C 140.968 -3.47654 -5.02573 0
M  V30 1542 C 141.966 -4.43214 -5.19664 0
M  V30 1543 O 141.654 -5.66033 -5.70843 0
M  V30 1544 H 141.386 -0.188224 -0.649267 0
M  V30 1545 H 143.94 -1.16514 -1.69156 0
M  V30 1546 H 142.17 0.181037 -3.86276 0
M  V30 1547 H 143.859 -0.19138 -4.05449 0
M  V30 1548 H 144.625 -2.6748 -4.04573 0
M  V30 1549 H 140.504 -1.4902 -4.3625 0
M  V30 1550 H 144.048 -4.88703 -4.9781 0
M  V30 1551 H 139.945 -3.69345 -5.29391 0
M  V30 1552 H 140.713 -5.6812 -5.89222 0
M  V30 1553 N 143.376 1.44774 -0.622745 0
M  V30 1554 C 144.792 1.56986 -0.287652 0
M  V30 1555 C 144.992 1.61167 1.20944 0
M  V30 1556 O 144.048 1.55015 1.99315 0
M  V30 1557 C 145.361 2.84551 -0.972188 0
M  V30 1558 C 146.909 2.9825 -0.949536 0
M  V30 1559 C 147.384 4.28605 -1.61437 0
M  V30 1560 N 148.875 4.35399 -1.58057 0
M  V30 1561 C 149.61 5.34964 -2.064 0
M  V30 1562 N 149.106 6.40981 -2.62897 0
M  V30 1563 N 150.899 5.26419 -1.97078 0
M  V30 1564 H 143.05 1.40304 -1.59463 0
M  V30 1565 H 145.313 0.671794 -0.668878 0
M  V30 1566 H 145.019 2.87417 -2.02693 0
M  V30 1567 H 144.893 3.73807 -0.504771 0
M  V30 1568 H 147.28 2.94941 0.0967067 0
M  V30 1569 H 147.361 2.10364 -1.45536 0
M  V30 1570 H 147.005 4.32672 -2.66002 0
M  V30 1571 H 146.935 5.15334 -1.08344 0
M  V30 1572 H 149.426 3.59397 -1.16801 0
M  V30 1573 H 149.739 7.13225 -2.97539 0
M  V30 1574 H 148.084 6.4169 -2.66943 0
M  V30 1575 H 151.275 4.42504 -1.52669 0
M  V30 1576 H 151.448 6.03861 -2.35066 0
M  V30 1577 N 144.854 0.36279 1.53368 0
M  V30 1578 C 146.1 -0.220702 2.02199 0
M  V30 1579 C 146.455 -1.46649 1.24546 0
M  V30 1580 O 145.748 -1.88737 0.32996 0
M  V30 1581 C 145.942 -0.568417 3.52851 0
M  V30 1582 C 145.771 0.642126 4.45092 0
M  V30 1583 C 144.541 1.15335 4.91961 0
M  V30 1584 C 146.739 1.50649 4.91741 0
M  V30 1585 N 144.721 2.3242 5.68202 0
M  V30 1586 C 146.092 2.52404 5.66297 0
M  V30 1587 C 148.147 1.52969 4.73819 0
M  V30 1588 C 146.85 3.56331 6.24836 0
M  V30 1589 C 148.876 2.55789 5.33222 0
M  V30 1590 C 148.238 3.56268 6.07662 0
M  V30 1591 H 144.337 -0.0435508 0.780786 0
M  V30 1592 H 146.921 0.506704 1.87991 0
M  V30 1593 H 145.092 -1.2649 3.67226 0
M  V30 1594 H 146.824 -1.13676 3.88407 0
M  V30 1595 H 143.579 0.718412 4.68119 0
M  V30 1596 H 144.003 2.91591 6.10986 0
M  V30 1597 H 148.645 0.766418 4.15795 0
M  V30 1598 H 146.363 4.33543 6.81958 0
M  V30 1599 H 149.949 2.58435 5.21251 0
M  V30 1600 H 148.829 4.34524 6.52808 0
M  V30 1601 N 146.332 -1.57332 0.0918853 0
M  V30 1602 C 147.578 -1.94524 -0.573425 0
M  V30 1603 C 147.911 -0.973578 -1.68033 0
M  V30 1604 O 147.186 -0.00609226 -1.94499 0
M  V30 1605 C 147.469 -3.41858 -1.13161 0
M  V30 1606 C 147.322 -4.4979 -0.0299747 0
M  V30 1607 C 148.641 -3.90435 -2.03098 0
M  V30 1608 H 145.76 -0.70734 -0.206975 0
M  V30 1609 H 148.402 -1.89309 0.161942 0
M  V30 1610 H 146.552 -3.46433 -1.7583 0
M  V30 1611 H 148.224 -4.57327 0.604112 0
M  V30 1612 H 146.467 -4.291 0.636833 0
M  V30 1613 H 147.138 -5.50069 -0.461287 0
M  V30 1614 H 149.614 -3.87992 -1.50338 0
M  V30 1615 H 148.49 -4.94097 -2.39081 0
M  V30 1616 H 148.751 -3.29541 -2.94712 0
M  V30 1617 N 147.81 0.181792 -1.56548 0
M  V30 1618 C 148.72 1.24538 -1.98815 0
M  V30 1619 C 149.736 1.49045 -0.897861 0
M  V30 1620 O 150.912 1.61399 -1.20467 0
M  V30 1621 C 147.977 2.56683 -2.33055 0
M  V30 1622 C 147.038 2.40131 -3.55859 0
M  V30 1623 C 146.271 3.65975 -3.88456 0
M  V30 1624 O 146.494 4.70711 -3.22161 0
M  V30 1625 O 145.428 3.6071 -4.81842 0
M  V30 1626 H 149.254 0.916647 -2.89536 0
M  V30 1627 H 146.839 0.387842 -1.44278 0
M  V30 1628 H 148.721 3.34655 -2.56094 0
M  V30 1629 H 147.396 2.89157 -1.45498 0
M  V30 1630 H 146.303 1.60226 -3.38051 0
M  V30 1631 H 147.636 2.12585 -4.43924 0
M  V30 1632 N 149.288 1.51039 0.449983 0
M  V30 1633 C 150.536 1.62759 1.19808 0
M  V30 1634 C 150.857 0.339981 1.92013 0
M  V30 1635 O 150.127 -0.643606 1.85026 0
M  V30 1636 H 148.707 0.599811 0.445237 0
M  V30 1637 H 151.369 1.87914 0.517138 0
M  V30 1638 H 150.465 2.44911 1.93455 0
M  V30 1639 N 150.766 -0.704594 1.40972 0
M  V30 1640 C 151.714 -1.83994 1.42299 0
M  V30 1641 C 152.708 -1.66684 0.302111 0
M  V30 1642 O 153.914 -1.73655 0.473697 0
M  V30 1643 H 150.289 -0.606171 0.44504 0
M  V30 1644 H 152.26 -1.79992 2.38003 0
M  V30 1645 C 151.009 -3.21946 1.31323 0
M  V30 1646 H 150.332 -3.35878 2.16855 0
M  V30 1647 H 151.772 -4.01491 1.36311 0
M  V30 1648 C 150.231 -3.36891 0.0245977 0
M  V30 1649 O 150.761 -3.90687 -0.934153 0
M  V30 1650 N 148.967 -2.90559 -0.0485243 0
M  V30 1651 H 148.514 -2.46968 0.732419 0
M  V30 1652 H 148.472 -3.00937 -0.910171 0
M  V30 1653 N 152.244 -1.26651 -0.937939 0
M  V30 1654 C 153.492 -1.12165 -1.68118 0
M  V30 1655 C 153.813 0.334983 -1.92101 0
M  V30 1656 O 153.083 1.23583 -1.52 0
M  V30 1657 H 151.663 -0.412093 -0.623048 0
M  V30 1658 H 154.325 -1.59027 -1.12678 0
M  V30 1659 H 153.421 -1.64289 -2.6536 0
M  V30 1660 N 153.722 1.14298 -1.08507 0
M  V30 1661 C 154.968 1.85633 -0.816581 0
M  V30 1662 C 155.301 1.82784 0.656021 0
M  V30 1663 O 154.576 1.25926 1.48233 0
M  V30 1664 C 154.859 3.34223 -1.34041 0
M  V30 1665 C 154.712 3.45639 -2.87843 0
M  V30 1666 C 156.031 4.29356 -0.9665 0
M  V30 1667 H 153.15 0.67402 -0.298104 0
M  V30 1668 H 155.792 1.34214 -1.34487 0
M  V30 1669 H 153.942 3.78144 -0.89104 0
M  V30 1670 H 155.614 3.10498 -3.41158 0
M  V30 1671 H 153.857 2.86817 -3.25451 0
M  V30 1672 H 154.528 4.50089 -3.19569 0
M  V30 1673 H 157.004 3.93457 -1.35391 0
M  V30 1674 H 155.88 5.3178 -1.3602 0
M  V30 1675 H 156.141 4.41919 0.126362 0
M  V30 1676 N 155.201 0.870884 1.31352 0
M  V30 1677 C 156.131 0.343096 2.30966 0
M  V30 1678 C 157.112 -0.566507 1.60389 0
M  V30 1679 O 158.297 -0.483336 1.88089 0
M  V30 1680 C 155.427 -0.455487 3.443 0
M  V30 1681 C 154.381 0.361103 4.26474 0
M  V30 1682 C 153.707 -0.563221 5.31725 0
M  V30 1683 C 155.007 1.59566 4.97329 0
M  V30 1684 H 156.701 1.17548 2.75359 0
M  V30 1685 H 154.247 0.566686 1.32381 0
M  V30 1686 H 156.2 -0.83525 4.13039 0
M  V30 1687 H 154.924 -1.32139 2.98675 0
M  V30 1688 H 153.583 0.722825 3.59403 0
M  V30 1689 H 153.231 -1.42643 4.82351 0
M  V30 1690 H 152.931 -0.0207409 5.87596 0
M  V30 1691 H 154.455 -0.939808 6.03324 0
M  V30 1692 H 155.869 1.28728 5.58661 0
M  V30 1693 H 154.266 2.07728 5.63 0
M  V30 1694 H 155.336 2.34798 4.24262 0
M  V30 1695 N 156.679 -1.44442 0.630414 0
M  V30 1696 C 157.904 -2.06927 0.139944 0
M  V30 1697 C 158.329 -1.46795 -1.17613 0
M  V30 1698 O 157.687 -0.569144 -1.72135 0
M  V30 1699 C 157.735 -3.6058 0.0379581 0
M  V30 1700 O 156.839 -3.99937 -1.0062 0
M  V30 1701 H 156.18 -0.658608 0.0844483 0
M  V30 1702 H 158.71 -1.85327 0.866891 0
M  V30 1703 H 158.72 -4.07714 -0.152856 0
M  V30 1704 H 157.395 -4.03728 0.998809 0
M  V30 1705 H 155.972 -3.64436 -0.79001 0
M  V30 1706 N 158.157 -0.370918 -1.53173 0
M  V30 1707 C 159.087 0.464847 -2.28826 0
M  V30 1708 C 160.068 1.07936 -1.31468 0
M  V30 1709 O 161.253 1.0956 -1.60344 0
M  V30 1710 C 158.383 1.60196 -3.08147 0
M  V30 1711 C 157.337 1.11443 -4.13237 0
M  V30 1712 C 156.663 2.3422 -4.80672 0
M  V30 1713 C 157.963 0.195384 -5.21934 0
M  V30 1714 H 159.657 -0.166329 -2.98938 0
M  V30 1715 H 157.203 -0.0814359 -1.4377 0
M  V30 1716 H 159.156 2.19332 -3.59822 0
M  V30 1717 H 157.88 2.26045 -2.35735 0
M  V30 1718 H 156.539 0.545727 -3.62515 0
M  V30 1719 H 156.187 2.98537 -4.04827 0
M  V30 1720 H 155.887 2.02269 -5.51689 0
M  V30 1721 H 157.411 2.94032 -5.35143 0
M  V30 1722 H 158.825 0.694375 -5.69079 0
M  V30 1723 H 157.222 -0.0335027 -6.00091 0
M  V30 1724 H 158.292 -0.760961 -4.78892 0
M  V30 1725 N 159.635 1.57281 -0.100228 0
M  V30 1726 C 161.046 1.81725 0.428107 0
M  V30 1727 C 161.397 1.01619 1.67833 0
M  V30 1728 O 160.522 0.247098 2.14985 0
M  V30 1729 C 161.117 3.29617 0.78347 0
M  V30 1730 C 159.676 3.54808 1.25653 0
M  V30 1731 C 158.823 2.76118 0.255752 0
M  V30 1732 H 161.774 1.55324 -0.325608 0
M  V30 1733 H 161.795 3.4322 1.64256 0
M  V30 1734 H 161.307 3.87893 -0.12665 0
M  V30 1735 H 159.408 3.01868 2.18418 0
M  V30 1736 H 159.521 4.63443 1.21482 0
M  V30 1737 H 157.885 2.43745 0.738956 0
M  V30 1738 H 158.668 3.37145 -0.647136 0
M  V30 1739 N 161.113 -0.173488 1.56642 0
M  V30 1740 C 162.023 -1.23482 1.99473 0
M  V30 1741 C 163.039 -1.48567 0.905752 0
M  V30 1742 O 164.215 -1.60758 1.21321 0
M  V30 1743 C 161.28 -2.55444 2.34413 0
M  V30 1744 C 160.341 -2.38241 3.57127 0
M  V30 1745 C 159.574 -3.63909 3.90392 0
M  V30 1746 O 159.797 -4.68996 3.24653 0
M  V30 1747 O 158.731 -3.58149 4.83749 0
M  V30 1748 H 162.557 -0.901279 2.90018 0
M  V30 1749 H 160.142 -0.380185 1.44482 0
M  V30 1750 H 162.024 -3.33292 2.57865 0
M  V30 1751 H 160.699 -2.88382 1.4703 0
M  V30 1752 H 159.606 -1.58431 3.38896 0
M  V30 1753 H 160.939 -2.10228 4.45045 0
M  V30 1754 N 162.591 -1.51276 -0.441967 0
M  V30 1755 C 163.839 -1.63392 -1.18943 0
M  V30 1756 C 164.16 -0.350159 -1.9183 0
M  V30 1757 O 163.43 0.633784 -1.85364 0
M  V30 1758 H 162.01 -0.602164 -0.442049 0
M  V30 1759 H 164.672 -1.88186 -0.507165 0
M  V30 1760 H 163.768 -2.45934 -1.92154 0
M  V30 1761 N 164.069 0.697108 -1.41344 0
M  V30 1762 C 165.297 1.48593 -1.43972 0
M  V30 1763 C 165.712 1.88747 -0.0445612 0
M  V30 1764 O 165.069 1.56682 0.935785 0
M  V30 1765 C 165.12 2.74946 -2.34706 0
M  V30 1766 O 164.841 2.36484 -3.68791 0
M  V30 1767 C 166.342 3.687 -2.46121 0
M  V30 1768 H 163.562 0.457964 -0.490418 0
M  V30 1769 H 166.106 0.858429 -1.8561 0
M  V30 1770 H 164.261 3.33937 -1.9638 0
M  V30 1771 H 164.675 3.17918 -4.17167 0
M  V30 1772 H 166.149 4.54145 -3.13777 0
M  V30 1773 H 166.626 4.13081 -1.49199 0
M  V30 1774 H 167.232 3.15613 -2.85076 0
M  V30 1775 N 165.547 1.27147 0.931209 0
M  V30 1776 C 166.795 1.13055 1.6752 0
M  V30 1777 C 167.116 -0.324791 1.92276 0
M  V30 1778 O 166.386 -1.22775 1.52654 0
M  V30 1779 H 164.966 0.415391 0.620854 0
M  V30 1780 H 167.628 1.59623 1.11833 0
M  V30 1781 H 166.724 1.65694 2.64485 0
M  V30 1782 N 167.025 -1.13721 1.09112 0
M  V30 1783 C 168.441 -1.36914 0.820174 0
M  V30 1784 C 168.641 -1.93356 -0.567079 0
M  V30 1785 O 167.697 -2.15093 -1.32255 0
M  V30 1786 C 169.01 -2.3235 1.90877 0
M  V30 1787 C 170.558 -2.45973 1.93562 0
M  V30 1788 C 171.033 -3.44714 3.01556 0
M  V30 1789 N 172.524 -3.52263 3.00775 0
M  V30 1790 C 173.259 -4.28536 3.80978 0
M  V30 1791 N 172.755 -5.07991 4.71081 0
M  V30 1792 N 174.548 -4.23804 3.69251 0
M  V30 1793 H 166.699 -0.754348 1.98553 0
M  V30 1794 H 168.962 -0.3944 0.862063 0
M  V30 1795 H 168.668 -1.98027 2.90651 0
M  V30 1796 H 168.542 -3.32332 1.78424 0
M  V30 1797 H 170.929 -2.79584 0.944286 0
M  V30 1798 H 171.01 -1.45926 2.10093 0
M  V30 1799 H 170.654 -3.11835 4.00901 0
M  V30 1800 H 170.584 -4.44558 2.82269 0
M  V30 1801 H 173.075 -2.95567 2.35475 0
M  V30 1802 H 173.388 -5.63487 5.28869 0
M  V30 1803 H 171.733 -5.07235 4.75119 0
M  V30 1804 H 174.924 -3.60806 2.98222 0
M  V30 1805 H 175.097 -4.82995 4.31995 0
M  V30 1806 N 168.503 -0.877838 -1.30888 0
M  V30 1807 C 169.731 -0.507414 -2.00581 0
M  V30 1808 C 170.146 0.902216 -1.65848 0
M  V30 1809 O 169.503 1.59225 -0.891831 0
M  V30 1810 C 169.554 -0.664162 -3.55347 0
M  V30 1811 O 169.275 -2.01829 -3.8884 0
M  V30 1812 C 170.776 -0.295787 -4.42312 0
M  V30 1813 H 167.996 -0.196866 -0.641471 0
M  V30 1814 H 170.54 -1.18117 -1.66939 0
M  V30 1815 H 168.695 -0.0378619 -3.87381 0
M  V30 1816 H 169.109 -2.03174 -4.8355 0
M  V30 1817 H 170.583 -0.456388 -5.5011 0
M  V30 1818 H 171.06 0.765663 -4.32475 0
M  V30 1819 H 171.666 -0.898113 -4.15709 0
M  V30 1820 N 169.982 1.44106 -0.638065 0
M  V30 1821 C 171.228 2.02277 -0.145546 0
M  V30 1822 C 171.561 1.50125 1.23191 0
M  V30 1823 O 170.836 0.688133 1.8192 0
M  V30 1824 C 171.119 3.59829 -0.139791 0
M  V30 1825 C 170.972 4.22247 -1.55008 0
M  V30 1826 C 172.291 4.36873 0.531966 0
M  V30 1827 H 169.41 0.734992 -0.0543632 0
M  V30 1828 H 172.052 1.71592 -0.815863 0
M  V30 1829 H 170.202 3.86102 0.431007 0
M  V30 1830 H 171.874 4.07057 -2.1703 0
M  V30 1831 H 170.117 3.79476 -2.10191 0
M  V30 1832 H 170.788 5.31284 -1.49804 0
M  V30 1833 H 173.264 4.16074 0.0464781 0
M  V30 1834 H 172.14 5.4657 0.505206 0
M  V30 1835 H 172.401 4.11995 1.60352 0
M  V30 1836 N 171.46 0.379036 1.52974 0
M  V30 1837 C 172.708 -0.206014 2.01047 0
M  V30 1838 C 173.029 -1.48175 1.26765 0
M  V30 1839 O 172.299 -1.92085 0.384743 0
M  V30 1840 H 170.879 -0.0791184 0.742798 0
M  V30 1841 H 173.541 0.508366 1.88153 0
M  V30 1842 H 172.637 -0.423501 3.09213 0
M  V30 1843 N 172.938 -1.57226 0.108567 0
M  V30 1844 C 173.848 -2.18292 -0.859401 0
M  V30 1845 C 174.864 -1.15612 -1.30038 0
M  V30 1846 O 176.04 -1.48039 -1.36552 0
M  V30 1847 C 173.105 -2.762 -2.09558 0
M  V30 1848 C 172.166 -3.93881 -1.70752 0
M  V30 1849 C 171.399 -4.49018 -2.88477 0
M  V30 1850 O 171.622 -4.03068 -4.036 0
M  V30 1851 O 170.556 -5.39852 -2.66164 0
M  V30 1852 H 174.382 -3.01441 -0.369769 0
M  V30 1853 H 171.967 -1.48945 -0.1165 0
M  V30 1854 H 173.849 -3.13156 -2.81978 0
M  V30 1855 H 172.524 -1.96089 -2.57548 0
M  V30 1856 H 171.431 -3.61713 -0.954714 0
M  V30 1857 H 172.764 -4.75396 -1.27513 0
M  V30 1858 N 174.416 0.165178 -1.56732 0
M  V30 1859 C 175.693 0.908443 -1.73224 0
M  V30 1860 C 176.073 2.0013 -0.67165 0
M  V30 1861 O 175.421 2.26353 0.31253 0
M  V30 1862 C 175.631 1.46756 -3.16644 0
M  V30 1863 C 176.979 1.93809 -3.77787 0
M  V30 1864 O 178.003 1.56537 -3.1996 0
M  V30 1865 O 176.862 2.62486 -4.79336 0
M  V30 1866 H 173.956 0.428025 -0.707618 0
M  V30 1867 H 176.502 0.152526 -1.69013 0
M  V30 1868 H 175.274 0.68129 -3.85323 0
M  V30 1869 H 174.897 2.28749 -3.25207 0
M  V30 1870 N 175.894 1.51508 0.433938 0
M  V30 1871 C 177.305 1.56784 1.01369 0
M  V30 1872 C 177.656 0.393349 1.92217 0
M  V30 1873 O 176.781 -0.489441 2.10792 0
M  V30 1874 C 177.376 2.84144 1.8452 0
M  V30 1875 C 175.935 2.9198 2.37539 0
M  V30 1876 C 175.082 2.51482 1.16843 0
M  V30 1877 H 178.033 1.57236 0.215081 0
M  V30 1878 H 178.054 2.68098 2.70007 0
M  V30 1879 H 177.566 3.69607 1.18373 0
M  V30 1880 H 175.667 2.10955 3.0713 0
M  V30 1881 H 175.78 3.95704 2.70103 0
M  V30 1882 H 174.144 2.04758 1.51481 0
M  V30 1883 H 174.927 3.39293 0.523015 0
M  V30 1884 N 177.372 -0.689602 1.41712 0
M  V30 1885 C 178.304 -1.815 1.39966 0
M  V30 1886 C 179.317 -1.59995 0.300917 0
M  V30 1887 O 180.506 -1.69387 0.563039 0
M  V30 1888 C 177.606 -3.18364 1.16179 0
M  V30 1889 C 176.779 -3.66847 2.38206 0
M  V30 1890 C 175.838 -4.82398 2.10186 0
M  V30 1891 O 174.864 -4.93706 2.83272 0
M  V30 1892 N 176.066 -5.70064 1.0958 0
M  V30 1893 H 178.831 -1.83488 2.36965 0
M  V30 1894 H 176.392 -0.872149 1.36401 0
M  V30 1895 H 178.384 -3.93301 0.953756 0
M  V30 1896 H 176.954 -3.11365 0.27756 0
M  V30 1897 H 176.174 -2.82751 2.74673 0
M  V30 1898 H 177.462 -3.95978 3.19498 0
M  V30 1899 H 176.86 -5.63565 0.491019 0
M  V30 1900 H 175.417 -6.44874 0.947656 0
M  V30 1901 N 178.85 -1.27639 -0.924453 0
M  V30 1902 C 180.098 -1.13941 -1.66918 0
M  V30 1903 C 180.419 0.314589 -1.92446 0
M  V30 1904 O 179.689 1.21964 -1.53303 0
M  V30 1905 H 178.269 -0.418678 -0.618642 0
M  V30 1906 H 180.931 -1.60213 -1.10985 0
M  V30 1907 H 180.027 -1.67094 -2.63602 0
M  V30 1908 N 180.328 1.1314 -1.09713 0
M  V30 1909 C 181.258 2.20748 -0.761102 0
M  V30 1910 C 182.239 1.68061 0.262566 0
M  V30 1911 O 183.424 1.93765 0.129977 0
M  V30 1912 C 180.554 3.46812 -0.184054 0
M  V30 1913 C 179.508 4.12606 -1.13757 0
M  V30 1914 C 178.834 5.33031 -0.422083 0
M  V30 1915 C 180.134 4.59603 -2.48118 0
M  V30 1916 H 181.828 2.49113 -1.66082 0
M  V30 1917 H 179.374 1.19734 -0.799987 0
M  V30 1918 H 181.327 4.21353 0.0631215 0
M  V30 1919 H 180.051 3.17851 0.750868 0
M  V30 1920 H 178.71 3.40036 -1.37007 0
M  V30 1921 H 178.358 5.00335 0.517072 0
M  V30 1922 H 178.058 5.77999 -1.05788 0
M  V30 1923 H 179.582 6.10325 -0.183277 0
M  V30 1924 H 180.996 5.25552 -2.29059 0
M  V30 1925 H 179.393 5.15321 -3.07514 0
M  V30 1926 H 180.463 3.73971 -3.08665 0
M  V30 1927 N 181.806 0.884767 1.30421 0
M  V30 1928 C 183.053 0.503105 1.96151 0
M  V30 1929 C 183.381 -0.947676 1.69851 0
M  V30 1930 O 182.636 -1.68467 0.995861 0
M  V30 1931 C 182.935 0.724318 3.49983 0
M  V30 1932 C 182.601 2.15015 3.96332 0
M  V30 1933 C 181.263 2.54005 4.08699 0
M  V30 1934 C 183.615 3.07936 4.20505 0
M  V30 1935 C 180.943 3.85128 4.42599 0
M  V30 1936 C 183.295 4.3859 4.55874 0
M  V30 1937 C 181.959 4.77474 4.66449 0
M  V30 1938 H 181.229 0.184099 0.717766 0
M  V30 1939 H 183.876 1.12058 1.55291 0
M  V30 1940 H 182.181 0.0238086 3.91793 0
M  V30 1941 H 183.878 0.408617 3.98913 0
M  V30 1942 H 180.468 1.8375 3.87213 0
M  V30 1943 H 184.652 2.79033 4.10431 0
M  V30 1944 H 179.908 4.14996 4.48986 0
M  V30 1945 H 184.082 5.10629 4.7353 0
M  V30 1946 H 181.709 5.79115 4.92473 0
M  V30 1947 N 183.284 -1.43765 0.645699 0
M  V30 1948 C 184.216 -2.29027 -0.0890605 0
M  V30 1949 C 185.229 -1.42093 -0.794563 0
M  V30 1950 O 186.418 -1.66104 -0.653575 0
M  V30 1951 C 183.518 -3.18831 -1.14891 0
M  V30 1952 C 182.691 -4.34261 -0.523043 0
M  V30 1953 C 181.75 -5.04994 -1.47878 0
M  V30 1954 O 180.776 -5.6052 -0.990277 0
M  V30 1955 N 181.978 -5.07795 -2.81291 0
M  V30 1956 H 184.743 -2.92727 0.64272 0
M  V30 1957 H 182.304 -1.54373 0.487924 0
M  V30 1958 H 184.296 -3.63015 -1.78892 0
M  V30 1959 H 182.866 -2.56782 -1.78275 0
M  V30 1960 H 182.086 -3.93088 0.295896 0
M  V30 1961 H 183.374 -5.08728 -0.0858147 0
M  V30 1962 H 182.772 -4.64042 -3.23546 0
M  V30 1963 H 181.329 -5.55721 -3.40614 0
M  V30 1964 N 184.763 -0.387143 -1.52771 0
M  V30 1965 C 185.71 0.449048 -2.26389 0
M  V30 1966 C 186.68 1.05961 -1.27912 0
M  V30 1967 O 187.865 1.08804 -1.56737 0
M  V30 1968 C 185.005 1.57155 -3.0724 0
M  V30 1969 C 184.118 0.984066 -4.20643 0
M  V30 1970 C 183.253 2.07745 -4.88892 0
M  V30 1971 C 182.292 1.46574 -5.94292 0
M  V30 1972 N 181.429 2.49834 -6.56146 0
M  V30 1973 H 186.269 -0.185205 -2.97424 0
M  V30 1974 H 183.806 -0.103164 -1.46738 0
M  V30 1975 H 185.764 2.23309 -3.52405 0
M  V30 1976 H 184.394 2.17615 -2.38419 0
M  V30 1977 H 183.446 0.212193 -3.79808 0
M  V30 1978 H 184.758 0.497029 -4.96318 0
M  V30 1979 H 183.912 2.81673 -5.3735 0
M  V30 1980 H 182.651 2.59807 -4.12737 0
M  V30 1981 H 181.656 0.711696 -5.45174 0
M  V30 1982 H 182.881 0.953088 -6.72379 0
M  V30 1983 H 180.827 3.0107 -5.82832 0
M  V30 1984 H 180.744 2.05879 -7.27427 0
M  V30 1985 H 182.012 3.23399 -7.09249 0
M  V30 1986 N 186.241 1.57166 -0.116904 0
M  V30 1987 C 187.191 2.11756 0.845178 0
M  V30 1988 C 188.175 1.03783 1.22955 0
M  V30 1989 O 189.367 1.3002 1.20099 0
M  V30 1990 C 186.496 2.71886 2.09602 0
M  V30 1991 C 185.582 3.86937 1.7361 0
M  V30 1992 N 185.973 4.94073 1.08284 0
M  V30 1993 C 184.271 3.97082 2.03082 0
M  V30 1994 C 184.972 5.74477 0.913855 0
M  V30 1995 N 183.948 5.2423 1.43818 0
M  V30 1996 H 187.75 2.91967 0.336523 0
M  V30 1997 H 185.264 1.62174 0.0856332 0
M  V30 1998 H 187.261 3.09338 2.79492 0
M  V30 1999 H 185.921 1.93138 2.61013 0
M  V30 2000 H 186.932 5.12483 0.747067 0
M  V30 2001 H 183.609 3.29372 2.56554 0
M  V30 2002 H 184.999 6.70701 0.40125 0
M  V30 2003 N 187.719 -0.156864 1.56817 0
M  V30 2004 C 189.135 -0.50916 1.5126 0
M  V30 2005 C 189.335 -1.83897 0.823658 0
M  V30 2006 O 188.391 -2.49469 0.390055 0
M  V30 2007 C 189.704 -0.52857 2.96018 0
M  V30 2008 C 191.252 -0.614771 3.06903 0
M  V30 2009 C 191.727 -0.664938 4.53147 0
M  V30 2010 N 193.218 -0.727433 4.57452 0
M  V30 2011 C 193.953 -0.787067 5.67973 0
M  V30 2012 N 193.449 -0.806649 6.88088 0
M  V30 2013 N 195.242 -0.827195 5.5598 0
M  V30 2014 H 187.393 0.714935 2.00006 0
M  V30 2015 H 189.656 0.259526 0.911784 0
M  V30 2016 H 189.362 0.380154 3.49639 0
M  V30 2017 H 189.236 -1.36998 3.51442 0
M  V30 2018 H 191.623 -1.51392 2.53307 0
M  V30 2019 H 191.704 0.253597 2.5454 0
M  V30 2020 H 191.348 0.230011 5.07379 0
M  V30 2021 H 191.278 -1.54966 5.03282 0
M  V30 2022 H 193.769 -0.719998 3.70978 0
M  V30 2023 H 194.082 -0.853727 7.6807 0
M  V30 2024 H 192.427 -0.774687 6.90669 0
M  V30 2025 H 195.618 -0.808998 4.61056 0
M  V30 2026 H 195.791 -0.870206 6.4213 0
M  V30 2027 N 189.197 -1.51736 -0.425897 0
M  V30 2028 C 190.107 -1.76738 -1.54275 0
M  V30 2029 C 191.123 -0.65211 -1.61318 0
M  V30 2030 O 192.299 -0.935654 -1.78346 0
M  V30 2031 C 189.364 -1.89755 -2.90162 0
M  V30 2032 C 188.425 -3.13633 -2.93143 0
M  V30 2033 C 187.658 -3.2602 -4.22548 0
M  V30 2034 O 187.881 -2.44067 -5.15546 0
M  V30 2035 O 186.815 -4.19071 -4.32046 0
M  V30 2036 H 190.641 -2.71502 -1.36089 0
M  V30 2037 H 188.226 -1.36376 -0.610069 0
M  V30 2038 H 190.108 -2.00236 -3.70788 0
M  V30 2039 H 188.783 -0.981785 -3.08452 0
M  V30 2040 H 187.69 -3.08622 -2.11431 0
M  V30 2041 H 189.023 -4.04936 -2.798 0
M  V30 2042 N 190.675 0.682077 -1.42076 0
M  V30 2043 C 191.585 1.82535 -1.47371 0
M  V30 2044 C 192.601 1.7017 -0.363079 0
M  V30 2045 O 193.777 1.91848 -0.612875 0
M  V30 2046 C 190.842 3.18624 -1.36674 0
M  V30 2047 C 189.903 3.42999 -2.58167 0
M  V30 2048 C 189.136 4.72595 -2.4797 0
M  V30 2049 O 189.359 5.50006 -1.5116 0
M  V30 2050 O 188.293 4.98054 -3.37974 0
M  V30 2051 H 192.119 1.81023 -2.43853 0
M  V30 2052 H 189.704 0.836887 -1.2376 0
M  V30 2053 H 191.586 3.99847 -1.33043 0
M  V30 2054 H 190.261 3.20789 -0.433138 0
M  V30 2055 H 189.168 2.61653 -2.67373 0
M  V30 2056 H 190.501 3.45659 -3.50401 0
M  V30 2057 N 192.153 1.28127 0.917671 0
M  V30 2058 C 193.063 1.13556 2.05286 0
M  V30 2059 C 194.079 0.0630914 1.73886 0
M  V30 2060 O 195.255 0.271598 1.9956 0
M  V30 2061 C 192.32 0.794676 3.3747 0
M  V30 2062 C 191.381 1.94909 3.82504 0
M  V30 2063 C 190.614 1.62437 5.0838 0
M  V30 2064 O 190.837 0.536905 5.67867 0
M  V30 2065 O 189.771 2.46677 5.4903 0
M  V30 2066 H 193.597 2.08844 2.20495 0
M  V30 2067 H 191.182 1.07409 1.03845 0
M  V30 2068 H 193.064 0.618344 4.16839 0
M  V30 2069 H 191.739 -0.128581 3.23445 0
M  V30 2070 H 190.646 2.18055 3.03978 0
M  V30 2071 H 191.979 2.85291 4.01086 0
M  V30 2072 N 193.631 -1.12557 1.10312 0
M  V30 2073 C 194.561 -2.20341 0.772798 0
M  V30 2074 C 195.542 -1.68198 -0.25365 0
M  V30 2075 O 196.727 -1.93831 -0.119699 0
M  V30 2076 C 193.857 -3.46709 0.202443 0
M  V30 2077 C 192.811 -4.11996 1.15943 0
M  V30 2078 C 192.137 -5.328 0.450345 0
M  V30 2079 C 193.437 -4.5828 2.50552 0
M  V30 2080 H 195.131 -2.48229 1.674 0
M  V30 2081 H 192.677 -1.19308 0.806326 0
M  V30 2082 H 194.63 -4.2138 -0.0407752 0
M  V30 2083 H 193.354 -3.18245 -0.734001 0
M  V30 2084 H 192.013 -3.39305 1.38808 0
M  V30 2085 H 191.661 -5.00602 -0.490531 0
M  V30 2086 H 191.361 -5.7743 1.08851 0
M  V30 2087 H 192.885 -6.10219 0.215642 0
M  V30 2088 H 194.299 -5.2433 2.31843 0
M  V30 2089 H 192.696 -5.13683 3.10242 0
M  V30 2090 H 193.766 -3.72329 3.10643 0
M  V30 2091 N 195.109 -0.891671 -1.2995 0
M  V30 2092 C 196.019 -0.367691 -2.31701 0
M  V30 2093 C 197.035 0.533486 -1.6562 0
M  V30 2094 O 198.211 0.424997 -1.96865 0
M  V30 2095 C 195.276 0.403406 -3.44345 0
M  V30 2096 C 194.337 -0.528328 -4.26037 0
M  V30 2097 C 193.57 0.206063 -5.33302 0
M  V30 2098 O 193.793 1.43119 -5.52153 0
M  V30 2099 O 192.727 -0.447281 -6.00236 0
M  V30 2100 H 196.553 -1.21163 -2.78484 0
M  V30 2101 H 194.138 -0.655725 -1.34241 0
M  V30 2102 H 196.02 0.839753 -4.12948 0
M  V30 2103 H 194.695 1.22354 -2.99685 0
M  V30 2104 H 193.602 -1.01362 -3.60106 0
M  V30 2105 H 194.935 -1.31465 -4.74318 0
M  V30 2106 N 196.587 1.43421 -0.653314 0
M  V30 2107 C 197.497 2.34568 0.0388565 0
M  V30 2108 C 198.513 1.53888 0.81207 0
M  V30 2109 O 199.689 1.86539 0.759294 0
M  V30 2110 C 196.754 3.32167 0.993269 0
M  V30 2111 C 195.815 4.28751 0.216977 0
M  V30 2112 C 195.048 5.21688 1.12593 0
M  V30 2113 O 195.271 5.19052 2.36519 0
M  V30 2114 O 194.205 5.98919 0.598284 0
M  V30 2115 H 198.031 2.95251 -0.711386 0
M  V30 2116 H 195.616 1.43564 -0.413502 0
M  V30 2117 H 197.498 3.92183 1.54176 0
M  V30 2118 H 196.173 2.73987 1.72374 0
M  V30 2119 H 195.08 3.72215 -0.375101 0
M  V30 2120 H 196.413 4.89913 -0.473924 0
M  V30 2121 N 198.065 0.39524 1.52563 0
M  V30 2122 C 199.481 0.0454682 1.59535 0
M  V30 2123 C 199.681 -1.44056 1.4089 0
M  V30 2124 O 198.737 -2.20579 1.22888 0
M  V30 2125 C 200.05 0.527963 2.96029 0
M  V30 2126 C 201.598 0.484733 3.09224 0
M  V30 2127 C 202.073 0.943512 4.48176 0
M  V30 2128 N 203.564 0.899765 4.54377 0
M  V30 2129 C 204.299 1.22609 5.60138 0
M  V30 2130 N 203.795 1.62319 6.73516 0
M  V30 2131 N 205.588 1.14696 5.50274 0
M  V30 2132 H 197.739 1.36261 1.62931 0
M  V30 2133 H 200.002 0.558887 0.765735 0
M  V30 2134 H 199.708 1.56607 3.14908 0
M  V30 2135 H 199.582 -0.0698056 3.77135 0
M  V30 2136 H 201.969 -0.544298 2.90037 0
M  V30 2137 H 202.05 1.11838 2.30056 0
M  V30 2138 H 201.694 1.9708 4.68104 0
M  V30 2139 H 201.624 0.286817 5.25818 0
M  V30 2140 H 204.115 0.607632 3.72983 0
M  V30 2141 H 204.428 1.85567 7.5019 0
M  V30 2142 H 202.773 1.66211 6.74833 0
M  V30 2143 H 205.964 0.835701 4.6058 0
M  V30 2144 H 206.137 1.40459 6.32594 0
M  V30 2145 N 199.544 -1.57102 0.125237 0
M  V30 2146 C 200.96 -1.57915 -0.231322 0
M  V30 2147 C 201.16 -1.13833 -1.66266 0
M  V30 2148 O 200.216 -0.828581 -2.38518 0
M  V30 2149 C 201.529 -3.00699 0.00766489 0
M  V30 2150 C 203.077 -3.12947 -0.0577483 0
M  V30 2151 C 203.552 -4.57742 0.153626 0
M  V30 2152 N 205.043 -4.63092 0.0998073 0
M  V30 2153 C 205.778 -5.72905 0.238174 0
M  V30 2154 N 205.274 -6.91445 0.433057 0
M  V30 2155 N 207.067 -5.6182 0.177308 0
M  V30 2156 H 199.218 -1.84055 1.06007 0
M  V30 2157 H 201.481 -0.850905 0.417929 0
M  V30 2158 H 201.187 -3.3726 0.997431 0
M  V30 2159 H 201.061 -3.70236 -0.721452 0
M  V30 2160 H 203.448 -2.7624 -1.03804 0
M  V30 2161 H 203.529 -2.4594 0.70335 0
M  V30 2162 H 203.173 -4.95149 1.13092 0
M  V30 2163 H 203.103 -5.22848 -0.627534 0
M  V30 2164 H 205.594 -3.77871 -0.047051 0
M  V30 2165 H 205.907 -7.70985 0.529332 0
M  V30 2166 H 204.252 -6.93415 0.469109 0
M  V30 2167 H 207.443 -4.68093 0.0259748 0
M  V30 2168 H 207.616 -6.47357 0.288582 0
M  V30 2169 N 201.022 0.148545 -1.56898 0
M  V30 2170 C 201.969 1.18345 -1.98149 0
M  V30 2171 C 202.939 1.42772 -0.848848 0
M  V30 2172 O 204.124 1.55132 -1.11079 0
M  V30 2173 C 201.264 2.51231 -2.36594 0
M  V30 2174 C 200.377 2.33991 -3.63142 0
M  V30 2175 C 199.512 3.59902 -3.90697 0
M  V30 2176 C 198.551 3.37692 -5.1052 0
M  V30 2177 N 197.688 4.5573 -5.34092 0
M  V30 2178 H 202.528 0.82467 -2.86362 0
M  V30 2179 H 200.065 0.395756 -1.41676 0
M  V30 2180 H 202.023 3.28713 -2.56912 0
M  V30 2181 H 200.653 2.85059 -1.51463 0
M  V30 2182 H 199.705 1.47572 -3.50609 0
M  V30 2183 H 201.017 2.13539 -4.5078 0
M  V30 2184 H 200.171 4.45813 -4.11505 0
M  V30 2185 H 198.91 3.83357 -3.01477 0
M  V30 2186 H 197.915 2.5017 -4.89587 0
M  V30 2187 H 199.14 3.15637 -6.0129 0
M  V30 2188 H 197.086 4.79361 -4.47827 0
M  V30 2189 H 197.003 4.38274 -6.15996 0
M  V30 2190 H 198.271 5.42858 -5.59397 0
M  V30 2191 N 202.5 1.5196 0.417844 0
M  V30 2192 C 203.43 1.77634 1.51554 0
M  V30 2193 C 204.411 0.626918 1.58126 0
M  V30 2194 O 205.596 0.871632 1.7354 0
M  V30 2195 C 202.726 1.91911 2.8946 0
M  V30 2196 C 201.68 3.07463 2.97743 0
M  V30 2197 C 201.006 3.06951 4.37819 0
M  V30 2198 C 202.306 4.47082 2.70027 0
M  V30 2199 H 204 2.6955 1.3032 0
M  V30 2200 H 201.546 1.29706 0.625492 0
M  V30 2201 H 203.499 2.08455 3.6623 0
M  V30 2202 H 202.223 0.966598 3.11969 0
M  V30 2203 H 200.882 2.90656 2.23416 0
M  V30 2204 H 200.53 2.09438 4.57323 0
M  V30 2205 H 200.23 3.84556 4.44286 0
M  V30 2206 H 201.754 3.25613 5.16535 0
M  V30 2207 H 203.168 4.6414 3.36522 0
M  V30 2208 H 201.565 5.2654 2.87881 0
M  V30 2209 H 202.635 4.55777 1.65514 0
M  V30 2210 N 203.978 -0.674533 1.42435 0
M  V30 2211 C 205.208 -1.46071 1.46105 0
M  V30 2212 C 205.616 -1.89067 0.0709605 0
M  V30 2213 O 204.959 -1.58731 -0.924677 0
M  V30 2214 C 205.021 -2.74145 2.32561 0
M  V30 2215 C 204.685 -2.53224 3.8043 0
M  V30 2216 C 205.682 -2.17809 4.72075 0
M  V30 2217 C 203.367 -2.6821 4.24698 0
M  V30 2218 C 205.361 -1.97648 6.05982 0
M  V30 2219 C 203.048 -2.47665 5.58664 0
M  V30 2220 C 204.046 -2.12437 6.49122 0
M  V30 2221 O 203.734 -1.9209 7.80613 0
M  V30 2222 H 203.466 -0.455959 0.499076 0
M  V30 2223 H 206.02 -0.836193 1.87609 0
M  V30 2224 H 204.25 -3.3908 1.85908 0
M  V30 2225 H 205.939 -3.36028 2.27683 0
M  V30 2226 H 206.705 -2.05826 4.39159 0
M  V30 2227 H 202.584 -2.94609 3.54579 0
M  V30 2228 H 206.128 -1.70075 6.7655 0
M  V30 2229 H 202.025 -2.59244 5.91154 0
M  V30 2230 H 202.793 -2.06686 7.91974 0
M  V30 2231 N 205.456 -1.28612 -0.910864 0
M  V30 2232 C 206.872 -1.06381 -1.18976 0
M  V30 2233 C 207.072 0.191998 -2.00583 0
M  V30 2234 O 206.128 0.892869 -2.36187 0
M  V30 2235 C 207.441 -2.31295 -1.92154 0
M  V30 2236 C 208.989 -2.36503 -2.05025 0
M  V30 2237 C 209.464 -3.61191 -2.81612 0
M  V30 2238 N 210.955 -3.61847 -2.89172 0
M  V30 2239 C 211.69 -4.55004 -3.4894 0
M  V30 2240 N 211.186 -5.58482 -4.09963 0
M  V30 2241 N 212.979 -4.42594 -3.46506 0
M  V30 2242 H 205.13 -2.09221 -0.366094 0
M  V30 2243 H 207.393 -0.921003 -0.224629 0
M  V30 2244 H 207.099 -3.228 -1.39618 0
M  V30 2245 H 206.973 -2.37934 -2.9269 0
M  V30 2246 H 209.36 -1.45494 -2.5674 0
M  V30 2247 H 209.441 -2.33857 -1.03657 0
M  V30 2248 H 209.085 -4.52545 -2.30576 0
M  V30 2249 H 209.015 -3.61092 -3.83302 0
M  V30 2250 H 211.506 -2.87022 -2.45819 0
M  V30 2251 H 211.819 -6.25704 -4.53557 0
M  V30 2252 H 210.164 -5.62305 -4.08459 0
M  V30 2253 H 213.355 -3.60953 -2.98045 0
M  V30 2254 H 213.528 -5.15381 -3.92793 0
M  V30 2255 N 206.934 1.1197 -1.10907 0
M  V30 2256 C 208.18 1.84059 -0.865674 0
M  V30 2257 C 208.535 1.82731 0.602254 0
M  V30 2258 O 207.828 1.26543 1.43866 0
M  V30 2259 C 208.022 3.30749 -1.35425 0
M  V30 2260 C 207.851 3.46363 -2.86815 0
M  V30 2261 C 206.621 3.59712 -3.54874 0
M  V30 2262 C 208.819 3.41116 -3.84895 0
M  V30 2263 N 206.801 3.63741 -4.94536 0
M  V30 2264 C 208.172 3.51698 -5.10596 0
M  V30 2265 C 210.227 3.24612 -3.77533 0
M  V30 2266 C 208.93 3.4748 -6.29802 0
M  V30 2267 C 210.956 3.21708 -4.96244 0
M  V30 2268 C 210.318 3.32856 -6.20795 0
M  V30 2269 H 206.417 0.689015 -0.369841 0
M  V30 2270 H 209.001 1.34016 -1.41237 0
M  V30 2271 H 207.172 3.79322 -0.834814 0
M  V30 2272 H 208.904 3.90718 -1.05458 0
M  V30 2273 H 205.659 3.62038 -3.05329 0
M  V30 2274 H 206.083 3.69408 -5.67333 0
M  V30 2275 H 210.725 3.14883 -2.8215 0
M  V30 2276 H 208.443 3.55978 -7.25469 0
M  V30 2277 H 212.029 3.10113 -4.92261 0
M  V30 2278 H 210.909 3.3059 -7.11112 0
M  V30 2279 N 208.412 0.89855 1.29475 0
M  V30 2280 C 209.66 0.522847 1.9522 0
M  V30 2281 C 209.981 -0.93371 1.71192 0
M  V30 2282 O 209.251 -1.65823 1.04305 0
M  V30 2283 H 207.831 0.190366 0.722336 0
M  V30 2284 H 210.493 1.14459 1.5775 0
M  V30 2285 H 209.589 0.704476 3.04045 0
M  V30 2286 N 209.89 -1.43072 0.660911 0
M  V30 2287 C 210.838 -2.32569 -0.0378199 0
M  V30 2288 C 211.832 -1.49046 -0.805092 0
M  V30 2289 O 213.038 -1.65206 -0.714624 0
M  V30 2290 H 209.413 -0.75136 -0.031019 0
M  V30 2291 H 211.384 -2.89216 0.734609 0
M  V30 2292 C 210.133 -3.33453 -0.985124 0
M  V30 2293 H 209.456 -3.97752 -0.404147 0
M  V30 2294 H 210.896 -3.98691 -1.44297 0
M  V30 2295 C 209.355 -2.64642 -2.08486 0
M  V30 2296 O 209.885 -2.46776 -3.16961 0
M  V30 2297 N 208.091 -2.23891 -1.8526 0
M  V30 2298 H 207.638 -2.38621 -0.970449 0
M  V30 2299 H 207.596 -1.78181 -2.59034 0
M  V30 2300 N 211.368 -0.403325 -1.52352 0
M  V30 2301 C 212.614 0.167015 -2.02713 0
M  V30 2302 C 212.969 1.43296 -1.28391 0
M  V30 2303 O 212.262 1.87796 -0.379885 0
M  V30 2304 C 212.456 0.474665 -3.54234 0
M  V30 2305 C 212.285 -0.759909 -4.43233 0
M  V30 2306 C 211.055 -1.28338 -4.88731 0
M  V30 2307 C 213.253 -1.63634 -4.87574 0
M  V30 2308 N 211.235 -2.47404 -5.6184 0
M  V30 2309 C 212.606 -2.67329 -5.59406 0
M  V30 2310 C 214.661 -1.65478 -4.69597 0
M  V30 2311 C 213.364 -3.72773 -6.15169 0
M  V30 2312 C 215.39 -2.69837 -5.26253 0
M  V30 2313 C 214.752 -3.72253 -5.98002 0
M  V30 2314 H 210.851 0.0228343 -0.781667 0
M  V30 2315 H 213.435 -0.556368 -1.86581 0
M  V30 2316 H 211.606 1.16709 -3.7045 0
M  V30 2317 H 213.338 1.03338 -3.91284 0
M  V30 2318 H 210.093 -0.842273 -4.6605 0
M  V30 2319 H 210.517 -3.07688 -6.0304 0
M  V30 2320 H 215.159 -0.876389 -4.13617 0
M  V30 2321 H 212.877 -4.51471 -6.70223 0
M  V30 2322 H 216.463 -2.72164 -5.14216 0
M  V30 2323 H 215.343 -4.51679 -6.41058 0
M  V30 2324 N 212.846 1.57033 -0.133567 0
M  V30 2325 C 213.793 2.16074 0.811208 0
M  V30 2326 C 214.763 1.08979 1.2535 0
M  V30 2327 O 215.948 1.36958 1.32843 0
M  V30 2328 C 213.088 2.77595 2.05024 0
M  V30 2329 C 212.201 3.99042 1.65498 0
M  V30 2330 C 211.336 4.48603 2.84479 0
M  V30 2331 C 210.375 5.62547 2.41262 0
M  V30 2332 N 209.512 6.06787 3.53206 0
M  V30 2333 H 214.352 2.96477 0.300906 0
M  V30 2334 H 211.889 1.46462 0.136822 0
M  V30 2335 H 213.847 3.11402 2.77642 0
M  V30 2336 H 212.477 1.99859 2.53488 0
M  V30 2337 H 211.529 3.71302 0.826981 0
M  V30 2338 H 212.841 4.81629 1.29748 0
M  V30 2339 H 211.995 4.84395 3.65303 0
M  V30 2340 H 210.734 3.64995 3.23465 0
M  V30 2341 H 209.739 5.26345 1.58874 0
M  V30 2342 H 210.964 6.47931 2.03377 0
M  V30 2343 H 208.91 5.26117 3.91838 0
M  V30 2344 H 208.827 6.84266 3.21427 0
M  V30 2345 H 210.095 6.4722 4.34427 0
M  V30 2346 N 214.325 -0.140222 1.56975 0
M  V30 2347 C 215.602 -0.880769 1.74648 0
M  V30 2348 C 215.982 -1.99036 0.703404 0
M  V30 2349 O 215.33 -2.26821 -0.27648 0
M  V30 2350 C 215.54 -1.417 3.18939 0
M  V30 2351 C 216.888 -1.87774 3.80823 0
M  V30 2352 O 217.912 -1.51427 3.2241 0
M  V30 2353 O 216.771 -2.54827 4.83452 0
M  V30 2354 H 213.865 -0.416713 0.714338 0
M  V30 2355 H 216.411 -0.125618 1.69234 0
M  V30 2356 H 215.183 -0.619902 3.86359 0
M  V30 2357 H 214.806 -2.23546 3.28805 0
M  V30 2358 N 215.803 -1.52179 -0.40978 0
M  V30 2359 C 217.051 -1.65878 -1.15451 0
M  V30 2360 C 217.372 -0.390771 -1.91044 0
M  V30 2361 O 216.642 0.594323 -1.86667 0
M  V30 2362 H 215.222 -0.611405 -0.429177 0
M  V30 2363 H 217.884 -1.89219 -0.467134 0
M  V30 2364 H 216.98 -2.49954 -1.86894 0
M  V30 2365 N 217.281 0.66697 -1.42791 0
M  V30 2366 C 218.211 1.79218 -1.49677 0
M  V30 2367 C 219.192 1.66405 -0.352623 0
M  V30 2368 O 220.377 1.85708 -0.567993 0
M  V30 2369 C 217.507 3.17565 -1.40605 0
M  V30 2370 C 216.461 3.45124 -2.53127 0
M  V30 2371 C 215.787 4.83127 -2.29112 0
M  V30 2372 C 217.087 3.41236 -3.95418 0
M  V30 2373 H 218.781 1.73713 -2.43853 0
M  V30 2374 H 216.327 0.83432 -1.17367 0
M  V30 2375 H 218.28 3.96022 -1.44029 0
M  V30 2376 H 217.004 3.23767 -0.429271 0
M  V30 2377 H 215.663 2.69031 -2.49034 0
M  V30 2378 H 215.311 4.85988 -1.29709 0
M  V30 2379 H 215.011 5.02528 -3.04531 0
M  V30 2380 H 216.535 5.63859 -2.34297 0
M  V30 2381 H 217.949 4.09651 -4.01073 0
M  V30 2382 H 216.346 3.72173 -4.70752 0
M  V30 2383 H 217.416 2.39665 -4.21532 0
M  V30 2384 N 218.759 1.29093 0.90403 0
M  V30 2385 C 220.008 1.16187 1.64874 0
M  V30 2386 C 220.321 -0.286742 1.93487 0
M  V30 2387 O 221.527 -0.537062 2.66135 0
M  V30 2388 C 219.983 2.03177 2.97064 0
M  V30 2389 C 219.591 3.52836 2.76062 0
M  V30 2390 C 221.335 1.98984 3.74974 0
M  V30 2391 C 219.242 4.31945 4.03952 0
M  V30 2392 H 218.172 0.431246 0.618501 0
M  V30 2393 H 220.823 1.53699 1.00243 0
M  V30 2394 H 219.205 1.5853 3.62883 0
M  V30 2395 H 220.379 4.05507 2.18863 0
M  V30 2396 H 218.694 3.58656 2.11553 0
M  V30 2397 H 221.291 2.55351 4.69787 0
M  V30 2398 H 221.634 0.968815 4.0487 0
M  V30 2399 H 222.167 2.41652 3.15989 0
M  V30 2400 H 218.906 5.34667 3.79225 0
M  V30 2401 H 218.426 3.84045 4.60727 0
M  V30 2402 H 220.105 4.42379 4.72133 0
M  V30 2403 N 220.237 -1.11381 1.11499 0
M  V30 2404 C 221.167 -2.19509 0.796125 0
M  V30 2405 C 222.148 -1.68458 -0.235796 0
M  V30 2406 O 223.333 -1.93947 -0.0991344 0
M  V30 2407 C 220.463 -3.46475 0.239205 0
M  V30 2408 C 219.417 -4.10744 1.20307 0
M  V30 2409 C 218.743 -5.32293 0.50683 0
M  V30 2410 C 220.043 -4.55597 2.55399 0
M  V30 2411 H 221.737 -2.46439 1.70024 0
M  V30 2412 H 219.283 -1.18446 0.818935 0
M  V30 2413 H 221.236 -4.214 0.00392006 0
M  V30 2414 H 219.96 -3.19006 -0.700206 0
M  V30 2415 H 218.619 -3.37813 1.42399 0
M  V30 2416 H 218.267 -5.01095 -0.437408 0
M  V30 2417 H 217.967 -5.76243 1.1497 0
M  V30 2418 H 219.491 -6.09956 0.280351 0
M  V30 2419 H 220.905 -5.21841 2.37391 0
M  V30 2420 H 219.302 -5.10363 3.15673 0
M  V30 2421 H 220.372 -3.69013 3.14575 0
M  V30 2422 N 221.715 -0.905404 -1.28997 0
M  V30 2423 C 222.663 -0.377431 -2.29517 0
M  V30 2424 C 223.657 0.526461 -1.61012 0
M  V30 2425 O 224.863 0.40863 -1.753 0
M  V30 2426 H 221.238 -0.103437 -0.744852 0
M  V30 2427 H 223.209 -1.23848 -2.71485 0
M  V30 2428 C 221.958 0.374833 -3.45674 0
M  V30 2429 H 221.281 -0.311474 -3.98585 0
M  V30 2430 H 222.721 0.70903 -4.1803 0
M  V30 2431 C 221.18 1.57963 -2.97572 0
M  V30 2432 O 221.71 2.67886 -2.99333 0
M  V30 2433 N 219.916 1.42375 -2.53333 0
M  V30 2434 H 219.463 0.529466 -2.521 0
M  V30 2435 H 219.421 2.23117 -2.21509 0
M  V30 2436 N 223.193 1.4272 -0.668489 0
M  V30 2437 C 224.126 2.28111 0.0637898 0
M  V30 2438 C 225.104 1.40705 0.814912 0
M  V30 2439 O 226.288 1.70146 0.81134 0
M  V30 2440 C 223.415 3.20429 1.0974 0
M  V30 2441 C 222.461 4.24197 0.442579 0
M  V30 2442 S 223.294 5.29563 -0.795173 0
M  V30 2443 C 224.45 6.25449 0.237516 0
M  V30 2444 H 224.683 2.8987 -0.660521 0
M  V30 2445 H 222.216 1.47456 -0.457821 0
M  V30 2446 H 224.174 3.74158 1.68868 0
M  V30 2447 H 222.835 2.57818 1.79411 0
M  V30 2448 H 222.028 4.88954 1.22227 0
M  V30 2449 H 221.63 3.73925 -0.0749554 0
M  V30 2450 H 223.922 6.68524 1.09915 0
M  V30 2451 H 224.865 7.07104 -0.375421 0
M  V30 2452 H 225.273 5.61511 0.580167 0
M  V30 2453 N 224.671 0.411399 1.52136 0
M  V30 2454 C 225.634 -0.401089 2.25663 0
M  V30 2455 C 226.634 -0.971732 1.28117 0
M  V30 2456 O 227.824 -0.850254 1.52041 0
M  V30 2457 C 224.956 -1.56483 3.02863 0
M  V30 2458 H 226.149 0.24295 2.98914 0
M  V30 2459 H 223.702 0.163968 1.55438 0
M  V30 2460 H 224.437 -2.24567 2.33967 0
M  V30 2461 H 224.222 -1.16211 3.74483 0
M  V30 2462 H 225.712 -2.13951 3.58629 0
M  V30 2463 N 226.149 -1.5696 0.141893 0
M  V30 2464 C 227.397 -1.95573 -0.509484 0
M  V30 2465 C 227.718 -1.02746 -1.65736 0
M  V30 2466 O 226.988 -0.0880311 -1.95702 0
M  V30 2467 H 225.568 -0.722115 -0.191205 0
M  V30 2468 H 228.23 -1.93697 0.216196 0
M  V30 2469 H 227.326 -2.99171 -0.889 0
M  V30 2470 N 227.627 0.131896 -1.57047 0
M  V30 2471 C 228.59 1.14638 -1.98471 0
M  V30 2472 C 229.59 1.35029 -0.873148 0
M  V30 2473 O 230.78 1.31764 -1.13946 0
M  V30 2474 C 227.912 2.50358 -2.31373 0
M  V30 2475 H 229.105 0.79064 -2.8929 0
M  V30 2476 H 226.658 0.375761 -1.51716 0
M  V30 2477 H 227.393 2.90876 -1.43393 0
M  V30 2478 H 227.178 2.36915 -3.12432 0
M  V30 2479 H 228.668 3.23395 -2.64207 0
M  V30 2480 N 229.106 1.52395 0.401703 0
M  V30 2481 C 230.053 1.76268 1.48991 0
M  V30 2482 C 231.023 0.605386 1.54675 0
M  V30 2483 O 232.208 0.843742 1.7113 0
M  V30 2484 C 229.348 1.92592 2.86361 0
M  V30 2485 C 228.461 3.20259 2.89928 0
M  V30 2486 C 227.596 3.26972 4.18644 0
M  V30 2487 C 226.635 4.48812 4.16214 0
M  V30 2488 N 225.772 4.52877 5.36514 0
M  V30 2489 H 230.612 2.6914 1.27935 0
M  V30 2490 H 228.149 1.33355 0.620871 0
M  V30 2491 H 230.107 2.0004 3.66115 0
M  V30 2492 H 228.737 1.03093 3.05895 0
M  V30 2493 H 227.789 3.21945 2.02621 0
M  V30 2494 H 229.101 4.10056 2.83999 0
M  V30 2495 H 228.255 3.33533 5.06794 0
M  V30 2496 H 226.994 2.35126 4.27278 0
M  V30 2497 H 225.999 4.4239 3.26453 0
M  V30 2498 H 227.224 5.41961 4.09213 0
M  V30 2499 H 225.17 3.63917 5.45802 0
M  V30 2500 H 225.087 5.36529 5.32609 0
M  V30 2501 H 226.355 4.63676 6.26597 0
M  V30 2502 N 230.584 -0.659388 1.43143 0
M  V30 2503 C 231.514 -1.78422 1.50625 0
M  V30 2504 C 232.495 -1.66216 0.361443 0
M  V30 2505 O 233.68 -1.85404 0.577834 0
M  V30 2506 C 230.81 -3.16815 1.42287 0
M  V30 2507 C 229.764 -3.43777 2.54954 0
M  V30 2508 C 229.09 -4.81905 2.31671 0
M  V30 2509 C 230.39 -3.39134 3.97222 0
M  V30 2510 H 232.084 -1.72417 2.44771 0
M  V30 2511 H 229.63 -0.828084 1.17808 0
M  V30 2512 H 231.583 -3.95253 1.46127 0
M  V30 2513 H 230.307 -3.23534 0.446435 0
M  V30 2514 H 228.966 -2.67707 2.50457 0
M  V30 2515 H 228.614 -4.85294 1.32284 0
M  V30 2516 H 228.314 -5.00906 3.07192 0
M  V30 2517 H 229.838 -5.62609 2.37284 0
M  V30 2518 H 231.252 -4.07518 4.03239 0
M  V30 2519 H 229.649 -3.69671 4.72719 0
M  V30 2520 H 230.719 -2.37426 4.22797 0
M  V30 2521 N 232.062 -1.29571 -0.897171 0
M  V30 2522 C 233.292 -1.20408 -1.67886 0
M  V30 2523 C 233.7 0.237429 -1.87704 0
M  V30 2524 O 233.043 1.17048 -1.41582 0
M  V30 2525 C 233.105 -1.84887 -3.08314 0
M  V30 2526 C 232.769 -3.34189 -3.11716 0
M  V30 2527 C 233.766 -4.30374 -2.91675 0
M  V30 2528 C 231.451 -3.75431 -3.33701 0
M  V30 2529 C 233.445 -5.65776 -2.93557 0
M  V30 2530 C 231.132 -5.10955 -3.35214 0
M  V30 2531 C 232.13 -6.05938 -3.15164 0
M  V30 2532 O 231.818 -7.38987 -3.1647 0
M  V30 2533 H 231.55 -0.418289 -0.531046 0
M  V30 2534 H 234.104 -1.71514 -1.13014 0
M  V30 2535 H 232.334 -1.28295 -3.64798 0
M  V30 2536 H 234.023 -1.70011 -3.6858 0
M  V30 2537 H 234.789 -3.99844 -2.74499 0
M  V30 2538 H 230.668 -3.01953 -3.48347 0
M  V30 2539 H 234.212 -6.39889 -2.77826 0
M  V30 2540 H 230.109 -5.4113 -3.51922 0
M  V30 2541 H 230.877 -7.47823 -3.3272 0
M  V30 2542 N 233.54 1.10788 -1.12088 0
M  V30 2543 C 234.817 1.79136 -0.785476 0
M  V30 2544 C 235.197 1.98246 0.725377 0
M  V30 2545 O 234.545 1.57258 1.65778 0
M  V30 2546 C 234.755 3.12375 -1.55636 0
M  V30 2547 C 236.103 3.8731 -1.74001 0
M  V30 2548 O 237.127 3.22085 -1.52117 0
M  V30 2549 O 235.986 5.04369 -2.10415 0
M  V30 2550 H 233.08 0.776226 -0.285311 0
M  V30 2551 H 235.626 1.1747 -1.2247 0
M  V30 2552 H 234.398 2.93863 -2.5838 0
M  V30 2553 H 234.021 3.81758 -1.11114 0
M  V30 2554 N 235.018 0.912232 1.28515 0
M  V30 2555 C 235.948 0.416403 2.29757 0
M  V30 2556 C 236.929 -0.515194 1.6211 0
M  V30 2557 O 238.114 -0.423253 1.89532 0
M  V30 2558 C 235.244 -0.34572 3.45575 0
M  V30 2559 C 234.198 0.496599 4.25109 0
M  V30 2560 C 233.524 -0.393771 5.33248 0
M  V30 2561 C 234.824 1.75307 4.92001 0
M  V30 2562 H 236.518 1.26249 2.7148 0
M  V30 2563 H 234.064 0.608515 1.30511 0
M  V30 2564 H 236.017 -0.703422 4.15488 0
M  V30 2565 H 234.741 -1.2257 3.02728 0
M  V30 2566 H 233.4 0.8368 3.56922 0
M  V30 2567 H 233.048 -1.27225 4.86644 0
M  V30 2568 H 232.748 0.166209 5.87365 0
M  V30 2569 H 234.272 -0.747389 6.06009 0
M  V30 2570 H 235.686 1.46437 5.54283 0
M  V30 2571 H 234.083 2.25534 5.56106 0
M  V30 2572 H 235.153 2.48176 4.16577 0
M  V30 2573 N 236.496 -1.42363 0.676048 0
M  V30 2574 C 237.907 -1.84649 0.275948 0
M  V30 2575 C 238.258 -1.56588 -1.18214 0
M  V30 2576 O 237.383 -1.02634 -1.90513 0
M  V30 2577 C 237.978 -3.35178 0.494053 0
M  V30 2578 C 236.537 -3.76109 0.148061 0
M  V30 2579 C 235.684 -2.65931 0.785891 0
M  V30 2580 H 238.635 -1.32192 0.878121 0
M  V30 2581 H 238.656 -3.79655 -0.25343 0
M  V30 2582 H 238.168 -3.55571 1.55535 0
M  V30 2583 H 236.269 -3.61323 -0.909742 0
M  V30 2584 H 236.382 -4.7546 0.589454 0
M  V30 2585 H 234.746 -2.53773 0.217113 0
M  V30 2586 H 235.529 -2.89146 1.85067 0
M  V30 2587 N 237.974 -0.419461 -1.51915 0
M  V30 2588 C 239.22 0.153166 -2.02221 0
M  V30 2589 C 239.553 1.43907 -1.30401 0
M  V30 2590 O 238.828 1.90055 -0.413438 0
M  V30 2591 C 239.111 0.390291 -3.57979 0
M  V30 2592 C 238.964 -0.913014 -4.40436 0
M  V30 2593 C 240.283 1.16794 -4.2432 0
M  V30 2594 H 237.402 0.0541924 -0.735005 0
M  V30 2595 H 240.044 -0.554955 -1.81715 0
M  V30 2596 H 238.194 0.993491 -3.75582 0
M  V30 2597 H 239.866 -1.54882 -4.34522 0
M  V30 2598 H 238.109 -1.52168 -4.06236 0
M  V30 2599 H 238.78 -0.701361 -5.47526 0
M  V30 2600 H 241.256 0.657161 -4.10878 0
M  V30 2601 H 240.132 1.3026 -5.3322 0
M  V30 2602 H 240.393 2.19132 -3.83971 0
M  V30 2603 N 239.452 1.56882 -0.150215 0
M  V30 2604 C 240.729 1.87844 0.545327 0
M  V30 2605 C 241.109 1.0567 1.82749 0
M  V30 2606 O 240.457 0.144442 2.28043 0
M  V30 2607 C 240.667 3.39526 0.80767 0
M  V30 2608 C 242.015 4.08814 1.14703 0
M  V30 2609 O 243.039 3.44723 0.896917 0
M  V30 2610 O 241.898 5.22004 1.61784 0
M  V30 2611 H 238.992 0.778677 0.278553 0
M  V30 2612 H 241.538 1.68666 -0.187068 0
M  V30 2613 H 240.31 3.91173 -0.0996096 0
M  V30 2614 H 239.933 3.64243 1.59413 0
M  V30 2615 N 240.93 -0.123565 1.57115 0
M  V30 2616 C 241.84 -1.17074 2.033 0
M  V30 2617 C 242.856 -1.4561 0.952559 0
M  V30 2618 O 244.032 -1.56817 1.26374 0
M  V30 2619 C 241.097 -2.47857 2.42421 0
M  V30 2620 C 240.158 -2.26758 3.64526 0
M  V30 2621 C 239.391 -3.51305 4.01771 0
M  V30 2622 O 239.614 -4.5843 3.39409 0
M  V30 2623 O 238.548 -3.42578 4.94898 0
M  V30 2624 H 242.374 -0.808555 2.92739 0
M  V30 2625 H 239.959 -0.334027 1.45618 0
M  V30 2626 H 241.841 -3.2492 2.68338 0
M  V30 2627 H 240.516 -2.83558 1.5613 0
M  V30 2628 H 239.423 -1.47569 3.43765 0
M  V30 2629 H 240.756 -1.95963 4.51508 0
M  V30 2630 N 242.408 -1.52605 -0.393616 0
M  V30 2631 C 243.824 -1.41753 -0.733357 0
M  V30 2632 C 244.024 -0.534293 -1.94287 0
M  V30 2633 O 243.08 -0.0059787 -2.52499 0
M  V30 2634 C 244.393 -2.84531 -0.972772 0
M  V30 2635 C 245.941 -2.93978 -1.07453 0
M  V30 2636 C 246.416 -4.37756 -1.3466 0
M  V30 2637 N 247.907 -4.4106 -1.41492 0
M  V30 2638 C 248.642 -5.49387 -1.642 0
M  V30 2639 N 248.138 -6.67806 -1.8441 0
M  V30 2640 N 249.931 -5.36923 -1.66342 0
M  V30 2641 H 242.082 -2.08555 0.402328 0
M  V30 2642 H 244.345 -0.940654 0.117789 0
M  V30 2643 H 244.051 -3.51353 -0.156204 0
M  V30 2644 H 243.925 -3.26508 -1.88871 0
M  V30 2645 H 246.312 -2.27326 -1.88167 0
M  V30 2646 H 246.393 -2.55435 -0.136605 0
M  V30 2647 H 246.037 -5.04972 -0.544581 0
M  V30 2648 H 245.967 -4.73848 -2.2973 0
M  V30 2649 H 248.458 -3.55705 -1.27601 0
M  V30 2650 H 248.771 -7.46141 -2.01231 0
M  V30 2651 H 247.116 -6.70843 -1.81644 0
M  V30 2652 H 250.307 -4.43381 -1.50102 0
M  V30 2653 H 250.48 -6.21416 -1.837 0
M  V30 2654 N 243.887 0.651787 -1.4349 0
M  V30 2655 C 245.134 1.41167 -1.45183 0
M  V30 2656 C 245.462 1.94349 -0.0766601 0
M  V30 2657 O 244.717 1.72804 0.918555 0
M  V30 2658 C 245.016 2.60914 -2.44251 0
M  V30 2659 C 244.682 2.26142 -3.9009 0
M  V30 2660 C 243.344 2.16371 -4.2981 0
M  V30 2661 C 245.696 1.98334 -4.81989 0
M  V30 2662 C 243.024 1.7695 -5.5938 0
M  V30 2663 C 245.376 1.6041 -6.11924 0
M  V30 2664 C 244.04 1.49166 -6.5062 0
M  V30 2665 H 243.31 0.516566 -0.531263 0
M  V30 2666 H 245.957 0.741099 -1.76579 0
M  V30 2667 H 244.262 3.3311 -2.06265 0
M  V30 2668 H 245.959 3.19127 -2.42815 0
M  V30 2669 H 242.549 2.34658 -3.58655 0
M  V30 2670 H 246.733 2.04803 -4.52072 0
M  V30 2671 H 241.989 1.66831 -5.88198 0
M  V30 2672 H 246.163 1.37925 -6.82605 0
M  V30 2673 H 243.79 1.1839 -7.50925 0
M  V30 2674 N 245.365 1.30045 0.890287 0
M  V30 2675 C 246.295 1.18541 2.01172 0
M  V30 2676 C 247.276 0.0773356 1.69924 0
M  V30 2677 O 248.461 0.25845 1.92473 0
M  V30 2678 C 245.591 0.870941 3.36202 0
M  V30 2679 C 244.545 1.93637 3.81692 0
M  V30 2680 C 243.871 1.475 5.13953 0
M  V30 2681 C 245.171 3.34666 4.00994 0
M  V30 2682 H 246.865 2.12359 2.11054 0
M  V30 2683 H 244.411 1.02238 1.01407 0
M  V30 2684 H 246.364 0.777141 4.14172 0
M  V30 2685 H 245.088 -0.102926 3.26438 0
M  V30 2686 H 243.747 2.01972 3.05946 0
M  V30 2687 H 243.395 0.489551 5.00612 0
M  V30 2688 H 243.095 2.1876 5.4536 0
M  V30 2689 H 244.619 1.39489 5.94454 0
M  V30 2690 H 246.033 3.2912 4.69417 0
M  V30 2691 H 244.43 4.03966 4.43769 0
M  V30 2692 H 245.5 3.76949 3.05021 0
M  V30 2693 N 246.843 -1.10192 1.12674 0
M  V30 2694 C 247.753 -2.20172 0.810026 0
M  V30 2695 C 248.769 -1.72821 -0.202188 0
M  V30 2696 O 249.945 -2.01369 -0.0351691 0
M  V30 2697 C 247.01 -3.45631 0.272007 0
M  V30 2698 C 246.071 -4.07704 1.34447 0
M  V30 2699 C 245.304 -5.27175 0.832029 0
M  V30 2700 O 245.527 -5.69425 -0.333284 0
M  V30 2701 O 244.461 -5.80168 1.60277 0
M  V30 2702 H 248.287 -2.49701 1.72867 0
M  V30 2703 H 245.872 -1.18977 0.903597 0
M  V30 2704 H 247.754 -4.21394 -0.0230219 0
M  V30 2705 H 246.429 -3.17723 -0.619164 0
M  V30 2706 H 245.336 -3.33614 1.6927 0
M  V30 2707 H 246.669 -4.3982 2.2095 0
M  V30 2708 N 248.321 -0.919034 -1.28029 0
M  V30 2709 C 249.598 -0.473668 -1.89778 0
M  V30 2710 C 249.978 1.04783 -1.83259 0
M  V30 2711 O 249.326 1.8982 -1.27202 0
M  V30 2712 C 249.536 -1.00998 -3.34066 0
M  V30 2713 C 250.884 -1.06525 -4.1102 0
M  V30 2714 O 251.908 -0.958996 -3.43048 0
M  V30 2715 O 250.767 -1.22776 -5.3253 0
M  V30 2716 H 247.861 -0.15098 -0.813101 0
M  V30 2717 H 250.407 -1.01016 -1.36359 0
M  V30 2718 H 249.179 -2.05392 -3.33061 0
M  V30 2719 H 248.802 -0.454626 -3.94992 0
M  V30 2720 N 249.799 1.42003 -0.683588 0
M  V30 2721 C 250.746 2.30798 -0.0107309 0
M  V30 2722 C 251.716 1.4645 0.783688 0
M  V30 2723 O 252.901 1.75263 0.754156 0
M  V30 2724 C 250.041 3.3238 0.928306 0
M  V30 2725 C 249.154 4.31814 0.126776 0
M  V30 2726 C 248.289 5.20468 1.06236 0
M  V30 2727 C 247.328 6.11577 0.253035 0
M  V30 2728 N 246.465 6.92754 1.14179 0
M  V30 2729 H 251.305 2.8778 -0.773727 0
M  V30 2730 H 248.842 1.41745 -0.393283 0
M  V30 2731 H 250.8 3.89813 1.48666 0
M  V30 2732 H 249.43 2.76976 1.65783 0
M  V30 2733 H 248.482 3.76427 -0.54833 0
M  V30 2734 H 249.794 4.96276 -0.501192 0
M  V30 2735 H 248.948 5.82677 1.69035 0
M  V30 2736 H 247.687 4.56204 1.7242 0
M  V30 2737 H 246.692 5.48428 -0.388108 0
M  V30 2738 H 247.917 6.77892 -0.404839 0
M  V30 2739 H 245.863 6.3111 1.78987 0
M  V30 2740 H 245.78 7.53855 0.569111 0
M  V30 2741 H 247.048 7.59441 1.75697 0
M  V30 2742 N 251.277 0.427512 1.51691 0
M  V30 2743 C 252.693 0.0792977 1.59403 0
M  V30 2744 C 252.893 -1.41035 1.43914 0
M  V30 2745 O 251.949 -2.17922 1.27539 0
M  V30 2746 C 253.262 0.590636 2.94842 0
M  V30 2747 C 254.81 0.550215 3.08126 0
M  V30 2748 C 255.285 1.03836 4.46074 0
M  V30 2749 N 256.776 0.995943 4.52366 0
M  V30 2750 C 257.511 1.34463 5.57411 0
M  V30 2751 N 257.007 1.76569 6.69922 0
M  V30 2752 N 258.8 1.26343 5.47717 0
M  V30 2753 H 250.951 1.39687 1.60004 0
M  V30 2754 H 253.214 0.575003 0.753708 0
M  V30 2755 H 252.92 1.63251 3.11516 0
M  V30 2756 H 252.794 0.0102061 3.77199 0
M  V30 2757 H 255.181 -0.482654 2.91126 0
M  V30 2758 H 255.262 1.16693 2.27632 0
M  V30 2759 H 254.906 2.06965 4.63819 0
M  V30 2760 H 254.836 0.398286 5.25092 0
M  V30 2761 H 257.327 0.68661 3.7161 0
M  V30 2762 H 257.64 2.01438 7.46085 0
M  V30 2763 H 255.985 1.80488 6.71155 0
M  V30 2764 H 259.176 0.933209 4.58703 0
M  V30 2765 H 259.349 1.53846 6.29472 0
M  V30 2766 N 252.755 -1.56801 0.158532 0
M  V30 2767 C 254.001 -1.96781 -0.490405 0
M  V30 2768 C 254.334 -1.04397 -1.63753 0
M  V30 2769 O 253.609 -0.0885805 -1.94298 0
M  V30 2770 C 253.892 -3.4635 -0.985594 0
M  V30 2771 C 253.745 -4.49512 0.160824 0
M  V30 2772 C 255.064 -3.98697 -1.86355 0
M  V30 2773 H 252.183 -0.715482 -0.176788 0
M  V30 2774 H 254.825 -1.88451 0.242088 0
M  V30 2775 H 252.975 -3.53579 -1.60978 0
M  V30 2776 H 254.647 -4.54353 0.797537 0
M  V30 2777 H 252.89 -4.26013 0.818256 0
M  V30 2778 H 253.561 -5.51531 -0.227569 0
M  V30 2779 H 256.037 -3.94019 -1.33746 0
M  V30 2780 H 254.913 -5.03792 -2.17909 0
M  V30 2781 H 255.174 -3.41744 -2.8047 0
M  V30 2782 N 254.233 0.115231 -1.57178 0
M  V30 2783 C 255.51 0.852873 -1.76027 0
M  V30 2784 C 255.89 1.97892 -0.73498 0
M  V30 2785 O 255.238 2.27232 0.24036 0
M  V30 2786 C 255.448 1.36608 -3.21153 0
M  V30 2787 C 256.796 1.81692 -3.83762 0
M  V30 2788 O 257.82 1.46278 -3.24779 0
M  V30 2789 O 256.679 2.47104 -4.87444 0
M  V30 2790 H 253.773 0.405296 -0.720877 0
M  V30 2791 H 256.319 0.0986785 -1.69413 0
M  V30 2792 H 255.091 0.558357 -3.87296 0
M  V30 2793 H 254.714 2.18287 -3.3232 0
M  V30 2794 N 255.711 1.52812 0.385517 0
M  V30 2795 C 256.958 1.68026 1.1302 0
M  V30 2796 C 257.286 0.421934 1.89868 0
M  V30 2797 O 256.541 -0.595749 1.86412 0
M  V30 2798 C 256.84 2.86856 2.13187 0
M  V30 2799 C 256.506 4.24159 1.5297 0
M  V30 2800 C 255.168 4.61501 1.36274 0
M  V30 2801 C 257.52 5.09627 1.09223 0
M  V30 2802 C 254.848 5.81966 0.743837 0
M  V30 2803 C 257.2 6.30719 0.487411 0
M  V30 2804 C 255.864 6.6679 0.307777 0
M  V30 2805 H 255.134 0.614849 0.413571 0
M  V30 2806 H 257.781 1.86962 0.414405 0
M  V30 2807 H 256.086 2.6235 2.90998 0
M  V30 2808 H 257.783 2.95821 2.70722 0
M  V30 2809 H 254.373 3.94746 1.66954 0
M  V30 2810 H 258.557 4.81343 1.20922 0
M  V30 2811 H 253.813 6.08519 0.592891 0
M  V30 2812 H 257.987 6.96259 0.140143 0
M  V30 2813 H 255.614 7.60001 -0.173879 0
M  V30 2814 N 257.189 -0.644168 1.43834 0
M  V30 2815 C 258.099 -1.78563 1.52159 0
M  V30 2816 C 259.115 -1.69147 0.408069 0
M  V30 2817 O 260.291 -1.90156 0.663524 0
M  V30 2818 C 257.356 -3.14888 1.45073 0
M  V30 2819 C 256.417 -3.36034 2.6717 0
M  V30 2820 C 255.65 -4.65855 2.60413 0
M  V30 2821 O 255.873 -5.45805 1.65689 0
M  V30 2822 O 254.807 -4.88918 3.5106 0
M  V30 2823 H 258.633 -1.74494 2.48567 0
M  V30 2824 H 256.218 -0.80378 1.25935 0
M  V30 2825 H 258.1 -3.96179 1.43597 0
M  V30 2826 H 256.775 -3.19528 0.518037 0
M  V30 2827 H 255.682 -2.54472 2.74217 0
M  V30 2828 H 257.015 -3.36247 3.59442 0
M  V30 2829 N 258.668 -1.30515 -0.883378 0
M  V30 2830 C 259.914 -1.19607 -1.63774 0
M  V30 2831 C 260.247 0.248314 -1.92606 0
M  V30 2832 O 259.522 1.17742 -1.54813 0
M  V30 2833 C 259.805 -2.02669 -2.97653 0
M  V30 2834 C 259.658 -3.55335 -2.75784 0
M  V30 2835 C 260.977 -1.86573 -3.98596 0
M  V30 2836 H 258.096 -0.435856 -0.594305 0
M  V30 2837 H 260.738 -1.60165 -1.02212 0
M  V30 2838 H 258.888 -1.68208 -3.50197 0
M  V30 2839 H 260.56 -3.99863 -2.30016 0
M  V30 2840 H 258.803 -3.79438 -2.1026 0
M  V30 2841 H 259.474 -4.08745 -3.70988 0
M  V30 2842 H 261.95 -2.16703 -3.55217 0
M  V30 2843 H 260.826 -2.47014 -4.90179 0
M  V30 2844 H 261.087 -0.825321 -4.34328 0
M  V30 2845 N 260.146 1.09593 -1.13257 0
M  V30 2846 C 261.371 1.8604 -0.916732 0
M  V30 2847 C 261.796 1.80504 0.529146 0
M  V30 2848 O 261.154 1.18127 1.37534 0
M  V30 2849 C 261.202 3.32017 -1.40703 0
M  V30 2850 O 260.306 4.08141 -0.591153 0
M  V30 2851 H 259.647 0.576943 -0.328683 0
M  V30 2852 H 262.177 1.38405 -1.50682 0
M  V30 2853 H 262.187 3.82865 -1.4099 0
M  V30 2854 H 260.862 3.35361 -2.45979 0
M  V30 2855 H 259.439 3.67084 -0.656005 0
M  V30 2856 N 261.624 0.925811 1.2754 0
M  V30 2857 C 262.554 0.440748 2.29303 0
M  V30 2858 C 263.535 -0.497971 1.62648 0
M  V30 2859 O 264.72 -0.403126 1.8997 0
M  V30 2860 C 261.85 -0.309048 3.45922 0
M  V30 2861 C 260.804 0.54166 4.24559 0
M  V30 2862 C 260.13 -0.337191 5.33636 0
M  V30 2863 C 261.43 1.80516 4.90114 0
M  V30 2864 H 263.124 1.29121 2.70126 0
M  V30 2865 H 260.67 0.622323 1.29858 0
M  V30 2866 H 262.623 -0.659315 4.1621 0
M  V30 2867 H 261.347 -1.19352 3.04011 0
M  V30 2868 H 260.006 0.874609 3.56014 0
M  V30 2869 H 259.654 -1.22056 4.87966 0
M  V30 2870 H 259.354 0.228497 5.87156 0
M  V30 2871 H 260.878 -0.683072 6.06767 0
M  V30 2872 H 262.292 1.52307 5.52698 0
M  V30 2873 H 260.689 2.3142 5.53683 0
M  V30 2874 H 261.759 2.52581 4.13921 0
M  V30 2875 N 263.102 -1.41638 0.69111 0
M  V30 2876 C 264.065 -2.29178 0.0319786 0
M  V30 2877 C 265.065 -1.44153 -0.712496 0
M  V30 2878 O 266.255 -1.65354 -0.548053 0
M  V30 2879 C 263.387 -3.26952 -0.965161 0
M  V30 2880 H 264.58 -2.88959 0.802681 0
M  V30 2881 H 262.133 -1.4955 0.454356 0
M  V30 2882 H 262.868 -2.72142 -1.76378 0
M  V30 2883 H 262.653 -3.89685 -0.434522 0
M  V30 2884 H 264.143 -3.92561 -1.42428 0
M  V30 2885 N 264.58 -0.43555 -1.51462 0
M  V30 2886 C 265.527 0.376797 -2.27703 0
M  V30 2887 C 266.497 1.01838 -1.31219 0
M  V30 2888 O 267.682 1.03762 -1.60119 0
M  V30 2889 C 264.822 1.47301 -3.12084 0
M  V30 2890 C 263.935 0.849744 -4.2356 0
M  V30 2891 C 263.07 1.92086 -4.95254 0
M  V30 2892 C 262.109 1.27593 -5.98654 0
M  V30 2893 N 261.246 2.28833 -6.63762 0
M  V30 2894 H 266.086 -0.279734 -2.96684 0
M  V30 2895 H 263.623 -0.149795 -1.46335 0
M  V30 2896 H 265.581 2.11984 -3.59331 0
M  V30 2897 H 264.211 2.0992 -2.45221 0
M  V30 2898 H 263.263 0.0912529 -3.80291 0
M  V30 2899 H 264.575 0.338878 -4.97648 0
M  V30 2900 H 263.729 2.64435 -5.46039 0
M  V30 2901 H 262.468 2.46545 -4.20793 0
M  V30 2902 H 261.473 0.537893 -5.47162 0
M  V30 2903 H 262.698 0.738693 -6.7507 0
M  V30 2904 H 260.644 2.82375 -5.92115 0
M  V30 2905 H 260.561 1.82632 -7.33608 0
M  V30 2906 H 261.829 3.00671 -7.19178 0
M  V30 2907 N 266.058 1.56714 -0.166846 0
M  V30 2908 C 267.306 1.96358 0.478305 0
M  V30 2909 C 267.627 1.0537 1.6408 0
M  V30 2910 O 266.897 0.119154 1.95537 0
M  V30 2911 H 265.477 0.725065 0.179692 0
M  V30 2912 H 268.139 1.93329 -0.246985 0
M  V30 2913 H 267.235 3.00547 0.841292 0
M  V30 2914 N 267.536 -0.106894 1.57237 0
M  V30 2915 C 268.466 -1.13148 2.04254 0
M  V30 2916 C 269.447 -1.42476 0.929224 0
M  V30 2917 O 270.632 -1.52709 1.19973 0
M  V30 2918 C 267.762 -2.4545 2.45706 0
M  V30 2919 C 266.716 -2.30558 3.60592 0
M  V30 2920 C 266.042 -3.67931 3.87983 0
M  V30 2921 C 267.342 -1.75597 4.91897 0
M  V30 2922 H 269.036 -0.740374 2.90101 0
M  V30 2923 H 266.582 -0.354696 1.39563 0
M  V30 2924 H 268.535 -3.17389 2.77205 0
M  V30 2925 H 267.259 -2.86475 1.56843 0
M  V30 2926 H 265.918 -1.61067 3.29322 0
M  V30 2927 H 265.566 -4.06462 2.96306 0
M  V30 2928 H 265.266 -3.58817 4.65322 0
M  V30 2929 H 266.79 -4.41356 4.21945 0
M  V30 2930 H 268.204 -2.37364 5.21854 0
M  V30 2931 H 266.601 -1.77272 5.73319 0
M  V30 2932 H 267.671 -0.714451 4.79608 0
M  V30 2933 N 269.014 -1.53014 -0.377408 0
M  V30 2934 C 269.977 -1.77957 -1.44444 0
M  V30 2935 C 270.977 -0.649763 -1.47087 0
M  V30 2936 O 272.167 -0.917897 -1.48055 0
M  V30 2937 C 269.299 -1.89089 -2.83651 0
M  V30 2938 H 270.492 -2.73243 -1.23606 0
M  V30 2939 H 268.045 -1.43912 -0.609844 0
M  V30 2940 H 268.78 -0.958293 -3.09818 0
M  V30 2941 H 268.565 -2.71254 -2.83132 0
M  V30 2942 H 270.055 -2.1002 -3.60945 0
M  V30 2943 N 270.492 0.636531 -1.44174 0
M  V30 2944 C 271.769 1.39463 -1.37148 0
M  V30 2945 C 272.149 2.11082 -0.027507 0
M  V30 2946 O 271.497 2.05954 0.989716 0
M  V30 2947 C 271.707 2.36552 -2.56601 0
M  V30 2948 C 273.055 3.00048 -3.00427 0
M  V30 2949 O 274.079 2.46878 -2.56767 0
M  V30 2950 O 272.938 3.96488 -3.76111 0
M  V30 2951 H 270.032 0.623903 -0.542839 0
M  V30 2952 H 272.578 0.662039 -1.56253 0
M  V30 2953 H 271.35 1.82692 -3.46034 0
M  V30 2954 H 270.973 3.17236 -2.39681 0
M  V30 2955 N 271.97 1.30982 0.876444 0
M  V30 2956 C 272.9 1.20668 1.99903 0
M  V30 2957 C 273.881 0.095354 1.69833 0
M  V30 2958 O 275.066 0.27885 1.92188 0
M  V30 2959 C 272.196 0.90655 3.3526 0
M  V30 2960 C 271.15 1.97675 3.79617 0
M  V30 2961 C 270.476 1.52943 5.1236 0
M  V30 2962 C 271.776 3.389 3.97422 0
M  V30 2963 H 273.47 2.14586 2.0879 0
M  V30 2964 H 271.016 1.03308 1.00317 0
M  V30 2965 H 272.969 0.821025 4.13324 0
M  V30 2966 H 271.693 -0.0682969 3.26529 0
M  V30 2967 H 270.352 2.05205 3.03787 0
M  V30 2968 H 270 0.54262 5.00065 0
M  V30 2969 H 269.7 2.24532 5.43009 0
M  V30 2970 H 271.224 1.45786 5.92941 0
M  V30 2971 H 272.638 3.34081 4.659 0
M  V30 2972 H 271.035 4.0865 4.3946 0
M  V30 2973 H 272.105 3.80163 3.01006 0
M  V30 2974 N 273.449 -1.08991 1.13837 0
M  V30 2975 C 274.412 -2.13925 0.822715 0
M  V30 2976 C 275.412 -1.599 -0.1699 0
M  V30 2977 O 276.602 -1.74104 0.0577251 0
M  V30 2978 C 273.734 -3.40155 0.225318 0
M  V30 2979 H 274.927 -2.43358 1.75262 0
M  V30 2980 H 272.48 -1.24603 0.943594 0
M  V30 2981 H 273.215 -3.16352 -0.713594 0
M  V30 2982 H 273 -3.80661 0.940193 0
M  V30 2983 H 274.49 -4.17594 0.0214784 0
M  V30 2984 N 274.927 -0.932562 -1.27047 0
M  V30 2985 C 276.176 -0.571351 -1.93439 0
M  V30 2986 C 276.489 0.892467 -1.74053 0
M  V30 2987 O 277.695 1.36267 -2.34826 0
M  V30 2988 C 276.151 -0.97106 -3.46552 0
M  V30 2989 C 275.759 -2.4559 -3.74686 0
M  V30 2990 C 277.503 -0.681333 -4.18997 0
M  V30 2991 C 275.41 -2.79475 -5.21198 0
M  V30 2992 H 274.34 -0.209966 -0.724176 0
M  V30 2993 H 276.991 -1.13403 -1.44263 0
M  V30 2994 H 275.373 -0.336983 -3.94564 0
M  V30 2995 H 276.547 -3.13829 -3.37414 0
M  V30 2996 H 274.862 -2.71802 -3.15456 0
M  V30 2997 H 277.459 -0.910939 -5.26883 0
M  V30 2998 H 277.802 0.381628 -4.14547 0
M  V30 2999 H 278.335 -1.27473 -3.76823 0
M  V30 3000 H 275.074 -3.847 -5.30741 0
M  V30 3001 H 274.594 -2.1589 -5.596 0
M  V30 3002 H 276.273 -2.67478 -5.89122 0
M  V30 3003 N 276.405 1.4127 -0.698611 0
M  V30 3004 C 277.352 2.30773 -0.0352094 0
M  V30 3005 C 278.322 1.47273 0.768111 0
M  V30 3006 O 279.507 1.76053 0.735524 0
M  V30 3007 C 276.647 3.33346 0.893 0
M  V30 3008 C 275.76 4.31924 0.0809695 0
M  V30 3009 C 274.895 5.21566 1.0071 0
M  V30 3010 C 273.934 6.11811 0.188155 0
M  V30 3011 N 273.071 6.93926 1.06825 0
M  V30 3012 H 277.911 2.86943 -0.804207 0
M  V30 3013 H 275.448 1.4132 -0.408294 0
M  V30 3014 H 277.406 3.91368 1.44523 0
M  V30 3015 H 276.036 2.78719 1.62836 0
M  V30 3016 H 275.088 3.75825 -0.588224 0
M  V30 3017 H 276.4 4.95716 -0.553801 0
M  V30 3018 H 275.554 5.84437 1.62845 0
M  V30 3019 H 274.293 4.58008 1.67572 0
M  V30 3020 H 273.298 5.47986 -0.446254 0
M  V30 3021 H 274.523 6.77425 -0.476716 0
M  V30 3022 H 272.469 6.32973 1.72283 0
M  V30 3023 H 272.386 7.54416 0.489123 0
M  V30 3024 H 273.654 7.61262 1.67632 0
M  V30 3025 N 277.883 0.443576 1.51229 0
M  V30 3026 C 279.16 -0.181038 1.9476 0
M  V30 3027 C 279.54 -1.59523 1.38259 0
M  V30 3028 O 278.888 -2.2122 0.572198 0
M  V30 3029 C 279.098 -0.152422 3.48667 0
M  V30 3030 C 280.446 -0.354923 4.23114 0
M  V30 3031 O 281.47 -0.230257 3.55455 0
M  V30 3032 O 280.329 -0.603674 5.43156 0
M  V30 3033 H 277.423 -0.1266 0.817252 0
M  V30 3034 H 279.969 0.502004 1.62105 0
M  V30 3035 H 278.741 0.836022 3.82265 0
M  V30 3036 H 278.364 -0.878107 3.87782 0
M  V30 3037 N 279.361 -1.56624 0.175154 0
M  V30 3038 C 280.586 -2.01813 -0.478137 0
M  V30 3039 C 281.011 -1.05457 -1.55757 0
M  V30 3040 O 280.369 -0.0347439 -1.81267 0
M  V30 3041 C 280.417 -3.45581 -1.02987 0
M  V30 3042 O 279.521 -3.52305 -2.14371 0
M  V30 3043 H 278.862 -0.65413 -0.114059 0
M  V30 3044 H 281.392 -2.02673 0.280173 0
M  V30 3045 H 281.402 -3.84965 -1.35151 0
M  V30 3046 H 280.077 -4.1521 -0.239556 0
M  V30 3047 H 278.654 -3.24783 -1.83222 0
M  V30 3048 N 280.839 0.0985539 -1.57292 0
M  V30 3049 C 281.769 1.12064 -2.04851 0
M  V30 3050 C 282.75 1.41981 -0.936767 0
M  V30 3051 O 283.935 1.52071 -1.20781 0
M  V30 3052 C 281.065 2.44144 -2.47004 0
M  V30 3053 C 280.019 2.28643 -3.6181 0
M  V30 3054 C 279.345 3.65869 -3.89929 0
M  V30 3055 C 280.645 1.72986 -4.92822 0
M  V30 3056 H 282.339 0.724979 -2.9049 0
M  V30 3057 H 279.885 0.34729 -1.39749 0
M  V30 3058 H 281.838 3.15914 -2.78884 0
M  V30 3059 H 280.562 2.85639 -1.5836 0
M  V30 3060 H 279.221 1.59318 -3.30172 0
M  V30 3061 H 278.869 4.04885 -2.98458 0
M  V30 3062 H 278.569 3.56344 -4.67218 0
M  V30 3063 H 280.093 4.39112 -4.2428 0
M  V30 3064 H 281.507 2.34593 -5.23105 0
M  V30 3065 H 279.904 1.74229 -5.74251 0
M  V30 3066 H 280.974 0.689007 -4.7998 0
M  V30 3067 N 282.317 1.53212 0.369288 0
M  V30 3068 C 283.265 1.80054 1.47253 0
M  V30 3069 C 284.259 0.669456 1.55611 0
M  V30 3070 O 285.465 0.852328 1.58541 0
M  V30 3071 H 281.84 0.570034 0.490475 0
M  V30 3072 H 283.811 2.72403 1.21817 0
M  V30 3073 C 282.56 2.00403 2.84137 0
M  V30 3074 H 281.883 2.86876 2.78464 0
M  V30 3075 H 283.323 2.23164 3.60519 0
M  V30 3076 C 281.782 0.782081 3.27697 0
M  V30 3077 O 282.312 -0.0310205 4.01688 0
M  V30 3078 N 280.518 0.606573 2.84199 0
M  V30 3079 H 280.065 1.26939 2.24152 0
M  V30 3080 H 280.023 -0.20962 3.137 0
M  V30 3081 N 283.795 -0.628877 1.44509 0
M  V30 3082 C 285.041 -1.39045 1.47629 0
M  V30 3083 C 285.374 -1.93892 0.109343 0
M  V30 3084 O 284.649 -1.7379 -0.87334 0
M  V30 3085 C 284.932 -2.55408 2.53848 0
M  V30 3086 C 284.785 -2.05896 3.99909 0
M  V30 3087 C 286.104 -3.5759 2.56549 0
M  V30 3088 H 283.223 -0.504232 0.537512 0
M  V30 3089 H 285.865 -0.710854 1.76201 0
M  V30 3090 H 284.015 -3.13384 2.29615 0
M  V30 3091 H 285.687 -1.52734 4.35282 0
M  V30 3092 H 283.93 -1.37061 4.11578 0
M  V30 3093 H 284.601 -2.89681 4.69882 0
M  V30 3094 H 287.077 -3.09419 2.78207 0
M  V30 3095 H 285.953 -4.36527 3.32769 0
M  V30 3096 H 286.214 -4.11808 1.60832 0
M  V30 3097 N 285.273 -1.31445 -0.869486 0
M  V30 3098 C 286.203 -1.21727 -1.99261 0
M  V30 3099 C 287.184 -0.104359 -1.6978 0
M  V30 3100 O 288.369 -0.289038 -1.92037 0
M  V30 3101 C 285.499 -0.924317 -3.34774 0
M  V30 3102 C 284.453 -1.99685 -3.78563 0
M  V30 3103 C 283.779 -1.55658 -5.11541 0
M  V30 3104 C 285.079 -3.41003 -3.95619 0
M  V30 3105 H 286.773 -2.1569 -2.07649 0
M  V30 3106 H 284.319 -1.03839 -0.997675 0
M  V30 3107 H 286.272 -0.842934 -4.12883 0
M  V30 3108 H 284.996 0.0509793 -3.2656 0
M  V30 3109 H 283.655 -2.06813 -3.02694 0
M  V30 3110 H 283.303 -0.569132 -4.9977 0
M  V30 3111 H 283.003 -2.27409 -5.41811 0
M  V30 3112 H 284.527 -1.48928 -5.92159 0
M  V30 3113 H 285.941 -3.36547 -4.64122 0
M  V30 3114 H 284.338 -4.10975 -4.37286 0
M  V30 3115 H 285.408 -3.81754 -2.98985 0
M  V30 3116 N 286.751 1.08385 -1.14413 0
M  V30 3117 C 287.979 1.84517 -0.936001 0
M  V30 3118 C 288.394 1.81626 0.515503 0
M  V30 3119 O 287.751 1.22008 1.35721 0
M  V30 3120 C 287.802 3.32049 -1.42918 0
M  V30 3121 O 287.523 3.34951 -2.82381 0
M  V30 3122 C 289.024 4.24986 -1.26103 0
M  V30 3123 H 286.244 0.582491 -0.333084 0
M  V30 3124 H 288.788 1.36885 -1.5193 0
M  V30 3125 H 286.943 3.7707 -0.888641 0
M  V30 3126 H 287.357 4.27048 -3.04517 0
M  V30 3127 H 288.831 5.26615 -1.6547 0
M  V30 3128 H 289.308 4.38726 -0.20392 0
M  V30 3129 H 289.914 3.85791 -1.79012 0
M  V30 3130 N 288.23 0.939286 1.26551 0
M  V30 3131 C 289.47 0.5933 1.956 0
M  V30 3132 C 289.834 -0.851515 1.72085 0
M  V30 3133 O 291.035 -1.30634 2.34921 0
M  V30 3134 C 289.306 0.923996 3.45249 0
M  V30 3135 S 290.865 0.688269 4.33369 0
M  V30 3136 H 287.683 0.218591 0.676564 0
M  V30 3137 H 290.285 1.2102 1.5354 0
M  V30 3138 H 288.989 1.97297 3.59864 0
M  V30 3139 H 288.52 0.296746 3.92279 0
M  V30 3140 H 290.535 -0.448434 4.9417 0
M  V30 3141 N 289.708 -1.40897 0.706093 0
M  V30 3142 C 290.954 -2.01849 0.250681 0
M  V30 3143 C 291.309 -1.5496 -1.14041 0
M  V30 3144 O 290.602 -0.755566 -1.76073 0
M  V30 3145 C 290.796 -3.5646 0.259099 0
M  V30 3146 C 290.625 -4.18357 1.64947 0
M  V30 3147 C 289.395 -4.522 2.25485 0
M  V30 3148 C 291.593 -4.43856 2.598 0
M  V30 3149 N 289.575 -4.9944 3.56977 0
M  V30 3150 C 290.946 -4.92986 3.75985 0
M  V30 3151 C 293.001 -4.25882 2.57933 0
M  V30 3152 C 291.704 -5.2603 4.90597 0
M  V30 3153 C 293.73 -4.6002 3.71665 0
M  V30 3154 C 293.092 -5.09331 4.86581 0
M  V30 3155 H 289.191 -0.769843 0.137353 0
M  V30 3156 H 291.775 -1.71278 0.925845 0
M  V30 3157 H 289.946 -3.86481 -0.385592 0
M  V30 3158 H 291.678 -4.04144 -0.21213 0
M  V30 3159 H 288.433 -4.3901 1.77671 0
M  V30 3160 H 288.857 -5.27454 4.24407 0
M  V30 3161 H 293.499 -3.86986 1.70298 0
M  V30 3162 H 291.217 -5.63843 5.78884 0
M  V30 3163 H 294.803 -4.47762 3.71484 0
M  V30 3164 H 293.683 -5.35251 5.73129 0
M  V30 3165 N 291.186 -0.45159 -1.50991 0
M  V30 3166 C 292.133 0.352625 -2.2809 0
M  V30 3167 C 293.103 1.0044 -1.32291 0
M  V30 3168 O 294.288 1.02058 -1.6121 0
M  V30 3169 C 291.428 1.43983 -3.13629 0
M  V30 3170 C 290.541 0.804772 -4.24438 0
M  V30 3171 C 289.676 1.86822 -4.97263 0
M  V30 3172 C 288.715 1.21236 -5.99973 0
M  V30 3173 N 287.852 2.2178 -6.66152 0
M  V30 3174 H 292.692 -0.311186 -2.96371 0
M  V30 3175 H 290.229 -0.165308 -1.46168 0
M  V30 3176 H 292.187 2.08161 -3.61559 0
M  V30 3177 H 290.817 2.07307 -2.47434 0
M  V30 3178 H 289.869 0.0509129 -3.80366 0
M  V30 3179 H 291.181 0.286076 -4.97979 0
M  V30 3180 H 290.335 2.58628 -5.48813 0
M  V30 3181 H 289.074 2.42068 -4.23385 0
M  V30 3182 H 288.079 0.479828 -5.47702 0
M  V30 3183 H 289.304 0.667051 -6.75816 0
M  V30 3184 H 287.25 2.76079 -5.95077 0
M  V30 3185 H 287.167 1.74841 -7.35504 0
M  V30 3186 H 288.435 2.93026 -7.22327 0
M  V30 3187 N 292.664 1.56529 -0.183458 0
M  V30 3188 C 293.941 1.88959 0.50536 0
M  V30 3189 C 294.321 1.09523 1.80466 0
M  V30 3190 O 293.669 0.19278 2.27685 0
M  V30 3191 C 293.879 3.41162 0.73547 0
M  V30 3192 C 295.227 4.11155 1.06005 0
M  V30 3193 O 296.251 3.46548 0.823594 0
M  V30 3194 O 295.11 5.25318 1.50675 0
M  V30 3195 H 292.204 0.78441 0.261973 0
M  V30 3196 H 294.75 1.68231 -0.222802 0
M  V30 3197 H 293.522 3.90874 -0.182561 0
M  V30 3198 H 293.145 3.67543 1.51651 0
M  V30 3199 N 294.142 -0.090211 1.57342 0
M  V30 3200 C 295.072 -1.10976 2.05443 0
M  V30 3201 C 296.053 -1.41482 0.944284 0
M  V30 3202 O 297.238 -1.51428 1.21586 0
M  V30 3203 C 294.368 -2.42831 2.48295 0
M  V30 3204 C 293.322 -2.26721 3.63018 0
M  V30 3205 C 292.648 -3.63796 3.91863 0
M  V30 3206 C 293.948 -1.7037 4.93732 0
M  V30 3207 H 295.642 -0.709564 2.9087 0
M  V30 3208 H 293.188 -0.339874 1.39932 0
M  V30 3209 H 295.141 -3.14431 2.80555 0
M  V30 3210 H 293.865 -2.84795 1.59873 0
M  V30 3211 H 292.524 -1.57565 3.31012 0
M  V30 3212 H 292.172 -4.03297 3.00601 0
M  V30 3213 H 291.872 -3.53861 4.69101 0
M  V30 3214 H 293.396 -4.36855 4.26603 0
M  V30 3215 H 294.81 -2.31816 5.24342 0
M  V30 3216 H 293.207 -1.71181 5.75167 0
M  V30 3217 H 294.277 -0.663542 4.80339 0
M  V30 3218 N 295.62 -1.53406 -0.361157 0
M  V30 3219 C 296.897 -1.60411 -1.11927 0
M  V30 3220 C 297.277 -0.414385 -2.06993 0
M  V30 3221 O 296.625 0.594976 -2.20618 0
M  V30 3222 C 296.835 -2.95652 -1.85448 0
M  V30 3223 C 298.183 -3.50386 -2.39823 0
M  V30 3224 O 299.207 -2.97711 -1.95568 0
M  V30 3225 O 298.066 -4.42482 -3.20737 0
M  V30 3226 H 295.16 -0.64811 -0.513695 0
M  V30 3227 H 297.706 -1.65749 -0.364065 0
M  V30 3228 H 296.478 -3.73682 -1.16091 0
M  V30 3229 H 296.101 -2.93825 -2.67866 0
M  V30 3230 N 297.098 0.621204 -1.44841 0
M  V30 3231 C 298.375 1.38 -1.38619 0
M  V30 3232 C 298.755 2.11041 -0.0498935 0
M  V30 3233 O 298.103 2.06992 0.967816 0
M  V30 3234 C 298.313 2.33817 -2.59096 0
M  V30 3235 C 299.661 2.96844 -3.03593 0
M  V30 3236 O 300.685 2.44141 -2.59371 0
M  V30 3237 O 299.544 3.92476 -3.80296 0
M  V30 3238 H 296.638 0.61811 -0.549426 0
M  V30 3239 H 299.184 0.645429 -1.56947 0
M  V30 3240 H 297.956 1.79012 -3.47952 0
M  V30 3241 H 297.579 3.14676 -2.43032 0
M  V30 3242 N 298.576 1.31904 0.862503 0
M  V30 3243 C 299.823 1.22017 1.61611 0
M  V30 3244 C 300.151 -0.21991 1.93253 0
M  V30 3245 O 299.406 -1.17076 1.56817 0
M  V30 3246 C 299.705 2.01713 2.95037 0
M  V30 3247 C 299.371 3.51145 2.82857 0
M  V30 3248 C 298.033 3.91889 2.79243 0
M  V30 3249 C 300.385 4.46204 2.69353 0
M  V30 3250 C 297.713 5.25947 2.59993 0
M  V30 3251 C 300.065 5.80397 2.5164 0
M  V30 3252 C 298.729 6.20352 2.46413 0
M  V30 3253 H 297.999 0.44649 0.591378 0
M  V30 3254 H 300.646 1.63248 1.00111 0
M  V30 3255 H 298.951 1.53185 3.60613 0
M  V30 3256 H 300.648 1.91437 3.52353 0
M  V30 3257 H 297.238 3.1878 2.86491 0
M  V30 3258 H 301.422 4.15652 2.71196 0
M  V30 3259 H 296.678 5.5597 2.54376 0
M  V30 3260 H 300.852 6.53676 2.40169 0
M  V30 3261 H 298.479 7.24172 2.31256 0
M  V30 3262 N 300.054 -1.07777 1.14986 0
M  V30 3263 C 301.002 -2.16964 0.838406 0
M  V30 3264 C 301.996 -1.68372 -0.186386 0
M  V30 3265 O 303.202 -1.79951 -0.0418465 0
M  V30 3266 H 299.577 -0.708006 0.253439 0
M  V30 3267 H 301.548 -2.40454 1.76704 0
M  V30 3268 C 300.297 -3.4604 0.339335 0
M  V30 3269 H 299.62 -3.83813 1.11927 0
M  V30 3270 H 301.06 -4.23698 0.160021 0
M  V30 3271 C 299.519 -3.23569 -0.938325 0
M  V30 3272 O 300.049 -3.47752 -2.01077 0
M  V30 3273 N 298.255 -2.77079 -0.876117 0
M  V30 3274 H 297.802 -2.576 -0.00322037 0
M  V30 3275 H 297.76 -2.62422 -1.73153 0
M  V30 3276 N 301.532 -0.945985 -1.26051 0
M  V30 3277 C 302.948 -0.649045 -1.45807 0
M  V30 3278 C 303.148 0.796158 -1.85104 0
M  V30 3279 O 302.204 1.57233 -1.97571 0
M  V30 3280 C 303.517 -1.61458 -2.53677 0
M  V30 3281 C 305.065 -1.62481 -2.67524 0
M  V30 3282 C 305.54 -2.57776 -3.7857 0
M  V30 3283 N 307.031 -2.5609 -3.85969 0
M  V30 3284 C 307.766 -3.26508 -4.7136 0
M  V30 3285 N 307.262 -4.0637 -5.61102 0
M  V30 3286 N 309.055 -3.15437 -4.65248 0
M  V30 3287 H 301.206 -1.88005 -0.988328 0
M  V30 3288 H 303.469 -0.808198 -0.4955 0
M  V30 3289 H 303.175 -2.64644 -2.31638 0
M  V30 3290 H 303.049 -1.37036 -3.51427 0
M  V30 3291 H 305.436 -0.600167 -2.88933 0
M  V30 3292 H 305.517 -1.90958 -1.70202 0
M  V30 3293 H 305.161 -3.60361 -3.57913 0
M  V30 3294 H 305.091 -2.26587 -4.75359 0
M  V30 3295 H 307.582 -1.98105 -3.21812 0
M  V30 3296 H 307.895 -4.57042 -6.23164 0
M  V30 3297 H 306.24 -4.10469 -5.60839 0
M  V30 3298 H 309.431 -2.52525 -3.94143 0
M  V30 3299 H 309.604 -3.70584 -5.31575 0
M  V30 3300 N 303.011 1.40521 -0.713556 0
M  V30 3301 C 304.26 2.00155 -0.249192 0
M  V30 3302 C 304.573 1.57224 1.16362 0
M  V30 3303 O 305.779 2.09542 1.72639 0
M  V30 3304 C 304.235 3.5773 -0.3946 0
M  V30 3305 C 303.843 4.09635 -1.81392 0
M  V30 3306 C 305.587 4.24499 0.00907364 0
M  V30 3307 C 303.494 5.59707 -1.91003 0
M  V30 3308 H 302.424 0.74868 -0.0894114 0
M  V30 3309 H 305.075 1.60784 -0.884352 0
M  V30 3310 H 303.457 3.94792 0.30911 0
M  V30 3311 H 304.631 3.83955 -2.54785 0
M  V30 3312 H 302.946 3.55456 -2.16888 0
M  V30 3313 H 305.543 5.34683 -0.0420404 0
M  V30 3314 H 305.886 4.02824 1.05065 0
M  V30 3315 H 306.419 3.92536 -0.645007 0
M  V30 3316 H 303.158 5.86234 -2.93275 0
M  V30 3317 H 302.678 5.87258 -1.22019 0
M  V30 3318 H 304.357 6.24776 -1.6812 0
M  V30 3319 N 304.489 0.459591 1.5075 0
M  V30 3320 C 305.736 -0.0993495 2.02256 0
M  V30 3321 C 306.064 -1.40751 1.34237 0
M  V30 3322 O 305.319 -1.90379 0.453228 0
M  V30 3323 C 305.618 -0.342866 3.55752 0
M  V30 3324 C 305.284 0.88218 4.42186 0
M  V30 3325 C 303.946 1.21808 4.65528 0
M  V30 3326 C 306.298 1.69837 4.92752 0
M  V30 3327 C 303.626 2.37045 5.36681 0
M  V30 3328 C 305.978 2.84192 5.65171 0
M  V30 3329 C 304.642 3.1821 5.8677 0
M  V30 3330 H 303.912 -0.0363545 0.740108 0
M  V30 3331 H 306.559 0.611329 1.8148 0
M  V30 3332 H 304.864 -1.13567 3.7498 0
M  V30 3333 H 306.561 -0.789121 3.93159 0
M  V30 3334 H 303.151 0.610467 4.2423 0
M  V30 3335 H 307.335 1.45205 4.74583 0
M  V30 3336 H 302.591 2.63689 5.51614 0
M  V30 3337 H 306.765 3.4779 6.03337 0
M  V30 3338 H 304.392 4.07613 6.41682 0
M  V30 3339 N 305.967 -1.56429 0.191757 0
M  V30 3340 C 307.213 -1.98541 -0.441943 0
M  V30 3341 C 307.568 -1.07646 -1.59468 0
M  V30 3342 O 306.861 -0.120191 -1.91223 0
M  V30 3343 C 307.055 -3.44449 -0.953384 0
M  V30 3344 C 306.884 -4.49456 0.148262 0
M  V30 3345 C 305.654 -5.01668 0.604781 0
M  V30 3346 C 307.852 -5.05336 0.95602 0
M  V30 3347 N 305.834 -5.90334 1.6846 0
M  V30 3348 C 307.205 -5.9064 1.88531 0
M  V30 3349 C 309.26 -4.87779 0.998811 0
M  V30 3350 C 307.963 -6.60264 2.85383 0
M  V30 3351 C 309.989 -5.58139 1.95537 0
M  V30 3352 C 309.351 -6.43187 2.8721 0
M  V30 3353 H 305.45 -0.771247 -0.129236 0
M  V30 3354 H 308.034 -1.92426 0.296682 0
M  V30 3355 H 306.205 -3.5107 -1.66146 0
M  V30 3356 H 307.937 -3.73533 -1.55741 0
M  V30 3357 H 304.692 -4.73183 0.198736 0
M  V30 3358 H 305.116 -6.39371 2.22561 0
M  V30 3359 H 309.758 -4.21705 0.304048 0
M  V30 3360 H 307.476 -7.25538 3.55837 0
M  V30 3361 H 311.062 -5.46532 1.99484 0
M  V30 3362 H 309.942 -6.96674 3.60022 0
M  V30 3363 N 307.445 0.0818655 -1.57387 0
M  V30 3364 C 308.685 0.788375 -1.88584 0
M  V30 3365 C 309.049 1.75248 -0.784351 0
M  V30 3366 O 310.25 2.50334 -0.979105 0
M  V30 3367 C 308.521 1.48654 -3.25018 0
M  V30 3368 S 310.08 2.22951 -3.7794 0
M  V30 3369 H 306.898 0.262383 -0.660815 0
M  V30 3370 H 309.5 0.0448995 -1.95448 0
M  V30 3371 H 308.204 0.770919 -4.03094 0
M  V30 3372 H 307.735 2.26965 -3.21326 0
M  V30 3373 H 309.75 3.49309 -3.52417 0
M  V30 3374 N 308.923 1.53595 0.353017 0
M  V30 3375 C 310.171 1.70049 1.09215 0
M  V30 3376 C 310.492 0.461406 1.89463 0
M  V30 3377 O 309.762 -0.524633 1.88744 0
M  V30 3378 H 308.342 0.626912 0.40619 0
M  V30 3379 H 311.004 1.90822 0.396585 0
M  V30 3380 H 310.1 2.56718 1.77488 0
M  V30 3381 N 310.401 -0.613514 1.45168 0
M  V30 3382 C 311.333 -1.73825 1.4939 0
M  V30 3383 C 312.346 -1.58175 0.385304 0
M  V30 3384 O 313.535 -1.66165 0.652036 0
M  V30 3385 C 310.635 -3.11758 1.32891 0
M  V30 3386 C 309.808 -3.53704 2.57317 0
M  V30 3387 C 308.867 -4.70579 2.35462 0
M  V30 3388 O 307.893 -4.77996 3.09044 0
M  V30 3389 N 309.095 -5.63454 1.39644 0
M  V30 3390 H 311.86 -1.70669 2.46358 0
M  V30 3391 H 309.421 -0.79862 1.40832 0
M  V30 3392 H 311.413 -3.87692 1.1609 0
M  V30 3393 H 309.983 -3.09456 0.442218 0
M  V30 3394 H 309.203 -2.67794 2.89275 0
M  V30 3395 H 310.491 -3.78486 3.40038 0
M  V30 3396 H 309.889 -5.6017 0.789062 0
M  V30 3397 H 308.446 -6.38944 1.28816 0
M  V30 3398 N 311.879 -1.3236 -0.855495 0
M  V30 3399 C 313.104 -1.2601 -1.64731 0
M  V30 3400 C 313.529 0.169068 -1.87339 0
M  V30 3401 O 312.887 1.12016 -1.42556 0
M  V30 3402 C 312.935 -2.02417 -2.98429 0
M  V30 3403 O 312.039 -1.3714 -3.8893 0
M  V30 3404 H 311.38 -0.434325 -0.502253 0
M  V30 3405 H 313.91 -1.74661 -1.06558 0
M  V30 3406 H 313.92 -2.12559 -3.48257 0
M  V30 3407 H 312.595 -3.06343 -2.81295 0
M  V30 3408 H 311.172 -1.3554 -3.47395 0
M  V30 3409 N 313.357 1.07166 -1.15556 0
M  V30 3410 C 314.304 2.14417 -0.854055 0
M  V30 3411 C 315.274 1.64965 0.193806 0
M  V30 3412 O 316.459 1.90703 0.0609443 0
M  V30 3413 C 313.599 3.43304 -0.351574 0
M  V30 3414 C 312.712 4.06537 -1.46123 0
M  V30 3415 C 311.847 5.23266 -0.914677 0
M  V30 3416 C 310.886 5.78464 -2.00114 0
M  V30 3417 N 310.023 6.86521 -1.47083 0
M  V30 3418 H 314.863 2.39548 -1.77259 0
M  V30 3419 H 312.4 1.17543 -0.884425 0
M  V30 3420 H 314.358 4.17179 -0.0419409 0
M  V30 3421 H 312.988 3.18419 0.530037 0
M  V30 3422 H 312.04 3.30297 -1.88701 0
M  V30 3423 H 313.352 4.43567 -2.28144 0
M  V30 3424 H 312.506 6.04131 -0.557698 0
M  V30 3425 H 311.245 4.87658 -0.0636583 0
M  V30 3426 H 310.25 4.96243 -2.36692 0
M  V30 3427 H 311.475 6.16126 -2.85597 0
M  V30 3428 H 309.421 6.52849 -0.642198 0
M  V30 3429 H 309.338 7.22446 -2.22729 0
M  V30 3430 H 310.606 7.71087 -1.14215 0
M  V30 3431 N 314.835 0.952656 1.25548 0
M  V30 3432 C 315.765 0.489287 2.28316 0
M  V30 3433 C 316.746 -0.463359 1.63667 0
M  V30 3434 O 317.931 -0.36274 1.90782 0
M  V30 3435 C 315.061 -0.235603 3.465 0
M  V30 3436 C 314.015 0.631593 4.23314 0
M  V30 3437 C 313.341 -0.223923 5.34231 0
M  V30 3438 C 314.641 1.90871 4.86174 0
M  V30 3439 H 316.335 1.34822 2.67326 0
M  V30 3440 H 313.881 0.649728 1.28509 0
M  V30 3441 H 315.834 -0.570882 4.17515 0
M  V30 3442 H 314.558 -1.12877 3.06474 0
M  V30 3443 H 313.217 0.949929 3.54079 0
M  V30 3444 H 312.865 -1.11678 4.90446 0
M  V30 3445 H 312.565 0.35299 5.86539 0
M  V30 3446 H 314.089 -0.554214 6.0808 0
M  V30 3447 H 315.503 1.63997 5.49343 0
M  V30 3448 H 313.9 2.43112 5.4865 0
M  V30 3449 H 314.97 2.61304 4.08471 0
M  V30 3450 N 316.313 -1.40141 0.720998 0
M  V30 3451 C 317.276 -2.29058 0.0805834 0
M  V30 3452 C 318.276 -1.45632 -0.681758 0
M  V30 3453 O 319.466 -1.6648 -0.512856 0
M  V30 3454 C 316.598 -3.28925 -0.895593 0
M  V30 3455 H 317.791 -2.87191 0.863793 0
M  V30 3456 H 315.344 -1.48553 0.485975 0
M  V30 3457 H 316.079 -2.75822 -1.70566 0
M  V30 3458 H 315.864 -3.90519 -0.351766 0
M  V30 3459 H 317.354 -3.95494 -1.34069 0
M  V30 3460 N 317.792 -0.46758 -1.50504 0
M  V30 3461 C 318.702 0.33382 -2.32213 0
M  V30 3462 C 319.718 0.999323 -1.42441 0
M  V30 3463 O 320.894 0.988068 -1.75497 0
M  V30 3464 C 317.959 1.4035 -3.17022 0
M  V30 3465 C 317.02 0.754961 -4.2261 0
M  V30 3466 C 316.253 1.77367 -5.03365 0
M  V30 3467 O 316.476 2.99976 -4.8515 0
M  V30 3468 O 315.41 1.34744 -5.86624 0
M  V30 3469 H 319.236 -0.334067 -3.01857 0
M  V30 3470 H 316.821 -0.229496 -1.47627 0
M  V30 3471 H 318.703 2.02318 -3.69656 0
M  V30 3472 H 317.378 2.05492 -2.5011 0
M  V30 3473 H 316.285 0.0964244 -3.73976 0
M  V30 3474 H 317.618 0.146545 -4.91982 0
M  V30 3475 N 319.27 1.56325 -0.20005 0
M  V30 3476 C 320.686 1.58839 0.155716 0
M  V30 3477 C 320.886 1.21636 1.60645 0
M  V30 3478 O 319.942 0.941437 2.34293 0
M  V30 3479 C 321.255 3.0032 -0.151124 0
M  V30 3480 C 322.803 3.12866 -0.0916284 0
M  V30 3481 C 323.278 4.56488 -0.371845 0
M  V30 3482 N 324.769 4.62089 -0.320641 0
M  V30 3483 C 325.504 5.71116 -0.511243 0
M  V30 3484 N 325 6.88592 -0.762461 0
M  V30 3485 N 326.793 5.60335 -0.445157 0
M  V30 3486 H 318.944 1.78788 -1.14668 0
M  V30 3487 H 321.207 0.829996 -0.458051 0
M  V30 3488 H 320.913 3.32117 -1.15721 0
M  V30 3489 H 320.787 3.73257 0.543986 0
M  V30 3490 H 323.174 2.80878 0.905065 0
M  V30 3491 H 323.255 2.42304 -0.81989 0
M  V30 3492 H 322.899 4.89189 -1.36588 0
M  V30 3493 H 322.829 5.25246 0.377362 0
M  V30 3494 H 325.32 3.77665 -0.13329 0
M  V30 3495 H 325.633 7.67581 -0.896576 0
M  V30 3496 H 323.978 6.90387 -0.799412 0
M  V30 3497 H 327.169 4.67436 -0.249278 0
M  V30 3498 H 327.342 6.45243 -0.597116 0
M  V30 3499 N 320.748 -0.0735177 1.57428 0
M  V30 3500 C 321.994 -0.774145 1.87443 0
M  V30 3501 C 322.327 -1.77311 0.792103 0
M  V30 3502 O 321.602 -1.93492 -0.197793 0
M  V30 3503 C 321.885 -1.48367 3.28115 0
M  V30 3504 C 321.738 -0.501227 4.46999 0
M  V30 3505 C 323.057 -2.429 3.66998 0
M  V30 3506 H 320.176 -0.279971 0.681752 0
M  V30 3507 H 322.818 -0.0373616 1.89963 0
M  V30 3508 H 320.968 -2.11171 3.26097 0
M  V30 3509 H 322.64 0.121468 4.6114 0
M  V30 3510 H 320.883 0.183593 4.33411 0
M  V30 3511 H 321.554 -1.03526 5.42205 0
M  V30 3512 H 324.03 -1.90175 3.70098 0
M  V30 3513 H 322.906 -2.89549 4.66318 0
M  V30 3514 H 323.167 -3.27628 2.96837 0
M  V30 3515 N 322.226 -1.5378 -0.344866 0
M  V30 3516 C 323.642 -1.44015 -0.687888 0
M  V30 3517 C 323.842 -0.595834 -1.92489 0
M  V30 3518 O 322.898 -0.0863064 -2.52352 0
M  V30 3519 C 324.211 -2.87481 -0.881758 0
M  V30 3520 C 325.759 -2.97247 -0.980459 0
M  V30 3521 C 326.234 -4.41819 -1.20665 0
M  V30 3522 N 327.725 -4.45339 -1.27389 0
M  V30 3523 C 328.46 -5.54333 -1.46639 0
M  V30 3524 N 327.956 -6.73335 -1.63071 0
M  V30 3525 N 329.749 -5.41944 -1.49176 0
M  V30 3526 H 321.9 -2.07169 0.468475 0
M  V30 3527 H 324.163 -0.93643 0.147655 0
M  V30 3528 H 323.869 -3.51672 -0.0443444 0
M  V30 3529 H 323.743 -3.32352 -1.78388 0
M  V30 3530 H 326.13 -2.33197 -1.8084 0
M  V30 3531 H 326.211 -2.5574 -0.0552713 0
M  V30 3532 H 325.855 -5.06449 -0.383652 0
M  V30 3533 H 325.785 -4.80917 -2.14539 0
M  V30 3534 H 328.276 -3.59585 -1.1622 0
M  V30 3535 H 328.589 -7.52165 -1.77391 0
M  V30 3536 H 326.934 -6.76282 -1.60209 0
M  V30 3537 H 330.125 -4.47932 -1.3592 0
M  V30 3538 H 330.298 -6.26946 -1.63837 0
M  V30 3539 N 323.704 0.605807 -1.45491 0
M  V30 3540 C 324.981 1.36522 -1.40075 0
M  V30 3541 C 325.361 2.10976 -0.0722744 0
M  V30 3542 O 324.709 2.08007 0.945808 0
M  V30 3543 C 324.919 2.31056 -2.61561 0
M  V30 3544 C 326.267 2.93608 -3.06724 0
M  V30 3545 O 327.291 2.41376 -2.61946 0
M  V30 3546 O 326.15 3.88421 -3.84437 0
M  V30 3547 H 323.244 0.612248 -0.555951 0
M  V30 3548 H 325.79 0.628747 -1.57623 0
M  V30 3549 H 324.562 1.75311 -3.49831 0
M  V30 3550 H 324.185 3.12081 -2.46356 0
M  V30 3551 N 325.182 1.32811 0.848464 0
M  V30 3552 C 326.407 1.26882 1.6406 0
M  V30 3553 C 326.832 -0.15913 1.87426 0
M  V30 3554 O 326.19 -1.11258 1.43148 0
M  V30 3555 C 326.238 2.03997 2.97351 0
M  V30 3556 O 325.342 1.39201 3.88197 0
M  V30 3557 H 324.683 0.436982 0.499943 0
M  V30 3558 H 327.213 1.75224 1.0563 0
M  V30 3559 H 327.223 2.14403 3.47124 0
M  V30 3560 H 325.898 3.0783 2.79666 0
M  V30 3561 H 324.475 1.37381 3.46671 0
M  V30 3562 N 326.66 -1.06551 1.16123 0
M  V30 3563 C 327.906 -1.79719 0.952505 0
M  V30 3564 C 328.261 -1.85396 -0.514385 0
M  V30 3565 O 327.554 -1.33263 -1.37665 0
M  V30 3566 C 327.748 -3.23911 1.51052 0
M  V30 3567 C 327.577 -3.32284 3.03013 0
M  V30 3568 C 326.347 -3.42371 3.71632 0
M  V30 3569 C 328.545 -3.22363 4.00732 0
M  V30 3570 N 326.527 -3.39732 5.11327 0
M  V30 3571 C 327.898 -3.26937 5.26794 0
M  V30 3572 C 329.953 -3.0623 3.92591 0
M  V30 3573 C 328.656 -3.17035 6.45663 0
M  V30 3574 C 330.682 -2.97665 5.11028 0
M  V30 3575 C 330.044 -3.02858 6.35969 0
M  V30 3576 H 326.143 -0.670585 0.402293 0
M  V30 3577 H 328.727 -1.27125 1.4747 0
M  V30 3578 H 326.898 -3.74907 1.01484 0
M  V30 3579 H 328.63 -3.85242 1.2398 0
M  V30 3580 H 325.385 -3.47058 3.22254 0
M  V30 3581 H 325.809 -3.41919 5.84312 0
M  V30 3582 H 330.451 -3.01063 2.96852 0
M  V30 3583 H 328.169 -3.2096 7.41627 0
M  V30 3584 H 331.755 -2.86273 5.06497 0
M  V30 3585 H 330.635 -2.96286 7.26075 0
M  V30 3586 N 328.138 -0.959301 -1.25041 0
M  V30 3587 C 329.085 -0.482057 -2.2571 0
M  V30 3588 C 330.055 0.467939 -1.59372 0
M  V30 3589 O 331.24 0.380159 -1.86974 0
M  V30 3590 C 328.38 0.229623 -3.44335 0
M  V30 3591 C 327.493 -0.758156 -4.25295 0
M  V30 3592 C 326.628 -0.0234403 -5.31195 0
M  V30 3593 C 325.667 -1.00184 -6.03846 0
M  V30 3594 N 324.804 -0.29769 -7.01469 0
M  V30 3595 H 329.644 -1.34538 -2.65901 0
M  V30 3596 H 327.181 -0.674592 -1.3072 0
M  V30 3597 H 329.139 0.658856 -4.11965 0
M  V30 3598 H 327.769 1.05696 -3.05005 0
M  V30 3599 H 326.821 -1.30586 -3.57284 0
M  V30 3600 H 328.133 -1.50458 -4.75567 0
M  V30 3601 H 327.287 0.464201 -6.04922 0
M  V30 3602 H 326.026 0.755741 -4.81809 0
M  V30 3603 H 325.031 -1.50044 -5.2893 0
M  V30 3604 H 326.256 -1.78133 -6.55321 0
M  V30 3605 H 324.202 0.462668 -6.54366 0
M  V30 3606 H 324.119 -0.983128 -7.4958 0
M  V30 3607 H 325.387 0.16826 -7.79318 0
M  V30 3608 N 329.616 1.39756 -0.72842 0
M  V30 3609 C 330.526 2.34444 -0.0855374 0
M  V30 3610 C 331.542 1.57976 0.729356 0
M  V30 3611 O 332.718 1.90301 0.659346 0
M  V30 3612 C 329.783 3.36965 0.815798 0
M  V30 3613 C 328.844 4.29299 -0.0105996 0
M  V30 3614 C 328.077 5.26923 0.84781 0
M  V30 3615 O 328.3 5.30859 2.08673 0
M  V30 3616 O 327.234 6.01249 0.279969 0
M  V30 3617 H 331.06 2.91065 -0.866892 0
M  V30 3618 H 328.645 1.4117 -0.48902 0
M  V30 3619 H 330.527 3.99804 1.33171 0
M  V30 3620 H 329.202 2.82739 1.57608 0
M  V30 3621 H 328.109 3.69703 -0.571877 0
M  V30 3622 H 329.442 4.86712 -0.73295 0
M  V30 3623 N 331.094 0.475555 1.50254 0
M  V30 3624 C 332.371 -0.139685 1.95101 0
M  V30 3625 C 332.751 -1.56555 1.41611 0
M  V30 3626 O 332.099 -2.19956 0.618993 0
M  V30 3627 C 332.309 -0.0784298 3.48912 0
M  V30 3628 C 333.657 -0.265095 4.23772 0
M  V30 3629 O 334.681 -0.154808 3.55863 0
M  V30 3630 O 333.54 -0.488327 5.44314 0
M  V30 3631 H 330.634 -0.109236 0.819754 0
M  V30 3632 H 333.18 0.536276 1.61004 0
M  V30 3633 H 331.952 0.916918 3.80405 0
M  V30 3634 H 331.575 -0.795655 3.89558 0
M  V30 3635 N 332.573 -1.56217 0.208337 0
M  V30 3636 C 333.536 -2.18455 -0.693557 0
M  V30 3637 C 334.536 -1.14268 -1.13135 0
M  V30 3638 O 335.726 -1.39577 -1.0423 0
M  V30 3639 C 332.858 -2.79727 -1.94848 0
M  V30 3640 H 334.051 -2.99519 -0.15114 0
M  V30 3641 H 331.604 -1.56245 -0.041287 0
M  V30 3642 H 332.339 -2.02497 -2.53309 0
M  V30 3643 H 332.124 -3.56009 -1.64316 0
M  V30 3644 H 333.614 -3.27475 -2.59133 0
M  V30 3645 N 334.051 0.0651679 -1.57465 0
M  V30 3646 C 334.981 1.07693 -2.07182 0
M  V30 3647 C 335.962 1.39962 -0.966673 0
M  V30 3648 O 337.147 1.49475 -1.2398 0
M  V30 3649 C 334.277 2.3885 -2.52127 0
M  V30 3650 C 333.231 2.20917 -3.66579 0
M  V30 3651 C 332.557 3.57515 -3.97601 0
M  V30 3652 C 333.857 1.62493 -4.9638 0
M  V30 3653 H 335.551 0.663199 -2.91962 0
M  V30 3654 H 333.097 0.317569 -1.40455 0
M  V30 3655 H 335.05 3.09928 -2.85522 0
M  V30 3656 H 333.774 2.82215 -1.64384 0
M  V30 3657 H 332.433 1.52279 -3.33477 0
M  V30 3658 H 332.081 3.98463 -3.06979 0
M  V30 3659 H 331.781 3.46353 -4.74672 0
M  V30 3660 H 333.305 4.30013 -4.33499 0
M  V30 3661 H 334.719 2.23445 -5.27963 0
M  V30 3662 H 333.116 1.62009 -5.77818 0
M  V30 3663 H 334.186 0.587041 -4.81333 0
M  V30 3664 N 335.529 1.53961 0.336706 0
M  V30 3665 C 336.776 1.71536 1.07618 0
M  V30 3666 C 337.104 0.482125 1.8843 0
M  V30 3667 O 336.359 -0.536142 1.88213 0
M  V30 3668 C 336.658 2.93493 2.03953 0
M  V30 3669 C 336.324 4.28811 1.39399 0
M  V30 3670 C 334.986 4.65602 1.21523 0
M  V30 3671 C 337.338 5.12844 0.929541 0
M  V30 3672 C 334.666 5.84037 0.558312 0
M  V30 3673 C 337.018 6.31951 0.286505 0
M  V30 3674 C 335.682 6.67432 0.0954869 0
M  V30 3675 H 334.952 0.627696 0.393801 0
M  V30 3676 H 337.599 1.88186 0.354715 0
M  V30 3677 H 335.904 2.71475 2.82504 0
M  V30 3678 H 337.601 3.04285 2.61174 0
M  V30 3679 H 334.191 3.99858 1.54311 0
M  V30 3680 H 338.375 4.84947 1.05548 0
M  V30 3681 H 333.631 6.10097 0.398995 0
M  V30 3682 H 337.805 6.96352 -0.0814376 0
M  V30 3683 H 335.432 7.59063 -0.415579 0
M  V30 3684 N 337.007 -0.598083 1.45811 0
M  V30 3685 C 338.255 -1.35413 1.50026 0
M  V30 3686 C 338.576 -1.94444 0.147177 0
M  V30 3687 O 337.846 -1.77701 -0.824571 0
M  V30 3688 H 336.426 -0.502727 0.552517 0
M  V30 3689 H 339.088 -0.701606 1.81834 0
M  V30 3690 H 338.184 -2.16871 2.2444 0
M  V30 3691 N 338.485 -1.33259 -0.841409 0
M  V30 3692 C 339.715 -1.2742 -1.62628 0
M  V30 3693 C 340.123 0.157604 -1.88542 0
M  V30 3694 O 339.466 1.10938 -1.46419 0
M  V30 3695 C 339.528 -1.97797 -3.00194 0
M  V30 3696 C 339.192 -3.47109 -2.97261 0
M  V30 3697 C 340.189 -4.42358 -2.73159 0
M  V30 3698 C 337.874 -3.89247 -3.17478 0
M  V30 3699 C 339.868 -5.77718 -2.69296 0
M  V30 3700 C 337.555 -5.24713 -3.13241 0
M  V30 3701 C 338.553 -6.1876 -2.89181 0
M  V30 3702 O 338.241 -7.51745 -2.84843 0
M  V30 3703 H 337.973 -0.440436 -0.512827 0
M  V30 3704 H 340.527 -1.76153 -1.05638 0
M  V30 3705 H 338.757 -1.43652 -3.59028 0
M  V30 3706 H 340.446 -1.8549 -3.61038 0
M  V30 3707 H 341.212 -4.11127 -2.57294 0
M  V30 3708 H 337.091 -3.16456 -3.35226 0
M  V30 3709 H 340.635 -6.51097 -2.50436 0
M  V30 3710 H 336.532 -5.55569 -3.28654 0
M  V30 3711 H 337.3 -7.61262 -3.00702 0
M  V30 3712 N 339.963 1.05934 -1.16686 0
M  V30 3713 C 340.895 2.13468 -0.834503 0
M  V30 3714 C 341.908 1.62013 0.15984 0
M  V30 3715 O 343.097 1.7838 -0.0654228 0
M  V30 3716 C 340.197 3.3817 -0.222361 0
M  V30 3717 C 339.37 4.18928 -1.25771 0
M  V30 3718 C 338.429 5.21985 -0.664703 0
M  V30 3719 O 337.455 5.53334 -1.33453 0
M  V30 3720 N 338.657 5.77919 0.546834 0
M  V30 3721 H 341.422 2.42578 -1.75999 0
M  V30 3722 H 338.983 1.21967 -1.06469 0
M  V30 3723 H 340.975 4.04266 0.187472 0
M  V30 3724 H 339.545 3.06655 0.606758 0
M  V30 3725 H 338.765 3.48433 -1.84358 0
M  V30 3726 H 340.053 4.69687 -1.95631 0
M  V30 3727 H 339.451 5.54721 1.10912 0
M  V30 3728 H 338.008 6.45573 0.898829 0
M  V30 3729 N 341.441 0.965919 1.2453 0
M  V30 3730 C 342.688 0.626831 1.92554 0
M  V30 3731 C 343.016 -0.837739 1.75534 0
M  V30 3732 O 342.271 -1.61793 1.10098 0
M  V30 3733 C 342.57 0.945428 3.44669 0
M  V30 3734 C 342.236 2.39785 3.81856 0
M  V30 3735 C 340.898 2.79483 3.91718 0
M  V30 3736 C 343.25 3.34055 4.00071 0
M  V30 3737 C 340.578 4.12496 4.1721 0
M  V30 3738 C 342.93 4.66694 4.27059 0
M  V30 3739 C 341.594 5.06172 4.3514 0
M  V30 3740 H 340.864 0.229374 0.704605 0
M  V30 3741 H 343.511 1.21707 1.4785 0
M  V30 3742 H 341.816 0.272926 3.90848 0
M  V30 3743 H 343.513 0.661484 3.95507 0
M  V30 3744 H 340.103 2.08003 3.74743 0
M  V30 3745 H 344.287 3.04571 3.91855 0
M  V30 3746 H 339.543 4.42709 4.21685 0
M  V30 3747 H 343.717 5.3971 4.40097 0
M  V30 3748 H 341.344 6.09262 4.54646 0
M  V30 3749 N 342.919 -1.39368 0.735821 0
M  V30 3750 C 343.849 -2.33234 0.111506 0
M  V30 3751 C 344.83 -1.53954 -0.723334 0
M  V30 3752 O 346.015 -1.82344 -0.668147 0
M  V30 3753 C 343.145 -3.38057 -0.795917 0
M  V30 3754 C 342.099 -4.2795 -0.065172 0
M  V30 3755 C 341.425 -5.23479 -1.08967 0
M  V30 3756 C 342.725 -5.10741 1.09273 0
M  V30 3757 H 344.419 -2.85692 0.895571 0
M  V30 3758 H 341.965 -1.37364 0.432109 0
M  V30 3759 H 343.918 -4.02675 -1.24221 0
M  V30 3760 H 342.642 -2.8404 -1.61211 0
M  V30 3761 H 341.301 -3.64813 0.361511 0
M  V30 3762 H 340.949 -4.65758 -1.89944 0
M  V30 3763 H 340.649 -5.84472 -0.605489 0
M  V30 3764 H 342.173 -5.90974 -1.53565 0
M  V30 3765 H 343.587 -5.68699 0.724841 0
M  V30 3766 H 341.984 -5.8088 1.50659 0
M  V30 3767 H 343.054 -4.45525 1.91404 0
M  V30 3768 N 344.397 -0.483516 -1.5 0
M  V30 3769 C 345.345 0.318061 -2.30415 0
M  V30 3770 C 346.339 0.978988 -1.38247 0
M  V30 3771 O 347.545 0.908673 -1.55381 0
M  V30 3772 H 343.92 0.121419 -0.742133 0
M  V30 3773 H 345.891 -0.380403 -2.95965 0
M  V30 3774 C 344.64 1.38013 -3.19136 0
M  V30 3775 H 343.963 0.880952 -3.89973 0
M  V30 3776 H 345.403 1.91332 -3.78375 0
M  V30 3777 C 343.862 2.38884 -2.37563 0
M  V30 3778 O 344.392 3.44412 -2.06744 0
M  V30 3779 N 342.598 2.10912 -1.99911 0
M  V30 3780 H 342.145 1.25118 -2.25174 0
M  V30 3781 H 342.103 2.78635 -1.45636 0
M  V30 3782 N 345.875 1.56104 -0.216619 0
M  V30 3783 C 347.123 1.97781 0.415593 0
M  V30 3784 C 347.444 1.10536 1.60645 0
M  V30 3785 O 346.714 0.181303 1.95059 0
M  V30 3786 H 345.294 0.730415 0.156534 0
M  V30 3787 H 347.956 1.92445 -0.308366 0
M  V30 3788 H 347.052 3.03072 0.74525 0
M  V30 3789 N 347.353 -0.0568162 1.57498 0
M  V30 3790 C 348.316 -1.05038 2.03715 0
M  V30 3791 C 349.316 -1.30709 0.936577 0
M  V30 3792 O 350.506 -1.26178 1.20103 0
M  V30 3793 C 347.638 -2.39034 2.43055 0
M  V30 3794 H 348.831 -0.651715 2.92733 0
M  V30 3795 H 346.384 -0.302947 1.53336 0
M  V30 3796 H 347.119 -2.83703 1.57108 0
M  V30 3797 H 346.904 -2.21739 3.2338 0
M  V30 3798 H 348.394 -3.10421 2.79336 0
M  V30 3799 N 348.832 -1.54138 -0.328536 0
M  V30 3800 C 349.78 -1.83894 -1.42428 0
M  V30 3801 C 350.774 -0.710478 -1.53781 0
M  V30 3802 O 351.98 -0.894062 -1.56226 0
M  V30 3803 H 348.355 -0.582837 -0.475189 0
M  V30 3804 H 350.326 -2.75537 -1.14552 0
M  V30 3805 C 349.075 -2.07866 -2.78724 0
M  V30 3806 H 348.398 -2.94158 -2.7076 0
M  V30 3807 H 349.838 -2.32644 -3.54476 0
M  V30 3808 C 348.297 -0.868689 -3.25508 0
M  V30 3809 O 348.827 -0.0754908 -4.01629 0
M  V30 3810 N 347.033 -0.681711 -2.82491 0
M  V30 3811 H 346.58 -1.32838 -2.20708 0
M  V30 3812 H 346.538 0.126374 -3.14146 0
M  V30 3813 N 350.31 0.590341 -1.46126 0
M  V30 3814 C 351.721 1.17243 -1.45296 0
M  V30 3815 C 352.072 1.95281 -0.189723 0
M  V30 3816 O 351.197 2.04502 0.707674 0
M  V30 3817 C 351.792 2.13284 -2.6324 0
M  V30 3818 C 350.351 2.66832 -2.65476 0
M  V30 3819 C 349.498 1.42557 -2.3785 0
M  V30 3820 H 352.449 0.378692 -1.54116 0
M  V30 3821 H 352.47 2.96619 -2.38323 0
M  V30 3822 H 351.982 1.56459 -3.55165 0
M  V30 3823 H 350.083 3.27548 -1.77603 0
M  V30 3824 H 350.196 3.10088 -3.65215 0
M  V30 3825 H 348.56 1.72107 -1.87753 0
M  V30 3826 H 349.343 0.875741 -3.31942 0
M  V30 3827 N 351.788 1.33704 0.83433 0
M  V30 3828 C 353.034 1.25603 1.59222 0
M  V30 3829 C 353.367 -0.176659 1.93395 0
M  V30 3830 O 352.642 -1.11915 1.59076 0
M  V30 3831 C 352.925 2.13576 2.89926 0
M  V30 3832 C 352.778 3.65326 2.62406 0
M  V30 3833 C 354.097 2.01238 3.91397 0
M  V30 3834 H 351.216 0.457613 0.577719 0
M  V30 3835 H 353.858 1.63848 0.961972 0
M  V30 3836 H 352.008 1.8109 3.43713 0
M  V30 3837 H 353.68 4.08124 2.15017 0
M  V30 3838 H 351.923 3.8698 1.96033 0
M  V30 3839 H 352.594 4.22232 3.55562 0
M  V30 3840 H 355.07 2.29738 3.46929 0
M  V30 3841 H 353.946 2.65036 4.80673 0
M  V30 3842 H 354.207 0.985951 4.30966 0
M  V30 3843 N 353.266 -1.05314 1.17247 0
M  V30 3844 C 354.512 -1.78557 0.961513 0
M  V30 3845 C 354.845 -1.87419 -0.508697 0
M  V30 3846 O 354.12 -1.37307 -1.37757 0
M  V30 3847 C 354.403 -3.22514 1.60176 0
M  V30 3848 C 354.256 -3.21673 3.14399 0
M  V30 3849 C 355.575 -4.20318 1.30463 0
M  V30 3850 H 352.694 -0.6482 0.350723 0
M  V30 3851 H 355.336 -1.23102 1.44727 0
M  V30 3852 H 353.486 -3.69867 1.18871 0
M  V30 3853 H 355.158 -2.82405 3.64753 0
M  V30 3854 H 353.401 -2.60048 3.47214 0
M  V30 3855 H 354.072 -4.23271 3.54324 0
M  V30 3856 H 356.548 -3.81454 1.66229 0
M  V30 3857 H 355.424 -5.19289 1.77848 0
M  V30 3858 H 355.685 -4.41526 0.22521 0
M  V30 3859 N 354.744 -0.972509 -1.24016 0
M  V30 3860 C 355.674 -0.525548 -2.27509 0
M  V30 3861 C 356.655 0.437262 -1.64384 0
M  V30 3862 O 357.84 0.332343 -1.91335 0
M  V30 3863 C 354.97 0.180448 -3.46831 0
M  V30 3864 C 353.924 -0.698859 -4.22256 0
M  V30 3865 C 353.25 0.138903 -5.3452 0
M  V30 3866 C 354.55 -1.98582 -4.83076 0
M  V30 3867 H 356.244 -1.39058 -2.65148 0
M  V30 3868 H 353.79 -0.67009 -1.27459 0
M  V30 3869 H 355.743 0.504387 -4.18371 0
M  V30 3870 H 354.467 1.07987 -3.08231 0
M  V30 3871 H 353.126 -1.00614 -3.52523 0
M  V30 3872 H 352.774 1.03862 -4.9216 0
M  V30 3873 H 352.474 -0.446259 -5.85903 0
M  V30 3874 H 353.998 0.457404 -6.08884 0
M  V30 3875 H 355.412 -1.72715 -5.46665 0
M  V30 3876 H 353.809 -2.5181 -5.44713 0
M  V30 3877 H 354.879 -2.67769 -4.04262 0
M  V30 3878 N 356.222 1.38976 -0.743202 0
M  V30 3879 C 357.638 1.53984 -0.419664 0
M  V30 3880 C 357.838 1.70837 1.0685 0
M  V30 3881 O 356.894 1.7135 1.8546 0
M  V30 3882 C 358.207 2.75287 -1.20985 0
M  V30 3883 C 359.755 2.89129 -1.19889 0
M  V30 3884 C 360.23 4.13381 -1.97181 0
M  V30 3885 N 361.721 4.20437 -1.94389 0
M  V30 3886 C 362.456 5.15547 -2.50996 0
M  V30 3887 N 361.952 6.16395 -3.16274 0
M  V30 3888 N 363.745 5.07822 -2.40984 0
M  V30 3889 H 355.896 1.26285 -1.7078 0
M  V30 3890 H 358.159 0.612689 -0.723406 0
M  V30 3891 H 357.865 2.69204 -2.26323 0
M  V30 3892 H 357.739 3.68184 -0.819759 0
M  V30 3893 H 360.126 2.947 -0.153606 0
M  V30 3894 H 360.207 1.97272 -1.62841 0
M  V30 3895 H 359.851 4.08572 -3.01714 0
M  V30 3896 H 359.781 5.04298 -1.51629 0
M  V30 3897 H 362.272 3.48205 -1.46839 0
M  V30 3898 H 362.585 6.85443 -3.56915 0
M  V30 3899 H 360.93 6.16758 -3.20367 0
M  V30 3900 H 364.121 4.27973 -1.89622 0
M  V30 3901 H 364.294 5.81767 -2.85397 0
M  V30 3902 N 357.7 0.491464 1.49741 0
M  V30 3903 C 359.116 0.146835 1.58923 0
M  V30 3904 C 359.316 -1.34804 1.49767 0
M  V30 3905 O 358.372 -2.12317 1.36667 0
M  V30 3906 C 359.685 0.715157 2.92072 0
M  V30 3907 C 361.233 0.680407 3.05515 0
M  V30 3908 C 361.708 1.22663 4.41269 0
M  V30 3909 N 363.199 1.18691 4.47735 0
M  V30 3910 C 363.934 1.57984 5.51207 0
M  V30 3911 N 363.43 2.04824 6.6183 0
M  V30 3912 N 365.223 1.49459 5.41866 0
M  V30 3913 H 357.374 1.46347 1.53936 0
M  V30 3914 H 359.637 0.606453 0.728642 0
M  V30 3915 H 359.343 1.76317 3.04311 0
M  V30 3916 H 359.217 0.17018 3.76816 0
M  V30 3917 H 361.604 -0.358743 2.92911 0
M  V30 3918 H 361.685 1.26242 2.22478 0
M  V30 3919 H 361.329 2.26451 4.54623 0
M  V30 3920 H 361.259 0.620637 5.2293 0
M  V30 3921 H 363.75 0.843605 3.68364 0
M  V30 3922 H 364.063 2.32901 7.3687 0
M  V30 3923 H 362.408 2.08791 6.62896 0
M  V30 3924 H 365.599 1.12692 4.54333 0
M  V30 3925 H 365.772 1.80406 6.22381 0
M  V30 3926 N 359.178 -1.55987 0.224894 0
M  V30 3927 C 360.403 -2.03232 -0.41369 0
M  V30 3928 C 360.828 -1.10359 -1.52323 0
M  V30 3929 O 360.186 -0.092395 -1.81064 0
M  V30 3930 C 360.234 -3.48682 -0.919405 0
M  V30 3931 O 359.338 -3.58947 -2.03054 0
M  V30 3932 H 358.679 -0.657428 -0.0931903 0
M  V30 3933 H 361.209 -2.01679 0.34451 0
M  V30 3934 H 361.219 -3.8907 -1.22835 0
M  V30 3935 H 359.894 -4.15761 -0.107339 0
M  V30 3936 H 358.471 -3.30448 -1.72796 0
M  V30 3937 N 360.656 0.0484629 -1.57525 0
M  V30 3938 C 361.619 1.03956 -2.04269 0
M  V30 3939 C 362.619 1.30211 -0.943496 0
M  V30 3940 O 363.809 1.25539 -1.20771 0
M  V30 3941 C 360.941 2.37742 -2.44319 0
M  V30 3942 H 362.134 0.636182 -2.93075 0
M  V30 3943 H 359.687 0.294811 -1.53494 0
M  V30 3944 H 360.422 2.82866 -1.5861 0
M  V30 3945 H 360.207 2.20021 -3.24551 0
M  V30 3946 H 361.697 3.08936 -2.80978 0
M  V30 3947 N 362.134 1.5431 0.320358 0
M  V30 3948 C 363.084 1.803 1.39556 0
M  V30 3949 C 364.068 0.659166 1.46778 0
M  V30 3950 O 365.26 0.91926 1.51257 0
M  V30 3951 C 362.389 2.03665 2.76361 0
M  V30 3952 C 361.475 3.24178 2.73439 0
M  V30 3953 N 361.866 4.4516 2.40137 0
M  V30 3954 C 360.164 3.25816 3.04565 0
M  V30 3955 C 360.865 5.27109 2.4603 0
M  V30 3956 N 359.841 4.64368 2.82601 0
M  V30 3957 H 363.643 2.71416 1.12742 0
M  V30 3958 H 361.157 1.53548 0.528856 0
M  V30 3959 H 363.154 2.20425 3.53862 0
M  V30 3960 H 361.814 1.13805 3.04103 0
M  V30 3961 H 362.825 4.72104 2.12927 0
M  V30 3962 H 359.502 2.46001 3.37328 0
M  V30 3963 H 360.892 6.33728 2.23246 0
M  V30 3964 N 363.613 -0.582584 1.46437 0
M  V30 3965 C 364.543 -1.70187 1.59871 0
M  V30 3966 C 365.524 -1.64066 0.449042 0
M  V30 3967 O 366.709 -1.82081 0.6753 0
M  V30 3968 C 363.839 -3.08827 1.58881 0
M  V30 3969 C 362.793 -3.29779 2.72819 0
M  V30 3970 C 362.119 -4.68947 2.5689 0
M  V30 3971 C 363.419 -3.17601 4.1464 0
M  V30 3972 H 365.113 -1.592 2.53566 0
M  V30 3973 H 362.659 -0.764472 1.22032 0
M  V30 3974 H 364.612 -3.86951 1.66873 0
M  V30 3975 H 363.336 -3.20713 0.617306 0
M  V30 3976 H 361.995 -2.54054 2.64296 0
M  V30 3977 H 361.643 -4.77599 1.57823 0
M  V30 3978 H 361.343 -4.83919 3.33312 0
M  V30 3979 H 362.867 -5.4924 2.66773 0
M  V30 3980 H 364.281 -3.8557 4.24274 0
M  V30 3981 H 362.678 -3.44094 4.9165 0
M  V30 3982 H 363.748 -2.14681 4.34788 0
M  V30 3983 N 365.091 -1.34144 -0.827227 0
M  V30 3984 C 366.502 -1.23557 -1.39966 0
M  V30 3985 C 366.853 0.140731 -1.95695 0
M  V30 3986 O 365.978 1.04087 -1.89723 0
M  V30 3987 C 366.573 -2.23708 -2.54441 0
M  V30 3988 C 365.132 -2.16924 -3.07605 0
M  V30 3989 C 364.279 -2.10549 -1.80456 0
M  V30 3990 H 367.23 -1.45573 -0.631991 0
M  V30 3991 H 367.251 -1.85157 -3.32411 0
M  V30 3992 H 366.763 -3.23866 -2.13851 0
M  V30 3993 H 364.864 -1.20107 -3.52711 0
M  V30 3994 H 364.977 -3.07988 -3.66988 0
M  V30 3995 H 363.341 -1.56203 -2.01178 0
M  V30 3996 H 364.124 -3.12535 -1.42046 0
M  V30 3997 N 366.569 1.04691 -1.17803 0
M  V30 3998 C 367.532 2.10724 -0.901545 0
M  V30 3999 C 368.532 1.6042 0.110437 0
M  V30 4000 O 369.722 1.7377 -0.122303 0
M  V30 4001 C 366.854 3.39084 -0.351409 0
M  V30 4002 H 368.047 2.36686 -1.84174 0
M  V30 4003 H 365.6 1.21015 -0.98919 0
M  V30 4004 H 366.335 3.18782 0.59569 0
M  V30 4005 H 366.12 3.76909 -1.08083 0
M  V30 4006 H 367.61 4.17227 -0.176451 0
M  V30 4007 N 368.047 0.979072 1.23499 0
M  V30 4008 C 369.463 0.687475 1.44034 0
M  V30 4009 C 369.663 -0.746801 1.8715 0
M  V30 4010 O 368.719 -1.51939 2.0167 0
M  V30 4011 C 370.032 1.68127 2.49307 0
M  V30 4012 C 371.58 1.69516 2.63122 0
M  V30 4013 C 372.055 2.67723 3.71603 0
M  V30 4014 N 373.546 2.66233 3.79044 0
M  V30 4015 C 374.281 3.38891 4.62537 0
M  V30 4016 N 373.777 4.21103 5.50131 0
M  V30 4017 N 375.57 3.27661 4.56721 0
M  V30 4018 H 367.721 1.90559 0.938135 0
M  V30 4019 H 369.984 0.821051 0.473897 0
M  V30 4020 H 369.69 2.70693 2.2454 0
M  V30 4021 H 369.564 1.46306 3.4767 0
M  V30 4022 H 371.951 0.676561 2.8724 0
M  V30 4023 H 372.032 1.95404 1.65079 0
M  V30 4024 H 371.676 3.69724 3.48233 0
M  V30 4025 H 371.606 2.39111 4.69184 0
M  V30 4026 H 374.097 2.06568 3.16446 0
M  V30 4027 H 374.41 4.73403 6.10827 0
M  V30 4028 H 372.755 4.25195 5.49759 0
M  V30 4029 H 375.946 2.62887 3.87309 0
M  V30 4030 H 376.119 3.84547 5.21562 0
M  V30 4031 N 369.525 -1.3858 0.750561 0
M  V30 4032 C 370.455 -2.33102 0.136237 0
M  V30 4033 C 371.436 -1.54713 -0.706965 0
M  V30 4034 O 372.621 -1.83043 -0.648769 0
M  V30 4035 C 369.751 -3.38882 -0.760017 0
M  V30 4036 C 368.705 -4.27995 -0.0197785 0
M  V30 4037 C 368.031 -5.24605 -1.03408 0
M  V30 4038 C 369.331 -5.09554 1.14684 0
M  V30 4039 H 371.025 -2.84726 0.925822 0
M  V30 4040 H 368.571 -1.36898 0.446654 0
M  V30 4041 H 370.524 -4.0397 -1.19943 0
M  V30 4042 H 369.248 -2.85734 -1.58189 0
M  V30 4043 H 367.907 -3.64409 0.400184 0
M  V30 4044 H 367.555 -4.67746 -1.84994 0
M  V30 4045 H 367.255 -5.85081 -0.543464 0
M  V30 4046 H 368.779 -5.9257 -1.47288 0
M  V30 4047 H 370.193 -5.67899 0.785118 0
M  V30 4048 H 368.59 -5.7925 1.56812 0
M  V30 4049 H 369.66 -4.4347 1.96118 0
M  V30 4050 N 371.003 -0.499398 -1.49478 0
M  V30 4051 C 372.249 0.0457576 -2.02748 0
M  V30 4052 C 372.582 1.36793 -1.37846 0
M  V30 4053 O 371.857 1.87596 -0.513601 0
M  V30 4054 C 372.14 0.199986 -3.59544 0
M  V30 4055 C 371.993 -1.1452 -4.34977 0
M  V30 4056 C 373.312 0.94137 -4.29914 0
M  V30 4057 H 370.431 0.0151552 -0.736844 0
M  V30 4058 H 373.073 -0.650498 -1.78518 0
M  V30 4059 H 371.223 0.793007 -3.8032 0
M  V30 4060 H 372.895 -1.77697 -4.25701 0
M  V30 4061 H 371.138 -1.73488 -3.97598 0
M  V30 4062 H 371.809 -0.990607 -5.43039 0
M  V30 4063 H 374.285 0.43844 -4.13784 0
M  V30 4064 H 373.161 1.01812 -5.39375 0
M  V30 4065 H 373.422 1.98471 -3.95046 0
M  V30 4066 N 372.481 1.55866 -0.233164 0
M  V30 4067 C 373.728 1.98603 0.395374 0
M  V30 4068 C 374.056 1.12105 1.58942 0
M  V30 4069 O 373.311 0.168656 1.94972 0
M  V30 4070 C 373.61 3.46856 0.861724 0
M  V30 4071 C 373.276 4.50348 -0.223066 0
M  V30 4072 C 371.938 4.78371 -0.521038 0
M  V30 4073 C 374.29 5.12355 -0.956124 0
M  V30 4074 C 371.618 5.6568 -1.55638 0
M  V30 4075 C 373.97 6.00786 -1.98089 0
M  V30 4076 C 372.634 6.27148 -2.28565 0
M  V30 4077 H 371.904 0.726739 0.144677 0
M  V30 4078 H 374.551 1.88491 -0.338114 0
M  V30 4079 H 372.856 3.5423 1.67418 0
M  V30 4080 H 374.553 3.77302 1.35809 0
M  V30 4081 H 371.143 4.28596 0.0193234 0
M  V30 4082 H 375.327 4.90765 -0.739166 0
M  V30 4083 H 370.583 5.84365 -1.798 0
M  V30 4084 H 374.757 6.4788 -2.55391 0
M  V30 4085 H 372.384 6.94597 -3.08932 0
M  V30 4086 N 373.959 -0.0401083 1.57549 0
M  V30 4087 C 375.37 -0.588097 1.77196 0
M  V30 4088 C 375.721 -1.76209 0.862832 0
M  V30 4089 O 374.846 -2.16331 0.0548389 0
M  V30 4090 C 375.441 -1.07363 3.21339 0
M  V30 4091 C 374 -1.56723 3.42221 0
M  V30 4092 C 373.147 -0.50041 2.72747 0
M  V30 4093 H 376.098 0.186119 1.57605 0
M  V30 4094 H 376.119 -1.94143 3.27244 0
M  V30 4095 H 375.631 -0.218975 3.87482 0
M  V30 4096 H 373.732 -2.4441 2.81237 0
M  V30 4097 H 373.845 -1.62234 4.50796 0
M  V30 4098 H 372.209 -0.952894 2.36203 0
M  V30 4099 H 372.992 0.344599 3.41566 0
M  V30 4100 N 375.437 -1.54477 -0.31217 0
M  V30 4101 C 376.848 -1.64344 -0.885891 0
M  V30 4102 C 377.199 -0.54485 -1.88483 0
M  V30 4103 O 376.324 0.320387 -2.14015 0
M  V30 4104 C 376.919 -2.97908 -1.61357 0
M  V30 4105 C 375.478 -3.09933 -2.13585 0
M  V30 4106 C 374.625 -2.59971 -0.964897 0
M  V30 4107 H 377.576 -1.58448 -0.0894528 0
M  V30 4108 H 377.597 -2.88706 -2.47848 0
M  V30 4109 H 377.109 -3.77845 -0.886277 0
M  V30 4110 H 375.21 -2.34694 -2.89395 0
M  V30 4111 H 375.323 -4.15916 -2.37804 0
M  V30 4112 H 373.687 -2.16147 -1.34731 0
M  V30 4113 H 374.47 -3.42376 -0.251742 0
M  V30 4114 N 376.915 0.57481 -1.46744 0
M  V30 4115 C 378.163 1.33009 -1.52161 0
M  V30 4116 C 378.484 1.94185 -0.178092 0
M  V30 4117 O 377.754 1.7899 0.796196 0
M  V30 4118 H 376.334 0.493873 -0.560445 0
M  V30 4119 H 378.996 0.672589 -1.82927 0
M  V30 4120 H 378.092 2.13273 -2.27862 0
M  V30 4121 N 378.394 1.34581 0.820102 0
M  V30 4122 C 379.327 1.20735 1.93644 0
M  V30 4123 C 380.305 0.0983343 1.62302 0
M  V30 4124 O 381.489 0.263997 1.86642 0
M  V30 4125 C 378.616 0.856037 3.27704 0
M  V30 4126 C 377.662 1.97521 3.78005 0
M  V30 4127 S 378.495 3.58906 3.97425 0
M  V30 4128 C 379.651 3.25822 5.34407 0
M  V30 4129 H 379.884 2.15231 2.05093 0
M  V30 4130 H 377.417 1.1964 0.97599 0
M  V30 4131 H 379.375 0.660133 4.05157 0
M  V30 4132 H 378.036 -0.0706253 3.14021 0
M  V30 4133 H 377.229 1.68321 4.75062 0
M  V30 4134 H 376.831 2.12875 3.07507 0
M  V30 4135 H 379.123 2.77812 6.17922 0
M  V30 4136 H 380.066 4.22029 5.68592 0
M  V30 4137 H 380.474 2.61932 5.00052 0
M  V30 4138 N 379.872 -1.04064 1.18357 0
M  V30 4139 C 380.782 -2.15569 0.925596 0
M  V30 4140 C 381.798 -1.7365 -0.110295 0
M  V30 4141 O 382.974 -2.01273 0.0716218 0
M  V30 4142 C 380.039 -3.43704 0.454836 0
M  V30 4143 C 379.1 -4.00004 1.55869 0
M  V30 4144 C 378.333 -5.22023 1.1103 0
M  V30 4145 O 378.556 -5.70392 -0.0309756 0
M  V30 4146 O 377.49 -5.70856 1.90805 0
M  V30 4147 H 381.316 -2.40187 1.8586 0
M  V30 4148 H 378.901 -1.1402 0.965394 0
M  V30 4149 H 380.783 -4.20923 0.200382 0
M  V30 4150 H 379.458 -3.20559 -0.449876 0
M  V30 4151 H 378.365 -3.24172 1.86716 0
M  V30 4152 H 379.698 -4.2749 2.43953 0
M  V30 4153 N 381.35 -0.985608 -1.22978 0
M  V30 4154 C 382.26 -0.538548 -2.28335 0
M  V30 4155 C 383.276 0.409163 -1.69121 0
M  V30 4156 O 384.452 0.277797 -1.99475 0
M  V30 4157 C 381.517 0.146867 -3.46389 0
M  V30 4158 C 380.578 -0.842896 -4.20944 0
M  V30 4159 C 379.811 -0.190095 -5.33361 0
M  V30 4160 O 380.034 1.01767 -5.61248 0
M  V30 4161 O 378.968 -0.891289 -5.95264 0
M  V30 4162 H 382.794 -1.41487 -2.68729 0
M  V30 4163 H 380.379 -0.753495 -1.29007 0
M  V30 4164 H 382.261 0.531125 -4.1804 0
M  V30 4165 H 380.936 0.997871 -3.07935 0
M  V30 4166 H 379.843 -1.27795 -3.51595 0
M  V30 4167 H 381.176 -1.66287 -4.6326 0
M  V30 4168 N 382.828 1.3818 -0.7579 0
M  V30 4169 C 383.758 2.33027 -0.148597 0
M  V30 4170 C 384.739 1.55085 0.69875 0
M  V30 4171 O 385.924 1.83384 0.639053 0
M  V30 4172 C 383.054 3.3928 0.742034 0
M  V30 4173 C 382.008 4.28 -0.00291946 0
M  V30 4174 C 381.334 5.25146 1.00625 0
M  V30 4175 C 382.634 5.08938 -1.17385 0
M  V30 4176 H 384.328 2.84231 -0.940909 0
M  V30 4177 H 381.874 1.36659 -0.453908 0
M  V30 4178 H 383.827 4.046 1.17799 0
M  V30 4179 H 382.551 2.86569 1.56671 0
M  V30 4180 H 381.21 3.64192 -0.419504 0
M  V30 4181 H 380.858 4.68721 1.8251 0
M  V30 4182 H 380.558 5.85361 0.512428 0
M  V30 4183 H 382.082 5.93342 1.44143 0
M  V30 4184 H 383.496 5.67474 -0.815224 0
M  V30 4185 H 381.893 5.7841 -1.59882 0
M  V30 4186 H 382.963 4.42424 -1.98468 0
M  V30 4187 N 384.306 0.507319 1.49211 0
M  V30 4188 C 385.238 -0.304532 2.27168 0
M  V30 4189 C 386.251 -0.924956 1.33972 0
M  V30 4190 O 387.44 -0.807227 1.59205 0
M  V30 4191 C 384.54 -1.44431 3.06583 0
M  V30 4192 C 383.713 -0.930026 4.27398 0
M  V30 4193 C 382.772 -1.94817 4.88807 0
M  V30 4194 O 381.798 -1.51418 5.4869 0
M  V30 4195 N 383 -3.279 4.79022 0
M  V30 4196 H 385.765 0.36395 2.97482 0
M  V30 4197 H 383.326 0.340249 1.58284 0
M  V30 4198 H 385.318 -2.12311 3.44537 0
M  V30 4199 H 383.888 -2.01684 2.38835 0
M  V30 4200 H 383.108 -0.0759244 3.94127 0
M  V30 4201 H 384.396 -0.564932 5.05654 0
M  V30 4202 H 383.794 -3.65843 4.3148 0
M  V30 4203 H 382.351 -3.91476 5.21142 0
M  V30 4204 N 385.784 -1.5574 0.241426 0
M  V30 4205 C 386.747 -2.19877 -0.647063 0
M  V30 4206 C 387.747 -1.16642 -1.10686 0
M  V30 4207 O 388.937 -1.41757 -1.01245 0
M  V30 4208 C 386.069 -2.83797 -1.88871 0
M  V30 4209 H 387.262 -2.99772 -0.087574 0
M  V30 4210 H 384.815 -1.56298 -0.00813574 0
M  V30 4211 H 385.55 -2.07824 -2.48957 0
M  V30 4212 H 385.335 -3.59414 -1.56728 0
M  V30 4213 H 386.825 -3.32898 -2.52129 0
M  V30 4214 N 387.262 0.0317525 -1.57568 0
M  V30 4215 C 388.194 1.06073 -2.03178 0
M  V30 4216 C 389.207 1.32627 -0.944132 0
M  V30 4217 O 390.396 1.30162 -1.22148 0
M  V30 4218 C 387.496 2.40297 -2.38978 0
M  V30 4219 C 386.669 2.33137 -3.70089 0
M  V30 4220 C 385.728 3.49787 -3.9311 0
M  V30 4221 O 384.754 3.29403 -4.64201 0
M  V30 4222 N 385.956 4.71562 -3.38541 0
M  V30 4223 H 388.721 0.672006 -2.92069 0
M  V30 4224 H 386.282 0.219745 -1.60402 0
M  V30 4225 H 388.274 3.1705 -2.51518 0
M  V30 4226 H 386.844 2.71024 -1.55771 0
M  V30 4227 H 386.064 1.415 -3.67928 0
M  V30 4228 H 387.352 2.25493 -4.56104 0
M  V30 4229 H 386.75 4.91024 -2.80912 0
M  V30 4230 H 385.307 5.45689 -3.56464 0
M  V30 4231 N 388.74 1.54641 0.303973 0
M  V30 4232 C 389.67 1.88386 1.3796 0
M  V30 4233 C 390.651 0.742485 1.5304 0
M  V30 4234 O 391.836 0.997959 1.66597 0
M  V30 4235 C 388.966 2.12854 2.74427 0
M  V30 4236 C 387.92 3.28702 2.74115 0
M  V30 4237 C 387.246 3.38582 4.13844 0
M  V30 4238 C 388.546 4.65881 2.3612 0
M  V30 4239 H 390.24 2.78474 1.09966 0
M  V30 4240 H 387.786 1.33988 0.527556 0
M  V30 4241 H 389.739 2.35047 3.49758 0
M  V30 4242 H 388.463 1.19535 3.03939 0
M  V30 4243 H 387.122 3.06428 2.0124 0
M  V30 4244 H 386.77 2.42784 4.40528 0
M  V30 4245 H 386.47 4.16453 4.14537 0
M  V30 4246 H 387.994 3.63031 4.90959 0
M  V30 4247 H 389.408 4.87823 3.01167 0
M  V30 4248 H 387.805 5.46444 2.48031 0
M  V30 4249 H 388.875 4.66799 1.3125 0
M  V30 4250 N 390.218 -0.567019 1.47046 0
M  V30 4251 C 391.128 -1.70247 1.6141 0
M  V30 4252 C 392.144 -1.66746 0.497157 0
M  V30 4253 O 393.32 -1.86371 0.763389 0
M  V30 4254 C 390.385 -3.06756 1.61561 0
M  V30 4255 C 389.446 -3.21399 2.84607 0
M  V30 4256 C 388.679 -4.51396 2.84741 0
M  V30 4257 O 388.902 -5.36255 1.94388 0
M  V30 4258 O 387.836 -4.69621 3.76483 0
M  V30 4259 H 391.662 -1.61073 2.57467 0
M  V30 4260 H 389.247 -0.735894 1.30019 0
M  V30 4261 H 391.129 -3.8801 1.64396 0
M  V30 4262 H 389.804 -3.16333 0.686684 0
M  V30 4263 H 388.711 -2.39579 2.8732 0
M  V30 4264 H 390.044 -3.16721 3.76761 0
M  V30 4265 N 391.696 -1.35014 -0.812953 0
M  V30 4266 C 392.643 -1.27412 -1.92444 0
M  V30 4267 C 393.613 -0.14733 -1.65445 0
M  V30 4268 O 394.798 -0.329974 -1.87925 0
M  V30 4269 C 391.938 -1.04558 -3.28879 0
M  V30 4270 C 391.051 -2.26101 -3.68106 0
M  V30 4271 C 390.186 -1.96449 -4.9354 0
M  V30 4272 C 389.225 -3.14081 -5.25376 0
M  V30 4273 N 388.362 -2.84246 -6.41988 0
M  V30 4274 H 393.202 -2.22463 -1.98278 0
M  V30 4275 H 390.739 -1.10593 -0.969933 0
M  V30 4276 H 392.697 -0.893413 -4.07522 0
M  V30 4277 H 391.327 -0.131719 -3.22531 0
M  V30 4278 H 390.379 -2.52204 -2.84775 0
M  V30 4279 H 391.691 -3.13959 -3.87597 0
M  V30 4280 H 390.845 -1.78026 -5.79993 0
M  V30 4281 H 389.584 -1.05867 -4.76071 0
M  V30 4282 H 388.589 -3.33089 -4.37415 0
M  V30 4283 H 389.814 -4.05455 -5.44778 0
M  V30 4284 H 387.76 -1.96252 -6.25956 0
M  V30 4285 H 387.677 -3.65637 -6.61699 0
M  V30 4286 H 388.945 -2.6935 -7.31485 0
M  V30 4287 N 393.175 1.03435 -1.18907 0
M  V30 4288 C 394.085 2.15075 -0.937015 0
M  V30 4289 C 395.101 1.73706 0.101085 0
M  V30 4290 O 396.277 2.01232 -0.0822948 0
M  V30 4291 C 393.342 3.43458 -0.473057 0
M  V30 4292 C 392.403 3.99172 -1.57989 0
M  V30 4293 C 391.636 5.21427 -1.13797 0
M  V30 4294 O 391.859 5.704 0.000725941 0
M  V30 4295 O 390.793 5.69837 -1.9383 0
M  V30 4296 H 394.619 2.39198 -1.87131 0
M  V30 4297 H 392.204 1.13506 -0.971427 0
M  V30 4298 H 394.086 4.20811 -0.222702 0
M  V30 4299 H 392.761 3.20793 0.432869 0
M  V30 4300 H 391.668 3.23178 -1.88433 0
M  V30 4301 H 393.001 4.2619 -2.46217 0
M  V30 4302 N 394.653 0.992116 1.22453 0
M  V30 4303 C 395.583 0.561677 2.26644 0
M  V30 4304 C 396.564 -0.411055 1.65059 0
M  V30 4305 O 397.749 -0.301861 1.9184 0
M  V30 4306 C 394.879 -0.125247 3.47074 0
M  V30 4307 C 393.833 0.765948 4.21091 0
M  V30 4308 C 393.159 -0.0538484 5.34673 0
M  V30 4309 C 394.459 2.06242 4.79856 0
M  V30 4310 H 396.153 1.43259 2.62902 0
M  V30 4311 H 393.699 0.690283 1.26377 0
M  V30 4312 H 395.652 -0.437764 4.1912 0
M  V30 4313 H 394.376 -1.03069 3.0991 0
M  V30 4314 H 393.035 1.0621 3.50878 0
M  V30 4315 H 392.683 -0.960188 4.9375 0
M  V30 4316 H 392.383 0.539415 5.85119 0
M  V30 4317 H 393.907 -0.360477 6.09535 0
M  V30 4318 H 395.321 1.8139 5.43848 0
M  V30 4319 H 393.718 2.60444 5.40638 0
M  V30 4320 H 394.788 2.74167 3.99951 0
M  V30 4321 N 396.131 -1.37776 0.765217 0
M  V30 4322 C 397.041 -2.34135 0.147666 0
M  V30 4323 C 398.057 -1.59854 -0.687215 0
M  V30 4324 O 399.233 -1.91983 -0.608659 0
M  V30 4325 C 396.298 -3.3901 -0.72617 0
M  V30 4326 C 395.359 -4.2912 0.124417 0
M  V30 4327 C 394.592 -5.28986 -0.707807 0
M  V30 4328 O 394.815 -5.36205 -1.94525 0
M  V30 4329 O 393.749 -6.01779 -0.12046 0
M  V30 4330 H 397.575 -2.88664 0.943758 0
M  V30 4331 H 395.16 -1.39824 0.526277 0
M  V30 4332 H 397.042 -4.03195 -1.22524 0
M  V30 4333 H 395.717 -2.86819 -1.50056 0
M  V30 4334 H 394.624 -3.68057 0.669696 0
M  V30 4335 H 395.957 -4.84598 0.861736 0
M  V30 4336 N 397.609 -0.515225 -1.4894 0
M  V30 4337 C 398.857 0.0241671 -2.02086 0
M  V30 4338 C 399.178 1.3616 -1.3959 0
M  V30 4339 O 398.448 1.87841 -0.556121 0
M  V30 4340 H 397.028 0.0119203 -0.746905 0
M  V30 4341 H 399.69 -0.675702 -1.82812 0
M  V30 4342 H 398.786 0.143385 -3.1177 0
M  V30 4343 N 399.087 1.5561 -0.249682 0
M  V30 4344 C 400.335 1.98618 0.373548 0
M  V30 4345 C 400.656 1.13919 1.58264 0
M  V30 4346 O 399.926 0.222637 1.94631 0
M  V30 4347 H 398.506 0.733571 0.141006 0
M  V30 4348 H 401.168 1.91748 -0.349117 0
M  V30 4349 H 400.264 3.04584 0.680796 0
M  V30 4350 N 400.565 -0.0233959 1.57583 0
M  V30 4351 C 401.793 -0.724682 1.93794 0
M  V30 4352 C 402.208 -1.68588 0.849912 0
M  V30 4353 O 401.565 -1.81676 -0.173204 0
M  V30 4354 C 401.616 -1.47684 3.29957 0
M  V30 4355 O 401.337 -0.554222 4.3458 0
M  V30 4356 C 402.838 -2.27477 3.80485 0
M  V30 4357 H 400.058 -0.203317 0.639455 0
M  V30 4358 H 402.602 0.0207653 2.04489 0
M  V30 4359 H 400.757 -2.17412 3.20641 0
M  V30 4360 H 401.171 -1.08232 5.13212 0
M  V30 4361 H 402.645 -2.7564 4.78254 0
M  V30 4362 H 403.122 -3.09144 3.11972 0
M  V30 4363 H 403.728 -1.62813 3.92902 0
M  V30 4364 N 402.043 -1.548 -0.295768 0
M  V30 4365 C 402.973 -1.89115 -1.36959 0
M  V30 4366 C 403.954 -0.75059 -1.52644 0
M  V30 4367 O 405.139 -1.00678 -1.66065 0
M  V30 4368 C 402.269 -2.14307 -2.73295 0
M  V30 4369 C 401.223 -3.30151 -2.72368 0
M  V30 4370 C 400.549 -3.40772 -4.12042 0
M  V30 4371 C 401.849 -4.67126 -2.33646 0
M  V30 4372 H 403.543 -2.79053 -1.08488 0
M  V30 4373 H 401.089 -1.34266 -0.520443 0
M  V30 4374 H 403.042 -2.36898 -3.48507 0
M  V30 4375 H 401.766 -1.21145 -3.03301 0
M  V30 4376 H 400.425 -3.0749 -1.99613 0
M  V30 4377 H 400.073 -2.45117 -4.39234 0
M  V30 4378 H 399.773 -4.18645 -4.12322 0
M  V30 4379 H 401.297 -3.6563 -4.89027 0
M  V30 4380 H 402.711 -4.89414 -2.98575 0
M  V30 4381 H 401.108 -5.47751 -2.45129 0
M  V30 4382 H 402.178 -4.67489 -1.28772 0
M  V30 4383 N 403.521 0.559213 -1.47345 0
M  V30 4384 C 404.768 1.31648 -1.53867 0
M  V30 4385 C 405.096 1.93468 -0.200104 0
M  V30 4386 O 404.351 1.78295 0.806799 0
M  V30 4387 C 404.65 2.44853 -2.6035 0
M  V30 4388 C 404.316 2.00876 -4.03683 0
M  V30 4389 C 402.978 1.88599 -4.42701 0
M  V30 4390 C 405.33 1.67279 -4.93626 0
M  V30 4391 C 402.658 1.41017 -5.69501 0
M  V30 4392 C 405.01 1.21169 -6.20887 0
M  V30 4393 C 403.674 1.07487 -6.58789 0
M  V30 4394 H 402.944 0.481734 -0.56304 0
M  V30 4395 H 405.591 0.627301 -1.80934 0
M  V30 4396 H 403.896 3.19318 -2.27032 0
M  V30 4397 H 405.593 3.03039 -2.62619 0
M  V30 4398 H 402.183 2.11374 -3.72853 0
M  V30 4399 H 406.367 1.75638 -4.64182 0
M  V30 4400 H 401.623 1.29086 -5.97618 0
M  V30 4401 H 405.797 0.942345 -6.89995 0
M  V30 4402 H 403.424 0.703946 -7.56934 0
M  V30 4403 N 404.999 1.35443 0.805782 0
M  V30 4404 C 405.909 1.30546 1.94923 0
M  V30 4405 C 406.925 0.210233 1.72725 0
M  V30 4406 O 408.101 0.43975 1.9654 0
M  V30 4407 C 405.166 1.07782 3.29521 0
M  V30 4408 C 404.227 2.26625 3.64609 0
M  V30 4409 C 403.46 2.04938 4.92784 0
M  V30 4410 O 403.683 1.01624 5.61274 0
M  V30 4411 O 402.617 2.9232 5.26149 0
M  V30 4412 H 406.443 2.26779 2.02002 0
M  V30 4413 H 404.028 1.15823 0.943682 0
M  V30 4414 H 405.91 0.969392 4.10098 0
M  V30 4415 H 404.585 0.146003 3.23371 0
M  V30 4416 H 403.492 2.43033 2.84404 0
M  V30 4417 H 404.825 3.18257 3.75464 0
M  V30 4418 N 406.477 -1.02803 1.19454 0
M  V30 4419 C 407.44 -2.09264 0.934955 0
M  V30 4420 C 408.44 -1.60576 -0.0849015 0
M  V30 4421 O 409.63 -1.73554 0.149933 0
M  V30 4422 C 406.762 -3.38482 0.40531 0
M  V30 4423 H 407.955 -2.33726 1.87916 0
M  V30 4424 H 405.508 -1.19426 1.00832 0
M  V30 4425 H 406.243 -3.19689 -0.544899 0
M  V30 4426 H 406.028 -3.75142 1.14065 0
M  V30 4427 H 407.518 -4.16894 0.242806 0
M  V30 4428 N 407.956 -0.998596 -1.21925 0
M  V30 4429 C 409.233 -0.593401 -1.86382 0
M  V30 4430 C 409.613 0.92916 -1.89552 0
M  V30 4431 O 408.961 1.81347 -1.39017 0
M  V30 4432 C 409.171 -1.22039 -3.26967 0
M  V30 4433 C 410.519 -1.32449 -4.03413 0
M  V30 4434 O 411.543 -1.17522 -3.36254 0
M  V30 4435 O 410.402 -1.56395 -5.23644 0
M  V30 4436 H 407.496 -0.202385 -0.801854 0
M  V30 4437 H 410.042 -1.09484 -1.29659 0
M  V30 4438 H 408.814 -2.26158 -3.19325 0
M  V30 4439 H 408.437 -0.704906 -3.91301 0
M  V30 4440 N 409.434 1.37368 -0.772513 0
M  V30 4441 C 410.681 1.99673 -0.337182 0
M  V30 4442 C 411.009 1.61324 1.0865 0
M  V30 4443 O 410.264 0.851377 1.7621 0
M  V30 4444 C 410.563 3.54817 -0.428876 0
M  V30 4445 C 410.229 4.12936 -1.81092 0
M  V30 4446 C 408.891 4.28523 -2.1891 0
M  V30 4447 C 411.243 4.44801 -2.71664 0
M  V30 4448 C 408.571 4.73277 -3.46735 0
M  V30 4449 C 410.923 4.90981 -3.98899 0
M  V30 4450 C 409.587 5.04773 -4.36761 0
M  V30 4451 H 408.857 0.730656 -0.123384 0
M  V30 4452 H 411.504 1.64124 -0.986686 0
M  V30 4453 H 409.809 3.90618 0.304167 0
M  V30 4454 H 411.506 4.00933 -0.0733334 0
M  V30 4455 H 408.096 4.01233 -1.50699 0
M  V30 4456 H 412.28 4.32344 -2.43706 0
M  V30 4457 H 407.536 4.82142 -3.75964 0
M  V30 4458 H 411.71 5.14603 -4.69208 0
M  V30 4459 H 409.337 5.39211 -5.35868 0
M  V30 4460 N 410.912 0.523116 1.48665 0
M  V30 4461 C 412.137 -0.0117284 2.07397 0
M  V30 4462 C 412.562 -1.28031 1.37803 0
M  V30 4463 O 411.92 -1.75836 0.441762 0
M  V30 4464 C 411.968 -0.225786 3.59892 0
M  V30 4465 O 411.072 -1.29592 3.91509 0
M  V30 4466 H 410.413 0.0360673 0.66302 0
M  V30 4467 H 412.943 0.729066 1.9117 0
M  V30 4468 H 412.953 -0.450552 4.05505 0
M  V30 4469 H 411.628 0.700944 4.09951 0
M  V30 4470 H 410.205 -1.05436 3.57684 0
M  V30 4471 N 412.39 -1.55475 0.257931 0
M  V30 4472 C 413.32 -2.24815 -0.630912 0
M  V30 4473 C 414.301 -1.23224 -1.17259 0
M  V30 4474 O 415.486 -1.51904 -1.20991 0
M  V30 4475 C 412.616 -2.95609 -1.82298 0
M  V30 4476 C 411.57 -4.03982 -1.41359 0
M  V30 4477 C 410.896 -4.6226 -2.68738 0
M  V30 4478 C 412.196 -5.19109 -0.57648 0
M  V30 4479 H 413.89 -2.99354 -0.0526878 0
M  V30 4480 H 411.436 -1.4398 -0.023901 0
M  V30 4481 H 413.389 -3.42822 -2.45054 0
M  V30 4482 H 412.113 -2.18577 -2.42676 0
M  V30 4483 H 410.772 -3.57555 -0.809324 0
M  V30 4484 H 410.42 -3.81915 -3.27338 0
M  V30 4485 H 410.12 -5.35424 -2.42065 0
M  V30 4486 H 411.644 -5.12212 -3.32372 0
M  V30 4487 H 413.058 -5.62479 -1.10861 0
M  V30 4488 H 411.455 -5.98729 -0.405351 0
M  V30 4489 H 412.525 -4.83174 0.408776 0
M  V30 4490 N 413.868 0.0150385 -1.57593 0
M  V30 4491 C 414.798 1.01047 -2.10503 0
M  V30 4492 C 415.779 1.36816 -1.01071 0
M  V30 4493 O 416.964 1.45455 -1.28672 0
M  V30 4494 C 414.094 2.30708 -2.59598 0
M  V30 4495 C 413.048 2.09142 -3.73421 0
M  V30 4496 C 412.374 3.44685 -4.08774 0
M  V30 4497 C 413.674 1.46619 -5.01298 0
M  V30 4498 H 415.368 0.569978 -2.93925 0
M  V30 4499 H 412.914 0.272724 -1.41394 0
M  V30 4500 H 414.867 3.00687 -2.95238 0
M  V30 4501 H 413.591 2.76843 -1.73279 0
M  V30 4502 H 412.25 1.41592 -3.38153 0
M  V30 4503 H 411.898 3.88495 -3.195 0
M  V30 4504 H 411.598 3.31077 -4.8545 0
M  V30 4505 H 413.122 4.16004 -4.4696 0
M  V30 4506 H 414.536 2.06535 -5.34805 0
M  V30 4507 H 412.933 1.43544 -5.82679 0
M  V30 4508 H 414.003 0.433611 -4.82957 0
M  V30 4509 N 415.346 1.54954 0.287554 0
M  V30 4510 C 416.623 1.65569 1.04146 0
M  V30 4511 C 417.003 0.512672 2.0478 0
M  V30 4512 O 416.351 -0.489038 2.23205 0
M  V30 4513 C 416.561 3.04163 1.71131 0
M  V30 4514 C 417.909 3.61429 2.22832 0
M  V30 4515 O 418.933 3.06702 1.81141 0
M  V30 4516 O 417.792 4.57281 2.9926 0
M  V30 4517 H 414.886 0.671881 0.482188 0
M  V30 4518 H 417.432 1.67297 0.28457 0
M  V30 4519 H 416.204 3.78796 0.981303 0
M  V30 4520 H 415.827 3.06271 2.53543 0
M  V30 4521 N 416.824 -0.551391 1.4764 0
M  V30 4522 C 418.072 -1.30572 1.54258 0
M  V30 4523 C 418.393 -1.93877 0.208963 0
M  V30 4524 O 417.663 -1.80234 -0.767619 0
M  V30 4525 H 416.243 -0.484894 0.568231 0
M  V30 4526 H 418.905 -0.643402 1.83974 0
M  V30 4527 H 418.001 -2.09621 2.31226 0
M  V30 4528 N 418.302 -1.35869 -0.798587 0
M  V30 4529 C 419.551 -1.28921 -1.5512 0
M  V30 4530 C 419.864 0.13208 -1.95154 0
M  V30 4531 O 421.07 0.323879 -2.69561 0
M  V30 4532 C 419.526 -2.26141 -2.79979 0
M  V30 4533 C 419.134 -3.73658 -2.47151 0
M  V30 4534 C 420.878 -2.28152 -3.57976 0
M  V30 4535 C 418.785 -4.62679 -3.6835 0
M  V30 4536 H 417.715 -0.479031 -0.582276 0
M  V30 4537 H 420.366 -1.61179 -0.877125 0
M  V30 4538 H 418.748 -1.86865 -3.49138 0
M  V30 4539 H 419.922 -4.21616 -1.85947 0
M  V30 4540 H 418.237 -3.74333 -1.82383 0
M  V30 4541 H 420.834 -2.91875 -4.4801 0
M  V30 4542 H 421.177 -1.28748 -3.95891 0
M  V30 4543 H 421.71 -2.65998 -2.95787 0
M  V30 4544 H 418.449 -5.63111 -3.35538 0
M  V30 4545 H 417.969 -4.19442 -4.28752 0
M  V30 4546 H 419.648 -4.78498 -4.35487 0
M  V30 4547 N 419.78 1.02168 -1.19998 0
M  V30 4548 C 420.727 2.10601 -0.944228 0
M  V30 4549 C 421.697 1.65639 0.123664 0
M  V30 4550 O 422.882 1.9079 -0.0199941 0
M  V30 4551 C 420.022 3.41504 -0.496865 0
M  V30 4552 C 419.135 3.99973 -1.63234 0
M  V30 4553 C 418.27 5.18915 -1.13579 0
M  V30 4554 C 417.309 5.69456 -2.24468 0
M  V30 4555 N 416.446 6.79665 -1.76068 0
M  V30 4556 H 421.286 2.31814 -1.8726 0
M  V30 4557 H 418.823 1.13686 -0.933483 0
M  V30 4558 H 420.781 4.16626 -0.218843 0
M  V30 4559 H 419.411 3.2038 0.394508 0
M  V30 4560 H 418.463 3.21997 -2.0254 0
M  V30 4561 H 419.775 4.33492 -2.46752 0
M  V30 4562 H 418.929 6.01222 -0.813429 0
M  V30 4563 H 417.668 4.8695 -0.270434 0
M  V30 4564 H 416.673 4.85757 -2.57526 0
M  V30 4565 H 417.898 6.03459 -3.11472 0
M  V30 4566 H 415.844 6.49538 -0.918516 0
M  V30 4567 H 415.761 7.12349 -2.5317 0
M  V30 4568 H 417.029 7.65549 -1.46817 0
M  V30 4569 N 421.258 1.00505 1.21394 0
M  V30 4570 C 422.221 0.570459 2.21987 0
M  V30 4571 C 423.221 -0.353211 1.56873 0
M  V30 4572 O 424.411 -0.14349 1.73608 0
M  V30 4573 C 421.543 -0.168555 3.40483 0
M  V30 4574 H 422.736 1.46021 2.6195 0
M  V30 4575 H 420.289 0.793565 1.34656 0
M  V30 4576 H 421.024 -1.07374 3.06009 0
M  V30 4577 H 420.809 0.494823 3.88965 0
M  V30 4578 H 422.299 -0.460362 4.15055 0
M  V30 4579 N 422.737 -1.36956 0.779787 0
M  V30 4580 C 423.685 -2.32053 0.15942 0
M  V30 4581 C 424.679 -1.55333 -0.675878 0
M  V30 4582 O 425.885 -1.70668 -0.57204 0
M  V30 4583 H 422.26 -0.751286 0.0327707 0
M  V30 4584 H 424.231 -2.8195 0.977078 0
M  V30 4585 C 422.98 -3.40602 -0.698977 0
M  V30 4586 H 422.303 -3.99746 -0.0655966 0
M  V30 4587 H 423.743 -4.09486 -1.09989 0
M  V30 4588 C 422.202 -2.81359 -1.85307 0
M  V30 4589 O 422.732 -2.72751 -2.94906 0
M  V30 4590 N 420.938 -2.38786 -1.65619 0
M  V30 4591 H 420.485 -2.45987 -0.764725 0
M  V30 4592 H 420.443 -1.99493 -2.43002 0
M  V30 4593 N 424.215 -0.530993 -1.48385 0
M  V30 4594 C 425.461 0.00274135 -2.028 0
M  V30 4595 C 425.794 1.33838 -1.40716 0
M  V30 4596 O 425.069 1.86465 -0.553277 0
M  V30 4597 C 425.352 0.123676 -3.59888 0
M  V30 4598 C 425.205 -1.2372 -4.3245 0
M  V30 4599 C 426.524 0.849967 -4.31814 0
M  V30 4600 H 423.643 -0.000477758 -0.737 0
M  V30 4601 H 426.285 -0.688217 -1.77098 0
M  V30 4602 H 424.435 0.712157 -3.81917 0
M  V30 4603 H 426.107 -1.86687 -4.21836 0
M  V30 4604 H 424.35 -1.81882 -3.93829 0
M  V30 4605 H 425.021 -1.10557 -5.40815 0
M  V30 4606 H 427.497 0.350572 -4.14621 0
M  V30 4607 H 426.373 0.903486 -5.41413 0
M  V30 4608 H 426.634 1.90047 -3.99167 0
M  V30 4609 N 425.693 1.55336 -0.266172 0
M  V30 4610 C 426.942 1.98574 0.353749 0
M  V30 4611 C 427.255 1.15789 1.57646 0
M  V30 4612 O 428.461 1.49129 2.26876 0
M  V30 4613 C 426.917 3.53403 0.680747 0
M  V30 4614 C 426.525 4.44953 -0.52165 0
M  V30 4615 C 428.269 4.05251 1.26379 0
M  V30 4616 C 426.176 5.91156 -0.169736 0
M  V30 4617 H 425.106 0.741643 0.135949 0
M  V30 4618 H 427.757 1.79743 -0.369421 0
M  V30 4619 H 426.139 3.68001 1.46257 0
M  V30 4620 H 427.313 4.42121 -1.29869 0
M  V30 4621 H 425.628 4.03691 -1.02093 0
M  V30 4622 H 428.225 5.12021 1.54074 0
M  V30 4623 H 428.568 3.53749 2.19471 0
M  V30 4624 H 429.101 3.94057 0.544447 0
M  V30 4625 H 425.84 6.46736 -1.0683 0
M  V30 4626 H 425.36 5.97079 0.570717 0
M  V30 4627 H 427.039 6.4655 0.241245 0
M  V30 4628 N 427.171 -0.0066808 1.57599 0
M  V30 4629 C 428.101 -0.999296 2.11036 0
M  V30 4630 C 429.082 -1.36278 1.01795 0
M  V30 4631 O 430.267 -1.4477 1.29442 0
M  V30 4632 C 427.397 -2.29328 2.60818 0
M  V30 4633 C 426.351 -2.07159 3.74525 0
M  V30 4634 C 425.677 -3.42512 4.10596 0
M  V30 4635 C 426.977 -1.43959 5.02069 0
M  V30 4636 H 428.671 -0.554382 2.94223 0
M  V30 4637 H 426.217 -0.265221 1.41536 0
M  V30 4638 H 428.17 -2.99117 2.96828 0
M  V30 4639 H 426.894 -2.7592 1.74745 0
M  V30 4640 H 425.553 -1.39797 3.38899 0
M  V30 4641 H 425.201 -3.86795 3.21556 0
M  V30 4642 H 424.901 -3.28498 4.87199 0
M  V30 4643 H 426.425 -4.13628 4.4916 0
M  V30 4644 H 427.839 -2.03696 5.35893 0
M  V30 4645 H 426.236 -1.40452 5.83432 0
M  V30 4646 H 427.306 -0.407992 4.83181 0
M  V30 4647 N 428.649 -1.55105 -0.279332 0
M  V30 4648 C 429.889 -1.7716 -1.01949 0
M  V30 4649 C 430.253 -0.557511 -1.83728 0
M  V30 4650 O 431.454 -0.656198 -2.60667 0
M  V30 4651 C 429.725 -3.0372 -1.88385 0
M  V30 4652 S 431.284 -3.46868 -2.68752 0
M  V30 4653 H 428.102 -0.62253 -0.343478 0
M  V30 4654 H 430.704 -1.93329 -0.290572 0
M  V30 4655 H 429.408 -3.90184 -1.2722 0
M  V30 4656 H 428.939 -2.902 -2.65608 0
M  V30 4657 H 430.954 -3.05643 -3.90892 0
M  V30 4658 N 430.127 0.543554 -1.4793 0
M  V30 4659 C 431.352 1.32995 -1.59145 0
M  V30 4660 C 431.777 1.86472 -0.246956 0
M  V30 4661 O 431.135 1.63696 0.779324 0
M  V30 4662 C 431.183 2.46623 -2.63077 0
M  V30 4663 O 430.287 3.49261 -2.19295 0
M  V30 4664 H 429.628 0.394472 -0.534124 0
M  V30 4665 H 432.158 0.655489 -1.93816 0
M  V30 4666 H 432.168 2.93001 -2.83926 0
M  V30 4667 H 430.843 2.07059 -3.60693 0
M  V30 4668 H 429.42 3.09094 -2.08603 0
M  V30 4669 N 431.605 1.3629 0.791371 0
M  V30 4670 C 432.537 1.26321 1.91248 0
M  V30 4671 C 433.55 0.18313 1.61767 0
M  V30 4672 O 434.739 0.437682 1.73051 0
M  V30 4673 C 431.839 0.925901 3.26007 0
M  V30 4674 C 431.012 2.10746 3.83281 0
M  V30 4675 C 430.071 1.74352 4.96475 0
M  V30 4676 O 429.097 2.46416 5.13096 0
M  V30 4677 N 430.299 0.676058 5.7655 0
M  V30 4678 H 433.064 2.22915 2.00323 0
M  V30 4679 H 430.625 1.29659 0.969546 0
M  V30 4680 H 432.617 0.663636 3.99222 0
M  V30 4681 H 431.187 0.0491581 3.12561 0
M  V30 4682 H 430.407 2.53264 3.02077 0
M  V30 4683 H 431.695 2.8969 4.18279 0
M  V30 4684 H 431.093 0.0776467 5.65647 0
M  V30 4685 H 429.65 0.473612 6.50077 0
M  V30 4686 N 433.083 -1.0153 1.20538 0
M  V30 4687 C 434.015 -2.10224 0.913155 0
M  V30 4688 C 435.028 -1.62495 -0.0995998 0
M  V30 4689 O 436.217 -1.78014 0.131582 0
M  V30 4690 C 433.317 -3.37111 0.347717 0
M  V30 4691 C 432.49 -4.13971 1.41233 0
M  V30 4692 C 431.549 -5.19158 0.857976 0
M  V30 4693 O 430.575 -5.48 1.53897 0
M  V30 4694 N 431.777 -5.7955 -0.331966 0
M  V30 4695 H 434.542 -2.35879 1.84881 0
M  V30 4696 H 432.103 -1.17931 1.10923 0
M  V30 4697 H 434.095 -4.04683 -0.0373026 0
M  V30 4698 H 432.665 -3.08696 -0.492527 0
M  V30 4699 H 431.885 -3.41351 1.97163 0
M  V30 4700 H 433.173 -4.62103 2.12928 0
M  V30 4701 H 432.571 -5.58455 -0.902478 0
M  V30 4702 H 431.128 -6.48464 -0.65861 0
M  V30 4703 N 434.561 -1.01147 -1.20859 0
M  V30 4704 C 435.511 -0.548247 -2.2131 0
M  V30 4705 C 436.495 0.393646 -1.5601 0
M  V30 4706 O 437.687 0.217445 -1.75659 0
M  V30 4707 C 434.816 0.117252 -3.431 0
M  V30 4708 C 433.902 -0.846043 -4.15575 0
M  V30 4709 N 434.293 -2.00149 -4.64515 0
M  V30 4710 C 432.591 -0.665783 -4.41003 0
M  V30 4711 C 433.292 -2.60764 -5.19978 0
M  V30 4712 N 432.268 -1.88868 -5.09735 0
M  V30 4713 H 436.07 -1.42921 -2.56809 0
M  V30 4714 H 433.584 -0.876142 -1.36739 0
M  V30 4715 H 435.581 0.46662 -4.1428 0
M  V30 4716 H 434.241 0.994115 -3.09107 0
M  V30 4717 H 435.252 -2.38162 -4.5989 0
M  V30 4718 H 431.929 0.163456 -4.1718 0
M  V30 4719 H 433.319 -3.58519 -5.68255 0
M  V30 4720 N 436.039 1.36541 -0.78704 0
M  V30 4721 C 436.969 2.32659 -0.197992 0
M  V30 4722 C 437.95 1.56533 0.665697 0
M  V30 4723 O 439.135 1.84698 0.60001 0
M  V30 4724 C 436.265 3.40778 0.669901 0
M  V30 4725 C 435.219 4.27897 -0.0937039 0
M  V30 4726 C 434.545 5.27163 0.894629 0
M  V30 4727 C 435.845 5.06334 -1.28154 0
M  V30 4728 H 437.539 2.82171 -1.00099 0
M  V30 4729 H 435.085 1.35665 -0.482793 0
M  V30 4730 H 437.038 4.07008 1.09191 0
M  V30 4731 H 435.762 2.89827 1.50558 0
M  V30 4732 H 434.421 3.6322 -0.49666 0
M  V30 4733 H 434.069 4.72486 1.72527 0
M  V30 4734 H 433.769 5.86317 0.388149 0
M  V30 4735 H 435.293 5.96266 1.31525 0
M  V30 4736 H 436.707 5.65617 -0.93541 0
M  V30 4737 H 435.104 5.74888 -1.72115 0
M  V30 4738 H 436.174 4.38114 -2.07807 0
M  V30 4739 N 437.518 0.538854 1.48102 0
M  V30 4740 C 438.481 -0.208395 2.28251 0
M  V30 4741 C 439.481 -0.859656 1.35892 0
M  V30 4742 O 440.671 -0.71834 1.58699 0
M  V30 4743 C 437.803 -1.30252 3.15035 0
M  V30 4744 H 438.996 0.495407 2.9578 0
M  V30 4745 H 436.549 0.295112 1.53489 0
M  V30 4746 H 437.284 -2.0393 2.52157 0
M  V30 4747 H 437.069 -0.840551 3.82985 0
M  V30 4748 H 438.559 -1.82787 3.75471 0
M  V30 4749 N 438.996 -1.55193 0.274407 0
M  V30 4750 C 439.959 -2.212 -0.600279 0
M  V30 4751 C 440.959 -1.18963 -1.08187 0
M  V30 4752 O 442.149 -1.43873 -0.982158 0
M  V30 4753 C 439.281 -2.87739 -1.82809 0
M  V30 4754 H 440.474 -2.9989 -0.0239682 0
M  V30 4755 H 438.027 -1.5628 0.0250192 0
M  V30 4756 H 438.762 -2.13058 -2.44493 0
M  V30 4757 H 438.547 -3.62658 -1.49069 0
M  V30 4758 H 440.037 -3.38171 -2.45011 0
M  V30 4759 N 440.474 -0.00167713 -1.576 0
M  V30 4760 C 441.885 0.54091 -1.78693 0
M  V30 4761 C 442.236 1.7386 -0.909247 0
M  V30 4762 O 441.361 2.16109 -0.112176 0
M  V30 4763 C 441.956 0.98806 -3.24072 0
M  V30 4764 C 440.515 1.47594 -3.46256 0
M  V30 4765 C 439.662 0.42792 -2.73978 0
M  V30 4766 H 442.613 -0.22784 -1.57056 0
M  V30 4767 H 442.634 1.85398 -3.32277 0
M  V30 4768 H 442.146 0.116164 -3.87926 0
M  V30 4769 H 440.247 2.36868 -2.87618 0
M  V30 4770 H 440.36 1.50225 -4.54939 0
M  V30 4771 H 438.724 0.889934 -2.38647 0
M  V30 4772 H 439.507 -0.435038 -3.40532 0
M  V30 4773 N 441.952 1.55251 0.271103 0
M  V30 4774 C 442.882 1.9127 1.33933 0
M  V30 4775 C 443.863 0.77478 1.5143 0
M  V30 4776 O 445.048 1.03307 1.64442 0
M  V30 4777 C 442.178 2.18627 2.69851 0
M  V30 4778 C 441.132 3.34442 2.67081 0
M  V30 4779 C 440.458 3.47284 4.06569 0
M  V30 4780 C 441.758 4.70784 2.26185 0
M  V30 4781 H 443.452 2.80744 1.04035 0
M  V30 4782 H 440.998 1.35077 0.499017 0
M  V30 4783 H 442.951 2.42413 3.44694 0
M  V30 4784 H 441.675 1.25955 3.01335 0
M  V30 4785 H 440.334 3.10627 1.94695 0
M  V30 4786 H 439.982 2.52074 4.35279 0
M  V30 4787 H 439.682 4.25152 4.0561 0
M  V30 4788 H 441.206 3.73363 4.83148 0
M  V30 4789 H 442.62 4.94102 2.90751 0
M  V30 4790 H 441.017 5.51582 2.36384 0
M  V30 4791 H 442.087 4.69478 1.21319 0
M  V30 4792 N 443.43 -0.535701 1.48216 0
M  V30 4793 C 444.676 -1.29375 1.56173 0
M  V30 4794 C 445.009 -1.92804 0.232429 0
M  V30 4795 O 444.284 -1.78992 -0.761048 0
M  V30 4796 C 444.567 -2.38747 2.69577 0
M  V30 4797 C 444.42 -1.80046 4.12193 0
M  V30 4798 C 445.739 -3.40551 2.78771 0
M  V30 4799 H 442.858 -0.469027 0.568491 0
M  V30 4800 H 445.5 -0.597358 1.80365 0
M  V30 4801 H 443.65 -2.98147 2.4908 0
M  V30 4802 H 445.322 -1.24742 4.44114 0
M  V30 4803 H 443.565 -1.10609 4.19462 0
M  V30 4804 H 444.236 -2.59212 4.87353 0
M  V30 4805 H 446.712 -2.91099 2.97322 0
M  V30 4806 H 445.588 -4.1448 3.59857 0
M  V30 4807 H 445.849 -4.00746 1.86696 0
M  V30 4808 N 444.908 -1.36708 -0.784132 0
M  V30 4809 C 445.841 -1.25827 -1.90375 0
M  V30 4810 C 446.819 -0.141331 -1.61985 0
M  V30 4811 O 448.003 -0.313389 -1.85877 0
M  V30 4812 C 445.13 -0.942621 -3.25319 0
M  V30 4813 C 444.176 -2.07474 -3.72635 0
M  V30 4814 S 445.009 -3.69317 -3.8777 0
M  V30 4815 C 446.165 -3.39876 -5.25581 0
M  V30 4816 H 446.398 -2.20593 -1.99314 0
M  V30 4817 H 443.931 -1.22186 -0.943926 0
M  V30 4818 H 445.889 -0.767321 -4.03265 0
M  V30 4819 H 444.55 -0.0126566 -3.14097 0
M  V30 4820 H 443.743 -1.80858 -4.70432 0
M  V30 4821 H 443.345 -2.20953 -3.01754 0
M  V30 4822 H 445.637 -2.94097 -6.10339 0
M  V30 4823 H 446.58 -4.36956 -5.57203 0
M  V30 4824 H 446.988 -2.75098 -4.92931 0
M  V30 4825 N 446.386 1.0089 -1.21074 0
M  V30 4826 C 447.316 2.1145 -0.990523 0
M  V30 4827 C 448.297 1.69897 0.0831699 0
M  V30 4828 O 449.482 1.94052 -0.0758853 0
M  V30 4829 C 446.612 3.42914 -0.550177 0
M  V30 4830 C 445.566 3.98244 -1.56799 0
M  V30 4831 C 444.892 5.25568 -0.984013 0
M  V30 4832 C 446.192 4.30752 -2.95381 0
M  V30 4833 H 447.886 2.3013 -1.91521 0
M  V30 4834 H 445.432 1.10592 -0.92225 0
M  V30 4835 H 447.385 4.19653 -0.383305 0
M  V30 4836 H 446.109 3.24014 0.41015 0
M  V30 4837 H 444.768 3.23621 -1.72236 0
M  V30 4838 H 444.416 5.02998 -0.0155216 0
M  V30 4839 H 444.116 5.63551 -1.66384 0
M  V30 4840 H 445.64 6.04955 -0.828378 0
M  V30 4841 H 447.054 4.98349 -2.8341 0
M  V30 4842 H 445.451 4.79869 -3.60341 0
M  V30 4843 H 446.521 3.39192 -3.46521 0
M  V30 4844 N 447.864 1.01787 1.20321 0
M  V30 4845 C 448.811 0.589197 2.23153 0
M  V30 4846 C 449.781 -0.391367 1.61423 0
M  V30 4847 O 450.966 -0.290518 1.88575 0
M  V30 4848 C 448.106 -0.0650747 3.45039 0
M  V30 4849 C 447.219 0.960207 4.21194 0
M  V30 4850 C 446.354 0.276854 5.30478 0
M  V30 4851 C 445.393 1.2888 5.98378 0
M  V30 4852 N 444.53 0.632031 6.99249 0
M  V30 4853 H 449.37 1.47071 2.59179 0
M  V30 4854 H 446.907 0.736192 1.27352 0
M  V30 4855 H 448.865 -0.461552 4.14639 0
M  V30 4856 H 447.495 -0.910233 3.09701 0
M  V30 4857 H 446.547 1.47484 3.50646 0
M  V30 4858 H 447.859 1.72977 4.67847 0
M  V30 4859 H 447.013 -0.175056 6.06447 0
M  V30 4860 H 445.752 -0.525004 4.84866 0
M  V30 4861 H 444.757 1.75109 5.21169 0
M  V30 4862 H 445.982 2.09196 6.46076 0
M  V30 4863 H 443.928 -0.149935 6.55829 0
M  V30 4864 H 443.845 1.33964 7.44036 0
M  V30 4865 H 445.113 0.203755 7.79234 0
M  V30 4866 N 449.342 -1.36122 0.79427 0
M  V30 4867 C 450.272 -2.32551 0.210328 0
M  V30 4868 C 451.253 -1.56884 -0.657386 0
M  V30 4869 O 452.438 -1.85014 -0.590207 0
M  V30 4870 C 449.568 -3.41128 -0.651819 0
M  V30 4871 C 448.522 -4.27842 0.116395 0
M  V30 4872 C 447.848 -5.2763 -0.86666 0
M  V30 4873 C 449.148 -5.05647 1.30837 0
M  V30 4874 H 450.842 -2.81636 1.01594 0
M  V30 4875 H 448.388 -1.35407 0.489981 0
M  V30 4876 H 450.341 -4.07581 -1.07031 0
M  V30 4877 H 449.065 -2.90622 -1.49019 0
M  V30 4878 H 447.724 -3.62952 0.515915 0
M  V30 4879 H 447.372 -4.73395 -1.70019 0
M  V30 4880 H 447.072 -5.86514 -0.35705 0
M  V30 4881 H 448.596 -5.96955 -1.28361 0
M  V30 4882 H 450.01 -5.65113 0.965393 0
M  V30 4883 H 448.407 -5.73967 1.75161 0
M  V30 4884 H 449.477 -4.37006 2.10128 0
M  V30 4885 N 450.82 -0.546701 -1.47814 0
M  V30 4886 C 451.752 0.244196 -2.27895 0
M  V30 4887 C 452.765 0.88911 -1.36377 0
M  V30 4888 O 453.954 0.764733 -1.61289 0
M  V30 4889 C 451.054 1.36252 -3.10304 0
M  V30 4890 C 450.227 0.816382 -4.29714 0
M  V30 4891 C 449.286 1.81789 -4.93801 0
M  V30 4892 O 448.312 1.36818 -5.52512 0
M  V30 4893 N 449.514 3.15085 -4.87547 0
M  V30 4894 H 452.279 -0.442694 -2.96412 0
M  V30 4895 H 449.84 -0.382095 -1.57327 0
M  V30 4896 H 451.832 2.03102 -3.50045 0
M  V30 4897 H 450.402 1.95281 -2.44099 0
M  V30 4898 H 449.622 -0.0285981 -3.9419 0
M  V30 4899 H 450.91 0.430668 -5.06974 0
M  V30 4900 H 450.308 3.54275 -4.41028 0
M  V30 4901 H 448.865 3.77522 -5.31339 0
M  V30 4902 N 452.299 1.55045 -0.282633 0
M  V30 4903 C 453.71 1.85473 0.213655 0
M  V30 4904 C 454.061 1.20465 1.54863 0
M  V30 4905 O 453.186 0.495676 2.10647 0
M  V30 4906 C 453.781 3.36496 0.394445 0
M  V30 4907 C 452.34 3.67022 0.834961 0
M  V30 4908 C 451.487 2.77218 -0.0674081 0
M  V30 4909 H 454.438 1.50478 -0.504202 0
M  V30 4910 H 454.459 3.60007 1.23186 0
M  V30 4911 H 453.971 3.83782 -0.577326 0
M  V30 4912 H 452.072 3.25241 1.81794 0
M  V30 4913 H 452.185 4.74433 0.667075 0
M  V30 4914 H 450.549 2.5069 0.450196 0
M  V30 4915 H 451.332 3.2732 -1.0352 0
M  V30 4916 N 453.777 0.010035 1.57597 0
M  V30 4917 C 455.054 -0.710296 1.82248 0
M  V30 4918 C 455.434 -1.91426 0.889911 0
M  V30 4919 O 454.782 -2.28424 -0.0590292 0
M  V30 4920 C 454.992 -1.10655 3.30993 0
M  V30 4921 C 456.34 -1.50621 3.96987 0
M  V30 4922 O 457.364 -1.20007 3.35375 0
M  V30 4923 O 456.223 -2.07587 5.05539 0
M  V30 4924 H 453.317 -0.34673 0.750804 0
M  V30 4925 H 455.863 0.0362578 1.69661 0
M  V30 4926 H 454.635 -0.248826 3.90508 0
M  V30 4927 H 454.258 -1.91189 3.48615 0
M  V30 4928 N 455.255 -1.55392 -0.262866 0
M  V30 4929 C 456.503 -1.76127 -0.991147 0
M  V30 4930 C 456.824 -0.571083 -1.8645 0
M  V30 4931 O 456.094 0.413698 -1.91482 0
M  V30 4932 H 454.674 -0.649528 -0.368948 0
M  V30 4933 H 457.336 -1.9281 -0.284655 0
M  V30 4934 H 456.432 -2.6663 -1.62219 0
M  V30 4935 N 456.733 0.527833 -1.48498 0
M  V30 4936 C 457.68 1.6322 -1.6318 0
M  V30 4937 C 458.65 1.59199 -0.473815 0
M  V30 4938 O 459.835 1.77591 -0.697563 0
M  V30 4939 C 456.975 3.01474 -1.67951 0
M  V30 4940 C 456.088 3.15713 -2.94871 0
M  V30 4941 C 455.223 4.44539 -2.90789 0
M  V30 4942 C 454.262 4.52315 -4.12404 0
M  V30 4943 N 453.399 5.72533 -4.06387 0
M  V30 4944 H 458.239 1.50011 -2.57489 0
M  V30 4945 H 455.776 0.730298 -1.27691 0
M  V30 4946 H 457.734 3.81572 -1.68698 0
M  V30 4947 H 456.364 3.1345 -0.771306 0
M  V30 4948 H 455.416 2.28854 -3.03859 0
M  V30 4949 H 456.728 3.1732 -3.8485 0
M  V30 4950 H 455.882 5.3293 -2.89949 0
M  V30 4951 H 454.621 4.45457 -1.98542 0
M  V30 4952 H 453.626 3.62331 -4.13517 0
M  V30 4953 H 454.851 4.53134 -5.05812 0
M  V30 4954 H 452.797 5.74344 -3.16962 0
M  V30 4955 H 452.714 5.75643 -4.90073 0
M  V30 4956 H 453.982 6.63204 -4.0961 0
M  V30 4957 N 458.211 1.37122 0.776871 0
M  V30 4958 C 459.141 1.35164 1.90402 0
M  V30 4959 C 460.122 0.221069 1.68657 0
M  V30 4960 O 461.307 0.420642 1.8959 0
M  V30 4961 C 458.437 1.15274 3.27611 0
M  V30 4962 C 457.391 2.25289 3.63908 0
M  V30 4963 C 456.717 1.90527 4.99603 0
M  V30 4964 C 458.017 3.67446 3.71188 0
M  V30 4965 H 459.711 2.29482 1.92297 0
M  V30 4966 H 457.257 1.10465 0.923773 0
M  V30 4967 H 459.21 1.12536 4.06096 0
M  V30 4968 H 457.934 0.174102 3.26136 0
M  V30 4969 H 456.593 2.27174 2.87728 0
M  V30 4970 H 456.241 0.91206 4.94662 0
M  V30 4971 H 455.941 2.64193 5.24858 0
M  V30 4972 H 457.465 1.89367 5.80493 0
M  V30 4973 H 458.879 3.67719 4.39836 0
M  V30 4974 H 457.276 4.40123 4.07936 0
M  V30 4975 H 458.346 4.01443 2.71977 0
M  V30 4976 N 459.689 -1.00246 1.21608 0
M  V30 4977 C 460.619 -2.10921 1.00172 0
M  V30 4978 C 461.6 -1.69938 -0.0741587 0
M  V30 4979 O 462.785 -1.94009 0.0861753 0
M  V30 4980 C 459.915 -3.42618 0.568355 0
M  V30 4981 C 458.869 -3.97407 1.58909 0
M  V30 4982 C 458.195 -5.25038 1.01187 0
M  V30 4983 C 459.495 -4.2918 2.97661 0
M  V30 4984 H 461.189 -2.29112 1.92739 0
M  V30 4985 H 458.735 -1.10101 0.928102 0
M  V30 4986 H 460.688 -4.19444 0.405555 0
M  V30 4987 H 459.412 -3.24227 -0.392961 0
M  V30 4988 H 458.071 -3.22703 1.73949 0
M  V30 4989 H 457.719 -5.02982 0.0421965 0
M  V30 4990 H 457.419 -5.62661 1.6937 0
M  V30 4991 H 458.943 -6.04507 0.860448 0
M  V30 4992 H 460.357 -4.96839 2.86049 0
M  V30 4993 H 458.754 -4.77952 3.6288 0
M  V30 4994 H 459.824 -3.3735 3.48315 0
M  V30 4995 N 461.167 -1.02423 -1.1978 0
M  V30 4996 C 462.578 -0.748389 -1.71044 0
M  V30 4997 C 462.929 0.732398 -1.82017 0
M  V30 4998 O 462.054 1.57116 -1.48807 0
M  V30 4999 C 462.649 -1.35187 -3.1066 0
M  V30 5000 C 461.208 -1.12472 -3.59203 0
M  V30 5001 C 460.355 -1.45283 -2.36195 0
M  V30 5002 H 463.306 -1.19275 -1.04686 0
M  V30 5003 H 463.327 -0.746408 -3.73107 0
M  V30 5004 H 462.839 -2.4296 -3.02642 0
M  V30 5005 H 460.94 -0.0649983 -3.72543 0
M  V30 5006 H 461.053 -1.81016 -4.43588 0
M  V30 5007 H 459.417 -0.872034 -2.39307 0
M  V30 5008 H 460.2 -2.54129 -2.30811 0
M  V30 5009 N 462.645 1.35699 -0.801477 0
M  V30 5010 C 463.578 2.2768 -0.153922 0
M  V30 5011 C 464.556 1.47832 0.67709 0
M  V30 5012 O 465.74 1.77104 0.645474 0
M  V30 5013 C 462.867 3.2943 0.786986 0
M  V30 5014 C 461.913 4.26485 0.0362447 0
M  V30 5015 S 462.746 5.19573 -1.2963 0
M  V30 5016 C 463.902 6.24866 -0.359705 0
M  V30 5017 H 464.135 2.82254 -0.9338 0
M  V30 5018 H 461.668 1.42421 -0.596283 0
M  V30 5019 H 463.626 3.8855 1.32436 0
M  V30 5020 H 462.287 2.73745 1.54021 0
M  V30 5021 H 461.48 4.98378 0.750668 0
M  V30 5022 H 461.082 3.71508 -0.431017 0
M  V30 5023 H 463.374 6.75957 0.456954 0
M  V30 5024 H 464.317 7.00307 -1.04768 0
M  V30 5025 H 464.725 5.64484 0.0423274 0
M  V30 5026 N 464.123 0.554532 1.47522 0
M  V30 5027 C 465.369 0.0295227 2.02779 0
M  V30 5028 C 465.702 -1.31582 1.42828 0
M  V30 5029 O 464.977 -1.85561 0.582872 0
M  V30 5030 C 465.26 -0.0664057 3.60039 0
M  V30 5031 C 465.113 1.30585 4.30427 0
M  V30 5032 C 466.432 -0.781162 4.33112 0
M  V30 5033 H 463.551 0.0122027 0.736899 0
M  V30 5034 H 466.193 0.716305 1.7598 0
M  V30 5035 H 464.343 -0.651307 3.83002 0
M  V30 5036 H 466.015 1.93374 4.18813 0
M  V30 5037 H 464.258 1.88125 3.90886 0
M  V30 5038 H 464.929 1.19147 5.38988 0
M  V30 5039 H 467.405 -0.284565 4.15126 0
M  V30 5040 H 466.281 -0.817237 5.42782 0
M  V30 5041 H 466.542 -1.83672 4.0214 0
M  V30 5042 N 465.601 -1.54893 0.290851 0
M  V30 5043 C 466.85 -1.99111 -0.322113 0
M  V30 5044 C 467.163 -1.18283 -1.55784 0
M  V30 5045 O 468.369 -1.5272 -2.24475 0
M  V30 5046 C 466.825 -3.54442 -0.624438 0
M  V30 5047 C 466.433 -4.44066 0.592373 0
M  V30 5048 C 468.177 -4.07211 -1.19916 0
M  V30 5049 C 466.084 -5.90812 0.263762 0
M  V30 5050 H 465.014 -0.743712 -0.124133 0
M  V30 5051 H 467.665 -1.79132 0.39797 0
M  V30 5052 H 466.047 -3.70281 -1.40384 0
M  V30 5053 H 467.221 -4.39999 1.36886 0
M  V30 5054 H 465.536 -4.02015 1.08502 0
M  V30 5055 H 468.133 -5.14407 -1.45909 0
M  V30 5056 H 468.476 -3.57196 -2.13815 0
M  V30 5057 H 469.009 -3.94873 -0.481687 0
M  V30 5058 H 465.748 -6.44955 1.17105 0
M  V30 5059 H 465.268 -5.97911 -0.475655 0
M  V30 5060 H 466.947 -6.46852 -0.138354 0
M  V30 5061 N 467.08 -0.0183926 -1.57589 0
M  V30 5062 C 468.012 0.995557 -2.06449 0
M  V30 5063 C 469.025 1.29556 -0.985849 0
M  V30 5064 O 470.214 1.2621 -1.26227 0
M  V30 5065 C 467.314 2.32572 -2.46502 0
M  V30 5066 C 466.487 2.21245 -3.77319 0
M  V30 5067 C 465.546 3.37104 -4.04039 0
M  V30 5068 O 464.572 3.14468 -4.74445 0
M  V30 5069 N 465.774 4.60553 -3.53372 0
M  V30 5070 H 468.539 0.578746 -2.94059 0
M  V30 5071 H 466.1 0.168603 -1.6102 0
M  V30 5072 H 468.092 3.08887 -2.61478 0
M  V30 5073 H 466.662 2.65931 -1.64315 0
M  V30 5074 H 465.882 1.29723 -3.72244 0
M  V30 5075 H 467.17 2.10868 -4.63047 0
M  V30 5076 H 466.568 4.81839 -2.96391 0
M  V30 5077 H 465.125 5.34072 -3.73644 0
M  V30 5078 N 468.558 1.5553 0.254621 0
M  V30 5079 C 469.488 1.9268 1.31897 0
M  V30 5080 C 470.469 0.790797 1.506 0
M  V30 5081 O 471.654 1.05045 1.63337 0
M  V30 5082 C 468.784 2.21477 2.67517 0
M  V30 5083 C 467.738 3.37256 2.63519 0
M  V30 5084 C 467.064 3.51576 4.02862 0
M  V30 5085 C 468.364 4.73157 2.21179 0
M  V30 5086 H 470.058 2.81832 1.01051 0
M  V30 5087 H 467.604 1.35599 0.484662 0
M  V30 5088 H 469.557 2.46055 3.42104 0
M  V30 5089 H 468.281 1.29144 2.99982 0
M  V30 5090 H 466.94 3.12675 1.9139 0
M  V30 5091 H 466.588 2.56676 4.32581 0
M  V30 5092 H 466.288 4.2943 4.01078 0
M  V30 5093 H 467.812 3.78467 4.79161 0
M  V30 5094 H 469.226 4.97158 2.85494 0
M  V30 5095 H 467.623 5.54058 2.30521 0
M  V30 5096 H 468.693 4.70739 1.16332 0
M  V30 5097 N 470.036 -0.519951 1.48776 0
M  V30 5098 C 470.968 -1.63973 1.60142 0
M  V30 5099 C 471.981 -1.55404 0.485117 0
M  V30 5100 O 473.17 -1.61682 0.756391 0
M  V30 5101 C 470.27 -3.02676 1.52449 0
M  V30 5102 C 469.443 -3.36624 2.79291 0
M  V30 5103 C 468.502 -4.54652 2.64912 0
M  V30 5104 O 467.528 -4.57374 3.38818 0
M  V30 5105 N 468.73 -5.53432 1.75195 0
M  V30 5106 H 471.495 -1.54656 2.56713 0
M  V30 5107 H 469.056 -0.707439 1.45626 0
M  V30 5108 H 471.048 -3.79525 1.4051 0
M  V30 5109 H 469.618 -3.06018 0.638125 0
M  V30 5110 H 468.838 -2.48855 3.0572 0
M  V30 5111 H 470.126 -3.56094 3.6342 0
M  V30 5112 H 469.524 -5.54018 1.14371 0
M  V30 5113 H 468.081 -6.29459 1.69189 0
M  V30 5114 N 471.514 -1.37532 -0.769588 0
M  V30 5115 C 472.444 -1.36172 -1.89682 0
M  V30 5116 C 473.425 -0.23001 -1.68538 0
M  V30 5117 O 474.61 -0.43069 -1.89364 0
M  V30 5118 C 471.74 -1.1701 -3.26995 0
M  V30 5119 C 470.694 -2.27216 -3.62708 0
M  V30 5120 C 470.02 -1.93174 -4.98586 0
M  V30 5121 C 471.32 -3.6941 -3.69234 0
M  V30 5122 H 473.014 -2.30499 -1.91078 0
M  V30 5123 H 470.56 -1.10953 -0.917902 0
M  V30 5124 H 472.513 -1.14688 -4.05493 0
M  V30 5125 H 471.237 -0.191395 -3.26039 0
M  V30 5126 H 469.896 -2.28697 -2.86519 0
M  V30 5127 H 469.544 -0.938281 -4.94171 0
M  V30 5128 H 469.244 -2.66973 -5.23449 0
M  V30 5129 H 470.768 -1.92443 -5.79481 0
M  V30 5130 H 472.182 -3.70047 -4.37879 0
M  V30 5131 H 470.579 -4.4228 -4.05597 0
M  V30 5132 H 471.649 -4.0288 -2.69844 0
M  V30 5133 N 472.992 0.995999 -1.22138 0
M  V30 5134 C 474.403 1.54961 -1.04135 0
M  V30 5135 C 474.754 1.92159 0.396147 0
M  V30 5136 O 473.879 1.74435 1.28069 0
M  V30 5137 C 474.474 2.81581 -1.88408 0
M  V30 5138 C 473.033 3.33396 -1.74712 0
M  V30 5139 C 472.18 2.06509 -1.85066 0
M  V30 5140 H 475.131 0.817436 -1.36028 0
M  V30 5141 H 475.152 3.53822 -1.39966 0
M  V30 5142 H 474.664 2.54476 -2.93025 0
M  V30 5143 H 472.765 3.65416 -0.728159 0
M  V30 5144 H 472.878 4.04208 -2.57202 0
M  V30 5145 H 471.242 2.19925 -1.28472 0
M  V30 5146 H 472.025 1.81804 -2.91208 0
M  V30 5147 N 474.47 1.03057 1.19235 0
M  V30 5148 C 475.886 0.747947 1.40989 0
M  V30 5149 C 476.086 -0.666752 1.90149 0
M  V30 5150 O 475.142 -1.43249 2.07933 0
M  V30 5151 C 476.455 1.7855 2.41951 0
M  V30 5152 C 478.003 1.80524 2.55695 0
M  V30 5153 C 478.478 2.83243 3.59913 0
M  V30 5154 N 479.969 2.8207 3.67411 0
M  V30 5155 C 480.704 3.58204 4.47747 0
M  V30 5156 N 480.2 4.44057 5.31775 0
M  V30 5157 N 481.993 3.46738 4.42413 0
M  V30 5158 H 474.144 1.94367 0.856468 0
M  V30 5159 H 476.407 0.840412 0.438647 0
M  V30 5160 H 476.113 2.79973 2.12857 0
M  V30 5161 H 475.987 1.6092 3.41152 0
M  V30 5162 H 478.374 0.79778 2.84112 0
M  V30 5163 H 478.455 2.02229 1.56643 0
M  V30 5164 H 478.099 3.84161 3.32239 0
M  V30 5165 H 478.029 2.58795 4.5862 0
M  V30 5166 H 480.52 2.19803 3.074 0
M  V30 5167 H 480.833 4.98884 5.90199 0
M  V30 5168 H 479.178 4.48129 5.3123 0
M  V30 5169 H 482.369 2.79077 3.75811 0
M  V30 5170 H 482.542 4.06322 5.04783 0
M  V30 5171 N 475.948 -1.35272 0.808662 0
M  V30 5172 C 477.176 -2.02946 0.402537 0
M  V30 5173 C 477.591 -1.60937 -0.987147 0
M  V30 5174 O 476.948 -0.807917 -1.63643 0
M  V30 5175 C 476.999 -3.58317 0.47868 0
M  V30 5176 O 476.72 -3.98799 1.81358 0
M  V30 5177 C 478.221 -4.43251 0.0656281 0
M  V30 5178 H 475.441 -0.650831 0.163279 0
M  V30 5179 H 477.985 -1.72849 1.09286 0
M  V30 5180 H 476.14 -3.87055 -0.163415 0
M  V30 5181 H 476.554 -4.93451 1.77781 0
M  V30 5182 H 478.028 -5.51738 0.170017 0
M  V30 5183 H 478.505 -4.27913 -0.989278 0
M  V30 5184 H 479.111 -4.19813 0.68096 0
M  V30 5185 N 477.426 -0.562348 -1.47226 0
M  V30 5186 C 478.674 -0.0401371 -2.0206 0
M  V30 5187 C 478.995 1.3165 -1.43852 0
M  V30 5188 O 478.265 1.85976 -0.615599 0
M  V30 5189 H 476.845 -0.0118479 -0.746906 0
M  V30 5190 H 479.507 -0.73352 -1.8057 0
M  V30 5191 H 478.603 0.0441254 -3.12069 0
M  V30 5192 N 478.904 1.54736 -0.299062 0
M  V30 5193 C 480.129 2.04975 0.316254 0
M  V30 5194 C 480.554 1.17501 1.46885 0
M  V30 5195 O 479.912 0.178678 1.80417 0
M  V30 5196 C 479.96 3.52672 0.751997 0
M  V30 5197 O 479.064 3.68226 1.85697 0
M  V30 5198 H 478.405 0.661126 0.0617175 0
M  V30 5199 H 480.935 1.99805 -0.440341 0
M  V30 5200 H 480.945 3.94488 1.04133 0
M  V30 5201 H 479.62 4.158 -0.0911482 0
M  V30 5202 H 478.197 3.38316 1.56834 0
M  V30 5203 N 480.382 0.0267497 1.57577 0
M  V30 5204 C 481.793 -0.512413 1.79531 0
M  V30 5205 C 482.144 -1.72391 0.936791 0
M  V30 5206 O 481.269 -2.15903 0.146543 0
M  V30 5207 C 481.864 -0.936378 3.25603 0
M  V30 5208 C 480.423 -1.42067 3.4856 0
M  V30 5209 C 479.57 -0.384278 2.74624 0
M  V30 5210 H 482.521 0.252797 1.56674 0
M  V30 5211 H 482.542 -1.80088 3.35184 0
M  V30 5212 H 482.054 -0.0544332 3.88062 0
M  V30 5213 H 480.155 -2.32262 2.9135 0
M  V30 5214 H 480.268 -1.42968 4.57271 0
M  V30 5215 H 478.632 -0.851855 2.40032 0
M  V30 5216 H 479.415 0.489159 3.39797 0
M  V30 5217 N 481.861 -1.55662 -0.24637 0
M  V30 5218 C 483.272 -1.67953 -0.81539 0
M  V30 5219 C 483.623 -0.624302 -1.86002 0
M  V30 5220 O 482.748 0.229328 -2.15181 0
M  V30 5221 C 483.343 -3.04484 -1.48576 0
M  V30 5222 C 481.902 -3.18713 -2.00248 0
M  V30 5223 C 481.049 -2.6383 -0.853766 0
M  V30 5224 H 484 -1.58685 -0.0221692 0
M  V30 5225 H 484.021 -2.98959 -2.3538 0
M  V30 5226 H 483.533 -3.81264 -0.725222 0
M  V30 5227 H 481.634 -2.46757 -2.79181 0
M  V30 5228 H 481.747 -4.25628 -2.1995 0
M  V30 5229 H 480.111 -2.21667 -1.25442 0
M  V30 5230 H 480.894 -3.43135 -0.106302 0
M  V30 5231 N 483.339 0.512053 -1.4905 0
M  V30 5232 C 484.75 1.09376 -1.51307 0
M  V30 5233 C 485.101 1.94 -0.292971 0
M  V30 5234 O 484.226 2.07965 0.598277 0
M  V30 5235 C 484.821 1.99031 -2.74176 0
M  V30 5236 C 483.38 2.52385 -2.79247 0
M  V30 5237 C 482.527 1.29749 -2.45073 0
M  V30 5238 H 485.478 0.296467 -1.55906 0
M  V30 5239 H 485.499 2.83569 -2.53711 0
M  V30 5240 H 485.011 1.37412 -3.62959 0
M  V30 5241 H 483.112 3.17673 -1.94716 0
M  V30 5242 H 483.225 2.90293 -3.81139 0
M  V30 5243 H 481.589 1.61912 -1.96612 0
M  V30 5244 H 482.372 0.698555 -3.36118 0
M  V30 5245 N 484.817 1.37938 0.762283 0
M  V30 5246 C 486.228 1.30094 1.33912 0
M  V30 5247 C 486.579 -0.0472026 1.96143 0
M  V30 5248 O 485.704 -0.94917 1.94473 0
M  V30 5249 C 486.299 2.35592 2.43478 0
M  V30 5250 C 484.858 2.31353 2.96905 0
M  V30 5251 C 484.005 2.18919 1.70205 0
M  V30 5252 H 486.956 1.48423 0.561816 0
M  V30 5253 H 486.977 2.00806 3.23199 0
M  V30 5254 H 486.489 3.33701 1.98155 0
M  V30 5255 H 484.59 1.36799 3.46579 0
M  V30 5256 H 484.703 3.25147 3.51875 0
M  V30 5257 H 483.067 1.65624 1.93496 0
M  V30 5258 H 483.85 3.18956 1.26973 0
M  V30 5259 N 486.295 -0.989507 1.22664 0
M  V30 5260 C 487.225 -2.09847 1.02404 0
M  V30 5261 C 488.206 -1.70007 -0.0561303 0
M  V30 5262 O 489.391 -1.93906 0.106748 0
M  V30 5263 C 486.521 -3.41996 0.604663 0
M  V30 5264 C 485.475 -3.95699 1.63115 0
M  V30 5265 C 484.801 -5.23936 1.0675 0
M  V30 5266 C 486.101 -4.25999 3.02196 0
M  V30 5267 H 487.795 -2.27054 1.95158 0
M  V30 5268 H 485.341 -1.09111 0.939727 0
M  V30 5269 H 487.294 -4.1899 0.45002 0
M  V30 5270 H 486.018 -3.24626 -0.35855 0
M  V30 5271 H 484.677 -3.2084 1.77362 0
M  V30 5272 H 484.325 -5.02909 0.0955422 0
M  V30 5273 H 484.025 -5.60833 1.75328 0
M  V30 5274 H 485.549 -6.0356 0.924516 0
M  V30 5275 H 486.963 -4.93777 2.91303 0
M  V30 5276 H 485.36 -4.74076 3.67929 0
M  V30 5277 H 486.43 -3.33636 3.51873 0
M  V30 5278 N 487.773 -1.03688 -1.18687 0
M  V30 5279 C 489.02 -0.73803 -1.88572 0
M  V30 5280 C 489.348 0.733973 -1.8012 0
M  V30 5281 O 488.603 1.55098 -1.19344 0
M  V30 5282 C 488.902 -1.14477 -3.3857 0
M  V30 5283 C 488.568 -2.61641 -3.67226 0
M  V30 5284 C 487.23 -3.01846 -3.74757 0
M  V30 5285 C 489.582 -3.56812 -3.79914 0
M  V30 5286 C 486.91 -4.36118 -3.92451 0
M  V30 5287 C 489.262 -4.90799 -3.99123 0
M  V30 5288 C 487.926 -5.3068 -4.04888 0
M  V30 5289 H 487.196 -0.270064 -0.690034 0
M  V30 5290 H 489.843 -1.3012 -1.40503 0
M  V30 5291 H 488.148 -0.500337 -3.88592 0
M  V30 5292 H 489.845 -0.89095 -3.90977 0
M  V30 5293 H 486.435 -2.29498 -3.61979 0
M  V30 5294 H 490.619 -3.26899 -3.73431 0
M  V30 5295 H 485.875 -4.66542 -3.95157 0
M  V30 5296 H 490.049 -5.64451 -4.07882 0
M  V30 5297 H 487.676 -6.34733 -4.18351 0
M  V30 5298 N 489.251 1.34841 -0.815825 0
M  V30 5299 C 490.181 2.32187 -0.247298 0
M  V30 5300 C 491.162 1.5791 0.632344 0
M  V30 5301 O 492.347 1.8593 0.560698 0
M  V30 5302 C 489.477 3.42122 0.597466 0
M  V30 5303 C 488.431 4.27602 -0.184446 0
M  V30 5304 C 487.757 5.28942 0.782609 0
M  V30 5305 C 489.057 5.03502 -1.38865 0
M  V30 5306 H 490.751 2.79985 -1.06061 0
M  V30 5307 H 488.297 1.34611 -0.511461 0
M  V30 5308 H 490.25 4.09232 1.00533 0
M  V30 5309 H 488.974 2.92956 1.44376 0
M  V30 5310 H 487.633 3.62085 -0.573592 0
M  V30 5311 H 487.281 4.7604 1.62466 0
M  V30 5312 H 486.981 5.87008 0.263695 0
M  V30 5313 H 488.505 5.98922 1.18848 0
M  V30 5314 H 489.919 5.63506 -1.05518 0
M  V30 5315 H 488.316 5.71108 -1.8427 0
M  V30 5316 H 489.386 4.33608 -2.17054 0
M  V30 5317 N 490.729 0.570148 1.46925 0
M  V30 5318 C 492.14 0.1402 1.86173 0
M  V30 5319 C 492.491 -1.29347 1.47526 0
M  V30 5320 O 491.616 -1.97508 0.884292 0
M  V30 5321 C 492.211 0.247661 3.37894 0
M  V30 5322 C 490.77 -0.127332 3.76185 0
M  V30 5323 C 489.917 0.589349 2.70965 0
M  V30 5324 H 492.868 0.779117 1.38259 0
M  V30 5325 H 492.889 -0.530341 3.76786 0
M  V30 5326 H 492.401 1.29121 3.65991 0
M  V30 5327 H 490.502 -1.17149 3.53704 0
M  V30 5328 H 490.615 0.240238 4.78497 0
M  V30 5329 H 488.979 0.0309824 2.54681 0
M  V30 5330 H 489.762 1.6343 3.01903 0
M  V30 5331 N 492.207 -1.54576 0.307264 0
M  V30 5332 C 493.435 -2.04675 -0.302597 0
M  V30 5333 C 493.85 -1.18425 -1.47041 0
M  V30 5334 O 493.207 -0.211257 -1.81273 0
M  V30 5335 C 493.258 -3.53575 -0.752801 0
M  V30 5336 O 492.979 -4.36547 0.368536 0
M  V30 5337 C 494.48 -4.19699 -1.42717 0
M  V30 5338 H 491.7 -0.66786 -0.0648374 0
M  V30 5339 H 494.244 -1.99516 0.448716 0
M  V30 5340 H 492.399 -3.59074 -1.45412 0
M  V30 5341 H 492.813 -5.24497 0.0168937 0
M  V30 5342 H 494.287 -5.25388 -1.69327 0
M  V30 5343 H 494.764 -3.69815 -2.36925 0
M  V30 5344 H 495.37 -4.18293 -0.768856 0
M  V30 5345 N 493.685 -0.035106 -1.57561 0
M  V30 5346 C 494.962 0.681212 -1.83354 0
M  V30 5347 C 495.342 1.89986 -0.920252 0
M  V30 5348 O 494.69 2.28489 0.0226815 0
M  V30 5349 C 494.9 1.05376 -3.32712 0
M  V30 5350 C 496.248 1.44286 -3.99333 0
M  V30 5351 O 497.272 1.14656 -3.37242 0
M  V30 5352 O 496.131 1.99518 -5.08778 0
M  V30 5353 H 493.225 0.334741 -0.756226 0
M  V30 5354 H 495.771 -0.0632448 -1.69582 0
M  V30 5355 H 494.543 0.186668 -3.90854 0
M  V30 5356 H 494.166 1.85619 -3.51613 0
M  V30 5357 N 495.163 1.55791 0.238111 0
M  V30 5358 C 496.574 1.68383 0.806472 0
M  V30 5359 C 496.925 0.634157 1.85669 0
M  V30 5360 O 496.05 -0.217913 2.153 0
M  V30 5361 C 496.645 3.05268 1.46959 0
M  V30 5362 C 495.204 3.1977 1.98555 0
M  V30 5363 C 494.351 2.64279 0.839763 0
M  V30 5364 H 497.302 1.58694 0.0137535 0
M  V30 5365 H 497.323 3.00203 2.33792 0
M  V30 5366 H 496.835 3.81643 0.704993 0
M  V30 5367 H 494.936 2.48234 2.77868 0
M  V30 5368 H 495.049 4.26788 2.17689 0
M  V30 5369 H 493.413 2.22329 1.24265 0
M  V30 5370 H 494.196 3.43187 0.0881032 0
M  V30 5371 N 496.642 -0.504142 1.49319 0
M  V30 5372 C 498.053 -1.08572 1.51885 0
M  V30 5373 C 498.404 -1.93842 0.303255 0
M  V30 5374 O 497.529 -2.0828 -0.58724 0
M  V30 5375 C 498.124 -1.97574 2.75227 0
M  V30 5376 C 496.683 -2.509 2.80581 0
M  V30 5377 C 495.83 -1.28447 2.45757 0
M  V30 5378 H 498.781 -0.288194 1.56061 0
M  V30 5379 H 498.802 -2.82219 2.55211 0
M  V30 5380 H 498.314 -1.35486 3.63683 0
M  V30 5381 H 496.415 -3.16636 1.96398 0
M  V30 5382 H 496.528 -2.88268 3.82673 0
M  V30 5383 H 494.892 -1.60868 1.97468 0
M  V30 5384 H 495.675 -0.68072 3.36483 0
M  V30 5385 N 498.12 -1.38341 -0.754957 0
M  V30 5386 C 499.053 -1.29837 -1.87663 0
M  V30 5387 C 500.031 -0.175659 -1.61648 0
M  V30 5388 O 501.215 -0.352745 -1.8517 0
M  V30 5389 C 498.342 -1.01141 -3.23246 0
M  V30 5390 C 497.388 -2.15331 -3.6815 0
M  V30 5391 S 498.221 -3.77459 -3.79849 0
M  V30 5392 C 499.377 -3.50948 -5.18253 0
M  V30 5393 H 499.61 -2.24771 -1.9459 0
M  V30 5394 H 497.143 -1.24161 -0.917796 0
M  V30 5395 H 499.101 -0.852687 -4.01546 0
M  V30 5396 H 497.762 -0.0792784 -3.14 0
M  V30 5397 H 496.955 -1.90795 -4.6649 0
M  V30 5398 H 496.557 -2.27304 -2.97 0
M  V30 5399 H 498.849 -3.06977 -6.03963 0
M  V30 5400 H 499.792 -4.48677 -5.47809 0
M  V30 5401 H 500.2 -2.85492 -4.86985 0
M  V30 5402 N 499.598 0.982988 -1.23187 0
M  V30 5403 C 500.561 2.05649 -1.01198 0
M  V30 5404 C 501.561 1.6078 0.0252464 0
M  V30 5405 O 502.751 1.72878 -0.214243 0
M  V30 5406 C 499.883 3.36744 -0.530656 0
M  V30 5407 H 501.076 2.2659 -1.96461 0
M  V30 5408 H 498.629 1.15602 -1.05195 0
M  V30 5409 H 499.364 3.21492 0.425873 0
M  V30 5410 H 499.149 3.7065 -1.2791 0
M  V30 5411 H 500.639 4.15705 -0.397366 0
M  V30 5412 N 501.076 1.04316 1.18135 0
M  V30 5413 C 502.322 0.758899 1.88712 0
M  V30 5414 C 502.677 -0.705863 1.78984 0
M  V30 5415 O 501.97 -1.50874 1.18101 0
M  V30 5416 C 502.164 1.16271 3.37958 0
M  V30 5417 C 501.993 2.66518 3.62213 0
M  V30 5418 C 500.763 3.33702 3.79436 0
M  V30 5419 C 502.961 3.64739 3.62588 0
M  V30 5420 N 500.943 4.72904 3.91452 0
M  V30 5421 C 502.314 4.89627 3.80348 0
M  V30 5422 C 504.369 3.58333 3.4569 0
M  V30 5423 C 503.072 6.08879 3.8296 0
M  V30 5424 C 505.098 4.77016 3.49586 0
M  V30 5425 C 504.46 6.00724 3.67845 0
M  V30 5426 H 500.559 0.329795 0.709055 0
M  V30 5427 H 503.143 1.33334 1.4188 0
M  V30 5428 H 501.314 0.616319 3.83479 0
M  V30 5429 H 503.046 0.829205 3.96114 0
M  V30 5430 H 499.801 2.84105 3.78921 0
M  V30 5431 H 500.225 5.45258 4.01277 0
M  V30 5432 H 504.867 2.63663 3.30517 0
M  V30 5433 H 502.585 7.03903 3.96921 0
M  V30 5434 H 506.171 4.73703 3.37782 0
M  V30 5435 H 505.051 6.91022 3.70753 0
M  V30 5436 N 502.554 -1.34406 0.822964 0
M  V30 5437 C 503.484 -2.32052 0.259608 0
M  V30 5438 C 504.465 -1.58243 -0.623961 0
M  V30 5439 O 505.65 -1.86224 -0.55083 0
M  V30 5440 C 502.78 -3.42434 -0.579314 0
M  V30 5441 C 501.734 -4.27499 0.20712 0
M  V30 5442 C 501.06 -5.29349 -0.754547 0
M  V30 5443 C 502.36 -5.02758 1.41533 0
M  V30 5444 H 504.054 -2.79418 1.07545 0
M  V30 5445 H 501.6 -1.34338 0.518593 0
M  V30 5446 H 503.553 -4.0976 -0.983612 0
M  V30 5447 H 502.277 -2.93717 -1.4282 0
M  V30 5448 H 500.936 -3.61776 0.592787 0
M  V30 5449 H 500.584 -4.76895 -1.59939 0
M  V30 5450 H 500.284 -5.8714 -0.232561 0
M  V30 5451 H 501.808 -5.99544 -1.1567 0
M  V30 5452 H 503.222 -5.62938 1.08504 0
M  V30 5453 H 501.619 -5.70123 1.87296 0
M  V30 5454 H 502.689 -4.32451 2.1935 0
M  V30 5455 N 504.032 -0.577932 -1.46621 0
M  V30 5456 C 504.962 0.145917 -2.33044 0
M  V30 5457 C 505.943 0.888412 -1.45056 0
M  V30 5458 O 507.128 0.864812 -1.73881 0
M  V30 5459 C 504.258 1.16322 -3.27241 0
M  V30 5460 C 503.212 0.535868 -4.24632 0
M  V30 5461 C 502.538 1.65929 -5.08303 0
M  V30 5462 C 503.838 -0.523861 -5.19666 0
M  V30 5463 H 505.532 -0.575636 -2.93814 0
M  V30 5464 H 503.078 -0.278272 -1.41286 0
M  V30 5465 H 505.031 1.67793 -3.86553 0
M  V30 5466 H 503.755 1.91498 -2.64567 0
M  V30 5467 H 502.414 0.0422759 -3.66576 0
M  V30 5468 H 502.062 2.40061 -4.42018 0
M  V30 5469 H 501.762 1.2452 -5.74255 0
M  V30 5470 H 503.286 2.17686 -5.70478 0
M  V30 5471 H 504.7 -0.0944059 -5.73222 0
M  V30 5472 H 503.097 -0.858 -5.93935 0
M  V30 5473 H 504.167 -1.41197 -4.63887 0
M  V30 5474 N 505.51 1.54411 -0.315457 0
M  V30 5475 C 506.473 2.22713 0.54142 0
M  V30 5476 C 507.473 1.2179 1.04995 0
M  V30 5477 O 508.663 1.46426 0.943667 0
M  V30 5478 C 505.795 2.92485 1.75116 0
M  V30 5479 H 506.988 2.99849 -0.0555508 0
M  V30 5480 H 504.541 1.56159 -0.0664453 0
M  V30 5481 H 505.276 2.19466 2.38758 0
M  V30 5482 H 505.061 3.66483 1.39401 0
M  V30 5483 H 506.551 3.44548 2.35959 0
M  V30 5484 N 506.988 0.0434614 1.5754 0
M  V30 5485 C 507.935 -0.93356 2.11077 0
M  V30 5486 C 508.905 -1.31383 1.01626 0
M  V30 5487 O 510.09 -1.40465 1.29129 0
M  V30 5488 C 507.23 -2.20578 2.65404 0
M  V30 5489 C 506.343 -1.88068 3.88914 0
M  V30 5490 C 505.478 -3.09691 4.31584 0
M  V30 5491 C 504.517 -2.73067 5.47815 0
M  V30 5492 N 503.654 -3.87359 5.85574 0
M  V30 5493 H 508.494 -0.470118 2.94268 0
M  V30 5494 H 506.031 -0.220434 1.45439 0
M  V30 5495 H 507.989 -2.95011 2.94999 0
M  V30 5496 H 506.619 -2.64513 1.85021 0
M  V30 5497 H 505.671 -1.03816 3.6596 0
M  V30 5498 H 506.983 -1.57104 4.73413 0
M  V30 5499 H 506.137 -3.92431 4.62691 0
M  V30 5500 H 504.876 -3.43827 3.45882 0
M  V30 5501 H 503.881 -1.88742 5.16388 0
M  V30 5502 H 505.106 -2.40131 6.35227 0
M  V30 5503 H 503.052 -4.21311 5.02825 0
M  V30 5504 H 502.969 -3.60068 6.64746 0
M  V30 5505 H 504.237 -4.70761 6.21292 0
M  V30 5506 N 508.466 -1.55915 -0.229846 0
M  V30 5507 C 509.706 -1.80314 -0.962614 0
M  V30 5508 C 510.07 -0.61568 -1.81861 0
M  V30 5509 O 511.271 -0.738795 -2.58448 0
M  V30 5510 C 509.542 -3.0956 -1.78627 0
M  V30 5511 S 511.101 -3.55243 -2.57581 0
M  V30 5512 H 507.919 -0.633142 -0.323499 0
M  V30 5513 H 510.521 -1.94155 -0.228919 0
M  V30 5514 H 509.225 -3.94033 -1.14742 0
M  V30 5515 H 508.756 -2.98503 -2.56241 0
M  V30 5516 H 510.771 -3.17924 -3.80971 0
M  V30 5517 N 509.944 0.496216 -1.49584 0
M  V30 5518 C 511.19 1.24918 -1.60521 0
M  V30 5519 C 511.545 1.90197 -0.290352 0
M  V30 5520 O 510.838 1.77967 0.709813 0
M  V30 5521 C 511.032 2.3359 -2.705 0
M  V30 5522 C 510.861 1.78969 -4.12553 0
M  V30 5523 C 509.631 1.60057 -4.79281 0
M  V30 5524 C 511.829 1.29883 -4.97629 0
M  V30 5525 N 509.811 1.00415 -6.05632 0
M  V30 5526 C 511.182 0.824057 -6.14499 0
M  V30 5527 C 513.237 1.18501 -4.83593 0
M  V30 5528 C 511.94 0.246721 -7.18877 0
M  V30 5529 C 513.966 0.621634 -5.88124 0
M  V30 5530 C 513.328 0.157116 -7.04225 0
M  V30 5531 H 509.427 0.446896 -0.641722 0
M  V30 5532 H 512.011 0.555456 -1.86609 0
M  V30 5533 H 510.182 3.00418 -2.46178 0
M  V30 5534 H 511.914 3.00628 -2.70933 0
M  V30 5535 H 508.669 1.84562 -4.36158 0
M  V30 5536 H 509.093 0.725074 -6.73106 0
M  V30 5537 H 513.735 1.53012 -3.94141 0
M  V30 5538 H 511.453 -0.110651 -8.08024 0
M  V30 5539 H 515.039 0.536279 -5.79323 0
M  V30 5540 H 513.919 -0.272009 -7.83728 0
M  V30 5541 N 511.423 1.38739 0.74761 0
M  V30 5542 C 512.669 1.35475 1.50912 0
M  V30 5543 C 513.002 -0.0533093 1.94127 0
M  V30 5544 O 512.277 -1.01572 1.65871 0
M  V30 5545 C 512.56 2.31582 2.75757 0
M  V30 5546 C 512.413 3.81274 2.38642 0
M  V30 5547 C 513.732 2.25722 3.77806 0
M  V30 5548 H 510.851 0.493427 0.547447 0
M  V30 5549 H 513.493 1.69634 0.855823 0
M  V30 5550 H 511.643 2.02582 3.31501 0
M  V30 5551 H 513.315 4.20972 1.88626 0
M  V30 5552 H 511.558 3.98664 1.71025 0
M  V30 5553 H 512.229 4.4399 3.27989 0
M  V30 5554 H 514.705 2.51336 3.31616 0
M  V30 5555 H 513.581 2.95069 4.62845 0
M  V30 5556 H 513.842 1.25803 4.23823 0
M  V30 5557 N 512.901 -0.976442 1.23707 0
M  V30 5558 C 514.317 -1.24341 1.00058 0
M  V30 5559 C 514.517 -1.99315 -0.295932 0
M  V30 5560 O 513.573 -2.3123 -1.01435 0
M  V30 5561 C 514.886 -2.03909 2.21001 0
M  V30 5562 C 516.434 -2.17034 2.25534 0
M  V30 5563 C 516.909 -2.99994 3.46075 0
M  V30 5564 N 518.4 -3.07578 3.46338 0
M  V30 5565 C 519.135 -3.72104 4.36264 0
M  V30 5566 N 518.631 -4.3842 5.36432 0
M  V30 5567 N 520.424 -3.69029 4.23998 0
M  V30 5568 H 512.575 -0.47428 2.07037 0
M  V30 5569 H 514.838 -0.272167 0.908091 0
M  V30 5570 H 514.544 -1.56198 3.15111 0
M  V30 5571 H 514.418 -3.04654 2.22409 0
M  V30 5572 H 516.805 -2.63951 1.31961 0
M  V30 5573 H 516.886 -1.15664 2.28156 0
M  V30 5574 H 516.53 -2.53772 4.39957 0
M  V30 5575 H 516.46 -4.01541 3.40694 0
M  V30 5576 H 518.951 -2.60397 2.73865 0
M  V30 5577 H 519.264 -4.85447 6.013 0
M  V30 5578 H 517.609 -4.37116 5.40328 0
M  V30 5579 H 520.8 -3.16392 3.44984 0
M  V30 5580 H 520.973 -4.19034 4.94282 0
M  V30 5581 N 514.379 -1.04941 -1.1758 0
M  V30 5582 C 515.604 -0.778253 -1.92245 0
M  V30 5583 C 516.029 0.659707 -1.76152 0
M  V30 5584 O 515.387 1.45803 -1.07755 0
M  V30 5585 C 515.435 -1.16051 -3.41416 0
M  V30 5586 O 514.539 -0.291153 -4.11371 0
M  V30 5587 H 513.88 -0.285619 -0.599431 0
M  V30 5588 H 516.41 -1.40159 -1.49052 0
M  V30 5589 H 516.42 -1.12619 -3.92149 0
M  V30 5590 H 515.095 -2.208 -3.52449 0
M  V30 5591 H 513.672 -0.385851 -3.70898 0
M  V30 5592 N 515.857 1.33968 -0.830081 0
M  V30 5593 C 517.082 2.02813 -0.433796 0
M  V30 5594 C 517.507 1.62076 0.954614 0
M  V30 5595 O 516.865 0.808955 1.62252 0
M  V30 5596 C 516.913 3.56348 -0.552115 0
M  V30 5597 O 516.017 4.10202 0.425191 0
M  V30 5598 H 515.358 0.639817 -0.177567 0
M  V30 5599 H 517.888 1.7106 -1.12248 0
M  V30 5600 H 517.898 4.05722 -0.430513 0
M  V30 5601 H 516.573 3.85344 -1.56471 0
M  V30 5602 H 515.15 3.71979 0.261878 0
M  V30 5603 N 517.335 0.585699 1.46312 0
M  V30 5604 C 518.612 0.00542031 1.95599 0
M  V30 5605 C 518.992 -1.45619 1.52834 0
M  V30 5606 O 518.34 -2.14759 0.780446 0
M  V30 5607 C 518.55 0.180601 3.48532 0
M  V30 5608 C 519.898 0.049979 4.24571 0
M  V30 5609 O 520.922 0.109589 3.56031 0
M  V30 5610 O 519.781 -0.0832226 5.46437 0
M  V30 5611 H 516.875 -0.0481281 0.825598 0
M  V30 5612 H 519.421 0.654227 1.56582 0
M  V30 5613 H 518.193 1.19657 3.72556 0
M  V30 5614 H 517.816 -0.504498 3.94386 0
M  V30 5615 N 518.813 -1.54241 0.323641 0
M  V30 5616 C 520.06 -2.0057 -0.27891 0
M  V30 5617 C 520.388 -1.21181 -1.52136 0
M  V30 5618 O 519.643 -0.282043 -1.93657 0
M  V30 5619 C 519.942 -3.5129 -0.658031 0
M  V30 5620 C 519.608 -4.48281 0.485252 0
M  V30 5621 C 518.27 -4.74519 0.799055 0
M  V30 5622 C 520.622 -5.05909 1.25322 0
M  V30 5623 C 517.95 -5.55643 1.88354 0
M  V30 5624 C 520.302 -5.88215 2.32779 0
M  V30 5625 C 518.966 -6.12755 2.64741 0
M  V30 5626 H 518.236 -0.733938 -0.10206 0
M  V30 5627 H 520.883 -1.862 0.447435 0
M  V30 5628 H 519.188 -3.63388 -1.4648 0
M  V30 5629 H 520.885 -3.84578 -1.1358 0
M  V30 5630 H 517.475 -4.27979 0.230593 0
M  V30 5631 H 521.659 -4.8562 1.02404 0
M  V30 5632 H 516.915 -5.72888 2.13564 0
M  V30 5633 H 521.089 -6.31888 2.92729 0
M  V30 5634 H 518.716 -6.75404 3.48904 0
M  V30 5635 N 520.291 -0.0518155 -1.57515 0
M  V30 5636 C 521.223 0.951542 -2.08515 0
M  V30 5637 C 522.236 1.27436 -1.01311 0
M  V30 5638 O 523.425 1.23504 -1.28876 0
M  V30 5639 C 520.525 2.27291 -2.5138 0
M  V30 5640 C 519.698 2.13191 -3.81927 0
M  V30 5641 C 518.757 3.28458 -4.11098 0
M  V30 5642 O 517.783 3.04334 -4.81009 0
M  V30 5643 N 518.985 4.52954 -3.63061 0
M  V30 5644 H 521.75 0.516242 -2.9522 0
M  V30 5645 H 519.311 0.13441 -1.61341 0
M  V30 5646 H 521.303 3.03272 -2.67971 0
M  V30 5647 H 519.873 2.62386 -1.69919 0
M  V30 5648 H 519.093 1.21798 -3.74912 0
M  V30 5649 H 520.381 2.00999 -4.67415 0
M  V30 5650 H 519.779 4.75444 -3.06545 0
M  V30 5651 H 518.336 5.26026 -3.84889 0
M  V30 5652 N 521.769 1.56035 0.221574 0
M  V30 5653 C 522.699 1.95434 1.2778 0
M  V30 5654 C 523.68 0.822564 1.48889 0
M  V30 5655 O 524.865 1.08486 1.61072 0
M  V30 5656 C 521.995 2.27102 2.62759 0
M  V30 5657 C 520.949 3.4277 2.56306 0
M  V30 5658 C 520.275 3.60043 3.95314 0
M  V30 5659 C 521.575 4.77742 2.11093 0
M  V30 5660 H 523.269 2.83912 0.950504 0
M  V30 5661 H 520.815 1.36596 0.455791 0
M  V30 5662 H 522.768 2.53256 3.36807 0
M  V30 5663 H 521.492 1.35478 2.97176 0
M  V30 5664 H 520.151 3.16664 1.84715 0
M  V30 5665 H 519.799 2.65794 4.27039 0
M  V30 5666 H 519.499 4.37841 3.91879 0
M  V30 5667 H 521.023 3.88545 4.71025 0
M  V30 5668 H 522.437 5.03102 2.74885 0
M  V30 5669 H 520.834 5.58823 2.18716 0
M  V30 5670 H 521.904 4.731 1.06321 0
M  V30 5671 N 523.247 -0.488276 1.49845 0
M  V30 5672 C 524.197 -1.58556 1.63842 0
M  V30 5673 C 525.181 -1.53142 0.493586 0
M  V30 5674 O 526.373 -1.60457 0.747169 0
M  V30 5675 C 523.502 -2.97101 1.72005 0
M  V30 5676 C 522.588 -3.07463 2.92108 0
M  V30 5677 N 522.979 -2.87681 4.16021 0
M  V30 5678 C 521.277 -3.3858 2.90309 0
M  V30 5679 C 521.978 -3.0256 4.96822 0
M  V30 5680 N 520.954 -3.32002 4.30437 0
M  V30 5681 H 524.756 -1.41935 2.57355 0
M  V30 5682 H 522.27 -0.694668 1.46793 0
M  V30 5683 H 524.267 -3.75976 1.80132 0
M  V30 5684 H 522.927 -3.14782 0.796375 0
M  V30 5685 H 523.938 -2.63603 4.45796 0
M  V30 5686 H 520.615 -3.62357 2.07372 0
M  V30 5687 H 522.005 -2.9165 6.05301 0
M  V30 5688 N 524.725 -1.39134 -0.740242 0
M  V30 5689 C 525.635 -1.39697 -1.88473 0
M  V30 5690 C 526.651 -0.292403 -1.71526 0
M  V30 5691 O 527.827 -0.533021 -1.94219 0
M  V30 5692 C 524.892 -1.23382 -3.24003 0
M  V30 5693 C 523.953 -2.43763 -3.53381 0
M  V30 5694 C 523.186 -2.28216 -4.82445 0
M  V30 5695 O 523.409 -1.28288 -5.55786 0
M  V30 5696 O 522.343 -3.1709 -5.11603 0
M  V30 5697 H 526.169 -2.36159 -1.90952 0
M  V30 5698 H 523.754 -1.20194 -0.887346 0
M  V30 5699 H 525.636 -1.16395 -4.05006 0
M  V30 5700 H 524.311 -0.300121 -3.22306 0
M  V30 5701 H 523.218 -2.56325 -2.72485 0
M  V30 5702 H 524.551 -3.35808 -3.59852 0
M  V30 5703 N 526.204 0.969867 -1.24223 0
M  V30 5704 C 527.134 2.08191 -1.05729 0
M  V30 5705 C 528.115 1.70075 0.0290765 0
M  V30 5706 O 529.3 1.93712 -0.137583 0
M  V30 5707 C 526.43 3.40991 -0.658995 0
M  V30 5708 C 525.384 3.93054 -1.69389 0
M  V30 5709 C 524.71 5.22171 -1.15072 0
M  V30 5710 C 526.01 4.21137 -3.08935 0
M  V30 5711 H 527.704 2.23921 -1.98746 0
M  V30 5712 H 525.25 1.07602 -0.956967 0
M  V30 5713 H 527.203 4.18221 -0.51662 0
M  V30 5714 H 525.927 3.25155 0.30686 0
M  V30 5715 H 524.586 3.17977 -1.82444 0
M  V30 5716 H 524.234 5.02694 -0.175539 0
M  V30 5717 H 523.934 5.57973 -1.84229 0
M  V30 5718 H 525.458 6.02013 -1.02042 0
M  V30 5719 H 526.872 4.8908 -2.99121 0
M  V30 5720 H 525.269 4.68163 -3.75425 0
M  V30 5721 H 526.339 3.27996 -3.57137 0
M  V30 5722 N 527.682 1.05563 1.17022 0
M  V30 5723 C 528.614 0.617888 2.20714 0
M  V30 5724 C 529.627 -0.320303 1.59618 0
M  V30 5725 O 530.816 -0.112449 1.78145 0
M  V30 5726 C 527.916 -0.115333 3.38704 0
M  V30 5727 C 527.089 0.834493 4.29366 0
M  V30 5728 C 526.148 0.141855 5.26009 0
M  V30 5729 O 525.174 0.777151 5.6387 0
M  V30 5730 N 526.376 -1.11934 5.69606 0
M  V30 5731 H 529.141 1.50981 2.58892 0
M  V30 5732 H 526.702 0.938008 1.31958 0
M  V30 5733 H 528.694 -0.588918 4.00392 0
M  V30 5734 H 527.264 -0.908967 2.99093 0
M  V30 5735 H 526.484 1.48762 3.65053 0
M  V30 5736 H 527.772 1.4791 4.86827 0
M  V30 5737 H 527.17 -1.65574 5.40927 0
M  V30 5738 H 525.727 -1.53692 6.33421 0
M  V30 5739 N 529.16 -1.33526 0.837174 0
M  V30 5740 C 530.385 -2.0258 0.444545 0
M  V30 5741 C 530.81 -1.6258 -0.946006 0
M  V30 5742 O 530.168 -0.817548 -1.6182 0
M  V30 5743 C 530.216 -3.5605 0.571006 0
M  V30 5744 O 529.32 -4.10422 -0.403431 0
M  V30 5745 H 528.661 -0.638866 0.180958 0
M  V30 5746 H 531.191 -1.70462 1.13154 0
M  V30 5747 H 531.201 -4.05488 0.452024 0
M  V30 5748 H 529.876 -3.84509 1.58512 0
M  V30 5749 H 528.453 -3.72113 -0.242147 0
M  V30 5750 N 530.638 -0.59345 -1.46 0
M  V30 5751 C 531.588 0.154751 -2.27474 0
M  V30 5752 C 532.572 0.851849 -1.365 0
M  V30 5753 O 533.764 0.744171 -1.60596 0
M  V30 5754 C 530.893 1.16079 -3.2308 0
M  V30 5755 C 529.979 0.465256 -4.2154 0
M  V30 5756 N 530.37 -0.485197 -5.03467 0
M  V30 5757 C 528.668 0.714634 -4.40237 0
M  V30 5758 C 529.369 -0.892709 -5.74809 0
M  V30 5759 N 528.345 -0.239511 -5.43072 0
M  V30 5760 H 532.147 -0.57546 -2.88211 0
M  V30 5761 H 529.661 -0.416046 -1.5698 0
M  V30 5762 H 531.658 1.71108 -3.80168 0
M  V30 5763 H 530.318 1.89171 -2.63903 0
M  V30 5764 H 531.329 -0.861258 -5.10689 0
M  V30 5765 H 528.006 1.43131 -3.92199 0
M  V30 5766 H 529.396 -1.67581 -6.50666 0
M  V30 5767 N 532.116 1.54067 -0.331816 0
M  V30 5768 C 533.046 2.27569 0.522932 0
M  V30 5769 C 534.027 1.28679 1.11247 0
M  V30 5770 O 535.212 1.57504 1.13605 0
M  V30 5771 C 532.342 3.0397 1.67987 0
M  V30 5772 C 531.296 4.10267 1.21924 0
M  V30 5773 C 530.622 4.74555 2.46377 0
M  V30 5774 C 531.922 5.21268 0.32815 0
M  V30 5775 H 533.616 2.99264 -0.0901977 0
M  V30 5776 H 531.162 1.4393 -0.044821 0
M  V30 5777 H 533.115 3.54123 2.28418 0
M  V30 5778 H 531.839 2.29906 2.31971 0
M  V30 5779 H 530.498 3.61009 0.637809 0
M  V30 5780 H 530.146 3.97098 3.08743 0
M  V30 5781 H 529.846 5.46363 2.16243 0
M  V30 5782 H 531.37 5.27487 3.07555 0
M  V30 5783 H 532.784 5.67128 0.838978 0
M  V30 5784 H 531.181 5.99982 0.119228 0
M  V30 5785 H 532.251 4.80673 -0.638839 0
M  V30 5786 N 533.594 0.0601682 1.57485 0
M  V30 5787 C 534.524 -0.90889 2.15085 0
M  V30 5788 C 535.505 -1.31838 1.07484 0
M  V30 5789 O 536.69 -1.3915 1.35466 0
M  V30 5790 C 533.82 -2.18059 2.7031 0
M  V30 5791 C 532.774 -1.91088 3.82974 0
M  V30 5792 C 532.1 -3.24789 4.24754 0
M  V30 5793 C 533.4 -1.22535 5.07723 0
M  V30 5794 H 535.094 -0.429093 2.96309 0
M  V30 5795 H 532.64 -0.204952 1.42534 0
M  V30 5796 H 534.593 -2.86258 3.09248 0
M  V30 5797 H 533.317 -2.6826 1.8629 0
M  V30 5798 H 531.976 -1.25297 3.44523 0
M  V30 5799 H 531.624 -3.72809 3.37672 0
M  V30 5800 H 531.324 -3.07538 5.00694 0
M  V30 5801 H 532.848 -3.94205 4.66299 0
M  V30 5802 H 534.262 -1.80783 5.4405 0
M  V30 5803 H 532.659 -1.1558 5.88864 0
M  V30 5804 H 533.729 -0.202692 4.84476 0
M  V30 5805 N 535.072 -1.5615 -0.213296 0
M  V30 5806 C 536.488 -1.49327 -0.56336 0
M  V30 5807 C 536.688 -0.756826 -1.86747 0
M  V30 5808 O 535.744 -0.299866 -2.50713 0
M  V30 5809 C 537.057 -2.9392 -0.634944 0
M  V30 5810 C 538.605 -3.04487 -0.725013 0
M  V30 5811 C 539.08 -4.50456 -0.82787 0
M  V30 5812 N 540.571 -4.54533 -0.891876 0
M  V30 5813 C 541.306 -5.64766 -0.991315 0
M  V30 5814 N 540.802 -6.84733 -1.05419 0
M  V30 5815 N 542.595 -5.52637 -1.02709 0
M  V30 5816 H 534.746 -2.02453 0.642366 0
M  V30 5817 H 537.009 -0.920548 0.226487 0
M  V30 5818 H 536.715 -3.50783 0.253859 0
M  V30 5819 H 536.589 -3.46274 -1.49579 0
M  V30 5820 H 538.976 -2.47685 -1.60425 0
M  V30 5821 H 539.057 -2.55289 0.161669 0
M  V30 5822 H 538.701 -5.07878 0.0469464 0
M  V30 5823 H 538.631 -4.97369 -1.73009 0
M  V30 5824 H 541.122 -3.68141 -0.85327 0
M  V30 5825 H 541.435 -7.64493 -1.13007 0
M  V30 5826 H 539.78 -6.87427 -1.02318 0
M  V30 5827 H 542.971 -4.5784 -0.974687 0
M  V30 5828 H 543.144 -6.38576 -1.10113 0
M  V30 5829 N 536.55 0.480323 -1.50102 0
M  V30 5830 C 537.798 1.23063 -1.60312 0
M  V30 5831 C 538.119 1.92659 -0.301226 0
M  V30 5832 O 537.389 1.83691 0.680753 0
M  V30 5833 H 535.969 0.457231 -0.590719 0
M  V30 5834 H 538.631 0.554893 -1.86834 0
M  V30 5835 H 537.727 1.9835 -2.40964 0
M  V30 5836 N 538.028 1.39524 0.732853 0
M  V30 5837 C 538.978 1.34905 1.83806 0
M  V30 5838 C 539.962 0.229546 1.59254 0
M  V30 5839 O 541.154 0.467255 1.70721 0
M  V30 5840 C 538.283 1.19699 3.21756 0
M  V30 5841 C 537.369 2.36359 3.5213 0
M  V30 5842 N 537.76 3.61834 3.53426 0
M  V30 5843 C 536.058 2.29363 3.82503 0
M  V30 5844 C 536.759 4.38992 3.81655 0
M  V30 5845 N 535.735 3.68606 3.99538 0
M  V30 5846 H 539.537 2.29882 1.83116 0
M  V30 5847 H 537.051 1.33051 0.931194 0
M  V30 5848 H 539.048 1.14472 4.00876 0
M  V30 5849 H 537.708 0.256739 3.23683 0
M  V30 5850 H 538.719 3.95228 3.34686 0
M  V30 5851 H 535.396 1.43612 3.92023 0
M  V30 5852 H 536.786 5.47763 3.89108 0
M  V30 5853 N 539.506 -0.963266 1.24736 0
M  V30 5854 C 540.436 -2.07628 1.06832 0
M  V30 5855 C 541.417 -1.70088 -0.0200566 0
M  V30 5856 O 542.602 -1.93636 0.147854 0
M  V30 5857 C 539.732 -3.40636 0.677069 0
M  V30 5858 C 538.686 -3.9215 1.71471 0
M  V30 5859 C 538.012 -5.21553 1.1784 0
M  V30 5860 C 539.312 -4.19493 3.11164 0
M  V30 5861 H 541.006 -2.22864 1.9993 0
M  V30 5862 H 538.552 -1.07093 0.96266 0
M  V30 5863 H 540.505 -4.17941 0.538792 0
M  V30 5864 H 539.229 -3.25313 -0.289612 0
M  V30 5865 H 537.888 -3.17005 1.84128 0
M  V30 5866 H 537.536 -5.02593 0.202195 0
M  V30 5867 H 537.236 -5.56988 1.87185 0
M  V30 5868 H 538.76 -6.01463 1.05233 0
M  V30 5869 H 540.174 -4.87487 3.01711 0
M  V30 5870 H 538.571 -4.66165 3.77902 0
M  V30 5871 H 539.641 -3.26097 3.58871 0
M  V30 5872 N 540.985 -1.06182 -1.16461 0
M  V30 5873 C 541.918 -0.615859 -2.19733 0
M  V30 5874 C 542.896 0.360766 -1.58547 0
M  V30 5875 O 544.08 0.270009 -1.86556 0
M  V30 5876 C 541.207 0.097312 -3.3856 0
M  V30 5877 C 540.253 -0.835889 -4.18229 0
M  V30 5878 S 541.086 -2.33052 -4.82128 0
M  V30 5879 C 542.242 -1.62881 -6.04335 0
M  V30 5880 H 542.475 -1.49079 -2.57221 0
M  V30 5881 H 540.008 -0.874692 -1.27234 0
M  V30 5882 H 541.966 0.502563 -4.07412 0
M  V30 5883 H 540.627 0.948418 -2.99439 0
M  V30 5884 H 539.82 -0.283426 -5.03202 0
M  V30 5885 H 539.422 -1.18097 -3.54865 0
M  V30 5886 H 541.714 -0.933764 -6.71034 0
M  V30 5887 H 542.657 -2.45641 -6.64128 0
M  V30 5888 H 543.065 -1.11189 -5.53441 0
M  V30 5889 N 542.463 1.3308 -0.844243 0
M  V30 5890 C 543.426 2.27403 -0.286485 0
M  V30 5891 C 544.426 1.51179 0.547872 0
M  V30 5892 O 545.616 1.70421 0.360886 0
M  V30 5893 C 542.748 3.35653 0.595813 0
M  V30 5894 H 543.941 2.78248 -1.11885 0
M  V30 5895 H 541.494 1.43574 -0.617749 0
M  V30 5896 H 542.229 2.90058 1.4504 0
M  V30 5897 H 542.014 3.921 -0.00125994 0
M  V30 5898 H 543.504 4.05958 0.979168 0
M  V30 5899 N 543.941 0.601185 1.45683 0
M  V30 5900 C 544.851 -0.123395 2.34275 0
M  V30 5901 C 545.867 -0.86702 1.5086 0
M  V30 5902 O 547.043 -0.826049 1.8368 0
M  V30 5903 C 544.108 -1.11237 3.2837 0
M  V30 5904 C 543.169 -0.371405 4.2769 0
M  V30 5905 C 542.402 -1.31327 5.1729 0
M  V30 5906 O 542.625 -2.55078 5.10188 0
M  V30 5907 O 541.559 -0.813811 5.96373 0
M  V30 5908 H 545.385 0.604483 2.97623 0
M  V30 5909 H 542.97 0.361477 1.44961 0
M  V30 5910 H 544.852 -1.68214 3.8637 0
M  V30 5911 H 543.527 -1.82139 2.67595 0
M  V30 5912 H 542.434 0.24067 3.73325 0
M  V30 5913 H 543.767 0.296998 4.91303 0
M  V30 5914 N 545.419 -1.53889 0.339982 0
M  V30 5915 C 546.665 -2.01152 -0.258003 0
M  V30 5916 C 546.998 -1.22749 -1.50487 0
M  V30 5917 O 546.273 -0.314156 -1.91946 0
M  V30 5918 C 546.556 -3.55468 -0.575717 0
M  V30 5919 C 546.409 -4.44584 0.682996 0
M  V30 5920 C 547.728 -4.1768 -1.38677 0
M  V30 5921 H 544.847 -0.731198 -0.0922992 0
M  V30 5922 H 547.489 -1.84352 0.459814 0
M  V30 5923 H 545.639 -3.69914 -1.18725 0
M  V30 5924 H 547.311 -4.41981 1.32102 0
M  V30 5925 H 545.554 -4.13592 1.3086 0
M  V30 5926 H 546.225 -5.5043 0.416001 0
M  V30 5927 H 548.701 -4.0691 -0.869705 0
M  V30 5928 H 547.577 -5.25734 -1.57783 0
M  V30 5929 H 547.838 -3.72069 -2.38782 0
M  V30 5930 N 546.897 -0.0685191 -1.57451 0
M  V30 5931 C 548.146 0.600898 -1.92541 0
M  V30 5932 C 548.459 1.70967 -0.950239 0
M  V30 5933 O 549.665 2.43844 -1.19384 0
M  V30 5934 C 548.121 1.12019 -3.42023 0
M  V30 5935 C 547.729 0.0426028 -4.4798 0
M  V30 5936 C 549.473 1.76386 -3.86119 0
M  V30 5937 C 547.38 0.575759 -5.88591 0
M  V30 5938 H 546.31 0.228225 -0.71863 0
M  V30 5939 H 548.961 -0.140223 -1.82963 0
M  V30 5940 H 547.343 1.91418 -3.46663 0
M  V30 5941 H 548.517 -0.73182 -4.54952 0
M  V30 5942 H 546.832 -0.504642 -4.13331 0
M  V30 5943 H 549.429 2.17302 -4.88553 0
M  V30 5944 H 549.772 2.62255 -3.23308 0
M  V30 5945 H 550.305 1.03615 -3.84069 0
M  V30 5946 H 547.044 -0.245691 -6.55039 0
M  V30 5947 H 546.564 1.31778 -5.85145 0
M  V30 5948 H 548.243 1.0532 -6.3837 0
M  V30 5949 N 548.375 1.56261 0.205012 0
M  V30 5950 C 549.621 1.80306 0.9283 0
M  V30 5951 C 549.954 0.640932 1.83319 0
M  V30 5952 O 549.229 -0.359032 1.91158 0
M  V30 5953 C 549.512 3.14547 1.75306 0
M  V30 5954 C 549.365 4.41236 0.873562 0
M  V30 5955 C 550.684 3.45382 2.72762 0
M  V30 5956 H 547.803 0.655929 0.336044 0
M  V30 5957 H 550.445 1.88984 0.196211 0
M  V30 5958 H 548.595 3.0728 2.37721 0
M  V30 5959 H 550.267 4.60539 0.264887 0
M  V30 5960 H 548.51 4.33427 0.179773 0
M  V30 5961 H 549.181 5.31639 1.48541 0
M  V30 5962 H 551.657 3.52884 2.20481 0
M  V30 5963 H 550.533 4.40449 3.2756 0
M  V30 5964 H 550.794 2.68377 3.51321 0
M  V30 5965 N 549.853 -0.472356 1.50355 0
M  V30 5966 C 551.099 -1.22634 1.6152 0
M  V30 5967 C 551.432 -1.91645 0.313995 0
M  V30 5968 O 550.707 -1.82059 -0.684446 0
M  V30 5969 C 550.99 -2.27099 2.7946 0
M  V30 5970 C 550.843 -1.62402 4.19459 0
M  V30 5971 C 552.162 -3.28421 2.92964 0
M  V30 5972 H 549.281 -0.444494 0.587873 0
M  V30 5973 H 551.923 -0.520321 1.82737 0
M  V30 5974 H 550.073 -2.87314 2.61501 0
M  V30 5975 H 551.745 -1.05793 4.49005 0
M  V30 5976 H 549.988 -0.927184 4.23776 0
M  V30 5977 H 550.659 -2.38309 4.97909 0
M  V30 5978 H 553.135 -2.78227 3.09401 0
M  V30 5979 H 552.011 -3.98845 3.77113 0
M  V30 5980 H 552.272 -3.92467 2.03525 0
M  V30 5981 N 551.331 -1.39911 -0.725443 0
M  V30 5982 C 552.294 -1.39156 -1.82121 0
M  V30 5983 C 553.294 -0.287018 -1.58218 0
M  V30 5984 O 554.484 -0.545421 -1.65441 0
M  V30 5985 C 551.616 -1.1736 -3.20062 0
M  V30 5986 H 552.809 -2.36672 -1.84191 0
M  V30 5987 H 550.362 -1.25615 -0.930079 0
M  V30 5988 H 551.097 -0.205648 -3.23647 0
M  V30 5989 H 550.882 -1.97358 -3.3881 0
M  V30 5990 H 552.372 -1.19596 -4.00108 0
M  V30 5991 N 552.809 0.956637 -1.25245 0
M  V30 5992 C 554.037 1.73571 -1.12608 0
M  V30 5993 C 554.452 1.86063 0.320324 0
M  V30 5994 O 553.809 1.35691 1.22042 0
M  V30 5995 C 553.86 3.15053 -1.77268 0
M  V30 5996 O 553.581 3.03174 -3.16255 0
M  V30 5997 C 555.082 4.09248 -1.70386 0
M  V30 5998 H 552.302 0.543955 -0.392879 0
M  V30 5999 H 554.846 1.20031 -1.65568 0
M  V30 6000 H 553.001 3.65543 -1.28284 0
M  V30 6001 H 553.415 3.9241 -3.48015 0
M  V30 6002 H 554.889 5.06138 -2.20291 0
M  V30 6003 H 555.366 4.34102 -0.667239 0
M  V30 6004 H 555.972 3.64672 -2.18849 0
M  V30 6005 N 554.287 1.06798 1.15896 0
M  V30 6006 C 555.22 0.627503 2.19403 0
M  V30 6007 C 556.198 -0.352352 1.58736 0
M  V30 6008 O 557.382 -0.260111 1.86697 0
M  V30 6009 C 554.509 -0.079356 3.38607 0
M  V30 6010 C 553.555 0.858057 4.17779 0
M  V30 6011 S 554.388 2.35605 4.80885 0
M  V30 6012 C 555.544 1.66083 6.03463 0
M  V30 6013 H 555.777 1.50441 2.56427 0
M  V30 6014 H 553.31 0.881427 1.26768 0
M  V30 6015 H 555.268 -0.48095 4.07673 0
M  V30 6016 H 553.929 -0.932524 2.99938 0
M  V30 6017 H 553.122 0.310108 5.03045 0
M  V30 6018 H 552.724 1.19977 3.54234 0
M  V30 6019 H 555.016 0.969337 6.7053 0
M  V30 6020 H 555.959 2.49159 6.62816 0
M  V30 6021 H 556.367 1.14122 5.52844 0
M  V30 6022 N 555.766 -1.3263 0.851289 0
M  V30 6023 C 557.182 -1.50162 0.5407 0
M  V30 6024 C 557.382 -1.78788 -0.929369 0
M  V30 6025 O 556.438 -1.85545 -1.71258 0
M  V30 6026 C 557.751 -2.64803 1.42478 0
M  V30 6027 C 559.299 -2.78688 1.42485 0
M  V30 6028 C 559.774 -3.96405 2.29407 0
M  V30 6029 N 561.265 -4.0366 2.27184 0
M  V30 6030 C 562 -4.93971 2.9117 0
M  V30 6031 N 561.496 -5.89313 3.64256 0
M  V30 6032 N 563.289 -4.87066 2.80576 0
M  V30 6033 H 555.44 -1.12315 1.80275 0
M  V30 6034 H 557.703 -0.553266 0.769806 0
M  V30 6035 H 557.409 -2.50368 2.46999 0
M  V30 6036 H 557.283 -3.60506 1.10974 0
M  V30 6037 H 559.67 -2.92547 0.387304 0
M  V30 6038 H 559.751 -1.83708 1.78002 0
M  V30 6039 H 559.395 -3.83304 3.33228 0
M  V30 6040 H 559.325 -4.90654 1.91224 0
M  V30 6041 H 561.816 -3.35435 1.74045 0
M  V30 6042 H 562.129 -6.54913 4.10255 0
M  V30 6043 H 560.474 -5.8935 3.68364 0
M  V30 6044 H 563.665 -4.11552 2.23031 0
M  V30 6045 H 563.838 -5.57248 3.30725 0
M  V30 6046 N 557.244 -0.608902 -1.45362 0
M  V30 6047 C 558.484 -0.10763 -2.04116 0
M  V30 6048 C 558.848 1.23883 -1.46686 0
M  V30 6049 O 560.049 1.83091 -1.96803 0
M  V30 6050 C 558.32 -0.0703351 -3.57331 0
M  V30 6051 S 559.879 0.369554 -4.37241 0
M  V30 6052 H 556.697 -0.0502123 -0.709225 0
M  V30 6053 H 559.299 -0.8073 -1.78053 0
M  V30 6054 H 558.003 -1.05379 -3.9664 0
M  V30 6055 H 557.534 0.651287 -3.87971 0
M  V30 6056 H 559.549 1.61878 -4.69052 0
M  V30 6057 N 558.722 1.53707 -0.348139 0
M  V30 6058 C 559.652 2.28111 0.498766 0
M  V30 6059 C 560.633 1.29851 1.09876 0
M  V30 6060 O 561.818 1.587 1.11928 0
M  V30 6061 C 558.948 3.05735 1.64753 0
M  V30 6062 C 557.902 4.11537 1.17565 0
M  V30 6063 C 557.228 4.77142 2.4133 0
M  V30 6064 C 558.528 5.21587 0.272844 0
M  V30 6065 H 560.222 2.99152 -0.121934 0
M  V30 6066 H 557.768 1.43875 -0.0600842 0
M  V30 6067 H 559.721 3.56526 2.24649 0
M  V30 6068 H 558.445 2.32354 2.2952 0
M  V30 6069 H 557.104 3.61665 0.599483 0
M  V30 6070 H 556.752 4.0035 3.04514 0
M  V30 6071 H 556.452 5.48626 2.10436 0
M  V30 6072 H 557.976 5.30719 3.01943 0
M  V30 6073 H 559.39 5.67986 0.778779 0
M  V30 6074 H 557.787 6.00074 0.0555849 0
M  V30 6075 H 558.857 4.79969 -0.689785 0
M  V30 6076 N 560.2 0.0768682 1.57412 0
M  V30 6077 C 561.611 -0.455037 1.8107 0
M  V30 6078 C 561.962 -1.69323 0.991162 0
M  V30 6079 O 561.087 -2.15328 0.215156 0
M  V30 6080 C 561.682 -0.832316 3.28417 0
M  V30 6081 C 560.241 -1.30906 3.52903 0
M  V30 6082 C 559.388 -0.296714 2.75708 0
M  V30 6083 H 562.339 0.302514 1.5579 0
M  V30 6084 H 562.36 -1.69333 3.40744 0
M  V30 6085 H 561.872 0.0690532 3.88039 0
M  V30 6086 H 559.973 -2.22875 2.98592 0
M  V30 6087 H 560.086 -1.28348 4.61588 0
M  V30 6088 H 558.45 -0.775059 2.42621 0
M  V30 6089 H 559.233 0.597015 3.38069 0
M  V30 6090 N 561.678 -1.56367 -0.196722 0
M  V30 6091 C 562.903 -1.84991 -0.937714 0
M  V30 6092 C 563.328 -0.660244 -1.76132 0
M  V30 6093 O 562.686 0.390967 -1.77034 0
M  V30 6094 C 562.734 -3.11828 -1.81096 0
M  V30 6095 O 561.838 -2.92266 -2.90955 0
M  V30 6096 H 561.179 -0.609193 -0.264159 0
M  V30 6097 H 563.709 -2.03595 -0.202529 0
M  V30 6098 H 563.719 -3.42579 -2.21594 0
M  V30 6099 H 562.394 -3.98037 -1.2058 0
M  V30 6100 H 560.971 -2.72809 -2.54224 0
M  V30 6101 N 563.156 0.464375 -1.50603 0
M  V30 6102 C 564.405 1.21277 -1.61167 0
M  V30 6103 C 564.718 1.92953 -0.320704 0
M  V30 6104 O 565.924 2.69778 -0.30534 0
M  V30 6105 C 564.38 2.20403 -2.84518 0
M  V30 6106 C 563.988 1.54499 -4.20516 0
M  V30 6107 C 565.732 2.95843 -3.0443 0
M  V30 6108 C 563.639 2.51951 -5.35047 0
M  V30 6109 H 562.569 0.456367 -0.600204 0
M  V30 6110 H 565.22 0.48254 -1.77042 0
M  V30 6111 H 563.602 2.96746 -2.62217 0
M  V30 6112 H 564.776 0.83899 -4.53098 0
M  V30 6113 H 563.091 0.913152 -4.06264 0
M  V30 6114 H 565.688 3.6879 -3.87167 0
M  V30 6115 H 566.031 3.55622 -2.16423 0
M  V30 6116 H 566.564 2.26611 -3.26944 0
M  V30 6117 H 563.303 1.96901 -6.25228 0
M  V30 6118 H 562.823 3.20683 -5.06875 0
M  V30 6119 H 564.502 3.13643 -5.65895 0
M  V30 6120 N 564.634 1.40294 0.718013 0
M  V30 6121 C 565.584 1.36847 1.82365 0
M  V30 6122 C 566.568 0.246424 1.59002 0
M  V30 6123 O 567.76 0.485336 1.70216 0
M  V30 6124 C 564.889 1.23105 3.20469 0
M  V30 6125 C 563.975 2.4008 3.49603 0
M  V30 6126 N 564.366 3.65562 3.49568 0
M  V30 6127 C 562.664 2.33407 3.80049 0
M  V30 6128 C 563.365 4.43015 3.76978 0
M  V30 6129 N 562.341 3.72823 3.95606 0
M  V30 6130 H 566.143 2.31811 1.80668 0
M  V30 6131 H 563.657 1.34031 0.91703 0
M  V30 6132 H 565.654 1.18718 3.9964 0
M  V30 6133 H 564.314 0.291056 3.23393 0
M  V30 6134 H 565.325 3.98756 3.30476 0
M  V30 6135 H 562.002 1.47762 3.90478 0
M  V30 6136 H 563.392 5.51859 3.83276 0
M  V30 6137 N 566.112 -0.949982 1.2575 0
M  V30 6138 C 567.523 -1.50989 1.09815 0
M  V30 6139 C 567.874 -1.93497 -0.324556 0
M  V30 6140 O 566.999 -1.79068 -1.21506 0
M  V30 6141 C 567.594 -2.74394 1.98729 0
M  V30 6142 C 566.153 -3.26682 1.86965 0
M  V30 6143 C 565.3 -1.99498 1.92603 0
M  V30 6144 H 568.251 -0.766387 1.38968 0
M  V30 6145 H 568.272 -3.48383 1.53001 0
M  V30 6146 H 567.784 -2.43425 3.02268 0
M  V30 6147 H 565.885 -3.62461 0.863279 0
M  V30 6148 H 565.998 -3.94383 2.72027 0
M  V30 6149 H 564.362 -2.15005 1.36546 0
M  V30 6150 H 565.145 -1.70871 2.97755 0
M  V30 6151 N 567.59 -1.07411 -1.15328 0
M  V30 6152 C 568.839 -0.792643 -1.85473 0
M  V30 6153 C 569.152 0.683789 -1.83259 0
M  V30 6154 O 570.358 1.08005 -2.49093 0
M  V30 6155 C 568.814 -1.36787 -3.32892 0
M  V30 6156 C 568.422 -2.87536 -3.43551 0
M  V30 6157 C 570.166 -1.16444 -4.08217 0
M  V30 6158 C 568.073 -3.38247 -4.85122 0
M  V30 6159 H 567.003 -0.292838 -0.694811 0
M  V30 6160 H 569.654 -1.29426 -1.30082 0
M  V30 6161 H 568.036 -0.793993 -3.87958 0
M  V30 6162 H 569.21 -3.50973 -2.98588 0
M  V30 6163 H 567.525 -3.06676 -2.81672 0
M  V30 6164 H 570.122 -1.51808 -5.12697 0
M  V30 6165 H 570.465 -0.10353 -4.16171 0
M  V30 6166 H 570.998 -1.70472 -3.59422 0
M  V30 6167 H 567.737 -4.43866 -4.82351 0
M  V30 6168 H 567.257 -2.79564 -5.30664 0
M  V30 6169 H 568.936 -3.34238 -5.5398 0
M  V30 6170 N 569.068 1.32177 -0.85831 0
M  V30 6171 C 570.315 1.97125 -0.463484 0
M  V30 6172 C 570.643 1.67907 0.981705 0
M  V30 6173 O 569.898 0.961717 1.70439 0
M  V30 6174 C 570.197 3.51372 -0.653658 0
M  V30 6175 C 569.863 4.00584 -2.06987 0
M  V30 6176 C 568.525 4.13733 -2.4572 0
M  V30 6177 C 570.877 4.26624 -2.99402 0
M  V30 6178 C 568.205 4.50268 -3.76132 0
M  V30 6179 C 570.557 4.64618 -4.29316 0
M  V30 6180 C 569.221 4.75975 -4.67979 0
M  V30 6181 H 568.491 0.72133 -0.169601 0
M  V30 6182 H 571.138 1.57517 -1.08907 0
M  V30 6183 H 569.443 3.91761 0.0551328 0
M  V30 6184 H 571.14 3.99655 -0.328163 0
M  V30 6185 H 567.73 3.90837 -1.75911 0
M  V30 6186 H 571.914 4.1597 -2.70708 0
M  V30 6187 H 567.17 4.57256 -4.05865 0
M  V30 6188 H 571.344 4.83722 -5.00985 0
M  V30 6189 H 568.971 5.04041 -5.69076 0
M  V30 6190 N 570.547 0.616602 1.45037 0
M  V30 6191 C 571.494 -0.0969439 2.30596 0
M  V30 6192 C 572.464 -0.851151 1.42635 0
M  V30 6193 O 573.649 -0.835092 1.71554 0
M  V30 6194 C 570.789 -1.08234 3.27688 0
M  V30 6195 C 569.902 -0.328072 4.30752 0
M  V30 6196 C 569.037 -1.30399 5.14946 0
M  V30 6197 C 568.076 -0.538049 6.09731 0
M  V30 6198 N 567.213 -1.46371 6.86673 0
M  V30 6199 H 572.053 0.63864 2.91076 0
M  V30 6200 H 569.59 0.326733 1.43425 0
M  V30 6201 H 571.548 -1.66688 3.82454 0
M  V30 6202 H 570.178 -1.78523 2.68941 0
M  V30 6203 H 569.23 0.372136 3.78575 0
M  V30 6204 H 570.542 0.269142 4.98073 0
M  V30 6205 H 569.696 -1.96032 5.74157 0
M  V30 6206 H 568.435 -1.93514 4.47665 0
M  V30 6207 H 567.44 0.131852 5.49642 0
M  V30 6208 H 568.665 0.0881732 6.79043 0
M  V30 6209 H 566.611 -2.08233 6.22073 0
M  V30 6210 H 566.528 -0.920152 7.50379 0
M  V30 6211 H 567.796 -2.10932 7.50418 0
M  V30 6212 N 572.025 -1.5352 0.356285 0
M  V30 6213 C 572.955 -2.28372 -0.486661 0
M  V30 6214 C 573.936 -1.30432 -1.09185 0
M  V30 6215 O 575.121 -1.59291 -1.11085 0
M  V30 6216 C 572.251 -3.06604 -1.63129 0
M  V30 6217 C 571.205 -4.12154 -1.15381 0
M  V30 6218 C 570.531 -4.78415 -2.38796 0
M  V30 6219 C 571.831 -5.21724 -0.245179 0
M  V30 6220 H 573.525 -2.99083 0.137797 0
M  V30 6221 H 571.071 -1.43841 0.0677134 0
M  V30 6222 H 573.024 -3.57712 -2.22755 0
M  V30 6223 H 571.748 -2.33568 -2.28284 0
M  V30 6224 H 570.407 -3.61978 -0.580294 0
M  V30 6225 H 570.055 -4.01959 -3.02387 0
M  V30 6226 H 569.755 -5.49734 -2.07524 0
M  V30 6227 H 571.279 -5.32313 -2.99125 0
M  V30 6228 H 572.693 -5.68391 -0.748646 0
M  V30 6229 H 571.09 -6.00095 -0.0237608 0
M  V30 6230 H 572.16 -4.79596 0.715229 0
M  V30 6231 N 573.503 -0.0852151 -1.57369 0
M  V30 6232 C 574.752 0.580443 -1.93168 0
M  V30 6233 C 575.065 1.6995 -0.968319 0
M  V30 6234 O 576.271 2.42564 -1.21963 0
M  V30 6235 C 574.727 1.08386 -3.43192 0
M  V30 6236 C 574.335 -0.00491388 -4.48 0
M  V30 6237 C 576.079 1.72281 -3.87968 0
M  V30 6238 C 573.986 0.513299 -5.89168 0
M  V30 6239 H 572.916 0.22059 -0.72101 0
M  V30 6240 H 575.567 -0.159621 -1.82804 0
M  V30 6241 H 573.949 1.8773 -3.48674 0
M  V30 6242 H 575.123 -0.780032 -4.5415 0
M  V30 6243 H 573.438 -0.548453 -4.12772 0
M  V30 6244 H 576.035 2.12108 -4.9083 0
M  V30 6245 H 576.378 2.58811 -3.26071 0
M  V30 6246 H 576.911 0.995359 -3.85146 0
M  V30 6247 H 573.65 -0.315153 -6.54742 0
M  V30 6248 H 573.17 1.25564 -5.8651 0
M  V30 6249 H 574.849 0.985433 -6.39451 0
M  V30 6250 N 574.981 1.5647 0.188427 0
M  V30 6251 C 576.23 1.80207 0.905995 0
M  V30 6252 C 576.543 0.659579 1.84144 0
M  V30 6253 O 577.749 0.781431 2.60011 0
M  V30 6254 C 576.205 3.19255 1.66145 0
M  V30 6255 C 575.813 4.41324 0.770504 0
M  V30 6256 C 577.557 3.52298 2.36826 0
M  V30 6257 C 575.464 5.71394 1.52521 0
M  V30 6258 H 574.394 0.671953 0.342045 0
M  V30 6259 H 577.045 1.82808 0.159164 0
M  V30 6260 H 575.427 3.10922 2.45242 0
M  V30 6261 H 576.601 4.60797 0.0177261 0
M  V30 6262 H 574.916 4.16035 0.174199 0
M  V30 6263 H 577.513 4.46715 2.93854 0
M  V30 6264 H 577.856 2.76359 3.11338 0
M  V30 6265 H 578.389 3.62108 1.6469 0
M  V30 6266 H 575.128 6.50316 0.82275 0
M  V30 6267 H 574.648 5.55928 2.25175 0
M  V30 6268 H 576.327 6.12747 2.07725 0
M  V30 6269 N 576.459 -0.456382 1.50847 0
M  V30 6270 C 577.87 -1.03685 1.55262 0
M  V30 6271 C 578.221 -1.92779 0.364771 0
M  V30 6272 O 577.346 -2.10043 -0.52068 0
M  V30 6273 C 577.941 -1.88718 2.81374 0
M  V30 6274 C 576.5 -2.41847 2.88422 0
M  V30 6275 C 575.647 -1.20564 2.49719 0
M  V30 6276 H 578.598 -0.238399 1.56899 0
M  V30 6277 H 578.619 -2.73957 2.6406 0
M  V30 6278 H 578.131 -1.23847 3.67809 0
M  V30 6279 H 576.232 -3.10228 2.06372 0
M  V30 6280 H 576.345 -2.75947 3.9165 0
M  V30 6281 H 574.709 -1.54504 2.02486 0
M  V30 6282 H 575.492 -0.573326 3.38479 0
M  V30 6283 N 577.937 -1.40673 -0.710563 0
M  V30 6284 C 578.887 -1.37812 -1.81636 0
M  V30 6285 C 579.871 -0.254853 -1.58869 0
M  V30 6286 O 581.063 -0.494356 -1.69956 0
M  V30 6287 C 578.192 -1.24802 -3.19811 0
M  V30 6288 C 577.278 -2.41931 -3.48325 0
M  V30 6289 N 577.669 -3.67411 -3.47625 0
M  V30 6290 C 575.967 -2.35419 -3.78806 0
M  V30 6291 C 576.668 -4.45008 -3.74623 0
M  V30 6292 N 575.644 -3.74916 -3.93623 0
M  V30 6293 H 579.446 -2.32766 -1.79436 0
M  V30 6294 H 576.96 -1.34516 -0.909909 0
M  V30 6295 H 578.957 -1.20835 -3.99004 0
M  V30 6296 H 577.617 -0.308202 -3.23234 0
M  V30 6297 H 578.628 -4.00503 -3.28356 0
M  V30 6298 H 575.305 -1.4983 -3.89689 0
M  V30 6299 H 576.695 -5.53884 -3.80344 0
M  V30 6300 N 579.415 0.9433 -1.26252 0
M  V30 6301 C 580.345 2.05902 -1.10122 0
M  V30 6302 C 581.326 1.70099 -0.00700552 0
M  V30 6303 O 582.511 1.93377 -0.178641 0
M  V30 6304 C 579.641 3.39516 -0.731175 0
M  V30 6305 C 578.595 3.89372 -1.77688 0
M  V30 6306 C 577.921 5.19613 -1.26122 0
M  V30 6307 C 579.221 4.14489 -3.17799 0
M  V30 6308 H 580.915 2.19655 -2.03451 0
M  V30 6309 H 578.461 1.05548 -0.979576 0
M  V30 6310 H 580.414 4.17031 -0.605215 0
M  V30 6311 H 579.138 3.25733 0.23782 0
M  V30 6312 H 577.797 3.14036 -1.89148 0
M  V30 6313 H 577.445 5.02208 -0.282128 0
M  V30 6314 H 577.145 5.53939 -1.96023 0
M  V30 6315 H 578.669 5.99713 -1.14789 0
M  V30 6316 H 580.083 4.82625 -3.09428 0
M  V30 6317 H 578.48 4.60094 -3.85271 0
M  V30 6318 H 579.55 3.20347 -3.64014 0
M  V30 6319 N 580.893 1.08022 1.14757 0
M  V30 6320 C 582.309 0.807072 1.3769 0
M  V30 6321 C 582.509 -0.585504 1.92806 0
M  V30 6322 O 581.565 -1.34301 2.13821 0
M  V30 6323 C 582.878 1.88651 2.34161 0
M  V30 6324 C 584.426 1.91206 2.47809 0
M  V30 6325 C 584.901 2.98253 3.47576 0
M  V30 6326 N 586.392 2.974 3.55117 0
M  V30 6327 C 587.127 3.76872 4.32152 0
M  V30 6328 N 586.623 4.66212 5.12463 0
M  V30 6329 N 588.416 3.6519 4.27309 0
M  V30 6330 H 580.567 1.97824 0.77326 0
M  V30 6331 H 582.83 0.85826 0.402608 0
M  V30 6332 H 582.536 2.88749 2.00791 0
M  V30 6333 H 582.41 1.75244 3.3402 0
M  V30 6334 H 584.797 0.917564 2.80472 0
M  V30 6335 H 584.878 2.08691 1.47925 0
M  V30 6336 H 584.522 3.97907 3.15646 0
M  V30 6337 H 584.452 2.78014 4.47231 0
M  V30 6338 H 586.943 2.32643 2.97801 0
M  V30 6339 H 587.256 5.23468 5.68508 0
M  V30 6340 H 585.601 4.70257 5.11745 0
M  V30 6341 H 588.792 2.94765 3.63636 0
M  V30 6342 H 588.965 4.27366 4.87095 0
M  V30 6343 N 582.371 -1.3172 0.865308 0
M  V30 6344 C 583.601 -2.00765 0.487543 0
M  V30 6345 C 584.009 -1.65145 -0.92325 0
M  V30 6346 O 583.352 -0.874294 -1.61561 0
M  V30 6347 C 583.414 -3.55122 0.559369 0
M  V30 6348 C 583.078 -4.14202 1.93095 0
M  V30 6349 C 584.075 -4.3165 2.89784 0
M  V30 6350 C 581.76 -4.50036 2.23099 0
M  V30 6351 C 583.754 -4.84114 4.14623 0
M  V30 6352 C 581.441 -5.02203 3.48189 0
M  V30 6353 C 582.439 -5.19192 4.43767 0
M  V30 6354 O 582.127 -5.70241 5.6664 0
M  V30 6355 H 581.859 -0.649066 0.188915 0
M  V30 6356 H 584.413 -1.69032 1.16694 0
M  V30 6357 H 582.643 -3.86295 -0.176926 0
M  V30 6358 H 584.332 -4.05428 0.195694 0
M  V30 6359 H 585.098 -4.04288 2.6791 0
M  V30 6360 H 580.977 -4.36091 1.49485 0
M  V30 6361 H 584.521 -4.9729 4.89233 0
M  V30 6362 H 580.418 -5.28997 3.69908 0
M  V30 6363 H 581.186 -5.88617 5.68746 0
M  V30 6364 N 583.85 -0.624285 -1.44708 0
M  V30 6365 C 585.077 -0.132919 -2.06473 0
M  V30 6366 C 585.493 1.18967 -1.46602 0
M  V30 6367 O 584.85 1.72824 -0.586341 0
M  V30 6368 C 584.901 -0.00465418 -3.615 0
M  V30 6369 O 584.622 -1.27494 -4.19138 0
M  V30 6370 C 586.123 0.516213 -4.40284 0
M  V30 6371 H 583.343 -0.0765201 -0.666623 0
M  V30 6372 H 585.887 -0.856751 -1.85688 0
M  V30 6373 H 584.042 0.669583 -3.8157 0
M  V30 6374 H 584.456 -1.11536 -5.12504 0
M  V30 6375 H 585.93 0.554994 -5.49203 0
M  V30 6376 H 586.407 1.5419 -4.11245 0
M  V30 6377 H 587.013 -0.124542 -4.25118 0
M  V30 6378 N 585.328 1.53329 -0.364422 0
M  V30 6379 C 586.258 2.28627 0.474543 0
M  V30 6380 C 587.239 1.31009 1.08492 0
M  V30 6381 O 588.424 1.59878 1.10239 0
M  V30 6382 C 585.554 3.07465 1.61501 0
M  V30 6383 C 584.508 4.1276 1.13194 0
M  V30 6384 C 583.834 4.79674 2.36255 0
M  V30 6385 C 585.134 5.21847 0.217507 0
M  V30 6386 H 586.828 2.99005 -0.153656 0
M  V30 6387 H 584.374 1.43803 -0.0753406 0
M  V30 6388 H 586.327 3.58889 2.20855 0
M  V30 6389 H 585.051 2.34775 2.27042 0
M  V30 6390 H 583.71 3.62281 0.56109 0
M  V30 6391 H 583.358 4.03557 3.00251 0
M  V30 6392 H 583.058 5.50827 2.04606 0
M  V30 6393 H 584.582 5.33892 2.96297 0
M  V30 6394 H 585.996 5.6878 0.718493 0
M  V30 6395 H 584.393 6.00099 -0.00806408 0
M  V30 6396 H 585.463 4.7921 -0.740653 0
M  V30 6397 N 586.806 0.0935595 1.57322 0
M  V30 6398 C 587.716 -0.880192 2.17462 0
M  V30 6399 C 588.732 -1.31135 1.14366 0
M  V30 6400 O 589.908 -1.37958 1.46729 0
M  V30 6401 C 586.973 -2.12184 2.74188 0
M  V30 6402 C 586.034 -1.74503 3.92234 0
M  V30 6403 C 585.267 -2.92748 4.46245 0
M  V30 6404 O 585.49 -4.07427 3.99198 0
M  V30 6405 O 584.424 -2.71303 5.37288 0
M  V30 6406 H 588.25 -0.398516 3.01074 0
M  V30 6407 H 585.835 -0.130707 1.48827 0
M  V30 6408 H 587.717 -2.84953 3.10451 0
M  V30 6409 H 586.392 -2.59407 1.93623 0
M  V30 6410 H 585.299 -0.989186 3.60785 0
M  V30 6411 H 586.632 -1.32044 4.74157 0
M  V30 6412 N 588.284 -1.56567 -0.180126 0
M  V30 6413 C 589.533 -1.80685 -0.896426 0
M  V30 6414 C 589.846 -0.669335 -1.83791 0
M  V30 6415 O 591.052 -0.795209 -2.59593 0
M  V30 6416 C 589.508 -3.20132 -1.6445 0
M  V30 6417 C 589.116 -4.41727 -0.747088 0
M  V30 6418 C 590.86 -3.53549 -2.34955 0
M  V30 6419 C 588.767 -5.72195 -1.49489 0
M  V30 6420 H 587.697 -0.673758 -0.338477 0
M  V30 6421 H 590.348 -1.8289 -0.149467 0
M  V30 6422 H 588.73 -3.12218 -2.43589 0
M  V30 6423 H 589.904 -4.608 0.00671129 0
M  V30 6424 H 588.219 -4.16122 -0.152134 0
M  V30 6425 H 590.816 -4.48267 -2.91481 0
M  V30 6426 H 591.159 -2.78006 -3.09868 0
M  V30 6427 H 591.692 -3.62976 -1.62768 0
M  V30 6428 H 588.431 -6.50743 -0.788251 0
M  V30 6429 H 587.951 -5.57115 -2.22224 0
M  V30 6430 H 589.63 -6.1384 -2.04472 0
M  V30 6431 N 589.762 0.448376 -1.51087 0
M  V30 6432 C 590.71 1.56407 -1.72161 0
M  V30 6433 C 591.704 1.58878 -0.587721 0
M  V30 6434 O 592.91 1.62755 -0.768822 0
M  V30 6435 H 589.285 0.519423 -0.543786 0
M  V30 6436 H 591.256 1.35803 -2.65707 0
M  V30 6437 C 590.005 2.94163 -1.85373 0
M  V30 6438 H 589.328 2.9299 -2.72024 0
M  V30 6439 H 590.768 3.71625 -2.04135 0
M  V30 6440 C 589.227 3.31317 -0.610803 0
M  V30 6441 O 589.757 4.00985 0.239636 0
M  V30 6442 N 587.963 2.86966 -0.458127 0
M  V30 6443 H 587.51 2.30443 -1.15124 0
M  V30 6444 H 587.468 3.12188 0.372289 0
M  V30 6445 N 591.24 1.41047 0.703093 0
M  V30 6446 C 592.486 1.40207 1.46526 0
M  V30 6447 C 592.819 0.00847763 1.94198 0
M  V30 6448 O 592.094 -0.962437 1.69019 0
M  V30 6449 C 592.377 2.40238 2.6825 0
M  V30 6450 C 592.23 3.88674 2.26391 0
M  V30 6451 C 593.549 2.37627 3.70434 0
M  V30 6452 H 590.668 0.510594 0.531472 0
M  V30 6453 H 593.31 1.72271 0.801422 0
M  V30 6454 H 591.46 2.13026 3.24888 0
M  V30 6455 H 593.132 4.2676 1.75138 0
M  V30 6456 H 591.375 4.03903 1.58255 0
M  V30 6457 H 592.046 4.542 3.13698 0
M  V30 6458 H 594.522 2.61759 3.23452 0
M  V30 6459 H 593.398 3.09645 4.53223 0
M  V30 6460 H 593.659 1.39223 4.19606 0
M  V30 6461 N 592.718 -0.936591 1.26751 0
M  V30 6462 C 594.134 -1.21095 1.03963 0
M  V30 6463 C 594.334 -2.00156 -0.232372 0
M  V30 6464 O 593.39 -2.3434 -0.940274 0
M  V30 6465 C 594.703 -1.96775 2.27377 0
M  V30 6466 C 596.251 -2.09749 2.32324 0
M  V30 6467 C 596.726 -2.88832 3.55443 0
M  V30 6468 N 598.217 -2.96404 3.55948 0
M  V30 6469 C 598.952 -3.58036 4.47881 0
M  V30 6470 N 598.448 -4.21132 5.50109 0
M  V30 6471 N 600.241 -3.55353 4.35523 0
M  V30 6472 H 592.392 -0.408173 2.08441 0
M  V30 6473 H 594.655 -0.243139 0.91629 0
M  V30 6474 H 594.361 -1.46094 3.19921 0
M  V30 6475 H 594.235 -2.97424 2.31989 0
M  V30 6476 H 596.622 -2.5962 1.40291 0
M  V30 6477 H 596.703 -1.08347 2.31721 0
M  V30 6478 H 596.347 -2.39647 4.47808 0
M  V30 6479 H 596.277 -3.90499 3.53296 0
M  V30 6480 H 598.768 -2.51552 2.82011 0
M  V30 6481 H 599.081 -4.66071 6.16439 0
M  V30 6482 H 597.426 -4.19705 5.53961 0
M  V30 6483 H 600.617 -3.05256 3.54875 0
M  V30 6484 H 600.79 -4.03097 5.07363 0
M  V30 6485 N 594.196 -1.08629 -1.14182 0
M  V30 6486 C 595.159 -0.722027 -2.1753 0
M  V30 6487 C 596.159 0.244305 -1.58933 0
M  V30 6488 O 597.349 0.0235545 -1.74184 0
M  V30 6489 C 594.481 -0.0663966 -3.40835 0
M  V30 6490 H 595.674 -1.63719 -2.51269 0
M  V30 6491 H 593.227 -0.884442 -1.28869 0
M  V30 6492 H 593.962 0.860389 -3.12678 0
M  V30 6493 H 593.747 -0.761598 -3.84632 0
M  V30 6494 H 595.237 0.173346 -4.1724 0
M  V30 6495 N 595.674 1.31259 -0.872281 0
M  V30 6496 C 597.09 1.49283 -0.564521 0
M  V30 6497 C 597.29 1.80243 0.900807 0
M  V30 6498 O 596.346 1.88246 1.68284 0
M  V30 6499 C 597.659 2.62503 -1.46673 0
M  V30 6500 C 599.207 2.76386 -1.46901 0
M  V30 6501 C 599.682 3.92705 -2.35684 0
M  V30 6502 N 601.173 3.99995 -2.33577 0
M  V30 6503 C 601.908 4.89276 -2.98992 0
M  V30 6504 N 601.404 5.83443 -3.73585 0
M  V30 6505 N 603.197 4.82541 -2.88289 0
M  V30 6506 H 595.348 1.09432 -1.82039 0
M  V30 6507 H 597.611 0.540949 -0.77851 0
M  V30 6508 H 597.317 2.46407 -2.50951 0
M  V30 6509 H 597.191 3.58695 -1.16696 0
M  V30 6510 H 599.578 2.91894 -0.433796 0
M  V30 6511 H 599.659 1.80853 -1.80903 0
M  V30 6512 H 599.303 3.77954 -3.39283 0
M  V30 6513 H 599.233 4.87549 -1.99006 0
M  V30 6514 H 601.724 3.32624 -1.7936 0
M  V30 6515 H 602.037 6.48303 -4.20622 0
M  V30 6516 H 600.382 5.83415 -3.77694 0
M  V30 6517 H 603.573 4.07951 -2.2955 0
M  V30 6518 H 603.746 5.51916 -3.39549 0
M  V30 6519 N 597.152 0.631951 1.44375 0
M  V30 6520 C 598.38 0.143867 2.06399 0
M  V30 6521 C 598.795 -1.18188 1.47231 0
M  V30 6522 O 598.152 -1.72511 0.595498 0
M  V30 6523 C 598.203 0.0238253 3.61492 0
M  V30 6524 O 597.924 1.29715 4.18456 0
M  V30 6525 C 599.425 -0.492856 4.40552 0
M  V30 6526 H 596.645 0.0800542 0.666207 0
M  V30 6527 H 599.189 0.866586 1.85231 0
M  V30 6528 H 597.344 -0.649338 3.81919 0
M  V30 6529 H 597.758 1.14252 5.11905 0
M  V30 6530 H 599.232 -0.525861 5.49489 0
M  V30 6531 H 599.709 -1.52006 4.12057 0
M  V30 6532 H 600.315 0.147085 4.25046 0
M  V30 6533 N 598.631 -1.53133 0.372548 0
M  V30 6534 C 599.879 -2.00958 -0.214534 0
M  V30 6535 C 600.2 -1.26135 -1.48711 0
M  V30 6536 O 599.47 -0.376597 -1.92246 0
M  V30 6537 H 598.05 -0.742456 -0.0822664 0
M  V30 6538 H 600.712 -1.88367 0.500385 0
M  V30 6539 H 599.808 -3.09031 -0.436605 0
M  V30 6540 N 600.109 -0.101901 -1.5727 0
M  V30 6541 C 601.039 0.851544 -2.17419 0
M  V30 6542 C 602.02 1.28942 -1.10941 0
M  V30 6543 O 603.205 1.35509 -1.39107 0
M  V30 6544 C 600.335 2.10816 -2.75996 0
M  V30 6545 C 599.289 1.80867 -3.87906 0
M  V30 6546 C 598.615 3.13413 -4.33216 0
M  V30 6547 C 599.915 1.0903 -5.10793 0
M  V30 6548 H 601.609 0.350381 -2.97343 0
M  V30 6549 H 599.155 0.16709 -1.43027 0
M  V30 6550 H 601.108 2.77959 -3.16729 0
M  V30 6551 H 599.832 2.63227 -1.93337 0
M  V30 6552 H 598.491 1.16119 -3.47724 0
M  V30 6553 H 598.139 3.63725 -3.47438 0
M  V30 6554 H 597.839 2.94155 -5.08671 0
M  V30 6555 H 599.363 3.81704 -4.76586 0
M  V30 6556 H 600.777 1.66295 -5.48652 0
M  V30 6557 H 599.174 0.99927 -5.91722 0
M  V30 6558 H 600.244 0.0741704 -4.84843 0
M  V30 6559 N 601.587 1.56661 0.17182 0
M  V30 6560 C 602.833 1.82235 0.889845 0
M  V30 6561 C 603.166 0.679673 1.81918 0
M  V30 6562 O 602.441 -0.318404 1.91876 0
M  V30 6563 C 602.724 3.18195 1.68595 0
M  V30 6564 C 602.577 4.42989 0.779773 0
M  V30 6565 C 603.896 3.5109 2.65375 0
M  V30 6566 H 601.015 0.66291 0.322056 0
M  V30 6567 H 603.657 1.89358 0.15608 0
M  V30 6568 H 601.807 3.12253 2.3115 0
M  V30 6569 H 603.479 4.60997 0.16714 0
M  V30 6570 H 601.722 4.33711 0.0877964 0
M  V30 6571 H 602.393 5.3467 1.3723 0
M  V30 6572 H 604.869 3.57482 2.12946 0
M  V30 6573 H 603.745 4.47298 3.18144 0
M  V30 6574 H 604.006 2.75768 3.45549 0
M  V30 6575 N 603.065 -0.440357 1.51323 0
M  V30 6576 C 604.29 -1.21716 1.67928 0
M  V30 6577 C 604.715 -1.84328 0.374826 0
M  V30 6578 O 604.073 -1.68675 -0.664706 0
M  V30 6579 C 604.121 -2.27914 2.79442 0
M  V30 6580 O 603.225 -3.33325 2.42834 0
M  V30 6581 H 602.566 -0.35674 0.560029 0
M  V30 6582 H 605.096 -0.520417 1.97871 0
M  V30 6583 H 605.106 -2.72746 3.03436 0
M  V30 6584 H 603.781 -1.8172 3.741 0
M  V30 6585 H 602.358 -2.9399 2.294 0
M  V30 6586 N 604.543 -1.41418 -0.695603 0
M  V30 6587 C 605.82 -1.31264 -1.45014 0
M  V30 6588 C 606.2 0.0597994 -2.11015 0
M  V30 6589 O 605.548 1.07403 -2.01685 0
M  V30 6590 C 605.758 -2.466 -2.4696 0
M  V30 6591 C 607.106 -2.87763 -3.12214 0
M  V30 6592 O 608.13 -2.46339 -2.57285 0
M  V30 6593 O 606.989 -3.59395 -4.11701 0
M  V30 6594 H 604.083 -0.516576 -0.645816 0
M  V30 6595 H 606.629 -1.53382 -0.726084 0
M  V30 6596 H 605.401 -3.38183 -1.96845 0
M  V30 6597 H 605.024 -2.26358 -3.26876 0
M  V30 6598 N 606.021 0.929856 -1.27246 0
M  V30 6599 C 606.954 2.03069 -1.04106 0
M  V30 6600 C 607.932 1.62556 0.0378417 0
M  V30 6601 O 609.116 1.88197 -0.106869 0
M  V30 6602 C 606.243 3.33718 -0.578778 0
M  V30 6603 C 605.289 3.93209 -1.65193 0
M  V30 6604 S 606.122 4.26068 -3.24386 0
M  V30 6605 C 607.278 5.598 -2.79954 0
M  V30 6606 H 607.511 2.22386 -1.97311 0
M  V30 6607 H 605.044 1.07269 -1.11053 0
M  V30 6608 H 607.002 4.09261 -0.31874 0
M  V30 6609 H 605.663 3.12328 0.333182 0
M  V30 6610 H 604.856 4.87482 -1.27973 0
M  V30 6611 H 604.458 3.24243 -1.86393 0
M  V30 6612 H 606.75 6.39004 -2.25123 0
M  V30 6613 H 607.693 6.01917 -3.72963 0
M  V30 6614 H 608.101 5.20219 -2.19164 0
M  V30 6615 N 607.499 1.09233 1.13605 0
M  V30 6616 C 608.747 0.825525 1.84471 0
M  V30 6617 C 609.068 -0.650702 1.83823 0
M  V30 6618 O 608.338 -1.47204 1.29259 0
M  V30 6619 H 606.918 0.3024 0.683054 0
M  V30 6620 H 609.58 1.38006 1.37624 0
M  V30 6621 H 608.676 1.17727 2.89045 0
M  V30 6622 N 608.977 -1.30795 0.87923 0
M  V30 6623 C 610.226 -1.95636 0.490875 0
M  V30 6624 C 610.539 -1.70214 -0.963674 0
M  V30 6625 O 611.745 -2.28991 -1.45861 0
M  V30 6626 C 610.201 -3.50271 0.826929 0
M  V30 6627 C 609.809 -3.84521 2.29886 0
M  V30 6628 C 611.553 -4.21456 0.507494 0
M  V30 6629 C 609.46 -5.32309 2.57685 0
M  V30 6630 H 608.39 -0.732238 0.179841 0
M  V30 6631 H 611.041 -1.48829 1.07341 0
M  V30 6632 H 609.423 -3.9562 0.173542 0
M  V30 6633 H 610.597 -3.50102 2.99609 0
M  V30 6634 H 608.912 -3.26425 2.58526 0
M  V30 6635 H 611.509 -5.30199 0.692293 0
M  V30 6636 H 611.852 -4.12614 -0.552718 0
M  V30 6637 H 612.385 -3.81772 1.11782 0
M  V30 6638 H 609.124 -5.46195 3.62424 0
M  V30 6639 H 608.644 -5.68048 1.92566 0
M  V30 6640 H 610.323 -5.99678 2.42889 0
M  V30 6641 N 610.455 -0.639598 -1.44038 0
M  V30 6642 C 611.702 -0.14748 -2.01962 0
M  V30 6643 C 612.03 1.23372 -1.50365 0
M  V30 6644 O 611.285 1.8345 -0.681501 0
M  V30 6645 C 611.584 -0.0925348 -3.5728 0
M  V30 6646 C 611.25 -1.41365 -4.28167 0
M  V30 6647 C 609.912 -1.77545 -4.47248 0
M  V30 6648 C 612.264 -2.2853 -4.68427 0
M  V30 6649 C 609.592 -3.00583 -5.03852 0
M  V30 6650 C 611.944 -3.50846 -5.26393 0
M  V30 6651 C 610.608 -3.8724 -5.43692 0
M  V30 6652 H 609.878 -0.0539666 -0.739032 0
M  V30 6653 H 612.525 -0.827599 -1.72694 0
M  V30 6654 H 610.83 0.670987 -3.86012 0
M  V30 6655 H 612.527 0.304891 -3.99839 0
M  V30 6656 H 609.117 -1.1221 -4.13651 0
M  V30 6657 H 613.301 -2.0187 -4.5339 0
M  V30 6658 H 608.557 -3.28846 -5.15432 0
M  V30 6659 H 612.731 -4.18616 -5.56537 0
M  V30 6660 H 610.358 -4.8266 -5.87319 0
M  V30 6661 N 611.933 1.52934 -0.380664 0
M  V30 6662 C 613.21 1.93845 0.261417 0
M  V30 6663 C 613.59 1.31544 1.65104 0
M  V30 6664 O 612.938 0.480234 2.23397 0
M  V30 6665 C 613.148 3.47739 0.296466 0
M  V30 6666 C 614.496 4.21284 0.529578 0
M  V30 6667 O 615.52 3.54199 0.377041 0
M  V30 6668 O 614.379 5.40195 0.827753 0
M  V30 6669 H 611.473 0.811318 0.160285 0
M  V30 6670 H 614.019 1.64042 -0.434544 0
M  V30 6671 H 612.791 3.85395 -0.67724 0
M  V30 6672 H 612.414 3.8382 1.0377 0
M  V30 6673 N 613.412 0.11024 1.57214 0
M  V30 6674 C 614.344 -0.873497 2.11902 0
M  V30 6675 C 615.357 -1.23588 1.05971 0
M  V30 6676 O 616.546 -1.18636 1.33371 0
M  V30 6677 C 613.646 -2.17805 2.59643 0
M  V30 6678 C 612.819 -1.98869 3.89576 0
M  V30 6679 C 611.878 -3.12974 4.23006 0
M  V30 6680 O 610.904 -2.86272 4.91973 0
M  V30 6681 N 612.106 -4.39167 3.79622 0
M  V30 6682 H 614.871 -0.406317 2.96933 0
M  V30 6683 H 612.432 -0.074437 1.61729 0
M  V30 6684 H 614.424 -2.93117 2.79042 0
M  V30 6685 H 612.994 -2.55899 1.7954 0
M  V30 6686 H 612.214 -1.078 3.79174 0
M  V30 6687 H 613.502 -1.83512 4.74553 0
M  V30 6688 H 612.9 -4.63739 3.2398 0
M  V30 6689 H 611.457 -5.11379 4.04147 0
M  V30 6690 N 614.89 -1.56749 -0.16351 0
M  V30 6691 C 616.139 -1.81626 -0.877211 0
M  V30 6692 C 616.452 -0.688791 -1.83071 0
M  V30 6693 O 617.658 -0.822697 -2.58735 0
M  V30 6694 C 616.114 -3.21858 -1.61045 0
M  V30 6695 C 615.722 -4.42494 -0.700195 0
M  V30 6696 C 617.466 -3.56021 -2.31192 0
M  V30 6697 C 615.373 -5.73748 -1.43412 0
M  V30 6698 H 614.303 -0.67731 -0.331312 0
M  V30 6699 H 616.954 -1.83039 -0.13006 0
M  V30 6700 H 615.336 -3.14784 -2.40264 0
M  V30 6701 H 616.51 -4.60766 0.0555849 0
M  V30 6702 H 614.825 -4.1626 -0.10799 0
M  V30 6703 H 617.422 -4.51333 -2.8671 0
M  V30 6704 H 617.765 -2.81277 -3.06902 0
M  V30 6705 H 618.298 -3.64682 -1.58909 0
M  V30 6706 H 615.037 -6.51543 -0.719186 0
M  V30 6707 H 614.557 -5.5944 -2.16302 0
M  V30 6708 H 616.236 -6.15975 -1.9795 0
M  V30 6709 N 616.368 0.432326 -1.51554 0
M  V30 6710 C 617.301 1.54525 -1.6792 0
M  V30 6711 C 618.279 1.53831 -0.526764 0
M  V30 6712 O 619.463 1.72884 -0.751233 0
M  V30 6713 C 616.59 2.931 -1.69736 0
M  V30 6714 C 615.636 3.11799 -2.91005 0
M  V30 6715 S 616.469 2.87565 -4.51737 0
M  V30 6716 C 617.625 4.28412 -4.56305 0
M  V30 6717 H 617.858 1.4041 -2.62054 0
M  V30 6718 H 615.391 0.622357 -1.41301 0
M  V30 6719 H 617.349 3.72974 -1.71467 0
M  V30 6720 H 616.01 3.04574 -0.767705 0
M  V30 6721 H 615.203 4.13127 -2.8869 0
M  V30 6722 H 614.805 2.39757 -2.87041 0
M  V30 6723 H 617.097 5.21692 -4.32254 0
M  V30 6724 H 618.04 4.35758 -5.58141 0
M  V30 6725 H 618.448 4.12301 -3.85576 0
M  V30 6726 N 617.846 1.41785 0.688094 0
M  V30 6727 C 619.071 1.45117 1.48175 0
M  V30 6728 C 619.496 0.060129 1.88004 0
M  V30 6729 O 618.854 -0.938385 1.55126 0
M  V30 6730 C 618.902 2.37224 2.71583 0
M  V30 6731 O 618.006 1.83443 3.69354 0
M  V30 6732 H 617.347 0.492208 0.445676 0
M  V30 6733 H 619.877 1.86329 0.845145 0
M  V30 6734 H 619.887 2.53353 3.19806 0
M  V30 6735 H 618.562 3.38293 2.41931 0
M  V30 6736 H 617.139 1.76802 3.28322 0
M  V30 6737 N 619.324 -0.923095 1.27737 0
M  V30 6738 C 620.552 -1.70525 1.17171 0
M  V30 6739 C 620.967 -1.86847 -0.270881 0
M  V30 6740 O 620.324 -1.38879 -1.18401 0
M  V30 6741 C 620.375 -3.10242 1.85559 0
M  V30 6742 O 620.096 -2.94683 3.24182 0
M  V30 6743 C 621.597 -4.04586 1.81176 0
M  V30 6744 H 618.817 -0.533347 0.407163 0
M  V30 6745 H 621.361 -1.15599 1.68692 0
M  V30 6746 H 619.516 -3.62014 1.3793 0
M  V30 6747 H 619.93 -3.83045 3.58297 0
M  V30 6748 H 621.404 -5.00119 2.33633 0
M  V30 6749 H 621.881 -4.3218 0.782099 0
M  V30 6750 H 622.487 -3.58741 2.2844 0
M  V30 6751 N 620.802 -1.09834 -1.13024 0
M  V30 6752 C 622.05 -0.835297 -1.8403 0
M  V30 6753 C 622.371 0.640944 -1.84165 0
M  V30 6754 O 621.641 1.46517 -1.30037 0
M  V30 6755 H 620.221 -0.306018 -0.681441 0
M  V30 6756 H 622.883 -1.38734 -1.36891 0
M  V30 6757 H 621.979 -1.19258 -2.88416 0
M  V30 6758 N 622.28 1.30327 -0.886154 0
M  V30 6759 C 623.528 1.9571 -0.504195 0
M  V30 6760 C 623.849 1.70294 0.950003 0
M  V30 6761 O 623.119 1.02718 1.66811 0
M  V30 6762 H 621.699 0.72412 -0.183465 0
M  V30 6763 H 624.361 1.58835 -1.12949 0
M  V30 6764 H 623.457 3.04704 -0.675431 0
M  V30 6765 N 623.758 0.647228 1.43697 0
M  V30 6766 C 625.006 0.157876 2.01482 0
M  V30 6767 C 625.327 -1.23039 1.51282 0
M  V30 6768 O 624.597 -1.82071 0.722982 0
M  V30 6769 H 623.177 0.0553745 0.744945 0
M  V30 6770 H 625.839 0.83755 1.75986 0
M  V30 6771 H 624.935 0.137895 3.11795 0
M  V30 6772 N 625.236 -1.5273 0.388769 0
M  V30 6773 C 626.484 -2.01174 -0.193208 0
M  V30 6774 C 626.805 -1.27705 -1.47365 0
M  V30 6775 O 626.075 -0.396966 -1.91836 0
M  V30 6776 H 624.655 -0.743287 -0.0743871 0
M  V30 6777 H 627.317 -1.87826 0.520336 0
M  V30 6778 H 626.413 -3.09477 -0.403803 0
M  V30 6779 N 626.714 -0.118576 -1.57153 0
M  V30 6780 C 627.664 0.842924 -2.11846 0
M  V30 6781 C 628.648 1.22845 -1.03914 0
M  V30 6782 O 629.84 1.19961 -1.30148 0
M  V30 6783 C 626.969 2.09312 -2.72109 0
M  V30 6784 C 626.055 1.73198 -3.87122 0
M  V30 6785 N 626.446 1.07758 -4.94188 0
M  V30 6786 C 624.744 2.02659 -3.97298 0
M  V30 6787 C 625.445 0.907741 -5.74574 0
M  V30 6788 N 624.421 1.4326 -5.24383 0
M  V30 6789 H 628.223 0.333416 -2.92003 0
M  V30 6790 H 625.737 0.0839073 -1.62183 0
M  V30 6791 H 627.734 2.79162 -3.09635 0
M  V30 6792 H 626.394 2.60807 -1.93416 0
M  V30 6793 H 627.405 0.741613 -5.12563 0
M  V30 6794 H 624.082 2.56204 -3.29645 0
M  V30 6795 H 625.472 0.394112 -6.70743 0
M  V30 6796 N 628.193 1.56834 0.155195 0
M  V30 6797 C 629.439 1.83169 0.870467 0
M  V30 6798 C 629.772 0.698929 1.81187 0
M  V30 6799 O 629.047 -0.298035 1.92203 0
M  V30 6800 C 629.33 3.19965 1.65211 0
M  V30 6801 C 629.183 4.43792 0.732744 0
M  V30 6802 C 630.502 3.53885 2.61636 0
M  V30 6803 H 627.621 0.666288 0.315006 0
M  V30 6804 H 630.263 1.89513 0.135988 0
M  V30 6805 H 628.413 3.14687 2.27825 0
M  V30 6806 H 630.085 4.61148 0.118236 0
M  V30 6807 H 628.328 4.3378 0.0417906 0
M  V30 6808 H 628.999 5.36095 1.31552 0
M  V30 6809 H 631.475 3.5972 2.09143 0
M  V30 6810 H 630.351 4.50648 3.13381 0
M  V30 6811 H 630.612 2.79418 3.42605 0
M  V30 6812 N 629.671 -0.424282 1.51781 0
M  V30 6813 C 630.603 -1.53457 1.70246 0
M  V30 6814 C 631.616 -1.52004 0.582967 0
M  V30 6815 O 632.805 -1.56544 0.857683 0
M  V30 6816 C 629.905 -2.92368 1.71389 0
M  V30 6817 C 629.078 -3.1818 3.00133 0
M  V30 6818 C 628.137 -4.36884 2.9329 0
M  V30 6819 O 627.163 -4.34901 3.67219 0
M  V30 6820 N 628.365 -5.4117 2.10036 0
M  V30 6821 H 631.13 -1.38017 2.66029 0
M  V30 6822 H 628.691 -0.613394 1.4983 0
M  V30 6823 H 630.683 -3.6982 1.64362 0
M  V30 6824 H 629.253 -3.0134 0.831449 0
M  V30 6825 H 628.473 -2.28908 3.20928 0
M  V30 6826 H 629.761 -3.32261 3.85331 0
M  V30 6827 H 629.159 -5.45623 1.49373 0
M  V30 6828 H 627.716 -6.17425 2.08878 0
M  V30 6829 N 631.149 -1.42148 -0.680565 0
M  V30 6830 C 632.079 -1.4796 -1.80638 0
M  V30 6831 C 633.06 -0.336728 -1.66734 0
M  V30 6832 O 634.245 -0.550247 -1.86242 0
M  V30 6833 C 631.375 -1.37569 -3.18892 0
M  V30 6834 C 630.329 -2.49823 -3.47524 0
M  V30 6835 C 629.655 -2.24491 -4.85291 0
M  V30 6836 C 630.955 -3.92144 -3.44994 0
M  V30 6837 H 632.649 -2.42184 -1.76032 0
M  V30 6838 H 630.195 -1.16566 -0.845481 0
M  V30 6839 H 632.148 -1.40243 -3.97379 0
M  V30 6840 H 630.872 -0.398357 -3.24162 0
M  V30 6841 H 629.531 -2.46455 -2.71395 0
M  V30 6842 H 629.179 -1.25066 -4.87204 0
M  V30 6843 H 628.879 -2.99722 -5.05411 0
M  V30 6844 H 630.403 -2.28906 -5.66069 0
M  V30 6845 H 631.817 -3.97145 -4.13459 0
M  V30 6846 H 630.214 -4.67179 -3.76648 0
M  V30 6847 H 631.284 -4.19225 -2.43676 0
M  V30 6848 N 632.627 0.916307 -1.28225 0
M  V30 6849 C 633.557 2.0352 -1.14464 0
M  V30 6850 C 634.538 1.70045 -0.0430844 0
M  V30 6851 O 635.723 1.92954 -0.219619 0
M  V30 6852 C 632.853 3.37889 -0.803027 0
M  V30 6853 C 631.807 3.85516 -1.85908 0
M  V30 6854 C 631.133 5.1682 -1.37116 0
M  V30 6855 C 632.433 4.07655 -3.26519 0
M  V30 6856 H 634.127 2.1529 -2.08064 0
M  V30 6857 H 631.673 1.03446 -1.00174 0
M  V30 6858 H 633.626 4.15654 -0.693537 0
M  V30 6859 H 632.35 3.26164 0.168674 0
M  V30 6860 H 631.009 3.09953 -1.95767 0
M  V30 6861 H 630.657 5.01497 -0.38859 0
M  V30 6862 H 630.357 5.49657 -2.07728 0
M  V30 6863 H 631.881 5.97143 -1.27484 0
M  V30 6864 H 633.295 4.75953 -3.19596 0
M  V30 6865 H 631.692 4.51818 -3.94943 0
M  V30 6866 H 632.762 3.12553 -3.70727 0
M  V30 6867 N 634.105 1.10431 1.1244 0
M  V30 6868 C 635.052 0.753103 2.18167 0
M  V30 6869 C 636.022 -0.270549 1.63882 0
M  V30 6870 O 637.207 -0.149837 1.90211 0
M  V30 6871 C 634.347 0.191046 3.44571 0
M  V30 6872 C 633.46 1.26999 4.12911 0
M  V30 6873 C 632.595 0.669586 5.26963 0
M  V30 6874 C 631.634 1.72912 5.87169 0
M  V30 6875 N 630.771 1.14898 6.92635 0
M  V30 6876 H 635.611 1.65892 2.47556 0
M  V30 6877 H 633.148 0.828631 1.21541 0
M  V30 6878 H 635.106 -0.152712 4.1692 0
M  V30 6879 H 633.736 -0.677997 3.15599 0
M  V30 6880 H 632.788 1.73087 3.3874 0
M  V30 6881 H 634.1 2.07204 4.53727 0
M  V30 6882 H 633.254 0.275274 6.06075 0
M  V30 6883 H 631.993 -0.163895 4.87425 0
M  V30 6884 H 630.998 2.13286 5.06744 0
M  V30 6885 H 632.223 2.56544 6.28778 0
M  V30 6886 H 630.169 0.336956 6.55134 0
M  V30 6887 H 630.086 1.88786 7.32049 0
M  V30 6888 H 631.354 0.78121 7.75576 0
M  V30 6889 N 635.583 -1.29855 0.893053 0
M  V30 6890 C 636.515 -2.26911 0.32311 0
M  V30 6891 C 637.528 -1.54039 -0.526858 0
M  V30 6892 O 638.717 -1.75132 -0.345095 0
M  V30 6893 C 635.817 -3.34266 -0.558509 0
M  V30 6894 C 634.99 -4.36601 0.264222 0
M  V30 6895 C 634.049 -5.23326 -0.549171 0
M  V30 6896 O 633.075 -5.69192 0.0309883 0
M  V30 6897 N 634.277 -5.50008 -1.85664 0
M  V30 6898 H 637.042 -2.76455 1.15726 0
M  V30 6899 H 634.603 -1.4312 0.756859 0
M  V30 6900 H 636.595 -3.89211 -1.1089 0
M  V30 6901 H 635.165 -2.8459 -1.29334 0
M  V30 6902 H 634.385 -3.81409 0.996046 0
M  V30 6903 H 635.673 -5.02019 0.827906 0
M  V30 6904 H 635.071 -5.14542 -2.35081 0
M  V30 6905 H 633.628 -6.07796 -2.35431 0
M  V30 6906 N 637.061 -0.65484 -1.43351 0
M  V30 6907 C 638.024 0.0263562 -2.29185 0
M  V30 6908 C 639.024 0.748951 -1.42293 0
M  V30 6909 O 640.214 0.589957 -1.63906 0
M  V30 6910 C 637.346 1.04806 -3.2439 0
M  V30 6911 H 638.539 -0.728883 -2.90908 0
M  V30 6912 H 636.092 -0.416149 -1.50658 0
M  V30 6913 H 636.827 1.83247 -2.67565 0
M  V30 6914 H 636.612 0.533554 -3.88453 0
M  V30 6915 H 638.102 1.52372 -3.88809 0
M  V30 6916 N 638.539 1.52521 -0.396863 0
M  V30 6917 C 639.787 2.01274 0.182536 0
M  V30 6918 C 640.108 1.28485 1.46685 0
M  V30 6919 O 639.378 0.407134 1.91623 0
M  V30 6920 H 637.958 0.743671 0.0704442 0
M  V30 6921 H 640.62 1.87547 -0.530289 0
M  V30 6922 H 639.716 3.09687 0.387385 0
M  V30 6923 N 640.017 0.126909 1.57088 0
M  V30 6924 C 640.98 -0.806097 2.14557 0
M  V30 6925 C 641.98 -1.18918 1.08236 0
M  V30 6926 O 643.17 -1.11339 1.33975 0
M  V30 6927 C 640.302 -2.09116 2.69227 0
M  V30 6928 H 641.495 -0.306522 2.98329 0
M  V30 6929 H 639.048 -0.122393 1.5582 0
M  V30 6930 H 639.783 -2.63486 1.89065 0
M  V30 6931 H 639.568 -1.82588 3.46993 0
M  V30 6932 H 641.058 -2.75794 3.13572 0
M  V30 6933 N 641.495 -1.56914 -0.146875 0
M  V30 6934 C 642.742 -1.83356 -0.859467 0
M  V30 6935 C 643.07 -0.707811 -1.81164 0
M  V30 6936 O 642.325 0.303155 -1.93338 0
M  V30 6937 C 642.624 -3.16128 -1.66727 0
M  V30 6938 C 642.29 -4.42586 -0.861881 0
M  V30 6939 C 640.952 -4.76929 -0.639687 0
M  V30 6940 C 643.304 -5.20344 -0.298643 0
M  V30 6941 C 640.632 -5.86491 0.156451 0
M  V30 6942 C 642.984 -6.30742 0.484536 0
M  V30 6943 C 641.648 -6.63635 0.717306 0
M  V30 6944 H 640.918 -0.670947 -0.314501 0
M  V30 6945 H 643.565 -1.91104 -0.123108 0
M  V30 6946 H 641.87 -3.03831 -2.47374 0
M  V30 6947 H 643.567 -3.33802 -2.2221 0
M  V30 6948 H 640.157 -4.15662 -1.04513 0
M  V30 6949 H 644.341 -4.94186 -0.457585 0
M  V30 6950 H 639.597 -6.10419 0.346292 0
M  V30 6951 H 643.771 -6.90188 0.928105 0
M  V30 6952 H 641.398 -7.48367 1.33607 0
M  V30 6953 N 642.974 0.416227 -1.52004 0
M  V30 6954 C 643.904 1.51365 -1.77795 0
M  V30 6955 C 644.885 1.58059 -0.628601 0
M  V30 6956 O 646.07 1.73447 -0.873478 0
M  V30 6957 C 643.2 2.89256 -1.92219 0
M  V30 6958 C 642.154 2.97415 -3.0778 0
M  V30 6959 C 641.48 4.37492 -3.07417 0
M  V30 6960 C 642.78 2.69551 -4.47369 0
M  V30 6961 H 644.474 1.30033 -2.69688 0
M  V30 6962 H 642.02 0.624112 -1.29772 0
M  V30 6963 H 643.973 3.66008 -2.08845 0
M  V30 6964 H 642.697 3.11866 -0.969917 0
M  V30 6965 H 641.356 2.23107 -2.90893 0
M  V30 6966 H 641.004 4.571 -2.09925 0
M  V30 6967 H 640.704 4.43877 -3.85029 0
M  V30 6968 H 642.228 5.16188 -3.26162 0
M  V30 6969 H 643.642 3.36028 -4.64497 0
M  V30 6970 H 642.039 2.87321 -5.26846 0
M  V30 6971 H 643.109 1.65029 -4.55953 0
M  V30 6972 N 644.452 1.42507 0.673017 0
M  V30 6973 C 645.68 1.46473 1.46128 0
M  V30 6974 C 646.095 0.0765912 1.88645 0
M  V30 6975 O 645.452 -0.909057 1.58248 0
M  V30 6976 C 645.503 2.39339 2.70923 0
M  V30 6977 O 645.224 3.72752 2.3019 0
M  V30 6978 C 646.725 2.52343 3.64469 0
M  V30 6979 H 643.945 0.49812 0.449575 0
M  V30 6980 H 646.489 1.87041 0.826802 0
M  V30 6981 H 644.644 2.02019 3.30556 0
M  V30 6982 H 645.058 4.22503 3.10791 0
M  V30 6983 H 646.532 3.2144 4.48754 0
M  V30 6984 H 647.009 1.56189 4.1049 0
M  V30 6985 H 647.615 2.90392 3.10729 0
M  V30 6986 N 645.93 -0.909495 1.28709 0
M  V30 6987 C 647.16 -1.69027 1.188 0
M  V30 6988 C 647.568 -1.87469 -0.255329 0
M  V30 6989 O 646.911 -1.40458 -1.18394 0
M  V30 6990 C 646.973 -3.10064 1.81936 0
M  V30 6991 C 646.637 -3.14891 3.31199 0
M  V30 6992 C 647.634 -2.95768 4.27571 0
M  V30 6993 C 645.319 -3.37269 3.7223 0
M  V30 6994 C 647.313 -2.98942 5.6295 0
M  V30 6995 C 645 -3.40074 5.07733 0
M  V30 6996 C 645.998 -3.20932 6.02903 0
M  V30 6997 O 645.686 -3.23507 7.35934 0
M  V30 6998 H 645.418 -0.535014 0.413203 0
M  V30 6999 H 647.972 -1.14645 1.70428 0
M  V30 7000 H 646.202 -3.66005 1.24808 0
M  V30 7001 H 647.891 -3.70185 1.66486 0
M  V30 7002 H 648.657 -2.78302 3.97206 0
M  V30 7003 H 644.536 -3.51212 2.98615 0
M  V30 7004 H 648.08 -2.83919 6.37209 0
M  V30 7005 H 643.977 -3.5707 5.37747 0
M  V30 7006 H 644.745 -3.3984 7.44615 0
M  V30 7007 N 647.408 -1.11026 -1.11852 0
M  V30 7008 C 648.633 -0.879064 -1.87849 0
M  V30 7009 C 649.058 0.565406 -1.79401 0
M  V30 7010 O 648.416 1.39886 -1.15333 0
M  V30 7011 C 648.464 -1.33985 -3.34784 0
M  V30 7012 O 647.568 -0.508803 -4.09249 0
M  V30 7013 H 646.909 -0.316992 -0.583448 0
M  V30 7014 H 649.439 -1.47863 -1.41413 0
M  V30 7015 H 649.449 -1.33248 -3.85628 0
M  V30 7016 H 648.124 -2.39172 -3.40249 0
M  V30 7017 H 646.701 -0.581913 -3.68332 0
M  V30 7018 N 648.886 1.2938 -0.899927 0
M  V30 7019 C 650.111 2.00228 -0.540692 0
M  V30 7020 C 650.536 1.66909 0.867359 0
M  V30 7021 O 649.894 0.893824 1.57735 0
M  V30 7022 C 649.942 3.52921 -0.740232 0
M  V30 7023 O 649.046 4.11879 0.207154 0
M  V30 7024 H 648.387 0.629505 -0.211233 0
M  V30 7025 H 650.917 1.6487 -1.21158 0
M  V30 7026 H 650.927 4.0287 -0.644973 0
M  V30 7027 H 649.602 3.76508 -1.76677 0
M  V30 7028 H 648.179 3.72845 0.0643315 0
M  V30 7029 N 650.364 0.662433 1.43002 0
M  V30 7030 C 651.611 0.179591 2.01702 0
M  V30 7031 C 651.939 -1.20964 1.52309 0
M  V30 7032 O 651.194 -1.82343 0.7106 0
M  V30 7033 C 651.493 0.149363 3.57088 0
M  V30 7034 C 651.159 1.48158 4.25864 0
M  V30 7035 C 649.821 1.84638 4.44367 0
M  V30 7036 C 652.173 2.35953 4.64732 0
M  V30 7037 C 649.501 3.08561 4.99006 0
M  V30 7038 C 651.853 3.59176 5.20745 0
M  V30 7039 C 650.517 3.95841 5.37463 0
M  V30 7040 H 649.787 0.0657172 0.73808 0
M  V30 7041 H 652.434 0.854968 1.71355 0
M  V30 7042 H 650.739 -0.609491 3.8703 0
M  V30 7043 H 652.436 -0.241241 4.00274 0
M  V30 7044 H 649.026 1.18777 4.11813 0
M  V30 7045 H 653.21 2.09058 4.50121 0
M  V30 7046 H 648.466 3.37005 5.10135 0
M  V30 7047 H 652.64 4.27417 5.49807 0
M  V30 7048 H 650.267 4.91942 5.79566 0
M  V30 7049 N 651.842 -1.52309 0.404946 0
M  V30 7050 C 653.082 -2.03677 -0.171779 0
M  V30 7051 C 653.446 -1.28419 -1.42733 0
M  V30 7052 O 654.647 -1.69991 -2.08222 0
M  V30 7053 C 652.918 -3.54951 -0.417701 0
M  V30 7054 S 654.477 -4.28114 -0.962472 0
M  V30 7055 H 651.295 -0.709445 -0.0469912 0
M  V30 7056 H 653.897 -1.874 0.556901 0
M  V30 7057 H 652.601 -4.07306 0.50295 0
M  V30 7058 H 652.132 -3.75462 -1.17437 0
M  V30 7059 H 654.147 -4.42589 -2.24342 0
M  V30 7060 N 653.32 -0.135238 -1.57019 0
M  V30 7061 C 654.731 0.387521 -1.82634 0
M  V30 7062 C 655.082 1.65528 -1.05332 0
M  V30 7063 O 654.207 2.14381 -0.294926 0
M  V30 7064 C 654.802 0.709852 -3.3128 0
M  V30 7065 C 653.361 1.17718 -3.57518 0
M  V30 7066 C 652.508 0.194183 -2.76619 0
M  V30 7067 H 655.459 -0.360126 -1.5456 0
M  V30 7068 H 655.48 1.5657 -3.46794 0
M  V30 7069 H 654.992 -0.213024 -3.87515 0
M  V30 7070 H 653.093 2.1164 -3.06658 0
M  V30 7071 H 653.206 1.11128 -4.66034 0
M  V30 7072 H 651.57 0.684478 -2.4533 0
M  V30 7073 H 652.353 -0.722076 -3.3562 0
M  V30 7074 N 654.798 1.5699 0.138552 0
M  V30 7075 C 656.209 1.73171 0.697754 0
M  V30 7076 C 656.56 0.750952 1.8126 0
M  V30 7077 O 655.685 -0.080549 2.1625 0
M  V30 7078 C 656.28 3.13996 1.27248 0
M  V30 7079 C 654.839 3.3175 1.77816 0
M  V30 7080 C 653.986 2.69084 0.669991 0
M  V30 7081 H 656.937 1.5846 -0.0871979 0
M  V30 7082 H 656.958 3.14463 2.14227 0
M  V30 7083 H 656.47 3.85354 0.460855 0
M  V30 7084 H 654.571 2.65403 2.61519 0
M  V30 7085 H 654.684 4.39768 1.90107 0
M  V30 7086 H 653.048 2.29782 1.09874 0
M  V30 7087 H 653.831 3.43053 -0.130329 0
M  V30 7088 N 656.276 -0.40816 1.52223 0
M  V30 7089 C 657.553 -1.16807 1.56893 0
M  V30 7090 C 657.933 -2.08169 0.350537 0
M  V30 7091 O 657.281 -2.18684 -0.662536 0
M  V30 7092 C 657.491 -1.94451 2.8981 0
M  V30 7093 C 658.839 -2.50484 3.42845 0
M  V30 7094 O 659.863 -2.0463 2.91556 0
M  V30 7095 O 658.722 -3.34192 4.3241 0
M  V30 7096 H 655.816 -0.533382 0.632007 0
M  V30 7097 H 658.362 -0.414862 1.64551 0
M  V30 7098 H 657.134 -1.27527 3.69936 0
M  V30 7099 H 656.757 -2.76775 2.85449 0
M  V30 7100 N 657.755 -1.42862 -0.66545 0
M  V30 7101 C 659.032 -1.3431 -1.42197 0
M  V30 7102 C 659.412 0.0150265 -2.11095 0
M  V30 7103 O 658.76 1.03101 -2.03918 0
M  V30 7104 C 658.97 -2.51783 -2.41674 0
M  V30 7105 C 660.318 -2.94321 -3.0604 0
M  V30 7106 O 661.342 -2.51741 -2.52001 0
M  V30 7107 O 660.201 -3.68047 -4.03985 0
M  V30 7108 H 657.295 -0.530159 -0.634713 0
M  V30 7109 H 659.841 -1.54888 -0.693386 0
M  V30 7110 H 658.613 -3.42282 -1.89627 0
M  V30 7111 H 658.236 -2.33241 -3.22001 0
M  V30 7112 N 659.233 0.902656 -1.29189 0
M  V30 7113 C 660.163 2.02294 -1.16616 0
M  V30 7114 C 661.144 1.6999 -0.0611175 0
M  V30 7115 O 662.329 1.9271 -0.240072 0
M  V30 7116 C 659.459 3.37018 -0.83882 0
M  V30 7117 C 658.413 3.83522 -1.89986 0
M  V30 7118 C 657.739 5.15337 -1.42589 0
M  V30 7119 C 659.039 4.04169 -3.30824 0
M  V30 7120 H 660.733 2.13071 -2.10336 0
M  V30 7121 H 658.279 1.02378 -1.01266 0
M  V30 7122 H 660.232 4.14895 -0.737584 0
M  V30 7123 H 658.956 3.26325 0.134071 0
M  V30 7124 H 657.615 3.07859 -1.99043 0
M  V30 7125 H 657.263 5.01056 -0.441759 0
M  V30 7126 H 656.963 5.47423 -2.13547 0
M  V30 7127 H 658.487 5.95758 -1.3381 0
M  V30 7128 H 659.901 4.72537 -3.24626 0
M  V30 7129 H 658.298 4.47604 -3.99713 0
M  V30 7130 H 659.368 3.08604 -3.74021 0
M  V30 7131 N 660.711 1.11618 1.11262 0
M  V30 7132 C 661.674 0.779447 2.15539 0
M  V30 7133 C 662.674 -0.202081 1.59525 0
M  V30 7134 O 663.864 0.0226356 1.74185 0
M  V30 7135 C 660.996 0.15674 3.40539 0
M  V30 7136 H 662.189 1.70324 2.4684 0
M  V30 7137 H 659.742 0.918298 1.26479 0
M  V30 7138 H 660.477 -0.777186 3.1485 0
M  V30 7139 H 660.262 0.863308 3.82478 0
M  V30 7140 H 661.752 -0.062661 4.17553 0
M  V30 7141 N 662.189 -1.289 0.906776 0
M  V30 7142 C 663.466 -1.90221 0.455537 0
M  V30 7143 C 663.846 -1.82251 -1.06527 0
M  V30 7144 O 663.194 -1.25385 -1.91026 0
M  V30 7145 C 663.404 -3.35015 0.97806 0
M  V30 7146 C 664.752 -4.12018 1.02598 0
M  V30 7147 O 665.776 -3.43947 0.926218 0
M  V30 7148 O 664.635 -5.33677 1.17689 0
M  V30 7149 H 661.729 -0.814505 0.143214 0
M  V30 7150 H 664.275 -1.37317 0.997104 0
M  V30 7151 H 663.047 -3.35006 2.02204 0
M  V30 7152 H 662.67 -3.95408 0.416914 0
M  V30 7153 N 663.667 -0.670007 -1.42649 0
M  V30 7154 C 665.083 -0.33911 -1.55956 0
M  V30 7155 C 665.283 1.1558 -1.65056 0
M  V30 7156 O 664.339 1.94111 -1.61485 0
M  V30 7157 C 665.652 -1.06522 -2.812 0
M  V30 7158 C 667.2 -1.04708 -2.94966 0
M  V30 7159 C 667.675 -1.75442 -4.23065 0
M  V30 7160 N 669.166 -1.72286 -4.29967 0
M  V30 7161 C 669.901 -2.23877 -5.27889 0
M  V30 7162 N 669.397 -2.83829 -6.31991 0
M  V30 7163 N 671.19 -2.14279 -5.19654 0
M  V30 7164 H 663.341 -1.6399 -1.34986 0
M  V30 7165 H 665.604 -0.690603 -0.649439 0
M  V30 7166 H 665.31 -2.12033 -2.80597 0
M  V30 7167 H 665.184 -0.627398 -3.71946 0
M  V30 7168 H 667.571 -0.000315966 -2.951 0
M  V30 7169 H 667.652 -1.52374 -2.05465 0
M  V30 7170 H 667.296 -2.80084 -4.23693 0
M  V30 7171 H 667.226 -1.25229 -5.11493 0
M  V30 7172 H 669.717 -1.28554 -3.55362 0
M  V30 7173 H 670.03 -3.20827 -7.03057 0
M  V30 7174 H 668.375 -2.87896 -6.32567 0
M  V30 7175 H 671.566 -1.67135 -4.37245 0
M  V30 7176 H 671.739 -2.54792 -5.95806 0
M  V30 7177 N 665.145 1.52092 -0.413018 0
M  V30 7178 C 666.393 2.01456 0.161178 0
M  V30 7179 C 666.714 1.30034 1.45314 0
M  V30 7180 O 665.984 0.427435 1.9118 0
M  V30 7181 H 664.564 0.744376 0.0625526 0
M  V30 7182 H 667.226 1.86974 -0.550151 0
M  V30 7183 H 666.322 3.1008 0.354517 0
M  V30 7184 N 666.623 0.143563 1.56945 0
M  V30 7185 C 667.553 -0.7936 2.196 0
M  V30 7186 C 668.534 -1.25955 1.14321 0
M  V30 7187 O 669.719 -1.31773 1.42651 0
M  V30 7188 C 666.849 -2.03424 2.81489 0
M  V30 7189 C 665.803 -1.70519 3.92565 0
M  V30 7190 C 665.129 -3.01817 4.41373 0
M  V30 7191 C 666.429 -0.95449 5.13504 0
M  V30 7192 H 668.123 -0.271423 2.98167 0
M  V30 7193 H 665.669 -0.12911 1.4342 0
M  V30 7194 H 667.622 -2.69463 3.23987 0
M  V30 7195 H 666.346 -2.58008 2.00248 0
M  V30 7196 H 665.005 -1.06859 3.5068 0
M  V30 7197 H 664.653 -3.54386 3.56959 0
M  V30 7198 H 664.353 -2.80565 5.16292 0
M  V30 7199 H 665.877 -3.68934 4.86539 0
M  V30 7200 H 667.291 -1.5169 5.52868 0
M  V30 7201 H 665.688 -0.842035 5.94163 0
M  V30 7202 H 666.758 0.0544033 4.84869 0
M  V30 7203 N 668.101 -1.57061 -0.130224 0
M  V30 7204 C 669.031 -2.02552 -1.16168 0
M  V30 7205 C 670.012 -0.907971 -1.4384 0
M  V30 7206 O 671.197 -1.17693 -1.54473 0
M  V30 7207 C 668.327 -2.42035 -2.49071 0
M  V30 7208 C 667.281 -3.5713 -2.35886 0
M  V30 7209 C 666.607 -3.82478 -3.7365 0
M  V30 7210 C 667.907 -4.89236 -1.8288 0
M  V30 7211 H 669.601 -2.8897 -0.783359 0
M  V30 7212 H 667.147 -1.39021 -0.375376 0
M  V30 7213 H 669.1 -2.72462 -3.21469 0
M  V30 7214 H 667.824 -1.52573 -2.88771 0
M  V30 7215 H 666.483 -3.26895 -1.65938 0
M  V30 7216 H 666.131 -2.9024 -4.10816 0
M  V30 7217 H 665.831 -4.59944 -3.65685 0
M  V30 7218 H 667.355 -4.15347 -4.47571 0
M  V30 7219 H 668.769 -5.18272 -2.45085 0
M  V30 7220 H 667.166 -5.70624 -1.85763 0
M  V30 7221 H 668.236 -4.78494 -0.785571 0
M  V30 7222 N 669.579 0.400081 -1.52437 0
M  V30 7223 C 670.827 1.14392 -1.6661 0
M  V30 7224 C 671.148 1.90792 -0.402927 0
M  V30 7225 O 670.418 1.87042 0.582425 0
M  V30 7226 H 668.998 0.425275 -0.614125 0
M  V30 7227 H 671.66 0.455076 -1.89513 0
M  V30 7228 H 670.756 1.85298 -2.51139 0
M  V30 7229 N 671.057 1.43213 0.657864 0
M  V30 7230 C 672.303 1.44798 1.41991 0
M  V30 7231 C 672.636 0.070256 1.94073 0
M  V30 7232 O 671.911 -0.908177 1.71995 0
M  V30 7233 C 672.194 2.4865 2.60471 0
M  V30 7234 C 672.047 3.95679 2.13911 0
M  V30 7235 C 673.366 2.49292 3.62686 0
M  V30 7236 H 670.485 0.527244 0.514959 0
M  V30 7237 H 673.127 1.74733 0.74621 0
M  V30 7238 H 671.277 2.23254 3.17946 0
M  V30 7239 H 672.949 4.32116 1.61472 0
M  V30 7240 H 671.192 4.08733 1.45325 0
M  V30 7241 H 671.863 4.6395 2.99089 0
M  V30 7242 H 674.339 2.71917 3.14961 0
M  V30 7243 H 673.215 3.23907 4.43143 0
M  V30 7244 H 673.476 1.52502 4.14964 0
M  V30 7245 N 672.536 -0.895792 1.29666 0
M  V30 7246 C 673.483 -2.00035 1.15129 0
M  V30 7247 C 674.453 -1.66043 0.0435819 0
M  V30 7248 O 675.638 -1.89621 0.211811 0
M  V30 7249 C 672.778 -3.34774 0.83787 0
M  V30 7250 C 671.891 -3.81525 2.0264 0
M  V30 7251 C 671.026 -5.04858 1.65201 0
M  V30 7252 C 670.065 -5.43988 2.80612 0
M  V30 7253 N 669.202 -6.58507 2.43544 0
M  V30 7254 H 674.042 -2.11802 2.09628 0
M  V30 7255 H 671.579 -1.03719 1.04311 0
M  V30 7256 H 673.537 -4.12311 0.636824 0
M  V30 7257 H 672.167 -3.22724 -0.0702314 0
M  V30 7258 H 671.219 -2.9999 2.33903 0
M  V30 7259 H 672.531 -4.06472 2.89106 0
M  V30 7260 H 671.685 -5.8999 1.41408 0
M  V30 7261 H 670.424 -4.81759 0.758893 0
M  V30 7262 H 669.429 -4.57388 3.05083 0
M  V30 7263 H 670.654 -5.69066 3.70595 0
M  V30 7264 H 668.6 -6.37004 1.56724 0
M  V30 7265 H 668.517 -6.83269 3.23542 0
M  V30 7266 H 669.785 -7.46897 2.2308 0
M  V30 7267 N 674.014 -1.12206 -1.10668 0
M  V30 7268 C 675.239 -0.898938 -1.86906 0
M  V30 7269 C 675.664 0.546346 -1.79991 0
M  V30 7270 O 675.022 1.38655 -1.1681 0
M  V30 7271 C 675.07 -1.37529 -3.33344 0
M  V30 7272 O 674.174 -0.55218 -4.08687 0
M  V30 7273 H 673.515 -0.323163 -0.580053 0
M  V30 7274 H 676.045 -1.49355 -1.39837 0
M  V30 7275 H 676.055 -1.3733 -3.84193 0
M  V30 7276 H 674.73 -2.42767 -3.37693 0
M  V30 7277 H 673.307 -0.620947 -3.67694 0
M  V30 7278 N 675.492 1.28418 -0.913599 0
M  V30 7279 C 676.717 1.99643 -0.561899 0
M  V30 7280 C 677.142 1.67819 0.849608 0
M  V30 7281 O 676.5 0.910503 1.56779 0
M  V30 7282 C 676.548 3.52116 -0.777622 0
M  V30 7283 O 675.652 4.12076 0.163457 0
M  V30 7284 H 674.993 0.627229 -0.217898 0
M  V30 7285 H 677.523 1.63575 -1.229 0
M  V30 7286 H 677.533 4.02163 -0.687666 0
M  V30 7287 H 676.208 3.74613 -1.8066 0
M  V30 7288 H 674.785 3.72892 0.0247827 0
M  V30 7289 N 676.97 0.677563 1.42291 0
M  V30 7290 C 678.217 0.200975 2.015 0
M  V30 7291 C 678.545 -1.19342 1.53583 0
M  V30 7292 O 677.8 -1.81579 0.7299 0
M  V30 7293 C 678.099 0.187229 3.56909 0
M  V30 7294 C 677.765 1.52667 4.24268 0
M  V30 7295 C 676.427 1.89341 4.42384 0
M  V30 7296 C 678.779 2.40869 4.62203 0
M  V30 7297 C 676.107 3.13836 4.95705 0
M  V30 7298 C 678.459 3.64679 5.16906 0
M  V30 7299 C 677.123 4.01519 5.33234 0
M  V30 7300 H 676.393 0.0735418 0.737342 0
M  V30 7301 H 679.04 0.873095 1.70439 0
M  V30 7302 H 677.345 -0.568407 3.87655 0
M  V30 7303 H 679.042 -0.198773 4.00507 0
M  V30 7304 H 675.632 1.23138 4.1053 0
M  V30 7305 H 679.816 2.1382 4.47878 0
M  V30 7306 H 675.072 3.42396 5.06532 0
M  V30 7307 H 679.246 4.33224 5.45243 0
M  V30 7308 H 676.873 4.98062 5.74316 0
M  V30 7309 N 678.448 -1.51871 0.421078 0
M  V30 7310 C 679.678 -2.06057 -0.149723 0
M  V30 7311 C 680.086 -1.29002 -1.38402 0
M  V30 7312 O 679.429 -0.338385 -1.80556 0
M  V30 7313 C 679.491 -3.55216 -0.553339 0
M  V30 7314 C 679.155 -4.53408 0.571879 0
M  V30 7315 C 680.152 -4.99586 1.4391 0
M  V30 7316 C 677.837 -4.967 0.747979 0
M  V30 7317 C 679.831 -5.87711 2.46727 0
M  V30 7318 C 677.518 -5.84619 1.77944 0
M  V30 7319 C 678.516 -6.30021 2.63748 0
M  V30 7320 O 678.204 -7.16197 3.65126 0
M  V30 7321 H 677.936 -0.675744 -0.0186102 0
M  V30 7322 H 680.49 -1.96618 0.594166 0
M  V30 7323 H 678.72 -3.62381 -1.34969 0
M  V30 7324 H 680.409 -3.91992 -1.05342 0
M  V30 7325 H 681.175 -4.66846 1.31451 0
M  V30 7326 H 677.054 -4.60913 0.0897357 0
M  V30 7327 H 680.598 -6.2307 3.13734 0
M  V30 7328 H 676.495 -6.16771 1.90429 0
M  V30 7329 H 677.263 -7.34337 3.61512 0
M  V30 7330 N 679.926 -0.151884 -1.56866 0
M  V30 7331 C 680.889 0.771861 -2.15812 0
M  V30 7332 C 681.889 1.17181 -1.10115 0
M  V30 7333 O 683.079 1.09194 -1.35729 0
M  V30 7334 C 680.211 2.04806 -2.7252 0
M  V30 7335 H 681.404 0.259021 -2.98779 0
M  V30 7336 H 678.957 0.097588 -1.55995 0
M  V30 7337 H 679.692 2.60445 -1.93233 0
M  V30 7338 H 679.477 1.77044 -3.49854 0
M  V30 7339 H 680.967 2.70771 -3.1792 0
M  V30 7340 N 681.404 1.57128 0.121893 0
M  V30 7341 C 682.336 1.96773 1.17529 0
M  V30 7342 C 683.349 0.866668 1.37814 0
M  V30 7343 O 684.538 1.14497 1.3694 0
M  V30 7344 C 681.638 2.24832 2.53582 0
M  V30 7345 C 680.811 3.56138 2.53939 0
M  V30 7346 C 679.87 3.72443 3.71716 0
M  V30 7347 O 678.896 4.44584 3.55434 0
M  V30 7348 N 680.098 3.10993 4.90167 0
M  V30 7349 H 682.863 2.87743 0.838086 0
M  V30 7350 H 680.424 1.58881 0.311199 0
M  V30 7351 H 682.416 2.32958 3.30927 0
M  V30 7352 H 680.986 1.40002 2.79496 0
M  V30 7353 H 680.206 3.59226 1.62329 0
M  V30 7354 H 681.494 4.42448 2.51231 0
M  V30 7355 H 680.892 2.52345 5.06299 0
M  V30 7356 H 679.449 3.24644 5.65198 0
M  V30 7357 N 682.882 -0.391992 1.52647 0
M  V30 7358 C 684.159 -1.15136 1.58123 0
M  V30 7359 C 684.539 -2.07786 0.372597 0
M  V30 7360 O 683.887 -2.19374 -0.639304 0
M  V30 7361 C 684.097 -1.91367 2.91856 0
M  V30 7362 C 685.445 -2.46833 3.45483 0
M  V30 7363 O 686.469 -2.01527 2.9371 0
M  V30 7364 O 685.328 -3.29587 4.3593 0
M  V30 7365 H 682.422 -0.526649 0.637629 0
M  V30 7366 H 684.968 -0.397386 1.64982 0
M  V30 7367 H 683.74 -1.23597 3.71268 0
M  V30 7368 H 683.363 -2.73732 2.88369 0
M  V30 7369 N 684.36 -1.4356 -0.65026 0
M  V30 7370 C 685.323 -1.48615 -1.74489 0
M  V30 7371 C 686.323 -0.370483 -1.56474 0
M  V30 7372 O 687.513 -0.632351 -1.62317 0
M  V30 7373 C 684.645 -1.34161 -3.13391 0
M  V30 7374 H 685.838 -2.46103 -1.71387 0
M  V30 7375 H 683.391 -1.30369 -0.862186 0
M  V30 7376 H 684.126 -0.376918 -3.22102 0
M  V30 7377 H 683.911 -2.1504 -3.27872 0
M  V30 7378 H 685.401 -1.40637 -3.93206 0
M  V30 7379 N 685.838 0.888903 -1.30139 0
M  V30 7380 C 686.768 2.01046 -1.18755 0
M  V30 7381 C 687.749 1.69916 -0.0791438 0
M  V30 7382 O 688.934 1.92445 -0.260498 0
M  V30 7383 C 686.064 3.36109 -0.874518 0
M  V30 7384 C 685.018 3.81486 -1.94043 0
M  V30 7385 C 684.344 5.13796 -1.48047 0
M  V30 7386 C 685.644 4.00637 -3.35093 0
M  V30 7387 H 687.338 2.10828 -2.12584 0
M  V30 7388 H 684.884 1.01298 -1.02346 0
M  V30 7389 H 686.837 4.14089 -0.781548 0
M  V30 7390 H 685.561 3.26449 0.0994519 0
M  V30 7391 H 684.22 3.05731 -2.02297 0
M  V30 7392 H 683.868 5.0056 -0.494878 0
M  V30 7393 H 683.568 5.45127 -2.19341 0
M  V30 7394 H 685.092 5.94305 -1.40121 0
M  V30 7395 H 686.506 4.69067 -3.2962 0
M  V30 7396 H 684.903 4.43339 -4.04438 0
M  V30 7397 H 685.973 3.0462 -3.77273 0
M  V30 7398 N 687.317 1.12792 1.10072 0
M  V30 7399 C 688.733 0.864745 1.34143 0
M  V30 7400 C 688.933 -0.503201 1.95116 0
M  V30 7401 O 687.989 -1.25111 2.19325 0
M  V30 7402 C 689.302 1.98413 2.25949 0
M  V30 7403 C 690.85 2.01545 2.39476 0
M  V30 7404 C 691.325 3.12727 3.34613 0
M  V30 7405 N 692.816 3.12194 3.42183 0
M  V30 7406 C 693.551 3.94862 4.15779 0
M  V30 7407 N 693.047 4.87528 4.92228 0
M  V30 7408 N 694.84 3.82985 4.11435 0
M  V30 7409 H 686.991 2.00926 0.68866 0
M  V30 7410 H 689.254 0.874564 0.365844 0
M  V30 7411 H 688.96 2.97005 1.88364 0
M  V30 7412 H 688.834 1.89254 3.26287 0
M  V30 7413 H 691.221 1.0357 2.76328 0
M  V30 7414 H 691.302 2.14777 1.3894 0
M  V30 7415 H 690.946 4.10936 2.98486 0
M  V30 7416 H 690.876 2.96732 4.35037 0
M  V30 7417 H 693.367 2.45065 2.87666 0
M  V30 7418 H 693.68 5.47109 5.45794 0
M  V30 7419 H 692.025 4.91539 4.9134 0
M  V30 7420 H 695.216 3.09923 3.50807 0
M  V30 7421 H 695.389 4.47641 4.68531 0
M  V30 7422 N 688.795 -1.27931 0.920396 0
M  V30 7423 C 689.725 -2.29487 0.431024 0
M  V30 7424 C 690.706 -1.62435 -0.504861 0
M  V30 7425 O 691.891 -1.89797 -0.411176 0
M  V30 7426 C 689.021 -3.45788 -0.323709 0
M  V30 7427 C 687.975 -4.24784 0.523658 0
M  V30 7428 C 687.301 -5.33488 -0.359809 0
M  V30 7429 C 688.601 -4.90874 1.78437 0
M  V30 7430 H 690.295 -2.70671 1.27975 0
M  V30 7431 H 687.841 -1.30121 0.616813 0
M  V30 7432 H 689.794 -4.15927 -0.676952 0
M  V30 7433 H 688.518 -3.03502 -1.2064 0
M  V30 7434 H 687.177 -3.56382 0.85951 0
M  V30 7435 H 686.825 -4.87445 -1.24124 0
M  V30 7436 H 686.525 -5.87247 0.203605 0
M  V30 7437 H 688.049 -6.06472 -0.708787 0
M  V30 7438 H 689.463 -5.53339 1.49963 0
M  V30 7439 H 687.86 -5.54659 2.29071 0
M  V30 7440 H 688.93 -4.14988 2.50824 0
M  V30 7441 N 690.273 -0.685099 -1.4193 0
M  V30 7442 C 691.519 -0.220688 -2.02199 0
M  V30 7443 C 691.874 1.16329 -1.5325 0
M  V30 7444 O 691.167 1.77175 -0.729345 0
M  V30 7445 C 691.361 -0.206154 -3.56805 0
M  V30 7446 C 691.19 -1.58718 -4.2076 0
M  V30 7447 C 689.96 -2.18747 -4.55497 0
M  V30 7448 C 692.158 -2.53182 -4.47664 0
M  V30 7449 N 690.14 -3.49523 -5.04685 0
M  V30 7450 C 691.511 -3.68625 -4.98514 0
M  V30 7451 C 693.566 -2.51582 -4.29664 0
M  V30 7452 C 692.269 -4.82734 -5.33255 0
M  V30 7453 C 694.295 -3.64795 -4.65487 0
M  V30 7454 C 693.657 -4.78967 -5.16498 0
M  V30 7455 H 689.756 -0.12591 -0.771797 0
M  V30 7456 H 692.34 -0.900316 -1.72634 0
M  V30 7457 H 690.511 0.442923 -3.85866 0
M  V30 7458 H 692.243 0.272103 -4.03784 0
M  V30 7459 H 688.998 -1.71135 -4.41599 0
M  V30 7460 H 689.422 -4.1653 -5.33696 0
M  V30 7461 H 694.064 -1.64535 -3.89472 0
M  V30 7462 H 691.782 -5.7045 -5.72375 0
M  V30 7463 H 695.368 -3.64796 -4.53227 0
M  V30 7464 H 694.248 -5.6512 -5.437 0
M  V30 7465 N 691.751 1.51645 -0.429126 0
M  V30 7466 C 692.661 2.31288 0.392809 0
M  V30 7467 C 693.677 1.39852 1.03525 0
M  V30 7468 O 694.853 1.72926 1.03241 0
M  V30 7469 C 691.918 3.13347 1.48372 0
M  V30 7470 C 690.979 4.20551 0.862268 0
M  V30 7471 C 690.212 4.98688 1.9012 0
M  V30 7472 O 690.435 4.77359 3.12225 0
M  V30 7473 O 689.369 5.83005 1.4963 0
M  V30 7474 H 693.195 3.02609 -0.257138 0
M  V30 7475 H 690.78 1.48163 -0.191851 0
M  V30 7476 H 692.662 3.64387 2.1166 0
M  V30 7477 H 691.337 2.44799 2.1179 0
M  V30 7478 H 690.244 3.73609 0.191568 0
M  V30 7479 H 691.577 4.91449 0.271704 0
M  V30 7480 N 693.229 0.160201 1.56784 0
M  V30 7481 C 694.478 -0.487619 1.95717 0
M  V30 7482 C 694.791 -1.65136 1.0483 0
M  V30 7483 O 695.997 -2.36468 1.33398 0
M  V30 7484 C 694.453 -0.91888 3.47972 0
M  V30 7485 C 694.061 0.218655 4.47466 0
M  V30 7486 C 695.805 -1.53575 3.95746 0
M  V30 7487 C 693.712 -0.231614 5.90946 0
M  V30 7488 H 692.642 -0.185939 0.730714 0
M  V30 7489 H 695.293 0.246657 1.81835 0
M  V30 7490 H 693.675 -1.70881 3.57234 0
M  V30 7491 H 694.849 0.995825 4.49911 0
M  V30 7492 H 693.164 0.744767 4.09685 0
M  V30 7493 H 695.761 -1.88448 5.00391 0
M  V30 7494 H 696.104 -2.42959 3.38048 0
M  V30 7495 H 696.637 -0.810467 3.89456 0
M  V30 7496 H 693.376 0.62718 6.52493 0
M  V30 7497 H 692.896 -0.974379 5.91833 0
M  V30 7498 H 694.575 -0.67922 6.43425 0
M  V30 7499 N 694.707 -1.5719 -0.113559 0
M  V30 7500 C 695.956 -1.84325 -0.818984 0
M  V30 7501 C 696.269 -0.746685 -1.80787 0
M  V30 7502 O 697.475 -0.904596 -2.55987 0
M  V30 7503 C 695.931 -3.26818 -1.50724 0
M  V30 7504 C 695.539 -4.44498 -0.559065 0
M  V30 7505 C 697.283 -3.63196 -2.19748 0
M  V30 7506 C 695.19 -5.7802 -1.25086 0
M  V30 7507 H 694.12 -0.687507 -0.309596 0
M  V30 7508 H 696.771 -1.8336 -0.0717621 0
M  V30 7509 H 695.153 -3.22269 -2.30128 0
M  V30 7510 H 696.327 -4.60356 0.202146 0
M  V30 7511 H 694.642 -4.16393 0.024495 0
M  V30 7512 H 697.239 -4.60226 -2.72206 0
M  V30 7513 H 697.582 -2.90899 -2.97798 0
M  V30 7514 H 698.115 -3.69553 -1.47226 0
M  V30 7515 H 694.854 -6.53501 -0.511539 0
M  V30 7516 H 694.374 -5.66038 -1.98395 0
M  V30 7517 H 696.053 -6.2196 -1.78253 0
M  V30 7518 N 696.185 0.383891 -1.52853 0
M  V30 7519 C 697.415 1.14783 -1.7178 0
M  V30 7520 C 697.823 1.84055 -0.438211 0
M  V30 7521 O 697.166 1.73713 0.597465 0
M  V30 7522 C 697.228 2.23543 -2.81547 0
M  V30 7523 C 696.892 1.74195 -4.22499 0
M  V30 7524 C 697.889 1.21591 -5.05481 0
M  V30 7525 C 695.574 1.80262 -4.6884 0
M  V30 7526 C 697.568 0.757104 -6.32888 0
M  V30 7527 C 695.255 1.33993 -5.96229 0
M  V30 7528 C 696.253 0.818049 -6.78083 0
M  V30 7529 O 695.941 0.362123 -8.03084 0
M  V30 7530 H 695.673 0.349908 -0.578395 0
M  V30 7531 H 698.227 0.454377 -2.00311 0
M  V30 7532 H 696.457 2.96328 -2.48449 0
M  V30 7533 H 698.146 2.8519 -2.88828 0
M  V30 7534 H 698.912 1.16257 -4.7086 0
M  V30 7535 H 694.791 2.19825 -4.05213 0
M  V30 7536 H 698.335 0.34908 -6.96726 0
M  V30 7537 H 694.232 1.39015 -6.30353 0
M  V30 7538 H 695 0.483134 -8.17073 0
M  V30 7539 N 697.663 1.43903 0.642637 0
M  V30 7540 C 699.079 1.27536 0.959519 0
M  V30 7541 C 699.279 0.202751 2.00477 0
M  V30 7542 O 698.335 -0.415256 2.49062 0
M  V30 7543 C 699.648 2.6432 1.43372 0
M  V30 7544 C 701.196 2.71937 1.54981 0
M  V30 7545 C 701.671 4.09164 2.05789 0
M  V30 7546 N 703.162 4.11282 2.13076 0
M  V30 7547 C 703.897 5.14303 2.53534 0
M  V30 7548 N 703.393 6.27693 2.93212 0
M  V30 7549 N 705.186 5.01657 2.53567 0
M  V30 7550 H 697.337 2.12344 -0.0488376 0
M  V30 7551 H 699.6 0.947124 0.0407559 0
M  V30 7552 H 699.306 3.43826 0.740048 0
M  V30 7553 H 699.18 2.90432 2.40685 0
M  V30 7554 H 701.567 1.92757 2.23448 0
M  V30 7555 H 701.648 2.49578 0.560739 0
M  V30 7556 H 701.292 4.88815 1.37921 0
M  V30 7557 H 701.222 4.28893 3.05546 0
M  V30 7558 H 703.713 3.2944 1.85143 0
M  V30 7559 H 704.026 7.02125 3.22863 0
M  V30 7560 H 702.371 6.31149 2.90991 0
M  V30 7561 H 705.562 4.12134 2.21952 0
M  V30 7562 H 705.735 5.82072 2.84774 0
M  V30 7563 N 699.141 -0.881989 1.30609 0
M  V30 7564 C 700.371 -1.66469 1.22359 0
M  V30 7565 C 700.779 -1.87969 -0.215507 0
M  V30 7566 O 700.122 -1.42938 -1.15388 0
M  V30 7567 C 700.184 -3.06135 1.88472 0
M  V30 7568 C 699.848 -3.07795 3.37804 0
M  V30 7569 C 700.845 -2.86633 4.33749 0
M  V30 7570 C 698.53 -3.29297 3.793 0
M  V30 7571 C 700.524 -2.86934 5.69164 0
M  V30 7572 C 698.211 -3.29228 5.14832 0
M  V30 7573 C 699.209 -3.08071 6.09574 0
M  V30 7574 O 698.897 -3.07824 7.4263 0
M  V30 7575 H 698.629 -0.526129 0.424458 0
M  V30 7576 H 701.183 -1.11004 1.72821 0
M  V30 7577 H 699.413 -3.63276 1.32543 0
M  V30 7578 H 701.102 -3.66571 1.74301 0
M  V30 7579 H 701.868 -2.69814 4.0302 0
M  V30 7580 H 697.747 -3.44799 3.05998 0
M  V30 7581 H 701.291 -2.70339 6.43088 0
M  V30 7582 H 697.188 -3.45583 5.452 0
M  V30 7583 H 697.956 -3.2397 7.51656 0
M  V30 7584 N 700.619 -1.13374 -1.09472 0
M  V30 7585 C 701.865 -0.896516 -1.81908 0
M  V30 7586 C 702.198 0.575933 -1.85463 0
M  V30 7587 O 701.473 1.42618 -1.32251 0
M  V30 7588 C 701.756 -1.48445 -3.28079 0
M  V30 7589 C 701.609 -3.02598 -3.32798 0
M  V30 7590 C 702.928 -1.15226 -4.24748 0
M  V30 7591 H 700.047 -0.327127 -0.660422 0
M  V30 7592 H 702.689 -1.40195 -1.2824 0
M  V30 7593 H 700.839 -1.0546 -3.73912 0
M  V30 7594 H 702.511 -3.54335 -2.95372 0
M  V30 7595 H 700.754 -3.37613 -2.72397 0
M  V30 7596 H 701.425 -3.38835 -4.3577 0
M  V30 7597 H 703.901 -1.52369 -3.87199 0
M  V30 7598 H 702.777 -1.59012 -5.25363 0
M  V30 7599 H 703.038 -0.0658891 -4.42051 0
M  V30 7600 N 702.098 1.27442 -0.927168 0
M  V30 7601 C 703.008 2.30599 -0.431448 0
M  V30 7602 C 704.024 1.67028 0.48761 0
M  V30 7603 O 705.2 1.97962 0.370546 0
M  V30 7604 C 702.265 3.45327 0.308292 0
M  V30 7605 C 701.326 4.24418 -0.645615 0
M  V30 7606 C 700.559 5.33667 0.0589164 0
M  V30 7607 O 700.782 5.5589 1.27838 0
M  V30 7608 O 699.716 5.98774 -0.612638 0
M  V30 7609 H 703.542 2.75036 -1.28797 0
M  V30 7610 H 701.127 1.32382 -0.692495 0
M  V30 7611 H 703.009 4.15107 0.725555 0
M  V30 7612 H 701.684 3.02945 1.14043 0
M  V30 7613 H 700.591 3.57174 -1.11255 0
M  V30 7614 H 701.924 4.70512 -1.44496 0
M  V30 7615 N 703.576 0.692616 1.41565 0
M  V30 7616 C 704.824 0.221896 2.00878 0
M  V30 7617 C 705.145 -1.18164 1.5512 0
M  V30 7618 O 704.415 -1.79679 0.78054 0
M  V30 7619 H 702.995 0.0790463 0.742806 0
M  V30 7620 H 705.657 0.893115 1.73232 0
M  V30 7621 H 704.753 0.23702 3.11199 0
M  V30 7622 N 705.054 -1.51416 0.437162 0
M  V30 7623 C 706.303 -2.01275 -0.130865 0
M  V30 7624 C 706.616 -1.32593 -1.438 0
M  V30 7625 O 707.822 -1.7342 -2.08897 0
M  V30 7626 C 706.278 -3.5878 -0.283763 0
M  V30 7627 C 705.886 -4.36399 1.01293 0
M  V30 7628 C 707.63 -4.16786 -0.805569 0
M  V30 7629 C 705.537 -5.85608 0.825687 0
M  V30 7630 H 704.467 -0.752157 -0.0526818 0
M  V30 7631 H 707.118 -1.74524 0.566896 0
M  V30 7632 H 705.5 -3.81976 -1.04452 0
M  V30 7633 H 706.674 -4.24948 1.78201 0
M  V30 7634 H 704.989 -3.89843 1.46326 0
M  V30 7635 H 707.586 -5.25972 -0.962146 0
M  V30 7636 H 707.929 -3.75949 -1.78796 0
M  V30 7637 H 708.462 -3.97666 -0.103125 0
M  V30 7638 H 705.201 -6.30857 1.78045 0
M  V30 7639 H 704.721 -5.99723 0.0964029 0
M  V30 7640 H 706.4 -6.45226 0.478815 0
M  V30 7641 N 706.532 -0.168513 -1.56696 0
M  V30 7642 C 707.778 0.477865 -1.9709 0
M  V30 7643 C 708.111 1.63084 -1.05438 0
M  V30 7644 O 707.386 1.94238 -0.10095 0
M  V30 7645 C 707.669 0.963521 -3.4697 0
M  V30 7646 C 707.522 -0.189443 -4.49401 0
M  V30 7647 C 708.841 1.83813 -3.99876 0
M  V30 7648 H 705.96 0.172229 -0.716593 0
M  V30 7649 H 708.602 -0.254083 -1.88293 0
M  V30 7650 H 706.752 1.58724 -3.54597 0
M  V30 7651 H 708.424 -0.826451 -4.53836 0
M  V30 7652 H 706.667 -0.845366 -4.25483 0
M  V30 7653 H 707.338 0.192446 -5.51664 0
M  V30 7654 H 709.814 1.31235 -3.94863 0
M  V30 7655 H 708.69 2.14697 -5.0517 0
M  V30 7656 H 708.951 2.78289 -3.43523 0
M  V30 7657 N 708.01 1.57248 0.105221 0
M  V30 7658 C 709.235 1.90143 0.828264 0
M  V30 7659 C 709.66 0.761811 1.71983 0
M  V30 7660 O 709.018 -0.287086 1.79013 0
M  V30 7661 C 709.066 3.21856 1.62608 0
M  V30 7662 O 708.17 3.08732 2.7342 0
M  V30 7663 H 707.511 0.623558 0.228192 0
M  V30 7664 H 710.041 2.0443 0.0834826 0
M  V30 7665 H 710.051 3.54916 2.01243 0
M  V30 7666 H 708.726 4.0439 0.971687 0
M  V30 7667 H 707.303 2.87167 2.37886 0
M  V30 7668 N 709.488 -0.375779 1.53054 0
M  V30 7669 C 710.418 -1.46598 1.81745 0
M  V30 7670 C 711.399 -1.56337 0.670286 0
M  V30 7671 O 712.584 -1.71071 0.919158 0
M  V30 7672 C 709.714 -2.84058 1.99821 0
M  V30 7673 C 708.668 -2.8915 3.15557 0
M  V30 7674 C 707.994 -4.29187 3.18908 0
M  V30 7675 C 709.294 -2.57595 4.54359 0
M  V30 7676 H 710.988 -1.22837 2.73041 0
M  V30 7677 H 708.534 -0.589485 1.31381 0
M  V30 7678 H 710.487 -3.60342 2.18475 0
M  V30 7679 H 709.211 -3.09184 1.05226 0
M  V30 7680 H 707.87 -2.15316 2.96706 0
M  V30 7681 H 707.518 -4.51374 2.2197 0
M  V30 7682 H 707.218 -4.33512 3.96662 0
M  V30 7683 H 708.742 -5.07359 3.39734 0
M  V30 7684 H 710.156 -3.23595 4.73243 0
M  V30 7685 H 708.553 -2.73252 5.34279 0
M  V30 7686 H 709.623 -1.52882 4.60169 0
M  V30 7687 N 710.966 -1.44241 -0.634997 0
M  V30 7688 C 711.916 -1.47247 -1.74076 0
M  V30 7689 C 712.9 -0.338708 -1.57295 0
M  V30 7690 O 714.092 -0.583751 -1.67097 0
M  V30 7691 C 711.221 -1.41579 -3.12746 0
M  V30 7692 C 710.307 -2.60055 -3.35011 0
M  V30 7693 N 710.698 -3.85321 -3.27661 0
M  V30 7694 C 708.996 -2.55168 -3.65794 0
M  V30 7695 C 709.697 -4.64241 -3.50508 0
M  V30 7696 N 708.673 -3.95254 -3.73196 0
M  V30 7697 H 712.475 -2.4195 -1.66845 0
M  V30 7698 H 709.989 -1.3915 -0.837326 0
M  V30 7699 H 711.986 -1.41816 -3.92038 0
M  V30 7700 H 710.646 -0.479108 -3.21146 0
M  V30 7701 H 711.657 -4.17345 -3.06665 0
M  V30 7702 H 708.334 -1.70276 -3.81198 0
M  V30 7703 H 709.724 -5.73267 -3.50449 0
M  V30 7704 N 712.444 0.87505 -1.31075 0
M  V30 7705 C 713.674 1.65818 -1.2324 0
M  V30 7706 C 714.082 1.8808 0.205536 0
M  V30 7707 O 713.425 1.43548 1.14628 0
M  V30 7708 C 713.487 3.05131 -1.90093 0
M  V30 7709 C 713.151 3.05999 -3.39432 0
M  V30 7710 C 714.148 2.84328 -4.35263 0
M  V30 7711 C 711.833 3.27281 -3.81041 0
M  V30 7712 C 713.827 2.83912 -5.70678 0
M  V30 7713 C 711.514 3.26493 -5.16571 0
M  V30 7714 C 712.512 3.04834 -6.112 0
M  V30 7715 O 712.2 3.03882 -7.44252 0
M  V30 7716 H 711.932 0.52387 -0.427242 0
M  V30 7717 H 714.486 1.10086 -1.73408 0
M  V30 7718 H 712.716 3.62568 -1.34468 0
M  V30 7719 H 714.405 3.65641 -1.76242 0
M  V30 7720 H 715.171 2.67673 -4.04445 0
M  V30 7721 H 711.05 3.43171 -3.07822 0
M  V30 7722 H 714.594 2.66925 -6.44513 0
M  V30 7723 H 710.491 3.42687 -5.47025 0
M  V30 7724 H 711.259 3.19979 -7.53363 0
M  V30 7725 N 713.922 1.13953 1.08869 0
M  V30 7726 C 714.869 0.82213 2.15661 0
M  V30 7727 C 715.839 -0.218274 1.6466 0
M  V30 7728 O 717.024 -0.0892475 1.90591 0
M  V30 7729 C 714.164 0.300572 3.43789 0
M  V30 7730 C 713.277 1.40071 4.08661 0
M  V30 7731 C 712.412 0.836897 5.24566 0
M  V30 7732 C 711.451 1.91504 5.81371 0
M  V30 7733 N 710.588 1.36875 6.88629 0
M  V30 7734 H 715.428 1.73683 2.42153 0
M  V30 7735 H 712.965 0.866879 1.18843 0
M  V30 7736 H 714.923 -0.0199943 4.17195 0
M  V30 7737 H 713.553 -0.577248 3.17597 0
M  V30 7738 H 712.605 1.83776 3.33062 0
M  V30 7739 H 713.917 2.21534 4.46905 0
M  V30 7740 H 713.071 0.467953 6.04893 0
M  V30 7741 H 711.81 -0.00874207 4.87699 0
M  V30 7742 H 710.815 2.29299 4.99702 0
M  V30 7743 H 712.04 2.76419 6.20298 0
M  V30 7744 H 709.986 0.545211 6.5373 0
M  V30 7745 H 709.903 2.1198 7.25672 0
M  V30 7746 H 711.171 1.02756 7.72698 0
M  V30 7747 N 715.4 -1.26948 0.933913 0
M  V30 7748 C 716.628 -1.98186 0.59414 0
M  V30 7749 C 717.043 -1.69614 -0.829257 0
M  V30 7750 O 716.4 -0.960213 -1.55197 0
M  V30 7751 C 716.451 -3.52123 0.818026 0
M  V30 7752 O 716.172 -3.79698 2.18543 0
M  V30 7753 C 717.673 -4.40608 0.48781 0
M  V30 7754 H 714.893 -0.632305 0.224569 0
M  V30 7755 H 717.437 -1.61646 1.25263 0
M  V30 7756 H 715.592 -3.86851 0.206246 0
M  V30 7757 H 716.006 -4.7426 2.24005 0
M  V30 7758 H 717.48 -5.47606 0.695126 0
M  V30 7759 H 717.957 -4.35394 -0.576913 0
M  V30 7760 H 718.563 -4.11411 1.078 0
M  V30 7761 N 716.879 -0.700114 -1.41195 0
M  V30 7762 C 718.156 -0.160836 -1.94938 0
M  V30 7763 C 718.536 1.33014 -1.63922 0
M  V30 7764 O 717.884 2.07878 -0.948636 0
M  V30 7765 C 718.094 -0.456991 -3.45995 0
M  V30 7766 C 719.442 -0.387207 -4.22831 0
M  V30 7767 O 720.466 -0.392164 -3.54035 0
M  V30 7768 O 719.325 -0.351267 -5.4537 0
M  V30 7769 H 716.419 -0.0176304 -0.826812 0
M  V30 7770 H 718.965 -0.776586 -1.50888 0
M  V30 7771 H 717.737 -1.48884 -3.61869 0
M  V30 7772 H 717.36 0.189503 -3.97148 0
M  V30 7773 N 718.357 1.51182 -0.445186 0
M  V30 7774 C 719.603 2.02452 0.11882 0
M  V30 7775 C 719.936 1.32824 1.41673 0
M  V30 7776 O 719.211 0.445637 1.89326 0
M  V30 7777 C 719.494 3.5859 0.329475 0
M  V30 7778 C 719.347 4.38823 -0.987638 0
M  V30 7779 C 720.666 4.26241 1.09575 0
M  V30 7780 H 717.785 0.735819 0.0417092 0
M  V30 7781 H 720.427 1.80747 -0.585718 0
M  V30 7782 H 718.577 3.77214 0.9296 0
M  V30 7783 H 720.249 4.3183 -1.62235 0
M  V30 7784 H 718.492 4.03594 -1.59041 0
M  V30 7785 H 719.163 5.46257 -0.794192 0
M  V30 7786 H 721.639 4.11934 0.587328 0
M  V30 7787 H 720.515 5.35354 1.21191 0
M  V30 7788 H 720.776 3.87635 2.12584 0
M  V30 7789 N 719.835 0.176821 1.56605 0
M  V30 7790 C 720.798 -0.737429 2.17013 0
M  V30 7791 C 721.798 -1.15414 1.11965 0
M  V30 7792 O 722.988 -1.0702 1.37449 0
M  V30 7793 C 720.12 -2.00445 2.75744 0
M  V30 7794 H 721.313 -0.211455 2.99154 0
M  V30 7795 H 718.866 -0.0727582 1.56131 0
M  V30 7796 H 719.601 -2.57338 1.97352 0
M  V30 7797 H 719.386 -1.71456 3.52626 0
M  V30 7798 H 720.876 -2.65679 3.22187 0
M  V30 7799 N 721.313 -1.57302 -0.09688 0
M  V30 7800 C 722.559 -1.86273 -0.801885 0
M  V30 7801 C 722.892 -0.765694 -1.78468 0
M  V30 7802 O 722.167 0.226495 -1.93177 0
M  V30 7803 C 722.45 -3.25876 -1.53221 0
M  V30 7804 C 722.303 -4.46205 -0.567529 0
M  V30 7805 C 723.622 -3.63352 -2.48321 0
M  V30 7806 H 720.741 -0.67752 -0.29006 0
M  V30 7807 H 723.383 -1.89887 -0.0655577 0
M  V30 7808 H 721.533 -3.22926 -2.15988 0
M  V30 7809 H 723.205 -4.6127 0.0529982 0
M  V30 7810 H 721.448 -4.33636 0.119233 0
M  V30 7811 H 722.119 -5.40608 -1.11564 0
M  V30 7812 H 724.595 -3.67234 -1.95648 0
M  V30 7813 H 723.471 -4.61968 -2.9644 0
M  V30 7814 H 723.732 -2.91941 -3.31998 0
M  V30 7815 N 722.791 0.367657 -1.53252 0
M  V30 7816 C 723.738 1.45028 -1.79543 0
M  V30 7817 C 724.708 1.53288 -0.63969 0
M  V30 7818 O 725.893 1.69209 -0.881653 0
M  V30 7819 C 723.033 2.82 -1.98923 0
M  V30 7820 C 722.146 2.82722 -3.26638 0
M  V30 7821 C 721.281 4.11257 -3.36216 0
M  V30 7822 C 720.32 4.06113 -4.57972 0
M  V30 7823 N 719.457 5.26293 -4.64715 0
M  V30 7824 H 724.297 1.21908 -2.71923 0
M  V30 7825 H 721.834 0.591011 -1.34705 0
M  V30 7826 H 723.792 3.61568 -2.08146 0
M  V30 7827 H 722.422 3.03523 -1.09881 0
M  V30 7828 H 721.474 1.95399 -3.26379 0
M  V30 7829 H 722.786 2.74794 -4.16281 0
M  V30 7830 H 721.94 4.99239 -3.44739 0
M  V30 7831 H 720.679 4.21935 -2.44586 0
M  V30 7832 H 719.684 3.16517 -4.49552 0
M  V30 7833 H 720.909 3.97039 -5.50942 0
M  V30 7834 H 718.855 5.37561 -3.75985 0
M  V30 7835 H 718.772 5.20526 -5.4826 0
M  V30 7836 H 720.04 6.16113 -4.77519 0
M  V30 7837 N 724.269 1.44576 0.627338 0
M  V30 7838 C 725.546 1.38033 1.38586 0
M  V30 7839 C 725.926 0.0409468 2.1106 0
M  V30 7840 O 725.274 -0.976582 2.0658 0
M  V30 7841 C 725.484 2.58102 2.34913 0
M  V30 7842 C 726.832 3.02332 2.98129 0
M  V30 7843 O 727.856 2.58334 2.45238 0
M  V30 7844 O 726.715 3.78628 3.94085 0
M  V30 7845 H 723.809 0.546801 0.620434 0
M  V30 7846 H 726.355 1.56672 0.652077 0
M  V30 7847 H 725.127 3.4719 1.80485 0
M  V30 7848 H 724.75 2.41696 3.15703 0
M  V30 7849 N 725.747 -0.868086 1.31537 0
M  V30 7850 C 727.024 -1.60384 1.11965 0
M  V30 7851 C 727.404 -2.08584 -0.324949 0
M  V30 7852 O 726.752 -1.86561 -1.31937 0
M  V30 7853 C 726.962 -2.76038 2.13551 0
M  V30 7854 C 728.31 -3.45954 2.46173 0
M  V30 7855 O 729.334 -2.86247 2.11993 0
M  V30 7856 O 728.193 -4.53666 3.04711 0
M  V30 7857 H 725.287 -0.705705 0.431172 0
M  V30 7858 H 727.833 -0.913385 1.43022 0
M  V30 7859 H 726.605 -2.37849 3.10714 0
M  V30 7860 H 726.228 -3.52769 1.83411 0
M  V30 7861 N 727.225 -1.14528 -1.08264 0
M  V30 7862 C 728.636 -0.925261 -1.6216 0
M  V30 7863 C 728.987 0.535587 -1.88748 0
M  V30 7864 O 728.112 1.4048 -1.64604 0
M  V30 7865 C 728.707 -1.67316 -2.94603 0
M  V30 7866 C 727.266 -1.49868 -3.45278 0
M  V30 7867 C 726.413 -1.69471 -2.19487 0
M  V30 7868 H 729.364 -1.29687 -0.914707 0
M  V30 7869 H 729.385 -1.13721 -3.63109 0
M  V30 7870 H 728.897 -2.73635 -2.75219 0
M  V30 7871 H 726.998 -0.459032 -3.69762 0
M  V30 7872 H 727.111 -2.2696 -4.21931 0
M  V30 7873 H 725.475 -1.12048 -2.2873 0
M  V30 7874 H 726.258 -2.77136 -2.0261 0
M  V30 7875 N 728.703 1.26451 -0.940633 0
M  V30 7876 C 729.613 2.30128 -0.455881 0
M  V30 7877 C 730.629 1.67536 0.469867 0
M  V30 7878 O 731.805 1.98344 0.349529 0
M  V30 7879 C 728.87 3.45634 0.271648 0
M  V30 7880 C 727.931 4.23709 -0.690594 0
M  V30 7881 C 727.164 5.337 0.00231047 0
M  V30 7882 O 727.387 5.57215 1.21935 0
M  V30 7883 O 726.321 5.98091 -0.676111 0
M  V30 7884 H 730.147 2.73655 -1.31707 0
M  V30 7885 H 727.732 1.3164 -0.706497 0
M  V30 7886 H 729.614 4.15853 0.681486 0
M  V30 7887 H 728.289 3.04138 1.10824 0
M  V30 7888 H 727.196 3.55974 -1.15037 0
M  V30 7889 H 728.529 4.68953 -1.49478 0
M  V30 7890 N 730.181 0.707592 1.40822 0
M  V30 7891 C 731.111 0.0644925 2.33411 0
M  V30 7892 C 732.092 -0.754205 1.52466 0
M  V30 7893 O 733.277 -0.704749 1.80961 0
M  V30 7894 C 730.407 -0.863865 3.36385 0
M  V30 7895 C 729.361 -0.15138 4.27732 0
M  V30 7896 C 728.687 -1.19491 5.21177 0
M  V30 7897 C 729.987 0.989607 5.12839 0
M  V30 7898 H 731.681 0.837829 2.87438 0
M  V30 7899 H 729.227 0.404346 1.38207 0
M  V30 7900 H 731.18 -1.32309 4.0009 0
M  V30 7901 H 729.904 -1.66901 2.80734 0
M  V30 7902 H 728.563 0.287937 3.65467 0
M  V30 7903 H 728.211 -1.9929 4.61836 0
M  V30 7904 H 727.911 -0.723123 5.83134 0
M  V30 7905 H 729.435 -1.6544 5.8776 0
M  V30 7906 H 730.849 0.610114 5.70044 0
M  V30 7907 H 729.246 1.38926 5.83798 0
M  V30 7908 H 730.316 1.82389 4.49291 0
M  V30 7909 N 731.66 -1.50943 0.453197 0
M  V30 7910 C 732.592 -2.25922 -0.38623 0
M  V30 7911 C 733.605 -1.3055 -0.972652 0
M  V30 7912 O 734.794 -1.56191 -0.864097 0
M  V30 7913 C 731.894 -3.01176 -1.5539 0
M  V30 7914 C 731.067 -4.23768 -1.0835 0
M  V30 7915 C 730.126 -4.81466 -2.12313 0
M  V30 7916 O 729.152 -5.42875 -1.71101 0
M  V30 7917 N 730.354 -4.66889 -3.44956 0
M  V30 7918 H 733.119 -2.98601 0.256468 0
M  V30 7919 H 730.68 -1.59408 0.282965 0
M  V30 7920 H 732.672 -3.36659 -2.24594 0
M  V30 7921 H 731.242 -2.31409 -2.10163 0
M  V30 7922 H 730.462 -3.93597 -0.217961 0
M  V30 7923 H 731.75 -5.03289 -0.746857 0
M  V30 7924 H 731.148 -4.18011 -3.81161 0
M  V30 7925 H 729.705 -5.06691 -4.1001 0
M  V30 7926 N 733.138 -0.185124 -1.56509 0
M  V30 7927 C 734.366 0.462139 -2.01673 0
M  V30 7928 C 734.781 1.55873 -1.06532 0
M  V30 7929 O 734.138 1.82371 -0.0684805 0
M  V30 7930 C 734.189 1.0277 -3.46584 0
M  V30 7931 O 733.91 -0.0251296 -4.38093 0
M  V30 7932 C 735.411 1.75183 -4.07217 0
M  V30 7933 H 732.631 0.117001 -0.660721 0
M  V30 7934 H 735.175 -0.290905 -2.0242 0
M  V30 7935 H 733.33 1.73118 -3.46568 0
M  V30 7936 H 733.744 0.394387 -5.23015 0
M  V30 7937 H 735.218 2.09999 -5.10494 0
M  V30 7938 H 735.695 2.6519 -3.50101 0
M  V30 7939 H 736.301 1.09445 -4.10977 0
M  V30 7940 N 734.616 1.57351 0.0885366 0
M  V30 7941 C 735.862 1.87564 0.786842 0
M  V30 7942 C 736.217 0.776774 1.76023 0
M  V30 7943 O 735.51 -0.220637 1.90325 0
M  V30 7944 C 735.704 3.22098 1.5488 0
M  V30 7945 C 735.533 4.44967 0.650706 0
M  V30 7946 C 734.303 5.04444 0.293957 0
M  V30 7947 C 736.501 5.1428 -0.0452187 0
M  V30 7948 N 734.483 6.10846 -0.611609 0
M  V30 7949 C 735.854 6.14704 -0.808603 0
M  V30 7950 C 737.909 4.97759 -0.118451 0
M  V30 7951 C 736.612 7.00392 -1.63839 0
M  V30 7952 C 738.638 5.8396 -0.935157 0
M  V30 7953 C 738 6.83909 -1.68664 0
M  V30 7954 H 734.099 0.73613 0.263887 0
M  V30 7955 H 736.683 1.94638 0.049074 0
M  V30 7956 H 734.854 3.16064 2.2574 0
M  V30 7957 H 736.586 3.40015 2.19481 0
M  V30 7958 H 733.341 4.69214 0.643086 0
M  V30 7959 H 733.765 6.68695 -1.05714 0
M  V30 7960 H 738.407 4.20418 0.448202 0
M  V30 7961 H 736.125 7.7712 -2.21608 0
M  V30 7962 H 739.711 5.73236 -0.994579 0
M  V30 7963 H 738.591 7.49454 -2.30842 0
M  V30 7964 N 736.094 -0.359525 1.53444 0
M  V30 7965 C 737.334 -1.11014 1.71625 0
M  V30 7966 C 737.698 -1.86376 0.46132 0
M  V30 7967 O 738.899 -2.63724 0.519908 0
M  V30 7968 C 737.17 -2.03907 2.93524 0
M  V30 7969 S 738.729 -2.86408 3.3244 0
M  V30 7970 H 735.547 -0.375352 0.603847 0
M  V30 7971 H 738.149 -0.390604 1.91558 0
M  V30 7972 H 736.853 -1.47316 3.83048 0
M  V30 7973 H 736.384 -2.80324 2.76011 0
M  V30 7974 H 738.399 -4.06241 2.84926 0
M  V30 7975 N 737.572 -1.44907 -0.619662 0
M  V30 7976 C 738.988 -1.29046 -0.939107 0
M  V30 7977 C 739.188 -0.23462 -2.00129 0
M  V30 7978 O 738.244 0.37558 -2.49691 0
M  V30 7979 C 739.557 -2.66567 -1.39149 0
M  V30 7980 C 741.105 -2.74368 -1.50635 0
M  V30 7981 C 741.58 -4.12386 -1.99253 0
M  V30 7982 N 743.071 -4.1462 -2.06506 0
M  V30 7983 C 743.806 -5.18272 -2.4532 0
M  V30 7984 N 743.302 -6.32278 -2.83189 0
M  V30 7985 N 745.095 -5.05628 -2.45554 0
M  V30 7986 H 737.246 -2.12239 0.0826135 0
M  V30 7987 H 739.509 -0.947652 -0.0256829 0
M  V30 7988 H 739.215 -3.4496 -0.685254 0
M  V30 7989 H 739.089 -2.94224 -2.36034 0
M  V30 7990 H 741.476 -1.96287 -2.20353 0
M  V30 7991 H 741.557 -2.50439 -0.520963 0
M  V30 7992 H 741.201 -4.90947 -1.30127 0
M  V30 7993 H 741.131 -4.33699 -2.98684 0
M  V30 7994 H 743.622 -3.32343 -1.79878 0
M  V30 7995 H 743.935 -7.07172 -3.11652 0
M  V30 7996 H 742.28 -6.35699 -2.80913 0
M  V30 7997 H 745.471 -4.15613 -2.15367 0
M  V30 7998 H 745.644 -5.86529 -2.75478 0
M  V30 7999 N 739.05 0.861098 -1.31996 0
M  V30 8000 C 739.96 2.00154 -1.22374 0
M  V30 8001 C 740.976 1.73447 -0.138631 0
M  V30 8002 O 742.152 1.98191 -0.358104 0
M  V30 8003 C 739.217 3.33696 -0.940645 0
M  V30 8004 C 738.278 3.73668 -2.11355 0
M  V30 8005 C 737.511 5.00837 -1.84386 0
M  V30 8006 O 737.734 5.64996 -0.783287 0
M  V30 8007 O 736.668 5.37787 -2.70313 0
M  V30 8008 H 740.494 2.11207 -2.18233 0
M  V30 8009 H 738.079 0.990768 -1.11822 0
M  V30 8010 H 739.961 4.13756 -0.798987 0
M  V30 8011 H 738.636 3.23698 -0.0121636 0
M  V30 8012 H 737.543 2.94211 -2.31065 0
M  V30 8013 H 738.876 3.88303 -3.02459 0
M  V30 8014 N 740.528 1.15101 1.07655 0
M  V30 8015 C 741.777 0.918528 1.79572 0
M  V30 8016 C 742.09 -0.555922 1.87534 0
M  V30 8017 O 743.296 -0.905893 2.55941 0
M  V30 8018 C 741.752 1.59394 3.22679 0
M  V30 8019 C 741.36 3.1052 3.22927 0
M  V30 8020 C 743.104 1.44289 3.99225 0
M  V30 8021 C 741.011 3.70862 4.60668 0
M  V30 8022 H 739.941 0.340006 0.672987 0
M  V30 8023 H 742.592 1.38079 1.20857 0
M  V30 8024 H 740.974 1.05936 3.81567 0
M  V30 8025 H 742.148 3.70708 2.737 0
M  V30 8026 H 740.463 3.25351 2.59876 0
M  V30 8027 H 743.06 1.86766 5.01022 0
M  V30 8028 H 743.403 0.389975 4.14469 0
M  V30 8029 H 743.936 1.94826 3.46825 0
M  V30 8030 H 740.675 4.7604 4.50628 0
M  V30 8031 H 740.195 3.15456 5.10145 0
M  V30 8032 H 741.874 3.71607 5.29639 0
M  V30 8033 N 742.006 -1.2595 0.947325 0
M  V30 8034 C 743.234 -1.97544 0.615127 0
M  V30 8035 C 743.649 -1.70484 -0.811221 0
M  V30 8036 O 743.006 -0.97662 -1.5417 0
M  V30 8037 C 743.057 -3.51236 0.855328 0
M  V30 8038 O 742.778 -3.77359 2.22558 0
M  V30 8039 C 744.279 -4.40066 0.534515 0
M  V30 8040 H 741.499 -0.629888 0.231263 0
M  V30 8041 H 744.043 -1.60308 1.26971 0
M  V30 8042 H 742.198 -3.8661 0.247266 0
M  V30 8043 H 742.612 -4.71857 2.29022 0
M  V30 8044 H 744.086 -5.46838 0.753168 0
M  V30 8045 H 744.563 -4.35982 -0.530701 0
M  V30 8046 H 745.169 -4.10245 1.12158 0
M  V30 8047 N 743.484 -0.715051 -1.40445 0
M  V30 8048 C 744.394 -0.0631624 -2.34515 0
M  V30 8049 C 745.41 0.744397 -1.57273 0
M  V30 8050 O 746.586 0.677475 -1.89663 0
M  V30 8051 C 743.651 0.847915 -3.36172 0
M  V30 8052 C 742.712 0.0303655 -4.29289 0
M  V30 8053 C 741.945 0.898051 -5.2609 0
M  V30 8054 O 742.168 2.13729 -5.28844 0
M  V30 8055 O 741.102 0.337328 -6.00954 0
M  V30 8056 H 744.928 -0.839078 -2.91879 0
M  V30 8057 H 742.513 -0.475527 -1.4163 0
M  V30 8058 H 744.395 1.3698 -3.98515 0
M  V30 8059 H 743.07 1.60299 -2.81222 0
M  V30 8060 H 741.977 -0.536573 -3.70232 0
M  V30 8061 H 743.31 -0.686474 -4.87389 0
M  V30 8062 N 744.962 1.50701 -0.461195 0
M  V30 8063 C 746.211 2.01458 0.0988277 0
M  V30 8064 C 746.524 1.34863 1.41673 0
M  V30 8065 O 747.73 1.76721 2.06111 0
M  V30 8066 C 746.186 3.59186 0.226648 0
M  V30 8067 C 745.794 4.34732 -1.08223 0
M  V30 8068 C 747.538 4.18015 0.73916 0
M  V30 8069 C 745.445 5.8422 -0.918747 0
M  V30 8070 H 744.375 0.7529 0.040709 0
M  V30 8071 H 747.026 1.736 -0.594589 0
M  V30 8072 H 745.408 3.83589 0.983621 0
M  V30 8073 H 746.582 4.22059 -1.84939 0
M  V30 8074 H 744.897 3.87466 -1.52509 0
M  V30 8075 H 747.494 5.27436 0.878347 0
M  V30 8076 H 747.837 3.78746 1.72793 0
M  V30 8077 H 748.37 3.9778 0.0398469 0
M  V30 8078 H 745.109 6.27944 -1.88059 0
M  V30 8079 H 744.629 5.99493 -0.191801 0
M  V30 8080 H 746.308 6.44382 -0.581405 0
M  V30 8081 N 746.441 0.193421 1.56409 0
M  V30 8082 C 747.689 -0.444908 1.97142 0
M  V30 8083 C 748.01 -1.62268 1.08139 0
M  V30 8084 O 747.28 -1.95307 0.152326 0
M  V30 8085 H 745.86 -0.16736 0.728011 0
M  V30 8086 H 748.522 0.279763 1.92882 0
M  V30 8087 H 747.618 -0.790159 3.01932 0
M  V30 8088 N 747.919 -1.57396 -0.0801906 0
M  V30 8089 C 748.849 -2.06145 -1.09665 0
M  V30 8090 C 749.83 -0.953273 -1.40878 0
M  V30 8091 O 751.015 -1.22548 -1.50651 0
M  V30 8092 C 748.145 -2.49836 -2.41245 0
M  V30 8093 C 747.099 -3.64454 -2.24405 0
M  V30 8094 C 746.425 -3.94172 -3.61293 0
M  V30 8095 C 747.725 -4.94807 -1.67223 0
M  V30 8096 H 749.419 -2.91316 -0.691028 0
M  V30 8097 H 746.965 -1.40145 -0.330957 0
M  V30 8098 H 748.918 -2.82552 -3.12638 0
M  V30 8099 H 747.642 -1.61683 -2.83771 0
M  V30 8100 H 746.301 -3.32008 -1.55454 0
M  V30 8101 H 745.949 -3.03163 -4.01374 0
M  V30 8102 H 745.649 -4.71345 -3.50867 0
M  V30 8103 H 747.173 -4.29376 -4.3413 0
M  V30 8104 H 748.587 -5.25807 -2.28472 0
M  V30 8105 H 746.984 -5.76245 -1.67515 0
M  V30 8106 H 748.054 -4.80751 -0.632944 0
M  V30 8107 N 749.397 0.351382 -1.53633 0
M  V30 8108 C 750.329 1.45159 -1.77374 0
M  V30 8109 C 751.342 1.4905 -0.654826 0
M  V30 8110 O 752.531 1.52274 -0.931396 0
M  V30 8111 C 749.631 2.83858 -1.85143 0
M  V30 8112 C 748.804 3.03498 -3.14972 0
M  V30 8113 C 747.863 4.22393 -3.138 0
M  V30 8114 O 746.889 4.16885 -3.87551 0
M  V30 8115 N 748.091 5.30533 -2.35617 0
M  V30 8116 H 750.856 1.25167 -2.72311 0
M  V30 8117 H 748.417 0.54121 -1.52586 0
M  V30 8118 H 750.409 3.61557 -1.8182 0
M  V30 8119 H 748.979 2.9703 -0.974275 0
M  V30 8120 H 748.199 2.13336 -3.31484 0
M  V30 8121 H 749.487 3.13498 -4.00745 0
M  V30 8122 H 748.885 5.37875 -1.75235 0
M  V30 8123 H 747.442 6.06756 -2.38098 0
M  V30 8124 N 750.875 1.45233 0.611969 0
M  V30 8125 C 752.123 1.48727 1.36838 0
M  V30 8126 C 752.444 0.128616 1.94575 0
M  V30 8127 O 751.714 -0.84149 1.76906 0
M  V30 8128 H 750.294 0.547695 0.507976 0
M  V30 8129 H 752.956 1.81156 0.718925 0
M  V30 8130 H 752.052 2.2236 2.19003 0
M  V30 8131 N 752.353 -0.854086 1.3245 0
M  V30 8132 C 753.316 -1.94427 1.21371 0
M  V30 8133 C 754.316 -1.60219 0.136613 0
M  V30 8134 O 755.506 -1.69846 0.387057 0
M  V30 8135 C 752.638 -3.29698 0.866701 0
M  V30 8136 H 753.831 -2.05679 2.18257 0
M  V30 8137 H 751.384 -1.04434 1.1629 0
M  V30 8138 H 752.119 -3.24145 -0.100319 0
M  V30 8139 H 751.904 -3.55903 1.64545 0
M  V30 8140 H 753.394 -4.09599 0.813515 0
M  V30 8141 N 753.831 -1.1567 -1.07043 0
M  V30 8142 C 754.763 -0.814095 -2.14255 0
M  V30 8143 C 755.776 0.175293 -1.61854 0
M  V30 8144 O 756.965 -0.0483984 -1.78434 0
M  V30 8145 C 754.065 -0.190082 -3.38367 0
M  V30 8146 C 753.238 -1.21768 -4.20109 0
M  V30 8147 C 752.297 -0.614863 -5.22595 0
M  V30 8148 O 751.323 -1.28167 -5.54583 0
M  V30 8149 N 752.525 0.601955 -5.77371 0
M  V30 8150 H 755.29 -1.73677 -2.44247 0
M  V30 8151 H 752.851 -1.05301 -1.22977 0
M  V30 8152 H 754.843 0.22604 -4.04068 0
M  V30 8153 H 753.413 0.635992 -3.06062 0
M  V30 8154 H 752.633 -1.81025 -3.50177 0
M  V30 8155 H 753.921 -1.9114 -4.71533 0
M  V30 8156 H 753.319 1.162 -5.53637 0
M  V30 8157 H 751.876 0.96039 -6.44686 0
M  V30 8158 N 755.309 1.25446 -0.953992 0
M  V30 8159 C 756.586 1.884 -0.525823 0
M  V30 8160 C 756.966 1.86079 0.996891 0
M  V30 8161 O 756.314 1.32389 1.8624 0
M  V30 8162 C 756.524 3.31154 -1.10172 0
M  V30 8163 C 757.872 4.07926 -1.17819 0
M  V30 8164 O 758.896 3.40273 -1.05323 0
M  V30 8165 O 757.755 5.28942 -1.37415 0
M  V30 8166 H 754.849 0.808629 -0.173345 0
M  V30 8167 H 757.395 1.33522 -1.04738 0
M  V30 8168 H 756.167 3.27271 -2.14499 0
M  V30 8169 H 755.79 3.93588 -0.56338 0
M  V30 8170 N 756.787 0.722489 1.40064 0
M  V30 8171 C 758.203 0.396758 1.5459 0
M  V30 8172 C 758.403 -1.09375 1.69232 0
M  V30 8173 O 757.459 -1.87984 1.68578 0
M  V30 8174 C 758.772 1.16885 2.77053 0
M  V30 8175 C 760.32 1.15583 2.90877 0
M  V30 8176 C 760.795 1.91023 4.16262 0
M  V30 8177 N 762.286 1.88126 4.23276 0
M  V30 8178 C 763.021 2.43315 5.19216 0
M  V30 8179 N 762.517 3.07089 6.21022 0
M  V30 8180 N 764.31 2.33418 5.11344 0
M  V30 8181 H 756.461 1.68887 1.28806 0
M  V30 8182 H 758.724 0.714231 0.62336 0
M  V30 8183 H 758.43 2.22301 2.72534 0
M  V30 8184 H 758.304 0.765011 3.69361 0
M  V30 8185 H 760.691 0.10984 2.94896 0
M  V30 8186 H 760.772 1.59895 1.99668 0
M  V30 8187 H 760.416 2.95616 4.13006 0
M  V30 8188 H 760.346 1.44126 5.06493 0
M  V30 8189 H 762.837 1.41654 3.50346 0
M  V30 8190 H 763.15 3.467 6.90666 0
M  V30 8191 H 761.495 3.11175 6.21446 0
M  V30 8192 H 764.686 1.83248 4.30741 0
M  V30 8193 H 764.859 2.7673 5.85939 0
M  V30 8194 N 758.265 -1.50454 0.469181 0
M  V30 8195 C 759.513 -2.01916 -0.0862982 0
M  V30 8196 C 759.834 -1.35337 -1.40388 0
M  V30 8197 O 759.104 -0.498096 -1.89462 0
M  V30 8198 H 757.684 -0.746185 -0.0348825 0
M  V30 8199 H 760.346 -1.84804 0.619167 0
M  V30 8200 H 759.442 -3.11182 -0.239189 0
M  V30 8201 N 759.743 -0.201713 -1.56304 0
M  V30 8202 C 760.99 0.435307 -1.97766 0
M  V30 8203 C 761.318 1.61169 -1.0888 0
M  V30 8204 O 760.573 1.95272 -0.12934 0
M  V30 8205 C 760.872 0.931432 -3.45049 0
M  V30 8206 C 760.538 -0.132287 -4.50706 0
M  V30 8207 C 759.2 -0.424552 -4.79323 0
M  V30 8208 C 761.552 -0.852703 -5.14177 0
M  V30 8209 C 758.88 -1.4421 -5.68701 0
M  V30 8210 C 761.232 -1.85944 -6.04655 0
M  V30 8211 C 759.896 -2.15884 -6.31625 0
M  V30 8212 H 759.166 0.15929 -0.723676 0
M  V30 8213 H 761.813 -0.300069 -1.89134 0
M  V30 8214 H 760.118 1.7452 -3.50785 0
M  V30 8215 H 761.815 1.43383 -3.74489 0
M  V30 8216 H 758.405 0.105671 -4.2847 0
M  V30 8217 H 762.589 -0.640139 -4.92154 0
M  V30 8218 H 757.845 -1.6799 -5.87869 0
M  V30 8219 H 762.019 -2.42286 -6.52894 0
M  V30 8220 H 759.646 -2.94875 -7.0068 0
M  V30 8221 N 761.222 1.57436 0.0718424 0
M  V30 8222 C 762.633 1.75975 0.623678 0
M  V30 8223 C 762.984 0.827155 1.77912 0
M  V30 8224 O 762.109 0.0112425 2.16397 0
M  V30 8225 C 762.704 3.1911 1.13816 0
M  V30 8226 C 761.263 3.38994 1.63586 0
M  V30 8227 C 760.41 2.71684 0.555261 0
M  V30 8228 H 763.361 1.57948 -0.154328 0
M  V30 8229 H 763.382 3.23267 2.00696 0
M  V30 8230 H 762.894 3.86962 0.296998 0
M  V30 8231 H 760.995 2.76256 2.50027 0
M  V30 8232 H 761.108 4.47436 1.71283 0
M  V30 8233 H 759.472 2.34236 1.00029 0
M  V30 8234 H 760.255 3.42191 -0.275712 0
M  V30 8235 N 762.7 -0.34323 1.53817 0
M  V30 8236 C 763.946 -1.08504 1.71332 0
M  V30 8237 C 764.279 -1.88294 0.475285 0
M  V30 8238 O 763.554 -1.87205 -0.527688 0
M  V30 8239 C 763.837 -2.02597 2.97702 0
M  V30 8240 C 763.69 -1.26268 4.31713 0
M  V30 8241 C 765.009 -3.0241 3.19744 0
M  V30 8242 H 762.128 -0.393072 0.623429 0
M  V30 8243 H 764.77 -0.363579 1.86489 0
M  V30 8244 H 762.92 -2.64118 2.8491 0
M  V30 8245 H 764.592 -0.673594 4.56356 0
M  V30 8246 H 762.835 -0.564696 4.30109 0
M  V30 8247 H 763.506 -1.95253 5.16314 0
M  V30 8248 H 765.982 -2.51004 3.31868 0
M  V30 8249 H 764.858 -3.65449 4.09558 0
M  V30 8250 H 765.119 -3.73806 2.36054 0
M  V30 8251 N 764.178 -1.45556 -0.604258 0
M  V30 8252 C 765.403 -1.53509 -1.39462 0
M  V30 8253 C 765.828 -0.169638 -1.87333 0
M  V30 8254 O 765.186 0.846346 -1.60333 0
M  V30 8255 C 765.234 -2.52654 -2.5729 0
M  V30 8256 O 764.338 -2.04666 -3.5803 0
M  V30 8257 H 763.679 -0.517355 -0.416221 0
M  V30 8258 H 766.209 -1.90939 -0.735072 0
M  V30 8259 H 766.219 -2.71568 -3.04491 0
M  V30 8260 H 764.894 -3.51823 -2.21797 0
M  V30 8261 H 763.471 -1.95643 -3.17456 0
M  V30 8262 N 765.656 0.84705 -1.32902 0
M  V30 8263 C 766.586 1.97166 -1.25091 0
M  V30 8264 C 767.567 1.69578 -0.133161 0
M  V30 8265 O 768.752 1.91519 -0.321591 0
M  V30 8266 C 765.882 3.33157 -0.981006 0
M  V30 8267 C 764.836 3.75119 -2.06082 0
M  V30 8268 C 764.162 5.08826 -1.64318 0
M  V30 8269 C 765.462 3.89774 -3.47669 0
M  V30 8270 H 767.156 2.03958 -2.19184 0
M  V30 8271 H 764.702 0.979907 -1.05517 0
M  V30 8272 H 766.655 4.11393 -0.912891 0
M  V30 8273 H 765.379 3.266 -0.00445559 0
M  V30 8274 H 764.038 2.9914 -2.11921 0
M  V30 8275 H 763.686 4.98732 -0.653876 0
M  V30 8276 H 763.386 5.37873 -2.36572 0
M  V30 8277 H 764.91 5.89546 -1.58958 0
M  V30 8278 H 766.324 4.58343 -3.44376 0
M  V30 8279 H 764.721 4.30248 -4.18338 0
M  V30 8280 H 765.791 2.92463 -3.86773 0
M  V30 8281 N 767.134 1.16236 1.06428 0
M  V30 8282 C 768.066 0.825446 2.1382 0
M  V30 8283 C 769.079 -0.166707 1.61944 0
M  V30 8284 O 770.268 0.0578606 1.78406 0
M  V30 8285 C 767.368 0.208023 3.38261 0
M  V30 8286 C 766.541 1.23994 4.19457 0
M  V30 8287 C 765.6 0.642569 5.22262 0
M  V30 8288 O 764.626 1.31106 5.53895 0
M  V30 8289 N 765.828 -0.571327 5.77682 0
M  V30 8290 H 768.593 1.7497 2.43322 0
M  V30 8291 H 766.154 1.05951 1.22417 0
M  V30 8292 H 768.146 -0.204608 4.04182 0
M  V30 8293 H 766.716 -0.619752 3.06395 0
M  V30 8294 H 765.936 1.82879 3.49212 0
M  V30 8295 H 767.224 1.93638 4.70512 0
M  V30 8296 H 766.622 -1.13263 5.54245 0
M  V30 8297 H 765.179 -0.926187 6.45186 0
M  V30 8298 N 768.612 -1.24939 0.960631 0
M  V30 8299 C 769.575 -2.239 0.49006 0
M  V30 8300 C 770.575 -1.55497 -0.409535 0
M  V30 8301 O 771.765 -1.72978 -0.205984 0
M  V30 8302 C 768.897 -3.39654 -0.291193 0
M  V30 8303 H 770.09 -2.67044 1.36482 0
M  V30 8304 H 767.643 -1.37429 0.744505 0
M  V30 8305 H 768.378 -3.01939 -1.18336 0
M  V30 8306 H 768.163 -3.90496 0.354276 0
M  V30 8307 H 769.653 -4.13125 -0.609693 0
M  V30 8308 N 770.09 -0.729906 -1.39679 0
M  V30 8309 C 771.506 -0.404951 -1.54377 0
M  V30 8310 C 771.706 1.08476 -1.6981 0
M  V30 8311 O 770.762 1.87087 -1.69572 0
M  V30 8312 C 772.075 -1.18352 -2.76429 0
M  V30 8313 C 773.623 -1.17124 -2.9026 0
M  V30 8314 C 774.098 -1.93227 -4.15244 0
M  V30 8315 N 775.589 -1.90368 -4.22273 0
M  V30 8316 C 776.324 -2.46065 -5.17918 0
M  V30 8317 N 775.82 -3.10378 -6.19385 0
M  V30 8318 N 777.613 -2.36127 -5.10099 0
M  V30 8319 H 769.764 -1.69567 -1.27909 0
M  V30 8320 H 772.027 -0.717527 -0.619564 0
M  V30 8321 H 771.733 -2.23743 -2.71352 0
M  V30 8322 H 771.607 -0.784589 -3.6895 0
M  V30 8323 H 773.994 -0.125478 -2.94833 0
M  V30 8324 H 774.075 -1.60951 -1.98817 0
M  V30 8325 H 773.719 -2.97802 -4.11432 0
M  V30 8326 H 773.649 -1.4681 -5.05722 0
M  V30 8327 H 776.14 -1.4351 -3.4959 0
M  V30 8328 H 776.453 -3.50358 -6.88817 0
M  V30 8329 H 774.798 -3.14467 -6.19787 0
M  V30 8330 H 777.989 -1.85529 -4.29763 0
M  V30 8331 H 778.162 -2.79833 -5.84463 0
M  V30 8332 N 771.568 1.50203 -0.477153 0
M  V30 8333 C 772.845 1.95115 0.137609 0
M  V30 8334 C 773.225 1.41778 1.56404 0
M  V30 8335 O 772.573 0.621333 2.1989 0
M  V30 8336 C 772.783 3.4892 0.0747168 0
M  V30 8337 C 774.131 4.238 0.260585 0
M  V30 8338 O 775.155 3.5588 0.151021 0
M  V30 8339 O 774.014 5.44366 0.482534 0
M  V30 8340 H 771.108 0.81987 0.108364 0
M  V30 8341 H 773.654 1.60946 -0.537989 0
M  V30 8342 H 772.426 3.80308 -0.920966 0
M  V30 8343 H 772.049 3.89642 0.791509 0
M  V30 8344 N 773.046 0.209999 1.56195 0
M  V30 8345 C 773.978 -0.736967 2.17029 0
M  V30 8346 C 774.991 -1.16599 1.13616 0
M  V30 8347 O 776.18 -1.09914 1.40646 0
M  V30 8348 C 773.28 -2.00852 2.72969 0
M  V30 8349 C 772.453 -1.73691 4.01435 0
M  V30 8350 C 771.512 -2.85439 4.42053 0
M  V30 8351 O 770.538 -2.54405 5.09183 0
M  V30 8352 N 771.74 -4.14135 4.06783 0
M  V30 8353 H 774.505 -0.216656 2.98916 0
M  V30 8354 H 772.066 0.0285672 1.61875 0
M  V30 8355 H 774.058 -2.74778 2.97118 0
M  V30 8356 H 772.628 -2.43963 1.95451 0
M  V30 8357 H 771.848 -0.834676 3.85262 0
M  V30 8358 H 773.136 -1.52961 4.85263 0
M  V30 8359 H 772.534 -4.42196 3.52816 0
M  V30 8360 H 771.091 -4.84642 4.35851 0
M  V30 8361 N 774.524 -1.57472 -0.0634922 0
M  V30 8362 C 775.77 -1.87932 -0.762194 0
M  V30 8363 C 776.103 -0.803377 -1.76804 0
M  V30 8364 O 775.378 0.185468 -1.93614 0
M  V30 8365 C 775.661 -3.29053 -1.46275 0
M  V30 8366 C 775.514 -4.47309 -0.472755 0
M  V30 8367 C 776.833 -3.68537 -2.40558 0
M  V30 8368 H 773.952 -0.683521 -0.275624 0
M  V30 8369 H 776.594 -1.89983 -0.0252651 0
M  V30 8370 H 774.744 -3.27435 -2.0909 0
M  V30 8371 H 776.416 -4.61053 0.150828 0
M  V30 8372 H 774.659 -4.33286 0.211187 0
M  V30 8373 H 775.33 -5.42853 -1.00072 0
M  V30 8374 H 777.806 -3.71302 -1.87814 0
M  V30 8375 H 776.682 -4.68152 -2.86574 0
M  V30 8376 H 776.943 -2.98917 -3.25731 0
M  V30 8377 N 776.003 0.335068 -1.53997 0
M  V30 8378 C 777.243 1.0827 -1.7337 0
M  V30 8379 C 777.607 1.85618 -0.490913 0
M  V30 8380 O 778.808 2.62864 -0.561799 0
M  V30 8381 C 777.079 1.99212 -2.96731 0
M  V30 8382 S 778.638 2.81083 -3.36954 0
M  V30 8383 H 775.456 0.365698 -0.609743 0
M  V30 8384 H 778.058 0.360079 -1.92155 0
M  V30 8385 H 776.762 1.41204 -3.85344 0
M  V30 8386 H 776.293 2.75898 -2.80436 0
M  V30 8387 H 778.308 4.01657 -2.91352 0
M  V30 8388 N 777.481 1.45874 0.596531 0
M  V30 8389 C 778.431 1.5181 1.70111 0
M  V30 8390 C 779.415 0.380293 1.56341 0
M  V30 8391 O 780.607 0.627849 1.6549 0
M  V30 8392 C 777.736 1.49822 3.08883 0
M  V30 8393 C 776.822 2.68845 3.27998 0
M  V30 8394 N 777.213 3.93873 3.17329 0
M  V30 8395 C 775.511 2.64777 3.589 0
M  V30 8396 C 776.212 4.73371 3.38076 0
M  V30 8397 N 775.188 4.0501 3.62585 0
M  V30 8398 H 778.99 2.46289 1.60372 0
M  V30 8399 H 776.504 1.41321 0.800138 0
M  V30 8400 H 778.501 1.5216 3.8814 0
M  V30 8401 H 777.161 0.564086 3.19763 0
M  V30 8402 H 778.172 4.25329 2.95492 0
M  V30 8403 H 774.849 1.80323 3.7655 0
M  V30 8404 H 776.239 5.82357 3.35127 0
M  V30 8405 N 778.959 -0.83999 1.33349 0
M  V30 8406 C 780.206 -1.59517 1.24742 0
M  V30 8407 C 780.534 -1.93598 -0.187077 0
M  V30 8408 O 779.789 -1.58782 -1.14398 0
M  V30 8409 C 780.088 -2.91571 2.06691 0
M  V30 8410 C 779.754 -2.76856 3.55895 0
M  V30 8411 C 778.416 -2.72551 3.96572 0
M  V30 8412 C 780.768 -2.61741 4.50712 0
M  V30 8413 C 778.096 -2.51028 5.30285 0
M  V30 8414 C 780.448 -2.41752 5.84584 0
M  V30 8415 C 779.112 -2.35848 6.24445 0
M  V30 8416 H 778.382 -0.583714 0.456463 0
M  V30 8417 H 781.029 -0.973261 1.64924 0
M  V30 8418 H 779.334 -3.57961 1.59284 0
M  V30 8419 H 781.031 -3.49053 1.9739 0
M  V30 8420 H 777.621 -2.81039 3.23597 0
M  V30 8421 H 781.805 -2.64102 4.20195 0
M  V30 8422 H 777.061 -2.44903 5.60208 0
M  V30 8423 H 781.235 -2.2904 6.57658 0
M  V30 8424 H 778.862 -2.18931 7.27993 0
M  V30 8425 N 780.437 -1.16799 -1.0581 0
M  V30 8426 C 781.683 -0.953935 -1.78963 0
M  V30 8427 C 782.016 0.516638 -1.87202 0
M  V30 8428 O 781.291 1.38338 -1.36721 0
M  V30 8429 C 781.574 -1.58808 -3.23191 0
M  V30 8430 C 781.427 -3.13032 -3.23003 0
M  V30 8431 C 782.746 -1.2868 -4.20867 0
M  V30 8432 H 779.865 -0.347972 -0.64968 0
M  V30 8433 H 782.507 -1.44204 -1.23715 0
M  V30 8434 H 780.657 -1.17303 -3.70368 0
M  V30 8435 H 782.329 -3.63553 -2.83949 0
M  V30 8436 H 780.572 -3.46108 -2.61518 0
M  V30 8437 H 781.243 -3.52527 -4.24769 0
M  V30 8438 H 783.719 -1.6461 -3.82155 0
M  V30 8439 H 782.595 -1.75645 -5.20038 0
M  V30 8440 H 782.856 -0.206491 -4.41618 0
M  V30 8441 N 781.915 1.24427 -0.967243 0
M  V30 8442 C 783.143 1.96541 -0.646477 0
M  V30 8443 C 783.558 1.71753 0.783996 0
M  V30 8444 O 782.915 1.00102 1.52597 0
M  V30 8445 C 782.966 3.4983 -0.911098 0
M  V30 8446 O 782.687 3.7377 -2.28534 0
M  V30 8447 C 784.188 4.3916 -0.604458 0
M  V30 8448 H 781.408 0.626129 -0.241255 0
M  V30 8449 H 783.952 1.58268 -1.29505 0
M  V30 8450 H 782.107 3.86168 -0.308741 0
M  V30 8451 H 782.521 4.68154 -2.365 0
M  V30 8452 H 783.995 5.4557 -0.840069 0
M  V30 8453 H 784.472 4.36771 0.461273 0
M  V30 8454 H 785.078 4.08409 -1.1867 0
M  V30 8455 N 783.393 0.737304 1.3929 0
M  V30 8456 C 784.326 0.0475454 2.2815 0
M  V30 8457 C 785.304 -0.745314 1.44512 0
M  V30 8458 O 786.488 -0.727387 1.739 0
M  V30 8459 C 783.615 -0.939803 3.254 0
M  V30 8460 C 782.661 -0.235153 4.25851 0
M  V30 8461 S 783.494 1.05252 5.25055 0
M  V30 8462 C 784.65 0.0678242 6.25863 0
M  V30 8463 H 784.883 0.801117 2.86303 0
M  V30 8464 H 782.416 0.529197 1.45048 0
M  V30 8465 H 784.374 -1.50417 3.81949 0
M  V30 8466 H 783.035 -1.66623 2.66262 0
M  V30 8467 H 782.228 -0.982336 4.94334 0
M  V30 8468 H 781.83 0.257245 3.73114 0
M  V30 8469 H 784.122 -0.771779 6.7309 0
M  V30 8470 H 785.065 0.719858 7.04431 0
M  V30 8471 H 785.473 -0.305604 5.63672 0
M  V30 8472 N 784.871 -1.49948 0.485112 0
M  V30 8473 C 786.111 -2.04301 -0.0635728 0
M  V30 8474 C 786.475 -1.35804 -1.35725 0
M  V30 8475 O 787.676 -1.80789 -1.98919 0
M  V30 8476 C 785.947 -3.56666 -0.228962 0
M  V30 8477 S 787.506 -4.32614 -0.734185 0
M  V30 8478 H 784.324 -0.710939 -0.00931895 0
M  V30 8479 H 786.926 -1.84185 0.655455 0
M  V30 8480 H 785.63 -4.04068 0.718148 0
M  V30 8481 H 785.161 -3.8116 -0.973696 0
M  V30 8482 H 787.176 -4.53859 -2.00565 0
M  V30 8483 N 786.349 -0.21828 -1.56081 0
M  V30 8484 C 787.598 0.414644 -1.97392 0
M  V30 8485 C 787.911 1.61132 -1.10887 0
M  V30 8486 O 789.117 2.31355 -1.42082 0
M  V30 8487 C 787.573 0.789099 -3.51143 0
M  V30 8488 C 787.181 -0.384578 -4.46346 0
M  V30 8489 C 788.925 1.38781 -4.01173 0
M  V30 8490 C 786.832 0.0121288 -5.91399 0
M  V30 8491 H 785.762 0.158691 -0.737111 0
M  V30 8492 H 788.413 -0.313974 -1.80794 0
M  V30 8493 H 786.795 1.57505 -3.6333 0
M  V30 8494 H 787.969 -1.16212 -4.45905 0
M  V30 8495 H 786.284 -0.896306 -4.06639 0
M  V30 8496 H 788.881 1.69746 -5.07041 0
M  V30 8497 H 789.224 2.30245 -3.46833 0
M  V30 8498 H 789.757 0.665364 -3.92196 0
M  V30 8499 H 786.496 -0.868917 -6.49715 0
M  V30 8500 H 786.016 0.754053 -5.95041 0
M  V30 8501 H 787.695 0.439949 -6.45502 0
M  V30 8502 N 787.827 1.57504 0.0551401 0
M  V30 8503 C 789.074 1.88055 0.751104 0
M  V30 8504 C 789.402 0.812231 1.76729 0
M  V30 8505 O 788.657 -0.189918 1.94776 0
M  V30 8506 C 788.956 3.25311 1.48013 0
M  V30 8507 C 788.622 4.46858 0.602375 0
M  V30 8508 C 787.284 4.79847 0.360536 0
M  V30 8509 C 789.636 5.212 -0.00524047 0
M  V30 8510 C 786.964 5.84582 -0.498127 0
M  V30 8511 C 789.316 6.26844 -0.851453 0
M  V30 8512 C 787.98 6.58324 -1.103 0
M  V30 8513 H 787.25 0.688142 0.274848 0
M  V30 8514 H 789.897 1.91497 0.0114795 0
M  V30 8515 H 788.202 3.17737 2.29239 0
M  V30 8516 H 789.899 3.46189 2.02371 0
M  V30 8517 H 786.489 4.21049 0.801007 0
M  V30 8518 H 790.673 4.96013 0.168682 0
M  V30 8519 H 785.929 6.07361 -0.701594 0
M  V30 8520 H 790.103 6.83603 -1.32893 0
M  V30 8521 H 787.73 7.39304 -1.77011 0
M  V30 8522 N 789.305 -0.326896 1.54172 0
M  V30 8523 C 790.533 -1.08486 1.76177 0
M  V30 8524 C 790.948 -1.81815 0.508788 0
M  V30 8525 O 790.305 -1.74924 -0.520362 0
M  V30 8526 C 790.356 -2.08552 2.95276 0
M  V30 8527 O 790.077 -1.38202 4.15731 0
M  V30 8528 C 791.578 -2.96593 3.29466 0
M  V30 8529 H 788.798 -0.322835 0.588233 0
M  V30 8530 H 791.342 -0.374036 2.0105 0
M  V30 8531 H 789.497 -2.75174 2.72687 0
M  V30 8532 H 789.911 -2.05186 4.827 0
M  V30 8533 H 791.385 -3.62708 4.16109 0
M  V30 8534 H 791.862 -3.63511 2.46487 0
M  V30 8535 H 792.468 -2.35537 3.54122 0
M  V30 8536 N 790.784 -1.46188 -0.588786 0
M  V30 8537 C 792.024 -1.52738 -1.35833 0
M  V30 8538 C 792.388 -0.172403 -1.91224 0
M  V30 8539 O 793.589 -0.112633 -2.68564 0
M  V30 8540 C 791.86 -2.59085 -2.4619 0
M  V30 8541 S 793.419 -2.84997 -3.3365 0
M  V30 8542 H 790.237 -0.539713 -0.462851 0
M  V30 8543 H 792.839 -1.83386 -0.677489 0
M  V30 8544 H 791.543 -3.56177 -2.03878 0
M  V30 8545 H 791.074 -2.3015 -3.19053 0
M  V30 8546 H 793.089 -2.19804 -4.4486 0
M  V30 8547 N 792.262 0.832906 -1.33792 0
M  V30 8548 C 793.49 1.62048 -1.28639 0
M  V30 8549 C 793.905 1.88269 0.141522 0
M  V30 8550 O 793.262 1.46706 1.08553 0
M  V30 8551 C 793.313 2.96722 -2.0649 0
M  V30 8552 O 793.034 2.7165 -3.43712 0
M  V30 8553 C 794.535 3.91144 -2.08617 0
M  V30 8554 H 791.755 0.504032 -0.442937 0
M  V30 8555 H 794.299 1.03704 -1.76255 0
M  V30 8556 H 792.454 3.51652 -1.62541 0
M  V30 8557 H 792.868 3.57453 -3.83833 0
M  V30 8558 H 794.342 4.82837 -2.67531 0
M  V30 8559 H 794.819 4.25766 -1.07796 0
M  V30 8560 H 795.425 3.42152 -2.52611 0
M  V30 8561 N 793.74 1.17359 1.05189 0
M  V30 8562 C 794.988 0.960087 1.77839 0
M  V30 8563 C 795.309 -0.512554 1.88143 0
M  V30 8564 O 794.579 -1.3721 1.39822 0
M  V30 8565 H 793.159 0.352234 0.658741 0
M  V30 8566 H 795.821 1.47834 1.27008 0
M  V30 8567 H 794.917 1.38843 2.79516 0
M  V30 8568 N 795.218 -1.23913 0.973828 0
M  V30 8569 C 796.15 -2.24397 0.466763 0
M  V30 8570 C 797.163 -1.57078 -0.427828 0
M  V30 8571 O 798.352 -1.76973 -0.233019 0
M  V30 8572 C 795.452 -3.37141 -0.344798 0
M  V30 8573 C 794.625 -4.34037 0.541349 0
M  V30 8574 C 793.684 -5.2576 -0.215243 0
M  V30 8575 O 792.71 -5.67842 0.39291 0
M  V30 8576 N 793.912 -5.60702 -1.5031 0
M  V30 8577 H 796.677 -2.68536 1.33074 0
M  V30 8578 H 794.238 -1.38017 0.846346 0
M  V30 8579 H 796.23 -3.95476 -0.859133 0
M  V30 8580 H 794.8 -2.92239 -1.10974 0
M  V30 8581 H 794.02 -3.74302 1.23659 0
M  V30 8582 H 795.308 -4.95738 1.1455 0
M  V30 8583 H 794.706 -5.28451 -2.01882 0
M  V30 8584 H 793.263 -6.21538 -1.96301 0
M  V30 8585 N 796.696 -0.74468 -1.38897 0
M  V30 8586 C 797.646 -0.0869375 -2.27834 0
M  V30 8587 C 798.63 0.702553 -1.44751 0
M  V30 8588 O 799.822 0.569972 -1.67572 0
M  V30 8589 C 796.951 0.812232 -3.33553 0
M  V30 8590 C 796.037 0.0163713 -4.24097 0
M  V30 8591 N 796.428 -1.01547 -4.95502 0
M  V30 8592 C 794.726 0.244554 -4.45329 0
M  V30 8593 C 795.427 -1.49622 -5.62128 0
M  V30 8594 N 794.403 -0.813097 -5.37485 0
M  V30 8595 H 798.205 -0.877345 -2.80499 0
M  V30 8596 H 795.719 -0.579898 -1.51694 0
M  V30 8597 H 797.716 1.299 -3.96146 0
M  V30 8598 H 796.376 1.60169 -2.82446 0
M  V30 8599 H 797.387 -1.39707 -4.98701 0
M  V30 8600 H 794.064 1.00806 -4.05147 0
M  V30 8601 H 795.454 -2.35523 -6.29268 0
M  V30 8602 N 798.174 1.49689 -0.493057 0
M  V30 8603 C 799.137 2.27502 0.278485 0
M  V30 8604 C 800.137 1.33184 0.901037 0
M  V30 8605 O 801.327 1.56415 0.766801 0
M  V30 8606 C 798.459 3.10881 1.39878 0
M  V30 8607 H 799.652 2.97163 -0.404219 0
M  V30 8608 H 797.205 1.54324 -0.247774 0
M  V30 8609 H 797.94 2.45767 2.11587 0
M  V30 8610 H 797.725 3.80219 0.957924 0
M  V30 8611 H 799.215 3.69673 1.94247 0
M  V30 8612 N 799.652 0.226554 1.55963 0
M  V30 8613 C 800.877 -0.411527 2.03276 0
M  V30 8614 C 801.302 -1.52206 1.10521 0
M  V30 8615 O 800.66 -1.81054 0.0943217 0
M  V30 8616 C 800.708 -0.915694 3.4878 0
M  V30 8617 O 799.812 -2.02672 3.59163 0
M  V30 8618 H 799.153 -0.0924907 0.657527 0
M  V30 8619 H 801.683 0.346656 2.01642 0
M  V30 8620 H 801.693 -1.22421 3.892 0
M  V30 8621 H 800.368 -0.102915 4.15773 0
M  V30 8622 H 798.945 -1.72445 3.30632 0
M  V30 8623 N 801.13 -1.57531 -0.0467866 0
M  V30 8624 C 802.376 -1.8873 -0.742218 0
M  V30 8625 C 802.709 -0.822084 -1.75941 0
M  V30 8626 O 801.984 0.164922 -1.938 0
M  V30 8627 C 802.267 -3.30586 -1.42776 0
M  V30 8628 C 802.12 -4.47785 -0.425285 0
M  V30 8629 C 803.439 -3.71068 -2.36636 0
M  V30 8630 H 800.558 -0.686406 -0.268359 0
M  V30 8631 H 803.2 -1.89999 -0.00511341 0
M  V30 8632 H 801.35 -3.29634 -2.05605 0
M  V30 8633 H 803.022 -4.60867 0.199721 0
M  V30 8634 H 801.265 -4.33037 0.25713 0
M  V30 8635 H 801.936 -5.43884 -0.943086 0
M  V30 8636 H 804.412 -3.73273 -1.83866 0
M  V30 8637 H 803.288 -4.71165 -2.81593 0
M  V30 8638 H 803.549 -3.02355 -3.22542 0
M  V30 8639 N 802.608 0.318715 -1.54344 0
M  V30 8640 C 803.558 1.39364 -1.80448 0
M  V30 8641 C 804.542 1.46708 -0.660728 0
M  V30 8642 O 805.734 1.51159 -0.920869 0
M  V30 8643 C 802.863 2.76144 -2.03959 0
M  V30 8644 C 801.949 2.73094 -3.24469 0
M  V30 8645 N 802.34 2.39663 -4.45416 0
M  V30 8646 C 800.638 3.04218 -3.2614 0
M  V30 8647 C 801.339 2.45469 -5.27371 0
M  V30 8648 N 800.315 2.82107 -4.64668 0
M  V30 8649 H 804.117 1.12453 -2.71535 0
M  V30 8650 H 801.631 0.527221 -1.53604 0
M  V30 8651 H 803.628 3.53627 -2.20802 0
M  V30 8652 H 802.288 3.03982 -1.14129 0
M  V30 8653 H 803.299 2.12424 -4.72331 0
M  V30 8654 H 799.976 3.37066 -2.4636 0
M  V30 8655 H 801.366 2.22571 -6.33965 0
M  V30 8656 N 804.086 1.46499 0.581025 0
M  V30 8657 C 805.016 1.60052 1.70017 0
M  V30 8658 C 805.997 0.450788 1.64018 0
M  V30 8659 O 807.182 0.677237 1.82009 0
M  V30 8660 C 804.312 1.5921 3.08658 0
M  V30 8661 C 803.266 2.73169 3.29488 0
M  V30 8662 C 802.592 2.57389 4.68674 0
M  V30 8663 C 803.892 4.14978 3.1716 0
M  V30 8664 H 805.586 2.53735 1.5893 0
M  V30 8665 H 803.132 1.22113 0.763173 0
M  V30 8666 H 805.085 1.67285 3.86773 0
M  V30 8667 H 803.809 0.620718 3.20647 0
M  V30 8668 H 802.468 2.64566 2.53773 0
M  V30 8669 H 802.116 1.58331 4.77431 0
M  V30 8670 H 801.816 3.33826 4.83564 0
M  V30 8671 H 803.34 2.67358 5.48956 0
M  V30 8672 H 804.754 4.24684 3.85119 0
M  V30 8673 H 803.151 4.92016 3.4357 0
M  V30 8674 H 804.221 4.35016 2.14218 0
M  V30 8675 N 805.565 -0.825799 1.34232 0
M  V30 8676 C 806.813 -1.57873 1.26177 0
M  V30 8677 C 807.134 -1.94267 -0.168904 0
M  V30 8678 O 806.404 -1.62045 -1.10084 0
M  V30 8679 H 804.984 -0.585388 0.464037 0
M  V30 8680 H 807.646 -0.986163 1.6811 0
M  V30 8681 H 806.742 -2.50283 1.86453 0
M  V30 8682 N 807.043 -1.17915 -1.04565 0
M  V30 8683 C 807.975 -0.859359 -2.1248 0
M  V30 8684 C 808.988 0.140922 -1.62189 0
M  V30 8685 O 810.177 -0.0862361 -1.78292 0
M  V30 8686 C 807.277 -0.261811 -3.37887 0
M  V30 8687 C 806.45 -1.30651 -4.17431 0
M  V30 8688 C 805.509 -0.725575 -5.21174 0
M  V30 8689 O 804.535 -1.39901 -5.51739 0
M  V30 8690 N 805.737 0.479351 -5.78517 0
M  V30 8691 H 808.502 -1.78818 -2.40508 0
M  V30 8692 H 806.063 -1.07885 -1.20716 0
M  V30 8693 H 808.055 0.14028 -4.04457 0
M  V30 8694 H 806.625 0.570929 -3.07342 0
M  V30 8695 H 805.845 -1.88412 -3.46258 0
M  V30 8696 H 807.133 -2.01099 -4.67372 0
M  V30 8697 H 806.531 1.04431 -5.55977 0
M  V30 8698 H 805.088 0.823427 -6.46578 0
M  V30 8699 N 808.521 1.23394 -0.980386 0
M  V30 8700 C 809.451 2.2717 -0.540024 0
M  V30 8701 C 810.432 1.64659 0.426787 0
M  V30 8702 O 811.617 1.91543 0.320153 0
M  V30 8703 C 808.747 3.46939 0.15836 0
M  V30 8704 C 807.701 4.21802 -0.725732 0
M  V30 8705 C 807.027 5.34597 0.104866 0
M  V30 8706 C 808.327 4.81802 -2.01654 0
M  V30 8707 H 810.021 2.64257 -1.40743 0
M  V30 8708 H 807.567 1.2703 -0.678193 0
M  V30 8709 H 809.52 4.18683 0.477737 0
M  V30 8710 H 808.244 3.08912 1.06022 0
M  V30 8711 H 806.903 3.51875 -1.02857 0
M  V30 8712 H 806.551 4.92812 1.00726 0
M  V30 8713 H 806.251 5.85607 -0.483557 0
M  V30 8714 H 807.775 6.09163 0.418624 0
M  V30 8715 H 809.189 5.45554 -1.76193 0
M  V30 8716 H 807.586 5.43098 -2.55273 0
M  V30 8717 H 808.656 4.02549 -2.70338 0
M  V30 8718 N 809.999 0.752036 1.385 0
M  V30 8719 C 811.276 0.233075 1.94206 0
M  V30 8720 C 811.656 -1.26838 1.68746 0
M  V30 8721 O 811.004 -2.04214 1.02513 0
M  V30 8722 C 811.214 0.58509 3.44061 0
M  V30 8723 C 812.562 0.543871 4.21102 0
M  V30 8724 O 813.586 0.523291 3.52335 0
M  V30 8725 O 812.445 0.553436 5.4369 0
M  V30 8726 H 809.539 0.0483049 0.825588 0
M  V30 8727 H 812.085 0.832053 1.47902 0
M  V30 8728 H 810.857 1.62212 3.56094 0
M  V30 8729 H 810.48 -0.0419738 3.97578 0
M  V30 8730 N 811.477 -1.49425 0.500989 0
M  V30 8731 C 812.723 -2.03369 -0.0355945 0
M  V30 8732 C 813.078 -1.37387 -1.34694 0
M  V30 8733 O 812.371 -0.500516 -1.84947 0
M  V30 8734 C 812.565 -3.56562 -0.24463 0
M  V30 8735 C 812.394 -4.37392 1.04491 0
M  V30 8736 C 811.164 -4.7941 1.59669 0
M  V30 8737 C 813.362 -4.75974 1.94817 0
M  V30 8738 N 811.344 -5.44668 2.83214 0
M  V30 8739 C 812.715 -5.4095 3.0294 0
M  V30 8740 C 814.77 -4.57915 1.95495 0
M  V30 8741 C 813.473 -5.89779 4.11768 0
M  V30 8742 C 815.499 -5.07705 3.03298 0
M  V30 8743 C 814.861 -5.72682 4.1014 0
M  V30 8744 H 810.96 -0.781507 0.0277547 0
M  V30 8745 H 813.544 -1.82594 0.675844 0
M  V30 8746 H 811.715 -3.77221 -0.925126 0
M  V30 8747 H 813.447 -3.97147 -0.778219 0
M  V30 8748 H 810.202 -4.59629 1.14185 0
M  V30 8749 H 810.626 -5.81884 3.46035 0
M  V30 8750 H 815.268 -4.07085 1.14199 0
M  V30 8751 H 812.986 -6.3963 4.93862 0
M  V30 8752 H 816.572 -4.95542 3.04843 0
M  V30 8753 H 815.452 -6.10512 4.92184 0
M  V30 8754 N 812.955 -0.234822 -1.55841 0
M  V30 8755 C 814.185 0.397168 -2.02746 0
M  V30 8756 C 814.593 1.52951 -1.11367 0
M  V30 8757 O 813.936 1.8332 -0.118133 0
M  V30 8758 C 813.998 0.977748 -3.45948 0
M  V30 8759 C 813.662 -0.0208193 -4.56995 0
M  V30 8760 C 814.659 -0.826015 -5.13296 0
M  V30 8761 C 812.344 -0.143416 -5.02095 0
M  V30 8762 C 814.338 -1.74038 -6.1318 0
M  V30 8763 C 812.025 -1.0613 -6.01814 0
M  V30 8764 C 813.023 -1.85832 -6.57233 0
M  V30 8765 O 812.711 -2.76075 -7.55008 0
M  V30 8766 H 812.443 0.0999802 -0.668566 0
M  V30 8767 H 814.997 -0.352673 -2.0235 0
M  V30 8768 H 813.227 1.77693 -3.43456 0
M  V30 8769 H 814.916 1.51854 -3.76424 0
M  V30 8770 H 815.682 -0.741822 -4.79293 0
M  V30 8771 H 811.561 0.466857 -4.5863 0
M  V30 8772 H 815.105 -2.36291 -6.56363 0
M  V30 8773 H 811.002 -1.14646 -6.35237 0
M  V30 8774 H 811.77 -2.703 -7.7258 0
M  V30 8775 N 814.433 1.57553 0.0384317 0
M  V30 8776 C 815.658 1.93485 0.746872 0
M  V30 8777 C 816.083 0.834069 1.68597 0
M  V30 8778 O 815.441 -0.210902 1.80069 0
M  V30 8779 C 815.489 3.28463 1.4881 0
M  V30 8780 O 814.593 3.20051 2.60079 0
M  V30 8781 H 813.934 0.632675 0.201539 0
M  V30 8782 H 816.464 2.046 -0.00329815 0
M  V30 8783 H 816.474 3.63132 1.86009 0
M  V30 8784 H 815.149 4.08147 0.799297 0
M  V30 8785 H 813.726 2.96998 2.25492 0
M  V30 8786 N 815.911 -0.310526 1.54511 0
M  V30 8787 C 817.157 -1.04459 1.74528 0
M  V30 8788 C 817.512 -1.85251 0.519613 0
M  V30 8789 O 816.805 -1.85281 -0.488001 0
M  V30 8790 C 816.999 -1.98942 2.96912 0
M  V30 8791 C 816.828 -1.27442 4.31264 0
M  V30 8792 C 815.598 -1.00552 4.95194 0
M  V30 8793 C 817.796 -0.683695 5.09735 0
M  V30 8794 N 815.778 -0.259797 6.1335 0
M  V30 8795 C 817.149 -0.0702549 6.1996 0
M  V30 8796 C 819.204 -0.587799 4.94418 0
M  V30 8797 C 817.907 0.629791 7.16538 0
M  V30 8798 C 819.933 0.0985719 5.91318 0
M  V30 8799 C 819.295 0.700902 7.00904 0
M  V30 8800 H 815.394 -0.365496 0.69133 0
M  V30 8801 H 817.978 -0.324277 1.91981 0
M  V30 8802 H 816.149 -2.68233 2.80902 0
M  V30 8803 H 817.881 -2.6543 3.05498 0
M  V30 8804 H 814.636 -1.30123 4.55374 0
M  V30 8805 H 815.06 0.099301 6.76927 0
M  V30 8806 H 819.702 -1.03919 4.0983 0
M  V30 8807 H 817.42 1.09298 8.00674 0
M  V30 8808 H 821.006 0.172585 5.81544 0
M  V30 8809 H 819.886 1.22357 7.74596 0
M  V30 8810 N 817.389 -1.46805 -0.573248 0
M  V30 8811 C 818.635 -1.5283 -1.33307 0
M  V30 8812 C 818.968 -0.183287 -1.93333 0
M  V30 8813 O 818.243 0.806354 -1.76998 0
M  V30 8814 C 818.526 -2.63414 -2.45531 0
M  V30 8815 C 818.379 -4.07478 -1.90478 0
M  V30 8816 C 819.698 -2.70014 -3.47535 0
M  V30 8817 H 816.817 -0.556371 -0.483343 0
M  V30 8818 H 819.459 -1.78787 -0.643066 0
M  V30 8819 H 817.609 -2.41412 -3.04389 0
M  V30 8820 H 819.281 -4.40795 -1.36004 0
M  V30 8821 H 817.524 -4.16511 -1.21248 0
M  V30 8822 H 818.195 -4.80598 -2.71531 0
M  V30 8823 H 820.671 -2.89817 -2.98572 0
M  V30 8824 H 819.547 -3.49192 -4.23504 0
M  V30 8825 H 819.808 -1.76436 -4.05367 0
M  V30 8826 N 818.867 0.818669 -1.34668 0
M  V30 8827 C 820.278 1.39177 -1.24446 0
M  V30 8828 C 820.629 1.9578 0.128268 0
M  V30 8829 O 819.754 1.90382 1.02877 0
M  V30 8830 C 820.349 2.53012 -2.25323 0
M  V30 8831 C 818.908 3.06218 -2.18878 0
M  V30 8832 C 818.055 1.79112 -2.11694 0
M  V30 8833 H 821.006 0.622709 -1.45973 0
M  V30 8834 H 821.027 3.31226 -1.8727 0
M  V30 8835 H 820.539 2.11784 -3.25221 0
M  V30 8836 H 818.64 3.51939 -1.22351 0
M  V30 8837 H 818.753 3.65019 -3.10319 0
M  V30 8838 H 817.117 2.0018 -1.57481 0
M  V30 8839 H 817.9 1.40053 -3.13433 0
M  V30 8840 N 820.346 1.18468 1.03938 0
M  V30 8841 C 821.294 0.909286 2.14091 0
M  V30 8842 C 822.288 -0.130928 1.68893 0
M  V30 8843 O 823.494 0.0173403 1.79992 0
M  V30 8844 H 819.869 0.27658 0.699291 0
M  V30 8845 H 821.84 1.84514 2.34515 0
M  V30 8846 C 820.589 0.452922 3.44737 0
M  V30 8847 H 819.912 1.24485 3.79926 0
M  V30 8848 H 821.352 0.299238 4.22943 0
M  V30 8849 C 819.811 -0.831435 3.26479 0
M  V30 8850 O 820.341 -1.89535 3.54174 0
M  V30 8851 N 818.547 -0.784545 2.79809 0
M  V30 8852 H 818.094 0.0814746 2.57471 0
M  V30 8853 H 818.052 -1.64431 2.67973 0
M  V30 8854 N 821.824 -1.22873 0.986916 0
M  V30 8855 C 822.787 -2.2281 0.537442 0
M  V30 8856 C 823.787 -1.56331 -0.37646 0
M  V30 8857 O 824.977 -1.73376 -0.169247 0
M  V30 8858 C 822.109 -3.40195 -0.219082 0
M  V30 8859 H 823.302 -2.64089 1.42116 0
M  V30 8860 H 820.855 -1.35819 0.773488 0
M  V30 8861 H 821.59 -3.04381 -1.11905 0
M  V30 8862 H 821.375 -3.89657 0.437026 0
M  V30 8863 H 822.865 -4.14326 -0.521926 0
M  V30 8864 N 823.302 -0.75937 -1.38099 0
M  V30 8865 C 824.713 -0.385078 -1.82686 0
M  V30 8866 C 825.064 1.0871 -1.6333 0
M  V30 8867 O 824.189 1.84084 -1.13762 0
M  V30 8868 C 824.784 -0.692161 -3.31654 0
M  V30 8869 C 823.343 -0.371077 -3.74566 0
M  V30 8870 C 822.49 -0.942375 -2.60796 0
M  V30 8871 H 825.441 -0.955048 -1.26746 0
M  V30 8872 H 825.462 0.0276001 -3.8049 0
M  V30 8873 H 824.974 -1.76369 -3.4571 0
M  V30 8874 H 823.075 0.693637 -3.66087 0
M  V30 8875 H 823.188 -0.870672 -4.71122 0
M  V30 8876 H 821.552 -0.367383 -2.52036 0
M  V30 8877 H 822.335 -2.01905 -2.77649 0
M  V30 8878 N 824.78 1.49157 -0.508906 0
M  V30 8879 C 826.02 2.04376 0.0310623 0
M  V30 8880 C 826.384 1.37946 1.33547 0
M  V30 8881 O 827.585 1.83931 1.96017 0
M  V30 8882 C 825.856 3.56985 0.172191 0
M  V30 8883 S 827.415 4.33728 0.665267 0
M  V30 8884 H 824.233 0.710997 -0.00199266 0
M  V30 8885 H 826.835 1.83119 -0.684674 0
M  V30 8886 H 825.539 4.02874 -0.78234 0
M  V30 8887 H 825.07 3.82661 0.912933 0
M  V30 8888 H 827.085 4.56992 1.9332 0
M  V30 8889 N 826.258 0.243083 1.55714 0
M  V30 8890 C 827.486 -0.386971 2.03249 0
M  V30 8891 C 827.901 -1.51812 1.12243 0
M  V30 8892 O 827.258 -1.81992 0.136119 0
M  V30 8893 C 827.309 -0.898361 3.5016 0
M  V30 8894 O 827.03 0.187708 4.37698 0
M  V30 8895 C 828.531 -1.59949 4.13438 0
M  V30 8896 H 825.751 -0.0923981 0.664608 0
M  V30 8897 H 828.295 0.365832 2.01201 0
M  V30 8898 H 826.45 -1.60136 3.52754 0
M  V30 8899 H 826.864 -0.200001 5.24119 0
M  V30 8900 H 828.338 -1.90907 5.17937 0
M  V30 8901 H 828.815 -2.52014 3.59702 0
M  V30 8902 H 829.421 -0.941163 4.14756 0
M  V30 8903 N 827.736 -1.57571 -0.0300757 0
M  V30 8904 C 828.669 -2.01874 -1.06406 0
M  V30 8905 C 829.647 -0.902901 -1.35227 0
M  V30 8906 O 830.831 -1.16865 -1.47901 0
M  V30 8907 C 827.958 -2.39093 -2.39901 0
M  V30 8908 C 827.004 -3.61108 -2.26943 0
M  V30 8909 S 827.837 -5.10287 -1.62382 0
M  V30 8910 C 828.993 -5.50747 -2.97369 0
M  V30 8911 H 829.226 -2.89261 -0.686703 0
M  V30 8912 H 826.759 -1.52523 -0.240017 0
M  V30 8913 H 828.717 -2.61207 -3.16672 0
M  V30 8914 H 827.378 -1.52159 -2.74784 0
M  V30 8915 H 826.571 -3.84803 -3.25489 0
M  V30 8916 H 826.173 -3.3884 -1.58314 0
M  V30 8917 H 828.465 -5.51369 -3.93698 0
M  V30 8918 H 829.408 -6.51071 -2.78409 0
M  V30 8919 H 829.816 -4.7825 -2.99895 0
M  V30 8920 N 829.214 0.302327 -1.54673 0
M  V30 8921 C 830.63 0.647911 -1.45857 0
M  V30 8922 C 830.83 1.90773 -0.64869 0
M  V30 8923 O 829.886 2.52018 -0.155865 0
M  V30 8924 C 831.199 0.802144 -2.89804 0
M  V30 8925 C 832.747 0.898114 -2.99838 0
M  V30 8926 C 833.222 1.08436 -4.44978 0
M  V30 8927 N 834.713 1.15059 -4.48682 0
M  V30 8928 C 835.448 1.31296 -5.58166 0
M  V30 8929 N 834.944 1.4444 -6.77576 0
M  V30 8930 N 836.737 1.34174 -5.45851 0
M  V30 8931 H 828.888 -0.525428 -2.05798 0
M  V30 8932 H 831.151 -0.173423 -0.932002 0
M  V30 8933 H 830.857 -0.0526531 -3.51661 0
M  V30 8934 H 830.731 1.69155 -3.37145 0
M  V30 8935 H 833.118 1.7434 -2.38096 0
M  V30 8936 H 833.199 -0.0152752 -2.55795 0
M  V30 8937 H 832.843 0.243843 -5.07314 0
M  V30 8938 H 832.773 2.01195 -4.8665 0
M  V30 8939 H 835.264 1.0626 -3.62653 0
M  V30 8940 H 835.577 1.56582 -7.56771 0
M  V30 8941 H 833.922 1.41499 -6.80443 0
M  V30 8942 H 837.113 1.23516 -4.5151 0
M  V30 8943 H 837.286 1.46485 -6.31226 0
M  V30 8944 N 830.692 1.47107 0.565454 0
M  V30 8945 C 831.622 1.61846 1.68309 0
M  V30 8946 C 832.603 0.468159 1.63531 0
M  V30 8947 O 833.788 0.696504 1.8128 0
M  V30 8948 C 830.918 1.62474 3.06952 0
M  V30 8949 C 829.872 2.76649 3.26572 0
M  V30 8950 C 829.198 2.62345 4.65917 0
M  V30 8951 C 830.498 4.18319 3.12741 0
M  V30 8952 H 832.192 2.55407 1.5623 0
M  V30 8953 H 829.738 1.22916 0.750179 0
M  V30 8954 H 831.691 1.71378 3.84977 0
M  V30 8955 H 830.415 0.654692 3.19971 0
M  V30 8956 H 829.074 2.67242 2.50952 0
M  V30 8957 H 828.722 1.63386 4.75725 0
M  V30 8958 H 828.422 3.38936 4.79996 0
M  V30 8959 H 829.946 2.73165 5.46089 0
M  V30 8960 H 831.36 4.28745 3.80593 0
M  V30 8961 H 829.757 4.95632 3.38333 0
M  V30 8962 H 830.827 4.37263 2.09592 0
M  V30 8963 N 832.17 -0.811516 1.35101 0
M  V30 8964 C 833.581 -1.38515 1.25182 0
M  V30 8965 C 833.932 -1.95846 -0.117883 0
M  V30 8966 O 833.057 -1.90925 -1.01866 0
M  V30 8967 C 833.652 -2.51813 2.26662 0
M  V30 8968 C 832.211 -3.05052 2.20499 0
M  V30 8969 C 831.358 -1.77987 2.12641 0
M  V30 8970 H 834.309 -0.614959 1.46301 0
M  V30 8971 H 834.33 -3.30228 1.89023 0
M  V30 8972 H 833.842 -2.10057 3.2634 0
M  V30 8973 H 831.943 -3.51285 1.24215 0
M  V30 8974 H 832.056 -3.63368 3.1225 0
M  V30 8975 H 830.42 -1.99342 1.5854 0
M  V30 8976 H 831.203 -1.38389 3.14171 0
M  V30 8977 N 833.648 -1.19017 -1.03309 0
M  V30 8978 C 835.059 -0.993206 -1.5809 0
M  V30 8979 C 835.41 0.45505 -1.9085 0
M  V30 8980 O 834.535 1.33372 -1.70414 0
M  V30 8981 C 835.13 -1.79661 -2.87241 0
M  V30 8982 C 833.689 -1.64377 -3.38611 0
M  V30 8983 C 832.836 -1.78628 -2.12102 0
M  V30 8984 H 835.787 -1.3345 -0.858879 0
M  V30 8985 H 835.808 -1.29019 -3.57958 0
M  V30 8986 H 835.32 -2.85061 -2.63366 0
M  V30 8987 H 833.421 -0.615447 -3.67482 0
M  V30 8988 H 833.534 -2.44651 -4.11926 0
M  V30 8989 H 831.898 -1.21648 -2.23772 0
M  V30 8990 H 832.681 -2.8548 -1.90673 0
M  V30 8991 N 835.127 1.22348 -0.993418 0
M  V30 8992 C 836.538 1.72893 -0.704616 0
M  V30 8993 C 836.889 1.80095 0.778483 0
M  V30 8994 O 836.014 1.4476 1.60853 0
M  V30 8995 C 836.609 3.14 -1.27237 0
M  V30 8996 C 835.168 3.61949 -1.03294 0
M  V30 8997 C 834.315 2.39816 -1.39225 0
M  V30 8998 H 837.266 1.07688 -1.16572 0
M  V30 8999 H 837.287 3.74886 -0.651212 0
M  V30 9000 H 836.799 3.08727 -2.3518 0
M  V30 9001 H 834.9 3.72588 0.0298329 0
M  V30 9002 H 835.013 4.48051 -1.69668 0
M  V30 9003 H 833.377 2.41448 -0.810849 0
M  V30 9004 H 834.16 2.37203 -2.48172 0
M  V30 9005 N 836.605 0.766683 1.37694 0
M  V30 9006 C 837.833 0.339939 2.04088 0
M  V30 9007 C 838.248 -1.03617 1.57826 0
M  V30 9008 O 837.605 -1.6605 0.757214 0
M  V30 9009 C 837.656 0.368269 3.59619 0
M  V30 9010 O 837.377 1.69009 4.04188 0
M  V30 9011 C 838.878 -0.0707053 4.43244 0
M  V30 9012 H 836.098 0.143189 0.655544 0
M  V30 9013 H 838.642 1.03919 1.76128 0
M  V30 9014 H 836.797 -0.282359 3.8637 0
M  V30 9015 H 837.211 1.62523 4.98685 0
M  V30 9016 H 838.685 0.000273538 5.52 0
M  V30 9017 H 839.162 -1.1204 4.24669 0
M  V30 9018 H 839.768 0.551543 4.21709 0
M  V30 9019 N 838.083 -1.48885 0.516809 0
M  V30 9020 C 839.311 -2.06892 -0.0184017 0
M  V30 9021 C 839.726 -1.37511 -1.29368 0
M  V30 9022 O 839.083 -0.458409 -1.76649 0
M  V30 9023 C 839.134 -3.60566 -0.259673 0
M  V30 9024 O 838.855 -4.27338 0.965065 0
M  V30 9025 C 840.356 -4.35331 -0.836751 0
M  V30 9026 H 837.576 -0.670433 0.0275743 0
M  V30 9027 H 840.12 -1.91455 0.718689 0
M  V30 9028 H 838.275 -3.75653 -0.94678 0
M  V30 9029 H 838.689 -5.19287 0.737647 0
M  V30 9030 H 840.163 -5.43675 -0.955065 0
M  V30 9031 H 840.64 -3.9887 -1.83845 0
M  V30 9032 H 841.246 -4.2489 -0.186622 0
M  V30 9033 N 839.561 -0.251338 -1.55583 0
M  V30 9034 C 840.508 0.646337 -2.21565 0
M  V30 9035 C 841.478 1.16796 -1.18102 0
M  V30 9036 O 842.663 1.22162 -1.46564 0
M  V30 9037 C 839.803 1.83557 -2.92234 0
M  V30 9038 C 838.916 1.35006 -4.10363 0
M  V30 9039 C 838.051 2.4992 -4.68736 0
M  V30 9040 C 837.09 1.98253 -5.79105 0
M  V30 9041 N 836.227 3.06551 -6.31642 0
M  V30 9042 H 841.067 0.0769881 -2.97901 0
M  V30 9043 H 838.604 0.026238 -1.47077 0
M  V30 9044 H 840.562 2.53425 -3.31408 0
M  V30 9045 H 839.192 2.37733 -2.18364 0
M  V30 9046 H 838.244 0.545274 -3.76472 0
M  V30 9047 H 839.556 0.931435 -4.90026 0
M  V30 9048 H 838.71 3.27823 -5.10507 0
M  V30 9049 H 837.449 2.95086 -3.88298 0
M  V30 9050 H 836.454 1.18822 -5.36807 0
M  V30 9051 H 837.679 1.54051 -6.61396 0
M  V30 9052 H 835.625 3.51143 -5.54107 0
M  V30 9053 H 835.542 2.69033 -7.06511 0
M  V30 9054 H 836.81 3.84499 -6.78071 0
M  V30 9055 N 841.039 1.57585 0.0217189 0
M  V30 9056 C 842.316 1.80779 0.74687 0
M  V30 9057 C 842.696 0.851163 1.9318 0
M  V30 9058 O 842.044 -0.105039 2.28258 0
M  V30 9059 C 842.254 3.28696 1.17302 0
M  V30 9060 C 843.602 3.93871 1.58589 0
M  V30 9061 O 844.626 3.3289 1.2674 0
M  V30 9062 O 843.485 5.01254 2.1773 0
M  V30 9063 H 840.579 0.743666 0.361786 0
M  V30 9064 H 843.125 1.697 -0.00206785 0
M  V30 9065 H 841.897 3.89927 0.327453 0
M  V30 9066 H 841.52 3.44692 1.98174 0
M  V30 9067 N 842.517 -0.29412 1.54831 0
M  V30 9068 C 843.48 -1.3461 1.85507 0
M  V30 9069 C 844.48 -1.43359 0.728343 0
M  V30 9070 O 845.67 -1.42875 0.996609 0
M  V30 9071 C 842.802 -2.73012 2.0415 0
M  V30 9072 H 843.995 -1.08651 2.79526 0
M  V30 9073 H 841.548 -0.531138 1.46999 0
M  V30 9074 H 842.283 -3.04183 1.12441 0
M  V30 9075 H 842.068 -2.68051 2.86166 0
M  V30 9076 H 843.558 -3.49061 2.29229 0
M  V30 9077 N 843.995 -1.47404 -0.557645 0
M  V30 9078 C 845.223 -1.57622 -1.34026 0
M  V30 9079 C 845.638 -0.226256 -1.87439 0
M  V30 9080 O 844.995 0.78043 -1.64971 0
M  V30 9081 C 845.046 -2.60111 -2.51047 0
M  V30 9082 O 844.767 -3.89866 -1.99841 0
M  V30 9083 C 846.268 -2.80508 -3.43264 0
M  V30 9084 H 843.488 -0.532271 -0.40857 0
M  V30 9085 H 846.032 -1.93019 -0.675555 0
M  V30 9086 H 844.187 -2.27648 -3.13457 0
M  V30 9087 H 844.601 -4.45864 -2.76234 0
M  V30 9088 H 846.075 -3.56084 -4.21792 0
M  V30 9089 H 846.552 -1.88314 -3.9678 0
M  V30 9090 H 847.158 -3.14166 -2.86671 0
M  V30 9091 N 845.473 0.80434 -1.35529 0
M  V30 9092 C 846.403 1.93086 -1.31301 0
M  V30 9093 C 847.384 1.69068 -0.187044 0
M  V30 9094 O 848.569 1.90399 -0.382359 0
M  V30 9095 C 845.699 3.29867 -1.0865 0
M  V30 9096 C 844.653 3.68373 -2.17911 0
M  V30 9097 C 843.979 5.0334 -1.80423 0
M  V30 9098 C 845.279 3.78516 -3.59893 0
M  V30 9099 H 846.973 1.96882 -2.25561 0
M  V30 9100 H 844.519 0.945841 -1.08581 0
M  V30 9101 H 846.472 4.08281 -1.04331 0
M  V30 9102 H 845.196 3.2642 -0.108359 0
M  V30 9103 H 843.855 2.92247 -2.21331 0
M  V30 9104 H 843.503 4.96399 -0.812213 0
M  V30 9105 H 843.203 5.30074 -2.53565 0
M  V30 9106 H 844.727 5.84191 -1.77633 0
M  V30 9107 H 846.141 4.47155 -3.58783 0
M  V30 9108 H 844.538 4.16721 -4.31814 0
M  V30 9109 H 845.608 2.8001 -3.95882 0
M  V30 9110 N 846.951 1.19563 1.02676 0
M  V30 9111 C 847.861 0.950691 2.14474 0
M  V30 9112 C 848.877 -0.0900219 1.73767 0
M  V30 9113 O 850.053 0.0951063 2.01175 0
M  V30 9114 C 847.118 0.494917 3.43149 0
M  V30 9115 C 846.179 1.60527 3.98158 0
M  V30 9116 C 845.412 1.17115 5.20692 0
M  V30 9117 O 845.635 0.0355937 5.70389 0
M  V30 9118 O 844.569 1.97454 5.68591 0
M  V30 9119 H 848.395 1.88651 2.38001 0
M  V30 9120 H 845.98 0.978635 1.12885 0
M  V30 9121 H 847.862 0.249492 4.20661 0
M  V30 9122 H 846.537 -0.412434 3.21062 0
M  V30 9123 H 845.444 1.90487 3.21971 0
M  V30 9124 H 846.777 2.48925 4.24614 0
M  V30 9125 N 848.429 -1.21819 0.999893 0
M  V30 9126 C 849.657 -1.94758 0.698359 0
M  V30 9127 C 850.072 -1.73771 -0.738183 0
M  V30 9128 O 849.429 -1.04113 -1.49889 0
M  V30 9129 C 849.48 -3.47292 1.00353 0
M  V30 9130 O 849.201 -3.67579 2.38363 0
M  V30 9131 C 850.702 -4.37403 0.72068 0
M  V30 9132 H 847.922 -0.619512 0.257771 0
M  V30 9133 H 850.466 -1.54778 1.33656 0
M  V30 9134 H 848.621 -3.85213 0.411018 0
M  V30 9135 H 849.035 -4.61719 2.48829 0
M  V30 9136 H 850.509 -5.43151 0.984422 0
M  V30 9137 H 850.986 -4.3784 -0.345309 0
M  V30 9138 H 851.592 -4.05119 1.29456 0
M  V30 9139 N 849.908 -0.773975 -1.37286 0
M  V30 9140 C 851.154 -0.339809 -1.99933 0
M  V30 9141 C 851.487 1.0815 -1.61299 0
M  V30 9142 O 850.762 1.74442 -0.860252 0
M  V30 9143 C 851.045 -0.485919 -3.56806 0
M  V30 9144 C 850.898 -1.9498 -4.05343 0
M  V30 9145 C 852.217 0.108461 -4.39966 0
M  V30 9146 H 849.336 -0.124944 -0.726332 0
M  V30 9147 H 851.978 -0.977433 -1.6293 0
M  V30 9148 H 850.128 0.0569023 -3.88458 0
M  V30 9149 H 851.8 -2.5525 -3.84246 0
M  V30 9150 H 850.043 -2.45784 -3.57453 0
M  V30 9151 H 850.714 -2.00308 -5.14374 0
M  V30 9152 H 853.19 -0.354722 -4.14585 0
M  V30 9153 H 852.066 -0.0238926 -5.48895 0
M  V30 9154 H 852.327 1.19901 -4.25531 0
M  V30 9155 N 851.386 1.48609 -0.524698 0
M  V30 9156 C 852.319 2.26374 0.288109 0
M  V30 9157 C 853.297 1.31997 0.949509 0
M  V30 9158 O 854.481 1.61329 0.974946 0
M  V30 9159 C 851.608 3.08065 1.4076 0
M  V30 9160 C 850.654 4.17777 0.858152 0
M  V30 9161 S 851.487 5.3482 -0.269827 0
M  V30 9162 C 852.643 6.2007 0.852266 0
M  V30 9163 H 852.876 2.94965 -0.371865 0
M  V30 9164 H 850.409 1.51248 -0.31039 0
M  V30 9165 H 852.367 3.5571 2.04892 0
M  V30 9166 H 851.028 2.38898 2.03928 0
M  V30 9167 H 850.221 4.74542 1.69783 0
M  V30 9168 H 849.823 3.72846 0.293627 0
M  V30 9169 H 852.115 6.54451 1.75213 0
M  V30 9170 H 853.058 7.07364 0.322717 0
M  V30 9171 H 853.466 5.53068 1.13029 0
M  V30 9172 N 852.864 0.259585 1.55447 0
M  V30 9173 C 853.827 -0.621359 2.20617 0
M  V30 9174 C 854.827 -1.09317 1.17925 0
M  V30 9175 O 856.017 -0.995842 1.42929 0
M  V30 9176 C 853.149 -1.85546 2.85982 0
M  V30 9177 H 854.342 -0.0525833 2.99854 0
M  V30 9178 H 851.895 0.0101055 1.56297 0
M  V30 9179 H 852.63 -2.46515 2.10715 0
M  V30 9180 H 852.415 -1.52523 3.61219 0
M  V30 9181 H 853.905 -2.48227 3.35817 0
M  V30 9182 N 854.342 -1.57594 -0.0133615 0
M  V30 9183 C 855.57 -1.94251 -0.712328 0
M  V30 9184 C 855.985 -0.86063 -1.68043 0
M  V30 9185 O 855.342 0.161632 -1.81783 0
M  V30 9186 C 855.393 -3.30891 -1.45581 0
M  V30 9187 O 855.114 -4.34924 -0.526539 0
M  V30 9188 C 856.615 -3.81926 -2.2505 0
M  V30 9189 H 853.835 -0.640737 -0.199241 0
M  V30 9190 H 856.379 -2.04472 0.0337855 0
M  V30 9191 H 854.534 -3.22019 -2.15366 0
M  V30 9192 H 854.948 -5.1389 -1.04962 0
M  V30 9193 H 856.422 -4.79999 -2.72589 0
M  V30 9194 H 856.899 -3.13934 -3.07152 0
M  V30 9195 H 857.505 -3.93931 -1.60308 0
M  V30 9196 N 855.82 0.285905 -1.54985 0
M  V30 9197 C 856.75 1.35752 -1.89983 0
M  V30 9198 C 857.731 1.52163 -0.760295 0
M  V30 9199 O 858.916 1.65421 -1.01733 0
M  V30 9200 C 856.046 2.71925 -2.16042 0
M  V30 9201 C 855 2.70261 -3.31878 0
M  V30 9202 C 854.326 4.09864 -3.43388 0
M  V30 9203 C 855.626 2.30667 -4.68604 0
M  V30 9204 H 857.32 1.06709 -2.79738 0
M  V30 9205 H 854.866 0.511884 -1.34595 0
M  V30 9206 H 856.819 3.46992 -2.39113 0
M  V30 9207 H 855.543 3.02523 -1.23074 0
M  V30 9208 H 854.202 1.97651 -3.08755 0
M  V30 9209 H 853.85 4.37664 -2.47909 0
M  V30 9210 H 853.55 4.09648 -4.21262 0
M  V30 9211 H 855.074 4.86689 -3.68736 0
M  V30 9212 H 856.488 2.95453 -4.91305 0
M  V30 9213 H 854.885 2.41637 -5.49301 0
M  V30 9214 H 855.955 1.25793 -4.68299 0
M  V30 9215 N 857.298 1.47698 0.54982 0
M  V30 9216 C 858.709 1.48474 1.13191 0
M  V30 9217 C 859.06 0.243504 1.94683 0
M  V30 9218 O 858.185 -0.651009 2.06375 0
M  V30 9219 C 858.78 2.69022 2.05944 0
M  V30 9220 C 857.339 2.72733 2.5941 0
M  V30 9221 C 856.486 2.41691 1.35944 0
M  V30 9222 H 859.437 1.55101 0.336048 0
M  V30 9223 H 859.458 2.46412 2.89934 0
M  V30 9224 H 858.97 3.59345 1.46605 0
M  V30 9225 H 857.071 1.86568 3.22526 0
M  V30 9226 H 857.184 3.73628 2.99899 0
M  V30 9227 H 855.548 1.92428 1.66864 0
M  V30 9228 H 856.331 3.34231 0.783869 0
M  V30 9229 N 858.776 -0.797141 1.35954 0
M  V30 9230 C 859.724 -1.93084 1.29697 0
M  V30 9231 C 860.718 -1.68329 0.190152 0
M  V30 9232 O 861.924 -1.7643 0.3567 0
M  V30 9233 H 858.299 -0.634531 0.403577 0
M  V30 9234 H 860.27 -1.95481 2.25455 0
M  V30 9235 C 859.019 -3.29996 1.09536 0
M  V30 9236 H 858.342 -3.49607 1.93946 0
M  V30 9237 H 859.782 -4.09696 1.09202 0
M  V30 9238 C 858.241 -3.36304 -0.200381 0
M  V30 9239 O 858.771 -3.83579 -1.19291 0
M  V30 9240 N 856.977 -2.89587 -0.242406 0
M  V30 9241 H 856.524 -2.51307 0.565897 0
M  V30 9242 H 856.482 -2.94189 -1.10906 0
M  V30 9243 N 860.254 -1.20106 -1.0204 0
M  V30 9244 C 861.501 -1.00889 -1.75578 0
M  V30 9245 C 861.829 0.459415 -1.88996 0
M  V30 9246 O 861.084 1.35735 -1.40977 0
M  V30 9247 C 861.383 -1.63308 -3.17908 0
M  V30 9248 C 861.049 -3.13091 -3.24476 0
M  V30 9249 C 859.711 -3.53968 -3.25976 0
M  V30 9250 C 862.063 -4.09093 -3.22944 0
M  V30 9251 C 859.391 -4.89381 -3.2361 0
M  V30 9252 C 861.743 -5.44447 -3.22119 0
M  V30 9253 C 860.407 -5.84742 -3.2192 0
M  V30 9254 H 859.677 -0.36918 -0.642485 0
M  V30 9255 H 862.324 -1.49475 -1.19706 0
M  V30 9256 H 860.629 -1.06974 -3.76914 0
M  V30 9257 H 862.326 -1.45958 -3.73493 0
M  V30 9258 H 858.916 -2.80526 -3.24042 0
M  V30 9259 H 863.1 -3.78549 -3.20958 0
M  V30 9260 H 858.356 -5.1987 -3.21785 0
M  V30 9261 H 862.53 -6.18584 -3.19885 0
M  V30 9262 H 860.157 -6.89642 -3.19841 0
M  V30 9263 N 861.732 1.21287 -1.00634 0
M  V30 9264 C 862.682 2.21541 -0.53886 0
M  V30 9265 C 863.666 1.55842 0.400256 0
M  V30 9266 O 864.858 1.75566 0.224889 0
M  V30 9267 C 861.987 3.43047 0.131796 0
M  V30 9268 C 861.073 4.1593 -0.828419 0
M  V30 9269 N 861.464 4.65359 -1.98178 0
M  V30 9270 C 859.762 4.41281 -0.647083 0
M  V30 9271 C 860.463 5.21079 -2.58557 0
M  V30 9272 N 859.439 5.10531 -1.86705 0
M  V30 9273 H 863.241 2.57413 -1.41831 0
M  V30 9274 H 860.755 1.37109 -0.870338 0
M  V30 9275 H 862.752 4.14079 0.484178 0
M  V30 9276 H 861.412 3.08683 1.00721 0
M  V30 9277 H 862.423 4.60896 -2.3621 0
M  V30 9278 H 859.1 4.17107 0.181139 0
M  V30 9279 H 860.49 5.6977 -3.56107 0
M  V30 9280 N 863.21 0.781244 1.36873 0
M  V30 9281 C 864.142 0.132075 2.28819 0
M  V30 9282 C 865.155 -0.653925 1.49089 0
M  V30 9283 O 866.344 -0.490453 1.7163 0
M  V30 9284 C 863.444 -0.836297 3.28419 0
M  V30 9285 C 862.617 -0.102097 4.37281 0
M  V30 9286 C 861.676 -0.985217 5.16894 0
M  V30 9287 O 860.702 -0.445478 5.67454 0
M  V30 9288 N 861.904 -2.31043 5.3254 0
M  V30 9289 H 864.669 0.921838 2.85171 0
M  V30 9290 H 862.23 0.634427 1.48952 0
M  V30 9291 H 864.222 -1.43074 3.78566 0
M  V30 9292 H 862.792 -1.52698 2.72767 0
M  V30 9293 H 862.012 0.67335 3.88407 0
M  V30 9294 H 863.3 0.404862 5.07187 0
M  V30 9295 H 862.698 -2.77318 4.93063 0
M  V30 9296 H 861.255 -2.85472 5.8596 0
M  V30 9297 N 864.689 -1.48329 0.532571 0
M  V30 9298 C 865.652 -2.2816 -0.218069 0
M  V30 9299 C 866.652 -1.35526 -0.865409 0
M  V30 9300 O 867.842 -1.58394 -0.725061 0
M  V30 9301 C 864.974 -3.1448 -1.31586 0
M  V30 9302 H 866.167 -2.95987 0.482865 0
M  V30 9303 H 863.72 -1.53612 0.288603 0
M  V30 9304 H 864.455 -2.5129 -2.04997 0
M  V30 9305 H 864.24 -3.82625 -0.856779 0
M  V30 9306 H 865.73 -3.74693 -1.84377 0
M  V30 9307 N 866.167 -0.267825 -1.55308 0
M  V30 9308 C 867.392 0.357487 -2.04296 0
M  V30 9309 C 867.817 1.49222 -1.14518 0
M  V30 9310 O 867.175 1.80741 -0.142292 0
M  V30 9311 C 867.223 0.822899 -3.51085 0
M  V30 9312 O 866.327 1.93078 -3.6441 0
M  V30 9313 H 865.668 0.075025 -0.659748 0
M  V30 9314 H 868.198 -0.399996 -2.00652 0
M  V30 9315 H 868.208 1.12059 -3.92309 0
M  V30 9316 H 866.883 -0.0073562 -4.15899 0
M  V30 9317 H 865.46 1.63618 -3.35087 0
M  V30 9318 N 867.645 1.57599 0.00500368 0
M  V30 9319 C 868.575 2.11143 0.99705 0
M  V30 9320 C 869.556 1.0194 1.3617 0
M  V30 9321 O 870.741 1.29596 1.44632 0
M  V30 9322 C 867.871 2.61062 2.2905 0
M  V30 9323 C 866.825 3.74745 2.0676 0
M  V30 9324 C 866.151 4.10961 3.42075 0
M  V30 9325 C 867.451 5.02222 1.43424 0
M  V30 9326 H 869.145 2.94281 0.551251 0
M  V30 9327 H 866.691 1.41565 0.263715 0
M  V30 9328 H 868.644 2.97146 2.98801 0
M  V30 9329 H 867.368 1.75038 2.75734 0
M  V30 9330 H 866.027 3.39047 1.39436 0
M  V30 9331 H 865.675 3.21968 3.86453 0
M  V30 9332 H 865.375 4.87549 3.27979 0
M  V30 9333 H 866.899 4.49599 4.1315 0
M  V30 9334 H 868.313 5.36109 2.03125 0
M  V30 9335 H 866.71 5.83581 1.39831 0
M  V30 9336 H 867.78 4.83224 0.40285 0
M  V30 9337 N 869.123 -0.277682 1.55134 0
M  V30 9338 C 870.055 -1.36531 1.84098 0
M  V30 9339 C 871.068 -1.45756 0.725194 0
M  V30 9340 O 872.257 -1.47656 1.00299 0
M  V30 9341 C 869.357 -2.74701 1.98476 0
M  V30 9342 C 868.53 -2.88125 3.29094 0
M  V30 9343 C 867.589 -4.0694 3.33596 0
M  V30 9344 O 866.615 -3.9792 4.06999 0
M  V30 9345 N 867.817 -5.18687 2.60661 0
M  V30 9346 H 870.582 -1.12032 2.77973 0
M  V30 9347 H 868.143 -0.467793 1.54995 0
M  V30 9348 H 870.135 -3.52471 1.98863 0
M  V30 9349 H 868.705 -2.92043 1.11488 0
M  V30 9350 H 867.925 -1.97277 3.41285 0
M  V30 9351 H 869.213 -2.94021 4.15246 0
M  V30 9352 H 868.611 -5.28901 2.00699 0
M  V30 9353 H 867.168 -5.94705 2.66776 0
M  V30 9354 N 870.601 -1.47988 -0.541979 0
M  V30 9355 C 871.534 -1.56172 -1.66389 0
M  V30 9356 C 872.512 -0.412879 -1.57271 0
M  V30 9357 O 873.696 -0.622816 -1.77914 0
M  V30 9358 C 870.823 -1.47851 -3.04726 0
M  V30 9359 C 869.869 -2.67428 -3.32242 0
M  V30 9360 S 870.702 -4.29502 -3.19825 0
M  V30 9361 C 871.858 -4.2376 -4.60628 0
M  V30 9362 H 872.091 -2.51086 -1.59195 0
M  V30 9363 H 869.624 -1.36373 -0.724005 0
M  V30 9364 H 871.582 -1.43738 -3.84512 0
M  V30 9365 H 870.243 -0.542958 -3.09372 0
M  V30 9366 H 869.436 -2.57711 -4.33129 0
M  V30 9367 H 869.038 -2.68743 -2.60103 0
M  V30 9368 H 871.33 -3.92953 -5.51901 0
M  V30 9369 H 872.273 -5.24786 -4.75401 0
M  V30 9370 H 872.681 -3.54398 -4.39389 0
M  V30 9371 N 872.079 0.78992 -1.36375 0
M  V30 9372 C 873.304 1.58389 -1.33895 0
M  V30 9373 C 873.729 1.8794 0.0774934 0
M  V30 9374 O 873.087 1.4785 1.0493 0
M  V30 9375 C 873.135 2.88201 -2.16732 0
M  V30 9376 O 872.239 3.81778 -1.55946 0
M  V30 9377 H 871.58 0.480471 -0.458305 0
M  V30 9378 H 874.11 0.979119 -1.79651 0
M  V30 9379 H 874.12 3.37475 -2.29292 0
M  V30 9380 H 872.795 2.66019 -3.19698 0
M  V30 9381 H 871.372 3.40371 -1.52323 0
M  V30 9382 N 873.557 1.20646 1.01402 0
M  V30 9383 C 874.806 1.01242 1.7445 0
M  V30 9384 C 875.119 -0.455732 1.90217 0
M  V30 9385 O 876.325 -0.768951 2.60383 0
M  V30 9386 C 874.781 1.76275 3.13776 0
M  V30 9387 C 874.389 3.27201 3.06013 0
M  V30 9388 C 876.133 1.65248 3.91016 0
M  V30 9389 C 874.04 3.9476 4.40362 0
M  V30 9390 H 872.97 0.375202 0.654018 0
M  V30 9391 H 875.621 1.44292 1.13367 0
M  V30 9392 H 874.003 1.26013 3.75415 0
M  V30 9393 H 875.177 3.84695 2.53665 0
M  V30 9394 H 873.492 3.38669 2.42265 0
M  V30 9395 H 876.089 2.13061 4.90417 0
M  V30 9396 H 876.432 0.609128 4.1182 0
M  V30 9397 H 876.965 2.12937 3.3601 0
M  V30 9398 H 873.704 4.99258 4.24761 0
M  V30 9399 H 873.224 3.42054 4.92706 0
M  V30 9400 H 874.903 3.99159 5.09196 0
M  V30 9401 N 875.035 -1.20752 1.01276 0
M  V30 9402 C 876.263 -1.94006 0.718976 0
M  V30 9403 C 876.678 -1.74544 -0.719711 0
M  V30 9404 O 876.035 -1.05697 -1.48776 0
M  V30 9405 C 876.086 -3.46208 1.04031 0
M  V30 9406 O 875.807 -3.65031 2.42248 0
M  V30 9407 C 877.308 -4.36614 0.767032 0
M  V30 9408 H 874.528 -0.616743 0.264327 0
M  V30 9409 H 877.072 -1.53352 1.3529 0
M  V30 9410 H 875.227 -3.84756 0.451852 0
M  V30 9411 H 875.641 -4.59054 2.53712 0
M  V30 9412 H 877.115 -5.42076 1.04198 0
M  V30 9413 H 877.592 -4.38182 -0.298851 0
M  V30 9414 H 878.198 -4.03723 1.33746 0
M  V30 9415 N 876.513 -0.788492 -1.36457 0
M  V30 9416 C 877.759 -0.370067 -2.00005 0
M  V30 9417 C 878.114 1.0464 -1.61456 0
M  V30 9418 O 877.407 1.71277 -0.85876 0
M  V30 9419 C 877.601 -0.470255 -3.54293 0
M  V30 9420 C 877.43 -1.89492 -4.07827 0
M  V30 9421 C 876.2 -2.51932 -4.38016 0
M  V30 9422 C 878.398 -2.85692 -4.2765 0
M  V30 9423 N 876.38 -3.85997 -4.77368 0
M  V30 9424 C 877.751 -4.04588 -4.69796 0
M  V30 9425 C 879.806 -2.8276 -4.09818 0
M  V30 9426 C 878.509 -5.2096 -4.95977 0
M  V30 9427 C 880.535 -3.98319 -4.37145 0
M  V30 9428 C 879.897 -5.1596 -4.79547 0
M  V30 9429 H 875.996 -0.182813 -0.760331 0
M  V30 9430 H 878.58 -1.02589 -1.6548 0
M  V30 9431 H 876.751 0.155476 -3.88089 0
M  V30 9432 H 878.483 -0.0281643 -4.0469 0
M  V30 9433 H 875.238 -2.0342 -4.27688 0
M  V30 9434 H 875.662 -4.54971 -5.01329 0
M  V30 9435 H 880.304 -1.92971 -3.76194 0
M  V30 9436 H 878.022 -6.11335 -5.28483 0
M  V30 9437 H 881.608 -3.97411 -4.24919 0
M  V30 9438 H 880.488 -6.03893 -5.00283 0
M  V30 9439 N 877.991 1.48044 -0.54043 0
M  V30 9440 C 878.923 2.2779 0.253854 0
M  V30 9441 C 879.936 1.35999 0.894883 0
M  V30 9442 O 881.125 1.60963 0.771563 0
M  V30 9443 C 878.225 3.09724 1.37566 0
M  V30 9444 C 877.398 4.29364 0.83459 0
M  V30 9445 C 876.457 4.93026 1.83881 0
M  V30 9446 O 875.483 5.51927 1.39159 0
M  V30 9447 N 876.685 4.86207 3.17149 0
M  V30 9448 H 879.45 2.96597 -0.430125 0
M  V30 9449 H 877.011 1.57487 -0.375423 0
M  V30 9450 H 879.003 3.49181 2.04584 0
M  V30 9451 H 877.573 2.43269 1.96314 0
M  V30 9452 H 876.793 3.94198 -0.0118878 0
M  V30 9453 H 878.081 5.06787 0.452155 0
M  V30 9454 H 877.479 4.39523 3.56141 0
M  V30 9455 H 876.036 5.29733 3.79771 0
M  V30 9456 N 879.47 0.276058 1.55163 0
M  V30 9457 C 880.4 -0.604633 2.25536 0
M  V30 9458 C 881.381 -1.15813 1.24585 0
M  V30 9459 O 882.566 -1.1921 1.53306 0
M  V30 9460 C 879.696 -1.78836 2.97716 0
M  V30 9461 C 878.65 -1.36635 4.05604 0
M  V30 9462 C 877.976 -2.63325 4.65364 0
M  V30 9463 C 879.276 -0.515858 5.19746 0
M  V30 9464 H 880.97 -0.0177483 2.99395 0
M  V30 9465 H 878.516 -0.00709627 1.43998 0
M  V30 9466 H 880.469 -2.41036 3.45658 0
M  V30 9467 H 879.193 -2.40109 2.21394 0
M  V30 9468 H 877.852 -0.767541 3.58475 0
M  V30 9469 H 877.5 -3.22858 3.85709 0
M  V30 9470 H 877.2 -2.358 5.38212 0
M  V30 9471 H 878.724 -3.26372 5.16056 0
M  V30 9472 H 880.138 -1.04289 5.63735 0
M  V30 9473 H 878.535 -0.335449 5.99162 0
M  V30 9474 H 879.605 0.465137 4.82664 0
M  V30 9475 N 880.948 -1.576 0.00335426 0
M  V30 9476 C 882.196 -1.90336 -0.679446 0
M  V30 9477 C 882.517 -0.877777 -1.74127 0
M  V30 9478 O 881.787 0.0843585 -1.95718 0
M  V30 9479 H 880.367 -0.702509 -0.253948 0
M  V30 9480 H 883.029 -1.94848 0.0450731 0
M  V30 9481 H 882.125 -2.90197 -1.14857 0
M  V30 9482 N 882.426 0.269451 -1.5528 0
M  V30 9483 C 883.842 0.616827 -1.47199 0
M  V30 9484 C 884.042 1.89354 -0.68901 0
M  V30 9485 O 883.098 2.51631 -0.209287 0
M  V30 9486 C 884.411 0.740492 -2.9144 0
M  V30 9487 C 885.959 0.834312 -3.01676 0
M  V30 9488 C 886.434 0.989725 -4.47178 0
M  V30 9489 N 887.925 1.05516 -4.51022 0
M  V30 9490 C 888.66 1.19427 -5.60825 0
M  V30 9491 N 888.156 1.30035 -6.80487 0
M  V30 9492 N 889.949 1.22566 -5.48575 0
M  V30 9493 H 882.1 -0.568962 -2.04638 0
M  V30 9494 H 884.363 -0.193153 -0.928114 0
M  V30 9495 H 884.069 -0.127234 -3.5147 0
M  V30 9496 H 883.943 1.61965 -3.40657 0
M  V30 9497 H 886.33 1.6925 -2.4174 0
M  V30 9498 H 886.411 -0.0695298 -2.55705 0
M  V30 9499 H 886.055 0.136179 -5.07717 0
M  V30 9500 H 885.985 1.90827 -4.90808 0
M  V30 9501 H 888.476 0.985434 -3.64825 0
M  V30 9502 H 888.789 1.40494 -7.59922 0
M  V30 9503 H 887.134 1.27033 -6.83292 0
M  V30 9504 H 890.325 1.13911 -4.54029 0
M  V30 9505 H 890.498 1.33063 -6.34191 0
M  V30 9506 N 883.904 1.48273 0.534124 0
M  V30 9507 C 885.32 1.34302 0.862272 0
M  V30 9508 C 885.52 0.350902 1.98421 0
M  V30 9509 O 884.576 -0.229364 2.51456 0
M  V30 9510 C 885.889 2.74227 1.23371 0
M  V30 9511 C 887.437 2.82684 1.34383 0
M  V30 9512 C 887.912 4.23301 1.74871 0
M  V30 9513 N 889.403 4.25954 1.81981 0
M  V30 9514 C 890.138 5.31693 2.14686 0
M  V30 9515 N 889.634 6.47714 2.45844 0
M  V30 9516 N 891.427 5.19084 2.15657 0
M  V30 9517 H 883.578 2.11397 -0.206215 0
M  V30 9518 H 885.841 0.947537 -0.0296116 0
M  V30 9519 H 885.547 3.48368 0.482967 0
M  V30 9520 H 885.421 3.07485 2.18478 0
M  V30 9521 H 887.808 2.08801 2.08534 0
M  V30 9522 H 887.889 2.5305 0.374063 0
M  V30 9523 H 887.533 4.97699 1.01282 0
M  V30 9524 H 887.463 4.50376 2.7289 0
M  V30 9525 H 889.954 3.42266 1.60196 0
M  V30 9526 H 890.267 7.2414 2.69892 0
M  V30 9527 H 888.612 6.50995 2.43372 0
M  V30 9528 H 891.803 4.27463 1.9077 0
M  V30 9529 H 891.976 6.01592 2.40813 0
M  V30 9530 N 885.382 -0.782676 1.36792 0
M  V30 9531 C 886.314 -1.9044 1.27536 0
M  V30 9532 C 887.327 -1.61647 0.193426 0
M  V30 9533 O 888.516 -1.72769 0.448692 0
M  V30 9534 C 885.616 -3.2541 0.946641 0
M  V30 9535 C 884.789 -3.81932 2.13183 0
M  V30 9536 C 883.848 -4.95355 1.7751 0
M  V30 9537 O 882.874 -5.11517 2.49678 0
M  V30 9538 N 884.076 -5.76108 0.712755 0
M  V30 9539 H 886.841 -1.98899 2.24186 0
M  V30 9540 H 884.402 -0.96127 1.30274 0
M  V30 9541 H 886.394 -3.98791 0.689043 0
M  V30 9542 H 884.964 -3.12524 0.0690591 0
M  V30 9543 H 884.184 -3.00459 2.55183 0
M  V30 9544 H 885.472 -4.16426 2.92347 0
M  V30 9545 H 884.87 -5.65586 0.113662 0
M  V30 9546 H 883.427 -6.49762 0.514995 0
M  V30 9547 N 886.86 -1.21182 -1.00761 0
M  V30 9548 C 888.271 -1.02652 -1.55947 0
M  V30 9549 C 888.622 0.414466 -1.91772 0
M  V30 9550 O 887.747 1.29727 -1.73204 0
M  V30 9551 C 888.342 -1.85713 -2.83366 0
M  V30 9552 C 886.901 -1.71523 -3.35048 0
M  V30 9553 C 886.048 -1.83087 -2.08265 0
M  V30 9554 H 888.999 -1.35242 -0.830379 0
M  V30 9555 H 889.02 -1.36583 -3.55141 0
M  V30 9556 H 888.532 -2.90584 -2.5726 0
M  V30 9557 H 886.633 -0.693257 -3.66094 0
M  V30 9558 H 886.746 -2.53333 -4.06644 0
M  V30 9559 H 885.11 -1.26367 -2.21141 0
M  V30 9560 H 885.893 -2.8946 -1.84575 0
M  V30 9561 N 888.338 1.20213 -1.01915 0
M  V30 9562 C 889.584 1.89928 -0.711007 0
M  V30 9563 C 889.917 1.7881 0.75767 0
M  V30 9564 O 889.192 1.17399 1.55073 0
M  V30 9565 C 889.475 3.41225 -1.15053 0
M  V30 9566 C 889.328 3.61264 -2.67971 0
M  V30 9567 C 890.647 4.34108 -0.72377 0
M  V30 9568 H 887.766 0.689702 -0.259768 0
M  V30 9569 H 890.408 1.41557 -1.26734 0
M  V30 9570 H 888.558 3.82552 -0.677199 0
M  V30 9571 H 890.23 3.29173 -3.23176 0
M  V30 9572 H 888.473 3.04647 -3.08824 0
M  V30 9573 H 889.144 4.67331 -2.93779 0
M  V30 9574 H 891.62 4.00442 -1.13073 0
M  V30 9575 H 890.496 5.38581 -1.05931 0
M  V30 9576 H 890.757 4.40512 0.374424 0
M  V30 9577 N 889.816 0.795718 1.36037 0
M  V30 9578 C 890.749 0.144269 2.27744 0
M  V30 9579 C 891.727 -0.683351 1.47543 0
M  V30 9580 O 892.911 -0.652976 1.76829 0
M  V30 9581 C 890.038 -0.800944 3.29094 0
M  V30 9582 C 889.084 -0.0543234 4.26465 0
M  V30 9583 S 889.917 1.27426 5.20118 0
M  V30 9584 C 891.073 0.333213 6.25012 0
M  V30 9585 H 891.306 0.921827 2.82648 0
M  V30 9586 H 888.839 0.590241 1.42673 0
M  V30 9587 H 890.797 -1.34082 3.87985 0
M  V30 9588 H 889.458 -1.5518 2.7309 0
M  V30 9589 H 888.651 -0.771788 4.98056 0
M  V30 9590 H 888.253 0.415264 3.71687 0
M  V30 9591 H 890.545 -0.485604 6.75757 0
M  V30 9592 H 891.488 1.01798 7.00744 0
M  V30 9593 H 891.896 -0.066256 5.64461 0
M  V30 9594 N 891.294 -1.47756 0.548274 0
M  V30 9595 C 892.54 -2.02789 0.0209265 0
M  V30 9596 C 892.873 -1.42268 -1.32187 0
M  V30 9597 O 892.148 -0.575001 -1.85806 0
M  V30 9598 C 892.431 -3.60007 -0.0816674 0
M  V30 9599 C 892.284 -4.30977 1.28759 0
M  V30 9600 C 893.603 -4.32777 -0.799515 0
M  V30 9601 H 890.722 -0.736944 0.00907884 0
M  V30 9602 H 893.364 -1.76282 0.708839 0
M  V30 9603 H 891.514 -3.82722 -0.667537 0
M  V30 9604 H 893.186 -4.19629 1.91597 0
M  V30 9605 H 891.429 -3.9168 1.86466 0
M  V30 9606 H 892.1 -5.39488 1.16861 0
M  V30 9607 H 894.576 -4.15001 -0.30216 0
M  V30 9608 H 893.452 -5.42431 -0.840239 0
M  V30 9609 H 893.713 -4.01358 -1.85375 0
M  V30 9610 N 892.772 -0.284283 -1.55015 0
M  V30 9611 C 893.735 0.586182 -2.21577 0
M  V30 9612 C 894.735 1.07427 -1.1965 0
M  V30 9613 O 895.925 0.972977 -1.44495 0
M  V30 9614 C 893.057 1.80973 -2.88897 0
M  V30 9615 H 894.25 0.00487253 -2.999 0
M  V30 9616 H 891.803 -0.0349696 -1.56261 0
M  V30 9617 H 892.538 2.43131 -2.14611 0
M  V30 9618 H 892.323 1.46757 -3.636 0
M  V30 9619 H 893.813 2.42853 -3.39724 0
M  V30 9620 N 894.251 1.57596 -0.0117121 0
M  V30 9621 C 895.497 1.91355 0.671661 0
M  V30 9622 C 895.83 0.886818 1.72769 0
M  V30 9623 O 895.105 -0.0928813 1.94278 0
M  V30 9624 C 895.388 3.35657 1.30409 0
M  V30 9625 C 895.241 4.49055 0.2588 0
M  V30 9626 C 896.56 3.79595 2.22701 0
M  V30 9627 H 893.679 0.695893 0.242698 0
M  V30 9628 H 896.321 1.89887 -0.0654071 0
M  V30 9629 H 894.471 3.37038 1.9323 0
M  V30 9630 H 896.143 4.59809 -0.370631 0
M  V30 9631 H 894.386 4.31785 -0.417672 0
M  V30 9632 H 895.057 5.4701 0.740578 0
M  V30 9633 H 897.533 3.7984 1.69885 0
M  V30 9634 H 896.409 4.81292 2.63912 0
M  V30 9635 H 896.67 3.14118 3.11098 0
M  V30 9636 N 895.729 -0.261212 1.5542 0
M  V30 9637 C 896.977 -0.989272 1.76232 0
M  V30 9638 C 897.298 -1.86389 0.573067 0
M  V30 9639 O 896.568 -1.91526 -0.41166 0
M  V30 9640 H 895.148 -0.368256 0.64992 0
M  V30 9641 H 897.81 -0.282603 1.9284 0
M  V30 9642 H 896.906 -1.61935 2.66802 0
M  V30 9643 N 897.207 -1.48554 -0.526253 0
M  V30 9644 C 898.139 -1.59446 -1.6465 0
M  V30 9645 C 899.152 -0.478525 -1.55608 0
M  V30 9646 O 900.341 -0.74953 -1.62001 0
M  V30 9647 C 897.441 -1.51164 -3.03319 0
M  V30 9648 C 896.614 -2.77861 -3.37805 0
M  V30 9649 C 895.673 -2.62982 -4.5577 0
M  V30 9650 O 894.699 -3.36876 -4.58806 0
M  V30 9651 N 895.901 -1.72847 -5.5417 0
M  V30 9652 H 898.666 -2.56055 -1.55743 0
M  V30 9653 H 896.227 -1.45325 -0.713606 0
M  V30 9654 H 898.219 -1.389 -3.80117 0
M  V30 9655 H 896.789 -0.625147 -3.06285 0
M  V30 9656 H 896.009 -3.04663 -2.50149 0
M  V30 9657 H 897.297 -3.61908 -3.57632 0
M  V30 9658 H 896.695 -1.12022 -5.54498 0
M  V30 9659 H 895.252 -1.6652 -6.3017 0
M  V30 9660 N 898.685 0.775411 -1.37205 0
M  V30 9661 C 899.635 1.87867 -1.29189 0
M  V30 9662 C 900.619 1.59885 -0.180466 0
M  V30 9663 O 901.811 1.72077 -0.414536 0
M  V30 9664 C 898.94 3.25285 -1.09748 0
M  V30 9665 C 898.026 3.59231 -2.25419 0
M  V30 9666 N 898.417 3.64386 -3.50795 0
M  V30 9667 C 896.715 3.89375 -2.17492 0
M  V30 9668 C 897.416 3.94974 -4.27048 0
M  V30 9669 N 896.392 4.10684 -3.56146 0
M  V30 9670 H 900.194 1.90099 -2.24142 0
M  V30 9671 H 897.708 0.971667 -1.30125 0
M  V30 9672 H 899.705 4.04207 -1.02091 0
M  V30 9673 H 898.365 3.2432 -0.157083 0
M  V30 9674 H 899.376 3.46682 -3.8475 0
M  V30 9675 H 896.053 3.96254 -1.31489 0
M  V30 9676 H 897.443 4.05768 -5.35539 0
M  V30 9677 N 900.163 1.21714 1.00117 0
M  V30 9678 C 901.073 0.99597 2.12409 0
M  V30 9679 C 902.089 -0.0531431 1.73919 0
M  V30 9680 O 903.265 0.137757 2.00928 0
M  V30 9681 C 900.33 0.567593 3.42022 0
M  V30 9682 C 899.391 1.68936 3.94663 0
M  V30 9683 C 898.624 1.28133 5.1809 0
M  V30 9684 O 898.847 0.156574 5.70185 0
M  V30 9685 O 897.781 2.0947 5.64275 0
M  V30 9686 H 901.607 1.93657 2.33946 0
M  V30 9687 H 899.192 1.00236 1.10784 0
M  V30 9688 H 901.074 0.338664 4.20037 0
M  V30 9689 H 899.749 -0.34424 3.21864 0
M  V30 9690 H 898.656 1.97274 3.17858 0
M  V30 9691 H 899.989 2.57876 4.19238 0
M  V30 9692 N 901.641 -1.19671 1.02551 0
M  V30 9693 C 902.551 -2.26441 0.613329 0
M  V30 9694 C 903.567 -1.70375 -0.353339 0
M  V30 9695 O 904.743 -2.0028 -0.212064 0
M  V30 9696 C 901.808 -3.46684 -0.0329028 0
M  V30 9697 C 900.869 -4.17945 0.980837 0
M  V30 9698 C 900.102 -5.32448 0.36535 0
M  V30 9699 O 900.325 -5.64291 -0.832596 0
M  V30 9700 O 899.259 -5.92012 1.08652 0
M  V30 9701 H 903.085 -2.63932 1.50246 0
M  V30 9702 H 900.67 -1.2646 0.795502 0
M  V30 9703 H 902.552 -4.1956 -0.393395 0
M  V30 9704 H 901.227 -3.1105 -0.896089 0
M  V30 9705 H 900.134 -3.47204 1.39286 0
M  V30 9706 H 901.467 -4.57542 1.81428 0
M  V30 9707 N 903.119 -0.802921 -1.35613 0
M  V30 9708 C 904.029 -0.212177 -2.33639 0
M  V30 9709 C 905.045 0.642871 -1.61689 0
M  V30 9710 O 906.221 0.555485 -1.93588 0
M  V30 9711 C 903.286 0.632406 -3.40883 0
M  V30 9712 C 902.347 -0.242708 -4.28613 0
M  V30 9713 C 901.58 0.56166 -5.30736 0
M  V30 9714 O 901.803 1.79664 -5.41366 0
M  V30 9715 O 900.737 -0.0455387 -6.01883 0
M  V30 9716 H 904.563 -1.023 -2.85952 0
M  V30 9717 H 902.148 -0.564636 -1.38319 0
M  V30 9718 H 904.03 1.11358 -4.0642 0
M  V30 9719 H 902.705 1.42089 -2.90848 0
M  V30 9720 H 901.612 -0.77094 -3.6607 0
M  V30 9721 H 902.945 -0.995046 -4.82037 0
M  V30 9722 N 904.597 1.47463 -0.556102 0
M  V30 9723 C 905.827 2.06568 -0.0364056 0
M  V30 9724 C 906.235 1.40939 1.26225 0
M  V30 9725 O 905.578 0.499572 1.76777 0
M  V30 9726 C 905.64 3.58755 0.231278 0
M  V30 9727 C 905.304 4.46417 -0.977776 0
M  V30 9728 C 906.301 4.846 -1.88305 0
M  V30 9729 C 903.986 4.87948 -1.19214 0
M  V30 9730 C 905.98 5.63111 -2.98639 0
M  V30 9731 C 903.667 5.66224 -2.29857 0
M  V30 9732 C 904.665 6.03716 -3.194 0
M  V30 9733 O 904.353 6.80415 -4.28125 0
M  V30 9734 H 904.085 0.674675 -0.042305 0
M  V30 9735 H 906.639 1.9047 -0.768775 0
M  V30 9736 H 904.869 3.73061 1.01794 0
M  V30 9737 H 906.558 3.99884 0.696221 0
M  V30 9738 H 907.324 4.53115 -1.72949 0
M  V30 9739 H 903.203 4.58233 -0.504347 0
M  V30 9740 H 906.747 5.92293 -3.68557 0
M  V30 9741 H 902.644 5.97121 -2.45186 0
M  V30 9742 H 903.412 6.98807 -4.26159 0
M  V30 9743 N 906.075 0.2925 1.54862 0
M  V30 9744 C 907.322 -0.319263 1.99967 0
M  V30 9745 C 907.65 -1.54547 1.18092 0
M  V30 9746 O 906.905 -1.94186 0.242969 0
M  V30 9747 C 907.204 -0.728674 3.49893 0
M  V30 9748 C 906.87 0.394836 4.49168 0
M  V30 9749 C 905.532 0.703289 4.76033 0
M  V30 9750 C 907.884 1.15103 5.08331 0
M  V30 9751 C 905.212 1.77121 5.59325 0
M  V30 9752 C 907.564 2.20881 5.92785 0
M  V30 9753 C 906.228 2.52342 6.17964 0
M  V30 9754 H 905.498 -0.116827 0.731733 0
M  V30 9755 H 908.145 0.40983 1.87063 0
M  V30 9756 H 906.45 -1.53772 3.60363 0
M  V30 9757 H 908.147 -1.21305 3.82212 0
M  V30 9758 H 904.737 0.144319 4.28357 0
M  V30 9759 H 908.921 0.92599 4.87585 0
M  V30 9760 H 904.177 2.01978 5.77074 0
M  V30 9761 H 908.351 2.79939 6.37657 0
M  V30 9762 H 905.978 3.35225 6.82296 0
M  V30 9763 N 907.553 -1.57587 0.0200696 0
M  V30 9764 C 908.778 -1.96124 -0.674547 0
M  V30 9765 C 909.203 -0.896068 -1.65385 0
M  V30 9766 O 908.561 0.143925 -1.80728 0
M  V30 9767 C 908.609 -3.3376 -1.36517 0
M  V30 9768 O 907.713 -3.29483 -2.48022 0
M  V30 9769 H 907.054 -0.639719 -0.177919 0
M  V30 9770 H 909.584 -2.04447 0.0792317 0
M  V30 9771 H 909.594 -3.69785 -1.72403 0
M  V30 9772 H 908.269 -4.10832 -0.647265 0
M  V30 9773 H 906.846 -3.05162 -2.14314 0
M  V30 9774 N 909.032 0.252966 -1.55557 0
M  V30 9775 C 910.28 0.979912 -1.76754 0
M  V30 9776 C 910.601 1.86083 -0.582944 0
M  V30 9777 O 909.871 1.91742 0.401497 0
M  V30 9778 H 908.451 0.364805 -0.651864 0
M  V30 9779 H 911.113 0.272372 -1.92987 0
M  V30 9780 H 910.209 1.60518 -2.67657 0
M  V30 9781 N 910.51 1.48831 0.518367 0
M  V30 9782 C 911.921 1.50842 1.10016 0
M  V30 9783 C 912.272 0.284744 1.94123 0
M  V30 9784 O 911.397 -0.607088 2.0771 0
M  V30 9785 C 911.992 2.73329 2.00191 0
M  V30 9786 C 910.551 2.78175 2.53566 0
M  V30 9787 C 909.698 2.4452 1.30786 0
M  V30 9788 H 912.649 1.55779 0.303073 0
M  V30 9789 H 912.67 2.52506 2.84642 0
M  V30 9790 H 912.182 3.62374 1.3895 0
M  V30 9791 H 910.283 1.93368 3.18496 0
M  V30 9792 H 910.396 3.79905 2.91906 0
M  V30 9793 H 908.76 1.95924 1.62744 0
M  V30 9794 H 909.543 3.35819 0.712797 0
M  V30 9795 N 911.988 -0.768124 1.37614 0
M  V30 9796 C 912.898 -1.91249 1.35871 0
M  V30 9797 C 913.914 -1.7208 0.257786 0
M  V30 9798 O 915.09 -1.95253 0.493782 0
M  V30 9799 C 912.155 -3.26423 1.16829 0
M  V30 9800 C 911.216 -3.5822 2.36594 0
M  V30 9801 C 910.449 -4.86945 2.1845 0
M  V30 9802 O 910.672 -5.58258 1.17064 0
M  V30 9803 O 909.606 -5.17888 3.06718 0
M  V30 9804 H 913.432 -1.95671 2.32264 0
M  V30 9805 H 911.017 -0.911382 1.18382 0
M  V30 9806 H 912.899 -4.07269 1.08212 0
M  V30 9807 H 911.574 -3.22845 0.235123 0
M  V30 9808 H 910.481 -2.77594 2.50783 0
M  V30 9809 H 911.814 -3.66545 3.2849 0
M  V30 9810 N 913.466 -1.22244 -0.994698 0
M  V30 9811 C 914.877 -1.043 -1.5485 0
M  V30 9812 C 915.228 0.394102 -1.92201 0
M  V30 9813 O 914.353 1.27883 -1.74571 0
M  V30 9814 C 914.948 -1.88708 -2.8138 0
M  V30 9815 C 913.507 -1.75067 -3.3321 0
M  V30 9816 C 912.654 -1.85286 -2.06312 0
M  V30 9817 H 915.605 -1.36115 -0.815988 0
M  V30 9818 H 915.626 -1.40342 -3.53673 0
M  V30 9819 H 915.138 -2.93296 -2.54164 0
M  V30 9820 H 913.239 -0.732047 -3.65338 0
M  V30 9821 H 913.352 -2.57632 -4.03934 0
M  V30 9822 H 911.716 -1.28706 -2.19788 0
M  V30 9823 H 912.499 -2.91401 -1.81494 0
M  V30 9824 N 914.944 1.19125 -1.03184 0
M  V30 9825 C 915.891 2.2245 -0.6152 0
M  V30 9826 C 916.861 1.61869 0.372502 0
M  V30 9827 O 918.046 1.88901 0.268491 0
M  V30 9828 C 915.186 3.45091 0.0248027 0
M  V30 9829 C 914.299 4.20044 -1.0093 0
M  V30 9830 C 913.434 5.30119 -0.338744 0
M  V30 9831 C 912.473 5.96833 -1.35855 0
M  V30 9832 N 911.61 6.98464 -0.713594 0
M  V30 9833 H 916.45 2.57445 -1.50086 0
M  V30 9834 H 913.987 1.26485 -0.751005 0
M  V30 9835 H 915.945 4.15149 0.413131 0
M  V30 9836 H 914.575 3.10742 0.874028 0
M  V30 9837 H 913.627 3.48901 -1.51566 0
M  V30 9838 H 914.939 4.65796 -1.78425 0
M  V30 9839 H 914.093 6.0661 0.104269 0
M  V30 9840 H 912.832 4.85446 0.468382 0
M  V30 9841 H 911.837 5.1909 -1.81179 0
M  V30 9842 H 913.062 6.4359 -2.16722 0
M  V30 9843 H 911.008 6.55959 0.0733863 0
M  V30 9844 H 910.925 7.42422 -1.42638 0
M  V30 9845 H 912.193 7.78943 -0.294681 0
M  V30 9846 N 916.422 0.810101 1.35185 0
M  V30 9847 C 917.385 0.22852 2.28058 0
M  V30 9848 C 918.385 -0.586168 1.49735 0
M  V30 9849 O 919.575 -0.40414 1.69447 0
M  V30 9850 C 916.707 -0.681041 3.34028 0
M  V30 9851 H 917.9 1.04768 2.81005 0
M  V30 9852 H 915.453 0.58101 1.451 0
M  V30 9853 H 916.188 -1.52375 2.86273 0
M  V30 9854 H 915.973 -0.0985276 3.91976 0
M  V30 9855 H 917.463 -1.08217 4.03335 0
M  V30 9856 N 917.9 -1.47166 0.563914 0
M  V30 9857 C 919.146 -2.02756 0.0424338 0
M  V30 9858 C 919.479 -1.43662 -1.3067 0
M  V30 9859 O 918.754 -0.594676 -1.85186 0
M  V30 9860 C 919.037 -3.60074 -0.0434793 0
M  V30 9861 C 918.89 -4.29587 1.33323 0
M  V30 9862 C 920.209 -4.336 -0.753568 0
M  V30 9863 H 917.328 -0.736806 0.0168946 0
M  V30 9864 H 919.97 -1.75521 0.727496 0
M  V30 9865 H 918.12 -3.83409 -0.626906 0
M  V30 9866 H 919.792 -4.17573 1.96037 0
M  V30 9867 H 918.035 -3.8968 1.9061 0
M  V30 9868 H 918.706 -5.38218 1.22576 0
M  V30 9869 H 921.182 -4.15299 -0.258126 0
M  V30 9870 H 920.058 -5.43291 -0.782659 0
M  V30 9871 H 920.319 -4.03302 -1.81108 0
M  V30 9872 N 919.378 -0.300708 -1.54705 0
M  V30 9873 C 920.308 0.568675 -2.26469 0
M  V30 9874 C 921.289 1.13817 -1.26411 0
M  V30 9875 O 922.474 1.16756 -1.55183 0
M  V30 9876 C 919.604 1.74077 -3.00524 0
M  V30 9877 C 918.558 1.30165 -4.07727 0
M  V30 9878 C 917.884 2.55888 -4.69495 0
M  V30 9879 C 919.184 0.433106 -5.20501 0
M  V30 9880 H 920.878 -0.0298851 -2.99385 0
M  V30 9881 H 918.424 -0.0158135 -1.43991 0
M  V30 9882 H 920.377 2.35506 -3.49449 0
M  V30 9883 H 919.101 2.36556 -2.25186 0
M  V30 9884 H 917.76 0.710414 -3.59651 0
M  V30 9885 H 917.408 3.16681 -3.90797 0
M  V30 9886 H 917.108 2.27207 -5.41895 0
M  V30 9887 H 918.632 3.18121 -5.21183 0
M  V30 9888 H 920.046 0.95307 -5.65322 0
M  V30 9889 H 918.443 0.240085 -5.9962 0
M  V30 9890 H 919.513 -0.541866 -4.81863 0
M  V30 9891 N 920.856 1.57574 -0.0284266 0
M  V30 9892 C 921.803 2.10176 0.953658 0
M  V30 9893 C 922.773 1.00367 1.32347 0
M  V30 9894 O 923.958 1.27783 1.4169 0
M  V30 9895 C 921.098 2.63287 2.231 0
M  V30 9896 C 920.211 3.87102 1.91771 0
M  V30 9897 C 919.346 4.28609 3.13795 0
M  V30 9898 C 918.385 5.45184 2.78282 0
M  V30 9899 N 917.522 5.81851 3.92929 0
M  V30 9900 H 922.362 2.93806 0.498176 0
M  V30 9901 H 919.899 1.45222 0.234302 0
M  V30 9902 H 921.857 2.9217 2.97813 0
M  V30 9903 H 920.487 1.82489 2.66266 0
M  V30 9904 H 919.539 3.64952 1.07303 0
M  V30 9905 H 920.851 4.71892 1.61615 0
M  V30 9906 H 920.005 4.58925 3.96829 0
M  V30 9907 H 918.744 3.42585 3.47112 0
M  V30 9908 H 917.749 5.14563 1.93661 0
M  V30 9909 H 918.974 6.32907 2.46182 0
M  V30 9910 H 916.92 4.98782 4.2609 0
M  V30 9911 H 916.837 6.6128 3.66395 0
M  V30 9912 H 918.105 6.16772 4.76669 0
M  V30 9913 N 922.334 -0.244713 1.55689 0
M  V30 9914 C 923.281 -1.30301 1.905 0
M  V30 9915 C 924.251 -1.4772 0.759478 0
M  V30 9916 O 925.436 -1.61667 1.01333 0
M  V30 9917 C 922.576 -2.653 2.20703 0
M  V30 9918 C 921.689 -2.55872 3.48071 0
M  V30 9919 C 920.824 -3.83238 3.67834 0
M  V30 9920 C 919.863 -3.68436 4.88796 0
M  V30 9921 N 919 -4.877 5.05068 0
M  V30 9922 H 923.84 -0.999143 2.80751 0
M  V30 9923 H 921.377 -0.482099 1.38976 0
M  V30 9924 H 923.335 -3.43884 2.36219 0
M  V30 9925 H 921.965 -2.93831 1.33653 0
M  V30 9926 H 921.017 -1.68846 3.40874 0
M  V30 9927 H 922.329 -2.40845 4.36801 0
M  V30 9928 H 921.483 -4.70266 3.83321 0
M  V30 9929 H 920.222 -4.01165 2.77341 0
M  V30 9930 H 919.227 -2.79793 4.73282 0
M  V30 9931 H 920.452 -3.52003 5.8075 0
M  V30 9932 H 918.398 -5.05983 4.17513 0
M  V30 9933 H 918.315 -4.75312 5.8789 0
M  V30 9934 H 919.583 -5.76219 5.24969 0
M  V30 9935 N 923.813 -1.49104 -0.510467 0
M  V30 9936 C 925.06 -1.58112 -1.26518 0
M  V30 9937 C 925.388 -0.263603 -1.92705 0
M  V30 9938 O 924.643 0.747743 -1.80852 0
M  V30 9939 C 924.942 -2.68259 -2.36161 0
M  V30 9940 C 924.608 -4.10069 -1.87495 0
M  V30 9941 C 923.27 -4.48662 -1.73942 0
M  V30 9942 C 925.622 -4.98859 -1.5096 0
M  V30 9943 C 922.95 -5.73829 -1.22217 0
M  V30 9944 C 925.302 -6.24535 -1.00691 0
M  V30 9945 C 923.966 -6.61967 -0.857691 0
M  V30 9946 H 923.236 -0.578574 -0.462962 0
M  V30 9947 H 925.883 -1.82899 -0.567475 0
M  V30 9948 H 924.188 -2.37407 -3.11681 0
M  V30 9949 H 925.885 -2.7244 -2.9424 0
M  V30 9950 H 922.475 -3.79601 -1.99001 0
M  V30 9951 H 926.659 -4.69706 -1.60282 0
M  V30 9952 H 921.915 -6.01539 -1.09368 0
M  V30 9953 H 926.089 -6.9272 -0.71498 0
M  V30 9954 H 923.716 -7.58839 -0.454702 0
M  V30 9955 N 925.291 0.760815 -1.38019 0
M  V30 9956 C 926.707 1.06289 -1.19058 0
M  V30 9957 C 926.907 2.01471 -0.0342603 0
M  V30 9958 O 925.963 2.44713 0.62224 0
M  V30 9959 C 927.276 1.6499 -2.51394 0
M  V30 9960 C 928.824 1.77196 -2.58013 0
M  V30 9961 C 929.299 2.3931 -3.90506 0
M  V30 9962 N 930.79 2.46749 -3.92007 0
M  V30 9963 C 931.525 2.95687 -4.91281 0
M  V30 9964 N 931.021 3.44715 -6.00952 0
M  V30 9965 N 932.814 2.94661 -4.78677 0
M  V30 9966 H 924.965 0.129045 -2.12008 0
M  V30 9967 H 927.228 0.119878 -0.94039 0
M  V30 9968 H 926.934 1.0252 -3.36426 0
M  V30 9969 H 926.808 2.64146 -2.6927 0
M  V30 9970 H 929.195 2.38796 -1.7338 0
M  V30 9971 H 929.276 0.767645 -2.4401 0
M  V30 9972 H 928.92 1.78346 -4.75558 0
M  V30 9973 H 928.85 3.40369 -4.01817 0
M  V30 9974 H 931.341 2.12064 -3.12789 0
M  V30 9975 H 931.654 3.80492 -6.72641 0
M  V30 9976 H 929.999 3.42791 -6.04582 0
M  V30 9977 H 933.19 2.55665 -3.92113 0
M  V30 9978 H 933.363 3.32489 -5.56197 0
M  V30 9979 N 926.769 1.22769 0.988202 0
M  V30 9980 C 927.679 1.01844 2.11341 0
M  V30 9981 C 928.695 -0.0346937 1.73965 0
M  V30 9982 O 929.871 0.159061 2.00771 0
M  V30 9983 C 926.936 0.603837 3.41401 0
M  V30 9984 C 925.997 1.73113 3.92849 0
M  V30 9985 C 925.23 1.33621 5.16702 0
M  V30 9986 O 925.453 0.217041 5.69987 0
M  V30 9987 O 924.387 2.15444 5.62021 0
M  V30 9988 H 928.213 1.96127 2.31879 0
M  V30 9989 H 925.798 1.01405 1.09715 0
M  V30 9990 H 927.68 0.383196 4.19654 0
M  V30 9991 H 926.355 -0.310082 3.22211 0
M  V30 9992 H 925.262 2.00634 3.15748 0
M  V30 9993 H 926.595 2.62308 4.1648 0
M  V30 9994 N 928.247 -1.18576 1.03814 0
M  V30 9995 C 929.157 -2.25778 0.637311 0
M  V30 9996 C 930.173 -1.7074 -0.335248 0
M  V30 9997 O 931.349 -2.00494 -0.19081 0
M  V30 9998 C 928.414 -3.467 0.00386953 0
M  V30 9999 C 927.475 -4.16881 1.02511 0
M  V30 10000 C 926.708 -5.32031 0.421802 0
M  V30 10001 O 926.931 -5.65142 -0.772699 0
M  V30 10002 O 925.865 -5.90826 1.14925 0
M  V30 10003 H 929.691 -2.62323 1.53037 0
M  V30 10004 H 927.276 -1.25609 0.80887 0
M  V30 10005 H 929.158 -4.19953 -0.348873 0
M  V30 10006 H 927.833 -3.11983 -0.863047 0
M  V30 10007 H 926.74 -3.45707 1.4296 0
M  V30 10008 H 928.073 -4.55592 1.86271 0
M  V30 10009 N 929.725 -0.817259 -1.34754 0
M  V30 10010 C 930.655 -0.249769 -2.3216 0
M  V30 10011 C 931.636 0.630663 -1.57977 0
M  V30 10012 O 932.821 0.558719 -1.85989 0
M  V30 10013 C 929.951 0.593825 -3.42186 0
M  V30 10014 C 928.905 -0.188997 -4.27583 0
M  V30 10015 C 928.231 0.776979 -5.29025 0
M  V30 10016 C 929.531 -1.39401 -5.03354 0
M  V30 10017 H 931.225 -1.06359 -2.79872 0
M  V30 10018 H 928.771 -0.512894 -1.34556 0
M  V30 10019 H 930.724 1.00097 -4.09339 0
M  V30 10020 H 929.448 1.44064 -2.93109 0
M  V30 10021 H 928.107 -0.577445 -3.62024 0
M  V30 10022 H 927.755 1.61959 -4.76212 0
M  V30 10023 H 927.455 0.257448 -5.87036 0
M  V30 10024 H 928.979 1.18211 -5.99048 0
M  V30 10025 H 930.393 -1.06117 -5.63393 0
M  V30 10026 H 928.79 -1.84878 -5.70912 0
M  V30 10027 H 929.86 -2.17515 -4.33377 0
M  V30 10028 N 931.203 1.46865 -0.571711 0
M  V30 10029 C 932.166 2.28658 0.157499 0
M  V30 10030 C 933.166 1.37773 0.829172 0
M  V30 10031 O 934.356 1.6026 0.682811 0
M  V30 10032 C 931.488 3.17859 1.23202 0
M  V30 10033 H 932.681 2.94603 -0.561171 0
M  V30 10034 H 930.234 1.52793 -0.329229 0
M  V30 10035 H 930.969 2.56637 1.98262 0
M  V30 10036 H 930.754 3.84762 0.755031 0
M  V30 10037 H 932.244 3.7945 1.74378 0
M  V30 10038 N 932.681 0.308908 1.54543 0
M  V30 10039 C 933.644 -0.550857 2.22482 0
M  V30 10040 C 934.644 -1.0551 1.21344 0
M  V30 10041 O 935.834 -0.949866 1.46025 0
M  V30 10042 C 932.966 -1.76354 2.9174 0
M  V30 10043 H 934.159 0.0428395 2.99869 0
M  V30 10044 H 931.712 0.059825 1.56185 0
M  V30 10045 H 932.447 -2.39686 2.18451 0
M  V30 10046 H 932.232 -1.40954 3.65889 0
M  V30 10047 H 933.722 -2.37417 3.43545 0
M  V30 10048 N 934.159 -1.57557 0.0367827 0
M  V30 10049 C 935.089 -2.13712 -0.940719 0
M  V30 10050 C 936.07 -1.05515 -1.33419 0
M  V30 10051 O 937.255 -1.33385 -1.41146 0
M  V30 10052 C 934.385 -2.67043 -2.22048 0
M  V30 10053 C 933.339 -3.80096 -1.96752 0
M  V30 10054 C 932.665 -4.19886 -3.31059 0
M  V30 10055 C 933.965 -5.05848 -1.30058 0
M  V30 10056 H 935.659 -2.9564 -0.473033 0
M  V30 10057 H 933.205 -1.42214 -0.226089 0
M  V30 10058 H 935.158 -3.04964 -2.90818 0
M  V30 10059 H 933.882 -1.82287 -2.70996 0
M  V30 10060 H 932.541 -3.42625 -1.30398 0
M  V30 10061 H 932.189 -3.32101 -3.77781 0
M  V30 10062 H 931.889 -4.96073 -3.14937 0
M  V30 10063 H 933.413 -4.60395 -4.01084 0
M  V30 10064 H 934.827 -5.41306 -1.8884 0
M  V30 10065 H 933.224 -5.87084 -1.24309 0
M  V30 10066 H 934.294 -4.84122 -0.274591 0
M  V30 10067 N 935.637 0.236453 -1.55816 0
M  V30 10068 C 936.914 0.986463 -1.68903 0
M  V30 10069 C 937.294 2.02984 -0.579722 0
M  V30 10070 O 936.642 2.24693 0.415389 0
M  V30 10071 C 936.852 1.61038 -3.09625 0
M  V30 10072 C 938.2 2.10829 -3.6856 0
M  V30 10073 O 939.224 1.7096 -3.12492 0
M  V30 10074 O 938.083 2.84064 -4.66873 0
M  V30 10075 H 935.177 0.459837 -0.687371 0
M  V30 10076 H 937.723 0.229412 -1.68142 0
M  V30 10077 H 936.495 0.856232 -3.81817 0
M  V30 10078 H 936.118 2.43336 -3.14441 0
M  V30 10079 N 937.115 1.49373 0.502552 0
M  V30 10080 C 938.062 1.65927 1.60427 0
M  V30 10081 C 939.032 0.500768 1.58371 0
M  V30 10082 O 940.217 0.727606 1.76382 0
M  V30 10083 C 937.357 1.73043 2.9858 0
M  V30 10084 C 936.47 3.00187 3.10663 0
M  V30 10085 C 935.605 2.98292 4.3954 0
M  V30 10086 C 934.644 4.20022 4.4525 0
M  V30 10087 N 933.781 4.16046 5.65553 0
M  V30 10088 H 938.621 2.59998 1.45619 0
M  V30 10089 H 936.158 1.28912 0.708519 0
M  V30 10090 H 938.116 1.7515 3.78653 0
M  V30 10091 H 936.746 0.824397 3.12095 0
M  V30 10092 H 935.798 3.07699 2.23663 0
M  V30 10093 H 937.11 3.9018 3.10742 0
M  V30 10094 H 936.264 2.98953 5.27932 0
M  V30 10095 H 935.003 2.06075 4.42023 0
M  V30 10096 H 934.008 4.19607 3.5526 0
M  V30 10097 H 935.233 5.13431 4.44484 0
M  V30 10098 H 933.179 3.26665 5.68881 0
M  V30 10099 H 933.096 4.99773 5.67242 0
M  V30 10100 H 934.364 4.20807 6.56156 0
M  V30 10101 N 938.594 -0.753485 1.38421 0
M  V30 10102 C 939.504 -1.89797 1.37892 0
M  V30 10103 C 940.52 -1.71797 0.276023 0
M  V30 10104 O 941.696 -1.94718 0.514464 0
M  V30 10105 C 938.761 -3.25166 1.20284 0
M  V30 10106 C 937.822 -3.55691 2.4038 0
M  V30 10107 C 937.055 -4.84601 2.23602 0
M  V30 10108 O 937.278 -5.56985 1.22979 0
M  V30 10109 O 936.212 -5.14605 3.12194 0
M  V30 10110 H 940.038 -1.93197 2.34326 0
M  V30 10111 H 937.623 -0.898775 1.19342 0
M  V30 10112 H 939.505 -4.06099 1.12525 0
M  V30 10113 H 938.18 -3.22577 0.269352 0
M  V30 10114 H 937.087 -2.74919 2.53714 0
M  V30 10115 H 938.42 -3.6304 3.32359 0
M  V30 10116 N 940.072 -1.23292 -0.981677 0
M  V30 10117 C 941.321 -1.05832 -1.71705 0
M  V30 10118 C 941.634 0.40514 -1.91358 0
M  V30 10119 O 942.84 0.699645 -2.6233 0
M  V30 10120 C 941.296 -1.84532 -3.08992 0
M  V30 10121 C 940.904 -3.35199 -2.9723 0
M  V30 10122 C 942.648 -1.75557 -3.86497 0
M  V30 10123 C 940.555 -4.06296 -4.29741 0
M  V30 10124 H 939.485 -0.39241 -0.64384 0
M  V30 10125 H 942.136 -1.47247 -1.09502 0
M  V30 10126 H 940.518 -1.35923 -3.71942 0
M  V30 10127 H 941.692 -3.91286 -2.43377 0
M  V30 10128 H 940.007 -3.44973 -2.332 0
M  V30 10129 H 942.604 -2.25989 -4.84596 0
M  V30 10130 H 942.947 -0.718101 -4.1006 0
M  V30 10131 H 943.48 -2.21771 -3.30246 0
M  V30 10132 H 940.219 -5.10344 -4.11375 0
M  V30 10133 H 939.739 -3.54997 -4.83464 0
M  V30 10134 H 941.418 -4.12519 -4.98434 0
M  V30 10135 N 941.55 1.18024 -1.04442 0
M  V30 10136 C 942.46 2.25436 -0.649276 0
M  V30 10137 C 943.476 1.70915 0.326189 0
M  V30 10138 O 944.652 2.00592 0.180174 0
M  V30 10139 C 941.717 3.46693 -0.0222558 0
M  V30 10140 C 940.778 4.16332 -1.0472 0
M  V30 10141 C 940.011 5.31799 -0.450011 0
M  V30 10142 O 940.234 5.65544 0.742717 0
M  V30 10143 O 939.168 5.90209 -1.18056 0
M  V30 10144 H 942.994 2.61508 -1.54426 0
M  V30 10145 H 940.579 1.25178 -0.81552 0
M  V30 10146 H 942.461 4.20132 0.326597 0
M  V30 10147 H 941.136 3.12436 0.84649 0
M  V30 10148 H 940.043 3.44944 -1.44792 0
M  V30 10149 H 941.376 4.54598 -1.88684 0
M  V30 10150 N 943.028 0.824394 1.34319 0
M  V30 10151 C 944.277 0.40956 1.97498 0
M  V30 10152 C 944.59 -1.03323 1.66083 0
M  V30 10153 O 945.796 -1.55205 2.22764 0
M  V30 10154 C 944.252 0.681384 3.53391 0
M  V30 10155 C 943.86 2.1379 3.93698 0
M  V30 10156 C 945.604 0.332788 4.23194 0
M  V30 10157 C 943.511 2.35453 5.42509 0
M  V30 10158 H 942.441 0.149409 0.739049 0
M  V30 10159 H 945.092 1.01095 1.5314 0
M  V30 10160 H 943.474 0.00980375 3.95999 0
M  V30 10161 H 944.648 2.84876 3.62191 0
M  V30 10162 H 942.963 2.44807 3.36836 0
M  V30 10163 H 945.56 0.472463 5.32609 0
M  V30 10164 H 945.903 -0.722862 4.09976 0
M  V30 10165 H 946.436 0.959005 3.86067 0
M  V30 10166 H 943.175 3.39529 5.60714 0
M  V30 10167 H 942.695 1.68912 5.75525 0
M  V30 10168 H 944.374 2.17885 6.09209 0
M  V30 10169 N 944.506 -1.46559 0.579492 0
M  V30 10170 C 945.922 -1.57771 0.240921 0
M  V30 10171 C 946.122 -1.57505 -1.25676 0
M  V30 10172 O 945.178 -1.4903 -2.03829 0
M  V30 10173 C 946.491 -2.87311 0.887285 0
M  V30 10174 C 948.039 -3.00937 0.860576 0
M  V30 10175 C 948.514 -4.33208 1.48642 0
M  V30 10176 N 950.005 -4.39899 1.45062 0
M  V30 10177 C 950.74 -5.40856 1.90428 0
M  V30 10178 N 950.236 -6.48503 2.43752 0
M  V30 10179 N 952.029 -5.32037 1.81364 0
M  V30 10180 H 944.18 -1.44976 1.55228 0
M  V30 10181 H 946.443 -0.691354 0.648639 0
M  V30 10182 H 946.149 -2.93307 1.94071 0
M  V30 10183 H 946.023 -3.75141 0.393577 0
M  V30 10184 H 948.41 -2.94524 -0.184223 0
M  V30 10185 H 948.491 -2.14591 1.39227 0
M  V30 10186 H 948.135 -4.40378 2.5304 0
M  V30 10187 H 948.065 -5.18323 0.92998 0
M  V30 10188 H 950.556 -3.62706 1.0608 0
M  V30 10189 H 950.869 -7.21744 2.76234 0
M  V30 10190 H 949.214 -6.49332 2.47776 0
M  V30 10191 H 952.405 -4.46841 1.39465 0
M  V30 10192 H 952.578 -6.10573 2.17035 0
M  V30 10193 N 945.984 -0.3171 -1.54377 0
M  V30 10194 C 946.932 0.567371 -2.25574 0
M  V30 10195 C 947.926 1.12387 -1.2675 0
M  V30 10196 O 949.132 1.07266 -1.44548 0
M  V30 10197 H 945.507 0.201605 -0.724472 0
M  V30 10198 H 947.478 -0.0554644 -2.98348 0
M  V30 10199 C 946.227 1.71984 -3.02187 0
M  V30 10200 H 945.55 1.30086 -3.78044 0
M  V30 10201 H 946.99 2.31443 -3.5526 0
M  V30 10202 C 945.449 2.6336 -2.10103 0
M  V30 10203 O 945.979 3.64899 -1.67962 0
M  V30 10204 N 944.185 2.3145 -1.75725 0
M  V30 10205 H 943.732 1.48921 -2.10191 0
M  V30 10206 H 943.69 2.92852 -1.14391 0
M  V30 10207 N 947.462 1.57535 -0.0451378 0
M  V30 10208 C 948.425 2.1008 0.916461 0
M  V30 10209 C 949.425 1.01913 1.2438 0
M  V30 10210 O 950.615 1.2801 1.18148 0
M  V30 10211 C 947.747 2.58001 2.22818 0
M  V30 10212 H 948.94 2.96334 0.461076 0
M  V30 10213 H 946.493 1.54974 0.203169 0
M  V30 10214 H 947.228 1.75123 2.72951 0
M  V30 10215 H 947.013 3.3704 2.00366 0
M  V30 10216 H 948.503 2.98822 2.9171 0
M  V30 10217 N 948.94 -0.228186 1.55939 0
M  V30 10218 C 949.887 -1.28274 1.91871 0
M  V30 10219 C 950.857 -1.46906 0.775103 0
M  V30 10220 O 952.042 -1.60583 1.03042 0
M  V30 10221 C 949.182 -2.62945 2.23504 0
M  V30 10222 C 948.295 -2.52166 3.50766 0
M  V30 10223 C 947.43 -3.79316 3.71878 0
M  V30 10224 C 946.469 -3.63231 4.92676 0
M  V30 10225 N 945.606 -4.82315 5.10212 0
M  V30 10226 H 950.446 -0.96931 2.81795 0
M  V30 10227 H 947.983 -0.467331 1.39479 0
M  V30 10228 H 949.941 -3.41359 2.39854 0
M  V30 10229 H 948.571 -2.92397 1.36762 0
M  V30 10230 H 947.623 -1.65221 3.42646 0
M  V30 10231 H 948.935 -2.36199 4.39331 0
M  V30 10232 H 948.089 -4.66173 3.88288 0
M  V30 10233 H 946.828 -3.982 2.81581 0
M  V30 10234 H 945.833 -2.74757 4.76223 0
M  V30 10235 H 947.058 -3.45823 5.84451 0
M  V30 10236 H 945.004 -5.01526 4.22856 0
M  V30 10237 H 944.921 -4.6905 5.92898 0
M  V30 10238 H 946.189 -5.70618 5.31051 0
M  V30 10239 N 950.418 -1.49637 -0.494624 0
M  V30 10240 C 951.348 -1.69692 -1.60396 0
M  V30 10241 C 952.329 -0.545648 -1.61111 0
M  V30 10242 O 953.514 -0.782202 -1.77751 0
M  V30 10243 C 950.644 -1.76934 -2.9885 0
M  V30 10244 C 949.598 -2.91915 -3.13001 0
M  V30 10245 C 948.924 -2.84276 -4.5287 0
M  V30 10246 C 950.224 -4.32764 -2.92426 0
M  V30 10247 H 951.918 -2.6257 -1.43866 0
M  V30 10248 H 949.464 -1.26355 -0.690679 0
M  V30 10249 H 951.417 -1.8955 -3.76362 0
M  V30 10250 H 950.141 -0.806609 -3.16483 0
M  V30 10251 H 948.8 -2.78911 -2.37916 0
M  V30 10252 H 948.448 -1.85897 -4.67388 0
M  V30 10253 H 948.148 -3.61452 -4.63278 0
M  V30 10254 H 949.672 -2.98909 -5.32434 0
M  V30 10255 H 951.086 -4.46415 -3.59703 0
M  V30 10256 H 949.483 -5.1121 -3.143 0
M  V30 10257 H 950.553 -4.46765 -1.88491 0
M  V30 10258 N 951.896 0.746133 -1.38819 0
M  V30 10259 C 953.173 1.49652 -1.25951 0
M  V30 10260 C 953.553 2.10663 0.135833 0
M  V30 10261 O 952.901 1.97682 1.14604 0
M  V30 10262 C 953.111 2.5569 -2.37537 0
M  V30 10263 C 954.459 3.22385 -2.76321 0
M  V30 10264 O 955.483 2.65998 -2.36904 0
M  V30 10265 O 954.342 4.2439 -3.44319 0
M  V30 10266 H 951.436 0.664019 -0.492958 0
M  V30 10267 H 953.982 0.780908 -1.50665 0
M  V30 10268 H 952.754 2.08908 -3.30867 0
M  V30 10269 H 952.377 3.34823 -2.14427 0
M  V30 10270 N 953.375 1.23811 0.975125 0
M  V30 10271 C 954.308 0.967173 2.06691 0
M  V30 10272 C 955.286 -0.09642 1.62314 0
M  V30 10273 O 956.47 0.0389532 1.8846 0
M  V30 10274 C 953.597 0.458094 3.35588 0
M  V30 10275 C 952.643 1.5091 3.98909 0
M  V30 10276 S 953.476 3.08815 4.37485 0
M  V30 10277 C 954.632 2.59591 5.69529 0
M  V30 10278 H 954.865 1.89166 2.29355 0
M  V30 10279 H 952.398 1.07113 1.11203 0
M  V30 10280 H 954.356 0.170991 4.10144 0
M  V30 10281 H 953.017 -0.445562 3.10924 0
M  V30 10282 H 952.21 1.10315 4.91779 0
M  V30 10283 H 951.812 1.74582 3.30752 0
M  V30 10284 H 954.104 2.0194 6.46704 0
M  V30 10285 H 955.047 3.51021 6.14971 0
M  V30 10286 H 955.455 2.00267 5.27782 0
M  V30 10287 N 954.853 -1.17469 1.05066 0
M  V30 10288 C 956.264 -1.69334 0.786304 0
M  V30 10289 C 956.615 -1.83604 -0.691671 0
M  V30 10290 O 955.74 -1.52269 -1.53763 0
M  V30 10291 C 956.335 -3.07572 1.42074 0
M  V30 10292 C 954.894 -3.56609 1.20446 0
M  V30 10293 C 954.041 -2.329 1.50508 0
M  V30 10294 H 956.992 -1.02003 1.21577 0
M  V30 10295 H 957.013 -3.71352 0.829334 0
M  V30 10296 H 956.525 -2.97154 2.49642 0
M  V30 10297 H 954.626 -3.72306 0.147968 0
M  V30 10298 H 954.739 -4.39446 1.90852 0
M  V30 10299 H 953.103 -2.37305 0.925124 0
M  V30 10300 H 953.886 -2.25093 2.59207 0
M  V30 10301 N 956.331 -0.831506 -1.3388 0
M  V30 10302 C 957.561 -0.436292 -2.01941 0
M  V30 10303 C 957.969 0.964979 -1.62741 0
M  V30 10304 O 957.312 1.63733 -0.832894 0
M  V30 10305 C 957.374 -0.468811 -3.5643 0
M  V30 10306 C 957.038 -1.82491 -4.18982 0
M  V30 10307 C 958.035 -2.78705 -4.38885 0
M  V30 10308 C 955.72 -2.11574 -4.55568 0
M  V30 10309 C 957.714 -4.02168 -4.94509 0
M  V30 10310 C 955.401 -3.35296 -5.10901 0
M  V30 10311 C 956.399 -4.3041 -5.30317 0
M  V30 10312 O 956.087 -5.51944 -5.84477 0
M  V30 10313 H 955.819 -0.172335 -0.653664 0
M  V30 10314 H 958.373 -1.12354 -1.71947 0
M  V30 10315 H 956.603 0.275179 -3.8572 0
M  V30 10316 H 958.292 -0.0924518 -4.05795 0
M  V30 10317 H 959.058 -2.57534 -4.10976 0
M  V30 10318 H 954.937 -1.38338 -4.39754 0
M  V30 10319 H 958.481 -4.76418 -5.09579 0
M  V30 10320 H 954.378 -3.56326 -5.3824 0
M  V30 10321 H 955.146 -5.53582 -6.029 0
M  V30 10322 N 957.809 1.4625 -0.587256 0
M  V30 10323 C 958.719 2.34147 0.145744 0
M  V30 10324 C 959.735 1.50026 0.881376 0
M  V30 10325 O 960.911 1.82884 0.843539 0
M  V30 10326 C 957.976 3.27294 1.14366 0
M  V30 10327 C 957.037 4.27317 0.412199 0
M  V30 10328 C 956.27 5.16013 1.36257 0
M  V30 10329 O 956.493 5.0773 2.59934 0
M  V30 10330 O 955.427 5.95569 0.870681 0
M  V30 10331 H 959.253 2.98187 -0.576055 0
M  V30 10332 H 956.838 1.45299 -0.347628 0
M  V30 10333 H 958.72 3.84747 1.71894 0
M  V30 10334 H 957.395 2.65845 1.84684 0
M  V30 10335 H 956.302 3.73538 -0.205036 0
M  V30 10336 H 957.635 4.91564 -0.250104 0
M  V30 10337 N 959.287 0.325282 1.54207 0
M  V30 10338 C 960.517 -0.278285 2.04717 0
M  V30 10339 C 960.925 -1.46198 1.20095 0
M  V30 10340 O 960.268 -1.82319 0.224813 0
M  V30 10341 C 960.33 -0.774387 3.51061 0
M  V30 10342 C 959.994 0.287225 4.56096 0
M  V30 10343 C 960.991 1.12388 5.07607 0
M  V30 10344 C 958.676 0.435908 5.00405 0
M  V30 10345 C 960.67 2.09492 6.0199 0
M  V30 10346 C 958.357 1.41037 5.94602 0
M  V30 10347 C 959.355 2.23834 6.45281 0
M  V30 10348 O 959.043 3.19625 7.37628 0
M  V30 10349 H 958.775 -0.0608309 0.673257 0
M  V30 10350 H 961.329 0.470049 1.99949 0
M  V30 10351 H 959.559 -1.57366 3.53232 0
M  V30 10352 H 961.248 -1.29649 3.84637 0
M  V30 10353 H 962.014 1.02 4.74153 0
M  V30 10354 H 957.893 -0.198668 4.60572 0
M  V30 10355 H 961.437 2.74157 6.4147 0
M  V30 10356 H 957.334 1.51487 6.27473 0
M  V30 10357 H 958.102 3.14884 7.55507 0
M  V30 10358 N 960.765 -1.57509 0.0534917 0
M  V30 10359 C 961.695 -2.14698 -0.917999 0
M  V30 10360 C 962.676 -1.06924 -1.32292 0
M  V30 10361 O 963.861 -1.34875 -1.39723 0
M  V30 10362 C 960.991 -2.69383 -2.19203 0
M  V30 10363 C 959.945 -3.82161 -1.9271 0
M  V30 10364 C 959.271 -4.23373 -3.26587 0
M  V30 10365 C 960.571 -5.07199 -1.24686 0
M  V30 10366 H 962.265 -2.96125 -0.44165 0
M  V30 10367 H 959.811 -1.42446 -0.210993 0
M  V30 10368 H 961.764 -3.08031 -2.87567 0
M  V30 10369 H 960.488 -1.85151 -2.69048 0
M  V30 10370 H 959.147 -3.43989 -1.26757 0
M  V30 10371 H 958.795 -3.36089 -3.74237 0
M  V30 10372 H 958.495 -4.99385 -3.09658 0
M  V30 10373 H 960.019 -4.64623 -3.96178 0
M  V30 10374 H 961.433 -5.43279 -1.83088 0
M  V30 10375 H 959.83 -5.88369 -1.18076 0
M  V30 10376 H 960.9 -4.84386 -0.223227 0
M  V30 10377 N 962.243 0.219913 -1.56058 0
M  V30 10378 C 963.659 0.569685 -1.49086 0
M  V30 10379 C 963.859 1.87066 -0.748903 0
M  V30 10380 O 962.915 2.50838 -0.289235 0
M  V30 10381 C 964.228 0.647397 -2.93648 0
M  V30 10382 C 965.776 0.737914 -3.04177 0
M  V30 10383 C 966.251 0.846957 -4.50101 0
M  V30 10384 N 967.742 0.911136 -4.5415 0
M  V30 10385 C 968.477 1.01525 -5.64341 0
M  V30 10386 N 967.973 1.0832 -6.8428 0
M  V30 10387 N 969.766 1.05051 -5.52196 0
M  V30 10388 H 961.917 -0.633778 -2.02724 0
M  V30 10389 H 964.18 -0.222583 -0.921499 0
M  V30 10390 H 963.886 -0.238987 -3.50887 0
M  V30 10391 H 963.76 1.51046 -3.45637 0
M  V30 10392 H 966.147 1.61474 -2.47002 0
M  V30 10393 H 966.228 -0.150845 -2.55355 0
M  V30 10394 H 965.872 -0.0254166 -5.07894 0
M  V30 10395 H 965.802 1.75116 -4.96631 0
M  V30 10396 H 968.293 0.868869 -3.67776 0
M  V30 10397 H 968.606 1.16247 -7.64007 0
M  V30 10398 H 966.951 1.05231 -6.86987 0
M  V30 10399 H 970.142 0.994086 -4.57423 0
M  V30 10400 H 970.315 1.12819 -6.38103 0
M  V30 10401 N 963.721 1.49897 0.486681 0
M  V30 10402 C 965.132 1.53142 1.06792 0
M  V30 10403 C 965.483 0.325856 1.93475 0
M  V30 10404 O 964.608 -0.562893 2.08951 0
M  V30 10405 C 965.203 2.77514 1.94348 0
M  V30 10406 C 963.762 2.83491 2.47609 0
M  V30 10407 C 962.909 2.47239 1.2557 0
M  V30 10408 H 965.86 1.56387 0.269962 0
M  V30 10409 H 965.881 2.58487 2.79221 0
M  V30 10410 H 965.393 3.65239 1.31232 0
M  V30 10411 H 963.494 2.0008 3.14323 0
M  V30 10412 H 963.607 3.86011 2.83782 0
M  V30 10413 H 961.971 1.99332 1.58552 0
M  V30 10414 H 962.754 3.37255 0.641404 0
M  V30 10415 N 965.199 -0.738761 1.39212 0
M  V30 10416 C 966.424 -1.5331 1.39681 0
M  V30 10417 C 966.849 -1.88098 -0.00768715 0
M  V30 10418 O 966.207 -1.51642 -0.993699 0
M  V30 10419 C 966.255 -2.79958 2.27279 0
M  V30 10420 O 965.359 -3.75727 1.70008 0
M  V30 10421 H 964.7 -0.463131 0.475821 0
M  V30 10422 H 967.23 -0.911768 1.83161 0
M  V30 10423 H 967.24 -3.28732 2.41659 0
M  V30 10424 H 965.915 -2.5397 3.29351 0
M  V30 10425 H 964.492 -3.34483 1.64851 0
M  V30 10426 N 966.677 -1.24326 -0.968545 0
M  V30 10427 C 967.923 -1.08406 -1.71394 0
M  V30 10428 C 968.256 0.376353 -1.90518 0
M  V30 10429 O 967.531 1.27816 -1.46606 0
M  V30 10430 C 967.814 -1.82344 -3.1052 0
M  V30 10431 C 967.667 -3.3613 -2.98893 0
M  V30 10432 C 968.986 -1.59545 -4.10163 0
M  V30 10433 H 966.105 -0.395205 -0.622079 0
M  V30 10434 H 968.747 -1.52983 -1.12677 0
M  V30 10435 H 966.897 -1.44452 -3.60646 0
M  V30 10436 H 968.569 -3.83614 -2.56199 0
M  V30 10437 H 966.812 -3.64553 -2.35124 0
M  V30 10438 H 967.483 -3.83064 -3.97449 0
M  V30 10439 H 969.959 -1.92504 -3.68892 0
M  V30 10440 H 968.835 -2.13736 -5.05577 0
M  V30 10441 H 969.096 -0.533503 -4.38869 0
M  V30 10442 N 968.156 1.1691 -1.05688 0
M  V30 10443 C 969.402 1.8757 -0.771071 0
M  V30 10444 C 969.735 1.8113 0.700399 0
M  V30 10445 O 969.01 1.22273 1.5126 0
M  V30 10446 C 969.293 3.37392 -1.25851 0
M  V30 10447 C 969.146 3.52556 -2.79329 0
M  V30 10448 C 970.465 4.31585 -0.861512 0
M  V30 10449 H 967.584 0.681089 -0.281579 0
M  V30 10450 H 970.226 1.37453 -1.31174 0
M  V30 10451 H 968.376 3.80204 -0.798563 0
M  V30 10452 H 970.048 3.18725 -3.33485 0
M  V30 10453 H 968.291 2.94668 -3.1836 0
M  V30 10454 H 968.962 4.57748 -3.08498 0
M  V30 10455 H 971.438 3.96642 -1.25756 0
M  V30 10456 H 970.314 5.34939 -1.23012 0
M  V30 10457 H 970.575 4.4148 0.234089 0
M  V30 10458 N 969.634 0.838594 1.33437 0
M  V30 10459 C 970.544 0.274048 2.32994 0
M  V30 10460 C 971.56 -0.599776 1.63336 0
M  V30 10461 O 972.736 -0.503963 1.94993 0
M  V30 10462 C 969.801 -0.541804 3.4244 0
M  V30 10463 C 968.862 0.356262 4.27819 0
M  V30 10464 C 968.095 -0.420747 5.32039 0
M  V30 10465 O 968.318 -1.65247 5.45939 0
M  V30 10466 O 967.252 0.205101 6.0155 0
M  V30 10467 H 971.078 1.09846 2.83139 0
M  V30 10468 H 968.663 0.601111 1.36774 0
M  V30 10469 H 970.545 -1.00544 4.0923 0
M  V30 10470 H 969.22 -1.34328 2.94513 0
M  V30 10471 H 968.127 0.867726 3.63897 0
M  V30 10472 H 969.46 1.1225 4.79229 0
M  V30 10473 N 971.112 -1.45937 0.595003 0
M  V30 10474 C 972.06 -2.32155 -0.143798 0
M  V30 10475 C 973.054 -1.45221 -0.872198 0
M  V30 10476 O 974.26 -1.61777 -0.789191 0
M  V30 10477 H 970.635 -0.749165 -0.0652377 0
M  V30 10478 H 972.606 -2.92264 0.602005 0
M  V30 10479 C 971.355 -3.28615 -1.13611 0
M  V30 10480 H 970.678 -3.95496 -0.585044 0
M  V30 10481 H 972.118 -3.91699 -1.62321 0
M  V30 10482 C 970.577 -2.54863 -2.20333 0
M  V30 10483 O 971.107 -2.32071 -3.27881 0
M  V30 10484 N 969.313 -2.15213 -1.95274 0
M  V30 10485 H 968.86 -2.33949 -1.07822 0
M  V30 10486 H 968.818 -1.66188 -2.66888 0
M  V30 10487 N 972.59 -0.333456 -1.54032 0
M  V30 10488 C 973.815 0.270517 -2.05628 0
M  V30 10489 C 974.24 1.44231 -1.20744 0
M  V30 10490 O 973.598 1.79975 -0.218822 0
M  V30 10491 C 973.646 0.673251 -3.54259 0
M  V30 10492 O 972.75 1.77448 -3.72271 0
M  V30 10493 H 972.091 0.0469753 -0.662336 0
M  V30 10494 H 974.621 -0.484739 -1.98775 0
M  V30 10495 H 974.631 0.953194 -3.96709 0
M  V30 10496 H 973.306 -0.183747 -4.15494 0
M  V30 10497 H 971.883 1.49259 -3.41725 0
M  V30 10498 N 974.068 1.57479 -0.061844 0
M  V30 10499 C 975.314 1.93395 0.610443 0
M  V30 10500 C 975.647 0.941334 1.6986 0
M  V30 10501 O 974.922 -0.0310262 1.94475 0
M  V30 10502 C 975.205 3.39636 1.19664 0
M  V30 10503 C 975.058 4.49651 0.115805 0
M  V30 10504 C 976.377 3.86488 2.10512 0
M  V30 10505 H 973.496 0.703262 0.220436 0
M  V30 10506 H 976.138 1.89583 -0.125785 0
M  V30 10507 H 974.288 3.43015 1.82409 0
M  V30 10508 H 975.96 4.58397 -0.516728 0
M  V30 10509 H 974.203 4.30237 -0.55483 0
M  V30 10510 H 974.874 5.49089 0.566176 0
M  V30 10511 H 977.35 3.85052 1.57715 0
M  V30 10512 H 976.226 4.89444 2.48466 0
M  V30 10513 H 976.487 3.23856 3.00948 0
M  V30 10514 N 975.546 -0.211634 1.56173 0
M  V30 10515 C 976.509 -1.24588 1.92381 0
M  V30 10516 C 977.509 -1.39297 0.803311 0
M  V30 10517 O 978.699 -1.37392 1.07094 0
M  V30 10518 C 975.831 -2.61807 2.18335 0
M  V30 10519 H 977.024 -0.936814 2.84893 0
M  V30 10520 H 974.577 -0.452471 1.49607 0
M  V30 10521 H 975.312 -2.97795 1.28407 0
M  V30 10522 H 975.097 -2.52506 2.99972 0
M  V30 10523 H 976.587 -3.3642 2.4741 0
M  V30 10524 N 977.024 -1.50153 -0.478725 0
M  V30 10525 C 978.273 -1.60002 -1.22809 0
M  V30 10526 C 978.586 -0.302277 -1.9325 0
M  V30 10527 O 979.792 -0.279583 -2.70057 0
M  V30 10528 C 978.248 -2.82402 -2.23108 0
M  V30 10529 C 977.856 -4.19023 -1.58505 0
M  V30 10530 C 979.6 -3.01593 -2.98734 0
M  V30 10531 C 977.507 -5.32618 -2.57045 0
M  V30 10532 H 976.437 -0.595822 -0.462073 0
M  V30 10533 H 979.088 -1.76573 -0.499412 0
M  V30 10534 H 977.47 -2.59373 -2.99235 0
M  V30 10535 H 978.644 -4.52277 -0.882187 0
M  V30 10536 H 976.959 -4.05374 -0.951877 0
M  V30 10537 H 979.556 -3.8363 -3.72468 0
M  V30 10538 H 979.899 -2.1302 -3.57671 0
M  V30 10539 H 980.432 -3.24766 -2.29721 0
M  V30 10540 H 977.171 -6.23321 -2.02858 0
M  V30 10541 H 976.691 -5.03792 -3.25505 0
M  V30 10542 H 978.37 -5.62877 -3.19028 0
M  V30 10543 O 978.541 0.624207 -1.48949 0
M  V30 10544 H 979.232 1.27845 -1.45517 0
M  V30 END ATOM
M  V30 BEGIN BOND
M  V30 END BOND
M  V30 END CTAB
M  END
$$$$
