drugbank_target|Q7SI98 Beta-xylanase (DB02379; DB03389; DB04465)
 OpenBabel12092120273D

  0  0  0     0  0            999 V3000
M  V30 BEGIN CTAB
M  V30 COUNTS 6391 6459 0 0 0
M  V30 BEGIN ATOM
M  V30 1 H -0.908 1.98254 -0.117106 0
M  V30 2 N 0 1.576 0 0
M  V30 3 C 0.963 2.07369 0.976253 0
M  V30 4 C 1.963 0.98309 1.27248 0
M  V30 5 O 3.153 1.24574 1.21766 0
M  V30 6 C 0.285 2.51514 2.30116 0
M  V30 7 H 1.478 2.94892 0.545759 0
M  V30 8 H -0.969 1.54328 0.247471 0
M  V30 9 H -0.234 1.67234 2.77855 0
M  V30 10 H -0.449 3.31163 2.09937 0
M  V30 11 H 1.041 2.90345 3.00149 0
M  V30 12 N 1.4781 -0.272755 1.55222 0
M  V30 13 C 2.3881 -1.35918 1.91216 0
M  V30 14 C 3.4041 -1.54026 0.809436 0
M  V30 15 O 4.5801 -1.68148 1.10852 0
M  V30 16 C 1.6451 -2.69834 2.17693 0
M  V30 17 C 0.7061 -2.6047 3.41253 0
M  V30 18 C -0.0609 -3.88 3.66458 0
M  V30 19 O 0.1621 -4.88693 2.94169 0
M  V30 20 O -0.9039 -3.88189 4.59992 0
M  V30 21 H 2.9221 -1.0839 2.83699 0
M  V30 22 H 0.5071 -0.471301 1.41771 0
M  V30 23 H 2.3891 -3.49017 2.36147 0
M  V30 24 H 1.0641 -2.97148 1.28392 0
M  V30 25 H -0.0289 -1.79663 3.28134 0
M  V30 26 H 1.3041 -2.38106 4.30774 0
M  V30 27 N 2.9562 -1.48159 -0.537278 0
M  V30 28 C 4.1812 -1.59707 -1.32319 0
M  V30 29 C 4.6062 -0.254859 -1.86365 0
M  V30 30 O 3.9642 0.772378 -1.64024 0
M  V30 31 C 4.0122 -2.6412 -2.45505 0
M  V30 32 O 3.1162 -2.20774 -3.48328 0
M  V30 33 H 2.4572 -0.535791 -0.392204 0
M  V30 34 H 4.9872 -1.94092 -0.647268 0
M  V30 35 H 4.9972 -2.85166 -2.91795 0
M  V30 36 H 3.6722 -3.61567 -2.05528 0
M  V30 37 H 2.2492 -2.09911 -3.08207 0
M  V30 38 N 4.4343 0.785586 -1.36625 0
M  V30 39 C 5.6623 1.57448 -1.3423 0
M  V30 40 C 6.0773 1.88649 0.0755653 0
M  V30 41 O 5.4343 1.50414 1.03354 0
M  V30 42 C 5.4853 2.89316 -2.16745 0
M  V30 43 O 5.2063 2.59459 -3.53005 0
M  V30 44 C 6.7073 3.83606 -2.22174 0
M  V30 45 H 3.9273 0.488226 -0.4603 0
M  V30 46 H 6.4713 0.974733 -1.79775 0
M  V30 47 H 4.6263 3.4575 -1.74745 0
M  V30 48 H 5.0403 3.43804 -3.96105 0
M  V30 49 H 6.5143 4.73181 -2.8426 0
M  V30 50 H 6.9913 4.21734 -1.22627 0
M  V30 51 H 7.5973 3.33104 -2.64427 0
M  V30 52 N 5.9124 1.20967 1.01018 0
M  V30 53 C 6.8424 0.988272 2.11555 0
M  V30 54 C 7.8234 -0.0849778 1.69888 0
M  V30 55 O 9.0084 0.0738202 1.9406 0
M  V30 56 C 6.1384 0.546528 3.42973 0
M  V30 57 C 5.0924 1.56375 3.9841 0
M  V30 58 C 4.4184 0.97842 5.25672 0
M  V30 59 C 5.7184 2.94922 4.31066 0
M  V30 60 H 7.4124 1.91276 2.30334 0
M  V30 61 H 4.9584 0.921073 1.1069 0
M  V30 62 H 6.9114 0.378839 4.19694 0
M  V30 63 H 5.6354 -0.413598 3.23971 0
M  V30 64 H 4.2944 1.71891 3.23804 0
M  V30 65 H 3.9424 0.0101688 5.02999 0
M  V30 66 H 3.6424 1.65784 5.63728 0
M  V30 67 H 5.1664 0.821939 6.05043 0
M  V30 68 H 6.5804 2.8288 4.9865 0
M  V30 69 H 4.9774 3.5983 4.80253 0
M  V30 70 H 6.0474 3.4616 3.39561 0
M  V30 71 N 7.3905 -1.2043 1.01659 0
M  V30 72 C 8.6385 -1.89423 0.704522 0
M  V30 73 C 8.9595 -1.79231 -0.768197 0
M  V30 74 O 8.2295 -1.1947 -1.55254 0
M  V30 75 H 6.8095 -0.701178 0.257602 0
M  V30 76 H 9.4715 -1.4626 1.28818 0
M  V30 77 H 8.5675 -2.96052 0.987916 0
M  V30 78 N 8.8686 -0.792821 -1.36206 0
M  V30 79 C 9.8316 -0.199459 -2.2833 0
M  V30 80 C 10.8316 0.605189 -1.48977 0
M  V30 81 O 12.0216 0.425685 -1.68919 0
M  V30 82 C 9.1536 0.723523 -3.33134 0
M  V30 83 H 10.3466 -1.01181 -2.82316 0
M  V30 84 H 7.8996 -0.562485 -1.45828 0
M  V30 85 H 8.6346 1.56008 -2.84309 0
M  V30 86 H 8.4196 0.148436 -3.91819 0
M  V30 87 H 9.9096 1.13344 -4.01924 0
M  V30 88 N 10.3467 1.47872 -0.545128 0
M  V30 89 C 11.3097 2.28337 0.198717 0
M  V30 90 C 12.3097 1.36255 0.853888 0
M  V30 91 O 13.4997 1.59003 0.711606 0
M  V30 92 C 10.6317 3.15585 1.28915 0
M  V30 93 H 11.8247 2.95567 -0.507941 0
M  V30 94 H 9.3777 1.53362 -0.301616 0
M  V30 95 H 10.1127 2.53019 2.02859 0
M  V30 96 H 9.8977 3.83337 0.824309 0
M  V30 97 H 11.3877 3.76243 1.81194 0
M  V30 98 N 11.8248 0.280983 1.55075 0
M  V30 99 C 12.7878 -0.590896 2.21452 0
M  V30 100 C 13.7878 -1.07682 1.19421 0
M  V30 101 O 14.9778 -0.97605 1.44288 0
M  V30 102 C 12.1098 -1.81587 2.88511 0
M  V30 103 H 13.3028 -0.0112554 2.99898 0
M  V30 104 H 10.8558 0.0316438 1.56268 0
M  V30 105 H 11.5908 -2.43587 2.14093 0
M  V30 106 H 11.3758 -1.4753 3.63287 0
M  V30 107 H 12.8658 -2.43575 3.39206 0
M  V30 108 N 13.3029 -1.57598 0.00835791 0
M  V30 109 C 14.2659 -2.07884 -0.965242 0
M  V30 110 C 15.2659 -0.989825 -1.26725 0
M  V30 111 O 16.4559 -1.25218 -1.21104 0
M  V30 112 C 13.5879 -2.52731 -2.28779 0
M  V30 113 H 14.7809 -2.95178 -0.530112 0
M  V30 114 H 12.3339 -1.54458 -0.239283 0
M  V30 115 H 13.0689 -1.68705 -2.76964 0
M  V30 116 H 12.8539 -3.32272 -2.08177 0
M  V30 117 H 14.3439 -2.91933 -2.98605 0
M  V30 118 N 14.781 0.264519 -1.55364 0
M  V30 119 C 15.713 1.34965 -1.85248 0
M  V30 120 C 16.726 1.45136 -0.737525 0
M  V30 121 O 17.915 1.46801 -1.01547 0
M  V30 122 C 15.015 2.73008 -2.00797 0
M  V30 123 C 14.188 2.85324 -3.31525 0
M  V30 124 C 13.247 4.04097 -3.37034 0
M  V30 125 O 12.273 3.94455 -4.10358 0
M  V30 126 N 13.475 5.16458 -2.65049 0
M  V30 127 H 16.24 1.09672 -2.78913 0
M  V30 128 H 13.801 0.454635 -1.55386 0
M  V30 129 H 15.793 3.50772 -2.01844 0
M  V30 130 H 14.363 2.91087 -1.1396 0
M  V30 131 H 13.583 1.94377 -3.42945 0
M  V30 132 H 14.871 2.9049 -4.17724 0
M  V30 133 H 14.269 5.27181 -2.05175 0
M  V30 134 H 12.826 5.92422 -2.71809 0
M  V30 135 N 16.2591 1.48442 0.529413 0
M  V30 136 C 17.4841 1.60406 1.31471 0
M  V30 137 C 17.9091 0.264738 1.86228 0
M  V30 138 O 17.2671 -0.763668 1.64432 0
M  V30 139 C 17.3151 2.65419 2.44101 0
M  V30 140 O 16.4191 2.22618 3.47153 0
M  V30 141 H 15.7601 0.537863 0.389357 0
M  V30 142 H 18.2901 1.94432 0.636965 0
M  V30 143 H 18.3001 2.86709 2.90279 0
M  V30 144 H 16.9751 3.62652 2.03608 0
M  V30 145 H 15.5521 2.11543 3.0709 0
M  V30 146 N 17.7372 -0.778329 1.37039 0
M  V30 147 C 18.9852 -1.53361 1.31623 0
M  V30 148 C 19.3062 -1.94739 -0.100831 0
M  V30 149 O 18.5762 -1.65797 -1.04347 0
M  V30 150 H 17.1562 -0.568794 0.484234 0
M  V30 151 H 19.8182 -0.926742 1.71457 0
M  V30 152 H 18.9142 -2.43606 1.95096 0
M  V30 153 N 19.2153 -1.21501 -1.00376 0
M  V30 154 C 20.6313 -0.972629 -1.26539 0
M  V30 155 C 20.8313 0.340257 -1.98606 0
M  V30 156 O 19.8873 1.06561 -2.28913 0
M  V30 157 C 21.2003 -2.16404 -2.08781 0
M  V30 158 C 22.7483 -2.20643 -2.22004 0
M  V30 159 C 23.2233 -3.39306 -3.07629 0
M  V30 160 N 24.7143 -3.39401 -3.15217 0
M  V30 161 C 25.4493 -4.27867 -3.81729 0
M  V30 162 N 24.9453 -5.26533 -4.5026 0
M  V30 163 N 26.7383 -4.15672 -3.78382 0
M  V30 164 H 18.8893 -2.05929 -0.520281 0
M  V30 165 H 21.1523 -0.901803 -0.292328 0
M  V30 166 H 20.8583 -3.11554 -1.63178 0
M  V30 167 H 20.7323 -2.15567 -3.09533 0
M  V30 168 H 23.1193 -1.26048 -2.66825 0
M  V30 169 H 23.2003 -2.25523 -1.20718 0
M  V30 170 H 22.8443 -4.34195 -2.63509 0
M  V30 171 H 22.7743 -3.31665 -4.09031 0
M  V30 172 H 25.2653 -2.67997 -2.66432 0
M  V30 173 H 25.5783 -5.90337 -4.98721 0
M  V30 174 H 23.9233 -5.30457 -4.49044 0
M  V30 175 H 27.1143 -3.3785 -3.23998 0
M  V30 176 H 27.2873 -4.84825 -4.2994 0
M  V30 177 N 20.6934 1.19889 -1.02296 0
M  V30 178 C 21.9234 1.93109 -0.734332 0
M  V30 179 C 22.3314 1.75377 0.709889 0
M  V30 180 O 21.6744 1.06912 1.49384 0
M  V30 181 C 21.7364 3.45362 -0.99827 0
M  V30 182 C 21.4004 3.8686 -2.43287 0
M  V30 183 C 22.3974 3.92102 -3.41397 0
M  V30 184 C 20.0824 4.18668 -2.77529 0
M  V30 185 C 22.0764 4.28573 -4.71809 0
M  V30 186 C 19.7634 4.54813 -4.08153 0
M  V30 187 C 20.7614 4.59739 -5.05103 0
M  V30 188 O 20.4494 4.95051 -6.33388 0
M  V30 189 H 20.1814 0.620409 -0.268456 0
M  V30 190 H 22.7354 1.53144 -1.3688 0
M  V30 191 H 20.9654 3.85482 -0.306645 0
M  V30 192 H 22.6544 3.99814 -0.700234 0
M  V30 193 H 23.4204 3.67685 -3.1628 0
M  V30 194 H 19.2994 4.14021 -2.0275 0
M  V30 195 H 22.8434 4.32333 -5.4748 0
M  V30 196 H 18.7404 4.78687 -4.33047 0
M  V30 197 H 19.5084 5.1302 -6.37772 0
M  V30 198 N 22.1715 0.800033 1.35784 0
M  V30 199 C 23.4185 0.377342 1.98953 0
M  V30 200 C 23.7465 -1.05378 1.6348 0
M  V30 201 O 23.0015 -1.74459 0.886707 0
M  V30 202 C 23.3005 0.500276 3.53881 0
M  V30 203 C 22.9665 1.89375 4.09204 0
M  V30 204 C 21.6285 2.27499 4.24025 0
M  V30 205 C 23.9805 2.8057 4.39238 0
M  V30 206 C 21.3085 3.562 4.66195 0
M  V30 207 C 23.6605 4.0871 4.82844 0
M  V30 208 C 22.3245 4.46843 4.95871 0
M  V30 209 H 21.5945 0.138079 0.728021 0
M  V30 210 H 24.2415 1.01955 1.62103 0
M  V30 211 H 22.5465 -0.225405 3.91151 0
M  V30 212 H 24.2435 0.154097 4.00704 0
M  V30 213 H 20.8335 1.58753 3.98115 0
M  V30 214 H 25.0175 2.52367 4.27346 0
M  V30 215 H 20.2735 3.85602 4.74469 0
M  V30 216 H 24.4475 4.79481 5.05046 0
M  V30 217 H 22.0745 5.46623 5.28306 0
M  V30 218 N 23.6496 -1.47581 0.552962 0
M  V30 219 C 24.8976 -2.02082 0.0272703 0
M  V30 220 C 25.2186 -1.4301 -1.32563 0
M  V30 221 O 24.4886 -0.603745 -1.86365 0
M  V30 222 H 23.0686 -0.746966 0.00709182 0
M  V30 223 H 25.7306 -1.81033 0.722008 0
M  V30 224 H 24.8266 -3.12034 -0.0639951 0
M  V30 225 N 25.1277 -0.289203 -1.54924 0
M  V30 226 C 26.3557 0.326463 -2.04308 0
M  V30 227 C 26.7707 1.48413 -1.16701 0
M  V30 228 O 26.1277 1.81507 -0.190087 0
M  V30 229 C 26.1787 0.794014 -3.52672 0
M  V30 230 O 25.8997 -0.317564 -4.36948 0
M  V30 231 C 27.4007 1.47605 -4.18004 0
M  V30 232 H 24.6207 0.0726272 -0.667058 0
M  V30 233 H 27.1647 -0.425401 -2.00026 0
M  V30 234 H 25.3197 1.49593 -3.57352 0
M  V30 235 H 25.7337 0.0443186 -5.24481 0
M  V30 236 H 27.2077 1.75447 -5.23376 0
M  V30 237 H 27.6847 2.41224 -3.67025 0
M  V30 238 H 28.2907 0.81762 -4.17367 0
M  V30 239 N 26.6058 1.57591 -0.0167156 0
M  V30 240 C 27.5688 2.08393 0.954204 0
M  V30 241 C 28.5688 0.996531 1.26198 0
M  V30 242 O 29.7588 1.25858 1.20438 0
M  V30 243 C 26.8908 2.5394 2.27436 0
M  V30 244 H 28.0838 2.95455 0.514451 0
M  V30 245 H 25.6368 1.54582 0.231089 0
M  V30 246 H 26.3718 1.70171 2.76066 0
M  V30 247 H 26.1568 3.33371 2.06412 0
M  V30 248 H 27.6468 2.93512 2.97053 0
M  V30 249 N 28.0839 -0.256276 1.55502 0
M  V30 250 C 29.3329 -0.983486 1.76098 0
M  V30 251 C 29.6459 -1.86837 0.578896 0
M  V30 252 O 30.8519 -2.63163 0.667648 0
M  V30 253 C 29.3079 -1.79868 3.1173 0
M  V30 254 C 28.9159 -0.961648 4.37557 0
M  V30 255 C 30.6599 -2.51919 3.41668 0
M  V30 256 C 28.5669 -1.77219 5.64223 0
M  V30 257 H 27.4969 -0.370936 0.656447 0
M  V30 258 H 30.1479 -0.238492 1.81944 0
M  V30 259 H 28.5299 -2.58527 2.99966 0
M  V30 260 H 29.7039 -0.218048 4.60284 0
M  V30 261 H 28.0189 -0.354913 4.14885 0
M  V30 262 H 30.6159 -3.12998 4.33516 0
M  V30 263 H 30.9589 -3.23059 2.62562 0
M  V30 264 H 31.4919 -1.80278 3.54605 0
M  V30 265 H 28.2309 -1.10471 6.46124 0
M  V30 266 H 27.7509 -2.49132 5.45613 0
M  V30 267 H 29.4299 -2.34169 6.03137 0
M  V30 268 N 29.562 -1.4872 -0.521534 0
M  V30 269 C 30.525 -1.63379 -1.60748 0
M  V30 270 C 31.525 -0.50661 -1.52611 0
M  V30 271 O 32.715 -0.772601 -1.5613 0
M  V30 272 C 29.847 -1.61192 -3.00383 0
M  V30 273 H 31.04 -2.60217 -1.49087 0
M  V30 274 H 28.593 -1.37444 -0.744235 0
M  V30 275 H 29.328 -0.65863 -3.17541 0
M  V30 276 H 29.113 -2.43032 -3.07698 0
M  V30 277 H 30.603 -1.7466 -3.7932 0
M  V30 278 N 31.0401 0.771051 -1.3745 0
M  V30 279 C 32.2651 1.56529 -1.36065 0
M  V30 280 C 32.6901 1.88029 0.0515859 0
M  V30 281 O 32.0481 1.49282 1.02882 0
M  V30 282 C 32.0961 2.85187 -2.20683 0
M  V30 283 O 31.2001 3.79593 -1.61193 0
M  V30 284 H 30.5411 0.47411 -0.464883 0
M  V30 285 H 33.0711 0.954269 -1.80983 0
M  V30 286 H 33.0811 3.34283 -2.33921 0
M  V30 287 H 31.7561 2.61588 -3.23334 0
M  V30 288 H 30.3331 3.38239 -1.56999 0
M  V30 289 N 32.5182 1.22032 0.997298 0
M  V30 290 C 33.7662 1.04016 1.73278 0
M  V30 291 C 34.0872 -0.426255 1.90284 0
M  V30 292 O 33.3572 -1.30694 1.45931 0
M  V30 293 H 31.9372 0.381897 0.642 0
M  V30 294 H 34.5992 1.5347 1.20137 0
M  V30 295 H 33.6952 1.51441 2.72896 0
M  V30 296 N 33.9963 -1.19345 1.0293 0
M  V30 297 C 34.9433 -2.2258 0.610464 0
M  V30 298 C 35.9133 -1.6179 -0.375946 0
M  V30 299 O 37.0983 -1.88844 -0.272511 0
M  V30 300 C 34.2383 -3.45085 -0.0321473 0
M  V30 301 C 33.3513 -4.20258 1.00035 0
M  V30 302 C 32.4863 -5.3019 0.32746 0
M  V30 303 C 31.5253 -5.97121 1.34584 0
M  V30 304 N 30.6623 -6.98615 0.698726 0
M  V30 305 H 35.5023 -2.57764 1.49538 0
M  V30 306 H 33.0393 -1.26644 0.748311 0
M  V30 307 H 34.9973 -4.15061 -0.421966 0
M  V30 308 H 33.6273 -3.10555 -0.88064 0
M  V30 309 H 32.6793 -3.49223 1.50823 0
M  V30 310 H 33.9913 -4.66175 1.77433 0
M  V30 311 H 33.1453 -6.06587 -0.11718 0
M  V30 312 H 31.8843 -4.85345 -0.478713 0
M  V30 313 H 30.8893 -5.19474 1.80074 0
M  V30 314 H 32.1143 -6.4405 2.15352 0
M  V30 315 H 30.0603 -6.55942 -0.0873471 0
M  V30 316 H 29.9773 -7.42724 1.41058 0
M  V30 317 H 31.2453 -7.79004 0.278102 0
M  V30 318 N 35.4744 -0.807222 -1.35358 0
M  V30 319 C 36.4044 -0.232509 -2.3234 0
M  V30 320 C 37.3854 0.642386 -1.57504 0
M  V30 321 O 38.5704 0.572526 -1.85569 0
M  V30 322 C 35.7004 0.619238 -3.41735 0
M  V30 323 C 34.6544 -0.157215 -4.27711 0
M  V30 324 C 33.9804 0.816273 -5.28433 0
M  V30 325 C 35.2804 -1.35656 -5.04376 0
M  V30 326 H 36.9744 -1.04276 -2.80654 0
M  V30 327 H 34.5204 -0.50288 -1.34934 0
M  V30 328 H 36.4734 1.03137 -4.08584 0
M  V30 329 H 35.1974 1.46239 -2.92031 0
M  V30 330 H 33.8564 -0.550525 -3.62443 0
M  V30 331 H 33.5044 1.65494 -4.74996 0
M  V30 332 H 33.2044 0.301067 -5.86828 0
M  V30 333 H 34.7284 1.22659 -5.98153 0
M  V30 334 H 36.1424 -1.01927 -5.64166 0
M  V30 335 H 34.5394 -1.8063 -5.7227 0
M  V30 336 H 35.6094 -2.14288 -4.34981 0
M  V30 337 N 36.9525 1.47285 -0.560781 0
M  V30 338 C 38.2005 2.02064 -0.0379868 0
M  V30 339 C 38.5215 1.43711 1.31803 0
M  V30 340 O 37.7915 0.61362 1.86042 0
M  V30 341 H 36.3715 0.746918 -0.0110531 0
M  V30 342 H 39.0335 1.80648 -0.731598 0
M  V30 343 H 38.1295 3.12064 0.0474463 0
M  V30 344 N 38.4306 0.297415 1.54768 0
M  V30 345 C 39.7076 -0.365847 1.92148 0
M  V30 346 C 40.0876 -1.71975 1.22424 0
M  V30 347 O 39.4356 -2.25666 0.358739 0
M  V30 348 C 39.6456 -0.484056 3.45627 0
M  V30 349 C 40.9936 -0.756594 4.17805 0
M  V30 350 O 42.0176 -0.568007 3.51642 0
M  V30 351 O 40.8766 -1.11863 5.34929 0
M  V30 352 H 37.9706 -0.203919 0.801465 0
M  V30 353 H 40.5166 0.34521 1.66152 0
M  V30 354 H 39.2886 0.467865 3.88493 0
M  V30 355 H 38.9116 -1.24372 3.77647 0
M  V30 356 N 39.9087 -1.5758 0.0250728 0
M  V30 357 C 41.1337 -1.96337 -0.668317 0
M  V30 358 C 41.5587 -0.901314 -1.651 0
M  V30 359 O 40.9167 0.138187 -1.80773 0
M  V30 360 C 40.9647 -3.34191 -1.35457 0
M  V30 361 O 40.0687 -3.30269 -2.46974 0
M  V30 362 H 39.4097 -0.640281 -0.175887 0
M  V30 363 H 41.9397 -2.0442 0.0857224 0
M  V30 364 H 41.9497 -3.70331 -1.71228 0
M  V30 365 H 40.6247 -4.11036 -0.634218 0
M  V30 366 H 39.2017 -3.05841 -2.13344 0
M  V30 367 N 41.3868 0.248026 -1.55636 0
M  V30 368 C 42.3498 1.29044 -1.89421 0
M  V30 369 C 43.3498 1.41134 -0.770581 0
M  V30 370 O 44.5398 1.39854 -1.03858 0
M  V30 371 C 41.6718 2.66831 -2.12165 0
M  V30 372 H 42.8648 1.00305 -2.82629 0
M  V30 373 H 40.4178 0.487265 -1.48511 0
M  V30 374 H 41.1528 3.00711 -1.21422 0
M  V30 375 H 40.9378 2.59438 -2.93997 0
M  V30 376 H 42.4278 3.42103 -2.3949 0
M  V30 377 N 42.8649 1.48995 0.513639 0
M  V30 378 C 44.0949 1.61297 1.291 0
M  V30 379 C 44.5029 0.278656 1.87137 0
M  V30 380 O 43.8459 -0.744325 1.67945 0
M  V30 381 C 43.9079 2.61326 2.46879 0
M  V30 382 C 43.5719 4.05993 2.09807 0
M  V30 383 C 44.5689 4.93183 1.64519 0
M  V30 384 C 42.2539 4.51642 2.19829 0
M  V30 385 C 44.2479 6.24056 1.2974 0
M  V30 386 C 41.9349 5.82532 1.84662 0
M  V30 387 C 42.9329 6.68562 1.3969 0
M  V30 388 O 42.6209 7.97014 1.04992 0
M  V30 389 H 42.3529 0.546236 0.39825 0
M  V30 390 H 44.9069 1.95673 0.62459 0
M  V30 391 H 43.1369 2.22104 3.16554 0
M  V30 392 H 44.8259 2.6329 3.08923 0
M  V30 393 H 45.5919 4.59147 1.56233 0
M  V30 394 H 41.4709 3.84855 2.53786 0
M  V30 395 H 45.0149 6.91161 0.945659 0
M  V30 396 H 40.9119 6.16099 1.92594 0
M  V30 397 H 41.6799 8.09913 1.18249 0
M  V30 398 N 44.343 -0.763751 1.37857 0
M  V30 399 C 45.571 -1.55293 1.36718 0
M  V30 400 C 45.986 -1.88745 -0.0455434 0
M  V30 401 O 45.343 -1.52039 -1.00947 0
M  V30 402 C 45.394 -2.85831 2.2132 0
M  V30 403 O 45.115 -2.5381 3.57089 0
M  V30 404 C 46.616 -3.80023 2.28249 0
M  V30 405 H 43.836 -0.480841 0.468009 0
M  V30 406 H 46.38 -0.946009 1.81303 0
M  V30 407 H 44.535 -3.42926 1.80223 0
M  V30 408 H 44.949 -3.37459 4.01524 0
M  V30 409 H 46.423 -4.68599 2.91752 0
M  V30 410 H 46.9 -4.1973 1.2932 0
M  V30 411 H 47.506 -3.28855 2.69693 0
M  V30 412 N 45.8211 -1.22559 -0.990812 0
M  V30 413 C 47.0491 -1.07779 -1.76611 0
M  V30 414 C 47.4641 0.371513 -1.85109 0
M  V30 415 O 46.8211 1.25737 -1.32274 0
M  V30 416 C 46.8721 -1.68512 -3.19822 0
M  V30 417 O 46.5931 -3.07774 -3.1178 0
M  V30 418 C 48.0941 -1.59035 -4.13791 0
M  V30 419 H 45.3141 -0.377729 -0.554583 0
M  V30 420 H 47.8581 -1.62195 -1.24551 0
M  V30 421 H 46.0131 -1.18154 -3.68942 0
M  V30 422 H 46.4271 -3.37062 -4.01858 0
M  V30 423 H 47.9011 -2.0625 -5.1202 0
M  V30 424 H 48.3781 -0.547273 -4.35777 0
M  V30 425 H 48.9841 -2.08709 -3.70568 0
M  V30 426 N 47.2992 1.18797 -1.03562 0
M  V30 427 C 48.5482 1.87978 -0.731235 0
M  V30 428 C 48.8612 1.80911 0.743671 0
M  V30 429 O 50.0672 2.45407 1.16137 0
M  V30 430 C 48.5232 3.3721 -1.25768 0
M  V30 431 C 48.1312 3.52818 -2.76085 0
M  V30 432 C 49.8752 4.11825 -1.0296 0
M  V30 433 C 47.7822 4.9598 -3.22114 0
M  V30 434 H 46.7122 0.704063 -0.269835 0
M  V30 435 H 49.3632 1.34266 -1.25079 0
M  V30 436 H 47.7452 3.90359 -0.666011 0
M  V30 437 H 48.9192 3.09965 -3.40966 0
M  V30 438 H 47.2342 2.91602 -2.97249 0
M  V30 439 H 49.8312 5.17411 -1.34869 0
M  V30 440 H 50.1742 4.16287 0.0333546 0
M  V30 441 H 50.7072 3.64833 -1.58562 0
M  V30 442 H 47.4462 4.96684 -4.27768 0
M  V30 443 H 46.9662 5.39569 -2.61965 0
M  V30 444 H 48.6452 5.6467 -3.15844 0
M  V30 445 N 48.7773 0.814389 1.34928 0
M  V30 446 C 49.7403 0.235759 2.27984 0
M  V30 447 C 50.7403 -0.581412 1.49921 0
M  V30 448 O 51.9303 -0.398758 1.69575 0
M  V30 449 C 49.0623 -0.670433 3.34242 0
M  V30 450 H 50.2553 1.05659 2.80671 0
M  V30 451 H 47.8083 0.585614 1.44915 0
M  V30 452 H 48.5433 -1.51466 2.86755 0
M  V30 453 H 48.3283 -0.0860822 3.92005 0
M  V30 454 H 49.8183 -1.06935 4.03676 0
M  V30 455 N 50.2554 -1.46986 0.568584 0
M  V30 456 C 51.4804 -2.07335 0.0520528 0
M  V30 457 C 51.9054 -1.41675 -1.23733 0
M  V30 458 O 51.2634 -0.495623 -1.74394 0
M  V30 459 C 51.3114 -3.60417 -0.11501 0
M  V30 460 O 50.4154 -3.95309 -1.17492 0
M  V30 461 H 49.7564 -0.661597 0.0564385 0
M  V30 462 H 52.2864 -1.88837 0.787507 0
M  V30 463 H 52.2964 -4.06698 -0.325644 0
M  V30 464 H 50.9714 -4.07601 0.826675 0
M  V30 465 H 49.5484 -3.60757 -0.943869 0
M  V30 466 N 51.7335 -0.305618 -1.54608 0
M  V30 467 C 53.1495 0.0476228 -1.59529 0
M  V30 468 C 53.3495 1.52025 -1.32252 0
M  V30 469 O 52.4055 2.27368 -1.09818 0
M  V30 470 C 53.7185 -0.354471 -2.98603 0
M  V30 471 C 55.2665 -0.303622 -3.11524 0
M  V30 472 C 55.7415 -0.680608 -4.52915 0
M  V30 473 N 57.2325 -0.63332 -4.5885 0
M  V30 474 C 57.9675 -0.897432 -5.66334 0
M  V30 475 N 57.4635 -1.22775 -6.81834 0
M  V30 476 N 59.2565 -0.824186 -5.56025 0
M  V30 477 H 51.4075 -1.2653 -1.70599 0
M  V30 478 H 53.6705 -0.513291 -0.797017 0
M  V30 479 H 53.3765 -1.3798 -3.23503 0
M  V30 480 H 53.2505 0.289568 -3.76087 0
M  V30 481 H 55.6375 0.712472 -2.8637 0
M  V30 482 H 55.7185 -0.982348 -2.36185 0
M  V30 483 H 55.3625 -1.69453 -4.78799 0
M  V30 484 H 55.2925 0.0202385 -5.26596 0
M  V30 485 H 57.7835 -0.389138 -3.75891 0
M  V30 486 H 58.0965 -1.41513 -7.59733 0
M  V30 487 H 56.4415 -1.26583 -6.83375 0
M  V30 488 H 59.6325 -0.565748 -4.64669 0
M  V30 489 H 59.8055 -1.03338 -6.39707 0
M  V30 490 N 53.2116 1.57565 -0.0334293 0
M  V30 491 C 54.1216 2.13943 0.962572 0
M  V30 492 C 55.1376 1.09276 1.35406 0
M  V30 493 O 56.3136 1.41355 1.4346 0
M  V30 494 C 53.3786 2.65887 2.22497 0
M  V30 495 C 52.4396 3.85286 1.8935 0
M  V30 496 C 51.6726 4.34743 3.09571 0
M  V30 497 O 51.8956 3.83352 4.22371 0
M  V30 498 O 50.8296 5.26538 2.91618 0
M  V30 499 H 54.6556 2.99333 0.513169 0
M  V30 500 H 52.2406 1.4822 0.18743 0
M  V30 501 H 54.1226 2.99346 2.96598 0
M  V30 502 H 52.7976 1.83578 2.6661 0
M  V30 503 H 51.7046 3.56746 1.1262 0
M  V30 504 H 53.0376 4.68771 1.5005 0
M  V30 505 N 54.6897 -0.239769 1.55765 0
M  V30 506 C 55.9367 -0.966801 1.7793 0
M  V30 507 C 56.2647 -1.85046 0.599015 0
M  V30 508 O 55.5197 -1.91197 -0.417395 0
M  V30 509 C 55.8187 -1.852 3.05672 0
M  V30 510 C 55.4847 -1.1231 4.36689 0
M  V30 511 C 54.1467 -0.921689 4.72291 0
M  V30 512 C 56.4987 -0.607019 5.17653 0
M  V30 513 C 53.8267 -0.191996 5.86386 0
M  V30 514 C 56.1787 0.109241 6.32506 0
M  V30 515 C 54.8427 0.322073 6.66723 0
M  V30 516 H 54.1127 -0.353778 0.651093 0
M  V30 517 H 56.7597 -0.23634 1.90036 0
M  V30 518 H 55.0647 -2.64975 2.8861 0
M  V30 519 H 56.7617 -2.41635 3.20021 0
M  V30 520 H 53.3517 -1.29004 4.08725 0
M  V30 521 H 57.5357 -0.750153 4.90598 0
M  V30 522 H 52.7917 -0.0166949 6.11398 0
M  V30 523 H 56.9657 0.516737 6.9448 0
M  V30 524 H 54.5927 0.88944 7.54979 0
M  V30 525 N 56.1678 -1.49265 -0.50573 0
M  V30 526 C 57.1158 -1.66065 -1.62866 0
M  V30 527 C 58.1098 -0.526636 -1.61006 0
M  V30 528 O 59.3158 -0.706126 -1.65571 0
M  V30 529 H 55.6908 -0.52356 -0.539805 0
M  V30 530 H 57.6618 -2.60329 -1.45848 0
M  V30 531 C 56.4108 -1.74008 -3.01026 0
M  V30 532 H 55.7338 -2.6064 -3.03161 0
M  V30 533 H 57.1738 -1.89798 -3.79147 0
M  V30 534 C 55.6328 -0.483868 -3.33407 0
M  V30 535 O 56.1628 0.392548 -3.99777 0
M  V30 536 N 54.3688 -0.348236 -2.88506 0
M  V30 537 H 53.9158 -1.06242 -2.34671 0
M  V30 538 H 53.8738 0.491204 -3.10539 0
M  V30 539 N 57.6459 0.756429 -1.3826 0
M  V30 540 C 58.5789 1.87802 -1.29637 0
M  V30 541 C 59.5569 1.61667 -0.173939 0
M  V30 542 O 60.7409 1.85208 -0.350775 0
M  V30 543 C 57.8679 3.23354 -1.00797 0
M  V30 544 C 56.9139 3.68379 -2.14939 0
M  V30 545 S 57.7469 3.8025 -3.77054 0
M  V30 546 C 58.9029 5.18626 -3.50396 0
M  V30 547 H 59.1359 1.94829 -2.24564 0
M  V30 548 H 56.6689 0.919117 -1.24063 0
M  V30 549 H 58.6269 4.01637 -0.848413 0
M  V30 550 H 57.2879 3.14008 -0.0759369 0
M  V30 551 H 56.4809 4.66693 -1.90299 0
M  V30 552 H 56.0829 2.97242 -2.26988 0
M  V30 553 H 58.3749 6.04289 -3.06334 0
M  V30 554 H 59.3179 5.48286 -4.48094 0
M  V30 555 H 59.7259 4.87289 -2.84973 0
M  V30 556 N 59.124 1.23083 0.984299 0
M  V30 557 C 60.37 1.06214 1.72761 0
M  V30 558 C 60.703 -0.400584 1.90024 0
M  V30 559 O 59.978 -1.29672 1.44967 0
M  V30 560 C 60.261 1.78375 3.12817 0
M  V30 561 C 60.114 3.32296 3.03149 0
M  V30 562 C 61.433 1.54309 4.12161 0
M  V30 563 H 58.552 0.387251 0.627061 0
M  V30 564 H 61.194 1.51536 1.14616 0
M  V30 565 H 59.344 1.39848 3.62457 0
M  V30 566 H 61.016 3.8032 2.61064 0
M  V30 567 H 59.259 3.6153 2.39747 0
M  V30 568 H 59.93 3.77972 4.02295 0
M  V30 569 H 62.406 1.87791 3.71314 0
M  V30 570 H 61.282 2.07281 5.08258 0
M  V30 571 H 61.543 0.477572 4.39513 0
M  V30 572 N 60.6021 -1.18246 1.0419 0
M  V30 573 C 61.8301 -1.92195 0.766072 0
M  V30 574 C 62.2451 -1.76247 -0.676933 0
M  V30 575 O 61.6021 -1.09293 -1.46155 0
M  V30 576 C 61.6531 -3.43568 1.12442 0
M  V30 577 O 61.3741 -3.59015 2.51078 0
M  V30 578 C 62.8751 -4.34613 0.873275 0
M  V30 579 H 60.0951 -0.610114 0.279288 0
M  V30 580 H 62.6391 -1.50007 1.38989 0
M  V30 581 H 60.7941 -3.8354 0.545542 0
M  V30 582 H 61.2081 -4.5273 2.64831 0
M  V30 583 H 62.6821 -5.39374 1.17385 0
M  V30 584 H 63.1591 -4.38781 -0.191909 0
M  V30 585 H 63.7651 -4.00341 1.43551 0
M  V30 586 N 62.0802 -0.821533 -1.34494 0
M  V30 587 C 63.0432 -0.247847 -2.27856 0
M  V30 588 C 64.0432 0.573453 -1.50227 0
M  V30 589 O 65.2332 0.389759 -1.69784 0
M  V30 590 C 62.3652 0.652698 -3.34593 0
M  V30 591 H 63.5582 -1.07146 -2.80107 0
M  V30 592 H 61.1112 -0.593291 -1.44602 0
M  V30 593 H 61.8462 1.49943 -2.87555 0
M  V30 594 H 61.6312 0.065292 -3.92046 0
M  V30 595 H 63.1212 1.04793 -4.04238 0
M  V30 596 N 63.5583 1.46682 -0.576371 0
M  V30 597 C 64.4683 2.34032 0.163141 0
M  V30 598 C 65.4843 1.49367 0.892501 0
M  V30 599 O 66.6603 1.82252 0.857106 0
M  V30 600 C 63.7253 3.26435 1.16795 0
M  V30 601 C 62.7863 4.26998 0.443944 0
M  V30 602 C 62.0193 5.14986 1.40088 0
M  V30 603 O 62.2423 5.05785 2.637 0
M  V30 604 O 61.1763 5.94906 0.914917 0
M  V30 605 H 65.0023 2.98607 -0.55388 0
M  V30 606 H 62.5873 1.45554 -0.336821 0
M  V30 607 H 64.4693 3.83459 1.74748 0
M  V30 608 H 63.1443 2.64465 1.86655 0
M  V30 609 H 62.0513 3.7368 -0.177271 0
M  V30 610 H 63.3843 4.91736 -0.213566 0
M  V30 611 N 65.0364 0.313813 1.54444 0
M  V30 612 C 65.9844 -0.572171 2.25453 0
M  V30 613 C 66.9784 -1.12657 1.2651 0
M  V30 614 O 68.1844 -1.07573 1.44319 0
M  V30 615 H 64.5594 -0.203146 0.724041 0
M  V30 616 H 66.5304 0.0491145 2.9836 0
M  V30 617 C 65.2794 -1.72626 3.0182 0
M  V30 618 H 64.6024 -1.30891 3.77767 0
M  V30 619 H 66.0424 -2.32199 3.54767 0
M  V30 620 C 64.5014 -2.63806 2.09542 0
M  V30 621 O 65.0314 -3.65256 1.67185 0
M  V30 622 N 63.2374 -2.31824 1.75232 0
M  V30 623 H 62.7844 -1.49368 2.09873 0
M  V30 624 H 62.7424 -2.93095 1.13767 0
M  V30 625 N 66.5145 -1.57545 0.0417849 0
M  V30 626 C 67.4245 -2.14451 -0.951213 0
M  V30 627 C 68.4405 -1.09992 -1.34825 0
M  V30 628 O 69.6165 -1.42114 -1.42708 0
M  V30 629 C 66.6815 -2.67063 -2.21084 0
M  V30 630 C 65.7425 -3.86284 -1.87304 0
M  V30 631 C 64.9755 -4.36378 -3.07261 0
M  V30 632 O 65.1985 -3.85587 -4.20332 0
M  V30 633 O 64.1325 -5.28077 -2.88822 0
M  V30 634 H 67.9585 -2.99601 -0.497287 0
M  V30 635 H 65.5435 -1.48317 -0.179567 0
M  V30 636 H 67.4255 -3.00914 -2.95006 0
M  V30 637 H 66.1005 -1.84989 -2.65633 0
M  V30 638 H 65.0075 -3.57338 -1.10727 0
M  V30 639 H 66.3405 -4.6956 -1.47562 0
M  V30 640 N 67.9926 0.231505 -1.5589 0
M  V30 641 C 68.9256 1.31369 -1.86595 0
M  V30 642 C 69.9036 1.45671 -0.722397 0
M  V30 643 O 71.0876 1.61642 -0.969743 0
M  V30 644 C 68.2146 2.68529 -2.06421 0
M  V30 645 C 67.2606 2.71295 -3.29092 0
M  V30 646 S 68.0936 2.26358 -4.85306 0
M  V30 647 C 69.2496 3.65414 -5.08157 0
M  V30 648 H 69.4826 1.05128 -2.78092 0
M  V30 649 H 67.0156 0.433259 -1.48197 0
M  V30 650 H 68.9736 3.47499 -2.18528 0
M  V30 651 H 67.6346 2.91999 -1.15738 0
M  V30 652 H 66.8276 3.72063 -3.39978 0
M  V30 653 H 66.4296 2.0038 -3.15791 0
M  V30 654 H 68.7216 4.6103 -4.96445 0
M  V30 655 H 69.6646 3.5945 -6.10083 0
M  V30 656 H 70.0726 3.5864 -4.35933 0
M  V30 657 N 69.4707 1.49531 0.497807 0
M  V30 658 C 70.4177 1.66436 1.59899 0
M  V30 659 C 71.3877 0.505793 1.58212 0
M  V30 660 O 72.5727 0.733202 1.7615 0
M  V30 661 C 69.7127 1.7399 2.98029 0
M  V30 662 C 68.8257 3.01172 3.09708 0
M  V30 663 C 67.9607 2.99686 4.38591 0
M  V30 664 C 66.9997 4.21434 4.43914 0
M  V30 665 N 66.1367 4.1784 5.64229 0
M  V30 666 H 70.9767 2.60459 1.44793 0
M  V30 667 H 68.5137 1.29137 0.704423 0
M  V30 668 H 70.4717 1.76352 3.78095 0
M  V30 669 H 69.1017 0.834301 3.11832 0
M  V30 670 H 68.1537 3.08408 2.22685 0
M  V30 671 H 69.4657 3.91165 3.09502 0
M  V30 672 H 68.6197 3.00628 5.2698 0
M  V30 673 H 67.3587 2.07477 4.41367 0
M  V30 674 H 66.3637 4.20733 3.53926 0
M  V30 675 H 67.5887 5.14839 4.42851 0
M  V30 676 H 65.5347 3.28469 5.67841 0
M  V30 677 H 65.4517 5.01571 5.65652 0
M  V30 678 H 66.7197 4.22889 6.54817 0
M  V30 679 N 70.9488 -0.749086 1.3866 0
M  V30 680 C 72.1978 -1.50371 1.3443 0
M  V30 681 C 72.5108 -1.95503 -0.0616397 0
M  V30 682 O 73.7168 -2.70554 -0.226489 0
M  V30 683 C 72.1728 -2.71644 2.36088 0
M  V30 684 C 71.7808 -2.3352 3.82325 0
M  V30 685 C 73.5248 -3.49518 2.40909 0
M  V30 686 C 71.4318 -3.51431 4.75658 0
M  V30 687 H 70.3618 -0.564628 0.499712 0
M  V30 688 H 73.0128 -0.818449 1.64237 0
M  V30 689 H 71.3948 -3.42175 1.9933 0
M  V30 690 H 72.5688 -1.70627 4.28046 0
M  V30 691 H 70.8838 -1.6877 3.80665 0
M  V30 692 H 73.4808 -4.37197 3.07836 0
M  V30 693 H 73.8238 -3.90992 1.42937 0
M  V30 694 H 74.3568 -2.86005 2.76489 0
M  V30 695 H 71.0958 -3.15019 5.74842 0
M  V30 696 H 70.6158 -4.13352 4.34627 0
M  V30 697 H 72.2948 -4.17953 4.93887 0
M  V30 698 N 72.4269 -1.23603 -0.977757 0
M  V30 699 C 73.7039 -0.977897 -1.69401 0
M  V30 700 C 74.0839 0.502738 -2.05026 0
M  V30 701 O 73.4319 1.47459 -1.74551 0
M  V30 702 C 73.6419 -1.89077 -2.93345 0
M  V30 703 C 74.9899 -2.15579 -3.65802 0
M  V30 704 O 76.0139 -1.86648 -3.03383 0
M  V30 705 O 74.8729 -2.64658 -4.78141 0
M  V30 706 H 71.9669 -0.369025 -0.740101 0
M  V30 707 H 74.5129 -1.34657 -1.03274 0
M  V30 708 H 73.2849 -2.89158 -2.63634 0
M  V30 709 H 72.9079 -1.52463 -3.67207 0
M  V30 710 N 73.905 1.17692 -1.04816 0
M  V30 711 C 74.868 2.19787 -0.650117 0
M  V30 712 C 75.868 1.58044 0.296427 0
M  V30 713 O 77.058 1.74012 0.0808097 0
M  V30 714 C 74.19 3.40869 0.0456987 0
M  V30 715 H 75.383 2.56516 -1.5537 0
M  V30 716 H 72.936 1.31708 -0.841594 0
M  V30 717 H 73.671 3.09681 0.962726 0
M  V30 718 H 73.456 3.86928 -0.634727 0
M  V30 719 H 74.946 4.16445 0.310432 0
M  V30 720 N 75.3831 0.828654 1.34056 0
M  V30 721 C 76.6111 0.43262 2.02326 0
M  V30 722 C 77.0261 -0.963147 1.62385 0
M  V30 723 O 76.3831 -1.62425 0.832121 0
M  V30 724 C 76.4341 0.53182 3.57567 0
M  V30 725 O 76.1551 1.87258 3.96063 0
M  V30 726 C 77.6561 0.131422 4.43105 0
M  V30 727 H 74.8761 0.172923 0.648335 0
M  V30 728 H 77.4201 1.1184 1.71208 0
M  V30 729 H 75.5751 -0.105938 3.87255 0
M  V30 730 H 75.9891 1.85087 4.90758 0
M  V30 731 H 77.4631 0.251904 5.51425 0
M  V30 732 H 77.9401 -0.925645 4.29335 0
M  V30 733 H 78.5461 0.743207 4.18756 0
M  V30 734 N 76.8612 -1.46375 0.584142 0
M  V30 735 C 77.7712 -2.34115 -0.150728 0
M  V30 736 C 78.7872 -1.49838 -0.884567 0
M  V30 737 O 79.9632 -1.82704 -0.847429 0
M  V30 738 C 77.0282 -3.2705 -1.15062 0
M  V30 739 C 76.0892 -4.27228 -0.421293 0
M  V30 740 C 75.3222 -5.15722 -1.37355 0
M  V30 741 O 75.5452 -5.07176 -2.61014 0
M  V30 742 O 74.4792 -5.95383 -0.883355 0
M  V30 743 H 78.3052 -2.98309 0.569708 0
M  V30 744 H 75.8902 -1.45373 0.344535 0
M  V30 745 H 77.7722 -3.84381 -1.72712 0
M  V30 746 H 76.4472 -2.65451 -1.8525 0
M  V30 747 H 75.3542 -3.7358 0.197085 0
M  V30 748 H 76.6872 -4.91616 0.239641 0
M  V30 749 N 78.3393 -0.321999 -1.54275 0
M  V30 750 C 79.7503 0.166384 -1.85957 0
M  V30 751 C 80.1013 1.51747 -1.24367 0
M  V30 752 O 79.2263 2.09317 -0.549124 0
M  V30 753 C 79.8213 0.308681 -3.37391 0
M  V30 754 C 78.3803 0.741286 -3.69028 0
M  V30 755 C 77.5273 -0.137937 -2.76957 0
M  V30 756 H 80.4783 -0.542335 -1.49146 0
M  V30 757 H 80.4993 1.13984 -3.63026 0
M  V30 758 H 80.0113 -0.674809 -3.82188 0
M  V30 759 H 78.1123 1.73458 -3.29762 0
M  V30 760 H 78.2253 0.546118 -4.75977 0
M  V30 761 H 76.5893 0.386251 -2.51754 0
M  V30 762 H 77.3723 -1.11816 -3.2458 0
M  V30 763 N 79.8174 1.5752 -0.0501392 0
M  V30 764 C 80.7494 2.08413 0.95376 0
M  V30 765 C 81.7624 1.01175 1.27544 0
M  V30 766 O 82.9514 1.28744 1.23641 0
M  V30 767 C 80.0514 2.51138 2.27559 0
M  V30 768 C 79.2244 3.817 2.13598 0
M  V30 769 C 78.2834 4.10749 3.28895 0
M  V30 770 O 77.3094 4.80685 3.04845 0
M  V30 771 N 78.5114 3.62579 4.5334 0
M  V30 772 H 81.2764 2.95165 0.519383 0
M  V30 773 H 78.8374 1.61327 0.136127 0
M  V30 774 H 80.8294 2.67648 3.03557 0
M  V30 775 H 79.3994 1.6964 2.62567 0
M  V30 776 H 78.6194 3.74782 1.22197 0
M  V30 777 H 79.9074 4.67201 2.01496 0
M  V30 778 H 79.3054 3.06039 4.75769 0
M  V30 779 H 77.8624 3.84329 5.26436 0
M  V30 780 N 81.2955 -0.223234 1.56011 0
M  V30 781 C 82.7115 -0.572856 1.48965 0
M  V30 782 C 82.9115 -1.87225 0.74492 0
M  V30 783 O 81.9675 -2.50899 0.283896 0
M  V30 784 C 83.2805 -0.653646 2.9351 0
M  V30 785 C 84.8285 -0.744386 3.0402 0
M  V30 786 C 85.3035 -0.856535 4.49919 0
M  V30 787 N 86.7945 -0.9208 4.53955 0
M  V30 788 C 87.5295 -1.02726 5.64123 0
M  V30 789 N 87.0255 -1.09777 6.84047 0
M  V30 790 N 88.8185 -1.06226 5.51971 0
M  V30 791 H 80.9695 0.629462 2.02858 0
M  V30 792 H 83.2325 0.220621 0.921971 0
M  V30 793 H 82.9385 0.231518 3.50937 0
M  V30 794 H 82.8125 -1.51781 3.45315 0
M  V30 795 H 85.1995 -1.61999 2.46658 0
M  V30 796 H 85.2805 0.14541 2.55386 0
M  V30 797 H 84.9245 0.0146069 5.07898 0
M  V30 798 H 84.8545 -1.76172 4.96257 0
M  V30 799 H 87.3455 -0.876694 3.6759 0
M  V30 800 H 87.6585 -1.17872 7.63758 0
M  V30 801 H 86.0035 -1.06693 6.86762 0
M  V30 802 H 89.1945 -1.00382 4.5721 0
M  V30 803 H 89.3675 -1.14177 6.37862 0
M  V30 804 N 82.7736 -1.49793 -0.48987 0
M  V30 805 C 84.0216 -1.59525 -1.24081 0
M  V30 806 C 84.3426 -0.288953 -1.92847 0
M  V30 807 O 83.6126 0.692436 -1.83254 0
M  V30 808 H 82.1926 -0.587796 -0.460983 0
M  V30 809 H 84.8546 -1.86477 -0.566778 0
M  V30 810 H 83.9506 -2.39696 -1.99881 0
M  V30 811 N 84.2517 0.741722 -1.39055 0
M  V30 812 C 85.1837 1.8657 -1.33133 0
M  V30 813 C 86.1967 1.61001 -0.241329 0
M  V30 814 O 87.3857 1.7136 -0.499784 0
M  V30 815 C 84.4857 3.22457 -1.04283 0
M  V30 816 C 83.6587 3.75435 -2.24427 0
M  V30 817 C 82.7177 4.89867 -1.92138 0
M  V30 818 O 81.7437 5.03879 -2.64754 0
M  V30 819 N 82.9457 5.73738 -0.88347 0
M  V30 820 H 85.7107 1.92156 -2.29991 0
M  V30 821 H 83.2717 0.922172 -1.3307 0
M  V30 822 H 85.2637 3.9657 -0.807128 0
M  V30 823 H 83.8337 3.12181 -0.161807 0
M  V30 824 H 83.0537 2.92751 -2.6399 0
M  V30 825 H 84.3417 4.07563 -3.04581 0
M  V30 826 H 83.7397 5.64999 -0.281517 0
M  V30 827 H 82.2967 6.47947 -0.707662 0
M  V30 828 N 85.7298 1.2412 0.971189 0
M  V30 829 C 86.9768 1.07881 1.71371 0
M  V30 830 C 87.3048 -0.382901 1.90694 0
M  V30 831 O 86.5598 -1.29945 1.46331 0
M  V30 832 C 86.8588 1.75983 3.11071 0
M  V30 833 C 86.5248 3.25909 3.11599 0
M  V30 834 C 85.1868 3.66813 3.11451 0
M  V30 835 C 87.5388 4.21771 3.062 0
M  V30 836 C 84.8668 5.02021 3.03631 0
M  V30 837 C 87.2188 5.56982 2.99923 0
M  V30 838 C 85.8828 5.97237 2.98102 0
M  V30 839 H 85.1528 0.394764 0.62709 0
M  V30 840 H 87.7998 1.54176 1.13587 0
M  V30 841 H 86.1048 1.22072 3.72298 0
M  V30 842 H 87.8018 1.60887 3.6731 0
M  V30 843 H 84.3918 2.93353 3.12477 0
M  V30 844 H 88.5758 3.91172 3.05447 0
M  V30 845 H 83.8318 5.32411 3.0058 0
M  V30 846 H 88.0058 6.30969 2.94704 0
M  V30 847 H 85.6328 7.01967 2.91798 0
M  V30 848 N 87.2079 -1.17134 1.05439 0
M  V30 849 C 88.1559 -2.23289 0.651511 0
M  V30 850 C 89.1499 -1.66186 -0.328411 0
M  V30 851 O 90.3559 -1.78949 -0.194206 0
M  V30 852 H 86.7309 -0.726938 0.192523 0
M  V30 853 H 88.7019 -2.54565 1.55689 0
M  V30 854 C 87.4509 -3.47671 0.0448436 0
M  V30 855 H 86.7739 -3.91918 0.78996 0
M  V30 856 H 88.2139 -4.2353 -0.19964 0
M  V30 857 C 86.6729 -3.14453 -1.20918 0
M  V30 858 O 87.2029 -3.29459 -2.29825 0
M  V30 859 N 85.4089 -2.68657 -1.10779 0
M  V30 860 H 84.9559 -2.56646 -0.221526 0
M  V30 861 H 84.9139 -2.46804 -1.9477 0
M  V30 862 N 88.686 -0.835752 -1.33615 0
M  V30 863 C 89.933 -0.429959 -1.97883 0
M  V30 864 C 90.261 1.01006 -1.66217 0
M  V30 865 O 89.516 1.72047 -0.93265 0
M  V30 866 C 89.815 -0.593925 -3.52431 0
M  V30 867 C 89.481 -2.00158 -4.04039 0
M  V30 868 C 88.143 -2.38662 -4.17844 0
M  V30 869 C 90.495 -2.92117 -4.31644 0
M  V30 870 C 87.823 -3.68435 -4.56588 0
M  V30 871 C 90.175 -4.21368 -4.71838 0
M  V30 872 C 88.839 -4.59833 -4.83849 0
M  V30 873 H 88.109 -0.157333 -0.724104 0
M  V30 874 H 90.756 -1.06217 -1.59343 0
M  V30 875 H 89.061 0.121619 -3.91611 0
M  V30 876 H 90.758 -0.260282 -4.00154 0
M  V30 877 H 87.348 -1.69252 -3.93766 0
M  V30 878 H 91.532 -2.63608 -4.20505 0
M  V30 879 H 86.788 -3.98046 -4.64079 0
M  V30 880 H 90.962 -4.92703 -4.92155 0
M  V30 881 H 88.589 -5.60438 -5.13627 0
M  V30 882 N 90.1641 1.46063 -0.591896 0
M  V30 883 C 91.3891 2.07226 -0.0850314 0
M  V30 884 C 91.8141 1.43625 1.21463 0
M  V30 885 O 91.1721 0.523305 1.73583 0
M  V30 886 C 91.2201 3.60554 0.0576567 0
M  V30 887 O 90.3241 3.97128 1.11188 0
M  V30 888 H 89.6651 0.660615 -0.0669568 0
M  V30 889 H 92.1951 1.8756 -0.81745 0
M  V30 890 H 92.2051 4.07165 0.2609 0
M  V30 891 H 90.8801 4.06235 -0.891416 0
M  V30 892 H 89.4571 3.62213 0.886356 0
M  V30 893 N 91.6422 0.330177 1.54103 0
M  V30 894 C 92.6052 -0.520144 2.2322 0
M  V30 895 C 93.6052 -1.03828 1.22786 0
M  V30 896 O 94.7952 -0.929652 1.4732 0
M  V30 897 C 91.9272 -1.72317 2.94142 0
M  V30 898 H 93.1202 0.0841605 2.99782 0
M  V30 899 H 90.6732 0.0813433 1.56088 0
M  V30 900 H 91.4082 -2.36653 2.21734 0
M  V30 901 H 91.1932 -1.35898 3.67796 0
M  V30 902 H 92.6832 -2.3266 3.46784 0
M  V30 903 N 93.1203 -1.57491 0.0584922 0
M  V30 904 C 94.3683 -1.92597 -0.612436 0
M  V30 905 C 94.6893 -0.938162 -1.70949 0
M  V30 906 O 93.9593 0.0158301 -1.95894 0
M  V30 907 H 92.5393 -0.710964 -0.229214 0
M  V30 908 H 95.2013 -1.94571 0.113218 0
M  V30 909 H 94.2973 -2.94038 -1.04633 0
M  V30 910 N 94.5984 0.214957 -1.56127 0
M  V30 911 C 95.8754 0.963093 -1.70247 0
M  V30 912 C 96.2554 2.02166 -0.60764 0
M  V30 913 O 95.6034 2.25244 0.384385 0
M  V30 914 C 95.8134 1.56756 -3.11815 0
M  V30 915 C 97.1614 2.0573 -3.7143 0
M  V30 916 O 98.1854 1.66637 -3.14818 0
M  V30 917 O 97.0444 2.77603 -4.70743 0
M  V30 918 H 94.1384 0.450321 -0.693643 0
M  V30 919 H 96.6844 0.206219 -1.68442 0
M  V30 920 H 95.4564 0.803533 -3.82961 0
M  V30 921 H 95.0794 2.3898 -3.17765 0
M  V30 922 N 96.0765 1.50051 0.48192 0
M  V30 923 C 97.4925 1.37237 0.814756 0
M  V30 924 C 97.6925 0.420109 1.97072 0
M  V30 925 O 96.7485 -0.141246 2.52105 0
M  V30 926 C 98.0615 2.78375 1.13701 0
M  V30 927 C 99.6095 2.87213 1.2441 0
M  V30 928 C 100.084 4.29161 1.59954 0
M  V30 929 N 101.575 4.32061 1.66967 0
M  V30 930 C 102.31 5.38879 1.95952 0
M  V30 931 N 101.806 6.55918 2.23031 0
M  V30 932 N 103.599 5.26312 1.97363 0
M  V30 933 H 95.7505 2.10546 -0.28005 0
M  V30 934 H 98.0135 0.945921 -0.0627454 0
M  V30 935 H 97.7195 3.49845 0.360787 0
M  V30 936 H 97.5935 3.14941 2.07586 0
M  V30 937 H 99.9805 2.15969 2.01101 0
M  V30 938 H 100.061 2.54204 0.285299 0
M  V30 939 H 99.7055 5.00938 0.838067 0
M  V30 940 H 99.6355 4.59648 2.56966 0
M  V30 941 H 102.126 3.47661 1.48123 0
M  V30 942 H 102.439 7.33139 2.44391 0
M  V30 943 H 100.784 6.59112 2.20447 0
M  V30 944 H 103.975 4.33876 1.75697 0
M  V30 945 H 104.148 6.09649 2.19618 0
M  V30 946 N 97.5546 -0.734337 1.39446 0
M  V30 947 C 98.8006 -1.49613 1.36908 0
M  V30 948 C 99.1336 -1.94169 -0.0347829 0
M  V30 949 O 98.4086 -1.66833 -0.999847 0
M  V30 950 C 98.6916 -2.73534 2.34203 0
M  V30 951 C 98.5446 -2.34993 3.83534 0
M  V30 952 C 99.8636 -3.75635 2.29317 0
M  V30 953 H 96.9826 -0.542714 0.498629 0
M  V30 954 H 99.6246 -0.839597 1.70443 0
M  V30 955 H 97.7746 -3.29553 2.05736 0
M  V30 956 H 99.4466 -1.84601 4.22753 0
M  V30 957 H 97.6896 -1.67213 4.00278 0
M  V30 958 H 98.3606 -3.23738 4.47099 0
M  V30 959 H 100.837 -3.29203 2.54489 0
M  V30 960 H 99.7126 -4.60008 2.99472 0
M  V30 961 H 99.9736 -4.22603 1.29842 0
M  V30 962 N 99.0327 -1.24633 -0.964593 0
M  V30 963 C 100.263 -1.11339 -1.74032 0
M  V30 964 C 100.671 0.336593 -1.86182 0
M  V30 965 O 100.014 1.24389 -1.35178 0
M  V30 966 C 100.076 -1.68284 -3.1768 0
M  V30 967 C 99.7397 -3.17196 -3.28992 0
M  V30 968 C 100.737 -4.14308 -3.14078 0
M  V30 969 C 98.4217 -3.57215 -3.53133 0
M  V30 970 C 100.416 -5.4942 -3.23135 0
M  V30 971 C 98.1027 -4.92468 -3.61827 0
M  V30 972 C 99.1007 -5.8838 -3.46841 0
M  V30 973 O 98.7887 -7.21173 -3.55197 0
M  V30 974 H 98.5207 -0.389551 -0.552472 0
M  V30 975 H 101.075 -1.65282 -1.21946 0
M  V30 976 H 99.3047 -1.08777 -3.71085 0
M  V30 977 H 100.994 -1.50234 -3.77074 0
M  V30 978 H 101.76 -3.84731 -2.95308 0
M  V30 979 H 97.6387 -2.83063 -3.63863 0
M  V30 980 H 101.183 -6.24263 -3.11355 0
M  V30 981 H 97.0797 -5.21714 -3.80111 0
M  V30 982 H 97.8477 -7.29135 -3.71892 0
M  V30 983 N 100.511 1.16574 -1.06058 0
M  V30 984 C 101.459 2.22941 -0.663343 0
M  V30 985 C 102.453 1.66358 0.319593 0
M  V30 986 O 103.659 1.7905 0.184713 0
M  V30 987 H 100.034 0.725907 -0.196376 0
M  V30 988 H 102.005 2.53736 -1.57037 0
M  V30 989 C 100.754 3.47642 -0.0632808 0
M  V30 990 H 100.077 3.91493 -0.810733 0
M  V30 991 H 101.517 4.2363 0.177177 0
M  V30 992 C 99.9758 3.1509 1.19248 0
M  V30 993 O 100.506 3.30673 2.28075 0
M  V30 994 N 98.7118 2.6924 1.09353 0
M  V30 995 H 98.2588 2.5676 0.207912 0
M  V30 996 H 98.2168 2.47833 1.93458 0
M  V30 997 N 101.989 0.842826 1.3317 0
M  V30 998 C 103.235 0.450342 1.98352 0
M  V30 999 C 103.59 -0.980508 1.65541 0
M  V30 1000 O 102.883 -1.67678 0.927065 0
M  V30 1001 C 103.077 0.612607 3.52111 0
M  V30 1002 C 102.906 2.05768 3.99862 0
M  V30 1003 C 101.676 2.69374 4.27511 0
M  V30 1004 C 103.874 3.02688 4.15794 0
M  V30 1005 N 101.856 4.04915 4.61429 0
M  V30 1006 C 103.227 4.23186 4.53115 0
M  V30 1007 C 105.282 2.99041 3.98094 0
M  V30 1008 C 103.985 5.40518 4.74587 0
M  V30 1009 C 106.011 4.15607 4.20743 0
M  V30 1010 C 105.373 5.3486 4.58371 0
M  V30 1011 H 101.472 0.213296 0.752349 0
M  V30 1012 H 104.056 1.09173 1.61212 0
M  V30 1013 H 102.227 0.000998822 3.884 0
M  V30 1014 H 103.959 0.191179 4.04248 0
M  V30 1015 H 100.714 2.20485 4.19146 0
M  V30 1016 H 101.138 4.74798 4.82593 0
M  V30 1017 H 105.78 2.0797 3.68114 0
M  V30 1018 H 103.498 6.3213 5.03425 0
M  V30 1019 H 107.084 4.14207 4.08563 0
M  V30 1020 H 105.964 6.23558 4.75547 0
M  V30 1021 N 103.467 -1.45747 0.599634 0
M  V30 1022 C 104.43 -2.28917 -0.113835 0
M  V30 1023 C 105.43 -1.3933 -0.802729 0
M  V30 1024 O 106.62 -1.61534 -0.652103 0
M  V30 1025 C 103.752 -3.20152 -1.17114 0
M  V30 1026 H 104.945 -2.93478 0.617289 0
M  V30 1027 H 102.498 -1.52137 0.358327 0
M  V30 1028 H 103.233 -2.60374 -1.93329 0
M  V30 1029 H 103.018 -3.86133 -0.681468 0
M  V30 1030 H 104.508 -3.82708 -1.67105 0
M  V30 1031 N 104.945 -0.338344 -1.53925 0
M  V30 1032 C 106.191 0.260143 -2.01125 0
M  V30 1033 C 106.524 1.50617 -1.22589 0
M  V30 1034 O 105.799 1.91979 -0.312113 0
M  V30 1035 C 106.082 0.579499 -3.55407 0
M  V30 1036 C 105.935 -0.678264 -4.44657 0
M  V30 1037 C 107.254 1.39122 -4.17532 0
M  V30 1038 H 104.373 0.0930772 -0.731099 0
M  V30 1039 H 107.015 -0.457852 -1.84401 0
M  V30 1040 H 105.165 1.19118 -3.69788 0
M  V30 1041 H 106.837 -1.31631 -4.42121 0
M  V30 1042 H 105.08 -1.3042 -4.13731 0
M  V30 1043 H 105.751 -0.410143 -5.50474 0
M  V30 1044 H 108.227 0.874035 -4.06817 0
M  V30 1045 H 107.103 1.58342 -5.25565 0
M  V30 1046 H 107.364 2.39178 -3.71815 0
M  V30 1047 N 106.423 1.57458 -0.0668435 0
M  V30 1048 C 107.355 2.09413 0.931601 0
M  V30 1049 C 108.368 1.02522 1.26464 0
M  V30 1050 O 109.557 1.30049 1.22269 0
M  V30 1051 C 106.657 2.53537 2.24882 0
M  V30 1052 C 105.83 3.83944 2.09537 0
M  V30 1053 C 104.889 4.14214 3.2452 0
M  V30 1054 O 103.915 4.83891 2.9973 0
M  V30 1055 N 105.117 3.67367 4.49469 0
M  V30 1056 H 107.882 2.95699 0.488048 0
M  V30 1057 H 105.443 1.61462 0.119009 0
M  V30 1058 H 107.435 2.70853 3.00701 0
M  V30 1059 H 106.005 1.72415 2.60753 0
M  V30 1060 H 105.225 3.76057 1.18215 0
M  V30 1061 H 106.513 4.69312 1.96529 0
M  V30 1062 H 105.911 3.11068 4.72497 0
M  V30 1063 H 104.468 3.89891 5.2233 0
M  V30 1064 N 107.901 -0.206675 1.56239 0
M  V30 1065 C 108.849 -1.27571 1.94495 0
M  V30 1066 C 109.843 -1.47737 0.828862 0
M  V30 1067 O 111.049 -1.48735 1.0138 0
M  V30 1068 H 107.424 -0.428029 0.6183 0
M  V30 1069 H 109.395 -0.925961 2.8367 0
M  V30 1070 C 108.144 -2.61568 2.29079 0
M  V30 1071 H 107.467 -2.46863 3.14482 0
M  V30 1072 H 108.907 -3.35144 2.5972 0
M  V30 1073 C 107.366 -3.17695 1.12123 0
M  V30 1074 O 107.896 -3.99801 0.390153 0
M  V30 1075 N 106.102 -2.76276 0.901097 0
M  V30 1076 H 105.649 -2.09613 1.49733 0
M  V30 1077 H 105.607 -3.1417 0.120319 0
M  V30 1078 N 109.379 -1.50304 -0.473955 0
M  V30 1079 C 110.627 -1.60832 -1.22382 0
M  V30 1080 C 110.948 -0.30939 -1.9253 0
M  V30 1081 O 110.218 0.67296 -1.83978 0
M  V30 1082 H 108.798 -0.592652 -0.454723 0
M  V30 1083 H 111.46 -1.87068 -0.546968 0
M  V30 1084 H 110.556 -2.41803 -1.97327 0
M  V30 1085 N 110.857 0.726932 -1.39834 0
M  V30 1086 C 111.804 1.841 -1.39197 0
M  V30 1087 C 112.774 1.642 -0.250502 0
M  V30 1088 O 113.959 1.85494 -0.446846 0
M  V30 1089 C 111.099 3.21697 -1.24919 0
M  V30 1090 C 110.212 3.53247 -2.48678 0
M  V30 1091 C 109.347 4.80289 -2.26928 0
M  V30 1092 C 108.386 5.04707 -3.4632 0
M  V30 1093 N 107.523 6.22956 -3.23836 0
M  V30 1094 H 112.363 1.83979 -2.34427 0
M  V30 1095 H 109.9 0.898876 -1.16442 0
M  V30 1096 H 111.858 4.01137 -1.1465 0
M  V30 1097 H 110.488 3.21076 -0.333153 0
M  V30 1098 H 109.54 2.68447 -2.69519 0
M  V30 1099 H 110.852 3.67205 -3.37582 0
M  V30 1100 H 110.006 5.67725 -2.13947 0
M  V30 1101 H 108.745 4.68519 -1.35431 0
M  V30 1102 H 107.75 4.1573 -3.5979 0
M  V30 1103 H 108.975 5.18357 -4.38729 0
M  V30 1104 H 106.921 6.12459 -2.35011 0
M  V30 1105 H 106.838 6.37539 -4.063 0
M  V30 1106 H 108.106 7.1321 -3.14566 0
M  V30 1107 N 112.336 1.25143 0.95797 0
M  V30 1108 C 113.268 1.01023 2.05735 0
M  V30 1109 C 114.281 -0.0236902 1.62783 0
M  V30 1110 O 115.47 0.21448 1.77207 0
M  V30 1111 C 112.57 0.504595 3.35122 0
M  V30 1112 C 111.743 1.6039 4.06932 0
M  V30 1113 C 110.802 1.09922 5.14591 0
M  V30 1114 O 109.828 1.79293 5.40225 0
M  V30 1115 N 111.03 -0.0612545 5.80468 0
M  V30 1116 H 113.795 1.95683 2.26998 0
M  V30 1117 H 111.356 1.16303 1.12629 0
M  V30 1118 H 113.348 0.151516 4.04416 0
M  V30 1119 H 111.918 -0.347989 3.10657 0
M  V30 1120 H 111.138 2.12872 3.31782 0
M  V30 1121 H 112.426 2.34252 4.51667 0
M  V30 1122 H 111.824 -0.640985 5.62057 0
M  V30 1123 H 110.381 -0.355395 6.5083 0
M  V30 1124 N 113.814 -1.1601 1.06675 0
M  V30 1125 C 115.06 -1.86909 0.786945 0
M  V30 1126 C 115.393 -1.81717 -0.685018 0
M  V30 1127 O 114.668 -1.23551 -1.50218 0
M  V30 1128 C 114.951 -3.36313 1.28707 0
M  V30 1129 C 114.804 -3.50175 2.82308 0
M  V30 1130 C 116.123 -4.3084 0.898071 0
M  V30 1131 H 113.242 -0.678677 0.287343 0
M  V30 1132 H 115.884 -1.36336 1.32334 0
M  V30 1133 H 114.034 -3.79513 0.830768 0
M  V30 1134 H 115.706 -3.15886 3.36175 0
M  V30 1135 H 113.949 -2.91959 3.20847 0
M  V30 1136 H 114.62 -4.55116 3.12368 0
M  V30 1137 H 117.096 -3.95561 1.29114 0
M  V30 1138 H 115.972 -5.33876 1.27543 0
M  V30 1139 H 116.233 -4.41662 -0.196651 0
M  V30 1140 N 115.292 -0.849877 -1.32721 0
M  V30 1141 C 116.708 -0.539102 -1.50219 0
M  V30 1142 C 116.908 0.931271 -1.78689 0
M  V30 1143 O 115.964 1.71455 -1.85363 0
M  V30 1144 C 117.277 -1.42196 -2.64954 0
M  V30 1145 C 118.825 -1.42189 -2.78839 0
M  V30 1146 C 119.3 -2.28985 -3.96648 0
M  V30 1147 N 120.791 -2.26754 -4.03902 0
M  V30 1148 C 121.526 -2.90644 -4.94281 0
M  V30 1149 N 121.022 -3.63629 -5.897 0
M  V30 1150 N 122.815 -2.80057 -4.87365 0
M  V30 1151 H 114.966 -1.80156 -1.12506 0
M  V30 1152 H 117.229 -0.769217 -0.554085 0
M  V30 1153 H 116.935 -2.46733 -2.50631 0
M  V30 1154 H 116.809 -1.10591 -3.60624 0
M  V30 1155 H 119.196 -0.38419 -2.92588 0
M  V30 1156 H 119.277 -1.77807 -1.83898 0
M  V30 1157 H 118.921 -3.32819 -3.83658 0
M  V30 1158 H 118.851 -1.90702 -4.90857 0
M  V30 1159 H 121.342 -1.73688 -3.3562 0
M  V30 1160 H 121.655 -4.09558 -6.55349 0
M  V30 1161 H 120 -3.67737 -5.89741 0
M  V30 1162 H 123.191 -2.22593 -4.11789 0
M  V30 1163 H 123.364 -3.30132 -5.57599 0
M  V30 1164 N 116.77 1.45427 -0.607355 0
M  V30 1165 C 118.018 2.01841 -0.102253 0
M  V30 1166 C 118.339 1.47832 1.27164 0
M  V30 1167 O 117.609 0.672497 1.83995 0
M  V30 1168 H 116.189 0.746188 -0.0348101 0
M  V30 1169 H 118.851 1.78229 -0.7887 0
M  V30 1170 H 117.947 3.12057 -0.0518585 0
M  V30 1171 N 118.248 0.346503 1.53744 0
M  V30 1172 C 119.198 -0.524953 2.21874 0
M  V30 1173 C 120.182 -1.06376 1.20718 0
M  V30 1174 O 121.374 -0.996972 1.46251 0
M  V30 1175 C 118.503 -1.6739 2.99726 0
M  V30 1176 C 117.589 -1.14888 4.08242 0
M  V30 1177 N 117.98 -0.345329 5.0462 0
M  V30 1178 C 116.278 -1.4255 4.22606 0
M  V30 1179 C 116.979 -0.0600706 5.81669 0
M  V30 1180 N 115.955 -0.65252 5.39669 0
M  V30 1181 H 119.757 0.0960091 2.93743 0
M  V30 1182 H 117.271 0.15352 1.61673 0
M  V30 1183 H 119.268 -2.3102 3.47038 0
M  V30 1184 H 117.928 -2.29811 2.29384 0
M  V30 1185 H 118.939 0.0138439 5.17898 0
M  V30 1186 H 115.616 -2.05389 3.63486 0
M  V30 1187 H 117.006 0.588321 6.69319 0
M  V30 1188 N 119.726 -1.57421 0.075193 0
M  V30 1189 C 120.954 -1.97946 -0.602076 0
M  V30 1190 C 121.369 -0.953674 -1.62943 0
M  V30 1191 O 120.726 0.0592551 -1.82404 0
M  V30 1192 C 120.777 -3.38546 -1.26762 0
M  V30 1193 O 120.498 -4.37195 -0.281376 0
M  V30 1194 C 121.999 -3.93966 -2.03239 0
M  V30 1195 H 119.219 -0.650918 -0.162931 0
M  V30 1196 H 121.763 -2.03959 0.148601 0
M  V30 1197 H 119.918 -3.33609 -1.96936 0
M  V30 1198 H 120.332 -5.18975 -0.759267 0
M  V30 1199 H 121.806 -4.94555 -2.45193 0
M  V30 1200 H 122.283 -3.30693 -2.8903 0
M  V30 1201 H 122.889 -4.02315 -1.37924 0
M  V30 1202 N 121.204 0.198386 -1.56346 0
M  V30 1203 C 122.134 1.24865 -1.9731 0
M  V30 1204 C 123.115 1.47651 -0.844576 0
M  V30 1205 O 124.3 1.59444 -1.10866 0
M  V30 1206 C 121.43 2.59358 -2.30977 0
M  V30 1207 C 120.384 2.5119 -3.46537 0
M  V30 1208 C 119.71 3.89926 -3.65871 0
M  V30 1209 C 121.01 2.03977 -4.80823 0
M  V30 1210 H 122.704 0.908252 -2.85291 0
M  V30 1211 H 120.25 0.435462 -1.37258 0
M  V30 1212 H 122.203 3.33011 -2.58228 0
M  V30 1213 H 120.927 2.95132 -1.39874 0
M  V30 1214 H 119.586 1.79993 -3.19371 0
M  V30 1215 H 119.234 4.23046 -2.72105 0
M  V30 1216 H 118.934 3.85336 -4.4361 0
M  V30 1217 H 120.458 4.65205 -3.95495 0
M  V30 1218 H 121.872 2.67386 -5.07127 0
M  V30 1219 H 120.269 2.10397 -5.62008 0
M  V30 1220 H 121.339 0.992861 -4.74626 0
M  V30 1221 N 122.682 1.50554 0.465978 0
M  V30 1222 C 123.645 1.69233 1.54574 0
M  V30 1223 C 124.645 0.562901 1.50626 0
M  V30 1224 O 125.835 0.830016 1.53155 0
M  V30 1225 C 122.967 1.7223 2.94193 0
M  V30 1226 H 124.16 2.65571 1.39327 0
M  V30 1227 H 121.713 1.40111 0.692711 0
M  V30 1228 H 122.448 0.77603 3.14878 0
M  V30 1229 H 122.233 2.54285 2.98466 0
M  V30 1230 H 123.723 1.88618 3.72576 0
M  V30 1231 N 124.16 -0.719506 1.40217 0
M  V30 1232 C 125.406 -1.48034 1.39491 0
M  V30 1233 C 125.761 -1.92399 -0.00443536 0
M  V30 1234 O 125.054 -1.64993 -0.974061 0
M  V30 1235 C 125.248 -2.72271 2.31524 0
M  V30 1236 C 125.077 -2.40055 3.80268 0
M  V30 1237 C 123.847 -2.31588 4.49105 0
M  V30 1238 C 126.045 -2.04581 4.71859 0
M  V30 1239 N 124.027 -1.92006 5.83101 0
M  V30 1240 C 125.398 -1.75568 5.94623 0
M  V30 1241 C 127.453 -1.91183 4.59732 0
M  V30 1242 C 126.156 -1.34505 7.06612 0
M  V30 1243 C 128.182 -1.51524 5.71659 0
M  V30 1244 C 127.544 -1.23406 6.93506 0
M  V30 1245 H 123.643 -0.539927 0.565688 0
M  V30 1246 H 126.227 -0.834764 1.75897 0
M  V30 1247 H 124.398 -3.34584 1.97251 0
M  V30 1248 H 126.13 -3.38584 2.21682 0
M  V30 1249 H 122.885 -2.49199 4.02737 0
M  V30 1250 H 123.309 -1.74764 6.54054 0
M  V30 1251 H 127.951 -2.11584 3.66049 0
M  V30 1252 H 125.669 -1.12846 8.00182 0
M  V30 1253 H 129.255 -1.41741 5.6427 0
M  V30 1254 H 128.135 -0.931788 7.78645 0
M  V30 1255 N 125.638 -1.25649 -0.95132 0
M  V30 1256 C 126.588 -1.03004 -2.03406 0
M  V30 1257 C 127.572 0.034187 -1.60864 0
M  V30 1258 O 128.764 -0.181549 -1.76066 0
M  V30 1259 C 125.893 -0.654255 -3.37008 0
M  V30 1260 C 124.979 -1.75542 -3.86065 0
M  V30 1261 N 125.37 -2.99113 -4.07879 0
M  V30 1262 C 123.668 -1.63669 -4.14884 0
M  V30 1263 C 124.369 -3.70611 -4.48356 0
M  V30 1264 N 123.345 -2.98247 -4.54477 0
M  V30 1265 H 127.147 -1.96813 -2.1827 0
M  V30 1266 H 124.661 -1.16017 -1.13639 0
M  V30 1267 H 126.658 -0.473206 -4.14206 0
M  V30 1268 H 125.318 0.276468 -3.23521 0
M  V30 1269 H 126.329 -3.35124 -3.94857 0
M  V30 1270 H 123.006 -0.775161 -4.10241 0
M  V30 1271 H 124.396 -4.76695 -4.73509 0
M  V30 1272 N 127.117 1.15442 -1.07289 0
M  V30 1273 C 128.342 1.90638 -0.816828 0
M  V30 1274 C 128.767 1.77445 0.624083 0
M  V30 1275 O 128.125 1.10671 1.43602 0
M  V30 1276 C 128.173 3.39008 -1.22906 0
M  V30 1277 O 127.277 4.10701 -0.373975 0
M  V30 1278 H 126.618 0.593555 -0.297638 0
M  V30 1279 H 129.148 1.46198 -1.43134 0
M  V30 1280 H 129.158 3.89801 -1.20497 0
M  V30 1281 H 127.833 3.47929 -2.27856 0
M  V30 1282 H 126.41 3.70046 -0.460499 0
M  V30 1283 N 128.595 0.856903 1.32268 0
M  V30 1284 C 129.527 0.260412 2.27716 0
M  V30 1285 C 130.54 -0.569137 1.52528 0
M  V30 1286 O 131.729 -0.39326 1.74114 0
M  V30 1287 C 128.829 -0.650477 3.32599 0
M  V30 1288 C 128.002 0.14372 4.37164 0
M  V30 1289 C 127.061 -0.69328 5.21613 0
M  V30 1290 O 126.087 -0.12599 5.69061 0
M  V30 1291 N 127.289 -2.00761 5.44679 0
M  V30 1292 H 130.054 1.08059 2.79541 0
M  V30 1293 H 127.615 0.717103 1.45152 0
M  V30 1294 H 129.607 -1.21581 3.86005 0
M  V30 1295 H 128.177 -1.37133 2.80915 0
M  V30 1296 H 127.397 0.890486 3.8401 0
M  V30 1297 H 128.685 0.68915 5.04111 0
M  V30 1298 H 128.083 -2.49181 5.07863 0
M  V30 1299 H 126.64 -2.52103 6.01072 0
M  V30 1300 N 130.073 -1.45103 0.615059 0
M  V30 1301 C 131.005 -2.28786 -0.13762 0
M  V30 1302 C 132.018 -1.40376 -0.824525 0
M  V30 1303 O 133.207 -1.64681 -0.688662 0
M  V30 1304 C 130.307 -3.16322 -1.21628 0
M  V30 1305 C 129.48 -4.33054 -0.615039 0
M  V30 1306 C 128.539 -5.01743 -1.58556 0
M  V30 1307 O 127.565 -5.58293 -1.10895 0
M  V30 1308 N 128.767 -5.01714 -2.91998 0
M  V30 1309 H 131.532 -2.94025 0.580483 0
M  V30 1310 H 129.093 -1.55373 0.45507 0
M  V30 1311 H 131.085 -3.59139 -1.86552 0
M  V30 1312 H 129.655 -2.52943 -1.83681 0
M  V30 1313 H 128.875 -3.93627 0.21245 0
M  V30 1314 H 130.163 -5.08431 -0.193704 0
M  V30 1315 H 129.561 -4.57075 -3.33316 0
M  V30 1316 H 128.118 -5.48371 -3.52325 0
M  V30 1317 N 131.551 -0.354651 -1.53558 0
M  V30 1318 C 132.962 0.126902 -1.86268 0
M  V30 1319 C 133.313 1.49075 -1.27558 0
M  V30 1320 O 132.438 2.08105 -0.5934 0
M  V30 1321 C 133.033 0.237046 -3.3797 0
M  V30 1322 C 131.592 0.662842 -3.70518 0
M  V30 1323 C 130.739 -0.196652 -2.76602 0
M  V30 1324 H 133.69 -0.573849 -1.47962 0
M  V30 1325 H 133.711 1.06259 -3.65362 0
M  V30 1326 H 133.223 -0.755725 -3.80671 0
M  V30 1327 H 131.324 1.66424 -3.33367 0
M  V30 1328 H 131.437 0.445034 -4.77029 0
M  V30 1329 H 129.801 0.332763 -2.52517 0
M  V30 1330 H 130.584 -1.18676 -3.22135 0
M  V30 1331 N 133.029 1.57378 -0.0835403 0
M  V30 1332 C 134.277 1.93547 0.581718 0
M  V30 1333 C 134.598 0.96524 1.69435 0
M  V30 1334 O 133.868 0.0153369 1.95894 0
M  V30 1335 H 132.448 0.714521 0.217874 0
M  V30 1336 H 135.11 1.94366 -0.144158 0
M  V30 1337 H 134.206 2.95665 0.999423 0
M  V30 1338 N 134.507 -0.190092 1.56449 0
M  V30 1339 C 135.753 -0.906472 1.82084 0
M  V30 1340 C 136.108 -1.80677 0.661335 0
M  V30 1341 O 135.401 -1.88501 -0.343237 0
M  V30 1342 C 135.595 -1.75382 3.1141 0
M  V30 1343 C 135.424 -0.937053 4.39829 0
M  V30 1344 C 134.194 -0.619507 5.01488 0
M  V30 1345 C 136.392 -0.2874 5.13496 0
M  V30 1346 N 134.374 0.215367 6.13522 0
M  V30 1347 C 135.745 0.409454 6.18646 0
M  V30 1348 C 137.8 -0.203639 4.97483 0
M  V30 1349 C 136.503 1.1821 7.0952 0
M  V30 1350 C 138.529 0.555622 5.88784 0
M  V30 1351 C 137.891 1.24091 6.93384 0
M  V30 1352 H 133.99 -0.310931 0.717528 0
M  V30 1353 H 136.574 -0.174821 1.93914 0
M  V30 1354 H 134.745 -2.45703 3.00806 0
M  V30 1355 H 136.477 -2.41006 3.25112 0
M  V30 1356 H 133.232 -0.945126 4.64074 0
M  V30 1357 H 133.656 0.622562 6.74131 0
M  V30 1358 H 138.298 -0.719099 4.1664 0
M  V30 1359 H 136.016 1.70897 7.89823 0
M  V30 1360 H 139.602 0.621854 5.78467 0
M  V30 1361 H 138.482 1.81901 7.62812 0
M  V30 1362 N 135.985 -1.50799 -0.457987 0
M  V30 1363 C 136.918 -1.65273 -1.57353 0
M  V30 1364 C 137.896 -0.500578 -1.54703 0
M  V30 1365 O 139.08 -0.721781 -1.74134 0
M  V30 1366 C 136.207 -1.64737 -2.95938 0
M  V30 1367 C 135.253 -2.8567 -3.16693 0
M  V30 1368 S 136.086 -4.46791 -2.95191 0
M  V30 1369 C 137.242 -4.48968 -4.36095 0
M  V30 1370 H 137.475 -2.59633 -1.44838 0
M  V30 1371 H 135.008 -1.40225 -0.64625 0
M  V30 1372 H 136.966 -1.65112 -3.7583 0
M  V30 1373 H 135.627 -0.715899 -3.05833 0
M  V30 1374 H 134.82 -2.81637 -4.17967 0
M  V30 1375 H 134.422 -2.8293 -2.44594 0
M  V30 1376 H 136.714 -4.23337 -5.28954 0
M  V30 1377 H 137.657 -5.50664 -4.45168 0
M  V30 1378 H 138.065 -3.78522 -4.18786 0
M  V30 1379 N 137.463 0.71206 -1.40597 0
M  V30 1380 C 138.395 1.83704 -1.37061 0
M  V30 1381 C 139.408 1.60453 -0.275426 0
M  V30 1382 O 140.597 1.70262 -0.53602 0
M  V30 1383 C 137.697 3.20172 -1.11099 0
M  V30 1384 C 136.87 3.7059 -2.3234 0
M  V30 1385 C 135.929 4.85681 -2.02485 0
M  V30 1386 O 134.955 4.9815 -2.75382 0
M  V30 1387 N 136.157 5.71735 -1.00497 0
M  V30 1388 H 138.922 1.87235 -2.34016 0
M  V30 1389 H 136.483 0.893739 -1.34996 0
M  V30 1390 H 138.475 3.94768 -0.891064 0
M  V30 1391 H 137.045 3.11767 -0.227989 0
M  V30 1392 H 136.265 2.87085 -2.7014 0
M  V30 1393 H 137.553 4.01011 -3.13157 0
M  V30 1394 H 136.951 5.64275 -0.401298 0
M  V30 1395 H 135.508 6.463 -0.844942 0
M  V30 1396 N 138.941 1.26152 0.944643 0
M  V30 1397 C 140.166 1.14363 1.7302 0
M  V30 1398 C 140.591 -0.29772 1.85729 0
M  V30 1399 O 139.949 -1.2157 1.34501 0
M  V30 1400 C 139.997 1.81378 3.11664 0
M  V30 1401 O 139.101 1.10022 3.97453 0
M  V30 1402 H 138.442 0.398694 0.53098 0
M  V30 1403 H 140.972 1.66906 1.18337 0
M  V30 1404 H 140.982 1.88064 3.62072 0
M  V30 1405 H 139.657 2.86237 3.0173 0
M  V30 1406 H 138.234 1.11287 3.55907 0
M  V30 1407 N 140.419 -1.14872 1.07899 0
M  V30 1408 C 141.349 -2.2193 0.725887 0
M  V30 1409 C 142.33 -1.67622 -0.28927 0
M  V30 1410 O 143.515 -1.93533 -0.160787 0
M  V30 1411 C 140.645 -3.47061 0.128856 0
M  V30 1412 C 139.599 -4.14363 1.07178 0
M  V30 1413 C 138.925 -5.33636 0.337229 0
M  V30 1414 C 140.225 -4.63492 2.40775 0
M  V30 1415 H 141.919 -2.51724 1.62097 0
M  V30 1416 H 139.465 -1.20991 0.780838 0
M  V30 1417 H 141.418 -4.21199 -0.130147 0
M  V30 1418 H 140.142 -3.16617 -0.80134 0
M  V30 1419 H 138.801 -3.42173 1.3158 0
M  V30 1420 H 138.449 -4.99449 -0.596606 0
M  V30 1421 H 138.149 -5.79609 0.965788 0
M  V30 1422 H 139.673 -6.10539 0.0861567 0
M  V30 1423 H 141.087 -5.2913 2.20669 0
M  V30 1424 H 139.484 -5.20148 2.99276 0
M  V30 1425 H 140.554 -3.78834 3.02676 0
M  V30 1426 N 141.898 -0.863906 -1.31812 0
M  V30 1427 C 143.123 -0.48527 -2.01643 0
M  V30 1428 C 143.548 0.913058 -1.64453 0
M  V30 1429 O 142.906 1.6014 -0.849985 0
M  V30 1430 C 142.954 -0.642625 -3.54828 0
M  V30 1431 O 142.058 0.320659 -4.11151 0
M  V30 1432 H 141.399 -0.193793 -0.635091 0
M  V30 1433 H 143.929 -1.16565 -1.68148 0
M  V30 1434 H 143.939 -0.533628 -4.04495 0
M  V30 1435 H 142.614 -1.66227 -3.81237 0
M  V30 1436 H 141.191 0.167126 -3.72525 0
M  V30 1437 N 143.376 1.44774 -0.622745 0
M  V30 1438 C 144.624 2.01721 -0.123655 0
M  V30 1439 C 144.945 1.49172 1.25589 0
M  V30 1440 O 144.215 0.691974 1.83272 0
M  V30 1441 H 142.795 0.745777 -0.0427225 0
M  V30 1442 H 145.457 1.77382 -0.807559 0
M  V30 1443 H 144.553 3.11984 -0.0849534 0
M  V30 1444 N 144.854 0.36279 1.53368 0
M  V30 1445 C 146.079 -0.231226 2.06107 0
M  V30 1446 C 146.504 -1.419 1.23474 0
M  V30 1447 O 145.862 -1.79524 0.253128 0
M  V30 1448 C 145.91 -0.605523 3.5548 0
M  V30 1449 O 145.014 -1.70312 3.7559 0
M  V30 1450 H 144.355 -0.034327 0.663112 0
M  V30 1451 H 146.885 0.522584 1.97814 0
M  V30 1452 H 146.895 -0.877314 3.98456 0
M  V30 1453 H 145.57 0.263004 4.15068 0
M  V30 1454 H 144.147 -1.4271 3.44512 0
M  V30 1455 N 146.332 -1.57332 0.0918853 0
M  V30 1456 C 147.56 -1.98574 -0.581048 0
M  V30 1457 C 147.975 -0.970903 -1.61923 0
M  V30 1458 O 147.332 0.0399054 -1.82456 0
M  V30 1459 C 147.383 -3.39872 -1.23164 0
M  V30 1460 O 147.104 -4.37469 -0.234989 0
M  V30 1461 C 148.605 -3.96099 -1.99049 0
M  V30 1462 H 145.825 -0.65261 -0.156018 0
M  V30 1463 H 148.369 -2.0379 0.170225 0
M  V30 1464 H 146.524 -3.35679 -1.93386 0
M  V30 1465 H 146.938 -5.19751 -0.70418 0
M  V30 1466 H 148.412 -4.97127 -2.39934 0
M  V30 1467 H 148.889 -3.3374 -2.85507 0
M  V30 1468 H 149.495 -4.03755 -1.3365 0
M  V30 1469 N 147.81 0.181792 -1.56548 0
M  V30 1470 C 148.74 1.22765 -1.98623 0
M  V30 1471 C 149.721 1.46747 -0.860189 0
M  V30 1472 O 150.906 1.58259 -1.12551 0
M  V30 1473 C 148.036 2.56894 -2.33715 0
M  V30 1474 C 146.99 2.475 -3.49182 0
M  V30 1475 C 146.316 3.86023 -3.69986 0
M  V30 1476 C 147.616 1.98866 -4.82959 0
M  V30 1477 H 149.31 0.877942 -2.86239 0
M  V30 1478 H 146.856 0.42088 -1.37712 0
M  V30 1479 H 148.809 3.30253 -2.61746 0
M  V30 1480 H 147.533 2.93632 -1.42997 0
M  V30 1481 H 146.192 1.76596 -3.21262 0
M  V30 1482 H 145.84 4.20136 -2.76576 0
M  V30 1483 H 145.54 3.80609 -4.47672 0
M  V30 1484 H 147.064 4.60984 -4.00407 0
M  V30 1485 H 148.478 2.61992 -5.09934 0
M  V30 1486 H 146.875 2.04424 -5.64208 0
M  V30 1487 H 147.945 0.942465 -4.75653 0
M  V30 1488 N 149.288 1.51039 0.449983 0
M  V30 1489 C 150.704 1.38934 0.785462 0
M  V30 1490 C 150.904 0.461817 1.96136 0
M  V30 1491 O 149.96 -0.0877389 2.52348 0
M  V30 1492 C 151.273 2.80724 1.0777 0
M  V30 1493 C 152.821 2.89787 1.1829 0
M  V30 1494 C 153.296 4.32457 1.50815 0
M  V30 1495 N 154.787 4.35505 1.57764 0
M  V30 1496 C 155.522 5.42914 1.84477 0
M  V30 1497 N 155.018 6.60502 2.09068 0
M  V30 1498 N 156.811 5.3038 1.86155 0
M  V30 1499 H 148.962 2.09904 -0.324647 0
M  V30 1500 H 151.225 0.944378 -0.0827957 0
M  V30 1501 H 150.931 3.50531 0.286498 0
M  V30 1502 H 150.805 3.19273 2.00859 0
M  V30 1503 H 153.192 2.20186 1.96474 0
M  V30 1504 H 153.273 2.54752 0.231314 0
M  V30 1505 H 152.917 5.02603 0.731622 0
M  V30 1506 H 152.847 4.64995 2.47158 0
M  V30 1507 H 155.338 3.50724 1.40715 0
M  V30 1508 H 155.651 7.38158 2.28785 0
M  V30 1509 H 153.996 6.63639 2.06416 0
M  V30 1510 H 157.187 4.37505 1.66454 0
M  V30 1511 H 157.36 6.1417 2.06637 0
M  V30 1512 N 150.766 -0.704594 1.40972 0
M  V30 1513 C 151.698 -1.82974 1.38033 0
M  V30 1514 C 152.711 -1.60305 0.283931 0
M  V30 1515 O 153.9 -1.69975 0.545042 0
M  V30 1516 C 151 -3.19578 1.12795 0
M  V30 1517 C 150.173 -3.69352 2.34302 0
M  V30 1518 C 149.232 -4.84601 2.05058 0
M  V30 1519 O 148.258 -4.96682 2.7802 0
M  V30 1520 N 149.46 -5.71194 1.03528 0
M  V30 1521 H 152.225 -1.85991 2.35005 0
M  V30 1522 H 149.786 -0.886567 1.35468 0
M  V30 1523 H 151.778 -3.9429 0.911987 0
M  V30 1524 H 150.348 -3.11642 0.24452 0
M  V30 1525 H 149.568 -2.85649 2.71659 0
M  V30 1526 H 150.856 -3.99345 3.1528 0
M  V30 1527 H 150.254 -5.64054 0.431217 0
M  V30 1528 H 148.811 -6.45843 0.879205 0
M  V30 1529 N 152.244 -1.26651 -0.937939 0
M  V30 1530 C 153.207 -1.08546 -2.01867 0
M  V30 1531 C 154.207 -0.0327327 -1.60767 0
M  V30 1532 O 155.397 -0.276427 -1.71993 0
M  V30 1533 C 152.529 -0.651711 -3.34613 0
M  V30 1534 H 153.722 -2.04502 -2.1936 0
M  V30 1535 H 151.275 -1.09294 -1.11734 0
M  V30 1536 H 152.01 0.309696 -3.22818 0
M  V30 1537 H 151.795 -1.41189 -3.65798 0
M  V30 1538 H 153.285 -0.546973 -4.14002 0
M  V30 1539 N 153.722 1.14298 -1.08507 0
M  V30 1540 C 154.655 2.18447 -0.660004 0
M  V30 1541 C 155.633 1.59242 0.328749 0
M  V30 1542 O 156.817 1.87062 0.232367 0
M  V30 1543 C 153.944 3.38688 0.0290807 0
M  V30 1544 C 152.99 4.1646 -0.919982 0
M  V30 1545 S 153.823 4.77334 -2.42718 0
M  V30 1546 C 154.979 6.00931 -1.75024 0
M  V30 1547 H 155.212 2.54166 -1.54231 0
M  V30 1548 H 152.745 1.25446 -0.900149 0
M  V30 1549 H 154.703 4.08342 0.420378 0
M  V30 1550 H 153.364 3.01289 0.887895 0
M  V30 1551 H 152.557 5.02529 -0.384751 0
M  V30 1552 H 152.159 3.52414 -1.25223 0
M  V30 1553 H 154.451 6.69017 -1.06877 0
M  V30 1554 H 155.394 6.59044 -2.58971 0
M  V30 1555 H 155.802 5.51089 -1.22317 0
M  V30 1556 N 155.201 0.870884 1.31352 0
M  V30 1557 C 156.45 0.478408 1.95944 0
M  V30 1558 C 156.763 -0.974493 1.69597 0
M  V30 1559 O 157.969 -1.47316 2.28058 0
M  V30 1560 C 156.425 0.804609 3.50791 0
M  V30 1561 C 156.033 2.27433 3.85977 0
M  V30 1562 C 157.777 0.480648 4.2177 0
M  V30 1563 C 155.684 2.5429 5.33939 0
M  V30 1564 H 154.614 0.175175 0.733369 0
M  V30 1565 H 157.265 1.06391 1.4951 0
M  V30 1566 H 155.647 0.148347 3.95722 0
M  V30 1567 H 156.821 2.97373 3.52002 0
M  V30 1568 H 155.136 2.56442 3.28065 0
M  V30 1569 H 157.733 0.658519 5.30629 0
M  V30 1570 H 158.076 -0.578979 4.12254 0
M  V30 1571 H 158.609 1.09349 3.82476 0
M  V30 1572 H 155.348 3.58939 5.48491 0
M  V30 1573 H 154.868 1.88945 5.69263 0
M  V30 1574 H 156.547 2.39066 6.01212 0
M  V30 1575 N 156.679 -1.44442 0.630414 0
M  V30 1576 C 157.956 -1.9549 0.0655657 0
M  V30 1577 C 158.336 -1.5724 -1.40851 0
M  V30 1578 O 157.684 -0.846116 -2.12257 0
M  V30 1579 C 157.894 -3.47812 0.287691 0
M  V30 1580 C 159.242 -4.24216 0.180513 0
M  V30 1581 O 160.266 -3.55526 0.219019 0
M  V30 1582 O 159.125 -5.46434 0.0848493 0
M  V30 1583 H 156.219 -0.826688 -0.0227177 0
M  V30 1584 H 158.765 -1.54496 0.702068 0
M  V30 1585 H 157.537 -3.687 1.31056 0
M  V30 1586 H 157.16 -3.95751 -0.382984 0
M  V30 1587 N 158.157 -0.370918 -1.53173 0
M  V30 1588 C 159.107 0.489588 -2.22681 0
M  V30 1589 C 160.091 1.04442 -1.22395 0
M  V30 1590 O 161.283 0.973578 -1.47819 0
M  V30 1591 C 158.412 1.626 -3.02351 0
M  V30 1592 C 157.498 1.08379 -4.10018 0
M  V30 1593 N 157.889 0.265004 -5.05105 0
M  V30 1594 C 156.187 1.35809 -4.2482 0
M  V30 1595 C 156.888 -0.0324755 -5.81691 0
M  V30 1596 N 155.864 0.566581 -5.40639 0
M  V30 1597 H 159.666 -0.142729 -2.93553 0
M  V30 1598 H 157.18 -0.179221 -1.61408 0
M  V30 1599 H 159.177 2.2547 -3.50669 0
M  V30 1600 H 157.837 2.26132 -2.33011 0
M  V30 1601 H 158.848 -0.0962352 -5.17811 0
M  V30 1602 H 155.525 1.9958 -3.66707 0
M  V30 1603 H 156.915 -0.69473 -6.68299 0
M  V30 1604 N 159.635 1.57281 -0.100228 0
M  V30 1605 C 160.884 1.93713 0.561984 0
M  V30 1606 C 161.197 0.984492 1.69018 0
M  V30 1607 O 162.403 1.24273 2.41389 0
M  V30 1608 C 160.859 3.4421 1.05106 0
M  V30 1609 C 160.467 4.47975 -0.0476628 0
M  V30 1610 C 162.211 3.89595 1.68571 0
M  V30 1611 C 160.118 5.89631 0.457055 0
M  V30 1612 H 159.048 0.723082 0.2137 0
M  V30 1613 H 161.699 1.82644 -0.177057 0
M  V30 1614 H 160.081 3.50449 1.84395 0
M  V30 1615 H 161.255 4.53385 -0.823333 0
M  V30 1616 H 159.57 4.1223 -0.587816 0
M  V30 1617 H 162.167 4.92832 2.07414 0
M  V30 1618 H 162.51 3.28526 2.55688 0
M  V30 1619 H 163.043 3.86078 0.958562 0
M  V30 1620 H 159.782 6.54411 -0.377616 0
M  V30 1621 H 159.302 5.87681 1.19962 0
M  V30 1622 H 160.981 6.40363 0.92437 0
M  V30 1623 N 161.113 -0.173488 1.56642 0
M  V30 1624 C 162.061 -1.23417 1.97157 0
M  V30 1625 C 163.055 -1.45946 0.860013 0
M  V30 1626 O 164.261 -1.46551 1.04512 0
M  V30 1627 H 160.636 -0.414818 0.62724 0
M  V30 1628 H 162.607 -0.865582 2.8557 0
M  V30 1629 C 161.356 -2.5665 2.34576 0
M  V30 1630 H 160.679 -2.40137 3.19647 0
M  V30 1631 H 162.119 -3.2956 2.6677 0
M  V30 1632 C 160.578 -3.15245 1.18836 0
M  V30 1633 O 161.108 -3.98883 0.474869 0
M  V30 1634 N 159.314 -2.74303 0.959497 0
M  V30 1635 H 158.861 -2.0639 1.54146 0
M  V30 1636 H 158.819 -3.13844 0.186932 0
M  V30 1637 N 162.591 -1.51276 -0.441967 0
M  V30 1638 C 163.839 -1.63392 -1.18943 0
M  V30 1639 C 164.16 -0.350159 -1.9183 0
M  V30 1640 O 163.43 0.633784 -1.85364 0
M  V30 1641 H 162.01 -0.602164 -0.442049 0
M  V30 1642 H 164.672 -1.88186 -0.507165 0
M  V30 1643 H 163.768 -2.45934 -1.92154 0
M  V30 1644 N 164.069 0.697108 -1.41344 0
M  V30 1645 C 165.315 1.4593 -1.40827 0
M  V30 1646 C 165.648 1.94193 -0.0167098 0
M  V30 1647 O 164.923 1.69425 0.955263 0
M  V30 1648 C 165.206 2.67229 -2.41373 0
M  V30 1649 C 165.059 2.24741 -3.8963 0
M  V30 1650 C 166.378 3.69423 -2.39196 0
M  V30 1651 H 163.497 0.529303 -0.512842 0
M  V30 1652 H 166.139 0.794112 -1.72609 0
M  V30 1653 H 164.289 3.23982 -2.14401 0
M  V30 1654 H 165.961 1.73327 -4.27499 0
M  V30 1655 H 164.204 1.56542 -4.0457 0
M  V30 1656 H 164.875 3.1177 -4.55525 0
M  V30 1657 H 167.351 3.2234 -2.63128 0
M  V30 1658 H 166.227 4.51907 -3.11563 0
M  V30 1659 H 166.488 4.19012 -1.41001 0
M  V30 1660 N 165.547 1.27147 0.931209 0
M  V30 1661 C 166.48 1.0389 2.0318 0
M  V30 1662 C 167.458 -0.0395716 1.62552 0
M  V30 1663 O 168.642 0.104867 1.88208 0
M  V30 1664 C 165.769 0.575227 3.3378 0
M  V30 1665 C 164.815 1.64774 3.93385 0
M  V30 1666 S 165.648 3.23933 4.26413 0
M  V30 1667 C 166.804 2.79358 5.60098 0
M  V30 1668 H 167.037 1.97075 2.22596 0
M  V30 1669 H 164.57 1.10938 1.07387 0
M  V30 1670 H 166.528 0.314385 4.09294 0
M  V30 1671 H 165.189 -0.336505 3.12292 0
M  V30 1672 H 164.382 1.27454 4.87618 0
M  V30 1673 H 163.984 1.86048 3.24441 0
M  V30 1674 H 166.276 2.24443 6.39243 0
M  V30 1675 H 167.219 3.72322 6.02314 0
M  V30 1676 H 167.627 2.1861 5.20452 0
M  V30 1677 N 167.025 -1.13721 1.09112 0
M  V30 1678 C 168.273 -1.84559 0.823562 0
M  V30 1679 C 168.594 -1.83754 -0.652658 0
M  V30 1680 O 167.864 -1.29102 -1.47342 0
M  V30 1681 H 166.444 -0.683376 0.301673 0
M  V30 1682 H 169.106 -1.37771 1.37859 0
M  V30 1683 H 168.202 -2.8917 1.17419 0
M  V30 1684 N 168.503 -0.877838 -1.30888 0
M  V30 1685 C 169.453 -0.310872 -2.25871 0
M  V30 1686 C 170.437 0.556596 -1.50966 0
M  V30 1687 O 171.629 0.402187 -1.7237 0
M  V30 1688 C 168.758 0.479821 -3.3993 0
M  V30 1689 C 167.844 -0.401333 -4.22197 0
M  V30 1690 N 168.235 -1.49848 -4.83093 0
M  V30 1691 C 166.533 -0.195167 -4.45573 0
M  V30 1692 C 167.234 -2.0425 -5.44662 0
M  V30 1693 N 166.21 -1.33843 -5.26865 0
M  V30 1694 H 170.012 -1.1493 -2.70496 0
M  V30 1695 H 167.526 -0.726458 -1.45246 0
M  V30 1696 H 169.523 0.902582 -4.07012 0
M  V30 1697 H 168.183 1.31577 -2.96846 0
M  V30 1698 H 169.194 -1.88137 -4.82519 0
M  V30 1699 H 165.871 0.604192 -4.13105 0
M  V30 1700 H 167.261 -2.96345 -6.03017 0
M  V30 1701 N 169.982 1.44106 -0.638065 0
M  V30 1702 C 171.212 2.06037 -0.152394 0
M  V30 1703 C 171.62 1.47808 1.18108 0
M  V30 1704 O 170.963 0.598092 1.73691 0
M  V30 1705 C 171.025 3.59488 0.0293714 0
M  V30 1706 C 170.689 4.4022 -1.22702 0
M  V30 1707 C 171.686 4.73256 -2.15232 0
M  V30 1708 C 169.371 4.8048 -1.46437 0
M  V30 1709 C 171.365 5.45444 -3.29802 0
M  V30 1710 C 169.052 5.52417 -2.61303 0
M  V30 1711 C 170.05 5.84819 -3.52811 0
M  V30 1712 O 169.738 6.55289 -4.65673 0
M  V30 1713 H 169.47 0.671233 -0.0801401 0
M  V30 1714 H 172.024 1.85851 -0.874563 0
M  V30 1715 H 170.254 3.78191 0.806758 0
M  V30 1716 H 171.943 4.03164 0.470475 0
M  V30 1717 H 172.709 4.42684 -1.98131 0
M  V30 1718 H 168.588 4.54676 -0.760977 0
M  V30 1719 H 172.132 5.70653 -4.01249 0
M  V30 1720 H 168.029 5.82404 -2.78344 0
M  V30 1721 H 168.797 6.73762 -4.64744 0
M  V30 1722 N 171.46 0.379036 1.52974 0
M  V30 1723 C 172.407 -0.461048 2.26148 0
M  V30 1724 C 173.377 -1.06637 1.27349 0
M  V30 1725 O 174.562 -1.09633 1.56157 0
M  V30 1726 C 171.702 -1.58782 3.06402 0
M  V30 1727 C 170.815 -1.00636 4.20115 0
M  V30 1728 C 169.95 -2.10334 4.87784 0
M  V30 1729 C 168.989 -1.49724 5.93506 0
M  V30 1730 N 168.126 -2.5331 6.54812 0
M  V30 1731 H 172.966 0.169429 2.97518 0
M  V30 1732 H 170.503 0.0953806 1.4679 0
M  V30 1733 H 172.461 -2.25174 3.51215 0
M  V30 1734 H 171.091 -2.18876 2.37261 0
M  V30 1735 H 170.143 -0.232332 3.7969 0
M  V30 1736 H 171.455 -0.523343 4.96047 0
M  V30 1737 H 170.609 -2.84519 5.35849 0
M  V30 1738 H 169.348 -2.61992 4.11353 0
M  V30 1739 H 168.353 -0.740598 5.44789 0
M  V30 1740 H 169.578 -0.988732 6.71864 0
M  V30 1741 H 167.524 -3.04156 5.81227 0
M  V30 1742 H 167.441 -2.09734 7.26325 0
M  V30 1743 H 168.709 -3.27155 7.07524 0
M  V30 1744 N 172.938 -1.57226 0.108567 0
M  V30 1745 C 174.186 -1.94448 -0.550853 0
M  V30 1746 C 174.507 -0.992074 -1.67878 0
M  V30 1747 O 173.777 -0.0465 -1.95845 0
M  V30 1748 H 172.357 -0.717897 -0.206479 0
M  V30 1749 H 175.019 -1.94112 0.175062 0
M  V30 1750 H 174.115 -2.97218 -0.952259 0
M  V30 1751 N 174.416 0.165178 -1.56732 0
M  V30 1752 C 175.363 1.2044 -1.96883 0
M  V30 1753 C 176.333 1.43664 -0.833657 0
M  V30 1754 O 177.518 1.56302 -1.09427 0
M  V30 1755 C 174.658 2.53727 -2.33916 0
M  V30 1756 C 173.771 2.3783 -3.6064 0
M  V30 1757 C 172.906 3.64026 -3.86857 0
M  V30 1758 C 171.945 3.43088 -5.06909 0
M  V30 1759 N 171.082 4.61369 -5.29229 0
M  V30 1760 H 175.922 0.854996 -2.85471 0
M  V30 1761 H 173.459 0.41076 -1.41249 0
M  V30 1762 H 175.417 3.31419 -2.53411 0
M  V30 1763 H 174.047 2.8665 -1.48431 0
M  V30 1764 H 173.099 1.51282 -3.49024 0
M  V30 1765 H 174.411 2.18308 -4.4849 0
M  V30 1766 H 173.565 4.50152 -4.06753 0
M  V30 1767 H 172.304 3.86533 -2.97394 0
M  V30 1768 H 171.309 2.55349 -4.86906 0
M  V30 1769 H 172.534 3.21997 -5.97909 0
M  V30 1770 H 170.48 4.84084 -4.42718 0
M  V30 1771 H 170.397 4.44783 -6.11313 0
M  V30 1772 H 171.665 5.48761 -5.53608 0
M  V30 1773 N 175.894 1.51508 0.433938 0
M  V30 1774 C 177.143 1.63578 1.18005 0
M  V30 1775 C 177.456 0.359514 1.92268 0
M  V30 1776 O 178.662 0.359632 2.69108 0
M  V30 1777 C 177.118 2.88901 2.14626 0
M  V30 1778 C 176.726 4.23544 1.45995 0
M  V30 1779 C 178.47 3.10328 2.89649 0
M  V30 1780 C 176.377 5.40014 2.4112 0
M  V30 1781 H 175.307 0.609277 0.444182 0
M  V30 1782 H 177.958 1.77978 0.446773 0
M  V30 1783 H 176.34 2.68142 2.91403 0
M  V30 1784 H 177.514 4.54696 0.747532 0
M  V30 1785 H 175.829 4.08021 0.831115 0
M  V30 1786 H 178.426 3.94518 3.60915 0
M  V30 1787 H 178.769 2.23544 3.51189 0
M  V30 1788 H 179.302 3.31443 2.19978 0
M  V30 1789 H 176.041 6.29068 1.84264 0
M  V30 1790 H 175.561 5.13233 3.10406 0
M  V30 1791 H 177.24 5.72099 3.02177 0
M  V30 1792 N 177.372 -0.689602 1.41712 0
M  V30 1793 C 178.335 -1.78521 1.43746 0
M  V30 1794 C 179.335 -1.57436 0.327191 0
M  V30 1795 O 180.525 -1.64 0.587348 0
M  V30 1796 C 177.657 -3.16971 1.25467 0
M  V30 1797 H 178.85 -1.78108 2.41283 0
M  V30 1798 H 176.403 -0.89781 1.27942 0
M  V30 1799 H 177.138 -3.23019 0.287948 0
M  V30 1800 H 176.923 -3.33678 2.05917 0
M  V30 1801 H 178.413 -3.96935 1.2974 0
M  V30 1802 N 178.85 -1.27639 -0.924453 0
M  V30 1803 C 179.782 -1.06442 -2.02985 0
M  V30 1804 C 180.795 -0.0194771 -1.62788 0
M  V30 1805 O 181.984 -0.261388 -1.76576 0
M  V30 1806 C 179.084 -0.59327 -3.33667 0
M  V30 1807 C 178.257 -1.71123 -4.02537 0
M  V30 1808 C 177.316 -1.23527 -5.11495 0
M  V30 1809 O 176.342 -1.93553 -5.35281 0
M  V30 1810 N 177.544 -0.0926678 -5.80426 0
M  V30 1811 H 180.309 -2.01633 -2.2173 0
M  V30 1812 H 177.87 -1.19248 -1.09505 0
M  V30 1813 H 179.862 -0.258686 -4.03872 0
M  V30 1814 H 178.432 0.265502 -3.1147 0
M  V30 1815 H 177.652 -2.21593 -3.26022 0
M  V30 1816 H 178.94 -2.46145 -4.45298 0
M  V30 1817 H 178.338 0.491741 -5.63559 0
M  V30 1818 H 176.895 0.182714 -6.51544 0
M  V30 1819 N 180.328 1.1314 -1.09713 0
M  V30 1820 C 181.574 1.84967 -0.846104 0
M  V30 1821 C 181.929 1.82082 0.621601 0
M  V30 1822 O 181.222 1.2501 1.452 0
M  V30 1823 C 181.416 3.32167 -1.3191 0
M  V30 1824 C 181.245 3.49386 -2.83125 0
M  V30 1825 C 180.015 3.63456 -3.51038 0
M  V30 1826 C 182.213 3.45179 -3.81256 0
M  V30 1827 N 180.195 3.68966 -4.9065 0
M  V30 1828 C 181.566 3.57094 -5.06837 0
M  V30 1829 C 183.621 3.28598 -3.74069 0
M  V30 1830 C 182.324 3.5414 -6.26081 0
M  V30 1831 C 184.35 3.26953 -4.92804 0
M  V30 1832 C 183.712 3.39422 -6.17229 0
M  V30 1833 H 179.811 0.692899 -0.362512 0
M  V30 1834 H 182.395 1.35506 -1.39808 0
M  V30 1835 H 180.566 3.80186 -0.794535 0
M  V30 1836 H 182.298 3.91815 -1.01308 0
M  V30 1837 H 179.053 3.65256 -3.01471 0
M  V30 1838 H 179.477 3.75404 -5.63383 0
M  V30 1839 H 184.119 3.17858 -2.78794 0
M  V30 1840 H 181.837 3.63653 -7.21653 0
M  V30 1841 H 185.423 3.15316 -4.88945 0
M  V30 1842 H 184.303 3.38114 -7.07565 0
M  V30 1843 N 181.806 0.884767 1.30421 0
M  V30 1844 C 183.083 0.423185 1.90967 0
M  V30 1845 C 183.463 -1.09605 1.80416 0
M  V30 1846 O 182.811 -1.93126 1.22125 0
M  V30 1847 C 183.021 0.921056 3.36627 0
M  V30 1848 C 184.369 0.955903 4.137 0
M  V30 1849 O 185.393 0.867706 3.4547 0
M  V30 1850 O 184.252 1.08614 5.35598 0
M  V30 1851 H 181.346 0.129369 0.816819 0
M  V30 1852 H 183.892 0.973653 1.3899 0
M  V30 1853 H 182.664 1.96489 3.3839 0
M  V30 1854 H 182.287 0.349741 3.96059 0
M  V30 1855 N 183.284 -1.43765 0.645699 0
M  V30 1856 C 184.53 -2.02197 0.156271 0
M  V30 1857 C 184.863 -1.50776 -1.22393 0
M  V30 1858 O 184.138 -0.697771 -1.81553 0
M  V30 1859 C 184.421 -3.59749 0.158872 0
M  V30 1860 C 184.274 -4.21419 1.57245 0
M  V30 1861 C 185.593 -4.37149 -0.50879 0
M  V30 1862 H 182.712 -0.734694 0.0582602 0
M  V30 1863 H 185.354 -1.71157 0.824951 0
M  V30 1864 H 183.504 -3.86325 -0.410525 0
M  V30 1865 H 185.176 -4.059 2.19186 0
M  V30 1866 H 183.419 -3.78356 2.122 0
M  V30 1867 H 184.09 -5.30482 1.52619 0
M  V30 1868 H 186.566 -4.16093 -0.024412 0
M  V30 1869 H 185.442 -5.4683 -0.476213 0
M  V30 1870 H 185.703 -4.12839 -1.58165 0
M  V30 1871 N 184.763 -0.387143 -1.52771 0
M  V30 1872 C 186.009 0.196025 -2.0185 0
M  V30 1873 C 186.342 1.46641 -1.27319 0
M  V30 1874 O 185.617 1.90889 -0.373032 0
M  V30 1875 C 185.9 0.466136 -3.5707 0
M  V30 1876 C 185.753 -0.819385 -4.42274 0
M  V30 1877 C 187.072 1.25768 -4.21747 0
M  V30 1878 H 184.191 0.0697708 -0.73369 0
M  V30 1879 H 186.833 -0.516286 -1.82851 0
M  V30 1880 H 184.983 1.07293 -3.7339 0
M  V30 1881 H 186.655 -1.4563 -4.37709 0
M  V30 1882 H 184.898 -1.43517 -4.09372 0
M  V30 1883 H 185.569 -0.585065 -5.48891 0
M  V30 1884 H 188.045 0.744167 -4.09391 0
M  V30 1885 H 186.921 1.41541 -5.30337 0
M  V30 1886 H 187.182 2.27228 -3.79236 0
M  V30 1887 N 186.241 1.57166 -0.116904 0
M  V30 1888 C 187.189 2.16457 0.851418 0
M  V30 1889 C 188.183 1.11323 1.27686 0
M  V30 1890 O 189.389 1.2963 1.24884 0
M  V30 1891 H 185.764 0.69271 0.292672 0
M  V30 1892 H 187.735 2.96605 0.32685 0
M  V30 1893 C 186.484 2.77689 2.09246 0
M  V30 1894 H 185.807 3.58285 1.77402 0
M  V30 1895 H 187.247 3.22716 2.7501 0
M  V30 1896 C 185.706 1.74667 2.88085 0
M  V30 1897 O 186.236 1.19877 3.83396 0
M  V30 1898 N 184.442 1.44656 2.52038 0
M  V30 1899 H 183.989 1.89402 1.74599 0
M  V30 1900 H 183.947 0.759675 3.05084 0
M  V30 1901 N 187.719 -0.156864 1.56817 0
M  V30 1902 C 188.629 -1.2136 2.00771 0
M  V30 1903 C 189.645 -1.47598 0.921459 0
M  V30 1904 O 190.821 -1.59462 1.2302 0
M  V30 1905 C 187.886 -2.52943 2.37109 0
M  V30 1906 C 186.947 -2.34439 3.59634 0
M  V30 1907 C 186.18 -3.59748 3.94229 0
M  V30 1908 O 186.403 -4.65526 3.29609 0
M  V30 1909 O 185.337 -3.52998 4.8752 0
M  V30 1910 H 189.163 -0.870468 2.90958 0
M  V30 1911 H 186.748 -0.36484 1.44877 0
M  V30 1912 H 188.63 -3.30538 2.61386 0
M  V30 1913 H 187.305 -2.86806 1.5008 0
M  V30 1914 H 186.212 -1.54828 3.40557 0
M  V30 1915 H 187.545 -2.05496 4.4725 0
M  V30 1916 N 189.197 -1.51736 -0.425897 0
M  V30 1917 C 190.16 -1.73271 -1.50032 0
M  V30 1918 C 191.16 -0.602639 -1.4908 0
M  V30 1919 O 192.35 -0.87033 -1.509 0
M  V30 1920 C 189.482 -1.79969 -2.89523 0
M  V30 1921 H 190.675 -2.69172 -1.32237 0
M  V30 1922 H 188.228 -1.41899 -0.65532 0
M  V30 1923 H 188.963 -0.859241 -3.1271 0
M  V30 1924 H 188.748 -2.62109 -2.91619 0
M  V30 1925 H 190.238 -1.9843 -3.67444 0
M  V30 1926 N 190.675 0.682077 -1.42076 0
M  V30 1927 C 191.922 1.44215 -1.42156 0
M  V30 1928 C 192.25 1.94468 -0.0354186 0
M  V30 1929 O 191.505 1.70816 0.955002 0
M  V30 1930 C 191.804 2.66036 -2.38662 0
M  V30 1931 C 191.47 2.34366 -3.85206 0
M  V30 1932 C 190.132 2.25439 -4.25124 0
M  V30 1933 C 192.484 2.08513 -4.77673 0
M  V30 1934 C 189.812 1.88775 -5.55501 0
M  V30 1935 C 192.164 1.73354 -6.08384 0
M  V30 1936 C 190.828 1.62933 -6.47309 0
M  V30 1937 H 190.098 0.527718 -0.520187 0
M  V30 1938 H 192.745 0.778387 -1.74967 0
M  V30 1939 H 191.05 3.3741 -1.99152 0
M  V30 1940 H 192.747 3.24205 -2.35991 0
M  V30 1941 H 189.337 2.42213 -3.53597 0
M  V30 1942 H 193.521 2.14346 -4.47626 0
M  V30 1943 H 188.777 1.7927 -5.84527 0
M  V30 1944 H 192.951 1.52373 -6.79526 0
M  V30 1945 H 190.578 1.34292 -7.48244 0
M  V30 1946 N 192.153 1.28127 0.917671 0
M  V30 1947 C 193.378 1.18007 1.70555 0
M  V30 1948 C 193.803 -0.258257 1.86319 0
M  V30 1949 O 193.161 -1.1869 1.37049 0
M  V30 1950 C 193.209 1.87948 3.07746 0
M  V30 1951 O 192.313 1.18427 3.9503 0
M  V30 1952 H 191.654 0.409867 0.522403 0
M  V30 1953 H 194.184 1.69379 1.1477 0
M  V30 1954 H 194.194 1.95701 3.58001 0
M  V30 1955 H 192.869 2.92573 2.95591 0
M  V30 1956 H 191.446 1.18811 3.53466 0
M  V30 1957 N 193.631 -1.12557 1.10312 0
M  V30 1958 C 194.908 -1.80363 0.756878 0
M  V30 1959 C 195.288 -1.97067 -0.756824 0
M  V30 1960 O 194.636 -1.54601 -1.68259 0
M  V30 1961 C 194.846 -3.14812 1.50647 0
M  V30 1962 C 196.194 -3.90029 1.67817 0
M  V30 1963 O 197.218 -3.24464 1.46974 0
M  V30 1964 O 196.077 -5.07652 2.02365 0
M  V30 1965 H 193.171 -0.780667 0.272926 0
M  V30 1966 H 195.717 -1.19404 1.20586 0
M  V30 1967 H 194.489 -2.97936 2.53672 0
M  V30 1968 H 194.112 -3.83478 1.05026 0
M  V30 1969 N 195.109 -0.891671 -1.2995 0
M  V30 1970 C 196.386 -0.433307 -1.9074 0
M  V30 1971 C 196.766 1.08646 -1.80995 0
M  V30 1972 O 196.114 1.92476 -1.23147 0
M  V30 1973 C 196.324 -0.938895 -3.36134 0
M  V30 1974 C 197.672 -0.977829 -4.13187 0
M  V30 1975 O 198.696 -0.886015 -3.45005 0
M  V30 1976 O 197.555 -1.11453 -5.35015 0
M  V30 1977 H 194.649 -0.133699 -0.816121 0
M  V30 1978 H 197.195 -0.981011 -1.38471 0
M  V30 1979 H 195.967 -1.98281 -3.37343 0
M  V30 1980 H 195.59 -0.37074 -3.95868 0
M  V30 1981 N 196.587 1.43421 -0.653314 0
M  V30 1982 C 197.835 2.01414 -0.166415 0
M  V30 1983 C 198.156 1.51803 1.22397 0
M  V30 1984 O 197.426 0.730693 1.81763 0
M  V30 1985 H 196.006 0.744703 -0.0585319 0
M  V30 1986 H 198.668 1.75629 -0.845003 0
M  V30 1987 H 197.764 3.11734 -0.151111 0
M  V30 1988 N 198.065 0.39524 1.52563 0
M  V30 1989 C 199.29 -0.187456 2.06551 0
M  V30 1990 C 199.715 -1.39249 1.26457 0
M  V30 1991 O 199.073 -1.78947 0.291151 0
M  V30 1992 C 199.121 -0.529985 3.56684 0
M  V30 1993 O 198.225 -1.62307 3.79118 0
M  V30 1994 H 197.566 -0.0202537 0.663691 0
M  V30 1995 H 200.096 0.564426 1.96661 0
M  V30 1996 H 200.106 -0.792598 4.00227 0
M  V30 1997 H 198.781 0.350987 4.14416 0
M  V30 1998 H 197.358 -1.3537 3.47461 0
M  V30 1999 N 199.544 -1.57102 0.125237 0
M  V30 2000 C 200.792 -1.95021 -0.530198 0
M  V30 2001 C 201.113 -1.00982 -1.66816 0
M  V30 2002 O 200.383 -0.0672693 -1.95784 0
M  V30 2003 H 198.963 -0.720046 -0.198853 0
M  V30 2004 H 201.625 -1.93916 0.19564 0
M  V30 2005 H 200.721 -2.98211 -0.920681 0
M  V30 2006 N 201.022 0.148545 -1.56898 0
M  V30 2007 C 202.27 0.859717 -1.82902 0
M  V30 2008 C 202.591 1.81775 -0.70588 0
M  V30 2009 O 201.861 1.93994 0.272586 0
M  V30 2010 H 200.441 0.320469 -0.674766 0
M  V30 2011 H 203.103 0.142918 -1.94375 0
M  V30 2012 H 202.199 1.4229 -2.77777 0
M  V30 2013 N 202.5 1.5196 0.417844 0
M  V30 2014 C 203.916 1.40569 0.755816 0
M  V30 2015 C 204.116 0.503316 1.95113 0
M  V30 2016 O 203.172 -0.0341925 2.52477 0
M  V30 2017 C 204.485 2.82947 1.01791 0
M  V30 2018 C 206.033 2.92231 1.12116 0
M  V30 2019 C 206.508 4.35559 1.41608 0
M  V30 2020 N 207.999 4.38753 1.48491 0
M  V30 2021 C 208.734 5.46705 1.7292 0
M  V30 2022 N 208.23 6.64788 1.95011 0
M  V30 2023 N 210.023 5.34209 1.74863 0
M  V30 2024 H 202.174 2.09168 -0.369098 0
M  V30 2025 H 204.437 0.942409 -0.102809 0
M  V30 2026 H 204.143 3.5106 0.212081 0
M  V30 2027 H 204.017 3.23462 1.94042 0
M  V30 2028 H 206.404 2.24304 1.9176 0
M  V30 2029 H 206.485 2.55185 0.177225 0
M  V30 2030 H 206.129 5.04042 0.624848 0
M  V30 2031 H 206.059 4.70133 2.37239 0
M  V30 2032 H 208.55 3.5363 1.33244 0
M  V30 2033 H 208.863 7.42845 2.13076 0
M  V30 2034 H 207.208 6.67869 1.92293 0
M  V30 2035 H 210.399 4.40937 1.57137 0
M  V30 2036 H 210.572 6.18415 1.93563 0
M  V30 2037 N 203.978 -0.674533 1.42435 0
M  V30 2038 C 205.394 -0.98769 1.25367 0
M  V30 2039 C 205.594 -2.00879 0.158044 0
M  V30 2040 O 204.65 -2.48075 -0.470633 0
M  V30 2041 C 205.963 -1.49224 2.6106 0
M  V30 2042 C 207.511 -1.61 2.68417 0
M  V30 2043 C 207.986 -2.14852 4.04478 0
M  V30 2044 N 209.477 -2.22185 4.06434 0
M  V30 2045 C 210.212 -2.64928 5.08528 0
M  V30 2046 N 209.708 -3.07121 6.21006 0
M  V30 2047 N 211.501 -2.64679 4.95885 0
M  V30 2048 H 203.652 0.00152503 2.124 0
M  V30 2049 H 205.915 -0.0618434 0.945981 0
M  V30 2050 H 205.621 -0.816453 3.42092 0
M  V30 2051 H 205.495 -2.47094 2.84999 0
M  V30 2052 H 207.882 -2.27686 1.87732 0
M  V30 2053 H 207.963 -0.616195 2.48267 0
M  V30 2054 H 207.607 -1.48775 4.85622 0
M  V30 2055 H 207.537 -3.15024 4.2198 0
M  V30 2056 H 210.028 -1.92435 3.25234 0
M  V30 2057 H 210.341 -3.38423 6.94759 0
M  V30 2058 H 208.686 -3.04978 6.24511 0
M  V30 2059 H 211.877 -2.31078 4.07088 0
M  V30 2060 H 212.05 -2.9767 5.75584 0
M  V30 2061 N 205.456 -1.28612 -0.910864 0
M  V30 2062 C 206.733 -1.06632 -1.63979 0
M  V30 2063 C 207.113 0.393351 -2.07403 0
M  V30 2064 O 206.461 1.37999 -1.82122 0
M  V30 2065 C 206.671 -2.0436 -2.8291 0
M  V30 2066 C 208.019 -2.34666 -3.5386 0
M  V30 2067 O 209.043 -2.02467 -2.93062 0
M  V30 2068 O 207.902 -2.89631 -4.63439 0
M  V30 2069 H 204.996 -0.407737 -0.7195 0
M  V30 2070 H 207.542 -1.39942 -0.959914 0
M  V30 2071 H 206.314 -3.02727 -2.47936 0
M  V30 2072 H 205.937 -1.71714 -3.58609 0
M  V30 2073 N 206.934 1.1197 -1.10907 0
M  V30 2074 C 208.159 1.87942 -0.877064 0
M  V30 2075 C 208.584 1.79341 0.567314 0
M  V30 2076 O 207.942 1.15184 1.40009 0
M  V30 2077 C 207.99 3.34926 -1.33629 0
M  V30 2078 O 207.094 4.09303 -0.504447 0
M  V30 2079 H 206.435 0.583785 -0.316371 0
M  V30 2080 H 208.965 1.4157 -1.47712 0
M  V30 2081 H 208.975 3.8577 -1.32837 0
M  V30 2082 H 207.65 3.40504 -2.3881 0
M  V30 2083 H 206.227 3.68393 -0.577993 0
M  V30 2084 N 208.412 0.89855 1.29475 0
M  V30 2085 C 209.36 0.365253 2.29714 0
M  V30 2086 C 210.354 -0.534993 1.6073 0
M  V30 2087 O 211.56 -0.417921 1.75081 0
M  V30 2088 H 207.935 0.0994853 0.74539 0
M  V30 2089 H 209.906 1.22406 2.72138 0
M  V30 2090 C 208.655 -0.393159 3.4547 0
M  V30 2091 H 207.978 0.290332 3.98744 0
M  V30 2092 H 209.418 -0.731189 4.17648 0
M  V30 2093 C 207.877 -1.59539 2.9673 0
M  V30 2094 O 208.407 -2.69469 2.97908 0
M  V30 2095 N 206.613 -1.43716 2.52575 0
M  V30 2096 H 206.16 -0.542828 2.51816 0
M  V30 2097 H 206.118 -2.24288 2.20323 0
M  V30 2098 N 209.89 -1.43072 0.660911 0
M  V30 2099 C 210.82 -2.33497 -0.0122829 0
M  V30 2100 C 211.801 -1.49903 -0.803925 0
M  V30 2101 O 212.986 -1.78546 -0.763864 0
M  V30 2102 C 210.116 -3.33363 -0.973994 0
M  V30 2103 C 209.07 -4.27003 -0.291928 0
M  V30 2104 C 208.396 -5.16967 -1.36562 0
M  V30 2105 C 209.696 -5.15816 0.820462 0
M  V30 2106 H 211.39 -2.90038 0.742873 0
M  V30 2107 H 208.936 -1.39461 0.358688 0
M  V30 2108 H 210.889 -3.95524 -1.45392 0
M  V30 2109 H 209.613 -2.75095 -1.7604 0
M  V30 2110 H 208.272 -3.66217 0.167623 0
M  V30 2111 H 207.92 -4.55034 -2.14366 0
M  V30 2112 H 207.62 -5.80441 -0.914454 0
M  V30 2113 H 209.144 -5.82003 -1.84675 0
M  V30 2114 H 210.558 -5.71742 0.422366 0
M  V30 2115 H 208.955 -5.8805 1.19656 0
M  V30 2116 H 210.025 -4.55045 1.67518 0
M  V30 2117 N 211.368 -0.403325 -1.52352 0
M  V30 2118 C 212.3 0.4603 -2.2453 0
M  V30 2119 C 213.313 1.01505 -1.27282 0
M  V30 2120 O 214.502 0.914982 -1.53266 0
M  V30 2121 C 211.602 1.65208 -2.95905 0
M  V30 2122 C 210.775 1.22224 -4.19976 0
M  V30 2123 C 209.834 2.28028 -4.74226 0
M  V30 2124 O 208.86 1.88857 -5.36956 0
M  V30 2125 N 210.062 3.6012 -4.55295 0
M  V30 2126 H 212.827 -0.158156 -2.99282 0
M  V30 2127 H 210.388 -0.230402 -1.60252 0
M  V30 2128 H 212.38 2.35541 -3.29093 0
M  V30 2129 H 210.95 2.17658 -2.24374 0
M  V30 2130 H 210.17 0.34725 -3.92668 0
M  V30 2131 H 211.458 0.911924 -5.00561 0
M  V30 2132 H 210.856 3.94698 -4.05253 0
M  V30 2133 H 209.413 4.26447 -4.92936 0
M  V30 2134 N 212.846 1.57033 -0.133567 0
M  V30 2135 C 214.262 1.58035 0.222944 0
M  V30 2136 C 214.462 1.14713 1.6566 0
M  V30 2137 O 213.518 0.841218 2.38075 0
M  V30 2138 C 214.831 3.00691 -0.0236116 0
M  V30 2139 C 216.379 3.12973 0.0411512 0
M  V30 2140 C 216.854 4.57654 -0.177899 0
M  V30 2141 N 218.345 4.63033 -0.124365 0
M  V30 2142 C 219.08 5.72771 -0.268553 0
M  V30 2143 N 218.576 6.91206 -0.46972 0
M  V30 2144 N 220.369 5.61718 -0.2071 0
M  V30 2145 H 212.52 1.8349 -1.06981 0
M  V30 2146 H 214.783 0.848677 -0.422436 0
M  V30 2147 H 214.489 3.36726 -1.0153 0
M  V30 2148 H 214.363 3.70614 0.701808 0
M  V30 2149 H 216.75 2.76787 1.02338 0
M  V30 2150 H 216.831 2.45564 -0.716383 0
M  V30 2151 H 216.475 4.94542 -1.15717 0
M  V30 2152 H 216.405 5.23173 0.599797 0
M  V30 2153 H 218.896 3.7789 0.027011 0
M  V30 2154 H 219.209 7.70693 -0.570212 0
M  V30 2155 H 217.554 6.93156 -0.505876 0
M  V30 2156 H 220.745 4.68072 -0.0507986 0
M  V30 2157 H 220.918 6.47195 -0.322909 0
M  V30 2158 N 214.325 -0.140222 1.56975 0
M  V30 2159 C 215.553 -0.866437 1.87884 0
M  V30 2160 C 215.968 -1.74428 0.722517 0
M  V30 2161 O 215.325 -1.79891 -0.30749 0
M  V30 2162 C 215.376 -1.71753 3.18093 0
M  V30 2163 O 215.097 -0.875056 4.29272 0
M  V30 2164 C 216.598 -2.55074 3.62563 0
M  V30 2165 H 213.818 -0.25019 0.622612 0
M  V30 2166 H 216.362 -0.130977 2.0408 0
M  V30 2167 H 214.517 -2.40598 3.03631 0
M  V30 2168 H 214.931 -1.46002 5.03769 0
M  V30 2169 H 216.405 -3.10356 4.5649 0
M  V30 2170 H 216.882 -3.31434 2.88181 0
M  V30 2171 H 217.488 -1.91509 3.79743 0
M  V30 2172 N 215.803 -1.52179 -0.40978 0
M  V30 2173 C 217.051 -1.65878 -1.15451 0
M  V30 2174 C 217.372 -0.390771 -1.91044 0
M  V30 2175 O 216.642 0.594323 -1.86667 0
M  V30 2176 H 215.222 -0.611405 -0.429177 0
M  V30 2177 H 217.884 -1.89219 -0.467134 0
M  V30 2178 H 216.98 -2.49954 -1.86894 0
M  V30 2179 N 217.281 0.66697 -1.42791 0
M  V30 2180 C 218.229 1.80157 -1.47127 0
M  V30 2181 C 219.223 1.65825 -0.346199 0
M  V30 2182 O 220.429 1.72338 -0.519572 0
M  V30 2183 H 216.804 0.594158 -0.460956 0
M  V30 2184 H 218.775 1.73619 -2.42692 0
M  V30 2185 C 217.524 3.18351 -1.39813 0
M  V30 2186 H 216.847 3.3001 -2.25684 0
M  V30 2187 H 218.287 3.97736 -1.46908 0
M  V30 2188 C 216.746 3.36707 -0.11391 0
M  V30 2189 O 217.276 3.93027 0.830241 0
M  V30 2190 N 215.482 2.90586 -0.0285295 0
M  V30 2191 H 215.029 2.4494 -0.79764 0
M  V30 2192 H 214.987 3.03245 0.830063 0
M  V30 2193 N 218.759 1.29093 0.90403 0
M  V30 2194 C 220.036 1.075 1.63411 0
M  V30 2195 C 220.416 -0.382346 2.07609 0
M  V30 2196 O 219.764 -1.37031 1.82851 0
M  V30 2197 C 219.974 2.05858 2.81822 0
M  V30 2198 C 221.322 2.36539 3.52611 0
M  V30 2199 O 222.346 2.04019 2.91984 0
M  V30 2200 O 221.205 2.92085 4.61897 0
M  V30 2201 H 218.299 0.411547 0.717327 0
M  V30 2202 H 220.845 1.40449 0.952479 0
M  V30 2203 H 219.617 3.04037 2.46327 0
M  V30 2204 H 219.24 1.73613 3.57693 0
M  V30 2205 N 220.237 -1.11381 1.11499 0
M  V30 2206 C 221.483 -1.83597 0.875423 0
M  V30 2207 C 221.838 -1.83048 -0.592555 0
M  V30 2208 O 221.131 -1.27304 -1.43193 0
M  V30 2209 C 221.325 -3.30026 1.37177 0
M  V30 2210 C 221.154 -3.44837 2.88647 0
M  V30 2211 C 219.924 -3.57825 3.56776 0
M  V30 2212 C 222.122 -3.3907 3.86699 0
M  V30 2213 N 220.104 -3.61113 4.96458 0
M  V30 2214 C 221.475 -3.48986 5.12454 0
M  V30 2215 C 223.53 -3.22605 3.7925 0
M  V30 2216 C 222.233 -3.44135 6.31636 0
M  V30 2217 C 224.259 -3.19072 4.97943 0
M  V30 2218 C 223.621 -3.29559 6.22551 0
M  V30 2219 H 219.72 -0.687044 0.37349 0
M  V30 2220 H 222.304 -1.33265 1.41946 0
M  V30 2221 H 220.475 -3.78874 0.854919 0
M  V30 2222 H 222.207 -3.90153 1.07529 0
M  V30 2223 H 218.962 -3.60414 3.07244 0
M  V30 2224 H 219.386 -3.66394 5.69284 0
M  V30 2225 H 224.028 -3.13382 2.83816 0
M  V30 2226 H 221.746 -3.52126 7.27347 0
M  V30 2227 H 225.332 -3.07498 4.93899 0
M  V30 2228 H 224.212 -3.26815 7.12855 0
M  V30 2229 N 221.715 -0.905404 -1.28997 0
M  V30 2230 C 222.964 -0.530191 -1.94607 0
M  V30 2231 C 223.277 0.929185 -1.72121 0
M  V30 2232 O 224.483 1.41218 -2.31883 0
M  V30 2233 C 222.939 -0.897333 -3.48534 0
M  V30 2234 C 222.547 -2.37587 -3.79811 0
M  V30 2235 C 224.291 -0.592304 -4.20347 0
M  V30 2236 C 222.198 -2.68357 -5.27009 0
M  V30 2237 H 221.128 -0.194558 -0.728466 0
M  V30 2238 H 223.779 -1.10318 -1.46636 0
M  V30 2239 H 222.161 -0.253214 -3.9519 0
M  V30 2240 H 223.335 -3.06602 -3.43994 0
M  V30 2241 H 221.65 -2.6505 -3.2115 0
M  V30 2242 H 224.247 -0.798975 -5.28697 0
M  V30 2243 H 224.59 0.469474 -4.13644 0
M  V30 2244 H 225.123 -1.19452 -3.79442 0
M  V30 2245 H 221.862 -3.73355 -5.38782 0
M  V30 2246 H 221.382 -2.03971 -5.64053 0
M  V30 2247 H 223.061 -2.54922 -5.94663 0
M  V30 2248 N 223.193 1.4272 -0.668489 0
M  V30 2249 C 224.103 2.34596 0.0139753 0
M  V30 2250 C 225.119 1.5474 0.795703 0
M  V30 2251 O 226.295 1.87334 0.739466 0
M  V30 2252 C 223.36 3.33202 0.957982 0
M  V30 2253 C 222.421 4.28957 0.17149 0
M  V30 2254 C 221.654 5.22853 1.07053 0
M  V30 2255 O 221.877 5.21531 2.31001 0
M  V30 2256 O 220.811 5.9952 0.534727 0
M  V30 2257 H 224.637 2.9448 -0.742661 0
M  V30 2258 H 222.222 1.43117 -0.428705 0
M  V30 2259 H 224.104 3.93796 1.50008 0
M  V30 2260 H 222.779 2.758 1.69458 0
M  V30 2261 H 221.686 3.71796 -0.414558 0
M  V30 2262 H 223.019 4.89383 -0.52586 0
M  V30 2263 N 224.671 0.411399 1.52136 0
M  V30 2264 C 225.917 -0.163888 2.02137 0
M  V30 2265 C 226.25 -1.44597 1.29636 0
M  V30 2266 O 225.525 -1.90272 0.403353 0
M  V30 2267 C 225.808 -0.40927 3.57767 0
M  V30 2268 C 225.661 0.889643 4.40914 0
M  V30 2269 C 226.98 -1.19042 4.23694 0
M  V30 2270 H 224.099 -0.0580896 0.734707 0
M  V30 2271 H 226.741 0.54531 1.82007 0
M  V30 2272 H 224.891 -1.0134 3.7505 0
M  V30 2273 H 226.563 1.52575 4.35337 0
M  V30 2274 H 224.806 1.50011 4.07037 0
M  V30 2275 H 225.477 0.672314 5.4789 0
M  V30 2276 H 227.953 -0.678942 4.10524 0
M  V30 2277 H 226.829 -1.33086 5.32522 0
M  V30 2278 H 227.09 -2.21166 3.82803 0
M  V30 2279 N 226.149 -1.5696 0.141893 0
M  V30 2280 C 227.112 -2.15316 -0.785587 0
M  V30 2281 C 228.112 -1.09366 -1.1788 0
M  V30 2282 O 229.302 -1.35031 -1.10056 0
M  V30 2283 C 226.434 -2.71211 -2.06537 0
M  V30 2284 H 227.627 -2.98608 -0.278041 0
M  V30 2285 H 225.18 -1.5593 -0.107519 0
M  V30 2286 H 225.915 -1.91571 -2.6167 0
M  V30 2287 H 225.7 -3.4872 -1.79268 0
M  V30 2288 H 227.19 -3.16189 -2.72789 0
M  V30 2289 N 227.627 0.131896 -1.57047 0
M  V30 2290 C 228.874 0.841932 -1.84168 0
M  V30 2291 C 229.202 1.8048 -0.725066 0
M  V30 2292 O 228.457 1.93618 0.284692 0
M  V30 2293 C 228.756 1.63703 -3.17704 0
M  V30 2294 C 228.422 0.81961 -4.43388 0
M  V30 2295 C 227.084 0.594148 -4.77518 0
M  V30 2296 C 229.436 0.248977 -5.20605 0
M  V30 2297 C 226.764 -0.212409 -5.86315 0
M  V30 2298 C 229.116 -0.544701 -6.30251 0
M  V30 2299 C 227.78 -0.780599 -6.6292 0
M  V30 2300 H 227.05 0.308085 -0.673917 0
M  V30 2301 H 229.697 0.104867 -1.91213 0
M  V30 2302 H 228.002 2.44464 -3.06177 0
M  V30 2303 H 229.699 2.19015 -3.35907 0
M  V30 2304 H 226.289 1.00542 -4.16641 0
M  V30 2305 H 230.473 0.410408 -4.946 0
M  V30 2306 H 225.729 -0.404524 -6.1006 0
M  V30 2307 H 229.903 -0.993922 -6.89271 0
M  V30 2308 H 227.53 -1.40742 -7.47058 0
M  V30 2309 N 229.106 1.52395 0.401703 0
M  V30 2310 C 230.522 1.41363 0.740864 0
M  V30 2311 C 230.722 0.523982 1.94568 0
M  V30 2312 O 229.778 -0.00741204 2.52499 0
M  V30 2313 C 231.091 2.84011 0.987847 0
M  V30 2314 C 232.639 2.93404 1.09011 0
M  V30 2315 C 233.114 4.37036 1.3698 0
M  V30 2316 N 234.605 4.40304 1.43829 0
M  V30 2317 C 235.34 5.48508 1.67112 0
M  V30 2318 N 234.836 6.66819 1.87949 0
M  V30 2319 N 236.629 5.36034 1.69187 0
M  V30 2320 H 228.78 2.08765 -0.391262 0
M  V30 2321 H 231.043 0.941265 -0.112798 0
M  V30 2322 H 230.749 3.51265 0.174835 0
M  V30 2323 H 230.623 3.25502 1.906 0
M  V30 2324 H 233.01 2.26325 1.8937 0
M  V30 2325 H 233.091 2.55359 0.15015 0
M  V30 2326 H 232.735 5.04676 0.571353 0
M  V30 2327 H 232.665 4.72623 2.3224 0
M  V30 2328 H 235.156 3.55024 1.29486 0
M  V30 2329 H 235.469 7.45063 2.05185 0
M  V30 2330 H 233.814 6.6987 1.85199 0
M  V30 2331 H 237.005 4.42579 1.52451 0
M  V30 2332 H 237.178 6.20434 1.86993 0
M  V30 2333 N 230.584 -0.659388 1.43143 0
M  V30 2334 C 231.812 -1.44723 1.47861 0
M  V30 2335 C 232.227 -1.88563 0.0945886 0
M  V30 2336 O 231.584 -1.59108 -0.893915 0
M  V30 2337 C 231.635 -2.68627 2.41913 0
M  V30 2338 O 231.356 -2.26623 3.74932 0
M  V30 2339 C 232.857 -3.62045 2.55809 0
M  V30 2340 H 230.077 -0.444801 0.502387 0
M  V30 2341 H 232.621 -0.808916 1.87821 0
M  V30 2342 H 230.776 -3.28613 2.05164 0
M  V30 2343 H 231.19 -3.06745 4.2545 0
M  V30 2344 H 232.664 -4.45666 3.25708 0
M  V30 2345 H 233.141 -4.08981 1.60099 0
M  V30 2346 H 233.747 -3.07944 2.93344 0
M  V30 2347 N 232.062 -1.29571 -0.897171 0
M  V30 2348 C 233.025 -1.14913 -1.98312 0
M  V30 2349 C 234.025 -0.0838629 -1.60581 0
M  V30 2350 O 235.215 -0.331006 -1.71026 0
M  V30 2351 C 232.347 -0.757835 -3.3237 0
M  V30 2352 H 233.54 -2.11377 -2.12743 0
M  V30 2353 H 231.093 -1.12793 -1.08201 0
M  V30 2354 H 231.828 0.206837 -3.2364 0
M  V30 2355 H 231.613 -1.52755 -3.61121 0
M  V30 2356 H 233.103 -0.678408 -4.12053 0
M  V30 2357 N 233.54 1.10788 -1.12088 0
M  V30 2358 C 234.956 1.34691 -0.856186 0
M  V30 2359 C 235.156 1.94791 0.515615 0
M  V30 2360 O 234.212 2.18524 1.26505 0
M  V30 2361 C 235.525 2.27208 -1.9697 0
M  V30 2362 C 237.073 2.40755 -2.00016 0
M  V30 2363 C 237.548 3.36598 -3.1059 0
M  V30 2364 N 239.039 3.44164 -3.10008 0
M  V30 2365 C 239.774 4.18284 -3.92206 0
M  V30 2366 N 239.27 4.95322 -4.84384 0
M  V30 2367 N 241.063 4.13865 -3.80357 0
M  V30 2368 H 233.214 0.70144 -2.00483 0
M  V30 2369 H 235.477 0.371405 -0.872217 0
M  V30 2370 H 235.183 1.90251 -2.958 0
M  V30 2371 H 235.057 3.27485 -1.87172 0
M  V30 2372 H 237.444 2.76982 -1.01808 0
M  V30 2373 H 237.525 1.40305 -2.13888 0
M  V30 2374 H 237.169 3.01096 -4.09028 0
M  V30 2375 H 237.099 4.36918 -2.93956 0
M  V30 2376 H 239.59 2.8922 -2.43228 0
M  V30 2377 H 239.903 5.49267 -5.43623 0
M  V30 2378 H 238.248 4.94459 -4.884 0
M  V30 2379 H 241.439 3.52773 -3.07683 0
M  V30 2380 H 241.612 4.71372 -4.44649 0
M  V30 2381 N 235.018 0.912232 1.28515 0
M  V30 2382 C 235.981 0.404223 2.25607 0
M  V30 2383 C 236.981 -0.468602 1.53821 0
M  V30 2384 O 238.171 -0.271873 1.72065 0
M  V30 2385 C 235.303 -0.420653 3.38295 0
M  V30 2386 H 236.496 1.26188 2.7206 0
M  V30 2387 H 234.049 0.691495 1.40171 0
M  V30 2388 H 234.784 -1.29777 2.97201 0
M  V30 2389 H 234.569 0.204935 3.91564 0
M  V30 2390 H 236.059 -0.766971 4.10496 0
M  V30 2391 N 236.496 -1.42363 0.676048 0
M  V30 2392 C 237.459 -2.29199 0.00766941 0
M  V30 2393 C 238.459 -1.43389 -0.727745 0
M  V30 2394 O 239.649 -1.64764 -0.56556 0
M  V30 2395 C 236.781 -3.2591 -0.999785 0
M  V30 2396 H 237.974 -2.89794 0.771988 0
M  V30 2397 H 235.527 -1.50024 0.438468 0
M  V30 2398 H 236.262 -2.70256 -1.79255 0
M  V30 2399 H 236.047 -3.89202 -0.475829 0
M  V30 2400 H 237.537 -3.91028 -1.46583 0
M  V30 2401 N 237.974 -0.419461 -1.51915 0
M  V30 2402 C 239.251 0.211999 -1.94448 0
M  V30 2403 C 239.631 1.61703 -1.35703 0
M  V30 2404 O 238.979 2.22102 -0.536931 0
M  V30 2405 C 239.189 0.207872 -3.4838 0
M  V30 2406 C 240.537 0.422192 -4.22496 0
M  V30 2407 O 241.561 0.286778 -3.55044 0
M  V30 2408 O 240.42 0.690009 -5.42126 0
M  V30 2409 H 237.514 0.139586 -0.815135 0
M  V30 2410 H 240.06 -0.476151 -1.62883 0
M  V30 2411 H 238.832 -0.775102 -3.83546 0
M  V30 2412 H 238.455 0.939688 -3.86336 0
M  V30 2413 N 239.452 1.56882 -0.150215 0
M  V30 2414 C 240.863 1.82995 0.370076 0
M  V30 2415 C 241.214 1.06907 1.64515 0
M  V30 2416 O 240.339 0.315369 2.1409 0
M  V30 2417 C 240.934 3.31942 0.678208 0
M  V30 2418 C 239.493 3.58625 1.14301 0
M  V30 2419 C 238.64 2.76792 0.167778 0
M  V30 2420 H 241.591 1.54209 -0.374858 0
M  V30 2421 H 241.612 3.48272 1.53254 0
M  V30 2422 H 241.124 3.87294 -0.249991 0
M  V30 2423 H 239.225 3.08664 2.08704 0
M  V30 2424 H 239.338 4.67073 1.06676 0
M  V30 2425 H 237.702 2.45972 0.661037 0
M  V30 2426 H 238.485 3.34916 -0.754069 0
M  V30 2427 N 240.93 -0.123565 1.57115 0
M  V30 2428 C 241.893 -1.13583 1.99076 0
M  V30 2429 C 242.893 -1.34564 0.880296 0
M  V30 2430 O 244.083 -1.31158 1.14644 0
M  V30 2431 C 241.215 -2.49128 2.32698 0
M  V30 2432 H 242.408 -0.775287 2.89706 0
M  V30 2433 H 239.961 -0.36771 1.51913 0
M  V30 2434 H 240.696 -2.90111 1.44934 0
M  V30 2435 H 240.481 -2.35255 3.13684 0
M  V30 2436 H 241.971 -3.2199 2.65918 0
M  V30 2437 N 242.408 -1.52605 -0.393616 0
M  V30 2438 C 243.371 -1.76415 -1.46323 0
M  V30 2439 C 244.371 -0.634126 -1.47768 0
M  V30 2440 O 245.561 -0.902142 -1.4902 0
M  V30 2441 C 242.693 -1.8607 -2.85641 0
M  V30 2442 H 243.886 -2.71916 -1.26498 0
M  V30 2443 H 241.439 -1.43257 -0.625073 0
M  V30 2444 H 242.174 -0.925378 -3.10817 0
M  V30 2445 H 241.959 -2.68235 -2.85993 0
M  V30 2446 H 243.449 -2.06179 -3.63153 0
M  V30 2447 N 243.887 0.651787 -1.4349 0
M  V30 2448 C 244.834 1.76462 -1.4876 0
M  V30 2449 C 245.804 1.62641 -0.337189 0
M  V30 2450 O 246.989 1.82864 -0.544544 0
M  V30 2451 C 244.129 3.14623 -1.41796 0
M  V30 2452 C 243.242 3.39568 -2.67053 0
M  V30 2453 C 242.377 4.67585 -2.52068 0
M  V30 2454 C 241.416 4.85639 -3.72587 0
M  V30 2455 N 240.553 6.04915 -3.56402 0
M  V30 2456 H 245.393 1.71293 -2.43849 0
M  V30 2457 H 242.93 0.835889 -1.21043 0
M  V30 2458 H 244.888 3.94496 -1.35753 0
M  V30 2459 H 243.518 3.18859 -0.50288 0
M  V30 2460 H 242.57 2.53783 -2.8337 0
M  V30 2461 H 243.882 3.48795 -3.56572 0
M  V30 2462 H 243.036 5.55586 -2.4374 0
M  V30 2463 H 241.775 4.60681 -1.60075 0
M  V30 2464 H 240.78 3.96073 -3.81321 0
M  V30 2465 H 242.005 4.94372 -4.65589 0
M  V30 2466 H 239.951 5.9914 -2.67146 0
M  V30 2467 H 239.868 6.15106 -4.39524 0
M  V30 2468 H 241.136 6.95533 -3.51929 0
M  V30 2469 N 245.365 1.30045 0.890287 0
M  V30 2470 C 246.295 1.18541 2.01172 0
M  V30 2471 C 247.276 0.0773356 1.69924 0
M  V30 2472 O 248.461 0.25845 1.92473 0
M  V30 2473 C 245.591 0.870941 3.36202 0
M  V30 2474 C 244.545 1.93637 3.81692 0
M  V30 2475 C 243.871 1.475 5.13953 0
M  V30 2476 C 245.171 3.34666 4.00994 0
M  V30 2477 H 246.865 2.12359 2.11054 0
M  V30 2478 H 244.411 1.02238 1.01407 0
M  V30 2479 H 246.364 0.777141 4.14172 0
M  V30 2480 H 245.088 -0.102926 3.26438 0
M  V30 2481 H 243.747 2.01972 3.05946 0
M  V30 2482 H 243.395 0.489551 5.00612 0
M  V30 2483 H 243.095 2.1876 5.4536 0
M  V30 2484 H 244.619 1.39489 5.94454 0
M  V30 2485 H 246.033 3.2912 4.69417 0
M  V30 2486 H 244.43 4.03966 4.43769 0
M  V30 2487 H 245.5 3.76949 3.05021 0
M  V30 2488 N 246.843 -1.10192 1.12674 0
M  V30 2489 C 248.083 -1.83825 0.893736 0
M  V30 2490 C 248.447 -1.83341 -0.570082 0
M  V30 2491 O 249.648 -2.52553 -0.920354 0
M  V30 2492 C 247.919 -3.26405 1.45582 0
M  V30 2493 S 249.478 -4.17136 1.36171 0
M  V30 2494 H 246.296 -0.633732 0.322342 0
M  V30 2495 H 248.898 -1.32581 1.43675 0
M  V30 2496 H 247.602 -3.24329 2.51473 0
M  V30 2497 H 247.133 -3.82721 0.910405 0
M  V30 2498 H 249.148 -4.95069 0.334863 0
M  V30 2499 N 248.321 -0.919034 -1.28029 0
M  V30 2500 C 249.551 -0.570143 -1.98577 0
M  V30 2501 C 249.959 0.854172 -1.68821 0
M  V30 2502 O 249.302 1.57807 -0.940351 0
M  V30 2503 C 249.364 -0.705734 -3.52505 0
M  V30 2504 C 249.028 -2.10057 -4.05863 0
M  V30 2505 C 250.025 -3.07385 -4.19298 0
M  V30 2506 C 247.71 -2.41517 -4.40426 0
M  V30 2507 C 249.704 -4.34287 -4.66555 0
M  V30 2508 C 247.391 -3.68657 -4.87376 0
M  V30 2509 C 248.389 -4.64856 -5.00398 0
M  V30 2510 O 248.077 -5.89735 -5.46322 0
M  V30 2511 H 247.809 -0.215592 -0.6407 0
M  V30 2512 H 250.363 -1.23583 -1.64062 0
M  V30 2513 H 248.593 0.0170414 -3.86696 0
M  V30 2514 H 250.282 -0.363172 -4.04272 0
M  V30 2515 H 251.048 -2.84398 -3.92865 0
M  V30 2516 H 246.927 -1.67389 -4.29537 0
M  V30 2517 H 250.471 -5.09377 -4.76635 0
M  V30 2518 H 246.368 -3.91466 -5.13249 0
M  V30 2519 H 247.136 -5.92599 -5.64596 0
M  V30 2520 N 249.799 1.42003 -0.683588 0
M  V30 2521 C 250.747 2.326 0.000815408 0
M  V30 2522 C 251.741 1.50308 0.781278 0
M  V30 2523 O 252.947 1.66322 0.688251 0
M  V30 2524 H 249.322 0.751758 0.0190616 0
M  V30 2525 H 251.293 2.88011 -0.780528 0
M  V30 2526 C 250.042 3.34978 0.93195 0
M  V30 2527 H 249.365 3.98345 0.340817 0
M  V30 2528 H 250.805 4.00936 1.37936 0
M  V30 2529 C 249.264 2.67925 2.04249 0
M  V30 2530 O 249.794 2.51788 3.12995 0
M  V30 2531 N 248 2.2681 1.81675 0
M  V30 2532 H 247.547 2.40135 0.932363 0
M  V30 2533 H 247.505 1.8228 2.56167 0
M  V30 2534 N 251.277 0.427512 1.51691 0
M  V30 2535 C 252.554 -0.201684 1.94557 0
M  V30 2536 C 252.934 -1.60981 1.36559 0
M  V30 2537 O 252.282 -2.21814 0.548702 0
M  V30 2538 C 252.492 -0.189394 3.48486 0
M  V30 2539 C 253.84 -0.39978 4.22714 0
M  V30 2540 O 254.864 -0.267945 3.55191 0
M  V30 2541 O 253.723 -0.661249 5.42485 0
M  V30 2542 H 250.817 -0.135261 0.815864 0
M  V30 2543 H 253.363 0.484782 1.62628 0
M  V30 2544 H 252.135 0.795431 3.8313 0
M  V30 2545 H 251.758 -0.919187 3.86829 0
M  V30 2546 N 252.755 -1.56801 0.158532 0
M  V30 2547 C 253.985 -2.00568 -0.495583 0
M  V30 2548 C 254.393 -1.03774 -1.58201 0
M  V30 2549 O 253.736 -0.0285797 -1.83678 0
M  V30 2550 C 253.798 -3.40768 -1.14532 0
M  V30 2551 C 253.462 -4.56553 -0.202101 0
M  V30 2552 C 254.459 -5.16714 0.574675 0
M  V30 2553 C 252.144 -5.02197 -0.101648 0
M  V30 2554 C 254.138 -6.20939 1.43924 0
M  V30 2555 C 251.825 -6.06274 0.766508 0
M  V30 2556 C 252.823 -6.65515 1.53555 0
M  V30 2557 O 252.511 -7.67575 2.38922 0
M  V30 2558 H 252.243 -0.662893 -0.13247 0
M  V30 2559 H 254.797 -2.03829 0.253559 0
M  V30 2560 H 253.027 -3.34381 -1.94233 0
M  V30 2561 H 254.716 -3.6857 -1.70033 0
M  V30 2562 H 255.482 -4.82341 0.507167 0
M  V30 2563 H 251.361 -4.55807 -0.689994 0
M  V30 2564 H 254.905 -6.67107 2.03996 0
M  V30 2565 H 250.802 -6.40073 0.835266 0
M  V30 2566 H 251.57 -7.84844 2.32296 0
M  V30 2567 N 254.233 0.115231 -1.57178 0
M  V30 2568 C 255.181 1.16014 -2.01602 0
M  V30 2569 C 256.175 1.42653 -0.913587 0
M  V30 2570 O 257.381 1.42571 -1.09879 0
M  V30 2571 H 253.756 0.391252 -0.642204 0
M  V30 2572 H 255.727 0.758998 -2.88586 0
M  V30 2573 C 254.476 2.47767 -2.4394 0
M  V30 2574 H 253.799 2.28108 -3.28339 0
M  V30 2575 H 255.239 3.19432 -2.78818 0
M  V30 2576 C 253.698 3.10617 -1.30455 0
M  V30 2577 O 254.228 3.96846 -0.622585 0
M  V30 2578 N 252.434 2.70553 -1.06064 0
M  V30 2579 H 251.981 2.00527 -1.61699 0
M  V30 2580 H 251.939 3.12934 -0.303284 0
M  V30 2581 N 255.711 1.52812 0.385517 0
M  V30 2582 C 256.96 1.67249 1.12741 0
M  V30 2583 C 257.273 0.4205 1.91027 0
M  V30 2584 O 258.479 0.445064 2.67827 0
M  V30 2585 C 256.935 2.95583 2.05326 0
M  V30 2586 C 256.543 4.27974 1.32447 0
M  V30 2587 C 258.287 3.19386 2.7963 0
M  V30 2588 C 256.194 5.47412 2.23818 0
M  V30 2589 H 255.124 0.6231 0.424573 0
M  V30 2590 H 257.775 1.79309 0.389924 0
M  V30 2591 H 256.157 2.77277 2.82725 0
M  V30 2592 H 257.331 4.56844 0.602495 0
M  V30 2593 H 255.646 4.10459 0.700885 0
M  V30 2594 H 258.243 4.05801 3.48181 0
M  V30 2595 H 258.586 2.34604 3.43899 0
M  V30 2596 H 259.119 3.38274 2.09322 0
M  V30 2597 H 255.858 6.34612 1.64157 0
M  V30 2598 H 255.378 5.22849 2.93921 0
M  V30 2599 H 257.057 5.81423 2.83824 0
M  V30 2600 N 257.189 -0.644168 1.43834 0
M  V30 2601 C 258.099 -1.78563 1.52159 0
M  V30 2602 C 259.115 -1.69147 0.408069 0
M  V30 2603 O 260.291 -1.90156 0.663524 0
M  V30 2604 C 257.356 -3.14888 1.45073 0
M  V30 2605 C 256.417 -3.36034 2.6717 0
M  V30 2606 C 255.65 -4.65855 2.60413 0
M  V30 2607 O 255.873 -5.45805 1.65689 0
M  V30 2608 O 254.807 -4.88918 3.5106 0
M  V30 2609 H 258.633 -1.74494 2.48567 0
M  V30 2610 H 256.218 -0.80378 1.25935 0
M  V30 2611 H 258.1 -3.96179 1.43597 0
M  V30 2612 H 256.775 -3.19528 0.518037 0
M  V30 2613 H 255.682 -2.54472 2.74217 0
M  V30 2614 H 257.015 -3.36247 3.59442 0
M  V30 2615 N 258.668 -1.30515 -0.883378 0
M  V30 2616 C 259.616 -1.16941 -2.01066 0
M  V30 2617 C 260.61 -0.0809148 -1.69207 0
M  V30 2618 O 261.816 -0.241877 -1.78367 0
M  V30 2619 H 258.191 -0.361705 -0.659298 0
M  V30 2620 H 260.162 -2.12344 -2.09649 0
M  V30 2621 C 258.911 -0.879694 -3.36388 0
M  V30 2622 H 258.234 -1.70936 -3.61415 0
M  V30 2623 H 259.674 -0.82483 -4.159 0
M  V30 2624 C 258.133 0.417409 -3.34304 0
M  V30 2625 O 258.663 1.43843 -3.75063 0
M  V30 2626 N 256.869 0.429141 -2.87414 0
M  V30 2627 H 256.416 -0.402222 -2.5444 0
M  V30 2628 H 256.374 1.29696 -2.86403 0
M  V30 2629 N 260.146 1.09593 -1.13257 0
M  V30 2630 C 261.392 1.82181 -0.904521 0
M  V30 2631 C 261.747 1.83967 0.563358 0
M  V30 2632 O 261.04 1.29566 1.41149 0
M  V30 2633 C 261.234 3.27802 -1.42411 0
M  V30 2634 C 261.063 3.40201 -2.94097 0
M  V30 2635 C 259.833 3.52104 -3.62424 0
M  V30 2636 C 262.031 3.32875 -3.92044 0
M  V30 2637 N 260.013 3.53169 -5.0214 0
M  V30 2638 C 261.384 3.40789 -5.17941 0
M  V30 2639 C 263.439 3.16531 -3.84334 0
M  V30 2640 C 262.142 3.34042 -6.37031 0
M  V30 2641 C 264.168 3.11109 -5.02956 0
M  V30 2642 C 263.53 3.19614 -6.27715 0
M  V30 2643 H 259.629 0.681015 -0.384373 0
M  V30 2644 H 262.213 1.3099 -1.44048 0
M  V30 2645 H 260.384 3.77466 -0.915086 0
M  V30 2646 H 262.116 3.88393 -1.13722 0
M  V30 2647 H 258.871 3.5548 -3.12939 0
M  V30 2648 H 259.295 3.57291 -5.75041 0
M  V30 2649 H 263.937 3.08827 -2.88766 0
M  V30 2650 H 261.655 3.4051 -7.32857 0
M  V30 2651 H 265.241 2.99601 -4.98729 0
M  V30 2652 H 264.121 3.15432 -7.17964 0
M  V30 2653 N 261.624 0.925811 1.2754 0
M  V30 2654 C 262.852 0.581509 1.9856 0
M  V30 2655 C 263.267 -0.840041 1.69082 0
M  V30 2656 O 262.624 -1.55805 0.950312 0
M  V30 2657 C 262.675 0.795589 3.52637 0
M  V30 2658 O 262.396 2.16121 3.81082 0
M  V30 2659 C 263.897 0.459744 4.4091 0
M  V30 2660 H 261.117 0.220538 0.633722 0
M  V30 2661 H 263.661 1.24232 1.6244 0
M  V30 2662 H 261.816 0.18161 3.86974 0
M  V30 2663 H 262.23 2.2098 4.75676 0
M  V30 2664 H 263.704 0.660244 5.48037 0
M  V30 2665 H 264.181 -0.604625 4.35018 0
M  V30 2666 H 264.787 1.05178 4.12089 0
M  V30 2667 N 263.102 -1.41638 0.69111 0
M  V30 2668 C 264.348 -2.02104 0.229258 0
M  V30 2669 C 264.703 -1.53741 -1.15678 0
M  V30 2670 O 263.996 -0.736849 -1.76865 0
M  V30 2671 C 264.19 -3.56714 0.221277 0
M  V30 2672 C 264.019 -4.20083 1.605 0
M  V30 2673 C 262.789 -4.54566 2.20676 0
M  V30 2674 C 264.987 -4.46587 2.55078 0
M  V30 2675 N 262.969 -5.03199 3.5166 0
M  V30 2676 C 264.34 -4.96946 3.70735 0
M  V30 2677 C 266.395 -4.28593 2.53401 0
M  V30 2678 C 265.098 -5.31203 4.8499 0
M  V30 2679 C 267.124 -4.63936 3.66765 0
M  V30 2680 C 266.486 -5.14463 4.81152 0
M  V30 2681 H 262.585 -0.771256 0.12918 0
M  V30 2682 H 265.169 -1.72251 0.907626 0
M  V30 2683 H 263.34 -3.86051 -0.426562 0
M  V30 2684 H 265.072 -4.03896 -0.254983 0
M  V30 2685 H 261.827 -4.4087 1.73005 0
M  V30 2686 H 262.251 -5.31926 4.18789 0
M  V30 2687 H 266.893 -3.88771 1.66184 0
M  V30 2688 H 264.611 -5.69951 5.72871 0
M  V30 2689 H 268.197 -4.51677 3.66714 0
M  V30 2690 H 267.077 -5.41299 5.67419 0
M  V30 2691 N 264.58 -0.43555 -1.51462 0
M  V30 2692 C 265.543 0.365137 -2.26273 0
M  V30 2693 C 266.543 0.951227 -1.29647 0
M  V30 2694 O 267.733 0.825958 -1.53374 0
M  V30 2695 C 264.865 1.51645 -3.05314 0
M  V30 2696 H 266.058 -0.290474 -2.9849 0
M  V30 2697 H 263.611 -0.188676 -1.55157 0
M  V30 2698 H 264.346 2.20816 -2.3751 0
M  V30 2699 H 264.131 1.10238 -3.76284 0
M  V30 2700 H 265.621 2.08218 -3.61987 0
M  V30 2701 N 266.058 1.56714 -0.166846 0
M  V30 2702 C 267.005 2.17746 0.765193 0
M  V30 2703 C 267.975 1.11614 1.23011 0
M  V30 2704 O 269.16 1.39745 1.29908 0
M  V30 2705 C 266.3 2.81882 1.9909 0
M  V30 2706 C 265.413 4.02462 1.56997 0
M  V30 2707 C 264.548 4.54537 2.749 0
M  V30 2708 C 263.587 5.67538 2.29275 0
M  V30 2709 N 262.724 6.14142 3.40255 0
M  V30 2710 H 267.564 2.97048 0.237952 0
M  V30 2711 H 265.101 1.4672 0.105725 0
M  V30 2712 H 267.059 3.17221 2.70974 0
M  V30 2713 H 265.689 2.05191 2.49192 0
M  V30 2714 H 264.741 3.72973 0.748037 0
M  V30 2715 H 266.053 4.84273 1.19503 0
M  V30 2716 H 265.207 4.92035 3.54946 0
M  V30 2717 H 263.946 3.71774 3.1565 0
M  V30 2718 H 262.951 5.29597 1.47674 0
M  V30 2719 H 264.176 6.52099 1.89588 0
M  V30 2720 H 262.122 5.3431 3.8059 0
M  V30 2721 H 262.039 6.9093 3.06841 0
M  V30 2722 H 263.307 6.56289 4.206 0
M  V30 2723 N 267.536 -0.106894 1.57237 0
M  V30 2724 C 268.764 -0.826389 1.8968 0
M  V30 2725 C 269.179 -1.72856 0.759353 0
M  V30 2726 O 268.536 -1.80503 -0.269263 0
M  V30 2727 C 268.587 -1.64967 3.21665 0
M  V30 2728 O 268.308 -0.783804 4.31031 0
M  V30 2729 C 269.809 -2.47326 3.67892 0
M  V30 2730 H 267.029 -0.236927 0.627779 0
M  V30 2731 H 269.573 -0.0876593 2.04312 0
M  V30 2732 H 267.728 -2.34103 3.08666 0
M  V30 2733 H 268.142 -1.35284 5.06753 0
M  V30 2734 H 269.616 -3.00604 4.6297 0
M  V30 2735 H 270.093 -3.25247 2.95146 0
M  V30 2736 H 270.699 -1.83411 3.83719 0
M  V30 2737 N 269.014 -1.53014 -0.377408 0
M  V30 2738 C 269.946 -1.74884 -1.48149 0
M  V30 2739 C 270.959 -0.629433 -1.5014 0
M  V30 2740 O 272.148 -0.905416 -1.53833 0
M  V30 2741 C 269.248 -1.80299 -2.86959 0
M  V30 2742 C 268.421 -3.09776 -3.08801 0
M  V30 2743 C 267.48 -3.06586 -4.27658 0
M  V30 2744 O 266.506 -3.80419 -4.23403 0
M  V30 2745 N 267.708 -2.26578 -5.34455 0
M  V30 2746 H 270.473 -2.70147 -1.29771 0
M  V30 2747 H 268.034 -1.51646 -0.56703 0
M  V30 2748 H 270.026 -1.75657 -3.64591 0
M  V30 2749 H 268.596 -0.92372 -2.98641 0
M  V30 2750 H 267.816 -3.27815 -2.18931 0
M  V30 2751 H 269.104 -3.95366 -3.20255 0
M  V30 2752 H 268.502 -1.66081 -5.40771 0
M  V30 2753 H 267.059 -2.27766 -6.10709 0
M  V30 2754 N 270.492 0.636531 -1.44174 0
M  V30 2755 C 271.74 1.39343 -1.46383 0
M  V30 2756 C 272.061 1.94766 -0.0955715 0
M  V30 2757 O 271.331 1.75452 0.871395 0
M  V30 2758 H 269.911 0.517199 -0.538994 0
M  V30 2759 H 272.573 0.74957 -1.7991 0
M  V30 2760 H 271.669 2.22746 -2.18611 0
M  V30 2761 N 271.97 1.30982 0.876444 0
M  V30 2762 C 273.216 1.20474 1.63138 0
M  V30 2763 C 273.549 -0.238096 1.92735 0
M  V30 2764 O 272.824 -1.1692 1.55435 0
M  V30 2765 C 273.107 2.04244 2.96574 0
M  V30 2766 C 272.96 3.56793 2.73896 0
M  V30 2767 C 274.279 1.88684 3.97601 0
M  V30 2768 H 271.398 0.439001 0.591985 0
M  V30 2769 H 274.04 1.60704 1.01361 0
M  V30 2770 H 272.19 1.70063 3.493 0
M  V30 2771 H 273.862 4.01077 2.27892 0
M  V30 2772 H 272.105 3.80548 2.08245 0
M  V30 2773 H 272.776 4.10706 3.68815 0
M  V30 2774 H 275.252 2.18584 3.54062 0
M  V30 2775 H 274.128 2.4961 4.88862 0
M  V30 2776 H 274.389 0.848343 4.33884 0
M  V30 2777 N 273.449 -1.08991 1.13837 0
M  V30 2778 C 274.679 -1.84743 0.924859 0
M  V30 2779 C 275.087 -1.81629 -0.529874 0
M  V30 2780 O 274.43 -1.21397 -1.37872 0
M  V30 2781 C 274.492 -3.33568 1.34061 0
M  V30 2782 C 274.156 -3.60425 2.80968 0
M  V30 2783 C 275.153 -3.55771 3.79108 0
M  V30 2784 C 272.838 -3.88627 3.18236 0
M  V30 2785 C 274.832 -3.78939 5.12527 0
M  V30 2786 C 272.519 -4.11449 4.51833 0
M  V30 2787 C 273.517 -4.06598 5.48787 0
M  V30 2788 O 273.205 -4.28826 6.79973 0
M  V30 2789 H 272.937 -0.590258 0.329502 0
M  V30 2790 H 275.491 -1.38598 1.51591 0
M  V30 2791 H 273.721 -3.80442 0.692853 0
M  V30 2792 H 275.41 -3.90743 1.09886 0
M  V30 2793 H 276.176 -3.34005 3.51661 0
M  V30 2794 H 272.055 -3.91526 2.43369 0
M  V30 2795 H 275.599 -3.75068 5.88192 0
M  V30 2796 H 271.496 -4.32698 4.79002 0
M  V30 2797 H 272.264 -4.46264 6.86142 0
M  V30 2798 N 274.927 -0.932562 -1.27047 0
M  V30 2799 C 275.875 -0.42603 -2.28665 0
M  V30 2800 C 276.869 0.49219 -1.62092 0
M  V30 2801 O 278.075 0.371355 -1.76128 0
M  V30 2802 H 274.45 -0.119213 -0.742491 0
M  V30 2803 H 276.421 -1.29579 -2.68797 0
M  V30 2804 C 275.17 0.301426 -3.46391 0
M  V30 2805 H 274.493 -0.39595 -3.97834 0
M  V30 2806 H 275.933 0.6202 -4.1944 0
M  V30 2807 C 274.392 1.51616 -3.00856 0
M  V30 2808 O 274.922 2.61476 -3.04948 0
M  V30 2809 N 273.128 1.36969 -2.56296 0
M  V30 2810 H 272.675 0.475873 -2.53166 0
M  V30 2811 H 272.633 2.18368 -2.26192 0
M  V30 2812 N 276.405 1.4127 -0.698611 0
M  V30 2813 C 277.338 2.28195 0.0153898 0
M  V30 2814 C 278.316 1.42402 0.784883 0
M  V30 2815 O 279.5 1.71828 0.775067 0
M  V30 2816 C 276.627 3.22685 1.02918 0
M  V30 2817 C 275.673 4.25041 0.352501 0
M  V30 2818 S 276.506 5.27757 -0.907322 0
M  V30 2819 C 277.662 6.25812 0.104796 0
M  V30 2820 H 277.895 2.88403 -0.721858 0
M  V30 2821 H 275.428 1.46452 -0.488996 0
M  V30 2822 H 277.386 3.77655 1.60893 0
M  V30 2823 H 276.047 2.61566 1.73902 0
M  V30 2824 H 275.24 4.91437 1.11828 0
M  V30 2825 H 274.842 3.73682 -0.154254 0
M  V30 2826 H 277.134 6.70705 0.957103 0
M  V30 2827 H 278.077 7.06149 -0.525323 0
M  V30 2828 H 278.485 5.62615 0.460931 0
M  V30 2829 N 277.883 0.443576 1.51229 0
M  V30 2830 C 279.129 -0.120975 2.02439 0
M  V30 2831 C 279.462 -1.41815 1.32674 0
M  V30 2832 O 278.737 -1.89373 0.443622 0
M  V30 2833 C 279.02 -0.333291 3.58554 0
M  V30 2834 C 278.873 0.982968 4.38928 0
M  V30 2835 C 280.192 -1.10028 4.26124 0
M  V30 2836 H 277.311 -0.0424923 0.735774 0
M  V30 2837 H 279.953 0.583794 1.80809 0
M  V30 2838 H 278.103 -0.933614 3.77115 0
M  V30 2839 H 279.775 1.61775 4.32003 0
M  V30 2840 H 278.018 1.58611 4.03763 0
M  V30 2841 H 278.689 0.788379 5.46341 0
M  V30 2842 H 281.165 -0.591711 4.11871 0
M  V30 2843 H 280.041 -1.21761 5.35225 0
M  V30 2844 H 280.302 -2.12996 3.87408 0
M  V30 2845 N 279.361 -1.56624 0.175154 0
M  V30 2846 C 280.777 -1.58571 -0.180966 0
M  V30 2847 C 280.977 -1.19065 -1.6256 0
M  V30 2848 O 280.033 -0.904044 -2.35761 0
M  V30 2849 C 281.346 -3.00522 0.103326 0
M  V30 2850 C 282.894 -3.12972 0.0418426 0
M  V30 2851 C 283.369 -4.57022 0.299175 0
M  V30 2852 N 284.86 -4.62541 0.247086 0
M  V30 2853 C 285.595 -5.71857 0.420318 0
M  V30 2854 N 285.091 -6.89717 0.652816 0
M  V30 2855 N 286.884 -5.60972 0.355957 0
M  V30 2856 H 279.035 -1.80589 1.11809 0
M  V30 2857 H 281.298 -0.837178 0.444788 0
M  V30 2858 H 281.004 -3.33916 1.10422 0
M  V30 2859 H 280.878 -3.72344 -0.603299 0
M  V30 2860 H 283.265 -2.79403 -0.949636 0
M  V30 2861 H 283.346 -2.43578 0.781238 0
M  V30 2862 H 282.99 -4.913 1.28788 0
M  V30 2863 H 282.92 -5.24579 -0.460876 0
M  V30 2864 H 285.411 -3.77829 0.0731895 0
M  V30 2865 H 285.724 -7.68911 0.774347 0
M  V30 2866 H 284.069 -6.91572 0.689476 0
M  V30 2867 H 287.26 -4.67773 0.174882 0
M  V30 2868 H 287.433 -6.46111 0.494388 0
M  V30 2869 N 280.839 0.0985539 -1.57292 0
M  V30 2870 C 282.116 0.834155 -1.76921 0
M  V30 2871 C 282.496 1.97101 -0.755928 0
M  V30 2872 O 281.844 2.27474 0.216245 0
M  V30 2873 C 282.054 1.33194 -3.22584 0
M  V30 2874 C 283.402 1.77611 -3.85668 0
M  V30 2875 O 284.426 1.42825 -3.26312 0
M  V30 2876 O 283.285 2.4192 -4.90038 0
M  V30 2877 H 280.379 0.397628 -0.725135 0
M  V30 2878 H 282.925 0.0807044 -1.69508 0
M  V30 2879 H 281.697 0.517248 -3.87866 0
M  V30 2880 H 281.32 2.1475 -3.34616 0
M  V30 2881 N 282.317 1.53212 0.369288 0
M  V30 2882 C 283.564 1.69215 1.11232 0
M  V30 2883 C 283.892 0.442048 1.8941 0
M  V30 2884 O 283.147 -0.575944 1.87033 0
M  V30 2885 C 283.446 2.89101 2.10132 0
M  V30 2886 C 283.112 4.25758 1.48463 0
M  V30 2887 C 281.774 4.6292 1.31372 0
M  V30 2888 C 284.126 5.10757 1.03811 0
M  V30 2889 C 281.454 5.82722 0.68207 0
M  V30 2890 C 283.806 6.31201 0.420487 0
M  V30 2891 C 282.47 6.67079 0.237038 0
M  V30 2892 H 281.74 0.619201 0.407027 0
M  V30 2893 H 284.387 1.87391 0.394552 0
M  V30 2894 H 282.692 2.65421 2.88199 0
M  V30 2895 H 284.389 2.98676 2.6757 0
M  V30 2896 H 280.979 3.96494 1.62758 0
M  V30 2897 H 285.163 4.82599 1.1581 0
M  V30 2898 H 280.419 6.09113 0.528316 0
M  V30 2899 H 284.593 6.96368 0.0662874 0
M  V30 2900 H 282.22 7.59774 -0.254477 0
M  V30 2901 N 283.795 -0.628877 1.44509 0
M  V30 2902 C 284.742 -1.74074 1.51549 0
M  V30 2903 C 285.712 -1.62084 0.363021 0
M  V30 2904 O 286.897 -1.81975 0.573567 0
M  V30 2905 C 284.037 -3.12328 1.46784 0
M  V30 2906 C 283.15 -3.35277 2.72422 0
M  V30 2907 C 282.285 -4.63515 2.59475 0
M  V30 2908 C 281.324 -4.7965 3.80266 0
M  V30 2909 N 280.461 -5.99168 3.65981 0
M  V30 2910 H 285.301 -1.67392 2.46544 0
M  V30 2911 H 282.838 -0.816527 1.22357 0
M  V30 2912 H 284.796 -3.92286 1.42012 0
M  V30 2913 H 283.426 -3.18018 0.553544 0
M  V30 2914 H 282.478 -2.49242 2.87372 0
M  V30 2915 H 283.79 -3.43078 3.62076 0
M  V30 2916 H 282.944 -5.51638 2.52548 0
M  V30 2917 H 281.683 -4.58076 1.67384 0
M  V30 2918 H 280.688 -3.89957 3.87574 0
M  V30 2919 H 281.913 -4.86902 4.73395 0
M  V30 2920 H 279.859 -5.94814 2.76644 0
M  V30 2921 H 279.776 -6.08035 4.49254 0
M  V30 2922 H 281.044 -6.89846 3.6295 0
M  V30 2923 N 285.273 -1.31445 -0.869486 0
M  V30 2924 C 286.205 -1.14955 -1.98287 0
M  V30 2925 C 287.218 -0.0885037 -1.62559 0
M  V30 2926 O 288.407 -0.336044 -1.75308 0
M  V30 2927 C 285.507 -0.734255 -3.3085 0
M  V30 2928 C 284.68 -1.88042 -3.94917 0
M  V30 2929 C 283.739 -1.4511 -5.05796 0
M  V30 2930 O 282.765 -2.16082 -5.2659 0
M  V30 2931 N 283.967 -0.338763 -5.79511 0
M  V30 2932 H 286.732 -2.10856 -2.12979 0
M  V30 2933 H 284.293 -1.23786 -1.04349 0
M  V30 2934 H 286.285 -0.42975 -4.02412 0
M  V30 2935 H 284.855 0.133158 -3.12316 0
M  V30 2936 H 284.075 -2.35222 -3.1633 0
M  V30 2937 H 285.363 -2.6481 -4.34457 0
M  V30 2938 H 284.761 0.252274 -5.65137 0
M  V30 2939 H 283.318 -0.0937925 -6.51733 0
M  V30 2940 N 286.751 1.08385 -1.14413 0
M  V30 2941 C 288.167 1.32844 -0.884563 0
M  V30 2942 C 288.367 1.95841 0.474181 0
M  V30 2943 O 287.423 2.21158 1.21842 0
M  V30 2944 C 288.736 2.22978 -2.01745 0
M  V30 2945 C 290.284 2.36458 -2.05077 0
M  V30 2946 C 290.759 3.29934 -3.1766 0
M  V30 2947 N 292.25 3.37511 -3.17239 0
M  V30 2948 C 292.985 4.09871 -4.0099 0
M  V30 2949 N 292.481 4.84936 -4.94781 0
M  V30 2950 N 294.274 4.05704 -3.89051 0
M  V30 2951 H 286.425 0.658756 -2.01926 0
M  V30 2952 H 288.688 0.352821 -0.879899 0
M  V30 2953 H 288.394 1.83934 -2.99769 0
M  V30 2954 H 288.268 3.23441 -1.94077 0
M  V30 2955 H 290.655 2.7476 -1.0766 0
M  V30 2956 H 290.736 1.35736 -2.16816 0
M  V30 2957 H 290.38 2.92352 -4.15322 0
M  V30 2958 H 290.31 4.30584 -3.03158 0
M  V30 2959 H 292.801 2.83996 -2.49308 0
M  V30 2960 H 293.114 5.37612 -5.55151 0
M  V30 2961 H 291.459 4.83988 -4.98779 0
M  V30 2962 H 294.65 3.46167 -3.15097 0
M  V30 2963 H 294.823 4.61834 -4.54547 0
M  V30 2964 N 288.23 0.939286 1.26551 0
M  V30 2965 C 289.478 0.58469 1.93457 0
M  V30 2966 C 289.799 -0.878774 1.74076 0
M  V30 2967 O 289.069 -1.62421 1.09528 0
M  V30 2968 H 287.649 0.21325 0.715914 0
M  V30 2969 H 290.311 1.1942 1.54029 0
M  V30 2970 H 289.407 0.800849 3.0165 0
M  V30 2971 N 289.708 -1.40897 0.706093 0
M  V30 2972 C 290.954 -2.01352 0.241889 0
M  V30 2973 C 291.287 -1.55832 -1.15888 0
M  V30 2974 O 290.562 -0.774145 -1.7843 0
M  V30 2975 C 290.845 -3.58752 0.311311 0
M  V30 2976 C 290.698 -4.1437 1.74978 0
M  V30 2977 C 292.017 -4.38914 -0.322922 0
M  V30 2978 H 289.136 -0.731562 0.0893687 0
M  V30 2979 H 291.778 -1.67504 0.896802 0
M  V30 2980 H 289.928 -3.87718 -0.246302 0
M  V30 2981 H 291.6 -3.96239 2.36205 0
M  V30 2982 H 289.843 -3.69016 2.28057 0
M  V30 2983 H 290.514 -5.23532 1.74981 0
M  V30 2984 H 292.99 -4.15822 0.152089 0
M  V30 2985 H 291.866 -5.48358 -0.243855 0
M  V30 2986 H 292.127 -4.19176 -1.40513 0
M  V30 2987 N 291.186 -0.45159 -1.50991 0
M  V30 2988 C 292.597 0.00818571 -1.86698 0
M  V30 2989 C 292.948 1.40661 -1.3678 0
M  V30 2990 O 292.073 2.0391 -0.724546 0
M  V30 2991 C 292.668 0.0216303 -3.38793 0
M  V30 2992 C 291.227 0.425865 -3.73983 0
M  V30 2993 C 290.374 -0.372163 -2.74791 0
M  V30 2994 H 293.325 -0.666785 -1.44013 0
M  V30 2995 H 293.346 0.828078 -3.7138 0
M  V30 2996 H 292.858 -0.996288 -3.75094 0
M  V30 2997 H 290.959 1.44886 -3.43277 0
M  V30 2998 H 291.072 0.140761 -4.78893 0
M  V30 2999 H 289.436 0.171498 -2.54122 0
M  V30 3000 H 290.219 -1.38922 -3.13935 0
M  V30 3001 N 292.664 1.56529 -0.183458 0
M  V30 3002 C 293.913 1.96419 0.458511 0
M  V30 3003 C 294.226 1.0727 1.63562 0
M  V30 3004 O 295.432 1.36893 2.34462 0
M  V30 3005 C 293.888 3.49298 0.867122 0
M  V30 3006 C 293.496 4.47092 -0.285057 0
M  V30 3007 C 295.24 3.97983 1.47683 0
M  V30 3008 C 293.147 5.91225 0.143862 0
M  V30 3009 H 292.077 0.733394 0.175071 0
M  V30 3010 H 294.728 1.81448 -0.273624 0
M  V30 3011 H 293.11 3.59731 1.65559 0
M  V30 3012 H 294.284 4.48383 -1.0625 0
M  V30 3013 H 292.599 4.08535 -0.805503 0
M  V30 3014 H 295.196 5.03134 1.80999 0
M  V30 3015 H 295.539 3.41618 2.37914 0
M  V30 3016 H 296.072 3.90617 0.752562 0
M  V30 3017 H 292.811 6.5149 -0.723974 0
M  V30 3018 H 292.331 5.93214 0.886413 0
M  V30 3019 H 294.01 6.44362 0.583628 0
M  V30 3020 N 294.142 -0.090211 1.57342 0
M  V30 3021 C 295.419 -0.824761 1.77361 0
M  V30 3022 C 295.799 -1.96698 0.76637 0
M  V30 3023 O 295.147 -2.27586 -0.204179 0
M  V30 3024 C 295.357 -1.31481 3.23286 0
M  V30 3025 C 296.705 -1.75563 3.86604 0
M  V30 3026 O 297.729 -1.41093 3.27065 0
M  V30 3027 O 296.588 -2.39317 4.91314 0
M  V30 3028 H 293.682 -0.393776 0.727234 0
M  V30 3029 H 296.228 -0.0717138 1.69548 0
M  V30 3030 H 295 -0.496671 3.88135 0
M  V30 3031 H 294.623 -2.12973 3.35751 0
M  V30 3032 N 295.62 -1.53406 -0.361157 0
M  V30 3033 C 296.86 -1.71507 -1.11197 0
M  V30 3034 C 297.224 -0.459337 -1.86425 0
M  V30 3035 O 298.425 -0.517102 -2.63779 0
M  V30 3036 C 296.696 -2.93307 -2.0422 0
M  V30 3037 S 298.255 -3.32135 -2.86761 0
M  V30 3038 H 295.073 -0.603448 -0.375995 0
M  V30 3039 H 297.675 -1.91516 -0.392642 0
M  V30 3040 H 296.379 -3.82891 -1.47724 0
M  V30 3041 H 295.91 -2.75712 -2.80618 0
M  V30 3042 H 297.925 -2.84493 -4.06544 0
M  V30 3043 N 297.098 0.621204 -1.44841 0
M  V30 3044 C 298.344 1.3826 -1.48365 0
M  V30 3045 C 298.677 1.93831 -0.119624 0
M  V30 3046 O 297.952 1.74251 0.864111 0
M  V30 3047 C 298.235 2.54058 -2.55199 0
M  V30 3048 C 298.088 2.03772 -4.00995 0
M  V30 3049 C 299.407 3.56225 -2.58442 0
M  V30 3050 H 296.526 0.501374 -0.540179 0
M  V30 3051 H 299.168 0.7015 -1.76576 0
M  V30 3052 H 297.318 3.12162 -2.31274 0
M  V30 3053 H 298.99 1.50423 -4.36086 0
M  V30 3054 H 297.233 1.34876 -4.12299 0
M  V30 3055 H 297.904 2.87185 -4.71411 0
M  V30 3056 H 300.38 3.07939 -2.79844 0
M  V30 3057 H 299.256 4.34756 -3.3508 0
M  V30 3058 H 299.517 4.10949 -1.63013 0
M  V30 3059 N 298.576 1.31904 0.862503 0
M  V30 3060 C 299.824 1.21776 1.61292 0
M  V30 3061 C 300.145 -0.222413 1.93727 0
M  V30 3062 O 299.415 -1.1451 1.58947 0
M  V30 3063 H 297.995 0.447717 0.597962 0
M  V30 3064 H 300.657 1.65326 1.03215 0
M  V30 3065 H 299.753 1.7948 2.5533 0
M  V30 3066 N 300.054 -1.07777 1.14986 0
M  V30 3067 C 301.301 -1.8029 0.922056 0
M  V30 3068 C 301.629 -1.86531 -0.55105 0
M  V30 3069 O 300.884 -1.34189 -1.42449 0
M  V30 3070 C 301.183 -3.25495 1.47608 0
M  V30 3071 C 300.849 -3.39361 2.96893 0
M  V30 3072 C 299.511 -3.42852 3.37647 0
M  V30 3073 C 301.863 -3.42512 3.92854 0
M  V30 3074 C 299.191 -3.47094 4.73015 0
M  V30 3075 C 301.543 -3.4829 5.28088 0
M  V30 3076 C 300.207 -3.50058 5.68345 0
M  V30 3077 H 299.477 -0.659727 0.337404 0
M  V30 3078 H 302.124 -1.26854 1.43459 0
M  V30 3079 H 300.429 -3.81683 0.88463 0
M  V30 3080 H 302.126 -3.80168 1.27568 0
M  V30 3081 H 298.716 -3.37339 2.64387 0
M  V30 3082 H 302.9 -3.3904 3.62444 0
M  V30 3083 H 298.156 -3.46758 5.03556 0
M  V30 3084 H 302.33 -3.49675 6.02246 0
M  V30 3085 H 299.957 -3.53097 6.73221 0
M  V30 3086 N 301.532 -0.945985 -1.26051 0
M  V30 3087 C 302.464 -0.416662 -2.25381 0
M  V30 3088 C 303.477 0.462712 -1.56086 0
M  V30 3089 O 304.666 0.272383 -1.7641 0
M  V30 3090 C 301.766 0.419812 -3.3629 0
M  V30 3091 C 300.939 -0.444531 -4.35135 0
M  V30 3092 C 299.998 0.332305 -5.2515 0
M  V30 3093 O 299.024 -0.266324 -5.68577 0
M  V30 3094 N 300.226 1.62763 -5.57215 0
M  V30 3095 H 302.991 -1.27059 -2.71433 0
M  V30 3096 H 300.552 -0.815392 -1.39868 0
M  V30 3097 H 302.544 0.947013 -3.93464 0
M  V30 3098 H 301.114 1.17456 -2.89694 0
M  V30 3099 H 300.334 -1.15291 -3.76964 0
M  V30 3100 H 301.622 -1.03478 -4.98166 0
M  V30 3101 H 301.02 2.13603 -5.23823 0
M  V30 3102 H 299.577 2.10097 -6.17011 0
M  V30 3103 N 303.011 1.40521 -0.713556 0
M  V30 3104 C 304.236 2.05759 -0.26035 0
M  V30 3105 C 304.661 1.53403 1.08854 0
M  V30 3106 O 304.019 0.668535 1.68524 0
M  V30 3107 C 304.067 3.59745 -0.248122 0
M  V30 3108 O 303.171 4.05123 0.77131 0
M  V30 3109 H 302.512 0.652564 -0.122703 0
M  V30 3110 H 305.042 1.79958 -0.973467 0
M  V30 3111 H 305.052 4.07911 -0.0851129 0
M  V30 3112 H 303.727 3.97218 -1.2325 0
M  V30 3113 H 302.304 3.68422 0.57619 0
M  V30 3114 N 304.489 0.459591 1.5075 0
M  V30 3115 C 305.439 -0.358926 2.25157 0
M  V30 3116 C 306.423 -0.971285 1.28276 0
M  V30 3117 O 307.615 -0.885739 1.53244 0
M  V30 3118 C 304.744 -1.44695 3.11317 0
M  V30 3119 C 303.83 -0.842894 4.15639 0
M  V30 3120 N 304.221 0.0299373 5.05791 0
M  V30 3121 C 302.519 -1.10809 4.32015 0
M  V30 3122 C 303.22 0.371563 5.80512 0
M  V30 3123 N 302.196 -0.250409 5.43023 0
M  V30 3124 H 305.998 0.313636 2.92222 0
M  V30 3125 H 303.512 0.273021 1.60089 0
M  V30 3126 H 305.509 -2.04641 3.63218 0
M  V30 3127 H 304.169 -2.12162 2.45799 0
M  V30 3128 H 305.18 0.39797 5.16369 0
M  V30 3129 H 301.857 -1.7786 3.77719 0
M  V30 3130 H 303.247 1.08319 6.63111 0
M  V30 3131 N 305.967 -1.56429 0.191757 0
M  V30 3132 C 307.214 -1.97485 -0.447891 0
M  V30 3133 C 307.542 -1.07852 -1.61859 0
M  V30 3134 O 306.797 -0.116903 -1.95351 0
M  V30 3135 C 307.096 -3.44449 -0.953384 0
M  V30 3136 C 306.762 -4.50781 0.103586 0
M  V30 3137 C 305.424 -4.79584 0.394023 0
M  V30 3138 C 307.776 -5.1471 0.819946 0
M  V30 3139 C 305.104 -5.69607 1.40585 0
M  V30 3140 C 307.456 -6.05827 1.8209 0
M  V30 3141 C 306.12 -6.32987 2.11857 0
M  V30 3142 H 305.39 -0.722648 -0.163895 0
M  V30 3143 H 308.037 -1.89322 0.28802 0
M  V30 3144 H 306.342 -3.49666 -1.76751 0
M  V30 3145 H 308.039 -3.73569 -1.45765 0
M  V30 3146 H 304.629 -4.28394 -0.132951 0
M  V30 3147 H 308.813 -4.92552 0.608789 0
M  V30 3148 H 304.069 -5.88926 1.64243 0
M  V30 3149 H 308.243 -6.54424 2.38123 0
M  V30 3150 H 305.87 -7.02544 2.90407 0
M  V30 3151 N 307.445 0.0818655 -1.57387 0
M  V30 3152 C 308.393 1.11712 -2.04018 0
M  V30 3153 C 309.387 1.40683 -0.94364 0
M  V30 3154 O 310.593 1.40209 -1.12878 0
M  V30 3155 H 306.968 0.377542 -0.650358 0
M  V30 3156 H 308.939 0.697614 -2.90131 0
M  V30 3157 C 307.688 2.42537 -2.49141 0
M  V30 3158 H 307.011 2.21092 -3.33104 0
M  V30 3159 H 308.451 3.13446 -2.85531 0
M  V30 3160 C 306.91 3.0778 -1.37014 0
M  V30 3161 O 307.44 3.95436 -0.706621 0
M  V30 3162 N 305.646 2.68242 -1.11779 0
M  V30 3163 H 305.193 1.97052 -1.65917 0
M  V30 3164 H 305.151 3.1222 -0.369594 0
M  V30 3165 N 308.923 1.53595 0.353017 0
M  V30 3166 C 310.148 1.7462 1.11904 0
M  V30 3167 C 310.573 0.479721 1.8188 0
M  V30 3168 O 309.931 -0.567066 1.72204 0
M  V30 3169 C 309.979 2.92029 2.11545 0
M  V30 3170 O 309.083 2.61516 3.18878 0
M  V30 3171 H 308.424 0.579531 0.324099 0
M  V30 3172 H 310.954 2.00525 0.406301 0
M  V30 3173 H 310.964 3.18551 2.5493 0
M  V30 3174 H 309.639 3.83888 1.60008 0
M  V30 3175 H 308.216 2.45852 2.80377 0
M  V30 3176 N 310.401 -0.613514 1.45168 0
M  V30 3177 C 311.649 -1.36997 1.48581 0
M  V30 3178 C 311.97 -1.94589 0.126545 0
M  V30 3179 O 311.24 -1.76816 -0.843372 0
M  V30 3180 H 309.82 -0.508558 0.547154 0
M  V30 3181 H 312.482 -0.720853 1.81079 0
M  V30 3182 H 311.578 -2.1924 2.22127 0
M  V30 3183 N 311.879 -1.3236 -0.855495 0
M  V30 3184 C 313.104 -1.2601 -1.64731 0
M  V30 3185 C 313.529 0.169068 -1.87339 0
M  V30 3186 O 312.887 1.12016 -1.42556 0
M  V30 3187 C 312.935 -2.02417 -2.98429 0
M  V30 3188 O 312.039 -1.3714 -3.8893 0
M  V30 3189 H 311.38 -0.434325 -0.502253 0
M  V30 3190 H 313.91 -1.74661 -1.06558 0
M  V30 3191 H 313.92 -2.12559 -3.48257 0
M  V30 3192 H 312.595 -3.06343 -2.81295 0
M  V30 3193 H 311.172 -1.3554 -3.47395 0
M  V30 3194 N 313.357 1.07166 -1.15556 0
M  V30 3195 C 314.768 1.6127 -0.940693 0
M  V30 3196 C 315.119 1.89251 0.517551 0
M  V30 3197 O 314.244 1.65937 1.38903 0
M  V30 3198 C 314.839 2.92993 -1.7012 0
M  V30 3199 C 313.398 3.43832 -1.53156 0
M  V30 3200 C 312.545 2.1786 -1.71558 0
M  V30 3201 H 315.496 0.90229 -1.30554 0
M  V30 3202 H 315.517 3.62007 -1.17181 0
M  V30 3203 H 315.029 2.72596 -2.76248 0
M  V30 3204 H 313.13 3.69307 -0.494294 0
M  V30 3205 H 313.243 4.19747 -2.30975 0
M  V30 3206 H 311.607 2.2765 -1.14225 0
M  V30 3207 H 312.39 1.99956 -2.79056 0
M  V30 3208 N 314.835 0.952656 1.25548 0
M  V30 3209 C 316.065 0.622592 1.96996 0
M  V30 3210 C 316.473 -0.809112 1.71026 0
M  V30 3211 O 315.816 -1.55258 0.981861 0
M  V30 3212 C 315.878 0.798946 3.5051 0
M  V30 3213 C 315.542 2.20744 4.00151 0
M  V30 3214 C 316.539 3.18394 4.11001 0
M  V30 3215 C 314.224 2.5311 4.33867 0
M  V30 3216 C 316.218 4.46504 4.54877 0
M  V30 3217 C 313.905 3.8145 4.7743 0
M  V30 3218 C 314.903 4.77959 4.87897 0
M  V30 3219 O 314.591 6.04012 5.30494 0
M  V30 3220 H 314.323 0.232503 0.634758 0
M  V30 3221 H 316.877 1.2789 1.60728 0
M  V30 3222 H 315.107 0.0854903 3.86605 0
M  V30 3223 H 316.796 0.47023 4.03167 0
M  V30 3224 H 317.562 2.94715 3.85186 0
M  V30 3225 H 313.441 1.78719 4.24948 0
M  V30 3226 H 316.985 5.21835 4.62962 0
M  V30 3227 H 312.882 4.04936 5.0269 0
M  V30 3228 H 313.65 6.0736 5.48685 0
M  V30 3229 N 316.313 -1.40141 0.720998 0
M  V30 3230 C 317.261 -2.3252 0.0608547 0
M  V30 3231 C 318.255 -1.52326 -0.741152 0
M  V30 3232 O 319.461 -1.68089 -0.643911 0
M  V30 3233 H 315.836 -0.751999 0.000876664 0
M  V30 3234 H 317.807 -2.8584 0.856614 0
M  V30 3235 C 316.556 -3.37331 -0.842809 0
M  V30 3236 H 315.879 -3.99108 -0.235084 0
M  V30 3237 H 317.319 -4.04452 -1.27257 0
M  V30 3238 C 315.778 -2.73246 -1.97074 0
M  V30 3239 O 316.308 -2.59998 -3.06209 0
M  V30 3240 N 314.514 -2.31547 -1.75597 0
M  V30 3241 H 314.061 -2.42522 -0.868368 0
M  V30 3242 H 314.019 -1.89007 -2.51244 0
M  V30 3243 N 317.792 -0.46758 -1.50504 0
M  V30 3244 C 319.017 0.0886943 -2.0721 0
M  V30 3245 C 319.442 1.33057 -1.32956 0
M  V30 3246 O 318.8 1.77354 -0.376197 0
M  V30 3247 C 318.848 0.359202 -3.58806 0
M  V30 3248 O 317.952 1.44034 -3.8643 0
M  V30 3249 H 317.293 -0.0114349 -0.663902 0
M  V30 3250 H 319.823 -0.657613 -1.93744 0
M  V30 3251 H 319.833 0.600742 -4.03553 0
M  V30 3252 H 318.508 -0.548311 -4.1227 0
M  V30 3253 H 317.085 1.18638 -3.53524 0
M  V30 3254 N 319.27 1.56325 -0.20005 0
M  V30 3255 C 320.218 2.20666 0.735482 0
M  V30 3256 C 321.212 1.17934 1.21605 0
M  V30 3257 O 322.418 1.36068 1.17837 0
M  V30 3258 H 318.793 0.70725 0.255542 0
M  V30 3259 H 320.764 2.9792 0.169166 0
M  V30 3260 C 319.513 2.88391 1.94232 0
M  V30 3261 H 318.836 3.67185 1.58161 0
M  V30 3262 H 320.276 3.3684 2.57517 0
M  V30 3263 C 318.735 1.89692 2.78421 0
M  V30 3264 O 319.265 1.40032 3.76502 0
M  V30 3265 N 317.471 1.57813 2.44015 0
M  V30 3266 H 317.018 1.9839 1.64314 0
M  V30 3267 H 316.976 0.920325 3.00628 0
M  V30 3268 N 320.748 -0.0735177 1.57428 0
M  V30 3269 C 321.995 -0.772999 1.87166 0
M  V30 3270 C 322.323 -1.77665 0.791551 0
M  V30 3271 O 321.578 -1.94541 -0.212636 0
M  V30 3272 C 321.877 -1.51799 3.23561 0
M  V30 3273 C 321.543 -0.654484 4.46125 0
M  V30 3274 C 320.205 -0.416511 4.79394 0
M  V30 3275 C 322.557 -0.0555862 5.2117 0
M  V30 3276 C 319.885 0.429869 5.85123 0
M  V30 3277 C 322.237 0.778239 6.27795 0
M  V30 3278 C 320.901 1.0261 6.59566 0
M  V30 3279 H 320.171 -0.282861 0.684888 0
M  V30 3280 H 322.818 -0.0338272 1.9147 0
M  V30 3281 H 321.123 -2.32932 3.1504 0
M  V30 3282 H 322.82 -2.06397 3.43804 0
M  V30 3283 H 319.41 -0.850091 4.20085 0
M  V30 3284 H 323.594 -0.226558 4.95783 0
M  V30 3285 H 318.85 0.630665 6.08139 0
M  V30 3286 H 323.024 1.24906 6.85107 0
M  V30 3287 H 320.651 1.68371 7.4132 0
M  V30 3288 N 322.226 -1.5378 -0.344866 0
M  V30 3289 C 323.642 -1.44015 -0.687888 0
M  V30 3290 C 323.842 -0.595834 -1.92489 0
M  V30 3291 O 322.898 -0.0863064 -2.52352 0
M  V30 3292 C 324.211 -2.87481 -0.881758 0
M  V30 3293 C 325.759 -2.97247 -0.980459 0
M  V30 3294 C 326.234 -4.41819 -1.20665 0
M  V30 3295 N 327.725 -4.45339 -1.27389 0
M  V30 3296 C 328.46 -5.54333 -1.46639 0
M  V30 3297 N 327.956 -6.73335 -1.63071 0
M  V30 3298 N 329.749 -5.41944 -1.49176 0
M  V30 3299 H 321.9 -2.07169 0.468475 0
M  V30 3300 H 324.163 -0.93643 0.147655 0
M  V30 3301 H 323.869 -3.51672 -0.0443444 0
M  V30 3302 H 323.743 -3.32352 -1.78388 0
M  V30 3303 H 326.13 -2.33197 -1.8084 0
M  V30 3304 H 326.211 -2.5574 -0.0552713 0
M  V30 3305 H 325.855 -5.06449 -0.383652 0
M  V30 3306 H 325.785 -4.80917 -2.14539 0
M  V30 3307 H 328.276 -3.59585 -1.1622 0
M  V30 3308 H 328.589 -7.52165 -1.77391 0
M  V30 3309 H 326.934 -6.76282 -1.60209 0
M  V30 3310 H 330.125 -4.47932 -1.3592 0
M  V30 3311 H 330.298 -6.26946 -1.63837 0
M  V30 3312 N 323.704 0.605807 -1.45491 0
M  V30 3313 C 324.932 1.39136 -1.5313 0
M  V30 3314 C 325.347 1.88082 -0.164507 0
M  V30 3315 O 324.704 1.62316 0.834247 0
M  V30 3316 C 324.755 2.59463 -2.51716 0
M  V30 3317 O 324.476 2.12551 -3.83084 0
M  V30 3318 C 325.977 3.52301 -2.6907 0
M  V30 3319 H 323.197 0.425849 -0.51855 0
M  V30 3320 H 325.741 0.73865 -1.90694 0
M  V30 3321 H 323.896 3.20772 -2.17219 0
M  V30 3322 H 324.31 2.90744 -4.36541 0
M  V30 3323 H 325.784 4.33271 -3.42024 0
M  V30 3324 H 326.261 4.02757 -1.75167 0
M  V30 3325 H 326.867 2.96845 -3.04571 0
M  V30 3326 N 325.182 1.32811 0.848464 0
M  V30 3327 C 326.41 1.26739 1.63538 0
M  V30 3328 C 326.825 -0.163484 1.88091 0
M  V30 3329 O 326.182 -1.10258 1.45429 0
M  V30 3330 C 326.233 2.03013 2.99112 0
M  V30 3331 O 325.954 3.40518 2.75643 0
M  V30 3332 C 327.455 2.04038 3.93552 0
M  V30 3333 H 324.675 0.437024 0.509167 0
M  V30 3334 H 327.219 1.75033 1.05753 0
M  V30 3335 H 325.374 1.58426 3.53525 0
M  V30 3336 H 325.788 3.79635 3.61908 0
M  V30 3337 H 327.262 2.61877 4.85926 0
M  V30 3338 H 327.739 1.0282 4.26995 0
M  V30 3339 H 328.345 2.486 3.45077 0
M  V30 3340 N 326.66 -1.06551 1.16123 0
M  V30 3341 C 327.59 -2.15935 0.88851 0
M  V30 3342 C 328.571 -1.69306 -0.164135 0
M  V30 3343 O 329.756 -1.94193 -0.0167857 0
M  V30 3344 C 326.886 -3.45149 0.385942 0
M  V30 3345 C 325.84 -4.05271 1.3762 0
M  V30 3346 C 325.166 -5.29664 0.732137 0
M  V30 3347 C 326.466 -4.44355 2.74493 0
M  V30 3348 H 328.16 -2.39006 1.80323 0
M  V30 3349 H 325.706 -1.14866 0.868435 0
M  V30 3350 H 327.659 -4.21004 0.182647 0
M  V30 3351 H 326.383 -3.21689 -0.564274 0
M  V30 3352 H 325.042 -3.3147 1.56599 0
M  V30 3353 H 324.69 -5.02499 -0.224483 0
M  V30 3354 H 324.39 -5.70848 1.39307 0
M  V30 3355 H 325.914 -6.08218 0.538802 0
M  V30 3356 H 327.328 -5.11303 2.59311 0
M  V30 3357 H 325.725 -4.96515 3.37035 0
M  V30 3358 H 326.795 -3.55339 3.29943 0
M  V30 3359 N 328.138 -0.959301 -1.25041 0
M  V30 3360 C 329.07 -0.440543 -2.24926 0
M  V30 3361 C 330.083 0.446131 -1.56568 0
M  V30 3362 O 331.272 0.253657 -1.76689 0
M  V30 3363 C 328.372 0.38412 -3.36716 0
M  V30 3364 C 327.545 -0.490658 -4.34639 0
M  V30 3365 C 326.604 0.276587 -5.25473 0
M  V30 3366 O 325.63 -0.326614 -5.68262 0
M  V30 3367 N 326.832 1.56844 -5.5891 0
M  V30 3368 H 329.597 -1.29931 -2.70071 0
M  V30 3369 H 327.158 -0.830181 -1.38995 0
M  V30 3370 H 329.15 0.905228 -3.94446 0
M  V30 3371 H 327.72 1.14377 -2.90924 0
M  V30 3372 H 326.94 -1.19282 -3.7572 0
M  V30 3373 H 328.228 -1.08756 -4.97041 0
M  V30 3374 H 327.626 2.08036 -5.26059 0
M  V30 3375 H 326.183 2.03541 -6.19205 0
M  V30 3376 N 329.616 1.39756 -0.72842 0
M  V30 3377 C 330.564 2.32485 -0.0731849 0
M  V30 3378 C 331.558 1.52717 0.733063 0
M  V30 3379 O 332.764 1.68428 0.634988 0
M  V30 3380 H 329.139 0.751984 -0.00486469 0
M  V30 3381 H 331.11 2.85382 -0.871761 0
M  V30 3382 C 329.859 3.37773 0.824908 0
M  V30 3383 H 329.182 3.99227 0.213915 0
M  V30 3384 H 330.622 4.05121 1.25111 0
M  V30 3385 C 329.081 2.74287 1.95622 0
M  V30 3386 O 329.611 2.61618 3.04826 0
M  V30 3387 N 327.817 2.32475 1.74367 0
M  V30 3388 H 327.364 2.4298 0.855494 0
M  V30 3389 H 327.322 1.90337 2.50238 0
M  V30 3390 N 331.094 0.475555 1.50254 0
M  V30 3391 C 332.341 -0.0778919 2.0235 0
M  V30 3392 C 332.669 -1.39319 1.35722 0
M  V30 3393 O 331.924 -1.89888 0.473395 0
M  V30 3394 C 332.223 -0.305114 3.56095 0
M  V30 3395 C 331.889 0.92903 4.41225 0
M  V30 3396 C 330.551 1.26739 4.6421 0
M  V30 3397 C 332.903 1.75054 4.90923 0
M  V30 3398 C 330.231 2.42724 5.34137 0
M  V30 3399 C 332.583 2.9017 5.62125 0
M  V30 3400 C 331.247 3.24416 5.83362 0
M  V30 3401 H 330.517 -0.0285027 0.740452 0
M  V30 3402 H 333.164 0.630543 1.80821 0
M  V30 3403 H 331.469 -1.09584 3.76163 0
M  V30 3404 H 333.166 -0.747377 3.93974 0
M  V30 3405 H 329.756 0.655428 4.23559 0
M  V30 3406 H 333.94 1.50231 4.73016 0
M  V30 3407 H 329.196 2.69525 5.48786 0
M  V30 3408 H 333.37 3.54169 5.99614 0
M  V30 3409 H 330.997 4.14396 6.37323 0
M  V30 3410 N 332.573 -1.56217 0.208337 0
M  V30 3411 C 333.536 -2.18455 -0.693557 0
M  V30 3412 C 334.536 -1.14268 -1.13135 0
M  V30 3413 O 335.726 -1.39577 -1.0423 0
M  V30 3414 C 332.858 -2.79727 -1.94848 0
M  V30 3415 H 334.051 -2.99519 -0.15114 0
M  V30 3416 H 331.604 -1.56245 -0.041287 0
M  V30 3417 H 332.339 -2.02497 -2.53309 0
M  V30 3418 H 332.124 -3.56009 -1.64316 0
M  V30 3419 H 333.614 -3.27475 -2.59133 0
M  V30 3420 N 334.051 0.0651679 -1.57465 0
M  V30 3421 C 335.014 1.06117 -2.03155 0
M  V30 3422 C 336.014 1.31204 -0.929632 0
M  V30 3423 O 337.204 1.26813 -1.19432 0
M  V30 3424 C 334.336 2.4032 -2.41783 0
M  V30 3425 H 335.529 0.667231 -2.92383 0
M  V30 3426 H 333.082 0.311075 -1.53173 0
M  V30 3427 H 333.817 2.84532 -1.55601 0
M  V30 3428 H 333.602 2.23451 -3.22199 0
M  V30 3429 H 335.092 3.11898 -2.77685 0
M  V30 3430 N 335.529 1.53961 0.336706 0
M  V30 3431 C 336.459 1.85417 1.41925 0
M  V30 3432 C 337.44 0.709856 1.5458 0
M  V30 3433 O 338.625 0.962396 1.68676 0
M  V30 3434 C 335.755 2.06985 2.78881 0
M  V30 3435 C 334.709 3.22813 2.81026 0
M  V30 3436 C 334.035 3.29727 4.20932 0
M  V30 3437 C 335.335 4.60767 2.45949 0
M  V30 3438 H 337.029 2.76079 1.15848 0
M  V30 3439 H 334.575 1.32839 0.555859 0
M  V30 3440 H 336.528 2.27575 3.54665 0
M  V30 3441 H 335.252 1.13061 3.06406 0
M  V30 3442 H 333.911 3.0209 2.07695 0
M  V30 3443 H 333.559 2.33385 4.45579 0
M  V30 3444 H 333.259 4.07566 4.23277 0
M  V30 3445 H 334.783 3.52536 4.98549 0
M  V30 3446 H 336.197 4.81325 3.11446 0
M  V30 3447 H 334.594 5.4106 2.59566 0
M  V30 3448 H 335.664 4.6391 1.41122 0
M  V30 3449 N 337.007 -0.598083 1.45811 0
M  V30 3450 C 338.255 -1.35413 1.50026 0
M  V30 3451 C 338.576 -1.94444 0.147177 0
M  V30 3452 O 337.846 -1.77701 -0.824571 0
M  V30 3453 H 336.426 -0.502727 0.552517 0
M  V30 3454 H 339.088 -0.701606 1.81834 0
M  V30 3455 H 338.184 -2.16871 2.2444 0
M  V30 3456 N 338.485 -1.33259 -0.841409 0
M  V30 3457 C 339.731 -1.24757 -1.59886 0
M  V30 3458 C 340.064 0.186913 -1.93298 0
M  V30 3459 O 339.339 1.12757 -1.5848 0
M  V30 3460 C 339.622 -2.12036 -2.91055 0
M  V30 3461 C 339.475 -3.63929 -2.6434 0
M  V30 3462 C 340.794 -1.9916 -3.92458 0
M  V30 3463 H 337.913 -0.454542 -0.580138 0
M  V30 3464 H 340.555 -1.63335 -0.970647 0
M  V30 3465 H 338.705 -1.79265 -3.44669 0
M  V30 3466 H 340.377 -4.06978 -2.17178 0
M  V30 3467 H 338.62 -3.85935 -1.98082 0
M  V30 3468 H 339.291 -4.20341 -3.57796 0
M  V30 3469 H 341.767 -2.27895 -3.48143 0
M  V30 3470 H 340.643 -2.62484 -4.82072 0
M  V30 3471 H 340.904 -0.963082 -4.31482 0
M  V30 3472 N 339.963 1.05934 -1.16686 0
M  V30 3473 C 341.24 1.75643 -0.860747 0
M  V30 3474 C 341.62 2.01144 0.640641 0
M  V30 3475 O 340.968 1.64147 1.58959 0
M  V30 3476 C 341.178 3.05493 -1.68745 0
M  V30 3477 C 342.526 3.79581 -1.90271 0
M  V30 3478 O 343.55 3.15344 -1.65641 0
M  V30 3479 O 342.409 4.9499 -2.31618 0
M  V30 3480 H 339.503 0.763426 -0.317977 0
M  V30 3481 H 342.049 1.1217 -1.27342 0
M  V30 3482 H 340.821 2.8264 -2.70611 0
M  V30 3483 H 340.444 3.76702 -1.27206 0
M  V30 3484 N 341.441 0.965919 1.2453 0
M  V30 3485 C 342.687 0.62776 1.92839 0
M  V30 3486 C 343.02 -0.834694 1.75347 0
M  V30 3487 O 342.295 -1.60031 1.10546 0
M  V30 3488 C 342.578 1.00109 3.45905 0
M  V30 3489 C 342.431 2.52011 3.72573 0
M  V30 3490 C 343.75 0.53435 4.36844 0
M  V30 3491 H 340.869 0.229537 0.700344 0
M  V30 3492 H 343.511 1.2046 1.46933 0
M  V30 3493 H 341.661 0.510238 3.85135 0
M  V30 3494 H 343.333 3.08559 3.42912 0
M  V30 3495 H 341.576 2.95287 3.17786 0
M  V30 3496 H 342.247 2.73183 4.79661 0
M  V30 3497 H 344.723 0.955565 4.04979 0
M  V30 3498 H 343.599 0.824152 5.42678 0
M  V30 3499 H 343.86 -0.565589 4.38467 0
M  V30 3500 N 342.919 -1.39368 0.735821 0
M  V30 3501 C 343.882 -2.2896 0.104874 0
M  V30 3502 C 344.882 -1.46347 -0.666274 0
M  V30 3503 O 346.072 -1.67014 -0.49517 0
M  V30 3504 C 343.204 -3.29857 -0.860656 0
M  V30 3505 H 344.397 -2.86259 0.894205 0
M  V30 3506 H 341.95 -1.48029 0.501704 0
M  V30 3507 H 342.685 -2.77615 -1.67631 0
M  V30 3508 H 342.47 -3.9087 -0.310327 0
M  V30 3509 H 343.96 -3.96893 -1.29867 0
M  V30 3510 N 344.397 -0.483516 -1.5 0
M  V30 3511 C 345.646 0.0689102 -2.01582 0
M  V30 3512 C 345.959 1.39655 -1.36952 0
M  V30 3513 O 347.165 2.03465 -1.79762 0
M  V30 3514 C 345.621 0.173302 -3.59483 0
M  V30 3515 C 345.229 -1.14665 -4.33077 0
M  V30 3516 C 346.973 0.677024 -4.19066 0
M  V30 3517 C 344.88 -1.00537 -5.82792 0
M  V30 3518 H 343.81 0.0295277 -0.753422 0
M  V30 3519 H 346.461 -0.620295 -1.72698 0
M  V30 3520 H 344.843 0.926569 -3.85007 0
M  V30 3521 H 346.017 -1.91184 -4.19268 0
M  V30 3522 H 344.332 -1.58244 -3.85159 0
M  V30 3523 H 346.929 0.799952 -5.28682 0
M  V30 3524 H 347.272 1.67151 -3.81269 0
M  V30 3525 H 347.805 -0.0192083 -3.97795 0
M  V30 3526 H 344.544 -1.9736 -6.25083 0
M  V30 3527 H 344.064 -0.280776 -5.99142 0
M  V30 3528 H 345.743 -0.677 -6.43448 0
M  V30 3529 N 345.875 1.56104 -0.216619 0
M  V30 3530 C 347.103 2.02563 0.421413 0
M  V30 3531 C 347.518 1.0965 1.53695 0
M  V30 3532 O 346.875 0.10521 1.82196 0
M  V30 3533 C 346.926 3.48584 0.957665 0
M  V30 3534 O 346.647 4.37953 -0.113389 0
M  V30 3535 C 348.148 4.10664 1.66943 0
M  V30 3536 H 345.368 0.662944 0.103665 0
M  V30 3537 H 347.912 2.01793 -0.331629 0
M  V30 3538 H 346.067 3.49985 1.661 0
M  V30 3539 H 346.481 5.23704 0.288932 0
M  V30 3540 H 347.955 5.14622 1.99671 0
M  V30 3541 H 348.432 3.55373 2.58083 0
M  V30 3542 H 349.038 4.13098 1.01142 0
M  V30 3543 N 347.353 -0.0568162 1.57498 0
M  V30 3544 C 348.263 -1.08346 2.08083 0
M  V30 3545 C 349.279 -1.41439 1.01346 0
M  V30 3546 O 350.455 -1.51316 1.32912 0
M  V30 3547 C 347.52 -2.37352 2.52715 0
M  V30 3548 C 346.581 -2.11093 3.73816 0
M  V30 3549 C 345.814 -3.33949 4.1631 0
M  V30 3550 O 346.037 -4.43622 3.58547 0
M  V30 3551 O 344.971 -3.21279 5.08983 0
M  V30 3552 H 348.797 -0.683667 2.95905 0
M  V30 3553 H 346.382 -0.271965 1.46904 0
M  V30 3554 H 348.264 -3.13246 2.81877 0
M  V30 3555 H 346.939 -2.76681 1.68016 0
M  V30 3556 H 345.846 -1.32856 3.49714 0
M  V30 3557 H 347.179 -1.76637 4.59413 0
M  V30 3558 N 348.832 -1.54138 -0.328536 0
M  V30 3559 C 349.762 -1.86167 -1.40939 0
M  V30 3560 C 350.743 -0.718044 -1.54202 0
M  V30 3561 O 351.928 -0.971328 -1.68163 0
M  V30 3562 C 349.058 -2.08461 -2.77779 0
M  V30 3563 C 348.012 -3.24299 -2.7931 0
M  V30 3564 C 347.338 -3.31955 -4.19178 0
M  V30 3565 C 348.638 -4.62065 -2.43502 0
M  V30 3566 H 350.332 -2.76689 -1.14383 0
M  V30 3567 H 347.878 -1.33132 -0.548806 0
M  V30 3568 H 349.831 -2.29453 -3.53454 0
M  V30 3569 H 348.555 -1.14684 -3.05802 0
M  V30 3570 H 347.214 -3.03187 -2.0609 0
M  V30 3571 H 346.862 -2.35745 -4.44335 0
M  V30 3572 H 346.562 -4.09805 -4.2111 0
M  V30 3573 H 348.086 -3.55175 -4.96672 0
M  V30 3574 H 349.5 -4.8297 -3.08889 0
M  V30 3575 H 347.897 -5.42429 -2.56693 0
M  V30 3576 H 348.967 -4.64652 -1.38659 0
M  V30 3577 N 350.31 0.590341 -1.46126 0
M  V30 3578 C 351.587 1.35029 -1.41515 0
M  V30 3579 C 351.967 2.10888 -0.0946472 0
M  V30 3580 O 351.315 2.08998 0.923693 0
M  V30 3581 C 351.525 2.28269 -2.63997 0
M  V30 3582 C 352.873 2.90338 -3.09821 0
M  V30 3583 O 353.897 2.38585 -2.64492 0
M  V30 3584 O 352.756 3.84321 -3.88535 0
M  V30 3585 H 349.85 0.606317 -0.562413 0
M  V30 3586 H 352.396 0.611994 -1.58281 0
M  V30 3587 H 351.168 1.71591 -3.51671 0
M  V30 3588 H 350.791 3.0945 -2.49652 0
M  V30 3589 N 351.788 1.33704 0.83433 0
M  V30 3590 C 353.037 1.24763 1.58484 0
M  V30 3591 C 353.35 -0.183775 1.94735 0
M  V30 3592 O 354.556 -0.395234 2.68608 0
M  V30 3593 C 353.012 2.18638 2.85876 0
M  V30 3594 C 352.62 3.66974 2.56971 0
M  V30 3595 C 354.364 2.18581 3.63899 0
M  V30 3596 C 352.271 4.5275 3.80488 0
M  V30 3597 H 351.201 0.463425 0.594772 0
M  V30 3598 H 353.852 1.58797 0.919551 0
M  V30 3599 H 352.234 1.77542 3.5397 0
M  V30 3600 H 353.408 4.16538 1.9706 0
M  V30 3601 H 351.723 3.69366 1.92244 0
M  V30 3602 H 354.32 2.79894 4.55591 0
M  V30 3603 H 354.663 1.18207 3.99165 0
M  V30 3604 H 355.196 2.58062 3.02735 0
M  V30 3605 H 351.935 5.54017 3.5035 0
M  V30 3606 H 351.455 4.07927 4.39722 0
M  V30 3607 H 353.134 4.66784 4.4802 0
M  V30 3608 N 353.266 -1.05314 1.17247 0
M  V30 3609 C 354.198 -2.13023 0.845812 0
M  V30 3610 C 355.211 -1.62096 -0.151246 0
M  V30 3611 O 356.4 -1.78343 0.0748818 0
M  V30 3612 C 353.5 -3.38047 0.240292 0
M  V30 3613 C 352.673 -4.18255 1.27991 0
M  V30 3614 C 351.732 -5.21625 0.692375 0
M  V30 3615 O 350.758 -5.52619 1.36385 0
M  V30 3616 N 351.96 -5.78201 -0.516178 0
M  V30 3617 H 354.725 -2.41642 1.77283 0
M  V30 3618 H 352.286 -1.21401 1.07115 0
M  V30 3619 H 354.278 -4.04359 -0.16603 0
M  V30 3620 H 352.848 -3.06972 -0.590487 0
M  V30 3621 H 352.068 -3.47451 1.86203 0
M  V30 3622 H 353.356 -4.68643 1.98119 0
M  V30 3623 H 352.754 -5.55301 -1.07969 0
M  V30 3624 H 351.311 -6.4604 -0.86458 0
M  V30 3625 N 354.744 -0.972509 -1.24016 0
M  V30 3626 C 355.992 -0.635776 -1.91839 0
M  V30 3627 C 356.313 0.832312 -1.76345 0
M  V30 3628 O 355.583 1.5946 -1.13795 0
M  V30 3629 H 354.163 -0.232157 -0.710009 0
M  V30 3630 H 356.825 -1.23462 -1.50809 0
M  V30 3631 H 355.921 -0.880545 -2.99421 0
M  V30 3632 N 356.222 1.38976 -0.743202 0
M  V30 3633 C 357.185 2.28901 -0.117014 0
M  V30 3634 C 358.185 1.46698 0.658503 0
M  V30 3635 O 359.375 1.67274 0.486305 0
M  V30 3636 C 356.507 3.30309 0.84315 0
M  V30 3637 H 357.7 2.8578 -0.909373 0
M  V30 3638 H 355.253 1.47761 -0.509547 0
M  V30 3639 H 355.988 2.785 1.66157 0
M  V30 3640 H 355.773 3.91029 0.289594 0
M  V30 3641 H 357.263 3.97577 1.2776 0
M  V30 3642 N 357.7 0.491464 1.49741 0
M  V30 3643 C 358.925 -0.0557177 2.07325 0
M  V30 3644 C 359.35 -1.30925 1.35056 0
M  V30 3645 O 358.708 -1.76733 0.404365 0
M  V30 3646 C 358.756 -0.302074 3.59333 0
M  V30 3647 O 357.86 -1.37868 3.88672 0
M  V30 3648 H 357.201 0.0219956 0.663636 0
M  V30 3649 H 359.731 0.688352 1.92673 0
M  V30 3650 H 359.741 -0.536464 4.04458 0
M  V30 3651 H 358.416 0.61383 4.11345 0
M  V30 3652 H 356.993 -1.12999 3.55367 0
M  V30 3653 N 359.178 -1.55987 0.224894 0
M  V30 3654 C 360.403 -2.03232 -0.41369 0
M  V30 3655 C 360.828 -1.10359 -1.52323 0
M  V30 3656 O 360.186 -0.092395 -1.81064 0
M  V30 3657 C 360.234 -3.48682 -0.919405 0
M  V30 3658 O 359.338 -3.58947 -2.03054 0
M  V30 3659 H 358.679 -0.657428 -0.0931903 0
M  V30 3660 H 361.209 -2.01679 0.34451 0
M  V30 3661 H 361.219 -3.8907 -1.22835 0
M  V30 3662 H 359.894 -4.15761 -0.107339 0
M  V30 3663 H 358.471 -3.30448 -1.72796 0
M  V30 3664 N 360.656 0.0484629 -1.57525 0
M  V30 3665 C 361.881 0.759177 -1.93006 0
M  V30 3666 C 362.306 1.69125 -0.823317 0
M  V30 3667 O 361.664 1.79931 0.222364 0
M  V30 3668 C 361.712 1.50899 -3.27509 0
M  V30 3669 O 360.816 2.62112 -3.18388 0
M  V30 3670 H 360.157 0.205564 -0.631379 0
M  V30 3671 H 362.687 0.00972959 -2.04598 0
M  V30 3672 H 362.697 1.88317 -3.6194 0
M  V30 3673 H 361.372 0.825269 -4.0763 0
M  V30 3674 H 359.949 2.27379 -2.95556 0
M  V30 3675 N 362.134 1.5431 0.320358 0
M  V30 3676 C 363.362 1.76636 1.07738 0
M  V30 3677 C 363.777 0.51649 1.81598 0
M  V30 3678 O 363.134 -0.512942 1.75143 0
M  V30 3679 C 363.185 2.96158 2.07299 0
M  V30 3680 O 362.906 4.16313 1.36438 0
M  V30 3681 C 364.407 3.3072 2.95193 0
M  V30 3682 H 361.627 0.589597 0.320339 0
M  V30 3683 H 364.171 2.01207 0.36551 0
M  V30 3684 H 362.326 2.73851 2.74016 0
M  V30 3685 H 362.74 4.83565 2.03138 0
M  V30 3686 H 364.214 4.17643 3.60941 0
M  V30 3687 H 364.691 2.48026 3.62463 0
M  V30 3688 H 365.297 3.55117 2.34034 0
M  V30 3689 N 363.613 -0.582584 1.46437 0
M  V30 3690 C 364.843 -1.36484 1.55099 0
M  V30 3691 C 365.251 -1.88233 0.191056 0
M  V30 3692 O 364.594 -1.6429 -0.821858 0
M  V30 3693 C 364.656 -2.588 2.49525 0
M  V30 3694 C 364.32 -2.28517 3.95764 0
M  V30 3695 C 365.317 -1.87346 4.84972 0
M  V30 3696 C 363.002 -2.40658 4.40896 0
M  V30 3697 C 364.996 -1.5871 6.17325 0
M  V30 3698 C 362.683 -2.11635 5.73284 0
M  V30 3699 C 363.681 -1.70725 6.61318 0
M  V30 3700 O 363.369 -1.42057 7.91249 0
M  V30 3701 H 363.101 -0.423297 0.527063 0
M  V30 3702 H 365.655 -0.715188 1.92547 0
M  V30 3703 H 363.885 -3.26571 2.07095 0
M  V30 3704 H 365.574 -3.20868 2.48593 0
M  V30 3705 H 366.34 -1.77481 4.5136 0
M  V30 3706 H 362.219 -2.71463 3.72598 0
M  V30 3707 H 365.763 -1.26704 6.85997 0
M  V30 3708 H 361.66 -2.21124 6.06444 0
M  V30 3709 H 362.428 -1.55901 8.03515 0
M  V30 3710 N 365.091 -1.34144 -0.827227 0
M  V30 3711 C 366.054 -1.25264 -1.91942 0
M  V30 3712 C 367.054 -0.168866 -1.59911 0
M  V30 3713 O 368.244 -0.421198 -1.69031 0
M  V30 3714 C 365.376 -0.932952 -3.27885 0
M  V30 3715 H 366.569 -2.22357 -2.0124 0
M  V30 3716 H 364.122 -1.1837 -1.0207 0
M  V30 3717 H 364.857 0.0349917 -3.24281 0
M  V30 3718 H 364.642 -1.71682 -3.52516 0
M  V30 3719 H 366.132 -0.895874 -4.07877 0
M  V30 3720 N 366.569 1.04691 -1.17803 0
M  V30 3721 C 367.532 2.10724 -0.901545 0
M  V30 3722 C 368.532 1.6042 0.110437 0
M  V30 3723 O 369.722 1.7377 -0.122303 0
M  V30 3724 C 366.854 3.39084 -0.351409 0
M  V30 3725 H 368.047 2.36686 -1.84174 0
M  V30 3726 H 365.6 1.21015 -0.98919 0
M  V30 3727 H 366.335 3.18782 0.59569 0
M  V30 3728 H 366.12 3.76909 -1.08083 0
M  V30 3729 H 367.61 4.17227 -0.176451 0
M  V30 3730 N 368.047 0.979072 1.23499 0
M  V30 3731 C 369.293 0.648178 1.92163 0
M  V30 3732 C 369.626 -0.816049 1.76222 0
M  V30 3733 O 368.901 -1.58849 1.12237 0
M  V30 3734 C 369.184 1.03773 3.44824 0
M  V30 3735 C 369.037 2.55948 3.69879 0
M  V30 3736 C 370.356 0.580653 4.36253 0
M  V30 3737 H 367.475 0.236952 0.69787 0
M  V30 3738 H 370.117 1.22012 1.45647 0
M  V30 3739 H 368.267 0.551058 3.84572 0
M  V30 3740 H 369.939 3.12179 3.3962 0
M  V30 3741 H 368.182 2.98641 3.14636 0
M  V30 3742 H 368.853 2.78255 4.76737 0
M  V30 3743 H 371.329 0.998465 4.03943 0
M  V30 3744 H 370.205 0.881663 5.41773 0
M  V30 3745 H 370.466 -0.519052 4.39042 0
M  V30 3746 N 369.525 -1.3858 0.750561 0
M  V30 3747 C 370.753 -2.04471 0.316098 0
M  V30 3748 C 371.168 -1.56606 -1.05452 0
M  V30 3749 O 370.525 -0.737784 -1.66922 0
M  V30 3750 C 370.576 -3.60025 0.326275 0
M  V30 3751 O 370.297 -4.06133 1.6428 0
M  V30 3752 C 371.798 -4.43131 -0.122429 0
M  V30 3753 H 369.018 -0.65717 0.135528 0
M  V30 3754 H 371.562 -1.77329 1.01857 0
M  V30 3755 H 369.717 -3.86014 -0.327431 0
M  V30 3756 H 370.131 -5.00547 1.56693 0
M  V30 3757 H 371.605 -5.51963 -0.0641473 0
M  V30 3758 H 372.082 -4.23333 -1.16988 0
M  V30 3759 H 372.688 -4.22323 0.50229 0
M  V30 3760 N 371.003 -0.499398 -1.49478 0
M  V30 3761 C 371.951 0.293604 -2.3074 0
M  V30 3762 C 372.945 0.96427 -1.39277 0
M  V30 3763 O 374.151 0.892141 -1.56336 0
M  V30 3764 H 370.526 0.113541 -0.743379 0
M  V30 3765 H 372.497 -0.411772 -2.95545 0
M  V30 3766 C 371.246 1.3462 -3.20582 0
M  V30 3767 H 370.569 0.83954 -3.90886 0
M  V30 3768 H 372.009 1.87308 -3.80384 0
M  V30 3769 C 370.468 2.36351 -2.40083 0
M  V30 3770 O 370.998 3.422 -2.10385 0
M  V30 3771 N 369.204 2.0878 -2.02137 0
M  V30 3772 H 368.751 1.22723 -2.26488 0
M  V30 3773 H 368.709 2.77075 -1.48583 0
M  V30 3774 N 372.481 1.55866 -0.233164 0
M  V30 3775 C 373.758 1.90471 0.444988 0
M  V30 3776 C 374.138 1.15209 1.7689 0
M  V30 3777 O 373.486 0.265119 2.26957 0
M  V30 3778 C 373.696 3.4333 0.626559 0
M  V30 3779 C 375.044 4.14319 0.92871 0
M  V30 3780 O 376.068 3.48993 0.712926 0
M  V30 3781 O 374.927 5.29846 1.33887 0
M  V30 3782 H 372.021 0.792347 0.236885 0
M  V30 3783 H 374.567 1.67437 -0.276211 0
M  V30 3784 H 373.339 3.90095 -0.306822 0
M  V30 3785 H 372.962 3.72181 1.39881 0
M  V30 3786 N 373.959 -0.0401083 1.57549 0
M  V30 3787 C 375.199 -0.738098 1.90608 0
M  V30 3788 C 375.563 -1.73107 0.830539 0
M  V30 3789 O 376.764 -2.4765 1.04513 0
M  V30 3790 C 375.035 -1.39985 3.28845 0
M  V30 3791 S 376.594 -2.12852 3.83718 0
M  V30 3792 H 373.412 -0.24477 0.667539 0
M  V30 3793 H 376.014 0.00693599 1.95499 0
M  V30 3794 H 374.718 -0.663775 4.04997 0
M  V30 3795 H 374.249 -2.18366 3.2723 0
M  V30 3796 H 376.264 -3.39842 3.61555 0
M  V30 3797 N 375.437 -1.54477 -0.31217 0
M  V30 3798 C 376.367 -1.87652 -1.38957 0
M  V30 3799 C 377.348 -0.734358 -1.53431 0
M  V30 3800 O 378.533 -0.98911 -1.67123 0
M  V30 3801 C 375.663 -2.11396 -2.75552 0
M  V30 3802 C 374.617 -3.27243 -2.75855 0
M  V30 3803 C 373.943 -3.36382 -4.15633 0
M  V30 3804 C 375.243 -4.64622 -2.38587 0
M  V30 3805 H 376.937 -2.77887 -1.11442 0
M  V30 3806 H 374.483 -1.33707 -0.534655 0
M  V30 3807 H 376.436 -2.33189 -3.51 0
M  V30 3808 H 375.16 -1.17921 -3.04569 0
M  V30 3809 H 373.819 -3.05356 -2.02863 0
M  V30 3810 H 373.467 -2.40445 -4.41809 0
M  V30 3811 H 373.167 -4.14249 -4.1674 0
M  V30 3812 H 374.691 -3.60422 -4.92877 0
M  V30 3813 H 376.105 -4.86219 -3.03749 0
M  V30 3814 H 374.502 -5.45121 -2.50925 0
M  V30 3815 H 375.572 -4.66097 -1.33723 0
M  V30 3816 N 376.915 0.57481 -1.46744 0
M  V30 3817 C 377.878 1.66533 -1.57478 0
M  V30 3818 C 378.878 1.54338 -0.451263 0
M  V30 3819 O 380.068 1.58814 -0.715813 0
M  V30 3820 C 377.2 3.05999 -1.50259 0
M  V30 3821 H 378.393 1.58372 -2.54673 0
M  V30 3822 H 375.946 0.793301 -1.34672 0
M  V30 3823 H 376.681 3.19709 -0.543725 0
M  V30 3824 H 376.466 3.16259 -2.31781 0
M  V30 3825 H 377.956 3.8537 -1.60872 0
M  V30 3826 N 378.394 1.34581 0.820102 0
M  V30 3827 C 379.64 1.27285 1.57881 0
M  V30 3828 C 379.973 -0.156137 1.93571 0
M  V30 3829 O 379.248 -1.10222 1.60254 0
M  V30 3830 C 379.531 2.16639 2.87645 0
M  V30 3831 C 379.384 3.68088 2.58517 0
M  V30 3832 C 380.703 2.05378 3.8924 0
M  V30 3833 H 377.822 0.463714 0.572833 0
M  V30 3834 H 380.464 1.64859 0.944539 0
M  V30 3835 H 378.614 1.84725 3.41773 0
M  V30 3836 H 380.286 4.10382 2.10676 0
M  V30 3837 H 378.529 3.89038 1.91917 0
M  V30 3838 H 379.2 4.2598 3.51063 0
M  V30 3839 H 381.676 2.33404 3.44473 0
M  V30 3840 H 380.552 2.7012 4.77835 0
M  V30 3841 H 380.813 1.0316 4.29896 0
M  V30 3842 N 379.872 -1.04064 1.18357 0
M  V30 3843 C 381.097 -1.81454 1.00445 0
M  V30 3844 C 381.522 -1.82823 -0.442423 0
M  V30 3845 O 380.88 -1.24555 -1.31741 0
M  V30 3846 C 380.928 -3.24925 1.56384 0
M  V30 3847 O 380.032 -4.04856 0.785209 0
M  V30 3848 H 379.373 -0.560604 0.355835 0
M  V30 3849 H 381.903 -1.31059 1.57114 0
M  V30 3850 H 381.913 -3.75702 1.59097 0
M  V30 3851 H 380.588 -3.23244 2.61699 0
M  V30 3852 H 379.165 -3.63537 0.830399 0
M  V30 3853 N 381.35 -0.985608 -1.22978 0
M  V30 3854 C 382.766 -0.695104 -1.43668 0
M  V30 3855 C 382.966 0.736866 -1.87543 0
M  V30 3856 O 382.022 1.50868 -2.02473 0
M  V30 3857 C 383.335 -1.69447 -2.48412 0
M  V30 3858 C 384.883 -1.70909 -2.62219 0
M  V30 3859 C 385.358 -2.6969 -3.70178 0
M  V30 3860 N 386.849 -2.6824 -3.77626 0
M  V30 3861 C 387.584 -3.41339 -4.60733 0
M  V30 3862 N 387.08 -4.24015 -5.4789 0
M  V30 3863 N 388.873 -3.30079 -4.54977 0
M  V30 3864 H 381.024 -1.91054 -0.928016 0
M  V30 3865 H 383.287 -0.823553 -0.469536 0
M  V30 3866 H 382.993 -2.7188 -2.23102 0
M  V30 3867 H 382.867 -1.48147 -3.46889 0
M  V30 3868 H 385.254 -0.691785 -2.86877 0
M  V30 3869 H 385.335 -1.96276 -1.6404 0
M  V30 3870 H 384.979 -3.71566 -3.46268 0
M  V30 3871 H 384.909 -2.41595 -4.67909 0
M  V30 3872 H 387.4 -2.08243 -3.15346 0
M  V30 3873 H 387.713 -4.76636 -6.08308 0
M  V30 3874 H 386.058 -4.28104 -5.47496 0
M  V30 3875 H 389.249 -2.64937 -3.85909 0
M  V30 3876 H 389.422 -3.87308 -5.19516 0
M  V30 3877 N 382.828 1.3818 -0.7579 0
M  V30 3878 C 384.068 2.01864 -0.320968 0
M  V30 3879 C 384.432 1.58863 1.07827 0
M  V30 3880 O 385.633 2.14908 1.61456 0
M  V30 3881 C 383.904 3.54626 -0.44446 0
M  V30 3882 S 385.463 4.38706 -0.0907467 0
M  V30 3883 H 382.281 0.700056 -0.124268 0
M  V30 3884 H 384.883 1.68611 -0.989468 0
M  V30 3885 H 383.587 3.83411 -1.4637 0
M  V30 3886 H 383.118 3.92661 0.241073 0
M  V30 3887 H 385.133 4.83435 1.11826 0
M  V30 3888 N 384.306 0.507319 1.49211 0
M  V30 3889 C 385.236 -0.256939 2.32082 0
M  V30 3890 C 386.217 -0.956609 1.40652 0
M  V30 3891 O 387.402 -0.946788 1.69557 0
M  V30 3892 C 384.532 -1.31802 3.21318 0
M  V30 3893 C 383.486 -0.737855 4.21592 0
M  V30 3894 C 382.812 -1.89992 4.99807 0
M  V30 3895 C 384.112 0.275325 5.21574 0
M  V30 3896 H 385.806 0.434798 2.96226 0
M  V30 3897 H 383.352 0.210546 1.42452 0
M  V30 3898 H 385.305 -1.86045 3.78107 0
M  V30 3899 H 384.029 -2.03903 2.5513 0
M  V30 3900 H 382.688 -0.217126 3.65956 0
M  V30 3901 H 382.336 -2.60877 4.30061 0
M  V30 3902 H 382.036 -1.51777 5.6766 0
M  V30 3903 H 383.56 -2.44657 5.59442 0
M  V30 3904 H 384.974 -0.179193 5.7302 0
M  V30 3905 H 383.371 0.573649 5.97352 0
M  V30 3906 H 384.441 1.18903 4.70096 0
M  V30 3907 N 385.784 -1.5574 0.241426 0
M  V30 3908 C 387.032 -1.98417 -0.384075 0
M  V30 3909 C 387.353 -1.13078 -1.58866 0
M  V30 3910 O 386.623 -0.212312 -1.94746 0
M  V30 3911 H 385.203 -0.732813 -0.144894 0
M  V30 3912 H 387.865 -1.9193 0.338943 0
M  V30 3913 H 386.961 -3.04219 -0.696939 0
M  V30 3914 N 387.262 0.0317525 -1.57568 0
M  V30 3915 C 388.511 0.722131 -1.8833 0
M  V30 3916 C 388.824 1.76664 -0.839587 0
M  V30 3917 O 390.03 2.50942 -1.03635 0
M  V30 3918 C 388.486 1.33544 -3.34207 0
M  V30 3919 C 388.094 0.327415 -4.46802 0
M  V30 3920 C 389.838 2.00585 -3.7412 0
M  V30 3921 C 387.745 0.948915 -5.83738 0
M  V30 3922 H 386.675 0.273466 -0.702661 0
M  V30 3923 H 389.326 -0.0235811 -1.83485 0
M  V30 3924 H 387.708 2.13077 -3.33788 0
M  V30 3925 H 388.882 -0.441006 -4.58685 0
M  V30 3926 H 387.197 -0.240758 -4.15703 0
M  V30 3927 H 389.794 2.47932 -4.73744 0
M  V30 3928 H 390.137 2.82285 -3.05975 0
M  V30 3929 H 390.67 1.27831 -3.76702 0
M  V30 3930 H 387.409 0.171387 -6.55276 0
M  V30 3931 H 386.929 1.68724 -5.7558 0
M  V30 3932 H 388.608 1.45705 -6.3038 0
M  V30 3933 N 388.74 1.54641 0.303973 0
M  V30 3934 C 389.968 1.77768 1.05858 0
M  V30 3935 C 390.383 0.535722 1.8104 0
M  V30 3936 O 389.74 -0.494337 1.75677 0
M  V30 3937 C 389.791 2.9834 2.04146 0
M  V30 3938 O 389.512 4.17736 1.32015 0
M  V30 3939 C 391.013 3.33832 2.91669 0
M  V30 3940 H 388.233 0.592961 0.314067 0
M  V30 3941 H 390.777 2.01583 0.344149 0
M  V30 3942 H 388.932 2.76742 2.71096 0
M  V30 3943 H 389.346 4.85693 1.97998 0
M  V30 3944 H 390.82 4.21448 3.56491 0
M  V30 3945 H 391.297 2.51857 3.59812 0
M  V30 3946 H 391.903 3.57579 2.30254 0
M  V30 3947 N 390.218 -0.567019 1.47046 0
M  V30 3948 C 391.464 -1.32658 1.53394 0
M  V30 3949 C 391.797 -1.93254 0.19148 0
M  V30 3950 O 391.072 -1.77338 -0.798844 0
M  V30 3951 C 391.355 -2.44412 2.64452 0
M  V30 3952 C 391.208 -1.88749 4.08282 0
M  V30 3953 C 392.527 -3.46387 2.71485 0
M  V30 3954 H 389.646 -0.48098 0.558415 0
M  V30 3955 H 392.288 -0.635481 1.79058 0
M  V30 3956 H 390.438 -3.03363 2.427 0
M  V30 3957 H 392.11 -1.34134 4.41368 0
M  V30 3958 H 390.353 -1.19481 4.17021 0
M  V30 3959 H 391.024 -2.69491 4.81745 0
M  V30 3960 H 393.5 -2.9734 2.91081 0
M  V30 3961 H 392.376 -4.2202 3.50985 0
M  V30 3962 H 392.637 -4.04616 1.78153 0
M  V30 3963 N 391.696 -1.35014 -0.812953 0
M  V30 3964 C 392.942 -1.29129 -1.57154 0
M  V30 3965 C 393.297 0.134922 -1.91926 0
M  V30 3966 O 392.59 1.08373 -1.58006 0
M  V30 3967 C 392.784 -2.12524 -2.87347 0
M  V30 3968 C 392.613 -3.6311 -2.65294 0
M  V30 3969 C 391.383 -4.32363 -2.61516 0
M  V30 3970 C 393.581 -4.56897 -2.36114 0
M  V30 3971 N 391.563 -5.68735 -2.31113 0
M  V30 3972 C 392.934 -5.81345 -2.15494 0
M  V30 3973 C 394.989 -4.45706 -2.21925 0
M  V30 3974 C 393.692 -6.95862 -1.82122 0
M  V30 3975 C 395.718 -5.60066 -1.89948 0
M  V30 3976 C 395.08 -6.83539 -1.7016 0
M  V30 3977 H 391.179 -0.527764 -0.577052 0
M  V30 3978 H 393.763 -1.6983 -0.952146 0
M  V30 3979 H 391.934 -1.74104 -3.47192 0
M  V30 3980 H 393.666 -1.98207 -3.5284 0
M  V30 3981 H 390.421 -3.84907 -2.75941 0
M  V30 3982 H 390.845 -6.40694 -2.18724 0
M  V30 3983 H 395.487 -3.50855 -2.35925 0
M  V30 3984 H 393.205 -7.90685 -1.6686 0
M  V30 3985 H 396.791 -5.53357 -1.79687 0
M  V30 3986 H 395.671 -7.70531 -1.45777 0
M  V30 3987 N 393.175 1.03435 -1.18907 0
M  V30 3988 C 394.423 1.76394 -0.986382 0
M  V30 3989 C 394.744 1.88883 0.484567 0
M  V30 3990 O 394.014 1.41843 1.3512 0
M  V30 3991 H 392.594 0.65344 -0.361975 0
M  V30 3992 H 395.256 1.248 -1.49703 0
M  V30 3993 H 394.352 2.77424 -1.42978 0
M  V30 3994 N 394.653 0.992116 1.22453 0
M  V30 3995 C 395.899 0.668523 1.91464 0
M  V30 3996 C 396.232 -0.797313 1.77078 0
M  V30 3997 O 395.507 -1.5765 1.13916 0
M  V30 3998 C 395.79 1.07424 3.43703 0
M  V30 3999 C 395.643 2.59857 3.67143 0
M  V30 4000 C 396.962 0.626891 4.35612 0
M  V30 4001 H 394.081 0.244341 0.695318 0
M  V30 4002 H 396.723 1.2355 1.44345 0
M  V30 4003 H 394.873 0.591816 3.83966 0
M  V30 4004 H 396.545 3.15764 3.3629 0
M  V30 4005 H 394.788 3.01961 3.11451 0
M  V30 4006 H 395.459 2.83296 4.73759 0
M  V30 4007 H 397.935 1.04125 4.02861 0
M  V30 4008 H 396.811 0.939076 5.40807 0
M  V30 4009 H 397.072 -0.472457 4.39568 0
M  V30 4010 N 396.131 -1.37776 0.765217 0
M  V30 4011 C 397.547 -1.53297 0.444108 0
M  V30 4012 C 397.747 -1.72515 -1.04119 0
M  V30 4013 O 396.803 -1.74278 -1.82711 0
M  V30 4014 C 398.116 -2.73328 1.25349 0
M  V30 4015 C 399.664 -2.87185 1.24473 0
M  V30 4016 C 400.139 -4.10191 2.03733 0
M  V30 4017 N 401.63 -4.17291 2.01053 0
M  V30 4018 C 402.365 -5.11488 2.59166 0
M  V30 4019 N 401.861 -6.11285 3.26041 0
M  V30 4020 N 403.654 -5.03924 2.49032 0
M  V30 4021 H 395.805 -1.23552 1.72768 0
M  V30 4022 H 398.068 -0.601103 0.733062 0
M  V30 4023 H 397.774 -2.6557 2.30577 0
M  V30 4024 H 397.648 -3.66834 0.87823 0
M  V30 4025 H 400.035 -2.94418 0.20047 0
M  V30 4026 H 400.116 -1.94657 1.65959 0
M  V30 4027 H 399.76 -4.0372 3.08176 0
M  V30 4028 H 399.69 -5.01821 1.59633 0
M  V30 4029 H 402.181 -3.45825 1.5236 0
M  V30 4030 H 402.494 -6.79678 3.67774 0
M  V30 4031 H 400.839 -6.11583 3.30138 0
M  V30 4032 H 404.03 -4.24902 1.96407 0
M  V30 4033 H 404.203 -5.77152 2.94617 0
M  V30 4034 N 397.609 -0.515225 -1.4894 0
M  V30 4035 C 398.886 0.0879088 -1.95402 0
M  V30 4036 C 399.266 1.52745 -1.45712 0
M  V30 4037 O 398.614 2.18238 -0.677093 0
M  V30 4038 C 398.824 -0.0141055 -3.48997 0
M  V30 4039 C 400.172 0.152646 -4.24326 0
M  V30 4040 O 401.196 0.0604025 -3.56149 0
M  V30 4041 O 400.055 0.34384 -5.45417 0
M  V30 4042 H 397.149 0.0874636 -0.822362 0
M  V30 4043 H 399.695 -0.578775 -1.59525 0
M  V30 4044 H 398.467 -1.01745 -3.77841 0
M  V30 4045 H 398.09 0.692091 -3.9153 0
M  V30 4046 N 399.087 1.5561 -0.249682 0
M  V30 4047 C 400.315 2.03411 0.378352 0
M  V30 4048 C 400.73 1.12886 1.51335 0
M  V30 4049 O 400.087 0.143833 1.81932 0
M  V30 4050 C 400.138 3.50537 0.88351 0
M  V30 4051 O 399.859 4.37614 -0.20626 0
M  V30 4052 C 401.36 4.14113 1.58195 0
M  V30 4053 H 398.58 0.664994 0.08958 0
M  V30 4054 H 401.124 2.01044 -0.374357 0
M  V30 4055 H 399.279 3.5343 1.58639 0
M  V30 4056 H 399.693 5.24199 0.177782 0
M  V30 4057 H 401.167 5.18741 1.8871 0
M  V30 4058 H 401.644 3.60767 2.50487 0
M  V30 4059 H 402.25 4.15151 0.923573 0
M  V30 4060 N 400.565 -0.0233959 1.57583 0
M  V30 4061 C 401.842 -0.748794 1.807 0
M  V30 4062 C 402.222 -1.9327 0.849106 0
M  V30 4063 O 401.57 -2.28247 -0.107468 0
M  V30 4064 C 401.78 -1.17651 3.28571 0
M  V30 4065 C 403.128 -1.59008 3.93702 0
M  V30 4066 O 404.152 -1.27094 3.32755 0
M  V30 4067 O 403.011 -2.18264 5.01022 0
M  V30 4068 H 400.105 -0.362578 0.743281 0
M  V30 4069 H 402.651 0.000261958 1.697 0
M  V30 4070 H 401.423 -0.331603 3.89892 0
M  V30 4071 H 401.046 -1.98541 3.44481 0
M  V30 4072 N 402.043 -1.548 -0.295768 0
M  V30 4073 C 403.268 -1.78653 -1.05346 0
M  V30 4074 C 403.693 -0.546894 -1.79974 0
M  V30 4075 O 403.051 0.502763 -1.7419 0
M  V30 4076 C 403.099 -2.99679 -2.00561 0
M  V30 4077 O 402.203 -2.7317 -3.08953 0
M  V30 4078 H 401.544 -0.59116 -0.302367 0
M  V30 4079 H 404.074 -2.01895 -0.331598 0
M  V30 4080 H 404.084 -3.27793 -2.42932 0
M  V30 4081 H 402.759 -3.89562 -1.4565 0
M  V30 4082 H 401.336 -2.56089 -2.71059 0
M  V30 4083 N 403.521 0.559213 -1.47345 0
M  V30 4084 C 404.767 1.31614 -1.55079 0
M  V30 4085 C 405.122 1.91257 -0.209422 0
M  V30 4086 O 404.415 1.74796 0.784656 0
M  V30 4087 C 404.609 2.44853 -2.6035 0
M  V30 4088 C 404.438 1.96305 -4.04591 0
M  V30 4089 C 403.208 1.8024 -4.72061 0
M  V30 4090 C 405.406 1.50872 -4.91673 0
M  V30 4091 N 403.388 1.26011 -6.00828 0
M  V30 4092 C 404.759 1.08395 -6.10451 0
M  V30 4093 C 406.814 1.38905 -4.78132 0
M  V30 4094 C 405.517 0.551399 -7.17183 0
M  V30 4095 C 407.543 0.870518 -5.84958 0
M  V30 4096 C 406.905 0.455661 -7.02925 0
M  V30 4097 H 403.004 0.473712 -0.62219 0
M  V30 4098 H 405.588 0.634103 -1.84085 0
M  V30 4099 H 403.759 3.10589 -2.33215 0
M  V30 4100 H 405.491 3.11849 -2.57938 0
M  V30 4101 H 402.246 2.02895 -4.27937 0
M  V30 4102 H 402.67 1.00991 -6.69425 0
M  V30 4103 H 407.312 1.69591 -3.87297 0
M  V30 4104 H 405.03 0.232159 -8.07766 0
M  V30 4105 H 408.616 0.781507 -5.76527 0
M  V30 4106 H 407.496 0.0606414 -7.84177 0
M  V30 4107 N 404.999 1.35443 0.805782 0
M  V30 4108 C 406.415 1.15499 1.10146 0
M  V30 4109 C 406.615 -0.0319975 2.01475 0
M  V30 4110 O 405.671 -0.70236 2.42535 0
M  V30 4111 C 406.984 2.45833 1.73166 0
M  V30 4112 C 408.532 2.52047 1.85583 0
M  V30 4113 C 409.007 3.82427 2.52019 0
M  V30 4114 N 410.498 3.83682 2.59504 0
M  V30 4115 C 411.233 4.81294 3.11679 0
M  V30 4116 N 410.729 5.89294 3.64287 0
M  V30 4117 N 412.522 4.6873 3.1024 0
M  V30 4118 H 404.673 2.11469 0.198678 0
M  V30 4119 H 406.936 0.93594 0.150731 0
M  V30 4120 H 406.642 3.32874 1.13526 0
M  V30 4121 H 406.516 2.6044 2.72857 0
M  V30 4122 H 408.903 1.65435 2.44367 0
M  V30 4123 H 408.984 2.41354 0.847455 0
M  V30 4124 H 408.628 4.69437 1.93885 0
M  V30 4125 H 408.558 3.90409 3.53395 0
M  V30 4126 H 411.049 3.05648 2.22234 0
M  V30 4127 H 411.362 6.59768 4.02401 0
M  V30 4128 H 409.707 5.92985 3.62483 0
M  V30 4129 H 412.898 3.83496 2.68419 0
M  V30 4130 H 413.071 5.44965 3.50596 0
M  V30 4131 N 406.477 -1.02803 1.19454 0
M  V30 4132 C 407.702 -1.80378 1.02364 0
M  V30 4133 C 408.127 -1.83282 -0.423007 0
M  V30 4134 O 407.485 -1.25945 -1.30413 0
M  V30 4135 C 407.533 -3.23248 1.59821 0
M  V30 4136 O 406.637 -4.04 0.828105 0
M  V30 4137 H 405.978 -0.556799 0.361761 0
M  V30 4138 H 408.508 -1.29385 1.58495 0
M  V30 4139 H 408.518 -3.73994 1.63073 0
M  V30 4140 H 407.193 -3.2045 2.65113 0
M  V30 4141 H 405.77 -3.62635 0.86891 0
M  V30 4142 N 407.956 -0.998596 -1.21925 0
M  V30 4143 C 409.204 -0.676325 -1.90448 0
M  V30 4144 C 409.525 0.794719 -1.78071 0
M  V30 4145 O 408.795 1.5701 -1.17152 0
M  V30 4146 H 407.375 -0.247165 -0.704925 0
M  V30 4147 H 410.037 -1.26633 -1.48156 0
M  V30 4148 H 409.133 -0.943858 -2.97486 0
M  V30 4149 N 409.434 1.37368 -0.772513 0
M  V30 4150 C 410.711 1.93839 -0.26188 0
M  V30 4151 C 411.091 1.7061 1.24319 0
M  V30 4152 O 410.439 1.05534 2.02669 0
M  V30 4153 C 410.649 3.43154 -0.636102 0
M  V30 4154 C 411.997 4.20249 -0.606324 0
M  V30 4155 O 413.021 3.5152 -0.575538 0
M  V30 4156 O 411.88 5.42809 -0.634086 0
M  V30 4157 H 408.974 0.82478 -0.0605555 0
M  V30 4158 H 411.52 1.4665 -0.853917 0
M  V30 4159 H 410.292 3.53647 -1.6748 0
M  V30 4160 H 409.915 3.97596 -0.0170516 0
M  V30 4161 N 410.912 0.523116 1.48665 0
M  V30 4162 C 412.14 -0.0096312 2.06898 0
M  V30 4163 C 412.555 -1.28784 1.38059 0
M  V30 4164 O 411.912 -1.76453 0.465893 0
M  V30 4165 C 411.963 -0.244386 3.60673 0
M  V30 4166 O 411.684 0.983172 4.26925 0
M  V30 4167 C 413.185 -0.818289 4.35682 0
M  V30 4168 H 410.405 0.0304161 0.67031 0
M  V30 4169 H 412.949 0.726799 1.91149 0
M  V30 4170 H 411.104 -0.930847 3.76051 0
M  V30 4171 H 411.518 0.759653 5.1897 0
M  V30 4172 H 412.992 -0.93201 5.44075 0
M  V30 4173 H 413.469 -1.82153 3.99646 0
M  V30 4174 H 414.075 -0.168609 4.24966 0
M  V30 4175 N 412.39 -1.55475 0.257931 0
M  V30 4176 C 413.801 -1.8511 -0.243135 0
M  V30 4177 C 414.152 -1.17986 -1.5676 0
M  V30 4178 O 413.277 -0.462102 -2.11409 0
M  V30 4179 C 413.872 -3.35826 -0.447929 0
M  V30 4180 C 412.431 -3.65647 -0.893245 0
M  V30 4181 C 411.578 -2.7729 0.0232965 0
M  V30 4182 H 414.529 -1.51261 0.480199 0
M  V30 4183 H 414.55 -3.58002 -1.28898 0
M  V30 4184 H 414.062 -3.84652 0.516196 0
M  V30 4185 H 412.163 -3.22308 -1.86945 0
M  V30 4186 H 412.276 -4.73312 -0.742469 0
M  V30 4187 H 410.64 -2.49942 -0.490021 0
M  V30 4188 H 411.423 -3.28926 0.982994 0
M  V30 4189 N 413.868 0.0150385 -1.57593 0
M  V30 4190 C 414.798 1.01047 -2.10503 0
M  V30 4191 C 415.779 1.36816 -1.01071 0
M  V30 4192 O 416.964 1.45455 -1.28672 0
M  V30 4193 C 414.094 2.30708 -2.59598 0
M  V30 4194 C 413.048 2.09142 -3.73421 0
M  V30 4195 C 412.374 3.44685 -4.08774 0
M  V30 4196 C 413.674 1.46619 -5.01298 0
M  V30 4197 H 415.368 0.569978 -2.93925 0
M  V30 4198 H 412.914 0.272724 -1.41394 0
M  V30 4199 H 414.867 3.00687 -2.95238 0
M  V30 4200 H 413.591 2.76843 -1.73279 0
M  V30 4201 H 412.25 1.41592 -3.38153 0
M  V30 4202 H 411.898 3.88495 -3.195 0
M  V30 4203 H 411.598 3.31077 -4.8545 0
M  V30 4204 H 413.122 4.16004 -4.4696 0
M  V30 4205 H 414.536 2.06535 -5.34805 0
M  V30 4206 H 412.933 1.43544 -5.82679 0
M  V30 4207 H 414.003 0.433611 -4.82957 0
M  V30 4208 N 415.346 1.54954 0.287554 0
M  V30 4209 C 416.276 1.89839 1.35954 0
M  V30 4210 C 417.257 0.758675 1.52244 0
M  V30 4211 O 418.442 1.01557 1.65529 0
M  V30 4212 C 415.572 2.15753 2.72154 0
M  V30 4213 C 414.526 3.3159 2.70614 0
M  V30 4214 C 413.852 3.42952 4.10229 0
M  V30 4215 C 415.152 4.68359 2.31165 0
M  V30 4216 H 416.846 2.79625 1.07007 0
M  V30 4217 H 414.392 1.3454 0.513316 0
M  V30 4218 H 416.345 2.38743 3.47246 0
M  V30 4219 H 415.069 1.22752 3.02654 0
M  V30 4220 H 413.728 3.08545 1.97979 0
M  V30 4221 H 413.376 2.47443 4.37928 0
M  V30 4222 H 413.076 4.20826 4.10097 0
M  V30 4223 H 414.6 3.68218 4.87081 0
M  V30 4224 H 416.014 4.9099 2.95976 0
M  V30 4225 H 414.411 5.49044 2.42221 0
M  V30 4226 H 415.481 4.68165 1.26291 0
M  V30 4227 N 416.824 -0.551391 1.4764 0
M  V30 4228 C 418.071 -1.3083 1.54563 0
M  V30 4229 C 418.399 -1.93359 0.210361 0
M  V30 4230 O 417.654 -1.78721 -0.797332 0
M  V30 4231 C 417.953 -2.43469 2.61644 0
M  V30 4232 C 417.619 -1.98732 4.04742 0
M  V30 4233 C 416.281 -1.86248 4.43695 0
M  V30 4234 C 418.633 -1.64659 4.94507 0
M  V30 4235 C 415.961 -1.37995 5.70241 0
M  V30 4236 C 418.313 -1.17875 6.21521 0
M  V30 4237 C 416.977 -1.03992 6.5935 0
M  V30 4238 H 416.247 -0.478741 0.565587 0
M  V30 4239 H 418.894 -0.617697 1.81264 0
M  V30 4240 H 417.199 -3.18109 2.28722 0
M  V30 4241 H 418.896 -3.01642 2.64222 0
M  V30 4242 H 415.486 -2.09393 3.73968 0
M  V30 4243 H 419.67 -1.73174 4.65107 0
M  V30 4244 H 414.926 -1.25915 5.98294 0
M  V30 4245 H 419.1 -0.905739 6.90485 0
M  V30 4246 H 416.727 -0.663794 7.57296 0
M  V30 4247 N 418.302 -1.35869 -0.798587 0
M  V30 4248 C 419.25 -1.29491 -1.93222 0
M  V30 4249 C 420.244 -0.18836 -1.6835 0
M  V30 4250 O 421.45 -0.354822 -1.76468 0
M  V30 4251 H 417.825 -0.402901 -0.63496 0
M  V30 4252 H 419.796 -2.25247 -1.9572 0
M  V30 4253 C 418.545 -1.09184 -3.30112 0
M  V30 4254 H 417.868 -1.93574 -3.49813 0
M  V30 4255 H 419.308 -1.08766 -4.09812 0
M  V30 4256 C 417.767 0.203959 -3.36282 0
M  V30 4257 O 418.297 1.19699 -3.83451 0
M  V30 4258 N 416.503 0.245488 -2.89561 0
M  V30 4259 H 416.05 -0.563223 -2.51367 0
M  V30 4260 H 416.008 1.11219 -2.94071 0
M  V30 4261 N 419.78 1.02168 -1.19998 0
M  V30 4262 C 421.028 1.75338 -1.00504 0
M  V30 4263 C 421.349 1.89387 0.464506 0
M  V30 4264 O 420.619 1.43268 1.33608 0
M  V30 4265 H 419.199 0.649564 -0.368885 0
M  V30 4266 H 421.861 1.23205 -1.51018 0
M  V30 4267 H 420.957 2.75892 -1.45912 0
M  V30 4268 N 421.258 1.00505 1.21394 0
M  V30 4269 C 422.535 0.603277 1.86064 0
M  V30 4270 C 422.915 -0.919095 1.90042 0
M  V30 4271 O 422.263 -1.80607 1.39977 0
M  V30 4272 C 422.473 1.23772 3.26315 0
M  V30 4273 C 423.821 1.34586 4.02705 0
M  V30 4274 O 424.845 1.19304 3.35626 0
M  V30 4275 O 423.704 1.59169 5.22807 0
M  V30 4276 H 420.798 0.206634 0.800769 0
M  V30 4277 H 423.344 1.1017 1.29076 0
M  V30 4278 H 422.116 2.27848 3.18121 0
M  V30 4279 H 421.739 0.725648 3.90922 0
M  V30 4280 N 422.737 -1.36956 0.779787 0
M  V30 4281 C 423.985 -1.99097 0.347079 0
M  V30 4282 C 424.306 -1.62206 -1.08232 0
M  V30 4283 O 423.576 -0.891373 -1.74446 0
M  V30 4284 H 422.156 -0.736409 0.125342 0
M  V30 4285 H 424.818 -1.67308 0.999696 0
M  V30 4286 H 423.914 -3.09107 0.431162 0
M  V30 4287 N 424.215 -0.530993 -1.48385 0
M  V30 4288 C 425.44 0.000729535 -2.074 0
M  V30 4289 C 425.865 1.27298 -1.3848 0
M  V30 4290 O 425.223 1.75599 -0.451081 0
M  V30 4291 C 425.271 0.206697 -3.60007 0
M  V30 4292 O 424.375 1.27514 -3.92191 0
M  V30 4293 H 423.716 -0.039583 -0.662819 0
M  V30 4294 H 426.246 -0.739194 -1.9078 0
M  V30 4295 H 426.256 0.42904 -4.05738 0
M  V30 4296 H 424.931 -0.722675 -4.09573 0
M  V30 4297 H 423.508 1.03537 -3.58238 0
M  V30 4298 N 425.693 1.55336 -0.266172 0
M  V30 4299 C 426.64 2.22172 0.625165 0
M  V30 4300 C 427.61 1.19211 1.15663 0
M  V30 4301 O 428.795 1.47723 1.20758 0
M  V30 4302 C 425.935 2.93972 1.8076 0
M  V30 4303 C 425.048 4.11632 1.31084 0
M  V30 4304 C 424.183 4.71099 2.45436 0
M  V30 4305 C 423.222 5.8097 1.92718 0
M  V30 4306 N 422.359 6.34538 3.00509 0
M  V30 4307 H 427.199 2.9796 0.0485582 0
M  V30 4308 H 424.736 1.47095 0.0122024 0
M  V30 4309 H 426.694 3.33811 2.50251 0
M  V30 4310 H 425.324 2.20623 2.35638 0
M  V30 4311 H 424.376 3.76975 0.509326 0
M  V30 4312 H 425.688 4.90893 0.884633 0
M  V30 4313 H 424.842 5.13612 3.22936 0
M  V30 4314 H 423.581 3.91096 2.91368 0
M  V30 4315 H 422.586 5.37916 1.13695 0
M  V30 4316 H 423.811 6.62836 1.47733 0
M  V30 4317 H 421.757 5.57433 3.45839 0
M  V30 4318 H 421.674 7.09046 2.62279 0
M  V30 4319 H 422.942 6.81709 3.78011 0
M  V30 4320 N 427.171 -0.0066808 1.57599 0
M  V30 4321 C 428.118 -1.00024 2.08 0
M  V30 4322 C 429.088 -1.34549 0.973943 0
M  V30 4323 O 430.273 -1.44502 1.24595 0
M  V30 4324 C 427.413 -2.2891 2.58252 0
M  V30 4325 C 426.526 -2.00346 3.82734 0
M  V30 4326 C 425.661 -3.23265 4.21513 0
M  V30 4327 C 424.7 -2.90357 5.3885 0
M  V30 4328 N 423.837 -4.05793 5.72954 0
M  V30 4329 H 428.677 -0.563499 2.92624 0
M  V30 4330 H 426.214 -0.266592 1.44664 0
M  V30 4331 H 428.172 -3.04247 2.85464 0
M  V30 4332 H 426.802 -2.70265 1.76512 0
M  V30 4333 H 425.854 -1.15406 3.62471 0
M  V30 4334 H 427.166 -1.72086 4.68175 0
M  V30 4335 H 426.32 -4.06953 4.49971 0
M  V30 4336 H 425.059 -3.54657 3.34768 0
M  V30 4337 H 424.064 -2.05075 5.10122 0
M  V30 4338 H 425.289 -2.60219 6.27266 0
M  V30 4339 H 423.235 -4.37094 4.89167 0
M  V30 4340 H 423.152 -3.81034 6.52954 0
M  V30 4341 H 424.42 -4.90289 6.06001 0
M  V30 4342 N 428.649 -1.55105 -0.279332 0
M  V30 4343 C 429.612 -1.86783 -1.32834 0
M  V30 4344 C 430.612 -0.74199 -1.42657 0
M  V30 4345 O 431.802 -1.0102 -1.41918 0
M  V30 4346 C 428.934 -2.06746 -2.71052 0
M  V30 4347 H 430.127 -2.8055 -1.05979 0
M  V30 4348 H 427.68 -1.47499 -0.517087 0
M  V30 4349 H 428.415 -1.15339 -3.03097 0
M  V30 4350 H 428.2 -2.88711 -2.65309 0
M  V30 4351 H 429.69 -2.32549 -3.46858 0
M  V30 4352 N 430.127 0.543554 -1.4793 0
M  V30 4353 C 431.09 1.63156 -1.60975 0
M  V30 4354 C 432.09 1.53346 -0.483899 0
M  V30 4355 O 433.28 1.5726 -0.749339 0
M  V30 4356 C 430.412 3.02743 -1.56716 0
M  V30 4357 H 431.605 1.52934 -2.57975 0
M  V30 4358 H 429.158 0.764557 -1.36324 0
M  V30 4359 H 429.893 3.18484 -0.611418 0
M  V30 4360 H 429.678 3.11272 -2.38438 0
M  V30 4361 H 431.168 3.81871 -1.6901 0
M  V30 4362 N 431.605 1.3629 0.791371 0
M  V30 4363 C 432.835 1.33368 1.57786 0
M  V30 4364 C 433.243 -0.0875188 1.88997 0
M  V30 4365 O 432.586 -1.05427 1.50435 0
M  V30 4366 C 432.648 2.08802 2.92646 0
M  V30 4367 C 432.312 3.57903 2.84174 0
M  V30 4368 C 433.309 4.52191 2.56553 0
M  V30 4369 C 430.994 4.00762 3.02812 0
M  V30 4370 C 432.988 5.87315 2.47669 0
M  V30 4371 C 430.675 5.35977 2.93551 0
M  V30 4372 C 431.673 6.29066 2.66017 0
M  V30 4373 O 431.361 7.61798 2.56746 0
M  V30 4374 H 431.093 0.459166 0.496128 0
M  V30 4375 H 433.647 1.79952 0.990269 0
M  V30 4376 H 431.877 1.56878 3.53449 0
M  V30 4377 H 433.566 1.98762 3.53904 0
M  V30 4378 H 434.332 4.20393 2.41858 0
M  V30 4379 H 430.211 3.2868 3.2325 0
M  V30 4380 H 433.755 6.59943 2.26099 0
M  V30 4381 H 429.652 5.67384 3.07808 0
M  V30 4382 H 430.42 7.71898 2.72242 0
M  V30 4383 N 433.083 -1.0153 1.20538 0
M  V30 4384 C 434.311 -1.78746 1.04199 0
M  V30 4385 C 434.726 -1.84323 -0.408733 0
M  V30 4386 O 434.083 -1.29714 -1.28377 0
M  V30 4387 C 434.134 -3.23152 1.62035 0
M  V30 4388 O 433.855 -3.17918 3.0143 0
M  V30 4389 C 435.356 -4.16911 1.50666 0
M  V30 4390 H 432.576 -0.56208 0.366479 0
M  V30 4391 H 435.12 -1.27794 1.59653 0
M  V30 4392 H 433.275 -3.71248 1.10697 0
M  V30 4393 H 433.689 -4.08567 3.28897 0
M  V30 4394 H 435.163 -5.16072 1.95892 0
M  V30 4395 H 435.64 -4.36791 0.459363 0
M  V30 4396 H 436.246 -3.74698 2.01201 0
M  V30 4397 N 434.561 -1.01147 -1.20859 0
M  V30 4398 C 435.524 -0.582224 -2.21682 0
M  V30 4399 C 436.524 0.344887 -1.57058 0
M  V30 4400 O 437.714 0.134281 -1.73682 0
M  V30 4401 C 434.846 0.150496 -3.40568 0
M  V30 4402 H 436.039 -1.47408 -2.61172 0
M  V30 4403 H 433.592 -0.800695 -1.34233 0
M  V30 4404 H 434.327 1.0575 -3.06574 0
M  V30 4405 H 434.112 -0.515444 -3.88697 0
M  V30 4406 H 435.602 0.438344 -4.15293 0
M  V30 4407 N 436.039 1.36541 -0.78704 0
M  V30 4408 C 437.285 1.99599 -0.358872 0
M  V30 4409 C 437.618 1.62323 1.06606 0
M  V30 4410 O 436.893 0.876858 1.73613 0
M  V30 4411 C 437.176 3.56327 -0.519944 0
M  V30 4412 C 437.029 4.03464 -1.98839 0
M  V30 4413 C 438.348 4.4005 0.0664737 0
M  V30 4414 H 435.467 0.725107 -0.131869 0
M  V30 4415 H 438.109 1.6199 -0.992936 0
M  V30 4416 H 436.259 3.88495 0.0198321 0
M  V30 4417 H 437.931 3.81793 -2.58905 0
M  V30 4418 H 436.174 3.55092 -2.49183 0
M  V30 4419 H 436.845 5.12439 -2.05207 0
M  V30 4420 H 439.321 4.14228 -0.394267 0
M  V30 4421 H 438.197 5.48847 -0.0762682 0
M  V30 4422 H 438.458 4.26655 1.15835 0
M  V30 4423 N 437.518 0.538854 1.48102 0
M  V30 4424 C 438.448 -0.207654 2.32575 0
M  V30 4425 C 439.429 -0.926559 1.4265 0
M  V30 4426 O 440.614 -0.91061 1.71527 0
M  V30 4427 C 437.744 -1.24957 3.24042 0
M  V30 4428 C 436.698 -0.648263 4.23062 0
M  V30 4429 C 436.024 -1.79348 5.03725 0
M  V30 4430 C 437.324 0.385897 5.20872 0
M  V30 4431 H 439.018 0.497534 2.95237 0
M  V30 4432 H 436.564 0.240715 1.41974 0
M  V30 4433 H 438.517 -1.77983 3.81969 0
M  V30 4434 H 437.241 -1.98446 2.59397 0
M  V30 4435 H 435.9 -0.139452 3.66335 0
M  V30 4436 H 435.548 -2.51696 4.35498 0
M  V30 4437 H 435.248 -1.39702 5.70751 0
M  V30 4438 H 436.772 -2.32735 5.64506 0
M  V30 4439 H 438.186 -0.057607 5.73271 0
M  V30 4440 H 436.583 0.700227 5.96001 0
M  V30 4441 H 437.653 1.28848 4.67468 0
M  V30 4442 N 438.996 -1.55193 0.274407 0
M  V30 4443 C 439.944 -2.23924 -0.629362 0
M  V30 4444 C 440.938 -1.23602 -1.1584 0
M  V30 4445 O 442.144 -1.41535 -1.11211 0
M  V30 4446 H 438.519 -0.718637 -0.221507 0
M  V30 4447 H 440.49 -2.98388 -0.0268322 0
M  V30 4448 C 439.239 -2.97329 -1.80252 0
M  V30 4449 H 438.562 -3.74313 -1.40462 0
M  V30 4450 H 440.002 -3.48743 -2.41152 0
M  V30 4451 C 438.461 -2.0276 -2.69054 0
M  V30 4452 O 438.991 -1.57836 -3.69392 0
M  V30 4453 N 437.197 -1.69275 -2.36208 0
M  V30 4454 H 436.744 -2.06004 -1.54661 0
M  V30 4455 H 436.702 -1.06271 -2.95895 0
M  V30 4456 N 440.474 -0.00167713 -1.576 0
M  V30 4457 C 441.437 0.974046 -2.07473 0
M  V30 4458 C 442.437 1.27143 -0.984444 0
M  V30 4459 O 443.627 1.21633 -1.24703 0
M  V30 4460 C 440.759 2.29849 -2.51759 0
M  V30 4461 H 441.952 0.54262 -2.9495 0
M  V30 4462 H 439.505 0.245829 -1.54355 0
M  V30 4463 H 440.24 2.77677 -1.67529 0
M  V30 4464 H 440.025 2.09584 -3.31386 0
M  V30 4465 H 441.515 2.9984 -2.90664 0
M  V30 4466 N 441.952 1.55251 0.271103 0
M  V30 4467 C 442.882 1.9127 1.33933 0
M  V30 4468 C 443.863 0.77478 1.5143 0
M  V30 4469 O 445.048 1.03307 1.64442 0
M  V30 4470 C 442.178 2.18627 2.69851 0
M  V30 4471 C 441.132 3.34442 2.67081 0
M  V30 4472 C 440.458 3.47284 4.06569 0
M  V30 4473 C 441.758 4.70784 2.26185 0
M  V30 4474 H 443.452 2.80744 1.04035 0
M  V30 4475 H 440.998 1.35077 0.499017 0
M  V30 4476 H 442.951 2.42413 3.44694 0
M  V30 4477 H 441.675 1.25955 3.01335 0
M  V30 4478 H 440.334 3.10627 1.94695 0
M  V30 4479 H 439.982 2.52074 4.35279 0
M  V30 4480 H 439.682 4.25152 4.0561 0
M  V30 4481 H 441.206 3.73363 4.83148 0
M  V30 4482 H 442.62 4.94102 2.90751 0
M  V30 4483 H 441.017 5.51582 2.36384 0
M  V30 4484 H 442.087 4.69478 1.21319 0
M  V30 4485 N 443.43 -0.535701 1.48216 0
M  V30 4486 C 444.378 -1.66179 1.62749 0
M  V30 4487 C 445.372 -1.62034 0.49409 0
M  V30 4488 O 446.578 -1.6696 0.672624 0
M  V30 4489 H 442.953 -0.550244 0.512578 0
M  V30 4490 H 444.924 -1.51063 2.57337 0
M  V30 4491 C 443.673 -3.04471 1.67907 0
M  V30 4492 H 442.996 -3.08351 2.54479 0
M  V30 4493 H 444.436 -3.82894 1.82121 0
M  V30 4494 C 442.895 -3.34314 0.416596 0
M  V30 4495 O 443.425 -3.98905 -0.473014 0
M  V30 4496 N 441.631 -2.89149 0.290038 0
M  V30 4497 H 441.178 -2.36764 1.01493 0
M  V30 4498 H 441.136 -3.09486 -0.55367 0
M  V30 4499 N 444.908 -1.36708 -0.784132 0
M  V30 4500 C 446.156 -1.30972 -1.53918 0
M  V30 4501 C 446.477 0.109086 -1.94695 0
M  V30 4502 O 445.747 1.05048 -1.65353 0
M  V30 4503 H 444.327 -0.481819 -0.570841 0
M  V30 4504 H 446.989 -1.71063 -0.934002 0
M  V30 4505 H 446.085 -1.94061 -2.44431 0
M  V30 4506 N 446.386 1.0089 -1.21074 0
M  V30 4507 C 447.634 1.74262 -1.02358 0
M  V30 4508 C 447.955 1.89869 0.444393 0
M  V30 4509 O 447.225 1.44677 1.32081 0
M  V30 4510 H 445.805 0.645615 -0.375754 0
M  V30 4511 H 448.467 1.21596 -1.52317 0
M  V30 4512 H 447.563 2.74328 -1.4883 0
M  V30 4513 N 447.864 1.01787 1.20321 0
M  V30 4514 C 449.089 0.727009 1.9424 0
M  V30 4515 C 449.514 -0.706179 1.74341 0
M  V30 4516 O 448.872 -1.48609 1.03852 0
M  V30 4517 C 448.92 1.06958 3.44372 0
M  V30 4518 O 448.024 0.181983 4.11998 0
M  V30 4519 H 447.365 0.269626 0.606793 0
M  V30 4520 H 449.895 1.36158 1.52716 0
M  V30 4521 H 449.905 1.02182 3.94997 0
M  V30 4522 H 448.58 2.11378 3.58179 0
M  V30 4523 H 447.157 0.287378 3.71791 0
M  V30 4524 N 449.342 -1.36122 0.79427 0
M  V30 4525 C 450.567 -2.03891 0.379871 0
M  V30 4526 C 450.992 -1.59488 -0.997251 0
M  V30 4527 O 450.35 -0.765652 -1.64339 0
M  V30 4528 C 450.398 -3.57687 0.457442 0
M  V30 4529 O 449.502 -4.08931 -0.5338 0
M  V30 4530 H 448.843 -0.6443 0.160541 0
M  V30 4531 H 451.373 -1.73976 1.07673 0
M  V30 4532 H 451.383 -4.06721 0.322792 0
M  V30 4533 H 450.058 -3.89357 1.46199 0
M  V30 4534 H 448.635 -3.71154 -0.360409 0
M  V30 4535 N 450.82 -0.546701 -1.47814 0
M  V30 4536 C 452.048 -0.0232857 -2.06887 0
M  V30 4537 C 452.463 1.26571 -1.4009 0
M  V30 4538 O 451.82 1.7569 -0.493906 0
M  V30 4539 C 451.871 0.186975 -3.61016 0
M  V30 4540 O 451.592 -1.05097 -4.25307 0
M  V30 4541 C 453.093 0.748872 -4.36929 0
M  V30 4542 H 450.313 -0.0410763 -0.669742 0
M  V30 4543 H 452.857 -0.757117 -1.89968 0
M  V30 4544 H 451.012 0.870903 -3.77484 0
M  V30 4545 H 451.426 -0.842121 -5.17695 0
M  V30 4546 H 452.9 0.845334 -5.45489 0
M  V30 4547 H 453.377 1.75772 -4.02493 0
M  V30 4548 H 453.983 0.100979 -4.2518 0
M  V30 4549 N 452.299 1.55045 -0.282633 0
M  V30 4550 C 453.71 1.85473 0.213655 0
M  V30 4551 C 454.061 1.20465 1.54863 0
M  V30 4552 O 453.186 0.495676 2.10647 0
M  V30 4553 C 453.781 3.36496 0.394445 0
M  V30 4554 C 452.34 3.67022 0.834961 0
M  V30 4555 C 451.487 2.77218 -0.0674081 0
M  V30 4556 H 454.438 1.50478 -0.504202 0
M  V30 4557 H 454.459 3.60007 1.23186 0
M  V30 4558 H 453.971 3.83782 -0.577326 0
M  V30 4559 H 452.072 3.25241 1.81794 0
M  V30 4560 H 452.185 4.74433 0.667075 0
M  V30 4561 H 450.549 2.5069 0.450196 0
M  V30 4562 H 451.332 3.2732 -1.0352 0
M  V30 4563 N 453.777 0.010035 1.57597 0
M  V30 4564 C 455.188 -0.531426 1.78977 0
M  V30 4565 C 455.539 -1.73375 0.918454 0
M  V30 4566 O 454.664 -2.16047 0.123635 0
M  V30 4567 C 455.259 -0.97086 3.24592 0
M  V30 4568 C 453.818 -1.45756 3.47033 0
M  V30 4569 C 452.965 -0.413384 2.74201 0
M  V30 4570 H 455.916 0.236166 1.56933 0
M  V30 4571 H 455.937 -1.83633 3.33255 0
M  V30 4572 H 455.449 -0.0955893 3.87982 0
M  V30 4573 H 453.55 -2.35339 2.88871 0
M  V30 4574 H 453.663 -1.4781 4.55729 0
M  V30 4575 H 452.027 -0.877266 2.39115 0
M  V30 4576 H 452.81 0.453092 3.40297 0
M  V30 4577 N 455.255 -1.55392 -0.262866 0
M  V30 4578 C 456.666 -1.67079 -0.833158 0
M  V30 4579 C 457.017 -0.604539 -1.86654 0
M  V30 4580 O 456.142 0.252138 -2.14926 0
M  V30 4581 C 456.737 -3.02891 -1.51797 0
M  V30 4582 C 455.296 -3.16571 -2.03617 0
M  V30 4583 C 454.443 -2.62909 -0.881701 0
M  V30 4584 H 457.394 -1.58652 -0.0389986 0
M  V30 4585 H 457.415 -2.96445 -2.38538 0
M  V30 4586 H 456.927 -3.80473 -0.765619 0
M  V30 4587 H 455.028 -2.43782 -2.81782 0
M  V30 4588 H 455.141 -4.23271 -2.24452 0
M  V30 4589 H 453.505 -2.20324 -1.27786 0
M  V30 4590 H 454.288 -3.43003 -0.14269 0
M  V30 4591 N 456.733 0.527833 -1.48498 0
M  V30 4592 C 457.958 1.313 -1.60546 0
M  V30 4593 C 458.383 1.86199 -0.26672 0
M  V30 4594 O 457.741 1.64513 0.761918 0
M  V30 4595 C 457.789 2.43818 -2.65678 0
M  V30 4596 O 456.893 3.46916 -2.22987 0
M  V30 4597 H 456.234 0.388784 -0.538277 0
M  V30 4598 H 458.764 0.634896 -1.945 0
M  V30 4599 H 458.774 2.89973 -2.87018 0
M  V30 4600 H 457.449 2.03222 -3.62869 0
M  V30 4601 H 456.026 3.06864 -2.11869 0
M  V30 4602 N 458.211 1.37122 0.776871 0
M  V30 4603 C 459.459 1.31787 1.53221 0
M  V30 4604 C 459.78 -0.0987589 1.9475 0
M  V30 4605 O 459.05 -1.0417 1.65908 0
M  V30 4606 H 457.63 0.484839 0.568278 0
M  V30 4607 H 460.292 1.71556 0.924917 0
M  V30 4608 H 459.388 1.95355 2.43398 0
M  V30 4609 N 459.689 -1.00246 1.21608 0
M  V30 4610 C 460.937 -1.73717 1.0328 0
M  V30 4611 C 461.258 -1.90102 -0.434318 0
M  V30 4612 O 460.528 -1.45376 -1.31311 0
M  V30 4613 H 459.108 -0.643613 0.379172 0
M  V30 4614 H 461.77 -1.20787 1.52959 0
M  V30 4615 H 460.866 -2.73535 1.50283 0
M  V30 4616 N 461.167 -1.02423 -1.1978 0
M  V30 4617 C 462.415 -0.716569 -1.8897 0
M  V30 4618 C 462.736 0.756769 -1.79716 0
M  V30 4619 O 462.006 1.5449 -1.20456 0
M  V30 4620 H 460.586 -0.262062 -0.699523 0
M  V30 4621 H 463.248 -1.29747 -1.45436 0
M  V30 4622 H 462.344 -1.00675 -2.95417 0
M  V30 4623 N 462.645 1.35699 -0.801477 0
M  V30 4624 C 463.577 2.28598 -0.166028 0
M  V30 4625 C 464.59 1.50044 0.631721 0
M  V30 4626 O 465.779 1.72339 0.464921 0
M  V30 4627 C 462.879 3.29625 0.787451 0
M  V30 4628 C 462.052 4.37384 0.037171 0
M  V30 4629 C 461.111 5.183 0.908375 0
M  V30 4630 O 460.137 5.68053 0.361189 0
M  V30 4631 N 461.339 5.35912 2.23112 0
M  V30 4632 H 464.104 2.83771 -0.964071 0
M  V30 4633 H 461.665 1.47994 -0.656469 0
M  V30 4634 H 463.657 3.80648 1.37439 0
M  V30 4635 H 462.227 2.75004 1.48632 0
M  V30 4636 H 461.447 3.87364 -0.730935 0
M  V30 4637 H 462.735 5.0653 -0.480109 0
M  V30 4638 H 462.133 4.97125 2.69968 0
M  V30 4639 H 460.69 5.90133 2.76741 0
M  V30 4640 N 464.123 0.554532 1.47522 0
M  V30 4641 C 465.372 0.0273458 2.01681 0
M  V30 4642 C 465.685 -1.32962 1.43459 0
M  V30 4643 O 466.891 -1.94657 1.89265 0
M  V30 4644 C 465.347 -0.00159057 3.599 0
M  V30 4645 C 464.955 1.35197 4.27113 0
M  V30 4646 C 466.699 -0.476311 4.21819 0
M  V30 4647 C 464.606 1.28229 5.77331 0
M  V30 4648 H 463.536 0.00645269 0.753972 0
M  V30 4649 H 466.187 0.701985 1.69542 0
M  V30 4650 H 464.569 -0.741821 3.8899 0
M  V30 4651 H 465.743 2.1097 4.09668 0
M  V30 4652 H 464.058 1.76441 3.77171 0
M  V30 4653 H 466.655 -0.5468 5.31897 0
M  V30 4654 H 466.998 -1.4877 3.8881 0
M  V30 4655 H 467.531 0.20898 3.97251 0
M  V30 4656 H 464.27 2.26959 6.14955 0
M  V30 4657 H 463.79 0.566314 5.97121 0
M  V30 4658 H 465.469 0.983226 6.39485 0
M  V30 4659 N 465.601 -1.54893 0.290851 0
M  V30 4660 C 466.548 -2.23138 -0.58974 0
M  V30 4661 C 467.518 -1.21036 -1.13752 0
M  V30 4662 O 468.703 -1.49626 -1.18392 0
M  V30 4663 C 465.843 -2.96811 -1.76061 0
M  V30 4664 C 464.956 -4.13665 -1.24519 0
M  V30 4665 C 464.091 -4.74944 -2.3791 0
M  V30 4666 C 463.13 -5.83963 -1.83451 0
M  V30 4667 N 462.267 -6.39239 -2.90376 0
M  V30 4668 H 467.107 -2.98 -0.00114915 0
M  V30 4669 H 464.644 -1.47096 0.0112006 0
M  V30 4670 H 466.602 -3.37751 -2.44909 0
M  V30 4671 H 465.232 -2.24344 -2.32098 0
M  V30 4672 H 464.284 -3.77737 -0.449288 0
M  V30 4673 H 465.596 -4.92238 -0.806424 0
M  V30 4674 H 464.75 -5.18684 -3.14724 0
M  V30 4675 H 463.489 -3.95682 -2.85109 0
M  V30 4676 H 462.494 -5.39657 -1.05122 0
M  V30 4677 H 463.719 -6.65103 -1.37169 0
M  V30 4678 H 461.665 -5.62864 -3.36927 0
M  V30 4679 H 461.582 -7.13129 -2.50965 0
M  V30 4680 H 462.85 -6.87637 -3.67118 0
M  V30 4681 N 467.08 -0.0183926 -1.57589 0
M  V30 4682 C 468.328 0.661253 -1.90976 0
M  V30 4683 C 468.649 1.73281 -0.894353 0
M  V30 4684 O 467.919 1.9579 0.0656788 0
M  V30 4685 H 466.499 0.247233 -0.704901 0
M  V30 4686 H 469.161 -0.0636639 -1.94796 0
M  V30 4687 H 468.257 1.12083 -2.9128 0
M  V30 4688 N 468.558 1.5553 0.254621 0
M  V30 4689 C 469.804 1.77262 0.985193 0
M  V30 4690 C 470.137 0.582286 1.85265 0
M  V30 4691 O 469.412 -0.419666 1.89919 0
M  V30 4692 C 469.695 3.0881 1.85225 0
M  V30 4693 C 469.548 4.38233 1.0135 0
M  V30 4694 C 470.867 3.3653 2.83612 0
M  V30 4695 H 467.986 0.644906 0.356742 0
M  V30 4696 H 470.628 1.88264 0.256236 0
M  V30 4697 H 468.778 2.99562 2.47376 0
M  V30 4698 H 470.45 4.59463 0.411269 0
M  V30 4699 H 468.693 4.32636 0.317574 0
M  V30 4700 H 469.364 5.26644 1.65379 0
M  V30 4701 H 471.84 3.45691 2.31596 0
M  V30 4702 H 470.716 4.29805 3.41407 0
M  V30 4703 H 470.977 2.57064 3.59681 0
M  V30 4704 N 470.036 -0.519951 1.48776 0
M  V30 4705 C 471.284 -1.2727 1.56993 0
M  V30 4706 C 471.605 -1.9339 0.25004 0
M  V30 4707 O 470.875 -1.81822 -0.729216 0
M  V30 4708 H 469.455 -0.472732 0.578389 0
M  V30 4709 H 472.117 -0.604234 1.85297 0
M  V30 4710 H 471.213 -2.04669 2.3562 0
M  V30 4711 N 471.514 -1.37532 -0.769588 0
M  V30 4712 C 472.739 -1.36231 -1.56384 0
M  V30 4713 C 473.164 0.0495849 -1.88035 0
M  V30 4714 O 472.522 1.02723 -1.49391 0
M  V30 4715 C 472.57 -2.20986 -2.84952 0
M  V30 4716 O 471.674 -1.61597 -3.79421 0
M  V30 4717 H 471.015 -0.465387 -0.473615 0
M  V30 4718 H 473.545 -1.81085 -0.952342 0
M  V30 4719 H 473.555 -2.34277 -3.34034 0
M  V30 4720 H 472.23 -3.23612 -2.61243 0
M  V30 4721 H 470.807 -1.57359 -3.38072 0
M  V30 4722 N 472.992 0.995999 -1.22138 0
M  V30 4723 C 474.24 1.73167 -1.042 0
M  V30 4724 C 474.561 1.90329 0.42423 0
M  V30 4725 O 473.831 1.4607 1.30539 0
M  V30 4726 H 472.411 0.641593 -0.38258 0
M  V30 4727 H 475.073 1.19974 -1.53598 0
M  V30 4728 H 474.169 2.72734 -1.51731 0
M  V30 4729 N 474.47 1.03057 1.19235 0
M  V30 4730 C 475.886 0.747947 1.40989 0
M  V30 4731 C 476.086 -0.666752 1.90149 0
M  V30 4732 O 475.142 -1.43249 2.07933 0
M  V30 4733 C 476.455 1.7855 2.41951 0
M  V30 4734 C 478.003 1.80524 2.55695 0
M  V30 4735 C 478.478 2.83243 3.59913 0
M  V30 4736 N 479.969 2.8207 3.67411 0
M  V30 4737 C 480.704 3.58204 4.47747 0
M  V30 4738 N 480.2 4.44057 5.31775 0
M  V30 4739 N 481.993 3.46738 4.42413 0
M  V30 4740 H 474.144 1.94367 0.856468 0
M  V30 4741 H 476.407 0.840412 0.438647 0
M  V30 4742 H 476.113 2.79973 2.12857 0
M  V30 4743 H 475.987 1.6092 3.41152 0
M  V30 4744 H 478.374 0.79778 2.84112 0
M  V30 4745 H 478.455 2.02229 1.56643 0
M  V30 4746 H 478.099 3.84161 3.32239 0
M  V30 4747 H 478.029 2.58795 4.5862 0
M  V30 4748 H 480.52 2.19803 3.074 0
M  V30 4749 H 480.833 4.98884 5.90199 0
M  V30 4750 H 479.178 4.48129 5.3123 0
M  V30 4751 H 482.369 2.79077 3.75811 0
M  V30 4752 H 482.542 4.06322 5.04783 0
M  V30 4753 N 475.948 -1.35272 0.808662 0
M  V30 4754 C 477.188 -2.00534 0.395668 0
M  V30 4755 C 477.552 -1.62755 -1.01857 0
M  V30 4756 O 478.753 -2.20752 -1.53368 0
M  V30 4757 C 477.024 -3.52732 0.575771 0
M  V30 4758 S 478.583 -4.38067 0.253507 0
M  V30 4759 H 475.401 -0.694962 0.150165 0
M  V30 4760 H 478.003 -1.64823 1.05137 0
M  V30 4761 H 476.707 -3.77714 1.60499 0
M  V30 4762 H 476.238 -3.93285 -0.0951739 0
M  V30 4763 H 478.253 -4.87252 -0.938068 0
M  V30 4764 N 477.426 -0.562348 -1.47226 0
M  V30 4765 C 478.356 0.170627 -2.32876 0
M  V30 4766 C 479.337 0.903748 -1.44106 0
M  V30 4767 O 480.522 0.883206 -1.72954 0
M  V30 4768 C 477.652 1.19786 -3.25989 0
M  V30 4769 C 476.606 0.580875 -4.2404 0
M  V30 4770 C 475.932 1.71311 -5.06514 0
M  V30 4771 C 477.232 -0.468714 -5.20193 0
M  V30 4772 H 478.926 -0.544441 -2.94408 0
M  V30 4773 H 476.472 -0.263271 -1.41573 0
M  V30 4774 H 478.425 1.71884 -3.84752 0
M  V30 4775 H 477.149 1.94294 -2.62521 0
M  V30 4776 H 475.808 0.0811538 -3.6651 0
M  V30 4777 H 475.456 2.44736 -4.39447 0
M  V30 4778 H 475.156 1.30604 -5.72902 0
M  V30 4779 H 476.68 2.23725 -5.68137 0
M  V30 4780 H 478.094 -0.0336028 -5.7329 0
M  V30 4781 H 476.491 -0.794957 -5.94811 0
M  V30 4782 H 477.561 -1.36269 -4.65359 0
M  V30 4783 N 478.904 1.54736 -0.299062 0
M  V30 4784 C 480.181 1.92187 0.363802 0
M  V30 4785 C 480.561 1.22607 1.71845 0
M  V30 4786 O 479.909 0.361141 2.25628 0
M  V30 4787 C 480.119 3.45678 0.480377 0
M  V30 4788 C 481.467 4.17885 0.752147 0
M  V30 4789 O 482.491 3.51702 0.564264 0
M  V30 4790 O 481.35 5.35048 1.11294 0
M  V30 4791 H 478.444 0.801681 0.203066 0
M  V30 4792 H 480.99 1.66115 -0.346978 0
M  V30 4793 H 479.762 3.88443 -0.471999 0
M  V30 4794 H 479.385 3.77779 1.2397 0
M  V30 4795 N 480.382 0.0267497 1.57577 0
M  V30 4796 C 481.628 -0.653371 1.91987 0
M  V30 4797 C 481.961 -1.71915 0.903263 0
M  V30 4798 O 481.236 -1.94358 -0.0743387 0
M  V30 4799 C 481.519 -1.272 3.36886 0
M  V30 4800 C 481.372 -0.215938 4.49281 0
M  V30 4801 C 482.691 -2.19069 3.81703 0
M  V30 4802 H 479.81 -0.236047 0.698177 0
M  V30 4803 H 482.452 0.0835236 1.89816 0
M  V30 4804 H 480.602 -1.90005 3.38866 0
M  V30 4805 H 482.274 0.41449 4.59434 0
M  V30 4806 H 480.517 0.458855 4.31366 0
M  V30 4807 H 481.188 -0.688347 5.47691 0
M  V30 4808 H 483.664 -1.66253 3.81444 0
M  V30 4809 H 482.54 -2.59307 4.83788 0
M  V30 4810 H 482.801 -3.08087 3.17072 0
M  V30 4811 N 481.861 -1.55662 -0.24637 0
M  V30 4812 C 483.272 -1.67953 -0.81539 0
M  V30 4813 C 483.623 -0.624302 -1.86002 0
M  V30 4814 O 482.748 0.229328 -2.15181 0
M  V30 4815 C 483.343 -3.04484 -1.48576 0
M  V30 4816 C 481.902 -3.18713 -2.00248 0
M  V30 4817 C 481.049 -2.6383 -0.853766 0
M  V30 4818 H 484 -1.58685 -0.0221692 0
M  V30 4819 H 484.021 -2.98959 -2.3538 0
M  V30 4820 H 483.533 -3.81264 -0.725222 0
M  V30 4821 H 481.634 -2.46757 -2.79181 0
M  V30 4822 H 481.747 -4.25628 -2.1995 0
M  V30 4823 H 480.111 -2.21667 -1.25442 0
M  V30 4824 H 480.894 -3.43135 -0.106302 0
M  V30 4825 N 483.339 0.512053 -1.4905 0
M  V30 4826 C 484.287 1.63568 -1.65373 0
M  V30 4827 C 485.281 1.61228 -0.519806 0
M  V30 4828 O 486.487 1.65869 -0.699101 0
M  V30 4829 H 482.862 0.542019 -0.521267 0
M  V30 4830 H 484.833 1.4695 -2.59708 0
M  V30 4831 C 483.582 3.01761 -1.7273 0
M  V30 4832 H 482.905 3.04263 -2.59353 0
M  V30 4833 H 484.345 3.79948 -1.8819 0
M  V30 4834 C 482.804 3.33609 -0.46973 0
M  V30 4835 O 483.334 3.99607 0.409492 0
M  V30 4836 N 481.54 2.88651 -0.336003 0
M  V30 4837 H 481.087 2.35119 -1.05247 0
M  V30 4838 H 481.045 3.10328 0.504363 0
M  V30 4839 N 484.817 1.37938 0.762283 0
M  V30 4840 C 485.78 1.34279 1.85747 0
M  V30 4841 C 486.78 0.244969 1.58923 0
M  V30 4842 O 487.97 0.501365 1.66829 0
M  V30 4843 C 485.102 1.08833 3.23061 0
M  V30 4844 H 486.295 2.31705 1.90401 0
M  V30 4845 H 483.848 1.23105 0.963057 0
M  V30 4846 H 484.583 0.119767 3.24079 0
M  V30 4847 H 484.368 1.88306 3.43923 0
M  V30 4848 H 485.858 1.08946 4.03138 0
M  V30 4849 N 486.295 -0.989507 1.22664 0
M  V30 4850 C 487.52 -1.77031 1.08051 0
M  V30 4851 C 487.945 -1.84535 -0.364483 0
M  V30 4852 O 487.303 -1.3003 -1.2634 0
M  V30 4853 C 487.351 -3.18 1.70024 0
M  V30 4854 O 486.455 -4.01161 0.956216 0
M  V30 4855 H 485.796 -0.545008 0.379292 0
M  V30 4856 H 488.326 -1.24277 1.62531 0
M  V30 4857 H 488.336 -3.68616 1.74888 0
M  V30 4858 H 487.011 -3.11853 2.75174 0
M  V30 4859 H 485.588 -3.59687 0.98384 0
M  V30 4860 N 487.773 -1.03688 -1.18687 0
M  V30 4861 C 489.001 -0.757918 -1.92518 0
M  V30 4862 C 489.416 0.684398 -1.75959 0
M  V30 4863 O 488.773 1.46617 -1.08673 0
M  V30 4864 C 488.824 -1.10985 -3.44042 0
M  V30 4865 O 488.545 -2.49554 -3.60076 0
M  V30 4866 C 490.046 -0.854844 -4.3498 0
M  V30 4867 H 487.266 -0.276699 -0.611293 0
M  V30 4868 H 489.81 -1.38352 -1.50595 0
M  V30 4869 H 487.965 -0.529279 -3.83767 0
M  V30 4870 H 488.379 -2.6291 -4.53849 0
M  V30 4871 H 489.853 -1.15098 -5.39867 0
M  V30 4872 H 490.33 0.210507 -4.38695 0
M  V30 4873 H 490.936 -1.41853 -4.00946 0
M  V30 4874 N 489.251 1.34841 -0.815825 0
M  V30 4875 C 490.479 2.0273 -0.413294 0
M  V30 4876 C 490.894 1.61459 0.978599 0
M  V30 4877 O 490.251 0.816584 1.63212 0
M  V30 4878 C 490.302 3.58058 -0.497676 0
M  V30 4879 O 490.023 3.97832 -1.8347 0
M  V30 4880 C 491.524 4.4321 -0.0891339 0
M  V30 4881 H 488.744 0.649956 -0.166728 0
M  V30 4882 H 491.288 1.72267 -1.10201 0
M  V30 4883 H 489.443 3.87136 0.142886 0
M  V30 4884 H 489.857 4.92501 -1.80396 0
M  V30 4885 H 491.331 5.5164 -0.199274 0
M  V30 4886 H 491.808 4.28432 0.966571 0
M  V30 4887 H 492.414 4.19446 -0.703214 0
M  V30 4888 N 490.729 0.570148 1.46925 0
M  V30 4889 C 492.006 -0.0153259 1.95594 0
M  V30 4890 C 492.386 -1.47232 1.51281 0
M  V30 4891 O 491.734 -2.15574 0.757624 0
M  V30 4892 C 491.944 0.143624 3.48704 0
M  V30 4893 C 493.292 0.00494484 4.246 0
M  V30 4894 O 494.316 0.0718214 3.56128 0
M  V30 4895 O 493.175 -0.141175 5.46318 0
M  V30 4896 H 490.269 -0.0568819 0.825041 0
M  V30 4897 H 492.815 0.637583 1.57267 0
M  V30 4898 H 491.587 1.15699 3.73804 0
M  V30 4899 H 491.21 -0.5463 3.93829 0
M  V30 4900 N 492.207 -1.54576 0.307264 0
M  V30 4901 C 493.455 -1.99867 -0.299574 0
M  V30 4902 C 493.776 -1.19714 -1.53927 0
M  V30 4903 O 493.046 -0.29472 -1.9367 0
M  V30 4904 H 491.626 -0.738299 -0.113683 0
M  V30 4905 H 494.288 -1.9032 0.420042 0
M  V30 4906 H 493.384 -3.06901 -0.567283 0
M  V30 4907 N 493.685 -0.035106 -1.57561 0
M  V30 4908 C 494.913 0.652258 -1.9635 0
M  V30 4909 C 495.328 1.65317 -0.911897 0
M  V30 4910 O 494.685 1.82194 0.105657 0
M  V30 4911 C 494.736 1.35337 -3.35211 0
M  V30 4912 O 494.457 0.392548 -4.36338 0
M  V30 4913 C 495.958 2.13199 -3.88666 0
M  V30 4914 H 493.178 0.179444 -0.646561 0
M  V30 4915 H 495.722 -0.0966459 -2.04271 0
M  V30 4916 H 493.877 2.05362 -3.28489 0
M  V30 4917 H 494.291 0.891097 -5.16875 0
M  V30 4918 H 495.765 2.577 -4.88154 0
M  V30 4919 H 496.242 2.97353 -3.23231 0
M  V30 4920 H 496.848 1.48118 -3.98674 0
M  V30 4921 N 495.163 1.55791 0.238111 0
M  V30 4922 C 496.095 1.87513 1.31802 0
M  V30 4923 C 497.108 0.762053 1.43863 0
M  V30 4924 O 498.297 1.04024 1.45056 0
M  V30 4925 C 495.397 2.05402 2.69561 0
M  V30 4926 C 494.57 3.3632 2.79656 0
M  V30 4927 C 493.629 3.43844 3.98319 0
M  V30 4928 O 492.655 4.16994 3.87433 0
M  V30 4929 N 493.857 2.73777 5.11885 0
M  V30 4930 H 496.622 2.80734 1.04922 0
M  V30 4931 H 494.183 1.56135 0.428196 0
M  V30 4932 H 496.175 2.07769 3.47296 0
M  V30 4933 H 494.745 1.18884 2.89111 0
M  V30 4934 H 493.965 3.46195 1.88528 0
M  V30 4935 H 495.253 4.22594 2.83358 0
M  V30 4936 H 494.651 2.14094 5.23622 0
M  V30 4937 H 493.208 2.81825 5.87723 0
M  V30 4938 N 496.642 -0.504142 1.49319 0
M  V30 4939 C 497.888 -1.26033 1.58882 0
M  V30 4940 C 498.221 -1.92268 0.273274 0
M  V30 4941 O 497.496 -1.80567 -0.72291 0
M  V30 4942 C 497.779 -2.32976 2.7458 0
M  V30 4943 C 497.632 -1.71263 4.1592 0
M  V30 4944 C 498.951 -3.34561 2.85932 0
M  V30 4945 H 496.07 -0.456863 0.578312 0
M  V30 4946 H 498.712 -0.558965 1.81592 0
M  V30 4947 H 496.862 -2.92796 2.55348 0
M  V30 4948 H 498.534 -1.15294 4.4666 0
M  V30 4949 H 496.777 -1.01686 4.21714 0
M  V30 4950 H 497.448 -2.48816 4.92742 0
M  V30 4951 H 499.924 -2.84727 3.0343 0
M  V30 4952 H 498.8 -4.06754 3.68568 0
M  V30 4953 H 499.061 -3.96695 1.95154 0
M  V30 4954 N 498.12 -1.38341 -0.754957 0
M  V30 4955 C 499.052 -1.31347 -1.87831 0
M  V30 4956 C 500.065 -0.225955 -1.61224 0
M  V30 4957 O 501.254 -0.48341 -1.7183 0
M  V30 4958 C 498.354 -1.01201 -3.23437 0
M  V30 4959 C 497.527 -2.20834 -3.77559 0
M  V30 4960 C 496.586 -1.87454 -4.91678 0
M  V30 4961 O 495.612 -2.59934 -5.06382 0
M  V30 4962 N 496.814 -0.828682 -5.74555 0
M  V30 4963 H 499.579 -2.28147 -1.94342 0
M  V30 4964 H 497.14 -1.32184 -0.934828 0
M  V30 4965 H 499.132 -0.769249 -3.97322 0
M  V30 4966 H 497.702 -0.132011 -3.12321 0
M  V30 4967 H 496.922 -2.61184 -2.95256 0
M  V30 4968 H 498.21 -3.00678 -4.10451 0
M  V30 4969 H 497.608 -0.227591 -5.65242 0
M  V30 4970 H 496.165 -0.645802 -6.48593 0
M  V30 4971 N 499.598 0.982988 -1.23187 0
M  V30 4972 C 500.528 2.09301 -1.03515 0
M  V30 4973 C 501.509 1.70035 0.0471136 0
M  V30 4974 O 502.694 1.93847 -0.117029 0
M  V30 4975 C 499.824 3.4167 -0.622791 0
M  V30 4976 C 498.778 3.94828 -1.65211 0
M  V30 4977 C 498.104 5.23362 -1.09527 0
M  V30 4978 C 499.404 4.2439 -3.04451 0
M  V30 4979 H 501.098 2.26016 -1.96359 0
M  V30 4980 H 498.644 1.08611 -0.945501 0
M  V30 4981 H 500.597 4.18746 -0.472233 0
M  V30 4982 H 499.321 3.24811 0.341329 0
M  V30 4983 H 497.98 3.19895 -1.79061 0
M  V30 4984 H 497.628 5.02852 -0.122211 0
M  V30 4985 H 497.328 5.59895 -1.783 0
M  V30 4986 H 498.852 6.03062 -0.956511 0
M  V30 4987 H 500.266 4.92225 -2.93917 0
M  V30 4988 H 498.663 4.72118 -3.70438 0
M  V30 4989 H 499.733 3.31765 -3.53638 0
M  V30 4990 N 501.076 1.04316 1.18135 0
M  V30 4991 C 502.306 0.767003 1.91835 0
M  V30 4992 C 502.714 -0.68002 1.76557 0
M  V30 4993 O 502.057 -1.47548 1.09432 0
M  V30 4994 C 502.119 1.05674 3.43618 0
M  V30 4995 C 501.783 2.49818 3.82675 0
M  V30 4996 C 502.78 3.48003 3.86251 0
M  V30 4997 C 500.465 2.84596 4.13897 0
M  V30 4998 C 502.459 4.79016 4.20503 0
M  V30 4999 C 500.146 4.15813 4.4782 0
M  V30 5000 C 501.144 5.12834 4.51099 0
M  V30 5001 O 500.832 6.41699 4.84229 0
M  V30 5002 H 500.564 0.278948 0.615763 0
M  V30 5003 H 503.118 1.3946 1.50798 0
M  V30 5004 H 501.348 0.372029 3.84906 0
M  V30 5005 H 503.037 0.767994 3.98568 0
M  V30 5006 H 503.803 3.22475 3.62264 0
M  V30 5007 H 499.682 2.09748 4.1052 0
M  V30 5008 H 503.226 5.54739 4.22978 0
M  V30 5009 H 499.123 4.41109 4.71268 0
M  V30 5010 H 499.891 6.46387 5.02121 0
M  V30 5011 N 502.554 -1.34406 0.822964 0
M  V30 5012 C 503.831 -1.92733 0.333641 0
M  V30 5013 C 504.211 -1.75107 -1.17901 0
M  V30 5014 O 503.559 -1.12983 -1.98613 0
M  V30 5015 C 503.769 -3.40557 0.763023 0
M  V30 5016 C 505.117 -4.17709 0.761879 0
M  V30 5017 O 506.141 -3.49141 0.705606 0
M  V30 5018 O 505 -5.40082 0.835109 0
M  V30 5019 H 502.094 -0.821964 0.0911249 0
M  V30 5020 H 504.64 -1.4338 0.907757 0
M  V30 5021 H 503.412 -3.47187 1.8049 0
M  V30 5022 H 503.035 -3.97259 0.164605 0
M  V30 5023 N 504.032 -0.577932 -1.46621 0
M  V30 5024 C 505.272 -0.0643097 -2.04299 0
M  V30 5025 C 505.636 1.26967 -1.44026 0
M  V30 5026 O 506.837 1.87224 -1.92875 0
M  V30 5027 C 505.108 0.00547588 -3.574 0
M  V30 5028 S 506.667 0.462216 -4.36359 0
M  V30 5029 H 503.485 -0.0351573 -0.71013 0
M  V30 5030 H 506.087 -0.76935 -1.79725 0
M  V30 5031 H 504.791 -0.969423 -3.98786 0
M  V30 5032 H 504.322 0.733435 -3.86503 0
M  V30 5033 H 506.337 1.71791 -4.65513 0
M  V30 5034 N 505.51 1.54411 -0.315457 0
M  V30 5035 C 506.46 2.20772 0.569549 0
M  V30 5036 C 507.444 1.18551 1.08787 0
M  V30 5037 O 508.636 1.44213 1.02624 0
M  V30 5038 C 505.765 2.96293 1.73394 0
M  V30 5039 C 504.851 4.05844 1.2309 0
M  V30 5040 N 505.242 5.03822 0.446927 0
M  V30 5041 C 503.54 4.19648 1.51035 0
M  V30 5042 C 504.241 5.8143 0.17725 0
M  V30 5043 N 503.217 5.38245 0.761118 0
M  V30 5044 H 507.019 2.93877 -0.0368076 0
M  V30 5045 H 504.533 1.61949 -0.120915 0
M  V30 5046 H 506.53 3.42313 2.37965 0
M  V30 5047 H 505.19 2.24708 2.34386 0
M  V30 5048 H 506.201 5.17821 0.0905027 0
M  V30 5049 H 502.878 3.59274 2.1267 0
M  V30 5050 H 504.268 6.70369 -0.45335 0
M  V30 5051 N 506.988 0.0434614 1.5754 0
M  V30 5052 C 508.213 -0.645358 1.97104 0
M  V30 5053 C 508.638 -1.64037 0.920521 0
M  V30 5054 O 507.996 -1.80922 -0.11708 0
M  V30 5055 C 508.044 -1.31547 3.35749 0
M  V30 5056 O 507.148 -2.43103 3.33129 0
M  V30 5057 H 506.489 -0.168403 0.64229 0
M  V30 5058 H 509.019 0.109573 2.04306 0
M  V30 5059 H 509.029 -1.66895 3.72304 0
M  V30 5060 H 507.704 -0.586205 4.11748 0
M  V30 5061 H 506.281 -2.0976 3.0831 0
M  V30 5062 N 508.466 -1.55915 -0.229846 0
M  V30 5063 C 509.429 -1.90914 -1.26824 0
M  V30 5064 C 510.429 -0.786999 -1.40225 0
M  V30 5065 O 511.619 -1.05484 -1.38632 0
M  V30 5066 C 508.751 -2.15264 -2.64337 0
M  V30 5067 H 509.944 -2.8378 -0.969998 0
M  V30 5068 H 507.497 -1.49069 -0.4699 0
M  V30 5069 H 508.232 -1.24923 -2.99274 0
M  V30 5070 H 508.017 -2.97005 -2.55989 0
M  V30 5071 H 509.507 -2.43467 -3.39284 0
M  V30 5072 N 509.944 0.496216 -1.49584 0
M  V30 5073 C 511.172 1.27394 -1.63029 0
M  V30 5074 C 511.587 1.86344 -0.303569 0
M  V30 5075 O 510.944 1.68057 0.711547 0
M  V30 5076 C 510.995 2.40077 -2.70269 0
M  V30 5077 O 510.716 1.83549 -3.97796 0
M  V30 5078 C 512.217 3.31372 -2.94462 0
M  V30 5079 H 509.437 0.386211 -0.54871 0
M  V30 5080 H 511.981 0.595163 -1.95648 0
M  V30 5081 H 510.136 3.03775 -2.40415 0
M  V30 5082 H 510.55 2.57561 -4.56905 0
M  V30 5083 H 512.024 4.06707 -3.73221 0
M  V30 5084 H 512.501 3.88654 -2.0456 0
M  V30 5085 H 513.107 2.73435 -3.25751 0
M  V30 5086 N 511.423 1.38739 0.74761 0
M  V30 5087 C 512.371 1.36573 1.88283 0
M  V30 5088 C 513.365 0.250712 1.67534 0
M  V30 5089 O 514.571 0.420073 1.7503 0
M  V30 5090 H 510.946 0.42619 0.619569 0
M  V30 5091 H 512.917 2.32356 1.87226 0
M  V30 5092 C 511.666 1.21361 3.25832 0
M  V30 5093 H 510.989 2.06424 3.42388 0
M  V30 5094 H 512.429 1.23901 4.05493 0
M  V30 5095 C 510.888 -0.0790099 3.36807 0
M  V30 5096 O 511.418 -1.05385 3.8763 0
M  V30 5097 N 509.624 -0.13785 2.90273 0
M  V30 5098 H 509.171 0.656128 2.49104 0
M  V30 5099 H 509.129 -1.00228 2.97996 0
M  V30 5100 N 512.901 -0.976442 1.23707 0
M  V30 5101 C 513.833 -2.07212 0.979574 0
M  V30 5102 C 514.846 -1.6273 -0.0478528 0
M  V30 5103 O 516.035 -1.77506 0.18815 0
M  V30 5104 C 513.135 -3.35835 0.45479 0
M  V30 5105 C 512.308 -4.09268 1.54331 0
M  V30 5106 C 511.367 -5.16166 1.02271 0
M  V30 5107 O 510.393 -5.42827 1.71254 0
M  V30 5108 N 511.595 -5.80313 -0.147419 0
M  V30 5109 H 514.36 -2.29878 1.92292 0
M  V30 5110 H 511.921 -1.14343 1.14618 0
M  V30 5111 H 513.913 -4.04597 0.0914631 0
M  V30 5112 H 512.483 -3.10106 -0.394068 0
M  V30 5113 H 511.703 -3.34906 2.07923 0
M  V30 5114 H 512.991 -4.55095 2.27522 0
M  V30 5115 H 512.389 -5.61043 -0.724353 0
M  V30 5116 H 510.946 -6.50231 -0.451972 0
M  V30 5117 N 514.379 -1.04941 -1.1758 0
M  V30 5118 C 515.311 -0.606174 -2.21039 0
M  V30 5119 C 516.324 0.328763 -1.59446 0
M  V30 5120 O 517.513 0.121895 -1.78083 0
M  V30 5121 C 514.613 0.133294 -3.38638 0
M  V30 5122 C 513.786 -0.811711 -4.29802 0
M  V30 5123 C 512.845 -0.113958 -5.26077 0
M  V30 5124 O 511.871 -0.747237 -5.64274 0
M  V30 5125 N 513.073 1.14953 -5.69004 0
M  V30 5126 H 515.838 -1.49606 -2.59689 0
M  V30 5127 H 513.399 -0.930997 -1.32454 0
M  V30 5128 H 515.391 0.610144 -4.00074 0
M  V30 5129 H 513.961 0.924816 -2.98607 0
M  V30 5130 H 513.181 -1.46824 -3.65837 0
M  V30 5131 H 514.469 -1.45326 -4.87604 0
M  V30 5132 H 513.867 1.68441 -5.40041 0
M  V30 5133 H 512.424 1.57049 -6.32597 0
M  V30 5134 N 515.857 1.33968 -0.830081 0
M  V30 5135 C 517.103 1.98773 -0.431394 0
M  V30 5136 C 517.458 1.64598 0.99626 0
M  V30 5137 O 516.751 0.911022 1.68555 0
M  V30 5138 C 516.945 3.52679 -0.57898 0
M  V30 5139 C 516.774 4.01807 -2.01943 0
M  V30 5140 C 515.544 4.30062 -2.65282 0
M  V30 5141 C 517.742 4.18663 -2.98707 0
M  V30 5142 N 515.724 4.65272 -4.00493 0
M  V30 5143 C 517.095 4.57133 -4.18843 0
M  V30 5144 C 519.15 4.00929 -2.95229 0
M  V30 5145 C 517.853 4.79723 -5.35965 0
M  V30 5146 C 519.879 4.2469 -4.11573 0
M  V30 5147 C 519.241 4.63454 -5.30462 0
M  V30 5148 H 515.34 0.75435 -0.206107 0
M  V30 5149 H 517.924 1.62247 -1.07629 0
M  V30 5150 H 516.095 3.88383 0.0360632 0
M  V30 5151 H 517.827 4.04412 -0.152596 0
M  V30 5152 H 514.582 4.21231 -2.16475 0
M  V30 5153 H 515.006 4.87101 -4.70172 0
M  V30 5154 H 519.648 3.70082 -2.04448 0
M  V30 5155 H 517.366 5.09434 -6.27297 0
M  V30 5156 H 520.952 4.12497 -4.10289 0
M  V30 5157 H 519.832 4.81476 -6.18992 0
M  V30 5158 N 517.335 0.585699 1.46312 0
M  V30 5159 C 518.563 0.0781299 2.06752 0
M  V30 5160 C 518.978 -1.22812 1.43396 0
M  V30 5161 O 518.335 -1.74318 0.540314 0
M  V30 5162 C 518.386 -0.0911927 3.61385 0
M  V30 5163 O 518.107 1.16336 4.22371 0
M  V30 5164 C 519.608 -0.632765 4.38761 0
M  V30 5165 H 516.828 0.0588188 0.668417 0
M  V30 5166 H 519.372 0.807218 1.87894 0
M  V30 5167 H 517.527 -0.770514 3.7966 0
M  V30 5168 H 517.941 0.979082 5.15281 0
M  V30 5169 H 519.415 -0.70041 5.47538 0
M  V30 5170 H 519.892 -1.65039 4.07012 0
M  V30 5171 H 520.498 0.0117856 4.25298 0
M  V30 5172 N 518.813 -1.54241 0.323641 0
M  V30 5173 C 520.043 -2.04687 -0.280464 0
M  V30 5174 C 520.451 -1.19939 -1.46326 0
M  V30 5175 O 519.794 -0.222872 -1.82343 0
M  V30 5176 C 519.856 -3.50978 -0.778123 0
M  V30 5177 C 519.52 -4.56127 0.282371 0
M  V30 5178 C 520.517 -5.07726 1.11847 0
M  V30 5179 C 518.202 -5.00451 0.430582 0
M  V30 5180 C 520.196 -6.02212 2.08851 0
M  V30 5181 C 517.883 -5.94752 1.40404 0
M  V30 5182 C 518.881 -6.45519 2.23147 0
M  V30 5183 O 518.569 -7.37968 3.1884 0
M  V30 5184 H 518.301 -0.673192 -0.0615473 0
M  V30 5185 H 520.855 -1.99999 0.467921 0
M  V30 5186 H 519.085 -3.53064 -1.57742 0
M  V30 5187 H 520.774 -3.84499 -1.30058 0
M  V30 5188 H 521.54 -4.74261 1.01496 0
M  V30 5189 H 517.419 -4.6055 -0.203569 0
M  V30 5190 H 520.963 -6.41761 2.73474 0
M  V30 5191 H 516.86 -6.27633 1.5082 0
M  V30 5192 H 517.628 -7.55841 3.14079 0
M  V30 5193 N 520.291 -0.0518155 -1.57515 0
M  V30 5194 C 521.519 0.631395 -1.9703 0
M  V30 5195 C 521.934 1.64341 -0.92938 0
M  V30 5196 O 521.291 1.82296 0.0863266 0
M  V30 5197 C 521.342 1.31774 -3.36627 0
M  V30 5198 O 521.063 0.346247 -4.3673 0
M  V30 5199 C 522.564 2.09065 -3.90905 0
M  V30 5200 H 519.784 0.172576 -0.648428 0
M  V30 5201 H 522.328 -0.118306 -2.04158 0
M  V30 5202 H 520.483 2.01867 -3.30649 0
M  V30 5203 H 520.897 0.836226 -5.17791 0
M  V30 5204 H 522.371 2.52508 -4.9086 0
M  V30 5205 H 522.848 2.93908 -3.26366 0
M  V30 5206 H 523.454 1.43882 -4.00223 0
M  V30 5207 N 521.769 1.56035 0.221574 0
M  V30 5208 C 523.046 1.69837 0.970301 0
M  V30 5209 C 523.426 0.599065 2.02421 0
M  V30 5210 O 522.774 -0.393929 2.25079 0
M  V30 5211 C 522.984 3.11148 1.58076 0
M  V30 5212 C 524.332 3.70555 2.07302 0
M  V30 5213 O 525.356 3.14109 1.6797 0
M  V30 5214 O 524.215 4.69562 2.79596 0
M  V30 5215 H 521.309 0.691727 0.453257 0
M  V30 5216 H 523.855 1.68353 0.213358 0
M  V30 5217 H 522.627 3.82617 0.819759 0
M  V30 5218 H 522.25 3.16749 2.40324 0
M  V30 5219 N 523.247 -0.488276 1.49845 0
M  V30 5220 C 524.21 -1.57069 1.66919 0
M  V30 5221 C 525.21 -1.51445 0.540479 0
M  V30 5222 O 526.4 -1.5437 0.807188 0
M  V30 5223 C 523.532 -2.96718 1.67844 0
M  V30 5224 H 524.725 -1.43254 2.63474 0
M  V30 5225 H 522.278 -0.713435 1.39068 0
M  V30 5226 H 523.013 -3.15996 0.7292 0
M  V30 5227 H 522.798 -3.02208 2.49826 0
M  V30 5228 H 524.288 -3.75335 1.83066 0
M  V30 5229 N 524.725 -1.39134 -0.740242 0
M  V30 5230 C 525.973 -1.35803 -1.49673 0
M  V30 5231 C 526.294 0.0470897 -1.94943 0
M  V30 5232 O 525.564 0.997347 -1.68611 0
M  V30 5233 H 524.144 -0.499736 -0.555224 0
M  V30 5234 H 526.806 -1.73947 -0.879107 0
M  V30 5235 H 525.902 -2.0174 -2.38133 0
M  V30 5236 N 526.204 0.969867 -1.24223 0
M  V30 5237 C 527.114 2.09806 -1.0497 0
M  V30 5238 C 528.13 1.73998 0.00886455 0
M  V30 5239 O 529.306 2.00513 -0.188848 0
M  V30 5240 C 526.371 3.40467 -0.654452 0
M  V30 5241 C 525.432 3.90236 -1.78926 0
M  V30 5242 C 524.665 5.14662 -1.41277 0
M  V30 5243 O 524.888 5.69602 -0.301632 0
M  V30 5244 O 523.822 5.58761 -2.23763 0
M  V30 5245 H 527.648 2.28942 -1.99548 0
M  V30 5246 H 525.233 1.08197 -1.03023 0
M  V30 5247 H 527.115 4.19039 -0.445452 0
M  V30 5248 H 525.79 3.22636 0.262216 0
M  V30 5249 H 524.697 3.12735 -2.05299 0
M  V30 5250 H 526.03 4.1254 -2.68462 0
M  V30 5251 N 527.682 1.05563 1.17022 0
M  V30 5252 C 528.612 0.681026 2.23348 0
M  V30 5253 C 529.593 -0.322983 1.67005 0
M  V30 5254 O 530.778 -0.199746 1.9317 0
M  V30 5255 C 527.908 0.0589053 3.4725 0
M  V30 5256 C 526.862 0.988082 4.16438 0
M  V30 5257 C 526.188 0.229646 5.34207 0
M  V30 5258 C 527.488 2.31388 4.68249 0
M  V30 5259 H 529.182 1.56993 2.54938 0
M  V30 5260 H 526.728 0.756302 1.2254 0
M  V30 5261 H 528.681 -0.214982 4.20851 0
M  V30 5262 H 527.405 -0.864968 3.14938 0
M  V30 5263 H 526.064 1.24659 3.44754 0
M  V30 5264 H 525.712 -0.697111 4.98146 0
M  V30 5265 H 525.412 0.848815 5.81437 0
M  V30 5266 H 526.936 -0.0368694 6.10589 0
M  V30 5267 H 528.35 2.09964 5.33468 0
M  V30 5268 H 526.747 2.88736 5.26072 0
M  V30 5269 H 527.817 2.94982 3.84855 0
M  V30 5270 N 529.16 -1.33526 0.837174 0
M  V30 5271 C 530.576 -1.50727 0.524743 0
M  V30 5272 C 530.776 -1.77792 -0.948279 0
M  V30 5273 O 529.832 -1.83719 -1.73216 0
M  V30 5274 C 531.145 -2.66299 1.39661 0
M  V30 5275 C 532.693 -2.80183 1.39521 0
M  V30 5276 C 533.168 -3.98815 2.25189 0
M  V30 5277 N 534.659 -4.06047 2.2289 0
M  V30 5278 C 535.394 -4.97032 2.85915 0
M  V30 5279 N 534.89 -5.93143 3.57985 0
M  V30 5280 N 536.683 -4.90015 2.75394 0
M  V30 5281 H 528.834 -1.1422 1.79074 0
M  V30 5282 H 531.097 -0.561399 0.763894 0
M  V30 5283 H 530.803 -2.52974 2.4433 0
M  V30 5284 H 530.677 -3.61663 1.07145 0
M  V30 5285 H 533.064 -2.92942 0.356253 0
M  V30 5286 H 533.145 -1.85586 1.76044 0
M  V30 5287 H 532.789 -3.86817 3.29143 0
M  V30 5288 H 532.719 -4.92654 1.86009 0
M  V30 5289 H 535.21 -3.37262 1.70478 0
M  V30 5290 H 535.523 -6.59227 4.03286 0
M  V30 5291 H 533.868 -5.93223 3.62093 0
M  V30 5292 H 537.059 -4.13894 2.18654 0
M  V30 5293 H 537.232 -5.60724 3.24796 0
M  V30 5294 N 530.638 -0.59345 -1.46 0
M  V30 5295 C 531.884 -0.0832754 -2.02629 0
M  V30 5296 C 532.217 1.27749 -1.46266 0
M  V30 5297 O 531.492 1.8395 -0.631866 0
M  V30 5298 C 531.775 -0.0290756 -3.60088 0
M  V30 5299 C 531.628 -1.41951 -4.26814 0
M  V30 5300 C 532.947 0.666055 -4.35031 0
M  V30 5301 H 530.066 -0.031736 -0.736316 0
M  V30 5302 H 532.708 -0.762711 -1.74019 0
M  V30 5303 H 530.858 0.549532 -3.84594 0
M  V30 5304 H 532.53 -2.04411 -4.13538 0
M  V30 5305 H 530.773 -1.98422 -3.8576 0
M  V30 5306 H 531.444 -1.33395 -5.3564 0
M  V30 5307 H 533.92 0.174401 -4.15734 0
M  V30 5308 H 532.796 0.673041 -5.44758 0
M  V30 5309 H 533.057 1.72946 -4.06869 0
M  V30 5310 N 532.116 1.54067 -0.331816 0
M  V30 5311 C 533.346 2.04833 0.269605 0
M  V30 5312 C 533.754 1.20714 1.45687 0
M  V30 5313 O 533.097 0.232539 1.82222 0
M  V30 5314 C 533.159 3.51386 0.759499 0
M  V30 5315 C 532.823 4.55971 -0.306557 0
M  V30 5316 C 533.82 5.07126 -1.14538 0
M  V30 5317 C 531.505 5.00216 -0.457116 0
M  V30 5318 C 533.499 6.01096 -2.12042 0
M  V30 5319 C 531.186 5.93999 -1.43556 0
M  V30 5320 C 532.184 6.44326 -2.26568 0
M  V30 5321 O 531.872 7.36267 -3.22749 0
M  V30 5322 H 531.604 0.673509 0.0579763 0
M  V30 5323 H 534.158 1.99748 -0.478521 0
M  V30 5324 H 532.388 3.53896 1.55867 0
M  V30 5325 H 534.077 3.85184 1.28017 0
M  V30 5326 H 534.843 4.73716 -1.04009 0
M  V30 5327 H 530.722 4.60652 0.179142 0
M  V30 5328 H 534.266 6.40302 -2.76873 0
M  V30 5329 H 530.163 6.26825 -1.54146 0
M  V30 5330 H 530.931 7.54165 -3.18083 0
M  V30 5331 N 533.594 0.0601682 1.57485 0
M  V30 5332 C 534.842 -0.610386 1.92662 0
M  V30 5333 C 535.163 -1.70849 0.939981 0
M  V30 5334 O 534.433 -1.95895 -0.0137455 0
M  V30 5335 H 533.013 -0.228457 0.711208 0
M  V30 5336 H 535.675 0.115288 1.94559 0
M  V30 5337 H 534.771 -1.0432 2.94149 0
M  V30 5338 N 535.072 -1.5615 -0.213296 0
M  V30 5339 C 536.349 -1.70349 -0.961281 0
M  V30 5340 C 536.729 -0.609791 -2.02101 0
M  V30 5341 O 536.077 0.381987 -2.25285 0
M  V30 5342 C 536.287 -3.11982 -1.56424 0
M  V30 5343 C 537.635 -3.71649 -2.05334 0
M  V30 5344 O 538.659 -3.14995 -1.66302 0
M  V30 5345 O 537.518 -4.71038 -2.77102 0
M  V30 5346 H 534.612 -0.694121 -0.449582 0
M  V30 5347 H 537.158 -1.68464 -0.204426 0
M  V30 5348 H 535.93 -3.83046 -0.799457 0
M  V30 5349 H 535.553 -3.18019 -2.38641 0
M  V30 5350 N 536.55 0.480323 -1.50102 0
M  V30 5351 C 537.497 1.57946 -1.6829 0
M  V30 5352 C 538.467 1.57611 -0.524223 0
M  V30 5353 O 539.652 1.75282 -0.753709 0
M  V30 5354 C 536.792 2.95978 -1.77457 0
M  V30 5355 C 535.905 3.06173 -3.04766 0
M  V30 5356 C 535.04 4.35063 -3.04784 0
M  V30 5357 C 534.079 4.38966 -4.26586 0
M  V30 5358 N 533.216 5.59314 -4.24396 0
M  V30 5359 H 538.056 1.41743 -2.62131 0
M  V30 5360 H 535.593 0.689304 -1.2995 0
M  V30 5361 H 537.551 3.76011 -1.80752 0
M  V30 5362 H 536.181 3.10837 -0.870637 0
M  V30 5363 H 535.233 2.19071 -3.10986 0
M  V30 5364 H 536.545 3.04916 -3.9475 0
M  V30 5365 H 535.699 5.23436 -3.06757 0
M  V30 5366 H 534.438 4.38915 -2.12614 0
M  V30 5367 H 533.443 3.48992 -4.24835 0
M  V30 5368 H 534.668 4.36813 -5.19972 0
M  V30 5369 H 532.614 5.63969 -3.35074 0
M  V30 5370 H 532.531 5.5976 -5.08138 0
M  V30 5371 H 533.799 6.49837 -4.30502 0
M  V30 5372 N 538.028 1.39524 0.732853 0
M  V30 5373 C 539.268 1.383 1.50508 0
M  V30 5374 C 539.632 -0.0208271 1.91989 0
M  V30 5375 O 540.833 -0.158091 2.68335 0
M  V30 5376 C 539.104 2.33007 2.71003 0
M  V30 5377 S 540.663 2.49989 3.60626 0
M  V30 5378 H 537.481 0.490417 0.514794 0
M  V30 5379 H 540.083 1.75641 0.858524 0
M  V30 5380 H 538.787 3.33862 2.38672 0
M  V30 5381 H 538.318 1.96889 3.40585 0
M  V30 5382 H 540.333 1.7394 4.64714 0
M  V30 5383 N 539.506 -0.963266 1.24736 0
M  V30 5384 C 540.436 -2.07628 1.06832 0
M  V30 5385 C 541.417 -1.70088 -0.0200566 0
M  V30 5386 O 542.602 -1.93636 0.147854 0
M  V30 5387 C 539.732 -3.40636 0.677069 0
M  V30 5388 C 538.686 -3.9215 1.71471 0
M  V30 5389 C 538.012 -5.21553 1.1784 0
M  V30 5390 C 539.312 -4.19493 3.11164 0
M  V30 5391 H 541.006 -2.22864 1.9993 0
M  V30 5392 H 538.552 -1.07093 0.96266 0
M  V30 5393 H 540.505 -4.17941 0.538792 0
M  V30 5394 H 539.229 -3.25313 -0.289612 0
M  V30 5395 H 537.888 -3.17005 1.84128 0
M  V30 5396 H 537.536 -5.02593 0.202195 0
M  V30 5397 H 537.236 -5.56988 1.87185 0
M  V30 5398 H 538.76 -6.01463 1.05233 0
M  V30 5399 H 540.174 -4.87487 3.01711 0
M  V30 5400 H 538.571 -4.66165 3.77902 0
M  V30 5401 H 539.641 -3.26097 3.58871 0
M  V30 5402 N 540.985 -1.06182 -1.16461 0
M  V30 5403 C 542.262 -0.691364 -1.82974 0
M  V30 5404 C 542.642 0.827377 -1.9421 0
M  V30 5405 O 541.99 1.73723 -1.48434 0
M  V30 5406 C 542.2 -1.39199 -3.20038 0
M  V30 5407 C 543.548 -1.53647 -3.95825 0
M  V30 5408 O 544.572 -1.35181 -3.29552 0
M  V30 5409 O 543.431 -1.83932 -5.14618 0
M  V30 5410 H 540.525 -0.244605 -0.789998 0
M  V30 5411 H 543.071 -1.16203 -1.23673 0
M  V30 5412 H 541.843 -2.42766 -3.06888 0
M  V30 5413 H 541.466 -0.911335 -3.87015 0
M  V30 5414 N 542.463 1.3308 -0.844243 0
M  V30 5415 C 543.426 2.27403 -0.286485 0
M  V30 5416 C 544.426 1.51179 0.547872 0
M  V30 5417 O 545.616 1.70421 0.360886 0
M  V30 5418 C 542.748 3.35653 0.595813 0
M  V30 5419 H 543.941 2.78248 -1.11885 0
M  V30 5420 H 541.494 1.43574 -0.617749 0
M  V30 5421 H 542.229 2.90058 1.4504 0
M  V30 5422 H 542.014 3.921 -0.00125994 0
M  V30 5423 H 543.504 4.05958 0.979168 0
M  V30 5424 N 543.941 0.601185 1.45683 0
M  V30 5425 C 544.904 -0.111398 2.28929 0
M  V30 5426 C 545.904 -0.801246 1.39416 0
M  V30 5427 O 547.094 -0.650383 1.61603 0
M  V30 5428 C 544.226 -1.16773 3.20276 0
M  V30 5429 H 545.419 0.620412 2.93413 0
M  V30 5430 H 542.972 0.359946 1.52099 0
M  V30 5431 H 543.707 -1.93051 2.60579 0
M  V30 5432 H 543.492 -0.677358 3.86205 0
M  V30 5433 H 544.982 -1.66698 3.82886 0
M  V30 5434 N 545.419 -1.53889 0.339982 0
M  V30 5435 C 546.667 -2.00458 -0.257112 0
M  V30 5436 C 546.988 -1.22953 -1.51353 0
M  V30 5437 O 546.258 -0.335734 -1.93002 0
M  V30 5438 H 544.838 -0.740544 -0.0979965 0
M  V30 5439 H 547.5 -1.89386 0.460317 0
M  V30 5440 H 546.596 -3.08035 -0.502057 0
M  V30 5441 N 546.897 -0.0685191 -1.57451 0
M  V30 5442 C 548.125 0.610462 -1.97689 0
M  V30 5443 C 548.54 1.63346 -0.946758 0
M  V30 5444 O 547.897 1.82377 0.0669868 0
M  V30 5445 C 547.948 1.28196 -3.38006 0
M  V30 5446 O 547.669 0.299906 -4.37072 0
M  V30 5447 C 549.17 2.04907 -3.931 0
M  V30 5448 H 546.39 0.165689 -0.650222 0
M  V30 5449 H 548.934 -0.139953 -2.04021 0
M  V30 5450 H 547.089 1.98348 -3.32771 0
M  V30 5451 H 547.503 0.78126 -5.18649 0
M  V30 5452 H 548.977 2.47287 -4.93511 0
M  V30 5453 H 549.454 2.9043 -3.29465 0
M  V30 5454 H 550.06 1.39629 -4.01726 0
M  V30 5455 N 548.375 1.56261 0.205012 0
M  V30 5456 C 549.623 1.79684 0.925096 0
M  V30 5457 C 549.944 0.63989 1.84202 0
M  V30 5458 O 549.214 -0.342345 1.92885 0
M  V30 5459 H 547.794 0.662774 0.344587 0
M  V30 5460 H 550.456 1.93734 0.212899 0
M  V30 5461 H 549.552 2.72467 1.52211 0
M  V30 5462 N 549.853 -0.472356 1.50355 0
M  V30 5463 C 550.801 -1.59126 1.69651 0
M  V30 5464 C 551.795 -1.59793 0.56237 0
M  V30 5465 O 553.001 -1.63957 0.742832 0
M  V30 5466 H 549.376 -0.528008 0.535454 0
M  V30 5467 H 551.347 -1.40013 2.63513 0
M  V30 5468 C 550.096 -2.97075 1.8067 0
M  V30 5469 H 549.419 -2.9728 2.67329 0
M  V30 5470 H 550.859 -3.74825 1.98197 0
M  V30 5471 C 549.318 -3.32247 0.558016 0
M  V30 5472 O 549.848 -4.00553 -0.303399 0
M  V30 5473 N 548.054 -2.87659 0.412415 0
M  V30 5474 H 547.601 -2.32246 1.11443 0
M  V30 5475 H 547.559 -3.11556 -0.421908 0
M  V30 5476 N 551.331 -1.39911 -0.725443 0
M  V30 5477 C 552.579 -1.37382 -1.48224 0
M  V30 5478 C 552.9 0.0264107 -1.94982 0
M  V30 5479 O 552.17 0.979408 -1.6966 0
M  V30 5480 H 550.75 -0.505596 -0.549892 0
M  V30 5481 H 553.412 -1.7487 -0.860608 0
M  V30 5482 H 552.508 -2.04254 -2.3598 0
M  V30 5483 N 552.809 0.956637 -1.25245 0
M  V30 5484 C 554.037 1.73571 -1.12608 0
M  V30 5485 C 554.452 1.86063 0.320324 0
M  V30 5486 O 553.809 1.35691 1.22042 0
M  V30 5487 C 553.86 3.15053 -1.77268 0
M  V30 5488 O 553.581 3.03174 -3.16255 0
M  V30 5489 C 555.082 4.09248 -1.70386 0
M  V30 5490 H 552.302 0.543955 -0.392879 0
M  V30 5491 H 554.846 1.20031 -1.65568 0
M  V30 5492 H 553.001 3.65543 -1.28284 0
M  V30 5493 H 553.415 3.9241 -3.48015 0
M  V30 5494 H 554.889 5.06138 -2.20291 0
M  V30 5495 H 555.366 4.34102 -0.667239 0
M  V30 5496 H 555.972 3.64672 -2.18849 0
M  V30 5497 N 554.287 1.06798 1.15896 0
M  V30 5498 C 555.234 0.683314 2.20453 0
M  V30 5499 C 556.204 -0.32255 1.62938 0
M  V30 5500 O 557.389 -0.210276 1.89638 0
M  V30 5501 C 554.529 0.0813266 3.45004 0
M  V30 5502 C 553.642 1.13799 4.16742 0
M  V30 5503 C 552.777 0.501598 5.28826 0
M  V30 5504 C 551.816 1.54144 5.92373 0
M  V30 5505 N 550.953 0.928038 6.9594 0
M  V30 5506 H 555.793 1.57932 2.52708 0
M  V30 5507 H 553.33 0.789544 1.24115 0
M  V30 5508 H 555.288 -0.285274 4.16224 0
M  V30 5509 H 553.918 -0.77806 3.13283 0
M  V30 5510 H 552.97 1.62223 3.44075 0
M  V30 5511 H 554.282 1.92664 4.60089 0
M  V30 5512 H 553.436 0.0823162 6.06644 0
M  V30 5513 H 552.175 -0.318883 4.86656 0
M  V30 5514 H 551.18 1.97056 5.13273 0
M  V30 5515 H 552.405 2.3641 6.36621 0
M  V30 5516 H 550.351 0.12836 6.55874 0
M  V30 5517 H 550.268 1.65401 7.37685 0
M  V30 5518 H 551.536 0.534071 7.77668 0
M  V30 5519 N 555.766 -1.3263 0.851289 0
M  V30 5520 C 557.012 -1.9766 0.453694 0
M  V30 5521 C 557.345 -1.67225 -0.987396 0
M  V30 5522 O 556.62 -0.958693 -1.69232 0
M  V30 5523 C 556.903 -3.5344 0.68936 0
M  V30 5524 C 556.756 -3.93517 2.17862 0
M  V30 5525 C 558.075 -4.39866 0.143555 0
M  V30 5526 H 555.194 -0.717989 0.166314 0
M  V30 5527 H 557.836 -1.57068 1.06909 0
M  V30 5528 H 555.986 -3.88147 0.165546 0
M  V30 5529 H 557.658 -3.69006 2.76826 0
M  V30 5530 H 555.901 -3.42798 2.65841 0
M  V30 5531 H 556.572 -5.02065 2.29422 0
M  V30 5532 H 559.048 -4.11875 0.591451 0
M  V30 5533 H 557.924 -5.47858 0.338043 0
M  V30 5534 H 558.185 -4.31696 -0.953466 0
M  V30 5535 N 557.244 -0.608902 -1.45362 0
M  V30 5536 C 558.176 0.147318 -2.28726 0
M  V30 5537 C 559.189 0.830468 -1.40025 0
M  V30 5538 O 560.378 0.695636 -1.64387 0
M  V30 5539 C 557.478 1.22968 -3.15804 0
M  V30 5540 C 556.651 0.633391 -4.3279 0
M  V30 5541 C 555.71 1.60682 -5.01067 0
M  V30 5542 O 554.736 1.13261 -5.57818 0
M  V30 5543 N 555.938 2.94123 -5.00472 0
M  V30 5544 H 558.703 -0.568014 -2.94268 0
M  V30 5545 H 556.264 -0.448479 -1.55564 0
M  V30 5546 H 558.256 1.88072 -3.58345 0
M  V30 5547 H 556.826 1.84752 -2.52162 0
M  V30 5548 H 556.046 -0.195762 -3.93714 0
M  V30 5549 H 557.334 0.215255 -5.08344 0
M  V30 5550 H 556.732 3.3525 -4.55657 0
M  V30 5551 H 555.289 3.54646 -5.46872 0
M  V30 5552 N 558.722 1.53707 -0.348139 0
M  V30 5553 C 559.971 2.0017 0.247992 0
M  V30 5554 C 560.284 1.23983 1.51286 0
M  V30 5555 O 561.49 1.60946 2.18652 0
M  V30 5556 C 559.946 3.56515 0.492459 0
M  V30 5557 C 559.554 4.41562 -0.756777 0
M  V30 5558 C 561.298 4.11381 1.0472 0
M  V30 5559 C 559.205 5.89426 -0.482856 0
M  V30 5560 H 558.135 0.747806 0.0964452 0
M  V30 5561 H 560.786 1.77532 -0.464179 0
M  V30 5562 H 559.168 3.75236 1.26545 0
M  V30 5563 H 560.342 4.34615 -1.53122 0
M  V30 5564 H 558.657 3.97711 -1.23348 0
M  V30 5565 H 561.254 5.19468 1.26717 0
M  V30 5566 H 561.597 3.64885 2.00411 0
M  V30 5567 H 562.13 3.96389 0.334801 0
M  V30 5568 H 558.869 6.40164 -1.40962 0
M  V30 5569 H 558.389 5.99264 0.253416 0
M  V30 5570 H 560.068 6.4692 -0.101816 0
M  V30 5571 N 560.2 0.0768682 1.57412 0
M  V30 5572 C 561.43 -0.5991 1.97723 0
M  V30 5573 C 561.838 -1.63378 0.954166 0
M  V30 5574 O 561.181 -1.83578 -0.0668706 0
M  V30 5575 C 561.243 -1.32078 3.34358 0
M  V30 5576 C 560.907 -0.438985 4.54887 0
M  V30 5577 C 561.904 0.305492 5.19002 0
M  V30 5578 C 559.589 -0.362378 5.00991 0
M  V30 5579 C 561.583 1.11475 6.27576 0
M  V30 5580 C 559.27 0.450543 6.09437 0
M  V30 5581 C 560.268 1.18777 6.72593 0
M  V30 5582 O 559.956 1.98727 7.7895 0
M  V30 5583 H 559.688 -0.166725 0.655117 0
M  V30 5584 H 562.242 0.147337 2.04871 0
M  V30 5585 H 560.472 -2.1134 3.2384 0
M  V30 5586 H 562.161 -1.88949 3.5924 0
M  V30 5587 H 562.927 0.25593 4.84324 0
M  V30 5588 H 558.806 -0.925832 4.51608 0
M  V30 5589 H 562.35 1.69068 6.76803 0
M  V30 5590 H 558.247 0.501651 6.43548 0
M  V30 5591 H 559.015 1.91214 7.95851 0
M  V30 5592 N 561.678 -1.56367 -0.196722 0
M  V30 5593 C 562.903 -1.84991 -0.937714 0
M  V30 5594 C 563.328 -0.660244 -1.76132 0
M  V30 5595 O 562.686 0.390967 -1.77034 0
M  V30 5596 C 562.734 -3.11828 -1.81096 0
M  V30 5597 O 561.838 -2.92266 -2.90955 0
M  V30 5598 H 561.179 -0.609193 -0.264159 0
M  V30 5599 H 563.709 -2.03595 -0.202529 0
M  V30 5600 H 563.719 -3.42579 -2.21594 0
M  V30 5601 H 562.394 -3.98037 -1.2058 0
M  V30 5602 H 560.971 -2.72809 -2.54224 0
M  V30 5603 N 563.156 0.464375 -1.50603 0
M  V30 5604 C 564.396 1.22573 -1.6357 0
M  V30 5605 C 564.76 1.89111 -0.331834 0
M  V30 5606 O 565.961 2.66679 -0.336999 0
M  V30 5607 C 564.232 2.23643 -2.7878 0
M  V30 5608 S 565.791 3.08628 -3.1192 0
M  V30 5609 H 562.609 0.416058 -0.576556 0
M  V30 5610 H 565.211 0.521637 -1.88412 0
M  V30 5611 H 563.915 1.73354 -3.7199 0
M  V30 5612 H 563.446 2.98672 -2.56044 0
M  V30 5613 H 565.461 4.24904 -2.56264 0
M  V30 5614 N 564.634 1.40294 0.718013 0
M  V30 5615 C 565.88 1.39648 1.47885 0
M  V30 5616 C 566.235 -0.0023879 1.924 0
M  V30 5617 O 565.528 -0.972304 1.65096 0
M  V30 5618 C 565.722 2.31814 2.72024 0
M  V30 5619 C 565.551 3.80523 2.3965 0
M  V30 5620 C 564.321 4.49351 2.3111 0
M  V30 5621 C 566.519 4.72077 2.04079 0
M  V30 5622 N 564.501 5.83305 1.91385 0
M  V30 5623 C 565.872 5.94809 1.74935 0
M  V30 5624 C 567.927 4.59935 1.90694 0
M  V30 5625 C 566.63 7.06755 1.33753 0
M  V30 5626 C 568.656 5.7182 1.50915 0
M  V30 5627 C 568.018 6.93637 1.22668 0
M  V30 5628 H 564.117 0.566263 0.539324 0
M  V30 5629 H 566.701 1.75986 0.832891 0
M  V30 5630 H 564.872 1.97607 3.34374 0
M  V30 5631 H 566.604 2.22042 3.38348 0
M  V30 5632 H 563.359 4.03002 2.4877 0
M  V30 5633 H 563.783 6.54239 1.74068 0
M  V30 5634 H 568.425 3.66274 2.11194 0
M  V30 5635 H 566.143 8.00302 1.11995 0
M  V30 5636 H 569.729 5.64421 1.4114 0
M  V30 5637 H 568.609 7.78743 0.923502 0
M  V30 5638 N 566.112 -0.949982 1.2575 0
M  V30 5639 C 567.36 -1.6918 1.10555 0
M  V30 5640 C 567.681 -1.91773 -0.353298 0
M  V30 5641 O 566.951 -1.50814 -1.25027 0
M  V30 5642 H 565.531 -0.626952 0.406129 0
M  V30 5643 H 568.193 -1.1419 1.57945 0
M  V30 5644 H 567.289 -2.66915 1.61749 0
M  V30 5645 N 567.59 -1.07411 -1.15328 0
M  V30 5646 C 568.838 -0.796073 -1.85761 0
M  V30 5647 C 569.159 0.679864 -1.82764 0
M  V30 5648 O 568.429 1.49242 -1.269 0
M  V30 5649 H 567.009 -0.291495 -0.687779 0
M  V30 5650 H 569.671 -1.35799 -1.39802 0
M  V30 5651 H 568.767 -1.13114 -2.90881 0
M  V30 5652 N 569.068 1.32177 -0.85831 0
M  V30 5653 C 570.345 1.91781 -0.384624 0
M  V30 5654 C 570.725 1.78171 1.13217 0
M  V30 5655 O 570.073 1.18209 1.95548 0
M  V30 5656 C 570.283 3.38414 -0.853047 0
M  V30 5657 C 571.631 4.15542 -0.872359 0
M  V30 5658 O 572.655 3.47148 -0.797926 0
M  V30 5659 O 571.514 5.37678 -0.978009 0
M  V30 5660 H 568.608 0.819259 -0.112886 0
M  V30 5661 H 571.154 1.40923 -0.945453 0
M  V30 5662 H 569.926 3.4228 -1.89632 0
M  V30 5663 H 569.549 3.96683 -0.269874 0
M  V30 5664 N 570.547 0.616602 1.45037 0
M  V30 5665 C 571.495 -0.109318 2.32343 0
M  V30 5666 C 572.489 -0.850543 1.465 0
M  V30 5667 O 573.695 -0.765088 1.62931 0
M  V30 5668 H 570.07 -0.0541091 0.750051 0
M  V30 5669 H 572.041 0.645326 2.91338 0
M  V30 5670 C 570.79 -1.0872 3.30266 0
M  V30 5671 H 570.113 -0.526267 3.96321 0
M  V30 5672 H 571.553 -1.56489 3.94065 0
M  V30 5673 C 570.012 -2.16525 2.58105 0
M  V30 5674 O 570.542 -3.244 2.36913 0
M  V30 5675 N 568.748 -1.92057 2.18088 0
M  V30 5676 H 568.295 -1.04337 2.35524 0
M  V30 5677 H 568.253 -2.64391 1.70131 0
M  V30 5678 N 572.025 -1.5352 0.356285 0
M  V30 5679 C 572.957 -2.23009 -0.529127 0
M  V30 5680 C 573.97 -1.241 -1.05371 0
M  V30 5681 O 575.159 -1.50379 -0.961679 0
M  V30 5682 C 572.259 -2.90685 -1.74229 0
M  V30 5683 C 571.432 -4.16019 -1.35081 0
M  V30 5684 C 570.491 -4.66989 -2.42502 0
M  V30 5685 O 569.517 -5.30895 -2.05279 0
M  V30 5686 N 570.719 -4.44006 -3.7395 0
M  V30 5687 H 573.484 -2.99627 0.0660501 0
M  V30 5688 H 571.045 -1.60885 0.181014 0
M  V30 5689 H 573.037 -3.21695 -2.4555 0
M  V30 5690 H 571.607 -2.17575 -2.24454 0
M  V30 5691 H 570.827 -3.91414 -0.467833 0
M  V30 5692 H 572.115 -4.9752 -1.06542 0
M  V30 5693 H 571.513 -3.92924 -4.06973 0
M  V30 5694 H 570.07 -4.7959 -4.41403 0
M  V30 5695 N 573.503 -0.0852151 -1.57369 0
M  V30 5696 C 574.45 0.877268 -2.13478 0
M  V30 5697 C 575.42 1.28642 -1.05073 0
M  V30 5698 O 576.605 1.36992 -1.32808 0
M  V30 5699 C 573.745 2.13464 -2.71159 0
M  V30 5700 C 572.858 1.77691 -3.93764 0
M  V30 5701 C 571.993 2.98139 -4.39643 0
M  V30 5702 C 571.032 2.58447 -5.54862 0
M  V30 5703 N 570.169 3.71698 -5.95639 0
M  V30 5704 H 575.009 0.391933 -2.95411 0
M  V30 5705 H 572.546 0.181796 -1.45972 0
M  V30 5706 H 574.504 2.87086 -3.02717 0
M  V30 5707 H 573.134 2.59514 -1.91969 0
M  V30 5708 H 572.186 0.940768 -3.68583 0
M  V30 5709 H 573.498 1.44497 -4.77412 0
M  V30 5710 H 572.652 3.80026 -4.72933 0
M  V30 5711 H 571.391 3.34536 -3.54876 0
M  V30 5712 H 570.396 1.74984 -5.21211 0
M  V30 5713 H 571.621 2.23205 -6.41371 0
M  V30 5714 H 569.567 4.07831 -5.13819 0
M  V30 5715 H 569.484 3.42317 -6.74059 0
M  V30 5716 H 570.752 4.54123 -6.33555 0
M  V30 5717 N 574.981 1.5647 0.188427 0
M  V30 5718 C 576.227 1.82181 0.904534 0
M  V30 5719 C 576.582 0.663258 1.80606 0
M  V30 5720 O 575.875 -0.341231 1.88537 0
M  V30 5721 C 576.069 3.11596 1.7505 0
M  V30 5722 C 575.898 4.39928 0.932372 0
M  V30 5723 C 574.668 5.01554 0.61417 0
M  V30 5724 C 576.866 5.13527 0.281936 0
M  V30 5725 N 574.848 6.13499 -0.221896 0
M  V30 5726 C 576.219 6.18603 -0.416037 0
M  V30 5727 C 578.274 4.97505 0.198345 0
M  V30 5728 C 576.977 7.09394 -1.18965 0
M  V30 5729 C 579.003 5.88725 -0.561887 0
M  V30 5730 C 578.365 6.93251 -1.24828 0
M  V30 5731 H 574.464 0.717858 0.310168 0
M  V30 5732 H 577.048 1.93932 0.172757 0
M  V30 5733 H 575.219 3.01068 2.45383 0
M  V30 5734 H 576.951 3.25369 2.4066 0
M  V30 5735 H 573.706 4.64174 0.940187 0
M  V30 5736 H 574.13 6.74065 -0.629735 0
M  V30 5737 H 578.772 4.16716 0.714665 0
M  V30 5738 H 576.49 7.8964 -1.71737 0
M  V30 5739 H 580.076 5.78401 -0.628009 0
M  V30 5740 H 578.956 7.62618 -1.82712 0
M  V30 5741 N 576.459 -0.456382 1.50847 0
M  V30 5742 C 577.875 -0.791345 1.386 0
M  V30 5743 C 578.075 -1.9633 0.453498 0
M  V30 5744 O 577.131 -2.52308 -0.0984353 0
M  V30 5745 C 578.444 -1.08959 2.80265 0
M  V30 5746 C 579.992 -1.19517 2.89283 0
M  V30 5747 C 580.467 -1.52647 4.31814 0
M  V30 5748 N 581.958 -1.59609 4.34832 0
M  V30 5749 C 582.693 -1.86777 5.42127 0
M  V30 5750 N 582.189 -2.11866 6.59609 0
M  V30 5751 N 583.982 -1.88402 5.29586 0
M  V30 5752 H 576.133 0.315746 2.1004 0
M  V30 5753 H 578.396 0.0787916 0.94472 0
M  V30 5754 H 578.102 -0.301355 3.50407 0
M  V30 5755 H 577.976 -2.02211 3.18419 0
M  V30 5756 H 580.363 -1.97406 2.19351 0
M  V30 5757 H 580.444 -0.242111 2.54652 0
M  V30 5758 H 580.088 -0.752922 5.02288 0
M  V30 5759 H 580.018 -2.49127 4.63943 0
M  V30 5760 H 582.509 -1.42201 3.50125 0
M  V30 5761 H 582.822 -2.31912 7.37182 0
M  V30 5762 H 581.167 -2.09228 6.62758 0
M  V30 5763 H 584.358 -1.68307 4.36795 0
M  V30 5764 H 584.531 -2.09238 6.13289 0
M  V30 5765 N 577.937 -1.40673 -0.710563 0
M  V30 5766 C 578.867 -1.44095 -1.83736 0
M  V30 5767 C 579.848 -0.301286 -1.67411 0
M  V30 5768 O 581.033 -0.510618 -1.87367 0
M  V30 5769 C 578.163 -1.30773 -3.21738 0
M  V30 5770 C 577.117 -2.42395 -3.52745 0
M  V30 5771 C 576.443 -2.14147 -4.89944 0
M  V30 5772 C 577.743 -3.84738 -3.53234 0
M  V30 5773 H 579.437 -2.38396 -1.81129 0
M  V30 5774 H 576.983 -1.14746 -0.870017 0
M  V30 5775 H 578.936 -1.31783 -4.00264 0
M  V30 5776 H 577.66 -0.329507 -3.24934 0
M  V30 5777 H 576.319 -2.40643 -2.76562 0
M  V30 5778 H 575.967 -1.14703 -4.89747 0
M  V30 5779 H 575.667 -2.88934 -5.11655 0
M  V30 5780 H 577.191 -2.16848 -5.70797 0
M  V30 5781 H 578.605 -3.88286 -4.2179 0
M  V30 5782 H 577.002 -4.59085 -3.86473 0
M  V30 5783 H 578.072 -4.13962 -2.52514 0
M  V30 5784 N 579.415 0.9433 -1.26252 0
M  V30 5785 C 580.363 2.06302 -1.07434 0
M  V30 5786 C 581.357 1.694 -0.00189471 0
M  V30 5787 O 582.563 1.79302 -0.158408 0
M  V30 5788 H 578.938 0.675453 -0.330556 0
M  V30 5789 H 580.909 2.19326 -2.02333 0
M  V30 5790 C 579.658 3.40125 -0.721817 0
M  V30 5791 H 578.981 3.68996 -1.5389 0
M  V30 5792 H 580.421 4.19295 -0.629922 0
M  V30 5793 C 578.88 3.31993 0.572902 0
M  V30 5794 O 579.41 3.67945 1.61182 0
M  V30 5795 N 577.616 2.85099 0.562748 0
M  V30 5796 H 577.163 2.5604 -0.283092 0
M  V30 5797 H 577.121 2.80041 1.42915 0
M  V30 5798 N 580.893 1.08022 1.14757 0
M  V30 5799 C 582.118 0.82895 1.90114 0
M  V30 5800 C 582.543 -0.612772 1.77839 0
M  V30 5801 O 581.901 -1.42895 1.11583 0
M  V30 5802 C 581.949 1.25062 3.38219 0
M  V30 5803 O 581.053 0.400119 4.10454 0
M  V30 5804 H 580.394 0.301412 0.591648 0
M  V30 5805 H 582.924 1.44062 1.45284 0
M  V30 5806 H 582.934 1.22977 3.89025 0
M  V30 5807 H 581.609 2.30067 3.46471 0
M  V30 5808 H 580.186 0.484052 3.69745 0
M  V30 5809 N 582.371 -1.3172 0.865308 0
M  V30 5810 C 583.648 -1.91574 0.394789 0
M  V30 5811 C 584.028 -1.78769 -1.12271 0
M  V30 5812 O 583.376 -1.19245 -1.94918 0
M  V30 5813 C 583.586 -3.37957 0.870982 0
M  V30 5814 C 584.934 -4.15073 0.894384 0
M  V30 5815 O 585.958 -3.4672 0.816325 0
M  V30 5816 O 584.817 -5.37151 1.00651 0
M  V30 5817 H 581.911 -0.818649 0.117229 0
M  V30 5818 H 584.457 -1.4042 0.952913 0
M  V30 5819 H 583.229 -3.41269 1.91444 0
M  V30 5820 H 582.852 -3.96534 0.290907 0
M  V30 5821 N 583.85 -0.624285 -1.44708 0
M  V30 5822 C 585.098 -0.125802 -2.01708 0
M  V30 5823 C 585.418 1.2543 -1.49306 0
M  V30 5824 O 584.689 1.83198 -0.693924 0
M  V30 5825 H 583.269 -0.0435161 -0.745731 0
M  V30 5826 H 585.931 -0.809446 -1.77296 0
M  V30 5827 H 585.027 -0.0882734 -3.11975 0
M  V30 5828 N 585.328 1.53329 -0.364422 0
M  V30 5829 C 586.553 2.06132 0.229033 0
M  V30 5830 C 586.978 1.23625 1.41769 0
M  V30 5831 O 586.336 0.255038 1.79497 0
M  V30 5832 C 586.384 3.55544 0.60174 0
M  V30 5833 O 585.488 3.75771 1.69912 0
M  V30 5834 H 584.829 0.663148 0.0336213 0
M  V30 5835 H 587.359 1.97758 -0.524689 0
M  V30 5836 H 587.369 3.98549 0.873073 0
M  V30 5837 H 586.044 4.15039 -0.267421 0
M  V30 5838 H 584.621 3.44663 1.42343 0
M  V30 5839 N 586.806 0.0935595 1.57322 0
M  V30 5840 C 588.055 -0.570191 1.93473 0
M  V30 5841 C 588.368 -1.69434 0.977318 0
M  V30 5842 O 589.574 -2.41914 1.23248 0
M  V30 5843 C 588.03 -1.06564 3.43762 0
M  V30 5844 C 587.638 0.0286723 4.47991 0
M  V30 5845 C 589.382 -1.70221 3.88877 0
M  V30 5846 C 587.289 -0.482046 5.89432 0
M  V30 5847 H 586.219 -0.216764 0.72217 0
M  V30 5848 H 588.87 0.169313 1.82717 0
M  V30 5849 H 587.252 -1.85878 3.49664 0
M  V30 5850 H 588.426 0.804106 4.5373 0
M  V30 5851 H 586.741 0.570336 4.12476 0
M  V30 5852 H 589.338 -2.09502 4.91948 0
M  V30 5853 H 589.681 -2.57078 3.27439 0
M  V30 5854 H 590.214 -0.974919 3.85668 0
M  V30 5855 H 586.953 0.349871 6.54566 0
M  V30 5856 H 586.473 -1.22452 5.87167 0
M  V30 5857 H 588.152 -0.951508 6.39965 0
M  V30 5858 N 588.284 -1.56567 -0.180126 0
M  V30 5859 C 589.53 -1.81761 -0.899497 0
M  V30 5860 C 589.863 -0.670015 -1.82276 0
M  V30 5861 O 589.138 0.328575 -1.91705 0
M  V30 5862 C 589.421 -3.17296 -1.7028 0
M  V30 5863 C 589.274 -4.4257 -0.803255 0
M  V30 5864 C 590.593 -3.49678 -2.67233 0
M  V30 5865 H 587.712 -0.661192 -0.325567 0
M  V30 5866 H 590.354 -1.89272 -0.16612 0
M  V30 5867 H 588.504 -3.11023 -2.32802 0
M  V30 5868 H 590.176 -4.60902 -0.191585 0
M  V30 5869 H 588.419 -4.33658 -0.110796 0
M  V30 5870 H 589.09 -5.33935 -1.40064 0
M  V30 5871 H 591.566 -3.56347 -2.14839 0
M  V30 5872 H 590.442 -4.45605 -3.20511 0
M  V30 5873 H 590.703 -2.73932 -3.47007 0
M  V30 5874 N 589.762 0.448376 -1.51087 0
M  V30 5875 C 591.01 1.19635 -1.62886 0
M  V30 5876 C 591.331 1.91977 -0.342024 0
M  V30 5877 O 590.601 1.85094 0.641636 0
M  V30 5878 H 589.181 0.444598 -0.600285 0
M  V30 5879 H 591.843 0.515138 -1.87969 0
M  V30 5880 H 590.939 1.93194 -2.45117 0
M  V30 5881 N 591.24 1.41047 0.703093 0
M  V30 5882 C 592.486 1.40207 1.46526 0
M  V30 5883 C 592.819 0.00847763 1.94198 0
M  V30 5884 O 592.094 -0.962437 1.69019 0
M  V30 5885 C 592.377 2.40238 2.6825 0
M  V30 5886 C 592.23 3.88674 2.26391 0
M  V30 5887 C 593.549 2.37627 3.70434 0
M  V30 5888 H 590.668 0.510594 0.531472 0
M  V30 5889 H 593.31 1.72271 0.801422 0
M  V30 5890 H 591.46 2.13026 3.24888 0
M  V30 5891 H 593.132 4.2676 1.75138 0
M  V30 5892 H 591.375 4.03903 1.58255 0
M  V30 5893 H 592.046 4.542 3.13698 0
M  V30 5894 H 594.522 2.61759 3.23452 0
M  V30 5895 H 593.398 3.09645 4.53223 0
M  V30 5896 H 593.659 1.39223 4.19606 0
M  V30 5897 N 592.718 -0.936591 1.26751 0
M  V30 5898 C 593.65 -2.03991 1.045 0
M  V30 5899 C 594.663 -1.628 0.00394261 0
M  V30 5900 O 595.852 -1.76817 0.244526 0
M  V30 5901 C 592.952 -3.34218 0.561403 0
M  V30 5902 C 592.125 -4.04151 1.67274 0
M  V30 5903 C 591.184 -5.12651 1.1864 0
M  V30 5904 O 590.21 -5.37104 1.88437 0
M  V30 5905 N 591.412 -5.80488 0.037278 0
M  V30 5906 H 594.177 -2.23644 1.99508 0
M  V30 5907 H 591.738 -1.10638 1.18198 0
M  V30 5908 H 593.73 -4.04101 0.220136 0
M  V30 5909 H 592.3 -3.11203 -0.295211 0
M  V30 5910 H 591.52 -3.28121 2.18472 0
M  V30 5911 H 592.808 -4.47626 2.41885 0
M  V30 5912 H 592.206 -5.63064 -0.545494 0
M  V30 5913 H 590.763 -6.5134 -0.244877 0
M  V30 5914 N 594.196 -1.08629 -1.14182 0
M  V30 5915 C 595.421 -0.83902 -1.89671 0
M  V30 5916 C 595.846 0.603332 -1.78161 0
M  V30 5917 O 595.204 1.42301 -1.12339 0
M  V30 5918 C 595.252 -1.26854 -3.37551 0
M  V30 5919 O 594.356 -0.42188 -4.10236 0
M  V30 5920 H 593.697 -0.304545 -0.590041 0
M  V30 5921 H 596.227 -1.4483 -1.44518 0
M  V30 5922 H 596.237 -1.25038 -3.88368 0
M  V30 5923 H 594.912 -2.31901 -3.45246 0
M  V30 5924 H 593.489 -0.503654 -3.69483 0
M  V30 5925 N 595.674 1.31259 -0.872281 0
M  V30 5926 C 596.922 1.96233 -0.483409 0
M  V30 5927 C 597.243 1.69276 0.968012 0
M  V30 5928 O 596.513 1.00943 1.67891 0
M  V30 5929 H 595.093 0.726025 -0.175774 0
M  V30 5930 H 597.755 1.60024 -1.11258 0
M  V30 5931 H 596.851 3.05403 -0.643075 0
M  V30 5932 N 597.152 0.631951 1.44375 0
M  V30 5933 C 598.082 -0.0593243 2.33425 0
M  V30 5934 C 599.063 -0.833964 1.48253 0
M  V30 5935 O 600.248 -0.799682 1.76971 0
M  V30 5936 C 597.378 -1.04096 3.31333 0
M  V30 5937 C 596.332 -0.377899 4.26328 0
M  V30 5938 C 595.658 -1.4695 5.14111 0
M  V30 5939 C 596.958 0.716371 5.17364 0
M  V30 5940 H 598.652 0.684287 2.91475 0
M  V30 5941 H 596.198 0.330518 1.40156 0
M  V30 5942 H 598.151 -1.53331 3.92514 0
M  V30 5943 H 596.875 -1.81547 2.71493 0
M  V30 5944 H 595.534 0.0938054 3.6648 0
M  V30 5945 H 595.182 -2.2349 4.50623 0
M  V30 5946 H 594.882 -1.03121 5.78481 0
M  V30 5947 H 596.406 -1.96363 5.78164 0
M  V30 5948 H 597.82 0.307089 5.72477 0
M  V30 5949 H 596.217 1.07784 5.90341 0
M  V30 5950 H 597.287 1.58316 4.58327 0
M  V30 5951 N 598.631 -1.53133 0.372548 0
M  V30 5952 C 599.871 -2.03267 -0.214943 0
M  V30 5953 C 600.235 -1.25362 -1.45425 0
M  V30 5954 O 601.436 -1.65536 -2.11781 0
M  V30 5955 C 599.707 -3.53985 -0.492897 0
M  V30 5956 S 601.266 -4.25977 -1.05307 0
M  V30 5957 H 598.084 -0.708289 -0.062029 0
M  V30 5958 H 600.686 -1.88539 0.517025 0
M  V30 5959 H 599.39 -4.08282 0.416442 0
M  V30 5960 H 598.921 -3.72887 -1.25375 0
M  V30 5961 H 600.936 -4.37731 -2.33679 0
M  V30 5962 N 600.109 -0.101901 -1.5727 0
M  V30 5963 C 601.039 0.851544 -2.17419 0
M  V30 5964 C 602.02 1.28942 -1.10941 0
M  V30 5965 O 603.205 1.35509 -1.39107 0
M  V30 5966 C 600.335 2.10816 -2.75996 0
M  V30 5967 C 599.289 1.80867 -3.87906 0
M  V30 5968 C 598.615 3.13413 -4.33216 0
M  V30 5969 C 599.915 1.0903 -5.10793 0
M  V30 5970 H 601.609 0.350381 -2.97343 0
M  V30 5971 H 599.155 0.16709 -1.43027 0
M  V30 5972 H 601.108 2.77959 -3.16729 0
M  V30 5973 H 599.832 2.63227 -1.93337 0
M  V30 5974 H 598.491 1.16119 -3.47724 0
M  V30 5975 H 598.139 3.63725 -3.47438 0
M  V30 5976 H 597.839 2.94155 -5.08671 0
M  V30 5977 H 599.363 3.81704 -4.76586 0
M  V30 5978 H 600.777 1.66295 -5.48652 0
M  V30 5979 H 599.174 0.99927 -5.91722 0
M  V30 5980 H 600.244 0.0741704 -4.84843 0
M  V30 5981 N 601.587 1.56661 0.17182 0
M  V30 5982 C 602.864 1.72838 0.915778 0
M  V30 5983 C 603.244 0.66316 2.00413 0
M  V30 5984 O 602.592 -0.322123 2.26218 0
M  V30 5985 C 602.802 3.16019 1.48097 0
M  V30 5986 C 604.15 3.76962 1.95408 0
M  V30 5987 O 605.174 3.19294 1.57892 0
M  V30 5988 O 604.033 4.78219 2.64516 0
M  V30 5989 H 601.127 0.705797 0.431021 0
M  V30 5990 H 603.673 1.68947 0.159689 0
M  V30 5991 H 602.445 3.85031 0.697618 0
M  V30 5992 H 602.068 3.24234 2.30126 0
M  V30 5993 N 603.065 -0.440357 1.51323 0
M  V30 5994 C 604.028 -1.51679 1.71832 0
M  V30 5995 C 605.028 -1.49648 0.588386 0
M  V30 5996 O 606.218 -1.51724 0.855891 0
M  V30 5997 C 603.35 -2.91228 1.77199 0
M  V30 5998 H 604.543 -1.34799 2.67898 0
M  V30 5999 H 602.096 -0.66883 1.41267 0
M  V30 6000 H 602.831 -3.13516 0.829363 0
M  V30 6001 H 602.616 -2.94107 2.59314 0
M  V30 6002 H 604.106 -3.69321 1.94915 0
M  V30 6003 N 604.543 -1.41418 -0.695603 0
M  V30 6004 C 605.789 -1.40982 -1.4578 0
M  V30 6005 C 606.122 -0.0187763 -1.94191 0
M  V30 6006 O 605.397 0.95346 -1.69527 0
M  V30 6007 C 605.68 -2.41657 -2.66972 0
M  V30 6008 C 605.533 -3.89869 -2.24327 0
M  V30 6009 C 606.852 -2.39589 -3.69168 0
M  V30 6010 H 603.971 -0.513405 -0.528757 0
M  V30 6011 H 606.613 -1.72693 -0.792275 0
M  V30 6012 H 604.763 -2.14746 -3.23754 0
M  V30 6013 H 606.435 -4.27683 -1.72872 0
M  V30 6014 H 604.678 -4.04737 -1.56111 0
M  V30 6015 H 605.349 -4.55857 -3.11285 0
M  V30 6016 H 607.825 -2.63471 -3.2206 0
M  V30 6017 H 606.701 -3.12044 -4.51575 0
M  V30 6018 H 606.962 -1.41447 -4.18862 0
M  V30 6019 N 606.021 0.929856 -1.27246 0
M  V30 6020 C 607.269 1.674 -1.13233 0
M  V30 6021 C 607.59 1.92311 0.322744 0
M  V30 6022 O 606.86 1.52784 1.22612 0
M  V30 6023 H 605.44 0.620411 -0.416052 0
M  V30 6024 H 608.102 1.11663 -1.59741 0
M  V30 6025 H 607.198 2.64308 -1.65975 0
M  V30 6026 N 607.499 1.09233 1.13605 0
M  V30 6027 C 608.747 0.825525 1.84471 0
M  V30 6028 C 609.068 -0.650702 1.83823 0
M  V30 6029 O 608.338 -1.47204 1.29259 0
M  V30 6030 H 606.918 0.3024 0.683054 0
M  V30 6031 H 609.58 1.38006 1.37624 0
M  V30 6032 H 608.676 1.17727 2.89045 0
M  V30 6033 N 608.977 -1.30795 0.87923 0
M  V30 6034 C 610.225 -1.95974 0.493809 0
M  V30 6035 C 610.546 -1.69787 -0.959021 0
M  V30 6036 O 609.816 -1.01832 -1.67353 0
M  V30 6037 H 608.396 -0.725083 0.179622 0
M  V30 6038 H 611.058 -1.59432 1.12105 0
M  V30 6039 H 610.154 -3.05058 0.659263 0
M  V30 6040 N 610.455 -0.639598 -1.44038 0
M  V30 6041 C 611.683 -0.154811 -2.0632 0
M  V30 6042 C 612.098 1.17406 -1.47856 0
M  V30 6043 O 611.455 1.72193 -0.604638 0
M  V30 6044 C 611.506 -0.0429958 -3.61474 0
M  V30 6045 O 611.227 -1.31932 -4.17763 0
M  V30 6046 C 612.728 0.469486 -4.40807 0
M  V30 6047 H 609.948 -0.0835862 -0.665773 0
M  V30 6048 H 612.492 -0.876397 -1.84769 0
M  V30 6049 H 610.647 0.629075 -3.82258 0
M  V30 6050 H 611.061 -1.16965 -5.11292 0
M  V30 6051 H 612.535 0.496712 -5.49761 0
M  V30 6052 H 613.012 1.49819 -4.12857 0
M  V30 6053 H 613.618 -0.169624 -4.24962 0
M  V30 6054 N 611.933 1.52934 -0.380664 0
M  V30 6055 C 612.896 2.24809 0.446473 0
M  V30 6056 C 613.896 1.26133 0.997347 0
M  V30 6057 O 615.086 1.50297 0.880714 0
M  V30 6058 C 612.218 2.99649 1.62553 0
M  V30 6059 H 613.411 2.99343 -0.182677 0
M  V30 6060 H 610.964 1.55736 -0.132618 0
M  V30 6061 H 611.699 2.29395 2.29235 0
M  V30 6062 H 611.484 3.72066 1.23732 0
M  V30 6063 H 612.974 3.54246 2.21133 0
M  V30 6064 N 613.412 0.11024 1.57214 0
M  V30 6065 C 614.36 -0.860586 2.16094 0
M  V30 6066 C 615.354 -1.28156 1.1078 0
M  V30 6067 O 616.56 -1.25433 1.29099 0
M  V30 6068 H 612.935 -0.295606 0.691463 0
M  V30 6069 H 614.906 -0.33942 2.96463 0
M  V30 6070 C 613.655 -2.10421 2.768 0
M  V30 6071 H 612.978 -1.7892 3.5753 0
M  V30 6072 H 614.418 -2.76375 3.21547 0
M  V30 6073 C 612.877 -2.88823 1.73444 0
M  V30 6074 O 613.407 -3.839 1.18251 0
M  V30 6075 N 611.613 -2.52649 1.43586 0
M  V30 6076 H 611.16 -1.754 1.8866 0
M  V30 6077 H 611.118 -3.05403 0.746735 0
M  V30 6078 N 614.89 -1.56749 -0.16351 0
M  V30 6079 C 616.138 -1.82074 -0.87713 0
M  V30 6080 C 616.459 -0.688503 -1.82441 0
M  V30 6081 O 615.729 0.291085 -1.93725 0
M  V30 6082 H 614.309 -0.671677 -0.326893 0
M  V30 6083 H 616.971 -1.9423 -0.161459 0
M  V30 6084 H 616.067 -2.76407 -1.44934 0
M  V30 6085 N 616.368 0.432326 -1.51554 0
M  V30 6086 C 617.596 1.20364 -1.68286 0
M  V30 6087 C 618.011 1.84888 -0.38233 0
M  V30 6088 O 617.368 1.70924 0.639627 0
M  V30 6089 C 617.419 2.28398 -2.80208 0
M  V30 6090 O 617.14 1.66512 -4.05223 0
M  V30 6091 C 618.641 3.18584 -3.08251 0
M  V30 6092 H 615.861 0.36259 -0.564596 0
M  V30 6093 H 618.405 0.511647 -1.97996 0
M  V30 6094 H 616.56 2.93305 -2.53083 0
M  V30 6095 H 616.974 2.37951 -4.67418 0
M  V30 6096 H 618.448 3.90511 -3.90135 0
M  V30 6097 H 618.925 3.79628 -2.2086 0
M  V30 6098 H 619.531 2.59372 -3.37055 0
M  V30 6099 N 617.846 1.41785 0.688094 0
M  V30 6100 C 618.776 1.47 1.8142 0
M  V30 6101 C 619.757 0.327881 1.6691 0
M  V30 6102 O 620.942 0.540362 1.86531 0
M  V30 6103 C 618.072 1.35876 3.19617 0
M  V30 6104 C 617.026 2.47976 3.48844 0
M  V30 6105 C 616.352 2.21915 4.86475 0
M  V30 6106 C 617.652 3.90309 3.47068 0
M  V30 6107 H 619.346 2.41247 1.77314 0
M  V30 6108 H 616.892 1.16116 0.851651 0
M  V30 6109 H 618.845 1.38134 3.98117 0
M  V30 6110 H 617.569 0.38116 3.24368 0
M  V30 6111 H 616.228 2.45013 2.72698 0
M  V30 6112 H 615.876 1.2248 4.8786 0
M  V30 6113 H 615.576 2.97037 5.06994 0
M  V30 6114 H 617.1 2.25901 5.67275 0
M  V30 6115 H 618.514 3.94947 4.1556 0
M  V30 6116 H 616.911 4.65175 3.7912 0
M  V30 6117 H 617.981 4.17927 2.45896 0
M  V30 6118 N 619.324 -0.923095 1.27737 0
M  V30 6119 C 620.573 -1.66581 1.13727 0
M  V30 6120 C 620.886 -1.9304 -0.315433 0
M  V30 6121 O 622.092 -2.65309 -0.57651 0
M  V30 6122 C 620.548 -3.00047 1.98745 0
M  V30 6123 C 620.156 -2.8127 3.48699 0
M  V30 6124 C 621.9 -3.77887 1.93395 0
M  V30 6125 C 619.807 -4.1032 4.25901 0
M  V30 6126 H 618.737 -0.624834 0.422017 0
M  V30 6127 H 621.388 -1.02514 1.52194 0
M  V30 6128 H 619.77 -3.65197 1.53125 0
M  V30 6129 H 620.944 -2.24859 4.02213 0
M  V30 6130 H 619.259 -2.16854 3.55476 0
M  V30 6131 H 621.856 -4.73526 2.48348 0
M  V30 6132 H 622.199 -4.06264 0.908605 0
M  V30 6133 H 622.732 -3.19541 2.36935 0
M  V30 6134 H 619.471 -3.8712 5.28978 0
M  V30 6135 H 618.991 -4.66377 3.77163 0
M  V30 6136 H 620.67 -4.78648 4.35321 0
M  V30 6137 N 620.802 -1.09834 -1.13024 0
M  V30 6138 C 621.734 -0.699379 -2.18269 0
M  V30 6139 C 622.747 0.260841 -1.60697 0
M  V30 6140 O 623.936 0.0462538 -1.7844 0
M  V30 6141 C 621.036 -0.0104537 -3.38898 0
M  V30 6142 C 620.209 -0.993275 -4.25973 0
M  V30 6143 C 619.268 -0.336982 -5.2512 0
M  V30 6144 O 618.294 -0.985892 -5.60597 0
M  V30 6145 N 619.496 0.90716 -5.73368 0
M  V30 6146 H 622.261 -1.60486 -2.5311 0
M  V30 6147 H 619.822 -0.986337 -1.28386 0
M  V30 6148 H 621.814 0.43991 -4.02302 0
M  V30 6149 H 620.384 0.797335 -3.0226 0
M  V30 6150 H 619.604 -1.62208 -3.5928 0
M  V30 6151 H 620.892 -1.65876 -4.81002 0
M  V30 6152 H 620.29 1.45384 -5.46699 0
M  V30 6153 H 618.847 1.30077 -6.38689 0
M  V30 6154 N 622.28 1.30327 -0.886154 0
M  V30 6155 C 623.21 2.30549 -0.370028 0
M  V30 6156 C 624.191 1.61039 0.547751 0
M  V30 6157 O 625.376 1.8864 0.461353 0
M  V30 6158 C 622.506 3.44808 0.415275 0
M  V30 6159 C 621.46 4.26024 -0.41085 0
M  V30 6160 C 620.786 5.32347 0.501128 0
M  V30 6161 C 622.086 4.95433 -1.65359 0
M  V30 6162 H 623.78 2.73969 -1.20754 0
M  V30 6163 H 621.326 1.3171 -0.582097 0
M  V30 6164 H 623.279 4.13986 0.78699 0
M  V30 6165 H 622.003 3.00197 1.28644 0
M  V30 6166 H 620.662 3.58535 -0.764719 0
M  V30 6167 H 620.31 4.83982 1.37004 0
M  V30 6168 H 620.01 5.87581 -0.0478356 0
M  V30 6169 H 621.534 6.0438 0.869333 0
M  V30 6170 H 622.948 5.5712 -1.35239 0
M  V30 6171 H 621.345 5.60537 -2.14284 0
M  V30 6172 H 622.415 4.21493 -2.39733 0
M  V30 6173 N 623.758 0.647228 1.43697 0
M  V30 6174 C 624.988 0.16551 2.05936 0
M  V30 6175 C 625.396 -1.17164 1.48557 0
M  V30 6176 O 624.739 -1.73307 0.60914 0
M  V30 6177 C 624.801 -0.00648082 3.59499 0
M  V30 6178 C 624.465 1.25503 4.39429 0
M  V30 6179 C 625.462 2.18241 4.71876 0
M  V30 6180 C 623.147 1.49494 4.79538 0
M  V30 6181 C 625.141 3.33268 5.43333 0
M  V30 6182 C 622.828 2.64815 5.50742 0
M  V30 6183 C 623.826 3.56528 5.82561 0
M  V30 6184 O 623.514 4.69836 6.52311 0
M  V30 6185 H 623.246 0.0844124 0.670709 0
M  V30 6186 H 625.8 0.88638 1.8529 0
M  V30 6187 H 624.03 -0.782661 3.78697 0
M  V30 6188 H 625.719 -0.444794 4.03456 0
M  V30 6189 H 626.485 2.00946 4.41413 0
M  V30 6190 H 622.364 0.789912 4.54182 0
M  V30 6191 H 625.908 4.04874 5.68087 0
M  V30 6192 H 621.805 2.82047 5.8062 0
M  V30 6193 H 622.573 4.69024 6.70789 0
M  V30 6194 N 625.236 -1.5273 0.388769 0
M  V30 6195 C 626.461 -2.0647 -0.19621 0
M  V30 6196 C 626.886 -1.25865 -1.39784 0
M  V30 6197 O 626.244 -0.283562 -1.79069 0
M  V30 6198 C 626.292 -3.56456 -0.5451 0
M  V30 6199 O 625.396 -3.78426 -1.63912 0
M  V30 6200 H 624.737 -0.663599 -0.023067 0
M  V30 6201 H 627.267 -1.96898 0.556084 0
M  V30 6202 H 627.277 -3.99888 -0.809557 0
M  V30 6203 H 625.952 -4.14561 0.333417 0
M  V30 6204 H 624.529 -3.46884 -1.36842 0
M  V30 6205 N 626.714 -0.118576 -1.57153 0
M  V30 6206 C 627.954 0.542618 -1.97066 0
M  V30 6207 C 628.318 1.63874 -1.00046 0
M  V30 6208 O 629.519 2.3588 -1.28895 0
M  V30 6209 C 627.79 1.06196 -3.41258 0
M  V30 6210 S 629.349 1.73174 -4.03183 0
M  V30 6211 H 626.167 0.17638 -0.688775 0
M  V30 6212 H 628.769 -0.203556 -1.94437 0
M  V30 6213 H 627.473 0.253016 -4.09619 0
M  V30 6214 H 627.004 1.84342 -3.47536 0
M  V30 6215 H 629.019 3.01749 -3.93906 0
M  V30 6216 N 628.193 1.56834 0.155195 0
M  V30 6217 C 629.418 1.87412 0.888337 0
M  V30 6218 C 629.843 0.70671 1.74319 0
M  V30 6219 O 629.201 -0.343892 1.78009 0
M  V30 6220 C 629.249 3.1652 1.72765 0
M  V30 6221 O 628.353 2.99877 2.83103 0
M  V30 6222 H 627.694 0.615983 0.247914 0
M  V30 6223 H 630.224 2.04061 0.148478 0
M  V30 6224 H 630.234 3.48334 2.12433 0
M  V30 6225 H 628.909 4.01094 1.09985 0
M  V30 6226 H 627.486 2.79453 2.46902 0
M  V30 6227 N 629.671 -0.424282 1.51781 0
M  V30 6228 C 630.619 -1.53649 1.74628 0
M  V30 6229 C 631.613 -1.57923 0.612922 0
M  V30 6230 O 632.819 -1.61511 0.794618 0
M  V30 6231 H 629.194 -0.510706 0.551981 0
M  V30 6232 H 631.165 -1.31558 2.67834 0
M  V30 6233 C 629.914 -2.91177 1.9003 0
M  V30 6234 H 629.237 -2.88625 2.76651 0
M  V30 6235 H 630.677 -3.6833 2.10021 0
M  V30 6236 C 629.136 -3.30303 0.663435 0
M  V30 6237 O 629.666 -4.01315 -0.175812 0
M  V30 6238 N 627.872 -2.86201 0.503723 0
M  V30 6239 H 627.419 -2.28583 1.18776 0
M  V30 6240 H 627.377 -3.12741 -0.322575 0
M  V30 6241 N 631.149 -1.42148 -0.680565 0
M  V30 6242 C 632.397 -1.42029 -1.43779 0
M  V30 6243 C 632.718 -0.0356347 -1.94967 0
M  V30 6244 O 631.988 0.924936 -1.7269 0
M  V30 6245 H 630.568 -0.522835 -0.533529 0
M  V30 6246 H 633.23 -1.7752 -0.804538 0
M  V30 6247 H 632.326 -2.11658 -2.29363 0
M  V30 6248 N 632.627 0.916307 -1.28225 0
M  V30 6249 C 633.852 1.7043 -1.18188 0
M  V30 6250 C 634.277 1.86346 0.256274 0
M  V30 6251 O 633.635 1.37175 1.18544 0
M  V30 6252 C 633.683 3.07546 -1.88275 0
M  V30 6253 O 632.787 3.94904 -1.18848 0
M  V30 6254 H 632.128 0.521967 -0.410423 0
M  V30 6255 H 634.658 1.14589 -1.69501 0
M  V30 6256 H 634.668 3.57793 -1.96082 0
M  V30 6257 H 633.343 2.95279 -2.92887 0
M  V30 6258 H 631.92 3.53339 -1.19187 0
M  V30 6259 N 634.105 1.10431 1.1244 0
M  V30 6260 C 635.053 0.747974 2.20246 0
M  V30 6261 C 636.047 -0.255848 1.67457 0
M  V30 6262 O 637.253 -0.116221 1.79624 0
M  V30 6263 H 633.628 0.223946 0.71788 0
M  V30 6264 H 635.599 1.6661 2.47556 0
M  V30 6265 C 634.348 0.195957 3.47147 0
M  V30 6266 H 633.671 0.959606 3.88113 0
M  V30 6267 H 635.111 -0.0153154 4.23997 0
M  V30 6268 C 633.57 -1.07132 3.19413 0
M  V30 6269 O 634.1 -2.15284 3.3914 0
M  V30 6270 N 632.306 -0.98994 2.73219 0
M  V30 6271 H 631.853 -0.109736 2.57366 0
M  V30 6272 H 631.811 -1.83856 2.55038 0
M  V30 6273 N 635.583 -1.29855 0.893053 0
M  V30 6274 C 636.515 -2.26911 0.32311 0
M  V30 6275 C 637.528 -1.54039 -0.526858 0
M  V30 6276 O 638.717 -1.75132 -0.345095 0
M  V30 6277 C 635.817 -3.34266 -0.558509 0
M  V30 6278 C 634.99 -4.36601 0.264222 0
M  V30 6279 C 634.049 -5.23326 -0.549171 0
M  V30 6280 O 633.075 -5.69192 0.0309883 0
M  V30 6281 N 634.277 -5.50008 -1.85664 0
M  V30 6282 H 637.042 -2.76455 1.15726 0
M  V30 6283 H 634.603 -1.4312 0.756859 0
M  V30 6284 H 636.595 -3.89211 -1.1089 0
M  V30 6285 H 635.165 -2.8459 -1.29334 0
M  V30 6286 H 634.385 -3.81409 0.996046 0
M  V30 6287 H 635.673 -5.02019 0.827906 0
M  V30 6288 H 635.071 -5.14542 -2.35081 0
M  V30 6289 H 633.628 -6.07796 -2.35431 0
M  V30 6290 N 637.061 -0.65484 -1.43351 0
M  V30 6291 C 638.477 -0.32255 -1.56307 0
M  V30 6292 C 638.677 1.17324 -1.63821 0
M  V30 6293 O 637.733 1.95813 -1.59417 0
M  V30 6294 C 639.046 -1.03533 -2.82314 0
M  V30 6295 C 640.594 -1.01574 -2.9606 0
M  V30 6296 C 641.069 -1.70945 -4.24902 0
M  V30 6297 N 642.56 -1.67716 -4.3177 0
M  V30 6298 C 643.295 -2.18265 -5.30234 0
M  V30 6299 N 642.791 -2.7711 -6.34966 0
M  V30 6300 N 644.584 -2.08756 -5.21898 0
M  V30 6301 H 636.735 -1.62549 -1.36717 0
M  V30 6302 H 638.998 -0.683676 -0.656727 0
M  V30 6303 H 638.704 -2.09045 -2.8283 0
M  V30 6304 H 638.578 -0.587913 -3.7259 0
M  V30 6305 H 640.965 0.0309834 -2.95084 0
M  V30 6306 H 641.046 -1.50186 -2.07069 0
M  V30 6307 H 640.69 -2.75574 -4.26639 0
M  V30 6308 H 640.62 -1.19797 -5.12793 0
M  V30 6309 H 643.111 -1.24777 -3.56706 0
M  V30 6310 H 643.424 -3.13353 -7.06421 0
M  V30 6311 H 641.769 -2.81171 -6.35585 0
M  V30 6312 H 644.96 -1.62488 -4.38994 0
M  V30 6313 H 645.133 -2.48459 -5.98475 0
M  V30 6314 N 638.539 1.52521 -0.396863 0
M  V30 6315 C 639.785 2.02641 0.175606 0
M  V30 6316 C 640.14 1.27782 1.43839 0
M  V30 6317 O 639.433 0.371921 1.87956 0
M  V30 6318 C 639.627 3.5403 0.489677 0
M  V30 6319 C 639.456 4.43551 -0.741113 0
M  V30 6320 C 638.226 4.8927 -1.26265 0
M  V30 6321 C 640.424 4.88263 -1.61565 0
M  V30 6322 N 638.406 5.62884 -2.4502 0
M  V30 6323 C 639.777 5.60534 -2.64955 0
M  V30 6324 C 641.832 4.70294 -1.63486 0
M  V30 6325 C 640.535 6.16744 -3.70162 0
M  V30 6326 C 642.561 5.27392 -2.67603 0
M  V30 6327 C 641.923 5.99575 -3.69715 0
M  V30 6328 H 638.022 0.781563 0.0261477 0
M  V30 6329 H 640.606 1.86816 -0.548454 0
M  V30 6330 H 638.777 3.69952 1.18279 0
M  V30 6331 H 640.509 3.90843 1.04996 0
M  V30 6332 H 637.264 4.66403 -0.822509 0
M  V30 6333 H 637.688 6.04339 -3.05128 0
M  V30 6334 H 642.33 4.13985 -0.858848 0
M  V30 6335 H 640.048 6.72131 -4.48626 0
M  V30 6336 H 643.634 5.15365 -2.69982 0
M  V30 6337 H 642.514 6.42967 -4.48958 0
M  V30 6338 N 640.017 0.126909 1.57088 0
M  V30 6339 C 641.245 -0.53667 1.99819 0
M  V30 6340 C 641.66 -1.5972 1.00673 0
M  V30 6341 O 641.017 -1.825 0.000747365 0
M  V30 6342 C 641.068 -1.15563 3.42531 0
M  V30 6343 O 640.789 -0.137483 4.37884 0
M  V30 6344 C 642.29 -1.90176 4.00435 0
M  V30 6345 H 639.51 -0.141443 0.655923 0
M  V30 6346 H 642.054 0.215578 2.03361 0
M  V30 6347 H 640.209 -1.85861 3.39904 0
M  V30 6348 H 640.623 -0.588229 5.21191 0
M  V30 6349 H 642.097 -2.28801 5.02349 0
M  V30 6350 H 642.574 -2.78002 3.40017 0
M  V30 6351 H 643.18 -1.24623 4.06632 0
M  V30 6352 N 641.495 -1.56914 -0.146875 0
M  V30 6353 C 642.911 -1.51582 -0.499518 0
M  V30 6354 C 643.111 -0.83535 -1.83369 0
M  V30 6355 O 642.167 -0.405932 -2.49216 0
M  V30 6356 C 643.48 -2.96349 -0.509711 0
M  V30 6357 C 645.028 -3.07288 -0.595217 0
M  V30 6358 C 645.503 -4.53562 -0.636071 0
M  V30 6359 N 646.994 -4.57906 -0.69829 0
M  V30 6360 C 647.729 -5.68462 -0.750886 0
M  V30 6361 N 647.225 -6.88588 -0.76282 0
M  V30 6362 N 649.018 -5.56496 -0.791777 0
M  V30 6363 H 641.169 -1.99547 0.727656 0
M  V30 6364 H 643.432 -0.910113 0.265327 0
M  V30 6365 H 643.138 -3.4939 0.402409 0
M  V30 6366 H 643.012 -3.52307 -1.34758 0
M  V30 6367 H 645.399 -2.54266 -1.49776 0
M  V30 6368 H 645.48 -2.54373 0.2698 0
M  V30 6369 H 645.124 -5.07222 0.262313 0
M  V30 6370 H 645.054 -5.04259 -1.51758 0
M  V30 6371 H 647.545 -3.71429 -0.696362 0
M  V30 6372 H 647.858 -7.68598 -0.804804 0
M  V30 6373 H 646.203 -6.91148 -0.730694 0
M  V30 6374 H 649.394 -4.61562 -0.779624 0
M  V30 6375 H 649.567 -6.42671 -0.829301 0
M  V30 6376 N 642.974 0.416227 -1.52004 0
M  V30 6377 C 644.202 1.18573 -1.69553 0
M  V30 6378 C 644.617 1.84472 -0.401919 0
M  V30 6379 O 643.974 1.71593 0.621463 0
M  V30 6380 C 644.025 2.25413 -2.82615 0
M  V30 6381 O 643.746 1.62205 -4.06966 0
M  V30 6382 C 645.247 3.15297 -3.11613 0
M  V30 6383 H 642.467 0.356582 -0.56841 0
M  V30 6384 H 645.011 0.490618 -1.98528 0
M  V30 6385 H 643.166 2.90604 -2.56179 0
M  V30 6386 H 643.58 2.3298 -4.69916 0
M  V30 6387 H 645.054 3.86351 -3.94255 0
M  V30 6388 H 645.531 3.77264 -2.24874 0
M  V30 6389 H 646.137 2.55783 -3.39787 0
M  V30 6390 O 644.491 1.51403 0.562082 0
M  V30 6391 H 645.182 1.50679 1.21719 0
M  V30 END ATOM
M  V30 BEGIN BOND
M  V30 END BOND
M  V30 END CTAB
M  END
$$$$
