drugbank_target|O82839 Amylase (DB02218; DB02379)
 OpenBabel12092120243D

  0  0  0     0  0            999 V3000
M  V30 BEGIN CTAB
M  V30 COUNTS 8087 8216 0 0 0
M  V30 BEGIN ATOM
M  V30 1 H -0.908 1.98254 -0.117106 0
M  V30 2 N 0 1.576 0 0
M  V30 3 C 0.933 2.03868 1.02534 0
M  V30 4 C 1.911 0.928543 1.3348 0
M  V30 5 O 3.095 1.19667 1.45644 0
M  V30 6 C 0.222 2.43627 2.35294 0
M  V30 7 C -0.732 3.65373 2.2001 0
M  V30 8 S 0.101 5.13292 1.52614 0
M  V30 9 C 1.257 5.56322 2.86805 0
M  V30 10 H 1.49 2.90518 0.631377 0
M  V30 11 H -0.977 1.52953 0.210867 0
M  V30 12 H 0.981 2.67203 3.11629 0
M  V30 13 H -0.358 1.57376 2.7183 0
M  V30 14 H -1.165 3.90944 3.18086 0
M  V30 15 H -1.563 3.418 1.51819 0
M  V30 16 H 0.729 5.58782 3.83104 0
M  V30 17 H 1.672 6.56266 2.65933 0
M  V30 18 H 2.08 4.83886 2.90714 0
M  V30 19 N 1.4781 -0.272755 1.55222 0
M  V30 20 C 2.4251 -1.33716 1.88119 0
M  V30 21 C 3.3951 -1.49066 0.73271 0
M  V30 22 O 4.5801 -1.63469 0.984002 0
M  V30 23 C 1.7201 -2.69238 2.15882 0
M  V30 24 C 0.8331 -2.62108 3.43399 0
M  V30 25 C -0.0319 -3.89811 3.60861 0
M  V30 26 C -0.9929 -3.77193 4.8207 0
M  V30 27 N -1.8559 -4.9673 4.96189 0
M  V30 28 H 2.9841 -1.04962 2.78903 0
M  V30 29 H 0.5211 -0.507088 1.38083 0
M  V30 30 H 2.4791 -3.48089 2.29978 0
M  V30 31 H 1.1091 -2.96194 1.28331 0
M  V30 32 H 0.1611 -1.74967 3.37773 0
M  V30 33 H 1.4731 -2.48685 4.32386 0
M  V30 34 H 0.6271 -4.77103 3.74777 0
M  V30 35 H -0.6339 -4.06102 2.7006 0
M  V30 36 H -1.6289 -2.88284 4.68159 0
M  V30 37 H -0.4039 -3.62421 5.74307 0
M  V30 38 H -2.4579 -5.13431 4.08319 0
M  V30 39 H -2.5409 -4.85839 5.79221 0
M  V30 40 H -1.2729 -5.85594 5.1449 0
M  V30 41 N 2.9562 -1.48159 -0.537278 0
M  V30 42 C 3.8862 -1.65029 -1.6519 0
M  V30 43 C 4.8672 -0.499281 -1.62607 0
M  V30 44 O 6.0522 -0.730972 -1.79918 0
M  V30 45 C 3.1822 -1.68303 -3.03795 0
M  V30 46 C 2.1362 -2.8283 -3.21234 0
M  V30 47 C 1.4622 -2.71189 -4.60826 0
M  V30 48 C 2.7622 -4.24211 -3.04701 0
M  V30 49 H 4.4562 -2.58341 -1.51328 0
M  V30 50 H 2.0022 -1.24325 -0.726585 0
M  V30 51 H 3.9552 -1.78693 -3.81637 0
M  V30 52 H 2.6792 -0.715635 -3.18663 0
M  V30 53 H 1.3382 -2.71983 -2.45807 0
M  V30 54 H 0.9862 -1.72435 -4.7252 0
M  V30 55 H 0.6862 -3.48035 -4.7344 0
M  V30 56 H 2.2102 -2.83537 -5.40777 0
M  V30 57 H 3.6242 -4.3593 -3.72341 0
M  V30 58 H 2.0212 -5.01998 -3.28813 0
M  V30 59 H 3.0912 -4.41184 -2.01209 0
M  V30 60 N 4.4343 0.785586 -1.36625 0
M  V30 61 C 5.3843 1.88822 -1.27789 0
M  V30 62 C 6.3683 1.60014 -0.168579 0
M  V30 63 O 7.5603 1.72381 -0.401737 0
M  V30 64 C 4.6893 3.26092 -1.07327 0
M  V30 65 C 3.7753 3.60897 -2.22743 0
M  V30 66 N 4.1663 3.66982 -3.48077 0
M  V30 67 C 2.4643 3.90981 -2.14593 0
M  V30 68 C 3.1653 3.98137 -4.24101 0
M  V30 69 N 2.1413 4.13319 -3.53084 0
M  V30 70 H 5.9433 1.91759 -2.22723 0
M  V30 71 H 3.4573 0.981311 -1.29399 0
M  V30 72 H 5.4543 4.04954 -0.990842 0
M  V30 73 H 4.1143 3.24428 -0.132977 0
M  V30 74 H 5.1253 3.49531 -3.82163 0
M  V30 75 H 1.8023 3.9722 -1.2854 0
M  V30 76 H 3.1923 4.09737 -5.32509 0
M  V30 77 N 5.9124 1.20967 1.01018 0
M  V30 78 C 6.8604 0.961223 2.1181 0
M  V30 79 C 7.8544 -0.0897034 1.69162 0
M  V30 80 O 9.0604 0.0612271 1.79896 0
M  V30 81 H 5.4354 0.29355 0.692338 0
M  V30 82 H 7.4064 1.90178 2.29946 0
M  V30 83 C 6.1554 0.536854 3.4353 0
M  V30 84 H 5.4784 1.33713 3.76777 0
M  V30 85 H 6.9184 0.402286 4.22087 0
M  V30 86 C 5.3774 -0.751574 3.2841 0
M  V30 87 O 5.9074 -1.80841 3.58691 0
M  V30 88 N 4.1134 -0.716079 2.81639 0
M  V30 89 H 3.6604 0.144236 2.57196 0
M  V30 90 H 3.6184 -1.57847 2.71904 0
M  V30 91 N 7.3905 -1.2043 1.01659 0
M  V30 92 C 8.8065 -1.41852 0.731442 0
M  V30 93 C 9.0065 -1.89358 -0.688898 0
M  V30 94 O 8.0625 -2.06247 -1.45666 0
M  V30 95 C 9.3755 -2.44019 1.75714 0
M  V30 96 C 10.9235 -2.57785 1.77527 0
M  V30 97 C 11.3985 -3.63194 2.79023 0
M  V30 98 N 12.8895 -3.70678 2.77763 0
M  V30 99 C 13.6245 -4.51897 3.52954 0
M  V30 100 N 13.1205 -5.36921 4.37821 0
M  V30 101 N 14.9135 -4.4643 3.41551 0
M  V30 102 H 7.0645 -0.879093 1.93354 0
M  V30 103 H 9.3275 -0.448425 0.835236 0
M  V30 104 H 9.0335 -2.1611 2.77469 0
M  V30 105 H 8.9075 -3.43007 1.56927 0
M  V30 106 H 11.2945 -2.85023 0.764569 0
M  V30 107 H 11.3755 -1.58992 2.00387 0
M  V30 108 H 11.0195 -3.36699 3.80258 0
M  V30 109 H 10.9495 -4.61609 2.53425 0
M  V30 110 H 13.4405 -3.09944 2.16201 0
M  V30 111 H 13.7535 -5.95981 4.91962 0
M  V30 112 H 12.0985 -5.36424 4.41899 0
M  V30 113 H 15.2895 -3.79042 2.74672 0
M  V30 114 H 15.4625 -5.09491 4.00404 0
M  V30 115 N 8.8686 -0.792821 -1.36206 0
M  V30 116 C 10.1176 -0.363353 -1.984 0
M  V30 117 C 10.4306 1.07172 -1.63626 0
M  V30 118 O 11.6366 1.60362 -2.19081 0
M  V30 119 C 10.0926 -0.59872 -3.54885 0
M  V30 120 C 9.7006 -2.04543 -3.9858 0
M  V30 121 C 11.4446 -0.233926 -4.23855 0
M  V30 122 C 9.3516 -2.22727 -5.47856 0
M  V30 123 H 8.2816 -0.13212 -0.742334 0
M  V30 124 H 10.9326 -0.974935 -1.55458 0
M  V30 125 H 9.3146 0.0826222 -3.95914 0
M  V30 126 H 10.4886 -2.76345 -3.68741 0
M  V30 127 H 8.8036 -2.36879 -3.42458 0
M  V30 128 H 11.4006 -0.348027 -5.33566 0
M  V30 129 H 11.7436 0.818351 -4.08177 0
M  V30 130 H 12.2766 -0.868639 -3.882 0
M  V30 131 H 9.0156 -3.2635 -5.68486 0
M  V30 132 H 8.5356 -1.55434 -5.7931 0
M  V30 133 H 10.2146 -2.03607 -6.14128 0
M  V30 134 N 10.3467 1.47872 -0.545128 0
M  V30 135 C 11.5957 2.01695 -0.0145033 0
M  V30 136 C 11.9087 1.42609 1.33873 0
M  V30 137 O 13.1147 1.88021 1.95858 0
M  V30 138 C 11.5707 3.59892 0.0245068 0
M  V30 139 C 11.1787 4.27966 -1.32475 0
M  V30 140 C 12.9227 4.21507 0.50316 0
M  V30 141 C 10.8297 5.78136 -1.2455 0
M  V30 142 H 9.7597 0.753998 -0.00165172 0
M  V30 143 H 12.4107 1.69985 -0.691175 0
M  V30 144 H 10.7927 3.88509 0.766575 0
M  V30 145 H 11.9667 4.11003 -2.08357 0
M  V30 146 H 10.2817 3.78286 -1.74036 0
M  V30 147 H 12.8787 5.31538 0.580656 0
M  V30 148 H 13.2217 3.87855 1.51243 0
M  V30 149 H 13.7547 3.97376 -0.183681 0
M  V30 150 H 10.4937 6.16388 -2.23039 0
M  V30 151 H 10.0137 5.97469 -0.528282 0
M  V30 152 H 11.6927 6.40099 -0.942488 0
M  V30 153 N 11.8248 0.280983 1.55075 0
M  V30 154 C 13.0498 -0.340154 2.04592 0
M  V30 155 C 13.4748 -1.48246 1.15779 0
M  V30 156 O 12.8328 -1.80614 0.15761 0
M  V30 157 C 12.8808 -0.793104 3.5177 0
M  V30 158 O 11.9848 -1.89981 3.66034 0
M  V30 159 H 11.3258 -0.0694289 0.66036 0
M  V30 160 H 13.8558 0.416993 2.00306 0
M  V30 161 H 13.8658 -1.08729 3.93245 0
M  V30 162 H 12.5408 0.0426163 4.15878 0
M  V30 163 H 11.1178 -1.60771 3.36463 0
M  V30 164 N 13.3029 -1.57598 0.00835791 0
M  V30 165 C 14.5489 -1.91211 -0.675732 0
M  V30 166 C 14.8819 -0.883139 -1.72958 0
M  V30 167 O 14.1569 0.097016 -1.94258 0
M  V30 168 C 14.4399 -3.35379 -1.31123 0
M  V30 169 C 14.2929 -4.48999 -0.268356 0
M  V30 170 C 15.6119 -3.7912 -2.23508 0
M  V30 171 H 12.7309 -0.695374 -0.244179 0
M  V30 172 H 15.3729 -1.89901 0.0613655 0
M  V30 173 H 13.5229 -3.36626 -1.93946 0
M  V30 174 H 15.1949 -4.59887 0.360844 0
M  V30 175 H 13.4379 -4.31873 0.408482 0
M  V30 176 H 14.1089 -5.46851 -0.752218 0
M  V30 177 H 16.5849 -3.79477 -1.70693 0
M  V30 178 H 15.4609 -4.80729 -2.64936 0
M  V30 179 H 15.7219 -3.13455 -3.11766 0
M  V30 180 N 14.781 0.264519 -1.55364 0
M  V30 181 C 15.711 1.33121 -1.91836 0
M  V30 182 C 16.692 1.51101 -0.781192 0
M  V30 183 O 17.877 1.64003 -1.04003 0
M  V30 184 C 15.007 2.68921 -2.19769 0
M  V30 185 C 13.961 2.65661 -3.35571 0
M  V30 186 C 13.287 4.05093 -3.49004 0
M  V30 187 C 14.587 2.24187 -4.71739 0
M  V30 188 H 16.281 1.02844 -2.81182 0
M  V30 189 H 13.827 0.493286 -1.35287 0
M  V30 190 H 15.78 3.43663 -2.43872 0
M  V30 191 H 14.504 3.00799 -1.27231 0
M  V30 192 H 13.163 1.93377 -3.1145 0
M  V30 193 H 12.811 4.34206 -2.53917 0
M  V30 194 H 12.511 4.03804 -4.26868 0
M  V30 195 H 14.035 4.81561 -3.75408 0
M  V30 196 H 15.449 2.88654 -4.9533 0
M  V30 197 H 13.846 2.34044 -5.52579 0
M  V30 198 H 14.916 1.19327 -4.69988 0
M  V30 199 N 16.2591 1.48442 0.529413 0
M  V30 200 C 17.1891 1.65902 1.64313 0
M  V30 201 C 18.1701 0.507897 1.6234 0
M  V30 202 O 19.3551 0.740503 1.79528 0
M  V30 203 C 16.4851 1.69911 3.02898 0
M  V30 204 C 15.4391 2.8453 3.19729 0
M  V30 205 C 14.7651 2.73629 4.59381 0
M  V30 206 C 16.0651 4.25821 3.02447 0
M  V30 207 H 17.7591 2.5914 1.49955 0
M  V30 208 H 15.3051 1.24709 0.719982 0
M  V30 209 H 17.2581 1.80715 3.80684 0
M  V30 210 H 15.9821 0.732524 3.18279 0
M  V30 211 H 14.6411 2.73283 2.44361 0
M  V30 212 H 14.2891 1.74938 4.71599 0
M  V30 213 H 13.9891 3.50541 4.71588 0
M  V30 214 H 15.5131 2.86401 5.39265 0
M  V30 215 H 16.9271 4.37898 3.70024 0
M  V30 216 H 15.3241 5.03735 3.26146 0
M  V30 217 H 16.3941 4.42244 1.98867 0
M  V30 218 N 17.7372 -0.778329 1.37039 0
M  V30 219 C 18.9652 -1.56734 1.35063 0
M  V30 220 C 19.3802 -1.88686 -0.0655597 0
M  V30 221 O 18.7372 -1.5096 -1.02554 0
M  V30 222 C 18.7882 -2.88163 2.18276 0
M  V30 223 O 18.5092 -2.57583 3.54376 0
M  V30 224 C 20.0102 -3.82422 2.24206 0
M  V30 225 H 17.2302 -0.485778 0.462883 0
M  V30 226 H 19.7742 -0.965185 1.8029 0
M  V30 227 H 17.9292 -3.44818 1.76576 0
M  V30 228 H 18.3432 -3.41699 3.97922 0
M  V30 229 H 19.8172 -4.71667 2.86765 0
M  V30 230 H 20.2942 -4.21078 1.24861 0
M  V30 231 H 20.9002 -3.31697 2.6619 0
M  V30 232 N 19.2153 -1.21501 -1.00376 0
M  V30 233 C 20.1453 -0.999478 -2.11028 0
M  V30 234 C 21.1263 0.0759671 -1.6993 0
M  V30 235 O 22.3113 -0.0841106 -1.94018 0
M  V30 236 C 19.4413 -0.564709 -3.42678 0
M  V30 237 C 18.3953 -1.58486 -3.97576 0
M  V30 238 C 17.7213 -1.00628 -5.25146 0
M  V30 239 C 19.0213 -2.97204 -4.29496 0
M  V30 240 H 20.7153 -1.92495 -2.29317 0
M  V30 241 H 18.2613 -0.92693 -1.102 0
M  V30 242 H 20.2143 -0.401091 -4.19487 0
M  V30 243 H 18.9383 0.396411 -3.24185 0
M  V30 244 H 17.5973 -1.73606 -3.22888 0
M  V30 245 H 17.2453 -0.0368439 -5.02987 0
M  V30 246 H 16.9453 -1.68771 -5.62841 0
M  V30 247 H 18.4693 -0.854015 -6.04598 0
M  V30 248 H 19.8833 -2.8552 -4.97143 0
M  V30 249 H 18.2803 -3.62372 -4.78338 0
M  V30 250 H 19.3503 -3.47956 -3.3772 0
M  V30 251 N 20.6934 1.19889 -1.02296 0
M  V30 252 C 21.6234 2.25141 -0.619174 0
M  V30 253 C 22.6044 1.66051 0.368915 0
M  V30 254 O 23.7894 1.92546 0.252941 0
M  V30 255 C 20.9194 3.4728 0.0368783 0
M  V30 256 C 19.8734 4.19005 -0.872865 0
M  V30 257 C 19.1994 5.34637 -0.0822402 0
M  V30 258 C 20.4994 4.74452 -2.18387 0
M  V30 259 H 22.1934 2.59171 -1.49903 0
M  V30 260 H 19.7394 1.24579 -0.722222 0
M  V30 261 H 21.6924 4.20098 0.330958 0
M  V30 262 H 20.4164 3.12433 0.95149 0
M  V30 263 H 19.0754 3.48061 -1.15105 0
M  V30 264 H 18.7234 4.96034 0.83422 0
M  V30 265 H 18.4234 5.83557 -0.688149 0
M  V30 266 H 19.9474 6.10255 0.205238 0
M  V30 267 H 21.3614 5.39055 -1.95172 0
M  V30 268 H 19.7584 5.33834 -2.74119 0
M  V30 269 H 20.8284 3.92844 -2.84257 0
M  V30 270 N 22.1715 0.800033 1.35784 0
M  V30 271 C 23.1015 0.220184 2.3246 0
M  V30 272 C 24.0825 -0.65073 1.57161 0
M  V30 273 O 25.2675 -0.582359 1.85263 0
M  V30 274 C 22.3975 -0.637353 3.41402 0
M  V30 275 C 21.3515 0.134531 4.27789 0
M  V30 276 C 20.6775 -0.844285 5.27992 0
M  V30 277 C 21.9775 1.32979 5.05088 0
M  V30 278 H 23.6715 1.02787 2.81203 0
M  V30 279 H 21.2175 0.495717 1.35199 0
M  V30 280 H 23.1705 -1.05302 4.08031 0
M  V30 281 H 21.8945 -1.47785 2.91251 0
M  V30 282 H 20.5535 0.531296 3.6273 0
M  V30 283 H 20.2015 -1.68011 4.74111 0
M  V30 284 H 19.9015 -0.332184 5.8666 0
M  V30 285 H 21.4255 -1.2583 5.97494 0
M  V30 286 H 22.8395 0.98934 5.64699 0
M  V30 287 H 21.2365 1.77593 5.7322 0
M  V30 288 H 22.3065 2.11978 4.36111 0
M  V30 289 N 23.6496 -1.47581 0.552962 0
M  V30 290 C 24.6126 -2.28439 -0.186605 0
M  V30 291 C 25.6126 -1.36706 -0.84665 0
M  V30 292 O 26.8026 -1.59378 -0.703164 0
M  V30 293 C 23.9346 -3.16264 -1.2724 0
M  V30 294 H 25.1276 -2.95294 0.523609 0
M  V30 295 H 22.6806 -1.532 0.309745 0
M  V30 296 H 23.4156 -2.54091 -2.01514 0
M  V30 297 H 23.2006 -3.83769 -0.803968 0
M  V30 298 H 24.6906 -3.77198 -1.79196 0
M  V30 299 N 25.1277 -0.289203 -1.54924 0
M  V30 300 C 26.3737 0.323998 -2.00195 0
M  V30 301 C 26.7067 1.54441 -1.17735 0
M  V30 302 O 25.9817 1.92875 -0.250878 0
M  V30 303 C 26.2647 0.692276 -3.53383 0
M  V30 304 C 26.1177 -0.536457 -4.46589 0
M  V30 305 C 27.4367 1.52335 -4.12895 0
M  V30 306 H 24.5557 0.116289 -0.727768 0
M  V30 307 H 27.1977 -0.398954 -1.85764 0
M  V30 308 H 25.3477 1.30822 -3.65811 0
M  V30 309 H 27.0197 -1.17499 -4.46085 0
M  V30 310 H 25.2627 -1.17192 -4.1767 0
M  V30 311 H 25.9337 -0.234806 -5.515 0
M  V30 312 H 28.4097 1.00302 -4.0383 0
M  V30 313 H 27.2857 1.74982 -5.20262 0
M  V30 314 H 27.5467 2.50886 -3.64018 0
M  V30 315 N 26.6058 1.57591 -0.0167156 0
M  V30 316 C 27.5688 2.08393 0.954204 0
M  V30 317 C 28.5688 0.996531 1.26198 0
M  V30 318 O 29.7588 1.25858 1.20438 0
M  V30 319 C 26.8908 2.5394 2.27436 0
M  V30 320 H 28.0838 2.95455 0.514451 0
M  V30 321 H 25.6368 1.54582 0.231089 0
M  V30 322 H 26.3718 1.70171 2.76066 0
M  V30 323 H 26.1568 3.33371 2.06412 0
M  V30 324 H 27.6468 2.93512 2.97053 0
M  V30 325 N 28.0839 -0.256276 1.55502 0
M  V30 326 C 29.3299 -0.987079 1.77157 0
M  V30 327 C 29.6629 -1.85327 0.580315 0
M  V30 328 O 28.9379 -1.89874 -0.421686 0
M  V30 329 C 29.2209 -1.85553 3.08613 0
M  V30 330 C 29.0739 -1.01816 4.38125 0
M  V30 331 C 30.3929 -2.8397 3.36228 0
M  V30 332 H 27.5119 -0.357428 0.644526 0
M  V30 333 H 30.1539 -0.258239 1.88237 0
M  V30 334 H 28.3039 -2.47695 2.99298 0
M  V30 335 H 29.9759 -0.416159 4.59419 0
M  V30 336 H 28.2189 -0.322178 4.32602 0
M  V30 337 H 28.8899 -1.65939 5.26468 0
M  V30 338 H 31.3659 -2.31964 3.45445 0
M  V30 339 H 30.2419 -3.41864 4.29442 0
M  V30 340 H 30.5029 -3.59955 2.56681 0
M  V30 341 N 29.562 -1.4872 -0.521534 0
M  V30 342 C 30.492 -1.66771 -1.63431 0
M  V30 343 C 31.473 -0.516499 -1.62069 0
M  V30 344 O 32.658 -0.750013 -1.79132 0
M  V30 345 C 29.788 -1.71515 -3.01993 0
M  V30 346 C 28.742 -2.86222 -3.18216 0
M  V30 347 C 28.068 -2.76061 -4.57924 0
M  V30 348 C 29.368 -4.27419 -3.00184 0
M  V30 349 H 31.062 -2.59932 -1.48579 0
M  V30 350 H 28.608 -1.25089 -0.713358 0
M  V30 351 H 30.561 -1.82731 -3.7972 0
M  V30 352 H 29.285 -0.749393 -3.17886 0
M  V30 353 H 27.944 -2.74575 -2.42908 0
M  V30 354 H 27.592 -1.77437 -4.70665 0
M  V30 355 H 27.292 -3.53037 -4.69722 0
M  V30 356 H 28.816 -2.89256 -5.37739 0
M  V30 357 H 30.23 -4.39855 -3.67697 0
M  V30 358 H 28.627 -5.05458 -3.2347 0
M  V30 359 H 29.697 -4.43293 -1.96518 0
M  V30 360 N 31.0401 0.771051 -1.3745 0
M  V30 361 C 32.2871 1.52963 -1.32697 0
M  V30 362 C 32.6151 1.94299 0.0883274 0
M  V30 363 O 31.8701 1.64397 1.0617 0
M  V30 364 C 32.1691 2.80676 -2.2126 0
M  V30 365 C 31.8351 2.58389 -3.69521 0
M  V30 366 C 30.4971 2.52019 -4.09927 0
M  V30 367 C 32.8491 2.38469 -4.63446 0
M  V30 368 C 30.1771 2.23721 -5.42371 0
M  V30 369 C 32.5291 2.11694 -5.96128 0
M  V30 370 C 31.1931 2.03769 -6.35637 0
M  V30 371 H 30.4631 0.559732 -0.485573 0
M  V30 372 H 33.1101 0.888083 -1.69662 0
M  V30 373 H 31.4151 3.49392 -1.77291 0
M  V30 374 H 33.1121 3.38557 -2.14895 0
M  V30 375 H 29.7021 2.6421 -3.37478 0
M  V30 376 H 33.8861 2.4238 -4.33089 0
M  V30 377 H 29.1421 2.16081 -5.71943 0
M  V30 378 H 33.3161 1.9528 -6.6846 0
M  V30 379 H 30.9431 1.81606 -7.38189 0
M  V30 380 N 32.5182 1.22032 0.997298 0
M  V30 381 C 33.9292 1.0397 1.55071 0
M  V30 382 C 34.2802 -0.398192 1.92117 0
M  V30 383 O 33.4052 -1.28254 1.74298 0
M  V30 384 C 34.0002 1.88109 2.81781 0
M  V30 385 C 32.5592 1.74357 3.33581 0
M  V30 386 C 31.7062 1.84846 2.06706 0
M  V30 387 H 34.6572 1.35941 0.818883 0
M  V30 388 H 34.6782 1.39589 3.53971 0
M  V30 389 H 34.1902 2.92754 2.54787 0
M  V30 390 H 32.2912 0.72427 3.65493 0
M  V30 391 H 32.4042 2.56772 4.04481 0
M  V30 392 H 30.7682 1.28238 2.20062 0
M  V30 393 H 31.5512 2.91014 1.82114 0
M  V30 394 N 33.9963 -1.19345 1.0293 0
M  V30 395 C 35.2263 -1.92717 0.744563 0
M  V30 396 C 35.6343 -1.75751 -0.700579 0
M  V30 397 O 34.9773 -1.07703 -1.48815 0
M  V30 398 C 35.0393 -3.44828 1.01657 0
M  V30 399 C 34.7033 -3.85564 2.45335 0
M  V30 400 C 35.7003 -3.90286 3.43472 0
M  V30 401 C 33.3853 -4.1719 2.79746 0
M  V30 402 C 35.3793 -4.26065 4.74075 0
M  V30 403 C 33.0663 -4.52642 4.10559 0
M  V30 404 C 34.0643 -4.57054 5.07534 0
M  V30 405 O 33.7523 -4.91685 6.36004 0
M  V30 406 H 33.4843 -0.618977 0.271742 0
M  V30 407 H 36.0383 -1.52415 1.37691 0
M  V30 408 H 34.2683 -3.85314 0.327084 0
M  V30 409 H 35.9573 -3.99437 0.721427 0
M  V30 410 H 36.7233 -3.66002 3.18225 0
M  V30 411 H 32.6023 -4.1294 2.04943 0
M  V30 412 H 36.1463 -4.29423 5.49765 0
M  V30 413 H 32.0433 -4.76383 4.35579 0
M  V30 414 H 32.8113 -5.09631 6.40483 0
M  V30 415 N 35.4744 -0.807222 -1.35358 0
M  V30 416 C 36.4074 -0.163572 -2.27613 0
M  V30 417 C 37.3854 0.670817 -1.48118 0
M  V30 418 O 38.5694 0.63796 -1.77376 0
M  V30 419 C 35.6964 0.773015 -3.29761 0
M  V30 420 C 34.7424 0.0181653 -4.26496 0
M  V30 421 S 35.5754 -1.31831 -5.19019 0
M  V30 422 C 36.7314 -0.38619 -6.24707 0
M  V30 423 H 36.9644 -0.945757 -2.81856 0
M  V30 424 H 34.4974 -0.602315 -1.42167 0
M  V30 425 H 36.4554 1.30788 -3.89108 0
M  V30 426 H 35.1164 1.52859 -2.74396 0
M  V30 427 H 34.3094 0.729534 -4.98692 0
M  V30 428 H 33.9114 -0.446761 -3.71322 0
M  V30 429 H 36.2034 0.428295 -6.76145 0
M  V30 430 H 37.1464 -1.07736 -6.99856 0
M  V30 431 H 37.5544 0.018398 -5.64497 0
M  V30 432 N 36.9525 1.47285 -0.560781 0
M  V30 433 C 38.1805 2.06855 -0.0430262 0
M  V30 434 C 38.5955 1.41291 1.25229 0
M  V30 435 O 37.9525 0.510648 1.7521 0
M  V30 436 C 38.0035 3.61178 0.152518 0
M  V30 437 O 37.7245 4.24285 -1.0915 0
M  V30 438 C 39.2255 4.37624 0.707145 0
M  V30 439 H 36.4455 0.669319 -0.0474652 0
M  V30 440 H 38.9895 1.89237 -0.77521 0
M  V30 441 H 37.1445 3.78298 0.834843 0
M  V30 442 H 37.5585 5.16868 -0.891482 0
M  V30 443 H 39.0325 5.46271 0.793244 0
M  V30 444 H 39.5095 4.04152 1.71923 0
M  V30 445 H 40.1155 4.25257 0.0604027 0
M  V30 446 N 38.4306 0.297415 1.54768 0
M  V30 447 C 39.3406 -0.58983 2.27064 0
M  V30 448 C 40.3566 -1.15144 1.30453 0
M  V30 449 O 41.5326 -1.17699 1.63428 0
M  V30 450 C 38.5976 -1.74714 2.9946 0
M  V30 451 C 37.6586 -1.21997 4.11601 0
M  V30 452 C 36.8916 -2.32212 4.80535 0
M  V30 453 O 37.1146 -3.52036 4.48806 0
M  V30 454 O 36.0486 -1.99106 5.68014 0
M  V30 455 H 39.8746 -0.00348199 3.037 0
M  V30 456 H 37.4596 0.0640035 1.49263 0
M  V30 457 H 39.3416 -2.42147 3.44881 0
M  V30 458 H 38.0166 -2.32016 2.25722 0
M  V30 459 H 36.9236 -0.511458 3.70587 0
M  V30 460 H 38.2566 -0.692419 4.87305 0
M  V30 461 N 39.9087 -1.5758 0.0250728 0
M  V30 462 C 41.3197 -1.79476 -0.514323 0
M  V30 463 C 41.6707 -0.934956 -1.72491 0
M  V30 464 O 40.7957 -0.144245 -2.15919 0
M  V30 465 C 41.3907 -3.25503 -0.939842 0
M  V30 466 C 39.9497 -3.48408 -1.42438 0
M  V30 467 C 39.0967 -2.74583 -0.387201 0
M  V30 468 H 42.0477 -1.567 0.25113 0
M  V30 469 H 42.0687 -3.34992 -1.80445 0
M  V30 470 H 41.5807 -3.88056 -0.0585628 0
M  V30 471 H 39.6817 -2.91103 -2.32572 0
M  V30 472 H 39.7947 -4.57119 -1.43455 0
M  V30 473 H 38.1587 -2.39942 -0.854409 0
M  V30 474 H 38.9417 -3.39849 0.485543 0
M  V30 475 N 41.3868 0.248026 -1.55636 0
M  V30 476 C 42.3498 1.29044 -1.89421 0
M  V30 477 C 43.3498 1.41134 -0.770581 0
M  V30 478 O 44.5398 1.39854 -1.03858 0
M  V30 479 C 41.6718 2.66831 -2.12165 0
M  V30 480 H 42.8648 1.00305 -2.82629 0
M  V30 481 H 40.4178 0.487265 -1.48511 0
M  V30 482 H 41.1528 3.00711 -1.21422 0
M  V30 483 H 40.9378 2.59438 -2.93997 0
M  V30 484 H 42.4278 3.42103 -2.3949 0
M  V30 485 N 42.8649 1.48995 0.513639 0
M  V30 486 C 43.7969 1.60836 1.63293 0
M  V30 487 C 44.8099 0.491701 1.55197 0
M  V30 488 O 45.9989 0.763238 1.6136 0
M  V30 489 C 43.0989 1.53731 3.02027 0
M  V30 490 C 42.2719 2.80715 3.35437 0
M  V30 491 C 41.3309 2.66837 4.53525 0
M  V30 492 O 40.3569 3.40753 4.55934 0
M  V30 493 N 41.5589 1.77539 5.52684 0
M  V30 494 H 44.3239 2.57366 1.53566 0
M  V30 495 H 41.8849 1.45925 0.701259 0
M  V30 496 H 43.8769 1.42118 3.78926 0
M  V30 497 H 42.4469 0.651092 3.05744 0
M  V30 498 H 41.6669 3.06772 2.47557 0
M  V30 499 H 42.9549 3.64927 3.54551 0
M  V30 500 H 42.3529 1.16719 5.53528 0
M  V30 501 H 40.9099 1.71856 6.28736 0
M  V30 502 N 44.343 -0.763751 1.37857 0
M  V30 503 C 45.306 -1.85889 1.34081 0
M  V30 504 C 46.306 -1.58949 0.243277 0
M  V30 505 O 47.496 -1.66882 0.499589 0
M  V30 506 C 44.628 -3.23176 1.08489 0
M  V30 507 H 45.821 -1.90648 2.31502 0
M  V30 508 H 43.374 -0.964367 1.23003 0
M  V30 509 H 44.109 -3.24091 0.116318 0
M  V30 510 H 43.894 -3.44124 1.8794 0
M  V30 511 H 45.384 -4.03254 1.08517 0
M  V30 512 N 45.8211 -1.22559 -0.990812 0
M  V30 513 C 46.7711 -0.964807 -2.0658 0
M  V30 514 C 47.7551 0.0853472 -1.60673 0
M  V30 515 O 48.9471 -0.125443 -1.76555 0
M  V30 516 C 46.0761 -0.546707 -3.38919 0
M  V30 517 C 45.1621 -1.6317 -3.91454 0
M  V30 518 N 45.5531 -2.85985 -4.17189 0
M  V30 519 C 43.8511 -1.50387 -4.19881 0
M  V30 520 C 44.5521 -3.56159 -4.59919 0
M  V30 521 N 43.5281 -2.83637 -4.63736 0
M  V30 522 H 47.3301 -1.89769 -2.24421 0
M  V30 523 H 44.8441 -1.12343 -1.17273 0
M  V30 524 H 46.8411 -0.34119 -4.15502 0
M  V30 525 H 45.5011 0.379254 -3.22478 0
M  V30 526 H 46.5121 -3.22392 -4.05319 0
M  V30 527 H 43.1891 -0.644254 -4.12499 0
M  V30 528 H 44.5791 -4.6139 -4.88435 0
M  V30 529 N 47.2992 1.18797 -1.03562 0
M  V30 530 C 48.2492 2.20161 -0.592724 0
M  V30 531 C 49.2332 1.56772 0.362133 0
M  V30 532 O 50.4252 1.76062 0.182009 0
M  V30 533 C 47.5542 3.43266 0.0481024 0
M  V30 534 C 46.6402 4.13786 -0.9296 0
M  V30 535 N 47.0312 4.60388 -2.09467 0
M  V30 536 C 45.3292 4.39572 -0.754499 0
M  V30 537 C 46.0302 5.14619 -2.71187 0
M  V30 538 N 45.0062 5.05826 -1.991 0
M  V30 539 H 48.8082 2.53877 -1.48066 0
M  V30 540 H 46.3222 1.34946 -0.903514 0
M  V30 541 H 48.3192 4.15136 0.383058 0
M  V30 542 H 46.9792 3.11048 0.931636 0
M  V30 543 H 47.9902 4.54999 -2.47379 0
M  V30 544 H 44.6672 4.17425 0.0793713 0
M  V30 545 H 46.0572 5.60917 -3.69895 0
M  V30 546 N 48.7773 0.814389 1.34928 0
M  V30 547 C 49.7253 0.218424 2.31572 0
M  V30 548 C 50.7193 -0.636128 1.57002 0
M  V30 549 O 51.9253 -0.52842 1.72069 0
M  V30 550 H 48.3003 0.0518799 0.750208 0
M  V30 551 H 50.2713 1.04852 2.79372 0
M  V30 552 C 49.0203 -0.61207 3.4227 0
M  V30 553 H 48.3433 0.0361578 3.99784 0
M  V30 554 H 49.7833 -0.995317 4.12152 0
M  V30 555 C 48.2423 -1.78087 2.85984 0
M  V30 556 O 48.7723 -2.8787 2.80168 0
M  V30 557 N 46.9783 -1.59488 2.42924 0
M  V30 558 H 46.5253 -0.701874 2.47854 0
M  V30 559 H 46.4833 -2.37846 2.05613 0
M  V30 560 N 50.2554 -1.46986 0.568584 0
M  V30 561 C 51.5034 -2.02041 0.0487022 0
M  V30 562 C 51.8244 -1.44408 -1.31039 0
M  V30 563 O 51.0944 -0.623477 -1.85714 0
M  V30 564 H 49.6744 -0.746849 0.015014 0
M  V30 565 H 52.3364 -1.80257 0.741168 0
M  V30 566 H 51.4324 -3.12085 -0.0308961 0
M  V30 567 N 51.7335 -0.305618 -1.54608 0
M  V30 568 C 52.9615 0.304775 -2.04643 0
M  V30 569 C 53.3765 1.47167 -1.18268 0
M  V30 570 O 52.7335 1.81296 -0.209328 0
M  V30 571 C 52.7845 0.756564 -3.53495 0
M  V30 572 O 52.5055 -0.36389 -4.36586 0
M  V30 573 C 54.0065 1.43163 -4.19546 0
M  V30 574 H 51.2265 0.0655481 -0.667791 0
M  V30 575 H 53.7705 -0.446592 -1.99564 0
M  V30 576 H 51.9255 1.45794 -3.58919 0
M  V30 577 H 52.3395 -0.0113121 -5.24499 0
M  V30 578 H 53.8135 1.69886 -5.25207 0
M  V30 579 H 54.2905 2.37318 -3.69563 0
M  V30 580 H 54.8965 0.773307 -4.18211 0
M  V30 581 N 53.2116 1.57565 -0.0334293 0
M  V30 582 C 54.1596 2.1164 0.96496 0
M  V30 583 C 55.1536 1.04398 1.33407 0
M  V30 584 O 56.3596 1.22828 1.3158 0
M  V30 585 H 52.7346 0.676222 0.32898 0
M  V30 586 H 54.7056 2.94455 0.483614 0
M  V30 587 C 53.4546 2.66207 2.23672 0
M  V30 588 H 52.7776 3.48378 1.96145 0
M  V30 589 H 54.2176 3.07685 2.9173 0
M  V30 590 C 52.6766 1.59151 2.96939 0
M  V30 591 O 53.2066 0.993858 3.89211 0
M  V30 592 N 51.4126 1.31093 2.59351 0
M  V30 593 H 50.9596 1.7988 1.84393 0
M  V30 594 H 50.9176 0.596889 3.08682 0
M  V30 595 N 54.6897 -0.239769 1.55765 0
M  V30 596 C 55.9377 -0.964892 1.77579 0
M  V30 597 C 56.2587 -1.85582 0.598699 0
M  V30 598 O 55.5287 -1.92075 -0.385226 0
M  V30 599 H 54.1087 -0.359265 0.654933 0
M  V30 600 H 56.7707 -0.256001 1.93211 0
M  V30 601 H 55.8667 -1.58243 2.69009 0
M  V30 602 N 56.1678 -1.49265 -0.50573 0
M  V30 603 C 57.3958 -1.62215 -1.28429 0
M  V30 604 C 57.8108 -0.291697 -1.86533 0
M  V30 605 O 57.1678 0.722233 -1.67601 0
M  V30 606 C 57.2188 -2.68735 -2.41793 0
M  V30 607 O 56.9398 -3.96619 -1.86078 0
M  V30 608 C 58.4408 -2.92346 -3.3324 0
M  V30 609 H 55.6608 -0.546239 -0.389697 0
M  V30 610 H 58.2048 -1.95265 -0.607609 0
M  V30 611 H 56.3598 -2.38476 -3.053 0
M  V30 612 H 56.7738 -4.55256 -2.60465 0
M  V30 613 H 58.2478 -3.70623 -4.09075 0
M  V30 614 H 58.7248 -2.02081 -3.89948 0
M  V30 615 H 59.3308 -3.24003 -2.75503 0
M  V30 616 N 57.6459 0.756429 -1.3826 0
M  V30 617 C 58.5789 1.87802 -1.29637 0
M  V30 618 C 59.5569 1.61667 -0.173939 0
M  V30 619 O 60.7409 1.85208 -0.350775 0
M  V30 620 C 57.8679 3.23354 -1.00797 0
M  V30 621 C 56.9139 3.68379 -2.14939 0
M  V30 622 S 57.7469 3.8025 -3.77054 0
M  V30 623 C 58.9029 5.18626 -3.50396 0
M  V30 624 H 59.1359 1.94829 -2.24564 0
M  V30 625 H 56.6689 0.919117 -1.24063 0
M  V30 626 H 58.6269 4.01637 -0.848413 0
M  V30 627 H 57.2879 3.14008 -0.0759369 0
M  V30 628 H 56.4809 4.66693 -1.90299 0
M  V30 629 H 56.0829 2.97242 -2.26988 0
M  V30 630 H 58.3749 6.04289 -3.06334 0
M  V30 631 H 59.3179 5.48286 -4.48094 0
M  V30 632 H 59.7259 4.87289 -2.84973 0
M  V30 633 N 59.124 1.23083 0.984299 0
M  V30 634 C 60.057 0.951786 2.07404 0
M  V30 635 C 61.035 -0.10848 1.62238 0
M  V30 636 O 62.219 0.0249467 1.88483 0
M  V30 637 C 59.346 0.433142 3.35919 0
M  V30 638 C 58.392 1.47941 4.0002 0
M  V30 639 S 59.225 3.05556 4.39768 0
M  V30 640 C 60.381 2.55351 5.71442 0
M  V30 641 H 60.614 1.87456 2.30754 0
M  V30 642 H 58.147 1.06284 1.11996 0
M  V30 643 H 60.105 0.140506 4.10259 0
M  V30 644 H 58.766 -0.468656 3.10584 0
M  V30 645 H 57.959 1.06658 4.92585 0
M  V30 646 H 57.561 1.7212 3.3204 0
M  V30 647 H 59.853 1.97128 6.48187 0
M  V30 648 H 60.796 3.46441 6.17563 0
M  V30 649 H 61.204 1.96339 5.29255 0
M  V30 650 N 60.6021 -1.18246 1.0419 0
M  V30 651 C 61.5341 -2.2142 0.592088 0
M  V30 652 C 62.5471 -1.59233 -0.338909 0
M  V30 653 O 63.7361 -1.78002 -0.133231 0
M  V30 654 C 60.8361 -3.38546 -0.154854 0
M  V30 655 C 60.0091 -4.3031 0.784328 0
M  V30 656 C 59.0681 -5.26138 0.0804583 0
M  V30 657 O 58.0941 -5.64738 0.711292 0
M  V30 658 N 59.2961 -5.68261 -1.18574 0
M  V30 659 H 62.0611 -2.60636 1.47949 0
M  V30 660 H 59.6221 -1.33044 0.922544 0
M  V30 661 H 61.6141 -3.99678 -0.635606 0
M  V30 662 H 60.1841 -2.98012 -0.943811 0
M  V30 663 H 59.4041 -3.66764 1.44491 0
M  V30 664 H 60.6921 -4.8852 1.42218 0
M  V30 665 H 60.0901 -5.38957 -1.71876 0
M  V30 666 H 58.6471 -6.31584 -1.61074 0
M  V30 667 N 62.0802 -0.821533 -1.34494 0
M  V30 668 C 63.3102 -0.421272 -2.02259 0
M  V30 669 C 63.7182 0.977047 -1.6202 0
M  V30 670 O 63.0612 1.64348 -0.820703 0
M  V30 671 C 63.1232 -0.44231 -3.56769 0
M  V30 672 C 62.7872 -1.79372 -4.20327 0
M  V30 673 C 63.7842 -2.75435 -4.40944 0
M  V30 674 C 61.4692 -2.08182 -4.57127 0
M  V30 675 C 63.4632 -3.98482 -4.97484 0
M  V30 676 C 61.1502 -3.31489 -5.13379 0
M  V30 677 C 62.1482 -4.26457 -5.33501 0
M  V30 678 O 61.8362 -5.47585 -5.88562 0
M  V30 679 H 61.5682 -0.167473 -0.654927 0
M  V30 680 H 64.1222 -1.11073 -1.72777 0
M  V30 681 H 62.3522 0.303836 -3.85505 0
M  V30 682 H 64.0412 -0.0622925 -4.05852 0
M  V30 683 H 64.8072 -2.54473 -4.12878 0
M  V30 684 H 60.6862 -1.35066 -4.4077 0
M  V30 685 H 64.2302 -4.72618 -5.13106 0
M  V30 686 H 60.1272 -3.52316 -5.40873 0
M  V30 687 H 60.8952 -5.49086 -6.06998 0
M  V30 688 N 63.5583 1.46682 -0.576371 0
M  V30 689 C 64.8053 2.02412 -0.0595339 0
M  V30 690 C 65.1333 1.44859 1.29793 0
M  V30 691 O 64.3883 0.601099 1.8624 0
M  V30 692 C 64.6873 3.57345 0.062886 0
M  V30 693 C 64.3533 4.33908 -1.22616 0
M  V30 694 C 63.0153 4.54544 -1.57933 0
M  V30 695 C 65.3673 4.77919 -2.07948 0
M  V30 696 C 62.6953 5.16444 -2.78393 0
M  V30 697 C 65.0473 5.41149 -3.27629 0
M  V30 698 C 63.7113 5.60014 -3.63236 0
M  V30 699 H 62.9813 0.74068 -0.021785 0
M  V30 700 H 65.6283 1.76128 -0.751735 0
M  V30 701 H 63.9333 3.82729 0.838178 0
M  V30 702 H 65.6303 3.98136 0.478439 0
M  V30 703 H 62.2203 4.18138 -0.941202 0
M  V30 704 H 66.4043 4.61738 -1.81967 0
M  V30 705 H 61.6603 5.29242 -3.06126 0
M  V30 706 H 65.8343 5.74211 -3.94023 0
M  V30 707 H 63.4613 6.07748 -4.56669 0
M  V30 708 N 65.0364 0.313813 1.54444 0
M  V30 709 C 65.9464 -0.565714 2.27677 0
M  V30 710 C 66.9624 -1.13754 1.31666 0
M  V30 711 O 68.1384 -1.15959 1.64668 0
M  V30 712 C 65.2034 -1.71528 3.01296 0
M  V30 713 C 64.2644 -1.17624 4.12872 0
M  V30 714 C 63.4974 -2.27102 4.8297 0
M  V30 715 O 63.7204 -3.47256 4.52514 0
M  V30 716 O 62.6544 -1.9307 5.70094 0
M  V30 717 H 66.4804 0.0287296 3.03686 0
M  V30 718 H 64.0654 0.0798312 1.49187 0
M  V30 719 H 65.9474 -2.38476 3.4743 0
M  V30 720 H 64.6224 -2.29608 2.2817 0
M  V30 721 H 63.5294 -0.472124 3.71109 0
M  V30 722 H 64.8624 -0.640695 4.88012 0
M  V30 723 N 66.5145 -1.57545 0.0417849 0
M  V30 724 C 67.7605 -1.93424 -0.629168 0
M  V30 725 C 68.1155 -0.919564 -1.69002 0
M  V30 726 O 67.4085 0.0626178 -1.91498 0
M  V30 727 C 67.6025 -3.33794 -1.27735 0
M  V30 728 C 67.4315 -4.48822 -0.280806 0
M  V30 729 C 66.2015 -5.05148 0.123869 0
M  V30 730 C 68.3995 -5.12148 0.470012 0
M  V30 731 N 66.3815 -6.03703 1.11426 0
M  V30 732 C 67.7525 -6.05921 1.31377 0
M  V30 733 C 69.8075 -4.95078 0.529343 0
M  V30 734 C 68.5105 -6.84459 2.21152 0
M  V30 735 C 70.5365 -5.74235 1.41448 0
M  V30 736 C 69.8985 -6.67634 2.24598 0
M  V30 737 H 65.9975 -0.755418 -0.202158 0
M  V30 738 H 68.5815 -1.94378 0.111923 0
M  V30 739 H 66.7525 -3.33635 -1.98852 0
M  V30 740 H 68.4845 -3.56988 -1.90635 0
M  V30 741 H 65.2395 -4.72923 -0.253178 0
M  V30 742 H 65.6635 -6.57674 1.60607 0
M  V30 743 H 70.3055 -4.22683 -0.0992798 0
M  V30 744 H 68.0235 -7.56151 2.85063 0
M  V30 745 H 71.6095 -5.63057 1.46484 0
M  V30 746 H 70.4895 -7.27817 2.9198 0
M  V30 747 N 67.9926 0.231505 -1.5589 0
M  V30 748 C 68.9426 1.29007 -1.87993 0
M  V30 749 C 69.9266 1.42764 -0.742102 0
M  V30 750 O 71.1186 1.45747 -1.00433 0
M  V30 751 C 68.2476 2.6425 -2.1915 0
M  V30 752 C 67.3336 2.54435 -3.39299 0
M  V30 753 N 67.7246 2.14262 -4.58176 0
M  V30 754 C 66.0226 2.85416 -3.42715 0
M  V30 755 C 66.7236 2.15455 -5.40328 0
M  V30 756 N 65.6996 2.55558 -4.79783 0
M  V30 757 H 69.5016 0.970213 -2.77424 0
M  V30 758 H 67.0156 0.440097 -1.56323 0
M  V30 759 H 69.0126 3.40665 -2.40319 0
M  V30 760 H 67.6726 2.9709 -1.31025 0
M  V30 761 H 68.6836 1.85554 -4.83518 0
M  V30 762 H 65.3606 3.22693 -2.64906 0
M  V30 763 H 66.7506 1.86605 -6.45467 0
M  V30 764 N 69.4707 1.49531 0.497807 0
M  V30 765 C 70.4007 1.6935 1.60757 0
M  V30 766 C 71.3817 0.542218 1.61227 0
M  V30 767 O 72.5667 0.778417 1.77917 0
M  V30 768 C 69.6967 1.76298 2.99226 0
M  V30 769 C 68.6507 2.91248 3.13622 0
M  V30 770 C 67.9767 2.83312 4.53474 0
M  V30 771 C 69.2767 4.3214 2.93346 0
M  V30 772 H 70.9707 2.62263 1.44425 0
M  V30 773 H 68.5167 1.26208 0.693367 0
M  V30 774 H 70.4697 1.88749 3.76765 0
M  V30 775 H 69.1937 0.799871 3.16654 0
M  V30 776 H 67.8527 2.78404 2.38509 0
M  V30 777 H 67.5007 1.84902 4.67782 0
M  V30 778 H 67.2007 3.60465 4.64046 0
M  V30 779 H 68.7247 2.97775 5.33069 0
M  V30 780 H 70.1387 4.45649 3.60652 0
M  V30 781 H 68.5357 5.1054 3.15387 0
M  V30 782 H 69.6057 4.46363 1.89441 0
M  V30 783 N 70.9488 -0.749086 1.3866 0
M  V30 784 C 72.3598 -1.32664 1.31366 0
M  V30 785 C 72.7108 -1.96179 -0.028484 0
M  V30 786 O 71.8358 -1.9537 -0.93057 0
M  V30 787 C 72.4308 -2.41219 2.37905 0
M  V30 788 C 70.9898 -2.94684 2.34176 0
M  V30 789 C 70.1368 -1.68108 2.20533 0
M  V30 790 H 73.0878 -0.547628 1.48952 0
M  V30 791 H 73.1088 -3.21268 2.0388 0
M  V30 792 H 72.6208 -1.94962 3.35576 0
M  V30 793 H 70.7218 -3.45258 1.401 0
M  V30 794 H 70.8348 -3.48757 3.2849 0
M  V30 795 H 69.1988 -1.91907 1.67463 0
M  V30 796 H 69.9818 -1.23923 3.20153 0
M  V30 797 N 72.4269 -1.23603 -0.977757 0
M  V30 798 C 73.3749 -1.01704 -2.09187 0
M  V30 799 C 74.3689 0.0448214 -1.69341 0
M  V30 800 O 75.5749 -0.108902 -1.7967 0
M  V30 801 H 71.9499 -0.311803 -0.684312 0
M  V30 802 H 73.9209 -1.96207 -2.24823 0
M  V30 803 C 72.6699 -0.627746 -3.41986 0
M  V30 804 H 71.9929 -1.43656 -3.73099 0
M  V30 805 H 73.4329 -0.514053 -4.20872 0
M  V30 806 C 71.8919 0.664238 -3.30287 0
M  V30 807 O 72.4219 1.71268 -3.6336 0
M  V30 808 N 70.6279 0.641156 -2.83439 0
M  V30 809 H 70.1749 -0.212376 -2.56723 0
M  V30 810 H 70.1329 1.50583 -2.75993 0
M  V30 811 N 73.905 1.17692 -1.04816 0
M  V30 812 C 75.182 1.83768 -0.669963 0
M  V30 813 C 75.562 1.93232 0.849986 0
M  V30 814 O 74.91 1.46397 1.75443 0
M  V30 815 C 75.12 3.21641 -1.35455 0
M  V30 816 C 76.468 3.97592 -1.49017 0
M  V30 817 O 77.492 3.31107 -1.31326 0
M  V30 818 O 76.351 5.16729 -1.77914 0
M  V30 819 H 73.445 0.792799 -0.235368 0
M  V30 820 H 75.991 1.25021 -1.14751 0
M  V30 821 H 74.763 3.097 -2.39168 0
M  V30 822 H 74.386 3.88052 -0.866107 0
M  V30 823 N 75.3831 0.828654 1.34056 0
M  V30 824 C 76.6311 0.41863 1.97717 0
M  V30 825 C 76.9521 -1.02314 1.66002 0
M  V30 826 O 76.2221 -1.71119 0.953683 0
M  V30 827 H 74.8021 0.151809 0.731412 0
M  V30 828 H 77.4641 1.05936 1.63596 0
M  V30 829 H 76.5601 0.542318 3.07352 0
M  V30 830 N 76.8612 -1.46375 0.584142 0
M  V30 831 C 77.8092 -2.32042 -0.161047 0
M  V30 832 C 78.8032 -1.44569 -0.882966 0
M  V30 833 O 80.0092 -1.61186 -0.801191 0
M  V30 834 H 76.3842 -0.748659 -0.0708033 0
M  V30 835 H 78.3552 -2.92704 0.580269 0
M  V30 836 C 77.1042 -3.27762 -1.1605 0
M  V30 837 H 76.4272 -3.95051 -0.614419 0
M  V30 838 H 77.8672 -3.90481 -1.65228 0
M  V30 839 C 76.3262 -2.53218 -2.22221 0
M  V30 840 O 76.8562 -2.29628 -3.29597 0
M  V30 841 N 75.0622 -2.13756 -1.96868 0
M  V30 842 H 74.6092 -2.33142 -1.09557 0
M  V30 843 H 74.5672 -1.642 -2.68115 0
M  V30 844 N 78.3393 -0.321999 -1.54275 0
M  V30 845 C 79.2893 0.560185 -2.21011 0
M  V30 846 C 80.2733 1.08283 -1.19011 0
M  V30 847 O 81.4653 1.02011 -1.44647 0
M  V30 848 C 78.5943 1.72137 -2.97025 0
M  V30 849 C 77.6803 1.21369 -4.06363 0
M  V30 850 N 78.0713 0.425566 -5.04007 0
M  V30 851 C 76.3693 1.49255 -4.20284 0
M  V30 852 C 77.0703 0.152601 -5.815 0
M  V30 853 N 76.0463 0.738294 -5.38563 0
M  V30 854 H 79.8483 -0.049265 -2.93859 0
M  V30 855 H 77.3623 -0.127779 -1.61897 0
M  V30 856 H 79.3593 2.36512 -3.43319 0
M  V30 857 H 78.0193 2.33431 -2.25699 0
M  V30 858 H 79.0303 0.068551 -5.17855 0
M  V30 859 H 75.7073 2.11145 -3.60172 0
M  V30 860 H 77.0973 -0.481764 -6.70171 0
M  V30 861 N 79.8174 1.5752 -0.0501392 0
M  V30 862 C 81.0634 1.93755 0.618901 0
M  V30 863 C 81.4184 0.928514 1.68512 0
M  V30 864 O 80.7114 -0.0524613 1.91528 0
M  V30 865 C 80.9054 3.34467 1.25963 0
M  V30 866 C 80.7344 4.48965 0.257 0
M  V30 867 C 79.5044 5.05075 -0.150656 0
M  V30 868 C 81.7024 5.11891 -0.497166 0
M  V30 869 N 79.6844 6.03104 -1.14626 0
M  V30 870 C 81.0554 6.05216 -1.34588 0
M  V30 871 C 83.1104 4.9479 -0.55559 0
M  V30 872 C 81.8134 6.83277 -2.24778 0
M  V30 873 C 83.8394 5.73477 -1.44492 0
M  V30 874 C 83.2014 6.66433 -2.28136 0
M  V30 875 H 79.3004 0.756479 0.198149 0
M  V30 876 H 81.8844 1.94316 -0.122229 0
M  V30 877 H 80.0554 3.34685 1.97079 0
M  V30 878 H 81.7874 3.57994 1.88739 0
M  V30 879 H 78.5424 4.7305 0.228094 0
M  V30 880 H 78.9664 6.56813 -1.64092 0
M  V30 881 H 83.6084 4.2273 0.0768625 0
M  V30 882 H 81.3264 7.54629 -2.89069 0
M  V30 883 H 84.9124 5.62273 -1.49468 0
M  V30 884 H 83.7924 7.26258 -2.95835 0
M  V30 885 N 81.2955 -0.223234 1.56011 0
M  V30 886 C 82.2435 -1.29627 1.93131 0
M  V30 887 C 83.2375 -1.48608 0.813146 0
M  V30 888 O 84.4435 -1.49802 0.997966 0
M  V30 889 H 80.8185 -0.434563 0.613726 0
M  V30 890 H 82.7895 -0.955995 2.82672 0
M  V30 891 C 81.5385 -2.63983 2.26292 0
M  V30 892 H 80.8615 -2.50185 3.11846 0
M  V30 893 H 82.3015 -3.3788 2.56151 0
M  V30 894 C 80.7605 -3.18866 1.08747 0
M  V30 895 O 81.2905 -4.00192 0.347727 0
M  V30 896 N 79.4965 -2.77217 0.871743 0
M  V30 897 H 79.0435 -2.1119 1.47501 0
M  V30 898 H 79.0015 -3.1428 0.0869905 0
M  V30 899 N 82.7736 -1.49793 -0.48987 0
M  V30 900 C 84.1896 -1.36803 -0.822022 0
M  V30 901 C 84.3896 -0.409652 -1.97292 0
M  V30 902 O 83.4456 0.154614 -2.52026 0
M  V30 903 C 84.7586 -2.77768 -1.15175 0
M  V30 904 C 86.3066 -2.86549 -1.25931 0
M  V30 905 C 86.7816 -4.28306 -1.62228 0
M  V30 906 N 88.2726 -4.31169 -1.69256 0
M  V30 907 C 89.0076 -5.37832 -1.98807 0
M  V30 908 N 88.5036 -6.54726 -2.26507 0
M  V30 909 N 90.2966 -5.25258 -2.00152 0
M  V30 910 H 82.4476 -2.10691 0.268881 0
M  V30 911 H 84.7106 -0.946241 0.057728 0
M  V30 912 H 84.4166 -3.49648 -0.379335 0
M  V30 913 H 84.2906 -3.13836 -2.09253 0
M  V30 914 H 86.6776 -2.14899 -2.02243 0
M  V30 915 H 86.7586 -2.54049 -0.298776 0
M  V30 916 H 86.4026 -5.00486 -0.864622 0
M  V30 917 H 86.3326 -4.58279 -2.594 0
M  V30 918 H 88.8236 -3.4687 -1.49965 0
M  V30 919 H 89.1366 -7.31833 -2.48276 0
M  V30 920 H 87.4816 -6.57933 -2.23939 0
M  V30 921 H 90.6726 -4.32938 -1.77996 0
M  V30 922 H 90.8456 -6.08476 -2.22848 0
M  V30 923 N 84.2517 0.741722 -1.39055 0
M  V30 924 C 85.1817 1.869 -1.39966 0
M  V30 925 C 86.1627 1.6804 -0.26392 0
M  V30 926 O 87.3477 1.88458 -0.468755 0
M  V30 927 C 84.4777 3.24572 -1.23574 0
M  V30 928 C 83.4317 3.58056 -2.34477 0
M  V30 929 C 82.7577 4.94593 -2.0318 0
M  V30 930 C 84.0577 3.61716 -3.76774 0
M  V30 931 H 85.7517 1.86395 -2.34302 0
M  V30 932 H 83.2977 0.895361 -1.1278 0
M  V30 933 H 85.2507 4.031 -1.22834 0
M  V30 934 H 83.9747 3.25587 -0.257045 0
M  V30 935 H 82.6337 2.81854 -2.34423 0
M  V30 936 H 82.2817 4.92181 -1.03765 0
M  V30 937 H 81.9817 5.17964 -2.77465 0
M  V30 938 H 83.5057 5.75486 -2.04079 0
M  V30 939 H 84.9197 4.30335 -3.78794 0
M  V30 940 H 83.3167 3.96603 -4.50362 0
M  V30 941 H 84.3867 2.61672 -4.08235 0
M  V30 942 N 85.7298 1.2412 0.971189 0
M  V30 943 C 87.1458 1.00584 1.23916 0
M  V30 944 C 87.3458 -0.287481 1.99439 0
M  V30 945 O 86.4018 -1.00454 2.31658 0
M  V30 946 C 87.7148 2.21864 2.0297 0
M  V30 947 C 89.2628 2.26452 2.16076 0
M  V30 948 C 89.7378 3.47343 2.98524 0
M  V30 949 N 91.2288 3.47639 3.06107 0
M  V30 950 C 91.9638 4.37837 3.70251 0
M  V30 951 N 91.4598 5.38286 4.36142 0
M  V30 952 N 93.2528 4.25558 3.67228 0
M  V30 953 H 85.4038 2.07236 0.465499 0
M  V30 954 H 87.6668 0.909236 0.268315 0
M  V30 955 H 87.3728 3.15771 1.54861 0
M  V30 956 H 87.2468 2.23698 3.03709 0
M  V30 957 H 89.6338 1.33078 2.6339 0
M  V30 958 H 89.7148 2.28645 1.14696 0
M  V30 959 H 89.3588 4.41029 2.51905 0
M  V30 960 H 89.2888 3.42393 4.00093 0
M  V30 961 H 91.7798 2.74966 2.59233 0
M  V30 962 H 92.0928 6.03352 4.82894 0
M  V30 963 H 90.4378 5.42176 4.34822 0
M  V30 964 H 93.6288 3.46322 3.14927 0
M  V30 965 H 93.8018 4.96054 4.16935 0
M  V30 966 N 87.2079 -1.17134 1.05439 0
M  V30 967 C 88.4849 -1.83411 0.679699 0
M  V30 968 C 88.8649 -1.9368 -0.839726 0
M  V30 969 O 88.2129 -1.47325 -1.74664 0
M  V30 970 C 88.4229 -3.20918 1.37159 0
M  V30 971 C 89.7709 -3.96796 1.51123 0
M  V30 972 O 90.7949 -3.30406 1.3308 0
M  V30 973 O 89.6539 -5.15778 1.80651 0
M  V30 974 H 86.7479 -0.79154 0.239569 0
M  V30 975 H 89.2939 -1.24411 1.15413 0
M  V30 976 H 88.0659 -3.08428 2.40807 0
M  V30 977 H 87.6889 -3.87587 0.886674 0
M  V30 978 N 88.686 -0.835752 -1.33615 0
M  V30 979 C 89.963 -0.352017 -1.92406 0
M  V30 980 C 90.343 1.16225 -1.76224 0
M  V30 981 O 89.691 1.97526 -1.14873 0
M  V30 982 C 89.901 -0.795485 -3.39813 0
M  V30 983 C 91.249 -0.801703 -4.16963 0
M  V30 984 O 92.273 -0.738889 -3.48452 0
M  V30 985 O 91.132 -0.886607 -5.3926 0
M  V30 986 H 88.226 -0.0989641 -0.821057 0
M  V30 987 H 90.772 -0.921397 -1.42507 0
M  V30 988 H 89.544 -1.83795 -3.45449 0
M  V30 989 H 89.167 -0.202505 -3.97084 0
M  V30 990 N 90.1641 1.46063 -0.591896 0
M  V30 991 C 91.1271 2.28854 0.125973 0
M  V30 992 C 92.1271 1.38903 0.810107 0
M  V30 993 O 93.3171 1.61186 0.66066 0
M  V30 994 C 90.4491 3.19526 1.1881 0
M  V30 995 H 91.6421 2.93802 -0.601717 0
M  V30 996 H 89.1951 1.52325 -0.350254 0
M  V30 997 H 89.9301 2.59345 1.94707 0
M  V30 998 H 89.7151 3.85766 0.701936 0
M  V30 999 H 91.2051 3.81817 1.69132 0
M  V30 1000 N 91.6422 0.330177 1.54103 0
M  V30 1001 C 92.6052 -0.520144 2.2322 0
M  V30 1002 C 93.6052 -1.03828 1.22786 0
M  V30 1003 O 94.7952 -0.929652 1.4732 0
M  V30 1004 C 91.9272 -1.72317 2.94142 0
M  V30 1005 H 93.1202 0.0841605 2.99782 0
M  V30 1006 H 90.6732 0.0813433 1.56088 0
M  V30 1007 H 91.4082 -2.36653 2.21734 0
M  V30 1008 H 91.1932 -1.35898 3.67796 0
M  V30 1009 H 92.6832 -2.3266 3.46784 0
M  V30 1010 N 93.1203 -1.57491 0.0584922 0
M  V30 1011 C 94.0683 -2.13148 -0.931168 0
M  V30 1012 C 95.0623 -1.06507 -1.31729 0
M  V30 1013 O 96.2683 -1.24906 -1.29609 0
M  V30 1014 H 92.6433 -0.68137 -0.31818 0
M  V30 1015 H 94.6143 -2.95187 -0.436707 0
M  V30 1016 C 93.3633 -2.69732 -2.19408 0
M  V30 1017 H 92.6863 -3.51454 -1.90578 0
M  V30 1018 H 94.1263 -3.12287 -2.86798 0
M  V30 1019 C 92.5853 -1.63855 -2.94369 0
M  V30 1020 O 93.1153 -1.05565 -3.87581 0
M  V30 1021 N 91.3213 -1.35202 -2.57233 0
M  V30 1022 H 90.8683 -1.82791 -1.81508 0
M  V30 1023 H 90.8263 -0.645922 -3.07693 0
M  V30 1024 N 94.5984 0.214957 -1.56127 0
M  V30 1025 C 95.5284 1.2695 -1.95974 0
M  V30 1026 C 96.5094 1.48539 -0.828868 0
M  V30 1027 O 97.6944 1.60611 -1.09168 0
M  V30 1028 C 94.8244 2.61794 -2.28214 0
M  V30 1029 C 93.7784 2.54851 -3.43853 0
M  V30 1030 C 93.1044 3.93785 -3.61715 0
M  V30 1031 C 94.4044 2.09065 -4.78632 0
M  V30 1032 H 96.0984 0.93846 -2.84312 0
M  V30 1033 H 93.6444 0.449996 -1.36788 0
M  V30 1034 H 95.5974 3.35731 -2.54682 0
M  V30 1035 H 94.3214 2.96599 -1.36736 0
M  V30 1036 H 92.9804 1.8337 -3.17444 0
M  V30 1037 H 92.6284 4.25908 -2.67602 0
M  V30 1038 H 92.3284 3.90019 -4.39498 0
M  V30 1039 H 93.8524 4.69374 -3.90539 0
M  V30 1040 H 95.2664 2.7275 -5.04262 0
M  V30 1041 H 93.6634 2.16346 -5.59745 0
M  V30 1042 H 94.7334 1.04315 -4.73547 0
M  V30 1043 N 96.0765 1.50051 0.48192 0
M  V30 1044 C 97.0235 1.68122 1.58125 0
M  V30 1045 C 97.9935 0.522545 1.57666 0
M  V30 1046 O 99.1785 0.751844 1.75362 0
M  V30 1047 C 96.3185 1.77142 2.96167 0
M  V30 1048 C 95.4315 3.0444 3.06497 0
M  V30 1049 C 94.5665 3.04321 4.35387 0
M  V30 1050 C 93.6055 4.26118 4.3942 0
M  V30 1051 N 92.7425 4.238 5.59766 0
M  V30 1052 H 97.5825 2.6198 1.42022 0
M  V30 1053 H 95.1195 1.29877 0.690687 0
M  V30 1054 H 97.0775 1.80352 3.76203 0
M  V30 1055 H 95.7075 0.867329 3.1093 0
M  V30 1056 H 94.7595 3.10752 2.19402 0
M  V30 1057 H 96.0715 3.94426 3.05336 0
M  V30 1058 H 95.2255 3.062 5.23762 0
M  V30 1059 H 93.9645 2.12147 4.39141 0
M  V30 1060 H 92.9695 4.24463 3.49444 0
M  V30 1061 H 94.1945 5.19507 4.37366 0
M  V30 1062 H 92.1405 3.34474 5.64326 0
M  V30 1063 H 92.0575 5.07542 5.60301 0
M  V30 1064 H 93.3255 4.2981 6.50295 0
M  V30 1065 N 97.5546 -0.734337 1.39446 0
M  V30 1066 C 98.7796 -1.52866 1.40167 0
M  V30 1067 C 99.2046 -1.881 -0.00171513 0
M  V30 1068 O 98.5626 -1.51957 -0.988879 0
M  V30 1069 C 98.6106 -2.79235 2.28167 0
M  V30 1070 O 97.7146 -3.75185 1.71201 0
M  V30 1071 H 97.0556 -0.461618 0.477289 0
M  V30 1072 H 99.5856 -0.905949 1.8345 0
M  V30 1073 H 99.5956 -3.27963 2.42702 0
M  V30 1074 H 98.2706 -2.52923 3.30156 0
M  V30 1075 H 96.8476 -3.33958 1.65912 0
M  V30 1076 N 99.0327 -1.24633 -0.964593 0
M  V30 1077 C 99.9797 -1.04144 -2.05968 0
M  V30 1078 C 100.95 0.046262 -1.66036 0
M  V30 1079 O 102.135 -0.108972 -1.90489 0
M  V30 1080 C 99.2747 -0.65563 -3.38815 0
M  V30 1081 C 98.3877 -1.81714 -3.91923 0
M  V30 1082 C 97.5227 -1.37662 -5.13052 0
M  V30 1083 C 96.5617 -2.50788 -5.58365 0
M  V30 1084 N 95.6987 -2.07582 -6.70712 0
M  V30 1085 H 100.539 -1.9787 -2.22827 0
M  V30 1086 H 98.0757 -0.9855 -1.09208 0
M  V30 1087 H 100.034 -0.412954 -4.15151 0
M  V30 1088 H 98.6637 0.244627 -3.21872 0
M  V30 1089 H 97.7157 -2.1734 -3.12198 0
M  V30 1090 H 99.0277 -2.66705 -4.21509 0
M  V30 1091 H 98.1817 -1.093 -5.96773 0
M  V30 1092 H 96.9207 -0.497293 -4.85158 0
M  V30 1093 H 95.9257 -2.79906 -4.73215 0
M  V30 1094 H 97.1507 -3.39283 -5.88272 0
M  V30 1095 H 95.0967 -1.22051 -6.44546 0
M  V30 1096 H 95.0137 -2.86125 -6.99763 0
M  V30 1097 H 96.2817 -1.82369 -7.57867 0
M  V30 1098 N 100.511 1.16574 -1.06058 0
M  V30 1099 C 101.759 1.86677 -0.77434 0
M  V30 1100 C 102.08 1.81959 0.701147 0
M  V30 1101 O 101.35 1.2515 1.50713 0
M  V30 1102 H 99.9298 0.691134 -0.283449 0
M  V30 1103 H 102.592 1.41378 -1.34158 0
M  V30 1104 H 101.688 2.92181 -1.09711 0
M  V30 1105 N 101.989 0.842826 1.3317 0
M  V30 1106 C 103.238 0.436738 1.96915 0
M  V30 1107 C 103.551 -1.01025 1.67491 0
M  V30 1108 O 104.757 -1.5212 2.24881 0
M  V30 1109 C 103.213 0.730021 3.52418 0
M  V30 1110 C 102.821 2.19195 3.90714 0
M  V30 1111 C 104.565 0.391076 4.22695 0
M  V30 1112 C 102.472 2.42907 5.39212 0
M  V30 1113 H 101.402 0.15958 0.736919 0
M  V30 1114 H 104.053 1.03196 1.51733 0
M  V30 1115 H 102.435 0.0643755 3.95948 0
M  V30 1116 H 103.609 2.8984 3.58231 0
M  V30 1117 H 101.924 2.49425 3.33431 0
M  V30 1118 H 104.521 0.545817 5.31907 0
M  V30 1119 H 104.864 -0.666294 4.10933 0
M  V30 1120 H 105.397 1.01212 3.84709 0
M  V30 1121 H 102.136 3.47224 5.55982 0
M  V30 1122 H 101.656 1.76827 5.73142 0
M  V30 1123 H 103.335 2.2626 6.06148 0
M  V30 1124 N 103.467 -1.45747 0.599634 0
M  V30 1125 C 104.695 -2.06668 0.0978551 0
M  V30 1126 C 105.11 -1.44562 -1.21439 0
M  V30 1127 O 104.467 -0.556923 -1.73795 0
M  V30 1128 C 104.518 -3.61456 -0.0567044 0
M  V30 1129 O 104.239 -4.21242 1.20361 0
M  V30 1130 C 105.74 -4.39345 -0.590869 0
M  V30 1131 H 102.96 -0.667825 0.0651943 0
M  V30 1132 H 105.504 -1.87115 0.82511 0
M  V30 1133 H 103.659 -3.80378 -0.734251 0
M  V30 1134 H 104.073 -5.14323 1.02821 0
M  V30 1135 H 105.547 -5.48182 -0.648131 0
M  V30 1136 H 106.024 -4.08568 -1.61147 0
M  V30 1137 H 106.63 -4.25268 0.0523679 0
M  V30 1138 N 104.945 -0.338344 -1.53925 0
M  V30 1139 C 105.908 0.508299 -2.23493 0
M  V30 1140 C 106.908 1.03175 -1.23335 0
M  V30 1141 O 108.098 0.921826 -1.47811 0
M  V30 1142 C 105.23 1.70754 -2.95052 0
M  V30 1143 H 106.423 -0.100058 -2.99733 0
M  V30 1144 H 103.976 -0.0896198 -1.56043 0
M  V30 1145 H 104.711 2.35474 -2.22986 0
M  V30 1146 H 104.496 1.33946 -3.68512 0
M  V30 1147 H 105.986 2.30818 -3.48013 0
M  V30 1148 N 106.423 1.57458 -0.0668435 0
M  V30 1149 C 107.669 1.93587 0.6043 0
M  V30 1150 C 108.002 0.946722 1.69561 0
M  V30 1151 O 107.277 -0.0248516 1.94484 0
M  V30 1152 C 107.56 3.40014 1.18585 0
M  V30 1153 C 107.413 4.49685 0.101529 0
M  V30 1154 C 108.732 3.87154 2.09284 0
M  V30 1155 H 105.851 0.703958 0.218202 0
M  V30 1156 H 108.493 1.89542 -0.131804 0
M  V30 1157 H 106.643 3.43592 1.81319 0
M  V30 1158 H 108.315 4.5823 -0.531279 0
M  V30 1159 H 106.558 4.30059 -0.568487 0
M  V30 1160 H 107.229 5.49266 0.54874 0
M  V30 1161 H 109.705 3.85551 1.56491 0
M  V30 1162 H 108.581 4.90231 2.46911 0
M  V30 1163 H 108.842 3.2481 2.99918 0
M  V30 1164 N 107.901 -0.206675 1.56239 0
M  V30 1165 C 109.147 -0.925733 1.81113 0
M  V30 1166 C 109.502 -1.81368 0.642135 0
M  V30 1167 O 108.795 -1.88126 -0.363211 0
M  V30 1168 C 108.989 -1.78675 3.09532 0
M  V30 1169 C 108.818 -0.98365 4.3881 0
M  V30 1170 C 107.588 -0.672661 5.00803 0
M  V30 1171 C 109.786 -0.341847 5.13163 0
M  V30 1172 N 107.768 0.150283 6.13716 0
M  V30 1173 C 109.139 0.343815 6.19046 0
M  V30 1174 C 111.194 -0.256392 4.97239 0
M  V30 1175 C 109.897 1.10678 7.10734 0
M  V30 1176 C 111.923 0.493142 5.8934 0
M  V30 1177 C 111.285 1.16729 6.94661 0
M  V30 1178 H 107.384 -0.318524 0.714189 0
M  V30 1179 H 109.968 -0.195378 1.93717 0
M  V30 1180 H 108.139 -2.4888 2.98183 0
M  V30 1181 H 109.871 -2.44441 3.22538 0
M  V30 1182 H 106.626 -0.994294 4.63045 0
M  V30 1183 H 107.05 0.551026 6.74754 0
M  V30 1184 H 111.692 -0.763249 4.15854 0
M  V30 1185 H 109.41 1.6251 7.91591 0
M  V30 1186 H 112.996 0.560465 5.79094 0
M  V30 1187 H 111.876 1.738 7.64698 0
M  V30 1188 N 109.379 -1.50304 -0.473955 0
M  V30 1189 C 110.628 -1.60392 -1.22301 0
M  V30 1190 C 110.941 -0.308411 -1.93153 0
M  V30 1191 O 112.147 -0.288156 -2.69966 0
M  V30 1192 C 110.603 -2.83109 -2.2221 0
M  V30 1193 C 110.211 -4.19524 -1.57173 0
M  V30 1194 C 111.955 -3.0254 -2.97775 0
M  V30 1195 C 109.862 -5.33431 -2.55353 0
M  V30 1196 H 108.792 -0.597286 -0.460179 0
M  V30 1197 H 111.443 -1.76731 -0.493803 0
M  V30 1198 H 109.825 -2.60322 -2.9841 0
M  V30 1199 H 110.999 -4.52554 -0.867824 0
M  V30 1200 H 109.314 -4.05674 -0.939002 0
M  V30 1201 H 111.911 -3.84811 -3.71248 0
M  V30 1202 H 112.254 -2.14154 -3.56992 0
M  V30 1203 H 112.787 -3.25494 -2.28688 0
M  V30 1204 H 109.526 -6.23962 -2.00878 0
M  V30 1205 H 109.046 -5.04823 -3.23904 0
M  V30 1206 H 110.725 -5.63887 -3.17239 0
M  V30 1207 N 110.857 0.726932 -1.39834 0
M  V30 1208 C 112.268 1.30558 -1.3346 0
M  V30 1209 C 112.619 1.962 -0.00273003 0
M  V30 1210 O 111.744 1.96826 0.899371 0
M  V30 1211 C 112.339 2.37404 -2.41713 0
M  V30 1212 C 110.898 2.90921 -2.38835 0
M  V30 1213 C 110.045 1.64578 -2.2318 0
M  V30 1214 H 112.996 0.523862 -1.49804 0
M  V30 1215 H 113.017 3.17984 -2.08966 0
M  V30 1216 H 112.529 1.89599 -3.38635 0
M  V30 1217 H 110.63 3.42985 -1.45575 0
M  V30 1218 H 110.743 3.43487 -3.33997 0
M  V30 1219 H 109.107 1.89219 -1.70494 0
M  V30 1220 H 109.89 1.18814 -3.22084 0
M  V30 1221 N 112.336 1.25143 0.95797 0
M  V30 1222 C 113.747 1.08851 1.51685 0
M  V30 1223 C 114.098 -0.33687 1.93286 0
M  V30 1224 O 113.223 -1.22644 1.7829 0
M  V30 1225 C 113.818 1.96978 2.75654 0
M  V30 1226 C 112.377 1.84881 3.27866 0
M  V30 1227 C 111.524 1.91329 2.0072 0
M  V30 1228 H 114.475 1.38478 0.77522 0
M  V30 1229 H 114.496 1.5078 3.4935 0
M  V30 1230 H 114.008 3.00712 2.45345 0
M  V30 1231 H 112.109 0.840182 3.63004 0
M  V30 1232 H 112.222 2.6951 3.96107 0
M  V30 1233 H 110.586 1.35174 2.15871 0
M  V30 1234 H 111.369 2.96661 1.72764 0
M  V30 1235 N 113.814 -1.1601 1.06675 0
M  V30 1236 C 114.777 -2.18724 0.685001 0
M  V30 1237 C 115.777 -1.58496 -0.271246 0
M  V30 1238 O 116.967 -1.74119 -0.0531156 0
M  V30 1239 C 114.099 -3.40899 0.00853648 0
M  V30 1240 H 115.292 -2.54011 1.59431 0
M  V30 1241 H 112.845 -1.30352 0.862441 0
M  V30 1242 H 113.58 -3.11173 -0.913337 0
M  V30 1243 H 113.365 -3.8587 0.696204 0
M  V30 1244 H 114.855 -4.16886 -0.24414 0
M  V30 1245 N 115.292 -0.849877 -1.32721 0
M  V30 1246 C 116.538 -0.460855 -1.9811 0
M  V30 1247 C 116.893 0.971716 -1.66059 0
M  V30 1248 O 116.186 1.67184 -0.935944 0
M  V30 1249 C 116.38 -0.631272 -3.51781 0
M  V30 1250 C 116.209 -2.07886 -3.98765 0
M  V30 1251 C 114.979 -2.71637 -4.26077 0
M  V30 1252 C 117.177 -3.04889 -4.14182 0
M  V30 1253 N 115.159 -4.07356 -4.59276 0
M  V30 1254 C 116.53 -4.25583 -4.50865 0
M  V30 1255 C 118.585 -3.01148 -3.96503 0
M  V30 1256 C 117.288 -5.43027 -4.71714 0
M  V30 1257 C 119.314 -4.17832 -4.18533 0
M  V30 1258 C 118.676 -5.37284 -4.55528 0
M  V30 1259 H 114.775 -0.217283 -0.751207 0
M  V30 1260 H 117.359 -1.10026 -1.60631 0
M  V30 1261 H 115.53 -0.0215966 -3.88394 0
M  V30 1262 H 117.262 -0.212614 -4.04141 0
M  V30 1263 H 114.017 -2.22705 -4.17971 0
M  V30 1264 H 114.441 -4.77351 -4.80068 0
M  V30 1265 H 119.083 -2.0992 -3.67006 0
M  V30 1266 H 116.801 -6.34791 -5.00066 0
M  V30 1267 H 120.387 -4.16368 -4.06361 0
M  V30 1268 H 119.267 -6.26071 -4.72234 0
M  V30 1269 N 116.77 1.45427 -0.607355 0
M  V30 1270 C 117.717 2.3053 0.111625 0
M  V30 1271 C 118.687 1.4209 0.860216 0
M  V30 1272 O 119.872 1.71019 0.845998 0
M  V30 1273 C 117.012 3.26992 1.10319 0
M  V30 1274 C 116.125 4.30535 0.355493 0
M  V30 1275 C 115.26 5.14105 1.33676 0
M  V30 1276 C 114.299 6.09376 0.576862 0
M  V30 1277 N 113.436 6.85727 1.5074 0
M  V30 1278 H 118.276 2.91477 -0.620093 0
M  V30 1279 H 115.813 1.43631 -0.317594 0
M  V30 1280 H 117.771 3.81385 1.6912 0
M  V30 1281 H 116.401 2.67799 1.80232 0
M  V30 1282 H 115.453 3.78805 -0.348023 0
M  V30 1283 H 116.765 4.98235 -0.237423 0
M  V30 1284 H 115.919 5.72897 1.99684 0
M  V30 1285 H 114.658 4.46423 1.9636 0
M  V30 1286 H 113.663 5.49715 -0.0968519 0
M  V30 1287 H 114.888 6.79085 -0.0449341 0
M  V30 1288 H 112.834 6.20735 2.12189 0
M  V30 1289 H 112.751 7.49778 0.967913 0
M  V30 1290 H 114.019 7.4906 2.15706 0
M  V30 1291 N 118.248 0.346503 1.53744 0
M  V30 1292 C 119.496 -0.248612 2.00565 0
M  V30 1293 C 119.817 -1.5083 1.23593 0
M  V30 1294 O 119.087 -1.92858 0.343912 0
M  V30 1295 H 117.667 -0.0948564 0.740953 0
M  V30 1296 H 120.329 0.468341 1.89189 0
M  V30 1297 H 119.425 -0.488994 3.08245 0
M  V30 1298 N 119.726 -1.57421 0.075193 0
M  V30 1299 C 120.954 -1.97946 -0.602076 0
M  V30 1300 C 121.369 -0.953674 -1.62943 0
M  V30 1301 O 120.726 0.0592551 -1.82404 0
M  V30 1302 C 120.777 -3.38546 -1.26762 0
M  V30 1303 O 120.498 -4.37195 -0.281376 0
M  V30 1304 C 121.999 -3.93966 -2.03239 0
M  V30 1305 H 119.219 -0.650918 -0.162931 0
M  V30 1306 H 121.763 -2.03959 0.148601 0
M  V30 1307 H 119.918 -3.33609 -1.96936 0
M  V30 1308 H 120.332 -5.18975 -0.759267 0
M  V30 1309 H 121.806 -4.94555 -2.45193 0
M  V30 1310 H 122.283 -3.30693 -2.8903 0
M  V30 1311 H 122.889 -4.02315 -1.37924 0
M  V30 1312 N 121.204 0.198386 -1.56346 0
M  V30 1313 C 122.429 0.939682 -1.84891 0
M  V30 1314 C 122.854 1.76202 -0.658369 0
M  V30 1315 O 122.212 1.76993 0.392851 0
M  V30 1316 C 122.26 1.81428 -3.11635 0
M  V30 1317 O 121.364 2.91265 -2.91956 0
M  V30 1318 H 120.705 0.264807 -0.608912 0
M  V30 1319 H 123.235 0.204695 -2.03573 0
M  V30 1320 H 123.245 2.21958 -3.42343 0
M  V30 1321 H 121.92 1.21004 -3.97908 0
M  V30 1322 H 120.497 2.54514 -2.72538 0
M  V30 1323 N 122.682 1.50554 0.465978 0
M  V30 1324 C 123.614 1.65949 1.58093 0
M  V30 1325 C 124.627 0.540827 1.53554 0
M  V30 1326 O 125.816 0.814187 1.5885 0
M  V30 1327 C 122.916 1.63261 2.96983 0
M  V30 1328 C 122.089 2.91245 3.26336 0
M  V30 1329 C 121.148 2.8113 4.44806 0
M  V30 1330 O 120.174 3.55086 4.44862 0
M  V30 1331 N 121.376 1.95032 5.46756 0
M  V30 1332 H 124.141 2.62122 1.45301 0
M  V30 1333 H 121.702 1.48082 0.65448 0
M  V30 1334 H 123.694 1.54101 3.74212 0
M  V30 1335 H 122.264 0.748032 3.03518 0
M  V30 1336 H 121.484 3.14493 2.37672 0
M  V30 1337 H 122.772 3.76022 3.42761 0
M  V30 1338 H 122.17 1.3427 5.49534 0
M  V30 1339 H 120.727 1.91772 6.2295 0
M  V30 1340 N 124.16 -0.719506 1.40217 0
M  V30 1341 C 125.108 -1.85493 1.40339 0
M  V30 1342 C 126.102 -1.66995 0.284415 0
M  V30 1343 O 127.308 -1.74148 0.455252 0
M  V30 1344 H 123.683 -0.610857 0.438586 0
M  V30 1345 H 125.654 -1.82506 2.36081 0
M  V30 1346 C 124.403 -3.23321 1.27901 0
M  V30 1347 H 123.726 -3.38159 2.1328 0
M  V30 1348 H 125.166 -4.02914 1.32045 0
M  V30 1349 C 123.625 -3.36898 -0.0111355 0
M  V30 1350 O 124.155 -3.89674 -0.975538 0
M  V30 1351 N 122.361 -2.90492 -0.0793393 0
M  V30 1352 H 121.908 -2.47731 0.706183 0
M  V30 1353 H 121.866 -2.99955 -0.942038 0
M  V30 1354 N 125.638 -1.25649 -0.95132 0
M  V30 1355 C 126.915 -1.01361 -1.67288 0
M  V30 1356 C 127.295 0.459135 -2.06046 0
M  V30 1357 O 126.643 1.43723 -1.7764 0
M  V30 1358 C 126.853 -1.95256 -2.89268 0
M  V30 1359 C 128.201 -2.23289 -3.61147 0
M  V30 1360 O 129.225 -1.93041 -2.99355 0
M  V30 1361 O 128.084 -2.74741 -4.72419 0
M  V30 1362 H 125.178 -0.38464 -0.732107 0
M  V30 1363 H 127.724 -1.36817 -1.00395 0
M  V30 1364 H 126.496 -2.94685 -2.57442 0
M  V30 1365 H 126.119 -1.60218 -3.6389 0
M  V30 1366 N 127.117 1.15442 -1.07289 0
M  V30 1367 C 128.363 1.86489 -0.796846 0
M  V30 1368 C 128.696 1.82078 0.675371 0
M  V30 1369 O 127.971 1.24346 1.4956 0
M  V30 1370 C 128.254 3.35626 -1.30489 0
M  V30 1371 C 128.107 3.48673 -2.84161 0
M  V30 1372 C 129.426 4.30357 -0.920907 0
M  V30 1373 H 126.545 0.677144 -0.290939 0
M  V30 1374 H 129.187 1.35633 -1.33056 0
M  V30 1375 H 127.337 3.79068 -0.850883 0
M  V30 1376 H 129.009 3.14099 -3.37846 0
M  V30 1377 H 127.252 2.90253 -3.22391 0
M  V30 1378 H 127.923 4.53453 -3.14777 0
M  V30 1379 H 130.399 3.94871 -1.3121 0
M  V30 1380 H 129.275 5.33193 -1.30372 0
M  V30 1381 H 129.536 4.4176 0.173226 0
M  V30 1382 N 128.595 0.856903 1.32268 0
M  V30 1383 C 129.843 0.460474 1.96784 0
M  V30 1384 C 130.164 -0.987701 1.68135 0
M  V30 1385 O 129.434 -1.69058 0.989765 0
M  V30 1386 H 128.014 0.167289 0.728027 0
M  V30 1387 H 130.676 1.09383 1.61312 0
M  V30 1388 H 129.772 0.60739 3.06133 0
M  V30 1389 N 130.073 -1.45103 0.615059 0
M  V30 1390 C 131.303 -2.06254 0.119596 0
M  V30 1391 C 131.711 -1.4591 -1.20445 0
M  V30 1392 O 131.054 -0.570384 -1.7462 0
M  V30 1393 C 131.116 -3.59396 -0.0865591 0
M  V30 1394 C 130.78 -4.42116 1.15683 0
M  V30 1395 C 131.777 -4.7662 2.07676 0
M  V30 1396 C 129.462 -4.82749 1.38775 0
M  V30 1397 C 131.456 -5.50622 3.21082 0
M  V30 1398 C 129.143 -5.56504 2.52481 0
M  V30 1399 C 130.141 -5.90358 3.43463 0
M  V30 1400 O 129.829 -6.62615 4.55189 0
M  V30 1401 H 129.561 -0.672423 0.0694512 0
M  V30 1402 H 132.115 -1.87219 0.844885 0
M  V30 1403 H 130.345 -3.76859 -0.866823 0
M  V30 1404 H 132.034 -4.02365 -0.534555 0
M  V30 1405 H 132.8 -4.4578 1.91063 0
M  V30 1406 H 128.679 -4.55829 0.688545 0
M  V30 1407 H 132.223 -5.76965 3.92119 0
M  V30 1408 H 128.12 -5.86759 2.69043 0
M  V30 1409 H 128.888 -6.81071 4.53966 0
M  V30 1410 N 131.551 -0.354651 -1.53558 0
M  V30 1411 C 132.799 0.237972 -2.00694 0
M  V30 1412 C 133.12 1.50173 -1.24391 0
M  V30 1413 O 132.39 1.92673 -0.354135 0
M  V30 1414 H 130.97 0.0909256 -0.741446 0
M  V30 1415 H 133.632 -0.478368 -1.88938 0
M  V30 1416 H 132.728 0.47264 -3.085 0
M  V30 1417 N 133.029 1.57378 -0.0835403 0
M  V30 1418 C 133.992 2.12252 0.864959 0
M  V30 1419 C 134.992 1.04916 1.21858 0
M  V30 1420 O 136.182 1.30853 1.14991 0
M  V30 1421 C 133.314 2.63358 2.16461 0
M  V30 1422 H 134.507 2.97371 0.388676 0
M  V30 1423 H 132.06 1.55423 0.165317 0
M  V30 1424 H 132.795 1.81727 2.686 0
M  V30 1425 H 132.58 3.41826 1.92087 0
M  V30 1426 H 134.07 3.05847 2.84337 0
M  V30 1427 N 134.507 -0.190092 1.56449 0
M  V30 1428 C 135.737 -0.92443 1.84764 0
M  V30 1429 C 136.145 -1.77146 0.664529 0
M  V30 1430 O 135.488 -1.79812 -0.375957 0
M  V30 1431 C 135.55 -1.86651 3.07248 0
M  V30 1432 C 135.214 -1.20094 4.40938 0
M  V30 1433 C 136.211 -0.575445 5.16706 0
M  V30 1434 C 133.896 -1.2033 4.87674 0
M  V30 1435 C 135.89 0.0388111 6.37388 0
M  V30 1436 C 133.577 -0.585214 6.08291 0
M  V30 1437 C 134.575 0.0347578 6.82991 0
M  V30 1438 O 134.263 0.643147 8.01323 0
M  V30 1439 H 133.995 -0.274974 0.617548 0
M  V30 1440 H 136.549 -0.200788 2.04416 0
M  V30 1441 H 134.779 -2.62998 2.83494 0
M  V30 1442 H 136.468 -2.46907 3.22167 0
M  V30 1443 H 137.234 -0.565728 4.81689 0
M  V30 1444 H 133.113 -1.67526 4.29484 0
M  V30 1445 H 136.657 0.523329 6.95634 0
M  V30 1446 H 132.554 -0.592451 6.42775 0
M  V30 1447 H 133.322 0.540545 8.16713 0
M  V30 1448 N 135.985 -1.50799 -0.457987 0
M  V30 1449 C 137.262 -1.52968 -1.21902 0
M  V30 1450 C 137.642 -0.281906 -2.09209 0
M  V30 1451 O 136.99 0.734076 -2.16388 0
M  V30 1452 C 137.2 -2.8326 -2.03875 0
M  V30 1453 C 138.548 -3.34425 -2.6162 0
M  V30 1454 O 139.572 -2.8467 -2.14106 0
M  V30 1455 O 138.431 -4.21188 -3.48228 0
M  V30 1456 H 135.525 -0.614129 -0.553873 0
M  V30 1457 H 138.071 -1.63098 -0.468739 0
M  V30 1458 H 136.843 -3.65543 -1.39621 0
M  V30 1459 H 136.466 -2.76195 -2.8601 0
M  V30 1460 N 137.463 0.71206 -1.40597 0
M  V30 1461 C 138.393 1.83889 -1.43899 0
M  V30 1462 C 139.374 1.67442 -0.299504 0
M  V30 1463 O 140.559 1.87421 -0.508624 0
M  V30 1464 C 137.689 3.21877 -1.30431 0
M  V30 1465 C 136.643 3.53002 -2.42019 0
M  V30 1466 C 135.969 4.90172 -2.13626 0
M  V30 1467 C 137.269 3.53643 -3.84362 0
M  V30 1468 H 138.963 1.81383 -2.38203 0
M  V30 1469 H 136.509 0.871237 -1.14654 0
M  V30 1470 H 138.462 4.00404 -1.31357 0
M  V30 1471 H 137.186 3.24968 -0.326049 0
M  V30 1472 H 135.845 2.76818 -2.40349 0
M  V30 1473 H 135.493 4.89869 -1.14182 0
M  V30 1474 H 135.193 5.11962 -2.88389 0
M  V30 1475 H 136.717 5.71028 -2.1624 0
M  V30 1476 H 138.131 4.22203 -3.87837 0
M  V30 1477 H 136.528 3.86961 -4.58673 0
M  V30 1478 H 137.598 2.52954 -4.13693 0
M  V30 1479 N 138.941 1.26152 0.944643 0
M  V30 1480 C 140.171 1.14094 1.72239 0
M  V30 1481 C 140.579 -0.306931 1.86694 0
M  V30 1482 O 139.922 -1.22222 1.3714 0
M  V30 1483 C 139.984 1.73316 3.14963 0
M  V30 1484 C 139.648 3.2239 3.23904 0
M  V30 1485 C 140.645 4.19252 3.07447 0
M  V30 1486 C 138.33 3.62788 3.47405 0
M  V30 1487 C 140.324 5.54491 3.14353 0
M  V30 1488 C 138.011 4.98162 3.53947 0
M  V30 1489 C 139.009 5.93823 3.37436 0
M  V30 1490 O 138.697 7.26732 3.43679 0
M  V30 1491 H 138.429 0.398292 0.546205 0
M  V30 1492 H 140.983 1.67201 1.19301 0
M  V30 1493 H 139.213 1.14667 3.69308 0
M  V30 1494 H 140.902 1.56214 3.74636 0
M  V30 1495 H 141.668 3.8938 2.8915 0
M  V30 1496 H 137.547 2.88816 3.59313 0
M  V30 1497 H 141.091 6.29137 3.01384 0
M  V30 1498 H 136.988 5.27695 3.71763 0
M  V30 1499 H 137.756 7.3496 3.60245 0
M  V30 1500 N 140.419 -1.14872 1.07899 0
M  V30 1501 C 141.696 -1.81928 0.71845 0
M  V30 1502 C 142.076 -1.95417 -0.798455 0
M  V30 1503 O 141.424 -1.50997 -1.715 0
M  V30 1504 C 141.634 -3.17937 1.43935 0
M  V30 1505 C 142.982 -3.93501 1.59506 0
M  V30 1506 O 144.006 -3.27509 1.40058 0
M  V30 1507 O 142.865 -5.1183 1.91551 0
M  V30 1508 H 139.959 -0.78628 0.256305 0
M  V30 1509 H 142.505 -1.21934 1.18026 0
M  V30 1510 H 141.277 -3.0325 2.47295 0
M  V30 1511 H 140.9 -3.85619 0.968687 0
M  V30 1512 N 141.898 -0.863906 -1.31812 0
M  V30 1513 C 142.828 -0.330843 -2.31144 0
M  V30 1514 C 143.809 0.575005 -1.60087 0
M  V30 1515 O 144.994 0.493304 -1.8783 0
M  V30 1516 C 142.124 0.47374 -3.44054 0
M  V30 1517 C 141.078 -0.338481 -4.26659 0
M  V30 1518 C 140.404 0.591412 -5.31419 0
M  V30 1519 C 141.704 -1.56926 -4.98168 0
M  V30 1520 H 143.398 -1.16086 -2.75979 0
M  V30 1521 H 140.944 -0.559657 -1.32679 0
M  V30 1522 H 142.897 0.857143 -4.12591 0
M  V30 1523 H 141.621 1.33721 -2.9797 0
M  V30 1524 H 140.28 -0.703754 -3.59782 0
M  V30 1525 H 139.928 1.45199 -4.81587 0
M  V30 1526 H 139.628 0.0519022 -5.87577 0
M  V30 1527 H 141.152 0.97179 -6.02817 0
M  V30 1528 H 142.566 -1.25764 -5.59336 0
M  V30 1529 H 140.963 -2.04739 -5.64094 0
M  V30 1530 H 142.033 -2.32544 -4.25501 0
M  V30 1531 N 143.376 1.44774 -0.622745 0
M  V30 1532 C 144.624 2.01721 -0.123655 0
M  V30 1533 C 144.945 1.49172 1.25589 0
M  V30 1534 O 144.215 0.691974 1.83272 0
M  V30 1535 H 142.795 0.745777 -0.0427225 0
M  V30 1536 H 145.457 1.77382 -0.807559 0
M  V30 1537 H 144.553 3.11984 -0.0849534 0
M  V30 1538 N 144.854 0.36279 1.53368 0
M  V30 1539 C 145.764 -0.492994 2.29362 0
M  V30 1540 C 146.78 -1.09507 1.35219 0
M  V30 1541 O 147.956 -1.10662 1.68273 0
M  V30 1542 C 145.021 -1.61855 3.066 0
M  V30 1543 C 144.082 -1.04429 4.16405 0
M  V30 1544 C 143.315 -2.11621 4.89951 0
M  V30 1545 O 143.538 -3.32684 4.63333 0
M  V30 1546 O 142.472 -1.74835 5.75948 0
M  V30 1547 H 146.298 0.125331 3.03441 0
M  V30 1548 H 143.883 0.127253 1.48857 0
M  V30 1549 H 145.765 -2.27302 3.54841 0
M  V30 1550 H 144.44 -2.22233 2.3536 0
M  V30 1551 H 143.347 -0.353819 3.72423 0
M  V30 1552 H 144.68 -0.485113 4.89804 0
M  V30 1553 N 146.332 -1.57332 0.0918853 0
M  V30 1554 C 147.579 -1.94236 -0.572577 0
M  V30 1555 C 147.907 -0.973398 -1.6839 0
M  V30 1556 O 147.162 0.00756912 -1.95699 0
M  V30 1557 C 147.461 -3.37689 -1.17051 0
M  V30 1558 C 147.127 -4.50527 -0.183304 0
M  V30 1559 C 145.789 -4.81119 0.0882276 0
M  V30 1560 C 148.141 -5.18883 0.49095 0
M  V30 1561 C 145.469 -5.77395 1.04076 0
M  V30 1562 C 147.821 -6.1618 1.43193 0
M  V30 1563 C 146.485 -6.45179 1.71173 0
M  V30 1564 H 145.755 -0.710762 -0.209521 0
M  V30 1565 H 148.402 -1.9077 0.167036 0
M  V30 1566 H 146.707 -3.37718 -1.9863 0
M  V30 1567 H 148.404 -3.63543 -1.69227 0
M  V30 1568 H 144.994 -4.26681 -0.405124 0
M  V30 1569 H 149.178 -4.95427 0.294312 0
M  V30 1570 H 144.434 -5.98179 1.26457 0
M  V30 1571 H 148.608 -6.68243 1.96023 0
M  V30 1572 H 146.235 -7.1959 2.4514 0
M  V30 1573 N 147.81 0.181792 -1.56548 0
M  V30 1574 C 148.758 1.24461 -1.965 0
M  V30 1575 C 149.752 1.464 -0.852261 0
M  V30 1576 O 150.958 1.47103 -1.03733 0
M  V30 1577 H 147.333 0.418138 -0.625031 0
M  V30 1578 H 149.304 0.880714 -2.85107 0
M  V30 1579 C 148.053 2.57891 -2.33212 0
M  V30 1580 H 147.376 2.41829 -3.18369 0
M  V30 1581 H 148.816 3.3097 -2.65019 0
M  V30 1582 C 147.275 3.15871 -1.17163 0
M  V30 1583 O 147.805 3.9913 -0.453708 0
M  V30 1584 N 146.011 2.74808 -0.944936 0
M  V30 1585 H 145.558 2.07205 -1.53049 0
M  V30 1586 H 145.516 3.13939 -0.170286 0
M  V30 1587 N 149.288 1.51039 0.449983 0
M  V30 1588 C 150.22 1.67617 1.56324 0
M  V30 1589 C 151.233 0.557083 1.52972 0
M  V30 1590 O 152.422 0.830989 1.57977 0
M  V30 1591 C 149.522 1.66402 2.95235 0
M  V30 1592 C 148.695 2.9469 3.23229 0
M  V30 1593 C 147.754 2.85832 4.41799 0
M  V30 1594 O 146.78 3.59785 4.41071 0
M  V30 1595 N 147.982 2.00821 5.44657 0
M  V30 1596 H 150.747 2.63648 1.42512 0
M  V30 1597 H 148.308 1.48767 0.638737 0
M  V30 1598 H 150.3 1.58062 3.72557 0
M  V30 1599 H 148.87 0.780182 3.02708 0
M  V30 1600 H 148.09 3.16996 2.34323 0
M  V30 1601 H 149.378 3.79636 3.38754 0
M  V30 1602 H 148.776 1.40091 5.48079 0
M  V30 1603 H 147.333 1.98368 6.20881 0
M  V30 1604 N 150.766 -0.704594 1.40972 0
M  V30 1605 C 151.713 -1.81862 1.42109 0
M  V30 1606 C 152.683 -1.63781 0.276593 0
M  V30 1607 O 153.868 -1.84759 0.4763 0
M  V30 1608 C 151.008 -3.19669 1.30022 0
M  V30 1609 C 150.121 -3.49246 2.54267 0
M  V30 1610 C 149.256 -4.76618 2.3454 0
M  V30 1611 C 148.295 -4.99133 3.54306 0
M  V30 1612 N 147.432 -6.17726 3.33706 0
M  V30 1613 H 152.272 -1.80226 2.37324 0
M  V30 1614 H 149.809 -0.880238 1.17857 0
M  V30 1615 H 151.767 -3.99263 1.21018 0
M  V30 1616 H 150.397 -3.20506 0.384192 0
M  V30 1617 H 149.449 -2.64125 2.73756 0
M  V30 1618 H 150.761 -3.61788 3.43381 0
M  V30 1619 H 149.915 -5.64249 2.22952 0
M  V30 1620 H 148.654 -4.66305 1.42867 0
M  V30 1621 H 147.659 -4.09953 3.66359 0
M  V30 1622 H 148.884 -5.11311 4.4692 0
M  V30 1623 H 146.83 -6.08642 2.44725 0
M  V30 1624 H 146.747 -6.30995 4.16391 0
M  V30 1625 H 148.015 -7.08115 3.25873 0
M  V30 1626 N 152.244 -1.26651 -0.937939 0
M  V30 1627 C 153.492 -1.12165 -1.68118 0
M  V30 1628 C 153.813 0.334983 -1.92101 0
M  V30 1629 O 153.083 1.23583 -1.52 0
M  V30 1630 H 151.663 -0.412093 -0.623048 0
M  V30 1631 H 154.325 -1.59027 -1.12678 0
M  V30 1632 H 153.421 -1.64289 -2.6536 0
M  V30 1633 N 153.722 1.14298 -1.08507 0
M  V30 1634 C 154.95 1.89219 -0.836876 0
M  V30 1635 C 155.365 1.78638 0.611054 0
M  V30 1636 O 154.722 1.14643 1.41998 0
M  V30 1637 C 154.773 3.39158 -1.25116 0
M  V30 1638 O 154.494 3.49449 -2.64229 0
M  V30 1639 C 155.995 4.31073 -1.03398 0
M  V30 1640 H 153.215 0.599328 -0.301739 0
M  V30 1641 H 155.759 1.44746 -1.44461 0
M  V30 1642 H 153.914 3.81251 -0.687514 0
M  V30 1643 H 154.328 4.42589 -2.81452 0
M  V30 1644 H 155.802 5.34646 -1.37323 0
M  V30 1645 H 156.279 4.3919 0.0289259 0
M  V30 1646 H 156.885 3.94738 -1.58311 0
M  V30 1647 N 155.201 0.870884 1.31352 0
M  V30 1648 C 156.447 0.482987 1.96965 0
M  V30 1649 C 156.78 -0.962462 1.68672 0
M  V30 1650 O 156.055 -1.6779 0.98371 0
M  V30 1651 C 156.338 0.741752 3.52378 0
M  V30 1652 C 156.191 2.2368 3.9024 0
M  V30 1653 C 157.51 0.208838 4.39604 0
M  V30 1654 H 154.629 0.176955 0.715441 0
M  V30 1655 H 157.271 1.09229 1.55464 0
M  V30 1656 H 155.421 0.223149 3.87859 0
M  V30 1657 H 157.093 2.82273 3.64856 0
M  V30 1658 H 155.336 2.70901 3.38814 0
M  V30 1659 H 156.007 2.3685 4.98604 0
M  V30 1660 H 158.483 0.652529 4.10952 0
M  V30 1661 H 157.359 0.419336 5.47296 0
M  V30 1662 H 157.62 -0.889275 4.33064 0
M  V30 1663 N 156.679 -1.44442 0.630414 0
M  V30 1664 C 158.095 -1.56832 0.295973 0
M  V30 1665 C 158.295 -1.61806 -1.20088 0
M  V30 1666 O 157.351 -1.5607 -1.9849 0
M  V30 1667 C 158.664 -2.84031 0.987264 0
M  V30 1668 C 160.212 -2.97742 0.96534 0
M  V30 1669 C 160.687 -4.27743 1.63708 0
M  V30 1670 N 162.178 -4.34555 1.60364 0
M  V30 1671 C 162.913 -5.33862 2.09234 0
M  V30 1672 N 162.409 -6.39578 2.66292 0
M  V30 1673 N 164.202 -5.25366 1.99867 0
M  V30 1674 H 156.353 -1.39457 1.60205 0
M  V30 1675 H 158.616 -0.668237 0.672431 0
M  V30 1676 H 158.322 -2.86338 2.04215 0
M  V30 1677 H 158.196 -3.73534 0.524588 0
M  V30 1678 H 160.583 -2.94989 -0.0810639 0
M  V30 1679 H 160.664 -2.09589 1.4665 0
M  V30 1680 H 160.308 -4.31255 2.68293 0
M  V30 1681 H 160.238 -5.14752 1.11076 0
M  V30 1682 H 162.729 -3.58772 1.18705 0
M  V30 1683 H 163.042 -7.11637 3.01317 0
M  V30 1684 H 161.387 -6.40265 2.70343 0
M  V30 1685 H 164.578 -4.41688 1.55013 0
M  V30 1686 H 164.751 -6.02606 2.38265 0
M  V30 1687 N 158.157 -0.370918 -1.53173 0
M  V30 1688 C 159.385 0.217704 -2.05751 0
M  V30 1689 C 159.8 1.42018 -1.24404 0
M  V30 1690 O 159.157 1.80245 -0.286033 0
M  V30 1691 C 159.208 0.605954 -3.56385 0
M  V30 1692 O 158.929 -0.548734 -4.3465 0
M  V30 1693 C 160.43 1.2524 -4.25241 0
M  V30 1694 H 157.65 0.0371659 -0.66997 0
M  V30 1695 H 160.194 -0.530832 -1.9749 0
M  V30 1696 H 158.349 1.3044 -3.6478 0
M  V30 1697 H 158.763 -0.23376 -5.23979 0
M  V30 1698 H 160.237 1.47458 -5.3194 0
M  V30 1699 H 160.714 2.2143 -3.79296 0
M  V30 1700 H 161.32 0.595233 -4.21114 0
M  V30 1701 N 159.635 1.57281 -0.100228 0
M  V30 1702 C 160.582 2.14305 0.856858 0
M  V30 1703 C 161.552 1.06296 1.27634 0
M  V30 1704 O 162.737 1.34109 1.35718 0
M  V30 1705 C 159.877 2.73184 2.10866 0
M  V30 1706 C 158.99 3.95442 1.73925 0
M  V30 1707 C 158.125 4.42468 2.93931 0
M  V30 1708 C 157.164 5.57303 2.5314 0
M  V30 1709 N 156.301 5.99158 3.65997 0
M  V30 1710 H 161.141 2.95772 0.363726 0
M  V30 1711 H 158.678 1.46139 0.167858 0
M  V30 1712 H 160.636 3.05442 2.84185 0
M  V30 1713 H 159.266 1.94437 2.57671 0
M  V30 1714 H 158.318 3.69464 0.905554 0
M  V30 1715 H 159.63 4.78769 1.39935 0
M  V30 1716 H 158.784 4.76537 3.75496 0
M  V30 1717 H 157.523 3.58052 3.31134 0
M  V30 1718 H 156.528 5.22857 1.70003 0
M  V30 1719 H 157.753 6.43471 2.17075 0
M  V30 1720 H 155.699 5.17687 4.02909 0
M  V30 1721 H 155.616 6.77295 3.35869 0
M  V30 1722 H 156.884 6.3786 4.48057 0
M  V30 1723 N 161.113 -0.173488 1.56642 0
M  V30 1724 C 162.343 -0.904781 1.85734 0
M  V30 1725 C 162.751 -1.76431 0.68328 0
M  V30 1726 O 162.094 -1.802 -0.356865 0
M  V30 1727 C 162.156 -1.83382 3.09211 0
M  V30 1728 C 161.82 -1.15411 4.42187 0
M  V30 1729 C 162.817 -0.520609 5.17287 0
M  V30 1730 C 160.502 -1.15151 4.88923 0
M  V30 1731 C 162.496 0.106412 6.37311 0
M  V30 1732 C 160.183 -0.520664 6.08878 0
M  V30 1733 C 161.181 0.107196 6.82916 0
M  V30 1734 O 160.869 0.728102 8.00596 0
M  V30 1735 H 160.601 -0.268408 0.62043 0
M  V30 1736 H 163.155 -0.179096 2.04618 0
M  V30 1737 H 161.385 -2.59976 2.86268 0
M  V30 1738 H 163.074 -2.43476 3.24768 0
M  V30 1739 H 163.84 -0.514606 4.82262 0
M  V30 1740 H 159.719 -1.62961 4.31236 0
M  V30 1741 H 163.263 0.597081 6.9504 0
M  V30 1742 H 159.16 -0.524242 6.43368 0
M  V30 1743 H 159.928 0.627138 8.16094 0
M  V30 1744 N 162.591 -1.51276 -0.441967 0
M  V30 1745 C 163.839 -1.63392 -1.18943 0
M  V30 1746 C 164.16 -0.350159 -1.9183 0
M  V30 1747 O 163.43 0.633784 -1.85364 0
M  V30 1748 H 162.01 -0.602164 -0.442049 0
M  V30 1749 H 164.672 -1.88186 -0.507165 0
M  V30 1750 H 163.768 -2.45934 -1.92154 0
M  V30 1751 N 164.069 0.697108 -1.41344 0
M  V30 1752 C 165.297 1.48593 -1.43972 0
M  V30 1753 C 165.712 1.88747 -0.0445612 0
M  V30 1754 O 165.069 1.56682 0.935785 0
M  V30 1755 C 165.12 2.74946 -2.34706 0
M  V30 1756 O 164.841 2.36484 -3.68791 0
M  V30 1757 C 166.342 3.687 -2.46121 0
M  V30 1758 H 163.562 0.457964 -0.490418 0
M  V30 1759 H 166.106 0.858429 -1.8561 0
M  V30 1760 H 164.261 3.33937 -1.9638 0
M  V30 1761 H 164.675 3.17918 -4.17167 0
M  V30 1762 H 166.149 4.54145 -3.13777 0
M  V30 1763 H 166.626 4.13081 -1.49199 0
M  V30 1764 H 167.232 3.15613 -2.85076 0
M  V30 1765 N 165.547 1.27147 0.931209 0
M  V30 1766 C 166.963 1.04475 1.20653 0
M  V30 1767 C 167.163 -0.223885 2.00252 0
M  V30 1768 O 166.219 -0.930332 2.34736 0
M  V30 1769 C 167.532 2.28209 1.95809 0
M  V30 1770 C 169.08 2.33211 2.08762 0
M  V30 1771 C 169.555 3.56665 2.87323 0
M  V30 1772 N 171.046 3.57201 2.94892 0
M  V30 1773 C 171.781 4.49395 3.56134 0
M  V30 1774 N 171.277 5.51889 4.18796 0
M  V30 1775 N 173.07 4.37026 3.53504 0
M  V30 1776 H 165.221 2.08612 0.399333 0
M  V30 1777 H 167.484 0.917312 0.239253 0
M  V30 1778 H 167.19 3.20538 1.44736 0
M  V30 1779 H 167.064 2.33247 2.96438 0
M  V30 1780 H 169.451 1.41391 2.59023 0
M  V30 1781 H 169.532 2.32178 1.07364 0
M  V30 1782 H 169.176 4.4882 2.37746 0
M  V30 1783 H 169.106 3.54948 3.88998 0
M  V30 1784 H 171.597 2.83074 2.50354 0
M  V30 1785 H 171.91 6.18409 4.63454 0
M  V30 1786 H 170.255 5.55735 4.17353 0
M  V30 1787 H 173.446 3.56166 3.03749 0
M  V30 1788 H 173.619 5.09067 4.00942 0
M  V30 1789 N 167.025 -1.13721 1.09112 0
M  V30 1790 C 168.25 -1.89314 0.847053 0
M  V30 1791 C 168.675 -1.78416 -0.595774 0
M  V30 1792 O 168.033 -1.12942 -1.41823 0
M  V30 1793 C 168.081 -3.3701 1.28284 0
M  V30 1794 O 167.185 -4.10054 0.439267 0
M  V30 1795 H 166.526 -0.588745 0.307044 0
M  V30 1796 H 169.056 -1.43902 1.45442 0
M  V30 1797 H 169.066 -3.87834 1.26683 0
M  V30 1798 H 167.741 -3.4426 2.33363 0
M  V30 1799 H 166.318 -3.69266 0.519312 0
M  V30 1800 N 168.503 -0.877838 -1.30888 0
M  V30 1801 C 169.435 -0.296607 -2.27273 0
M  V30 1802 C 170.448 0.544799 -1.53414 0
M  V30 1803 O 171.637 0.365511 -1.74718 0
M  V30 1804 C 168.737 0.597481 -3.33592 0
M  V30 1805 C 167.91 -0.213251 -4.3688 0
M  V30 1806 C 166.969 0.610208 -5.2265 0
M  V30 1807 O 165.995 0.035441 -5.69189 0
M  V30 1808 N 167.197 1.92071 -5.47804 0
M  V30 1809 H 169.962 -1.12492 -2.77787 0
M  V30 1810 H 167.523 -0.740105 -1.43993 0
M  V30 1811 H 169.515 1.15425 -3.87891 0
M  V30 1812 H 168.085 1.32647 -2.83061 0
M  V30 1813 H 167.305 -0.951466 -3.82545 0
M  V30 1814 H 168.593 -0.769262 -5.02951 0
M  V30 1815 H 167.991 2.4107 -5.11763 0
M  V30 1816 H 166.548 2.42508 -6.05007 0
M  V30 1817 N 169.982 1.44106 -0.638065 0
M  V30 1818 C 170.912 2.33448 0.0494287 0
M  V30 1819 C 171.893 1.48606 0.827672 0
M  V30 1820 O 173.078 1.77308 0.792173 0
M  V30 1821 C 170.208 3.31771 1.02691 0
M  V30 1822 C 169.162 4.26485 0.359823 0
M  V30 1823 C 168.488 5.14729 1.44769 0
M  V30 1824 C 169.788 5.17056 -0.738296 0
M  V30 1825 H 171.482 2.91183 -0.696636 0
M  V30 1826 H 169.028 1.40014 -0.336456 0
M  V30 1827 H 170.981 3.93161 1.51666 0
M  V30 1828 H 169.705 2.7226 1.80395 0
M  V30 1829 H 168.364 3.66437 -0.10934 0
M  V30 1830 H 168.012 4.51566 2.21578 0
M  V30 1831 H 167.712 5.78913 1.00668 0
M  V30 1832 H 169.236 5.78991 1.93911 0
M  V30 1833 H 170.65 5.72342 -0.331354 0
M  V30 1834 H 169.047 5.89879 -1.10286 0
M  V30 1835 H 170.117 4.57652 -1.60258 0
M  V30 1836 N 171.46 0.379036 1.52974 0
M  V30 1837 C 172.392 -0.495963 2.2377 0
M  V30 1838 C 173.405 -1.03517 1.25651 0
M  V30 1839 O 174.594 -0.939249 1.51791 0
M  V30 1840 C 171.694 -1.69894 2.93239 0
M  V30 1841 C 170.867 -1.2889 4.17979 0
M  V30 1842 C 169.926 -2.35543 4.70538 0
M  V30 1843 O 168.952 -1.97375 5.33883 0
M  V30 1844 N 170.154 -3.67318 4.49508 0
M  V30 1845 H 172.919 0.110523 2.99496 0
M  V30 1846 H 170.48 0.204878 1.60598 0
M  V30 1847 H 172.472 -2.40747 3.25304 0
M  V30 1848 H 171.042 -2.212 2.20883 0
M  V30 1849 H 170.262 -0.409676 3.92065 0
M  V30 1850 H 171.55 -0.991443 4.99047 0
M  V30 1851 H 170.948 -4.01095 3.98923 0
M  V30 1852 H 169.505 -4.34235 4.8609 0
M  V30 1853 N 172.938 -1.57226 0.108567 0
M  V30 1854 C 174.186 -1.94448 -0.550853 0
M  V30 1855 C 174.507 -0.992074 -1.67878 0
M  V30 1856 O 173.777 -0.0465 -1.95845 0
M  V30 1857 H 172.357 -0.717897 -0.206479 0
M  V30 1858 H 175.019 -1.94112 0.175062 0
M  V30 1859 H 174.115 -2.97218 -0.952259 0
M  V30 1860 N 174.416 0.165178 -1.56732 0
M  V30 1861 C 175.379 1.18822 -1.95995 0
M  V30 1862 C 176.379 1.3685 -0.84431 0
M  V30 1863 O 177.569 1.34152 -1.11126 0
M  V30 1864 C 174.701 2.5521 -2.26011 0
M  V30 1865 H 175.894 0.851825 -2.87548 0
M  V30 1866 H 173.447 0.407857 -1.50885 0
M  V30 1867 H 174.182 2.93852 -1.37191 0
M  V30 1868 H 173.967 2.43489 -3.07336 0
M  V30 1869 H 175.457 3.28927 -2.57288 0
M  V30 1870 N 175.894 1.51508 0.433938 0
M  V30 1871 C 177.14 1.64588 1.18484 0
M  V30 1872 C 177.473 0.362666 1.90784 0
M  V30 1873 O 176.748 -0.637892 1.83742 0
M  V30 1874 C 177.031 2.85149 2.19913 0
M  V30 1875 C 176.884 4.23456 1.51674 0
M  V30 1876 C 178.203 3.01227 3.20858 0
M  V30 1877 H 175.322 0.598994 0.429389 0
M  V30 1878 H 177.964 1.84002 0.473647 0
M  V30 1879 H 176.114 2.68729 2.80566 0
M  V30 1880 H 177.786 4.51552 0.943322 0
M  V30 1881 H 176.029 4.25998 0.819035 0
M  V30 1882 H 176.7 5.03812 2.2556 0
M  V30 1883 H 179.176 3.16382 2.70263 0
M  V30 1884 H 178.052 3.87141 3.89118 0
M  V30 1885 H 178.313 2.13447 3.8716 0
M  V30 1886 N 177.372 -0.689602 1.41712 0
M  V30 1887 C 178.6 -1.47827 1.44758 0
M  V30 1888 C 179.015 -1.88721 0.0545703 0
M  V30 1889 O 178.372 -1.57176 -0.927463 0
M  V30 1890 C 178.423 -2.73698 2.3616 0
M  V30 1891 O 178.144 -2.34524 3.7004 0
M  V30 1892 C 179.645 -3.67389 2.48072 0
M  V30 1893 H 176.865 -0.455357 0.49284 0
M  V30 1894 H 179.409 -0.848574 1.86063 0
M  V30 1895 H 177.564 -3.32891 1.98148 0
M  V30 1896 H 177.978 -3.15701 4.18847 0
M  V30 1897 H 179.452 -4.52475 3.16181 0
M  V30 1898 H 179.929 -4.12284 1.51388 0
M  V30 1899 H 180.535 -3.14097 2.86746 0
M  V30 1900 N 178.85 -1.27639 -0.924453 0
M  V30 1901 C 180.075 -1.17101 -1.71179 0
M  V30 1902 C 180.5 0.268134 -1.86179 0
M  V30 1903 O 179.858 1.19415 -1.36418 0
M  V30 1904 C 179.906 -1.86313 -3.08739 0
M  V30 1905 O 179.01 -1.16331 -3.95652 0
M  V30 1906 H 178.351 -0.407091 -0.524569 0
M  V30 1907 H 180.881 -1.68767 -1.15666 0
M  V30 1908 H 180.891 -1.938 -3.59034 0
M  V30 1909 H 179.566 -2.91001 -2.97138 0
M  V30 1910 H 178.143 -1.16935 -3.54091 0
M  V30 1911 N 180.328 1.1314 -1.09713 0
M  V30 1912 C 181.258 2.20748 -0.761102 0
M  V30 1913 C 182.239 1.68061 0.262566 0
M  V30 1914 O 183.424 1.93765 0.129977 0
M  V30 1915 C 180.554 3.46812 -0.184054 0
M  V30 1916 C 179.508 4.12606 -1.13757 0
M  V30 1917 C 178.834 5.33031 -0.422083 0
M  V30 1918 C 180.134 4.59603 -2.48118 0
M  V30 1919 H 181.828 2.49113 -1.66082 0
M  V30 1920 H 179.374 1.19734 -0.799987 0
M  V30 1921 H 181.327 4.21353 0.0631215 0
M  V30 1922 H 180.051 3.17851 0.750868 0
M  V30 1923 H 178.71 3.40036 -1.37007 0
M  V30 1924 H 178.358 5.00335 0.517072 0
M  V30 1925 H 178.058 5.77999 -1.05788 0
M  V30 1926 H 179.582 6.10325 -0.183277 0
M  V30 1927 H 180.996 5.25552 -2.29059 0
M  V30 1928 H 179.393 5.15321 -3.07514 0
M  V30 1929 H 180.463 3.73971 -3.08665 0
M  V30 1930 N 181.806 0.884767 1.30421 0
M  V30 1931 C 182.753 0.349642 2.28136 0
M  V30 1932 C 183.723 -0.560061 1.56373 0
M  V30 1933 O 184.908 -0.488524 1.8444 0
M  V30 1934 C 182.048 -0.42999 3.42411 0
M  V30 1935 C 181.161 0.508907 4.28992 0
M  V30 1936 C 180.296 -0.286301 5.30428 0
M  V30 1937 C 179.335 0.648079 6.08659 0
M  V30 1938 N 178.472 -0.111792 7.02011 0
M  V30 1939 H 183.312 1.18807 2.73293 0
M  V30 1940 H 180.849 0.597231 1.3443 0
M  V30 1941 H 182.807 -0.897923 4.07423 0
M  V30 1942 H 181.437 -1.23299 2.98324 0
M  V30 1943 H 180.489 1.09533 3.64289 0
M  V30 1944 H 181.801 1.22475 4.8353 0
M  V30 1945 H 180.955 -0.816098 6.01186 0
M  V30 1946 H 179.694 -1.03536 4.76583 0
M  V30 1947 H 178.699 1.18951 5.36778 0
M  V30 1948 H 179.924 1.39623 6.64592 0
M  V30 1949 H 177.87 -0.843395 6.50556 0
M  V30 1950 H 177.787 0.544429 7.54037 0
M  V30 1951 H 179.055 -0.622339 7.77012 0
M  V30 1952 N 183.284 -1.43765 0.645699 0
M  V30 1953 C 184.232 -2.32516 -0.0624849 0
M  V30 1954 C 185.226 -1.48183 -0.820855 0
M  V30 1955 O 186.432 -1.64439 -0.732106 0
M  V30 1956 H 182.807 -0.750989 -0.0389864 0
M  V30 1957 H 184.778 -2.89979 0.703892 0
M  V30 1958 C 183.527 -3.32389 -1.02044 0
M  V30 1959 H 182.85 -3.97301 -0.446312 0
M  V30 1960 H 184.29 -3.97138 -1.48517 0
M  V30 1961 C 182.749 -2.62416 -2.11281 0
M  V30 1962 O 183.279 -2.434 -3.19561 0
M  V30 1963 N 181.485 -2.21913 -1.87624 0
M  V30 1964 H 181.032 -2.37578 -0.995703 0
M  V30 1965 H 180.99 -1.75424 -2.6091 0
M  V30 1966 N 184.763 -0.387143 -1.52771 0
M  V30 1967 C 185.711 0.463953 -2.27926 0
M  V30 1968 C 186.705 1.06493 -1.31741 0
M  V30 1969 O 187.911 1.00565 -1.49287 0
M  V30 1970 H 184.286 0.16837 -0.732909 0
M  V30 1971 H 186.257 -0.19141 -2.97785 0
M  V30 1972 C 185.006 1.5803 -3.09713 0
M  V30 1973 H 184.329 1.12718 -3.83581 0
M  V30 1974 H 185.769 2.15008 -3.65442 0
M  V30 1975 C 184.228 2.53509 -2.2189 0
M  V30 1976 O 184.758 3.56863 -1.84422 0
M  V30 1977 N 182.964 2.23199 -1.86093 0
M  V30 1978 H 182.511 1.39185 -2.16761 0
M  V30 1979 H 182.469 2.87333 -1.27621 0
M  V30 1980 N 186.241 1.57166 -0.116904 0
M  V30 1981 C 187.489 1.94737 0.540533 0
M  V30 1982 C 187.81 1.00096 1.67349 0
M  V30 1983 O 187.08 0.0568854 1.95817 0
M  V30 1984 H 185.66 0.718981 0.202669 0
M  V30 1985 H 188.322 1.94017 -0.185353 0
M  V30 1986 H 187.418 2.97719 0.936483 0
M  V30 1987 N 187.719 -0.156864 1.56817 0
M  V30 1988 C 188.968 -0.869504 1.81996 0
M  V30 1989 C 189.281 -1.82777 0.696545 0
M  V30 1990 O 190.487 -2.58384 0.833658 0
M  V30 1991 C 188.943 -1.59679 3.22538 0
M  V30 1992 C 188.551 -0.681431 4.42787 0
M  V30 1993 C 190.295 -2.2968 3.56997 0
M  V30 1994 C 188.202 -1.40978 5.74351 0
M  V30 1995 H 187.132 -0.328438 0.678708 0
M  V30 1996 H 189.783 -0.1223 1.83092 0
M  V30 1997 H 188.165 -2.38927 3.158 0
M  V30 1998 H 189.339 0.0751166 4.60739 0
M  V30 1999 H 187.654 -0.0903431 4.16302 0
M  V30 2000 H 190.251 -2.84794 4.52544 0
M  V30 2001 H 190.594 -3.05707 2.82576 0
M  V30 2002 H 191.127 -1.57361 3.65352 0
M  V30 2003 H 187.866 -0.691561 6.51842 0
M  V30 2004 H 187.386 -2.13929 5.60352 0
M  V30 2005 H 189.065 -1.95337 6.16808 0
M  V30 2006 N 189.197 -1.51736 -0.425897 0
M  V30 2007 C 190.129 -1.70083 -1.53638 0
M  V30 2008 C 191.142 -0.581349 -1.52066 0
M  V30 2009 O 192.331 -0.856017 -1.56635 0
M  V30 2010 C 189.431 -1.71078 -2.9255 0
M  V30 2011 C 188.604 -2.99795 -3.185 0
M  V30 2012 C 187.663 -2.92825 -4.37196 0
M  V30 2013 O 186.689 -3.66756 -4.35291 0
M  V30 2014 N 187.891 -2.0946 -5.41393 0
M  V30 2015 H 190.656 -2.65882 -1.383 0
M  V30 2016 H 188.217 -1.49765 -0.614988 0
M  V30 2017 H 190.209 -1.63969 -3.69995 0
M  V30 2018 H 188.779 -0.828242 -3.01428 0
M  V30 2019 H 187.999 -3.20684 -2.2925 0
M  V30 2020 H 189.287 -3.84977 -3.32671 0
M  V30 2021 H 188.685 -1.48792 -5.45781 0
M  V30 2022 H 187.242 -2.08221 -6.17647 0
M  V30 2023 N 190.675 0.682077 -1.42076 0
M  V30 2024 C 191.921 1.44428 -1.42367 0
M  V30 2025 C 192.254 1.94164 -0.0373056 0
M  V30 2026 O 191.529 1.70429 0.937239 0
M  V30 2027 C 191.812 2.64654 -2.44194 0
M  V30 2028 C 191.665 2.20596 -3.91991 0
M  V30 2029 C 192.984 3.66865 -2.431 0
M  V30 2030 H 190.103 0.523834 -0.518428 0
M  V30 2031 H 192.745 0.77576 -1.73442 0
M  V30 2032 H 190.895 3.2169 -2.17826 0
M  V30 2033 H 192.567 1.68783 -4.29313 0
M  V30 2034 H 190.81 1.52242 -4.06208 0
M  V30 2035 H 191.481 3.06921 -4.58807 0
M  V30 2036 H 193.957 3.19531 -2.66532 0
M  V30 2037 H 192.833 4.48577 -3.16339 0
M  V30 2038 H 193.094 4.17493 -1.45437 0
M  V30 2039 N 192.153 1.28127 0.917671 0
M  V30 2040 C 193.383 1.17722 1.6978 0
M  V30 2041 C 193.791 -0.267261 1.87303 0
M  V30 2042 O 193.134 -1.19286 1.39702 0
M  V30 2043 C 193.196 1.79958 3.11216 0
M  V30 2044 C 192.86 3.29187 3.16993 0
M  V30 2045 C 193.857 4.25679 2.98485 0
M  V30 2046 C 191.542 3.70075 3.39632 0
M  V30 2047 C 193.536 5.61035 3.02521 0
M  V30 2048 C 191.223 5.05557 3.433 0
M  V30 2049 C 192.221 6.00847 3.24764 0
M  V30 2050 O 191.909 7.33859 3.28187 0
M  V30 2051 H 191.641 0.409788 0.537634 0
M  V30 2052 H 194.195 1.69694 1.15728 0
M  V30 2053 H 192.425 1.22475 3.66793 0
M  V30 2054 H 194.114 1.64125 3.71238 0
M  V30 2055 H 194.88 3.95426 2.80826 0
M  V30 2056 H 190.759 2.96373 3.53106 0
M  V30 2057 H 194.303 6.35388 2.87971 0
M  V30 2058 H 190.2 5.35462 3.60486 0
M  V30 2059 H 190.968 7.42436 3.44575 0
M  V30 2060 N 193.631 -1.12557 1.10312 0
M  V30 2061 C 194.879 -1.83675 0.843091 0
M  V30 2062 C 195.2 -1.84435 -0.633131 0
M  V30 2063 O 194.47 -1.30657 -1.45964 0
M  V30 2064 H 193.05 -0.680138 0.308904 0
M  V30 2065 H 195.712 -1.36301 1.39313 0
M  V30 2066 H 194.808 -2.87908 1.2048 0
M  V30 2067 N 195.109 -0.891671 -1.2995 0
M  V30 2068 C 196.386 -0.433307 -1.9074 0
M  V30 2069 C 196.766 1.08646 -1.80995 0
M  V30 2070 O 196.114 1.92476 -1.23147 0
M  V30 2071 C 196.324 -0.938895 -3.36134 0
M  V30 2072 C 197.672 -0.977829 -4.13187 0
M  V30 2073 O 198.696 -0.886015 -3.45005 0
M  V30 2074 O 197.555 -1.11453 -5.35015 0
M  V30 2075 H 194.649 -0.133699 -0.816121 0
M  V30 2076 H 197.195 -0.981011 -1.38471 0
M  V30 2077 H 195.967 -1.98281 -3.37343 0
M  V30 2078 H 195.59 -0.37074 -3.95868 0
M  V30 2079 N 196.587 1.43421 -0.653314 0
M  V30 2080 C 197.833 2.02111 -0.166992 0
M  V30 2081 C 198.166 1.51423 1.21592 0
M  V30 2082 O 197.441 0.707389 1.8118 0
M  V30 2083 C 197.724 3.5966 -0.177948 0
M  V30 2084 C 197.577 4.20579 -1.59478 0
M  V30 2085 C 198.896 4.37413 0.4856 0
M  V30 2086 H 196.015 0.734374 -0.0621557 0
M  V30 2087 H 198.657 1.70717 -0.834016 0
M  V30 2088 H 196.807 3.86537 0.390032 0
M  V30 2089 H 198.479 4.04732 -2.21336 0
M  V30 2090 H 196.722 3.77226 -2.14204 0
M  V30 2091 H 197.393 5.29665 -1.5543 0
M  V30 2092 H 199.869 4.161 0.00234528 0
M  V30 2093 H 198.745 5.47075 0.447207 0
M  V30 2094 H 199.006 4.13672 1.55974 0
M  V30 2095 N 198.065 0.39524 1.52563 0
M  V30 2096 C 199.311 -0.185318 2.01952 0
M  V30 2097 C 199.644 -1.45964 1.28095 0
M  V30 2098 O 198.919 -1.90689 0.38315 0
M  V30 2099 C 199.202 -0.447193 3.57312 0
M  V30 2100 C 199.055 0.842828 4.41833 0
M  V30 2101 C 200.374 -1.23529 4.22408 0
M  V30 2102 H 197.493 -0.0658788 0.73405 0
M  V30 2103 H 200.135 0.525975 1.82575 0
M  V30 2104 H 198.285 -1.05312 3.73954 0
M  V30 2105 H 199.957 1.4795 4.36931 0
M  V30 2106 H 198.2 1.45686 4.08605 0
M  V30 2107 H 198.871 0.614165 5.48573 0
M  V30 2108 H 201.347 -0.722445 4.0978 0
M  V30 2109 H 200.223 -1.38727 5.3108 0
M  V30 2110 H 200.484 -2.25213 3.80436 0
M  V30 2111 N 199.544 -1.57102 0.125237 0
M  V30 2112 C 200.477 -2.11371 -0.860094 0
M  V30 2113 C 201.455 -1.03168 -1.25679 0
M  V30 2114 O 202.639 -1.30862 -1.35674 0
M  V30 2115 C 199.766 -2.61555 -2.1519 0
M  V30 2116 C 198.812 -3.81701 -1.9028 0
M  V30 2117 S 199.645 -5.23797 -1.11343 0
M  V30 2118 C 200.801 -5.77353 -2.41689 0
M  V30 2119 H 201.034 -2.94617 -0.39852 0
M  V30 2120 H 198.567 -1.54145 -0.0886555 0
M  V30 2121 H 200.525 -2.91122 -2.89411 0
M  V30 2122 H 199.186 -1.78479 -2.58465 0
M  V30 2123 H 198.379 -4.14985 -2.86014 0
M  V30 2124 H 197.981 -3.52783 -1.24178 0
M  V30 2125 H 200.273 -5.87458 -3.37489 0
M  V30 2126 H 201.216 -6.75323 -2.12942 0
M  V30 2127 H 201.624 -5.05457 -2.51342 0
M  V30 2128 N 201.022 0.148545 -1.56898 0
M  V30 2129 C 201.97 1.20265 -1.99096 0
M  V30 2130 C 202.964 1.44559 -0.883123 0
M  V30 2131 O 204.17 1.4487 -1.0683 0
M  V30 2132 H 200.545 0.404786 -0.63376 0
M  V30 2133 H 202.516 0.82004 -2.86911 0
M  V30 2134 C 201.265 2.52886 -2.3863 0
M  V30 2135 H 200.588 2.35021 -3.23427 0
M  V30 2136 H 202.028 3.25274 -2.7198 0
M  V30 2137 C 200.487 3.13315 -1.23837 0
M  V30 2138 O 201.017 3.98077 -0.538268 0
M  V30 2139 N 199.223 2.72742 -1.00301 0
M  V30 2140 H 198.77 2.03912 -1.5741 0
M  V30 2141 H 198.728 3.13507 -0.236838 0
M  V30 2142 N 202.5 1.5196 0.417844 0
M  V30 2143 C 203.45 1.7106 1.5074 0
M  V30 2144 C 204.434 0.564487 1.50673 0
M  V30 2145 O 205.626 0.821206 1.56797 0
M  V30 2146 C 202.755 1.85677 2.88754 0
M  V30 2147 C 201.841 3.06133 2.93502 0
M  V30 2148 N 202.232 4.28987 2.67962 0
M  V30 2149 C 200.53 3.05787 3.24669 0
M  V30 2150 C 201.231 5.10395 2.79055 0
M  V30 2151 N 200.207 4.45455 3.11561 0
M  V30 2152 H 204.009 2.63696 1.29775 0
M  V30 2153 H 201.523 1.49873 0.625436 0
M  V30 2154 H 203.52 1.97475 3.67164 0
M  V30 2155 H 202.18 0.942348 3.10725 0
M  V30 2156 H 203.191 4.57607 2.4252 0
M  V30 2157 H 199.868 2.2405 3.52289 0
M  V30 2158 H 201.258 6.18247 2.63097 0
M  V30 2159 N 203.978 -0.674533 1.42435 0
M  V30 2160 C 204.925 -1.78807 1.45934 0
M  V30 2161 C 205.895 -1.63157 0.311271 0
M  V30 2162 O 207.08 -1.83707 0.515383 0
M  V30 2163 C 204.22 -3.16839 1.36773 0
M  V30 2164 C 203.333 -3.43774 2.61617 0
M  V30 2165 C 202.468 -4.71536 2.44597 0
M  V30 2166 C 201.507 -4.91505 3.64814 0
M  V30 2167 N 200.644 -6.10508 3.46734 0
M  V30 2168 H 205.484 -1.75151 2.41093 0
M  V30 2169 H 203.021 -0.85504 1.19697 0
M  V30 2170 H 204.979 -3.96606 1.29459 0
M  V30 2171 H 203.609 -3.19619 0.452089 0
M  V30 2172 H 202.661 -2.58259 2.79297 0
M  V30 2173 H 203.973 -3.54423 3.50978 0
M  V30 2174 H 203.127 -5.59393 2.3487 0
M  V30 2175 H 201.866 -4.6317 1.52726 0
M  V30 2176 H 200.871 -4.0209 3.74972 0
M  V30 2177 H 202.096 -5.01716 4.57665 0
M  V30 2178 H 200.042 -6.03315 2.5758 0
M  V30 2179 H 199.959 -6.2202 4.29682 0
M  V30 2180 H 201.227 -7.01044 3.40819 0
M  V30 2181 N 205.456 -1.28612 -0.910864 0
M  V30 2182 C 206.704 -1.15705 -1.65701 0
M  V30 2183 C 207.025 0.29416 -1.92769 0
M  V30 2184 O 206.295 1.20331 -1.54588 0
M  V30 2185 H 204.875 -0.425216 -0.614167 0
M  V30 2186 H 207.537 -1.61381 -1.0928 0
M  V30 2187 H 206.633 -1.6988 -2.61815 0
M  V30 2188 N 206.934 1.1197 -1.10907 0
M  V30 2189 C 208.182 1.83225 -0.852819 0
M  V30 2190 C 208.503 1.84769 0.623341 0
M  V30 2191 O 207.773 1.3143 1.45269 0
M  V30 2192 H 206.353 0.67849 -0.312507 0
M  V30 2193 H 209.015 1.3556 -1.40033 0
M  V30 2194 H 208.111 2.87265 -1.22005 0
M  V30 2195 N 208.412 0.89855 1.29475 0
M  V30 2196 C 209.375 0.380272 2.26023 0
M  V30 2197 C 210.375 -0.484891 1.53315 0
M  V30 2198 O 211.565 -0.290108 1.71767 0
M  V30 2199 C 208.697 -0.45651 3.3783 0
M  V30 2200 H 209.89 1.23295 2.73383 0
M  V30 2201 H 207.443 0.676589 1.40897 0
M  V30 2202 H 208.178 -1.32922 2.95808 0
M  V30 2203 H 207.963 0.163393 3.91759 0
M  V30 2204 H 209.453 -0.810466 4.0966 0
M  V30 2205 N 209.89 -1.43072 0.660911 0
M  V30 2206 C 211.167 -1.95307 0.107017 0
M  V30 2207 C 211.547 -1.60192 -1.37484 0
M  V30 2208 O 210.895 -0.890949 -2.10415 0
M  V30 2209 C 211.105 -3.47124 0.361402 0
M  V30 2210 C 212.453 -4.23738 0.270455 0
M  V30 2211 O 213.477 -3.54981 0.294382 0
M  V30 2212 O 212.336 -5.46131 0.200737 0
M  V30 2213 H 209.43 -0.826984 -0.00517729 0
M  V30 2214 H 211.976 -1.52972 0.734681 0
M  V30 2215 H 210.748 -3.65837 1.38848 0
M  V30 2216 H 210.371 -3.96475 -0.298953 0
M  V30 2217 N 211.368 -0.403325 -1.52352 0
M  V30 2218 C 212.616 0.174003 -2.0135 0
M  V30 2219 C 212.937 1.46139 -1.29106 0
M  V30 2220 O 212.207 1.91448 -0.415253 0
M  V30 2221 H 210.787 0.0672911 -0.743963 0
M  V30 2222 H 213.449 -0.538235 -1.87321 0
M  V30 2223 H 212.545 0.374254 -3.09848 0
M  V30 2224 N 212.846 1.57033 -0.133567 0
M  V30 2225 C 214.074 2.00044 0.528195 0
M  V30 2226 C 214.489 1.01349 1.59291 0
M  V30 2227 O 213.846 0.00848369 1.82498 0
M  V30 2228 C 213.897 3.43018 1.1411 0
M  V30 2229 O 213.618 4.37939 0.11892 0
M  V30 2230 C 215.119 4.01237 1.88477 0
M  V30 2231 H 212.339 0.656517 0.138661 0
M  V30 2232 H 214.883 2.03267 -0.224196 0
M  V30 2233 H 213.038 3.40688 1.84418 0
M  V30 2234 H 213.452 5.21436 0.56613 0
M  V30 2235 H 214.926 5.03314 2.26669 0
M  V30 2236 H 215.403 3.41193 2.76558 0
M  V30 2237 H 216.009 4.07156 1.22898 0
M  V30 2238 N 214.325 -0.140222 1.56975 0
M  V30 2239 C 215.235 -1.19223 2.02047 0
M  V30 2240 C 216.251 -1.46612 0.937062 0
M  V30 2241 O 217.427 -1.58148 1.24704 0
M  V30 2242 C 214.492 -2.50414 2.39778 0
M  V30 2243 C 213.553 -2.30612 3.621 0
M  V30 2244 C 212.786 -3.55547 3.98023 0
M  V30 2245 O 213.009 -4.62004 3.34528 0
M  V30 2246 O 211.943 -3.47808 4.91237 0
M  V30 2247 H 215.769 -0.839559 2.91865 0
M  V30 2248 H 213.354 -0.349453 1.45256 0
M  V30 2249 H 215.236 -3.27747 2.64877 0
M  V30 2250 H 213.911 -2.85198 1.53114 0
M  V30 2251 H 212.818 -1.51207 3.4218 0
M  V30 2252 H 214.151 -2.00741 4.49404 0
M  V30 2253 N 215.803 -1.52179 -0.40978 0
M  V30 2254 C 216.736 -1.70196 -1.52015 0
M  V30 2255 C 217.714 -0.549542 -1.53032 0
M  V30 2256 O 218.898 -0.776815 -1.71749 0
M  V30 2257 C 216.025 -1.74069 -2.90547 0
M  V30 2258 C 215.071 -2.95601 -3.07445 0
M  V30 2259 S 215.904 -4.55956 -2.80827 0
M  V30 2260 C 217.06 -4.62614 -4.21591 0
M  V30 2261 H 217.293 -2.64109 -1.36504 0
M  V30 2262 H 214.826 -1.4221 -0.601312 0
M  V30 2263 H 216.784 -1.76985 -3.70387 0
M  V30 2264 H 215.445 -0.812835 -3.034 0
M  V30 2265 H 214.638 -2.94791 -4.08796 0
M  V30 2266 H 214.24 -2.90569 -2.35469 0
M  V30 2267 H 216.532 -4.39951 -5.15218 0
M  V30 2268 H 217.475 -5.64548 -4.27424 0
M  V30 2269 H 217.883 -3.91654 -4.06531 0
M  V30 2270 N 217.281 0.66697 -1.42791 0
M  V30 2271 C 218.527 1.4291 -1.43891 0
M  V30 2272 C 218.86 1.94114 -0.0578972 0
M  V30 2273 O 218.135 1.71414 0.91911 0
M  V30 2274 C 218.418 2.62049 -2.46987 0
M  V30 2275 C 218.271 2.16426 -3.94309 0
M  V30 2276 C 219.59 3.64266 -2.46978 0
M  V30 2277 H 216.709 0.518306 -0.523954 0
M  V30 2278 H 219.351 0.757321 -1.74255 0
M  V30 2279 H 217.501 3.19361 -2.21225 0
M  V30 2280 H 219.173 1.64221 -4.31079 0
M  V30 2281 H 217.416 1.47925 -4.078 0
M  V30 2282 H 218.087 3.02038 -4.62036 0
M  V30 2283 H 220.563 3.16686 -2.69906 0
M  V30 2284 H 219.439 4.45196 -3.21079 0
M  V30 2285 H 219.7 4.15927 -1.49857 0
M  V30 2286 N 218.759 1.29093 0.90403 0
M  V30 2287 C 219.707 1.13727 2.02901 0
M  V30 2288 C 220.701 0.0539853 1.69314 0
M  V30 2289 O 221.907 0.213469 1.7873 0
M  V30 2290 H 218.282 0.35117 0.664969 0
M  V30 2291 H 220.253 2.08982 2.13001 0
M  V30 2292 C 219.002 0.826066 3.37745 0
M  V30 2293 H 218.325 1.65164 3.64089 0
M  V30 2294 H 219.765 0.758559 4.17159 0
M  V30 2295 C 218.224 -0.470541 3.33598 0
M  V30 2296 O 218.754 -1.49792 3.72727 0
M  V30 2297 N 216.96 -0.474812 2.86695 0
M  V30 2298 H 216.507 0.361692 2.55048 0
M  V30 2299 H 216.465 -1.34236 2.84303 0
M  V30 2300 N 220.237 -1.11381 1.11499 0
M  V30 2301 C 221.2 -2.15622 0.777153 0
M  V30 2302 C 222.2 -1.59504 -0.203779 0
M  V30 2303 O 223.39 -1.74188 0.020782 0
M  V30 2304 C 220.522 -3.40556 0.153116 0
M  V30 2305 H 221.715 -2.47021 1.70061 0
M  V30 2306 H 219.268 -1.26577 0.916952 0
M  V30 2307 H 220.003 -3.14767 -0.780536 0
M  V30 2308 H 219.788 -3.8257 0.859238 0
M  V30 2309 H 221.278 -4.17546 -0.0671044 0
M  V30 2310 N 221.715 -0.905404 -1.28997 0
M  V30 2311 C 222.961 -0.535039 -1.95615 0
M  V30 2312 C 223.294 0.917404 -1.71165 0
M  V30 2313 O 222.569 1.65123 -1.02785 0
M  V30 2314 C 222.852 -0.834918 -3.50287 0
M  V30 2315 C 222.705 -2.33948 -3.84172 0
M  V30 2316 C 224.024 -0.325318 -4.38896 0
M  V30 2317 H 221.143 -0.195861 -0.710498 0
M  V30 2318 H 223.785 -1.13313 -1.52513 0
M  V30 2319 H 221.935 -0.325904 -3.87131 0
M  V30 2320 H 223.607 -2.91847 -3.57243 0
M  V30 2321 H 221.85 -2.79789 -3.31513 0
M  V30 2322 H 222.521 -2.49987 -4.92149 0
M  V30 2323 H 224.997 -0.761256 -4.09077 0
M  V30 2324 H 223.873 -0.564295 -5.45992 0
M  V30 2325 H 224.134 0.774144 -4.35269 0
M  V30 2326 N 223.193 1.4272 -0.668489 0
M  V30 2327 C 224.103 2.34596 0.0139753 0
M  V30 2328 C 225.119 1.5474 0.795703 0
M  V30 2329 O 226.295 1.87334 0.739466 0
M  V30 2330 C 223.36 3.33202 0.957982 0
M  V30 2331 C 222.421 4.28957 0.17149 0
M  V30 2332 C 221.654 5.22853 1.07053 0
M  V30 2333 O 221.877 5.21531 2.31001 0
M  V30 2334 O 220.811 5.9952 0.534727 0
M  V30 2335 H 224.637 2.9448 -0.742661 0
M  V30 2336 H 222.222 1.43117 -0.428705 0
M  V30 2337 H 224.104 3.93796 1.50008 0
M  V30 2338 H 222.779 2.758 1.69458 0
M  V30 2339 H 221.686 3.71796 -0.414558 0
M  V30 2340 H 223.019 4.89383 -0.52586 0
M  V30 2341 N 224.671 0.411399 1.52136 0
M  V30 2342 C 225.917 -0.163888 2.02137 0
M  V30 2343 C 226.25 -1.44597 1.29636 0
M  V30 2344 O 225.525 -1.90272 0.403353 0
M  V30 2345 C 225.808 -0.40927 3.57767 0
M  V30 2346 C 225.661 0.889643 4.40914 0
M  V30 2347 C 226.98 -1.19042 4.23694 0
M  V30 2348 H 224.099 -0.0580896 0.734707 0
M  V30 2349 H 226.741 0.54531 1.82007 0
M  V30 2350 H 224.891 -1.0134 3.7505 0
M  V30 2351 H 226.563 1.52575 4.35337 0
M  V30 2352 H 224.806 1.50011 4.07037 0
M  V30 2353 H 225.477 0.672314 5.4789 0
M  V30 2354 H 227.953 -0.678942 4.10524 0
M  V30 2355 H 226.829 -1.33086 5.32522 0
M  V30 2356 H 227.09 -2.21166 3.82803 0
M  V30 2357 N 226.149 -1.5696 0.141893 0
M  V30 2358 C 227.097 -2.17784 -0.816874 0
M  V30 2359 C 228.091 -1.1334 -1.25899 0
M  V30 2360 O 229.297 -1.316 -1.22806 0
M  V30 2361 H 225.672 -0.697278 -0.281615 0
M  V30 2362 H 227.643 -2.97087 -0.279621 0
M  V30 2363 C 226.392 -2.80983 -2.04802 0
M  V30 2364 H 225.715 -3.61062 -1.7168 0
M  V30 2365 H 227.155 -3.2705 -2.69841 0
M  V30 2366 C 225.614 -1.79228 -2.8527 0
M  V30 2367 O 226.144 -1.25962 -3.8144 0
M  V30 2368 N 224.35 -1.48647 -2.49704 0
M  V30 2369 H 223.897 -1.92155 -1.71564 0
M  V30 2370 H 223.855 -0.808115 -3.03837 0
M  V30 2371 N 227.627 0.131896 -1.57047 0
M  V30 2372 C 229.043 0.485031 -1.52051 0
M  V30 2373 C 229.243 1.82563 -0.85281 0
M  V30 2374 O 228.299 2.48817 -0.429694 0
M  V30 2375 C 229.612 0.481409 -2.96821 0
M  V30 2376 C 231.16 0.565868 -3.07842 0
M  V30 2377 C 231.635 0.592762 -4.54148 0
M  V30 2378 N 233.126 0.654564 -4.58552 0
M  V30 2379 C 233.861 0.696608 -5.69153 0
M  V30 2380 N 233.357 0.697078 -6.89284 0
M  V30 2381 N 235.15 0.738639 -5.57226 0
M  V30 2382 H 227.301 -0.746664 -1.98843 0
M  V30 2383 H 229.564 -0.273999 -0.90754 0
M  V30 2384 H 229.27 -0.435731 -3.4899 0
M  V30 2385 H 229.144 1.3139 -3.53577 0
M  V30 2386 H 231.531 1.47343 -2.55684 0
M  V30 2387 H 231.612 -0.29406 -2.54104 0
M  V30 2388 H 231.256 -0.310701 -5.06949 0
M  V30 2389 H 231.186 1.46939 -5.05684 0
M  V30 2390 H 233.677 0.660887 -3.72076 0
M  V30 2391 H 233.99 0.731426 -7.69331 0
M  V30 2392 H 232.335 0.66471 -6.91814 0
M  V30 2393 H 235.526 0.735545 -4.62285 0
M  V30 2394 H 235.699 0.767938 -6.43434 0
M  V30 2395 N 229.106 1.52395 0.401703 0
M  V30 2396 C 230.331 1.70972 1.17403 0
M  V30 2397 C 230.756 0.421615 1.83314 0
M  V30 2398 O 230.114 -0.621564 1.70312 0
M  V30 2399 C 230.162 2.85151 2.20728 0
M  V30 2400 O 229.266 2.51238 3.27037 0
M  V30 2401 H 228.607 0.568927 0.342372 0
M  V30 2402 H 231.137 1.99131 0.469891 0
M  V30 2403 H 231.147 3.10279 2.64936 0
M  V30 2404 H 229.822 3.78603 1.7214 0
M  V30 2405 H 228.399 2.36808 2.88057 0
M  V30 2406 N 230.584 -0.659388 1.43143 0
M  V30 2407 C 231.532 -1.79374 1.4808 0
M  V30 2408 C 232.526 -1.65639 0.354988 0
M  V30 2409 O 233.732 -1.7206 0.528704 0
M  V30 2410 H 230.107 -0.591705 0.4641 0
M  V30 2411 H 232.078 -1.72329 2.43609 0
M  V30 2412 C 230.827 -3.17606 1.41499 0
M  V30 2413 H 230.15 -3.28809 2.27431 0
M  V30 2414 H 231.59 -3.96951 1.49015 0
M  V30 2415 C 230.049 -3.36642 0.131765 0
M  V30 2416 O 230.579 -3.93461 -0.809386 0
M  V30 2417 N 228.785 -2.90567 0.0439396 0
M  V30 2418 H 228.332 -2.44513 0.810619 0
M  V30 2419 H 228.29 -3.03681 -0.813969 0
M  V30 2420 N 232.062 -1.29571 -0.897171 0
M  V30 2421 C 233.478 -1.07637 -1.17841 0
M  V30 2422 C 233.678 0.170713 -2.00776 0
M  V30 2423 O 232.734 0.867768 -2.3712 0
M  V30 2424 C 234.047 -2.3332 -1.8969 0
M  V30 2425 C 235.595 -2.38664 -2.02505 0
M  V30 2426 C 236.07 -3.64157 -2.77765 0
M  V30 2427 N 237.561 -3.64894 -2.85318 0
M  V30 2428 C 238.296 -4.58679 -3.44094 0
M  V30 2429 N 237.792 -5.62799 -4.04017 0
M  V30 2430 N 239.585 -4.46245 -3.41793 0
M  V30 2431 H 231.736 -2.09598 -0.343883 0
M  V30 2432 H 233.999 -0.923333 -0.214848 0
M  V30 2433 H 233.705 -3.24262 -1.36187 0
M  V30 2434 H 233.579 -2.41025 -2.9015 0
M  V30 2435 H 235.966 -1.48208 -2.55183 0
M  V30 2436 H 236.047 -2.34943 -1.01171 0
M  V30 2437 H 235.691 -4.54965 -2.25763 0
M  V30 2438 H 235.621 -3.65137 -3.7945 0
M  V30 2439 H 238.112 -2.89613 -2.42761 0
M  V30 2440 H 238.425 -6.3048 -4.46895 0
M  V30 2441 H 236.77 -5.66605 -4.02472 0
M  V30 2442 H 239.961 -3.64094 -2.94199 0
M  V30 2443 H 240.134 -5.19518 -3.87304 0
M  V30 2444 N 233.54 1.10788 -1.12088 0
M  V30 2445 C 234.488 2.19111 -0.780587 0
M  V30 2446 C 235.482 1.67818 0.230961 0
M  V30 2447 O 236.688 1.79777 0.0895427 0
M  V30 2448 H 233.063 0.714477 -0.234578 0
M  V30 2449 H 235.034 2.45055 -1.70266 0
M  V30 2450 C 233.783 3.46818 -0.24747 0
M  V30 2451 H 233.106 3.86646 -1.01712 0
M  V30 2452 H 234.546 4.23973 -0.0476291 0
M  V30 2453 C 233.005 3.20968 1.02378 0
M  V30 2454 O 233.535 3.42298 2.10226 0
M  V30 2455 N 231.741 2.74658 0.949271 0
M  V30 2456 H 231.288 2.57501 0.0715173 0
M  V30 2457 H 231.246 2.57739 1.80049 0
M  V30 2458 N 235.018 0.912232 1.28515 0
M  V30 2459 C 235.95 0.35676 2.26406 0
M  V30 2460 C 236.963 -0.503933 1.54804 0
M  V30 2461 O 238.152 -0.319059 1.75625 0
M  V30 2462 C 235.252 -0.508825 3.35058 0
M  V30 2463 C 234.425 0.329007 4.36161 0
M  V30 2464 C 233.484 -0.471422 5.24084 0
M  V30 2465 O 232.51 0.115482 5.69083 0
M  V30 2466 N 233.712 -1.77479 5.52704 0
M  V30 2467 H 236.477 1.19818 2.74707 0
M  V30 2468 H 234.038 0.778022 1.4198 0
M  V30 2469 H 236.03 -1.051 3.90815 0
M  V30 2470 H 234.6 -1.25095 2.86478 0
M  V30 2471 H 233.82 1.05256 3.79888 0
M  V30 2472 H 235.108 0.90234 5.00735 0
M  V30 2473 H 234.506 -2.27417 5.17975 0
M  V30 2474 H 233.063 -2.26382 6.11224 0
M  V30 2475 N 236.496 -1.42363 0.676048 0
M  V30 2476 C 237.406 -2.346 -0.00153389 0
M  V30 2477 C 238.422 -1.5516 -0.787485 0
M  V30 2478 O 239.598 -1.87723 -0.729521 0
M  V30 2479 C 236.663 -3.33705 -0.940298 0
M  V30 2480 C 235.724 -4.29042 -0.148739 0
M  V30 2481 C 234.957 -5.23413 -1.04279 0
M  V30 2482 O 235.18 -5.22749 -2.28232 0
M  V30 2483 O 234.114 -5.99795 -0.502925 0
M  V30 2484 H 237.94 -2.94082 0.758268 0
M  V30 2485 H 235.525 -1.42888 0.436289 0
M  V30 2486 H 237.407 -3.94586 -1.47917 0
M  V30 2487 H 236.082 -2.76695 -1.67993 0
M  V30 2488 H 234.989 -3.71571 0.43427 0
M  V30 2489 H 236.322 -4.89097 0.551805 0
M  V30 2490 N 237.974 -0.419461 -1.51915 0
M  V30 2491 C 239.223 0.154346 -2.01109 0
M  V30 2492 C 239.536 1.45338 -1.30905 0
M  V30 2493 O 240.742 2.10906 -1.7097 0
M  V30 2494 C 239.198 0.325615 -3.58424 0
M  V30 2495 C 238.806 -0.961934 -4.37551 0
M  V30 2496 C 240.55 0.854155 -4.15818 0
M  V30 2497 C 238.457 -0.757287 -5.86531 0
M  V30 2498 H 237.387 0.0614563 -0.751491 0
M  V30 2499 H 240.038 -0.54649 -1.75173 0
M  V30 2500 H 238.42 1.08903 -3.80731 0
M  V30 2501 H 239.594 -1.7323 -4.26999 0
M  V30 2502 H 237.909 -1.41766 -3.91524 0
M  V30 2503 H 240.506 1.02346 -5.24814 0
M  V30 2504 H 240.849 1.83172 -3.73837 0
M  V30 2505 H 241.382 0.149528 -3.97519 0
M  V30 2506 H 238.121 -1.70671 -6.32892 0
M  V30 2507 H 237.641 -0.0264061 -5.99794 0
M  V30 2508 H 239.32 -0.403482 -6.45741 0
M  V30 2509 N 239.452 1.56882 -0.150215 0
M  V30 2510 C 240.677 2.01027 0.510184 0
M  V30 2511 C 241.102 1.02966 1.57415 0
M  V30 2512 O 240.46 0.00590158 1.81299 0
M  V30 2513 C 240.508 3.43899 1.08472 0
M  V30 2514 O 239.612 3.4885 2.19948 0
M  V30 2515 H 238.953 0.652233 0.124451 0
M  V30 2516 H 241.483 2.03093 -0.247894 0
M  V30 2517 H 241.493 3.82766 1.41259 0
M  V30 2518 H 240.168 4.14776 0.305582 0
M  V30 2519 H 238.745 3.21827 1.88366 0
M  V30 2520 N 240.93 -0.123565 1.57115 0
M  V30 2521 C 242.178 -0.83051 1.84247 0
M  V30 2522 C 242.499 -1.80629 0.73471 0
M  V30 2523 O 241.769 -1.94403 -0.241688 0
M  V30 2524 H 240.349 -0.309694 0.679778 0
M  V30 2525 H 243.011 -0.111976 1.94578 0
M  V30 2526 H 242.107 -1.37852 2.80006 0
M  V30 2527 N 242.408 -1.52605 -0.393616 0
M  V30 2528 C 243.318 -1.79971 -1.50492 0
M  V30 2529 C 244.334 -0.686181 -1.59899 0
M  V30 2530 O 245.51 -0.973274 -1.76322 0
M  V30 2531 C 242.575 -1.95867 -2.86072 0
M  V30 2532 C 241.636 -3.19781 -2.86424 0
M  V30 2533 C 240.869 -3.34909 -4.15538 0
M  V30 2534 O 241.092 -2.54948 -5.10253 0
M  V30 2535 O 240.026 -4.28141 -4.23059 0
M  V30 2536 H 243.852 -2.74328 -1.30299 0
M  V30 2537 H 241.437 -1.3764 -0.581005 0
M  V30 2538 H 243.319 -2.08056 -3.66457 0
M  V30 2539 H 241.994 -1.04699 -3.063 0
M  V30 2540 H 240.901 -3.13038 -2.04837 0
M  V30 2541 H 242.234 -4.1078 -2.71147 0
M  V30 2542 N 243.887 0.651787 -1.4349 0
M  V30 2543 C 245.117 1.43728 -1.48411 0
M  V30 2544 C 245.525 1.8893 -0.10103 0
M  V30 2545 O 244.868 1.60182 0.899307 0
M  V30 2546 C 244.93 2.70411 -2.36893 0
M  V30 2547 C 244.594 2.4714 -3.8441 0
M  V30 2548 C 245.591 2.10271 -4.75481 0
M  V30 2549 C 243.276 2.6142 -4.28912 0
M  V30 2550 C 245.27 1.87982 -6.0905 0
M  V30 2551 C 242.957 2.38746 -5.62533 0
M  V30 2552 C 243.955 2.02083 -6.5242 0
M  V30 2553 O 243.643 1.79647 -7.8357 0
M  V30 2554 H 243.375 0.447962 -0.506267 0
M  V30 2555 H 245.929 0.80624 -1.88915 0
M  V30 2556 H 244.159 3.36079 -1.91278 0
M  V30 2557 H 245.848 3.32364 -2.33 0
M  V30 2558 H 246.614 1.98814 -4.42378 0
M  V30 2559 H 242.493 2.88931 -3.59222 0
M  V30 2560 H 246.037 1.5929 -6.7917 0
M  V30 2561 H 241.934 2.49806 -5.95203 0
M  V30 2562 H 242.702 1.9406 -7.95162 0
M  V30 2563 N 245.365 1.30045 0.890287 0
M  V30 2564 C 246.593 1.21472 1.67487 0
M  V30 2565 C 247.008 -0.223241 1.87476 0
M  V30 2566 O 246.365 -1.14828 1.41847 0
M  V30 2567 C 246.416 1.93394 3.05419 0
M  V30 2568 O 246.137 3.31576 2.86337 0
M  V30 2569 C 247.638 1.91414 3.99844 0
M  V30 2570 H 244.858 0.420604 0.522813 0
M  V30 2571 H 247.402 1.7158 1.11268 0
M  V30 2572 H 245.557 1.47099 3.58386 0
M  V30 2573 H 245.971 3.67929 3.73802 0
M  V30 2574 H 247.445 2.46285 4.94012 0
M  V30 2575 H 247.922 0.891833 4.3005 0
M  V30 2576 H 248.528 2.37496 3.52811 0
M  V30 2577 N 246.843 -1.10192 1.12674 0
M  V30 2578 C 248.092 -1.81573 0.8783 0
M  V30 2579 C 248.405 -1.86249 -0.597557 0
M  V30 2580 O 249.611 -2.5386 -0.962681 0
M  V30 2581 C 248.067 -3.26149 1.52167 0
M  V30 2582 C 247.675 -3.29763 3.03249 0
M  V30 2583 C 249.419 -4.0234 1.3536 0
M  V30 2584 C 247.326 -4.68815 3.60508 0
M  V30 2585 H 246.256 -0.680394 0.324931 0
M  V30 2586 H 248.907 -1.23902 1.35353 0
M  V30 2587 H 247.289 -3.83832 0.974104 0
M  V30 2588 H 248.463 -2.8189 3.6452 0
M  V30 2589 H 246.778 -2.67059 3.19481 0
M  V30 2590 H 249.375 -5.05058 1.75559 0
M  V30 2591 H 249.718 -4.15235 0.297554 0
M  V30 2592 H 250.251 -3.51079 1.87052 0
M  V30 2593 H 246.99 -4.61121 4.65884 0
M  V30 2594 H 246.51 -5.17045 3.04014 0
M  V30 2595 H 248.189 -5.37785 3.59717 0
M  V30 2596 N 248.321 -0.919034 -1.28029 0
M  V30 2597 C 249.231 -0.416756 -2.30869 0
M  V30 2598 C 250.247 0.498235 -1.66714 0
M  V30 2599 O 251.423 0.383144 -1.97722 0
M  V30 2600 C 248.488 0.330274 -3.45123 0
M  V30 2601 C 247.549 -0.618578 -4.2482 0
M  V30 2602 C 246.782 0.0928959 -5.33619 0
M  V30 2603 O 247.005 1.31375 -5.55065 0
M  V30 2604 O 245.939 -0.574499 -5.99152 0
M  V30 2605 H 249.765 -1.27043 -2.75851 0
M  V30 2606 H 247.35 -0.684052 -1.3282 0
M  V30 2607 H 249.232 0.751972 -4.14636 0
M  V30 2608 H 247.907 1.1597 -3.02213 0
M  V30 2609 H 246.814 -1.08978 -3.57875 0
M  V30 2610 H 248.147 -1.41497 -4.71423 0
M  V30 2611 N 249.799 1.42003 -0.683588 0
M  V30 2612 C 250.762 2.29191 -0.0198243 0
M  V30 2613 C 251.762 1.43773 0.72013 0
M  V30 2614 O 252.952 1.65061 0.556815 0
M  V30 2615 C 250.084 3.26435 0.982487 0
M  V30 2616 H 251.277 2.8938 -0.787345 0
M  V30 2617 H 248.83 1.49789 -0.446418 0
M  V30 2618 H 249.565 2.71203 1.77819 0
M  V30 2619 H 249.35 3.89449 0.455182 0
M  V30 2620 H 250.84 3.918 1.44508 0
M  V30 2621 N 251.277 0.427512 1.51691 0
M  V30 2622 C 252.523 -0.134744 2.02953 0
M  V30 2623 C 252.878 -1.41235 1.30654 0
M  V30 2624 O 252.171 -1.87168 0.409713 0
M  V30 2625 C 252.365 -0.418249 3.54944 0
M  V30 2626 C 252.194 0.830327 4.41968 0
M  V30 2627 C 250.964 1.36097 4.86627 0
M  V30 2628 C 253.162 1.7137 4.84909 0
M  V30 2629 N 251.144 2.56311 5.57833 0
M  V30 2630 C 252.515 2.76195 5.55082 0
M  V30 2631 C 254.57 1.72928 4.66905 0
M  V30 2632 C 253.273 3.82512 6.09161 0
M  V30 2633 C 255.299 2.78175 5.21894 0
M  V30 2634 C 254.661 3.8172 5.92004 0
M  V30 2635 H 250.76 -0.0103958 0.781931 0
M  V30 2636 H 253.344 0.585981 1.85673 0
M  V30 2637 H 251.515 -1.10801 3.7226 0
M  V30 2638 H 253.247 -0.970999 3.92879 0
M  V30 2639 H 250.002 0.916311 4.64651 0
M  V30 2640 H 250.426 3.17242 5.98069 0
M  V30 2641 H 255.068 0.942081 4.12171 0
M  V30 2642 H 252.786 4.62077 6.62956 0
M  V30 2643 H 256.372 2.8031 5.09821 0
M  V30 2644 H 255.252 4.61821 6.33791 0
M  V30 2645 N 252.755 -1.56801 0.158532 0
M  V30 2646 C 253.983 -2.00859 -0.496303 0
M  V30 2647 C 254.398 -1.03871 -1.57659 0
M  V30 2648 O 253.755 -0.0375165 -1.82461 0
M  V30 2649 C 253.806 -3.4479 -1.08638 0
M  V30 2650 O 253.527 -4.38072 -0.0492322 0
M  V30 2651 C 255.028 -4.04185 -1.8207 0
M  V30 2652 H 252.248 -0.65864 -0.128199 0
M  V30 2653 H 254.792 -2.02885 0.256506 0
M  V30 2654 H 252.947 -3.43579 -1.78975 0
M  V30 2655 H 253.361 -5.2227 -0.483102 0
M  V30 2656 H 254.835 -5.06857 -2.18633 0
M  V30 2657 H 255.312 -3.45549 -2.71095 0
M  V30 2658 H 255.918 -4.0906 -1.16405 0
M  V30 2659 N 254.233 0.115231 -1.57178 0
M  V30 2660 C 255.18 1.14115 -2.00615 0
M  V30 2661 C 256.15 1.40939 -0.878941 0
M  V30 2662 O 257.335 1.52741 -1.14345 0
M  V30 2663 C 254.475 2.46156 -2.4187 0
M  V30 2664 C 253.588 2.26236 -3.68024 0
M  V30 2665 C 252.723 3.51534 -3.98243 0
M  V30 2666 C 251.762 3.26787 -5.17568 0
M  V30 2667 N 250.899 4.44298 -5.43639 0
M  V30 2668 H 255.739 0.763743 -2.88047 0
M  V30 2669 H 253.276 0.365615 -1.42484 0
M  V30 2670 H 255.234 3.23189 -2.63827 0
M  V30 2671 H 253.864 2.81783 -1.57475 0
M  V30 2672 H 252.916 1.40102 -3.5366 0
M  V30 2673 H 254.228 2.03929 -4.55208 0
M  V30 2674 H 253.382 4.36984 -4.20868 0
M  V30 2675 H 252.121 3.76876 -3.09541 0
M  V30 2676 H 251.126 2.39729 -4.94783 0
M  V30 2677 H 252.351 3.02812 -6.0785 0
M  V30 2678 H 250.297 4.69754 -4.57895 0
M  V30 2679 H 250.214 4.25109 -6.25154 0
M  V30 2680 H 251.482 5.3087 -5.70786 0
M  V30 2681 N 255.711 1.52812 0.385517 0
M  V30 2682 C 256.958 1.68026 1.1302 0
M  V30 2683 C 257.286 0.421934 1.89868 0
M  V30 2684 O 256.541 -0.595749 1.86412 0
M  V30 2685 C 256.84 2.86856 2.13187 0
M  V30 2686 C 256.506 4.24159 1.5297 0
M  V30 2687 C 255.168 4.61501 1.36274 0
M  V30 2688 C 257.52 5.09627 1.09223 0
M  V30 2689 C 254.848 5.81966 0.743837 0
M  V30 2690 C 257.2 6.30719 0.487411 0
M  V30 2691 C 255.864 6.6679 0.307777 0
M  V30 2692 H 255.134 0.614849 0.413571 0
M  V30 2693 H 257.781 1.86962 0.414405 0
M  V30 2694 H 256.086 2.6235 2.90998 0
M  V30 2695 H 257.783 2.95821 2.70722 0
M  V30 2696 H 254.373 3.94746 1.66954 0
M  V30 2697 H 258.557 4.81343 1.20922 0
M  V30 2698 H 253.813 6.08519 0.592891 0
M  V30 2699 H 257.987 6.96259 0.140143 0
M  V30 2700 H 255.614 7.60001 -0.173879 0
M  V30 2701 N 257.189 -0.644168 1.43834 0
M  V30 2702 C 258.466 -1.40188 1.36406 0
M  V30 2703 C 258.846 -2.11094 0.0163124 0
M  V30 2704 O 258.194 -2.05426 -1.00062 0
M  V30 2705 C 258.404 -2.3791 2.55343 0
M  V30 2706 C 259.752 -3.01637 2.98832 0
M  V30 2707 O 260.776 -2.48237 2.55455 0
M  V30 2708 O 259.635 -3.98477 3.74003 0
M  V30 2709 H 256.729 -0.626773 0.539523 0
M  V30 2710 H 259.275 -0.670317 1.559 0
M  V30 2711 H 258.047 -1.84525 3.4506 0
M  V30 2712 H 257.67 -3.18503 2.37995 0
M  V30 2713 N 258.668 -1.30515 -0.883378 0
M  V30 2714 C 259.915 -1.1943 -1.63532 0
M  V30 2715 C 260.243 0.250627 -1.92878 0
M  V30 2716 O 259.498 1.19556 -1.54935 0
M  V30 2717 C 259.797 -1.96994 -2.98209 0
M  V30 2718 C 259.463 -3.466 -2.88408 0
M  V30 2719 C 258.125 -3.87397 -2.85442 0
M  V30 2720 C 260.477 -4.41863 -2.76418 0
M  V30 2721 C 257.805 -5.21745 -2.68327 0
M  V30 2722 C 260.157 -5.7632 -2.60841 0
M  V30 2723 C 258.821 -6.16354 -2.56251 0
M  V30 2724 H 258.091 -0.437025 -0.598406 0
M  V30 2725 H 260.738 -1.61635 -1.02696 0
M  V30 2726 H 259.043 -1.47429 -3.63004 0
M  V30 2727 H 260.74 -1.85808 -3.55354 0
M  V30 2728 H 257.33 -3.14182 -2.91527 0
M  V30 2729 H 261.514 -4.11285 -2.77775 0
M  V30 2730 H 256.77 -5.51853 -2.63189 0
M  V30 2731 H 260.944 -6.49772 -2.50538 0
M  V30 2732 H 258.571 -7.20401 -2.42748 0
M  V30 2733 N 260.146 1.09593 -1.13257 0
M  V30 2734 C 261.557 1.63229 -0.906274 0
M  V30 2735 C 261.908 1.8811 0.557578 0
M  V30 2736 O 261.033 1.62953 1.42391 0
M  V30 2737 C 261.628 2.96535 -1.63867 0
M  V30 2738 C 260.187 3.47003 -1.45828 0
M  V30 2739 C 259.334 2.2145 -1.66898 0
M  V30 2740 H 262.285 0.92978 -1.28611 0
M  V30 2741 H 262.306 3.64411 -1.09476 0
M  V30 2742 H 261.818 2.78394 -2.70404 0
M  V30 2743 H 259.919 3.70272 -0.415848 0
M  V30 2744 H 260.032 4.24551 -2.2202 0
M  V30 2745 H 258.396 2.30022 -1.09371 0
M  V30 2746 H 259.179 2.0583 -2.74752 0
M  V30 2747 N 261.624 0.925811 1.2754 0
M  V30 2748 C 262.872 0.564138 1.94067 0
M  V30 2749 C 263.193 -0.897188 1.73134 0
M  V30 2750 O 262.463 -1.63573 1.07799 0
M  V30 2751 H 261.043 0.205645 0.718136 0
M  V30 2752 H 263.705 1.1778 1.55287 0
M  V30 2753 H 262.801 0.76881 3.02483 0
M  V30 2754 N 263.102 -1.41638 0.69111 0
M  V30 2755 C 264.518 -1.55435 0.362224 0
M  V30 2756 C 264.718 -1.66754 -1.13117 0
M  V30 2757 O 263.774 -1.64348 -1.91692 0
M  V30 2758 C 265.087 -2.79588 1.10684 0
M  V30 2759 C 266.635 -2.9338 1.09075 0
M  V30 2760 C 267.11 -4.20414 1.81703 0
M  V30 2761 N 268.601 -4.27362 1.7865 0
M  V30 2762 C 269.336 -5.24507 2.31689 0
M  V30 2763 N 268.832 -6.27708 2.93179 0
M  V30 2764 N 270.625 -5.16416 2.2197 0
M  V30 2765 H 262.776 -1.32536 1.65976 0
M  V30 2766 H 265.039 -0.639115 0.700168 0
M  V30 2767 H 264.745 -2.77419 2.16175 0
M  V30 2768 H 264.619 -3.70973 0.682545 0
M  V30 2769 H 267.006 -2.95067 0.0441238 0
M  V30 2770 H 267.087 -2.0318 1.55407 0
M  V30 2771 H 266.731 -4.19488 2.86343 0
M  V30 2772 H 266.661 -5.09578 1.32808 0
M  V30 2773 H 269.152 -3.53415 1.33815 0
M  V30 2774 H 269.465 -6.98217 3.31229 0
M  V30 2775 H 267.81 -6.28223 2.97255 0
M  V30 2776 H 271.001 -4.34716 1.73607 0
M  V30 2777 H 271.174 -5.91958 2.63609 0
M  V30 2778 N 264.58 -0.43555 -1.51462 0
M  V30 2779 C 265.828 0.131254 -2.01673 0
M  V30 2780 C 266.149 1.43368 -1.32177 0
M  V30 2781 O 265.419 1.90524 -0.455769 0
M  V30 2782 H 263.999 0.0514954 -0.745223 0
M  V30 2783 H 266.661 -0.577847 -1.86137 0
M  V30 2784 H 265.757 0.308446 -3.10572 0
M  V30 2785 N 266.058 1.56714 -0.166846 0
M  V30 2786 C 267.006 2.19056 0.782123 0
M  V30 2787 C 268 1.15328 1.24079 0
M  V30 2788 O 269.206 1.33537 1.20697 0
M  V30 2789 H 265.581 0.70167 0.270486 0
M  V30 2790 H 267.552 2.97494 0.232322 0
M  V30 2791 C 266.301 2.84206 2.00306 0
M  V30 2792 H 265.624 3.63748 1.65914 0
M  V30 2793 H 267.064 3.31302 2.64604 0
M  V30 2794 C 265.523 1.83744 2.82382 0
M  V30 2795 O 266.053 1.32014 3.79388 0
M  V30 2796 N 264.259 1.52601 2.47308 0
M  V30 2797 H 263.806 1.9486 1.68485 0
M  V30 2798 H 263.764 0.856351 3.02513 0
M  V30 2799 N 267.536 -0.106894 1.57237 0
M  V30 2800 C 268.764 -0.826389 1.8968 0
M  V30 2801 C 269.179 -1.72856 0.759353 0
M  V30 2802 O 268.536 -1.80503 -0.269263 0
M  V30 2803 C 268.587 -1.64967 3.21665 0
M  V30 2804 O 268.308 -0.783804 4.31031 0
M  V30 2805 C 269.809 -2.47326 3.67892 0
M  V30 2806 H 267.029 -0.236927 0.627779 0
M  V30 2807 H 269.573 -0.0876593 2.04312 0
M  V30 2808 H 267.728 -2.34103 3.08666 0
M  V30 2809 H 268.142 -1.35284 5.06753 0
M  V30 2810 H 269.616 -3.00604 4.6297 0
M  V30 2811 H 270.093 -3.25247 2.95146 0
M  V30 2812 H 270.699 -1.83411 3.83719 0
M  V30 2813 N 269.014 -1.53014 -0.377408 0
M  V30 2814 C 269.964 -1.74996 -1.46152 0
M  V30 2815 C 270.948 -0.604236 -1.49123 0
M  V30 2816 O 272.14 -0.862489 -1.54564 0
M  V30 2817 C 269.269 -1.93267 -2.8373 0
M  V30 2818 C 268.355 -3.13807 -2.85283 0
M  V30 2819 N 268.746 -4.35941 -2.56493 0
M  V30 2820 C 267.044 -3.14288 -3.16448 0
M  V30 2821 C 267.745 -5.17615 -2.65424 0
M  V30 2822 N 266.721 -4.53559 -2.99641 0
M  V30 2823 H 270.523 -2.67044 -1.22738 0
M  V30 2824 H 268.037 -1.51479 -0.585479 0
M  V30 2825 H 270.034 -2.0714 -3.61799 0
M  V30 2826 H 268.694 -1.0244 -3.08117 0
M  V30 2827 H 269.705 -4.63876 -2.30302 0
M  V30 2828 H 266.382 -2.33312 -3.46225 0
M  V30 2829 H 267.772 -6.25006 -2.46612 0
M  V30 2830 N 270.492 0.636531 -1.44174 0
M  V30 2831 C 271.717 1.42847 -1.50364 0
M  V30 2832 C 272.142 1.87665 -0.127867 0
M  V30 2833 O 271.5 1.58408 0.88185 0
M  V30 2834 C 271.548 2.62854 -2.4686 0
M  V30 2835 O 270.652 3.62501 -1.9664 0
M  V30 2836 H 269.993 0.427642 -0.507955 0
M  V30 2837 H 272.523 0.777422 -1.89255 0
M  V30 2838 H 272.533 3.10465 -2.64718 0
M  V30 2839 H 271.208 2.29578 -3.46795 0
M  V30 2840 H 269.785 3.21735 -1.88523 0
M  V30 2841 N 271.97 1.30982 0.876444 0
M  V30 2842 C 272.918 1.18006 2.00443 0
M  V30 2843 C 273.912 0.0898871 1.69161 0
M  V30 2844 O 275.118 0.251333 1.78237 0
M  V30 2845 H 271.493 0.365196 0.65737 0
M  V30 2846 H 273.464 2.13453 2.0852 0
M  V30 2847 C 272.213 0.897521 3.35916 0
M  V30 2848 H 271.536 1.7285 3.60504 0
M  V30 2849 H 272.976 0.846874 4.15456 0
M  V30 2850 C 271.435 -0.399674 3.34521 0
M  V30 2851 O 271.965 -1.41852 3.7582 0
M  V30 2852 N 270.171 -0.413893 2.87637 0
M  V30 2853 H 269.718 0.41571 2.54224 0
M  V30 2854 H 269.676 -1.28175 2.87086 0
M  V30 2855 N 273.449 -1.08991 1.13837 0
M  V30 2856 C 274.696 -1.81258 0.902882 0
M  V30 2857 C 275.024 -1.85936 -0.570803 0
M  V30 2858 O 274.279 -1.3267 -1.43865 0
M  V30 2859 C 274.578 -3.27042 1.44147 0
M  V30 2860 C 274.244 -3.4249 2.93276 0
M  V30 2861 C 272.906 -3.46414 3.33992 0
M  V30 2862 C 275.258 -3.4666 3.892 0
M  V30 2863 C 272.586 -3.52091 4.69307 0
M  V30 2864 C 274.938 -3.53872 5.24364 0
M  V30 2865 C 273.602 -3.56066 5.646 0
M  V30 2866 H 272.872 -0.663268 0.330388 0
M  V30 2867 H 275.519 -1.28368 1.42105 0
M  V30 2868 H 273.824 -3.82599 0.844097 0
M  V30 2869 H 275.521 -3.81499 1.23528 0
M  V30 2870 H 272.111 -3.40124 2.60794 0
M  V30 2871 H 276.295 -3.42865 3.58828 0
M  V30 2872 H 271.551 -3.52079 4.9985 0
M  V30 2873 H 275.725 -3.56043 5.98503 0
M  V30 2874 H 273.352 -3.60218 6.69438 0
M  V30 2875 N 274.927 -0.932562 -1.27047 0
M  V30 2876 C 275.874 -0.434072 -2.26681 0
M  V30 2877 C 276.844 0.501639 -1.58344 0
M  V30 2878 O 278.029 0.419734 -1.86126 0
M  V30 2879 C 275.169 0.30261 -3.43771 0
M  V30 2880 C 274.282 -0.667774 -4.26808 0
M  V30 2881 C 273.417 0.0892393 -5.31125 0
M  V30 2882 C 272.456 -0.873532 -6.05835 0
M  V30 2883 N 271.593 -0.148832 -7.01942 0
M  V30 2884 H 276.433 -1.28868 -2.68695 0
M  V30 2885 H 273.97 -0.646713 -1.32121 0
M  V30 2886 H 275.928 0.746092 -4.10474 0
M  V30 2887 H 274.558 1.12142 -3.02695 0
M  V30 2888 H 273.61 -1.22978 -3.59973 0
M  V30 2889 H 274.922 -1.40337 -4.78651 0
M  V30 2890 H 274.076 0.592409 -6.03801 0
M  V30 2891 H 272.815 0.85777 -4.80097 0
M  V30 2892 H 271.82 -1.38791 -5.31994 0
M  V30 2893 H 273.045 -1.64193 -6.58952 0
M  V30 2894 H 270.991 0.601365 -6.53238 0
M  V30 2895 H 270.908 -0.82391 -7.51497 0
M  V30 2896 H 272.176 0.333527 -7.78786 0
M  V30 2897 N 276.405 1.4127 -0.698611 0
M  V30 2898 C 277.651 2.01979 -0.239972 0
M  V30 2899 C 278.006 1.54353 1.14861 0
M  V30 2900 O 277.299 0.746218 1.76471 0
M  V30 2901 C 277.493 3.56592 -0.240192 0
M  V30 2902 C 277.322 4.19226 -1.62726 0
M  V30 2903 C 276.092 4.53389 -2.23084 0
M  V30 2904 C 278.29 4.45228 -2.57443 0
M  V30 2905 N 276.272 5.01327 -3.54323 0
M  V30 2906 C 277.643 4.94973 -3.73365 0
M  V30 2907 C 279.698 4.27243 -2.55671 0
M  V30 2908 C 278.401 5.28624 -4.878 0
M  V30 2909 C 280.427 4.61985 -3.69221 0
M  V30 2910 C 279.789 5.11904 -4.83873 0
M  V30 2911 H 275.888 0.770561 -0.133269 0
M  V30 2912 H 278.472 1.71767 -0.916748 0
M  V30 2913 H 276.643 3.86271 0.406082 0
M  V30 2914 H 278.375 4.04025 0.23356 0
M  V30 2915 H 275.13 4.39946 -1.75341 0
M  V30 2916 H 275.554 5.29697 -4.21604 0
M  V30 2917 H 280.196 3.87884 -1.68243 0
M  V30 2918 H 277.914 5.66905 -5.75885 0
M  V30 2919 H 281.5 4.49725 -3.69105 0
M  V30 2920 H 280.38 5.38282 -5.70282 0
M  V30 2921 N 277.883 0.443576 1.51229 0
M  V30 2922 C 279.299 0.0962001 1.5931 0
M  V30 2923 C 279.499 -1.39501 1.45402 0
M  V30 2924 O 278.555 -2.16557 1.29843 0
M  V30 2925 C 279.868 0.621875 2.94199 0
M  V30 2926 C 281.416 0.582865 3.07525 0
M  V30 2927 C 281.891 1.08562 4.44948 0
M  V30 2928 N 283.382 1.04387 4.51284 0
M  V30 2929 C 284.117 1.40368 5.55954 0
M  V30 2930 N 283.613 1.83664 6.68011 0
M  V30 2931 N 285.406 1.32145 5.46346 0
M  V30 2932 H 277.557 1.41376 1.58514 0
M  V30 2933 H 279.82 0.582965 0.747567 0
M  V30 2934 H 279.526 1.66546 3.09767 0
M  V30 2935 H 279.4 0.0502125 3.77167 0
M  V30 2936 H 281.787 -0.451749 2.91622 0
M  V30 2937 H 281.868 1.191 2.26382 0
M  V30 2938 H 281.512 2.11873 4.61598 0
M  V30 2939 H 281.442 0.453956 5.2464 0
M  V30 2940 H 283.933 0.725986 3.70861 0
M  V30 2941 H 284.246 2.0934 7.43906 0
M  V30 2942 H 282.591 1.87596 6.69203 0
M  V30 2943 H 285.782 0.981808 4.57688 0
M  V30 2944 H 285.955 1.60514 6.27805 0
M  V30 2945 N 279.361 -1.56624 0.175154 0
M  V30 2946 C 280.607 -1.98061 -0.462976 0
M  V30 2947 C 280.962 -1.05949 -1.60601 0
M  V30 2948 O 280.255 -0.0999027 -1.91339 0
M  V30 2949 C 280.449 -3.43419 -0.989864 0
M  V30 2950 C 280.278 -4.49587 0.100583 0
M  V30 2951 C 279.048 -5.02281 0.551539 0
M  V30 2952 C 281.246 -5.06322 0.902369 0
M  V30 2953 N 279.228 -5.92088 1.62189 0
M  V30 2954 C 280.599 -5.92607 1.82256 0
M  V30 2955 C 282.654 -4.88811 0.947019 0
M  V30 2956 C 281.357 -6.63254 2.78364 0
M  V30 2957 C 283.383 -5.60182 1.89606 0
M  V30 2958 C 282.745 -6.46197 2.80372 0
M  V30 2959 H 278.844 -0.769833 -0.137409 0
M  V30 2960 H 281.428 -1.9273 0.276256 0
M  V30 2961 H 279.599 -3.49288 -1.6986 0
M  V30 2962 H 281.331 -3.7186 -1.59694 0
M  V30 2963 H 278.086 -4.73367 0.148537 0
M  V30 2964 H 278.51 -6.41696 2.15767 0
M  V30 2965 H 283.152 -4.22004 0.259304 0
M  V30 2966 H 280.87 -7.29271 3.48122 0
M  V30 2967 H 284.456 -5.48617 1.93676 0
M  V30 2968 H 283.336 -7.00453 3.52612 0
M  V30 2969 N 280.839 0.0985539 -1.57292 0
M  V30 2970 C 282.069 0.815135 -1.8984 0
M  V30 2971 C 282.477 1.7297 -0.766679 0
M  V30 2972 O 281.82 1.81698 0.270483 0
M  V30 2973 C 281.882 1.6842 -3.17608 0
M  V30 2974 C 281.546 0.94182 -4.4719 0
M  V30 2975 C 282.543 0.273212 -5.19182 0
M  V30 2976 C 280.228 0.916927 -4.9386 0
M  V30 2977 C 282.222 -0.410361 -6.36078 0
M  V30 2978 C 279.909 0.229567 -6.10669 0
M  V30 2979 C 280.907 -0.432902 -6.81627 0
M  V30 2980 O 280.595 -1.10925 -7.9621 0
M  V30 2981 H 280.327 0.238501 -0.632529 0
M  V30 2982 H 282.881 0.0812659 -2.05239 0
M  V30 2983 H 281.111 2.46022 -2.98345 0
M  V30 2984 H 282.8 2.27704 -3.36015 0
M  V30 2985 H 283.566 0.283927 -4.84168 0
M  V30 2986 H 279.445 1.42201 -4.3852 0
M  V30 2987 H 282.989 -0.928013 -6.914 0
M  V30 2988 H 278.886 0.216686 -6.45136 0
M  V30 2989 H 279.654 -1.01579 -8.12172 0
M  V30 2990 N 282.317 1.53212 0.369288 0
M  V30 2991 C 283.267 1.75769 1.45222 0
M  V30 2992 C 284.251 0.612136 1.48801 0
M  V30 2993 O 285.443 0.870674 1.54105 0
M  V30 2994 C 282.572 1.94769 2.82701 0
M  V30 2995 C 281.658 3.15315 2.83615 0
M  V30 2996 N 282.049 4.37295 2.54178 0
M  V30 2997 C 280.347 3.15962 3.14776 0
M  V30 2998 C 281.048 5.19015 2.62675 0
M  V30 2999 N 280.024 4.55142 2.97232 0
M  V30 3000 H 283.826 2.67691 1.2132 0
M  V30 3001 H 281.34 1.51787 0.577438 0
M  V30 3002 H 283.337 2.09056 3.60696 0
M  V30 3003 H 281.997 1.04073 3.07569 0
M  V30 3004 H 283.008 4.65091 2.27839 0
M  V30 3005 H 279.685 2.35144 3.44983 0
M  V30 3006 H 281.075 6.26305 2.43294 0
M  V30 3007 N 283.795 -0.628877 1.44509 0
M  V30 3008 C 285.042 -1.38839 1.47411 0
M  V30 3009 C 285.37 -1.94202 0.10757 0
M  V30 3010 O 284.625 -1.74243 -0.890947 0
M  V30 3011 C 284.924 -2.56995 2.48371 0
M  V30 3012 C 284.59 -2.19908 3.93639 0
M  V30 3013 C 283.252 -2.09506 4.33198 0
M  V30 3014 C 285.604 -1.9064 4.85083 0
M  V30 3015 C 282.932 -1.68028 5.62124 0
M  V30 3016 C 285.284 -1.50655 6.14399 0
M  V30 3017 C 283.948 -1.38796 6.5291 0
M  V30 3018 H 283.218 -0.508048 0.539414 0
M  V30 3019 H 285.865 -0.712913 1.77735 0
M  V30 3020 H 284.17 -3.29786 2.11538 0
M  V30 3021 H 285.867 -3.15223 2.47861 0
M  V30 3022 H 282.457 -2.28922 3.62343 0
M  V30 3023 H 286.641 -1.97585 4.55273 0
M  V30 3024 H 281.897 -1.57452 5.90778 0
M  V30 3025 H 286.071 -1.27048 6.84713 0
M  V30 3026 H 283.698 -1.06429 7.52713 0
M  V30 3027 N 285.273 -1.31445 -0.869486 0
M  V30 3028 C 286.55 -1.11795 -1.60503 0
M  V30 3029 C 286.93 0.327168 -2.08549 0
M  V30 3030 O 286.278 1.32135 -1.8642 0
M  V30 3031 C 286.488 -2.13258 -2.76265 0
M  V30 3032 C 287.836 -2.45805 -3.46215 0
M  V30 3033 O 288.86 -2.11688 -2.86473 0
M  V30 3034 O 287.719 -3.04228 -4.5399 0
M  V30 3035 H 284.813 -0.430421 -0.706163 0
M  V30 3036 H 287.359 -1.42925 -0.914907 0
M  V30 3037 H 286.131 -3.10461 -2.3818 0
M  V30 3038 H 285.754 -1.83035 -3.52964 0
M  V30 3039 N 286.751 1.08385 -1.14413 0
M  V30 3040 C 287.999 1.80419 -0.910679 0
M  V30 3041 C 288.32 1.86658 0.564243 0
M  V30 3042 O 287.59 1.35985 1.41014 0
M  V30 3043 H 286.17 0.668204 -0.333934 0
M  V30 3044 H 288.832 1.31037 -1.44275 0
M  V30 3045 H 287.928 2.83238 -1.31082 0
M  V30 3046 N 288.23 0.939286 1.26551 0
M  V30 3047 C 289.458 0.602536 1.97932 0
M  V30 3048 C 289.873 -0.82206 1.69964 0
M  V30 3049 O 289.23 -1.54789 0.966784 0
M  V30 3050 C 289.281 0.832946 3.51773 0
M  V30 3051 O 289.002 2.20151 3.78768 0
M  V30 3052 C 290.503 0.506483 4.40397 0
M  V30 3053 H 287.723 0.227248 0.631347 0
M  V30 3054 H 290.267 1.25948 1.61113 0
M  V30 3055 H 288.422 0.222644 3.8676 0
M  V30 3056 H 288.836 2.26013 4.73306 0
M  V30 3057 H 290.31 0.718333 5.47306 0
M  V30 3058 H 290.787 -0.558451 4.35635 0
M  V30 3059 H 291.393 1.09543 4.10951 0
M  V30 3060 N 289.708 -1.40897 0.706093 0
M  V30 3061 C 290.985 -1.94868 0.169099 0
M  V30 3062 C 291.365 -1.64485 -1.32318 0
M  V30 3063 O 290.713 -0.95744 -2.07474 0
M  V30 3064 C 290.923 -3.45798 0.471654 0
M  V30 3065 C 292.271 -4.22663 0.405127 0
M  V30 3066 O 293.295 -3.53865 0.407168 0
M  V30 3067 O 292.154 -5.45216 0.374383 0
M  V30 3068 H 289.248 -0.82673 0.0211352 0
M  V30 3069 H 291.794 -1.50558 0.782976 0
M  V30 3070 H 290.566 -3.61235 1.50416 0
M  V30 3071 H 290.189 -3.97225 -0.172666 0
M  V30 3072 N 291.186 -0.45159 -1.50991 0
M  V30 3073 C 292.432 0.102439 -2.03142 0
M  V30 3074 C 292.787 1.39138 -1.32884 0
M  V30 3075 O 292.08 1.86493 -0.439438 0
M  V30 3076 C 292.274 0.361728 -3.55565 0
M  V30 3077 C 292.103 -0.900535 -4.40591 0
M  V30 3078 C 290.873 -1.43821 -4.844 0
M  V30 3079 C 293.071 -1.79063 -4.82121 0
M  V30 3080 N 291.053 -2.65153 -5.53685 0
M  V30 3081 C 292.424 -2.84991 -5.50618 0
M  V30 3082 C 294.479 -1.80334 -4.64095 0
M  V30 3083 C 293.182 -3.92155 -6.02998 0
M  V30 3084 C 295.208 -2.86442 -5.17402 0
M  V30 3085 C 294.57 -3.9109 -5.85857 0
M  V30 3086 H 290.669 -0.00204537 -0.781997 0
M  V30 3087 H 293.253 -0.615446 -1.84717 0
M  V30 3088 H 291.424 1.04865 -3.73976 0
M  V30 3089 H 293.156 0.908372 -3.94374 0
M  V30 3090 H 289.911 -0.990117 -4.63135 0
M  V30 3091 H 290.335 -3.26717 -5.92946 0
M  V30 3092 H 294.977 -1.00753 -4.1062 0
M  V30 3093 H 292.695 -4.72565 -6.55521 0
M  V30 3094 H 296.281 -2.88386 -5.05297 0
M  V30 3095 H 295.161 -4.71845 -6.26364 0
M  V30 3096 N 292.664 1.56529 -0.183458 0
M  V30 3097 C 293.941 1.88959 0.50536 0
M  V30 3098 C 294.321 1.09523 1.80466 0
M  V30 3099 O 293.669 0.19278 2.27685 0
M  V30 3100 C 293.879 3.41162 0.73547 0
M  V30 3101 C 295.227 4.11155 1.06005 0
M  V30 3102 O 296.251 3.46548 0.823594 0
M  V30 3103 O 295.11 5.25318 1.50675 0
M  V30 3104 H 292.204 0.78441 0.261973 0
M  V30 3105 H 294.75 1.68231 -0.222802 0
M  V30 3106 H 293.522 3.90874 -0.182561 0
M  V30 3107 H 293.145 3.67543 1.51651 0
M  V30 3108 N 294.142 -0.090211 1.57342 0
M  V30 3109 C 295.074 -1.13541 1.99101 0
M  V30 3110 C 296.087 -1.3604 0.894258 0
M  V30 3111 O 297.276 -1.34606 1.17233 0
M  V30 3112 C 294.376 -2.49001 2.29895 0
M  V30 3113 C 293.549 -2.46712 3.61182 0
M  V30 3114 C 292.608 -3.64136 3.79857 0
M  V30 3115 O 291.634 -3.46405 4.51655 0
M  V30 3116 N 292.836 -4.83802 3.20806 0
M  V30 3117 H 295.601 -0.779942 2.89373 0
M  V30 3118 H 293.162 -0.279125 1.59476 0
M  V30 3119 H 295.154 -3.26166 2.39578 0
M  V30 3120 H 293.724 -2.76619 1.45605 0
M  V30 3121 H 292.944 -1.55058 3.62423 0
M  V30 3122 H 294.232 -2.42265 4.4742 0
M  V30 3123 H 293.63 -5.01112 2.62494 0
M  V30 3124 H 292.187 -5.58543 3.35966 0
M  V30 3125 N 295.62 -1.53406 -0.361157 0
M  V30 3126 C 296.845 -1.74024 -1.12829 0
M  V30 3127 C 297.27 -0.470069 -1.82132 0
M  V30 3128 O 296.628 0.57619 -1.719 0
M  V30 3129 C 296.676 -2.90903 -2.13091 0
M  V30 3130 O 295.78 -2.59821 -3.20261 0
M  V30 3131 H 295.121 -0.577804 -0.327168 0
M  V30 3132 H 297.651 -2.00307 -0.41693 0
M  V30 3133 H 297.661 -3.17194 -2.56616 0
M  V30 3134 H 296.336 -3.83034 -1.62042 0
M  V30 3135 H 294.913 -2.44362 -2.81677 0
M  V30 3136 N 297.098 0.621204 -1.44841 0
M  V30 3137 C 298.514 0.94048 -1.28946 0
M  V30 3138 C 298.714 2.00154 -0.23249 0
M  V30 3139 O 297.77 2.49651 0.378237 0
M  V30 3140 C 299.083 1.39433 -2.66419 0
M  V30 3141 C 300.631 1.50927 -2.74208 0
M  V30 3142 C 301.106 1.99692 -4.12174 0
M  V30 3143 N 302.597 2.06947 -4.144 0
M  V30 3144 C 303.332 2.45871 -5.1801 0
M  V30 3145 N 302.828 2.83862 -6.31977 0
M  V30 3146 N 304.621 2.46092 -5.05366 0
M  V30 3147 H 296.772 -0.0803548 -2.12248 0
M  V30 3148 H 299.035 0.0266913 -0.947624 0
M  V30 3149 H 298.741 0.688925 -3.44887 0
M  V30 3150 H 298.615 2.36347 -2.93973 0
M  V30 3151 H 301.002 2.20561 -1.96053 0
M  V30 3152 H 301.083 0.523627 -2.50383 0
M  V30 3153 H 300.727 1.30649 -4.90809 0
M  V30 3154 H 300.657 2.99146 -4.33381 0
M  V30 3155 H 303.148 1.80232 -3.32152 0
M  V30 3156 H 303.461 3.12405 -7.0684 0
M  V30 3157 H 301.806 2.8159 -6.35399 0
M  V30 3158 H 304.997 2.1581 -4.15384 0
M  V30 3159 H 305.17 2.76102 -5.86235 0
M  V30 3160 N 298.576 1.31904 0.862503 0
M  V30 3161 C 299.508 1.16005 1.97675 0
M  V30 3162 C 300.521 0.0971234 1.6251 0
M  V30 3163 O 301.71 0.345337 1.75128 0
M  V30 3164 C 298.81 0.751791 3.30456 0
M  V30 3165 C 297.983 1.90133 3.93914 0
M  V30 3166 C 297.042 1.4779 5.05019 0
M  V30 3167 O 296.068 2.18872 5.25437 0
M  V30 3168 N 297.27 0.369491 5.79323 0
M  V30 3169 H 300.035 2.11982 2.11857 0
M  V30 3170 H 297.596 1.24337 1.03691 0
M  V30 3171 H 299.588 0.451084 4.02178 0
M  V30 3172 H 298.158 -0.116593 3.12382 0
M  V30 3173 H 297.378 2.36896 3.15078 0
M  V30 3174 H 298.666 2.67111 4.33047 0
M  V30 3175 H 298.064 -0.222299 5.65263 0
M  V30 3176 H 296.621 0.128354 6.51674 0
M  V30 3177 N 300.054 -1.07777 1.14986 0
M  V30 3178 C 300.984 -2.16865 0.865557 0
M  V30 3179 C 301.965 -1.69123 -0.182083 0
M  V30 3180 O 303.15 -1.94164 -0.0373815 0
M  V30 3181 C 300.28 -3.45539 0.349313 0
M  V30 3182 C 299.234 -4.06708 1.33313 0
M  V30 3183 C 298.56 -5.30411 0.675918 0
M  V30 3184 C 299.86 -4.47241 2.69764 0
M  V30 3185 H 301.554 -2.40905 1.77778 0
M  V30 3186 H 299.1 -1.15781 0.856203 0
M  V30 3187 H 301.053 -4.21174 0.137983 0
M  V30 3188 H 299.777 -3.21072 -0.598362 0
M  V30 3189 H 298.436 -3.33112 1.53075 0
M  V30 3190 H 298.084 -5.02232 -0.277767 0
M  V30 3191 H 297.784 -5.72293 1.33244 0
M  V30 3192 H 299.308 -6.08755 0.474262 0
M  V30 3193 H 300.722 -5.14025 2.53873 0
M  V30 3194 H 299.119 -5.00062 3.3175 0
M  V30 3195 H 300.189 -3.58818 3.26156 0
M  V30 3196 N 301.532 -0.945985 -1.26051 0
M  V30 3197 C 302.464 -0.416662 -2.25381 0
M  V30 3198 C 303.477 0.462712 -1.56086 0
M  V30 3199 O 304.666 0.272383 -1.7641 0
M  V30 3200 C 301.766 0.419812 -3.3629 0
M  V30 3201 C 300.939 -0.444531 -4.35135 0
M  V30 3202 C 299.998 0.332305 -5.2515 0
M  V30 3203 O 299.024 -0.266324 -5.68577 0
M  V30 3204 N 300.226 1.62763 -5.57215 0
M  V30 3205 H 302.991 -1.27059 -2.71433 0
M  V30 3206 H 300.552 -0.815392 -1.39868 0
M  V30 3207 H 302.544 0.947013 -3.93464 0
M  V30 3208 H 301.114 1.17456 -2.89694 0
M  V30 3209 H 300.334 -1.15291 -3.76964 0
M  V30 3210 H 301.622 -1.03478 -4.98166 0
M  V30 3211 H 301.02 2.13603 -5.23823 0
M  V30 3212 H 299.577 2.10097 -6.17011 0
M  V30 3213 N 303.011 1.40521 -0.713556 0
M  V30 3214 C 303.959 2.32549 -0.0485227 0
M  V30 3215 C 304.953 1.51931 0.74922 0
M  V30 3216 O 306.159 1.67745 0.652816 0
M  V30 3217 H 302.534 0.751994 0.00311138 0
M  V30 3218 H 304.505 2.86291 -0.841443 0
M  V30 3219 C 303.254 3.36879 0.860687 0
M  V30 3220 H 302.577 3.98978 0.256246 0
M  V30 3221 H 304.017 4.03772 1.294 0
M  V30 3222 C 302.476 2.72197 1.9852 0
M  V30 3223 O 303.006 2.5837 3.07584 0
M  V30 3224 N 301.212 2.30612 1.76823 0
M  V30 3225 H 300.759 2.42059 0.881217 0
M  V30 3226 H 300.717 1.87672 2.52243 0
M  V30 3227 N 304.489 0.459591 1.5075 0
M  V30 3228 C 305.436 -0.340524 2.28274 0
M  V30 3229 C 306.406 -0.997371 1.32822 0
M  V30 3230 O 307.591 -1.01202 1.61749 0
M  V30 3231 C 304.731 -1.42317 3.14388 0
M  V30 3232 C 303.844 -0.782251 4.24859 0
M  V30 3233 C 302.979 -1.84182 4.98247 0
M  V30 3234 C 302.018 -1.18053 6.00608 0
M  V30 3235 N 301.155 -2.18244 6.67319 0
M  V30 3236 H 305.995 0.326899 2.96202 0
M  V30 3237 H 303.532 0.173057 1.46078 0
M  V30 3238 H 305.49 -2.06241 3.62658 0
M  V30 3239 H 304.12 -2.05992 2.4853 0
M  V30 3240 H 303.172 -0.0307404 3.80388 0
M  V30 3241 H 304.484 -0.259663 4.98124 0
M  V30 3242 H 303.638 -2.55714 5.50177 0
M  V30 3243 H 302.377 -2.39819 4.24662 0
M  V30 3244 H 301.382 -0.450776 5.47949 0
M  V30 3245 H 302.607 -0.631202 6.7616 0
M  V30 3246 H 300.553 -2.72919 5.96533 0
M  V30 3247 H 300.47 -1.70938 7.36421 0
M  V30 3248 H 301.738 -2.89191 7.23871 0
M  V30 3249 N 305.967 -1.56429 0.191757 0
M  V30 3250 C 307.216 -1.9666 -0.448088 0
M  V30 3251 C 307.529 -1.08136 -1.62991 0
M  V30 3252 O 308.735 -1.38135 -2.33733 0
M  V30 3253 C 307.191 -3.49753 -0.848585 0
M  V30 3254 C 306.799 -4.46935 0.308764 0
M  V30 3255 C 308.543 -3.9876 -1.4557 0
M  V30 3256 C 306.45 -5.91293 -0.112506 0
M  V30 3257 H 305.38 -0.734312 -0.171179 0
M  V30 3258 H 308.031 -1.81301 0.283242 0
M  V30 3259 H 306.413 -3.60604 -1.63649 0
M  V30 3260 H 307.587 -4.47813 1.08627 0
M  V30 3261 H 305.902 -4.08102 0.827158 0
M  V30 3262 H 308.499 -5.04086 -1.78328 0
M  V30 3263 H 308.842 -3.42875 -2.36099 0
M  V30 3264 H 309.375 -3.9101 -0.731836 0
M  V30 3265 H 306.114 -6.51097 0.758514 0
M  V30 3266 H 305.634 -5.93676 -0.854941 0
M  V30 3267 H 307.313 -6.44663 -0.549448 0
M  V30 3268 N 307.445 0.0818655 -1.57387 0
M  V30 3269 C 308.675 0.794954 -1.90694 0
M  V30 3270 C 309.083 1.72147 -0.784982 0
M  V30 3271 O 308.426 1.81974 0.251196 0
M  V30 3272 C 308.488 1.65042 -3.19376 0
M  V30 3273 C 308.152 0.894337 -4.48164 0
M  V30 3274 C 309.149 0.21813 -5.19442 0
M  V30 3275 C 306.834 0.864495 -4.94805 0
M  V30 3276 C 308.828 -0.477802 -6.35607 0
M  V30 3277 C 306.515 0.164785 -6.10878 0
M  V30 3278 C 307.513 -0.505173 -6.81129 0
M  V30 3279 O 307.201 -1.19363 -7.94989 0
M  V30 3280 H 306.933 0.231779 -0.635023 0
M  V30 3281 H 309.487 0.059493 -2.05314 0
M  V30 3282 H 307.717 2.42844 -3.00938 0
M  V30 3283 H 309.406 2.24127 -3.38411 0
M  V30 3284 H 310.172 0.232558 -4.84442 0
M  V30 3285 H 306.051 1.37542 -4.40004 0
M  V30 3286 H 309.595 -1.00129 -6.90377 0
M  V30 3287 H 305.492 0.148249 -6.4533 0
M  V30 3288 H 306.26 -1.10188 -8.11049 0
M  V30 3289 N 308.923 1.53595 0.353017 0
M  V30 3290 C 309.87 1.80919 1.43308 0
M  V30 3291 C 310.84 0.654288 1.5267 0
M  V30 3292 O 312.025 0.897759 1.6836 0
M  V30 3293 C 309.165 2.01605 2.80089 0
M  V30 3294 C 308.278 3.29321 2.79593 0
M  V30 3295 C 307.413 3.40125 4.0803 0
M  V30 3296 C 306.452 4.61826 4.01725 0
M  V30 3297 N 305.589 4.69716 5.21834 0
M  V30 3298 H 310.429 2.73074 1.19308 0
M  V30 3299 H 307.966 1.35263 0.578131 0
M  V30 3300 H 309.924 2.11586 3.59565 0
M  V30 3301 H 308.554 1.12772 3.0246 0
M  V30 3302 H 307.606 3.28229 1.92276 0
M  V30 3303 H 308.918 4.18884 2.70809 0
M  V30 3304 H 308.072 3.49488 4.95927 0
M  V30 3305 H 306.811 2.48601 4.19582 0
M  V30 3306 H 305.816 4.52552 3.12213 0
M  V30 3307 H 307.041 5.54705 3.91764 0
M  V30 3308 H 304.987 3.81097 5.33948 0
M  V30 3309 H 304.904 5.53202 5.1527 0
M  V30 3310 H 306.172 4.83376 6.11529 0
M  V30 3311 N 310.401 -0.613514 1.45168 0
M  V30 3312 C 311.648 -1.37268 1.48875 0
M  V30 3313 C 311.976 -1.94077 0.128161 0
M  V30 3314 O 311.231 -1.75178 -0.872416 0
M  V30 3315 C 311.53 -2.54347 2.51083 0
M  V30 3316 C 311.196 -2.1572 3.95949 0
M  V30 3317 C 309.858 -2.04899 4.35396 0
M  V30 3318 C 312.21 -1.85485 4.87078 0
M  V30 3319 C 309.538 -1.62057 5.63875 0
M  V30 3320 C 311.89 -1.4413 6.15962 0
M  V30 3321 C 310.554 -1.31863 6.54346 0
M  V30 3322 H 309.824 -0.502299 0.544773 0
M  V30 3323 H 312.471 -0.694021 1.78481 0
M  V30 3324 H 310.776 -3.27524 2.15024 0
M  V30 3325 H 312.473 -3.12577 2.51191 0
M  V30 3326 H 309.063 -2.25066 3.64751 0
M  V30 3327 H 313.247 -1.92745 4.57343 0
M  V30 3328 H 308.503 -1.51177 5.92415 0
M  V30 3329 H 312.677 -1.19778 6.86022 0
M  V30 3330 H 310.304 -0.984392 7.538 0
M  V30 3331 N 311.879 -1.3236 -0.855495 0
M  V30 3332 C 313.295 -1.11332 -1.14356 0
M  V30 3333 C 313.495 0.106751 -2.01217 0
M  V30 3334 O 312.551 0.791891 -2.39761 0
M  V30 3335 C 313.864 -2.39237 -1.82171 0
M  V30 3336 C 315.412 -2.44986 -1.9481 0
M  V30 3337 C 315.887 -3.7281 -2.66039 0
M  V30 3338 N 317.378 -3.73787 -2.73565 0
M  V30 3339 C 318.113 -4.69394 -3.29327 0
M  V30 3340 N 317.609 -5.75367 -3.85907 0
M  V30 3341 N 319.402 -4.56893 -3.27423 0
M  V30 3342 H 311.553 -2.10586 -0.277027 0
M  V30 3343 H 313.816 -0.929701 -0.185364 0
M  V30 3344 H 313.522 -3.28431 -1.25802 0
M  V30 3345 H 313.396 -2.50134 -2.82335 0
M  V30 3346 H 315.783 -1.56252 -2.50338 0
M  V30 3347 H 315.864 -2.38043 -0.936448 0
M  V30 3348 H 315.508 -4.61918 -2.11174 0
M  V30 3349 H 315.438 -3.77024 -3.67642 0
M  V30 3350 H 317.929 -2.97189 -2.33424 0
M  V30 3351 H 318.242 -6.44378 -4.26611 0
M  V30 3352 H 316.587 -5.79123 -3.84242 0
M  V30 3353 H 319.778 -3.73269 -2.82467 0
M  V30 3354 H 319.951 -5.31577 -3.7058 0
M  V30 3355 N 313.357 1.07166 -1.15556 0
M  V30 3356 C 314.605 1.79443 -0.929764 0
M  V30 3357 C 314.926 1.87246 0.544414 0
M  V30 3358 O 314.196 1.37473 1.39564 0
M  V30 3359 H 312.776 0.664625 -0.341003 0
M  V30 3360 H 315.438 1.29499 -1.45657 0
M  V30 3361 H 314.534 2.81832 -1.34079 0
M  V30 3362 N 314.835 0.952656 1.25548 0
M  V30 3363 C 316.063 0.623496 1.97282 0
M  V30 3364 C 316.478 -0.803987 1.70826 0
M  V30 3365 O 315.835 -1.53755 0.983147 0
M  V30 3366 C 315.886 0.870209 3.5087 0
M  V30 3367 O 315.607 2.24156 3.76412 0
M  V30 3368 C 317.108 0.553164 4.39835 0
M  V30 3369 H 314.328 0.233931 0.628902 0
M  V30 3370 H 316.872 1.27649 1.59768 0
M  V30 3371 H 315.027 0.263652 3.86502 0
M  V30 3372 H 315.441 2.31021 4.70882 0
M  V30 3373 H 316.915 0.776342 5.46513 0
M  V30 3374 H 317.392 -0.512215 4.36203 0
M  V30 3375 H 317.998 1.13896 4.09766 0
M  V30 3376 N 316.313 -1.40141 0.720998 0
M  V30 3377 C 317.561 -2.0039 0.262323 0
M  V30 3378 C 317.882 -1.57469 -1.15015 0
M  V30 3379 O 317.152 -0.816582 -1.78069 0
M  V30 3380 H 315.732 -0.741063 0.093996 0
M  V30 3381 H 318.394 -1.71398 0.927835 0
M  V30 3382 H 317.49 -3.10658 0.299671 0
M  V30 3383 N 317.792 -0.46758 -1.50504 0
M  V30 3384 C 318.739 0.328413 -2.28452 0
M  V30 3385 C 319.709 0.990313 -1.33349 0
M  V30 3386 O 320.894 1.00343 -1.62284 0
M  V30 3387 C 318.034 1.40648 -3.15138 0
M  V30 3388 C 317.147 0.759709 -4.25267 0
M  V30 3389 C 316.282 1.81537 -4.99217 0
M  V30 3390 C 315.321 1.14866 -6.01226 0
M  V30 3391 N 314.458 2.14702 -6.68467 0
M  V30 3392 H 319.298 -0.342603 -2.96024 0
M  V30 3393 H 316.835 -0.180801 -1.45985 0
M  V30 3394 H 318.793 2.04315 -3.63746 0
M  V30 3395 H 317.423 2.04671 -2.49619 0
M  V30 3396 H 316.475 0.0105671 -3.80399 0
M  V30 3397 H 317.787 0.233243 -4.98254 0
M  V30 3398 H 316.941 2.52793 -5.51526 0
M  V30 3399 H 315.68 2.37564 -4.25928 0
M  V30 3400 H 314.685 0.42171 -5.4818 0
M  V30 3401 H 315.91 0.595334 -6.76485 0
M  V30 3402 H 313.856 2.69752 -5.97972 0
M  V30 3403 H 313.773 1.6703 -7.37317 0
M  V30 3404 H 315.041 2.85348 -7.25394 0
M  V30 3405 N 319.27 1.56325 -0.20005 0
M  V30 3406 C 320.233 2.18084 0.705132 0
M  V30 3407 C 321.233 1.13666 1.1374 0
M  V30 3408 O 322.423 1.39023 1.04968 0
M  V30 3409 C 319.555 2.78689 1.96329 0
M  V30 3410 H 320.748 2.99435 0.167023 0
M  V30 3411 H 318.301 1.56221 0.0495725 0
M  V30 3412 H 319.036 2.0115 2.5438 0
M  V30 3413 H 318.821 3.55133 1.66202 0
M  V30 3414 H 320.311 3.26096 2.60866 0
M  V30 3415 N 320.748 -0.0735177 1.57428 0
M  V30 3416 C 321.994 -0.768909 1.88307 0
M  V30 3417 C 322.349 -1.75273 0.793535 0
M  V30 3418 O 321.642 -1.90527 -0.202466 0
M  V30 3419 C 321.836 -1.51799 3.23561 0
M  V30 3420 C 321.665 -0.608217 4.45568 0
M  V30 3421 C 320.435 -0.245808 5.04702 0
M  V30 3422 C 322.633 0.0942904 5.14214 0
M  V30 3423 N 320.615 0.66987 6.10234 0
M  V30 3424 C 321.986 0.867222 6.13905 0
M  V30 3425 C 324.041 0.165943 4.97623 0
M  V30 3426 C 322.744 1.70515 6.98797 0
M  V30 3427 C 324.77 0.990837 5.83041 0
M  V30 3428 C 324.132 1.75182 6.82269 0
M  V30 3429 H 320.231 -0.25685 0.738615 0
M  V30 3430 H 322.815 -0.030499 1.94676 0
M  V30 3431 H 320.986 -2.22713 3.18203 0
M  V30 3432 H 322.718 -2.16226 3.42094 0
M  V30 3433 H 319.473 -0.598284 4.69806 0
M  V30 3434 H 319.897 1.1209 6.67656 0
M  V30 3435 H 324.539 -0.408064 4.20826 0
M  V30 3436 H 322.257 2.29013 7.7497 0
M  V30 3437 H 325.843 1.04923 5.72261 0
M  V30 3438 H 324.723 2.37983 7.47217 0
M  V30 3439 N 322.226 -1.5378 -0.344866 0
M  V30 3440 C 323.503 -1.61589 -1.10219 0
M  V30 3441 C 323.883 -0.436316 -2.06542 0
M  V30 3442 O 323.231 0.571543 -2.21237 0
M  V30 3443 C 323.441 -2.97602 -1.82301 0
M  V30 3444 C 324.789 -3.5291 -2.36093 0
M  V30 3445 O 325.813 -2.99768 -1.924 0
M  V30 3446 O 324.672 -4.45859 -3.16026 0
M  V30 3447 H 321.766 -0.653522 -0.506792 0
M  V30 3448 H 324.312 -1.66126 -0.346465 0
M  V30 3449 H 323.084 -3.74893 -1.12121 0
M  V30 3450 H 322.707 -2.9665 -2.64735 0
M  V30 3451 N 323.704 0.605807 -1.45491 0
M  V30 3452 C 324.95 1.36481 -1.50813 0
M  V30 3453 C 325.305 1.91826 -0.148469 0
M  V30 3454 O 324.598 1.72211 0.839869 0
M  V30 3455 C 324.792 2.53012 -2.52428 0
M  V30 3456 C 324.621 2.09078 -3.98141 0
M  V30 3457 C 323.391 1.95167 -4.66088 0
M  V30 3458 C 325.589 1.66438 -4.86624 0
M  V30 3459 N 323.571 1.45062 -5.96515 0
M  V30 3460 C 324.942 1.27761 -6.06694 0
M  V30 3461 C 326.997 1.54046 -4.7347 0
M  V30 3462 C 325.7 0.779286 -7.15066 0
M  V30 3463 C 327.726 1.05618 -5.81892 0
M  V30 3464 C 327.088 0.67906 -7.01119 0
M  V30 3465 H 323.187 0.493267 -0.606805 0
M  V30 3466 H 325.771 0.692347 -1.81974 0
M  V30 3467 H 323.942 3.17851 -2.23215 0
M  V30 3468 H 325.674 3.19897 -2.47887 0
M  V30 3469 H 322.429 2.16407 -4.21266 0
M  V30 3470 H 322.853 1.22237 -6.65873 0
M  V30 3471 H 327.495 1.81827 -3.81705 0
M  V30 3472 H 325.213 0.489026 -8.06619 0
M  V30 3473 H 328.799 0.964529 -5.73749 0
M  V30 3474 H 327.679 0.310091 -7.83587 0
M  V30 3475 N 325.182 1.32811 0.848464 0
M  V30 3476 C 326.092 1.24278 1.98978 0
M  V30 3477 C 327.108 0.155176 1.73307 0
M  V30 3478 O 328.284 0.376999 1.9784 0
M  V30 3479 C 325.349 0.972444 3.32783 0
M  V30 3480 C 324.41 2.14911 3.71634 0
M  V30 3481 C 323.643 1.89157 4.99054 0
M  V30 3482 O 323.866 0.837165 5.64223 0
M  V30 3483 O 322.8 2.75433 5.35183 0
M  V30 3484 H 326.626 2.20238 2.09115 0
M  V30 3485 H 324.211 1.12762 0.980052 0
M  V30 3486 H 326.093 0.838432 4.12975 0
M  V30 3487 H 324.768 0.043051 3.23671 0
M  V30 3488 H 323.675 2.33862 2.91992 0
M  V30 3489 H 325.008 3.06151 3.85399 0
M  V30 3490 N 326.66 -1.06551 1.16123 0
M  V30 3491 C 327.906 -1.79567 0.94252 0
M  V30 3492 C 328.239 -1.86869 -0.528547 0
M  V30 3493 O 327.514 -1.35838 -1.39206 0
M  V30 3494 C 327.797 -3.24195 1.56747 0
M  V30 3495 C 327.65 -3.24989 3.10969 0
M  V30 3496 C 328.969 -4.21678 1.25998 0
M  V30 3497 H 326.088 -0.651883 0.343828 0
M  V30 3498 H 328.73 -1.2463 1.43413 0
M  V30 3499 H 326.88 -3.71107 1.14942 0
M  V30 3500 H 328.552 -2.86258 3.61737 0
M  V30 3501 H 326.795 -2.63716 3.44436 0
M  V30 3502 H 327.466 -4.27005 3.49815 0
M  V30 3503 H 329.942 -3.83196 1.62174 0
M  V30 3504 H 328.818 -5.21146 1.7233 0
M  V30 3505 H 329.079 -4.4174 0.178367 0
M  V30 3506 N 328.138 -0.959301 -1.25041 0
M  V30 3507 C 329.415 -0.533805 -1.88175 0
M  V30 3508 C 329.795 0.988994 -1.865 0
M  V30 3509 O 329.143 1.85677 -1.33177 0
M  V30 3510 C 329.353 -1.11575 -3.30684 0
M  V30 3511 C 330.701 -1.19548 -4.07423 0
M  V30 3512 O 331.725 -1.06765 -3.39823 0
M  V30 3513 O 330.584 -1.39656 -5.28354 0
M  V30 3514 H 327.678 -0.176772 -0.807887 0
M  V30 3515 H 330.224 -1.05303 -1.33076 0
M  V30 3516 H 328.996 -2.15884 -3.26358 0
M  V30 3517 H 328.619 -0.580059 -3.93346 0
M  V30 3518 N 329.616 1.39756 -0.72842 0
M  V30 3519 C 330.865 1.99879 -0.270407 0
M  V30 3520 C 331.178 1.58449 1.14688 0
M  V30 3521 O 332.384 2.11362 1.70407 0
M  V30 3522 C 330.84 3.57292 -0.43252 0
M  V30 3523 C 330.448 4.07688 -1.85727 0
M  V30 3524 C 332.192 4.24485 -0.0359507 0
M  V30 3525 C 330.099 5.5765 -1.96928 0
M  V30 3526 H 329.029 0.747689 -0.0973472 0
M  V30 3527 H 331.68 1.59837 -0.901355 0
M  V30 3528 H 330.062 3.95097 0.267219 0
M  V30 3529 H 331.236 3.81231 -2.58843 0
M  V30 3530 H 329.551 3.53135 -2.20646 0
M  V30 3531 H 332.148 5.34609 -0.0987484 0
M  V30 3532 H 332.491 4.03915 1.00787 0
M  V30 3533 H 333.024 3.9183 -0.686604 0
M  V30 3534 H 329.763 5.8309 -2.99476 0
M  V30 3535 H 329.283 5.8593 -1.28241 0
M  V30 3536 H 330.962 6.22957 -1.74737 0
M  V30 3537 N 331.094 0.475555 1.50254 0
M  V30 3538 C 332.004 -0.321501 2.32387 0
M  V30 3539 C 333.02 -0.991755 1.42969 0
M  V30 3540 O 334.196 -0.978747 1.76018 0
M  V30 3541 C 331.261 -1.38667 3.17762 0
M  V30 3542 C 330.322 -0.732538 4.23004 0
M  V30 3543 C 329.555 -1.74695 5.04299 0
M  V30 3544 O 329.778 -2.97399 4.86734 0
M  V30 3545 O 328.712 -1.31631 5.8733 0
M  V30 3546 H 332.538 0.350071 3.01676 0
M  V30 3547 H 330.123 0.237321 1.47503 0
M  V30 3548 H 332.005 -2.00354 3.70724 0
M  V30 3549 H 330.68 -2.04163 2.51196 0
M  V30 3550 H 329.587 -0.0765902 3.74022 0
M  V30 3551 H 330.92 -0.120452 4.92053 0
M  V30 3552 N 332.573 -1.56217 0.208337 0
M  V30 3553 C 333.521 -2.21053 -0.723769 0
M  V30 3554 C 334.515 -1.18578 -1.20978 0
M  V30 3555 O 335.721 -1.36691 -1.17114 0
M  V30 3556 H 332.096 -0.708595 -0.251788 0
M  V30 3557 H 334.067 -2.98006 -0.153365 0
M  V30 3558 C 332.816 -2.89417 -1.927 0
M  V30 3559 H 332.139 -3.68019 -1.56212 0
M  V30 3560 H 333.579 -3.38201 -2.55727 0
M  V30 3561 C 332.038 -1.91166 -2.77411 0
M  V30 3562 O 332.568 -1.42026 -3.75754 0
M  V30 3563 N 330.774 -1.59105 -2.43175 0
M  V30 3564 H 330.321 -1.99259 -1.63259 0
M  V30 3565 H 330.279 -0.936255 -3.00136 0
M  V30 3566 N 334.051 0.0651679 -1.57465 0
M  V30 3567 C 335.299 0.761555 -1.87202 0
M  V30 3568 C 335.62 1.77778 -0.801243 0
M  V30 3569 O 334.89 1.95166 0.16937 0
M  V30 3570 H 333.47 0.284251 -0.690804 0
M  V30 3571 H 336.132 0.0396827 -1.9486 0
M  V30 3572 H 335.228 1.27365 -2.84929 0
M  V30 3573 N 335.529 1.53961 0.336706 0
M  V30 3574 C 336.477 1.83136 1.43401 0
M  V30 3575 C 337.471 0.702313 1.54156 0
M  V30 3576 O 338.677 0.885765 1.56698 0
M  V30 3577 H 335.052 0.580309 0.478273 0
M  V30 3578 H 337.023 2.74925 1.16012 0
M  V30 3579 C 335.772 2.06385 2.79822 0
M  V30 3580 H 335.095 2.92718 2.72316 0
M  V30 3581 H 336.535 2.30761 3.55704 0
M  V30 3582 C 334.994 0.851414 3.25964 0
M  V30 3583 O 335.524 0.0541904 4.01663 0
M  V30 3584 N 333.73 0.66672 2.82848 0
M  V30 3585 H 333.277 1.31665 2.21409 0
M  V30 3586 H 333.235 -0.143032 3.14074 0
M  V30 3587 N 337.007 -0.598083 1.45811 0
M  V30 3588 C 338.237 -1.38121 1.53643 0
M  V30 3589 C 338.645 -1.88425 0.171081 0
M  V30 3590 O 337.988 -1.63409 -0.839237 0
M  V30 3591 C 338.05 -2.61432 2.46766 0
M  V30 3592 C 337.714 -2.32702 3.93318 0
M  V30 3593 C 338.711 -1.92479 4.82957 0
M  V30 3594 C 336.396 -2.45321 4.38318 0
M  V30 3595 C 338.39 -1.65248 6.15607 0
M  V30 3596 C 336.077 -2.17703 5.71007 0
M  V30 3597 C 337.075 -1.7773 6.5947 0
M  V30 3598 O 336.763 -1.50441 7.89698 0
M  V30 3599 H 336.495 -0.428863 0.522544 0
M  V30 3600 H 339.049 -0.73557 1.91777 0
M  V30 3601 H 337.279 -3.28749 2.0362 0
M  V30 3602 H 338.968 -3.23487 2.45175 0
M  V30 3603 H 339.734 -1.82258 4.49452 0
M  V30 3604 H 335.613 -2.75399 3.69697 0
M  V30 3605 H 339.157 -1.33973 6.84614 0
M  V30 3606 H 335.054 -2.27544 6.04065 0
M  V30 3607 H 335.822 -1.64415 8.01817 0
M  V30 3608 N 338.485 -1.33259 -0.841409 0
M  V30 3609 C 339.762 -1.15174 -1.58096 0
M  V30 3610 C 340.142 0.282858 -2.09196 0
M  V30 3611 O 339.49 1.28151 -1.89181 0
M  V30 3612 C 339.7 -2.1907 -2.71679 0
M  V30 3613 C 341.048 -2.53093 -3.40924 0
M  V30 3614 O 342.072 -2.17717 -2.81918 0
M  V30 3615 O 340.931 -3.1379 -4.47435 0
M  V30 3616 H 338.025 -0.445303 -0.696875 0
M  V30 3617 H 340.571 -1.44833 -0.884385 0
M  V30 3618 H 339.343 -3.15443 -2.31541 0
M  V30 3619 H 338.966 -1.90481 -3.49002 0
M  V30 3620 N 339.963 1.05934 -1.16686 0
M  V30 3621 C 341.193 1.82226 -0.973515 0
M  V30 3622 C 341.601 1.8297 0.481532 0
M  V30 3623 O 340.944 1.25009 1.34604 0
M  V30 3624 C 341.006 3.29897 -1.42858 0
M  V30 3625 C 340.67 3.52849 -2.90425 0
M  V30 3626 C 341.667 3.45595 -3.88407 0
M  V30 3627 C 339.352 3.80053 -3.28428 0
M  V30 3628 C 341.346 3.65217 -5.22394 0
M  V30 3629 C 339.033 3.99325 -4.62583 0
M  V30 3630 C 340.031 3.91905 -5.59374 0
M  V30 3631 O 339.719 4.10647 -6.91104 0
M  V30 3632 H 339.451 0.581314 -0.345036 0
M  V30 3633 H 342.005 1.3453 -1.55212 0
M  V30 3634 H 340.235 3.78472 -0.793477 0
M  V30 3635 H 341.924 3.87692 -1.20207 0
M  V30 3636 H 342.69 3.24564 -3.60393 0
M  V30 3637 H 338.569 3.84936 -2.53664 0
M  V30 3638 H 342.113 3.59341 -5.9793 0
M  V30 3639 H 338.01 4.19846 -4.90306 0
M  V30 3640 H 338.778 4.27915 -6.97733 0
M  V30 3641 N 341.441 0.965919 1.2453 0
M  V30 3642 C 342.371 0.513476 2.27784 0
M  V30 3643 C 343.352 -0.445974 1.6415 0
M  V30 3644 O 344.537 -0.342485 1.91156 0
M  V30 3645 C 341.667 -0.198839 3.4673 0
M  V30 3646 C 340.621 0.676456 4.2262 0
M  V30 3647 C 339.947 -0.167248 5.34438 0
M  V30 3648 C 341.247 1.96017 4.84123 0
M  V30 3649 H 342.941 1.3765 2.65881 0
M  V30 3650 H 340.487 0.663321 1.27813 0
M  V30 3651 H 342.44 -0.526567 4.18097 0
M  V30 3652 H 341.164 -1.0962 3.07654 0
M  V30 3653 H 339.823 0.98743 3.53052 0
M  V30 3654 H 339.471 -1.0647 4.91603 0
M  V30 3655 H 339.171 0.415181 5.86131 0
M  V30 3656 H 340.695 -0.489688 6.08633 0
M  V30 3657 H 342.109 1.69814 5.47573 0
M  V30 3658 H 340.506 2.48918 5.4604 0
M  V30 3659 H 341.576 2.65622 4.05676 0
M  V30 3660 N 342.919 -1.39368 0.735821 0
M  V30 3661 C 343.852 -2.28155 0.0451175 0
M  V30 3662 C 344.83 -1.44433 -0.746852 0
M  V30 3663 O 346.014 -1.73823 -0.729237 0
M  V30 3664 C 343.141 -3.253 -0.943266 0
M  V30 3665 C 342.187 -4.25826 -0.239685 0
M  V30 3666 S 343.02 -5.25166 1.04693 0
M  V30 3667 C 344.176 -6.2587 0.0611639 0
M  V30 3668 H 344.409 -2.86388 0.79807 0
M  V30 3669 H 341.942 -1.45104 0.527653 0
M  V30 3670 H 343.9 -3.81789 -1.50824 0
M  V30 3671 H 342.561 -2.66085 -1.66906 0
M  V30 3672 H 341.754 -4.94229 -0.987596 0
M  V30 3673 H 341.356 -3.73141 0.253274 0
M  V30 3674 H 343.648 -6.73007 -0.778941 0
M  V30 3675 H 344.591 -7.04508 0.712362 0
M  V30 3676 H 344.999 -5.63639 -0.311602 0
M  V30 3677 N 344.397 -0.483516 -1.5 0
M  V30 3678 C 345.627 0.0643896 -2.065 0
M  V30 3679 C 346.035 1.32949 -1.34615 0
M  V30 3680 O 345.378 1.79003 -0.412756 0
M  V30 3681 C 345.44 0.405983 -3.572 0
M  V30 3682 C 345.104 -0.758875 -4.50655 0
M  V30 3683 C 346.101 -1.64445 -4.93208 0
M  V30 3684 C 343.786 -0.952725 -4.93182 0
M  V30 3685 C 345.78 -2.70818 -5.77006 0
M  V30 3686 C 343.467 -2.01966 -5.76761 0
M  V30 3687 C 344.465 -2.89574 -6.18576 0
M  V30 3688 O 344.153 -3.94429 -7.00486 0
M  V30 3689 H 343.885 -0.00934786 -0.675935 0
M  V30 3690 H 346.439 -0.674959 -1.93993 0
M  V30 3691 H 344.669 1.19869 -3.67652 0
M  V30 3692 H 346.358 0.890433 -3.96013 0
M  V30 3693 H 347.124 -1.50643 -4.61012 0
M  V30 3694 H 343.003 -0.280247 -4.60147 0
M  V30 3695 H 346.547 -3.3923 -6.09565 0
M  V30 3696 H 342.444 -2.1577 -6.0837 0
M  V30 3697 H 343.212 -3.91568 -7.1876 0
M  V30 3698 N 345.875 1.56104 -0.216619 0
M  V30 3699 C 346.838 2.18819 0.681962 0
M  V30 3700 C 347.838 1.14866 1.12528 0
M  V30 3701 O 349.028 1.40128 1.03488 0
M  V30 3702 C 346.16 2.80756 1.93362 0
M  V30 3703 H 347.353 2.99595 0.135254 0
M  V30 3704 H 344.906 1.56265 0.0330003 0
M  V30 3705 H 345.641 2.03837 2.52232 0
M  V30 3706 H 345.426 3.56876 1.62426 0
M  V30 3707 H 346.916 3.28844 2.57393 0
M  V30 3708 N 347.353 -0.0568162 1.57498 0
M  V30 3709 C 348.63 -0.786954 1.79071 0
M  V30 3710 C 349.01 -1.95028 0.80792 0
M  V30 3711 O 348.358 -2.27968 -0.155858 0
M  V30 3712 C 348.568 -1.24594 3.26002 0
M  V30 3713 C 349.916 -1.67323 3.90241 0
M  V30 3714 O 350.94 -1.34124 3.29984 0
M  V30 3715 O 349.799 -2.28842 4.9628 0
M  V30 3716 H 346.893 -0.378262 0.735423 0
M  V30 3717 H 349.439 -0.035734 1.69662 0
M  V30 3718 H 348.211 -0.41423 3.89101 0
M  V30 3719 H 347.834 -2.05803 3.40192 0
M  V30 3720 N 348.832 -1.54138 -0.328536 0
M  V30 3721 C 350.081 -1.71318 -1.06456 0
M  V30 3722 C 350.394 -0.491109 -1.89334 0
M  V30 3723 O 351.6 -0.54416 -2.65991 0
M  V30 3724 C 350.056 -3.03 -1.94214 0
M  V30 3725 C 349.664 -4.32595 -1.16471 0
M  V30 3726 C 351.408 -3.29544 -2.67583 0
M  V30 3727 C 349.315 -5.55341 -2.03347 0
M  V30 3728 H 348.245 -0.638429 -0.401155 0
M  V30 3729 H 350.896 -1.80633 -0.323106 0
M  V30 3730 H 349.278 -2.87579 -2.72239 0
M  V30 3731 H 350.452 -4.58766 -0.432525 0
M  V30 3732 H 348.767 -4.12777 -0.548063 0
M  V30 3733 H 351.364 -4.18444 -3.3288 0
M  V30 3734 H 351.707 -2.47206 -3.34955 0
M  V30 3735 H 352.24 -3.45809 -1.96623 0
M  V30 3736 H 348.979 -6.40268 -1.40491 0
M  V30 3737 H 348.499 -5.33397 -2.74313 0
M  V30 3738 H 350.178 -5.91557 -2.62049 0
M  V30 3739 N 350.31 0.590341 -1.46126 0
M  V30 3740 C 351.587 1.35029 -1.41515 0
M  V30 3741 C 351.967 2.10888 -0.0946472 0
M  V30 3742 O 351.315 2.08998 0.923693 0
M  V30 3743 C 351.525 2.28269 -2.63997 0
M  V30 3744 C 352.873 2.90338 -3.09821 0
M  V30 3745 O 353.897 2.38585 -2.64492 0
M  V30 3746 O 352.756 3.84321 -3.88535 0
M  V30 3747 H 349.85 0.606317 -0.562413 0
M  V30 3748 H 352.396 0.611994 -1.58281 0
M  V30 3749 H 351.168 1.71591 -3.51671 0
M  V30 3750 H 350.791 3.0945 -2.49652 0
M  V30 3751 N 351.788 1.33704 0.83433 0
M  V30 3752 C 352.721 1.18675 1.94914 0
M  V30 3753 C 353.699 0.0811145 1.62398 0
M  V30 3754 O 354.883 0.244186 1.86912 0
M  V30 3755 C 352.01 0.821231 3.28593 0
M  V30 3756 C 351.056 1.93501 3.80079 0
M  V30 3757 S 351.889 3.54671 4.01209 0
M  V30 3758 C 353.045 3.20136 5.37833 0
M  V30 3759 H 353.278 2.13043 2.07364 0
M  V30 3760 H 350.811 1.18598 0.988624 0
M  V30 3761 H 352.769 0.617123 4.05835 0
M  V30 3762 H 351.43 -0.103927 3.13928 0
M  V30 3763 H 350.623 1.63273 4.76821 0
M  V30 3764 H 350.225 2.09601 3.09747 0
M  V30 3765 H 352.517 2.71242 6.20833 0
M  V30 3766 H 353.46 4.15975 5.73036 0
M  V30 3767 H 353.868 2.56613 5.02802 0
M  V30 3768 N 353.266 -1.05314 1.17247 0
M  V30 3769 C 354.543 -1.75184 0.87005 0
M  V30 3770 C 354.923 -2.01481 -0.629965 0
M  V30 3771 O 354.271 -1.64988 -1.58086 0
M  V30 3772 C 354.481 -3.04594 1.70363 0
M  V30 3773 C 355.829 -3.78567 1.92281 0
M  V30 3774 O 356.853 -3.14461 1.67311 0
M  V30 3775 O 355.712 -4.93755 2.3424 0
M  V30 3776 H 352.806 -0.761729 0.322021 0
M  V30 3777 H 355.352 -1.11493 1.27935 0
M  V30 3778 H 354.124 -2.81201 2.72106 0
M  V30 3779 H 353.747 -3.76022 1.29202 0
M  V30 3780 N 354.744 -0.972509 -1.24016 0
M  V30 3781 C 355.694 -0.477561 -2.22942 0
M  V30 3782 C 356.678 0.44308 -1.54679 0
M  V30 3783 O 357.87 0.273219 -1.74879 0
M  V30 3784 C 354.999 0.226348 -3.42553 0
M  V30 3785 C 354.085 -0.713403 -4.18057 0
M  V30 3786 N 354.476 -1.8527 -4.70647 0
M  V30 3787 C 352.774 -0.525145 -4.42898 0
M  V30 3788 C 353.475 -2.44089 -5.28011 0
M  V30 3789 N 352.451 -1.72556 -5.15486 0
M  V30 3790 H 356.253 -1.34678 -2.61226 0
M  V30 3791 H 353.767 -0.832196 -1.39457 0
M  V30 3792 H 355.764 0.598184 -4.12586 0
M  V30 3793 H 354.424 1.09195 -3.05788 0
M  V30 3794 H 355.435 -2.2341 -4.67235 0
M  V30 3795 H 352.112 0.296096 -4.16449 0
M  V30 3796 H 353.502 -3.40259 -5.79374 0
M  V30 3797 N 356.222 1.38976 -0.743202 0
M  V30 3798 C 357.633 1.83123 -0.363732 0
M  V30 3799 C 357.984 1.6205 1.10609 0
M  V30 3800 O 357.109 1.11606 1.854 0
M  V30 3801 C 357.704 3.32439 -0.653408 0
M  V30 3802 C 356.263 3.74974 -0.327338 0
M  V30 3803 C 355.41 2.61878 -0.911875 0
M  V30 3804 H 358.361 1.27852 -0.940191 0
M  V30 3805 H 358.382 3.80432 0.0720031 0
M  V30 3806 H 357.894 3.47745 -1.72323 0
M  V30 3807 H 355.995 3.65252 0.736314 0
M  V30 3808 H 356.108 4.72106 -0.815631 0
M  V30 3809 H 354.472 2.52448 -0.337944 0
M  V30 3810 H 355.255 2.79987 -1.98651 0
M  V30 3811 N 357.7 0.491464 1.49741 0
M  V30 3812 C 358.61 -0.296835 2.32715 0
M  V30 3813 C 359.626 -0.976536 1.44013 0
M  V30 3814 O 360.802 -0.960023 1.77047 0
M  V30 3815 C 357.867 -1.35288 3.19215 0
M  V30 3816 C 356.928 -0.687632 4.23757 0
M  V30 3817 C 356.161 -1.69336 5.06123 0
M  V30 3818 O 356.384 -2.92219 4.89861 0
M  V30 3819 O 355.318 -1.25394 5.88693 0
M  V30 3820 H 359.144 0.382048 3.01287 0
M  V30 3821 H 356.729 0.252953 1.47243 0
M  V30 3822 H 358.611 -1.96411 3.72828 0
M  V30 3823 H 357.286 -2.01487 2.53347 0
M  V30 3824 H 356.193 -0.0369159 3.74082 0
M  V30 3825 H 357.526 -0.0682566 4.92153 0
M  V30 3826 N 359.178 -1.55987 0.224894 0
M  V30 3827 C 360.424 -1.98684 -0.406502 0
M  V30 3828 C 360.757 -1.11248 -1.59177 0
M  V30 3829 O 360.032 -0.170909 -1.93748 0
M  V30 3830 C 360.315 -3.50218 -0.837808 0
M  V30 3831 C 360.168 -4.48426 0.351332 0
M  V30 3832 C 361.487 -4.06243 -1.69278 0
M  V30 3833 H 358.606 -0.722337 -0.146283 0
M  V30 3834 H 361.248 -1.87255 0.321799 0
M  V30 3835 H 359.398 -3.60089 -1.45837 0
M  V30 3836 H 361.07 -4.50562 0.989526 0
M  V30 3837 H 359.313 -4.22159 0.998207 0
M  V30 3838 H 359.984 -5.52 0.00655905 0
M  V30 3839 H 362.46 -3.99337 -1.16914 0
M  V30 3840 H 361.336 -5.12581 -1.96346 0
M  V30 3841 H 361.597 -3.53332 -2.65723 0
M  V30 3842 N 360.656 0.0484629 -1.57525 0
M  V30 3843 C 361.905 0.742065 -1.87553 0
M  V30 3844 C 362.218 1.77545 -0.820802 0
M  V30 3845 O 363.424 2.52027 -1.00967 0
M  V30 3846 C 361.88 1.37081 -3.32771 0
M  V30 3847 C 361.488 0.374786 -4.4643 0
M  V30 3848 C 363.232 2.04542 -3.71972 0
M  V30 3849 C 361.139 1.01077 -5.82698 0
M  V30 3850 H 360.069 0.280903 -0.699721 0
M  V30 3851 H 362.72 -0.00411877 -1.835 0
M  V30 3852 H 361.102 2.16605 -3.31509 0
M  V30 3853 H 362.276 -0.392331 -4.59127 0
M  V30 3854 H 360.591 -0.196653 -4.15935 0
M  V30 3855 H 363.188 2.52943 -4.71088 0
M  V30 3856 H 363.531 2.85515 -3.02964 0
M  V30 3857 H 364.064 1.31819 -3.75325 0
M  V30 3858 H 360.803 0.240878 -6.55057 0
M  V30 3859 H 360.323 1.74819 -5.73758 0
M  V30 3860 H 362.002 1.52383 -6.28799 0
M  V30 3861 N 362.134 1.5431 0.320358 0
M  V30 3862 C 363.082 1.84647 1.4145 0
M  V30 3863 C 364.076 0.718624 1.53402 0
M  V30 3864 O 365.282 0.902335 1.5575 0
M  V30 3865 H 361.657 0.585349 0.472091 0
M  V30 3866 H 363.628 2.7614 1.13089 0
M  V30 3867 C 362.377 2.09341 2.77617 0
M  V30 3868 H 361.7 2.9559 2.69196 0
M  V30 3869 H 363.14 2.3452 3.53237 0
M  V30 3870 C 361.599 0.885939 3.25043 0
M  V30 3871 O 362.129 0.0967891 4.01583 0
M  V30 3872 N 360.335 0.696682 2.82125 0
M  V30 3873 H 359.882 1.34006 2.2 0
M  V30 3874 H 359.84 -0.109712 3.14209 0
M  V30 3875 N 363.613 -0.582584 1.46437 0
M  V30 3876 C 364.523 -1.71949 1.59595 0
M  V30 3877 C 365.539 -1.67264 0.479443 0
M  V30 3878 O 366.715 -1.87171 0.743579 0
M  V30 3879 C 363.78 -3.08452 1.58298 0
M  V30 3880 C 362.841 -3.244 2.81182 0
M  V30 3881 C 362.074 -4.54391 2.79937 0
M  V30 3882 O 362.297 -5.38287 1.8869 0
M  V30 3883 O 361.231 -4.73588 3.71481 0
M  V30 3884 H 365.057 -1.63795 2.55744 0
M  V30 3885 H 362.642 -0.749643 1.29231 0
M  V30 3886 H 364.524 -3.89732 1.60271 0
M  V30 3887 H 363.199 -3.17043 0.653094 0
M  V30 3888 H 362.106 -2.42613 2.84763 0
M  V30 3889 H 363.439 -3.20699 3.7338 0
M  V30 3890 N 365.091 -1.34144 -0.827227 0
M  V30 3891 C 366.021 -1.28005 -1.95287 0
M  V30 3892 C 367.002 -0.158321 -1.69362 0
M  V30 3893 O 368.187 -0.349987 -1.9102 0
M  V30 3894 C 365.317 -1.03036 -3.31664 0
M  V30 3895 C 364.271 -2.11628 -3.72019 0
M  V30 3896 C 363.597 -1.71854 -5.0633 0
M  V30 3897 C 364.897 -3.53417 -3.8457 0
M  V30 3898 H 366.591 -2.22187 -2.00682 0
M  V30 3899 H 364.137 -1.0696 -0.964135 0
M  V30 3900 H 366.09 -0.973863 -4.09993 0
M  V30 3901 H 364.814 -0.0529391 -3.26557 0
M  V30 3902 H 363.473 -2.16339 -2.95961 0
M  V30 3903 H 363.121 -0.727841 -4.97706 0
M  V30 3904 H 362.821 -2.44531 -5.34302 0
M  V30 3905 H 364.345 -1.67692 -5.87122 0
M  V30 3906 H 365.759 -3.51142 -4.5318 0
M  V30 3907 H 364.156 -4.24679 -4.2399 0
M  V30 3908 H 365.226 -3.91072 -2.86689 0
M  V30 3909 N 366.569 1.04691 -1.17803 0
M  V30 3910 C 367.985 1.29963 -0.926379 0
M  V30 3911 C 368.185 1.97251 0.411635 0
M  V30 3912 O 367.241 2.24922 1.14744 0
M  V30 3913 C 368.554 2.16447 -2.08737 0
M  V30 3914 C 370.102 2.29814 -2.12496 0
M  V30 3915 C 370.577 3.19661 -3.27995 0
M  V30 3916 N 372.068 3.27247 -3.27816 0
M  V30 3917 C 372.803 3.96906 -4.13827 0
M  V30 3918 N 372.299 4.6895 -5.09959 0
M  V30 3919 N 374.092 3.93122 -4.01761 0
M  V30 3920 H 366.243 0.594182 -2.0392 0
M  V30 3921 H 368.506 0.324649 -0.890678 0
M  V30 3922 H 368.212 1.74304 -3.05469 0
M  V30 3923 H 368.086 3.17103 -2.04268 0
M  V30 3924 H 370.473 2.71196 -1.16347 0
M  V30 3925 H 370.554 1.2877 -2.21025 0
M  V30 3926 H 370.198 2.78991 -4.24413 0
M  V30 3927 H 370.128 4.20722 -3.16703 0
M  V30 3928 H 372.619 2.75921 -2.58217 0
M  V30 3929 H 372.932 5.19679 -5.71974 0
M  V30 3930 H 371.277 4.67875 -5.13924 0
M  V30 3931 H 374.468 3.35967 -3.2595 0
M  V30 3932 H 374.641 4.47139 -4.6901 0
M  V30 3933 N 368.047 0.979072 1.23499 0
M  V30 3934 C 368.995 0.510604 2.26926 0
M  V30 3935 C 369.989 -0.431691 1.63807 0
M  V30 3936 O 371.195 -0.30573 1.77385 0
M  V30 3937 H 367.57 0.146688 0.737554 0
M  V30 3938 H 369.541 1.39466 2.63803 0
M  V30 3939 C 368.29 -0.172658 3.47271 0
M  V30 3940 H 367.613 0.543331 3.96091 0
M  V30 3941 H 369.053 -0.464101 4.21452 0
M  V30 3942 C 367.512 -1.40345 3.06276 0
M  V30 3943 O 368.042 -2.49978 3.14442 0
M  V30 3944 N 366.248 -1.27362 2.61203 0
M  V30 3945 H 365.795 -0.381584 2.54758 0
M  V30 3946 H 365.753 -2.09822 2.34141 0
M  V30 3947 N 369.525 -1.3858 0.750561 0
M  V30 3948 C 370.771 -2.0095 0.31477 0
M  V30 3949 C 371.126 -1.58509 -1.09053 0
M  V30 3950 O 370.419 -0.8112 -1.7358 0
M  V30 3951 C 370.613 -3.55455 0.372373 0
M  V30 3952 C 370.442 -4.12898 1.78173 0
M  V30 3953 C 369.212 -4.44797 2.39757 0
M  V30 3954 C 371.41 -4.35366 2.7379 0
M  V30 3955 N 369.392 -4.87831 3.72685 0
M  V30 3956 C 370.763 -4.80775 3.91478 0
M  V30 3957 C 372.818 -4.1746 2.71351 0
M  V30 3958 C 371.521 -5.10155 5.07084 0
M  V30 3959 C 373.547 -4.47963 3.86113 0
M  V30 3960 C 372.909 -4.93593 5.02539 0
M  V30 3961 H 369.008 -0.765083 0.161776 0
M  V30 3962 H 371.592 -1.68246 0.979867 0
M  V30 3963 H 369.763 -3.87512 -0.26244 0
M  V30 3964 H 371.495 -4.04614 -0.0834479 0
M  V30 3965 H 368.25 -4.33135 1.91548 0
M  V30 3966 H 368.674 -5.13685 4.40972 0
M  V30 3967 H 373.316 -3.81372 1.82524 0
M  V30 3968 H 371.034 -5.45141 5.96529 0
M  V30 3969 H 374.62 -4.35717 3.85542 0
M  V30 3970 H 373.5 -5.16746 5.89867 0
M  V30 3971 N 371.003 -0.499398 -1.49478 0
M  V30 3972 C 372.251 0.0455996 -2.02049 0
M  V30 3973 C 372.572 1.37633 -1.38138 0
M  V30 3974 O 371.842 1.8842 -0.536166 0
M  V30 3975 H 370.422 0.0198416 -0.746736 0
M  V30 3976 H 373.084 -0.656274 -1.83519 0
M  V30 3977 H 372.18 0.176445 -3.11601 0
M  V30 3978 N 372.481 1.55866 -0.233164 0
M  V30 3979 C 373.727 1.98897 0.395959 0
M  V30 3980 C 374.06 1.12091 1.58585 0
M  V30 3981 O 373.335 0.181182 1.93654 0
M  V30 3982 C 373.618 3.50658 0.819224 0
M  V30 3983 C 373.471 4.48233 -0.375109 0
M  V30 3984 C 374.79 4.07135 1.67121 0
M  V30 3985 H 371.909 0.723102 0.142451 0
M  V30 3986 H 374.551 1.87082 -0.331725 0
M  V30 3987 H 372.701 3.60857 1.43925 0
M  V30 3988 H 374.373 4.50031 -1.01341 0
M  V30 3989 H 372.616 4.21624 -1.02058 0
M  V30 3990 H 373.287 5.51988 -0.0358328 0
M  V30 3991 H 375.763 3.99952 1.14795 0
M  V30 3992 H 374.639 5.13615 1.93625 0
M  V30 3993 H 374.9 3.54736 2.63846 0
M  V30 3994 N 373.959 -0.0401083 1.57549 0
M  V30 3995 C 375.205 -0.728793 1.89895 0
M  V30 3996 C 375.56 -1.73551 0.830535 0
M  V30 3997 O 374.853 -1.90914 -0.162007 0
M  V30 3998 C 375.047 -1.44902 3.26708 0
M  V30 3999 C 374.876 -0.513568 4.46758 0
M  V30 4000 C 373.646 -0.138698 5.0511 0
M  V30 4001 C 375.844 0.203341 5.13898 0
M  V30 4002 N 373.826 0.799159 6.08676 0
M  V30 4003 C 375.197 0.997246 6.11927 0
M  V30 4004 C 377.252 0.271459 4.97159 0
M  V30 4005 C 375.955 1.85299 6.95023 0
M  V30 4006 C 377.981 1.11429 5.80808 0
M  V30 4007 C 377.343 1.89615 6.78399 0
M  V30 4008 H 373.442 -0.241125 0.743897 0
M  V30 4009 H 376.026 0.0108016 1.94697 0
M  V30 4010 H 374.197 -2.15914 3.22856 0
M  V30 4011 H 375.929 -2.08921 3.46603 0
M  V30 4012 H 372.684 -0.498496 4.70969 0
M  V30 4013 H 373.108 1.26227 6.65128 0
M  V30 4014 H 377.75 -0.318709 4.21597 0
M  V30 4015 H 375.468 2.454 7.69938 0
M  V30 4016 H 379.054 1.17038 5.69906 0
M  V30 4017 H 377.934 2.53779 7.42001 0
M  V30 4018 N 375.437 -1.54477 -0.31217 0
M  V30 4019 C 376.667 -1.76948 -1.06645 0
M  V30 4020 C 377.075 -0.523593 -1.81811 0
M  V30 4021 O 376.418 0.51578 -1.76311 0
M  V30 4022 C 376.48 -2.91668 -2.10166 0
M  V30 4023 C 376.144 -4.30165 -1.54296 0
M  V30 4024 C 377.141 -5.10603 -0.978793 0
M  V30 4025 C 374.826 -4.76738 -1.58196 0
M  V30 4026 C 376.82 -6.3573 -0.461048 0
M  V30 4027 C 374.507 -6.01831 -1.06034 0
M  V30 4028 C 375.505 -6.81161 -0.500844 0
M  V30 4029 O 375.193 -8.03899 0.0128958 0
M  V30 4030 H 374.925 -0.594088 -0.322546 0
M  V30 4031 H 377.479 -2.02213 -0.360441 0
M  V30 4032 H 375.709 -2.62001 -2.84416 0
M  V30 4033 H 377.398 -3.01817 -2.71406 0
M  V30 4034 H 378.164 -4.75771 -0.941651 0
M  V30 4035 H 374.043 -4.15027 -2.00683 0
M  V30 4036 H 377.587 -6.97596 -0.0236894 0
M  V30 4037 H 373.484 -6.36152 -1.09459 0
M  V30 4038 H 374.252 -8.18437 -0.101457 0
M  V30 4039 N 376.915 0.57481 -1.46744 0
M  V30 4040 C 378.143 1.35856 -1.56047 0
M  V30 4041 C 378.558 1.87691 -0.204365 0
M  V30 4042 O 377.915 1.64049 0.79963 0
M  V30 4043 C 377.966 2.54066 -2.57163 0
M  V30 4044 O 377.687 2.04377 -3.87507 0
M  V30 4045 C 379.188 3.46514 -2.76483 0
M  V30 4046 H 376.408 0.414754 -0.527466 0
M  V30 4047 H 378.952 0.698035 -1.92218 0
M  V30 4048 H 377.107 3.16092 -2.23974 0
M  V30 4049 H 377.521 2.81419 -4.4261 0
M  V30 4050 H 378.995 4.25919 -3.51137 0
M  V30 4051 H 379.472 3.98951 -1.83671 0
M  V30 4052 H 380.078 2.90318 -3.10799 0
M  V30 4053 N 378.394 1.34581 0.820102 0
M  V30 4054 C 379.342 1.26401 1.95258 0
M  V30 4055 C 380.336 0.161553 1.68628 0
M  V30 4056 O 381.542 0.326703 1.7701 0
M  V30 4057 H 377.917 0.392749 0.64129 0
M  V30 4058 H 379.888 2.22105 1.99279 0
M  V30 4059 C 378.637 1.03919 3.31807 0
M  V30 4060 H 377.96 1.87984 3.52848 0
M  V30 4061 H 379.4 1.02232 4.11491 0
M  V30 4062 C 377.859 -0.257433 3.35915 0
M  V30 4063 O 378.389 -1.25784 3.81499 0
M  V30 4064 N 376.595 -0.291524 2.89134 0
M  V30 4065 H 376.142 0.523161 2.52232 0
M  V30 4066 H 376.1 -1.15883 2.92264 0
M  V30 4067 N 379.872 -1.04064 1.18357 0
M  V30 4068 C 381.1 -1.80916 1.00384 0
M  V30 4069 C 381.515 -1.83414 -0.447738 0
M  V30 4070 O 380.872 -1.26962 -1.31099 0
M  V30 4071 C 380.923 -3.26516 1.55144 0
M  V30 4072 O 380.644 -3.2424 2.94618 0
M  V30 4073 C 382.145 -4.20013 1.41789 0
M  V30 4074 H 379.365 -0.569728 0.354474 0
M  V30 4075 H 381.909 -1.31151 1.56906 0
M  V30 4076 H 380.064 -3.73512 1.02798 0
M  V30 4077 H 380.478 -4.15452 3.20156 0
M  V30 4078 H 381.952 -5.20111 1.84901 0
M  V30 4079 H 382.429 -4.37667 0.36661 0
M  V30 4080 H 383.035 -3.78881 1.93207 0
M  V30 4081 N 381.35 -0.985608 -1.22978 0
M  V30 4082 C 382.28 -0.549649 -2.26939 0
M  V30 4083 C 383.261 0.419803 -1.64838 0
M  V30 4084 O 384.446 0.31203 -1.91677 0
M  V30 4085 C 381.576 0.143652 -3.47003 0
M  V30 4086 C 380.53 -0.743606 -4.21491 0
M  V30 4087 C 379.856 0.0822027 -5.34637 0
M  V30 4088 C 381.156 -2.03694 -4.80943 0
M  V30 4089 H 382.85 -1.41862 -2.63658 0
M  V30 4090 H 380.396 -0.683571 -1.26741 0
M  V30 4091 H 382.349 0.459985 -4.18882 0
M  V30 4092 H 381.073 1.04711 -3.09359 0
M  V30 4093 H 379.732 -1.04347 -3.51436 0
M  V30 4094 H 379.38 0.986359 -4.93234 0
M  V30 4095 H 379.08 -0.508377 -5.85397 0
M  V30 4096 H 380.604 0.392797 -6.09335 0
M  V30 4097 H 382.018 -1.78504 -5.44802 0
M  V30 4098 H 380.415 -2.57573 -5.42011 0
M  V30 4099 H 381.485 -2.72042 -4.01399 0
M  V30 4100 N 382.828 1.3818 -0.7579 0
M  V30 4101 C 383.776 2.32277 -0.122482 0
M  V30 4102 C 384.77 1.54238 0.700505 0
M  V30 4103 O 385.976 1.69737 0.599119 0
M  V30 4104 H 382.351 0.751712 -0.0208143 0
M  V30 4105 H 384.322 2.83469 -0.932099 0
M  V30 4106 C 383.071 3.39447 0.753076 0
M  V30 4107 H 382.394 3.99591 0.129184 0
M  V30 4108 H 383.834 4.07684 1.16489 0
M  V30 4109 C 382.293 2.78375 1.8976 0
M  V30 4110 O 382.823 2.68025 2.99208 0
M  V30 4111 N 381.029 2.36121 1.69397 0
M  V30 4112 H 380.576 2.4474 0.803762 0
M  V30 4113 H 380.534 1.95602 2.46145 0
M  V30 4114 N 384.306 0.507319 1.49211 0
M  V30 4115 C 385.236 -0.256939 2.32082 0
M  V30 4116 C 386.217 -0.956609 1.40652 0
M  V30 4117 O 387.402 -0.946788 1.69557 0
M  V30 4118 C 384.532 -1.31802 3.21318 0
M  V30 4119 C 383.486 -0.737855 4.21592 0
M  V30 4120 C 382.812 -1.89992 4.99807 0
M  V30 4121 C 384.112 0.275325 5.21574 0
M  V30 4122 H 385.806 0.434798 2.96226 0
M  V30 4123 H 383.352 0.210546 1.42452 0
M  V30 4124 H 385.305 -1.86045 3.78107 0
M  V30 4125 H 384.029 -2.03903 2.5513 0
M  V30 4126 H 382.688 -0.217126 3.65956 0
M  V30 4127 H 382.336 -2.60877 4.30061 0
M  V30 4128 H 382.036 -1.51777 5.6766 0
M  V30 4129 H 383.56 -2.44657 5.59442 0
M  V30 4130 H 384.974 -0.179193 5.7302 0
M  V30 4131 H 383.371 0.573649 5.97352 0
M  V30 4132 H 384.441 1.18903 4.70096 0
M  V30 4133 N 385.784 -1.5574 0.241426 0
M  V30 4134 C 387.061 -1.90704 -0.434881 0
M  V30 4135 C 387.441 -1.16145 -1.76277 0
M  V30 4136 O 386.789 -0.277152 -2.26813 0
M  V30 4137 C 386.999 -3.43657 -0.608343 0
M  V30 4138 C 388.347 -4.14806 -0.906725 0
M  V30 4139 O 389.371 -3.49366 -0.694408 0
M  V30 4140 O 388.23 -5.30548 -1.31075 0
M  V30 4141 H 385.324 -0.793592 -0.23268 0
M  V30 4142 H 387.87 -1.67288 0.285086 0
M  V30 4143 H 386.642 -3.89927 0.327505 0
M  V30 4144 H 386.265 -3.72918 -1.37906 0
M  V30 4145 N 387.262 0.0317525 -1.57568 0
M  V30 4146 C 388.51 0.721676 -1.88776 0
M  V30 4147 C 388.831 1.76039 -0.838772 0
M  V30 4148 O 388.101 1.95482 0.127935 0
M  V30 4149 H 386.681 0.269534 -0.696678 0
M  V30 4150 H 389.343 -0.00165879 -1.949 0
M  V30 4151 H 388.439 1.21293 -2.87566 0
M  V30 4152 N 388.74 1.54641 0.303973 0
M  V30 4153 C 389.987 1.7378 1.03955 0
M  V30 4154 C 390.315 0.521986 1.87365 0
M  V30 4155 O 389.57 -0.496099 1.89308 0
M  V30 4156 C 389.869 2.97753 1.97681 0
M  V30 4157 C 389.535 4.31671 1.30271 0
M  V30 4158 C 388.197 4.68075 1.11619 0
M  V30 4159 C 390.549 5.147 0.82055 0
M  V30 4160 C 387.877 5.8509 0.434304 0
M  V30 4161 C 390.229 6.32416 0.152395 0
M  V30 4162 C 388.893 6.67484 -0.0461067 0
M  V30 4163 H 388.163 0.635908 0.380398 0
M  V30 4164 H 390.81 1.88896 0.314718 0
M  V30 4165 H 389.115 2.77406 2.76682 0
M  V30 4166 H 390.812 3.09756 2.54661 0
M  V30 4167 H 387.402 4.03041 1.45795 0
M  V30 4168 H 391.586 4.87077 0.952374 0
M  V30 4169 H 386.842 6.10806 0.269495 0
M  V30 4170 H 391.016 6.96023 -0.229126 0
M  V30 4171 H 388.643 7.58011 -0.576494 0
M  V30 4172 N 390.218 -0.567019 1.47046 0
M  V30 4173 C 391.634 -0.891975 1.32348 0
M  V30 4174 C 391.834 -1.99154 0.306616 0
M  V30 4175 O 390.89 -2.50883 -0.28532 0
M  V30 4176 C 392.203 -1.29449 2.7141 0
M  V30 4177 C 393.751 -1.40646 2.79621 0
M  V30 4178 C 394.226 -1.84257 4.19301 0
M  V30 4179 N 395.717 -1.91424 4.21795 0
M  V30 4180 C 396.452 -2.26476 5.26779 0
M  V30 4181 N 395.948 -2.60211 6.42077 0
M  V30 4182 N 397.741 -2.27166 5.14152 0
M  V30 4183 H 389.892 0.159074 2.11803 0
M  V30 4184 H 392.155 0.00849752 0.947962 0
M  V30 4185 H 391.861 -0.560448 3.47206 0
M  V30 4186 H 391.735 -2.25273 3.02542 0
M  V30 4187 H 394.122 -2.13133 2.04104 0
M  V30 4188 H 394.203 -0.430339 2.52154 0
M  V30 4189 H 393.847 -1.12343 4.95319 0
M  V30 4190 H 393.777 -2.82855 4.44185 0
M  V30 4191 H 396.268 -1.6778 3.38612 0
M  V30 4192 H 396.581 -2.85956 7.17948 0
M  V30 4193 H 394.926 -2.57813 6.45413 0
M  V30 4194 H 398.117 -2.00244 4.23107 0
M  V30 4195 H 398.29 -2.54154 5.96079 0
M  V30 4196 N 391.696 -1.35014 -0.812953 0
M  V30 4197 C 392.945 -1.27269 -1.56479 0
M  V30 4198 C 393.258 0.152771 -1.95002 0
M  V30 4199 O 394.464 0.352451 -2.69203 0
M  V30 4200 C 392.92 -2.23159 -2.82362 0
M  V30 4201 C 392.528 -3.71016 -2.511 0
M  V30 4202 C 394.272 -2.24342 -3.60376 0
M  V30 4203 C 392.179 -4.58746 -3.73237 0
M  V30 4204 H 391.109 -0.472829 -0.587324 0
M  V30 4205 H 393.76 -1.6024 -0.894171 0
M  V30 4206 H 392.142 -1.83151 -3.51101 0
M  V30 4207 H 393.316 -4.1962 -1.90409 0
M  V30 4208 H 391.631 -3.72378 -1.86343 0
M  V30 4209 H 394.228 -2.87107 -4.51081 0
M  V30 4210 H 394.571 -1.24542 -3.97234 0
M  V30 4211 H 395.104 -2.62846 -2.98591 0
M  V30 4212 H 391.843 -5.59521 -3.41492 0
M  V30 4213 H 391.363 -4.14871 -4.33176 0
M  V30 4214 H 393.042 -4.73852 -4.40537 0
M  V30 4215 N 393.175 1.03435 -1.18907 0
M  V30 4216 C 394.452 1.73778 -0.89781 0
M  V30 4217 C 394.832 2.02458 0.597832 0
M  V30 4218 O 394.18 1.67482 1.55441 0
M  V30 4219 C 394.39 3.01845 -1.75187 0
M  V30 4220 C 395.738 3.7546 -1.9828 0
M  V30 4221 O 396.762 3.11759 -1.72293 0
M  V30 4222 O 395.621 4.89966 -2.42065 0
M  V30 4223 H 392.715 0.75651 -0.334098 0
M  V30 4224 H 395.261 1.09444 -1.29693 0
M  V30 4225 H 394.033 2.76836 -2.76545 0
M  V30 4226 H 393.656 3.73919 -1.35167 0
M  V30 4227 N 394.653 0.992116 1.22453 0
M  V30 4228 C 395.616 0.546883 2.2258 0
M  V30 4229 C 396.616 -0.369829 1.56489 0
M  V30 4230 O 397.806 -0.161896 1.73446 0
M  V30 4231 C 394.938 -0.204659 3.40285 0
M  V30 4232 H 396.131 1.43234 2.63484 0
M  V30 4233 H 393.684 0.779239 1.3549 0
M  V30 4234 H 394.419 -1.10614 3.04853 0
M  V30 4235 H 394.204 0.45354 3.89468 0
M  V30 4236 H 395.694 -0.504358 4.14543 0
M  V30 4237 N 396.131 -1.37776 0.765217 0
M  V30 4238 C 397.377 -2.00145 0.327072 0
M  V30 4239 C 397.71 -1.60607 -1.09175 0
M  V30 4240 O 396.985 -0.849127 -1.74986 0
M  V30 4241 C 397.268 -3.57109 0.46319 0
M  V30 4242 C 397.121 -4.06576 1.92395 0
M  V30 4243 C 398.44 -4.39888 -0.136473 0
M  V30 4244 H 395.559 -0.727113 0.120316 0
M  V30 4245 H 398.201 -1.63549 0.967039 0
M  V30 4246 H 396.351 -3.88414 -0.0816358 0
M  V30 4247 H 398.023 -3.85864 2.52798 0
M  V30 4248 H 396.266 -3.59011 2.43503 0
M  V30 4249 H 396.937 -5.15639 1.97028 0
M  V30 4250 H 399.413 -4.14803 0.328317 0
M  V30 4251 H 398.289 -5.48899 -0.0110582 0
M  V30 4252 H 398.55 -4.24758 -1.22608 0
M  V30 4253 N 397.609 -0.515225 -1.4894 0
M  V30 4254 C 398.556 0.255567 -2.29381 0
M  V30 4255 C 399.526 0.947387 -1.36432 0
M  V30 4256 O 400.711 0.951288 -1.65394 0
M  V30 4257 C 397.851 1.30551 -3.19453 0
M  V30 4258 C 396.964 0.624029 -4.27469 0
M  V30 4259 C 396.099 1.65563 -5.0474 0
M  V30 4260 C 395.138 0.956802 -6.04576 0
M  V30 4261 N 394.275 1.93326 -6.74959 0
M  V30 4262 H 399.115 -0.436607 -2.94784 0
M  V30 4263 H 396.652 -0.227154 -1.45336 0
M  V30 4264 H 398.61 1.92639 -3.70062 0
M  V30 4265 H 397.24 1.96626 -2.56004 0
M  V30 4266 H 396.292 -0.110459 -3.8024 0
M  V30 4267 H 397.604 0.0746092 -4.98744 0
M  V30 4268 H 396.758 2.35119 -5.59289 0
M  V30 4269 H 395.497 2.23893 -4.3327 0
M  V30 4270 H 394.502 0.247097 -5.49244 0
M  V30 4271 H 395.727 0.379814 -6.78037 0
M  V30 4272 H 393.673 2.50591 -6.06251 0
M  V30 4273 H 393.59 1.43489 -7.42258 0
M  V30 4274 H 394.858 2.62126 -7.34105 0
M  V30 4275 N 399.087 1.5561 -0.249682 0
M  V30 4276 C 400.037 2.18157 0.662673 0
M  V30 4277 C 401.021 1.1383 1.13717 0
M  V30 4278 O 402.213 1.39731 1.08648 0
M  V30 4279 C 399.342 2.88672 1.85805 0
M  V30 4280 C 398.428 4.00258 1.40193 0
M  V30 4281 N 398.819 5.01473 0.660213 0
M  V30 4282 C 397.117 4.12864 1.68698 0
M  V30 4283 C 397.818 5.80155 0.423695 0
M  V30 4284 N 396.794 5.34533 0.988721 0
M  V30 4285 H 400.596 2.93769 0.0878688 0
M  V30 4286 H 398.11 1.62316 -0.0521183 0
M  V30 4287 H 400.107 3.31912 2.5227 0
M  V30 4288 H 398.767 2.14564 2.43705 0
M  V30 4289 H 399.778 5.16971 0.310047 0
M  V30 4290 H 396.455 3.4993 2.27717 0
M  V30 4291 H 397.845 6.71688 -0.168616 0
M  V30 4292 N 400.565 -0.0233959 1.57583 0
M  V30 4293 C 401.814 -0.712133 1.8871 0
M  V30 4294 C 402.127 -1.76217 0.848944 0
M  V30 4295 O 403.333 -2.50389 1.04964 0
M  V30 4296 C 401.789 -1.3177 3.3491 0
M  V30 4297 C 401.397 -0.303715 4.46969 0
M  V30 4298 C 403.141 -1.98598 3.75179 0
M  V30 4299 C 401.048 -0.917945 5.84233 0
M  V30 4300 H 399.978 -0.269735 0.704101 0
M  V30 4301 H 402.629 0.0333114 1.8347 0
M  V30 4302 H 401.011 -2.11304 3.34913 0
M  V30 4303 H 402.185 0.465325 4.58445 0
M  V30 4304 H 400.5 0.2628 4.1557 0
M  V30 4305 H 403.097 -2.45416 4.75053 0
M  V30 4306 H 403.44 -2.80659 3.07468 0
M  V30 4307 H 403.973 -1.25831 3.77374 0
M  V30 4308 H 400.712 -0.136633 6.55358 0
M  V30 4309 H 400.232 -1.65669 5.76467 0
M  V30 4310 H 401.911 -1.4236 6.31144 0
M  V30 4311 N 402.043 -1.548 -0.295768 0
M  V30 4312 C 402.99 -1.86113 -1.36494 0
M  V30 4313 C 403.96 -0.7105 -1.50137 0
M  V30 4314 O 405.145 -0.959626 -1.64912 0
M  V30 4315 C 402.285 -2.11861 -2.72413 0
M  V30 4316 C 401.398 -3.39471 -2.67177 0
M  V30 4317 C 400.533 -3.55035 -3.95125 0
M  V30 4318 C 399.572 -4.76418 -3.84308 0
M  V30 4319 N 398.709 -4.8876 -5.04042 0
M  V30 4320 H 403.549 -2.77314 -1.09091 0
M  V30 4321 H 401.086 -1.37315 -0.52753 0
M  V30 4322 H 403.044 -2.24786 -3.51464 0
M  V30 4323 H 401.674 -1.2392 -2.98066 0
M  V30 4324 H 400.726 -3.35139 -1.79962 0
M  V30 4325 H 402.038 -4.28646 -2.55076 0
M  V30 4326 H 401.192 -3.67653 -4.82614 0
M  V30 4327 H 399.931 -2.64002 -4.10066 0
M  V30 4328 H 398.936 -4.63827 -2.95202 0
M  V30 4329 H 400.161 -5.68863 -3.70906 0
M  V30 4330 H 398.107 -4.00652 -5.19436 0
M  V30 4331 H 398.024 -5.71945 -4.94384 0
M  V30 4332 H 399.292 -5.0574 -5.93167 0
M  V30 4333 N 403.521 0.559213 -1.47345 0
M  V30 4334 C 404.751 1.33999 -1.57251 0
M  V30 4335 C 405.159 1.87905 -0.220978 0
M  V30 4336 O 404.502 1.65577 0.795617 0
M  V30 4337 C 404.564 2.54798 -2.53611 0
M  V30 4338 C 404.228 2.22192 -3.99349 0
M  V30 4339 C 405.225 1.79607 -4.87891 0
M  V30 4340 C 402.91 2.33613 -4.44669 0
M  V30 4341 C 404.904 1.48868 -6.19772 0
M  V30 4342 C 402.591 2.02487 -5.76578 0
M  V30 4343 C 403.589 1.60183 -6.63951 0
M  V30 4344 O 403.277 1.29451 -7.93409 0
M  V30 4345 H 403.009 0.414858 -0.533731 0
M  V30 4346 H 405.563 0.684465 -1.9366 0
M  V30 4347 H 403.793 3.23235 -2.12265 0
M  V30 4348 H 405.482 3.16873 -2.53666 0
M  V30 4349 H 406.248 1.70278 -4.54126 0
M  V30 4350 H 402.127 2.65501 -3.76869 0
M  V30 4351 H 405.671 1.15775 -6.87926 0
M  V30 4352 H 401.568 2.11448 -6.09885 0
M  V30 4353 H 402.336 1.43098 -8.05894 0
M  V30 4354 N 404.999 1.35443 0.805782 0
M  V30 4355 C 406.224 1.32037 1.59941 0
M  V30 4356 C 406.649 -0.0994215 1.87837 0
M  V30 4357 O 406.007 -1.06648 1.46615 0
M  V30 4358 C 406.055 2.13354 2.90711 0
M  V30 4359 O 405.159 1.5148 3.83572 0
M  V30 4360 H 404.5 0.452666 0.485787 0
M  V30 4361 H 407.03 1.78496 1.00002 0
M  V30 4362 H 407.04 2.25338 3.40128 0
M  V30 4363 H 405.715 3.16572 2.69732 0
M  V30 4364 H 404.292 1.4834 3.42125 0
M  V30 4365 N 406.477 -1.02803 1.19454 0
M  V30 4366 C 407.707 -1.79581 1.02149 0
M  V30 4367 C 408.115 -1.84182 -0.432851 0
M  V30 4368 O 407.458 -1.28534 -1.31243 0
M  V30 4369 C 407.52 -3.25993 1.51554 0
M  V30 4370 C 407.184 -3.45025 2.99678 0
M  V30 4371 C 408.181 -3.35175 3.97434 0
M  V30 4372 C 405.866 -3.71212 3.38389 0
M  V30 4373 C 407.86 -3.51238 5.31893 0
M  V30 4374 C 405.547 -3.8692 4.73008 0
M  V30 4375 C 406.545 -3.76936 5.69569 0
M  V30 4376 O 406.233 -3.92179 7.01748 0
M  V30 4377 H 405.965 -0.571962 0.360327 0
M  V30 4378 H 408.519 -1.30367 1.58725 0
M  V30 4379 H 406.749 -3.76235 0.893543 0
M  V30 4380 H 408.438 -3.84368 1.30444 0
M  V30 4381 H 409.204 -3.14895 3.68872 0
M  V30 4382 H 405.083 -3.78075 2.6378 0
M  V30 4383 H 408.627 -3.43362 6.07247 0
M  V30 4384 H 404.524 -4.06699 5.01265 0
M  V30 4385 H 405.292 -4.09265 7.08833 0
M  V30 4386 N 407.956 -0.998596 -1.21925 0
M  V30 4387 C 409.184 -0.696286 -1.94832 0
M  V30 4388 C 409.599 0.740032 -1.73692 0
M  V30 4389 O 408.956 1.5 -1.03953 0
M  V30 4390 C 409.007 -0.999833 -3.47398 0
M  V30 4391 O 408.728 -2.37972 -3.67833 0
M  V30 4392 C 410.229 -0.716025 -4.37479 0
M  V30 4393 H 407.449 -0.257111 -0.619786 0
M  V30 4394 H 409.993 -1.33491 -1.54921 0
M  V30 4395 H 408.148 -0.406918 -3.85257 0
M  V30 4396 H 408.562 -2.48338 -4.61983 0
M  V30 4397 H 410.036 -0.978642 -5.43256 0
M  V30 4398 H 410.513 0.349968 -4.37803 0
M  V30 4399 H 411.119 -1.29025 -4.05256 0
M  V30 4400 N 409.434 1.37368 -0.772513 0
M  V30 4401 C 410.85 1.53059 -0.452231 0
M  V30 4402 C 411.05 1.73065 1.03203 0
M  V30 4403 O 410.106 1.75245 1.81784 0
M  V30 4404 C 411.419 2.72659 -1.26797 0
M  V30 4405 C 412.967 2.86521 -1.25995 0
M  V30 4406 C 413.442 4.09105 -2.05905 0
M  V30 4407 N 414.933 4.16219 -2.03263 0
M  V30 4408 C 415.668 5.10107 -2.61875 0
M  V30 4409 N 415.164 6.09547 -3.29278 0
M  V30 4410 N 416.957 5.02596 -2.51701 0
M  V30 4411 H 409.108 1.22634 -1.7342 0
M  V30 4412 H 411.371 0.597206 -0.736239 0
M  V30 4413 H 411.077 2.64343 -2.31982 0
M  V30 4414 H 410.951 3.66363 -0.897672 0
M  V30 4415 H 413.338 2.94308 -0.216081 0
M  V30 4416 H 413.419 1.93774 -1.66989 0
M  V30 4417 H 413.063 4.0208 -3.10313 0
M  V30 4418 H 412.993 5.00968 -1.62292 0
M  V30 4419 H 415.484 3.45012 -1.54192 0
M  V30 4420 H 415.797 6.77718 -3.71374 0
M  V30 4421 H 414.142 6.09824 -3.33377 0
M  V30 4422 H 417.333 4.23855 -1.98657 0
M  V30 4423 H 417.506 5.75582 -2.97673 0
M  V30 4424 N 410.912 0.523116 1.48665 0
M  V30 4425 C 412.189 -0.0775449 1.95446 0
M  V30 4426 C 412.569 -1.5197 1.4652 0
M  V30 4427 O 411.917 -2.17876 0.688657 0
M  V30 4428 C 412.127 0.0326135 3.48985 0
M  V30 4429 C 413.475 -0.130141 4.24401 0
M  V30 4430 O 414.499 -0.0415142 3.56176 0
M  V30 4431 O 413.358 -0.31491 5.45592 0
M  V30 4432 H 410.452 -0.0831012 0.822814 0
M  V30 4433 H 412.998 0.587227 1.59216 0
M  V30 4434 H 411.77 1.03748 3.77296 0
M  V30 4435 H 411.393 -0.671317 3.91892 0
M  V30 4436 N 412.39 -1.55475 0.257931 0
M  V30 4437 C 413.636 -2.00237 -0.357338 0
M  V30 4438 C 413.991 -1.14313 -1.54759 0
M  V30 4439 O 413.284 -0.201187 -1.90541 0
M  V30 4440 C 413.478 -3.48183 -0.806433 0
M  V30 4441 C 413.307 -4.48422 0.338758 0
M  V30 4442 C 412.077 -4.98651 0.817011 0
M  V30 4443 C 414.275 -5.00827 1.16949 0
M  V30 4444 N 412.257 -5.82658 1.93346 0
M  V30 4445 C 413.628 -5.82113 2.13413 0
M  V30 4446 C 415.683 -4.83104 1.2048 0
M  V30 4447 C 414.386 -6.47566 3.13131 0
M  V30 4448 C 416.412 -5.49343 2.19034 0
M  V30 4449 C 415.774 -6.30427 3.14232 0
M  V30 4450 H 411.873 -0.776034 -0.0964083 0
M  V30 4451 H 414.457 -1.90995 0.37803 0
M  V30 4452 H 412.628 -3.57801 -1.51107 0
M  V30 4453 H 414.36 -3.79802 -1.39758 0
M  V30 4454 H 411.115 -4.71914 0.39925 0
M  V30 4455 H 411.539 -6.29356 2.49478 0
M  V30 4456 H 416.181 -4.20036 0.482634 0
M  V30 4457 H 413.899 -7.09793 3.8629 0
M  V30 4458 H 417.485 -5.37579 2.22485 0
M  V30 4459 H 416.365 -6.80777 3.89246 0
M  V30 4460 N 413.868 0.0150385 -1.57593 0
M  V30 4461 C 414.798 1.01047 -2.10503 0
M  V30 4462 C 415.779 1.36816 -1.01071 0
M  V30 4463 O 416.964 1.45455 -1.28672 0
M  V30 4464 C 414.094 2.30708 -2.59598 0
M  V30 4465 C 413.048 2.09142 -3.73421 0
M  V30 4466 C 412.374 3.44685 -4.08774 0
M  V30 4467 C 413.674 1.46619 -5.01298 0
M  V30 4468 H 415.368 0.569978 -2.93925 0
M  V30 4469 H 412.914 0.272724 -1.41394 0
M  V30 4470 H 414.867 3.00687 -2.95238 0
M  V30 4471 H 413.591 2.76843 -1.73279 0
M  V30 4472 H 412.25 1.41592 -3.38153 0
M  V30 4473 H 411.898 3.88495 -3.195 0
M  V30 4474 H 411.598 3.31077 -4.8545 0
M  V30 4475 H 413.122 4.16004 -4.4696 0
M  V30 4476 H 414.536 2.06535 -5.34805 0
M  V30 4477 H 412.933 1.43544 -5.82679 0
M  V30 4478 H 414.003 0.433611 -4.82957 0
M  V30 4479 N 415.346 1.54954 0.287554 0
M  V30 4480 C 416.574 1.78881 1.03967 0
M  V30 4481 C 416.989 0.554894 1.80462 0
M  V30 4482 O 416.346 -0.475676 1.76192 0
M  V30 4483 C 416.397 3.00488 2.0097 0
M  V30 4484 O 416.118 4.19113 1.27577 0
M  V30 4485 C 417.619 3.36907 2.88112 0
M  V30 4486 H 414.839 0.596259 0.307761 0
M  V30 4487 H 417.383 2.01937 0.322749 0
M  V30 4488 H 415.538 2.79601 2.68145 0
M  V30 4489 H 415.952 4.87765 1.92835 0
M  V30 4490 H 417.426 4.25205 3.52001 0
M  V30 4491 H 417.903 2.55659 3.57121 0
M  V30 4492 H 418.509 3.60001 2.26449 0
M  V30 4493 N 416.824 -0.551391 1.4764 0
M  V30 4494 C 417.774 -1.65362 1.56969 0
M  V30 4495 C 418.758 -1.55098 0.428189 0
M  V30 4496 O 419.95 -1.63481 0.678441 0
M  V30 4497 C 417.079 -3.04129 1.59249 0
M  V30 4498 C 416.165 -3.19576 2.78804 0
M  V30 4499 N 416.556 -3.05067 4.03445 0
M  V30 4500 C 414.854 -3.50588 2.75688 0
M  V30 4501 C 415.555 -3.2336 4.83543 0
M  V30 4502 N 414.531 -3.4996 4.15968 0
M  V30 4503 H 418.333 -1.52722 2.51104 0
M  V30 4504 H 415.847 -0.756303 1.43714 0
M  V30 4505 H 417.844 -3.83278 1.64024 0
M  V30 4506 H 416.504 -3.17877 0.662148 0
M  V30 4507 H 417.515 -2.82273 4.34215 0
M  V30 4508 H 414.192 -3.70827 1.91817 0
M  V30 4509 H 415.582 -3.17061 5.92387 0
M  V30 4510 N 418.302 -1.35869 -0.798587 0
M  V30 4511 C 419.548 -1.2978 -1.55836 0
M  V30 4512 C 419.881 0.125322 -1.93795 0
M  V30 4513 O 419.156 1.07658 -1.61987 0
M  V30 4514 C 419.439 -2.21188 -2.84162 0
M  V30 4515 C 419.292 -3.72155 -2.52628 0
M  V30 4516 C 420.611 -2.11545 -3.85923 0
M  V30 4517 H 417.73 -0.472769 -0.565383 0
M  V30 4518 H 420.372 -1.66341 -0.918192 0
M  V30 4519 H 418.522 -1.90139 -3.38791 0
M  V30 4520 H 420.194 -4.13682 -2.04121 0
M  V30 4521 H 418.437 -3.92042 -1.85704 0
M  V30 4522 H 419.108 -4.31511 -3.44242 0
M  V30 4523 H 421.584 -2.38855 -3.40716 0
M  V30 4524 H 420.46 -2.77688 -4.73477 0
M  V30 4525 H 420.721 -1.09987 -4.282 0
M  V30 4526 N 419.78 1.02168 -1.19998 0
M  V30 4527 C 421.196 1.27969 -0.953737 0
M  V30 4528 C 421.396 1.98079 0.369703 0
M  V30 4529 O 420.452 2.27306 1.09947 0
M  V30 4530 C 421.765 2.11971 -2.13281 0
M  V30 4531 C 423.313 2.25255 -2.17323 0
M  V30 4532 C 423.788 3.12632 -3.34702 0
M  V30 4533 N 425.279 3.2022 -3.34684 0
M  V30 4534 C 426.014 3.88039 -4.22153 0
M  V30 4535 N 425.51 4.58027 -5.19791 0
M  V30 4536 N 427.303 3.84511 -4.10009 0
M  V30 4537 H 419.454 0.550794 -2.05134 0
M  V30 4538 H 421.717 0.305683 -0.897364 0
M  V30 4539 H 421.423 1.67785 -3.09097 0
M  V30 4540 H 421.297 3.12699 -2.10949 0
M  V30 4541 H 423.684 2.68667 -1.22073 0
M  V30 4542 H 423.765 1.24053 -2.23706 0
M  V30 4543 H 423.409 2.69926 -4.30235 0
M  V30 4544 H 423.339 4.13909 -3.25556 0
M  V30 4545 H 425.83 2.70382 -2.64012 0
M  V30 4546 H 426.143 5.07429 -5.82868 0
M  V30 4547 H 424.488 4.56869 -5.23733 0
M  V30 4548 H 427.679 3.28978 -3.33003 0
M  V30 4549 H 427.852 4.3709 -4.78389 0
M  V30 4550 N 421.258 1.00505 1.21394 0
M  V30 4551 C 422.206 0.558623 2.25792 0
M  V30 4552 C 423.2 -0.396848 1.64686 0
M  V30 4553 O 424.406 -0.268035 1.77993 0
M  V30 4554 H 420.781 0.1623 0.734277 0
M  V30 4555 H 422.752 1.4503 2.60785 0
M  V30 4556 C 421.501 -0.0989574 3.47559 0
M  V30 4557 H 420.824 0.627225 3.94849 0
M  V30 4558 H 422.264 -0.3746 4.22342 0
M  V30 4559 C 420.723 -1.33817 3.09184 0
M  V30 4560 O 421.253 -2.43252 3.19674 0
M  V30 4561 N 419.459 -1.21793 2.63846 0
M  V30 4562 H 419.006 -0.32746 2.5551 0
M  V30 4563 H 418.964 -2.04809 2.38539 0
M  V30 4564 N 422.737 -1.36956 0.779787 0
M  V30 4565 C 423.965 -2.03755 0.359398 0
M  V30 4566 C 424.38 -1.58807 -1.02106 0
M  V30 4567 O 423.737 -0.773024 -1.6532 0
M  V30 4568 C 423.788 -3.59251 0.402568 0
M  V30 4569 O 423.509 -4.02557 1.72858 0
M  V30 4570 C 425.01 -4.43291 -0.0284068 0
M  V30 4571 H 422.23 -0.654148 0.149437 0
M  V30 4572 H 424.774 -1.75128 1.05595 0
M  V30 4573 H 422.929 -3.86621 -0.245478 0
M  V30 4574 H 423.343 -4.97111 1.67275 0
M  V30 4575 H 424.817 -5.51975 0.0529466 0
M  V30 4576 H 425.294 -4.25719 -1.07982 0
M  V30 4577 H 425.9 -4.21163 0.591758 0
M  V30 4578 N 424.215 -0.530993 -1.48385 0
M  V30 4579 C 425.443 -0.00134122 -2.069 0
M  V30 4580 C 425.858 1.2805 -1.3874 0
M  V30 4581 O 425.215 1.76204 -0.475244 0
M  V30 4582 C 425.266 0.225256 -3.60798 0
M  V30 4583 O 424.987 -1.0058 -4.26398 0
M  V30 4584 C 426.488 0.795172 -4.3611 0
M  V30 4585 H 423.708 -0.0339704 -0.67014 0
M  V30 4586 H 426.252 -0.736926 -1.90761 0
M  V30 4587 H 424.407 0.910891 -3.76539 0
M  V30 4588 H 424.821 -0.787165 -5.1856 0
M  V30 4589 H 426.295 0.903143 -5.44562 0
M  V30 4590 H 426.772 1.80031 -4.00606 0
M  V30 4591 H 427.378 0.146069 -4.25049 0
M  V30 4592 N 425.693 1.55336 -0.266172 0
M  V30 4593 C 426.941 1.99003 0.35246 0
M  V30 4594 C 427.262 1.15591 1.57047 0
M  V30 4595 O 426.532 0.243268 1.94384 0
M  V30 4596 H 425.112 0.735025 0.133217 0
M  V30 4597 H 427.774 1.91367 -0.369434 0
M  V30 4598 H 426.87 3.05289 0.648453 0
M  V30 4599 N 427.171 -0.0066808 1.57599 0
M  V30 4600 C 428.118 -1.00024 2.08 0
M  V30 4601 C 429.088 -1.34549 0.973943 0
M  V30 4602 O 430.273 -1.44502 1.24595 0
M  V30 4603 C 427.413 -2.2891 2.58252 0
M  V30 4604 C 426.526 -2.00346 3.82734 0
M  V30 4605 C 425.661 -3.23265 4.21513 0
M  V30 4606 C 424.7 -2.90357 5.3885 0
M  V30 4607 N 423.837 -4.05793 5.72954 0
M  V30 4608 H 428.677 -0.563499 2.92624 0
M  V30 4609 H 426.214 -0.266592 1.44664 0
M  V30 4610 H 428.172 -3.04247 2.85464 0
M  V30 4611 H 426.802 -2.70265 1.76512 0
M  V30 4612 H 425.854 -1.15406 3.62471 0
M  V30 4613 H 427.166 -1.72086 4.68175 0
M  V30 4614 H 426.32 -4.06953 4.49971 0
M  V30 4615 H 425.059 -3.54657 3.34768 0
M  V30 4616 H 424.064 -2.05075 5.10122 0
M  V30 4617 H 425.289 -2.60219 6.27266 0
M  V30 4618 H 423.235 -4.37094 4.89167 0
M  V30 4619 H 423.152 -3.81034 6.52954 0
M  V30 4620 H 424.42 -4.90289 6.06001 0
M  V30 4621 N 428.649 -1.55105 -0.279332 0
M  V30 4622 C 430.06 -1.66186 -0.850832 0
M  V30 4623 C 430.411 -0.584707 -1.87285 0
M  V30 4624 O 429.536 0.274919 -2.14647 0
M  V30 4625 C 430.131 -3.01264 -1.55001 0
M  V30 4626 C 428.69 -3.14394 -2.06963 0
M  V30 4627 C 427.837 -2.61959 -0.909536 0
M  V30 4628 H 430.788 -1.58602 -0.0558235 0
M  V30 4629 H 430.809 -2.93899 -2.41669 0
M  V30 4630 H 430.321 -3.7964 -0.805931 0
M  V30 4631 H 428.422 -2.4078 -2.84352 0
M  V30 4632 H 428.535 -4.20867 -2.28928 0
M  V30 4633 H 426.899 -2.18957 -1.30116 0
M  V30 4634 H 427.682 -3.42833 -0.179062 0
M  V30 4635 N 430.127 0.543554 -1.4793 0
M  V30 4636 C 431.06 1.66556 -1.55995 0
M  V30 4637 C 432.038 1.57315 -0.411205 0
M  V30 4638 O 433.222 1.7798 -0.620922 0
M  V30 4639 C 430.349 3.04883 -1.47527 0
M  V30 4640 C 429.395 3.32526 -2.67074 0
M  V30 4641 S 430.228 3.20282 -4.29162 0
M  V30 4642 C 431.384 4.61079 -4.23269 0
M  V30 4643 H 431.617 1.59462 -2.50917 0
M  V30 4644 H 429.15 0.725456 -1.36296 0
M  V30 4645 H 431.108 3.84665 -1.43328 0
M  V30 4646 H 429.769 3.09429 -0.539665 0
M  V30 4647 H 428.962 4.33403 -2.5725 0
M  V30 4648 H 428.564 2.60389 -2.68466 0
M  V30 4649 H 430.856 5.52318 -3.92365 0
M  V30 4650 H 431.799 4.75959 -5.24279 0
M  V30 4651 H 432.207 4.39766 -3.5393 0
M  V30 4652 N 431.605 1.3629 0.791371 0
M  V30 4653 C 432.852 1.30412 1.54916 0
M  V30 4654 C 433.18 -0.117162 1.94147 0
M  V30 4655 O 432.435 -1.08599 1.62803 0
M  V30 4656 C 432.734 2.17068 2.8393 0
M  V30 4657 C 432.4 3.65645 2.63846 0
M  V30 4658 C 431.062 4.0614 2.58077 0
M  V30 4659 C 433.414 4.59855 2.45322 0
M  V30 4660 C 430.742 5.3899 2.31748 0
M  V30 4661 C 433.094 5.9292 2.2052 0
M  V30 4662 C 431.758 6.32542 2.13183 0
M  V30 4663 H 431.028 0.47721 0.566879 0
M  V30 4664 H 433.675 1.68325 0.913172 0
M  V30 4665 H 431.98 1.72085 3.51986 0
M  V30 4666 H 433.677 2.09846 3.4171 0
M  V30 4667 H 430.267 3.33518 2.69191 0
M  V30 4668 H 434.451 4.29443 2.48782 0
M  V30 4669 H 429.707 5.68672 2.24548 0
M  V30 4670 H 433.881 6.65487 2.05182 0
M  V30 4671 H 431.508 7.35412 1.92544 0
M  V30 4672 N 433.083 -1.0153 1.20538 0
M  V30 4673 C 434.046 -2.0826 0.957098 0
M  V30 4674 C 435.046 -1.60657 -0.0678655 0
M  V30 4675 O 436.236 -1.73385 0.168332 0
M  V30 4676 C 433.368 -3.38033 0.441188 0
M  V30 4677 H 434.561 -2.31719 1.90384 0
M  V30 4678 H 432.114 -1.1835 1.02093 0
M  V30 4679 H 432.849 -3.20249 -0.510961 0
M  V30 4680 H 432.634 -3.73911 1.18038 0
M  V30 4681 H 434.124 -4.16613 0.287009 0
M  V30 4682 N 434.561 -1.01147 -1.20859 0
M  V30 4683 C 435.807 -0.698899 -1.90377 0
M  V30 4684 C 436.14 0.76904 -1.78324 0
M  V30 4685 O 435.415 1.55817 -1.16409 0
M  V30 4686 C 435.698 -1.12878 -3.41951 0
M  V30 4687 C 435.551 -2.65665 -3.62963 0
M  V30 4688 C 436.87 -0.696114 -4.3456 0
M  V30 4689 H 433.989 -0.255372 -0.691342 0
M  V30 4690 H 436.631 -1.25831 -1.42361 0
M  V30 4691 H 434.781 -0.652827 -3.82976 0
M  V30 4692 H 436.453 -3.21074 -3.31224 0
M  V30 4693 H 434.696 -3.06878 -3.06608 0
M  V30 4694 H 435.367 -2.90797 -4.69192 0
M  V30 4695 H 437.843 -1.10521 -4.01154 0
M  V30 4696 H 436.719 -1.025 -5.39245 0
M  V30 4697 H 436.98 0.402465 -4.40264 0
M  V30 4698 N 436.039 1.36541 -0.78704 0
M  V30 4699 C 437.002 2.28413 -0.189778 0
M  V30 4700 C 438.002 1.48719 0.611499 0
M  V30 4701 O 439.192 1.68737 0.432842 0
M  V30 4702 C 436.324 3.32824 0.737638 0
M  V30 4703 H 437.517 2.82743 -0.999831 0
M  V30 4704 H 435.07 1.46065 -0.556298 0
M  V30 4705 H 435.805 2.83646 1.57212 0
M  V30 4706 H 435.59 3.91752 0.165044 0
M  V30 4707 H 437.08 4.0144 1.15047 0
M  V30 4708 N 437.518 0.538854 1.48102 0
M  V30 4709 C 438.428 -0.222648 2.33541 0
M  V30 4710 C 439.444 -0.930225 1.47047 0
M  V30 4711 O 440.62 -0.903211 1.80011 0
M  V30 4712 C 437.685 -1.25064 3.23357 0
M  V30 4713 C 436.746 -0.552469 4.2573 0
M  V30 4714 C 435.979 -1.53149 5.11254 0
M  V30 4715 O 436.202 -2.76487 4.9891 0
M  V30 4716 O 435.136 -1.06602 5.92385 0
M  V30 4717 H 438.962 0.477707 2.99919 0
M  V30 4718 H 436.547 0.299669 1.46364 0
M  V30 4719 H 438.429 -1.8445 3.78888 0
M  V30 4720 H 437.104 -1.93325 2.59629 0
M  V30 4721 H 436.011 0.082114 3.7401 0
M  V30 4722 H 437.344 0.0883526 4.92121 0
M  V30 4723 N 438.996 -1.55193 0.274407 0
M  V30 4724 C 440.243 -1.99581 -0.342579 0
M  V30 4725 C 440.571 -1.1628 -1.55914 0
M  V30 4726 O 439.826 -0.22029 -1.94456 0
M  V30 4727 C 440.125 -3.49019 -0.769458 0
M  V30 4728 C 439.791 -4.49598 0.342389 0
M  V30 4729 C 438.453 -4.76821 0.647686 0
M  V30 4730 C 440.805 -5.0964 1.09163 0
M  V30 4731 C 438.133 -5.61354 1.70581 0
M  V30 4732 C 440.485 -5.95323 2.13948 0
M  V30 4733 C 439.149 -6.20867 2.45113 0
M  V30 4734 H 438.419 -0.730319 -0.125358 0
M  V30 4735 H 441.066 -1.87529 0.387971 0
M  V30 4736 H 439.371 -3.58544 -1.57967 0
M  V30 4737 H 441.068 -3.8077 -1.25757 0
M  V30 4738 H 437.658 -4.28496 0.094318 0
M  V30 4739 H 441.842 -4.88632 0.869024 0
M  V30 4740 H 437.098 -5.79392 1.9523 0
M  V30 4741 H 441.272 -6.40881 2.72478 0
M  V30 4742 H 438.899 -6.86162 3.27239 0
M  V30 4743 N 440.474 -0.00167713 -1.576 0
M  V30 4744 C 441.72 0.67819 -1.91761 0
M  V30 4745 C 442.075 1.71288 -0.876256 0
M  V30 4746 O 441.368 1.91276 0.111333 0
M  V30 4747 C 441.562 1.36189 -3.30435 0
M  V30 4748 C 441.391 0.394938 -4.47962 0
M  V30 4749 C 440.161 0.00472875 -5.053 0
M  V30 4750 C 442.359 -0.339521 -5.13178 0
M  V30 4751 N 440.341 -0.960257 -6.06343 0
M  V30 4752 C 441.712 -1.15914 -6.09068 0
M  V30 4753 C 443.767 -0.403177 -4.96265 0
M  V30 4754 C 442.47 -2.03661 -6.89866 0
M  V30 4755 C 444.496 -1.26788 -5.77649 0
M  V30 4756 C 443.858 -2.07535 -6.73134 0
M  V30 4757 H 439.957 0.221317 -0.750028 0
M  V30 4758 H 442.541 -0.0624182 -1.946 0
M  V30 4759 H 440.712 2.07278 -3.28467 0
M  V30 4760 H 442.444 1.99658 -3.52021 0
M  V30 4761 H 439.199 0.373452 -4.72125 0
M  V30 4762 H 439.623 -1.43817 -6.61548 0
M  V30 4763 H 444.265 0.206818 -4.22294 0
M  V30 4764 H 441.983 -2.65727 -7.63161 0
M  V30 4765 H 445.569 -1.32107 -5.66603 0
M  V30 4766 H 444.449 -2.73363 -7.35012 0
M  V30 4767 N 441.952 1.55251 0.271103 0
M  V30 4768 C 442.899 1.88261 1.33516 0
M  V30 4769 C 443.869 0.734296 1.48988 0
M  V30 4770 O 445.054 0.985741 1.63364 0
M  V30 4771 C 442.194 2.16168 2.69008 0
M  V30 4772 C 441.307 3.43678 2.61743 0
M  V30 4773 C 440.442 3.61276 3.89427 0
M  V30 4774 C 439.481 4.82472 3.7668 0
M  V30 4775 N 438.618 4.96717 4.96202 0
M  V30 4776 H 443.458 2.79015 1.04665 0
M  V30 4777 H 440.995 1.38137 0.505618 0
M  V30 4778 H 442.953 2.30349 3.47844 0
M  V30 4779 H 441.583 1.28646 2.96057 0
M  V30 4780 H 440.635 3.37959 1.74607 0
M  V30 4781 H 441.947 4.3265 2.48224 0
M  V30 4782 H 441.101 3.75284 4.76704 0
M  V30 4783 H 439.84 2.70492 4.05814 0
M  V30 4784 H 438.845 4.68465 2.87786 0
M  V30 4785 H 440.07 5.74692 3.61809 0
M  V30 4786 H 438.016 4.08865 5.12997 0
M  V30 4787 H 437.933 5.79738 4.85222 0
M  V30 4788 H 439.201 5.15113 5.85046 0
M  V30 4789 N 443.43 -0.535701 1.48216 0
M  V30 4790 C 444.378 -1.66179 1.62749 0
M  V30 4791 C 445.372 -1.62034 0.49409 0
M  V30 4792 O 446.578 -1.6696 0.672624 0
M  V30 4793 H 442.953 -0.550244 0.512578 0
M  V30 4794 H 444.924 -1.51063 2.57337 0
M  V30 4795 C 443.673 -3.04471 1.67907 0
M  V30 4796 H 442.996 -3.08351 2.54479 0
M  V30 4797 H 444.436 -3.82894 1.82121 0
M  V30 4798 C 442.895 -3.34314 0.416596 0
M  V30 4799 O 443.425 -3.98905 -0.473014 0
M  V30 4800 N 441.631 -2.89149 0.290038 0
M  V30 4801 H 441.178 -2.36764 1.01493 0
M  V30 4802 H 441.136 -3.09486 -0.55367 0
M  V30 4803 N 444.908 -1.36708 -0.784132 0
M  V30 4804 C 446.185 -1.21776 -1.53069 0
M  V30 4805 C 446.565 0.193876 -2.10208 0
M  V30 4806 O 445.913 1.20012 -1.94446 0
M  V30 4807 C 446.123 -2.30395 -2.62143 0
M  V30 4808 C 447.471 -2.67325 -3.29882 0
M  V30 4809 O 448.495 -2.29478 -2.7243 0
M  V30 4810 O 447.354 -3.32485 -4.33724 0
M  V30 4811 H 444.448 -0.474459 -0.677361 0
M  V30 4812 H 446.994 -1.48454 -0.82216 0
M  V30 4813 H 445.766 -3.2498 -2.17953 0
M  V30 4814 H 445.389 -2.05112 -3.40609 0
M  V30 4815 N 446.386 1.0089 -1.21074 0
M  V30 4816 C 447.316 2.1145 -0.990523 0
M  V30 4817 C 448.297 1.69897 0.0831699 0
M  V30 4818 O 449.482 1.94052 -0.0758853 0
M  V30 4819 C 446.612 3.42914 -0.550177 0
M  V30 4820 C 445.566 3.98244 -1.56799 0
M  V30 4821 C 444.892 5.25568 -0.984013 0
M  V30 4822 C 446.192 4.30752 -2.95381 0
M  V30 4823 H 447.886 2.3013 -1.91521 0
M  V30 4824 H 445.432 1.10592 -0.92225 0
M  V30 4825 H 447.385 4.19653 -0.383305 0
M  V30 4826 H 446.109 3.24014 0.41015 0
M  V30 4827 H 444.768 3.23621 -1.72236 0
M  V30 4828 H 444.416 5.02998 -0.0155216 0
M  V30 4829 H 444.116 5.63551 -1.66384 0
M  V30 4830 H 445.64 6.04955 -0.828378 0
M  V30 4831 H 447.054 4.98349 -2.8341 0
M  V30 4832 H 445.451 4.79869 -3.60341 0
M  V30 4833 H 446.521 3.39192 -3.46521 0
M  V30 4834 N 447.864 1.01787 1.20321 0
M  V30 4835 C 448.827 0.593972 2.2137 0
M  V30 4836 C 449.827 -0.336553 1.57239 0
M  V30 4837 O 451.017 -0.125069 1.7375 0
M  V30 4838 C 448.149 -0.132433 3.40643 0
M  V30 4839 H 449.342 1.48791 2.60387 0
M  V30 4840 H 446.895 0.807803 1.33807 0
M  V30 4841 H 447.63 -1.04123 3.0713 0
M  V30 4842 H 447.415 0.53605 3.88418 0
M  V30 4843 H 448.905 -0.416314 4.1552 0
M  V30 4844 N 449.342 -1.36122 0.79427 0
M  V30 4845 C 450.305 -2.28309 0.201889 0
M  V30 4846 C 451.305 -1.49041 -0.603603 0
M  V30 4847 O 452.495 -1.68964 -0.423888 0
M  V30 4848 C 449.627 -3.3321 -0.719978 0
M  V30 4849 H 450.82 -2.82208 1.01481 0
M  V30 4850 H 448.373 -1.45768 0.564037 0
M  V30 4851 H 449.108 -2.84475 -1.55706 0
M  V30 4852 H 448.893 -3.91835 -0.144266 0
M  V30 4853 H 450.383 -4.02044 -1.12916 0
M  V30 4854 N 450.82 -0.546701 -1.47814 0
M  V30 4855 C 452.069 -0.0166497 -2.01693 0
M  V30 4856 C 452.382 1.33721 -1.42752 0
M  V30 4857 O 453.588 1.95658 -1.8823 0
M  V30 4858 C 452.044 0.0206769 -3.59894 0
M  V30 4859 C 451.652 -1.3293 -4.27824 0
M  V30 4860 C 453.396 0.498674 -4.21561 0
M  V30 4861 C 451.303 -1.25165 -5.78003 0
M  V30 4862 H 450.233 -0.0024541 -0.753996 0
M  V30 4863 H 452.884 -0.692984 -1.69912 0
M  V30 4864 H 451.266 0.76244 -3.88591 0
M  V30 4865 H 452.44 -2.08795 -4.10781 0
M  V30 4866 H 450.755 -1.74438 -3.78101 0
M  V30 4867 H 453.352 0.575 -5.31599 0
M  V30 4868 H 453.695 1.5083 -3.88016 0
M  V30 4869 H 454.228 -0.18791 -3.97356 0
M  V30 4870 H 450.967 -2.23695 -6.1615 0
M  V30 4871 H 450.487 -0.53464 -5.97412 0
M  V30 4872 H 452.166 -0.949299 -6.39998 0
M  V30 4873 N 452.299 1.55045 -0.282633 0
M  V30 4874 C 453.209 2.26491 0.61147 0
M  V30 4875 C 454.225 1.29348 1.16384 0
M  V30 4876 O 455.401 1.62298 1.19253 0
M  V30 4877 C 452.466 2.97779 1.77563 0
M  V30 4878 C 451.527 4.10418 1.25919 0
M  V30 4879 C 450.76 4.78297 2.36786 0
M  V30 4880 O 450.983 4.45426 3.56303 0
M  V30 4881 O 449.917 5.66089 2.04517 0
M  V30 4882 H 453.743 3.03683 0.0324615 0
M  V30 4883 H 451.328 1.49317 -0.0497576 0
M  V30 4884 H 453.21 3.42554 2.45427 0
M  V30 4885 H 451.885 2.23498 2.34159 0
M  V30 4886 H 450.792 3.70082 0.546797 0
M  V30 4887 H 452.125 4.86622 0.738887 0
M  V30 4888 N 453.777 0.010035 1.57597 0
M  V30 4889 C 454.725 -0.996272 2.10184 0
M  V30 4890 C 455.719 -1.34942 1.02406 0
M  V30 4891 O 456.925 -1.33389 1.20861 0
M  V30 4892 H 453.3 -0.338982 0.671264 0
M  V30 4893 H 455.271 -0.527272 2.93705 0
M  V30 4894 C 454.02 -2.27599 2.62857 0
M  V30 4895 H 453.343 -2.01295 3.45428 0
M  V30 4896 H 454.783 -2.96265 3.0332 0
M  V30 4897 C 453.242 -2.99269 1.54725 0
M  V30 4898 O 453.772 -3.90644 0.93597 0
M  V30 4899 N 451.978 -2.61269 1.27228 0
M  V30 4900 H 451.525 -1.87043 1.77123 0
M  V30 4901 H 451.483 -3.09534 0.550999 0
M  V30 4902 N 455.255 -1.55392 -0.262866 0
M  V30 4903 C 456.485 -1.80251 -1.00961 0
M  V30 4904 C 456.893 -0.58117 -1.80053 0
M  V30 4905 O 456.236 0.459427 -1.77862 0
M  V30 4906 C 456.298 -2.98207 -2.00781 0
M  V30 4907 C 455.962 -4.34856 -1.40533 0
M  V30 4908 C 456.959 -5.13459 -0.815853 0
M  V30 4909 C 454.644 -4.8153 -1.42948 0
M  V30 4910 C 456.638 -6.36875 -0.258562 0
M  V30 4911 C 454.325 -6.04899 -0.868334 0
M  V30 4912 C 455.323 -6.8241 -0.283884 0
M  V30 4913 O 455.011 -8.03451 0.268644 0
M  V30 4914 H 454.743 -0.604049 -0.303482 0
M  V30 4915 H 457.297 -2.03257 -0.295926 0
M  V30 4916 H 455.527 -2.70917 -2.75936 0
M  V30 4917 H 457.216 -3.10299 -2.61667 0
M  V30 4918 H 457.982 -4.78526 -0.789812 0
M  V30 4919 H 453.861 -4.21201 -1.87378 0
M  V30 4920 H 457.405 -6.97318 0.198257 0
M  V30 4921 H 453.302 -6.39312 -0.891649 0
M  V30 4922 H 454.07 -8.18346 0.158974 0
M  V30 4923 N 456.733 0.527833 -1.48498 0
M  V30 4924 C 457.663 1.64136 -1.66077 0
M  V30 4925 C 458.644 1.62286 -0.509625 0
M  V30 4926 O 459.829 1.79449 -0.742413 0
M  V30 4927 C 456.959 3.02717 -1.70234 0
M  V30 4928 C 455.913 3.19426 -2.8487 0
M  V30 4929 C 455.239 4.5909 -2.74118 0
M  V30 4930 C 456.539 3.01993 -4.26142 0
M  V30 4931 H 458.233 1.4968 -2.593 0
M  V30 4932 H 455.779 0.718654 -1.24785 0
M  V30 4933 H 457.732 3.80491 -1.8112 0
M  V30 4934 H 456.456 3.18201 -0.735911 0
M  V30 4935 H 455.115 2.4407 -2.73542 0
M  V30 4936 H 454.763 4.71413 -1.7544 0
M  V30 4937 H 454.463 4.71214 -3.51042 0
M  V30 4938 H 455.987 5.3896 -2.86974 0
M  V30 4939 H 457.401 3.69558 -4.38292 0
M  V30 4940 H 455.798 3.2561 -5.04082 0
M  V30 4941 H 456.868 1.98396 -4.42456 0
M  V30 4942 N 458.211 1.37122 0.776871 0
M  V30 4943 C 459.159 1.32549 1.91138 0
M  V30 4944 C 460.153 0.215119 1.68029 0
M  V30 4945 O 461.359 0.382852 1.75881 0
M  V30 4946 H 457.734 0.412952 0.62847 0
M  V30 4947 H 459.705 2.28332 1.92112 0
M  V30 4948 C 458.454 1.14422 3.28333 0
M  V30 4949 H 457.777 1.99115 3.46689 0
M  V30 4950 H 459.217 1.15272 4.0803 0
M  V30 4951 C 457.676 -0.150434 3.36564 0
M  V30 4952 O 458.206 -1.13584 3.85307 0
M  V30 4953 N 456.412 -0.19939 2.89915 0
M  V30 4954 H 455.959 0.603142 2.5044 0
M  V30 4955 H 455.917 -1.06526 2.95803 0
M  V30 4956 N 459.689 -1.00246 1.21608 0
M  V30 4957 C 460.636 -2.09073 0.977613 0
M  V30 4958 C 461.606 -1.65815 -0.097297 0
M  V30 4959 O 462.791 -1.90734 0.0503445 0
M  V30 4960 C 459.931 -3.40671 0.551133 0
M  V30 4961 C 459.044 -3.97326 1.69576 0
M  V30 4962 C 458.179 -5.17043 1.2182 0
M  V30 4963 C 457.218 -5.65813 2.335 0
M  V30 4964 N 456.355 -6.76778 1.86859 0
M  V30 4965 H 461.195 -2.28806 1.90924 0
M  V30 4966 H 458.732 -1.12186 0.951452 0
M  V30 4967 H 460.69 -4.16225 0.285097 0
M  V30 4968 H 459.32 -3.20967 -0.343489 0
M  V30 4969 H 458.372 -3.18734 2.07637 0
M  V30 4970 H 459.684 -4.29511 2.53617 0
M  V30 4971 H 458.838 -5.99852 0.908975 0
M  V30 4972 H 457.577 -4.86458 0.347869 0
M  V30 4973 H 456.582 -4.81599 2.65222 0
M  V30 4974 H 457.807 -5.98427 3.21033 0
M  V30 4975 H 455.753 -6.47994 1.02174 0
M  V30 4976 H 455.67 -7.08231 2.64471 0
M  V30 4977 H 456.938 -7.63116 1.58978 0
M  V30 4978 N 461.167 -1.02423 -1.1978 0
M  V30 4979 C 462.395 -0.737456 -1.93311 0
M  V30 4980 C 462.81 0.703023 -1.75223 0
M  V30 4981 O 462.167 1.47761 -1.07112 0
M  V30 4982 C 462.218 -1.0733 -3.45199 0
M  V30 4983 O 461.939 -2.4572 -3.62702 0
M  V30 4984 C 463.44 -0.80866 -4.35862 0
M  V30 4985 H 460.66 -0.2702 -0.614193 0
M  V30 4986 H 463.204 -1.36747 -1.52054 0
M  V30 4987 H 461.359 -0.488545 -3.84307 0
M  V30 4988 H 461.773 -2.58081 -4.56612 0
M  V30 4989 H 463.247 -1.09365 -5.41057 0
M  V30 4990 H 463.724 0.257025 -4.38447 0
M  V30 4991 H 464.33 -1.37592 -4.02428 0
M  V30 4992 N 462.645 1.35699 -0.801477 0
M  V30 4993 C 463.87 2.03687 -0.390678 0
M  V30 4994 C 464.295 1.60015 0.988778 0
M  V30 4995 O 463.653 0.774357 1.63931 0
M  V30 4996 C 463.701 3.57439 -0.476404 0
M  V30 4997 O 462.805 4.09208 0.512106 0
M  V30 4998 H 462.146 0.64344 -0.163956 0
M  V30 4999 H 464.676 1.73403 -1.08594 0
M  V30 5000 H 464.686 4.06544 -0.344357 0
M  V30 5001 H 463.361 3.88576 -1.48262 0
M  V30 5002 H 461.938 3.7134 0.340721 0
M  V30 5003 N 464.123 0.554532 1.47522 0
M  V30 5004 C 465.369 0.0377449 2.03365 0
M  V30 5005 C 465.724 -1.29654 1.42154 0
M  V30 5006 O 465.017 -1.83022 0.566865 0
M  V30 5007 C 465.211 -0.115927 3.57212 0
M  V30 5008 C 465.04 1.20191 4.33341 0
M  V30 5009 C 463.81 1.76849 4.73342 0
M  V30 5010 C 466.008 2.11849 4.68641 0
M  V30 5011 N 463.99 3.02665 5.34104 0
M  V30 5012 C 465.361 3.22245 5.29677 0
M  V30 5013 C 467.416 2.11876 4.5057 0
M  V30 5014 C 466.119 4.32763 5.74551 0
M  V30 5015 C 468.145 3.21405 4.9644 0
M  V30 5016 C 467.507 4.30519 5.57523 0
M  V30 5017 H 463.606 0.0559107 0.779999 0
M  V30 5018 H 466.19 0.741232 1.80038 0
M  V30 5019 H 464.361 -0.788533 3.80311 0
M  V30 5020 H 466.093 -0.634538 3.99695 0
M  V30 5021 H 462.848 1.30681 4.55214 0
M  V30 5022 H 463.272 3.66788 5.69031 0
M  V30 5023 H 467.914 1.28801 4.02704 0
M  V30 5024 H 465.632 5.166 6.2141 0
M  V30 5025 H 469.218 3.22509 4.8423 0
M  V30 5026 H 468.098 5.13873 5.92371 0
M  V30 5027 N 465.601 -1.54893 0.290851 0
M  V30 5028 C 466.549 -2.24579 -0.605576 0
M  V30 5029 C 467.543 -1.24824 -1.14522 0
M  V30 5030 O 468.749 -1.42706 -1.09704 0
M  V30 5031 H 465.124 -0.720946 -0.213872 0
M  V30 5032 H 467.095 -2.984 0.0048173 0
M  V30 5033 C 465.844 -2.99224 -1.77088 0
M  V30 5034 H 465.167 -3.75782 -1.36484 0
M  V30 5035 H 466.607 -3.51281 -2.3744 0
M  V30 5036 C 465.066 -2.05602 -2.66888 0
M  V30 5037 O 465.596 -1.61745 -3.67698 0
M  V30 5038 N 463.802 -1.71771 -2.34399 0
M  V30 5039 H 463.349 -2.07633 -1.52468 0
M  V30 5040 H 463.307 -1.09403 -2.94751 0
M  V30 5041 N 467.08 -0.0183926 -1.57589 0
M  V30 5042 C 468.03 0.975944 -2.06057 0
M  V30 5043 C 469.014 1.29204 -0.958908 0
M  V30 5044 O 470.206 1.27995 -1.22255 0
M  V30 5045 C 467.335 2.26194 -2.58247 0
M  V30 5046 C 466.421 1.97467 -3.75323 0
M  V30 5047 N 466.812 1.38968 -4.86335 0
M  V30 5048 C 465.11 2.27515 -3.83605 0
M  V30 5049 C 465.811 1.27131 -5.67638 0
M  V30 5050 N 464.787 1.76319 -5.14211 0
M  V30 5051 H 468.589 0.518444 -2.89291 0
M  V30 5052 H 466.103 0.18688 -1.61321 0
M  V30 5053 H 468.1 2.98289 -2.91255 0
M  V30 5054 H 466.76 2.7258 -1.76438 0
M  V30 5055 H 467.771 1.06608 -5.06809 0
M  V30 5056 H 464.448 2.76649 -3.12684 0
M  V30 5057 H 465.838 0.819882 -6.66879 0
M  V30 5058 N 468.558 1.5553 0.254621 0
M  V30 5059 C 469.783 1.81383 1.00573 0
M  V30 5060 C 470.208 0.594419 1.78461 0
M  V30 5061 O 469.566 -0.456403 1.75461 0
M  V30 5062 C 469.614 3.04892 1.92545 0
M  V30 5063 O 468.718 2.81266 3.01601 0
M  V30 5064 H 468.059 0.598969 0.286587 0
M  V30 5065 H 470.589 2.02703 0.277952 0
M  V30 5066 H 470.599 3.34119 2.34155 0
M  V30 5067 H 469.274 3.93287 1.3527 0
M  V30 5068 H 467.851 2.63185 2.64174 0
M  V30 5069 N 470.036 -0.519951 1.48776 0
M  V30 5070 C 471.282 -1.27711 1.57536 0
M  V30 5071 C 471.615 -1.92547 0.252866 0
M  V30 5072 O 470.89 -1.7979 -0.742021 0
M  V30 5073 C 471.173 -2.35875 2.72094 0
M  V30 5074 C 471.026 -1.75664 4.1408 0
M  V30 5075 C 472.345 -3.37575 2.82367 0
M  V30 5076 H 469.464 -0.462971 0.573434 0
M  V30 5077 H 472.106 -0.578194 1.80989 0
M  V30 5078 H 470.256 -2.95488 2.52228 0
M  V30 5079 H 471.928 -1.20025 4.45412 0
M  V30 5080 H 470.171 -1.06154 4.20611 0
M  V30 5081 H 470.842 -2.54029 4.90075 0
M  V30 5082 H 473.318 -2.87929 3.00393 0
M  V30 5083 H 472.194 -4.1064 3.64233 0
M  V30 5084 H 472.455 -3.98743 1.90936 0
M  V30 5085 N 471.514 -1.37532 -0.769588 0
M  V30 5086 C 472.761 -1.3286 -1.52822 0
M  V30 5087 C 473.089 0.0862597 -1.94309 0
M  V30 5088 O 472.344 1.05995 -1.6451 0
M  V30 5089 C 472.643 -2.21558 -2.8044 0
M  V30 5090 C 472.309 -3.69796 -2.57996 0
M  V30 5091 C 470.971 -4.10194 -2.51583 0
M  V30 5092 C 473.323 -4.63699 -2.37976 0
M  V30 5093 C 470.651 -5.42608 -2.23144 0
M  V30 5094 C 473.003 -5.96353 -2.1106 0
M  V30 5095 C 471.667 -6.35853 -2.03093 0
M  V30 5096 H 470.937 -0.486168 -0.559215 0
M  V30 5097 H 473.584 -1.69757 -0.886277 0
M  V30 5098 H 471.889 -1.77663 -3.49204 0
M  V30 5099 H 473.586 -2.15256 -3.38328 0
M  V30 5100 H 470.176 -3.37759 -2.63851 0
M  V30 5101 H 474.36 -4.33346 -2.41919 0
M  V30 5102 H 469.616 -5.72173 -2.15472 0
M  V30 5103 H 473.79 -6.68667 -1.94568 0
M  V30 5104 H 471.417 -7.38382 -1.8082 0
M  V30 5105 N 472.992 0.995999 -1.22138 0
M  V30 5106 C 474.269 1.70834 -0.952642 0
M  V30 5107 C 474.649 2.04257 0.533119 0
M  V30 5108 O 473.997 1.72343 1.50034 0
M  V30 5109 C 474.207 2.96119 -1.84701 0
M  V30 5110 C 475.555 3.68962 -2.10124 0
M  V30 5111 O 476.579 3.0612 -1.82124 0
M  V30 5112 O 475.438 4.82017 -2.57531 0
M  V30 5113 H 472.532 0.745498 -0.357997 0
M  V30 5114 H 475.078 1.05262 -1.33109 0
M  V30 5115 H 473.85 2.67898 -2.85213 0
M  V30 5116 H 473.473 3.6943 -1.46995 0
M  V30 5117 N 474.47 1.03057 1.19235 0
M  V30 5118 C 475.716 0.729098 1.89241 0
M  V30 5119 C 476.049 -0.740573 1.79525 0
M  V30 5120 O 475.324 -1.53946 1.18874 0
M  V30 5121 C 475.607 1.18304 3.40112 0
M  V30 5122 C 475.46 2.71406 3.5869 0
M  V30 5123 C 476.779 0.765161 4.33397 0
M  V30 5124 H 473.898 0.266338 0.687192 0
M  V30 5125 H 476.54 1.28079 1.40341 0
M  V30 5126 H 474.69 0.713672 3.81889 0
M  V30 5127 H 476.362 3.26303 3.26074 0
M  V30 5128 H 474.605 3.11717 3.01687 0
M  V30 5129 H 475.276 2.98225 4.64506 0
M  V30 5130 H 477.752 1.16889 3.99345 0
M  V30 5131 H 476.628 1.11065 5.37546 0
M  V30 5132 H 476.889 -0.332372 4.40849 0
M  V30 5133 N 475.948 -1.35272 0.808662 0
M  V30 5134 C 477.359 -1.81179 0.450688 0
M  V30 5135 C 477.71 -1.67143 -1.02751 0
M  V30 5136 O 476.835 -1.20325 -1.79864 0
M  V30 5137 C 477.43 -3.28943 0.811275 0
M  V30 5138 C 475.989 -3.72985 0.505871 0
M  V30 5139 C 475.136 -2.57229 1.03578 0
M  V30 5140 H 478.087 -1.2322 1.00012 0
M  V30 5141 H 478.108 -3.80342 0.109588 0
M  V30 5142 H 477.62 -3.39127 1.88718 0
M  V30 5143 H 475.721 -3.68349 -0.561209 0
M  V30 5144 H 475.834 -4.67677 1.03995 0
M  V30 5145 H 474.198 -2.50548 0.458005 0
M  V30 5146 H 474.981 -2.7019 2.11784 0
M  V30 5147 N 477.426 -0.562348 -1.47226 0
M  V30 5148 C 478.356 0.170627 -2.32876 0
M  V30 5149 C 479.337 0.903748 -1.44106 0
M  V30 5150 O 480.522 0.883206 -1.72954 0
M  V30 5151 C 477.652 1.19786 -3.25989 0
M  V30 5152 C 476.606 0.580875 -4.2404 0
M  V30 5153 C 475.932 1.71311 -5.06514 0
M  V30 5154 C 477.232 -0.468714 -5.20193 0
M  V30 5155 H 478.926 -0.544441 -2.94408 0
M  V30 5156 H 476.472 -0.263271 -1.41573 0
M  V30 5157 H 478.425 1.71884 -3.84752 0
M  V30 5158 H 477.149 1.94294 -2.62521 0
M  V30 5159 H 475.808 0.0811538 -3.6651 0
M  V30 5160 H 475.456 2.44736 -4.39447 0
M  V30 5161 H 475.156 1.30604 -5.72902 0
M  V30 5162 H 476.68 2.23725 -5.68137 0
M  V30 5163 H 478.094 -0.0336028 -5.7329 0
M  V30 5164 H 476.491 -0.794957 -5.94811 0
M  V30 5165 H 477.561 -1.36269 -4.65359 0
M  V30 5166 N 478.904 1.54736 -0.299062 0
M  V30 5167 C 479.854 2.20155 0.592932 0
M  V30 5168 C 480.838 1.1739 1.10038 0
M  V30 5169 O 482.03 1.43116 1.04147 0
M  V30 5170 C 479.159 2.94437 1.76527 0
M  V30 5171 C 478.245 4.04516 1.27388 0
M  V30 5172 N 478.636 5.03319 0.500339 0
M  V30 5173 C 476.934 4.18022 1.55478 0
M  V30 5174 C 477.635 5.81209 0.238909 0
M  V30 5175 N 476.611 5.37408 0.818163 0
M  V30 5176 H 480.413 2.93899 -0.00563596 0
M  V30 5177 H 477.927 1.62068 -0.103732 0
M  V30 5178 H 479.924 3.3977 2.41582 0
M  V30 5179 H 478.584 2.22209 2.36756 0
M  V30 5180 H 479.595 5.17696 0.145419 0
M  V30 5181 H 476.272 3.56998 2.16469 0
M  V30 5182 H 477.662 6.70812 -0.382223 0
M  V30 5183 N 480.382 0.0267497 1.57577 0
M  V30 5184 C 481.612 -0.6617 1.95717 0
M  V30 5185 C 482.02 -1.66331 0.901706 0
M  V30 5186 O 481.363 -1.83273 -0.125241 0
M  V30 5187 C 481.425 -1.42649 3.29987 0
M  V30 5188 C 481.089 -0.583482 4.5326 0
M  V30 5189 C 482.086 0.140221 5.19711 0
M  V30 5190 C 479.771 -0.521581 4.99585 0
M  V30 5191 C 481.765 0.914523 6.30805 0
M  V30 5192 C 479.452 0.256428 6.10562 0
M  V30 5193 C 480.45 0.973189 6.76031 0
M  V30 5194 O 480.138 1.73845 7.84878 0
M  V30 5195 H 479.87 -0.187483 0.649481 0
M  V30 5196 H 482.424 0.0820847 2.05236 0
M  V30 5197 H 480.654 -2.21536 3.16952 0
M  V30 5198 H 482.343 -2.00282 3.53047 0
M  V30 5199 H 483.109 0.101716 4.84893 0
M  V30 5200 H 478.988 -1.06904 4.48433 0
M  V30 5201 H 482.532 1.4745 6.81839 0
M  V30 5202 H 478.429 0.296657 6.44818 0
M  V30 5203 H 479.197 1.65797 8.01532 0
M  V30 5204 N 481.861 -1.55662 -0.24637 0
M  V30 5205 C 482.809 -1.91186 -1.3248 0
M  V30 5206 C 483.803 -0.790996 -1.49799 0
M  V30 5207 O 485.009 -0.975617 -1.51267 0
M  V30 5208 H 481.384 -0.607207 -0.443626 0
M  V30 5209 H 483.355 -2.81221 -0.997853 0
M  V30 5210 C 482.104 -2.22349 -2.67313 0
M  V30 5211 H 481.427 -3.08097 -2.54786 0
M  V30 5212 H 482.867 -2.51107 -3.41645 0
M  V30 5213 C 481.326 -1.04001 -3.20446 0
M  V30 5214 O 481.856 -0.28828 -4.00664 0
M  V30 5215 N 480.062 -0.830494 -2.7848 0
M  V30 5216 H 479.609 -1.4435 -2.13356 0
M  V30 5217 H 479.567 -0.0403258 -3.14374 0
M  V30 5218 N 483.339 0.512053 -1.4905 0
M  V30 5219 C 484.269 1.62365 -1.67809 0
M  V30 5220 C 485.25 1.61737 -0.526809 0
M  V30 5221 O 486.435 1.78651 -0.761404 0
M  V30 5222 C 483.565 3.00895 -1.73435 0
M  V30 5223 C 482.519 3.16387 -2.88242 0
M  V30 5224 C 481.845 4.56157 -2.78971 0
M  V30 5225 C 483.145 2.97457 -4.29321 0
M  V30 5226 H 484.839 1.46921 -2.60873 0
M  V30 5227 H 482.385 0.705379 -1.2554 0
M  V30 5228 H 484.338 3.78549 -1.85145 0
M  V30 5229 H 483.062 3.17403 -0.769619 0
M  V30 5230 H 481.721 2.41155 -2.76116 0
M  V30 5231 H 481.369 4.69525 -1.8043 0
M  V30 5232 H 481.069 4.67465 -3.5602 0
M  V30 5233 H 482.593 5.35886 -2.92675 0
M  V30 5234 H 484.007 3.64888 -4.42187 0
M  V30 5235 H 482.404 3.20245 -5.07507 0
M  V30 5236 H 483.474 1.93692 -4.44535 0
M  V30 5237 N 484.817 1.37938 0.762283 0
M  V30 5238 C 486.047 1.36685 1.54922 0
M  V30 5239 C 486.455 -0.0474099 1.89141 0
M  V30 5240 O 485.798 -1.02213 1.52638 0
M  V30 5241 C 485.86 2.14963 2.88152 0
M  V30 5242 C 485.524 3.6385 2.76518 0
M  V30 5243 C 486.521 4.57531 2.46904 0
M  V30 5244 C 484.206 4.07095 2.94243 0
M  V30 5245 C 486.2 5.92436 2.35156 0
M  V30 5246 C 483.887 5.42083 2.82116 0
M  V30 5247 C 484.885 6.34567 2.52614 0
M  V30 5248 O 484.573 7.67073 2.40529 0
M  V30 5249 H 484.305 0.469586 0.486276 0
M  V30 5250 H 486.859 1.82012 0.951876 0
M  V30 5251 H 485.089 1.6434 3.50042 0
M  V30 5252 H 486.778 2.06224 3.49609 0
M  V30 5253 H 487.544 4.25428 2.32886 0
M  V30 5254 H 483.423 3.35462 3.16206 0
M  V30 5255 H 486.967 6.64591 2.12049 0
M  V30 5256 H 482.864 5.73785 2.95704 0
M  V30 5257 H 483.632 7.77499 2.55807 0
M  V30 5258 N 486.295 -0.989507 1.22664 0
M  V30 5259 C 487.243 -2.10148 0.997035 0
M  V30 5260 C 488.237 -1.6929 -0.0609783 0
M  V30 5261 O 489.443 -1.79766 0.0917523 0
M  V30 5262 H 485.818 -0.687256 0.305259 0
M  V30 5263 H 487.789 -2.26685 1.94053 0
M  V30 5264 C 486.538 -3.4257 0.595085 0
M  V30 5265 H 485.861 -3.74453 1.40089 0
M  V30 5266 H 487.301 -4.21344 0.473869 0
M  V30 5267 C 485.76 -3.29638 -0.695725 0
M  V30 5268 O 486.29 -3.61709 -1.74727 0
M  V30 5269 N 484.496 -2.82814 -0.668173 0
M  V30 5270 H 484.043 -2.56914 0.18787 0
M  V30 5271 H 484.001 -2.74544 -1.5321 0
M  V30 5272 N 487.773 -1.03688 -1.18687 0
M  V30 5273 C 488.736 -0.629115 -2.20397 0
M  V30 5274 C 489.736 0.311495 -1.57754 0
M  V30 5275 O 490.926 0.0974107 -1.73927 0
M  V30 5276 C 488.058 0.0782231 -3.4081 0
M  V30 5277 H 489.251 -1.52915 -2.57987 0
M  V30 5278 H 486.804 -0.828988 -1.32505 0
M  V30 5279 H 487.539 0.992233 -3.08748 0
M  V30 5280 H 487.324 -0.597776 -3.87517 0
M  V30 5281 H 488.814 0.350156 -4.16129 0
M  V30 5282 N 489.251 1.34841 -0.815825 0
M  V30 5283 C 490.476 2.03261 -0.41226 0
M  V30 5284 C 490.901 1.61055 0.971751 0
M  V30 5285 O 490.259 0.7917 1.63101 0
M  V30 5286 C 490.307 3.56914 -0.514289 0
M  V30 5287 O 489.411 4.09728 0.468675 0
M  V30 5288 H 488.752 0.641664 -0.170771 0
M  V30 5289 H 491.282 1.72241 -1.10427 0
M  V30 5290 H 491.292 4.06156 -0.387457 0
M  V30 5291 H 489.967 3.86982 -1.52375 0
M  V30 5292 H 488.544 3.71681 0.301316 0
M  V30 5293 N 490.729 0.570148 1.46925 0
M  V30 5294 C 491.677 -0.183181 2.31878 0
M  V30 5295 C 492.671 -0.896721 1.43719 0
M  V30 5296 O 493.877 -0.816536 1.60414 0
M  V30 5297 H 490.252 -0.077944 0.74795 0
M  V30 5298 H 492.223 0.552312 2.93244 0
M  V30 5299 C 490.972 -1.19172 3.2664 0
M  V30 5300 H 490.295 -0.652088 3.94446 0
M  V30 5301 H 491.735 -1.68946 3.88887 0
M  V30 5302 C 490.194 -2.24627 2.51086 0
M  V30 5303 O 490.724 -3.31773 2.26472 0
M  V30 5304 N 488.93 -1.98898 2.11867 0
M  V30 5305 H 488.477 -1.11777 2.32086 0
M  V30 5306 H 488.435 -2.6967 1.61634 0
M  V30 5307 N 492.207 -1.54576 0.307264 0
M  V30 5308 C 493.432 -2.05139 -0.305379 0
M  V30 5309 C 493.857 -1.18278 -1.46259 0
M  V30 5310 O 493.215 -0.188243 -1.8032 0
M  V30 5311 C 493.263 -3.53066 -0.733283 0
M  V30 5312 O 492.367 -3.69206 -1.83741 0
M  V30 5313 H 491.708 -0.661444 -0.0582105 0
M  V30 5314 H 494.238 -1.99569 0.450931 0
M  V30 5315 H 494.248 -3.95034 -1.02039 0
M  V30 5316 H 492.923 -4.15746 0.113198 0
M  V30 5317 H 491.5 -3.39143 -1.55037 0
M  V30 5318 N 493.685 -0.035106 -1.57561 0
M  V30 5319 C 494.933 0.64096 -1.91667 0
M  V30 5320 C 495.254 1.72323 -0.912681 0
M  V30 5321 O 494.524 1.95849 0.0449089 0
M  V30 5322 H 493.104 0.239743 -0.707483 0
M  V30 5323 H 495.766 -0.084321 -1.94718 0
M  V30 5324 H 494.862 1.08987 -2.92452 0
M  V30 5325 N 495.163 1.55791 0.238111 0
M  V30 5326 C 496.411 1.77681 0.963001 0
M  V30 5327 C 496.732 0.600674 1.85518 0
M  V30 5328 O 496.002 -0.383182 1.92116 0
M  V30 5329 H 494.582 0.655315 0.358568 0
M  V30 5330 H 497.244 1.93239 0.253945 0
M  V30 5331 H 496.34 2.69177 1.57956 0
M  V30 5332 N 496.642 -0.504142 1.49319 0
M  V30 5333 C 497.872 -1.28071 1.62116 0
M  V30 5334 C 498.28 -1.86955 0.290566 0
M  V30 5335 O 497.623 -1.68415 -0.733616 0
M  V30 5336 C 497.685 -2.4521 2.62893 0
M  V30 5337 C 497.349 -2.07218 4.0732 0
M  V30 5338 C 498.346 -1.61375 4.94221 0
M  V30 5339 C 496.031 -2.16949 4.53033 0
M  V30 5340 C 498.025 -1.25763 6.2487 0
M  V30 5341 C 495.712 -1.80949 5.83696 0
M  V30 5342 C 496.71 -1.3543 6.69438 0
M  V30 5343 O 496.398 -0.99915 7.97667 0
M  V30 5344 H 496.13 -0.394763 0.54876 0
M  V30 5345 H 498.684 -0.612118 1.96067 0
M  V30 5346 H 496.914 -3.15134 2.24115 0
M  V30 5347 H 498.603 -3.0724 2.65252 0
M  V30 5348 H 499.369 -1.53306 4.60133 0
M  V30 5349 H 495.248 -2.5133 3.86463 0
M  V30 5350 H 498.792 -0.901631 6.91749 0
M  V30 5351 H 494.689 -1.88667 6.17313 0
M  V30 5352 H 495.457 -1.13089 8.1065 0
M  V30 5353 N 498.12 -1.38341 -0.754957 0
M  V30 5354 C 499.367 -1.34473 -1.51404 0
M  V30 5355 C 499.695 0.0656458 -1.94389 0
M  V30 5356 O 498.95 1.04244 -1.65625 0
M  V30 5357 C 499.249 -2.2452 -2.78075 0
M  V30 5358 C 498.915 -3.72512 -2.54059 0
M  V30 5359 C 497.577 -4.1284 -2.47218 0
M  V30 5360 C 499.929 -4.66197 -2.33044 0
M  V30 5361 C 497.257 -5.44945 -2.17376 0
M  V30 5362 C 499.609 -5.98558 -2.04723 0
M  V30 5363 C 498.273 -6.37972 -1.96337 0
M  V30 5364 H 497.543 -0.492072 -0.554027 0
M  V30 5365 H 500.19 -1.70687 -0.868223 0
M  V30 5366 H 498.495 -1.81357 -3.473 0
M  V30 5367 H 500.192 -2.18832 -3.36026 0
M  V30 5368 H 496.782 -3.40538 -2.60253 0
M  V30 5369 H 500.966 -4.35888 -2.37309 0
M  V30 5370 H 496.222 -5.74426 -2.09391 0
M  V30 5371 H 500.396 -6.70693 -1.87465 0
M  V30 5372 H 498.023 -7.40258 -1.72978 0
M  V30 5373 N 499.598 0.982988 -1.23187 0
M  V30 5374 C 500.875 1.69814 -0.970707 0
M  V30 5375 C 501.255 2.04811 0.511424 0
M  V30 5376 O 500.603 1.73924 1.48198 0
M  V30 5377 C 500.813 2.94143 -1.87831 0
M  V30 5378 C 502.161 3.66712 -2.14026 0
M  V30 5379 O 503.185 3.04171 -1.8536 0
M  V30 5380 O 502.044 4.79258 -2.62629 0
M  V30 5381 H 499.138 0.741659 -0.365884 0
M  V30 5382 H 501.684 1.03844 -1.34218 0
M  V30 5383 H 500.456 2.64858 -2.88038 0
M  V30 5384 H 500.079 3.6785 -1.50905 0
M  V30 5385 N 501.076 1.04316 1.18135 0
M  V30 5386 C 502.009 0.580823 2.20685 0
M  V30 5387 C 502.987 -0.385943 1.57953 0
M  V30 5388 O 504.171 -0.299654 1.86103 0
M  V30 5389 C 501.298 -0.151162 3.38363 0
M  V30 5390 C 500.344 0.769247 4.19505 0
M  V30 5391 S 501.177 2.25352 4.85774 0
M  V30 5392 C 502.333 1.53246 6.0685 0
M  V30 5393 H 502.566 1.44968 2.5956 0
M  V30 5394 H 500.099 0.85434 1.28609 0
M  V30 5395 H 502.057 -0.567315 4.06561 0
M  V30 5396 H 500.718 -0.995936 2.97892 0
M  V30 5397 H 499.911 0.203335 5.0359 0
M  V30 5398 H 499.513 1.12436 3.56699 0
M  V30 5399 H 501.805 0.82689 6.72435 0
M  V30 5400 H 502.748 2.35044 6.67952 0
M  V30 5401 H 503.156 1.0237 5.5514 0
M  V30 5402 N 502.554 -1.34406 0.822964 0
M  V30 5403 C 503.97 -1.51275 0.508727 0
M  V30 5404 C 504.17 -1.76776 -0.967083 0
M  V30 5405 O 503.226 -1.81871 -1.75155 0
M  V30 5406 C 504.539 -2.67765 1.36829 0
M  V30 5407 C 506.087 -2.81647 1.36542 0
M  V30 5408 C 506.562 -4.01181 2.20947 0
M  V30 5409 N 508.053 -4.08388 2.18571 0
M  V30 5410 C 508.788 -5.00036 2.80627 0
M  V30 5411 N 508.284 -5.96906 3.51674 0
M  V30 5412 N 510.077 -4.92908 2.70181 0
M  V30 5413 H 502.228 -1.16113 1.77852 0
M  V30 5414 H 504.491 -0.56947 0.757897 0
M  V30 5415 H 504.197 -2.55551 2.41633 0
M  V30 5416 H 504.071 -3.62779 1.03303 0
M  V30 5417 H 506.458 -2.93303 0.325163 0
M  V30 5418 H 506.539 -1.87443 1.74066 0
M  V30 5419 H 506.183 -3.90286 3.25022 0
M  V30 5420 H 506.113 -4.94599 1.80774 0
M  V30 5421 H 508.604 -3.39051 1.66891 0
M  V30 5422 H 508.917 -6.63468 3.96271 0
M  V30 5423 H 507.262 -5.9703 3.5578 0
M  V30 5424 H 510.453 -4.1619 2.14251 0
M  V30 5425 H 510.626 -5.64137 3.18831 0
M  V30 5426 N 504.032 -0.577932 -1.46621 0
M  V30 5427 C 504.98 0.170882 -2.31971 0
M  V30 5428 C 505.974 0.889086 -1.44193 0
M  V30 5429 O 507.18 0.808017 -1.60845 0
M  V30 5430 H 503.555 0.0739763 -0.748353 0
M  V30 5431 H 505.526 -0.567856 -2.92947 0
M  V30 5432 C 504.275 1.17438 -3.27267 0
M  V30 5433 H 503.598 0.63116 -3.94787 0
M  V30 5434 H 505.038 1.66882 -3.89778 0
M  V30 5435 C 503.497 2.23292 -2.52274 0
M  V30 5436 O 504.027 3.30567 -2.28229 0
M  V30 5437 N 502.233 1.97772 -2.12919 0
M  V30 5438 H 501.78 1.10545 -2.32675 0
M  V30 5439 H 501.738 2.68809 -1.63062 0
M  V30 5440 N 505.51 1.54411 -0.315457 0
M  V30 5441 C 506.759 1.99599 0.290395 0
M  V30 5442 C 507.072 1.20746 1.53882 0
M  V30 5443 O 508.278 1.56272 2.22017 0
M  V30 5444 C 506.734 3.5539 0.56797 0
M  V30 5445 C 506.342 4.43068 -0.662945 0
M  V30 5446 C 508.086 4.09067 1.13422 0
M  V30 5447 C 505.993 5.90317 -0.357722 0
M  V30 5448 H 504.923 0.745592 0.112286 0
M  V30 5449 H 507.574 1.78477 -0.426418 0
M  V30 5450 H 505.956 3.72468 1.34476 0
M  V30 5451 H 507.13 4.37765 -1.43869 0
M  V30 5452 H 505.445 4.00238 -1.14884 0
M  V30 5453 H 508.042 5.16663 1.37707 0
M  V30 5454 H 508.385 3.60552 2.08106 0
M  V30 5455 H 508.918 3.95589 0.418805 0
M  V30 5456 H 505.657 6.4301 -1.27351 0
M  V30 5457 H 505.177 5.98592 0.380472 0
M  V30 5458 H 506.856 6.4699 0.0354284 0
M  V30 5459 N 506.988 0.0434614 1.5754 0
M  V30 5460 C 507.918 -0.931651 2.14109 0
M  V30 5461 C 508.899 -1.32971 1.06079 0
M  V30 5462 O 510.084 -1.40579 1.33982 0
M  V30 5463 C 507.214 -2.20914 2.67982 0
M  V30 5464 C 506.168 -1.95139 3.80926 0
M  V30 5465 C 505.494 -3.29276 4.21285 0
M  V30 5466 C 506.794 -1.27913 5.06395 0
M  V30 5467 H 508.488 -0.460497 2.95837 0
M  V30 5468 H 506.034 -0.220058 1.42309 0
M  V30 5469 H 507.987 -2.89522 3.06194 0
M  V30 5470 H 506.711 -2.70221 1.83434 0
M  V30 5471 H 505.37 -1.28945 3.43175 0
M  V30 5472 H 505.018 -3.76369 3.33699 0
M  V30 5473 H 504.718 -3.12831 4.97404 0
M  V30 5474 H 506.242 -3.99129 4.62091 0
M  V30 5475 H 507.656 -1.86544 5.42102 0
M  V30 5476 H 506.053 -1.2182 5.87605 0
M  V30 5477 H 507.123 -0.254066 4.84234 0
M  V30 5478 N 508.466 -1.55915 -0.229846 0
M  V30 5479 C 509.414 -1.9258 -1.30444 0
M  V30 5480 C 510.408 -0.806839 -1.48951 0
M  V30 5481 O 511.614 -0.991606 -1.50224 0
M  V30 5482 H 507.989 -0.611878 -0.437161 0
M  V30 5483 H 509.96 -2.82264 -0.96797 0
M  V30 5484 C 508.709 -2.25171 -2.6494 0
M  V30 5485 H 508.032 -3.10782 -2.51504 0
M  V30 5486 H 509.472 -2.54716 -3.38963 0
M  V30 5487 C 507.931 -1.07394 -3.19324 0
M  V30 5488 O 508.461 -0.330759 -4.00336 0
M  V30 5489 N 506.667 -0.859984 -2.77584 0
M  V30 5490 H 506.214 -1.46605 -2.11813 0
M  V30 5491 H 506.172 -0.0736671 -3.14314 0
M  V30 5492 N 509.944 0.496216 -1.49584 0
M  V30 5493 C 511.192 1.24756 -1.58998 0
M  V30 5494 C 511.513 1.92968 -0.280775 0
M  V30 5495 O 510.783 1.82959 0.700198 0
M  V30 5496 H 509.363 0.463471 -0.585836 0
M  V30 5497 H 512.025 0.574678 -1.86235 0
M  V30 5498 H 511.121 2.00895 -2.38847 0
M  V30 5499 N 511.423 1.38739 0.74761 0
M  V30 5500 C 512.648 1.38702 1.54197 0
M  V30 5501 C 513.073 -0.019664 1.8809 0
M  V30 5502 O 512.431 -1.00333 1.51006 0
M  V30 5503 C 512.479 2.25492 2.814 0
M  V30 5504 O 511.583 1.67613 3.76802 0
M  V30 5505 H 510.924 0.472863 0.466151 0
M  V30 5506 H 513.454 1.82577 0.923413 0
M  V30 5507 H 513.464 2.39561 3.30264 0
M  V30 5508 H 512.139 3.27727 2.56062 0
M  V30 5509 H 510.716 1.62718 3.35526 0
M  V30 5510 N 512.901 -0.976442 1.23707 0
M  V30 5511 C 514.147 -1.72081 1.07312 0
M  V30 5512 C 514.48 -1.90275 -0.388476 0
M  V30 5513 O 513.755 -1.4579 -1.28746 0
M  V30 5514 C 514.038 -3.11675 1.80363 0
M  V30 5515 C 513.891 -3.01027 3.3422 0
M  V30 5516 C 515.21 -4.1117 1.5693 0
M  V30 5517 H 512.329 -0.624583 0.391236 0
M  V30 5518 H 514.971 -1.13649 1.52263 0
M  V30 5519 H 513.121 -3.61559 1.42153 0
M  V30 5520 H 514.793 -2.58637 3.81975 0
M  V30 5521 H 513.036 -2.3744 3.63049 0
M  V30 5522 H 513.707 -3.9988 3.80525 0
M  V30 5523 H 516.183 -3.7011 1.90151 0
M  V30 5524 H 515.059 -5.06928 2.10513 0
M  V30 5525 H 515.32 -4.392 0.505548 0
M  V30 5526 N 514.379 -1.04941 -1.1758 0
M  V30 5527 C 515.625 -0.759112 -1.88057 0
M  V30 5528 C 515.958 0.711918 -1.8068 0
M  V30 5529 O 515.233 1.52035 -1.21308 0
M  V30 5530 C 515.516 -1.237 -3.38187 0
M  V30 5531 C 515.369 -2.77078 -3.54327 0
M  V30 5532 C 516.688 -0.834014 -4.32125 0
M  V30 5533 H 513.807 -0.277237 -0.682868 0
M  V30 5534 H 516.449 -1.30296 -1.38286 0
M  V30 5535 H 514.599 -0.774337 -3.80705 0
M  V30 5536 H 516.271 -3.31449 -3.20842 0
M  V30 5537 H 514.514 -3.16477 -2.96689 0
M  V30 5538 H 515.185 -3.05577 -4.59703 0
M  V30 5539 H 517.661 -1.23228 -3.97434 0
M  V30 5540 H 516.537 -1.19603 -5.35711 0
M  V30 5541 H 516.798 0.262195 -4.41322 0
M  V30 5542 N 515.857 1.33968 -0.830081 0
M  V30 5543 C 516.789 2.28194 -0.21448 0
M  V30 5544 C 517.802 1.5135 0.599752 0
M  V30 5545 O 518.991 1.73286 0.42826 0
M  V30 5546 C 516.091 3.31221 0.717356 0
M  V30 5547 C 515.264 4.37365 -0.055613 0
M  V30 5548 C 514.323 5.2011 0.798231 0
M  V30 5549 O 513.349 5.68691 0.240616 0
M  V30 5550 N 514.551 5.40523 2.11695 0
M  V30 5551 H 517.316 2.81662 -1.02405 0
M  V30 5552 H 514.877 1.46568 -0.687713 0
M  V30 5553 H 516.869 3.83477 1.29334 0
M  V30 5554 H 515.439 2.78095 1.42765 0
M  V30 5555 H 514.659 3.85727 -0.812936 0
M  V30 5556 H 515.947 5.05397 -0.587444 0
M  V30 5557 H 515.345 5.0274 2.59363 0
M  V30 5558 H 513.902 5.95871 2.64162 0
M  V30 5559 N 517.335 0.585699 1.46312 0
M  V30 5560 C 518.282 -0.145835 2.30339 0
M  V30 5561 C 519.252 -0.881215 1.40797 0
M  V30 5562 O 520.437 -0.871293 1.69744 0
M  V30 5563 C 517.577 -1.15161 3.25318 0
M  V30 5564 C 516.69 -0.419367 4.2996 0
M  V30 5565 C 515.825 -1.41293 5.12064 0
M  V30 5566 C 514.864 -0.667261 6.08452 0
M  V30 5567 N 514.001 -1.60903 6.83414 0
M  V30 5568 H 518.841 0.576755 2.92365 0
M  V30 5569 H 516.378 0.296237 1.44086 0
M  V30 5570 H 518.336 -1.74763 3.78832 0
M  V30 5571 H 516.966 -1.84188 2.65094 0
M  V30 5572 H 516.018 0.291751 3.7928 0
M  V30 5573 H 517.33 0.163433 4.98532 0
M  V30 5574 H 516.484 -2.08167 5.6987 0
M  V30 5575 H 515.223 -2.02966 4.43459 0
M  V30 5576 H 514.228 0.0152356 5.49798 0
M  V30 5577 H 515.453 -0.0558817 6.79077 0
M  V30 5578 H 513.399 -2.21381 6.17516 0
M  V30 5579 H 513.316 -1.07911 7.48259 0
M  V30 5580 H 514.584 -2.26802 7.45775 0
M  V30 5581 N 518.813 -1.54241 0.323641 0
M  V30 5582 C 519.763 -2.21071 -0.557833 0
M  V30 5583 C 520.747 -1.19126 -1.08157 0
M  V30 5584 O 521.939 -1.44755 -1.01857 0
M  V30 5585 C 519.068 -2.97208 -1.71821 0
M  V30 5586 C 518.154 -4.06491 -1.20936 0
M  V30 5587 N 518.545 -5.04052 -0.420202 0
M  V30 5588 C 516.843 -4.20443 -1.48808 0
M  V30 5589 C 517.544 -5.81516 -0.146413 0
M  V30 5590 N 516.52 -5.38641 -0.732562 0
M  V30 5591 H 520.322 -2.93853 0.0523921 0
M  V30 5592 H 517.836 -1.61883 0.129502 0
M  V30 5593 H 519.833 -3.4357 -2.36146 0
M  V30 5594 H 518.493 -2.25947 -2.33191 0
M  V30 5595 H 519.504 -5.17862 -0.0630401 0
M  V30 5596 H 516.181 -3.60396 -2.10762 0
M  V30 5597 H 517.571 -6.70119 0.488895 0
M  V30 5598 N 520.291 -0.0518155 -1.57515 0
M  V30 5599 C 521.702 0.483787 -1.80323 0
M  V30 5600 C 522.053 1.70879 -0.964099 0
M  V30 5601 O 521.178 2.15643 -0.180872 0
M  V30 5602 C 521.773 0.884459 -3.27052 0
M  V30 5603 C 520.332 1.36504 -3.50776 0
M  V30 5604 C 519.479 0.340539 -2.75201 0
M  V30 5605 H 522.43 -0.277691 -1.56252 0
M  V30 5606 H 522.451 1.74733 -3.38007 0
M  V30 5607 H 521.963 -0.00731093 -3.88099 0
M  V30 5608 H 520.064 2.27598 -2.95009 0
M  V30 5609 H 520.177 1.35675 -4.59488 0
M  V30 5610 H 518.541 0.81356 -2.41357 0
M  V30 5611 H 519.324 -0.543156 -3.38976 0
M  V30 5612 N 521.769 1.56035 0.221574 0
M  V30 5613 C 523.018 1.78245 0.944016 0
M  V30 5614 C 523.331 0.620371 1.85501 0
M  V30 5615 O 524.537 0.726103 2.6161 0
M  V30 5616 C 522.993 3.15659 1.7288 0
M  V30 5617 C 522.601 4.39591 0.863942 0
M  V30 5618 C 524.345 3.47195 2.44246 0
M  V30 5619 C 522.252 5.6803 1.64607 0
M  V30 5620 H 521.182 0.664547 0.356222 0
M  V30 5621 H 523.833 1.8243 0.197904 0
M  V30 5622 H 522.215 3.0565 2.51781 0
M  V30 5623 H 523.389 4.60655 0.115464 0
M  V30 5624 H 521.704 4.15572 0.262407 0
M  V30 5625 H 524.301 4.40381 3.03263 0
M  V30 5626 H 524.644 2.69693 3.1713 0
M  V30 5627 H 525.177 3.58533 1.72334 0
M  V30 5628 H 521.916 6.48425 0.960507 0
M  V30 5629 H 521.436 5.51027 2.36917 0
M  V30 5630 H 523.115 6.08203 2.20675 0
M  V30 5631 N 523.247 -0.488276 1.49845 0
M  V30 5632 C 524.197 -1.58556 1.63842 0
M  V30 5633 C 525.181 -1.53142 0.493586 0
M  V30 5634 O 526.373 -1.60457 0.747169 0
M  V30 5635 C 523.502 -2.97101 1.72005 0
M  V30 5636 C 522.588 -3.07463 2.92108 0
M  V30 5637 N 522.979 -2.87681 4.16021 0
M  V30 5638 C 521.277 -3.3858 2.90309 0
M  V30 5639 C 521.978 -3.0256 4.96822 0
M  V30 5640 N 520.954 -3.32002 4.30437 0
M  V30 5641 H 524.756 -1.41935 2.57355 0
M  V30 5642 H 522.27 -0.694668 1.46793 0
M  V30 5643 H 524.267 -3.75976 1.80132 0
M  V30 5644 H 522.927 -3.14782 0.796375 0
M  V30 5645 H 523.938 -2.63603 4.45796 0
M  V30 5646 H 520.615 -3.62357 2.07372 0
M  V30 5647 H 522.005 -2.9165 6.05301 0
M  V30 5648 N 524.725 -1.39134 -0.740242 0
M  V30 5649 C 525.688 -1.37217 -1.83587 0
M  V30 5650 C 526.688 -0.270221 -1.58513 0
M  V30 5651 O 527.878 -0.527843 -1.6601 0
M  V30 5652 C 525.01 -1.13959 -3.21288 0
M  V30 5653 H 526.203 -2.34705 -1.86691 0
M  V30 5654 H 523.756 -1.24622 -0.94335 0
M  V30 5655 H 524.491 -0.17131 -3.23847 0
M  V30 5656 H 524.276 -1.93754 -3.40884 0
M  V30 5657 H 525.766 -1.15346 -4.01354 0
M  V30 5658 N 526.204 0.969867 -1.24223 0
M  V30 5659 C 527.45 1.7151 -1.08223 0
M  V30 5660 C 527.783 1.90478 0.37838 0
M  V30 5661 O 527.058 1.4647 1.27971 0
M  V30 5662 C 527.341 3.10714 -1.82013 0
M  V30 5663 C 527.194 2.9925 -3.35811 0
M  V30 5664 C 528.513 4.10332 -1.59108 0
M  V30 5665 H 525.632 0.622499 -0.394543 0
M  V30 5666 H 528.274 1.1284 -1.52863 0
M  V30 5667 H 526.424 3.608 -1.44068 0
M  V30 5668 H 528.096 2.56608 -3.83341 0
M  V30 5669 H 526.339 2.35512 -3.64303 0
M  V30 5670 H 527.01 3.97857 -3.82641 0
M  V30 5671 H 529.486 3.69097 -1.92111 0
M  V30 5672 H 528.362 5.05804 -2.13198 0
M  V30 5673 H 528.623 4.38926 -0.528832 0
M  V30 5674 N 527.682 1.05563 1.17022 0
M  V30 5675 C 528.91 0.78845 1.91288 0
M  V30 5676 C 529.325 -0.656318 1.77025 0
M  V30 5677 O 528.682 -1.44869 1.10992 0
M  V30 5678 C 528.733 1.16444 3.42232 0
M  V30 5679 O 528.454 2.5525 3.5606 0
M  V30 5680 C 529.955 0.923937 4.33565 0
M  V30 5681 H 527.175 0.286389 0.606813 0
M  V30 5682 H 529.719 1.4073 1.48375 0
M  V30 5683 H 527.874 0.590266 3.82877 0
M  V30 5684 H 528.288 2.70097 4.49609 0
M  V30 5685 H 529.762 1.23672 5.37968 0
M  V30 5686 H 530.239 -0.140688 4.38975 0
M  V30 5687 H 530.845 1.48214 3.98639 0
M  V30 5688 N 529.16 -1.33526 0.837174 0
M  V30 5689 C 530.407 -1.97837 0.432064 0
M  V30 5690 C 530.735 -1.66324 -1.00829 0
M  V30 5691 O 529.99 -0.93448 -1.71948 0
M  V30 5692 C 530.289 -3.52367 0.597675 0
M  V30 5693 C 529.955 -4.03826 2.00587 0
M  V30 5694 C 528.617 -4.1759 2.39106 0
M  V30 5695 C 530.969 -4.31333 2.92576 0
M  V30 5696 C 528.297 -4.56195 3.68921 0
M  V30 5697 C 530.649 -4.7139 4.2187 0
M  V30 5698 C 529.313 -4.8336 4.60347 0
M  V30 5699 H 528.583 -0.723937 0.158104 0
M  V30 5700 H 531.23 -1.5923 1.06387 0
M  V30 5701 H 529.535 -3.91624 -0.117452 0
M  V30 5702 H 531.232 -4.00126 0.26454 0
M  V30 5703 H 527.822 -3.93586 1.69671 0
M  V30 5704 H 532.006 -4.20224 2.64056 0
M  V30 5705 H 527.262 -4.63655 3.9854 0
M  V30 5706 H 531.436 -4.91631 4.93226 0
M  V30 5707 H 529.063 -5.1303 5.60985 0
M  V30 5708 N 530.638 -0.59345 -1.46 0
M  V30 5709 C 531.884 -0.0832754 -2.02629 0
M  V30 5710 C 532.217 1.27749 -1.46266 0
M  V30 5711 O 531.492 1.8395 -0.631866 0
M  V30 5712 C 531.775 -0.0290756 -3.60088 0
M  V30 5713 C 531.628 -1.41951 -4.26814 0
M  V30 5714 C 532.947 0.666055 -4.35031 0
M  V30 5715 H 530.066 -0.031736 -0.736316 0
M  V30 5716 H 532.708 -0.762711 -1.74019 0
M  V30 5717 H 530.858 0.549532 -3.84594 0
M  V30 5718 H 532.53 -2.04411 -4.13538 0
M  V30 5719 H 530.773 -1.98422 -3.8576 0
M  V30 5720 H 531.444 -1.33395 -5.3564 0
M  V30 5721 H 533.92 0.174401 -4.15734 0
M  V30 5722 H 532.796 0.673041 -5.44758 0
M  V30 5723 H 533.057 1.72946 -4.06869 0
M  V30 5724 N 532.116 1.54067 -0.331816 0
M  V30 5725 C 533.393 1.92915 0.322955 0
M  V30 5726 C 533.773 1.26225 1.69205 0
M  V30 5727 O 533.121 0.408919 2.24811 0
M  V30 5728 C 533.331 3.46619 0.406946 0
M  V30 5729 C 534.679 4.19386 0.663339 0
M  V30 5730 O 535.703 3.5282 0.489536 0
M  V30 5731 O 534.562 5.37288 0.999193 0
M  V30 5732 H 531.656 0.805808 0.186016 0
M  V30 5733 H 534.202 1.65342 -0.382135 0
M  V30 5734 H 532.974 3.87354 -0.554287 0
M  V30 5735 H 532.597 3.80324 1.15929 0
M  V30 5736 N 533.594 0.0601682 1.57485 0
M  V30 5737 C 534.542 -0.928899 2.13247 0
M  V30 5738 C 535.536 -1.31616 1.06647 0
M  V30 5739 O 536.742 -1.29476 1.25043 0
M  V30 5740 H 533.117 -0.317455 0.681708 0
M  V30 5741 H 535.088 -0.433566 2.95233 0
M  V30 5742 C 533.837 -2.19121 2.69965 0
M  V30 5743 H 533.16 -1.90204 3.51657 0
M  V30 5744 H 534.6 -2.86465 3.12592 0
M  V30 5745 C 533.059 -2.94195 1.64168 0
M  V30 5746 O 533.589 -3.87468 1.05978 0
M  V30 5747 N 531.795 -2.57089 1.35476 0
M  V30 5748 H 531.342 -1.81314 1.82984 0
M  V30 5749 H 531.3 -3.07624 0.649196 0
M  V30 5750 N 535.072 -1.5615 -0.213296 0
M  V30 5751 C 536.022 -1.89485 -1.26804 0
M  V30 5752 C 537.006 -0.758713 -1.41889 0
M  V30 5753 O 538.198 -1.02127 -1.44565 0
M  V30 5754 C 535.327 -2.22219 -2.61675 0
M  V30 5755 C 534.413 -3.42245 -2.50458 0
M  V30 5756 N 534.804 -4.60645 -2.089 0
M  V30 5757 C 533.102 -3.46023 -2.81397 0
M  V30 5758 C 533.803 -5.42805 -2.09135 0
M  V30 5759 N 532.779 -4.82732 -2.49941 0
M  V30 5760 H 536.581 -2.78537 -0.937771 0
M  V30 5761 H 534.095 -1.56826 -0.421824 0
M  V30 5762 H 536.092 -2.44278 -3.37837 0
M  V30 5763 H 534.752 -1.34484 -2.95541 0
M  V30 5764 H 535.763 -4.85651 -1.79899 0
M  V30 5765 H 532.44 -2.68654 -3.1958 0
M  V30 5766 H 533.83 -6.47601 -1.79059 0
M  V30 5767 N 536.55 0.480323 -1.50102 0
M  V30 5768 C 537.827 1.24159 -1.51142 0
M  V30 5769 C 538.207 2.09605 -0.250818 0
M  V30 5770 O 537.555 2.15274 0.766118 0
M  V30 5771 C 537.765 2.08057 -2.80202 0
M  V30 5772 C 539.113 2.66556 -3.30504 0
M  V30 5773 O 540.137 2.18308 -2.81461 0
M  V30 5774 O 538.996 3.54442 -4.15973 0
M  V30 5775 H 536.09 0.562928 -0.605839 0
M  V30 5776 H 538.636 0.492899 -1.62384 0
M  V30 5777 H 537.408 1.45032 -3.6343 0
M  V30 5778 H 537.031 2.90079 -2.71919 0
M  V30 5779 N 538.028 1.39524 0.732853 0
M  V30 5780 C 539.253 1.40329 1.52717 0
M  V30 5781 C 539.678 0.000286574 1.881 0
M  V30 5782 O 539.036 -0.987262 1.52062 0
M  V30 5783 C 539.084 2.28464 2.78992 0
M  V30 5784 O 538.188 1.716 3.75003 0
M  V30 5785 H 537.529 0.47778 0.461109 0
M  V30 5786 H 540.059 1.83546 0.903996 0
M  V30 5787 H 540.069 2.43051 3.27705 0
M  V30 5788 H 538.744 3.30425 2.52572 0
M  V30 5789 H 537.321 1.66267 3.33781 0
M  V30 5790 N 539.506 -0.963266 1.24736 0
M  V30 5791 C 540.438 -2.06162 1.0015 0
M  V30 5792 C 541.451 -1.62771 -0.0305905 0
M  V30 5793 O 542.64 -1.77296 0.206966 0
M  V30 5794 C 539.74 -3.35333 0.490385 0
M  V30 5795 C 538.913 -4.07609 1.58663 0
M  V30 5796 C 537.972 -5.15052 1.0774 0
M  V30 5797 O 536.998 -5.4098 1.77002 0
M  V30 5798 N 538.2 -5.80436 -0.0858605 0
M  V30 5799 H 540.965 -2.27825 1.94719 0
M  V30 5800 H 538.526 -1.13121 1.15825 0
M  V30 5801 H 540.518 -4.04477 0.134371 0
M  V30 5802 H 539.088 -3.10507 -0.361155 0
M  V30 5803 H 538.308 -3.32681 2.11463 0
M  V30 5804 H 539.596 -4.52656 2.32336 0
M  V30 5805 H 538.994 -5.6178 -0.664806 0
M  V30 5806 H 537.551 -6.50674 -0.382981 0
M  V30 5807 N 540.985 -1.06182 -1.16461 0
M  V30 5808 C 542.396 -0.802426 -1.68576 0
M  V30 5809 C 542.747 0.67412 -1.84255 0
M  V30 5810 O 541.872 1.52303 -1.5373 0
M  V30 5811 C 542.467 -1.45002 -3.06202 0
M  V30 5812 C 541.026 -1.23843 -3.55443 0
M  V30 5813 C 540.173 -1.52724 -2.31454 0
M  V30 5814 H 543.124 -1.22545 -1.00839 0
M  V30 5815 H 543.145 -0.864731 -3.70544 0
M  V30 5816 H 542.657 -2.52466 -2.94759 0
M  V30 5817 H 540.758 -0.183487 -3.72148 0
M  V30 5818 H 540.871 -1.95036 -4.37604 0
M  V30 5819 H 539.235 -0.947726 -2.36411 0
M  V30 5820 H 540.018 -2.61343 -2.22609 0
M  V30 5821 N 542.463 1.3308 -0.844243 0
M  V30 5822 C 543.711 1.97215 -0.441676 0
M  V30 5823 C 544.032 1.67185 1.0037 0
M  V30 5824 O 543.302 0.973588 1.69994 0
M  V30 5825 H 541.882 0.72959 -0.160335 0
M  V30 5826 H 544.544 1.62348 -1.07838 0
M  V30 5827 H 543.64 3.06698 -0.57815 0
M  V30 5828 N 543.941 0.601185 1.45683 0
M  V30 5829 C 544.851 -0.123395 2.34275 0
M  V30 5830 C 545.867 -0.86702 1.5086 0
M  V30 5831 O 547.043 -0.826049 1.8368 0
M  V30 5832 C 544.108 -1.11237 3.2837 0
M  V30 5833 C 543.169 -0.371405 4.2769 0
M  V30 5834 C 542.402 -1.31327 5.1729 0
M  V30 5835 O 542.625 -2.55078 5.10188 0
M  V30 5836 O 541.559 -0.813811 5.96373 0
M  V30 5837 H 545.385 0.604483 2.97623 0
M  V30 5838 H 542.97 0.361477 1.44961 0
M  V30 5839 H 544.852 -1.68214 3.8637 0
M  V30 5840 H 543.527 -1.82139 2.67595 0
M  V30 5841 H 542.434 0.24067 3.73325 0
M  V30 5842 H 543.767 0.296998 4.91303 0
M  V30 5843 N 545.419 -1.53889 0.339982 0
M  V30 5844 C 546.382 -2.23547 -0.50592 0
M  V30 5845 C 547.382 -1.23445 -1.03044 0
M  V30 5846 O 548.572 -1.47909 -0.920253 0
M  V30 5847 C 545.704 -2.95234 -1.7044 0
M  V30 5848 H 546.897 -2.99722 0.103247 0
M  V30 5849 H 544.45 -1.56033 0.0912804 0
M  V30 5850 H 545.185 -2.23236 -2.35236 0
M  V30 5851 H 544.97 -3.68654 -1.33553 0
M  V30 5852 H 546.46 -3.48258 -2.30447 0
M  V30 5853 N 546.897 -0.0685191 -1.57451 0
M  V30 5854 C 547.827 0.89747 -2.15564 0
M  V30 5855 C 548.808 1.31266 -1.08181 0
M  V30 5856 O 549.993 1.38429 -1.36202 0
M  V30 5857 C 547.123 2.16623 -2.71463 0
M  V30 5858 C 546.077 1.89054 -3.83982 0
M  V30 5859 C 545.403 3.22532 -4.26471 0
M  V30 5860 C 546.703 1.1984 -5.08366 0
M  V30 5861 H 548.397 0.413373 -2.96533 0
M  V30 5862 H 545.943 0.197391 -1.42641 0
M  V30 5863 H 547.896 2.84614 -3.10761 0
M  V30 5864 H 546.62 2.67269 -1.8771 0
M  V30 5865 H 545.279 1.23469 -3.45183 0
M  V30 5866 H 544.927 3.71013 -3.39644 0
M  V30 5867 H 544.627 3.04879 -5.02317 0
M  V30 5868 H 546.151 3.91727 -4.68383 0
M  V30 5869 H 547.565 1.77896 -5.45001 0
M  V30 5870 H 545.962 1.12456 -5.89469 0
M  V30 5871 H 547.032 0.176996 -4.84577 0
M  V30 5872 N 548.375 1.56261 0.205012 0
M  V30 5873 C 549.285 1.96944 1.27476 0
M  V30 5874 C 550.301 0.875636 1.50362 0
M  V30 5875 O 551.477 1.18058 1.6317 0
M  V30 5876 C 548.542 2.29219 2.60115 0
M  V30 5877 C 547.603 3.52255 2.45387 0
M  V30 5878 C 546.836 3.8298 3.71701 0
M  V30 5879 O 547.059 3.15138 4.75441 0
M  V30 5880 O 545.993 4.76435 3.67823 0
M  V30 5881 H 549.819 2.88144 0.959527 0
M  V30 5882 H 547.404 1.43686 0.409217 0
M  V30 5883 H 549.286 2.51098 3.3842 0
M  V30 5884 H 547.961 1.4119 2.91285 0
M  V30 5885 H 546.868 3.35635 1.65227 0
M  V30 5886 H 548.201 4.40719 2.19152 0
M  V30 5887 N 549.853 -0.472356 1.50355 0
M  V30 5888 C 551.078 -1.25251 1.65309 0
M  V30 5889 C 551.503 -1.85081 0.335643 0
M  V30 5890 O 550.861 -1.67227 -0.700335 0
M  V30 5891 C 550.909 -2.3379 2.74544 0
M  V30 5892 O 550.013 -3.38401 2.35709 0
M  V30 5893 H 549.354 -0.368539 0.552336 0
M  V30 5894 H 551.884 -0.562271 1.96722 0
M  V30 5895 H 551.894 -2.79121 2.97583 0
M  V30 5896 H 550.569 -1.89614 3.70161 0
M  V30 5897 H 549.146 -2.9879 2.23112 0
M  V30 5898 N 551.331 -1.39911 -0.725443 0
M  V30 5899 C 552.578 -1.37654 -1.48518 0
M  V30 5900 C 552.906 0.0243982 -1.94485 0
M  V30 5901 O 552.161 1.00708 -1.67799 0
M  V30 5902 C 552.46 -2.30368 -2.7325 0
M  V30 5903 C 552.126 -3.77817 -2.461 0
M  V30 5904 C 550.788 -4.17991 -2.38405 0
M  V30 5905 C 553.14 -4.71036 -2.23103 0
M  V30 5906 C 550.468 -5.49433 -2.05768 0
M  V30 5907 C 552.82 -6.02766 -1.9198 0
M  V30 5908 C 551.484 -6.41993 -1.82761 0
M  V30 5909 H 550.754 -0.503713 -0.543465 0
M  V30 5910 H 553.401 -1.7249 -0.831822 0
M  V30 5911 H 551.706 -1.88683 -3.43375 0
M  V30 5912 H 553.403 -2.2591 -3.31309 0
M  V30 5913 H 549.993 -3.45982 -2.52972 0
M  V30 5914 H 554.177 -4.40823 -2.2801 0
M  V30 5915 H 549.433 -5.78738 -1.9716 0
M  V30 5916 H 553.607 -6.74519 -1.73197 0
M  V30 5917 H 551.234 -7.43761 -1.57237 0
M  V30 5918 N 552.809 0.956637 -1.25245 0
M  V30 5919 C 554.055 1.70352 -1.10036 0
M  V30 5920 C 554.388 1.90869 0.358156 0
M  V30 5921 O 553.663 1.47819 1.26411 0
M  V30 5922 C 553.946 3.08766 -1.85298 0
M  V30 5923 C 553.799 2.95672 -3.38966 0
M  V30 5924 C 555.118 4.08622 -1.63451 0
M  V30 5925 H 552.237 0.618279 -0.401123 0
M  V30 5926 H 554.879 1.11212 -1.54051 0
M  V30 5927 H 553.029 3.59252 -1.47887 0
M  V30 5928 H 554.701 2.52527 -3.86041 0
M  V30 5929 H 552.944 2.31634 -3.6678 0
M  V30 5930 H 553.615 3.93776 -3.86839 0
M  V30 5931 H 556.091 3.67038 -1.96015 0
M  V30 5932 H 554.967 5.03514 -2.18551 0
M  V30 5933 H 555.228 4.3834 -0.575357 0
M  V30 5934 N 554.287 1.06798 1.15896 0
M  V30 5935 C 555.219 0.641263 2.20046 0
M  V30 5936 C 556.232 -0.303355 1.59949 0
M  V30 5937 O 557.421 -0.0935478 1.78255 0
M  V30 5938 C 554.521 -0.0794029 3.38807 0
M  V30 5939 C 553.694 0.879986 4.28457 0
M  V30 5940 C 552.753 0.197638 5.25829 0
M  V30 5941 O 551.779 0.836913 5.63014 0
M  V30 5942 N 552.981 -1.05886 5.70761 0
M  V30 5943 H 555.746 1.53718 2.57276 0
M  V30 5944 H 553.307 0.951951 1.30956 0
M  V30 5945 H 555.299 -0.546418 4.00994 0
M  V30 5946 H 553.869 -0.877193 3.0004 0
M  V30 5947 H 553.089 1.52625 3.63454 0
M  V30 5948 H 554.377 1.53065 4.8523 0
M  V30 5949 H 553.775 -1.59828 5.42652 0
M  V30 5950 H 552.332 -1.46965 6.35015 0
M  V30 5951 N 555.766 -1.3263 0.851289 0
M  V30 5952 C 556.991 -2.02097 0.466006 0
M  V30 5953 C 557.416 -1.63574 -0.928709 0
M  V30 5954 O 556.774 -0.834665 -1.60944 0
M  V30 5955 C 556.822 -3.55425 0.608737 0
M  V30 5956 O 555.926 -4.10827 -0.359878 0
M  V30 5957 H 555.267 -0.636911 0.187724 0
M  V30 5958 H 557.797 -1.69253 1.14955 0
M  V30 5959 H 557.807 -4.04986 0.495006 0
M  V30 5960 H 556.482 -3.82806 1.62581 0
M  V30 5961 H 555.059 -3.72349 -0.202666 0
M  V30 5962 N 557.244 -0.608902 -1.45362 0
M  V30 5963 C 558.49 -0.113196 -2.03085 0
M  V30 5964 C 558.845 1.24288 -1.46868 0
M  V30 5965 O 558.138 1.80792 -0.634402 0
M  V30 5966 C 558.332 -0.0167296 -3.57396 0
M  V30 5967 C 558.161 -1.36191 -4.28581 0
M  V30 5968 C 556.931 -1.94295 -4.66452 0
M  V30 5969 C 559.129 -2.29097 -4.60455 0
M  V30 5970 N 557.111 -3.2228 -5.22503 0
M  V30 5971 C 558.482 -3.41681 -5.17353 0
M  V30 5972 C 560.537 -2.28453 -4.42395 0
M  V30 5973 C 559.24 -4.53789 -5.58093 0
M  V30 5974 C 561.266 -3.39608 -4.8417 0
M  V30 5975 C 560.628 -4.50915 -5.41161 0
M  V30 5976 H 556.727 -0.0848213 -0.777386 0
M  V30 5977 H 559.311 -0.807541 -1.77163 0
M  V30 5978 H 557.482 0.646839 -3.82976 0
M  V30 5979 H 559.214 0.485757 -4.01774 0
M  V30 5980 H 555.969 -1.47486 -4.5005 0
M  V30 5981 H 556.393 -3.87654 -5.55025 0
M  V30 5982 H 561.035 -1.43658 -3.97646 0
M  V30 5983 H 558.753 -5.39307 -6.01808 0
M  V30 5984 H 562.339 -3.40259 -4.71927 0
M  V30 5985 H 561.219 -5.35505 -5.72891 0
M  V30 5986 N 558.722 1.53707 -0.348139 0
M  V30 5987 C 559.969 2.00988 0.246966 0
M  V30 5988 C 560.297 1.23586 1.50189 0
M  V30 5989 O 559.552 0.312817 1.93184 0
M  V30 5990 C 559.851 3.52292 0.602061 0
M  V30 5991 C 559.517 4.47453 -0.556509 0
M  V30 5992 C 558.179 4.73188 -0.874446 0
M  V30 5993 C 560.531 5.03851 -1.33354 0
M  V30 5994 C 557.859 5.52577 -1.9717 0
M  V30 5995 C 560.211 5.84437 -2.42108 0
M  V30 5996 C 558.875 6.08465 -2.74456 0
M  V30 5997 H 558.145 0.735469 0.0903712 0
M  V30 5998 H 560.792 1.85464 -0.477001 0
M  V30 5999 H 559.097 3.65672 1.40681 0
M  V30 6000 H 560.794 3.86337 1.07447 0
M  V30 6001 H 557.384 4.27558 -0.298652 0
M  V30 6002 H 561.568 4.8393 -1.10117 0
M  V30 6003 H 556.824 5.69418 -2.22651 0
M  V30 6004 H 560.998 6.27151 -3.02745 0
M  V30 6005 H 558.625 6.69768 -3.59604 0
M  V30 6006 N 560.2 0.0768682 1.57412 0
M  V30 6007 C 561.147 -0.888577 2.13009 0
M  V30 6008 C 562.117 -1.29198 1.0439 0
M  V30 6009 O 563.302 -1.37694 1.3208 0
M  V30 6010 C 560.442 -2.14899 2.70023 0
M  V30 6011 C 559.555 -1.79777 3.92816 0
M  V30 6012 C 558.69 -3.00467 4.38056 0
M  V30 6013 C 557.729 -2.61385 5.53484 0
M  V30 6014 N 556.866 -3.74851 5.93659 0
M  V30 6015 H 561.706 -0.407593 2.95199 0
M  V30 6016 H 559.243 -0.189534 1.45874 0
M  V30 6017 H 561.201 -2.88688 3.0119 0
M  V30 6018 H 559.831 -2.60529 1.9059 0
M  V30 6019 H 558.883 -0.960301 3.68079 0
M  V30 6020 H 560.195 -1.47027 4.76639 0
M  V30 6021 H 559.349 -3.82529 4.7091 0
M  V30 6022 H 558.088 -3.36413 3.53097 0
M  V30 6023 H 557.093 -1.77746 5.20275 0
M  V30 6024 H 558.318 -2.26603 6.40178 0
M  V30 6025 H 556.264 -4.1055 5.11649 0
M  V30 6026 H 556.181 -3.45887 6.72234 0
M  V30 6027 H 557.449 -4.57477 6.31138 0
M  V30 6028 N 561.678 -1.56367 -0.196722 0
M  V30 6029 C 563.089 -1.70462 -0.761545 0
M  V30 6030 C 563.44 -0.683161 -1.83922 0
M  V30 6031 O 562.565 0.160753 -2.15802 0
M  V30 6032 C 563.16 -3.09057 -1.38814 0
M  V30 6033 C 561.719 -3.24922 -1.90007 0
M  V30 6034 C 560.866 -2.66412 -0.769399 0
M  V30 6035 H 563.817 -1.58675 0.0283263 0
M  V30 6036 H 563.838 -3.06296 -2.2575 0
M  V30 6037 H 563.35 -3.83378 -0.603559 0
M  V30 6038 H 561.451 -2.55514 -2.71189 0
M  V30 6039 H 561.564 -4.3241 -2.06297 0
M  V30 6040 H 559.928 -2.25546 -1.18326 0
M  V30 6041 H 560.711 -3.433 0.00291773 0
M  V30 6042 N 563.156 0.464375 -1.50603 0
M  V30 6043 C 564.086 1.56944 -1.72889 0
M  V30 6044 C 565.067 1.59979 -0.577997 0
M  V30 6045 O 566.252 1.76138 -0.817855 0
M  V30 6046 C 563.382 2.95225 -1.8292 0
M  V30 6047 C 562.336 3.07056 -2.98162 0
M  V30 6048 C 561.662 4.47051 -2.93343 0
M  V30 6049 C 562.962 2.83648 -4.38567 0
M  V30 6050 H 564.656 1.38547 -2.65415 0
M  V30 6051 H 562.202 0.665082 -1.27721 0
M  V30 6052 H 564.155 3.72467 -1.97095 0
M  V30 6053 H 562.879 3.14793 -0.870209 0
M  V30 6054 H 561.538 2.32248 -2.83648 0
M  V30 6055 H 561.186 4.63547 -1.95276 0
M  V30 6056 H 560.886 4.55902 -3.70712 0
M  V30 6057 H 562.41 5.26304 -3.09575 0
M  V30 6058 H 563.824 3.50636 -4.53572 0
M  V30 6059 H 562.221 3.03937 -5.17438 0
M  V30 6060 H 563.291 1.79451 -4.50472 0
M  V30 6061 N 564.634 1.40294 0.718013 0
M  V30 6062 C 565.597 1.4012 1.81381 0
M  V30 6063 C 566.597 0.295405 1.58063 0
M  V30 6064 O 567.787 0.554187 1.6515 0
M  V30 6065 C 564.919 1.19056 3.19435 0
M  V30 6066 H 566.112 2.37645 1.82933 0
M  V30 6067 H 563.665 1.26107 0.923405 0
M  V30 6068 H 564.4 0.222809 3.23534 0
M  V30 6069 H 564.185 1.99152 3.37758 0
M  V30 6070 H 565.675 1.21716 3.99468 0
M  V30 6071 N 566.112 -0.949982 1.2575 0
M  V30 6072 C 567.342 -1.72721 1.13363 0
M  V30 6073 C 567.75 -1.86562 -0.314842 0
M  V30 6074 O 567.093 -1.36621 -1.22803 0
M  V30 6075 C 567.155 -3.15695 1.7198 0
M  V30 6076 C 566.819 -3.25268 3.21014 0
M  V30 6077 C 567.816 -3.09222 4.17945 0
M  V30 6078 C 565.501 -3.4894 3.61312 0
M  V30 6079 C 567.495 -3.16701 5.53154 0
M  V30 6080 C 565.182 -3.56055 4.96657 0
M  V30 6081 C 566.18 -3.3995 5.92387 0
M  V30 6082 O 565.868 -3.46757 7.25269 0
M  V30 6083 H 565.6 -0.547888 0.395973 0
M  V30 6084 H 568.154 -1.20009 1.66694 0
M  V30 6085 H 566.384 -3.69791 1.13101 0
M  V30 6086 H 568.073 -3.75295 1.54624 0
M  V30 6087 H 568.839 -2.90798 3.88151 0
M  V30 6088 H 564.718 -3.60534 2.87291 0
M  V30 6089 H 568.262 -3.04048 6.27854 0
M  V30 6090 H 564.159 -3.73997 5.26115 0
M  V30 6091 H 564.927 -3.63358 7.33426 0
M  V30 6092 N 567.59 -1.07411 -1.15328 0
M  V30 6093 C 568.553 -0.698914 -2.18284 0
M  V30 6094 C 569.553 0.261149 -1.58665 0
M  V30 6095 O 570.743 0.0420277 -1.74149 0
M  V30 6096 C 567.875 -0.0302427 -3.40887 0
M  V30 6097 H 569.068 -1.61045 -2.52991 0
M  V30 6098 H 566.621 -0.870724 -1.298 0
M  V30 6099 H 567.356 0.893505 -3.11748 0
M  V30 6100 H 567.141 -0.720759 -3.85419 0
M  V30 6101 H 568.631 0.21759 -4.17033 0
M  V30 6102 N 569.068 1.32177 -0.85831 0
M  V30 6103 C 569.998 2.31282 -0.321041 0
M  V30 6104 C 570.979 1.59841 0.581786 0
M  V30 6105 O 572.164 1.87619 0.501262 0
M  V30 6106 C 569.294 3.4385 0.48832 0
M  V30 6107 C 568.248 4.26799 -0.320391 0
M  V30 6108 C 567.574 5.31164 0.613934 0
M  V30 6109 C 568.874 4.98829 -1.54813 0
M  V30 6110 H 570.568 2.76469 -1.14915 0
M  V30 6111 H 568.114 1.32916 -0.554028 0
M  V30 6112 H 570.067 4.12224 0.874626 0
M  V30 6113 H 568.791 2.97401 1.34983 0
M  V30 6114 H 567.45 3.60077 -0.688497 0
M  V30 6115 H 567.098 4.80967 1.47239 0
M  V30 6116 H 566.798 5.8755 0.0768097 0
M  V30 6117 H 568.322 6.024 0.997336 0
M  V30 6118 H 569.736 5.59864 -1.23392 0
M  V30 6119 H 568.133 5.64957 -2.02346 0
M  V30 6120 H 569.203 4.26483 -2.30739 0
M  V30 6121 N 570.547 0.616602 1.45037 0
M  V30 6122 C 571.796 0.112861 2.01384 0
M  V30 6123 C 572.109 -1.26758 1.48969 0
M  V30 6124 O 573.315 -1.86454 1.9735 0
M  V30 6125 C 571.771 0.151057 3.59583 0
M  V30 6126 C 571.379 1.53191 4.20995 0
M  V30 6127 C 573.123 -0.296974 4.2346 0
M  V30 6128 C 571.03 1.526 5.71373 0
M  V30 6129 H 569.96 0.0384254 0.75302 0
M  V30 6130 H 572.611 0.773262 1.66412 0
M  V30 6131 H 570.993 -0.57617 3.91786 0
M  V30 6132 H 572.167 2.28156 4.00352 0
M  V30 6133 H 570.482 1.92279 3.69348 0
M  V30 6134 H 573.079 -0.320712 5.33737 0
M  V30 6135 H 573.422 -1.32145 3.9477 0
M  V30 6136 H 573.955 0.377279 3.96007 0
M  V30 6137 H 570.694 2.52837 6.04776 0
M  V30 6138 H 570.214 0.819064 5.94181 0
M  V30 6139 H 571.893 1.25357 6.3474 0
M  V30 6140 N 572.025 -1.5352 0.356285 0
M  V30 6141 C 572.955 -2.28372 -0.486661 0
M  V30 6142 C 573.936 -1.30432 -1.09185 0
M  V30 6143 O 575.121 -1.59291 -1.11085 0
M  V30 6144 C 572.251 -3.06604 -1.63129 0
M  V30 6145 C 571.205 -4.12154 -1.15381 0
M  V30 6146 C 570.531 -4.78415 -2.38796 0
M  V30 6147 C 571.831 -5.21724 -0.245179 0
M  V30 6148 H 573.525 -2.99083 0.137797 0
M  V30 6149 H 571.071 -1.43841 0.0677134 0
M  V30 6150 H 573.024 -3.57712 -2.22755 0
M  V30 6151 H 571.748 -2.33568 -2.28284 0
M  V30 6152 H 570.407 -3.61978 -0.580294 0
M  V30 6153 H 570.055 -4.01959 -3.02387 0
M  V30 6154 H 569.755 -5.49734 -2.07524 0
M  V30 6155 H 571.279 -5.32313 -2.99125 0
M  V30 6156 H 572.693 -5.68391 -0.748646 0
M  V30 6157 H 571.09 -6.00095 -0.0237608 0
M  V30 6158 H 572.16 -4.79596 0.715229 0
M  V30 6159 N 573.503 -0.0852151 -1.57369 0
M  V30 6160 C 574.731 0.58946 -1.98325 0
M  V30 6161 C 575.146 1.62333 -0.96403 0
M  V30 6162 O 574.503 1.82438 0.0476395 0
M  V30 6163 C 574.554 1.24604 -3.39347 0
M  V30 6164 O 574.275 0.253532 -4.37366 0
M  V30 6165 C 575.776 2.00726 -3.95252 0
M  V30 6166 H 572.996 0.158783 -0.651942 0
M  V30 6167 H 575.54 -0.161584 -2.03861 0
M  V30 6168 H 573.695 1.94808 -3.34856 0
M  V30 6169 H 574.109 0.726207 -5.19448 0
M  V30 6170 H 575.583 2.42039 -4.96106 0
M  V30 6171 H 576.06 2.86919 -3.32527 0
M  V30 6172 H 576.666 1.3536 -4.03185 0
M  V30 6173 N 574.981 1.5647 0.188427 0
M  V30 6174 C 576.397 1.50204 0.539532 0
M  V30 6175 C 576.597 0.78644 1.85519 0
M  V30 6176 O 575.653 0.339714 2.50204 0
M  V30 6177 C 576.966 2.94893 0.588103 0
M  V30 6178 C 578.514 3.05602 0.67648 0
M  V30 6179 C 578.989 4.51716 0.756101 0
M  V30 6180 N 580.48 4.55894 0.819451 0
M  V30 6181 C 581.215 5.66272 0.90134 0
M  V30 6182 N 580.711 6.86323 0.945118 0
M  V30 6183 N 582.504 5.54201 0.939043 0
M  V30 6184 H 574.655 2.01406 -0.674493 0
M  V30 6185 H 576.918 0.916828 -0.241103 0
M  V30 6186 H 576.624 3.50334 -0.309633 0
M  V30 6187 H 576.498 3.4861 1.44051 0
M  V30 6188 H 578.885 2.50206 1.56465 0
M  V30 6189 H 578.966 2.54999 -0.202262 0
M  V30 6190 H 578.61 5.07739 -0.12774 0
M  V30 6191 H 578.54 5.00058 1.65074 0
M  V30 6192 H 581.031 3.69452 0.794594 0
M  V30 6193 H 581.344 7.66194 1.0083 0
M  V30 6194 H 579.689 6.88968 0.913683 0
M  V30 6195 H 582.88 4.59333 0.901725 0
M  V30 6196 H 583.053 6.40247 0.999402 0
M  V30 6197 N 576.459 -0.456382 1.50847 0
M  V30 6198 C 577.369 -1.57805 1.73594 0
M  V30 6199 C 578.385 -1.62599 0.619476 0
M  V30 6200 O 579.561 -1.80195 0.899532 0
M  V30 6201 C 576.626 -2.93926 1.8387 0
M  V30 6202 C 575.687 -2.99402 3.07663 0
M  V30 6203 C 574.92 -4.29031 3.1744 0
M  V30 6204 O 575.143 -5.20358 2.33631 0
M  V30 6205 O 574.077 -4.40401 4.10281 0
M  V30 6206 H 577.903 -1.41531 2.68705 0
M  V30 6207 H 575.488 -0.637422 1.3512 0
M  V30 6208 H 577.37 -3.74747 1.92725 0
M  V30 6209 H 576.045 -3.10368 0.91944 0
M  V30 6210 H 574.952 -2.17606 3.043 0
M  V30 6211 H 576.285 -2.87901 3.99216 0
M  V30 6212 N 577.937 -1.40673 -0.710563 0
M  V30 6213 C 578.869 -1.37256 -1.83558 0
M  V30 6214 C 579.882 -0.277133 -1.60424 0
M  V30 6215 O 581.071 -0.537831 -1.70205 0
M  V30 6216 C 578.171 -1.1144 -3.20054 0
M  V30 6217 C 577.344 -2.32734 -3.70342 0
M  V30 6218 C 576.403 -2.03002 -4.85465 0
M  V30 6219 O 575.429 -2.75912 -4.97857 0
M  V30 6220 N 576.631 -1.01105 -5.71627 0
M  V30 6221 H 579.396 -2.34215 -1.86985 0
M  V30 6222 H 576.957 -1.35091 -0.892301 0
M  V30 6223 H 578.949 -0.895265 -3.94673 0
M  V30 6224 H 577.519 -0.231307 -3.11743 0
M  V30 6225 H 576.739 -2.70446 -2.86798 0
M  V30 6226 H 578.027 -3.13584 -4.00678 0
M  V30 6227 H 577.425 -0.407303 -5.64232 0
M  V30 6228 H 575.982 -0.85182 -6.4621 0
M  V30 6229 N 579.415 0.9433 -1.26252 0
M  V30 6230 C 580.663 1.68592 -1.11451 0
M  V30 6231 C 580.984 1.91957 0.343123 0
M  V30 6232 O 580.254 1.51475 1.24226 0
M  V30 6233 H 578.834 0.624789 -0.409448 0
M  V30 6234 H 581.496 1.13351 -1.58548 0
M  V30 6235 H 580.592 2.66054 -1.63162 0
M  V30 6236 N 580.893 1.08022 1.14757 0
M  V30 6237 C 582.123 0.827646 1.89298 0
M  V30 6238 C 582.531 -0.623506 1.78631 0
M  V30 6239 O 581.874 -1.43991 1.14071 0
M  V30 6240 C 581.936 1.16553 3.40082 0
M  V30 6241 C 581.6 2.61866 3.74533 0
M  V30 6242 C 582.597 3.60116 3.74984 0
M  V30 6243 C 580.282 2.97619 4.04633 0
M  V30 6244 C 582.276 4.92151 4.05051 0
M  V30 6245 C 579.963 4.2985 4.34364 0
M  V30 6246 C 580.961 5.26926 4.34555 0
M  V30 6247 O 580.649 6.5678 4.63568 0
M  V30 6248 H 580.381 0.298396 0.606577 0
M  V30 6249 H 582.935 1.44187 1.46285 0
M  V30 6250 H 581.165 0.494296 3.83528 0
M  V30 6251 H 582.854 0.894407 3.95923 0
M  V30 6252 H 583.62 3.33837 3.51821 0
M  V30 6253 H 579.499 2.22702 4.03639 0
M  V30 6254 H 583.043 5.67915 4.05115 0
M  V30 6255 H 578.94 4.55879 4.56995 0
M  V30 6256 H 579.708 6.62035 4.81303 0
M  V30 6257 N 582.371 -1.3172 0.865308 0
M  V30 6258 C 583.782 -1.79104 0.527126 0
M  V30 6259 C 584.133 -1.7135 -0.955695 0
M  V30 6260 O 583.258 -1.27845 -1.74598 0
M  V30 6261 C 583.853 -3.25207 0.950061 0
M  V30 6262 C 582.412 -3.70504 0.663611 0
M  V30 6263 C 581.559 -2.52605 1.14395 0
M  V30 6264 H 584.51 -1.18868 1.05148 0
M  V30 6265 H 584.531 -3.79535 0.270805 0
M  V30 6266 H 584.043 -3.30818 2.02931 0
M  V30 6267 H 582.144 -3.70398 -0.404474 0
M  V30 6268 H 582.257 -4.62845 1.23737 0
M  V30 6269 H 580.621 -2.4838 0.563859 0
M  V30 6270 H 581.404 -2.60964 2.23053 0
M  V30 6271 N 583.85 -0.624285 -1.44708 0
M  V30 6272 C 585.075 -0.131171 -2.06985 0
M  V30 6273 C 585.5 1.18234 -1.46295 0
M  V30 6274 O 584.858 1.72375 -0.561842 0
M  V30 6275 C 584.906 -0.0226724 -3.60593 0
M  V30 6276 O 584.01 1.02314 -3.99507 0
M  V30 6277 H 583.351 -0.0816556 -0.65896 0
M  V30 6278 H 585.88 -0.859027 -1.85693 0
M  V30 6279 H 585.891 0.170138 -4.07645 0
M  V30 6280 H 584.566 -0.981685 -4.04148 0
M  V30 6281 H 583.143 0.805452 -3.64097 0
M  V30 6282 N 585.328 1.53329 -0.364422 0
M  V30 6283 C 586.574 2.01537 0.225969 0
M  V30 6284 C 586.907 1.25128 1.48515 0
M  V30 6285 O 586.182 0.344653 1.91422 0
M  V30 6286 C 586.465 3.56339 0.519092 0
M  V30 6287 C 586.318 4.43441 -0.753639 0
M  V30 6288 C 587.637 4.19833 1.32015 0
M  V30 6289 H 584.756 0.732573 0.0806548 0
M  V30 6290 H 587.398 1.83597 -0.489084 0
M  V30 6291 H 585.548 3.71756 1.12825 0
M  V30 6292 H 587.22 4.39823 -1.39116 0
M  V30 6293 H 585.463 4.11457 -1.37424 0
M  V30 6294 H 586.134 5.49699 -0.503517 0
M  V30 6295 H 588.61 4.08242 0.804859 0
M  V30 6296 H 587.486 5.28177 1.49399 0
M  V30 6297 H 587.747 3.75821 2.32832 0
M  V30 6298 N 586.806 0.0935595 1.57322 0
M  V30 6299 C 588.053 -0.570509 1.94297 0
M  V30 6300 C 588.381 -1.68286 0.97519 0
M  V30 6301 O 587.636 -1.95699 -0.00548655 0
M  V30 6302 C 587.935 -1.16692 3.37813 0
M  V30 6303 C 587.601 -0.178509 4.50547 0
M  V30 6304 C 586.263 0.0933475 4.81109 0
M  V30 6305 C 588.615 0.496472 5.1883 0
M  V30 6306 C 585.943 1.0469 5.77284 0
M  V30 6307 C 588.295 1.43849 6.16028 0
M  V30 6308 C 586.959 1.71859 6.44997 0
M  V30 6309 H 586.229 -0.208764 0.710984 0
M  V30 6310 H 588.876 0.169066 1.90752 0
M  V30 6311 H 587.181 -1.98271 3.37929 0
M  V30 6312 H 588.878 -1.6884 3.63722 0
M  V30 6313 H 585.468 -0.400584 4.26724 0
M  V30 6314 H 589.652 0.299584 4.95395 0
M  V30 6315 H 584.908 1.27094 5.98044 0
M  V30 6316 H 589.082 1.96734 6.68034 0
M  V30 6317 H 586.709 2.45906 7.19329 0
M  V30 6318 N 588.284 -1.56567 -0.180126 0
M  V30 6319 C 589.514 -1.85349 -0.912647 0
M  V30 6320 C 589.922 -0.675795 -1.76719 0
M  V30 6321 O 589.265 0.3645 -1.80047 0
M  V30 6322 C 589.327 -3.08431 -1.84691 0
M  V30 6323 C 588.991 -4.41694 -1.17284 0
M  V30 6324 C 589.988 -5.17062 -0.542532 0
M  V30 6325 C 587.673 -4.8843 -1.17223 0
M  V30 6326 C 589.667 -6.37351 0.0793953 0
M  V30 6327 C 587.354 -6.08652 -0.54647 0
M  V30 6328 C 588.352 -6.82955 0.0782458 0
M  V30 6329 O 588.04 -8.00897 0.694158 0
M  V30 6330 H 587.772 -0.619286 -0.271036 0
M  V30 6331 H 590.326 -2.0454 -0.187768 0
M  V30 6332 H 588.556 -2.85163 -2.61188 0
M  V30 6333 H 590.245 -3.23733 -2.44851 0
M  V30 6334 H 591.011 -4.8204 -0.535045 0
M  V30 6335 H 586.89 -4.30542 -1.64788 0
M  V30 6336 H 590.434 -6.95287 0.567612 0
M  V30 6337 H 586.331 -6.4314 -0.55151 0
M  V30 6338 H 587.099 -8.16352 0.592537 0
M  V30 6339 N 589.762 0.448376 -1.51087 0
M  V30 6340 C 591.01 1.19635 -1.62886 0
M  V30 6341 C 591.331 1.91977 -0.342024 0
M  V30 6342 O 590.601 1.85094 0.641636 0
M  V30 6343 H 589.181 0.444598 -0.600285 0
M  V30 6344 H 591.843 0.515138 -1.87969 0
M  V30 6345 H 590.939 1.93194 -2.45117 0
M  V30 6346 N 591.24 1.41047 0.703093 0
M  V30 6347 C 592.517 1.30493 1.45708 0
M  V30 6348 C 592.897 -0.0709892 2.10981 0
M  V30 6349 O 592.245 -1.08471 2.01113 0
M  V30 6350 C 592.455 2.45287 2.48265 0
M  V30 6351 C 593.803 2.86104 3.13735 0
M  V30 6352 O 594.827 2.44971 2.58587 0
M  V30 6353 O 593.686 3.57206 4.13601 0
M  V30 6354 H 590.78 0.513144 0.648546 0
M  V30 6355 H 593.326 1.52995 0.734208 0
M  V30 6356 H 592.098 3.37135 1.98635 0
M  V30 6357 H 591.721 2.24622 3.28071 0
M  V30 6358 N 592.718 -0.936591 1.26751 0
M  V30 6359 C 593.948 -1.71509 1.15188 0
M  V30 6360 C 594.356 -1.86885 -0.295037 0
M  V30 6361 O 593.699 -1.37915 -1.21347 0
M  V30 6362 C 593.761 -3.13853 1.75318 0
M  V30 6363 C 593.425 -3.21845 3.24445 0
M  V30 6364 C 594.422 -3.04771 4.21201 0
M  V30 6365 C 592.107 -3.45088 3.64992 0
M  V30 6366 C 594.101 -3.10816 5.56482 0
M  V30 6367 C 591.788 -3.50767 5.00405 0
M  V30 6368 C 592.786 -3.33648 5.9596 0
M  V30 6369 O 592.474 -3.39045 7.28906 0
M  V30 6370 H 592.206 -0.543658 0.401761 0
M  V30 6371 H 594.76 -1.18234 1.67958 0
M  V30 6372 H 592.99 -3.6857 1.17016 0
M  V30 6373 H 594.679 -3.73634 1.58596 0
M  V30 6374 H 595.445 -2.86665 3.91214 0
M  V30 6375 H 591.324 -3.57467 2.91098 0
M  V30 6376 H 594.868 -2.97372 6.31043 0
M  V30 6377 H 590.765 -3.68396 5.30052 0
M  V30 6378 H 591.533 -3.55558 7.37238 0
M  V30 6379 N 594.196 -1.08629 -1.14182 0
M  V30 6380 C 595.426 -0.837673 -1.88856 0
M  V30 6381 C 595.834 0.614024 -1.78959 0
M  V30 6382 O 595.177 1.43384 -1.14833 0
M  V30 6383 C 595.239 -1.18355 -3.39459 0
M  V30 6384 C 594.903 -2.63848 -3.73139 0
M  V30 6385 C 595.9 -3.62099 -3.73069 0
M  V30 6386 C 593.585 -2.99761 -4.03049 0
M  V30 6387 C 595.579 -4.94292 -4.02435 0
M  V30 6388 C 593.266 -4.32147 -4.32078 0
M  V30 6389 C 594.264 -5.29223 -4.31755 0
M  V30 6390 O 593.952 -6.59229 -4.60079 0
M  V30 6391 H 593.684 -0.301609 -0.604986 0
M  V30 6392 H 596.238 -1.44961 -1.45518 0
M  V30 6393 H 594.468 -0.514628 -3.8326 0
M  V30 6394 H 596.157 -0.915391 -3.95443 0
M  V30 6395 H 596.923 -3.35698 -3.50046 0
M  V30 6396 H 592.802 -2.2484 -4.02453 0
M  V30 6397 H 596.346 -5.70055 -4.02098 0
M  V30 6398 H 592.243 -4.58296 -4.54571 0
M  V30 6399 H 593.011 -6.64578 -4.77785 0
M  V30 6400 N 595.674 1.31259 -0.872281 0
M  V30 6401 C 596.922 1.96233 -0.483409 0
M  V30 6402 C 597.243 1.69276 0.968012 0
M  V30 6403 O 596.513 1.00943 1.67891 0
M  V30 6404 H 595.093 0.726025 -0.175774 0
M  V30 6405 H 597.755 1.60024 -1.11258 0
M  V30 6406 H 596.851 3.05403 -0.643075 0
M  V30 6407 N 597.152 0.631951 1.44375 0
M  V30 6408 C 598.401 0.134214 2.01253 0
M  V30 6409 C 598.714 -1.25171 1.50305 0
M  V30 6410 O 599.92 -1.8435 1.99317 0
M  V30 6411 C 598.376 0.189187 3.59402 0
M  V30 6412 C 597.984 1.57647 4.19346 0
M  V30 6413 C 599.728 -0.252044 4.23751 0
M  V30 6414 C 597.635 1.58651 5.69722 0
M  V30 6415 H 596.565 0.0464101 0.75257 0
M  V30 6416 H 599.216 0.790868 1.65582 0
M  V30 6417 H 597.598 -0.534584 3.92375 0
M  V30 6418 H 598.772 2.32389 3.97909 0
M  V30 6419 H 597.087 1.96186 3.67288 0
M  V30 6420 H 599.684 -0.264084 5.34047 0
M  V30 6421 H 600.027 -1.27951 3.96149 0
M  V30 6422 H 600.56 0.41926 3.95584 0
M  V30 6423 H 597.299 2.59237 6.0206 0
M  V30 6424 H 596.819 0.882039 5.93279 0
M  V30 6425 H 598.498 1.32082 6.33375 0
M  V30 6426 N 598.631 -1.53133 0.372548 0
M  V30 6427 C 600.042 -1.86404 -0.105155 0
M  V30 6428 C 600.393 -1.29289 -1.47576 0
M  V30 6429 O 599.518 -0.617646 -2.07398 0
M  V30 6430 C 600.113 -3.38223 -0.197588 0
M  V30 6431 C 598.672 -3.71266 -0.619556 0
M  V30 6432 C 597.819 -2.76353 0.228919 0
M  V30 6433 H 600.77 -1.47282 0.591077 0
M  V30 6434 H 600.791 -3.66577 -1.01987 0
M  V30 6435 H 600.303 -3.79763 0.800099 0
M  V30 6436 H 598.404 -3.35287 -1.62522 0
M  V30 6437 H 598.517 -4.77515 -0.389332 0
M  V30 6438 H 596.881 -2.52888 -0.303271 0
M  V30 6439 H 597.664 -3.20728 1.22428 0
M  V30 6440 N 600.109 -0.101901 -1.5727 0
M  V30 6441 C 601.337 0.568392 -1.98939 0
M  V30 6442 C 601.752 1.61301 -0.981194 0
M  V30 6443 O 601.109 1.82478 0.0282869 0
M  V30 6444 C 601.16 1.20997 -3.40649 0
M  V30 6445 O 600.881 0.207129 -4.3761 0
M  V30 6446 C 602.382 1.96523 -3.97358 0
M  V30 6447 H 599.602 0.15186 -0.65359 0
M  V30 6448 H 602.146 -0.183198 -2.03678 0
M  V30 6449 H 600.301 1.91245 -3.36904 0
M  V30 6450 H 600.715 0.671071 -5.20189 0
M  V30 6451 H 602.189 2.36764 -4.98645 0
M  V30 6452 H 602.666 2.83376 -3.35552 0
M  V30 6453 H 603.272 1.31076 -4.04598 0
M  V30 6454 N 601.587 1.56661 0.17182 0
M  V30 6455 C 602.537 1.92781 1.21736 0
M  V30 6456 C 603.521 0.796065 1.39827 0
M  V30 6457 O 604.713 1.05924 1.41806 0
M  V30 6458 C 601.842 2.29079 2.55691 0
M  V30 6459 C 600.928 3.48765 2.41296 0
M  V30 6460 N 601.319 4.66022 1.96614 0
M  V30 6461 C 599.617 3.53362 2.72124 0
M  V30 6462 C 600.318 5.48159 1.94669 0
M  V30 6463 N 599.294 4.89189 2.37054 0
M  V30 6464 H 603.096 2.80926 0.863592 0
M  V30 6465 H 600.61 1.57889 0.380096 0
M  V30 6466 H 602.607 2.5315 3.31241 0
M  V30 6467 H 601.267 1.42272 2.91871 0
M  V30 6468 H 602.278 4.9025 1.66959 0
M  V30 6469 H 598.955 2.77033 3.12345 0
M  V30 6470 H 600.345 6.52121 1.61826 0
M  V30 6471 N 603.065 -0.440357 1.51323 0
M  V30 6472 C 604.313 -1.18769 1.63518 0
M  V30 6473 C 604.634 -1.91793 0.352201 0
M  V30 6474 O 603.904 -1.85432 -0.631811 0
M  V30 6475 H 602.484 -0.441408 0.602634 0
M  V30 6476 H 605.146 -0.505162 1.8824 0
M  V30 6477 H 604.242 -1.91892 2.46138 0
M  V30 6478 N 604.543 -1.41418 -0.695603 0
M  V30 6479 C 605.789 -1.40982 -1.4578 0
M  V30 6480 C 606.122 -0.0187763 -1.94191 0
M  V30 6481 O 605.397 0.95346 -1.69527 0
M  V30 6482 C 605.68 -2.41657 -2.66972 0
M  V30 6483 C 605.533 -3.89869 -2.24327 0
M  V30 6484 C 606.852 -2.39589 -3.69168 0
M  V30 6485 H 603.971 -0.513405 -0.528757 0
M  V30 6486 H 606.613 -1.72693 -0.792275 0
M  V30 6487 H 604.763 -2.14746 -3.23754 0
M  V30 6488 H 606.435 -4.27683 -1.72872 0
M  V30 6489 H 604.678 -4.04737 -1.56111 0
M  V30 6490 H 605.349 -4.55857 -3.11285 0
M  V30 6491 H 607.825 -2.63471 -3.2206 0
M  V30 6492 H 606.701 -3.12044 -4.51575 0
M  V30 6493 H 606.962 -1.41447 -4.18862 0
M  V30 6494 N 606.021 0.929856 -1.27246 0
M  V30 6495 C 607.432 1.49223 -1.12203 0
M  V30 6496 C 607.783 1.93989 0.293731 0
M  V30 6497 O 606.908 1.80978 1.18642 0
M  V30 6498 C 607.503 2.71198 -2.0307 0
M  V30 6499 C 606.062 3.23666 -1.92139 0
M  V30 6500 C 605.209 1.96409 -1.95752 0
M  V30 6501 H 608.16 0.744181 -1.4017 0
M  V30 6502 H 608.181 3.45905 -1.58524 0
M  V30 6503 H 607.693 2.38585 -3.06102 0
M  V30 6504 H 605.794 3.61042 -0.920834 0
M  V30 6505 H 605.907 3.90006 -2.78267 0
M  V30 6506 H 604.271 2.12806 -1.39949 0
M  V30 6507 H 605.054 1.66113 -3.00436 0
M  V30 6508 N 607.499 1.09233 1.13605 0
M  V30 6509 C 608.724 0.849067 1.89224 0
M  V30 6510 C 609.149 -0.593875 1.78479 0
M  V30 6511 O 608.507 -1.41703 1.13092 0
M  V30 6512 C 608.555 1.28642 3.36873 0
M  V30 6513 O 607.659 0.44363 4.10007 0
M  V30 6514 H 607 0.30767 0.588417 0
M  V30 6515 H 609.53 1.45595 1.43748 0
M  V30 6516 H 609.54 1.27096 3.87699 0
M  V30 6517 H 608.215 2.33729 3.44011 0
M  V30 6518 H 606.792 0.523241 3.69211 0
M  V30 6519 N 608.977 -1.30795 0.87923 0
M  V30 6520 C 609.91 -2.26396 0.286404 0
M  V30 6521 C 610.888 -1.51528 -0.589748 0
M  V30 6522 O 612.072 -1.80566 -0.541119 0
M  V30 6523 C 609.199 -3.33458 -0.593581 0
M  V30 6524 C 608.245 -4.2597 0.21247 0
M  V30 6525 S 609.078 -5.11132 1.59702 0
M  V30 6526 C 610.234 -6.21705 0.723408 0
M  V30 6527 H 610.467 -2.7633 1.09677 0
M  V30 6528 H 608 -1.38703 0.678305 0
M  V30 6529 H 609.958 -3.9561 -1.09557 0
M  V30 6530 H 608.619 -2.82259 -1.37799 0
M  V30 6531 H 607.812 -5.01907 -0.458822 0
M  V30 6532 H 607.414 -3.68363 0.646883 0
M  V30 6533 H 609.706 -6.77472 -0.0620739 0
M  V30 6534 H 610.649 -6.93007 1.4542 0
M  V30 6535 H 611.057 -5.63771 0.286855 0
M  V30 6536 N 610.455 -0.639598 -1.44038 0
M  V30 6537 C 611.402 0.0602458 -2.30721 0
M  V30 6538 C 612.372 0.828352 -1.43971 0
M  V30 6539 O 613.557 0.807693 -1.72861 0
M  V30 6540 C 610.697 1.03008 -3.29368 0
M  V30 6541 C 609.81 0.259502 -4.3122 0
M  V30 6542 C 608.945 1.22191 -5.16955 0
M  V30 6543 C 607.984 0.440978 -6.10509 0
M  V30 6544 N 607.121 1.35428 -6.88915 0
M  V30 6545 H 611.961 -0.684867 -2.90023 0
M  V30 6546 H 609.498 -0.349509 -1.42888 0
M  V30 6547 H 611.456 1.60583 -3.85057 0
M  V30 6548 H 610.086 1.74222 -2.71747 0
M  V30 6549 H 609.138 -0.432317 -3.77935 0
M  V30 6550 H 610.45 -0.348347 -4.97582 0
M  V30 6551 H 609.604 1.86873 -5.77203 0
M  V30 6552 H 608.343 1.86367 -4.50687 0
M  V30 6553 H 607.348 -0.219279 -5.49363 0
M  V30 6554 H 608.573 -0.196192 -6.78817 0
M  V30 6555 H 606.519 1.9831 -6.25307 0
M  V30 6556 H 606.436 0.800657 -7.51748 0
M  V30 6557 H 607.704 1.98967 -7.53679 0
M  V30 6558 N 611.933 1.52934 -0.380664 0
M  V30 6559 C 613.158 2.06363 0.207157 0
M  V30 6560 C 613.583 1.25122 1.4045 0
M  V30 6561 O 612.941 0.274062 1.79217 0
M  V30 6562 C 612.989 3.56162 0.563996 0
M  V30 6563 O 612.093 3.77552 1.65917 0
M  V30 6564 H 611.434 0.663468 0.0265859 0
M  V30 6565 H 613.964 1.9719 -0.545635 0
M  V30 6566 H 613.974 3.99453 0.830752 0
M  V30 6567 H 612.649 4.14732 -0.311427 0
M  V30 6568 H 611.226 3.46154 1.3868 0
M  V30 6569 N 613.412 0.11024 1.57214 0
M  V30 6570 C 614.359 -0.843195 2.14846 0
M  V30 6571 C 615.329 -1.26954 1.07107 0
M  V30 6572 O 616.514 -1.34861 1.34971 0
M  V30 6573 C 613.654 -2.09123 2.74521 0
M  V30 6574 C 612.767 -1.71404 3.96541 0
M  V30 6575 C 611.902 -2.91107 4.44331 0
M  V30 6576 C 610.941 -2.49586 5.58903 0
M  V30 6577 N 610.078 -3.62175 6.01477 0
M  V30 6578 H 614.918 -0.344886 2.95998 0
M  V30 6579 H 612.455 -0.15855 1.46243 0
M  V30 6580 H 614.413 -2.82234 3.07246 0
M  V30 6581 H 613.043 -2.56427 1.96074 0
M  V30 6582 H 612.095 -0.88201 3.70033 0
M  V30 6583 H 613.407 -1.36884 4.7965 0
M  V30 6584 H 612.561 -3.72454 4.78919 0
M  V30 6585 H 611.3 -3.28848 3.60153 0
M  V30 6586 H 610.305 -1.6667 5.23929 0
M  V30 6587 H 611.53 -2.12973 6.4484 0
M  V30 6588 H 609.476 -3.99605 5.20242 0
M  V30 6589 H 609.393 -3.3155 6.79419 0
M  V30 6590 H 610.661 -4.43987 6.407 0
M  V30 6591 N 614.89 -1.56749 -0.16351 0
M  V30 6592 C 616.139 -1.81626 -0.877211 0
M  V30 6593 C 616.452 -0.688791 -1.83071 0
M  V30 6594 O 617.658 -0.822697 -2.58735 0
M  V30 6595 C 616.114 -3.21858 -1.61045 0
M  V30 6596 C 615.722 -4.42494 -0.700195 0
M  V30 6597 C 617.466 -3.56021 -2.31192 0
M  V30 6598 C 615.373 -5.73748 -1.43412 0
M  V30 6599 H 614.303 -0.67731 -0.331312 0
M  V30 6600 H 616.954 -1.83039 -0.13006 0
M  V30 6601 H 615.336 -3.14784 -2.40264 0
M  V30 6602 H 616.51 -4.60766 0.0555849 0
M  V30 6603 H 614.825 -4.1626 -0.10799 0
M  V30 6604 H 617.422 -4.51333 -2.8671 0
M  V30 6605 H 617.765 -2.81277 -3.06902 0
M  V30 6606 H 618.298 -3.64682 -1.58909 0
M  V30 6607 H 615.037 -6.51543 -0.719186 0
M  V30 6608 H 614.557 -5.5944 -2.16302 0
M  V30 6609 H 616.236 -6.15975 -1.9795 0
M  V30 6610 N 616.368 0.432326 -1.51554 0
M  V30 6611 C 617.645 1.19288 -1.55015 0
M  V30 6612 C 618.025 2.08701 -0.317375 0
M  V30 6613 O 617.373 2.17602 0.697243 0
M  V30 6614 C 617.583 1.99037 -2.86679 0
M  V30 6615 C 618.931 2.55907 -3.38817 0
M  V30 6616 O 619.955 2.09243 -2.88263 0
M  V30 6617 O 618.814 3.41029 -4.27038 0
M  V30 6618 H 615.908 0.543369 -0.623441 0
M  V30 6619 H 618.454 0.440988 -1.6387 0
M  V30 6620 H 617.226 1.33397 -3.6786 0
M  V30 6621 H 616.849 2.81281 -2.8101 0
M  V30 6622 N 617.846 1.41785 0.688094 0
M  V30 6623 C 619.257 1.3701 1.26828 0
M  V30 6624 C 619.608 0.056835 1.96118 0
M  V30 6625 O 618.733 -0.84475 1.99231 0
M  V30 6626 C 619.328 2.48168 2.30648 0
M  V30 6627 C 617.887 2.46766 2.84224 0
M  V30 6628 C 617.034 2.27633 1.58361 0
M  V30 6629 H 619.985 1.51192 0.482351 0
M  V30 6630 H 620.006 2.17655 3.121 0
M  V30 6631 H 619.518 3.43735 1.80188 0
M  V30 6632 H 617.619 1.54978 3.3884 0
M  V30 6633 H 617.732 3.43342 3.34145 0
M  V30 6634 H 616.096 1.75648 1.84445 0
M  V30 6635 H 616.879 3.25238 1.09887 0
M  V30 6636 N 619.324 -0.923095 1.27737 0
M  V30 6637 C 620.254 -2.04124 1.13383 0
M  V30 6638 C 621.235 -1.70066 0.0340658 0
M  V30 6639 O 622.42 -1.93068 0.209383 0
M  V30 6640 C 619.55 -3.3831 0.785097 0
M  V30 6641 C 618.504 -3.86496 1.8386 0
M  V30 6642 C 617.83 -5.1754 1.34373 0
M  V30 6643 C 619.13 -4.09381 3.24353 0
M  V30 6644 H 620.824 -2.1639 2.06919 0
M  V30 6645 H 618.37 -1.03976 0.996243 0
M  V30 6646 H 620.323 -4.16016 0.671485 0
M  V30 6647 H 619.047 -3.2607 -0.185969 0
M  V30 6648 H 617.706 -3.10987 1.9412 0
M  V30 6649 H 617.354 -5.01696 0.361989 0
M  V30 6650 H 617.054 -5.50751 2.04811 0
M  V30 6651 H 618.578 -5.97811 1.24315 0
M  V30 6652 H 619.992 -4.77641 3.17067 0
M  V30 6653 H 618.389 -4.53906 3.92542 0
M  V30 6654 H 619.459 -3.14515 3.69064 0
M  V30 6655 N 620.802 -1.09834 -1.13024 0
M  V30 6656 C 621.732 -0.763451 -2.20666 0
M  V30 6657 C 622.713 0.260778 -1.68089 0
M  V30 6658 O 623.898 0.127915 -1.93778 0
M  V30 6659 C 621.028 -0.187744 -3.46792 0
M  V30 6660 C 619.982 -1.14196 -4.12484 0
M  V30 6661 C 619.308 -0.427755 -5.32986 0
M  V30 6662 C 620.608 -2.48607 -4.59338 0
M  V30 6663 H 622.302 -1.66347 -2.48936 0
M  V30 6664 H 619.848 -0.801261 -1.19649 0
M  V30 6665 H 621.801 0.0586375 -4.21359 0
M  V30 6666 H 620.525 0.747485 -3.17931 0
M  V30 6667 H 619.184 -1.37369 -3.3989 0
M  V30 6668 H 618.832 0.511747 -5.0039 0
M  V30 6669 H 618.532 -1.06403 -5.77886 0
M  V30 6670 H 620.056 -0.189772 -6.10305 0
M  V30 6671 H 621.47 -2.29618 -5.25308 0
M  V30 6672 H 619.867 -3.08062 -5.14993 0
M  V30 6673 H 620.937 -3.09062 -3.73642 0
M  V30 6674 N 622.28 1.30327 -0.886154 0
M  V30 6675 C 623.212 2.27079 -0.311072 0
M  V30 6676 C 624.225 1.53758 0.53502 0
M  V30 6677 O 625.414 1.74947 0.354378 0
M  V30 6678 C 622.514 3.33965 0.576228 0
M  V30 6679 C 621.687 4.36735 -0.241064 0
M  V30 6680 C 620.746 5.23028 0.576916 0
M  V30 6681 O 619.772 5.692 -0.000802231 0
M  V30 6682 N 620.974 5.49016 1.88579 0
M  V30 6683 H 623.739 2.77065 -1.14259 0
M  V30 6684 H 621.3 1.43519 -0.749258 0
M  V30 6685 H 623.292 3.88618 1.12953 0
M  V30 6686 H 621.862 2.839 1.30842 0
M  V30 6687 H 621.082 3.81932 -0.975805 0
M  V30 6688 H 622.37 5.02451 -0.801272 0
M  V30 6689 H 621.768 5.13288 2.37806 0
M  V30 6690 H 620.325 6.06539 2.38651 0
M  V30 6691 N 623.758 0.647228 1.43697 0
M  V30 6692 C 624.721 -0.0385101 2.29168 0
M  V30 6693 C 625.721 -0.756487 1.41894 0
M  V30 6694 O 626.911 -0.598641 1.63591 0
M  V30 6695 C 624.043 -1.06524 3.23829 0
M  V30 6696 H 625.236 0.713445 2.9129 0
M  V30 6697 H 622.789 0.408153 1.50877 0
M  V30 6698 H 623.524 -1.84664 2.66589 0
M  V30 6699 H 623.309 -0.554147 3.88164 0
M  V30 6700 H 624.799 -1.54432 3.87996 0
M  V30 6701 N 625.236 -1.5273 0.388769 0
M  V30 6702 C 626.652 -1.59553 0.0387049 0
M  V30 6703 C 626.852 -1.40278 -1.44652 0
M  V30 6704 O 625.908 -1.21951 -2.21098 0
M  V30 6705 C 627.221 -2.9625 0.515409 0
M  V30 6706 C 628.769 -3.09426 0.471621 0
M  V30 6707 C 629.244 -4.48572 0.924505 0
M  V30 6708 N 630.735 -4.54754 0.880496 0
M  V30 6709 C 631.47 -5.60653 1.20234 0
M  V30 6710 N 630.966 -6.74198 1.59463 0
M  V30 6711 N 632.759 -5.50755 1.12363 0
M  V30 6712 H 624.91 -1.63508 1.35569 0
M  V30 6713 H 627.173 -0.768097 0.555636 0
M  V30 6714 H 626.879 -3.15569 1.5527 0
M  V30 6715 H 626.753 -3.77102 -0.085792 0
M  V30 6716 H 629.14 -2.89804 -0.556588 0
M  V30 6717 H 629.221 -2.30528 1.10862 0
M  V30 6718 H 628.865 -4.68936 1.95094 0
M  V30 6719 H 628.795 -5.25935 0.264524 0
M  V30 6720 H 631.286 -3.73237 0.591815 0
M  V30 6721 H 631.599 -7.5097 1.82385 0
M  V30 6722 H 629.944 -6.75531 1.63349 0
M  V30 6723 H 633.135 -4.6093 0.816169 0
M  V30 6724 H 633.308 -6.33184 1.37777 0
M  V30 6725 N 626.714 -0.118576 -1.57153 0
M  V30 6726 C 627.646 0.862247 -2.12363 0
M  V30 6727 C 628.659 1.23025 -1.06625 0
M  V30 6728 O 629.848 1.17927 -1.33998 0
M  V30 6729 C 626.948 2.16425 -2.60794 0
M  V30 6730 C 626.121 1.96801 -3.90626 0
M  V30 6731 C 625.18 3.10726 -4.2466 0
M  V30 6732 O 624.206 2.83659 -4.93484 0
M  V30 6733 N 625.408 4.37147 -3.81946 0
M  V30 6734 H 628.173 0.390564 -2.97144 0
M  V30 6735 H 625.734 0.0658591 -1.61766 0
M  V30 6736 H 627.726 2.91633 -2.80593 0
M  V30 6737 H 626.296 2.54943 -1.80895 0
M  V30 6738 H 625.516 1.05787 -3.7974 0
M  V30 6739 H 626.804 1.80993 -4.7552 0
M  V30 6740 H 626.202 4.62014 -3.26435 0
M  V30 6741 H 624.759 5.09229 -4.06853 0
M  V30 6742 N 628.193 1.56834 0.155195 0
M  V30 6743 C 629.421 1.87049 0.884326 0
M  V30 6744 C 629.836 0.705839 1.7511 0
M  V30 6745 O 629.193 -0.324641 1.79589 0
M  V30 6746 C 629.244 3.1644 1.74781 0
M  V30 6747 O 628.965 4.28417 0.915978 0
M  V30 6748 C 630.466 3.60113 2.58522 0
M  V30 6749 H 627.686 0.620196 0.25612 0
M  V30 6750 H 630.23 2.03946 0.150445 0
M  V30 6751 H 628.385 3.01321 2.43484 0
M  V30 6752 H 628.799 5.02353 1.50803 0
M  V30 6753 H 630.273 4.53508 3.14698 0
M  V30 6754 H 630.75 2.85005 3.34169 0
M  V30 6755 H 631.356 3.77898 1.95124 0
M  V30 6756 N 629.671 -0.424282 1.51781 0
M  V30 6757 C 630.901 -1.19297 1.68677 0
M  V30 6758 C 631.309 -1.85152 0.389258 0
M  V30 6759 O 630.652 -1.72067 -0.643311 0
M  V30 6760 C 630.714 -2.30929 2.75521 0
M  V30 6761 C 630.378 -1.85335 4.17732 0
M  V30 6762 C 631.375 -1.34951 5.0208 0
M  V30 6763 C 629.06 -1.92629 4.63896 0
M  V30 6764 C 631.054 -0.924636 6.30658 0
M  V30 6765 C 628.741 -1.49754 5.92467 0
M  V30 6766 C 629.739 -0.997543 6.75676 0
M  V30 6767 O 629.427 -0.57492 8.01842 0
M  V30 6768 H 629.159 -0.36512 0.568914 0
M  V30 6769 H 631.713 -0.507327 1.99036 0
M  V30 6770 H 629.943 -3.02811 2.40505 0
M  V30 6771 H 631.632 -2.92748 2.81165 0
M  V30 6772 H 632.398 -1.287 4.67612 0
M  V30 6773 H 628.277 -2.30491 3.99243 0
M  V30 6774 H 631.821 -0.533682 6.95556 0
M  V30 6775 H 627.718 -1.55679 6.26446 0
M  V30 6776 H 628.486 -0.699597 8.15505 0
M  V30 6777 N 631.149 -1.42148 -0.680565 0
M  V30 6778 C 632.112 -1.4488 -1.77602 0
M  V30 6779 C 633.112 -0.337209 -1.57224 0
M  V30 6780 O 634.302 -0.597778 -1.63622 0
M  V30 6781 C 631.434 -1.27483 -3.16166 0
M  V30 6782 H 632.627 -2.42412 -1.76568 0
M  V30 6783 H 630.18 -1.28511 -0.889645 0
M  V30 6784 H 630.915 -0.30851 -3.22829 0
M  V30 6785 H 630.7 -2.08037 -3.3236 0
M  V30 6786 H 632.19 -1.32265 -3.96101 0
M  V30 6787 N 632.627 0.916307 -1.28225 0
M  V30 6788 C 633.857 1.69654 -1.17902 0
M  V30 6789 C 634.265 1.87331 0.265268 0
M  V30 6790 O 633.608 1.39828 1.19137 0
M  V30 6791 C 633.67 3.11024 -1.80289 0
M  V30 6792 C 633.334 3.16643 -3.29525 0
M  V30 6793 C 634.331 2.98032 -4.25997 0
M  V30 6794 C 632.016 3.39238 -3.70436 0
M  V30 6795 C 634.01 3.01924 -5.61356 0
M  V30 6796 C 631.697 3.42762 -5.05922 0
M  V30 6797 C 632.695 3.24125 -6.01192 0
M  V30 6798 O 632.383 3.27406 -7.34208 0
M  V30 6799 H 632.115 0.537197 -0.41036 0
M  V30 6800 H 634.669 1.15547 -1.69817 0
M  V30 6801 H 632.899 3.66662 -1.22865 0
M  V30 6802 H 634.588 3.71063 -1.6452 0
M  V30 6803 H 635.354 2.80405 -3.95725 0
M  V30 6804 H 631.233 3.52791 -2.96749 0
M  V30 6805 H 634.777 2.87295 -6.35694 0
M  V30 6806 H 630.674 3.59916 -5.35846 0
M  V30 6807 H 631.442 3.43784 -7.42802 0
M  V30 6808 N 634.105 1.10431 1.1244 0
M  V30 6809 C 635.353 0.845045 1.83585 0
M  V30 6810 C 635.674 -0.631168 1.84503 0
M  V30 6811 O 634.944 -1.45825 1.30813 0
M  V30 6812 H 633.524 0.309628 0.679809 0
M  V30 6813 H 636.186 1.39458 1.36153 0
M  V30 6814 H 635.282 1.20786 2.8778 0
M  V30 6815 N 635.583 -1.29855 0.893053 0
M  V30 6816 C 636.811 -1.99976 0.530788 0
M  V30 6817 C 637.226 -1.66889 -0.882799 0
M  V30 6818 O 636.583 -0.910352 -1.58173 0
M  V30 6819 C 636.634 -3.54547 0.705587 0
M  V30 6820 O 636.355 -3.86458 2.06353 0
M  V30 6821 C 637.856 -4.41937 0.347387 0
M  V30 6822 H 635.076 -0.639129 0.204339 0
M  V30 6823 H 637.62 -1.65549 1.20057 0
M  V30 6824 H 635.775 -3.87311 0.0830685 0
M  V30 6825 H 636.189 -4.81146 2.08803 0
M  V30 6826 H 637.663 -5.4954 0.520557 0
M  V30 6827 H 638.14 -4.33339 -0.715139 0
M  V30 6828 H 638.746 -4.14633 0.946567 0
M  V30 6829 N 637.061 -0.65484 -1.43351 0
M  V30 6830 C 637.993 0.0744757 -2.29079 0
M  V30 6831 C 639.006 0.7855 -1.42596 0
M  V30 6832 O 640.195 0.642986 -1.66517 0
M  V30 6833 C 637.295 1.12859 -3.19556 0
M  V30 6834 C 636.468 0.495381 -4.34586 0
M  V30 6835 C 635.527 1.44659 -5.05925 0
M  V30 6836 O 634.553 0.954567 -5.61139 0
M  V30 6837 N 635.755 2.78051 -5.09576 0
M  V30 6838 H 638.52 -0.661346 -2.92312 0
M  V30 6839 H 636.081 -0.497744 -1.54059 0
M  V30 6840 H 638.073 1.76577 -3.64147 0
M  V30 6841 H 636.643 1.76636 -2.57912 0
M  V30 6842 H 635.863 -0.32092 -3.92892 0
M  V30 6843 H 637.151 0.0534203 -5.08772 0
M  V30 6844 H 636.549 3.20584 -4.66093 0
M  V30 6845 H 635.106 3.37068 -5.57878 0
M  V30 6846 N 638.539 1.52521 -0.396863 0
M  V30 6847 C 639.489 2.2348 0.451722 0
M  V30 6848 C 640.473 1.2415 1.0235 0
M  V30 6849 O 641.665 1.4945 0.948348 0
M  V30 6850 C 638.794 3.05067 1.57445 0
M  V30 6851 C 637.88 4.11799 1.01404 0
M  V30 6852 N 638.271 5.05482 0.179234 0
M  V30 6853 C 636.569 4.27064 1.28578 0
M  V30 6854 C 637.27 5.81552 -0.131202 0
M  V30 6855 N 636.246 5.41523 0.474735 0
M  V30 6856 H 640.048 2.93269 -0.192534 0
M  V30 6857 H 637.562 1.61081 -0.206591 0
M  V30 6858 H 639.559 3.54446 2.19485 0
M  V30 6859 H 638.219 2.36816 2.22145 0
M  V30 6860 H 639.23 5.17573 -0.18411 0
M  V30 6861 H 635.907 3.70042 1.93327 0
M  V30 6862 H 637.297 6.67023 -0.808061 0
M  V30 6863 N 640.017 0.126909 1.57088 0
M  V30 6864 C 641.294 -0.573152 1.87014 0
M  V30 6865 C 641.674 -1.84297 1.02945 0
M  V30 6866 O 641.022 -2.28232 0.110573 0
M  V30 6867 C 641.232 -0.857984 3.38289 0
M  V30 6868 C 642.58 -1.20759 4.07066 0
M  V30 6869 O 643.604 -0.947992 3.43353 0
M  V30 6870 O 642.463 -1.69516 5.19545 0
M  V30 6871 H 639.557 -0.290082 0.774456 0
M  V30 6872 H 642.103 0.162008 1.68925 0
M  V30 6873 H 640.875 0.0415286 3.91278 0
M  V30 6874 H 640.498 -1.64803 3.61837 0
M  V30 6875 N 641.495 -1.56914 -0.146875 0
M  V30 6876 C 642.725 -1.87243 -0.873126 0
M  V30 6877 C 643.133 -0.713127 -1.75246 0
M  V30 6878 O 642.476 0.326228 -1.8078 0
M  V30 6879 C 642.538 -3.12279 -1.78107 0
M  V30 6880 C 642.202 -4.44082 -1.07889 0
M  V30 6881 C 643.199 -5.18096 -0.432734 0
M  V30 6882 C 640.884 -4.90807 -1.06836 0
M  V30 6883 C 642.878 -6.37039 0.214569 0
M  V30 6884 C 640.565 -6.09674 -0.417243 0
M  V30 6885 C 641.563 -6.82636 0.223093 0
M  V30 6886 O 641.251 -7.99245 0.863884 0
M  V30 6887 H 640.983 -0.624896 -0.257839 0
M  V30 6888 H 643.537 -2.04892 -0.14434 0
M  V30 6889 H 641.767 -2.90639 -2.5508 0
M  V30 6890 H 643.456 -3.28854 -2.37929 0
M  V30 6891 H 644.222 -4.83066 -0.432677 0
M  V30 6892 H 640.101 -4.3394 -1.55618 0
M  V30 6893 H 643.645 -6.93927 0.714965 0
M  V30 6894 H 639.542 -6.44165 -0.414967 0
M  V30 6895 H 640.31 -8.14912 0.765564 0
M  V30 6896 N 642.974 0.416227 -1.52004 0
M  V30 6897 C 644.221 1.16383 -1.65714 0
M  V30 6898 C 644.549 1.9068 -0.383594 0
M  V30 6899 O 643.804 1.85174 0.633185 0
M  V30 6900 C 644.103 2.18923 -2.82502 0
M  V30 6901 C 643.769 1.61485 -4.20991 0
M  V30 6902 C 642.431 1.45545 -4.58661 0
M  V30 6903 C 644.783 1.19468 -5.07323 0
M  V30 6904 C 642.111 0.860937 -5.80349 0
M  V30 6905 C 644.463 0.614386 -6.29609 0
M  V30 6906 C 643.127 0.442056 -6.66035 0
M  V30 6907 H 642.397 0.425875 -0.606392 0
M  V30 6908 H 645.044 0.45199 -1.8609 0
M  V30 6909 H 643.349 2.96225 -2.56433 0
M  V30 6910 H 645.046 2.76628 -2.90307 0
M  V30 6911 H 641.636 1.74873 -3.91302 0
M  V30 6912 H 645.82 1.30596 -4.78809 0
M  V30 6913 H 641.076 0.715372 -6.072 0
M  V30 6914 H 645.25 0.280393 -6.95835 0
M  V30 6915 H 642.877 -0.0207218 -7.60197 0
M  V30 6916 N 644.452 1.42507 0.673017 0
M  V30 6917 C 645.729 1.33554 1.42908 0
M  V30 6918 C 646.109 -0.0262211 2.11084 0
M  V30 6919 O 645.457 -1.04181 2.03368 0
M  V30 6920 C 645.667 2.50498 2.43006 0
M  V30 6921 C 647.015 2.92694 3.07596 0
M  V30 6922 O 648.039 2.50401 2.53333 0
M  V30 6923 O 646.898 3.65899 4.05931 0
M  V30 6924 H 643.992 0.526785 0.637516 0
M  V30 6925 H 646.538 1.54518 0.701591 0
M  V30 6926 H 645.31 3.41272 1.9144 0
M  V30 6927 H 644.933 2.3153 3.23233 0
M  V30 6928 N 645.93 -0.909495 1.28709 0
M  V30 6929 C 646.88 -1.9991 1.09636 0
M  V30 6930 C 647.864 -1.60889 0.01872 0
M  V30 6931 O 649.056 -1.75374 0.239338 0
M  V30 6932 C 646.185 -3.34675 0.764702 0
M  V30 6933 C 645.271 -3.80085 1.8814 0
M  V30 6934 N 645.662 -3.97824 3.12361 0
M  V30 6935 C 643.96 -4.09278 1.77221 0
M  V30 6936 C 644.661 -4.35928 3.85151 0
M  V30 6937 N 643.637 -4.44426 3.13028 0
M  V30 6938 H 647.439 -2.11681 2.03883 0
M  V30 6939 H 644.953 -1.09763 1.1969 0
M  V30 6940 H 646.95 -4.12426 0.609132 0
M  V30 6941 H 645.61 -3.24255 -0.169952 0
M  V30 6942 H 646.621 -3.83626 3.47925 0
M  V30 6943 H 643.298 -4.0747 0.909621 0
M  V30 6944 H 644.688 -4.57581 4.92006 0
M  V30 6945 N 647.408 -1.11026 -1.11852 0
M  V30 6946 C 648.358 -0.733836 -2.15868 0
M  V30 6947 C 649.342 0.26001 -1.58785 0
M  V30 6948 O 650.534 0.0677901 -1.7687 0
M  V30 6949 C 647.663 -0.173948 -3.42859 0
M  V30 6950 C 646.749 -1.1952 -4.0691 0
M  V30 6951 N 647.14 -2.38797 -4.45881 0
M  V30 6952 C 645.438 -1.03714 -4.33773 0
M  V30 6953 C 646.139 -3.03894 -4.96007 0
M  V30 6954 N 645.115 -2.31389 -4.91894 0
M  V30 6955 H 648.917 -1.64171 -2.43773 0
M  V30 6956 H 646.431 -0.988877 -1.28822 0
M  V30 6957 H 648.428 0.113836 -4.16745 0
M  V30 6958 H 647.088 0.728568 -3.16421 0
M  V30 6959 H 648.099 -2.76281 -4.38051 0
M  V30 6960 H 644.776 -0.190694 -4.17064 0
M  V30 6961 H 646.166 -4.05389 -5.35826 0
M  V30 6962 N 648.886 1.2938 -0.899927 0
M  V30 6963 C 650.163 1.9046 -0.445443 0
M  V30 6964 C 650.543 1.81683 1.07492 0
M  V30 6965 O 649.891 1.24371 1.91688 0
M  V30 6966 C 650.101 3.35529 -0.960279 0
M  V30 6967 C 651.449 4.12556 -1.00412 0
M  V30 6968 O 652.473 3.44434 -0.907965 0
M  V30 6969 O 651.332 5.34294 -1.14857 0
M  V30 6970 H 648.426 0.815253 -0.138893 0
M  V30 6971 H 650.972 1.37844 -0.989808 0
M  V30 6972 H 649.744 3.36074 -2.00425 0
M  V30 6973 H 649.367 3.95624 -0.395939 0
M  V30 6974 N 650.364 0.662433 1.43002 0
M  V30 6975 C 651.613 0.176873 2.00923 0
M  V30 6976 C 651.926 -1.21954 1.52927 0
M  V30 6977 O 653.132 -1.80081 2.03182 0
M  V30 6978 C 651.588 0.265379 3.5892 0
M  V30 6979 C 651.196 1.66507 4.15908 0
M  V30 6980 C 652.94 -0.162103 4.2419 0
M  V30 6981 C 650.847 1.707 5.66229 0
M  V30 6982 H 649.777 0.0623627 0.751417 0
M  V30 6983 H 652.428 0.825813 1.63868 0
M  V30 6984 H 650.81 -0.451235 3.93421 0
M  V30 6985 H 651.984 2.40777 3.92891 0
M  V30 6986 H 650.299 2.03932 3.63044 0
M  V30 6987 H 652.896 -0.150745 5.34487 0
M  V30 6988 H 653.239 -1.19519 3.98774 0
M  V30 6989 H 653.772 0.503075 3.94606 0
M  V30 6990 H 650.511 2.7195 5.96426 0
M  V30 6991 H 650.031 1.00768 5.91275 0
M  V30 6992 H 651.71 1.45487 6.3043 0
M  V30 6993 N 651.842 -1.52309 0.404946 0
M  V30 6994 C 653.091 -2.00952 -0.173529 0
M  V30 6995 C 653.404 -1.29512 -1.46581 0
M  V30 6996 O 654.61 -1.6895 -2.12528 0
M  V30 6997 C 653.066 -3.58097 -0.359801 0
M  V30 6998 C 652.674 -4.38449 0.920138 0
M  V30 6999 C 654.418 -4.14984 -0.893794 0
M  V30 7000 C 652.325 -5.87227 0.701285 0
M  V30 7001 H 651.255 -0.750871 -0.0686244 0
M  V30 7002 H 653.906 -1.75687 0.529749 0
M  V30 7003 H 652.288 -3.79675 -1.12531 0
M  V30 7004 H 653.462 -4.28633 1.69147 0
M  V30 7005 H 651.777 -3.92859 1.38024 0
M  V30 7006 H 654.374 -5.23813 -1.0735 0
M  V30 7007 H 654.717 -3.72072 -1.8673 0
M  V30 7008 H 655.25 -3.97358 -0.187453 0
M  V30 7009 H 651.989 -6.34491 1.64624 0
M  V30 7010 H 651.509 -5.99792 -0.0308288 0
M  V30 7011 H 653.188 -6.46096 0.341846 0
M  V30 7012 N 653.32 -0.135238 -1.57019 0
M  V30 7013 C 654.568 0.51777 -1.95355 0
M  V30 7014 C 654.889 1.6617 -1.02042 0
M  V30 7015 O 654.159 1.95738 -0.0797343 0
M  V30 7016 H 652.739 0.194264 -0.721298 0
M  V30 7017 H 655.401 -0.207983 -1.93787 0
M  V30 7018 H 654.497 0.901675 -2.98791 0
M  V30 7019 N 654.798 1.5699 0.138552 0
M  V30 7020 C 656.044 1.84966 0.846116 0
M  V30 7021 C 656.399 0.72038 1.78405 0
M  V30 7022 O 655.692 -0.281076 1.89527 0
M  V30 7023 C 655.886 3.17007 1.65049 0
M  V30 7024 C 655.715 4.42672 0.79194 0
M  V30 7025 C 654.485 5.03254 0.454293 0
M  V30 7026 C 656.683 5.14164 0.118419 0
M  V30 7027 N 654.665 6.12482 -0.416964 0
M  V30 7028 C 656.036 6.16966 -0.61263 0
M  V30 7029 C 658.091 4.97884 0.0399671 0
M  V30 7030 C 656.794 7.0525 -1.41473 0
M  V30 7031 C 658.82 5.86639 -0.748901 0
M  V30 7032 C 658.182 6.88929 -1.4682 0
M  V30 7033 H 654.281 0.727362 0.287172 0
M  V30 7034 H 656.865 1.94383 0.110972 0
M  V30 7035 H 655.036 3.08722 2.35681 0
M  V30 7036 H 656.768 3.3286 2.30187 0
M  V30 7037 H 653.523 4.6693 0.792038 0
M  V30 7038 H 653.947 6.7172 -0.843865 0
M  V30 7039 H 658.589 4.18779 0.581728 0
M  V30 7040 H 656.307 7.83777 -1.96772 0
M  V30 7041 H 659.893 5.7611 -0.811705 0
M  V30 7042 H 658.773 7.56419 -2.06882 0
M  V30 7043 N 656.276 -0.40816 1.52223 0
M  V30 7044 C 657.504 -1.17672 1.70179 0
M  V30 7045 C 657.919 -1.84257 0.411696 0
M  V30 7046 O 657.276 -1.7192 -0.612354 0
M  V30 7047 C 657.327 -2.23911 2.83806 0
M  V30 7048 O 657.048 -1.60044 4.0782 0
M  V30 7049 C 658.549 -3.1364 3.13281 0
M  V30 7050 H 655.769 -0.353562 0.570293 0
M  V30 7051 H 658.313 -0.480083 1.98785 0
M  V30 7052 H 656.468 -2.89242 2.57717 0
M  V30 7053 H 656.882 -2.30484 4.71145 0
M  V30 7054 H 658.356 -3.84255 3.96298 0
M  V30 7055 H 658.833 -3.76066 2.26872 0
M  V30 7056 H 659.439 -2.53977 3.41139 0
M  V30 7057 N 657.755 -1.42862 -0.66545 0
M  V30 7058 C 659.171 -1.25993 -0.979687 0
M  V30 7059 C 659.371 -0.170831 -2.00775 0
M  V30 7060 O 658.427 0.454827 -2.4837 0
M  V30 7061 C 659.74 -2.62005 -1.47559 0
M  V30 7062 C 661.288 -2.69437 -1.59288 0
M  V30 7063 C 661.763 -4.05838 -2.12272 0
M  V30 7064 N 663.254 -4.0784 -2.19592 0
M  V30 7065 C 663.989 -5.10205 -2.61684 0
M  V30 7066 N 663.485 -6.22949 -3.03161 0
M  V30 7067 N 665.278 -4.9756 -2.61516 0
M  V30 7068 H 657.429 -2.12395 0.0150493 0
M  V30 7069 H 659.692 -0.946355 -0.0558187 0
M  V30 7070 H 659.398 -3.42605 -0.794654 0
M  V30 7071 H 659.272 -2.86566 -2.45275 0
M  V30 7072 H 661.659 -1.89178 -2.26486 0
M  V30 7073 H 661.74 -2.48655 -0.600374 0
M  V30 7074 H 661.384 -4.86559 -1.4568 0
M  V30 7075 H 661.314 -4.23977 -3.12331 0
M  V30 7076 H 663.805 -3.26452 -1.90361 0
M  V30 7077 H 664.118 -6.96899 -3.33993 0
M  V30 7078 H 662.463 -6.2644 -3.00995 0
M  V30 7079 H 665.654 -4.08551 -2.28481 0
M  V30 7080 H 665.827 -5.77468 -2.93999 0
M  V30 7081 N 659.233 0.902656 -1.29189 0
M  V30 7082 C 660.143 2.03946 -1.15944 0
M  V30 7083 C 661.159 1.738 -0.0833803 0
M  V30 7084 O 662.335 1.9923 -0.29487 0
M  V30 7085 C 659.4 3.36519 -0.834006 0
M  V30 7086 C 658.461 3.80203 -1.9936 0
M  V30 7087 C 657.694 5.06449 -1.68359 0
M  V30 7088 O 657.917 5.67202 -0.603141 0
M  V30 7089 O 656.851 5.46114 -2.53067 0
M  V30 7090 H 660.677 2.18043 -2.11403 0
M  V30 7091 H 658.262 1.02584 -1.08613 0
M  V30 7092 H 660.144 4.16089 -0.666949 0
M  V30 7093 H 658.819 3.23573 0.0908245 0
M  V30 7094 H 657.726 3.01413 -2.21588 0
M  V30 7095 H 659.059 3.97729 -2.89952 0
M  V30 7096 N 660.711 1.11618 1.11262 0
M  V30 7097 C 661.959 0.864469 1.82678 0
M  V30 7098 C 662.28 -0.611564 1.85162 0
M  V30 7099 O 661.55 -1.44429 1.32352 0
M  V30 7100 H 660.13 0.316821 0.676486 0
M  V30 7101 H 662.792 1.40894 1.34666 0
M  V30 7102 H 661.888 1.23832 2.86482 0
M  V30 7103 N 662.189 -1.289 0.906776 0
M  V30 7104 C 663.466 -1.90221 0.455537 0
M  V30 7105 C 663.846 -1.82251 -1.06527 0
M  V30 7106 O 663.194 -1.25385 -1.91026 0
M  V30 7107 C 663.404 -3.35015 0.97806 0
M  V30 7108 C 664.752 -4.12018 1.02598 0
M  V30 7109 O 665.776 -3.43947 0.926218 0
M  V30 7110 O 664.635 -5.33677 1.17689 0
M  V30 7111 H 661.729 -0.814505 0.143214 0
M  V30 7112 H 664.275 -1.37317 0.997104 0
M  V30 7113 H 663.047 -3.35006 2.02204 0
M  V30 7114 H 662.67 -3.95408 0.416914 0
M  V30 7115 N 663.667 -0.670007 -1.42649 0
M  V30 7116 C 664.892 -0.196955 -2.06463 0
M  V30 7117 C 665.317 1.1352 -1.49983 0
M  V30 7118 O 664.675 1.705 -0.616397 0
M  V30 7119 C 664.723 -0.137381 -3.60338 0
M  V30 7120 O 663.827 0.895523 -4.02559 0
M  V30 7121 H 663.168 -0.102579 -0.656029 0
M  V30 7122 H 665.698 -0.917669 -1.82866 0
M  V30 7123 H 665.708 0.0403625 -4.0798 0
M  V30 7124 H 664.383 -1.10977 -4.0082 0
M  V30 7125 H 662.96 0.689209 -3.66476 0
M  V30 7126 N 665.145 1.52092 -0.413018 0
M  V30 7127 C 666.37 2.06756 0.163338 0
M  V30 7128 C 666.795 1.28073 1.37764 0
M  V30 7129 O 666.153 0.312015 1.78595 0
M  V30 7130 C 666.201 3.57278 0.488322 0
M  V30 7131 O 665.305 3.80986 1.57871 0
M  V30 7132 H 664.646 0.663882 0.0125068 0
M  V30 7133 H 667.176 1.95988 -0.587339 0
M  V30 7134 H 667.186 4.01125 0.745836 0
M  V30 7135 H 665.861 4.13978 -0.399327 0
M  V30 7136 H 664.438 3.49017 1.31306 0
M  V30 7137 N 666.623 0.143563 1.56945 0
M  V30 7138 C 667.573 -0.809115 2.1316 0
M  V30 7139 C 668.557 -1.21176 1.05855 0
M  V30 7140 O 669.749 -1.17875 1.3204 0
M  V30 7141 C 666.878 -2.04957 2.75405 0
M  V30 7142 C 665.964 -1.67018 3.89828 0
M  V30 7143 N 666.355 -0.998822 4.9584 0
M  V30 7144 C 664.653 -1.96313 4.00471 0
M  V30 7145 C 665.354 -0.816217 5.75945 0
M  V30 7146 N 664.33 -1.349 5.26596 0
M  V30 7147 H 668.132 -0.286919 2.92496 0
M  V30 7148 H 665.646 -0.0580948 1.62296 0
M  V30 7149 H 667.643 -2.74201 3.14037 0
M  V30 7150 H 666.303 -2.57697 1.97541 0
M  V30 7151 H 667.314 -0.659975 5.13678 0
M  V30 7152 H 663.991 -2.50927 3.33679 0
M  V30 7153 H 665.381 -0.287353 6.71285 0
M  V30 7154 N 668.101 -1.57061 -0.130224 0
M  V30 7155 C 669.512 -1.73539 -0.68856 0
M  V30 7156 C 669.863 -0.760554 -1.80859 0
M  V30 7157 O 668.988 0.0690796 -2.1629 0
M  V30 7158 C 669.583 -3.14666 -1.25581 0
M  V30 7159 C 668.142 -3.32689 -1.76055 0
M  V30 7160 C 667.289 -2.69436 -0.655712 0
M  V30 7161 H 670.24 -1.58412 0.0956002 0
M  V30 7162 H 670.261 -3.15595 -2.12556 0
M  V30 7163 H 669.773 -3.85593 -0.440412 0
M  V30 7164 H 667.874 -2.66786 -2.60108 0
M  V30 7165 H 667.987 -4.4077 -1.87772 0
M  V30 7166 H 666.351 -2.30362 -1.08654 0
M  V30 7167 H 667.134 -3.42979 0.14852 0
M  V30 7168 N 669.579 0.400081 -1.52437 0
M  V30 7169 C 670.527 1.50851 -1.7705 0
M  V30 7170 C 671.521 1.56928 -0.637969 0
M  V30 7171 O 672.727 1.60226 -0.820212 0
M  V30 7172 H 669.102 0.50186 -0.560036 0
M  V30 7173 H 671.073 1.27281 -2.69893 0
M  V30 7174 C 669.822 2.88117 -1.94638 0
M  V30 7175 H 669.145 2.84187 -2.81208 0
M  V30 7176 H 670.585 3.64942 -2.15855 0
M  V30 7177 C 669.044 3.29206 -0.715899 0
M  V30 7178 O 669.574 4.01544 0.111944 0
M  V30 7179 N 667.78 2.85363 -0.549191 0
M  V30 7180 H 667.327 2.26664 -1.22397 0
M  V30 7181 H 667.285 3.13214 0.27278 0
M  V30 7182 N 671.057 1.43213 0.657864 0
M  V30 7183 C 672.282 1.48227 1.45064 0
M  V30 7184 C 672.707 0.0999939 1.87834 0
M  V30 7185 O 672.065 -0.905269 1.57081 0
M  V30 7186 C 672.113 2.42931 2.6649 0
M  V30 7187 O 671.217 1.91237 3.6538 0
M  V30 7188 H 670.558 0.501551 0.435135 0
M  V30 7189 H 673.088 1.8808 0.805431 0
M  V30 7190 H 673.098 2.6008 3.1436 0
M  V30 7191 H 671.773 3.43348 2.34701 0
M  V30 7192 H 670.35 1.83726 3.24498 0
M  V30 7193 N 672.536 -0.895792 1.29666 0
M  V30 7194 C 673.784 -1.64339 1.17631 0
M  V30 7195 C 674.105 -1.93099 -0.271643 0
M  V30 7196 O 673.375 -1.55981 -1.18518 0
M  V30 7197 H 671.955 -0.609162 0.432354 0
M  V30 7198 H 674.617 -1.07389 1.62646 0
M  V30 7199 H 673.713 -2.59815 1.72924 0
M  V30 7200 N 674.014 -1.12206 -1.10668 0
M  V30 7201 C 674.944 -0.810086 -2.18997 0
M  V30 7202 C 675.925 0.225065 -1.68604 0
M  V30 7203 O 677.11 0.086783 -1.94006 0
M  V30 7204 C 674.24 -0.261262 -3.46316 0
M  V30 7205 C 673.194 -1.2292 -4.09969 0
M  V30 7206 C 672.52 -0.540713 -5.31959 0
M  V30 7207 C 673.82 -2.58295 -4.53962 0
M  V30 7208 H 675.514 -1.7159 -2.45352 0
M  V30 7209 H 673.06 -0.82646 -1.17922 0
M  V30 7210 H 675.013 -0.0307522 -4.21389 0
M  V30 7211 H 673.737 0.679879 -3.19445 0
M  V30 7212 H 672.396 -1.44548 -3.369 0
M  V30 7213 H 672.044 0.405492 -5.01363 0
M  V30 7214 H 671.744 -1.18637 -5.75499 0
M  V30 7215 H 673.268 -0.319184 -6.09765 0
M  V30 7216 H 674.682 -2.40709 -5.20319 0
M  V30 7217 H 673.079 -3.18916 -5.08343 0
M  V30 7218 H 674.149 -3.16918 -3.67002 0
M  V30 7219 N 675.492 1.28418 -0.913599 0
M  V30 7220 C 676.455 2.25564 -0.406624 0
M  V30 7221 C 677.455 1.5387 0.466965 0
M  V30 7222 O 678.645 1.72094 0.270042 0
M  V30 7223 C 675.777 3.38339 0.417053 0
M  V30 7224 H 676.97 2.71926 -1.26477 0
M  V30 7225 H 674.523 1.40098 -0.692986 0
M  V30 7226 H 675.258 2.97339 1.29461 0
M  V30 7227 H 675.043 3.91542 -0.209102 0
M  V30 7228 H 676.533 4.10578 0.762602 0
M  V30 7229 N 676.97 0.677563 1.42291 0
M  V30 7230 C 678.198 0.209459 2.05837 0
M  V30 7231 C 678.613 -1.13444 1.50917 0
M  V30 7232 O 677.97 -1.70529 0.65008 0
M  V30 7233 C 678.021 0.138819 3.61233 0
M  V30 7234 O 677.742 1.42962 4.14118 0
M  V30 7235 C 679.243 -0.352449 4.41897 0
M  V30 7236 H 676.463 0.101209 0.663323 0
M  V30 7237 H 679.007 0.925077 1.8238 0
M  V30 7238 H 677.162 -0.527505 3.83792 0
M  V30 7239 H 677.576 1.3048 5.08011 0
M  V30 7240 H 679.05 -0.350778 5.50884 0
M  V30 7241 H 679.527 -1.3882 4.16684 0
M  V30 7242 H 680.133 0.282236 4.24362 0
M  V30 7243 N 678.448 -1.51871 0.421078 0
M  V30 7244 C 679.697 -2.01125 -0.152206 0
M  V30 7245 C 680.01 -1.3106 -1.45199 0
M  V30 7246 O 681.216 -1.71195 -2.10724 0
M  V30 7247 C 679.672 -3.58458 -0.3218 0
M  V30 7248 C 679.28 -4.37448 0.96659 0
M  V30 7249 C 681.024 -4.15908 -0.84973 0
M  V30 7250 C 678.931 -5.86451 0.763529 0
M  V30 7251 H 677.861 -0.751556 -0.0606565 0
M  V30 7252 H 680.512 -1.75115 0.548354 0
M  V30 7253 H 678.894 -3.80847 -1.08498 0
M  V30 7254 H 680.068 -4.26814 1.73684 0
M  V30 7255 H 678.383 -3.91373 1.42183 0
M  V30 7256 H 680.98 -5.24922 -1.01788 0
M  V30 7257 H 681.323 -3.74031 -1.82774 0
M  V30 7258 H 681.856 -3.97535 -0.145297 0
M  V30 7259 H 678.595 -6.3271 1.71344 0
M  V30 7260 H 678.115 -5.99791 0.0327889 0
M  V30 7261 H 679.794 -6.45697 0.410354 0
M  V30 7262 N 679.926 -0.151884 -1.56866 0
M  V30 7263 C 680.859 0.824094 -2.128 0
M  V30 7264 C 681.837 1.2391 -1.05286 0
M  V30 7265 O 683.021 1.33433 -1.33146 0
M  V30 7266 C 680.148 2.1072 -2.65169 0
M  V30 7267 C 679.194 1.83774 -3.84876 0
M  V30 7268 S 680.027 1.02436 -5.25611 0
M  V30 7269 C 681.183 2.31855 -5.81373 0
M  V30 7270 H 681.416 0.348456 -2.95251 0
M  V30 7271 H 678.949 0.0624794 -1.54274 0
M  V30 7272 H 680.907 2.84428 -2.95992 0
M  V30 7273 H 679.568 2.55398 -1.8284 0
M  V30 7274 H 678.761 2.78929 -4.19779 0
M  V30 7275 H 678.363 1.18172 -3.5484 0
M  V30 7276 H 680.655 3.27469 -5.93102 0
M  V30 7277 H 681.598 2.01449 -6.7884 0
M  V30 7278 H 682.006 2.42727 -5.09651 0
M  V30 7279 N 681.404 1.57128 0.121893 0
M  V30 7280 C 682.629 1.89254 0.848385 0
M  V30 7281 C 683.054 0.743527 1.72781 0
M  V30 7282 O 682.412 -0.306056 1.78698 0
M  V30 7283 C 682.46 3.20113 1.66012 0
M  V30 7284 O 681.564 3.05815 2.76679 0
M  V30 7285 H 680.905 0.621103 0.234793 0
M  V30 7286 H 683.435 2.0433 0.10516 0
M  V30 7287 H 683.445 3.52761 2.04996 0
M  V30 7288 H 682.12 4.03336 1.01452 0
M  V30 7289 H 680.697 2.84627 2.40918 0
M  V30 7290 N 682.882 -0.391992 1.52647 0
M  V30 7291 C 684.159 -1.15136 1.58123 0
M  V30 7292 C 684.539 -2.07786 0.372597 0
M  V30 7293 O 683.887 -2.19374 -0.639304 0
M  V30 7294 C 684.097 -1.91367 2.91856 0
M  V30 7295 C 685.445 -2.46833 3.45483 0
M  V30 7296 O 686.469 -2.01527 2.9371 0
M  V30 7297 O 685.328 -3.29587 4.3593 0
M  V30 7298 H 682.422 -0.526649 0.637629 0
M  V30 7299 H 684.968 -0.397386 1.64982 0
M  V30 7300 H 683.74 -1.23597 3.71268 0
M  V30 7301 H 683.363 -2.73732 2.88369 0
M  V30 7302 N 684.36 -1.4356 -0.65026 0
M  V30 7303 C 685.608 -1.45046 -1.40734 0
M  V30 7304 C 685.929 -0.0769822 -1.94848 0
M  V30 7305 O 685.199 0.888098 -1.74613 0
M  V30 7306 H 683.779 -0.534034 -0.522318 0
M  V30 7307 H 686.441 -1.79186 -0.766703 0
M  V30 7308 H 685.537 -2.16476 -2.24822 0
M  V30 7309 N 685.838 0.888903 -1.30139 0
M  V30 7310 C 687.249 1.45578 -1.16893 0
M  V30 7311 C 687.6 1.94825 0.231866 0
M  V30 7312 O 686.725 1.84661 1.12824 0
M  V30 7313 C 687.32 2.646 -2.11595 0
M  V30 7314 C 685.879 3.17389 -2.02339 0
M  V30 7315 C 685.026 1.90081 -2.01902 0
M  V30 7316 H 687.977 0.69921 -1.42467 0
M  V30 7317 H 687.998 3.40687 -1.69449 0
M  V30 7318 H 687.51 2.28726 -3.13538 0
M  V30 7319 H 685.611 3.5793 -1.03523 0
M  V30 7320 H 685.724 3.80955 -2.90534 0
M  V30 7321 H 684.088 2.08246 -1.46648 0
M  V30 7322 H 684.871 1.5647 -3.05568 0
M  V30 7323 N 687.317 1.12792 1.10072 0
M  V30 7324 C 688.565 0.883796 1.81751 0
M  V30 7325 C 688.886 -0.591891 1.858 0
M  V30 7326 O 688.156 -1.43017 1.33876 0
M  V30 7327 H 686.736 0.323978 0.673088 0
M  V30 7328 H 689.398 1.42314 1.33164 0
M  V30 7329 H 688.494 1.26863 2.85153 0
M  V30 7330 N 688.795 -1.27931 0.920396 0
M  V30 7331 C 690.043 -1.94304 0.555906 0
M  V30 7332 C 690.364 -1.72753 -0.904519 0
M  V30 7333 O 689.634 -1.07104 -1.64029 0
M  V30 7334 H 688.214 -0.719001 0.202599 0
M  V30 7335 H 690.876 -1.55785 1.1712 0
M  V30 7336 H 689.972 -3.02806 0.755981 0
M  V30 7337 N 690.273 -0.685099 -1.4193 0
M  V30 7338 C 691.221 -0.00165985 -2.326 0
M  V30 7339 C 692.215 0.779678 -1.50391 0
M  V30 7340 O 693.421 0.68648 -1.66395 0
M  V30 7341 H 689.796 0.0182616 -0.751778 0
M  V30 7342 H 691.767 -0.783592 -2.87928 0
M  V30 7343 C 690.516 0.928385 -3.35077 0
M  V30 7344 H 689.839 0.336578 -3.98381 0
M  V30 7345 H 691.279 1.37509 -4.01083 0
M  V30 7346 C 689.738 2.03964 -2.68142 0
M  V30 7347 O 690.268 3.12727 -2.5212 0
M  V30 7348 N 688.474 1.81433 -2.27003 0
M  V30 7349 H 688.021 0.929807 -2.40234 0
M  V30 7350 H 687.979 2.55973 -1.82552 0
M  V30 7351 N 691.751 1.51645 -0.429126 0
M  V30 7352 C 692.698 2.27542 0.386446 0
M  V30 7353 C 693.668 1.30786 1.02393 0
M  V30 7354 O 694.853 1.59678 1.0444 0
M  V30 7355 C 691.993 3.11457 1.48623 0
M  V30 7356 C 691.106 4.23196 0.867691 0
M  V30 7357 C 690.241 4.94435 1.94183 0
M  V30 7358 C 689.28 5.98108 1.30129 0
M  V30 7359 N 688.417 6.62786 2.31644 0
M  V30 7360 H 693.257 2.968 -0.267155 0
M  V30 7361 H 690.794 1.46397 -0.143591 0
M  V30 7362 H 692.752 3.58429 2.13506 0
M  V30 7363 H 691.382 2.44329 2.10957 0
M  V30 7364 H 690.434 3.80248 0.107373 0
M  V30 7365 H 691.746 4.97499 0.35997 0
M  V30 7366 H 690.9 5.44914 2.66747 0
M  V30 7367 H 689.639 4.19744 2.48326 0
M  V30 7368 H 688.644 5.4693 0.561082 0
M  V30 7369 H 689.869 6.74751 0.767303 0
M  V30 7370 H 687.815 5.90913 2.84883 0
M  V30 7371 H 687.732 7.32828 1.85741 0
M  V30 7372 H 689 7.17897 3.03717 0
M  V30 7373 N 693.229 0.160201 1.56784 0
M  V30 7374 C 694.475 -0.481855 1.9761 0
M  V30 7375 C 694.83 -1.61605 1.04411 0
M  V30 7376 O 694.123 -1.91426 0.0816402 0
M  V30 7377 C 694.317 -1.02259 3.42459 0
M  V30 7378 C 694.146 0.0576781 4.49663 0
M  V30 7379 C 692.916 0.503585 5.02784 0
M  V30 7380 C 695.114 0.854013 5.0716 0
M  V30 7381 N 693.096 1.56532 5.93608 0
M  V30 7382 C 694.467 1.76593 5.94319 0
M  V30 7383 C 696.522 0.900333 4.89692 0
M  V30 7384 C 695.225 2.72023 6.6588 0
M  V30 7385 C 697.251 1.84252 5.61965 0
M  V30 7386 C 696.613 2.74194 6.48843 0
M  V30 7387 H 692.712 -0.144748 0.768487 0
M  V30 7388 H 695.296 0.257853 1.92985 0
M  V30 7389 H 693.467 -1.73186 3.47651 0
M  V30 7390 H 695.199 -1.63235 3.70319 0
M  V30 7391 H 691.954 0.103361 4.73487 0
M  V30 7392 H 692.378 2.09634 6.43726 0
M  V30 7393 H 697.02 0.219023 4.22232 0
M  V30 7394 H 694.738 3.41147 7.3256 0
M  V30 7395 H 698.324 1.88433 5.5044 0
M  V30 7396 H 697.204 3.45912 7.03786 0
M  V30 7397 N 694.707 -1.5719 -0.113559 0
M  V30 7398 C 695.64 -1.9595 -1.16957 0
M  V30 7399 C 696.618 -0.829951 -1.39823 0
M  V30 7400 O 697.802 -1.08861 -1.53888 0
M  V30 7401 C 694.929 -2.2604 -2.52237 0
M  V30 7402 C 693.975 -3.48571 -2.45765 0
M  V30 7403 S 694.808 -5.00962 -1.89203 0
M  V30 7404 C 695.964 -5.3421 -3.26145 0
M  V30 7405 H 696.197 -2.85214 -0.839069 0
M  V30 7406 H 693.73 -1.51036 -0.320529 0
M  V30 7407 H 695.688 -2.44054 -3.30073 0
M  V30 7408 H 694.349 -1.3738 -2.82463 0
M  V30 7409 H 693.542 -3.67008 -3.45429 0
M  V30 7410 H 693.144 -3.29972 -1.76053 0
M  V30 7411 H 695.436 -5.29725 -4.22371 0
M  V30 7412 H 696.379 -6.35398 -3.12529 0
M  V30 7413 H 696.787 -4.61681 -3.24825 0
M  V30 7414 N 696.185 0.383891 -1.52853 0
M  V30 7415 C 697.415 1.14783 -1.7178 0
M  V30 7416 C 697.823 1.84055 -0.438211 0
M  V30 7417 O 697.166 1.73713 0.597465 0
M  V30 7418 C 697.228 2.23543 -2.81547 0
M  V30 7419 C 696.892 1.74195 -4.22499 0
M  V30 7420 C 697.889 1.21591 -5.05481 0
M  V30 7421 C 695.574 1.80262 -4.6884 0
M  V30 7422 C 697.568 0.757104 -6.32888 0
M  V30 7423 C 695.255 1.33993 -5.96229 0
M  V30 7424 C 696.253 0.818049 -6.78083 0
M  V30 7425 O 695.941 0.362123 -8.03084 0
M  V30 7426 H 695.673 0.349908 -0.578395 0
M  V30 7427 H 698.227 0.454377 -2.00311 0
M  V30 7428 H 696.457 2.96328 -2.48449 0
M  V30 7429 H 698.146 2.8519 -2.88828 0
M  V30 7430 H 698.912 1.16257 -4.7086 0
M  V30 7431 H 694.791 2.19825 -4.05213 0
M  V30 7432 H 698.335 0.34908 -6.96726 0
M  V30 7433 H 694.232 1.39015 -6.30353 0
M  V30 7434 H 695 0.483134 -8.17073 0
M  V30 7435 N 697.663 1.43903 0.642637 0
M  V30 7436 C 698.909 1.46296 1.40447 0
M  V30 7437 C 699.242 0.0908361 1.93987 0
M  V30 7438 O 698.517 -0.889884 1.72949 0
M  V30 7439 C 698.8 2.51399 2.57819 0
M  V30 7440 C 698.653 3.97926 2.09702 0
M  V30 7441 C 699.972 2.53125 3.60022 0
M  V30 7442 H 697.091 0.532676 0.509338 0
M  V30 7443 H 699.733 1.75515 0.727635 0
M  V30 7444 H 697.883 2.26614 3.1556 0
M  V30 7445 H 699.555 4.33804 1.5688 0
M  V30 7446 H 697.798 4.10252 1.40982 0
M  V30 7447 H 698.469 4.67096 2.94152 0
M  V30 7448 H 700.945 2.75242 3.12059 0
M  V30 7449 H 699.821 3.28589 4.39682 0
M  V30 7450 H 700.082 1.56895 4.13324 0
M  V30 7451 N 699.141 -0.881989 1.30609 0
M  V30 7452 C 700.389 -1.63082 1.19368 0
M  V30 7453 C 700.71 -1.93376 -0.251147 0
M  V30 7454 O 699.98 -1.5723 -1.16857 0
M  V30 7455 H 698.56 -0.604542 0.438791 0
M  V30 7456 H 701.222 -1.05658 1.63776 0
M  V30 7457 H 700.318 -2.57966 1.7567 0
M  V30 7458 N 700.619 -1.13374 -1.09472 0
M  V30 7459 C 701.566 -0.810682 -2.16094 0
M  V30 7460 C 702.536 0.227003 -1.64541 0
M  V30 7461 O 703.721 0.0993538 -1.90541 0
M  V30 7462 C 700.861 -0.282336 -3.43943 0
M  V30 7463 C 699.974 -1.37902 -4.09398 0
M  V30 7464 C 699.109 -0.809066 -5.25002 0
M  V30 7465 C 698.148 -1.88419 -5.82379 0
M  V30 7466 N 697.285 -1.33221 -6.89345 0
M  V30 7467 H 702.125 -1.72397 -2.43071 0
M  V30 7468 H 699.662 -0.860564 -1.19301 0
M  V30 7469 H 701.62 0.0421189 -4.17179 0
M  V30 7470 H 700.25 0.594083 -3.17286 0
M  V30 7471 H 699.302 -1.82008 -3.34032 0
M  V30 7472 H 700.614 -2.19161 -4.48074 0
M  V30 7473 H 699.768 -0.435867 -6.05132 0
M  V30 7474 H 698.507 0.0346058 -4.87688 0
M  V30 7475 H 697.512 -2.26646 -5.00911 0
M  V30 7476 H 698.737 -2.73125 -6.21755 0
M  V30 7477 H 696.683 -0.510535 -6.5401 0
M  V30 7478 H 696.6 -2.08129 -7.26786 0
M  V30 7479 H 697.868 -0.986565 -7.73232 0
M  V30 7480 N 702.098 1.27442 -0.927168 0
M  V30 7481 C 703.048 2.24519 -0.396878 0
M  V30 7482 C 704.032 1.52981 0.498555 0
M  V30 7483 O 705.224 1.7378 0.336087 0
M  V30 7484 C 702.353 3.41514 0.349694 0
M  V30 7485 C 701.439 4.20357 -0.562226 0
M  V30 7486 N 701.83 4.7702 -1.68182 0
M  V30 7487 C 700.128 4.44503 -0.365135 0
M  V30 7488 C 700.829 5.36467 -2.24895 0
M  V30 7489 N 699.805 5.21371 -1.5386 0
M  V30 7490 H 703.607 2.65911 -1.25173 0
M  V30 7491 H 701.121 1.42366 -0.78138 0
M  V30 7492 H 703.118 4.10161 0.746536 0
M  V30 7493 H 701.778 3.01653 1.20148 0
M  V30 7494 H 702.789 4.74985 -2.06421 0
M  V30 7495 H 699.466 4.15111 0.446037 0
M  V30 7496 H 700.856 5.91264 -3.1915 0
M  V30 7497 N 703.576 0.692616 1.41565 0
M  V30 7498 C 704.523 0.0254264 2.30786 0
M  V30 7499 C 705.493 -0.774347 1.46946 0
M  V30 7500 O 706.678 -0.742981 1.7574 0
M  V30 7501 C 703.818 -0.907123 3.32964 0
M  V30 7502 C 702.931 -0.0992784 4.31886 0
M  V30 7503 C 702.066 -1.0292 5.21134 0
M  V30 7504 C 701.105 -0.214088 6.11725 0
M  V30 7505 N 700.242 -1.09766 6.93467 0
M  V30 7506 H 705.082 0.792036 2.87282 0
M  V30 7507 H 702.619 0.4023 1.41492 0
M  V30 7508 H 704.577 -1.46181 3.90752 0
M  V30 7509 H 703.207 -1.64016 2.78026 0
M  V30 7510 H 702.259 0.572287 3.76071 0
M  V30 7511 H 703.571 0.532782 4.95946 0
M  V30 7512 H 702.725 -1.65321 5.83741 0
M  V30 7513 H 701.464 -1.69512 4.57293 0
M  V30 7514 H 700.469 0.42302 5.4817 0
M  V30 7515 H 701.694 0.447995 6.77621 0
M  V30 7516 H 699.64 -1.74965 6.32237 0
M  V30 7517 H 699.557 -0.521099 7.54202 0
M  V30 7518 H 700.825 -1.70858 7.60544 0
M  V30 7519 N 705.054 -1.51416 0.437162 0
M  V30 7520 C 706.017 -2.26312 -0.362729 0
M  V30 7521 C 707.017 -1.29748 -0.949847 0
M  V30 7522 O 708.207 -1.53462 -0.824325 0
M  V30 7523 C 705.339 -3.05475 -1.5132 0
M  V30 7524 H 706.532 -2.98459 0.29365 0
M  V30 7525 H 704.085 -1.55137 0.190327 0
M  V30 7526 H 704.82 -2.37744 -2.20563 0
M  V30 7527 H 704.605 -3.76401 -1.09838 0
M  V30 7528 H 706.095 -3.62209 -2.07833 0
M  V30 7529 N 706.532 -0.168513 -1.56696 0
M  V30 7530 C 707.78 0.476216 -1.96409 0
M  V30 7531 C 708.101 1.63968 -1.05544 0
M  V30 7532 O 707.371 1.95525 -0.121235 0
M  V30 7533 H 705.951 0.178921 -0.725256 0
M  V30 7534 H 708.613 -0.249042 -1.93302 0
M  V30 7535 H 707.709 0.838094 -3.00637 0
M  V30 7536 N 708.01 1.57248 0.105221 0
M  V30 7537 C 708.942 1.98008 1.15436 0
M  V30 7538 C 709.955 0.881236 1.36887 0
M  V30 7539 O 711.144 1.15943 1.35718 0
M  V30 7540 C 708.244 2.27509 2.51183 0
M  V30 7541 C 707.417 3.58811 2.50147 0
M  V30 7542 C 706.476 3.76365 3.67745 0
M  V30 7543 O 705.502 4.48329 3.50699 0
M  V30 7544 N 706.704 3.16174 4.86841 0
M  V30 7545 H 709.469 2.88616 0.807519 0
M  V30 7546 H 707.03 1.59202 0.29433 0
M  V30 7547 H 709.022 2.36455 3.28438 0
M  V30 7548 H 707.592 1.42959 2.77995 0
M  V30 7549 H 706.812 3.60927 1.5851 0
M  V30 7550 H 708.1 4.45088 2.46524 0
M  V30 7551 H 707.498 2.57701 5.03594 0
M  V30 7552 H 706.055 3.30621 5.61723 0
M  V30 7553 N 709.488 -0.375779 1.53054 0
M  V30 7554 C 710.734 -1.12114 1.68992 0
M  V30 7555 C 711.067 -1.8926 0.435238 0
M  V30 7556 O 710.342 -1.86044 -0.567278 0
M  V30 7557 C 710.625 -2.08867 2.93337 0
M  V30 7558 C 710.478 -1.35397 4.28938 0
M  V30 7559 C 711.797 -3.09124 3.13257 0
M  V30 7560 H 708.916 -0.406207 0.614951 0
M  V30 7561 H 711.558 -0.403054 1.85676 0
M  V30 7562 H 709.708 -2.70102 2.79244 0
M  V30 7563 H 711.38 -0.770242 4.54824 0
M  V30 7564 H 709.623 -0.655801 4.28814 0
M  V30 7565 H 710.294 -2.06161 5.12056 0
M  V30 7566 H 712.77 -2.57987 3.26469 0
M  V30 7567 H 711.646 -3.74054 4.01715 0
M  V30 7568 H 711.907 -3.78729 2.28072 0
M  V30 7569 N 710.966 -1.44241 -0.634997 0
M  V30 7570 C 712.212 -1.48033 -1.39492 0
M  V30 7571 C 712.567 -0.109791 -1.92086 0
M  V30 7572 O 711.86 0.874394 -1.70484 0
M  V30 7573 C 712.054 -2.47279 -2.58046 0
M  V30 7574 C 711.883 -3.93848 -2.17057 0
M  V30 7575 C 710.653 -4.62061 -2.04518 0
M  V30 7576 C 712.851 -4.83172 -1.76208 0
M  V30 7577 N 710.833 -5.93471 -1.57051 0
M  V30 7578 C 712.204 -6.03996 -1.39958 0
M  V30 7579 C 714.259 -4.70271 -1.63554 0
M  V30 7580 C 712.962 -7.13351 -0.923196 0
M  V30 7581 C 714.988 -5.79646 -1.1732 0
M  V30 7582 C 714.35 -6.99609 -0.820181 0
M  V30 7583 H 710.449 -0.596743 -0.505392 0
M  V30 7584 H 713.033 -1.80542 -0.72887 0
M  V30 7585 H 711.204 -2.16766 -3.22284 0
M  V30 7586 H 712.936 -2.41391 -3.24827 0
M  V30 7587 H 709.691 -4.1682 -2.24851 0
M  V30 7588 H 710.115 -6.63275 -1.35628 0
M  V30 7589 H 714.757 -3.77964 -1.8948 0
M  V30 7590 H 712.475 -8.0547 -0.651441 0
M  V30 7591 H 716.061 -5.71689 -1.07993 0
M  V30 7592 H 714.941 -7.82803 -0.467901 0
M  V30 7593 N 712.444 0.87505 -1.31075 0
M  V30 7594 C 713.86 1.15997 -1.09622 0
M  V30 7595 C 714.06 2.01036 0.136611 0
M  V30 7596 O 713.116 2.38559 0.827397 0
M  V30 7597 C 714.429 1.85702 -2.36506 0
M  V30 7598 C 715.977 1.98425 -2.42067 0
M  V30 7599 C 716.452 2.71544 -3.68819 0
M  V30 7600 N 717.943 2.79084 -3.69684 0
M  V30 7601 C 718.678 3.36259 -4.64454 0
M  V30 7602 N 718.174 3.94406 -5.69575 0
M  V30 7603 N 719.967 3.34169 -4.51982 0
M  V30 7604 H 712.118 0.308258 -2.10151 0
M  V30 7605 H 714.381 0.199145 -0.926847 0
M  V30 7606 H 714.087 1.30663 -3.26527 0
M  V30 7607 H 713.961 2.86017 -2.45915 0
M  V30 7608 H 716.348 2.5263 -1.52518 0
M  V30 7609 H 716.429 0.971682 -2.36626 0
M  V30 7610 H 716.073 2.18008 -4.58732 0
M  V30 7611 H 716.003 3.73198 -3.71525 0
M  V30 7612 H 718.494 2.3781 -2.93691 0
M  V30 7613 H 718.807 4.36129 -6.37974 0
M  V30 7614 H 717.152 3.92797 -5.73355 0
M  V30 7615 H 720.343 2.87977 -3.69035 0
M  V30 7616 H 720.516 3.78431 -5.26017 0
M  V30 7617 N 713.922 1.13953 1.08869 0
M  V30 7618 C 715.199 0.815768 1.77777 0
M  V30 7619 C 715.579 -0.691624 1.99449 0
M  V30 7620 O 714.927 -1.63085 1.60049 0
M  V30 7621 C 715.137 1.60916 3.09689 0
M  V30 7622 C 716.485 1.80549 3.84301 0
M  V30 7623 O 717.509 1.57562 3.19457 0
M  V30 7624 O 716.368 2.18946 5.00724 0
M  V30 7625 H 713.462 0.298445 0.771271 0
M  V30 7626 H 716.008 1.24446 1.15374 0
M  V30 7627 H 714.78 2.6333 2.89435 0
M  V30 7628 H 714.403 1.17578 3.79817 0
M  V30 7629 N 715.4 -1.26948 0.933913 0
M  V30 7630 C 716.649 -1.93378 0.573409 0
M  V30 7631 C 716.962 -1.74148 -0.890614 0
M  V30 7632 O 718.168 -2.34971 -1.36017 0
M  V30 7633 C 716.624 -3.46449 0.974747 0
M  V30 7634 C 716.232 -3.74425 2.45988 0
M  V30 7635 C 717.976 -4.18924 0.685791 0
M  V30 7636 C 715.883 -5.209 2.8003 0
M  V30 7637 H 714.813 -0.723952 0.210736 0
M  V30 7638 H 717.464 -1.44143 1.13557 0
M  V30 7639 H 715.846 -3.94528 0.341181 0
M  V30 7640 H 717.02 -3.37079 3.14188 0
M  V30 7641 H 715.335 -3.15167 2.72138 0
M  V30 7642 H 717.932 -5.26786 0.916546 0
M  V30 7643 H 718.275 -4.14587 -0.377217 0
M  V30 7644 H 718.808 -3.76687 1.27874 0
M  V30 7645 H 715.547 -5.30332 3.85264 0
M  V30 7646 H 715.067 -5.59369 2.16485 0
M  V30 7647 H 716.746 -5.88837 2.68105 0
M  V30 7648 N 716.879 -0.700114 -1.41195 0
M  V30 7649 C 718.107 -0.242179 -2.05478 0
M  V30 7650 C 718.522 1.11029 -1.52702 0
M  V30 7651 O 717.879 1.69473 -0.677127 0
M  V30 7652 C 717.93 -0.196271 -3.60967 0
M  V30 7653 O 717.651 -1.49532 -4.11791 0
M  V30 7654 C 719.152 0.282102 -4.42401 0
M  V30 7655 H 716.372 -0.111749 -0.661629 0
M  V30 7656 H 718.916 -0.953975 -1.80885 0
M  V30 7657 H 717.071 0.46638 -3.84582 0
M  V30 7658 H 717.485 -1.38545 -5.05871 0
M  V30 7659 H 718.959 0.263093 -5.51373 0
M  V30 7660 H 719.436 1.32174 -4.1884 0
M  V30 7661 H 720.042 -0.349712 -4.2386 0
M  V30 7662 N 718.357 1.51182 -0.445186 0
M  V30 7663 C 719.605 2.01753 0.11841 0
M  V30 7664 C 719.926 1.33087 1.42523 0
M  V30 7665 O 719.196 0.467891 1.9023 0
M  V30 7666 H 717.776 0.745536 0.0467492 0
M  V30 7667 H 720.438 1.85765 -0.589688 0
M  V30 7668 H 719.534 3.10762 0.288665 0
M  V30 7669 N 719.835 0.176821 1.56605 0
M  V30 7670 C 720.783 -0.768159 2.1955 0
M  V30 7671 C 721.777 -1.23343 1.16116 0
M  V30 7672 O 722.983 -1.19844 1.34303 0
M  V30 7673 H 719.358 -0.266013 0.703378 0
M  V30 7674 H 721.329 -0.213374 2.97636 0
M  V30 7675 C 720.078 -1.98492 2.85475 0
M  V30 7676 H 719.401 -1.63595 3.64797 0
M  V30 7677 H 720.841 -2.62489 3.3298 0
M  V30 7678 C 719.3 -2.81207 1.85538 0
M  V30 7679 O 719.83 -3.7854 1.34427 0
M  V30 7680 N 718.036 -2.46331 1.54173 0
M  V30 7681 H 717.583 -1.67241 1.95929 0
M  V30 7682 H 717.541 -3.01961 0.875595 0
M  V30 7683 N 721.313 -1.57302 -0.09688 0
M  V30 7684 C 722.729 -1.53094 -0.451041 0
M  V30 7685 C 722.929 -0.893265 -1.80618 0
M  V30 7686 O 721.985 -0.485013 -2.47798 0
M  V30 7687 C 723.298 -2.9782 -0.415172 0
M  V30 7688 C 724.846 -3.09026 -0.497155 0
M  V30 7689 C 725.321 -4.55356 -0.491452 0
M  V30 7690 N 726.812 -4.59896 -0.552258 0
M  V30 7691 C 727.547 -5.70563 -0.569654 0
M  V30 7692 N 727.043 -6.90666 -0.543365 0
M  V30 7693 N 728.836 -5.58733 -0.614331 0
M  V30 7694 H 720.987 -1.97131 0.790771 0
M  V30 7695 H 723.25 -0.901211 0.294147 0
M  V30 7696 H 722.956 -3.47933 0.513362 0
M  V30 7697 H 722.83 -3.56416 -1.23481 0
M  V30 7698 H 725.217 -2.58902 -1.41611 0
M  V30 7699 H 725.298 -2.53386 0.35059 0
M  V30 7700 H 724.942 -5.06131 0.423549 0
M  V30 7701 H 724.872 -5.08832 -1.35639 0
M  V30 7702 H 727.363 -3.73456 -0.577842 0
M  V30 7703 H 727.676 -7.70769 -0.559873 0
M  V30 7704 H 726.021 -6.93123 -0.510441 0
M  V30 7705 H 729.212 -4.63809 -0.632387 0
M  V30 7706 H 729.385 -6.44984 -0.62442 0
M  V30 7707 N 722.791 0.367657 -1.53252 0
M  V30 7708 C 724.016 1.13566 -1.73544 0
M  V30 7709 C 724.441 1.82329 -0.462344 0
M  V30 7710 O 723.799 1.71655 0.583472 0
M  V30 7711 C 723.847 2.14322 -2.89997 0
M  V30 7712 O 722.951 3.21359 -2.58461 0
M  V30 7713 H 722.292 0.329614 -0.576412 0
M  V30 7714 H 724.822 0.425417 -2.00128 0
M  V30 7715 H 724.832 2.57958 -3.16104 0
M  V30 7716 H 723.507 1.63664 -3.82344 0
M  V30 7717 H 722.084 2.8271 -2.43165 0
M  V30 7718 N 724.269 1.44576 0.627338 0
M  V30 7719 C 725.517 1.47267 1.38408 0
M  V30 7720 C 725.838 0.107971 1.94701 0
M  V30 7721 O 725.108 -0.860206 1.76004 0
M  V30 7722 H 723.688 0.542276 0.513756 0
M  V30 7723 H 726.35 1.80383 0.738099 0
M  V30 7724 H 725.446 2.20025 2.21349 0
M  V30 7725 N 725.747 -0.868086 1.31537 0
M  V30 7726 C 726.975 -1.65402 1.24298 0
M  V30 7727 C 727.39 -1.87827 -0.191389 0
M  V30 7728 O 726.747 -1.43776 -1.12404 0
M  V30 7729 C 726.798 -3.02093 1.9855 0
M  V30 7730 O 726.519 -2.80668 3.36388 0
M  V30 7731 C 728.02 -3.96538 1.98173 0
M  V30 7732 H 725.24 -0.515598 0.429417 0
M  V30 7733 H 727.784 -1.0834 1.73444 0
M  V30 7734 H 725.939 -3.55838 1.53161 0
M  V30 7735 H 726.353 -3.67504 3.74221 0
M  V30 7736 H 727.827 -4.8976 2.54635 0
M  V30 7737 H 728.304 -4.28474 0.964697 0
M  V30 7738 H 728.91 -3.48729 2.4345 0
M  V30 7739 N 727.225 -1.14528 -1.08264 0
M  V30 7740 C 728.471 -0.91576 -1.80947 0
M  V30 7741 C 728.804 0.55623 -1.86064 0
M  V30 7742 O 728.079 1.41207 -1.33756 0
M  V30 7743 C 728.362 -1.51917 -3.26486 0
M  V30 7744 C 728.215 -3.06111 -3.2957 0
M  V30 7745 C 729.534 -1.19724 -4.23502 0
M  V30 7746 H 726.653 -0.334113 -0.656915 0
M  V30 7747 H 729.295 -1.41547 -1.26746 0
M  V30 7748 H 727.445 -1.0942 -3.72773 0
M  V30 7749 H 729.117 -3.57448 -2.91597 0
M  V30 7750 H 727.36 -3.40483 -2.688 0
M  V30 7751 H 728.031 -3.43438 -4.32151 0
M  V30 7752 H 730.507 -1.56467 -3.85561 0
M  V30 7753 H 729.383 -1.64575 -5.23647 0
M  V30 7754 H 729.644 -0.112771 -4.41956 0
M  V30 7755 N 728.703 1.26451 -0.940633 0
M  V30 7756 C 729.931 1.97868 -0.604642 0
M  V30 7757 C 730.346 1.70051 0.820251 0
M  V30 7758 O 729.703 0.96843 1.54686 0
M  V30 7759 C 729.754 3.51684 -0.836689 0
M  V30 7760 O 729.475 3.78533 -2.20554 0
M  V30 7761 C 730.976 4.40343 -0.511169 0
M  V30 7762 H 728.196 0.631105 -0.227919 0
M  V30 7763 H 730.74 1.60979 -1.26119 0
M  V30 7764 H 728.895 3.86736 -0.226759 0
M  V30 7765 H 729.309 4.73065 -2.26517 0
M  V30 7766 H 730.783 5.47229 -0.724157 0
M  V30 7767 H 731.26 4.35694 0.553815 0
M  V30 7768 H 731.866 4.10834 -1.0998 0
M  V30 7769 N 730.181 0.707592 1.40822 0
M  V30 7770 C 731.43 0.240705 2.00259 0
M  V30 7771 C 731.743 -1.17027 1.56729 0
M  V30 7772 O 732.949 -1.73526 2.08809 0
M  V30 7773 C 731.405 0.379432 3.57894 0
M  V30 7774 C 731.013 1.79654 4.104 0
M  V30 7775 C 732.757 -0.0270684 4.24491 0
M  V30 7776 C 730.664 1.88628 5.60512 0
M  V30 7777 H 729.594 0.0862369 0.749052 0
M  V30 7778 H 732.245 0.877528 1.61157 0
M  V30 7779 H 730.627 -0.325842 3.94657 0
M  V30 7780 H 731.801 2.53155 3.85032 0
M  V30 7781 H 730.116 2.15379 3.56372 0
M  V30 7782 H 732.713 0.0193743 5.34696 0
M  V30 7783 H 733.056 -1.06772 4.02375 0
M  V30 7784 H 733.589 0.628361 3.92806 0
M  V30 7785 H 730.328 2.90787 5.87472 0
M  V30 7786 H 729.848 1.19528 5.8777 0
M  V30 7787 H 731.527 1.6547 6.25483 0
M  V30 7788 N 731.66 -1.50943 0.453197 0
M  V30 7789 C 732.608 -2.29728 -0.364419 0
M  V30 7790 C 733.602 -1.36246 -1.00664 0
M  V30 7791 O 734.808 -1.53518 -0.939794 0
M  V30 7792 H 731.183 -0.739536 -0.136347 0
M  V30 7793 H 733.154 -2.96672 0.320696 0
M  V30 7794 C 731.903 -3.1629 -1.44415 0
M  V30 7795 H 731.226 -3.88119 -0.959343 0
M  V30 7796 H 732.666 -3.74444 -1.98917 0
M  V30 7797 C 731.125 -2.32702 -2.43622 0
M  V30 7798 O 731.655 -1.99763 -3.48508 0
M  V30 7799 N 729.861 -1.95621 -2.14897 0
M  V30 7800 H 729.408 -2.22607 -1.29629 0
M  V30 7801 H 729.366 -1.39993 -2.81513 0
M  V30 7802 N 733.138 -0.185124 -1.56509 0
M  V30 7803 C 734.101 0.72591 -2.17401 0
M  V30 7804 C 735.101 1.14819 -1.12575 0
M  V30 7805 O 736.291 1.0629 -1.38015 0
M  V30 7806 C 733.423 1.98979 -2.76803 0
M  V30 7807 H 734.616 0.195588 -2.99262 0
M  V30 7808 H 732.169 0.0644772 -1.56167 0
M  V30 7809 H 732.904 2.56287 -1.98714 0
M  V30 7810 H 732.689 1.69583 -3.53531 0
M  V30 7811 H 734.179 2.63966 -3.23592 0
M  V30 7812 N 734.616 1.57351 0.0885366 0
M  V30 7813 C 735.893 1.77449 0.822873 0
M  V30 7814 C 736.273 0.768463 1.96616 0
M  V30 7815 O 735.621 -0.201757 2.27608 0
M  V30 7816 C 735.831 3.23425 1.31137 0
M  V30 7817 C 737.179 3.86791 1.75152 0
M  V30 7818 O 738.203 3.27215 1.40745 0
M  V30 7819 O 737.062 4.91568 2.38794 0
M  V30 7820 H 734.156 0.727653 0.393002 0
M  V30 7821 H 736.702 1.69556 0.0699095 0
M  V30 7822 H 735.474 3.88188 0.49254 0
M  V30 7823 H 735.097 3.35977 2.12615 0
M  V30 7824 N 736.094 -0.359525 1.53444 0
M  V30 7825 C 737.342 -1.09935 1.69584 0
M  V30 7826 C 737.663 -1.89656 0.453371 0
M  V30 7827 O 736.933 -1.8852 -0.53263 0
M  V30 7828 H 735.513 -0.408843 0.625185 0
M  V30 7829 H 738.175 -0.40467 1.90653 0
M  V30 7830 H 737.271 -1.78575 2.55964 0
M  V30 7831 N 737.572 -1.44907 -0.619662 0
M  V30 7832 C 738.818 -1.49504 -1.37914 0
M  V30 7833 C 739.173 -0.130158 -1.91959 0
M  V30 7834 O 738.466 0.856263 -1.71402 0
M  V30 7835 C 738.66 -2.50002 -2.55409 0
M  V30 7836 C 738.489 -3.96128 -2.12867 0
M  V30 7837 C 737.259 -4.64204 -1.99606 0
M  V30 7838 C 739.457 -4.85014 -1.71074 0
M  V30 7839 N 737.439 -5.95104 -1.50748 0
M  V30 7840 C 738.81 -6.05447 -1.33544 0
M  V30 7841 C 740.865 -4.71979 -1.58557 0
M  V30 7842 C 739.568 -7.1429 -0.847484 0
M  V30 7843 C 741.594 -5.80858 -1.11165 0
M  V30 7844 C 740.956 -7.00439 -0.745932 0
M  V30 7845 H 737.055 -0.60207 -0.499034 0
M  V30 7846 H 739.639 -1.81305 -0.70968 0
M  V30 7847 H 737.81 -2.20172 -3.19967 0
M  V30 7848 H 739.542 -2.44823 -3.22248 0
M  V30 7849 H 736.297 -4.19182 -2.20417 0
M  V30 7850 H 736.721 -6.64676 -1.28585 0
M  V30 7851 H 741.363 -3.79953 -1.85461 0
M  V30 7852 H 739.081 -8.06116 -0.565974 0
M  V30 7853 H 742.667 -5.72803 -1.01923 0
M  V30 7854 H 741.547 -7.83255 -0.384848 0
M  V30 7855 N 739.05 0.861098 -1.31996 0
M  V30 7856 C 740.298 1.61162 -1.21947 0
M  V30 7857 C 740.619 1.93751 0.220351 0
M  V30 7858 O 739.889 1.59069 1.14341 0
M  V30 7859 H 738.469 0.597485 -0.448353 0
M  V30 7860 H 741.131 1.03039 -1.65436 0
M  V30 7861 H 740.227 2.55138 -1.79752 0
M  V30 7862 N 740.528 1.15101 1.07655 0
M  V30 7863 C 741.476 0.840714 2.16875 0
M  V30 7864 C 742.47 -0.184594 1.68391 0
M  V30 7865 O 743.676 -0.0399315 1.79956 0
M  V30 7866 H 740.051 0.254192 0.707736 0
M  V30 7867 H 742.022 1.76959 2.40266 0
M  V30 7868 C 740.771 0.343018 3.46004 0
M  V30 7869 H 740.094 1.12335 3.83694 0
M  V30 7870 H 741.534 0.16453 4.23681 0
M  V30 7871 C 739.993 -0.934881 3.23669 0
M  V30 7872 O 740.523 -2.00706 3.47965 0
M  V30 7873 N 738.729 -0.873167 2.77172 0
M  V30 7874 H 738.276 -0.000479072 2.576 0
M  V30 7875 H 738.234 -1.72873 2.62607 0
M  V30 7876 N 742.006 -1.2595 0.947325 0
M  V30 7877 C 743.253 -1.93463 0.598178 0
M  V30 7878 C 743.581 -1.74271 -0.863705 0
M  V30 7879 O 742.836 -1.07684 -1.63409 0
M  V30 7880 C 743.135 -3.46034 0.894158 0
M  V30 7881 C 742.801 -3.85373 2.3409 0
M  V30 7882 C 741.463 -3.95823 2.73637 0
M  V30 7883 C 743.815 -4.04986 3.2808 0
M  V30 7884 C 741.143 -4.23288 4.06257 0
M  V30 7885 C 743.495 -4.3394 4.60303 0
M  V30 7886 C 742.159 -4.42606 4.99656 0
M  V30 7887 H 741.429 -0.707933 0.218889 0
M  V30 7888 H 744.076 -1.4964 1.19499 0
M  V30 7889 H 742.381 -3.9121 0.214874 0
M  V30 7890 H 744.078 -3.96445 0.602698 0
M  V30 7891 H 740.668 -3.7779 2.02417 0
M  V30 7892 H 744.852 -3.96333 2.9872 0
M  V30 7893 H 740.108 -4.28211 4.36401 0
M  V30 7894 H 744.282 -4.48061 5.33118 0
M  V30 7895 H 741.909 -4.63641 6.02446 0
M  V30 7896 N 743.484 -0.715051 -1.40445 0
M  V30 7897 C 744.712 -0.263959 -2.05209 0
M  V30 7898 C 745.127 1.09403 -1.53871 0
M  V30 7899 O 744.484 1.68746 -0.695064 0
M  V30 7900 C 744.535 -0.234545 -3.60738 0
M  V30 7901 O 744.256 -1.53891 -4.10182 0
M  V30 7902 C 745.757 0.235164 -4.42676 0
M  V30 7903 H 742.977 -0.11876 -0.660407 0
M  V30 7904 H 745.521 -0.973107 -1.79864 0
M  V30 7905 H 743.676 0.425563 -3.85055 0
M  V30 7906 H 744.09 -1.43903 -5.04373 0
M  V30 7907 H 745.564 0.204598 -5.51621 0
M  V30 7908 H 746.041 1.27724 -4.20218 0
M  V30 7909 H 746.647 -0.394649 -4.23465 0
M  V30 7910 N 744.962 1.50701 -0.461195 0
M  V30 7911 C 746.208 2.02566 0.0973411 0
M  V30 7912 C 746.541 1.3432 1.40257 0
M  V30 7913 O 745.816 0.465692 1.88843 0
M  V30 7914 C 746.099 3.58919 0.291423 0
M  V30 7915 C 745.952 4.37751 -1.03413 0
M  V30 7916 C 747.271 4.27379 1.05048 0
M  V30 7917 H 744.39 0.73622 0.0339026 0
M  V30 7918 H 747.032 1.80115 -0.604855 0
M  V30 7919 H 745.182 3.78179 0.889539 0
M  V30 7920 H 746.854 4.30085 -1.66806 0
M  V30 7921 H 745.097 4.01885 -1.63313 0
M  V30 7922 H 745.768 5.45384 -0.852085 0
M  V30 7923 H 748.244 4.12534 0.543603 0
M  V30 7924 H 747.12 5.36609 1.15506 0
M  V30 7925 H 747.381 3.89868 2.0846 0
M  V30 7926 N 746.441 0.193421 1.56409 0
M  V30 7927 C 747.389 -0.744829 2.20352 0
M  V30 7928 C 748.383 -1.22104 1.17418 0
M  V30 7929 O 749.589 -1.18413 1.35567 0
M  V30 7930 H 745.964 -0.258538 0.70616 0
M  V30 7931 H 747.935 -0.181794 2.97846 0
M  V30 7932 C 746.684 -1.95453 2.87565 0
M  V30 7933 H 746.007 -1.59716 3.66512 0
M  V30 7934 H 747.447 -2.58942 3.35745 0
M  V30 7935 C 745.906 -2.79223 1.8851 0
M  V30 7936 O 746.436 -3.77093 1.38434 0
M  V30 7937 N 744.642 -2.44682 1.56777 0
M  V30 7938 H 744.189 -1.65153 1.97692 0
M  V30 7939 H 744.147 -3.01016 0.907573 0
M  V30 7940 N 747.919 -1.57396 -0.0801906 0
M  V30 7941 C 749.167 -1.86467 -0.779384 0
M  V30 7942 C 749.488 -0.784243 -1.78535 0
M  V30 7943 O 748.758 0.187986 -1.94996 0
M  V30 7944 H 747.338 -0.68806 -0.29083 0
M  V30 7945 H 750 -1.94813 -0.0582749 0
M  V30 7946 H 749.096 -2.83701 -1.30078 0
M  V30 7947 N 749.397 0.351382 -1.53633 0
M  V30 7948 C 750.645 1.09034 -1.70165 0
M  V30 7949 C 750.966 1.89413 -0.463422 0
M  V30 7950 O 750.236 1.888 0.522624 0
M  V30 7951 H 748.816 0.405522 -0.627344 0
M  V30 7952 H 751.478 0.394554 -1.90865 0
M  V30 7953 H 750.574 1.77215 -2.56907 0
M  V30 7954 N 750.875 1.45233 0.611969 0
M  V30 7955 C 751.838 1.53189 1.70487 0
M  V30 7956 C 752.838 0.411839 1.55437 0
M  V30 7957 O 754.028 0.675164 1.60584 0
M  V30 7958 C 751.16 1.42422 3.09723 0
M  V30 7959 H 752.353 2.5056 1.64802 0
M  V30 7960 H 749.906 1.32609 0.827318 0
M  V30 7961 H 750.641 0.462185 3.2099 0
M  V30 7962 H 750.426 2.23658 3.22055 0
M  V30 7963 H 751.916 1.51012 3.89339 0
M  V30 7964 N 752.353 -0.854086 1.3245 0
M  V30 7965 C 753.599 -1.61069 1.23225 0
M  V30 7966 C 753.932 -1.93111 -0.205349 0
M  V30 7967 O 753.207 -1.57397 -1.14265 0
M  V30 7968 C 753.49 -2.93065 2.09249 0
M  V30 7969 C 753.343 -2.67801 3.6139 0
M  V30 7970 C 754.662 -3.94341 1.95406 0
M  V30 7971 H 751.781 -0.584449 0.448986 0
M  V30 7972 H 754.423 -0.986189 1.62402 0
M  V30 7973 H 752.573 -3.46364 1.75967 0
M  V30 7974 H 754.245 -2.21052 4.04887 0
M  V30 7975 H 752.488 -2.01756 3.84027 0
M  V30 7976 H 753.159 -3.6179 4.16907 0
M  V30 7977 H 755.635 -3.50301 2.24562 0
M  V30 7978 H 754.511 -4.84555 2.57872 0
M  V30 7979 H 754.772 -4.32382 0.921865 0
M  V30 7980 N 753.831 -1.1567 -1.07043 0
M  V30 7981 C 755.056 -0.957946 -1.83952 0
M  V30 7982 C 755.481 0.488807 -1.81638 0
M  V30 7983 O 754.839 1.34869 -1.21162 0
M  V30 7984 C 754.887 -1.48064 -3.288 0
M  V30 7985 O 753.991 -0.681921 -4.06723 0
M  V30 7986 H 753.332 -0.341453 -0.569479 0
M  V30 7987 H 755.862 -1.53728 -1.35015 0
M  V30 7988 H 755.872 -1.49484 -3.7963 0
M  V30 7989 H 754.547 -2.53388 -3.29799 0
M  V30 7990 H 753.124 -0.737612 -3.65532 0
M  V30 7991 N 755.309 1.25446 -0.953992 0
M  V30 7992 C 756.555 1.9343 -0.60933 0
M  V30 7993 C 756.888 1.74542 0.851388 0
M  V30 7994 O 756.163 1.09014 1.61078 0
M  V30 7995 C 756.446 3.46844 -0.968041 0
M  V30 7996 C 756.299 3.74961 -2.48444 0
M  V30 7997 C 757.618 4.37334 -0.492641 0
M  V30 7998 H 754.737 0.702502 -0.222844 0
M  V30 7999 H 757.379 1.48076 -1.19053 0
M  V30 8000 H 755.529 3.85604 -0.473465 0
M  V30 8001 H 757.201 3.45841 -3.05273 0
M  V30 8002 H 755.444 3.20589 -2.92241 0
M  V30 8003 H 756.115 4.82246 -2.68594 0
M  V30 8004 H 758.591 4.05873 -0.916878 0
M  V30 8005 H 757.467 5.43439 -0.772331 0
M  V30 8006 H 757.728 4.37908 0.607403 0
M  V30 8007 N 756.787 0.722489 1.40064 0
M  V30 8008 C 758.033 0.27422 2.01543 0
M  V30 8009 C 758.388 -1.12224 1.5628 0
M  V30 8010 O 757.681 -1.75179 0.776063 0
M  V30 8011 C 757.875 0.300682 3.56133 0
M  V30 8012 C 757.704 1.69818 4.16404 0
M  V30 8013 C 756.474 2.30747 4.49537 0
M  V30 8014 C 758.672 2.64962 4.40794 0
M  V30 8015 N 756.654 3.62781 4.9524 0
M  V30 8016 C 758.025 3.81712 4.88565 0
M  V30 8017 C 760.08 2.62885 4.22842 0
M  V30 8018 C 758.783 4.96703 5.20268 0
M  V30 8019 C 760.809 3.77009 4.55652 0
M  V30 8020 C 760.171 4.92492 5.03618 0
M  V30 8021 H 756.27 0.146328 0.768188 0
M  V30 8022 H 758.854 0.94577 1.70186 0
M  V30 8023 H 757.025 -0.340461 3.86905 0
M  V30 8024 H 758.757 -0.164951 4.04364 0
M  V30 8025 H 755.512 1.82783 4.36907 0
M  V30 8026 H 755.936 4.30533 5.22465 0
M  V30 8027 H 760.578 1.74803 3.84972 0
M  V30 8028 H 758.296 5.85425 5.57049 0
M  V30 8029 H 761.882 3.76685 4.43396 0
M  V30 8030 H 760.762 5.79336 5.28525 0
M  V30 8031 N 758.265 -1.50454 0.469181 0
M  V30 8032 C 759.511 -2.02615 -0.0865971 0
M  V30 8033 C 759.844 -1.35062 -1.39542 0
M  V30 8034 O 759.119 -0.475701 -1.88593 0
M  V30 8035 C 759.402 -3.59068 -0.272385 0
M  V30 8036 C 759.255 -4.37196 1.05733 0
M  V30 8037 C 760.574 -4.2793 -1.0278 0
M  V30 8038 H 757.693 -0.736389 -0.0299977 0
M  V30 8039 H 760.335 -1.79792 0.614399 0
M  V30 8040 H 758.485 -3.78646 -0.869471 0
M  V30 8041 H 760.157 -4.29195 1.69084 0
M  V30 8042 H 758.4 -4.01013 1.65442 0
M  V30 8043 H 759.071 -5.44924 0.880997 0
M  V30 8044 H 761.547 -4.12816 -0.521718 0
M  V30 8045 H 760.423 -5.37214 -1.12659 0
M  V30 8046 H 760.684 -3.90968 -2.0639 0
M  V30 8047 N 759.743 -0.201713 -1.56304 0
M  V30 8048 C 760.69 0.716499 -2.19397 0
M  V30 8049 C 761.66 1.20494 -1.14326 0
M  V30 8050 O 762.845 1.26763 -1.42604 0
M  V30 8051 C 759.985 1.92762 -2.86246 0
M  V30 8052 C 759.098 1.47993 -4.0586 0
M  V30 8053 C 758.233 2.64706 -4.60547 0
M  V30 8054 C 757.272 2.16576 -5.72504 0
M  V30 8055 N 756.409 3.26491 -6.21569 0
M  V30 8056 H 761.249 0.171724 -2.97505 0
M  V30 8057 H 758.786 0.073016 -1.46919 0
M  V30 8058 H 760.744 2.6384 -3.23178 0
M  V30 8059 H 759.374 2.44559 -2.10691 0
M  V30 8060 H 758.426 0.66477 -3.74546 0
M  V30 8061 H 759.738 1.08686 -4.86815 0
M  V30 8062 H 758.892 3.43898 -4.99819 0
M  V30 8063 H 757.631 3.0729 -3.78713 0
M  V30 8064 H 756.636 1.3584 -5.32755 0
M  V30 8065 H 757.861 1.75015 -6.56161 0
M  V30 8066 H 755.807 3.68594 -5.42655 0
M  V30 8067 H 755.724 2.91374 -6.97594 0
M  V30 8068 H 756.992 4.05877 -6.65495 0
M  V30 8069 N 761.222 1.57436 0.0718424 0
M  V30 8070 C 762.154 2.00412 1.1121 0
M  V30 8071 C 763.167 0.910074 1.34987 0
M  V30 8072 O 764.356 1.18796 1.33228 0
M  V30 8073 C 761.456 2.32786 2.46301 0
M  V30 8074 C 760.629 3.64036 2.4248 0
M  V30 8075 C 759.688 3.8408 3.59679 0
M  V30 8076 O 758.714 4.55667 3.4111 0
M  V30 8077 N 759.916 3.2643 4.80025 0
M  V30 8078 H 762.681 2.90264 0.746118 0
M  V30 8079 H 760.242 1.59791 0.260495 0
M  V30 8080 H 762.234 2.43368 3.23348 0
M  V30 8081 H 760.804 1.48824 2.74901 0
M  V30 8082 H 760.024 3.64208 1.50818 0
M  V30 8083 H 761.312 4.50217 2.37027 0
M  V30 8084 H 760.71 2.68325 4.98014 0
M  V30 8085 H 759.267 3.42461 5.54584 0
M  V30 8086 O 762.739 -0.21545 1.60056 0
M  V30 8087 H 763.43 -0.856115 1.73754 0
M  V30 END ATOM
M  V30 BEGIN BOND
M  V30 END BOND
M  V30 END CTAB
M  END
$$$$
