drugbank_target|Q60FT7 PBP3 (DB00535)
 OpenBabel12092120363D

  0  0  0     0  0            999 V3000
M  V30 BEGIN CTAB
M  V30 COUNTS 9653 9717 0 0 0
M  V30 BEGIN ATOM
M  V30 1 H -0.908 1.98254 -0.117106 0
M  V30 2 N 0 1.576 0 0
M  V30 3 C 0.933 2.03868 1.02534 0
M  V30 4 C 1.911 0.928543 1.3348 0
M  V30 5 O 3.095 1.19667 1.45644 0
M  V30 6 C 0.222 2.43627 2.35294 0
M  V30 7 C -0.732 3.65373 2.2001 0
M  V30 8 S 0.101 5.13292 1.52614 0
M  V30 9 C 1.257 5.56322 2.86805 0
M  V30 10 H 1.49 2.90518 0.631377 0
M  V30 11 H -0.977 1.52953 0.210867 0
M  V30 12 H 0.981 2.67203 3.11629 0
M  V30 13 H -0.358 1.57376 2.7183 0
M  V30 14 H -1.165 3.90944 3.18086 0
M  V30 15 H -1.563 3.418 1.51819 0
M  V30 16 H 0.729 5.58782 3.83104 0
M  V30 17 H 1.672 6.56266 2.65933 0
M  V30 18 H 2.08 4.83886 2.90714 0
M  V30 19 N 1.4781 -0.272755 1.55222 0
M  V30 20 C 2.7241 -1.00581 1.761 0
M  V30 21 C 3.0571 -1.85932 0.560625 0
M  V30 22 O 2.3321 -1.89416 -0.441801 0
M  V30 23 C 2.6151 -1.88816 3.06628 0
M  V30 24 C 2.4681 -1.06457 4.37021 0
M  V30 25 C 3.7871 -2.8752 3.33197 0
M  V30 26 H 0.9061 -0.364244 0.640699 0
M  V30 27 H 3.5481 -0.278189 1.87952 0
M  V30 28 H 1.6981 -2.50856 2.96654 0
M  V30 29 H 3.3701 -0.464863 4.58952 0
M  V30 30 H 1.6131 -0.368043 4.32236 0
M  V30 31 H 2.2841 -1.71514 5.24678 0
M  V30 32 H 4.7601 -2.35615 3.42965 0
M  V30 33 H 3.6361 -3.46399 4.25792 0
M  V30 34 H 3.8971 -3.62657 2.52849 0
M  V30 35 N 2.9562 -1.48159 -0.537278 0
M  V30 36 C 3.9032 -1.62138 -1.64256 0
M  V30 37 C 4.8732 -0.463668 -1.59497 0
M  V30 38 O 6.0582 -0.686241 -1.78032 0
M  V30 39 C 3.1982 -1.66028 -3.02537 0
M  V30 40 C 2.3112 -2.92855 -3.17585 0
M  V30 41 C 1.4462 -2.87952 -4.46382 0
M  V30 42 C 0.4852 -4.09516 -4.54932 0
M  V30 43 N -0.3778 -4.02733 -5.75109 0
M  V30 44 H 4.4622 -2.56529 -1.51647 0
M  V30 45 H 1.9992 -1.27224 -0.738414 0
M  V30 46 H 3.9572 -1.66265 -3.82638 0
M  V30 47 H 2.5872 -0.751331 -3.13934 0
M  V30 48 H 1.6392 -3.02395 -2.30784 0
M  V30 49 H 2.9512 -3.82822 -3.19764 0
M  V30 50 H 2.1052 -2.8655 -5.34765 0
M  V30 51 H 0.8442 -1.95702 -4.46712 0
M  V30 52 H -0.1508 -4.11201 -3.64957 0
M  V30 53 H 1.0742 -5.02917 -4.56346 0
M  V30 54 H -0.9798 -3.13299 -5.76351 0
M  V30 55 H -1.0628 -4.86397 -5.78752 0
M  V30 56 H 0.2052 -4.05379 -6.65799 0
M  V30 57 N 4.4343 0.785586 -1.36625 0
M  V30 58 C 5.6813 1.54362 -1.31067 0
M  V30 59 C 6.0093 1.94195 0.10893 0
M  V30 60 O 5.2643 1.63262 1.07908 0
M  V30 61 C 5.5633 2.83007 -2.1827 0
M  V30 62 C 5.2293 2.62294 -3.6676 0
M  V30 63 C 3.8913 2.56353 -4.0723 0
M  V30 64 C 6.2433 2.43371 -4.6089 0
M  V30 65 C 3.5713 2.29461 -5.39967 0
M  V30 66 C 5.9233 2.18005 -5.93849 0
M  V30 67 C 4.5873 2.105 -6.3344 0
M  V30 68 H 3.8573 0.564851 -0.479609 0
M  V30 69 H 6.5043 0.906028 -1.68711 0
M  V30 70 H 4.8093 3.51253 -1.73576 0
M  V30 71 H 6.5063 3.40817 -2.11292 0
M  V30 72 H 3.0963 2.67774 -3.34656 0
M  V30 73 H 7.2803 2.46959 -4.30494 0
M  V30 74 H 2.5363 2.22135 -5.69619 0
M  V30 75 H 6.7103 2.02359 -6.66351 0
M  V30 76 H 4.3373 1.89425 -7.36222 0
M  V30 77 N 5.9124 1.20967 1.01018 0
M  V30 78 C 6.8604 0.961223 2.1181 0
M  V30 79 C 7.8544 -0.0897034 1.69162 0
M  V30 80 O 9.0604 0.0612271 1.79896 0
M  V30 81 H 5.4354 0.29355 0.692338 0
M  V30 82 H 7.4064 1.90178 2.29946 0
M  V30 83 C 6.1554 0.536854 3.4353 0
M  V30 84 H 5.4784 1.33713 3.76777 0
M  V30 85 H 6.9184 0.402286 4.22087 0
M  V30 86 C 5.3774 -0.751574 3.2841 0
M  V30 87 O 5.9074 -1.80841 3.58691 0
M  V30 88 N 4.1134 -0.716079 2.81639 0
M  V30 89 H 3.6604 0.144236 2.57196 0
M  V30 90 H 3.6184 -1.57847 2.71904 0
M  V30 91 N 7.3905 -1.2043 1.01659 0
M  V30 92 C 8.6155 -1.94318 0.724942 0
M  V30 93 C 9.0405 -1.74266 -0.708034 0
M  V30 94 O 8.3985 -1.03694 -1.48719 0
M  V30 95 C 8.4465 -3.44486 1.06591 0
M  V30 96 O 7.5505 -4.12017 0.177599 0
M  V30 97 H 6.8915 -0.60708 0.26898 0
M  V30 98 H 9.4215 -1.52861 1.35995 0
M  V30 99 H 9.4315 -3.95106 1.01762 0
M  V30 100 H 8.1065 -3.58404 2.10997 0
M  V30 101 H 6.6835 -3.71821 0.283421 0
M  V30 102 N 8.8686 -0.792821 -1.36206 0
M  V30 103 C 10.0936 -0.377701 -2.03932 0
M  V30 104 C 10.5186 0.998947 -1.59382 0
M  V30 105 O 9.8766 1.64421 -0.763903 0
M  V30 106 C 9.9246 -0.453635 -3.57735 0
M  V30 107 O 9.0286 0.538151 -4.08874 0
M  V30 108 H 8.3696 -0.159855 -0.644471 0
M  V30 109 H 10.8996 -1.07488 -1.7409 0
M  V30 110 H 10.9096 -0.318464 -4.06755 0
M  V30 111 H 9.5846 -1.45784 -3.89512 0
M  V30 112 H 8.1616 0.364359 -3.71116 0
M  V30 113 N 10.3467 1.47872 -0.545128 0
M  V30 114 C 11.7627 1.5829 -0.204032 0
M  V30 115 C 11.9627 1.54529 1.29317 0
M  V30 116 O 11.0187 1.44232 2.07252 0
M  V30 117 C 12.3317 2.89304 -0.819987 0
M  V30 118 C 13.8797 3.02864 -0.790105 0
M  V30 119 C 14.3547 4.3656 -1.38491 0
M  V30 120 N 15.8457 4.43165 -1.34755 0
M  V30 121 C 16.5807 5.45153 -1.77753 0
M  V30 122 N 16.0767 6.54016 -2.2855 0
M  V30 123 N 17.8697 5.36125 -1.68897 0
M  V30 124 H 10.0207 1.4856 -1.51802 0
M  V30 125 H 12.2837 0.706305 -0.632327 0
M  V30 126 H 11.9897 2.97757 -1.87173 0
M  V30 127 H 11.8637 3.75957 -0.305915 0
M  V30 128 H 14.2507 2.94014 0.252913 0
M  V30 129 H 14.3317 2.17782 -1.34181 0
M  V30 130 H 13.9757 4.46164 -2.42693 0
M  V30 131 H 13.9057 5.20353 -0.808754 0
M  V30 132 H 16.3967 3.65083 -0.975855 0
M  V30 133 H 16.7097 7.27994 -2.59314 0
M  V30 134 H 15.0547 6.54938 -2.32553 0
M  V30 135 H 18.2457 4.49975 -1.28998 0
M  V30 136 H 18.4187 6.15472 -2.02726 0
M  V30 137 N 11.8248 0.280983 1.55075 0
M  V30 138 C 12.7718 -0.603937 2.22758 0
M  V30 139 C 13.7418 -1.1452 1.20309 0
M  V30 140 O 14.9268 -1.19343 1.48869 0
M  V30 141 C 12.0668 -1.77947 2.95684 0
M  V30 142 C 11.1798 -1.2715 4.12864 0
M  V30 143 C 10.3148 -2.4093 4.7342 0
M  V30 144 C 9.3538 -1.87165 5.82783 0
M  V30 145 N 8.4908 -2.94441 6.37377 0
M  V30 146 H 13.3308 -0.020124 2.97993 0
M  V30 147 H 10.8678 0.00183425 1.471 0
M  V30 148 H 12.8258 -2.47055 3.36184 0
M  V30 149 H 11.4558 -2.33522 2.22861 0
M  V30 150 H 10.5078 -0.473331 3.77444 0
M  V30 151 H 11.8198 -0.837751 4.91715 0
M  V30 152 H 10.9738 -3.18021 5.1667 0
M  V30 153 H 9.7128 -2.87623 3.93859 0
M  V30 154 H 8.7178 -1.08556 5.38976 0
M  V30 155 H 9.9428 -1.41401 6.64216 0
M  V30 156 H 7.8888 -3.40505 5.60707 0
M  V30 157 H 7.8058 -2.55501 7.11516 0
M  V30 158 H 9.0738 -3.71489 6.85285 0
M  V30 159 N 13.3029 -1.57598 0.00835791 0
M  V30 160 C 14.5279 -1.95617 -0.689103 0
M  V30 161 C 14.9529 -0.883753 -1.66046 0
M  V30 162 O 14.3109 0.157352 -1.80616 0
M  V30 163 C 14.3589 -3.32736 -1.38994 0
M  V30 164 O 13.4629 -3.27631 -2.50463 0
M  V30 165 H 12.8039 -0.638379 -0.182668 0
M  V30 166 H 15.3339 -2.045 0.064036 0
M  V30 167 H 15.3439 -3.68494 -1.75147 0
M  V30 168 H 14.0189 -4.1034 -0.677778 0
M  V30 169 H 12.5959 -3.03561 -2.16576 0
M  V30 170 N 14.781 0.264519 -1.55364 0
M  V30 171 C 16.029 0.993021 -1.76021 0
M  V30 172 C 16.35 1.86511 -0.569099 0
M  V30 173 O 15.62 1.91438 0.415735 0
M  V30 174 H 14.2 0.369639 -0.649135 0
M  V30 175 H 16.862 0.286707 -1.9278 0
M  V30 176 H 15.958 1.62502 -2.66457 0
M  V30 177 N 16.2591 1.48442 0.529413 0
M  V30 178 C 17.2061 1.63007 1.63394 0
M  V30 179 C 18.1761 0.47212 1.59249 0
M  V30 180 O 19.3611 0.695673 1.77666 0
M  V30 181 C 16.5011 1.6763 3.01653 0
M  V30 182 C 15.6141 2.94535 3.16027 0
M  V30 183 C 14.7491 2.90316 4.44849 0
M  V30 184 C 13.7881 4.11923 4.52754 0
M  V30 185 N 12.9251 4.05777 5.72965 0
M  V30 186 H 17.7651 2.5733 1.50285 0
M  V30 187 H 15.3021 1.27613 0.731656 0
M  V30 188 H 17.2601 1.68292 3.81751 0
M  V30 189 H 15.8901 0.76797 3.13532 0
M  V30 190 H 14.9421 3.03615 2.29177 0
M  V30 191 H 16.2541 3.84512 3.17729 0
M  V30 192 H 15.4081 2.89382 5.33238 0
M  V30 193 H 14.1471 1.98068 4.45668 0
M  V30 194 H 13.1521 4.13131 3.62771 0
M  V30 195 H 14.3771 5.0533 4.53672 0
M  V30 196 H 12.3231 3.16351 5.74681 0
M  V30 197 H 12.2401 4.8946 5.76164 0
M  V30 198 H 13.5081 4.08904 6.6364 0
M  V30 199 N 17.7372 -0.778329 1.37039 0
M  V30 200 C 18.9622 -1.57248 1.35233 0
M  V30 201 C 19.3872 -1.87999 -0.0615568 0
M  V30 202 O 18.7452 -1.48734 -1.03672 0
M  V30 203 C 18.7932 -2.86353 2.19167 0
M  V30 204 O 17.8972 -3.80442 1.59178 0
M  V30 205 H 17.2382 -0.476569 0.462362 0
M  V30 206 H 19.7682 -0.963853 1.80474 0
M  V30 207 H 19.7782 -3.35519 2.32145 0
M  V30 208 H 18.4532 -2.63299 3.21942 0
M  V30 209 H 17.0302 -3.39067 1.55203 0
M  V30 210 N 19.2153 -1.21501 -1.00376 0
M  V30 211 C 20.1623 -0.975387 -2.09177 0
M  V30 212 C 21.1323 0.0990615 -1.65804 0
M  V30 213 O 22.3173 -0.0483147 -1.90739 0
M  V30 214 C 19.4573 -0.547507 -3.40729 0
M  V30 215 C 18.5703 -1.69153 -3.97506 0
M  V30 216 C 17.7053 -1.2127 -5.17172 0
M  V30 217 C 16.7443 -2.32897 -5.66061 0
M  V30 218 N 15.8813 -1.86138 -6.76976 0
M  V30 219 H 20.7213 -1.9068 -2.29009 0
M  V30 220 H 18.2583 -0.950257 -1.12288 0
M  V30 221 H 20.2163 -0.280667 -4.16255 0
M  V30 222 H 18.8463 0.346904 -3.20931 0
M  V30 223 H 17.8983 -2.07298 -3.18954 0
M  V30 224 H 19.2103 -2.5316 -4.29781 0
M  V30 225 H 18.3643 -0.902591 -5.99948 0
M  V30 226 H 17.1033 -0.342692 -4.86495 0
M  V30 227 H 16.1083 -2.64709 -4.81881 0
M  V30 228 H 17.3333 -3.20396 -5.98768 0
M  V30 229 H 15.2793 -1.01484 -6.48103 0
M  V30 230 H 15.1963 -2.63717 -7.08512 0
M  V30 231 H 16.4643 -1.58165 -7.63285 0
M  V30 232 N 20.6934 1.19889 -1.02296 0
M  V30 233 C 21.6404 2.22901 -0.598651 0
M  V30 234 C 22.6104 1.61588 0.384521 0
M  V30 235 O 23.7954 1.88697 0.282522 0
M  V30 236 C 20.9354 3.45063 0.0504476 0
M  V30 237 C 20.0484 4.20783 -0.978053 0
M  V30 238 C 19.1834 5.30356 -0.299338 0
M  V30 239 C 18.2224 5.97826 -1.31416 0
M  V30 240 N 17.3594 6.98975 -0.661667 0
M  V30 241 H 22.1994 2.58554 -1.48169 0
M  V30 242 H 19.7364 1.27039 -0.741584 0
M  V30 243 H 21.6944 4.14831 0.443971 0
M  V30 244 H 20.3244 3.10084 0.897097 0
M  V30 245 H 19.3764 3.50018 -1.48969 0
M  V30 246 H 20.6884 4.67109 -1.74958 0
M  V30 247 H 19.8424 6.06516 0.149347 0
M  V30 248 H 18.5814 4.85084 0.504445 0
M  V30 249 H 17.5864 5.20422 -1.77317 0
M  V30 250 H 18.8114 6.45183 -2.11933 0
M  V30 251 H 16.7574 6.55886 0.122132 0
M  V30 252 H 16.6744 7.43461 -1.37117 0
M  V30 253 H 17.9424 7.7914 -0.236785 0
M  V30 254 N 22.1715 0.800033 1.35784 0
M  V30 255 C 23.3995 0.389606 2.03199 0
M  V30 256 C 23.8145 -0.997375 1.60306 0
M  V30 257 O 23.1715 -1.64154 0.797481 0
M  V30 258 C 23.2225 0.455855 3.58614 0
M  V30 259 O 22.9435 1.78815 3.99946 0
M  V30 260 C 24.4445 0.0374032 4.43284 0
M  V30 261 H 21.6645 0.159132 0.651857 0
M  V30 262 H 24.2085 1.08183 1.73541 0
M  V30 263 H 22.3635 -0.188057 3.86943 0
M  V30 264 H 22.7775 1.74636 4.94573 0
M  V30 265 H 24.2515 0.134882 5.51835 0
M  V30 266 H 24.7285 -1.01651 4.27275 0
M  V30 267 H 25.3345 0.654215 4.20238 0
M  V30 268 N 23.6496 -1.47581 0.552962 0
M  V30 269 C 24.8986 -2.01684 0.0251995 0
M  V30 270 C 25.2116 -1.43317 -1.33115 0
M  V30 271 O 26.4176 -1.89057 -1.94858 0
M  V30 272 C 24.8736 -3.599 -0.00542052 0
M  V30 273 C 24.4816 -4.27257 1.34742 0
M  V30 274 C 26.2256 -4.21768 -0.4808 0
M  V30 275 C 24.1326 -5.77467 1.27614 0
M  V30 276 H 23.0626 -0.753979 0.00565033 0
M  V30 277 H 25.7136 -1.69616 0.70018 0
M  V30 278 H 24.0956 -3.88911 -0.745961 0
M  V30 279 H 25.2696 -4.09893 2.10534 0
M  V30 280 H 23.5846 -3.77358 1.76039 0
M  V30 281 H 26.1816 -5.31838 -0.55246 0
M  V30 282 H 26.5246 -3.88651 -1.49184 0
M  V30 283 H 27.0576 -3.97273 0.204752 0
M  V30 284 H 23.7966 -6.15196 2.26304 0
M  V30 285 H 23.3166 -5.9718 0.55996 0
M  V30 286 H 24.9956 -6.3959 0.976421 0
M  V30 287 N 25.1277 -0.289203 -1.54924 0
M  V30 288 C 26.5437 0.0645403 -1.59469 0
M  V30 289 C 26.7437 1.53419 -1.30632 0
M  V30 290 O 25.7997 2.2852 -1.074 0
M  V30 291 C 27.1127 -0.32278 -2.98963 0
M  V30 292 C 28.6607 -0.270564 -3.11828 0
M  V30 293 C 29.1357 -0.632532 -4.53611 0
M  V30 294 N 30.6267 -0.584617 -4.59496 0
M  V30 295 C 31.3617 -0.837314 -5.67254 0
M  V30 296 N 30.8577 -1.15536 -6.83098 0
M  V30 297 N 32.6507 -0.765166 -5.56868 0
M  V30 298 H 24.8017 -1.24714 -1.71931 0
M  V30 299 H 27.0647 -0.504809 -0.802416 0
M  V30 300 H 26.7707 -1.34541 -3.24948 0
M  V30 301 H 26.6447 0.32944 -3.75759 0
M  V30 302 H 29.0317 0.742805 -2.85598 0
M  V30 303 H 29.1127 -0.957242 -2.37214 0
M  V30 304 H 28.7567 -1.64365 -4.80569 0
M  V30 305 H 28.6867 0.07609 -5.26545 0
M  V30 306 H 31.1777 -0.349248 -3.76283 0
M  V30 307 H 31.4907 -1.33447 -7.61191 0
M  V30 308 H 29.8357 -1.19328 -6.84679 0
M  V30 309 H 33.0267 -0.516432 -4.65243 0
M  V30 310 H 33.1997 -0.965477 -6.40767 0
M  V30 311 N 26.6058 1.57591 -0.0167156 0
M  V30 312 C 27.5528 2.09462 0.969251 0
M  V30 313 C 28.5228 0.99381 1.33089 0
M  V30 314 O 29.7078 1.26726 1.42636 0
M  V30 315 C 26.8478 2.61622 2.25051 0
M  V30 316 C 25.9608 3.85666 1.94642 0
M  V30 317 C 25.0958 4.26266 3.16972 0
M  V30 318 C 24.1348 5.43101 2.82326 0
M  V30 319 N 23.2718 5.78915 3.97243 0
M  V30 320 H 28.1118 2.93428 0.519997 0
M  V30 321 H 25.6488 1.45044 0.245087 0
M  V30 322 H 27.6068 2.89949 2.99976 0
M  V30 323 H 26.2368 1.80505 2.67615 0
M  V30 324 H 25.2888 3.64145 1.10013 0
M  V30 325 H 26.6008 4.70678 1.65117 0
M  V30 326 H 25.7548 4.55963 4.00228 0
M  V30 327 H 24.4938 3.39996 3.49648 0
M  V30 328 H 23.4988 5.1311 1.97479 0
M  V30 329 H 24.7238 6.3106 2.50879 0
M  V30 330 H 22.6698 4.95602 4.29785 0
M  V30 331 H 22.5868 6.58539 3.71299 0
M  V30 332 H 23.8548 6.13212 4.81239 0
M  V30 333 N 28.0839 -0.256276 1.55502 0
M  V30 334 C 29.0139 -1.32102 1.92539 0
M  V30 335 C 29.9949 -1.50684 0.789194 0
M  V30 336 O 31.1799 -1.63449 1.04872 0
M  V30 337 C 28.3099 -2.67752 2.21192 0
M  V30 338 C 27.2639 -2.63878 3.36975 0
M  V30 339 C 26.5899 -4.03236 3.51147 0
M  V30 340 C 27.8899 -2.21682 4.72921 0
M  V30 341 H 29.5839 -1.01351 2.81724 0
M  V30 342 H 27.1299 -0.486105 1.35547 0
M  V30 343 H 29.0829 -3.42365 2.45691 0
M  V30 344 H 27.8069 -3.0012 1.28824 0
M  V30 345 H 26.4659 -1.91722 3.12471 0
M  V30 346 H 26.1139 -4.32854 2.56216 0
M  V30 347 H 25.8139 -4.01535 4.29003 0
M  V30 348 H 27.3379 -4.79563 3.77957 0
M  V30 349 H 28.7519 -2.86023 4.96854 0
M  V30 350 H 27.1489 -2.3111 5.53812 0
M  V30 351 H 28.2189 -1.16833 4.70615 0
M  V30 352 N 29.562 -1.4872 -0.521534 0
M  V30 353 C 30.79 -1.60843 -1.30142 0
M  V30 354 C 31.205 -0.271897 -1.86832 0
M  V30 355 O 30.562 0.739969 -1.66825 0
M  V30 356 C 30.613 -2.66155 -2.4463 0
M  V30 357 O 30.334 -3.94623 -1.90275 0
M  V30 358 C 31.835 -2.88795 -3.36322 0
M  V30 359 H 29.055 -0.542075 -0.395468 0
M  V30 360 H 31.599 -1.94609 -0.628285 0
M  V30 361 H 29.754 -2.35224 -3.07812 0
M  V30 362 H 30.168 -4.52468 -2.65279 0
M  V30 363 H 31.642 -3.66264 -4.12983 0
M  V30 364 H 32.119 -1.97934 -3.9207 0
M  V30 365 H 32.725 -3.21063 -2.78924 0
M  V30 366 N 31.0401 0.771051 -1.3745 0
M  V30 367 C 32.0031 1.86598 -1.33093 0
M  V30 368 C 33.0031 1.59076 -0.234845 0
M  V30 369 O 34.1931 1.67145 -0.490732 0
M  V30 370 C 31.3251 3.23747 -1.06773 0
M  V30 371 H 32.5181 1.91873 -2.30488 0
M  V30 372 H 30.0711 0.970876 -1.2249 0
M  V30 373 H 30.8061 3.24148 -0.099129 0
M  V30 374 H 30.5911 3.45115 -1.86112 0
M  V30 375 H 32.0811 4.03824 -1.06377 0
M  V30 376 N 32.5182 1.22032 0.997298 0
M  V30 377 C 33.9292 1.0397 1.55071 0
M  V30 378 C 34.2802 -0.398192 1.92117 0
M  V30 379 O 33.4052 -1.28254 1.74298 0
M  V30 380 C 34.0002 1.88109 2.81781 0
M  V30 381 C 32.5592 1.74357 3.33581 0
M  V30 382 C 31.7062 1.84846 2.06706 0
M  V30 383 H 34.6572 1.35941 0.818883 0
M  V30 384 H 34.6782 1.39589 3.53971 0
M  V30 385 H 34.1902 2.92754 2.54787 0
M  V30 386 H 32.2912 0.72427 3.65493 0
M  V30 387 H 32.4042 2.56772 4.04481 0
M  V30 388 H 30.7682 1.28238 2.20062 0
M  V30 389 H 31.5512 2.91014 1.82114 0
M  V30 390 N 33.9963 -1.19345 1.0293 0
M  V30 391 C 34.9063 -2.26245 0.620515 0
M  V30 392 C 35.9223 -1.70486 -0.347928 0
M  V30 393 O 37.0983 -2.00347 -0.205704 0
M  V30 394 C 34.1633 -3.46693 -0.0218957 0
M  V30 395 C 33.2243 -4.17632 0.994102 0
M  V30 396 C 32.4573 -5.32329 0.382253 0
M  V30 397 O 32.6803 -5.64552 -0.814676 0
M  V30 398 O 31.6143 -5.91664 1.10531 0
M  V30 399 H 35.4403 -2.63453 1.51083 0
M  V30 400 H 33.0253 -1.26207 0.799513 0
M  V30 401 H 34.9073 -4.19683 -0.380072 0
M  V30 402 H 33.5823 -3.11333 -0.886209 0
M  V30 403 H 32.4893 -3.4676 1.40387 0
M  V30 404 H 33.8223 -4.56964 1.8288 0
M  V30 405 N 35.4744 -0.807222 -1.35358 0
M  V30 406 C 36.7024 -0.400377 -2.02989 0
M  V30 407 C 37.1174 0.988859 -1.60832 0
M  V30 408 O 36.4744 1.63729 -0.806175 0
M  V30 409 C 36.5254 -0.474867 -3.58368 0
M  V30 410 O 36.2464 -1.80933 -3.98992 0
M  V30 411 C 37.7474 -0.0609112 -4.43258 0
M  V30 412 H 34.9674 -0.162587 -0.651004 0
M  V30 413 H 37.5114 -1.09102 -1.72965 0
M  V30 414 H 35.6664 0.167534 -3.87038 0
M  V30 415 H 36.0804 -1.77256 -4.9364 0
M  V30 416 H 37.5544 -0.164145 -5.51756 0
M  V30 417 H 38.0314 0.993831 -4.27808 0
M  V30 418 H 38.6374 -0.676492 -4.19885 0
M  V30 419 N 36.9525 1.47285 -0.560781 0
M  V30 420 C 38.1985 2.02764 -0.0381184 0
M  V30 421 C 38.5315 1.43384 1.30976 0
M  V30 422 O 37.8065 0.590733 1.85312 0
M  V30 423 C 38.0895 3.60064 0.0511427 0
M  V30 424 C 37.9425 4.2987 -1.32408 0
M  V30 425 C 39.2615 4.33439 0.762795 0
M  V30 426 H 36.3805 0.736841 -0.0153264 0
M  V30 427 H 39.0225 1.75675 -0.723759 0
M  V30 428 H 37.1725 3.83274 0.635065 0
M  V30 429 H 38.8445 4.17989 -1.95148 0
M  V30 430 H 37.0875 3.90085 -1.8978 0
M  V30 431 H 37.7585 5.38478 -1.21431 0
M  V30 432 H 40.2345 4.15243 0.266965 0
M  V30 433 H 39.1105 5.43124 0.794221 0
M  V30 434 H 39.3715 4.02915 1.81966 0
M  V30 435 N 38.4306 0.297415 1.54768 0
M  V30 436 C 39.3776 -0.580276 2.23386 0
M  V30 437 C 40.3476 -1.13238 1.21517 0
M  V30 438 O 41.5326 -1.17757 1.50126 0
M  V30 439 C 38.6726 -1.74801 2.97555 0
M  V30 440 C 37.7856 -1.22764 4.1419 0
M  V30 441 C 36.9206 -2.35895 4.75949 0
M  V30 442 C 35.9596 -1.80974 5.84735 0
M  V30 443 N 35.0966 -2.87664 6.40464 0
M  V30 444 H 39.9366 0.0114833 2.97998 0
M  V30 445 H 37.4736 0.0174361 1.4709 0
M  V30 446 H 39.4316 -2.43475 3.38786 0
M  V30 447 H 38.0616 -2.31145 2.25326 0
M  V30 448 H 37.1136 -0.433271 3.77924 0
M  V30 449 H 38.4256 -0.785551 4.92575 0
M  V30 450 H 37.5796 -3.12523 5.20014 0
M  V30 451 H 36.3186 -2.83429 3.96887 0
M  V30 452 H 35.3236 -1.02834 5.40097 0
M  V30 453 H 36.5486 -1.34348 6.65678 0
M  V30 454 H 34.4946 -3.34538 5.64287 0
M  V30 455 H 34.4116 -2.4794 7.14186 0
M  V30 456 H 35.6796 -3.642 6.89187 0
M  V30 457 N 39.9087 -1.5758 0.0250728 0
M  V30 458 C 40.8407 -2.06869 -0.986796 0
M  V30 459 C 41.8537 -0.991332 -1.29137 0
M  V30 460 O 43.0427 -1.26761 -1.25674 0
M  V30 461 C 40.1427 -2.47486 -2.31525 0
M  V30 462 C 39.3157 -3.78253 -2.19643 0
M  V30 463 C 38.3747 -4.05464 -3.35388 0
M  V30 464 O 37.4007 -4.75774 -3.12454 0
M  V30 465 N 38.6027 -3.55321 -4.59051 0
M  V30 466 H 41.3677 -2.94302 -0.566276 0
M  V30 467 H 38.9287 -1.6109 -0.161776 0
M  V30 468 H 40.9207 -2.62785 -3.07776 0
M  V30 469 H 39.4907 -1.65441 -2.65232 0
M  V30 470 H 38.7107 -3.7279 -1.28144 0
M  V30 471 H 39.9987 -4.63936 -2.08903 0
M  V30 472 H 39.3967 -2.98431 -4.80578 0
M  V30 473 H 37.9537 -3.75905 -5.32483 0
M  V30 474 N 41.3868 0.248026 -1.55636 0
M  V30 475 C 42.3348 1.32683 -1.91045 0
M  V30 476 C 43.3288 1.49883 -0.789401 0
M  V30 477 O 44.5348 1.51371 -0.974007 0
M  V30 478 H 40.9098 0.444272 -0.606734 0
M  V30 479 H 42.8808 1.00085 -2.81115 0
M  V30 480 C 41.6298 2.6755 -2.22064 0
M  V30 481 H 40.9528 2.55114 -3.07826 0
M  V30 482 H 42.3928 3.41912 -2.50743 0
M  V30 483 C 40.8518 3.20556 -1.0366 0
M  V30 484 O 41.3818 4.00695 -0.284016 0
M  V30 485 N 39.5878 2.78568 -0.82753 0
M  V30 486 H 39.1348 2.1351 -1.44123 0
M  V30 487 H 39.0928 3.14378 -0.0369803 0
M  V30 488 N 42.8649 1.48995 0.513639 0
M  V30 489 C 43.8119 1.6473 1.61656 0
M  V30 490 C 44.7819 0.488984 1.58739 0
M  V30 491 O 45.9669 0.714478 1.76918 0
M  V30 492 C 43.1069 1.7082 2.99858 0
M  V30 493 C 42.2199 2.9787 3.12885 0
M  V30 494 C 41.3549 2.95017 4.41744 0
M  V30 495 C 40.3939 4.16702 4.48359 0
M  V30 496 N 39.5309 4.11832 5.68629 0
M  V30 497 H 44.3709 2.58909 1.47547 0
M  V30 498 H 41.9079 1.28382 0.71808 0
M  V30 499 H 43.8659 1.72331 3.79944 0
M  V30 500 H 42.4959 0.801181 3.12699 0
M  V30 501 H 41.5479 3.06029 2.25944 0
M  V30 502 H 42.8599 3.8786 3.13633 0
M  V30 503 H 42.0139 2.95021 5.30139 0
M  V30 504 H 40.7529 2.02784 4.43542 0
M  V30 505 H 39.7579 4.16955 3.58369 0
M  V30 506 H 40.9829 5.10113 4.48287 0
M  V30 507 H 38.9289 3.22428 5.71293 0
M  V30 508 H 38.8459 4.95543 5.7094 0
M  V30 509 H 40.1139 4.1592 6.59266 0
M  V30 510 N 44.343 -0.763751 1.37857 0
M  V30 511 C 45.754 -1.3405 1.29952 0
M  V30 512 C 46.105 -1.96138 -0.0492898 0
M  V30 513 O 45.23 -1.94372 -0.951239 0
M  V30 514 C 45.825 -2.43729 2.35333 0
M  V30 515 C 44.384 -2.97151 2.31037 0
M  V30 516 C 43.531 -1.70438 2.18738 0
M  V30 517 H 46.482 -0.563396 1.48363 0
M  V30 518 H 46.503 -3.23412 2.00462 0
M  V30 519 H 46.015 -1.9851 3.33489 0
M  V30 520 H 44.116 -3.46724 1.3643 0
M  V30 521 H 44.229 -3.52221 3.24772 0
M  V30 522 H 42.593 -1.93673 1.65418 0
M  V30 523 H 43.376 -1.27312 3.18821 0
M  V30 524 N 45.8211 -1.22559 -0.990812 0
M  V30 525 C 46.7531 -0.955325 -2.08342 0
M  V30 526 C 47.7661 0.0668408 -1.62663 0
M  V30 527 O 48.9551 -0.167421 -1.77713 0
M  V30 528 C 46.0551 -0.415566 -3.36342 0
M  V30 529 C 45.2281 -1.49544 -4.11042 0
M  V30 530 C 44.2871 -0.962399 -5.17324 0
M  V30 531 O 43.3131 -1.64907 -5.44788 0
M  V30 532 N 44.5151 0.215134 -5.80101 0
M  V30 533 H 47.2801 -1.89596 -2.32106 0
M  V30 534 H 44.8411 -1.13276 -1.15673 0
M  V30 535 H 46.8331 -0.0442386 -4.04676 0
M  V30 536 H 45.4031 0.430232 -3.09625 0
M  V30 537 H 44.6231 -2.04 -3.37309 0
M  V30 538 H 45.9111 -2.22195 -4.57719 0
M  V30 539 H 45.3091 0.789779 -5.6016 0
M  V30 540 H 43.8661 0.527826 -6.49659 0
M  V30 541 N 47.2992 1.18797 -1.03562 0
M  V30 542 C 48.2462 2.22253 -0.622259 0
M  V30 543 C 49.2162 1.61987 0.36736 0
M  V30 544 O 50.4012 1.88986 0.262492 0
M  V30 545 C 47.5412 3.45097 0.0138462 0
M  V30 546 C 46.6542 4.19722 -1.02263 0
M  V30 547 C 45.7892 5.30009 -0.355573 0
M  V30 548 C 44.8282 5.96399 -1.37749 0
M  V30 549 N 43.9652 6.98234 -0.735766 0
M  V30 550 H 48.8052 2.56968 -1.50903 0
M  V30 551 H 46.3422 1.26245 -0.755017 0
M  V30 552 H 48.3002 4.15279 0.399948 0
M  V30 553 H 46.9302 3.11018 0.864158 0
M  V30 554 H 45.9822 3.48418 -1.52673 0
M  V30 555 H 47.2942 4.65227 -1.79903 0
M  V30 556 H 46.4482 6.0664 0.0850095 0
M  V30 557 H 45.1872 4.85592 0.452967 0
M  V30 558 H 44.1922 5.18512 -1.82826 0
M  V30 559 H 45.4172 6.42899 -2.18764 0
M  V30 560 H 43.3632 6.55979 0.0525597 0
M  V30 561 H 43.2802 7.41965 -1.44995 0
M  V30 562 H 44.5482 7.78845 -0.31941 0
M  V30 563 N 48.7773 0.814389 1.34928 0
M  V30 564 C 50.0233 0.399013 1.98836 0
M  V30 565 C 50.3563 -1.03314 1.64438 0
M  V30 566 O 49.6313 -1.71811 0.911659 0
M  V30 567 C 49.9143 0.591629 3.55207 0
M  V30 568 C 49.7673 2.06928 3.99376 0
M  V30 569 C 51.0863 0.022199 4.40094 0
M  V30 570 H 48.2053 0.146451 0.722303 0
M  V30 571 H 50.8473 1.02537 1.59957 0
M  V30 572 H 48.9973 0.0584441 3.88456 0
M  V30 573 H 50.6693 2.66544 3.76499 0
M  V30 574 H 48.9123 2.56287 3.49999 0
M  V30 575 H 49.5833 2.1549 5.08201 0
M  V30 576 H 52.0593 0.477643 4.13349 0
M  V30 577 H 50.9353 0.186832 5.48582 0
M  V30 578 H 51.1963 -1.07215 4.28902 0
M  V30 579 N 50.2554 -1.46986 0.568584 0
M  V30 580 C 51.5024 -2.02441 0.0487986 0
M  V30 581 C 51.8304 -1.44169 -1.30559 0
M  V30 582 O 51.0854 -0.591213 -1.86556 0
M  V30 583 C 51.3844 -3.57306 -0.081836 0
M  V30 584 C 51.0504 -4.34552 1.20313 0
M  V30 585 C 49.7124 -4.55376 1.5552 0
M  V30 586 C 52.0644 -4.79016 2.05411 0
M  V30 587 C 49.3924 -5.17913 2.7565 0
M  V30 588 C 51.7444 -5.42879 3.24754 0
M  V30 589 C 50.4084 -5.61933 3.60261 0
M  V30 590 H 49.6784 -0.740785 0.0178567 0
M  V30 591 H 52.3254 -1.76525 0.742384 0
M  V30 592 H 50.6304 -3.8228 -0.858463 0
M  V30 593 H 52.3274 -3.97876 -0.499546 0
M  V30 594 H 48.9174 -4.18631 0.919014 0
M  V30 595 H 53.1014 -4.62696 1.79516 0
M  V30 596 H 48.3574 -5.30858 3.03315 0
M  V30 597 H 52.5314 -5.76293 3.90973 0
M  V30 598 H 50.1584 -6.10161 4.53439 0
M  V30 599 N 51.7335 -0.305618 -1.54608 0
M  V30 600 C 52.6435 0.57778 -2.27374 0
M  V30 601 C 53.6595 1.14451 -1.31061 0
M  V30 602 O 54.8355 1.16831 -1.6405 0
M  V30 603 C 51.9005 1.73123 -3.00382 0
M  V30 604 C 50.9615 1.19812 -4.12242 0
M  V30 605 C 50.1945 2.2966 -4.81759 0
M  V30 606 O 50.4175 3.49651 -4.50666 0
M  V30 607 O 49.3515 1.96091 -5.69062 0
M  V30 608 H 53.1775 -0.012624 -3.03697 0
M  V30 609 H 50.7625 -0.0719184 -1.49227 0
M  V30 610 H 52.6445 2.40315 -3.4616 0
M  V30 611 H 51.3195 2.30815 -2.26949 0
M  V30 612 H 50.2265 0.491798 -3.70853 0
M  V30 613 H 51.5595 0.666566 -4.87666 0
M  V30 614 N 53.2116 1.57565 -0.0334293 0
M  V30 615 C 54.1586 2.10478 0.946981 0
M  V30 616 C 55.1286 1.00787 1.32027 0
M  V30 617 O 56.3136 1.28232 1.41284 0
M  V30 618 C 53.4536 2.63994 2.22263 0
M  V30 619 C 52.5666 3.87709 1.90541 0
M  V30 620 C 51.7016 4.29604 3.12433 0
M  V30 621 C 50.7406 5.46065 2.76549 0
M  V30 622 N 49.8776 5.83096 3.9108 0
M  V30 623 H 54.7176 2.93963 0.488846 0
M  V30 624 H 52.2546 1.45296 0.22969 0
M  V30 625 H 54.2126 2.93114 2.96884 0
M  V30 626 H 52.8426 1.83333 2.65685 0
M  V30 627 H 51.8946 3.65291 1.06144 0
M  V30 628 H 53.2066 4.72403 1.60116 0
M  V30 629 H 52.3606 4.60182 3.9537 0
M  V30 630 H 51.0996 3.43685 3.46023 0
M  V30 631 H 50.1046 5.15176 1.92026 0
M  V30 632 H 51.3296 6.33685 2.44171 0
M  V30 633 H 49.2756 5.00132 4.24504 0
M  V30 634 H 49.1926 6.6244 3.64293 0
M  V30 635 H 50.4606 6.18282 4.74708 0
M  V30 636 N 54.6897 -0.239769 1.55765 0
M  V30 637 C 55.9297 -0.974076 1.79697 0
M  V30 638 C 56.2937 -1.82249 0.604088 0
M  V30 639 O 57.4947 -2.58913 0.722324 0
M  V30 640 C 55.7657 -1.80595 3.08416 0
M  V30 641 S 57.3247 -2.59838 3.53596 0
M  V30 642 H 54.1427 -0.327524 0.63107 0
M  V30 643 H 56.7447 -0.241277 1.94005 0
M  V30 644 H 55.4487 -1.17249 3.93295 0
M  V30 645 H 54.9797 -2.58137 2.96865 0
M  V30 646 H 56.9947 -3.82987 3.15492 0
M  V30 647 N 56.1678 -1.49265 -0.50573 0
M  V30 648 C 57.4148 -1.58513 -1.26015 0
M  V30 649 C 57.7428 -0.26972 -1.92621 0
M  V30 650 O 56.9978 0.741997 -1.81088 0
M  V30 651 C 57.2968 -2.69008 -2.35308 0
M  V30 652 C 56.9628 -4.10662 -1.86192 0
M  V30 653 C 55.6248 -4.49212 -1.72516 0
M  V30 654 C 57.9768 -4.99336 -1.49375 0
M  V30 655 C 55.3048 -5.74214 -1.20394 0
M  V30 656 C 57.6568 -6.24852 -0.987072 0
M  V30 657 C 56.3208 -6.62236 -0.836669 0
M  V30 658 H 55.5908 -0.580041 -0.461122 0
M  V30 659 H 58.2378 -1.83078 -0.561665 0
M  V30 660 H 56.5428 -2.38396 -3.10926 0
M  V30 661 H 58.2398 -2.73373 -2.93374 0
M  V30 662 H 54.8298 -3.8023 -1.97795 0
M  V30 663 H 59.0138 -4.70212 -1.5879 0
M  V30 664 H 54.2698 -6.01883 -1.07458 0
M  V30 665 H 58.4438 -6.92944 -0.692983 0
M  V30 666 H 56.0708 -7.58979 -0.430607 0
M  V30 667 N 57.6459 0.756429 -1.3826 0
M  V30 668 C 58.5789 1.87802 -1.29637 0
M  V30 669 C 59.5569 1.61667 -0.173939 0
M  V30 670 O 60.7409 1.85208 -0.350775 0
M  V30 671 C 57.8679 3.23354 -1.00797 0
M  V30 672 C 56.9139 3.68379 -2.14939 0
M  V30 673 S 57.7469 3.8025 -3.77054 0
M  V30 674 C 58.9029 5.18626 -3.50396 0
M  V30 675 H 59.1359 1.94829 -2.24564 0
M  V30 676 H 56.6689 0.919117 -1.24063 0
M  V30 677 H 58.6269 4.01637 -0.848413 0
M  V30 678 H 57.2879 3.14008 -0.0759369 0
M  V30 679 H 56.4809 4.66693 -1.90299 0
M  V30 680 H 56.0829 2.97242 -2.26988 0
M  V30 681 H 58.3749 6.04289 -3.06334 0
M  V30 682 H 59.3179 5.48286 -4.48094 0
M  V30 683 H 59.7259 4.87289 -2.84973 0
M  V30 684 N 59.124 1.23083 0.984299 0
M  V30 685 C 60.54 0.992637 1.24975 0
M  V30 686 C 60.74 -0.308618 1.99123 0
M  V30 687 O 59.796 -1.02905 2.30579 0
M  V30 688 C 61.109 2.19698 2.05312 0
M  V30 689 C 62.657 2.24147 2.18465 0
M  V30 690 C 63.132 3.44157 3.02192 0
M  V30 691 N 64.623 3.44372 3.09777 0
M  V30 692 C 65.358 4.33886 3.74874 0
M  V30 693 N 64.854 5.3363 4.41827 0
M  V30 694 N 66.647 4.21639 3.71721 0
M  V30 695 H 58.798 2.06731 0.487453 0
M  V30 696 H 61.061 0.906339 0.277944 0
M  V30 697 H 60.767 3.1411 1.58201 0
M  V30 698 H 60.641 2.20465 3.06064 0
M  V30 699 H 63.028 1.30277 2.64786 0
M  V30 700 H 63.109 2.27415 1.17115 0
M  V30 701 H 62.753 4.38332 2.56568 0
M  V30 702 H 62.683 3.3813 4.03702 0
M  V30 703 H 65.174 2.72201 2.62135 0
M  V30 704 H 65.487 5.98196 4.89266 0
M  V30 705 H 63.832 5.37534 4.40548 0
M  V30 706 H 67.023 3.42962 3.18582 0
M  V30 707 H 67.196 4.91604 4.22173 0
M  V30 708 N 60.6021 -1.18246 1.0419 0
M  V30 709 C 61.8501 -1.87886 0.744543 0
M  V30 710 C 62.1711 -1.8082 -0.730006 0
M  V30 711 O 61.4411 -1.22736 -1.52685 0
M  V30 712 H 60.0211 -0.695556 0.272417 0
M  V30 713 H 62.6831 -1.43494 1.31892 0
M  V30 714 H 61.7791 -2.9389 1.05049 0
M  V30 715 N 62.0802 -0.821533 -1.34494 0
M  V30 716 C 63.4962 -0.507117 -1.51329 0
M  V30 717 C 63.6962 0.968964 -1.76673 0
M  V30 718 O 62.7522 1.75348 -1.81685 0
M  V30 719 C 64.0652 -1.36544 -2.67911 0
M  V30 720 C 65.6132 -1.36242 -2.81793 0
M  V30 721 C 66.0882 -2.2052 -4.01416 0
M  V30 722 N 67.5792 -2.18136 -4.08621 0
M  V30 723 C 68.3142 -2.80095 -5.00334 0
M  V30 724 N 67.8102 -3.51039 -5.9728 0
M  V30 725 N 69.6032 -2.69656 -4.93196 0
M  V30 726 H 61.7542 -1.77729 -1.16302 0
M  V30 727 H 64.0172 -0.757291 -0.570276 0
M  V30 728 H 63.7232 -2.41361 -2.55808 0
M  V30 729 H 63.5972 -1.02917 -3.62888 0
M  V30 730 H 65.9842 -0.322041 -2.93338 0
M  V30 731 H 66.0652 -1.73866 -1.87628 0
M  V30 732 H 65.7092 -3.24607 -3.90631 0
M  V30 733 H 65.6392 -1.80247 -4.94791 0
M  V30 734 H 68.1302 -1.6653 -3.39229 0
M  V30 735 H 68.4432 -3.95565 -6.63889 0
M  V30 736 H 66.7882 -3.55145 -5.97409 0
M  V30 737 H 69.9792 -2.13808 -4.16418 0
M  V30 738 H 70.1522 -3.1823 -5.64476 0
M  V30 739 N 63.5583 1.46682 -0.576371 0
M  V30 740 C 64.7883 2.06498 -0.0648694 0
M  V30 741 C 65.1963 1.42665 1.24271 0
M  V30 742 O 64.5393 0.523886 1.76071 0
M  V30 743 C 64.6013 3.5904 0.181816 0
M  V30 744 C 64.2653 4.45028 -1.0392 0
M  V30 745 C 65.2623 4.81959 -1.94966 0
M  V30 746 C 62.9473 4.86259 -1.25927 0
M  V30 747 C 64.9413 5.58942 -3.06371 0
M  V30 748 C 62.6283 5.63002 -2.37638 0
M  V30 749 C 63.6263 5.99257 -3.2769 0
M  V30 750 O 63.3143 6.7445 -4.37461 0
M  V30 751 H 63.0463 0.674028 -0.0515987 0
M  V30 752 H 65.6003 1.89393 -0.794951 0
M  V30 753 H 63.8303 3.74429 0.966436 0
M  V30 754 H 65.5193 4.00806 0.641047 0
M  V30 755 H 66.2853 4.50689 -1.79177 0
M  V30 756 H 62.1643 4.57494 -0.567448 0
M  V30 757 H 65.7083 5.87158 -3.76684 0
M  V30 758 H 61.6053 5.93686 -2.53392 0
M  V30 759 H 62.3733 6.92867 -4.35749 0
M  V30 760 N 65.0364 0.313813 1.54444 0
M  V30 761 C 65.9694 -0.598866 2.20202 0
M  V30 762 C 66.9474 -1.12318 1.17573 0
M  V30 763 O 68.1314 -1.18899 1.46271 0
M  V30 764 C 65.2584 -1.82071 2.85601 0
M  V30 765 C 64.3044 -1.42851 4.01865 0
M  V30 766 S 65.1374 -0.473512 5.33402 0
M  V30 767 C 66.2934 -1.70286 6.0229 0
M  V30 768 H 66.5264 -0.0402532 2.97273 0
M  V30 769 H 64.0594 0.0979165 1.54089 0
M  V30 770 H 66.0174 -2.52184 3.23904 0
M  V30 771 H 64.6784 -2.3505 2.08351 0
M  V30 772 H 63.8714 -2.33871 4.46453 0
M  V30 773 H 63.4734 -0.807198 3.65185 0
M  V30 774 H 65.7654 -2.64168 6.23876 0
M  V30 775 H 66.7084 -1.29932 6.96077 0
M  V30 776 H 67.1164 -1.88541 5.32083 0
M  V30 777 N 66.5145 -1.57545 0.0417849 0
M  V30 778 C 67.4445 -2.14009 -0.933929 0
M  V30 779 C 68.4255 -1.05938 -1.33083 0
M  V30 780 O 69.6105 -1.33833 -1.40721 0
M  V30 781 C 66.7405 -2.67747 -2.21199 0
M  V30 782 C 65.6945 -3.80718 -1.95544 0
M  V30 783 C 65.0205 -4.20935 -3.29724 0
M  V30 784 C 66.3205 -5.06258 -1.28452 0
M  V30 785 H 68.0145 -2.95788 -0.463645 0
M  V30 786 H 65.5605 -1.42285 -0.221573 0
M  V30 787 H 67.5135 -3.05886 -2.89848 0
M  V30 788 H 66.2375 -1.83147 -2.70416 0
M  V30 789 H 64.8965 -3.43037 -1.2931 0
M  V30 790 H 64.5445 -3.33298 -3.76724 0
M  V30 791 H 64.2445 -4.9707 -3.13361 0
M  V30 792 H 65.7685 -4.61666 -3.9962 0
M  V30 793 H 67.1825 -5.41903 -1.8712 0
M  V30 794 H 65.5795 -5.87475 -1.22445 0
M  V30 795 H 66.6495 -4.84207 -0.259219 0
M  V30 796 N 67.9926 0.231505 -1.5589 0
M  V30 797 C 69.2176 0.978689 -1.82856 0
M  V30 798 C 69.6426 1.77559 -0.620846 0
M  V30 799 O 69.0006 1.76119 0.430305 0
M  V30 800 C 69.0486 1.87997 -3.07716 0
M  V30 801 O 68.1526 2.97393 -2.85712 0
M  V30 802 H 67.4936 0.277663 -0.603158 0
M  V30 803 H 70.0236 0.24783 -2.03093 0
M  V30 804 H 70.0336 2.2917 -3.37558 0
M  V30 805 H 68.7086 1.29417 -3.95252 0
M  V30 806 H 67.2856 2.60238 -2.67078 0
M  V30 807 N 69.4707 1.49531 0.497807 0
M  V30 808 C 70.6987 1.62893 1.27567 0
M  V30 809 C 71.1137 0.301585 1.86376 0
M  V30 810 O 70.4707 -0.713335 1.67982 0
M  V30 811 C 70.5217 2.70013 2.40364 0
M  V30 812 O 70.2427 3.976 1.83972 0
M  V30 813 C 71.7437 2.94109 3.31685 0
M  V30 814 H 68.9637 0.548298 0.386794 0
M  V30 815 H 71.5077 1.95584 0.597245 0
M  V30 816 H 69.6627 2.40092 3.04031 0
M  V30 817 H 70.0767 4.56631 2.58047 0
M  V30 818 H 71.5507 3.72788 4.07104 0
M  V30 819 H 72.0277 2.04147 3.88871 0
M  V30 820 H 72.6337 3.2546 2.73781 0
M  V30 821 N 70.9488 -0.749086 1.3866 0
M  V30 822 C 72.1948 -1.51056 1.35314 0
M  V30 823 C 72.5278 -1.94121 -0.0553751 0
M  V30 824 O 71.8028 -1.65763 -1.01749 0
M  V30 825 C 72.0858 -2.76003 2.31288 0
M  V30 826 C 71.9388 -2.39047 3.8102 0
M  V30 827 C 73.2578 -3.78046 2.2532 0
M  V30 828 H 70.3768 -0.547972 0.492844 0
M  V30 829 H 73.0188 -0.857628 1.69543 0
M  V30 830 H 71.1688 -3.31716 2.02229 0
M  V30 831 H 72.8408 -1.89074 4.20771 0
M  V30 832 H 71.0838 -1.71449 3.98482 0
M  V30 833 H 71.7548 -3.28462 4.4364 0
M  V30 834 H 74.2308 -3.31884 2.50983 0
M  V30 835 H 73.1068 -4.63159 2.94576 0
M  V30 836 H 73.3678 -4.23957 1.25352 0
M  V30 837 N 72.4269 -1.23603 -0.977757 0
M  V30 838 C 73.3569 -1.04401 -2.0886 0
M  V30 839 C 74.3379 0.0399052 -1.70053 0
M  V30 840 O 75.5229 -0.125246 -1.93796 0
M  V30 841 C 72.6529 -0.637269 -3.41403 0
M  V30 842 C 71.6069 -1.66883 -3.94124 0
M  V30 843 C 70.9329 -1.11745 -5.22893 0
M  V30 844 C 72.2329 -3.06247 -4.23096 0
M  V30 845 H 73.9269 -1.97316 -2.25182 0
M  V30 846 H 71.4729 -0.950096 -1.08209 0
M  V30 847 H 73.4259 -0.48998 -4.18542 0
M  V30 848 H 72.1499 0.327557 -3.24953 0
M  V30 849 H 70.8089 -1.80416 -3.19133 0
M  V30 850 H 70.4569 -0.143527 -5.02795 0
M  V30 851 H 70.1569 -1.80672 -5.59134 0
M  V30 852 H 71.6809 -0.982067 -6.02651 0
M  V30 853 H 73.0949 -2.96001 -4.90975 0
M  V30 854 H 71.4919 -3.72436 -4.70544 0
M  V30 855 H 72.5619 -3.55041 -3.30263 0
M  V30 856 N 73.905 1.17692 -1.04816 0
M  V30 857 C 75.154 1.87192 -0.751132 0
M  V30 858 C 75.467 1.8169 0.724441 0
M  V30 859 O 76.673 2.46625 1.13527 0
M  V30 860 C 75.129 3.35857 -1.29338 0
M  V30 861 C 74.737 3.4987 -2.79812 0
M  V30 862 C 76.481 4.10709 -1.07322 0
M  V30 863 C 74.388 4.92536 -3.27356 0
M  V30 864 H 73.318 0.701162 -0.277288 0
M  V30 865 H 75.969 1.32932 -1.26496 0
M  V30 866 H 74.351 3.89631 -0.707376 0
M  V30 867 H 75.525 3.06332 -3.44235 0
M  V30 868 H 73.84 2.88433 -3.00325 0
M  V30 869 H 76.437 5.15952 -1.4035 0
M  V30 870 H 76.78 4.16299 -0.0108001 0
M  V30 871 H 77.313 3.6313 -1.62423 0
M  V30 872 H 74.052 4.92119 -4.33012 0
M  V30 873 H 73.572 5.3676 -2.67673 0
M  V30 874 H 75.251 5.61288 -3.21815 0
M  V30 875 N 75.3831 0.828654 1.34056 0
M  V30 876 C 76.3131 0.269443 2.3194 0
M  V30 877 C 77.2941 -0.617247 1.58506 0
M  V30 878 O 78.4791 -0.542931 1.86456 0
M  V30 879 C 75.6091 -0.564793 3.42677 0
M  V30 880 C 74.5631 0.225241 4.27407 0
M  V30 881 C 73.8891 -0.7321 5.29664 0
M  V30 882 C 75.1891 1.43663 5.02154 0
M  V30 883 H 76.8831 1.08728 2.7896 0
M  V30 884 H 74.4291 0.524283 1.34117 0
M  V30 885 H 76.3821 -0.966233 4.10173 0
M  V30 886 H 75.1061 -1.41574 2.9432 0
M  V30 887 H 73.7651 0.608117 3.61521 0
M  V30 888 H 73.4131 -1.57916 4.77568 0
M  V30 889 H 73.1131 -0.20767 5.87233 0
M  V30 890 H 74.6371 -1.13128 6.00029 0
M  V30 891 H 76.0511 1.1089 5.62473 0
M  V30 892 H 74.4481 1.89711 5.69324 0
M  V30 893 H 75.5181 2.21181 4.31517 0
M  V30 894 N 76.8612 -1.46375 0.584142 0
M  V30 895 C 77.7912 -2.33103 -0.136037 0
M  V30 896 C 78.7722 -1.45431 -0.882255 0
M  V30 897 O 79.9572 -1.74246 -0.857434 0
M  V30 898 C 77.0872 -3.27731 -1.14933 0
M  V30 899 C 76.0412 -4.24855 -0.517862 0
M  V30 900 C 75.3672 -5.09001 -1.63773 0
M  V30 901 C 76.6672 -5.19439 0.545886 0
M  V30 902 H 78.3612 -2.93568 0.588086 0
M  V30 903 H 75.9072 -1.41166 0.284259 0
M  V30 904 H 77.8602 -3.87261 -1.66153 0
M  V30 905 H 76.5842 -2.65377 -1.90375 0
M  V30 906 H 75.2432 -3.6659 -0.0267361 0
M  V30 907 H 74.8912 -4.43031 -2.38185 0
M  V30 908 H 74.5912 -5.74777 -1.22085 0
M  V30 909 H 76.1152 -5.71396 -2.15266 0
M  V30 910 H 77.5292 -5.73177 0.118704 0
M  V30 911 H 75.9262 -5.93566 0.88317 0
M  V30 912 H 76.9962 -4.63285 1.43162 0
M  V30 913 N 78.3393 -0.321999 -1.54275 0
M  V30 914 C 79.5873 0.280489 -2.00144 0
M  V30 915 C 79.9083 1.52777 -1.21178 0
M  V30 916 O 79.1783 1.9338 -0.313187 0
M  V30 917 H 77.7583 0.106632 -0.73935 0
M  V30 918 H 80.4203 -0.438184 -1.8991 0
M  V30 919 H 79.5163 0.537972 -3.07428 0
M  V30 920 N 79.8174 1.5752 -0.0501392 0
M  V30 921 C 80.7474 2.14502 0.922566 0
M  V30 922 C 81.7284 1.06642 1.3252 0
M  V30 923 O 82.9134 1.34577 1.4001 0
M  V30 924 C 80.0434 2.68916 2.19776 0
M  V30 925 C 78.9974 3.8175 1.93523 0
M  V30 926 C 78.3234 4.22677 3.27487 0
M  V30 927 C 79.6234 5.06932 1.25765 0
M  V30 928 H 81.3174 2.9603 0.447952 0
M  V30 929 H 78.8634 1.42401 0.214024 0
M  V30 930 H 80.8164 3.07419 2.88222 0
M  V30 931 H 79.5404 1.84578 2.69441 0
M  V30 932 H 78.1994 3.43718 1.27489 0
M  V30 933 H 77.8474 3.35291 3.74952 0
M  V30 934 H 77.5474 4.98725 3.1072 0
M  V30 935 H 79.0714 4.63779 3.97166 0
M  V30 936 H 80.4854 5.42888 1.84244 0
M  V30 937 H 78.8824 5.88116 1.19328 0
M  V30 938 H 79.9524 4.84337 0.233536 0
M  V30 939 N 81.2955 -0.223234 1.56011 0
M  V30 940 C 82.5355 -0.954962 1.8072 0
M  V30 941 C 82.8995 -1.81598 0.623384 0
M  V30 942 O 84.1005 -2.58132 0.749745 0
M  V30 943 C 82.3715 -1.77313 3.10314 0
M  V30 944 S 83.9305 -2.56073 3.56332 0
M  V30 945 H 80.7485 -0.320812 0.634508 0
M  V30 946 H 83.3505 -0.220686 1.9425 0
M  V30 947 H 82.0545 -1.13071 3.94516 0
M  V30 948 H 81.5855 -2.54974 2.99586 0
M  V30 949 H 83.6005 -3.79619 3.19536 0
M  V30 950 N 82.7736 -1.49793 -0.48987 0
M  V30 951 C 83.7366 -1.66752 -1.57246 0
M  V30 952 C 84.7366 -0.538867 -1.51502 0
M  V30 953 O 85.9266 -0.805545 -1.54456 0
M  V30 954 C 83.0586 -1.67528 -2.96896 0
M  V30 955 H 84.2516 -2.63321 -1.43534 0
M  V30 956 H 81.8046 -1.38992 -0.714914 0
M  V30 957 H 82.5396 -0.725837 -3.16073 0
M  V30 958 H 82.3246 -2.49504 -3.02473 0
M  V30 959 H 83.8146 -1.82667 -3.7553 0
M  V30 960 N 84.2517 0.741722 -1.39055 0
M  V30 961 C 85.1817 1.869 -1.39966 0
M  V30 962 C 86.1627 1.6804 -0.26392 0
M  V30 963 O 87.3477 1.88458 -0.468755 0
M  V30 964 C 84.4777 3.24572 -1.23574 0
M  V30 965 C 83.4317 3.58056 -2.34477 0
M  V30 966 C 82.7577 4.94593 -2.0318 0
M  V30 967 C 84.0577 3.61716 -3.76774 0
M  V30 968 H 85.7517 1.86395 -2.34302 0
M  V30 969 H 83.2977 0.895361 -1.1278 0
M  V30 970 H 85.2507 4.031 -1.22834 0
M  V30 971 H 83.9747 3.25587 -0.257045 0
M  V30 972 H 82.6337 2.81854 -2.34423 0
M  V30 973 H 82.2817 4.92181 -1.03765 0
M  V30 974 H 81.9817 5.17964 -2.77465 0
M  V30 975 H 83.5057 5.75486 -2.04079 0
M  V30 976 H 84.9197 4.30335 -3.78794 0
M  V30 977 H 83.3167 3.96603 -4.50362 0
M  V30 978 H 84.3867 2.61672 -4.08235 0
M  V30 979 N 85.7298 1.2412 0.971189 0
M  V30 980 C 86.9758 1.08041 1.71625 0
M  V30 981 C 87.3088 -0.380407 1.90438 0
M  V30 982 O 86.5838 -1.28127 1.46334 0
M  V30 983 C 86.8668 1.81682 3.10908 0
M  V30 984 C 86.7198 3.35493 2.99608 0
M  V30 985 C 88.0388 1.58671 4.10501 0
M  V30 986 H 85.1578 0.39388 0.622919 0
M  V30 987 H 87.7998 1.52743 1.13003 0
M  V30 988 H 85.9498 1.43684 3.60953 0
M  V30 989 H 87.6218 3.83068 2.57015 0
M  V30 990 H 85.8648 3.64052 2.35899 0
M  V30 991 H 86.5358 3.82217 3.98264 0
M  V30 992 H 89.0118 1.91719 3.69301 0
M  V30 993 H 87.8878 2.1266 5.06031 0
M  V30 994 H 88.1488 0.524161 4.38982 0
M  V30 995 N 87.2079 -1.17134 1.05439 0
M  V30 996 C 88.1709 -2.19439 0.661764 0
M  V30 997 C 89.1709 -1.58199 -0.288042 0
M  V30 998 O 90.3609 -1.74053 -0.0715803 0
M  V30 999 C 87.4929 -3.40889 -0.0276209 0
M  V30 1000 H 88.6859 -2.55688 1.56728 0
M  V30 1001 H 86.2389 -1.31259 0.848567 0
M  V30 1002 H 86.9739 -3.10187 -0.94629 0
M  V30 1003 H 86.7589 -3.86586 0.655238 0
M  V30 1004 H 88.2489 -4.16603 -0.288342 0
M  V30 1005 N 88.686 -0.835752 -1.33615 0
M  V30 1006 C 90.102 -0.523139 -1.50783 0
M  V30 1007 C 90.302 0.950171 -1.77691 0
M  V30 1008 O 89.358 1.73411 -1.83534 0
M  V30 1009 C 90.671 -1.39378 -2.66448 0
M  V30 1010 C 92.219 -1.39223 -2.80332 0
M  V30 1011 C 92.694 -2.24765 -3.99055 0
M  V30 1012 N 94.185 -2.22458 -4.06284 0
M  V30 1013 C 94.92 -2.85386 -4.97336 0
M  V30 1014 N 94.416 -3.57354 -5.93523 0
M  V30 1015 N 96.209 -2.74872 -4.90308 0
M  V30 1016 H 88.36 -1.78952 -1.14411 0
M  V30 1017 H 90.623 -0.763297 -0.562212 0
M  V30 1018 H 90.329 -2.44061 -2.53234 0
M  V30 1019 H 90.203 -1.0676 -3.61776 0
M  V30 1020 H 92.59 -0.353136 -2.92979 0
M  V30 1021 H 92.671 -1.75846 -1.85773 0
M  V30 1022 H 92.315 -3.28732 -3.87167 0
M  V30 1023 H 92.245 -1.85485 -4.92852 0
M  V30 1024 H 94.736 -1.70119 -3.37443 0
M  V30 1025 H 95.049 -4.02584 -6.59656 0
M  V30 1026 H 93.394 -3.61461 -5.93608 0
M  V30 1027 H 96.585 -2.18213 -4.14126 0
M  V30 1028 H 96.758 -3.24199 -5.61069 0
M  V30 1029 N 90.1641 1.46063 -0.591896 0
M  V30 1030 C 91.1271 2.28854 0.125973 0
M  V30 1031 C 92.1271 1.38903 0.810107 0
M  V30 1032 O 93.3171 1.61186 0.66066 0
M  V30 1033 C 90.4491 3.19526 1.1881 0
M  V30 1034 H 91.6421 2.93802 -0.601717 0
M  V30 1035 H 89.1951 1.52325 -0.350254 0
M  V30 1036 H 89.9301 2.59345 1.94707 0
M  V30 1037 H 89.7151 3.85766 0.701936 0
M  V30 1038 H 91.2051 3.81817 1.69132 0
M  V30 1039 N 91.6422 0.330177 1.54103 0
M  V30 1040 C 92.6052 -0.520144 2.2322 0
M  V30 1041 C 93.6052 -1.03828 1.22786 0
M  V30 1042 O 94.7952 -0.929652 1.4732 0
M  V30 1043 C 91.9272 -1.72317 2.94142 0
M  V30 1044 H 93.1202 0.0841605 2.99782 0
M  V30 1045 H 90.6732 0.0813433 1.56088 0
M  V30 1046 H 91.4082 -2.36653 2.21734 0
M  V30 1047 H 91.1932 -1.35898 3.67796 0
M  V30 1048 H 92.6832 -2.3266 3.46784 0
M  V30 1049 N 93.1203 -1.57491 0.0584922 0
M  V30 1050 C 94.3503 -1.9701 -0.622134 0
M  V30 1051 C 94.7583 -0.935034 -1.6448 0
M  V30 1052 O 94.1013 0.0882904 -1.83488 0
M  V30 1053 C 94.1633 -3.32794 -1.35972 0
M  V30 1054 C 93.8273 -4.54343 -0.492043 0
M  V30 1055 C 94.8243 -5.19323 0.244901 0
M  V30 1056 C 92.5093 -5.00534 -0.420821 0
M  V30 1057 C 94.5033 -6.28835 1.04143 0
M  V30 1058 C 92.1903 -6.09921 0.379389 0
M  V30 1059 C 93.1883 -6.73933 1.10919 0
M  V30 1060 O 92.8763 -7.81216 1.89623 0
M  V30 1061 H 92.6083 -0.653127 -0.174359 0
M  V30 1062 H 95.1623 -2.05029 0.123418 0
M  V30 1063 H 93.3923 -3.21351 -2.15105 0
M  V30 1064 H 95.0813 -3.5701 -1.93129 0
M  V30 1065 H 95.8473 -4.8459 0.19939 0
M  V30 1066 H 91.7263 -4.50496 -0.978474 0
M  V30 1067 H 95.2703 -6.7873 1.61157 0
M  V30 1068 H 91.1673 -6.44089 0.426512 0
M  V30 1069 H 91.9353 -7.98029 1.81913 0
M  V30 1070 N 94.5984 0.214957 -1.56127 0
M  V30 1071 C 95.8444 0.939762 -1.79712 0
M  V30 1072 C 96.1774 1.83723 -0.629247 0
M  V30 1073 O 95.4524 1.90925 0.371197 0
M  V30 1074 C 95.7354 1.77306 -3.13424 0
M  V30 1075 C 95.5884 0.90164 -4.40671 0
M  V30 1076 C 96.9074 2.74956 -3.43638 0
M  V30 1077 H 94.0264 0.340214 -0.653776 0
M  V30 1078 H 96.6684 0.20824 -1.88855 0
M  V30 1079 H 94.8184 2.39673 -3.0576 0
M  V30 1080 H 96.4904 0.294206 -4.60361 0
M  V30 1081 H 94.7334 0.207368 -4.33304 0
M  V30 1082 H 95.4044 1.51923 -5.30682 0
M  V30 1083 H 97.8804 2.22724 -3.51473 0
M  V30 1084 H 96.7564 3.30358 -4.38355 0
M  V30 1085 H 97.0174 3.53023 -2.66134 0
M  V30 1086 N 96.0765 1.50051 0.48192 0
M  V30 1087 C 97.0085 1.64263 1.59844 0
M  V30 1088 C 98.0215 0.52451 1.54119 0
M  V30 1089 O 99.2105 0.797293 1.59704 0
M  V30 1090 C 96.3105 1.60102 2.98698 0
M  V30 1091 C 95.4835 2.87767 3.29407 0
M  V30 1092 C 94.5425 2.76397 4.47762 0
M  V30 1093 O 93.5685 3.50348 4.48603 0
M  V30 1094 N 94.7705 1.89222 5.48794 0
M  V30 1095 H 97.5355 2.60566 1.48073 0
M  V30 1096 H 95.0965 1.47379 0.670149 0
M  V30 1097 H 97.0885 1.50123 3.75826 0
M  V30 1098 H 95.6585 0.715798 3.04294 0
M  V30 1099 H 94.8785 3.11954 2.40994 0
M  V30 1100 H 96.1665 3.72365 3.4673 0
M  V30 1101 H 95.5645 1.28434 5.50928 0
M  V30 1102 H 94.1215 1.85154 6.24949 0
M  V30 1103 N 97.5546 -0.734337 1.39446 0
M  V30 1104 C 98.7796 -1.52866 1.40167 0
M  V30 1105 C 99.2046 -1.881 -0.00171513 0
M  V30 1106 O 98.5626 -1.51957 -0.988879 0
M  V30 1107 C 98.6106 -2.79235 2.28167 0
M  V30 1108 O 97.7146 -3.75185 1.71201 0
M  V30 1109 H 97.0556 -0.461618 0.477289 0
M  V30 1110 H 99.5856 -0.905949 1.8345 0
M  V30 1111 H 99.5956 -3.27963 2.42702 0
M  V30 1112 H 98.2706 -2.52923 3.30156 0
M  V30 1113 H 96.8476 -3.33958 1.65912 0
M  V30 1114 N 99.0327 -1.24633 -0.964593 0
M  V30 1115 C 100.282 -1.08188 -1.7023 0
M  V30 1116 C 100.595 0.37873 -1.91898 0
M  V30 1117 O 101.801 0.663427 -2.6327 0
M  V30 1118 C 100.257 -1.88773 -3.06419 0
M  V30 1119 C 99.8647 -3.39263 -2.92582 0
M  V30 1120 C 101.609 -1.80867 -3.84041 0
M  V30 1121 C 99.5157 -4.1218 -4.24101 0
M  V30 1122 H 98.4457 -0.401245 -0.638372 0
M  V30 1123 H 101.097 -1.48742 -1.07462 0
M  V30 1124 H 99.4787 -1.41035 -3.70034 0
M  V30 1125 H 100.653 -3.94603 -2.37961 0
M  V30 1126 H 98.9677 -3.48154 -2.28424 0
M  V30 1127 H 101.565 -2.32646 -4.81435 0
M  V30 1128 H 101.908 -0.774543 -4.09031 0
M  V30 1129 H 102.441 -2.26301 -3.27159 0
M  V30 1130 H 99.1797 -5.15965 -4.04303 0
M  V30 1131 H 98.6997 -3.61626 -4.78526 0
M  V30 1132 H 100.379 -4.19349 -4.92702 0
M  V30 1133 N 100.511 1.16574 -1.06058 0
M  V30 1134 C 101.459 2.22941 -0.663343 0
M  V30 1135 C 102.453 1.66358 0.319593 0
M  V30 1136 O 103.659 1.7905 0.184713 0
M  V30 1137 H 100.034 0.725907 -0.196376 0
M  V30 1138 H 102.005 2.53736 -1.57037 0
M  V30 1139 C 100.754 3.47642 -0.0632808 0
M  V30 1140 H 100.077 3.91493 -0.810733 0
M  V30 1141 H 101.517 4.2363 0.177177 0
M  V30 1142 C 99.9758 3.1509 1.19248 0
M  V30 1143 O 100.506 3.30673 2.28075 0
M  V30 1144 N 98.7118 2.6924 1.09353 0
M  V30 1145 H 98.2588 2.5676 0.207912 0
M  V30 1146 H 98.2168 2.47833 1.93458 0
M  V30 1147 N 101.989 0.842826 1.3317 0
M  V30 1148 C 102.952 0.284065 2.27433 0
M  V30 1149 C 103.952 -0.54948 1.5112 0
M  V30 1150 O 105.142 -0.362699 1.70382 0
M  V30 1151 C 102.274 -0.599384 3.35589 0
M  V30 1152 H 103.467 1.11589 2.78366 0
M  V30 1153 H 101.02 0.616221 1.4364 0
M  V30 1154 H 101.755 -1.45349 2.89904 0
M  V30 1155 H 101.54 -0.00291266 3.921 0
M  V30 1156 H 103.03 -0.983488 4.05854 0
M  V30 1157 N 103.467 -1.45747 0.599634 0
M  V30 1158 C 104.744 -1.95585 0.0240846 0
M  V30 1159 C 105.124 -1.54217 -1.44154 0
M  V30 1160 O 104.472 -0.800903 -2.14004 0
M  V30 1161 C 104.682 -3.48344 0.21385 0
M  V30 1162 C 106.03 -4.24504 0.0904902 0
M  V30 1163 O 107.054 -3.55911 0.143558 0
M  V30 1164 O 105.913 -5.46491 -0.0310766 0
M  V30 1165 H 103.007 -0.82602 -0.0402478 0
M  V30 1166 H 105.553 -1.55951 0.669139 0
M  V30 1167 H 104.325 -3.71397 1.23206 0
M  V30 1168 H 103.948 -3.9485 -0.466842 0
M  V30 1169 N 104.945 -0.338344 -1.53925 0
M  V30 1170 C 106.173 0.261298 -2.05243 0
M  V30 1171 C 106.588 1.44625 -1.21363 0
M  V30 1172 O 105.945 1.80811 -0.247736 0
M  V30 1173 C 105.996 0.681412 -3.5502 0
M  V30 1174 O 105.717 -0.456414 -4.35716 0
M  V30 1175 C 107.218 1.34232 -4.22489 0
M  V30 1176 H 104.438 0.0513685 -0.669031 0
M  V30 1177 H 106.982 -0.488822 -1.98572 0
M  V30 1178 H 105.137 1.38148 -3.61931 0
M  V30 1179 H 105.551 -0.122564 -5.24357 0
M  V30 1180 H 107.025 1.58708 -5.28693 0
M  V30 1181 H 107.502 2.29426 -3.74514 0
M  V30 1182 H 108.108 0.684424 -4.19757 0
M  V30 1183 N 106.423 1.57458 -0.0668435 0
M  V30 1184 C 107.353 2.15468 0.899764 0
M  V30 1185 C 108.334 1.08042 1.31381 0
M  V30 1186 O 109.519 1.36054 1.38574 0
M  V30 1187 C 106.649 2.71232 2.16911 0
M  V30 1188 C 105.603 3.83781 1.89463 0
M  V30 1189 C 104.929 4.26127 3.22986 0
M  V30 1190 C 106.229 5.08238 1.20381 0
M  V30 1191 H 107.923 2.96488 0.416529 0
M  V30 1192 H 105.469 1.4262 0.198908 0
M  V30 1193 H 107.422 3.10458 2.84945 0
M  V30 1194 H 106.146 1.87426 2.67468 0
M  V30 1195 H 104.805 3.45051 1.23836 0
M  V30 1196 H 104.453 3.39249 3.71374 0
M  V30 1197 H 104.153 5.01993 3.05413 0
M  V30 1198 H 105.677 4.67966 3.92225 0
M  V30 1199 H 107.091 5.44811 1.78475 0
M  V30 1200 H 105.488 5.89349 1.13083 0
M  V30 1201 H 106.558 4.84558 0.182153 0
M  V30 1202 N 107.901 -0.206675 1.56239 0
M  V30 1203 C 109.126 -0.949474 1.8439 0
M  V30 1204 C 109.551 -1.76549 0.649016 0
M  V30 1205 O 108.909 -1.76782 -0.402231 0
M  V30 1206 C 108.957 -1.83078 3.10668 0
M  V30 1207 O 108.061 -2.9281 2.90407 0
M  V30 1208 H 107.402 -0.268033 0.607499 0
M  V30 1209 H 109.932 -0.215488 2.03462 0
M  V30 1210 H 109.942 -2.2377 3.41161 0
M  V30 1211 H 108.617 -1.23112 3.97261 0
M  V30 1212 H 107.194 -2.55956 2.71184 0
M  V30 1213 N 109.379 -1.50304 -0.473955 0
M  V30 1214 C 110.327 -1.69482 -1.59307 0
M  V30 1215 C 111.321 -0.560669 -1.59853 0
M  V30 1216 O 112.527 -0.741087 -1.64036 0
M  V30 1217 H 108.902 -0.534892 -0.528578 0
M  V30 1218 H 110.873 -2.63364 -1.40293 0
M  V30 1219 C 109.622 -1.80354 -2.97267 0
M  V30 1220 H 108.945 -2.67012 -2.97564 0
M  V30 1221 H 110.385 -1.97798 -3.75036 0
M  V30 1222 C 108.844 -0.55448 -3.32306 0
M  V30 1223 O 109.374 0.307661 -4.0052 0
M  V30 1224 N 107.58 -0.409354 -2.87702 0
M  V30 1225 H 107.127 -1.11196 -2.32364 0
M  V30 1226 H 107.085 0.425223 -3.11511 0
M  V30 1227 N 110.857 0.726932 -1.39834 0
M  V30 1228 C 111.767 1.87131 -1.41489 0
M  V30 1229 C 112.783 1.71239 -0.308757 0
M  V30 1230 O 113.959 1.93701 -0.551529 0
M  V30 1231 C 111.024 3.22811 -1.26468 0
M  V30 1232 C 110.085 3.51039 -2.47124 0
M  V30 1233 C 109.318 4.80245 -2.3281 0
M  V30 1234 O 109.541 5.54537 -1.33585 0
M  V30 1235 O 108.475 5.08554 -3.21957 0
M  V30 1236 H 112.301 1.8869 -2.3797 0
M  V30 1237 H 109.886 0.875837 -1.21035 0
M  V30 1238 H 111.768 4.03877 -1.20255 0
M  V30 1239 H 110.443 3.22005 -0.330862 0
M  V30 1240 H 109.35 2.70027 -2.58914 0
M  V30 1241 H 110.683 3.56632 -3.39227 0
M  V30 1242 N 112.336 1.25143 0.95797 0
M  V30 1243 C 113.299 1.05321 2.03569 0
M  V30 1244 C 114.299 0.007152 1.60798 0
M  V30 1245 O 115.489 0.24903 1.72411 0
M  V30 1246 C 112.621 0.598394 3.35607 0
M  V30 1247 H 113.814 2.00986 2.22586 0
M  V30 1248 H 111.367 1.07502 1.13459 0
M  V30 1249 H 112.102 -0.361014 3.22284 0
M  V30 1250 H 111.887 1.35351 3.67998 0
M  V30 1251 H 113.377 0.48104 4.1482 0
M  V30 1252 N 113.814 -1.1601 1.06675 0
M  V30 1253 C 115.091 -1.82679 0.699114 0
M  V30 1254 C 115.471 -1.94559 -0.819137 0
M  V30 1255 O 114.819 -1.49169 -1.73092 0
M  V30 1256 C 115.029 -3.19445 1.40555 0
M  V30 1257 C 116.377 -3.95171 1.55323 0
M  V30 1258 O 117.401 -3.28976 1.36577 0
M  V30 1259 O 116.26 -5.13833 1.86112 0
M  V30 1260 H 113.354 -0.788954 0.247951 0
M  V30 1261 H 115.9 -1.23179 1.16726 0
M  V30 1262 H 114.672 -3.05856 2.44065 0
M  V30 1263 H 114.295 -3.86625 0.927733 0
M  V30 1264 N 115.292 -0.849877 -1.32721 0
M  V30 1265 C 116.239 -0.289033 -2.28983 0
M  V30 1266 C 117.209 0.601324 -1.54833 0
M  V30 1267 O 118.394 0.537253 -1.8308 0
M  V30 1268 C 115.534 0.520623 -3.4115 0
M  V30 1269 C 114.647 -0.394989 -4.3019 0
M  V30 1270 C 113.782 0.426834 -5.29482 0
M  V30 1271 C 112.821 -0.486476 -6.10164 0
M  V30 1272 N 111.958 0.297879 -7.01468 0
M  V30 1273 H 116.798 -1.11519 -2.76347 0
M  V30 1274 H 114.335 -0.56138 -1.35967 0
M  V30 1275 H 116.293 1.00563 -4.04899 0
M  V30 1276 H 114.923 1.31165 -2.9495 0
M  V30 1277 H 113.975 -0.99836 -3.67065 0
M  V30 1278 H 115.287 -1.09612 -4.86607 0
M  V30 1279 H 114.441 0.975205 -5.98811 0
M  V30 1280 H 113.18 1.16136 -4.73671 0
M  V30 1281 H 112.185 -1.04677 -5.39743 0
M  V30 1282 H 113.41 -1.21953 -6.6806 0
M  V30 1283 H 111.356 1.01558 -6.48091 0
M  V30 1284 H 111.273 -0.344318 -7.55216 0
M  V30 1285 H 112.541 0.828131 -7.75089 0
M  V30 1286 N 116.77 1.45427 -0.607355 0
M  V30 1287 C 118.186 1.57283 -0.270985 0
M  V30 1288 C 118.386 1.59875 1.22647 0
M  V30 1289 O 117.442 1.52893 2.00948 0
M  V30 1290 C 118.755 2.85566 -0.941952 0
M  V30 1291 C 120.303 2.9924 -0.917849 0
M  V30 1292 C 120.778 4.30293 -1.56882 0
M  V30 1293 N 122.269 4.37051 -1.5343 0
M  V30 1294 C 123.004 5.37123 -2.00715 0
M  V30 1295 N 122.5 6.43734 -2.56084 0
M  V30 1296 N 124.293 5.28479 -1.91484 0
M  V30 1297 H 116.444 1.41988 -1.57966 0
M  V30 1298 H 118.707 0.67885 -0.661715 0
M  V30 1299 H 118.413 2.8955 -1.99633 0
M  V30 1300 H 118.287 3.74322 -0.465096 0
M  V30 1301 H 120.674 2.94822 0.127984 0
M  V30 1302 H 120.755 2.11895 -1.43297 0
M  V30 1303 H 120.399 4.35469 -2.61398 0
M  V30 1304 H 120.329 5.16454 -1.02873 0
M  V30 1305 H 122.82 3.60615 -1.12982 0
M  V30 1306 H 123.133 7.16341 -2.89958 0
M  V30 1307 H 121.478 6.44485 -2.60122 0
M  V30 1308 H 124.669 4.44098 -1.47967 0
M  V30 1309 H 124.842 6.0632 -2.28648 0
M  V30 1310 N 118.248 0.346503 1.53744 0
M  V30 1311 C 119.473 -0.253074 2.0585 0
M  V30 1312 C 119.898 -1.43202 1.21962 0
M  V30 1313 O 119.256 -1.79783 0.234073 0
M  V30 1314 C 119.304 -0.643193 3.54817 0
M  V30 1315 O 118.408 -1.74286 3.73762 0
M  V30 1316 H 117.749 -0.0413583 0.662711 0
M  V30 1317 H 120.279 0.501574 1.98357 0
M  V30 1318 H 120.289 -0.919526 3.97503 0
M  V30 1319 H 118.964 0.218966 4.15323 0
M  V30 1320 H 117.541 -1.46356 3.42979 0
M  V30 1321 N 119.726 -1.57421 0.075193 0
M  V30 1322 C 120.656 -2.15942 -0.888324 0
M  V30 1323 C 121.637 -1.08737 -1.30806 0
M  V30 1324 O 122.822 -1.36787 -1.37851 0
M  V30 1325 C 119.952 -2.72379 -2.1547 0
M  V30 1326 C 118.906 -3.8478 -1.87425 0
M  V30 1327 C 118.232 -4.27834 -3.20721 0
M  V30 1328 C 119.532 -5.08869 -1.17684 0
M  V30 1329 H 121.226 -2.96705 -0.400799 0
M  V30 1330 H 118.772 -1.42723 -0.191342 0
M  V30 1331 H 120.725 -3.11965 -2.83295 0
M  V30 1332 H 119.449 -1.88841 -2.6647 0
M  V30 1333 H 118.108 -3.45703 -1.22004 0
M  V30 1334 H 117.756 -3.41214 -3.6957 0
M  V30 1335 H 117.456 -5.03605 -3.02746 0
M  V30 1336 H 118.98 -4.70039 -3.89738 0
M  V30 1337 H 120.394 -5.4575 -1.75584 0
M  V30 1338 H 118.791 -5.8994 -1.09956 0
M  V30 1339 H 119.861 -4.84648 -0.156453 0
M  V30 1340 N 121.204 0.198386 -1.56346 0
M  V30 1341 C 122.62 0.549085 -1.49857 0
M  V30 1342 C 122.82 1.86016 -0.774611 0
M  V30 1343 O 121.876 2.50416 -0.323776 0
M  V30 1344 C 123.189 0.606868 -2.94512 0
M  V30 1345 C 124.737 0.695925 -3.05165 0
M  V30 1346 C 125.212 0.784848 -4.51225 0
M  V30 1347 N 126.703 0.848463 -4.55363 0
M  V30 1348 C 127.438 0.937378 -5.65686 0
M  V30 1349 N 126.934 0.9888 -6.85707 0
M  V30 1350 N 128.727 0.974312 -5.53592 0
M  V30 1351 H 120.878 -0.661655 -2.01831 0
M  V30 1352 H 123.141 -0.235261 -0.918344 0
M  V30 1353 H 122.847 -0.28732 -3.50524 0
M  V30 1354 H 122.721 1.46268 -3.47686 0
M  V30 1355 H 125.108 1.58055 -2.49204 0
M  V30 1356 H 125.189 -0.186022 -2.55123 0
M  V30 1357 H 124.833 -0.0954072 -5.0781 0
M  V30 1358 H 124.763 1.68255 -4.98997 0
M  V30 1359 H 127.254 0.818103 -3.68938 0
M  V30 1360 H 127.567 1.05707 -7.65536 0
M  V30 1361 H 125.912 0.957534 -6.88372 0
M  V30 1362 H 129.103 0.930954 -4.58749 0
M  V30 1363 H 129.276 1.04015 -6.39597 0
M  V30 1364 N 122.682 1.50554 0.465978 0
M  V30 1365 C 123.629 1.6979 1.56333 0
M  V30 1366 C 124.599 0.539239 1.57103 0
M  V30 1367 O 125.784 0.770401 1.74555 0
M  V30 1368 C 122.924 1.80273 2.94271 0
M  V30 1369 C 122.037 3.07674 3.0325 0
M  V30 1370 C 121.172 3.08922 4.32135 0
M  V30 1371 C 120.211 4.30755 4.34875 0
M  V30 1372 N 119.348 4.29714 5.55239 0
M  V30 1373 H 124.188 2.63472 1.39235 0
M  V30 1374 H 121.725 1.30602 0.676873 0
M  V30 1375 H 123.683 1.84332 3.74269 0
M  V30 1376 H 122.313 0.900258 3.09992 0
M  V30 1377 H 121.365 3.13062 2.16094 0
M  V30 1378 H 122.677 3.97642 3.01135 0
M  V30 1379 H 121.831 3.11738 5.20485 0
M  V30 1380 H 120.57 2.16792 4.36866 0
M  V30 1381 H 119.575 4.28146 3.44922 0
M  V30 1382 H 120.8 5.24117 4.31831 0
M  V30 1383 H 118.746 3.4044 5.60746 0
M  V30 1384 H 118.663 5.13456 5.54886 0
M  V30 1385 H 119.931 4.36683 6.457 0
M  V30 1386 N 124.16 -0.719506 1.40217 0
M  V30 1387 C 125.437 -1.47221 1.28784 0
M  V30 1388 C 125.817 -2.10883 -0.0956067 0
M  V30 1389 O 125.165 -1.99833 -1.10811 0
M  V30 1390 C 125.375 -2.5111 2.42373 0
M  V30 1391 C 126.723 -3.17053 2.82423 0
M  V30 1392 O 127.747 -2.61429 2.41937 0
M  V30 1393 O 126.606 -4.17742 3.52355 0
M  V30 1394 H 123.7 -0.654491 0.50554 0
M  V30 1395 H 126.246 -0.752014 1.52128 0
M  V30 1396 H 125.018 -2.02556 3.34793 0
M  V30 1397 H 124.641 -3.3067 2.20778 0
M  V30 1398 N 125.638 -1.25649 -0.95132 0
M  V30 1399 C 126.548 -1.08073 -2.08224 0
M  V30 1400 C 127.564 -0.0169666 -1.73992 0
M  V30 1401 O 128.74 -0.218593 -2.0021 0
M  V30 1402 C 125.805 -0.704922 -3.39458 0
M  V30 1403 C 124.866 -1.84699 -3.87537 0
M  V30 1404 C 124.099 -1.48902 -5.12508 0
M  V30 1405 O 124.322 -0.386156 -5.69091 0
M  V30 1406 O 123.256 -2.32033 -5.55378 0
M  V30 1407 H 127.082 -2.02924 -2.25954 0
M  V30 1408 H 124.667 -1.04618 -1.06656 0
M  V30 1409 H 126.549 -0.507609 -4.18332 0
M  V30 1410 H 125.224 0.214291 -3.2299 0
M  V30 1411 H 124.131 -2.09919 -3.09653 0
M  V30 1412 H 125.464 -2.74557 -4.08509 0
M  V30 1413 N 127.117 1.15442 -1.07289 0
M  V30 1414 C 128.363 1.86489 -0.796846 0
M  V30 1415 C 128.696 1.82078 0.675371 0
M  V30 1416 O 127.971 1.24346 1.4956 0
M  V30 1417 C 128.254 3.35626 -1.30489 0
M  V30 1418 C 128.107 3.48673 -2.84161 0
M  V30 1419 C 129.426 4.30357 -0.920907 0
M  V30 1420 H 126.545 0.677144 -0.290939 0
M  V30 1421 H 129.187 1.35633 -1.33056 0
M  V30 1422 H 127.337 3.79068 -0.850883 0
M  V30 1423 H 129.009 3.14099 -3.37846 0
M  V30 1424 H 127.252 2.90253 -3.22391 0
M  V30 1425 H 127.923 4.53453 -3.14777 0
M  V30 1426 H 130.399 3.94871 -1.3121 0
M  V30 1427 H 129.275 5.33193 -1.30372 0
M  V30 1428 H 129.536 4.4176 0.173226 0
M  V30 1429 N 128.595 0.856903 1.32268 0
M  V30 1430 C 129.525 0.31858 2.31316 0
M  V30 1431 C 130.506 -0.583487 1.59779 0
M  V30 1432 O 131.691 -0.503259 1.87566 0
M  V30 1433 C 128.821 -0.491979 3.43798 0
M  V30 1434 C 127.775 0.315849 4.26833 0
M  V30 1435 C 127.101 -0.619586 5.31098 0
M  V30 1436 C 128.401 1.54282 4.98993 0
M  V30 1437 H 130.095 1.14621 2.76591 0
M  V30 1438 H 127.641 0.552613 1.32974 0
M  V30 1439 H 129.594 -0.879012 4.1213 0
M  V30 1440 H 128.318 -1.35299 2.97257 0
M  V30 1441 H 126.977 0.684664 3.6015 0
M  V30 1442 H 126.625 -1.47751 4.8081 0
M  V30 1443 H 126.325 -0.0830621 5.87541 0
M  V30 1444 H 127.849 -1.00375 6.02293 0
M  V30 1445 H 129.263 1.22796 5.59995 0
M  V30 1446 H 127.66 2.01745 5.65172 0
M  V30 1447 H 128.73 2.30285 4.26728 0
M  V30 1448 N 130.073 -1.45103 0.615059 0
M  V30 1449 C 131.298 -2.07064 0.117988 0
M  V30 1450 C 131.723 -1.4554 -1.19163 0
M  V30 1451 O 131.081 -0.550855 -1.72729 0
M  V30 1452 C 131.129 -3.606 -0.000288387 0
M  V30 1453 O 130.233 -3.98847 -1.04856 0
M  V30 1454 H 129.574 -0.659467 0.0774581 0
M  V30 1455 H 132.104 -1.86236 0.847186 0
M  V30 1456 H 132.114 -4.07529 -0.196091 0
M  V30 1457 H 130.789 -4.04765 0.955932 0
M  V30 1458 H 129.366 -3.63577 -0.828619 0
M  V30 1459 N 131.551 -0.354651 -1.53558 0
M  V30 1460 C 132.797 0.238797 -2.01389 0
M  V30 1461 C 133.13 1.49309 -1.2418 0
M  V30 1462 O 132.405 1.91638 -0.332457 0
M  V30 1463 C 132.688 0.541771 -3.56001 0
M  V30 1464 C 132.541 -0.725388 -4.43912 0
M  V30 1465 C 133.86 1.34685 -4.18984 0
M  V30 1466 H 130.979 0.0853177 -0.732045 0
M  V30 1467 H 133.621 -0.477384 -1.83905 0
M  V30 1468 H 131.771 1.15189 -3.71031 0
M  V30 1469 H 133.443 -1.36313 -4.407 0
M  V30 1470 H 131.686 -1.34801 -4.12324 0
M  V30 1471 H 132.357 -0.468505 -5.50008 0
M  V30 1472 H 134.833 0.830837 -4.07721 0
M  V30 1473 H 133.709 1.52759 -5.27215 0
M  V30 1474 H 133.97 2.35221 -3.74331 0
M  V30 1475 N 133.029 1.57378 -0.0835403 0
M  V30 1476 C 134.445 1.57246 0.273109 0
M  V30 1477 C 134.645 1.09385 1.69225 0
M  V30 1478 O 133.701 0.765051 2.40631 0
M  V30 1479 C 135.014 3.00614 0.0720628 0
M  V30 1480 C 136.562 3.12684 0.1407 0
M  V30 1481 C 137.037 4.57989 -0.0322094 0
M  V30 1482 N 138.528 4.63194 0.0230085 0
M  V30 1483 C 139.263 5.73335 -0.0861941 0
M  V30 1484 N 138.759 6.9235 -0.24958 0
M  V30 1485 N 140.552 5.62093 -0.0282886 0
M  V30 1486 H 132.703 1.86801 -1.0109 0
M  V30 1487 H 134.966 0.861687 -0.395222 0
M  V30 1488 H 134.672 3.39786 -0.907662 0
M  V30 1489 H 134.546 3.68193 0.81936 0
M  V30 1490 H 136.933 2.73391 1.11092 0
M  V30 1491 H 137.014 2.47719 -0.637896 0
M  V30 1492 H 136.658 4.97973 -0.999247 0
M  V30 1493 H 136.588 5.21 0.765937 0
M  V30 1494 H 139.079 3.77613 0.14722 0
M  V30 1495 H 139.392 7.72117 -0.324733 0
M  V30 1496 H 137.737 6.94415 -0.285097 0
M  V30 1497 H 140.928 4.67997 0.0981408 0
M  V30 1498 H 141.101 6.47895 -0.116845 0
M  V30 1499 N 134.507 -0.190092 1.56449 0
M  V30 1500 C 135.755 -0.907908 1.80559 0
M  V30 1501 C 136.076 -1.83583 0.657438 0
M  V30 1502 O 135.346 -1.93203 -0.323924 0
M  V30 1503 H 133.926 -0.338247 0.666032 0
M  V30 1504 H 136.588 -0.194403 1.93928 0
M  V30 1505 H 135.684 -1.49604 2.73907 0
M  V30 1506 N 135.985 -1.50799 -0.457987 0
M  V30 1507 C 137.21 -1.66496 -1.23668 0
M  V30 1508 C 137.635 -0.353288 -1.84752 0
M  V30 1509 O 136.993 0.684346 -1.67888 0
M  V30 1510 C 137.041 -2.76763 -2.3116 0
M  V30 1511 O 136.145 -2.38928 -3.36136 0
M  V30 1512 H 135.486 -0.555828 -0.363252 0
M  V30 1513 H 138.016 -1.9725 -0.543474 0
M  V30 1514 H 138.026 -3.00232 -2.76269 0
M  V30 1515 H 136.701 -3.71954 -1.86073 0
M  V30 1516 H 135.278 -2.25953 -2.96647 0
M  V30 1517 N 137.463 0.71206 -1.40597 0
M  V30 1518 C 138.712 1.46754 -1.38369 0
M  V30 1519 C 139.025 1.95598 0.0097839 0
M  V30 1520 O 140.231 2.71059 0.154677 0
M  V30 1521 C 138.687 2.65289 -2.43207 0
M  V30 1522 C 138.295 2.23301 -3.88382 0
M  V30 1523 C 140.039 3.43008 -2.50091 0
M  V30 1524 C 137.946 3.38696 -4.84808 0
M  V30 1525 H 136.876 0.55118 -0.514506 0
M  V30 1526 H 139.527 0.774616 -1.66349 0
M  V30 1527 H 137.909 3.36769 -2.08332 0
M  V30 1528 H 139.083 1.59218 -4.32419 0
M  V30 1529 H 137.398 1.58618 -3.85006 0
M  V30 1530 H 139.995 4.28881 -3.1932 0
M  V30 1531 H 140.338 3.87065 -1.53253 0
M  V30 1532 H 140.871 2.78574 -2.83974 0
M  V30 1533 H 137.61 2.99668 -5.82992 0
M  V30 1534 H 137.13 4.01683 -4.45433 0
M  V30 1535 H 138.809 4.04712 -5.04794 0
M  V30 1536 N 138.941 1.26152 0.944643 0
M  V30 1537 C 139.871 1.09902 2.06019 0
M  V30 1538 C 140.852 0.00519538 1.70099 0
M  V30 1539 O 142.037 0.176583 1.93396 0
M  V30 1540 C 139.167 0.727562 3.39594 0
M  V30 1541 C 138.121 1.77274 3.89561 0
M  V30 1542 C 137.447 1.25569 5.19747 0
M  V30 1543 C 138.747 3.17357 4.14827 0
M  V30 1544 H 140.441 2.03217 2.19871 0
M  V30 1545 H 137.987 0.978452 1.05652 0
M  V30 1546 H 139.94 0.600777 4.17095 0
M  V30 1547 H 138.664 -0.241287 3.25707 0
M  V30 1548 H 137.323 1.88814 3.14237 0
M  V30 1549 H 136.971 0.276783 5.02238 0
M  V30 1550 H 136.671 1.95433 5.54148 0
M  V30 1551 H 138.195 1.1415 5.99835 0
M  V30 1552 H 139.609 3.08914 4.82954 0
M  V30 1553 H 138.006 3.84781 4.60504 0
M  V30 1554 H 139.076 3.63673 3.20734 0
M  V30 1555 N 140.419 -1.14872 1.07899 0
M  V30 1556 C 141.696 -1.81928 0.71845 0
M  V30 1557 C 142.076 -1.95417 -0.798455 0
M  V30 1558 O 141.424 -1.50997 -1.715 0
M  V30 1559 C 141.634 -3.17937 1.43935 0
M  V30 1560 C 142.982 -3.93501 1.59506 0
M  V30 1561 O 144.006 -3.27509 1.40058 0
M  V30 1562 O 142.865 -5.1183 1.91551 0
M  V30 1563 H 139.959 -0.78628 0.256305 0
M  V30 1564 H 142.505 -1.21934 1.18026 0
M  V30 1565 H 141.277 -3.0325 2.47295 0
M  V30 1566 H 140.9 -3.85619 0.968687 0
M  V30 1567 N 141.898 -0.863906 -1.31812 0
M  V30 1568 C 143.314 -0.555004 -1.49639 0
M  V30 1569 C 143.514 0.912266 -1.79666 0
M  V30 1570 O 142.57 1.69479 -1.87171 0
M  V30 1571 C 143.883 -1.44998 -2.63431 0
M  V30 1572 C 145.431 -1.45138 -2.77316 0
M  V30 1573 C 145.906 -2.33179 -3.94197 0
M  V30 1574 N 147.397 -2.31025 -4.01474 0
M  V30 1575 C 148.132 -2.95871 -4.9117 0
M  V30 1576 N 147.628 -3.69863 -5.8581 0
M  V30 1577 N 149.421 -2.85211 -4.84367 0
M  V30 1578 H 141.572 -1.81339 -1.10589 0
M  V30 1579 H 143.835 -0.77505 -0.545895 0
M  V30 1580 H 143.541 -2.49377 -2.48 0
M  V30 1581 H 143.415 -1.14409 -3.59431 0
M  V30 1582 H 145.802 -0.415201 -2.92164 0
M  V30 1583 H 145.883 -1.79747 -1.82001 0
M  V30 1584 H 145.527 -3.3687 -3.80107 0
M  V30 1585 H 145.457 -1.95897 -4.88807 0
M  V30 1586 H 147.948 -1.77238 -3.33759 0
M  V30 1587 H 148.261 -4.16486 -6.50968 0
M  V30 1588 H 146.606 -3.73971 -5.85808 0
M  V30 1589 H 149.797 -2.26948 -4.09405 0
M  V30 1590 H 149.97 -3.36027 -5.54066 0
M  V30 1591 N 143.376 1.44774 -0.622745 0
M  V30 1592 C 144.324 2.32387 0.0994683 0
M  V30 1593 C 145.318 1.46859 0.844326 0
M  V30 1594 O 146.524 1.63254 0.758174 0
M  V30 1595 H 142.899 0.750273 0.0509291 0
M  V30 1596 H 144.87 2.91062 -0.65767 0
M  V30 1597 C 143.619 3.30723 1.07319 0
M  V30 1598 H 142.942 3.96541 0.509462 0
M  V30 1599 H 144.382 3.94725 1.54817 0
M  V30 1600 C 142.841 2.59021 2.15429 0
M  V30 1601 O 143.371 2.38286 3.23393 0
M  V30 1602 N 141.577 2.189 1.91131 0
M  V30 1603 H 141.124 2.35964 1.03337 0
M  V30 1604 H 141.082 1.71251 2.63668 0
M  V30 1605 N 144.854 0.36279 1.53368 0
M  V30 1606 C 146.102 -0.227326 2.00817 0
M  V30 1607 C 146.423 -1.49511 1.25186 0
M  V30 1608 O 145.693 -1.92482 0.364348 0
M  V30 1609 H 144.273 -0.0869923 0.741917 0
M  V30 1610 H 146.935 0.488381 1.88682 0
M  V30 1611 H 146.031 -0.456273 3.08747 0
M  V30 1612 N 146.332 -1.57332 0.0918853 0
M  V30 1613 C 147.264 -2.10869 -0.898168 0
M  V30 1614 C 148.277 -1.04521 -1.24817 0
M  V30 1615 O 149.466 -1.31977 -1.20184 0
M  V30 1616 C 146.566 -2.57083 -2.2082 0
M  V30 1617 C 145.739 -3.87229 -2.03402 0
M  V30 1618 C 144.798 -4.19324 -3.17889 0
M  V30 1619 O 143.824 -4.88598 -2.91994 0
M  V30 1620 N 145.026 -3.74471 -4.43567 0
M  V30 1621 H 147.791 -2.96439 -0.440943 0
M  V30 1622 H 145.352 -1.61631 -0.0933064 0
M  V30 1623 H 147.344 -2.75602 -2.96354 0
M  V30 1624 H 145.914 -1.76541 -2.57977 0
M  V30 1625 H 145.134 -3.7789 -1.12218 0
M  V30 1626 H 146.422 -4.72379 -1.89038 0
M  V30 1627 H 145.82 -3.18546 -4.67488 0
M  V30 1628 H 144.377 -3.98151 -5.16061 0
M  V30 1629 N 147.81 0.181792 -1.56548 0
M  V30 1630 C 148.74 1.22765 -1.98623 0
M  V30 1631 C 149.721 1.46747 -0.860189 0
M  V30 1632 O 150.906 1.58259 -1.12551 0
M  V30 1633 C 148.036 2.56894 -2.33715 0
M  V30 1634 C 146.99 2.475 -3.49182 0
M  V30 1635 C 146.316 3.86023 -3.69986 0
M  V30 1636 C 147.616 1.98866 -4.82959 0
M  V30 1637 H 149.31 0.877942 -2.86239 0
M  V30 1638 H 146.856 0.42088 -1.37712 0
M  V30 1639 H 148.809 3.30253 -2.61746 0
M  V30 1640 H 147.533 2.93632 -1.42997 0
M  V30 1641 H 146.192 1.76596 -3.21262 0
M  V30 1642 H 145.84 4.20136 -2.76576 0
M  V30 1643 H 145.54 3.80609 -4.47672 0
M  V30 1644 H 147.064 4.60984 -4.00407 0
M  V30 1645 H 148.478 2.61992 -5.09934 0
M  V30 1646 H 146.875 2.04424 -5.64208 0
M  V30 1647 H 147.945 0.942465 -4.75653 0
M  V30 1648 N 149.288 1.51039 0.449983 0
M  V30 1649 C 150.218 1.74379 1.55288 0
M  V30 1650 C 151.199 0.593236 1.5942 0
M  V30 1651 O 152.384 0.834625 1.7535 0
M  V30 1652 C 149.514 1.85728 2.93466 0
M  V30 1653 C 148.468 3.01078 3.04197 0
M  V30 1654 C 147.794 2.97595 4.44231 0
M  V30 1655 C 149.094 4.41254 2.7945 0
M  V30 1656 H 150.788 2.66725 1.36008 0
M  V30 1657 H 148.334 1.2835 0.652864 0
M  V30 1658 H 150.287 2.0064 3.70569 0
M  V30 1659 H 149.011 0.900207 3.13949 0
M  V30 1660 H 147.67 2.85851 2.29531 0
M  V30 1661 H 147.318 1.99691 4.61663 0
M  V30 1662 H 147.018 3.75046 4.52343 0
M  V30 1663 H 148.542 3.14583 5.23326 0
M  V30 1664 H 149.956 4.56897 3.46292 0
M  V30 1665 H 148.353 5.20315 2.98985 0
M  V30 1666 H 149.423 4.52164 1.75144 0
M  V30 1667 N 150.766 -0.704594 1.40972 0
M  V30 1668 C 151.991 -1.49858 1.43378 0
M  V30 1669 C 152.416 -1.88061 0.038184 0
M  V30 1670 O 151.774 -1.5402 -0.956425 0
M  V30 1671 C 151.822 -2.74333 2.34038 0
M  V30 1672 O 150.926 -3.7147 1.7912 0
M  V30 1673 H 150.267 -0.45139 0.486974 0
M  V30 1674 H 152.797 -0.866832 1.8533 0
M  V30 1675 H 152.807 -3.22741 2.49604 0
M  V30 1676 H 151.482 -2.45863 3.35446 0
M  V30 1677 H 150.059 -3.30363 1.72958 0
M  V30 1678 N 152.244 -1.26651 -0.937939 0
M  V30 1679 C 153.49 -1.12553 -1.687 0
M  V30 1680 C 153.823 0.329782 -1.91379 0
M  V30 1681 O 153.098 1.24202 -1.4968 0
M  V30 1682 C 153.381 -1.89862 -3.05981 0
M  V30 1683 C 153.234 -3.43318 -2.90607 0
M  V30 1684 C 154.553 -1.69499 -4.0615 0
M  V30 1685 H 151.672 -0.410257 -0.612257 0
M  V30 1686 H 154.314 -1.55685 -1.08913 0
M  V30 1687 H 152.464 -1.53204 -3.57017 0
M  V30 1688 H 154.136 -3.89747 -2.46769 0
M  V30 1689 H 152.379 -3.70179 -2.26164 0
M  V30 1690 H 153.05 -3.92642 -3.8799 0
M  V30 1691 H 155.526 -2.01442 -3.64088 0
M  V30 1692 H 154.402 -2.26002 -5.00214 0
M  V30 1693 H 154.663 -0.640365 -4.37438 0
M  V30 1694 N 153.722 1.14298 -1.08507 0
M  V30 1695 C 154.947 1.8976 -0.837001 0
M  V30 1696 C 155.372 1.78097 0.605228 0
M  V30 1697 O 154.73 1.12188 1.4242 0
M  V30 1698 C 154.778 3.37685 -1.26495 0
M  V30 1699 O 153.882 4.10281 -0.417514 0
M  V30 1700 H 153.223 0.590365 -0.303917 0
M  V30 1701 H 155.753 1.44672 -1.44676 0
M  V30 1702 H 155.763 3.88501 -1.24625 0
M  V30 1703 H 154.438 3.45492 -2.31534 0
M  V30 1704 H 153.015 3.69536 -0.499722 0
M  V30 1705 N 155.201 0.870884 1.31352 0
M  V30 1706 C 156.447 0.482987 1.96965 0
M  V30 1707 C 156.78 -0.962462 1.68672 0
M  V30 1708 O 156.055 -1.6779 0.98371 0
M  V30 1709 C 156.338 0.741752 3.52378 0
M  V30 1710 C 156.191 2.2368 3.9024 0
M  V30 1711 C 157.51 0.208838 4.39604 0
M  V30 1712 H 154.629 0.176955 0.715441 0
M  V30 1713 H 157.271 1.09229 1.55464 0
M  V30 1714 H 155.421 0.223149 3.87859 0
M  V30 1715 H 157.093 2.82273 3.64856 0
M  V30 1716 H 155.336 2.70901 3.38814 0
M  V30 1717 H 156.007 2.3685 4.98604 0
M  V30 1718 H 158.483 0.652529 4.10952 0
M  V30 1719 H 157.359 0.419336 5.47296 0
M  V30 1720 H 157.62 -0.889275 4.33064 0
M  V30 1721 N 156.679 -1.44442 0.630414 0
M  V30 1722 C 158.09 -1.85434 0.217063 0
M  V30 1723 C 158.441 -1.52748 -1.23136 0
M  V30 1724 O 157.566 -0.965205 -1.93682 0
M  V30 1725 C 158.161 -3.36581 0.387168 0
M  V30 1726 C 156.72 -3.76389 0.0283297 0
M  V30 1727 C 155.867 -2.68296 0.700889 0
M  V30 1728 H 158.818 -1.34919 0.83562 0
M  V30 1729 H 158.839 -3.78657 -0.374086 0
M  V30 1730 H 158.351 -3.60339 1.44144 0
M  V30 1731 H 156.452 -3.58246 -1.02423 0
M  V30 1732 H 156.565 -4.77095 0.437892 0
M  V30 1733 H 154.929 -2.54335 0.136267 0
M  V30 1734 H 155.712 -2.94887 1.75774 0
M  V30 1735 N 158.157 -0.370918 -1.53173 0
M  V30 1736 C 159.09 0.516727 -2.22273 0
M  V30 1737 C 160.068 1.07877 -1.21661 0
M  V30 1738 O 161.252 1.13389 -1.50583 0
M  V30 1739 C 158.379 1.71346 -2.92161 0
M  V30 1740 C 157.425 1.27838 -4.0689 0
M  V30 1741 S 158.258 0.275217 -5.34792 0
M  V30 1742 C 159.414 1.47816 -6.08195 0
M  V30 1743 H 159.647 -0.0701054 -2.97217 0
M  V30 1744 H 157.18 -0.155038 -1.5362 0
M  V30 1745 H 159.138 2.39988 -3.3304 0
M  V30 1746 H 157.799 2.27156 -2.16931 0
M  V30 1747 H 156.992 2.17141 -4.54825 0
M  V30 1748 H 156.594 0.671105 -3.6793 0
M  V30 1749 H 158.886 2.40831 -6.33251 0
M  V30 1750 H 159.829 1.04008 -7.0042 0
M  V30 1751 H 160.237 1.68663 -5.38714 0
M  V30 1752 N 159.635 1.57281 -0.100228 0
M  V30 1753 C 160.86 1.99302 0.573881 0
M  V30 1754 C 161.285 0.979059 1.60611 0
M  V30 1755 O 160.643 -0.0517803 1.81226 0
M  V30 1756 C 160.691 3.40274 1.19358 0
M  V30 1757 O 159.795 3.41676 2.30935 0
M  V30 1758 H 159.136 0.647944 0.145138 0
M  V30 1759 H 161.666 2.03779 -0.183156 0
M  V30 1760 H 161.676 3.78078 1.53365 0
M  V30 1761 H 160.351 4.13594 0.437385 0
M  V30 1762 H 158.928 3.15672 1.98509 0
M  V30 1763 N 161.113 -0.173488 1.56642 0
M  V30 1764 C 162.076 -1.19859 1.95362 0
M  V30 1765 C 163.076 -1.37296 0.83704 0
M  V30 1766 O 164.266 -1.34739 1.10413 0
M  V30 1767 C 161.398 -2.56405 2.24654 0
M  V30 1768 H 162.591 -0.867062 2.87092 0
M  V30 1769 H 160.144 -0.415853 1.50666 0
M  V30 1770 H 160.879 -2.94576 1.35631 0
M  V30 1771 H 160.664 -2.45115 3.06041 0
M  V30 1772 H 162.154 -3.30287 2.5554 0
M  V30 1773 N 162.591 -1.51276 -0.441967 0
M  V30 1774 C 163.84 -1.6295 -1.18871 0
M  V30 1775 C 164.153 -0.349312 -1.92456 0
M  V30 1776 O 165.359 -0.345355 -2.69295 0
M  V30 1777 C 163.815 -2.87759 -2.16155 0
M  V30 1778 C 163.423 -4.22764 -1.48239 0
M  V30 1779 C 165.167 -3.08788 -2.91291 0
M  V30 1780 C 163.074 -5.38728 -2.4398 0
M  V30 1781 H 162.004 -0.606913 -0.447406 0
M  V30 1782 H 164.655 -1.77739 -0.456205 0
M  V30 1783 H 163.037 -2.66593 -2.92821 0
M  V30 1784 H 164.211 -4.54293 -0.771635 0
M  V30 1785 H 162.526 -4.07575 -0.852741 0
M  V30 1786 H 165.123 -3.92599 -3.63002 0
M  V30 1787 H 165.466 -2.21679 -3.5237 0
M  V30 1788 H 165.999 -3.30272 -2.21733 0
M  V30 1789 H 162.738 -6.28082 -1.87598 0
M  V30 1790 H 162.258 -5.1158 -3.13123 0
M  V30 1791 H 163.937 -5.70489 -3.05207 0
M  V30 1792 N 164.069 0.697108 -1.41344 0
M  V30 1793 C 165.315 1.4593 -1.40827 0
M  V30 1794 C 165.648 1.94193 -0.0167098 0
M  V30 1795 O 164.923 1.69425 0.955263 0
M  V30 1796 C 165.206 2.67229 -2.41373 0
M  V30 1797 C 165.059 2.24741 -3.8963 0
M  V30 1798 C 166.378 3.69423 -2.39196 0
M  V30 1799 H 163.497 0.529303 -0.512842 0
M  V30 1800 H 166.139 0.794112 -1.72609 0
M  V30 1801 H 164.289 3.23982 -2.14401 0
M  V30 1802 H 165.961 1.73327 -4.27499 0
M  V30 1803 H 164.204 1.56542 -4.0457 0
M  V30 1804 H 164.875 3.1177 -4.55525 0
M  V30 1805 H 167.351 3.2234 -2.63128 0
M  V30 1806 H 166.227 4.51907 -3.11563 0
M  V30 1807 H 166.488 4.19012 -1.41001 0
M  V30 1808 N 165.547 1.27147 0.931209 0
M  V30 1809 C 166.51 1.09615 2.01289 0
M  V30 1810 C 167.51 0.0412581 1.60747 0
M  V30 1811 O 168.7 0.285545 1.71844 0
M  V30 1812 C 165.832 0.669447 3.34262 0
M  V30 1813 H 167.025 2.05662 2.18273 0
M  V30 1814 H 164.578 1.09885 1.11153 0
M  V30 1815 H 165.313 -0.292572 3.22978 0
M  V30 1816 H 165.098 1.43127 3.65044 0
M  V30 1817 H 166.588 0.568921 4.13706 0
M  V30 1818 N 167.025 -1.13721 1.09112 0
M  V30 1819 C 168.302 -1.81155 0.737706 0
M  V30 1820 C 168.682 -1.96253 -0.777683 0
M  V30 1821 O 168.03 -1.52807 -1.69889 0
M  V30 1822 C 168.24 -3.16392 1.47299 0
M  V30 1823 C 169.588 -3.91787 1.63671 0
M  V30 1824 O 170.612 -3.26005 1.43524 0
M  V30 1825 O 169.471 -5.0977 1.96969 0
M  V30 1826 H 166.565 -0.783518 0.26463 0
M  V30 1827 H 169.111 -1.20676 1.19312 0
M  V30 1828 H 167.883 -3.0061 2.50498 0
M  V30 1829 H 167.506 -3.8457 1.00953 0
M  V30 1830 N 168.503 -0.877838 -1.30888 0
M  V30 1831 C 169.914 -0.544193 -1.78593 0
M  V30 1832 C 170.265 0.939301 -1.72254 0
M  V30 1833 O 169.39 1.7337 -1.29505 0
M  V30 1834 C 169.985 -0.98105 -3.24285 0
M  V30 1835 C 168.544 -0.698935 -3.69854 0
M  V30 1836 C 167.691 -1.168 -2.51502 0
M  V30 1837 H 170.642 -1.06278 -1.17859 0
M  V30 1838 H 170.663 -0.307009 -3.79259 0
M  V30 1839 H 170.175 -2.06079 -3.28866 0
M  V30 1840 H 168.276 0.369112 -3.70767 0
M  V30 1841 H 168.389 -1.28148 -4.61644 0
M  V30 1842 H 166.753 -0.587535 -2.47831 0
M  V30 1843 H 167.536 -2.25533 -2.58824 0
M  V30 1844 N 169.982 1.44106 -0.638065 0
M  V30 1845 C 170.929 2.30715 0.062701 0
M  V30 1846 C 171.899 1.43882 0.829883 0
M  V30 1847 O 173.084 1.72775 0.809532 0
M  V30 1848 C 170.224 3.29258 1.03358 0
M  V30 1849 C 169.337 4.31192 0.26409 0
M  V30 1850 C 168.472 5.16825 1.22741 0
M  V30 1851 C 167.511 6.10462 0.447475 0
M  V30 1852 N 166.648 6.8877 1.36161 0
M  V30 1853 H 171.488 2.90096 -0.681781 0
M  V30 1854 H 169.025 1.42925 -0.347988 0
M  V30 1855 H 170.983 3.84886 1.60992 0
M  V30 1856 H 169.613 2.71562 1.74511 0
M  V30 1857 H 168.665 3.77981 -0.428295 0
M  V30 1858 H 169.977 4.97619 -0.343052 0
M  V30 1859 H 169.131 5.77004 1.87487 0
M  V30 1860 H 167.87 4.50488 1.86847 0
M  V30 1861 H 166.875 5.49386 -0.213433 0
M  V30 1862 H 168.1 6.78837 -0.188968 0
M  V30 1863 H 166.046 6.25096 1.98975 0
M  V30 1864 H 165.963 7.51663 0.808656 0
M  V30 1865 H 167.231 7.53467 1.99769 0
M  V30 1866 N 171.46 0.379036 1.52974 0
M  V30 1867 C 172.688 -0.20679 2.05864 0
M  V30 1868 C 173.103 -1.41356 1.25155 0
M  V30 1869 O 172.46 -1.8009 0.295588 0
M  V30 1870 C 172.511 -0.587045 3.56702 0
M  V30 1871 O 172.232 0.571776 4.34353 0
M  V30 1872 C 173.733 -1.22983 4.25899 0
M  V30 1873 H 170.953 -0.0336123 0.670158 0
M  V30 1874 H 173.497 0.541298 1.97206 0
M  V30 1875 H 171.652 -1.28504 3.65466 0
M  V30 1876 H 172.066 0.261544 5.23847 0
M  V30 1877 H 173.54 -1.44635 5.32715 0
M  V30 1878 H 174.017 -2.19416 3.80465 0
M  V30 1879 H 174.623 -0.572892 4.21424 0
M  V30 1880 N 172.938 -1.57226 0.108567 0
M  V30 1881 C 173.871 -2.10447 -0.882464 0
M  V30 1882 C 174.849 -1.01829 -1.26766 0
M  V30 1883 O 176.033 -1.29415 -1.37054 0
M  V30 1884 C 173.16 -2.59258 -2.17952 0
M  V30 1885 C 172.206 -3.79662 -1.94318 0
M  V30 1886 S 173.039 -5.22586 -1.16892 0
M  V30 1887 C 174.195 -5.74758 -2.47799 0
M  V30 1888 H 174.428 -2.94178 -0.429745 0
M  V30 1889 H 171.961 -1.54043 -0.105 0
M  V30 1890 H 173.919 -2.88036 -2.92482 0
M  V30 1891 H 172.58 -1.75728 -2.60343 0
M  V30 1892 H 171.773 -4.11928 -2.90399 0
M  V30 1893 H 171.375 -3.51446 -1.27913 0
M  V30 1894 H 173.667 -5.83846 -3.43701 0
M  V30 1895 H 174.61 -6.73027 -2.20093 0
M  V30 1896 H 175.018 -5.02763 -2.56689 0
M  V30 1897 N 174.416 0.165178 -1.56732 0
M  V30 1898 C 175.346 1.20651 -1.99914 0
M  V30 1899 C 176.327 1.45827 -0.875705 0
M  V30 1900 O 177.512 1.57057 -1.14223 0
M  V30 1901 C 174.642 2.54401 -2.36427 0
M  V30 1902 C 173.596 2.43782 -3.51787 0
M  V30 1903 C 172.922 3.82078 -3.7406 0
M  V30 1904 C 174.222 1.93732 -4.85041 0
M  V30 1905 H 175.916 0.847534 -2.87154 0
M  V30 1906 H 173.462 0.40625 -1.38151 0
M  V30 1907 H 175.415 3.27458 -2.65234 0
M  V30 1908 H 174.139 2.92098 -1.46103 0
M  V30 1909 H 172.798 1.73178 -3.23117 0
M  V30 1910 H 172.446 4.17179 -2.81017 0
M  V30 1911 H 172.146 3.7584 -4.51684 0
M  V30 1912 H 173.67 4.56712 -4.05274 0
M  V30 1913 H 175.084 2.56569 -5.12684 0
M  V30 1914 H 173.481 1.98428 -5.66345 0
M  V30 1915 H 174.551 0.891962 -4.76626 0
M  V30 1916 N 175.894 1.51508 0.433938 0
M  V30 1917 C 176.841 1.73068 1.52696 0
M  V30 1918 C 177.811 0.572441 1.55924 0
M  V30 1919 O 178.996 0.807253 1.72882 0
M  V30 1920 C 176.136 1.86474 2.90381 0
M  V30 1921 C 175.249 3.14037 2.96656 0
M  V30 1922 C 174.384 3.18019 4.25485 0
M  V30 1923 C 173.423 4.39882 4.2564 0
M  V30 1924 N 172.56 4.41394 5.45999 0
M  V30 1925 H 177.4 2.66366 1.33615 0
M  V30 1926 H 174.937 1.32008 0.649018 0
M  V30 1927 H 176.895 1.92229 3.70275 0
M  V30 1928 H 175.525 0.965809 3.08013 0
M  V30 1929 H 174.577 3.17575 2.09404 0
M  V30 1930 H 175.889 4.0394 2.92633 0
M  V30 1931 H 175.043 3.22708 5.13755 0
M  V30 1932 H 173.782 2.2601 4.3217 0
M  V30 1933 H 172.787 4.35366 3.35763 0
M  V30 1934 H 174.012 5.33159 4.20617 0
M  V30 1935 H 171.958 3.52258 5.53399 0
M  V30 1936 H 171.875 5.25111 5.4387 0
M  V30 1937 H 173.143 4.50281 6.36292 0
M  V30 1938 N 177.372 -0.689602 1.41712 0
M  V30 1939 C 178.282 -1.83314 1.46401 0
M  V30 1940 C 179.298 -1.7036 0.35405 0
M  V30 1941 O 180.474 -1.92171 0.602692 0
M  V30 1942 C 177.539 -3.19344 1.34982 0
M  V30 1943 C 176.6 -3.44363 2.56344 0
M  V30 1944 C 175.833 -4.73904 2.45461 0
M  V30 1945 O 176.056 -5.508 1.48241 0
M  V30 1946 O 174.99 -4.99839 3.35328 0
M  V30 1947 H 178.816 -1.82314 2.42889 0
M  V30 1948 H 176.401 -0.843438 1.23315 0
M  V30 1949 H 178.283 -4.00547 1.3092 0
M  V30 1950 H 176.958 -3.21014 0.41612 0
M  V30 1951 H 175.865 -2.63067 2.65982 0
M  V30 1952 H 177.198 -3.47512 3.48563 0
M  V30 1953 N 178.85 -1.27639 -0.924453 0
M  V30 1954 C 179.798 -1.10485 -2.04685 0
M  V30 1955 C 180.792 -0.0270421 -1.69378 0
M  V30 1956 O 181.998 -0.185008 -1.79047 0
M  V30 1957 H 178.373 -0.340546 -0.670472 0
M  V30 1958 H 180.344 -2.05566 -2.16298 0
M  V30 1959 C 179.093 -0.772229 -3.39016 0
M  V30 1960 H 178.416 -1.59351 -3.66671 0
M  V30 1961 H 179.856 -0.692097 -4.18313 0
M  V30 1962 C 178.315 0.523554 -3.32807 0
M  V30 1963 O 178.845 1.55702 -3.70297 0
M  V30 1964 N 177.051 0.520363 -2.85903 0
M  V30 1965 H 176.598 -0.32107 -2.55591 0
M  V30 1966 H 176.556 1.38742 -2.82131 0
M  V30 1967 N 180.328 1.1314 -1.09713 0
M  V30 1968 C 181.553 1.88862 -0.857081 0
M  V30 1969 C 181.978 1.78729 0.586304 0
M  V30 1970 O 181.336 1.13692 1.41222 0
M  V30 1971 C 181.384 3.36325 -1.30069 0
M  V30 1972 O 180.488 4.09815 -0.461007 0
M  V30 1973 H 179.829 0.587108 -0.310162 0
M  V30 1974 H 182.359 1.43129 -1.46203 0
M  V30 1975 H 182.369 3.87157 -1.28738 0
M  V30 1976 H 181.044 3.43017 -2.35185 0
M  V30 1977 H 179.621 3.68986 -0.538888 0
M  V30 1978 N 181.806 0.884767 1.30421 0
M  V30 1979 C 182.736 0.367574 2.30589 0
M  V30 1980 C 183.717 -0.549464 1.60981 0
M  V30 1981 O 184.902 -0.46336 1.88591 0
M  V30 1982 C 182.032 -0.418944 3.44764 0
M  V30 1983 C 180.986 0.406316 4.26067 0
M  V30 1984 C 180.312 -0.506793 5.32293 0
M  V30 1985 C 181.612 1.64832 4.95608 0
M  V30 1986 H 183.306 1.20462 2.74097 0
M  V30 1987 H 180.852 0.580695 1.31772 0
M  V30 1988 H 182.805 -0.791395 4.13902 0
M  V30 1989 H 181.529 -1.28964 3.0006 0
M  V30 1990 H 180.188 0.760903 3.58617 0
M  V30 1991 H 179.836 -1.37519 4.83836 0
M  V30 1992 H 179.536 0.0415828 5.87585 0
M  V30 1993 H 181.06 -0.875764 6.04287 0
M  V30 1994 H 182.474 1.34646 5.57264 0
M  V30 1995 H 180.871 2.13688 5.60765 0
M  V30 1996 H 181.941 2.39284 4.21748 0
M  V30 1997 N 183.284 -1.43765 0.645699 0
M  V30 1998 C 184.247 -2.29163 -0.0409488 0
M  V30 1999 C 185.247 -1.41813 -0.757996 0
M  V30 2000 O 186.437 -1.63527 -0.600382 0
M  V30 2001 C 183.569 -3.23716 -1.06869 0
M  V30 2002 H 184.762 -2.91366 0.710345 0
M  V30 2003 H 182.315 -1.5092 0.406547 0
M  V30 2004 H 183.05 -2.66393 -1.84947 0
M  V30 2005 H 182.835 -3.88105 -0.558277 0
M  V30 2006 H 184.325 -3.87831 -1.54845 0
M  V30 2007 N 184.763 -0.387143 -1.52771 0
M  V30 2008 C 186.04 0.253197 -1.93954 0
M  V30 2009 C 186.42 1.64545 -1.32243 0
M  V30 2010 O 185.768 2.23191 -0.489699 0
M  V30 2011 C 185.978 0.281722 -3.47861 0
M  V30 2012 C 187.326 0.511715 -4.21505 0
M  V30 2013 O 188.35 0.362023 -3.54356 0
M  V30 2014 O 187.209 0.804847 -5.40541 0
M  V30 2015 H 184.303 0.156845 -0.811991 0
M  V30 2016 H 186.849 -0.441494 -1.63856 0
M  V30 2017 H 185.621 -0.693571 -3.85104 0
M  V30 2018 H 185.244 1.02142 -3.84256 0
M  V30 2019 N 186.241 1.57166 -0.116904 0
M  V30 2020 C 187.188 2.15202 0.83408 0
M  V30 2021 C 188.158 1.07644 1.26499 0
M  V30 2022 O 189.343 1.35541 1.34288 0
M  V30 2023 C 186.483 2.75405 2.07957 0
M  V30 2024 C 185.596 3.97264 1.69721 0
M  V30 2025 C 184.731 4.45561 2.89221 0
M  V30 2026 C 183.77 5.59956 2.47215 0
M  V30 2027 N 182.907 6.03006 3.59622 0
M  V30 2028 H 187.747 2.96141 0.332335 0
M  V30 2029 H 185.284 1.46309 0.152349 0
M  V30 2030 H 187.242 3.08439 2.80929 0
M  V30 2031 H 185.872 1.97159 2.55594 0
M  V30 2032 H 184.924 3.70404 0.866316 0
M  V30 2033 H 186.236 4.80226 1.34849 0
M  V30 2034 H 185.39 4.80493 3.7042 0
M  V30 2035 H 184.129 3.61544 3.27318 0
M  V30 2036 H 183.134 5.2463 1.64448 0
M  V30 2037 H 184.359 6.45738 2.10238 0
M  V30 2038 H 182.305 5.21931 3.97396 0
M  V30 2039 H 182.222 6.80819 3.28667 0
M  V30 2040 H 183.49 6.42576 4.41267 0
M  V30 2041 N 187.719 -0.156864 1.56817 0
M  V30 2042 C 188.629 -1.2136 2.00771 0
M  V30 2043 C 189.645 -1.47598 0.921459 0
M  V30 2044 O 190.821 -1.59462 1.2302 0
M  V30 2045 C 187.886 -2.52943 2.37109 0
M  V30 2046 C 186.947 -2.34439 3.59634 0
M  V30 2047 C 186.18 -3.59748 3.94229 0
M  V30 2048 O 186.403 -4.65526 3.29609 0
M  V30 2049 O 185.337 -3.52998 4.8752 0
M  V30 2050 H 189.163 -0.870468 2.90958 0
M  V30 2051 H 186.748 -0.36484 1.44877 0
M  V30 2052 H 188.63 -3.30538 2.61386 0
M  V30 2053 H 187.305 -2.86806 1.5008 0
M  V30 2054 H 186.212 -1.54828 3.40557 0
M  V30 2055 H 187.545 -2.05496 4.4725 0
M  V30 2056 N 189.197 -1.51736 -0.425897 0
M  V30 2057 C 190.613 -1.40166 -0.76326 0
M  V30 2058 C 190.813 -0.492962 -1.95377 0
M  V30 2059 O 189.869 0.0475815 -2.52455 0
M  V30 2060 C 191.182 -2.82403 -1.03291 0
M  V30 2061 C 192.73 -2.91632 -1.13665 0
M  V30 2062 C 193.205 -4.34801 -1.43916 0
M  V30 2063 N 194.696 -4.3796 -1.50816 0
M  V30 2064 C 195.431 -5.4578 -1.75817 0
M  V30 2065 N 194.927 -6.63744 -1.98534 0
M  V30 2066 N 196.72 -5.33274 -1.77694 0
M  V30 2067 H 188.871 -2.09361 0.358 0
M  V30 2068 H 191.134 -0.942941 0.0978094 0
M  V30 2069 H 190.84 -3.50943 -0.230696 0
M  V30 2070 H 190.714 -3.22428 -1.95754 0
M  V30 2071 H 193.101 -2.23284 -1.92947 0
M  V30 2072 H 193.182 -2.55088 -0.190756 0
M  V30 2073 H 192.826 -5.03703 -0.65157 0
M  V30 2074 H 192.756 -4.68868 -2.39729 0
M  V30 2075 H 195.247 -3.52919 -1.35118 0
M  V30 2076 H 195.56 -7.41704 -2.17013 0
M  V30 2077 H 193.905 -6.66839 -1.95832 0
M  V30 2078 H 197.096 -4.40098 -1.59473 0
M  V30 2079 H 197.269 -6.1738 -1.9684 0
M  V30 2080 N 190.675 0.682077 -1.42076 0
M  V30 2081 C 191.924 1.43786 -1.41451 0
M  V30 2082 C 192.237 1.95574 -0.0317074 0
M  V30 2083 O 193.443 2.71326 0.0971462 0
M  V30 2084 C 191.899 2.60071 -2.48779 0
M  V30 2085 C 191.507 2.15013 -3.93031 0
M  V30 2086 C 193.251 3.37626 -2.57311 0
M  V30 2087 C 191.158 3.28336 -4.91883 0
M  V30 2088 H 190.088 0.540143 -0.526082 0
M  V30 2089 H 192.739 0.739157 -1.67955 0
M  V30 2090 H 191.121 3.32275 -2.15429 0
M  V30 2091 H 192.295 1.5001 -4.35699 0
M  V30 2092 H 190.61 1.50416 -3.88284 0
M  V30 2093 H 193.207 4.22012 -3.28345 0
M  V30 2094 H 193.55 3.83727 -1.61429 0
M  V30 2095 H 194.083 2.72488 -2.89819 0
M  V30 2096 H 190.822 2.87234 -5.89217 0
M  V30 2097 H 190.342 3.92145 -4.53853 0
M  V30 2098 H 192.021 3.93913 -5.13265 0
M  V30 2099 N 192.153 1.28127 0.917671 0
M  V30 2100 C 193.116 1.11744 2.00115 0
M  V30 2101 C 194.116 0.0583052 1.60694 0
M  V30 2102 O 195.306 0.303755 1.71531 0
M  V30 2103 C 192.438 0.704862 3.33533 0
M  V30 2104 H 193.631 2.07966 2.16079 0
M  V30 2105 H 191.184 1.11058 1.09981 0
M  V30 2106 H 191.919 -0.258299 3.2327 0
M  V30 2107 H 191.704 1.4699 3.63505 0
M  V30 2108 H 193.194 0.612768 4.1308 0
M  V30 2109 N 193.631 -1.12557 1.10312 0
M  V30 2110 C 194.594 -2.16434 0.75424 0
M  V30 2111 C 195.594 -1.59278 -0.220685 0
M  V30 2112 O 196.784 -1.742 0.00230591 0
M  V30 2113 C 193.916 -3.40699 0.116987 0
M  V30 2114 H 195.109 -2.48811 1.67431 0
M  V30 2115 H 192.662 -1.27542 0.903475 0
M  V30 2116 H 193.397 -3.13921 -0.813877 0
M  V30 2117 H 193.182 -3.83459 0.818613 0
M  V30 2118 H 194.672 -4.17451 -0.111387 0
M  V30 2119 N 195.109 -0.891671 -1.2995 0
M  V30 2120 C 196.039 -0.379797 -2.30391 0
M  V30 2121 C 197.02 0.540919 -1.6127 0
M  V30 2122 O 198.205 0.453352 -1.88834 0
M  V30 2123 C 195.335 0.400654 -3.44981 0
M  V30 2124 C 194.289 -0.428905 -4.25846 0
M  V30 2125 C 193.615 0.478557 -5.32554 0
M  V30 2126 C 194.915 -1.67458 -4.94727 0
M  V30 2127 H 196.609 -1.21914 -2.73454 0
M  V30 2128 H 194.155 -0.587675 -1.31462 0
M  V30 2129 H 196.108 0.769434 -4.14316 0
M  V30 2130 H 194.832 1.27371 -3.0074 0
M  V30 2131 H 193.491 -0.779911 -3.58208 0
M  V30 2132 H 193.139 1.34951 -4.84559 0
M  V30 2133 H 192.839 -0.0727433 -5.87555 0
M  V30 2134 H 194.363 0.843705 -6.04743 0
M  V30 2135 H 195.777 -1.376 -5.56542 0
M  V30 2136 H 194.174 -2.16659 -5.59624 0
M  V30 2137 H 195.244 -2.41518 -4.20473 0
M  V30 2138 N 196.587 1.43421 -0.653314 0
M  V30 2139 C 197.55 2.29182 0.0287951 0
M  V30 2140 C 198.55 1.42213 0.750465 0
M  V30 2141 O 199.74 1.63843 0.591701 0
M  V30 2142 C 196.872 3.24278 1.05151 0
M  V30 2143 H 198.065 2.90985 -0.725786 0
M  V30 2144 H 195.618 1.50702 -0.414545 0
M  V30 2145 H 196.353 2.6737 1.83532 0
M  V30 2146 H 196.138 3.88396 0.537687 0
M  V30 2147 H 197.628 3.88647 1.52786 0
M  V30 2148 N 198.065 0.39524 1.52563 0
M  V30 2149 C 198.975 -0.444232 2.30356 0
M  V30 2150 C 199.991 -1.06615 1.37511 0
M  V30 2151 O 201.167 -1.07067 1.70583 0
M  V30 2152 C 198.232 -1.55315 3.09964 0
M  V30 2153 C 197.293 -0.955734 4.18526 0
M  V30 2154 C 196.526 -2.01181 4.9433 0
M  V30 2155 O 196.749 -3.22781 4.70285 0
M  V30 2156 O 195.683 -1.62579 5.79527 0
M  V30 2157 H 199.509 0.189667 3.03107 0
M  V30 2158 H 197.094 0.1588 1.48554 0
M  V30 2159 H 198.976 -2.19724 3.59582 0
M  V30 2160 H 197.651 -2.17191 2.4002 0
M  V30 2161 H 196.558 -0.274743 3.7309 0
M  V30 2162 H 197.891 -0.381109 4.90722 0
M  V30 2163 N 199.544 -1.57102 0.125237 0
M  V30 2164 C 200.454 -2.19191 -0.8362 0
M  V30 2165 C 201.47 -1.16985 -1.28805 0
M  V30 2166 O 202.646 -1.49479 -1.34974 0
M  V30 2167 C 199.711 -2.78407 -2.06617 0
M  V30 2168 C 198.772 -3.9567 -1.66565 0
M  V30 2169 C 198.005 -4.52052 -2.83698 0
M  V30 2170 O 198.228 -4.07326 -3.99302 0
M  V30 2171 O 197.162 -5.42645 -2.60423 0
M  V30 2172 H 200.988 -3.01816 -0.337776 0
M  V30 2173 H 198.573 -1.4906 -0.100695 0
M  V30 2174 H 200.455 -3.16129 -2.7864 0
M  V30 2175 H 199.13 -1.9881 -2.55453 0
M  V30 2176 H 198.037 -3.62705 -0.916296 0
M  V30 2177 H 199.37 -4.76722 -1.22464 0
M  V30 2178 N 201.022 0.148545 -1.56898 0
M  V30 2179 C 201.952 1.18524 -2.01182 0
M  V30 2180 C 202.933 1.4489 -0.891123 0
M  V30 2181 O 204.118 1.55836 -1.15882 0
M  V30 2182 C 201.248 2.51879 -2.39112 0
M  V30 2183 C 200.202 2.40038 -3.54353 0
M  V30 2184 C 199.528 3.78089 -3.78091 0
M  V30 2185 C 200.828 1.88577 -4.87069 0
M  V30 2186 H 202.522 0.817029 -2.88036 0
M  V30 2187 H 200.068 0.391575 -1.38574 0
M  V30 2188 H 202.021 3.24627 -2.68692 0
M  V30 2189 H 200.745 2.90532 -1.49193 0
M  V30 2190 H 199.404 1.69742 -3.24936 0
M  V30 2191 H 199.052 4.14175 -2.85426 0
M  V30 2192 H 198.752 3.71028 -4.55645 0
M  V30 2193 H 200.276 4.52387 -4.10095 0
M  V30 2194 H 201.69 2.51117 -5.15377 0
M  V30 2195 H 200.087 1.9241 -5.68417 0
M  V30 2196 H 201.157 0.84136 -4.77545 0
M  V30 2197 N 202.5 1.5196 0.417844 0
M  V30 2198 C 203.748 1.65263 1.16329 0
M  V30 2199 C 204.069 0.380634 1.91249 0
M  V30 2200 O 203.339 -0.604214 1.86349 0
M  V30 2201 H 201.919 0.60912 0.432414 0
M  V30 2202 H 204.581 1.88969 0.477162 0
M  V30 2203 H 203.677 2.4896 1.88217 0
M  V30 2204 N 203.978 -0.674533 1.42435 0
M  V30 2205 C 204.911 -1.79924 1.40366 0
M  V30 2206 C 205.889 -1.60378 0.267899 0
M  V30 2207 O 207.073 -1.82847 0.458159 0
M  V30 2208 C 204.2 -3.16927 1.19478 0
M  V30 2209 C 203.246 -3.55221 2.36051 0
M  V30 2210 S 204.079 -3.5762 3.98583 0
M  V30 2211 C 205.235 -4.97315 3.80038 0
M  V30 2212 H 205.468 -1.81405 2.35541 0
M  V30 2213 H 203.001 -0.845221 1.29211 0
M  V30 2214 H 204.959 -3.96007 1.08114 0
M  V30 2215 H 203.62 -3.13031 0.258883 0
M  V30 2216 H 202.813 -4.54804 2.17185 0
M  V30 2217 H 202.415 -2.83502 2.43932 0
M  V30 2218 H 204.707 -5.85401 3.41045 0
M  V30 2219 H 205.65 -5.21228 4.79298 0
M  V30 2220 H 206.058 -4.69845 3.12899 0
M  V30 2221 N 205.456 -1.28612 -0.910864 0
M  V30 2222 C 206.684 -1.18792 -1.69399 0
M  V30 2223 C 207.099 0.253039 -1.87097 0
M  V30 2224 O 206.456 1.17071 -1.40003 0
M  V30 2225 C 206.507 -1.88511 -3.08457 0
M  V30 2226 O 206.228 -3.26979 -2.91576 0
M  V30 2227 C 207.729 -1.85029 -4.02839 0
M  V30 2228 H 204.949 -0.412233 -0.529438 0
M  V30 2229 H 207.493 -1.69788 -1.13984 0
M  V30 2230 H 205.648 -1.41379 -3.60681 0
M  V30 2231 H 206.062 -3.61936 -3.79608 0
M  V30 2232 H 207.536 -2.38395 -4.97867 0
M  V30 2233 H 208.013 -0.823303 -4.31414 0
M  V30 2234 H 208.619 -2.31853 -3.56545 0
M  V30 2235 N 206.934 1.1197 -1.10907 0
M  V30 2236 C 207.844 2.21433 -0.774896 0
M  V30 2237 C 208.86 1.72478 0.229657 0
M  V30 2238 O 210.036 2.01288 0.0672008 0
M  V30 2239 C 207.101 3.4602 -0.216986 0
M  V30 2240 C 206.162 4.09791 -1.27944 0
M  V30 2241 C 205.395 5.28431 -0.748055 0
M  V30 2242 O 205.618 5.68823 0.423833 0
M  V30 2243 O 204.552 5.82644 -1.51027 0
M  V30 2244 H 208.378 2.5242 -1.68873 0
M  V30 2245 H 205.963 1.20399 -0.884555 0
M  V30 2246 H 207.845 4.21304 0.090059 0
M  V30 2247 H 206.52 3.16698 0.669633 0
M  V30 2248 H 205.427 3.36265 -1.63941 0
M  V30 2249 H 206.76 4.4328 -2.13925 0
M  V30 2250 N 208.412 0.89855 1.29475 0
M  V30 2251 C 209.36 0.365253 2.29714 0
M  V30 2252 C 210.354 -0.534993 1.6073 0
M  V30 2253 O 211.56 -0.417921 1.75081 0
M  V30 2254 H 207.935 0.0994853 0.74539 0
M  V30 2255 H 209.906 1.22406 2.72138 0
M  V30 2256 C 208.655 -0.393159 3.4547 0
M  V30 2257 H 207.978 0.290332 3.98744 0
M  V30 2258 H 209.418 -0.731189 4.17648 0
M  V30 2259 C 207.877 -1.59539 2.9673 0
M  V30 2260 O 208.407 -2.69469 2.97908 0
M  V30 2261 N 206.613 -1.43716 2.52575 0
M  V30 2262 H 206.16 -0.542828 2.51816 0
M  V30 2263 H 206.118 -2.24288 2.20323 0
M  V30 2264 N 209.89 -1.43072 0.660911 0
M  V30 2265 C 211.167 -1.95307 0.107017 0
M  V30 2266 C 211.547 -1.60192 -1.37484 0
M  V30 2267 O 210.895 -0.890949 -2.10415 0
M  V30 2268 C 211.105 -3.47124 0.361402 0
M  V30 2269 C 212.453 -4.23738 0.270455 0
M  V30 2270 O 213.477 -3.54981 0.294382 0
M  V30 2271 O 212.336 -5.46131 0.200737 0
M  V30 2272 H 209.43 -0.826984 -0.00517729 0
M  V30 2273 H 211.976 -1.52972 0.734681 0
M  V30 2274 H 210.748 -3.65837 1.38848 0
M  V30 2275 H 210.371 -3.96475 -0.298953 0
M  V30 2276 N 211.368 -0.403325 -1.52352 0
M  V30 2277 C 212.298 0.416205 -2.29761 0
M  V30 2278 C 213.279 1.05123 -1.33728 0
M  V30 2279 O 214.464 1.06134 -1.62632 0
M  V30 2280 C 211.594 1.53624 -3.11475 0
M  V30 2281 C 210.548 1.02653 -4.15507 0
M  V30 2282 C 209.874 2.23971 -4.85532 0
M  V30 2283 C 211.174 0.08463 -5.22231 0
M  V30 2284 H 212.868 -0.229701 -2.98518 0
M  V30 2285 H 210.414 -0.111913 -1.43564 0
M  V30 2286 H 212.367 2.1165 -3.64393 0
M  V30 2287 H 211.091 2.20994 -2.40477 0
M  V30 2288 H 209.75 0.46871 -3.63591 0
M  V30 2289 H 209.398 2.89883 -4.11068 0
M  V30 2290 H 209.098 1.90521 -5.55856 0
M  V30 2291 H 210.622 2.82614 -5.41259 0
M  V30 2292 H 212.036 0.573509 -5.70424 0
M  V30 2293 H 210.433 -0.160783 -5.99885 0
M  V30 2294 H 211.503 -0.86237 -4.7717 0
M  V30 2295 N 212.846 1.57033 -0.133567 0
M  V30 2296 C 214.092 1.95976 0.521649 0
M  V30 2297 C 214.425 1.01779 1.65393 0
M  V30 2298 O 213.7 0.0576581 1.94415 0
M  V30 2299 C 213.983 3.44738 1.04057 0
M  V30 2300 C 213.836 4.49711 -0.0892897 0
M  V30 2301 C 215.155 3.95682 1.92675 0
M  V30 2302 H 212.274 0.712579 0.188149 0
M  V30 2303 H 214.916 1.88813 -0.212076 0
M  V30 2304 H 213.066 3.50973 1.66583 0
M  V30 2305 H 214.738 4.55565 -0.725152 0
M  V30 2306 H 212.981 4.27261 -0.750378 0
M  V30 2307 H 213.652 5.51099 0.315284 0
M  V30 2308 H 216.128 3.91841 1.39998 0
M  V30 2309 H 215.004 5.00262 2.25897 0
M  V30 2310 H 215.265 3.37239 2.85872 0
M  V30 2311 N 214.325 -0.140222 1.56975 0
M  V30 2312 C 215.272 -1.17292 1.98774 0
M  V30 2313 C 216.242 -1.4232 0.856408 0
M  V30 2314 O 217.427 -1.54541 1.119 0
M  V30 2315 C 214.567 -2.49973 2.37923 0
M  V30 2316 C 213.68 -2.32062 3.64378 0
M  V30 2317 C 212.815 -3.57825 3.926 0
M  V30 2318 C 211.854 -3.3498 5.12303 0
M  V30 2319 N 210.991 -4.52891 5.36502 0
M  V30 2320 H 215.831 -0.809472 2.86795 0
M  V30 2321 H 213.368 -0.388237 1.41884 0
M  V30 2322 H 215.326 -3.27346 2.58652 0
M  V30 2323 H 213.956 -2.84252 1.52972 0
M  V30 2324 H 213.008 -1.45711 3.51387 0
M  V30 2325 H 214.32 -2.11145 4.51906 0
M  V30 2326 H 213.474 -4.43624 4.13863 0
M  V30 2327 H 212.213 -3.81753 3.03506 0
M  V30 2328 H 211.218 -2.4757 4.90906 0
M  V30 2329 H 212.443 -3.12444 6.02956 0
M  V30 2330 H 210.389 -4.76979 4.50363 0
M  V30 2331 H 210.306 -4.35001 6.18312 0
M  V30 2332 H 211.574 -5.39884 5.62268 0
M  V30 2333 N 215.803 -1.52179 -0.40978 0
M  V30 2334 C 216.75 -1.75475 -1.49924 0
M  V30 2335 C 217.72 -0.597175 -1.54994 0
M  V30 2336 O 218.905 -0.834655 -1.71575 0
M  V30 2337 C 216.045 -1.9107 -2.87378 0
M  V30 2338 C 215.158 -3.18717 -2.91622 0
M  V30 2339 C 214.293 -3.24747 -4.20372 0
M  V30 2340 C 213.332 -4.46598 -4.18588 0
M  V30 2341 N 212.469 -4.50025 -5.38908 0
M  V30 2342 H 217.309 -2.68458 -1.29361 0
M  V30 2343 H 214.846 -1.33024 -0.627934 0
M  V30 2344 H 216.804 -1.98096 -3.6717 0
M  V30 2345 H 215.434 -1.01469 -3.06437 0
M  V30 2346 H 214.486 -3.20866 -2.04326 0
M  V30 2347 H 215.798 -4.08544 -2.86169 0
M  V30 2348 H 214.952 -3.30841 -5.08556 0
M  V30 2349 H 213.691 -2.32857 -4.28519 0
M  V30 2350 H 212.696 -4.40652 -3.28794 0
M  V30 2351 H 213.921 -5.39783 -4.12081 0
M  V30 2352 H 211.867 -3.61017 -5.47725 0
M  V30 2353 H 211.784 -5.33697 -5.35447 0
M  V30 2354 H 213.052 -4.60347 -6.29048 0
M  V30 2355 N 217.281 0.66697 -1.42791 0
M  V30 2356 C 218.53 1.42278 -1.42968 0
M  V30 2357 C 218.843 1.9553 -0.0524489 0
M  V30 2358 O 220.049 2.71414 0.068363 0
M  V30 2359 C 218.505 2.57418 -2.51524 0
M  V30 2360 C 218.113 2.10832 -3.9529 0
M  V30 2361 C 219.857 3.34878 -2.60877 0
M  V30 2362 C 217.764 3.23101 -4.95338 0
M  V30 2363 H 216.694 0.534533 -0.531781 0
M  V30 2364 H 219.345 0.721302 -1.68729 0
M  V30 2365 H 217.727 3.29971 -2.18941 0
M  V30 2366 H 218.901 1.4538 -4.37266 0
M  V30 2367 H 217.216 1.46289 -3.89857 0
M  V30 2368 H 219.813 4.18505 -3.32802 0
M  V30 2369 H 220.156 3.81993 -1.6549 0
M  V30 2370 H 220.689 2.69398 -2.92693 0
M  V30 2371 H 217.428 2.80969 -5.9223 0
M  V30 2372 H 216.948 3.87309 -4.57987 0
M  V30 2373 H 218.627 3.88447 -5.17415 0
M  V30 2374 N 218.759 1.29093 0.90403 0
M  V30 2375 C 219.669 1.15727 2.0407 0
M  V30 2376 C 220.685 0.0815308 1.73809 0
M  V30 2377 O 221.861 0.292749 1.99261 0
M  V30 2378 C 218.926 0.830424 3.36608 0
M  V30 2379 C 217.987 1.98955 3.80415 0
M  V30 2380 C 217.22 1.6782 5.06628 0
M  V30 2381 O 217.443 0.597105 5.67266 0
M  V30 2382 O 216.377 2.52486 5.46383 0
M  V30 2383 H 220.203 2.11171 2.18267 0
M  V30 2384 H 217.788 1.08504 1.027 0
M  V30 2385 H 219.67 0.662521 4.16159 0
M  V30 2386 H 218.345 -0.0942678 3.23563 0
M  V30 2387 H 217.252 2.21267 3.01648 0
M  V30 2388 H 218.585 2.89529 3.98037 0
M  V30 2389 N 220.237 -1.11381 1.11499 0
M  V30 2390 C 221.184 -2.17439 0.773887 0
M  V30 2391 C 222.154 -1.64132 -0.254899 0
M  V30 2392 O 223.339 -1.90345 -0.13168 0
M  V30 2393 C 220.479 -3.44373 0.223917 0
M  V30 2394 C 219.592 -4.1168 1.30934 0
M  V30 2395 C 218.727 -5.263 0.71984 0
M  V30 2396 C 217.766 -5.85493 1.78507 0
M  V30 2397 N 216.903 -6.91507 1.21502 0
M  V30 2398 H 221.743 -2.45962 1.68246 0
M  V30 2399 H 219.28 -1.20744 0.840191 0
M  V30 2400 H 221.238 -4.17047 -0.112921 0
M  V30 2401 H 219.868 -3.16232 -0.647851 0
M  V30 2402 H 218.92 -3.37073 1.76312 0
M  V30 2403 H 220.232 -4.51729 2.11524 0
M  V30 2404 H 219.386 -6.05785 0.333094 0
M  V30 2405 H 218.125 -4.87559 -0.117377 0
M  V30 2406 H 217.13 -5.04686 2.18111 0
M  V30 2407 H 218.355 -6.26301 2.62533 0
M  V30 2408 H 216.301 -6.54783 0.399455 0
M  V30 2409 H 216.218 -7.30214 1.95763 0
M  V30 2410 H 217.486 -7.74795 0.855181 0
M  V30 2411 N 221.715 -0.905404 -1.28997 0
M  V30 2412 C 222.663 -0.377431 -2.29517 0
M  V30 2413 C 223.657 0.526461 -1.61012 0
M  V30 2414 O 224.863 0.40863 -1.753 0
M  V30 2415 H 221.238 -0.103437 -0.744852 0
M  V30 2416 H 223.209 -1.23848 -2.71485 0
M  V30 2417 C 221.958 0.374833 -3.45674 0
M  V30 2418 H 221.281 -0.311474 -3.98585 0
M  V30 2419 H 222.721 0.70903 -4.1803 0
M  V30 2420 C 221.18 1.57963 -2.97572 0
M  V30 2421 O 221.71 2.67886 -2.99333 0
M  V30 2422 N 219.916 1.42375 -2.53333 0
M  V30 2423 H 219.463 0.529466 -2.521 0
M  V30 2424 H 219.421 2.23117 -2.21509 0
M  V30 2425 N 223.193 1.4272 -0.668489 0
M  V30 2426 C 224.418 2.06484 -0.194758 0
M  V30 2427 C 224.843 1.49862 1.13679 0
M  V30 2428 O 224.201 0.614582 1.70565 0
M  V30 2429 C 224.249 3.60353 -0.133546 0
M  V30 2430 O 223.353 4.02464 0.899806 0
M  V30 2431 H 222.694 0.656137 -0.10188 0
M  V30 2432 H 225.224 1.82964 -0.915722 0
M  V30 2433 H 225.234 4.07976 0.0447041 0
M  V30 2434 H 223.909 4.00938 -1.1055 0
M  V30 2435 H 222.486 3.66402 0.693109 0
M  V30 2436 N 224.671 0.411399 1.52136 0
M  V30 2437 C 225.618 -0.412975 2.27075 0
M  V30 2438 C 226.588 -1.03912 1.29582 0
M  V30 2439 O 227.773 -1.06296 1.58448 0
M  V30 2440 C 224.913 -1.52247 3.09701 0
M  V30 2441 C 224.026 -0.917021 4.22155 0
M  V30 2442 C 223.161 -1.9994 4.92135 0
M  V30 2443 C 222.2 -1.37101 5.96548 0
M  V30 2444 N 221.337 -2.39364 6.60038 0
M  V30 2445 H 226.177 0.232499 2.97092 0
M  V30 2446 H 223.714 0.126496 1.46555 0
M  V30 2447 H 225.672 -2.17674 3.55913 0
M  V30 2448 H 224.302 -2.13794 2.41851 0
M  V30 2449 H 223.354 -0.151742 3.80097 0
M  V30 2450 H 224.666 -0.418006 4.97045 0
M  V30 2451 H 223.82 -2.73088 5.41763 0
M  V30 2452 H 222.559 -2.53208 4.16818 0
M  V30 2453 H 221.564 -0.624873 5.46237 0
M  V30 2454 H 222.789 -0.845998 6.7381 0
M  V30 2455 H 220.735 -2.91759 5.87548 0
M  V30 2456 H 220.652 -1.9428 7.3061 0
M  V30 2457 H 221.92 -3.12074 7.14304 0
M  V30 2458 N 226.149 -1.5696 0.141893 0
M  V30 2459 C 227.374 -2.00754 -0.520838 0
M  V30 2460 C 227.799 -1.0213 -1.57959 0
M  V30 2461 O 227.157 0.00371324 -1.813 0
M  V30 2462 C 227.205 -3.43318 -1.10294 0
M  V30 2463 O 226.309 -3.47679 -2.21795 0
M  V30 2464 H 225.65 -0.651564 -0.127908 0
M  V30 2465 H 228.18 -2.03221 0.23712 0
M  V30 2466 H 228.19 -3.82012 -1.43287 0
M  V30 2467 H 226.865 -4.14608 -0.327574 0
M  V30 2468 H 225.442 -3.20824 -1.9007 0
M  V30 2469 N 227.627 0.131896 -1.57047 0
M  V30 2470 C 228.875 0.840269 -1.83804 0
M  V30 2471 C 229.196 1.81017 -0.72512 0
M  V30 2472 O 228.466 1.94272 0.251995 0
M  V30 2473 H 227.046 0.313294 -0.678127 0
M  V30 2474 H 229.708 0.122294 -1.94516 0
M  V30 2475 H 228.804 1.39335 -2.79271 0
M  V30 2476 N 229.106 1.52395 0.401703 0
M  V30 2477 C 230.336 1.70429 1.1678 0
M  V30 2478 C 230.744 0.416702 1.84554 0
M  V30 2479 O 230.087 -0.617697 1.73003 0
M  V30 2480 C 230.149 2.78919 2.26814 0
M  V30 2481 C 229.813 4.20437 1.79113 0
M  V30 2482 C 230.81 5.04028 1.27482 0
M  V30 2483 C 228.495 4.66704 1.85722 0
M  V30 2484 C 230.489 6.31961 0.830913 0
M  V30 2485 C 228.176 5.94625 1.40942 0
M  V30 2486 C 229.174 6.77082 0.897128 0
M  V30 2487 O 228.862 8.02607 0.455822 0
M  V30 2488 H 228.594 0.574272 0.356634 0
M  V30 2489 H 231.148 1.99767 0.477724 0
M  V30 2490 H 229.378 2.44973 2.99207 0
M  V30 2491 H 231.067 2.8548 2.88541 0
M  V30 2492 H 231.833 4.69471 1.21744 0
M  V30 2493 H 227.712 4.0262 2.24539 0
M  V30 2494 H 231.256 6.96271 0.430368 0
M  V30 2495 H 227.153 6.28688 1.46362 0
M  V30 2496 H 227.921 8.16453 0.578457 0
M  V30 2497 N 230.584 -0.659388 1.43143 0
M  V30 2498 C 231.514 -1.78422 1.50625 0
M  V30 2499 C 232.495 -1.66216 0.361443 0
M  V30 2500 O 233.68 -1.85404 0.577834 0
M  V30 2501 C 230.81 -3.16815 1.42287 0
M  V30 2502 C 229.764 -3.43777 2.54954 0
M  V30 2503 C 229.09 -4.81905 2.31671 0
M  V30 2504 C 230.39 -3.39134 3.97222 0
M  V30 2505 H 232.084 -1.72417 2.44771 0
M  V30 2506 H 229.63 -0.828084 1.17808 0
M  V30 2507 H 231.583 -3.95253 1.46127 0
M  V30 2508 H 230.307 -3.23534 0.446435 0
M  V30 2509 H 228.966 -2.67707 2.50457 0
M  V30 2510 H 228.614 -4.85294 1.32284 0
M  V30 2511 H 228.314 -5.00906 3.07192 0
M  V30 2512 H 229.838 -5.62609 2.37284 0
M  V30 2513 H 231.252 -4.07518 4.03239 0
M  V30 2514 H 229.649 -3.69671 4.72719 0
M  V30 2515 H 230.719 -2.37426 4.22797 0
M  V30 2516 N 232.062 -1.29571 -0.897171 0
M  V30 2517 C 233.292 -1.20408 -1.67886 0
M  V30 2518 C 233.7 0.237429 -1.87704 0
M  V30 2519 O 233.043 1.17048 -1.41582 0
M  V30 2520 C 233.105 -1.84887 -3.08314 0
M  V30 2521 C 232.769 -3.34189 -3.11716 0
M  V30 2522 C 233.766 -4.30374 -2.91675 0
M  V30 2523 C 231.451 -3.75431 -3.33701 0
M  V30 2524 C 233.445 -5.65776 -2.93557 0
M  V30 2525 C 231.132 -5.10955 -3.35214 0
M  V30 2526 C 232.13 -6.05938 -3.15164 0
M  V30 2527 O 231.818 -7.38987 -3.1647 0
M  V30 2528 H 231.55 -0.418289 -0.531046 0
M  V30 2529 H 234.104 -1.71514 -1.13014 0
M  V30 2530 H 232.334 -1.28295 -3.64798 0
M  V30 2531 H 234.023 -1.70011 -3.6858 0
M  V30 2532 H 234.789 -3.99844 -2.74499 0
M  V30 2533 H 230.668 -3.01953 -3.48347 0
M  V30 2534 H 234.212 -6.39889 -2.77826 0
M  V30 2535 H 230.109 -5.4113 -3.51922 0
M  V30 2536 H 230.877 -7.47823 -3.3272 0
M  V30 2537 N 233.54 1.10788 -1.12088 0
M  V30 2538 C 234.47 2.19083 -0.807755 0
M  V30 2539 C 235.451 1.6858 0.226859 0
M  V30 2540 O 236.636 1.93997 0.0888475 0
M  V30 2541 C 233.766 3.46344 -0.257576 0
M  V30 2542 C 232.72 4.101 -1.22483 0
M  V30 2543 C 232.046 5.32016 -0.535052 0
M  V30 2544 C 233.346 4.54236 -2.57811 0
M  V30 2545 H 235.04 2.45534 -1.71328 0
M  V30 2546 H 232.586 1.1801 -0.825205 0
M  V30 2547 H 234.539 4.21392 -0.0262679 0
M  V30 2548 H 233.263 3.19373 0.683278 0
M  V30 2549 H 231.922 3.37054 -1.44189 0
M  V30 2550 H 231.57 5.01319 0.410827 0
M  V30 2551 H 231.27 5.75625 -1.18024 0
M  V30 2552 H 232.794 6.09799 -0.312695 0
M  V30 2553 H 234.208 5.20575 -2.40155 0
M  V30 2554 H 232.605 5.08682 -3.18375 0
M  V30 2555 H 233.675 3.6734 -3.16528 0
M  V30 2556 N 235.018 0.912232 1.28515 0
M  V30 2557 C 235.981 0.404223 2.25607 0
M  V30 2558 C 236.981 -0.468602 1.53821 0
M  V30 2559 O 238.171 -0.271873 1.72065 0
M  V30 2560 C 235.303 -0.420653 3.38295 0
M  V30 2561 H 236.496 1.26188 2.7206 0
M  V30 2562 H 234.049 0.691495 1.40171 0
M  V30 2563 H 234.784 -1.29777 2.97201 0
M  V30 2564 H 234.569 0.204935 3.91564 0
M  V30 2565 H 236.059 -0.766971 4.10496 0
M  V30 2566 N 236.496 -1.42363 0.676048 0
M  V30 2567 C 237.912 -1.55811 0.345718 0
M  V30 2568 C 238.112 -1.65544 -1.14879 0
M  V30 2569 O 237.168 -1.62306 -1.93424 0
M  V30 2570 C 238.481 -2.80746 1.07713 0
M  V30 2571 C 240.029 -2.9452 1.05958 0
M  V30 2572 C 240.504 -4.22318 1.77233 0
M  V30 2573 N 241.995 -4.29233 1.74108 0
M  V30 2574 C 242.73 -5.26935 2.26113 0
M  V30 2575 N 242.226 -6.30783 2.86505 0
M  V30 2576 N 244.019 -5.18741 2.1648 0
M  V30 2577 H 236.17 -1.34289 1.6456 0
M  V30 2578 H 238.433 -0.646506 0.69335 0
M  V30 2579 H 238.139 -2.79696 2.13221 0
M  V30 2580 H 238.013 -3.71676 0.64316 0
M  V30 2581 H 240.4 -2.95097 0.0128255 0
M  V30 2582 H 240.481 -2.04817 1.53244 0
M  V30 2583 H 240.125 -4.22502 2.81877 0
M  V30 2584 H 240.055 -5.10958 1.27396 0
M  V30 2585 H 242.546 -3.54814 1.30059 0
M  V30 2586 H 242.859 -7.01691 3.23805 0
M  V30 2587 H 241.204 -6.31341 2.90575 0
M  V30 2588 H 244.395 -4.36533 1.68987 0
M  V30 2589 H 244.568 -5.94721 2.57316 0
M  V30 2590 N 237.974 -0.419461 -1.51915 0
M  V30 2591 C 238.906 0.43646 -2.25006 0
M  V30 2592 C 239.919 1.00149 -1.28351 0
M  V30 2593 O 241.108 0.898674 -1.54227 0
M  V30 2594 C 238.208 1.6206 -2.9764 0
M  V30 2595 C 237.381 1.17763 -4.21249 0
M  V30 2596 C 236.44 2.22985 -4.76617 0
M  V30 2597 O 235.466 1.83151 -5.38929 0
M  V30 2598 N 236.668 3.55271 -4.59089 0
M  V30 2599 H 239.433 -0.18989 -2.99098 0
M  V30 2600 H 236.994 -0.247386 -1.59999 0
M  V30 2601 H 238.986 2.32038 -3.31573 0
M  V30 2602 H 237.556 2.15266 -2.2667 0
M  V30 2603 H 236.776 0.305582 -3.93014 0
M  V30 2604 H 238.064 0.858781 -5.015 0
M  V30 2605 H 237.462 3.90377 -4.09417 0
M  V30 2606 H 236.019 4.21195 -4.97432 0
M  V30 2607 N 239.452 1.56882 -0.150215 0
M  V30 2608 C 240.698 1.96518 0.500834 0
M  V30 2609 C 241.031 1.03527 1.64304 0
M  V30 2610 O 240.306 0.0782751 1.94342 0
M  V30 2611 C 240.589 3.45822 1.00395 0
M  V30 2612 C 240.442 4.49591 -0.136983 0
M  V30 2613 C 241.761 3.97704 1.88467 0
M  V30 2614 H 238.88 0.714535 0.18058 0
M  V30 2615 H 241.522 1.88577 -0.232091 0
M  V30 2616 H 239.672 3.5272 1.62851 0
M  V30 2617 H 241.344 4.5477 -0.77343 0
M  V30 2618 H 239.587 4.26441 -0.795652 0
M  V30 2619 H 240.258 5.51402 0.256815 0
M  V30 2620 H 242.734 3.93304 1.35834 0
M  V30 2621 H 241.61 5.0263 2.20578 0
M  V30 2622 H 241.871 3.40252 2.82279 0
M  V30 2623 N 240.93 -0.123565 1.57115 0
M  V30 2624 C 241.84 -1.17074 2.033 0
M  V30 2625 C 242.856 -1.4561 0.952559 0
M  V30 2626 O 244.032 -1.56817 1.26374 0
M  V30 2627 C 241.097 -2.47857 2.42421 0
M  V30 2628 C 240.158 -2.26758 3.64526 0
M  V30 2629 C 239.391 -3.51305 4.01771 0
M  V30 2630 O 239.614 -4.5843 3.39409 0
M  V30 2631 O 238.548 -3.42578 4.94898 0
M  V30 2632 H 242.374 -0.808555 2.92739 0
M  V30 2633 H 239.959 -0.334027 1.45618 0
M  V30 2634 H 241.841 -3.2492 2.68338 0
M  V30 2635 H 240.516 -2.83558 1.5613 0
M  V30 2636 H 239.423 -1.47569 3.43765 0
M  V30 2637 H 240.756 -1.95963 4.51508 0
M  V30 2638 N 242.408 -1.52605 -0.393616 0
M  V30 2639 C 243.338 -1.80022 -1.48709 0
M  V30 2640 C 244.319 -0.651995 -1.57108 0
M  V30 2641 O 245.504 -0.89913 -1.72132 0
M  V30 2642 C 242.634 -1.96492 -2.86371 0
M  V30 2643 C 241.588 -3.12161 -2.92813 0
M  V30 2644 C 240.914 -3.13877 -4.3288 0
M  V30 2645 C 242.214 -4.51322 -2.6288 0
M  V30 2646 H 243.908 -2.71589 -1.26015 0
M  V30 2647 H 241.454 -1.30684 -0.604778 0
M  V30 2648 H 243.407 -2.14255 -3.62867 0
M  V30 2649 H 242.131 -1.01611 -3.10391 0
M  V30 2650 H 240.79 -2.94173 -2.18764 0
M  V30 2651 H 240.438 -2.16687 -4.53933 0
M  V30 2652 H 240.138 -3.91576 -4.38112 0
M  V30 2653 H 241.662 -3.33789 -5.1129 0
M  V30 2654 H 243.076 -4.69435 -3.29096 0
M  V30 2655 H 241.473 -5.31053 -2.79468 0
M  V30 2656 H 242.543 -4.58353 -1.58242 0
M  V30 2657 N 243.887 0.651787 -1.4349 0
M  V30 2658 C 245.112 1.44434 -1.48841 0
M  V30 2659 C 245.537 1.8779 -0.107955 0
M  V30 2660 O 244.895 1.57464 0.898602 0
M  V30 2661 C 244.943 2.65458 -2.44059 0
M  V30 2662 O 244.047 3.64566 -1.92784 0
M  V30 2663 H 243.388 0.433005 -0.503391 0
M  V30 2664 H 245.918 0.797451 -1.88419 0
M  V30 2665 H 245.928 3.13255 -2.6141 0
M  V30 2666 H 244.603 2.33244 -3.4434 0
M  V30 2667 H 243.18 3.23716 -1.851 0
M  V30 2668 N 245.365 1.30045 0.890287 0
M  V30 2669 C 246.312 1.15976 1.99545 0
M  V30 2670 C 247.282 0.0506202 1.66023 0
M  V30 2671 O 248.467 0.219847 1.89529 0
M  V30 2672 C 245.607 0.852054 3.34416 0
M  V30 2673 C 244.72 2.04255 3.80662 0
M  V30 2674 C 243.855 1.6734 5.04154 0
M  V30 2675 C 242.894 2.82916 5.42794 0
M  V30 2676 N 242.031 2.46333 6.57468 0
M  V30 2677 H 246.871 2.10524 2.10911 0
M  V30 2678 H 244.408 1.04749 1.03276 0
M  V30 2679 H 246.366 0.654296 4.12037 0
M  V30 2680 H 244.996 -0.0565502 3.2275 0
M  V30 2681 H 244.048 2.35172 2.98995 0
M  V30 2682 H 245.36 2.90826 4.05242 0
M  V30 2683 H 244.514 1.43908 5.89386 0
M  V30 2684 H 243.253 0.779308 4.81433 0
M  V30 2685 H 242.258 3.0702 4.56091 0
M  V30 2686 H 243.483 3.73004 5.6749 0
M  V30 2687 H 241.429 1.59423 6.36334 0
M  V30 2688 H 241.346 3.26436 6.81891 0
M  V30 2689 H 242.614 2.26244 7.45945 0
M  V30 2690 N 246.843 -1.10192 1.12674 0
M  V30 2691 C 247.806 -2.14786 0.799979 0
M  V30 2692 C 248.806 -1.59711 -0.18685 0
M  V30 2693 O 249.996 -1.74156 0.0392558 0
M  V30 2694 C 247.128 -3.40374 0.189228 0
M  V30 2695 H 248.321 -2.45203 1.72671 0
M  V30 2696 H 245.874 -1.25597 0.930326 0
M  V30 2697 H 246.609 -3.15577 -0.747107 0
M  V30 2698 H 246.394 -3.81637 0.899766 0
M  V30 2699 H 247.884 -4.17594 -0.0228143 0
M  V30 2700 N 248.321 -0.919034 -1.28029 0
M  V30 2701 C 249.269 -0.401753 -2.29104 0
M  V30 2702 C 250.263 0.509354 -1.61561 0
M  V30 2703 O 251.469 0.390014 -1.75724 0
M  V30 2704 H 247.844 -0.111331 -0.743713 0
M  V30 2705 H 249.815 -1.2672 -2.70156 0
M  V30 2706 C 248.564 0.338148 -3.46052 0
M  V30 2707 H 247.887 -0.353732 -3.98232 0
M  V30 2708 H 249.327 0.664653 -4.18758 0
M  V30 2709 C 247.786 1.54798 -2.99231 0
M  V30 2710 O 248.316 2.64696 -3.02157 0
M  V30 2711 N 246.522 1.3968 -2.54829 0
M  V30 2712 H 246.069 0.502698 -2.52647 0
M  V30 2713 H 246.027 2.20755 -2.23863 0
M  V30 2714 N 249.799 1.42003 -0.683588 0
M  V30 2715 C 251.029 2.05448 -0.217866 0
M  V30 2716 C 251.437 1.51491 1.13346 0
M  V30 2717 O 250.78 0.653048 1.717 0
M  V30 2718 C 250.842 3.59399 -0.0850118 0
M  V30 2719 C 250.506 4.36093 -1.36645 0
M  V30 2720 C 251.503 4.66169 -2.30179 0
M  V30 2721 C 249.188 4.75578 -1.61649 0
M  V30 2722 C 251.182 5.34676 -3.46988 0
M  V30 2723 C 248.869 5.43824 -2.78745 0
M  V30 2724 C 249.867 5.73299 -3.71238 0
M  V30 2725 O 249.555 6.40142 -4.86285 0
M  V30 2726 H 249.287 0.668344 -0.101454 0
M  V30 2727 H 251.841 1.82974 -0.933248 0
M  V30 2728 H 250.071 3.80566 0.686031 0
M  V30 2729 H 251.76 4.04457 0.341973 0
M  V30 2730 H 252.526 4.36156 -2.12115 0
M  V30 2731 H 248.405 4.52025 -0.905243 0
M  V30 2732 H 251.949 5.57599 -4.19201 0
M  V30 2733 H 247.846 5.73254 -2.96732 0
M  V30 2734 H 248.614 6.58636 -4.85944 0
M  V30 2735 N 251.277 0.427512 1.51691 0
M  V30 2736 C 252.526 -0.143679 2.01188 0
M  V30 2737 C 252.839 -1.44642 1.31674 0
M  V30 2738 O 254.045 -2.09997 1.72086 0
M  V30 2739 C 252.501 -0.306602 3.58592 0
M  V30 2740 C 252.109 0.985125 4.37035 0
M  V30 2741 C 253.853 -0.832091 4.16265 0
M  V30 2742 C 251.76 0.788382 5.86122 0
M  V30 2743 H 250.69 -0.0574701 0.751807 0
M  V30 2744 H 253.341 0.555772 1.74881 0
M  V30 2745 H 251.723 -1.06882 3.81303 0
M  V30 2746 H 252.897 1.75492 4.26074 0
M  V30 2747 H 251.212 1.4384 3.90767 0
M  V30 2748 H 253.809 -0.995617 5.25349 0
M  V30 2749 H 254.152 -1.81186 3.74803 0
M  V30 2750 H 254.685 -0.128444 3.97593 0
M  V30 2751 H 251.424 1.74025 6.31978 0
M  V30 2752 H 250.944 0.0582143 5.99772 0
M  V30 2753 H 252.623 0.437722 6.45518 0
M  V30 2754 N 252.755 -1.56801 0.158532 0
M  V30 2755 C 254.171 -1.5837 -0.197774 0
M  V30 2756 C 254.371 -1.17334 -1.63814 0
M  V30 2757 O 253.427 -0.878988 -2.36707 0
M  V30 2758 C 254.74 -3.00615 0.0714459 0
M  V30 2759 C 256.288 -3.12999 0.00864533 0
M  V30 2760 C 256.763 -4.57313 0.250685 0
M  V30 2761 N 258.254 -4.62777 0.198014 0
M  V30 2762 C 258.989 -5.72271 0.359642 0
M  V30 2763 N 258.485 -6.90371 0.579625 0
M  V30 2764 N 260.278 -5.61318 0.296438 0
M  V30 2765 H 252.429 -1.81765 1.09887 0
M  V30 2766 H 254.692 -0.841849 0.435884 0
M  V30 2767 H 254.398 -3.35068 1.06874 0
M  V30 2768 H 254.272 -3.71683 -0.642757 0
M  V30 2769 H 256.659 -2.7838 -0.979217 0
M  V30 2770 H 256.74 -2.44393 0.755359 0
M  V30 2771 H 256.384 -4.92639 1.2357 0
M  V30 2772 H 256.314 -5.24061 -0.516489 0
M  V30 2773 H 258.805 -3.77885 0.0331115 0
M  V30 2774 H 259.118 -7.69689 0.69275 0
M  V30 2775 H 257.463 -6.92264 0.616087 0
M  V30 2776 H 260.654 -4.67932 0.125258 0
M  V30 2777 H 260.827 -6.46599 0.425831 0
M  V30 2778 N 254.233 0.115231 -1.57178 0
M  V30 2779 C 255.649 0.468877 -1.52557 0
M  V30 2780 C 255.849 1.81649 -0.872125 0
M  V30 2781 O 254.905 2.48347 -0.45606 0
M  V30 2782 C 256.218 0.4499 -2.97315 0
M  V30 2783 C 257.766 0.533185 -3.08425 0
M  V30 2784 C 258.241 0.54456 -4.54751 0
M  V30 2785 N 259.732 0.605892 -4.5922 0
M  V30 2786 C 260.467 0.636203 -5.6986 0
M  V30 2787 N 259.963 0.623931 -6.89985 0
M  V30 2788 N 261.756 0.679496 -5.57978 0
M  V30 2789 H 253.907 -0.767712 -1.9804 0
M  V30 2790 H 256.17 -0.283609 -0.904583 0
M  V30 2791 H 255.876 -0.472721 -3.48509 0
M  V30 2792 H 255.75 1.27632 -3.5495 0
M  V30 2793 H 258.137 1.44623 -2.57232 0
M  V30 2794 H 258.218 -0.320995 -2.53778 0
M  V30 2795 H 257.862 -0.364452 -5.06591 0
M  V30 2796 H 257.792 1.41568 -5.07214 0
M  V30 2797 H 260.283 0.621386 -3.72756 0
M  V30 2798 H 260.596 0.649787 -7.70063 0
M  V30 2799 H 258.941 0.591296 -6.9248 0
M  V30 2800 H 262.132 0.686472 -4.63039 0
M  V30 2801 H 262.305 0.69965 -6.44212 0
M  V30 2802 N 255.711 1.52812 0.385517 0
M  V30 2803 C 256.641 1.80808 1.47752 0
M  V30 2804 C 257.622 0.660318 1.5676 0
M  V30 2805 O 258.807 0.908246 1.71652 0
M  V30 2806 C 255.937 1.98008 2.85324 0
M  V30 2807 C 254.891 3.13709 2.91154 0
M  V30 2808 C 254.217 3.16169 4.31209 0
M  V30 2809 C 255.517 4.52709 2.60483 0
M  V30 2810 H 257.211 2.72253 1.24573 0
M  V30 2811 H 254.757 1.31003 0.597839 0
M  V30 2812 H 256.71 2.16176 3.61726 0
M  V30 2813 H 255.434 1.03255 3.09848 0
M  V30 2814 H 254.093 2.95329 2.17201 0
M  V30 2815 H 253.741 2.19092 4.52778 0
M  V30 2816 H 253.441 3.93894 4.36029 0
M  V30 2817 H 254.965 3.36496 5.09512 0
M  V30 2818 H 256.379 4.71173 3.26602 0
M  V30 2819 H 254.776 5.32528 2.76648 0
M  V30 2820 H 255.846 4.59186 1.55809 0
M  V30 2821 N 257.189 -0.644168 1.43834 0
M  V30 2822 C 258.136 -1.75671 1.49694 0
M  V30 2823 C 259.106 -1.6246 0.345809 0
M  V30 2824 O 260.291 -1.82573 0.554234 0
M  V30 2825 C 257.431 -3.13867 1.43463 0
M  V30 2826 C 256.544 -3.38147 2.6885 0
M  V30 2827 C 255.679 -4.66241 2.54544 0
M  V30 2828 C 254.718 -4.83657 3.75157 0
M  V30 2829 N 253.855 -6.03016 3.59605 0
M  V30 2830 H 258.695 -1.69998 2.44754 0
M  V30 2831 H 256.232 -0.829458 1.21484 0
M  V30 2832 H 258.19 -3.9377 1.37843 0
M  V30 2833 H 256.82 -3.18588 0.519783 0
M  V30 2834 H 255.872 -2.52276 2.84712 0
M  V30 2835 H 257.184 -3.46899 3.58417 0
M  V30 2836 H 256.338 -5.54285 2.46683 0
M  V30 2837 H 255.077 -4.59826 1.62516 0
M  V30 2838 H 254.082 -3.94046 3.83416 0
M  V30 2839 H 255.307 -4.91896 4.68204 0
M  V30 2840 H 253.253 -5.97715 2.7032 0
M  V30 2841 H 253.17 -6.12766 4.42779 0
M  V30 2842 H 254.438 -6.93657 3.55613 0
M  V30 2843 N 258.668 -1.30515 -0.883378 0
M  V30 2844 C 259.917 -1.18795 -1.63005 0
M  V30 2845 C 260.23 0.255923 -1.93919 0
M  V30 2846 O 261.436 0.494654 -2.66956 0
M  V30 2847 C 259.892 -2.07878 -2.93794 0
M  V30 2848 C 259.5 -3.57184 -2.70414 0
M  V30 2849 C 261.244 -2.04924 -3.71761 0
M  V30 2850 C 259.151 -4.38317 -3.97029 0
M  V30 2851 H 258.081 -0.441031 -0.611562 0
M  V30 2852 H 260.732 -1.55275 -0.977854 0
M  V30 2853 H 259.114 -1.64283 -3.60315 0
M  V30 2854 H 260.288 -4.08937 -2.12384 0
M  V30 2855 H 258.603 -3.61976 -2.0582 0
M  V30 2856 H 261.2 -2.62792 -4.65665 0
M  V30 2857 H 261.543 -1.0331 -4.03277 0
M  V30 2858 H 262.076 -2.46649 -3.12104 0
M  V30 2859 H 258.815 -5.40632 -3.70671 0
M  V30 2860 H 258.335 -3.91326 -4.54559 0
M  V30 2861 H 260.014 -4.49834 -4.65036 0
M  V30 2862 N 260.146 1.09593 -1.13257 0
M  V30 2863 C 261.093 2.1618 -0.808381 0
M  V30 2864 C 262.063 1.64517 0.228754 0
M  V30 2865 O 263.248 1.9053 0.101381 0
M  V30 2866 C 260.388 3.43973 -0.278675 0
M  V30 2867 C 259.501 4.09545 -1.37466 0
M  V30 2868 C 258.636 5.25088 -0.803479 0
M  V30 2869 C 257.675 5.82579 -1.87799 0
M  V30 2870 N 256.812 6.89486 -1.32488 0
M  V30 2871 H 261.652 2.43254 -1.72138 0
M  V30 2872 H 259.189 1.19392 -0.859294 0
M  V30 2873 H 261.147 4.17174 0.0465583 0
M  V30 2874 H 259.777 3.17223 0.597459 0
M  V30 2875 H 258.829 3.34226 -1.81652 0
M  V30 2876 H 260.141 4.48307 -2.18684 0
M  V30 2877 H 259.295 6.05178 -0.429427 0
M  V30 2878 H 258.034 4.87684 0.0397956 0
M  V30 2879 H 257.039 5.01152 -2.26113 0
M  V30 2880 H 258.264 6.22045 -2.72463 0
M  V30 2881 H 256.21 6.54064 -0.503575 0
M  V30 2882 H 256.127 7.27007 -2.07355 0
M  V30 2883 H 257.395 7.73336 -0.978336 0
M  V30 2884 N 261.624 0.925811 1.2754 0
M  V30 2885 C 262.872 0.564138 1.94067 0
M  V30 2886 C 263.193 -0.897188 1.73134 0
M  V30 2887 O 262.463 -1.63573 1.07799 0
M  V30 2888 H 261.043 0.205645 0.718136 0
M  V30 2889 H 263.705 1.1778 1.55287 0
M  V30 2890 H 262.801 0.76881 3.02483 0
M  V30 2891 N 263.102 -1.41638 0.69111 0
M  V30 2892 C 264.351 -2.00526 0.217318 0
M  V30 2893 C 264.664 -1.55353 -1.18848 0
M  V30 2894 O 265.87 -2.06769 -1.75951 0
M  V30 2895 C 264.326 -3.58313 0.337639 0
M  V30 2896 C 263.934 -4.12469 1.74852 0
M  V30 2897 C 265.678 -4.24431 -0.0766066 0
M  V30 2898 C 263.585 -5.62675 1.82074 0
M  V30 2899 H 262.515 -0.750008 0.0774893 0
M  V30 2900 H 265.166 -1.6217 0.858661 0
M  V30 2901 H 263.548 -3.9425 -0.371879 0
M  V30 2902 H 264.722 -3.8796 2.48644 0
M  V30 2903 H 263.037 -3.58861 2.11205 0
M  V30 2904 H 265.634 -5.34683 -0.0430284 0
M  V30 2905 H 265.977 -4.01101 -1.1146 0
M  V30 2906 H 266.51 -3.93512 0.582476 0
M  V30 2907 H 263.249 -5.90826 2.83911 0
M  V30 2908 H 262.769 -5.89124 1.12661 0
M  V30 2909 H 264.448 -6.27371 1.58159 0
M  V30 2910 N 264.58 -0.43555 -1.51462 0
M  V30 2911 C 265.829 0.133007 -2.01261 0
M  V30 2912 C 266.142 1.43942 -1.32439 0
M  V30 2913 O 267.348 2.09081 -1.73198 0
M  V30 2914 C 265.804 0.287581 -3.58749 0
M  V30 2915 C 265.412 -1.00829 -4.36506 0
M  V30 2916 C 267.156 0.810004 -4.167 0
M  V30 2917 C 265.063 -0.819454 -5.85695 0
M  V30 2918 H 263.993 0.0534822 -0.752101 0
M  V30 2919 H 266.644 -0.565038 -1.74584 0
M  V30 2920 H 265.026 1.04859 -3.81865 0
M  V30 2921 H 266.2 -1.77749 -4.25138 0
M  V30 2922 H 264.515 -1.45911 -3.89999 0
M  V30 2923 H 267.112 0.967743 -5.2587 0
M  V30 2924 H 267.455 1.79196 -3.75758 0
M  V30 2925 H 267.988 0.107357 -3.97655 0
M  V30 2926 H 264.727 -1.77374 -6.31046 0
M  V30 2927 H 264.247 -0.0900208 -5.99732 0
M  V30 2928 H 265.926 -0.471949 -6.45276 0
M  V30 2929 N 266.058 1.56714 -0.166846 0
M  V30 2930 C 266.988 2.20754 0.760913 0
M  V30 2931 C 267.969 1.16178 1.24244 0
M  V30 2932 O 269.154 1.44592 1.29641 0
M  V30 2933 C 266.284 2.84478 1.99223 0
M  V30 2934 C 265.238 3.95053 1.64672 0
M  V30 2935 C 264.564 4.45805 2.95232 0
M  V30 2936 C 265.864 5.14865 0.878155 0
M  V30 2937 H 267.558 2.98537 0.22713 0
M  V30 2938 H 265.104 1.43596 0.107805 0
M  V30 2939 H 267.057 3.27951 2.64624 0
M  V30 2940 H 265.781 2.04056 2.55007 0
M  V30 2941 H 264.44 3.52228 1.01641 0
M  V30 2942 H 264.088 3.62181 3.49047 0
M  V30 2943 H 263.788 5.204 2.7287 0
M  V30 2944 H 265.312 4.91962 3.6167 0
M  V30 2945 H 266.726 5.55059 1.43466 0
M  V30 2946 H 265.123 5.95348 0.753738 0
M  V30 2947 H 266.193 4.84735 -0.126377 0
M  V30 2948 N 267.536 -0.106894 1.57237 0
M  V30 2949 C 268.446 -1.14911 2.0453 0
M  V30 2950 C 269.462 -1.44592 0.96795 0
M  V30 2951 O 270.638 -1.55468 1.2803 0
M  V30 2952 C 267.703 -2.45272 2.45036 0
M  V30 2953 C 266.764 -2.22879 3.66911 0
M  V30 2954 C 265.997 -3.47024 4.05475 0
M  V30 2955 O 266.22 -4.54804 3.44252 0
M  V30 2956 O 265.154 -3.3731 4.98504 0
M  V30 2957 H 268.98 -0.777461 2.9358 0
M  V30 2958 H 266.565 -0.318563 1.45964 0
M  V30 2959 H 268.447 -3.22055 2.71769 0
M  V30 2960 H 267.122 -2.81886 1.59129 0
M  V30 2961 H 266.029 -1.43915 3.45311 0
M  V30 2962 H 267.362 -1.91163 4.53561 0
M  V30 2963 N 269.014 -1.53014 -0.377408 0
M  V30 2964 C 270.242 -1.72515 -1.14219 0
M  V30 2965 C 270.657 -0.448735 -1.8339 0
M  V30 2966 O 270.014 0.577592 -1.73119 0
M  V30 2967 C 270.065 -2.8826 -2.18148 0
M  V30 2968 O 269.786 -4.10962 -1.51795 0
M  V30 2969 C 271.287 -3.19536 -3.07264 0
M  V30 2970 H 268.507 -0.577301 -0.342001 0
M  V30 2971 H 271.051 -1.99712 -0.439935 0
M  V30 2972 H 269.206 -2.63492 -2.83991 0
M  V30 2973 H 269.62 -4.75693 -2.20945 0
M  V30 2974 H 271.094 -4.03959 -3.76193 0
M  V30 2975 H 271.571 -2.34403 -3.71419 0
M  V30 2976 H 272.177 -3.46186 -2.47053 0
M  V30 2977 N 270.492 0.636531 -1.44174 0
M  V30 2978 C 271.402 1.77754 -1.53103 0
M  V30 2979 C 272.418 1.68928 -0.417034 0
M  V30 2980 O 273.594 1.89801 -0.6736 0
M  V30 2981 C 270.659 3.14115 -1.46741 0
M  V30 2982 C 269.72 3.34612 -2.68948 0
M  V30 2983 C 268.953 4.64467 -2.6288 0
M  V30 2984 O 269.176 5.44919 -1.68581 0
M  V30 2985 O 268.11 4.87049 -3.53648 0
M  V30 2986 H 271.936 1.73174 -2.49489 0
M  V30 2987 H 269.521 0.79709 -1.2636 0
M  V30 2988 H 271.403 3.95412 -1.45696 0
M  V30 2989 H 270.078 3.19249 -0.534975 0
M  V30 2990 H 268.985 2.53014 -2.75562 0
M  V30 2991 H 270.318 3.34336 -3.61221 0
M  V30 2992 N 271.97 1.30982 0.876444 0
M  V30 2993 C 272.92 1.14688 1.97055 0
M  V30 2994 C 273.904 0.0596593 1.60789 0
M  V30 2995 O 275.096 0.283892 1.74708 0
M  V30 2996 C 272.225 0.849627 3.3262 0
M  V30 2997 C 271.311 1.97752 3.75173 0
M  V30 2998 N 271.702 3.22384 3.89746 0
M  V30 2999 C 270 1.8758 4.04635 0
M  V30 3000 C 270.701 3.96121 4.25985 0
M  V30 3001 N 269.677 3.24237 4.36315 0
M  V30 3002 H 273.479 2.09204 2.06424 0
M  V30 3003 H 270.993 1.22445 1.06682 0
M  V30 3004 H 272.99 0.713895 4.10742 0
M  V30 3005 H 271.65 -0.087376 3.24582 0
M  V30 3006 H 272.661 3.57575 3.74647 0
M  V30 3007 H 269.338 1.01303 4.05024 0
M  V30 3008 H 270.728 5.03491 4.44911 0
M  V30 3009 N 273.449 -1.08991 1.13837 0
M  V30 3010 C 274.865 -1.33312 0.877506 0
M  V30 3011 C 275.065 -1.95587 -0.48456 0
M  V30 3012 O 274.121 -2.20509 -1.23013 0
M  V30 3013 C 275.434 -2.24045 2.0056 0
M  V30 3014 C 276.982 -2.37542 2.03821 0
M  V30 3015 C 277.457 -3.31614 3.15905 0
M  V30 3016 N 278.948 -3.39189 3.15445 0
M  V30 3017 C 279.683 -4.11992 3.98811 0
M  V30 3018 N 279.179 -4.87553 4.92203 0
M  V30 3019 N 280.972 -4.07762 3.86894 0
M  V30 3020 H 273.123 -0.669456 2.01574 0
M  V30 3021 H 275.386 -0.357482 0.878015 0
M  V30 3022 H 275.092 -1.85521 2.98789 0
M  V30 3023 H 274.966 -3.24466 1.92359 0
M  V30 3024 H 277.353 -2.75327 1.06202 0
M  V30 3025 H 277.434 -1.36884 2.16093 0
M  V30 3026 H 277.078 -2.94551 4.13766 0
M  V30 3027 H 277.008 -4.32186 3.0087 0
M  V30 3028 H 279.499 -2.85314 2.47799 0
M  V30 3029 H 279.812 -5.40549 5.52292 0
M  V30 3030 H 278.157 -4.86627 4.96205 0
M  V30 3031 H 281.348 -3.47833 3.13257 0
M  V30 3032 H 281.521 -4.64238 4.52092 0
M  V30 3033 N 274.927 -0.932562 -1.27047 0
M  V30 3034 C 276.343 -0.633544 -1.46487 0
M  V30 3035 C 276.543 0.815746 -1.84249 0
M  V30 3036 O 275.599 1.59319 -1.95892 0
M  V30 3037 C 276.912 -1.58758 -2.55375 0
M  V30 3038 C 278.46 -1.59634 -2.69232 0
M  V30 3039 C 278.935 -2.53747 -3.81283 0
M  V30 3040 N 280.426 -2.51982 -3.88664 0
M  V30 3041 C 281.161 -3.21491 -4.74796 0
M  V30 3042 N 280.657 -4.00395 -5.65381 0
M  V30 3043 N 282.45 -3.10485 -4.68568 0
M  V30 3044 H 274.601 -1.86946 -1.00821 0
M  V30 3045 H 276.864 -0.802897 -0.504044 0
M  V30 3046 H 276.57 -2.62172 -2.34432 0
M  V30 3047 H 276.444 -1.33301 -3.52861 0
M  V30 3048 H 278.831 -0.569488 -2.89553 0
M  V30 3049 H 278.912 -1.89142 -1.72218 0
M  V30 3050 H 278.556 -3.56545 -3.61715 0
M  V30 3051 H 278.486 -2.21532 -4.77735 0
M  V30 3052 H 280.977 -1.94681 -3.23895 0
M  V30 3053 H 281.29 -4.50406 -6.27976 0
M  V30 3054 H 279.635 -4.04498 -5.65161 0
M  V30 3055 H 282.826 -2.48331 -3.96799 0
M  V30 3056 H 282.999 -3.64925 -5.35475 0
M  V30 3057 N 276.405 1.4127 -0.698611 0
M  V30 3058 C 277.652 2.0118 -0.230865 0
M  V30 3059 C 277.98 1.55338 1.17049 0
M  V30 3060 O 277.235 0.756775 1.80475 0
M  V30 3061 C 277.534 3.56592 -0.240192 0
M  V30 3062 C 277.2 4.21955 -1.58948 0
M  V30 3063 C 275.862 4.39524 -1.95887 0
M  V30 3064 C 278.214 4.58576 -2.47704 0
M  V30 3065 C 275.542 4.90992 -3.2116 0
M  V30 3066 C 277.894 5.11435 -3.72313 0
M  V30 3067 C 276.558 5.27215 -4.0939 0
M  V30 3068 H 275.828 0.736169 -0.0844796 0
M  V30 3069 H 278.475 1.69124 -0.8983 0
M  V30 3070 H 276.78 3.88456 0.510797 0
M  V30 3071 H 278.477 4.00758 0.139296 0
M  V30 3072 H 275.067 4.08657 -1.29219 0
M  V30 3073 H 279.251 4.44654 -2.20445 0
M  V30 3074 H 274.507 5.01393 -3.49878 0
M  V30 3075 H 278.681 5.38752 -4.4127 0
M  V30 3076 H 276.308 5.66859 -5.06533 0
M  V30 3077 N 277.883 0.443576 1.51229 0
M  V30 3078 C 279.113 -0.119117 2.06256 0
M  V30 3079 C 279.521 -1.36471 1.31043 0
M  V30 3080 O 278.864 -1.80034 0.365151 0
M  V30 3081 C 278.926 -0.500546 3.55998 0
M  V30 3082 C 278.59 0.639125 4.52509 0
M  V30 3083 C 279.587 1.51311 4.97394 0
M  V30 3084 C 277.272 0.821632 4.95535 0
M  V30 3085 C 279.266 2.55425 5.83984 0
M  V30 3086 C 276.953 1.86603 5.81913 0
M  V30 3087 C 277.951 2.73072 6.26036 0
M  V30 3088 O 277.639 3.75718 7.10698 0
M  V30 3089 H 277.371 -0.00857665 0.675946 0
M  V30 3090 H 279.925 0.623288 1.95715 0
M  V30 3091 H 278.155 -1.29575 3.64345 0
M  V30 3092 H 279.844 -0.995116 3.93513 0
M  V30 3093 H 280.61 1.38367 4.64844 0
M  V30 3094 H 276.489 0.158149 4.60729 0
M  V30 3095 H 280.033 3.22949 6.18344 0
M  V30 3096 H 275.93 1.99564 6.13876 0
M  V30 3097 H 276.698 3.72374 7.2889 0
M  V30 3098 N 279.361 -1.56624 0.175154 0
M  V30 3099 C 280.772 -1.83561 -0.340916 0
M  V30 3100 C 281.123 -1.09511 -1.62794 0
M  V30 3101 O 280.248 -0.349389 -2.13561 0
M  V30 3102 C 280.843 -3.32979 -0.625313 0
M  V30 3103 C 279.402 -3.60399 -1.08581 0
M  V30 3104 C 278.549 -2.77024 -0.123722 0
M  V30 3105 H 281.5 -1.53593 0.399344 0
M  V30 3106 H 281.521 -3.50666 -1.47694 0
M  V30 3107 H 281.033 -3.86847 0.311575 0
M  V30 3108 H 279.134 -3.11945 -2.03767 0
M  V30 3109 H 279.247 -4.68711 -0.992317 0
M  V30 3110 H 277.611 -2.46993 -0.621821 0
M  V30 3111 H 278.394 -3.33674 0.807256 0
M  V30 3112 N 280.839 0.0985539 -1.57292 0
M  V30 3113 C 282.255 0.45267 -1.53046 0
M  V30 3114 C 282.455 1.80713 -0.891342 0
M  V30 3115 O 281.511 2.4785 -0.482375 0
M  V30 3116 C 282.824 0.418341 -2.97776 0
M  V30 3117 C 284.372 0.500443 -3.08973 0
M  V30 3118 C 284.847 0.496297 -4.55303 0
M  V30 3119 N 286.338 0.557151 -4.59837 0
M  V30 3120 C 287.073 0.575726 -5.70502 0
M  V30 3121 N 286.569 0.550714 -6.90608 0
M  V30 3122 N 288.362 0.620277 -5.58667 0
M  V30 3123 H 280.513 -0.788673 -1.97215 0
M  V30 3124 H 282.776 -0.293188 -0.901524 0
M  V30 3125 H 282.482 -0.509659 -3.47988 0
M  V30 3126 H 282.356 1.2386 -3.56284 0
M  V30 3127 H 284.743 1.41886 -2.58751 0
M  V30 3128 H 284.824 -0.347894 -2.53423 0
M  V30 3129 H 284.468 -0.418162 -5.06176 0
M  V30 3130 H 284.398 1.3618 -5.08687 0
M  V30 3131 H 286.889 0.581816 -3.73394 0
M  V30 3132 H 287.202 0.568075 -7.70709 0
M  V30 3133 H 285.547 0.517816 -6.93068 0
M  V30 3134 H 288.738 0.637322 -4.63741 0
M  V30 3135 H 288.911 0.631283 -6.44918 0
M  V30 3136 N 282.317 1.53212 0.369288 0
M  V30 3137 C 283.563 1.69466 1.11397 0
M  V30 3138 C 283.896 0.443257 1.89074 0
M  V30 3139 O 283.171 -0.559386 1.86282 0
M  V30 3140 C 283.454 2.9422 2.07621 0
M  V30 3141 C 283.307 4.29508 1.33577 0
M  V30 3142 C 284.626 3.14565 3.07794 0
M  V30 3143 H 281.745 0.616667 0.403597 0
M  V30 3144 H 284.387 1.85845 0.395179 0
M  V30 3145 H 282.537 2.80387 2.68916 0
M  V30 3146 H 284.209 4.55147 0.750955 0
M  V30 3147 H 282.452 4.29088 0.637618 0
M  V30 3148 H 283.123 5.12926 2.03989 0
M  V30 3149 H 285.599 3.2756 2.56601 0
M  V30 3150 H 284.475 4.03297 3.72348 0
M  V30 3151 H 284.736 2.29675 3.77759 0
M  V30 3152 N 283.795 -0.628877 1.44509 0
M  V30 3153 C 284.705 -1.7694 1.54044 0
M  V30 3154 C 285.721 -1.68705 0.425987 0
M  V30 3155 O 286.897 -1.89442 0.683656 0
M  V30 3156 C 283.962 -3.13332 1.48405 0
M  V30 3157 C 283.023 -3.33181 2.70719 0
M  V30 3158 C 282.256 -4.63067 2.6534 0
M  V30 3159 O 282.479 -5.44017 1.71469 0
M  V30 3160 O 281.413 -4.85167 3.56226 0
M  V30 3161 H 285.239 -1.71848 2.50403 0
M  V30 3162 H 282.824 -0.790378 1.26781 0
M  V30 3163 H 284.706 -3.94634 1.47791 0
M  V30 3164 H 283.381 -3.1896 0.551898 0
M  V30 3165 H 282.288 -2.51549 2.769 0
M  V30 3166 H 283.621 -3.32416 3.62988 0
M  V30 3167 N 285.273 -1.31445 -0.869486 0
M  V30 3168 C 286.183 -1.21097 -2.0093 0
M  V30 3169 C 287.199 -0.127584 -1.73532 0
M  V30 3170 O 288.375 -0.345477 -1.98415 0
M  V30 3171 C 285.44 -0.919378 -3.34288 0
M  V30 3172 C 284.501 -2.08971 -3.75006 0
M  V30 3173 C 283.734 -1.81194 -5.02001 0
M  V30 3174 O 283.957 -0.747296 -5.65484 0
M  V30 3175 O 282.891 -2.66883 -5.39497 0
M  V30 3176 H 286.717 -2.16883 -2.12592 0
M  V30 3177 H 284.302 -1.11189 -0.997868 0
M  V30 3178 H 286.184 -0.772625 -4.14257 0
M  V30 3179 H 284.859 0.00844772 -3.23699 0
M  V30 3180 H 283.766 -2.29187 -2.95676 0
M  V30 3181 H 285.099 -2.9998 -3.90221 0
M  V30 3182 N 286.751 1.08385 -1.14413 0
M  V30 3183 C 287.714 2.13486 -0.834048 0
M  V30 3184 C 288.714 1.59988 0.161418 0
M  V30 3185 O 289.904 1.74071 -0.0669575 0
M  V30 3186 C 287.036 3.4003 -0.243354 0
M  V30 3187 H 288.229 2.42425 -1.7655 0
M  V30 3188 H 285.782 1.24101 -0.950189 0
M  V30 3189 H 286.517 3.16726 0.696807 0
M  V30 3190 H 286.302 3.80157 -0.960367 0
M  V30 3191 H 287.792 4.17577 -0.0436242 0
M  V30 3192 N 288.23 0.939286 1.26551 0
M  V30 3193 C 289.193 0.451987 2.24699 0
M  V30 3194 C 290.193 -0.435869 1.5478 0
M  V30 3195 O 291.383 -0.235314 1.72603 0
M  V30 3196 C 288.515 -0.348801 3.39111 0
M  V30 3197 H 289.708 1.3193 2.69322 0
M  V30 3198 H 287.261 0.721072 1.38673 0
M  V30 3199 H 287.996 -1.23444 2.99887 0
M  V30 3200 H 287.781 0.287945 3.91041 0
M  V30 3201 H 289.271 -0.679726 4.12031 0
M  V30 3202 N 289.708 -1.40897 0.706093 0
M  V30 3203 C 290.658 -2.27987 0.0240746 0
M  V30 3204 C 291.642 -1.42759 -0.742204 0
M  V30 3205 O 292.834 -1.65936 -0.615966 0
M  V30 3206 C 289.963 -3.31186 -0.903907 0
M  V30 3207 C 289.049 -4.2389 -0.133318 0
M  V30 3208 N 289.44 -4.98113 0.878444 0
M  V30 3209 C 287.738 -4.44485 -0.367269 0
M  V30 3210 C 288.439 -5.6604 1.34064 0
M  V30 3211 N 287.415 -5.39522 0.664565 0
M  V30 3212 H 291.217 -2.82812 0.799658 0
M  V30 3213 H 288.731 -1.53235 0.537845 0
M  V30 3214 H 290.728 -3.92413 -1.40775 0
M  V30 3215 H 289.388 -2.77922 -1.67897 0
M  V30 3216 H 290.399 -5.02364 1.25901 0
M  V30 3217 H 287.076 -4.02213 -1.1194 0
M  V30 3218 H 288.466 -6.35524 2.1808 0
M  V30 3219 N 291.186 -0.45159 -1.50991 0
M  V30 3220 C 292.432 0.110237 -2.025 0
M  V30 3221 C 292.765 1.41109 -1.33424 0
M  V30 3222 O 292.04 1.89135 -0.453659 0
M  V30 3223 C 292.323 0.314271 -3.58726 0
M  V30 3224 C 292.176 -1.00623 -4.38401 0
M  V30 3225 C 293.495 1.07767 -4.26702 0
M  V30 3226 H 290.614 0.0385897 -0.735989 0
M  V30 3227 H 293.256 -0.593374 -1.80497 0
M  V30 3228 H 291.406 0.913601 -3.77605 0
M  V30 3229 H 293.078 -1.64064 -4.31139 0
M  V30 3230 H 291.321 -1.6075 -4.02917 0
M  V30 3231 H 291.992 -0.817341 -5.45915 0
M  V30 3232 H 294.468 0.56986 -4.12179 0
M  V30 3233 H 293.344 1.18921 -5.35863 0
M  V30 3234 H 293.605 2.10939 -3.88532 0
M  V30 3235 N 292.664 1.56529 -0.183458 0
M  V30 3236 C 293.91 1.97537 0.459036 0
M  V30 3237 C 294.243 1.06989 1.62071 0
M  V30 3238 O 293.518 0.11948 1.94133 0
M  V30 3239 C 293.801 3.47874 0.930368 0
M  V30 3240 C 293.654 4.492 -0.232317 0
M  V30 3241 C 294.973 4.01612 1.79989 0
M  V30 3242 H 292.092 0.718204 0.165383 0
M  V30 3243 H 294.734 1.88042 -0.272038 0
M  V30 3244 H 292.884 3.56095 1.55333 0
M  V30 3245 H 294.556 4.53027 -0.86972 0
M  V30 3246 H 292.799 4.24657 -0.885928 0
M  V30 3247 H 293.47 5.51823 0.139796 0
M  V30 3248 H 295.946 3.96097 1.27461 0
M  V30 3249 H 294.822 5.07195 2.09867 0
M  V30 3250 H 295.083 3.46163 2.74998 0
M  V30 3251 N 294.142 -0.090211 1.57342 0
M  V30 3252 C 295.39 -0.791241 1.85967 0
M  V30 3253 C 295.711 -1.7903 0.772859 0
M  V30 3254 O 294.981 -1.94872 -0.200398 0
M  V30 3255 H 293.561 -0.295205 0.686195 0
M  V30 3256 H 296.223 -0.0706782 1.94772 0
M  V30 3257 H 295.319 -1.31882 2.82867 0
M  V30 3258 N 295.62 -1.53406 -0.361157 0
M  V30 3259 C 296.85 -1.73465 -1.1222 0
M  V30 3260 C 297.258 -0.465486 -1.83384 0
M  V30 3261 O 296.601 0.571611 -1.7458 0
M  V30 3262 C 296.663 -2.84834 -2.19339 0
M  V30 3263 C 296.327 -4.25038 -1.67903 0
M  V30 3264 C 297.324 -5.07231 -1.14074 0
M  V30 3265 C 295.009 -4.71464 -1.73282 0
M  V30 3266 C 297.003 -6.33942 -0.663068 0
M  V30 3267 C 294.69 -5.98153 -1.25127 0
M  V30 3268 C 295.688 -6.79223 -0.717296 0
M  V30 3269 O 295.376 -8.03533 -0.242865 0
M  V30 3270 H 295.108 -0.583526 -0.341283 0
M  V30 3271 H 297.662 -2.00964 -0.424591 0
M  V30 3272 H 295.892 -2.5282 -2.92607 0
M  V30 3273 H 297.581 -2.9303 -2.80871 0
M  V30 3274 H 298.347 -4.72534 -1.09254 0
M  V30 3275 H 294.226 -4.08432 -2.13786 0
M  V30 3276 H 297.77 -6.97167 -0.245612 0
M  V30 3277 H 293.667 -6.32347 -1.29642 0
M  V30 3278 H 294.435 -8.177 -0.361786 0
M  V30 3279 N 297.098 0.621204 -1.44841 0
M  V30 3280 C 298.326 1.40752 -1.51646 0
M  V30 3281 C 298.741 1.88246 -0.144549 0
M  V30 3282 O 298.098 1.61422 0.851416 0
M  V30 3283 C 298.149 2.62119 -2.4895 0
M  V30 3284 O 297.87 2.16602 -3.80808 0
M  V30 3285 C 299.371 3.55135 -2.65319 0
M  V30 3286 H 296.591 0.431325 -0.514004 0
M  V30 3287 H 299.135 0.758835 -1.899 0
M  V30 3288 H 297.29 3.23058 -2.13805 0
M  V30 3289 H 297.704 2.95358 -4.33433 0
M  V30 3290 H 299.178 4.36874 -3.37409 0
M  V30 3291 H 299.655 4.04592 -1.70886 0
M  V30 3292 H 300.261 3.00058 -3.01405 0
M  V30 3293 N 298.576 1.31904 0.862503 0
M  V30 3294 C 299.853 1.12644 1.59908 0
M  V30 3295 C 300.233 -0.316104 2.0872 0
M  V30 3296 O 299.581 -1.31145 1.87118 0
M  V30 3297 C 299.791 2.1472 2.7513 0
M  V30 3298 C 301.139 2.47637 3.44907 0
M  V30 3299 O 302.163 2.13205 2.85346 0
M  V30 3300 O 301.022 3.06632 4.52371 0
M  V30 3301 H 298.116 0.43416 0.703871 0
M  V30 3302 H 300.662 1.43408 0.907314 0
M  V30 3303 H 299.434 3.1172 2.3653 0
M  V30 3304 H 299.057 1.84905 3.51989 0
M  V30 3305 N 300.054 -1.07777 1.14986 0
M  V30 3306 C 301.303 -1.79669 0.916617 0
M  V30 3307 C 301.616 -1.87474 -0.557917 0
M  V30 3308 O 302.822 -2.55845 -0.908617 0
M  V30 3309 C 301.278 -3.22848 1.59051 0
M  V30 3310 C 300.886 -3.23257 3.10176 0
M  V30 3311 C 302.63 -3.99379 1.43864 0
M  V30 3312 C 300.537 -4.61063 3.70372 0
M  V30 3313 H 299.467 -0.673349 0.33929 0
M  V30 3314 H 302.118 -1.21003 1.37951 0
M  V30 3315 H 300.5 -3.8168 1.0553 0
M  V30 3316 H 301.674 -2.74095 3.70417 0
M  V30 3317 H 299.989 -2.60222 3.25074 0
M  V30 3318 H 302.586 -5.0122 1.86232 0
M  V30 3319 H 302.929 -4.14511 0.385564 0
M  V30 3320 H 303.462 -3.47032 1.94457 0
M  V30 3321 H 300.201 -4.51135 4.7556 0
M  V30 3322 H 299.721 -5.1048 3.14913 0
M  V30 3323 H 301.4 -5.30034 3.71043 0
M  V30 3324 N 301.532 -0.945985 -1.26051 0
M  V30 3325 C 302.809 -0.513816 -1.88731 0
M  V30 3326 C 303.189 1.00872 -1.8544 0
M  V30 3327 O 302.537 1.8708 -1.312 0
M  V30 3328 C 302.747 -1.08062 -3.31849 0
M  V30 3329 C 304.095 -1.1522 -4.08668 0
M  V30 3330 O 305.119 -1.03155 -3.40936 0
M  V30 3331 O 303.978 -1.34044 -5.29806 0
M  V30 3332 H 301.072 -0.168193 -0.809716 0
M  V30 3333 H 303.618 -1.03886 -1.34186 0
M  V30 3334 H 302.39 -2.1241 -3.2863 0
M  V30 3335 H 302.013 -0.538307 -3.93939 0
M  V30 3336 N 303.011 1.40521 -0.713556 0
M  V30 3337 C 304.259 2.00527 -0.251692 0
M  V30 3338 C 304.58 1.56857 1.15848 0
M  V30 3339 O 303.85 0.807127 1.785 0
M  V30 3340 H 302.43 0.741551 -0.0900646 0
M  V30 3341 H 305.092 1.71887 -0.918733 0
M  V30 3342 H 304.188 3.10813 -0.283192 0
M  V30 3343 N 304.489 0.459591 1.5075 0
M  V30 3344 C 305.437 -0.354678 2.2988 0
M  V30 3345 C 306.431 -1.00086 1.36672 0
M  V30 3346 O 307.637 -0.933277 1.53915 0
M  V30 3347 H 304.012 -0.13321 0.740107 0
M  V30 3348 H 305.983 0.333269 2.96533 0
M  V30 3349 C 304.732 -1.43073 3.169 0
M  V30 3350 H 304.055 -0.942882 3.88523 0
M  V30 3351 H 305.495 -1.97328 3.75284 0
M  V30 3352 C 303.954 -2.42633 2.33732 0
M  V30 3353 O 304.484 -3.47658 2.01238 0
M  V30 3354 N 302.69 -2.14066 1.9653 0
M  V30 3355 H 302.237 -1.28685 2.23155 0
M  V30 3356 H 302.195 -2.80917 1.41185 0
M  V30 3357 N 305.967 -1.56429 0.191757 0
M  V30 3358 C 307.215 -1.97095 -0.447006 0
M  V30 3359 C 307.536 -1.07967 -1.62383 0
M  V30 3360 O 306.806 -0.150248 -1.95323 0
M  V30 3361 H 305.386 -0.727832 -0.168135 0
M  V30 3362 H 308.048 -1.92911 0.27771 0
M  V30 3363 H 307.144 -3.01848 -0.793371 0
M  V30 3364 N 307.445 0.0818655 -1.57387 0
M  V30 3365 C 308.694 0.781681 -1.85937 0
M  V30 3366 C 309.007 1.79246 -0.782957 0
M  V30 3367 O 310.213 2.54112 -0.955987 0
M  V30 3368 C 308.669 1.44109 -3.29789 0
M  V30 3369 C 308.277 0.469396 -4.45534 0
M  V30 3370 C 310.021 2.12386 -3.67549 0
M  V30 3371 C 307.928 1.13415 -5.80423 0
M  V30 3372 H 306.858 0.295682 -0.693605 0
M  V30 3373 H 309.509 0.0348051 -1.83467 0
M  V30 3374 H 307.891 2.23588 -3.2684 0
M  V30 3375 H 309.065 -0.294856 -4.59856 0
M  V30 3376 H 307.38 -0.108383 -4.16259 0
M  V30 3377 H 309.977 2.62878 -4.65617 0
M  V30 3378 H 310.32 2.91877 -2.96839 0
M  V30 3379 H 310.853 1.39751 -3.72444 0
M  V30 3380 H 307.592 0.379771 -6.54399 0
M  V30 3381 H 307.112 1.8695 -5.69921 0
M  V30 3382 H 308.791 1.65686 -6.25426 0
M  V30 3383 N 308.923 1.53595 0.353017 0
M  V30 3384 C 309.833 1.83897 1.45667 0
M  V30 3385 C 310.849 0.728334 1.58023 0
M  V30 3386 O 312.025 1.01968 1.73679 0
M  V30 3387 C 309.09 2.03383 2.80778 0
M  V30 3388 C 308.151 3.27262 2.77845 0
M  V30 3389 C 307.384 3.45809 4.06512 0
M  V30 3390 O 307.607 2.68387 5.03314 0
M  V30 3391 O 306.541 4.39207 4.11559 0
M  V30 3392 H 310.367 2.77686 1.2298 0
M  V30 3393 H 307.952 1.39132 0.544308 0
M  V30 3394 H 309.834 2.17698 3.60812 0
M  V30 3395 H 308.509 1.12783 3.03417 0
M  V30 3396 H 307.416 3.18359 1.96465 0
M  V30 3397 H 308.749 4.17824 2.60161 0
M  V30 3398 N 310.401 -0.613514 1.45168 0
M  V30 3399 C 311.649 -1.36997 1.48581 0
M  V30 3400 C 311.97 -1.94589 0.126545 0
M  V30 3401 O 311.24 -1.76816 -0.843372 0
M  V30 3402 H 309.82 -0.508558 0.547154 0
M  V30 3403 H 312.482 -0.720853 1.81079 0
M  V30 3404 H 311.578 -2.1924 2.22127 0
M  V30 3405 N 311.879 -1.3236 -0.855495 0
M  V30 3406 C 313.128 -1.22226 -1.60448 0
M  V30 3407 C 313.441 0.214733 -1.94418 0
M  V30 3408 O 314.647 0.437917 -2.67945 0
M  V30 3409 C 313.103 -2.14063 -2.89318 0
M  V30 3410 C 312.711 -3.62839 -2.62777 0
M  V30 3411 C 314.455 -2.12764 -3.67331 0
M  V30 3412 C 312.362 -4.4664 -3.87643 0
M  V30 3413 H 311.292 -0.453904 -0.602069 0
M  V30 3414 H 313.943 -1.57314 -0.944698 0
M  V30 3415 H 312.325 -1.71889 -3.5675 0
M  V30 3416 H 313.499 -4.1335 -2.03662 0
M  V30 3417 H 311.814 -3.66261 -1.98096 0
M  V30 3418 H 314.411 -2.72611 -4.59987 0
M  V30 3419 H 314.754 -1.11841 -4.00995 0
M  V30 3420 H 315.287 -2.53214 -3.06802 0
M  V30 3421 H 312.026 -5.48373 -3.5912 0
M  V30 3422 H 311.546 -4.0088 -4.46156 0
M  V30 3423 H 313.225 -4.59597 -4.55389 0
M  V30 3424 N 313.357 1.07166 -1.15556 0
M  V30 3425 C 314.267 2.17947 -0.868116 0
M  V30 3426 C 315.283 1.73297 0.156297 0
M  V30 3427 O 316.459 2.01392 -0.0182327 0
M  V30 3428 C 313.524 3.44789 -0.36355 0
M  V30 3429 C 312.585 4.03996 -1.45209 0
M  V30 3430 C 311.818 5.24783 -0.971508 0
M  V30 3431 O 312.041 5.70109 0.182194 0
M  V30 3432 O 310.975 5.75715 -1.75603 0
M  V30 3433 H 314.801 2.4503 -1.79427 0
M  V30 3434 H 312.386 1.16539 -0.934824 0
M  V30 3435 H 314.268 4.21307 -0.0887113 0
M  V30 3436 H 312.943 3.19253 0.534708 0
M  V30 3437 H 311.85 3.29009 -1.78056 0
M  V30 3438 H 313.183 4.33808 -2.32533 0
M  V30 3439 N 314.835 0.952656 1.25548 0
M  V30 3440 C 315.782 0.47008 2.25962 0
M  V30 3441 C 316.752 -0.476384 1.59122 0
M  V30 3442 O 317.937 -0.39007 1.8677 0
M  V30 3443 C 315.077 -0.247881 3.44209 0
M  V30 3444 C 314.19 0.735591 4.25691 0
M  V30 3445 C 313.325 -0.0047306 5.312 0
M  V30 3446 C 312.364 0.969805 6.04368 0
M  V30 3447 N 311.501 0.260486 7.01617 0
M  V30 3448 H 316.341 1.33126 2.66611 0
M  V30 3449 H 313.878 0.66765 1.31076 0
M  V30 3450 H 315.836 -0.680695 4.1161 0
M  V30 3451 H 314.466 -1.07312 3.0444 0
M  V30 3452 H 313.518 1.28689 3.57971 0
M  V30 3453 H 314.83 1.47934 4.76358 0
M  V30 3454 H 313.984 -0.496275 6.04667 0
M  V30 3455 H 312.723 -0.781282 4.81401 0
M  V30 3456 H 311.728 1.47237 5.29718 0
M  V30 3457 H 312.953 1.74655 6.56256 0
M  V30 3458 H 310.899 -0.497364 6.54112 0
M  V30 3459 H 310.816 0.943362 7.50091 0
M  V30 3460 H 312.084 -0.209587 7.79218 0
M  V30 3461 N 316.313 -1.40141 0.720998 0
M  V30 3462 C 317.538 -2.05618 0.271258 0
M  V30 3463 C 317.963 -1.53978 -1.08039 0
M  V30 3464 O 317.321 -0.677463 -1.68167 0
M  V30 3465 C 317.369 -3.59609 0.267197 0
M  V30 3466 O 316.473 -4.05526 -0.749814 0
M  V30 3467 H 315.814 -0.651904 0.126162 0
M  V30 3468 H 318.344 -1.79439 0.982997 0
M  V30 3469 H 318.354 -4.0786 0.106744 0
M  V30 3470 H 317.029 -3.96559 1.25354 0
M  V30 3471 H 315.606 -3.68722 -0.556644 0
M  V30 3472 N 317.792 -0.46758 -1.50504 0
M  V30 3473 C 319.039 0.0886219 -2.02306 0
M  V30 3474 C 319.367 1.40037 -1.34981 0
M  V30 3475 O 318.622 1.90136 -0.463318 0
M  V30 3476 C 318.921 0.323995 -3.55928 0
M  V30 3477 C 318.587 -0.905618 -4.41712 0
M  V30 3478 C 317.249 -1.24275 -4.64875 0
M  V30 3479 C 319.601 -1.72448 -4.91845 0
M  V30 3480 C 316.929 -2.39888 -5.35417 0
M  V30 3481 C 319.281 -2.87185 -5.63656 0
M  V30 3482 C 317.945 -3.21317 -5.85074 0
M  V30 3483 H 317.215 0.0324291 -0.74029 0
M  V30 3484 H 319.862 -0.620945 -1.81153 0
M  V30 3485 H 318.167 1.11577 -3.75577 0
M  V30 3486 H 319.864 0.76826 -3.93572 0
M  V30 3487 H 316.454 -0.632956 -4.239 0
M  V30 3488 H 320.638 -1.4772 -4.73806 0
M  V30 3489 H 315.894 -2.66611 -5.50208 0
M  V30 3490 H 320.068 -3.50985 -6.01484 0
M  V30 3491 H 317.695 -4.1101 -6.39511 0
M  V30 3492 N 319.27 1.56325 -0.20005 0
M  V30 3493 C 320.218 2.20666 0.735482 0
M  V30 3494 C 321.212 1.17934 1.21605 0
M  V30 3495 O 322.418 1.36068 1.17837 0
M  V30 3496 H 318.793 0.70725 0.255542 0
M  V30 3497 H 320.764 2.9792 0.169166 0
M  V30 3498 C 319.513 2.88391 1.94232 0
M  V30 3499 H 318.836 3.67185 1.58161 0
M  V30 3500 H 320.276 3.3684 2.57517 0
M  V30 3501 C 318.735 1.89692 2.78421 0
M  V30 3502 O 319.265 1.40032 3.76502 0
M  V30 3503 N 317.471 1.57813 2.44015 0
M  V30 3504 H 317.018 1.9839 1.64314 0
M  V30 3505 H 316.976 0.920325 3.00628 0
M  V30 3506 N 320.748 -0.0735177 1.57428 0
M  V30 3507 C 321.973 -0.789787 1.91774 0
M  V30 3508 C 322.398 -1.70413 0.796306 0
M  V30 3509 O 321.756 -1.79555 -0.250961 0
M  V30 3510 C 321.804 -1.5609 3.25067 0
M  V30 3511 O 320.908 -2.67144 3.14178 0
M  V30 3512 H 320.249 -0.215582 0.628029 0
M  V30 3513 H 322.779 -0.0422781 2.04556 0
M  V30 3514 H 322.789 -1.94052 3.58898 0
M  V30 3515 H 321.464 -0.890015 4.06265 0
M  V30 3516 H 320.041 -2.32052 2.91901 0
M  V30 3517 N 322.226 -1.5378 -0.344866 0
M  V30 3518 C 323.156 -1.84662 -1.42906 0
M  V30 3519 C 324.137 -0.701648 -1.54955 0
M  V30 3520 O 325.322 -0.953438 -1.69184 0
M  V30 3521 C 322.452 -2.05503 -2.79974 0
M  V30 3522 C 321.406 -3.21318 -2.82734 0
M  V30 3523 C 320.732 -3.2749 -4.22675 0
M  V30 3524 C 322.032 -4.59456 -2.48389 0
M  V30 3525 H 323.726 -2.75461 -1.17311 0
M  V30 3526 H 321.272 -1.32542 -0.562896 0
M  V30 3527 H 323.225 -2.25691 -3.55867 0
M  V30 3528 H 321.949 -1.11434 -3.07002 0
M  V30 3529 H 320.608 -3.00984 -2.09294 0
M  V30 3530 H 320.256 -2.31019 -4.4681 0
M  V30 3531 H 319.956 -4.05316 -4.25433 0
M  V30 3532 H 321.48 -3.49887 -5.00412 0
M  V30 3533 H 322.894 -4.79667 -3.13995 0
M  V30 3534 H 321.291 -5.39675 -2.62432 0
M  V30 3535 H 322.361 -4.63155 -1.4358 0
M  V30 3536 N 323.704 0.605807 -1.45491 0
M  V30 3537 C 324.634 1.72709 -1.57143 0
M  V30 3538 C 325.615 1.6476 -0.422884 0
M  V30 3539 O 326.8 1.83132 -0.646247 0
M  V30 3540 C 323.93 3.11316 -1.53948 0
M  V30 3541 C 322.884 3.34077 -2.67537 0
M  V30 3542 C 322.21 4.72975 -2.49397 0
M  V30 3543 C 323.51 3.24158 -4.09535 0
M  V30 3544 H 325.204 1.63214 -2.51001 0
M  V30 3545 H 322.75 0.78379 -1.208 0
M  V30 3546 H 324.703 3.89557 -1.60696 0
M  V30 3547 H 323.427 3.21655 -0.566205 0
M  V30 3548 H 322.086 2.58227 -2.6022 0
M  V30 3549 H 321.734 4.8005 -1.50205 0
M  V30 3550 H 321.434 4.8916 -3.25571 0
M  V30 3551 H 322.958 5.53414 -2.58002 0
M  V30 3552 H 324.372 3.92271 -4.18086 0
M  V30 3553 H 322.769 3.51872 -4.86113 0
M  V30 3554 H 323.839 2.2157 -4.31317 0
M  V30 3555 N 325.182 1.32811 0.848464 0
M  V30 3556 C 326.428 1.23907 1.60546 0
M  V30 3557 C 326.761 -0.197161 1.93197 0
M  V30 3558 O 326.036 -1.13596 1.5788 0
M  V30 3559 C 326.319 2.10489 2.92175 0
M  V30 3560 C 326.172 3.62522 2.66266 0
M  V30 3561 C 327.491 1.97075 3.93509 0
M  V30 3562 H 324.61 0.451459 0.58254 0
M  V30 3563 H 327.252 1.62818 0.979296 0
M  V30 3564 H 325.402 1.77434 3.45614 0
M  V30 3565 H 327.074 4.05821 2.19334 0
M  V30 3566 H 325.317 3.84879 2.00126 0
M  V30 3567 H 325.988 4.18437 3.6002 0
M  V30 3568 H 328.464 2.26045 3.49346 0
M  V30 3569 H 327.34 2.59923 4.83457 0
M  V30 3570 H 327.601 0.940186 4.31987 0
M  V30 3571 N 326.66 -1.06551 1.16123 0
M  V30 3572 C 327.908 -1.78947 0.939267 0
M  V30 3573 C 328.229 -1.87532 -0.534476 0
M  V30 3574 O 327.499 -1.38211 -1.38833 0
M  V30 3575 H 326.079 -0.662807 0.344523 0
M  V30 3576 H 328.741 -1.28725 1.46342 0
M  V30 3577 H 327.837 -2.81117 1.35572 0
M  V30 3578 N 328.138 -0.959301 -1.25041 0
M  V30 3579 C 329.085 -0.482057 -2.2571 0
M  V30 3580 C 330.055 0.467939 -1.59372 0
M  V30 3581 O 331.24 0.380159 -1.86974 0
M  V30 3582 C 328.38 0.229623 -3.44335 0
M  V30 3583 C 327.493 -0.758156 -4.25295 0
M  V30 3584 C 326.628 -0.0234403 -5.31195 0
M  V30 3585 C 325.667 -1.00184 -6.03846 0
M  V30 3586 N 324.804 -0.29769 -7.01469 0
M  V30 3587 H 329.644 -1.34538 -2.65901 0
M  V30 3588 H 327.181 -0.674592 -1.3072 0
M  V30 3589 H 329.139 0.658856 -4.11965 0
M  V30 3590 H 327.769 1.05696 -3.05005 0
M  V30 3591 H 326.821 -1.30586 -3.57284 0
M  V30 3592 H 328.133 -1.50458 -4.75567 0
M  V30 3593 H 327.287 0.464201 -6.04922 0
M  V30 3594 H 326.026 0.755741 -4.81809 0
M  V30 3595 H 325.031 -1.50044 -5.2893 0
M  V30 3596 H 326.256 -1.78133 -6.55321 0
M  V30 3597 H 324.202 0.462668 -6.54366 0
M  V30 3598 H 324.119 -0.983128 -7.4958 0
M  V30 3599 H 325.387 0.16826 -7.79318 0
M  V30 3600 N 329.616 1.39756 -0.72842 0
M  V30 3601 C 330.893 1.94574 -0.200079 0
M  V30 3602 C 331.273 1.66569 1.29684 0
M  V30 3603 O 330.621 0.990326 2.05924 0
M  V30 3604 C 330.831 3.45004 -0.526608 0
M  V30 3605 C 332.179 4.21965 -0.472318 0
M  V30 3606 O 333.203 3.53173 -0.463413 0
M  V30 3607 O 332.062 5.44552 -0.461075 0
M  V30 3608 H 329.156 0.826289 -0.0342851 0
M  V30 3609 H 331.702 1.49293 -0.806829 0
M  V30 3610 H 330.474 3.58796 -1.56144 0
M  V30 3611 H 330.097 3.97449 0.109449 0
M  V30 3612 N 331.094 0.475555 1.50254 0
M  V30 3613 C 332.342 -0.077738 2.0195 0
M  V30 3614 C 332.663 -1.39813 1.35931 0
M  V30 3615 O 331.933 -1.89249 0.506123 0
M  V30 3616 H 330.513 -0.031719 0.746326 0
M  V30 3617 H 333.175 0.626995 1.84539 0
M  V30 3618 H 332.271 -0.225995 3.11281 0
M  V30 3619 N 332.573 -1.56217 0.208337 0
M  V30 3620 C 333.798 -2.02782 -0.435222 0
M  V30 3621 C 334.223 -1.08738 -1.53485 0
M  V30 3622 O 333.581 -0.0731855 -1.81152 0
M  V30 3623 C 333.629 -3.47687 -0.956335 0
M  V30 3624 O 332.733 -3.56773 -2.06849 0
M  V30 3625 H 332.074 -0.656403 -0.100158 0
M  V30 3626 H 334.604 -2.02033 0.3231 0
M  V30 3627 H 334.614 -3.87745 -1.26955 0
M  V30 3628 H 333.289 -4.15624 -0.15143 0
M  V30 3629 H 331.866 -3.28597 -1.76292 0
M  V30 3630 N 334.051 0.0651679 -1.57465 0
M  V30 3631 C 335.467 0.420105 -1.53972 0
M  V30 3632 C 335.667 1.78782 -0.929474 0
M  V30 3633 O 334.723 2.46771 -0.534839 0
M  V30 3634 C 336.036 0.355084 -2.98596 0
M  V30 3635 C 337.584 0.434792 -3.09965 0
M  V30 3636 C 338.059 0.399609 -4.56253 0
M  V30 3637 N 339.55 0.459488 -4.60915 0
M  V30 3638 C 340.285 0.454584 -5.71595 0
M  V30 3639 N 339.781 0.404102 -6.9162 0
M  V30 3640 N 341.574 0.501635 -5.59857 0
M  V30 3641 H 333.725 -0.830328 -1.95498 0
M  V30 3642 H 335.988 -0.312244 -0.895102 0
M  V30 3643 H 335.694 -0.583357 -3.46828 0
M  V30 3644 H 335.568 1.16275 -3.58831 0
M  V30 3645 H 337.955 1.36366 -2.61703 0
M  V30 3646 H 338.036 -0.40157 -2.52628 0
M  V30 3647 H 337.68 -0.525436 -5.05175 0
M  V30 3648 H 337.61 1.25359 -5.11461 0
M  V30 3649 H 340.101 0.502482 -3.74544 0
M  V30 3650 H 340.414 0.404468 -7.71741 0
M  V30 3651 H 338.759 0.37069 -6.94011 0
M  V30 3652 H 341.95 0.538812 -4.64989 0
M  V30 3653 H 342.123 0.494345 -6.46112 0
M  V30 3654 N 335.529 1.53961 0.336706 0
M  V30 3655 C 336.757 1.75483 1.09605 0
M  V30 3656 C 337.172 0.4972 1.82136 0
M  V30 3657 O 336.529 -0.53149 1.74589 0
M  V30 3658 C 336.58 2.93943 2.10428 0
M  V30 3659 O 336.301 4.14842 1.40846 0
M  V30 3660 C 337.802 3.27571 2.98684 0
M  V30 3661 H 335.022 0.586166 0.326574 0
M  V30 3662 H 337.566 2.00808 0.38683 0
M  V30 3663 H 335.721 2.70929 2.76905 0
M  V30 3664 H 336.135 4.81383 2.08255 0
M  V30 3665 H 337.609 4.13791 3.6535 0
M  V30 3666 H 338.086 2.44168 3.65074 0
M  V30 3667 H 338.692 3.52615 2.37787 0
M  V30 3668 N 337.007 -0.598083 1.45811 0
M  V30 3669 C 338.253 -1.35882 1.50545 0
M  V30 3670 C 338.586 -1.93616 0.150445 0
M  V30 3671 O 337.861 -1.75604 -0.83628 0
M  V30 3672 C 338.144 -2.49966 2.59208 0
M  V30 3673 C 337.997 -1.97367 4.04186 0
M  V30 3674 C 339.316 -3.52068 2.64076 0
M  V30 3675 H 336.435 -0.492717 0.548087 0
M  V30 3676 H 339.077 -0.673319 1.77669 0
M  V30 3677 H 337.227 -3.08443 2.3621 0
M  V30 3678 H 338.899 -1.43466 4.38423 0
M  V30 3679 H 337.142 -1.283 4.14393 0
M  V30 3680 H 337.813 -2.79649 4.75921 0
M  V30 3681 H 340.289 -3.03448 2.84708 0
M  V30 3682 H 339.165 -4.2937 3.41954 0
M  V30 3683 H 339.426 -4.08304 1.69531 0
M  V30 3684 N 338.485 -1.33259 -0.841409 0
M  V30 3685 C 339.901 -1.12538 -1.13169 0
M  V30 3686 C 340.101 0.0854037 -2.01319 0
M  V30 3687 O 339.157 0.766417 -2.40587 0
M  V30 3688 C 340.47 -2.41156 -1.79623 0
M  V30 3689 C 342.018 -2.47038 -1.922 0
M  V30 3690 C 342.493 -3.7561 -2.6207 0
M  V30 3691 N 343.984 -3.76667 -2.69585 0
M  V30 3692 C 344.719 -4.72861 -3.2433 0
M  V30 3693 N 344.215 -5.79428 -3.79783 0
M  V30 3694 N 346.008 -4.6034 -3.22558 0
M  V30 3695 H 338.159 -2.10868 -0.254676 0
M  V30 3696 H 340.422 -0.931615 -0.175493 0
M  V30 3697 H 340.128 -3.29747 -1.22311 0
M  V30 3698 H 340.002 -2.53114 -2.79666 0
M  V30 3699 H 342.389 -1.58898 -2.48667 0
M  V30 3700 H 342.47 -2.39022 -0.911148 0
M  V30 3701 H 342.114 -4.64131 -2.06263 0
M  V30 3702 H 342.044 -3.80902 -3.63622 0
M  V30 3703 H 344.535 -2.99648 -2.30259 0
M  V30 3704 H 344.848 -6.48867 -4.19752 0
M  V30 3705 H 343.193 -5.83166 -3.78078 0
M  V30 3706 H 346.384 -3.76244 -2.78492 0
M  V30 3707 H 346.557 -5.35478 -3.64921 0
M  V30 3708 N 339.963 1.05934 -1.16686 0
M  V30 3709 C 340.91 2.13499 -0.876748 0
M  V30 3710 C 341.88 1.65162 0.176299 0
M  V30 3711 O 343.065 1.90757 0.0407143 0
M  V30 3712 C 340.205 3.42912 -0.387967 0
M  V30 3713 C 339.318 4.04964 -1.50426 0
M  V30 3714 C 338.453 5.22266 -0.970125 0
M  V30 3715 C 337.492 5.76309 -2.06238 0
M  V30 3716 N 336.629 6.84922 -1.54356 0
M  V30 3717 H 341.469 2.37654 -1.7979 0
M  V30 3718 H 339.006 1.16598 -0.896843 0
M  V30 3719 H 340.964 4.17111 -0.086186 0
M  V30 3720 H 339.594 3.18963 0.496235 0
M  V30 3721 H 338.646 3.28277 -1.92193 0
M  V30 3722 H 339.958 4.41122 -2.32836 0
M  V30 3723 H 339.112 6.03506 -0.621743 0
M  V30 3724 H 337.851 4.87564 -0.115377 0
M  V30 3725 H 336.856 4.93704 -2.41942 0
M  V30 3726 H 338.081 6.13062 -2.92115 0
M  V30 3727 H 336.027 6.52131 -0.711406 0
M  V30 3728 H 335.944 7.20043 -2.30379 0
M  V30 3729 H 337.212 7.69832 -1.22387 0
M  V30 3730 N 341.441 0.965919 1.2453 0
M  V30 3731 C 342.718 0.543777 1.87889 0
M  V30 3732 C 343.098 -0.97909 1.87021 0
M  V30 3733 O 342.446 -1.84969 1.3416 0
M  V30 3734 C 342.656 1.13327 3.30088 0
M  V30 3735 C 344.004 1.21707 4.06783 0
M  V30 3736 O 345.028 1.08566 3.39252 0
M  V30 3737 O 343.887 1.42456 5.27606 0
M  V30 3738 H 340.981 0.181054 0.806938 0
M  V30 3739 H 343.527 1.06007 1.32516 0
M  V30 3740 H 342.299 2.17612 3.25209 0
M  V30 3741 H 341.922 0.600911 3.93033 0
M  V30 3742 N 342.919 -1.39368 0.735821 0
M  V30 3743 C 343.866 -2.30599 0.0963825 0
M  V30 3744 C 344.836 -1.49257 -0.728794 0
M  V30 3745 O 346.021 -1.77941 -0.688588 0
M  V30 3746 C 343.161 -3.35596 -0.804305 0
M  V30 3747 C 342.274 -4.31987 0.0335761 0
M  V30 3748 C 341.409 -5.24053 -0.868461 0
M  V30 3749 C 340.448 -6.12095 -0.0258776 0
M  V30 3750 N 339.585 -6.96514 -0.883893 0
M  V30 3751 H 344.425 -2.8471 0.880002 0
M  V30 3752 H 341.962 -1.40188 0.445619 0
M  V30 3753 H 343.92 -3.95062 -1.34096 0
M  V30 3754 H 342.55 -2.82938 -1.55389 0
M  V30 3755 H 341.602 -3.74133 0.68766 0
M  V30 3756 H 342.914 -4.94074 0.685036 0
M  V30 3757 H 342.068 -5.88549 -1.47293 0
M  V30 3758 H 340.807 -4.62289 -1.5537 0
M  V30 3759 H 339.812 -5.4661 0.591386 0
M  V30 3760 H 341.037 -6.75923 0.656156 0
M  V30 3761 H 338.983 -6.37318 -1.55441 0
M  V30 3762 H 338.9 -7.55448 -0.288931 0
M  V30 3763 H 340.168 -7.65439 -1.4739 0
M  V30 3764 N 344.397 -0.483516 -1.5 0
M  V30 3765 C 345.813 -0.138404 -1.58999 0
M  V30 3766 C 346.013 1.35597 -1.4905 0
M  V30 3767 O 345.069 2.13039 -1.35539 0
M  V30 3768 C 346.382 -0.699658 -2.92447 0
M  V30 3769 C 347.93 -0.664195 -3.05872 0
M  V30 3770 C 348.405 -1.20321 -4.41913 0
M  V30 3771 N 349.896 -1.16315 -4.48358 0
M  V30 3772 C 350.631 -1.55058 -5.52037 0
M  V30 3773 N 350.127 -2.01311 -6.62907 0
M  V30 3774 N 351.92 -1.46584 -5.42651 0
M  V30 3775 H 344.071 -1.45529 -1.5471 0
M  V30 3776 H 346.334 -0.60258 -0.731848 0
M  V30 3777 H 346.04 -1.747 -3.05242 0
M  V30 3778 H 345.914 -0.150194 -3.76901 0
M  V30 3779 H 348.301 0.374272 -2.92717 0
M  V30 3780 H 348.382 -1.25061 -2.23144 0
M  V30 3781 H 348.026 -2.24037 -4.55818 0
M  V30 3782 H 347.956 -0.592896 -5.23252 0
M  V30 3783 H 350.447 -0.824058 -3.68806 0
M  V30 3784 H 350.76 -2.2899 -7.38095 0
M  V30 3785 H 349.105 -2.05273 -6.63994 0
M  V30 3786 H 352.296 -1.10281 -4.54924 0
M  V30 3787 H 352.469 -1.77103 -6.23329 0
M  V30 3788 N 345.875 1.56104 -0.216619 0
M  V30 3789 C 347.123 1.97781 0.415593 0
M  V30 3790 C 347.444 1.10536 1.60645 0
M  V30 3791 O 346.714 0.181303 1.95059 0
M  V30 3792 H 345.294 0.730415 0.156534 0
M  V30 3793 H 347.956 1.92445 -0.308366 0
M  V30 3794 H 347.052 3.03072 0.74525 0
M  V30 3795 N 347.353 -0.0568162 1.57498 0
M  V30 3796 C 348.301 -1.08452 2.05769 0
M  V30 3797 C 349.295 -1.39164 0.965903 0
M  V30 3798 O 350.501 -1.38395 1.15095 0
M  V30 3799 H 346.876 -0.367148 0.656282 0
M  V30 3800 H 348.847 -0.651368 2.91204 0
M  V30 3801 C 347.596 -2.38543 2.52968 0
M  V30 3802 H 346.919 -2.15765 3.36579 0
M  V30 3803 H 348.359 -3.08863 2.90481 0
M  V30 3804 C 346.818 -3.05562 1.41893 0
M  V30 3805 O 347.348 -3.94262 0.769442 0
M  V30 3806 N 345.554 -2.6643 1.16032 0
M  V30 3807 H 345.101 -1.94387 1.6903 0
M  V30 3808 H 345.059 -3.11593 0.419219 0
M  V30 3809 N 348.832 -1.54138 -0.328536 0
M  V30 3810 C 350.081 -1.71318 -1.06456 0
M  V30 3811 C 350.394 -0.491109 -1.89334 0
M  V30 3812 O 351.6 -0.54416 -2.65991 0
M  V30 3813 C 350.056 -3.03 -1.94214 0
M  V30 3814 C 349.664 -4.32595 -1.16471 0
M  V30 3815 C 351.408 -3.29544 -2.67583 0
M  V30 3816 C 349.315 -5.55341 -2.03347 0
M  V30 3817 H 348.245 -0.638429 -0.401155 0
M  V30 3818 H 350.896 -1.80633 -0.323106 0
M  V30 3819 H 349.278 -2.87579 -2.72239 0
M  V30 3820 H 350.452 -4.58766 -0.432525 0
M  V30 3821 H 348.767 -4.12777 -0.548063 0
M  V30 3822 H 351.364 -4.18444 -3.3288 0
M  V30 3823 H 351.707 -2.47206 -3.34955 0
M  V30 3824 H 352.24 -3.45809 -1.96623 0
M  V30 3825 H 348.979 -6.40268 -1.40491 0
M  V30 3826 H 348.499 -5.33397 -2.74313 0
M  V30 3827 H 350.178 -5.91557 -2.62049 0
M  V30 3828 N 350.31 0.590341 -1.46126 0
M  V30 3829 C 351.556 1.35082 -1.51264 0
M  V30 3830 C 351.889 1.93534 -0.160711 0
M  V30 3831 O 351.164 1.76045 0.826956 0
M  V30 3832 C 351.447 2.48588 -2.6053 0
M  V30 3833 C 351.3 1.95221 -4.05227 0
M  V30 3834 C 352.619 3.50662 -2.6594 0
M  V30 3835 H 349.738 0.489803 -0.550692 0
M  V30 3836 H 352.38 0.663887 -1.78024 0
M  V30 3837 H 350.53 3.07186 -2.37843 0
M  V30 3838 H 352.202 1.41139 -4.39178 0
M  V30 3839 H 350.445 1.26101 -4.15068 0
M  V30 3840 H 351.116 2.77121 -4.77397 0
M  V30 3841 H 353.592 3.01934 -2.86313 0
M  V30 3842 H 352.468 4.27551 -3.44226 0
M  V30 3843 H 352.729 4.07399 -1.71694 0
M  V30 3844 N 351.788 1.33704 0.83433 0
M  V30 3845 C 352.698 1.26382 1.97648 0
M  V30 3846 C 353.714 0.173548 1.73132 0
M  V30 3847 O 354.89 0.397962 1.97429 0
M  V30 3848 C 351.955 1.00769 3.31733 0
M  V30 3849 C 351.016 2.1884 3.69334 0
M  V30 3850 C 350.249 1.9444 4.9702 0
M  V30 3851 O 350.472 0.896961 5.63303 0
M  V30 3852 O 349.406 2.81093 5.32231 0
M  V30 3853 H 353.232 2.22444 2.06767 0
M  V30 3854 H 350.817 1.13795 0.968037 0
M  V30 3855 H 352.699 0.882186 4.12062 0
M  V30 3856 H 351.374 0.0773783 3.23608 0
M  V30 3857 H 350.281 2.36946 2.89495 0
M  V30 3858 H 351.614 3.10221 3.82131 0
M  V30 3859 N 353.266 -1.05314 1.17247 0
M  V30 3860 C 354.216 -2.11313 0.856196 0
M  V30 3861 C 355.2 -1.60013 -0.168694 0
M  V30 3862 O 356.392 -1.76968 0.0335624 0
M  V30 3863 C 353.521 -3.41301 0.369917 0
M  V30 3864 C 352.607 -3.99401 1.42616 0
M  V30 3865 N 352.998 -4.31481 2.63928 0
M  V30 3866 C 351.296 -4.27126 1.28373 0
M  V30 3867 C 351.997 -4.77799 3.31787 0
M  V30 3868 N 350.973 -4.77843 2.59166 0
M  V30 3869 H 354.775 -2.33976 1.77856 0
M  V30 3870 H 352.289 -1.2295 1.06099 0
M  V30 3871 H 354.286 -4.16713 0.124897 0
M  V30 3872 H 352.946 -3.20072 -0.546253 0
M  V30 3873 H 353.957 -4.21519 3.00902 0
M  V30 3874 H 350.634 -4.15289 0.429111 0
M  V30 3875 H 352.024 -5.11743 4.35395 0
M  V30 3876 N 354.744 -0.972509 -1.24016 0
M  V30 3877 C 355.993 -0.632603 -1.91523 0
M  V30 3878 C 356.306 0.836641 -1.76804 0
M  V30 3879 O 357.512 1.28728 -2.39043 0
M  V30 3880 C 355.968 -1.08082 -3.43287 0
M  V30 3881 C 355.576 -2.57386 -3.66683 0
M  V30 3882 C 357.32 -0.814288 -4.16617 0
M  V30 3883 C 355.227 -2.95915 -5.12043 0
M  V30 3884 H 354.157 -0.232898 -0.717129 0
M  V30 3885 H 356.808 -1.17936 -1.40582 0
M  V30 3886 H 355.19 -0.462339 -3.93292 0
M  V30 3887 H 356.364 -3.24405 -3.27258 0
M  V30 3888 H 354.679 -2.81701 -3.06649 0
M  V30 3889 H 357.276 -1.0781 -5.23718 0
M  V30 3890 H 357.619 0.24955 -4.15551 0
M  V30 3891 H 358.152 -1.39397 -3.72577 0
M  V30 3892 H 354.891 -4.0139 -5.18234 0
M  V30 3893 H 354.411 -2.33584 -5.52448 0
M  V30 3894 H 356.09 -2.86086 -5.80314 0
M  V30 3895 N 356.222 1.38976 -0.743202 0
M  V30 3896 C 357.447 2.05161 -0.303936 0
M  V30 3897 C 357.872 1.55677 1.05576 0
M  V30 3898 O 357.23 0.704131 1.67068 0
M  V30 3899 C 357.278 3.59138 -0.324373 0
M  V30 3900 O 356.382 4.06668 0.685204 0
M  V30 3901 H 355.723 0.649815 -0.136518 0
M  V30 3902 H 358.253 1.77852 -1.01142 0
M  V30 3903 H 358.263 4.07639 -0.171618 0
M  V30 3904 H 356.938 3.94515 -1.31647 0
M  V30 3905 H 355.515 3.69561 0.497913 0
M  V30 3906 N 357.7 0.491464 1.49741 0
M  V30 3907 C 358.977 -0.118984 1.95238 0
M  V30 3908 C 359.357 -1.55044 1.43264 0
M  V30 3909 O 358.705 -2.19287 0.642287 0
M  V30 3910 C 358.915 -0.0414187 3.48975 0
M  V30 3911 C 360.263 -0.220133 4.24029 0
M  V30 3912 O 361.287 -0.117055 3.56008 0
M  V30 3913 O 360.146 -0.430567 5.44801 0
M  V30 3914 H 357.24 -0.100536 0.820866 0
M  V30 3915 H 359.786 0.553322 1.60426 0
M  V30 3916 H 358.558 0.957214 3.79412 0
M  V30 3917 H 358.181 -0.754292 3.9038 0
M  V30 3918 N 359.178 -1.55987 0.224894 0
M  V30 3919 C 360.088 -2.24066 -0.69511 0
M  V30 3920 C 361.104 -1.24939 -1.21104 0
M  V30 3921 O 362.28 -1.5776 -1.25195 0
M  V30 3922 C 359.345 -2.90983 -1.88493 0
M  V30 3923 C 358.406 -4.05462 -1.41064 0
M  V30 3924 C 357.639 -4.69179 -2.54375 0
M  V30 3925 O 357.862 -4.31895 -3.72589 0
M  V30 3926 O 356.796 -5.58108 -2.25386 0
M  V30 3927 H 360.622 -3.03353 -0.145149 0
M  V30 3928 H 358.207 -1.49399 -0.00569476 0
M  V30 3929 H 360.089 -3.33209 -2.57972 0
M  V30 3930 H 358.764 -2.14653 -2.42293 0
M  V30 3931 H 357.671 -3.67798 -0.683774 0
M  V30 3932 H 359.004 -4.83545 -0.918985 0
M  V30 3933 N 360.656 0.0484629 -1.57525 0
M  V30 3934 C 361.603 1.05504 -2.05275 0
M  V30 3935 C 362.573 1.37084 -0.937927 0
M  V30 3936 O 363.758 1.47754 -1.2072 0
M  V30 3937 C 360.898 2.35676 -2.52093 0
M  V30 3938 C 360.011 2.10423 -3.77288 0
M  V30 3939 C 359.146 3.34327 -4.12794 0
M  V30 3940 C 358.185 3.04542 -5.30962 0
M  V30 3941 N 357.322 4.20841 -5.61994 0
M  V30 3942 H 362.162 0.640885 -2.91027 0
M  V30 3943 H 359.699 0.304854 -1.43906 0
M  V30 3944 H 361.657 3.11709 -2.77297 0
M  V30 3945 H 360.287 2.7485 -1.69285 0
M  V30 3946 H 359.339 1.24976 -3.59284 0
M  V30 3947 H 360.651 1.84438 -4.63448 0
M  V30 3948 H 359.805 4.1874 -4.39024 0
M  V30 3949 H 358.544 3.63408 -3.25247 0
M  V30 3950 H 357.549 2.18528 -5.04505 0
M  V30 3951 H 358.774 2.76758 -6.20146 0
M  V30 3952 H 356.72 4.4991 -4.77406 0
M  V30 3953 H 356.637 3.98212 -6.42622 0
M  V30 3954 H 357.905 5.06184 -5.92789 0
M  V30 3955 N 362.134 1.5431 0.320358 0
M  V30 3956 C 363.081 1.83918 1.39438 0
M  V30 3957 C 364.051 0.686525 1.51248 0
M  V30 3958 O 365.236 0.933269 1.66417 0
M  V30 3959 C 362.376 2.075 2.75749 0
M  V30 3960 C 361.489 3.35177 2.72544 0
M  V30 3961 C 360.624 3.48704 4.00723 0
M  V30 3962 C 359.663 4.70244 3.91838 0
M  V30 3963 N 358.8 4.80679 5.11754 0
M  V30 3964 H 363.64 2.75544 1.13489 0
M  V30 3965 H 361.177 1.36459 0.549309 0
M  V30 3966 H 363.135 2.19166 3.54996 0
M  V30 3967 H 361.765 1.19163 3 0
M  V30 3968 H 360.817 3.32233 1.85271 0
M  V30 3969 H 362.129 4.24534 2.61863 0
M  V30 3970 H 361.283 3.59928 4.88402 0
M  V30 3971 H 360.022 2.57445 4.14214 0
M  V30 3972 H 359.027 4.59072 3.02544 0
M  V30 3973 H 360.252 5.6289 3.7991 0
M  V30 3974 H 358.198 3.92337 5.25745 0
M  V30 3975 H 358.115 5.64007 5.0342 0
M  V30 3976 H 359.383 4.96239 6.01138 0
M  V30 3977 N 363.613 -0.582584 1.46437 0
M  V30 3978 C 364.843 -1.36484 1.55099 0
M  V30 3979 C 365.251 -1.88233 0.191056 0
M  V30 3980 O 364.594 -1.6429 -0.821858 0
M  V30 3981 C 364.656 -2.588 2.49525 0
M  V30 3982 C 364.32 -2.28517 3.95764 0
M  V30 3983 C 365.317 -1.87346 4.84972 0
M  V30 3984 C 363.002 -2.40658 4.40896 0
M  V30 3985 C 364.996 -1.5871 6.17325 0
M  V30 3986 C 362.683 -2.11635 5.73284 0
M  V30 3987 C 363.681 -1.70725 6.61318 0
M  V30 3988 O 363.369 -1.42057 7.91249 0
M  V30 3989 H 363.101 -0.423297 0.527063 0
M  V30 3990 H 365.655 -0.715188 1.92547 0
M  V30 3991 H 363.885 -3.26571 2.07095 0
M  V30 3992 H 365.574 -3.20868 2.48593 0
M  V30 3993 H 366.34 -1.77481 4.5136 0
M  V30 3994 H 362.219 -2.71463 3.72598 0
M  V30 3995 H 365.763 -1.26704 6.85997 0
M  V30 3996 H 361.66 -2.21124 6.06444 0
M  V30 3997 H 362.428 -1.55901 8.03515 0
M  V30 3998 N 365.091 -1.34144 -0.827227 0
M  V30 3999 C 366.368 -1.16844 -1.56865 0
M  V30 4000 C 366.748 0.260654 -2.09485 0
M  V30 4001 O 366.096 1.26138 -1.9053 0
M  V30 4002 C 366.306 -2.21939 -2.6934 0
M  V30 4003 C 367.654 -2.56695 -3.3822 0
M  V30 4004 O 368.678 -2.20695 -2.79593 0
M  V30 4005 O 367.537 -3.18518 -4.44082 0
M  V30 4006 H 364.631 -0.452669 -0.692112 0
M  V30 4007 H 367.177 -1.45763 -0.868973 0
M  V30 4008 H 365.949 -3.17882 -2.28182 0
M  V30 4009 H 365.572 -1.94172 -3.46962 0
M  V30 4010 N 366.569 1.04691 -1.17803 0
M  V30 4011 C 367.532 2.10724 -0.901545 0
M  V30 4012 C 368.532 1.6042 0.110437 0
M  V30 4013 O 369.722 1.7377 -0.122303 0
M  V30 4014 C 366.854 3.39084 -0.351409 0
M  V30 4015 H 368.047 2.36686 -1.84174 0
M  V30 4016 H 365.6 1.21015 -0.98919 0
M  V30 4017 H 366.335 3.18782 0.59569 0
M  V30 4018 H 366.12 3.76909 -1.08083 0
M  V30 4019 H 367.61 4.17227 -0.176451 0
M  V30 4020 N 368.047 0.979072 1.23499 0
M  V30 4021 C 368.979 0.476271 2.24197 0
M  V30 4022 C 369.992 -0.421166 1.57258 0
M  V30 4023 O 371.181 -0.225515 1.7707 0
M  V30 4024 C 368.281 -0.330503 3.37285 0
M  V30 4025 C 367.454 0.559744 4.33804 0
M  V30 4026 C 366.513 -0.192954 5.25846 0
M  V30 4027 O 365.539 0.416978 5.67671 0
M  V30 4028 N 366.741 -1.47932 5.61334 0
M  V30 4029 H 369.506 1.34211 2.67969 0
M  V30 4030 H 367.067 0.852189 1.37657 0
M  V30 4031 H 369.059 -0.842361 3.95836 0
M  V30 4032 H 367.629 -1.09734 2.92707 0
M  V30 4033 H 366.849 1.25245 3.73775 0
M  V30 4034 H 368.137 1.1665 4.95248 0
M  V30 4035 H 367.535 -1.9964 5.29302 0
M  V30 4036 H 366.092 -1.93664 6.22364 0
M  V30 4037 N 369.525 -1.3858 0.750561 0
M  V30 4038 C 370.802 -1.94231 0.231009 0
M  V30 4039 C 371.182 -1.68611 -1.27018 0
M  V30 4040 O 370.53 -1.02296 -2.04323 0
M  V30 4041 C 370.74 -3.44123 0.581428 0
M  V30 4042 C 372.088 -4.2116 0.539389 0
M  V30 4043 O 373.112 -3.52391 0.519541 0
M  V30 4044 O 371.971 -5.43749 0.54765 0
M  V30 4045 H 369.065 -0.825639 0.0474263 0
M  V30 4046 H 371.611 -1.4799 0.830478 0
M  V30 4047 H 370.383 -3.56267 1.61833 0
M  V30 4048 H 370.006 -3.97573 -0.0462047 0
M  V30 4049 N 371.003 -0.499398 -1.49478 0
M  V30 4050 C 372.249 0.0457576 -2.02748 0
M  V30 4051 C 372.582 1.36793 -1.37846 0
M  V30 4052 O 371.857 1.87596 -0.513601 0
M  V30 4053 C 372.14 0.199986 -3.59544 0
M  V30 4054 C 371.993 -1.1452 -4.34977 0
M  V30 4055 C 373.312 0.94137 -4.29914 0
M  V30 4056 H 370.431 0.0151552 -0.736844 0
M  V30 4057 H 373.073 -0.650498 -1.78518 0
M  V30 4058 H 371.223 0.793007 -3.8032 0
M  V30 4059 H 372.895 -1.77697 -4.25701 0
M  V30 4060 H 371.138 -1.73488 -3.97598 0
M  V30 4061 H 371.809 -0.990607 -5.43039 0
M  V30 4062 H 374.285 0.43844 -4.13784 0
M  V30 4063 H 373.161 1.01812 -5.39375 0
M  V30 4064 H 373.422 1.98471 -3.95046 0
M  V30 4065 N 372.481 1.55866 -0.233164 0
M  V30 4066 C 373.709 2.02998 0.399905 0
M  V30 4067 C 374.124 1.11274 1.52524 0
M  V30 4068 O 373.481 0.124528 1.82075 0
M  V30 4069 C 373.532 3.4958 0.920639 0
M  V30 4070 O 373.253 4.37808 -0.159834 0
M  V30 4071 C 374.754 4.12411 1.62578 0
M  V30 4072 H 371.974 0.664006 0.0966281 0
M  V30 4073 H 374.518 2.0143 -0.353013 0
M  V30 4074 H 372.673 3.51727 1.62379 0
M  V30 4075 H 373.087 5.23981 0.23337 0
M  V30 4076 H 374.561 5.16711 1.94201 0
M  V30 4077 H 375.038 3.5809 2.54299 0
M  V30 4078 H 375.644 4.14148 0.967553 0
M  V30 4079 N 373.959 -0.0401083 1.57549 0
M  V30 4080 C 374.889 -1.04384 2.08869 0
M  V30 4081 C 375.87 -1.38407 0.988817 0
M  V30 4082 O 377.055 -1.47483 1.26342 0
M  V30 4083 C 374.185 -2.34808 2.55895 0
M  V30 4084 C 373.139 -2.15057 3.70047 0
M  V30 4085 C 372.465 -3.51145 4.03239 0
M  V30 4086 C 373.765 -1.54576 4.98902 0
M  V30 4087 H 375.459 -0.616666 2.92981 0
M  V30 4088 H 373.005 -0.295184 1.40942 0
M  V30 4089 H 374.958 -3.05346 2.90417 0
M  V30 4090 H 373.682 -2.79565 1.68853 0
M  V30 4091 H 372.341 -1.46954 3.35857 0
M  V30 4092 H 371.989 -3.93529 3.13279 0
M  V30 4093 H 371.689 -3.38758 4.80122 0
M  V30 4094 H 373.213 -4.23062 4.40285 0
M  V30 4095 H 374.627 -2.15017 5.31451 0
M  V30 4096 H 373.024 -1.52796 5.80322 0
M  V30 4097 H 374.094 -0.51039 4.82206 0
M  V30 4098 N 375.437 -1.54477 -0.31217 0
M  V30 4099 C 376.662 -1.77526 -1.07235 0
M  V30 4100 C 377.087 -0.527775 -1.80544 0
M  V30 4101 O 376.445 0.52121 -1.73646 0
M  V30 4102 C 376.493 -2.97535 -2.03728 0
M  V30 4103 O 375.597 -2.69878 -3.11833 0
M  V30 4104 H 374.938 -0.58792 -0.30862 0
M  V30 4105 H 377.468 -2.01532 -0.352993 0
M  V30 4106 H 377.478 -3.25198 -2.46395 0
M  V30 4107 H 376.153 -3.87996 -1.49774 0
M  V30 4108 H 374.73 -2.53199 -2.7376 0
M  V30 4109 N 376.915 0.57481 -1.46744 0
M  V30 4110 C 378.164 1.32898 -1.51727 0
M  V30 4111 C 378.477 1.948 -0.176692 0
M  V30 4112 O 379.683 2.71299 -0.104385 0
M  V30 4113 C 378.139 2.40901 -2.67385 0
M  V30 4114 C 377.747 1.85266 -4.07898 0
M  V30 4115 C 379.491 3.17609 -2.81646 0
M  V30 4116 C 377.398 2.90945 -5.14883 0
M  V30 4117 H 376.328 0.499631 -0.564699 0
M  V30 4118 H 378.979 0.612536 -1.72975 0
M  V30 4119 H 377.361 3.15379 -2.39483 0
M  V30 4120 H 378.535 1.17278 -4.45626 0
M  V30 4121 H 376.85 1.21199 -3.98371 0
M  V30 4122 H 379.447 3.96493 -3.58744 0
M  V30 4123 H 379.79 3.70696 -1.89448 0
M  V30 4124 H 380.323 2.50239 -3.09233 0
M  V30 4125 H 377.062 2.42736 -6.089 0
M  V30 4126 H 376.582 3.57398 -4.81691 0
M  V30 4127 H 378.261 3.54755 -5.41071 0
M  V30 4128 N 378.394 1.34581 0.820102 0
M  V30 4129 C 379.671 1.17675 1.56244 0
M  V30 4130 C 380.051 -0.249541 2.0962 0
M  V30 4131 O 379.399 -1.25125 1.91196 0
M  V30 4132 C 379.609 2.23364 2.6816 0
M  V30 4133 C 380.957 2.58485 3.36854 0
M  V30 4134 O 381.981 2.22175 2.78418 0
M  V30 4135 O 380.84 3.20868 4.42386 0
M  V30 4136 H 377.934 0.456333 0.689702 0
M  V30 4137 H 380.48 1.46222 0.861231 0
M  V30 4138 H 379.252 3.19087 2.26493 0
M  V30 4139 H 378.875 1.96009 3.45928 0
M  V30 4140 N 379.872 -1.04064 1.18357 0
M  V30 4141 C 380.782 -2.15569 0.925596 0
M  V30 4142 C 381.798 -1.7365 -0.110295 0
M  V30 4143 O 382.974 -2.01273 0.0716218 0
M  V30 4144 C 380.039 -3.43704 0.454836 0
M  V30 4145 C 379.1 -4.00004 1.55869 0
M  V30 4146 C 378.333 -5.22023 1.1103 0
M  V30 4147 O 378.556 -5.70392 -0.0309756 0
M  V30 4148 O 377.49 -5.70856 1.90805 0
M  V30 4149 H 381.316 -2.40187 1.8586 0
M  V30 4150 H 378.901 -1.1402 0.965394 0
M  V30 4151 H 380.783 -4.20923 0.200382 0
M  V30 4152 H 379.458 -3.20559 -0.449876 0
M  V30 4153 H 378.365 -3.24172 1.86716 0
M  V30 4154 H 379.698 -4.2749 2.43953 0
M  V30 4155 N 381.35 -0.985608 -1.22978 0
M  V30 4156 C 382.297 -0.529825 -2.24636 0
M  V30 4157 C 383.267 0.434028 -1.60329 0
M  V30 4158 O 384.452 0.340414 -1.87739 0
M  V30 4159 C 381.592 0.156533 -3.44745 0
M  V30 4160 C 380.705 -0.848197 -4.23591 0
M  V30 4161 C 379.84 -0.136109 -5.31026 0
M  V30 4162 C 378.879 -1.1297 -6.01585 0
M  V30 4163 N 378.016 -0.446415 -7.00679 0
M  V30 4164 H 382.856 -1.40148 -2.62988 0
M  V30 4165 H 380.393 -0.702168 -1.29259 0
M  V30 4166 H 382.351 0.571324 -4.1327 0
M  V30 4167 H 380.981 0.992025 -3.07179 0
M  V30 4168 H 380.033 -1.38135 -3.54433 0
M  V30 4169 H 381.345 -1.60512 -4.72268 0
M  V30 4170 H 380.499 0.335784 -6.0577 0
M  V30 4171 H 379.238 0.653373 -4.83304 0
M  V30 4172 H 378.243 -1.6123 -5.25628 0
M  V30 4173 H 379.468 -1.91993 -6.51395 0
M  V30 4174 H 377.414 0.323763 -6.55201 0
M  V30 4175 H 377.331 -1.1419 -7.47326 0
M  V30 4176 H 378.599 0.00291697 -7.795 0
M  V30 4177 N 382.828 1.3818 -0.7579 0
M  V30 4178 C 383.758 2.33027 -0.148597 0
M  V30 4179 C 384.739 1.55085 0.69875 0
M  V30 4180 O 385.924 1.83384 0.639053 0
M  V30 4181 C 383.054 3.3928 0.742034 0
M  V30 4182 C 382.008 4.28 -0.00291946 0
M  V30 4183 C 381.334 5.25146 1.00625 0
M  V30 4184 C 382.634 5.08938 -1.17385 0
M  V30 4185 H 384.328 2.84231 -0.940909 0
M  V30 4186 H 381.874 1.36659 -0.453908 0
M  V30 4187 H 383.827 4.046 1.17799 0
M  V30 4188 H 382.551 2.86569 1.56671 0
M  V30 4189 H 381.21 3.64192 -0.419504 0
M  V30 4190 H 380.858 4.68721 1.8251 0
M  V30 4191 H 380.558 5.85361 0.512428 0
M  V30 4192 H 382.082 5.93342 1.44143 0
M  V30 4193 H 383.496 5.67474 -0.815224 0
M  V30 4194 H 381.893 5.7841 -1.59882 0
M  V30 4195 H 382.963 4.42424 -1.98468 0
M  V30 4196 N 384.306 0.507319 1.49211 0
M  V30 4197 C 385.238 -0.304532 2.27168 0
M  V30 4198 C 386.251 -0.924956 1.33972 0
M  V30 4199 O 387.44 -0.807227 1.59205 0
M  V30 4200 C 384.54 -1.44431 3.06583 0
M  V30 4201 C 383.713 -0.930026 4.27398 0
M  V30 4202 C 382.772 -1.94817 4.88807 0
M  V30 4203 O 381.798 -1.51418 5.4869 0
M  V30 4204 N 383 -3.279 4.79022 0
M  V30 4205 H 385.765 0.36395 2.97482 0
M  V30 4206 H 383.326 0.340249 1.58284 0
M  V30 4207 H 385.318 -2.12311 3.44537 0
M  V30 4208 H 383.888 -2.01684 2.38835 0
M  V30 4209 H 383.108 -0.0759244 3.94127 0
M  V30 4210 H 384.396 -0.564932 5.05654 0
M  V30 4211 H 383.794 -3.65843 4.3148 0
M  V30 4212 H 382.351 -3.91476 5.21142 0
M  V30 4213 N 385.784 -1.5574 0.241426 0
M  V30 4214 C 387.009 -2.0366 -0.392111 0
M  V30 4215 C 387.434 -1.11969 -1.51144 0
M  V30 4216 O 386.792 -0.111594 -1.80956 0
M  V30 4217 C 386.84 -3.49638 -0.882371 0
M  V30 4218 O 385.944 -3.6108 -1.99235 0
M  V30 4219 H 385.285 -0.658379 -0.0862122 0
M  V30 4220 H 387.815 -2.01302 0.365881 0
M  V30 4221 H 387.825 -3.90351 -1.18702 0
M  V30 4222 H 386.5 -4.15852 -0.0632361 0
M  V30 4223 H 385.077 -3.32262 -1.69282 0
M  V30 4224 N 387.262 0.0317525 -1.57568 0
M  V30 4225 C 388.195 1.06621 -2.0176 0
M  V30 4226 C 389.173 1.35323 -0.901462 0
M  V30 4227 O 390.357 1.48025 -1.16708 0
M  V30 4228 C 387.484 2.40155 -2.38837 0
M  V30 4229 C 386.53 2.27327 -3.60867 0
M  V30 4230 S 387.363 1.62925 -5.10113 0
M  V30 4231 C 388.519 2.97955 -5.5043 0
M  V30 4232 H 388.752 0.689781 -2.89187 0
M  V30 4233 H 386.285 0.24164 -1.52497 0
M  V30 4234 H 388.243 3.1695 -2.6087 0
M  V30 4235 H 386.904 2.74946 -1.51867 0
M  V30 4236 H 386.097 3.25898 -3.84456 0
M  V30 4237 H 385.699 1.58675 -3.38671 0
M  V30 4238 H 387.991 3.94285 -5.5095 0
M  V30 4239 H 388.934 2.79102 -6.50775 0
M  V30 4240 H 389.342 3.00404 -4.77931 0
M  V30 4241 N 388.74 1.54641 0.303973 0
M  V30 4242 C 389.986 1.74038 1.04109 0
M  V30 4243 C 390.319 0.523051 1.87024 0
M  V30 4244 O 389.594 -0.479874 1.88487 0
M  V30 4245 C 389.877 3.02761 1.94955 0
M  V30 4246 C 389.73 4.34787 1.1524 0
M  V30 4247 C 391.049 3.27336 2.94175 0
M  V30 4248 H 388.168 0.63323 0.377079 0
M  V30 4249 H 390.81 1.87354 0.316001 0
M  V30 4250 H 388.96 2.9154 2.56782 0
M  V30 4251 H 390.632 4.57922 0.557236 0
M  V30 4252 H 388.875 4.31407 0.455053 0
M  V30 4253 H 389.546 5.21116 1.8205 0
M  V30 4254 H 392.022 3.38148 2.42477 0
M  V30 4255 H 390.898 4.18726 3.54908 0
M  V30 4256 H 391.159 2.45491 3.67677 0
M  V30 4257 N 390.218 -0.567019 1.47046 0
M  V30 4258 C 391.448 -1.34831 1.56538 0
M  V30 4259 C 391.856 -1.8802 0.21101 0
M  V30 4260 O 391.199 -1.65152 -0.804387 0
M  V30 4261 C 391.261 -2.56139 2.52256 0
M  V30 4262 C 390.925 -2.24307 3.98165 0
M  V30 4263 C 391.922 -1.82192 4.86931 0
M  V30 4264 C 389.607 -2.35968 4.43423 0
M  V30 4265 C 391.601 -1.52153 6.18973 0
M  V30 4266 C 389.288 -2.05542 5.75496 0
M  V30 4267 C 390.286 -1.63701 6.63092 0
M  V30 4268 O 389.974 -1.33657 7.92711 0
M  V30 4269 H 389.706 -0.417683 0.531523 0
M  V30 4270 H 392.26 -0.694726 1.93294 0
M  V30 4271 H 390.49 -3.24356 2.10548 0
M  V30 4272 H 392.179 -3.18214 2.51982 0
M  V30 4273 H 392.945 -1.72684 4.53217 0
M  V30 4274 H 388.824 -2.67495 3.75456 0
M  V30 4275 H 392.368 -1.19421 6.87302 0
M  V30 4276 H 388.265 -2.14679 6.08755 0
M  V30 4277 H 389.033 -1.4737 8.05124 0
M  V30 4278 N 391.696 -1.35014 -0.812953 0
M  V30 4279 C 393.112 -1.14914 -1.10757 0
M  V30 4280 C 393.312 0.0426818 -2.01455 0
M  V30 4281 O 392.368 0.715212 -2.42159 0
M  V30 4282 C 393.681 -2.44911 -1.74468 0
M  V30 4283 C 395.229 -2.5106 -1.86917 0
M  V30 4284 C 395.704 -3.81085 -2.54044 0
M  V30 4285 N 397.195 -3.82301 -2.61535 0
M  V30 4286 C 397.93 -4.79634 -3.14227 0
M  V30 4287 N 397.426 -5.87353 -3.67407 0
M  V30 4288 N 399.219 -4.67078 -3.12721 0
M  V30 4289 H 391.37 -2.1136 -0.20989 0
M  V30 4290 H 393.633 -0.935128 -0.155692 0
M  V30 4291 H 393.339 -3.32267 -1.15289 0
M  V30 4292 H 393.213 -2.58989 -2.74234 0
M  V30 4293 H 395.6 -1.64137 -2.45241 0
M  V30 4294 H 395.681 -2.40901 -0.860242 0
M  V30 4295 H 395.325 -4.68402 -1.96372 0
M  V30 4296 H 395.255 -3.88529 -3.55461 0
M  V30 4297 H 397.746 -3.04465 -2.23851 0
M  V30 4298 H 398.059 -6.57624 -4.05894 0
M  V30 4299 H 396.404 -5.91054 -3.65623 0
M  V30 4300 H 399.595 -3.82067 -2.70449 0
M  V30 4301 H 399.768 -5.43098 -3.53481 0
M  V30 4302 N 393.175 1.03435 -1.18907 0
M  V30 4303 C 394.085 2.15075 -0.937015 0
M  V30 4304 C 395.101 1.73706 0.101085 0
M  V30 4305 O 396.277 2.01232 -0.0822948 0
M  V30 4306 C 393.342 3.43458 -0.473057 0
M  V30 4307 C 392.403 3.99172 -1.57989 0
M  V30 4308 C 391.636 5.21427 -1.13797 0
M  V30 4309 O 391.859 5.704 0.000725941 0
M  V30 4310 O 390.793 5.69837 -1.9383 0
M  V30 4311 H 394.619 2.39198 -1.87131 0
M  V30 4312 H 392.204 1.13506 -0.971427 0
M  V30 4313 H 394.086 4.20811 -0.222702 0
M  V30 4314 H 392.761 3.20793 0.432869 0
M  V30 4315 H 391.668 3.23178 -1.88433 0
M  V30 4316 H 393.001 4.2619 -2.46217 0
M  V30 4317 N 394.653 0.992116 1.22453 0
M  V30 4318 C 395.902 0.662992 1.90492 0
M  V30 4319 C 396.215 -0.808407 1.78113 0
M  V30 4320 O 397.421 -1.24908 2.41061 0
M  V30 4321 C 395.877 1.1353 3.41524 0
M  V30 4322 C 395.485 2.63187 3.62542 0
M  V30 4323 C 397.229 0.880465 4.15269 0
M  V30 4324 C 395.136 3.04024 5.0727 0
M  V30 4325 H 394.066 0.244278 0.713333 0
M  V30 4326 H 396.717 1.20157 1.38688 0
M  V30 4327 H 395.099 0.52485 3.92506 0
M  V30 4328 H 396.273 3.2957 3.22056 0
M  V30 4329 H 394.588 2.86543 3.02129 0
M  V30 4330 H 397.185 1.16128 5.21937 0
M  V30 4331 H 397.528 -0.183408 4.15896 0
M  V30 4332 H 398.061 1.45307 3.70312 0
M  V30 4333 H 394.8 4.09584 5.11782 0
M  V30 4334 H 394.32 2.42343 5.48662 0
M  V30 4335 H 395.999 2.95282 5.75689 0
M  V30 4336 N 396.131 -1.37776 0.765217 0
M  V30 4337 C 397.078 -2.30342 0.145274 0
M  V30 4338 C 398.048 -1.5077 -0.696971 0
M  V30 4339 O 399.233 -1.79362 -0.650689 0
M  V30 4340 C 396.373 -3.37227 -0.732939 0
M  V30 4341 C 395.486 -4.31819 0.125199 0
M  V30 4342 C 394.621 -5.25777 -0.757107 0
M  V30 4343 C 393.66 -6.12012 0.103963 0
M  V30 4344 N 392.797 -6.98232 -0.735953 0
M  V30 4345 H 397.637 -2.8278 0.940195 0
M  V30 4346 H 395.174 -1.39211 0.475255 0
M  V30 4347 H 397.132 -3.97818 -1.25686 0
M  V30 4348 H 395.762 -2.86171 -1.49353 0
M  V30 4349 H 394.814 -3.7259 0.766865 0
M  V30 4350 H 396.126 -4.92509 0.789683 0
M  V30 4351 H 395.28 -5.91541 -1.34776 0
M  V30 4352 H 394.019 -4.65481 -1.45529 0
M  V30 4353 H 393.024 -5.45233 0.707197 0
M  V30 4354 H 394.249 -6.74379 0.799381 0
M  V30 4355 H 392.195 -6.40472 -1.41887 0
M  V30 4356 H 392.112 -7.55891 -0.128624 0
M  V30 4357 H 393.38 -7.68393 -1.31121 0
M  V30 4358 N 397.609 -0.515225 -1.4894 0
M  V30 4359 C 398.556 0.255567 -2.29381 0
M  V30 4360 C 399.526 0.947387 -1.36432 0
M  V30 4361 O 400.711 0.951288 -1.65394 0
M  V30 4362 C 397.851 1.30551 -3.19453 0
M  V30 4363 C 396.964 0.624029 -4.27469 0
M  V30 4364 C 396.099 1.65563 -5.0474 0
M  V30 4365 C 395.138 0.956802 -6.04576 0
M  V30 4366 N 394.275 1.93326 -6.74959 0
M  V30 4367 H 399.115 -0.436607 -2.94784 0
M  V30 4368 H 396.652 -0.227154 -1.45336 0
M  V30 4369 H 398.61 1.92639 -3.70062 0
M  V30 4370 H 397.24 1.96626 -2.56004 0
M  V30 4371 H 396.292 -0.110459 -3.8024 0
M  V30 4372 H 397.604 0.0746092 -4.98744 0
M  V30 4373 H 396.758 2.35119 -5.59289 0
M  V30 4374 H 395.497 2.23893 -4.3327 0
M  V30 4375 H 394.502 0.247097 -5.49244 0
M  V30 4376 H 395.727 0.379814 -6.78037 0
M  V30 4377 H 393.673 2.50591 -6.06251 0
M  V30 4378 H 393.59 1.43489 -7.42258 0
M  V30 4379 H 394.858 2.62126 -7.34105 0
M  V30 4380 N 399.087 1.5561 -0.249682 0
M  V30 4381 C 400.05 2.20217 0.635394 0
M  V30 4382 C 401.05 1.17227 1.10066 0
M  V30 4383 O 402.24 1.42292 1.00492 0
M  V30 4384 C 399.372 2.84794 1.87363 0
M  V30 4385 H 400.565 2.99814 0.0716752 0
M  V30 4386 H 398.118 1.563 -0.000153234 0
M  V30 4387 H 398.853 2.09142 2.47851 0
M  V30 4388 H 398.638 3.60241 1.5482 0
M  V30 4389 H 400.128 3.3423 2.5036 0
M  V30 4390 N 400.565 -0.0233959 1.57583 0
M  V30 4391 C 401.811 -0.714119 1.89811 0
M  V30 4392 C 402.144 -1.74702 0.848113 0
M  V30 4393 O 401.419 -1.94023 -0.136135 0
M  V30 4394 C 401.702 -1.37853 3.32669 0
M  V30 4395 C 401.555 -0.358764 4.48367 0
M  V30 4396 C 402.874 -2.31101 3.7454 0
M  V30 4397 H 399.993 -0.25814 0.690314 0
M  V30 4398 H 402.635 0.0230927 1.89986 0
M  V30 4399 H 400.785 -2.00689 3.3265 0
M  V30 4400 H 402.457 0.268115 4.6052 0
M  V30 4401 H 400.7 0.321387 4.32608 0
M  V30 4402 H 401.371 -0.862242 5.45224 0
M  V30 4403 H 403.847 -1.78304 3.75961 0
M  V30 4404 H 402.723 -2.74567 4.75294 0
M  V30 4405 H 402.984 -3.18018 3.0711 0
M  V30 4406 N 402.043 -1.548 -0.295768 0
M  V30 4407 C 403.268 -1.78653 -1.05346 0
M  V30 4408 C 403.693 -0.546894 -1.79974 0
M  V30 4409 O 403.051 0.502763 -1.7419 0
M  V30 4410 C 403.099 -2.99679 -2.00561 0
M  V30 4411 O 402.203 -2.7317 -3.08953 0
M  V30 4412 H 401.544 -0.59116 -0.302367 0
M  V30 4413 H 404.074 -2.01895 -0.331598 0
M  V30 4414 H 404.084 -3.27793 -2.42932 0
M  V30 4415 H 402.759 -3.89562 -1.4565 0
M  V30 4416 H 401.336 -2.56089 -2.71059 0
M  V30 4417 N 403.521 0.559213 -1.47345 0
M  V30 4418 C 404.431 1.69388 -1.62311 0
M  V30 4419 C 405.447 1.6648 -0.505993 0
M  V30 4420 O 406.623 1.85964 -0.773262 0
M  V30 4421 C 403.688 3.05894 -1.63185 0
M  V30 4422 C 402.749 3.19885 -2.86307 0
M  V30 4423 C 401.982 4.49879 -2.87131 0
M  V30 4424 O 402.205 5.35217 -1.97229 0
M  V30 4425 O 401.139 4.67618 -3.78968 0
M  V30 4426 H 404.965 1.59706 -2.58317 0
M  V30 4427 H 402.55 0.728989 -1.30407 0
M  V30 4428 H 404.432 3.87133 -1.66451 0
M  V30 4429 H 403.107 3.15964 -0.70345 0
M  V30 4430 H 402.014 2.38052 -2.88587 0
M  V30 4431 H 403.347 3.14718 -3.78435 0
M  V30 4432 N 404.999 1.35443 0.805782 0
M  V30 4433 C 405.947 1.28465 1.93906 0
M  V30 4434 C 406.941 0.17943 1.68447 0
M  V30 4435 O 408.147 0.345459 1.76654 0
M  V30 4436 H 404.522 0.399528 0.637088 0
M  V30 4437 H 406.493 2.24206 1.96912 0
M  V30 4438 C 405.242 1.07432 3.30687 0
M  V30 4439 H 404.565 1.91716 3.50835 0
M  V30 4440 H 406.005 1.06591 4.10383 0
M  V30 4441 C 404.464 -0.22179 3.36169 0
M  V30 4442 O 404.994 -1.21731 3.82811 0
M  V30 4443 N 403.2 -0.260841 2.89427 0
M  V30 4444 H 402.747 0.549884 2.51663 0
M  V30 4445 H 402.705 -1.12777 2.93477 0
M  V30 4446 N 406.477 -1.02803 1.19454 0
M  V30 4447 C 407.425 -2.13213 0.929673 0
M  V30 4448 C 408.419 -1.69011 -0.114806 0
M  V30 4449 O 409.625 -1.79967 0.0345147 0
M  V30 4450 H 406 -0.69662 0.28324 0
M  V30 4451 H 407.971 -2.32744 1.86743 0
M  V30 4452 C 406.72 -3.4429 0.485797 0
M  V30 4453 H 406.043 -3.7872 1.28105 0
M  V30 4454 H 407.483 -4.22638 0.339582 0
M  V30 4455 C 405.942 -3.27258 -0.800244 0
M  V30 4456 O 406.472 -3.55967 -1.86146 0
M  V30 4457 N 404.678 -2.80545 -0.75781 0
M  V30 4458 H 404.225 -2.57382 0.106039 0
M  V30 4459 H 404.183 -2.6953 -1.61867 0
M  V30 4460 N 407.956 -0.998596 -1.21925 0
M  V30 4461 C 408.919 -0.558679 -2.22287 0
M  V30 4462 C 409.919 0.361525 -1.56683 0
M  V30 4463 O 411.109 0.152695 -1.73529 0
M  V30 4464 C 408.241 0.18661 -3.40389 0
M  V30 4465 H 409.434 -1.4463 -2.62721 0
M  V30 4466 H 406.987 -0.786413 -1.35075 0
M  V30 4467 H 407.722 1.08996 -3.05435 0
M  V30 4468 H 407.507 -0.474188 -3.89222 0
M  V30 4469 H 408.997 0.482367 -4.14805 0
M  V30 4470 N 409.434 1.37368 -0.772513 0
M  V30 4471 C 410.344 2.34053 -0.160081 0
M  V30 4472 C 411.36 1.60216 0.678728 0
M  V30 4473 O 412.536 1.92303 0.59847 0
M  V30 4474 C 409.601 3.3939 0.708182 0
M  V30 4475 C 408.662 4.29048 -0.147172 0
M  V30 4476 C 407.895 5.29354 0.679744 0
M  V30 4477 O 408.118 5.3723 1.91678 0
M  V30 4478 O 407.052 6.01835 0.0885444 0
M  V30 4479 H 410.878 2.88159 -0.959053 0
M  V30 4480 H 408.463 1.39543 -0.533685 0
M  V30 4481 H 410.345 4.03839 1.20384 0
M  V30 4482 H 409.02 2.8761 1.48533 0
M  V30 4483 H 407.927 3.67697 -0.689205 0
M  V30 4484 H 409.26 4.84134 -0.887423 0
M  V30 4485 N 410.912 0.523116 1.48665 0
M  V30 4486 C 412.137 -0.0117284 2.07397 0
M  V30 4487 C 412.562 -1.28031 1.37803 0
M  V30 4488 O 411.92 -1.75836 0.441762 0
M  V30 4489 C 411.968 -0.225786 3.59892 0
M  V30 4490 O 411.072 -1.29592 3.91509 0
M  V30 4491 H 410.413 0.0360673 0.66302 0
M  V30 4492 H 412.943 0.729066 1.9117 0
M  V30 4493 H 412.953 -0.450552 4.05505 0
M  V30 4494 H 411.628 0.700944 4.09951 0
M  V30 4495 H 410.205 -1.05436 3.57684 0
M  V30 4496 N 412.39 -1.55475 0.257931 0
M  V30 4497 C 413.638 -1.98813 -0.363009 0
M  V30 4498 C 413.959 -1.14757 -1.57657 0
M  V30 4499 O 413.229 -0.232956 -1.9451 0
M  V30 4500 H 411.809 -0.734308 -0.137113 0
M  V30 4501 H 414.471 -1.9156 0.359281 0
M  V30 4502 H 413.567 -3.04941 -0.664634 0
M  V30 4503 N 413.868 0.0150385 -1.57593 0
M  V30 4504 C 415.096 0.714395 -1.94175 0
M  V30 4505 C 415.511 1.68135 -0.858841 0
M  V30 4506 O 414.868 1.81766 0.163567 0
M  V30 4507 C 414.919 1.45933 -3.30735 0
M  V30 4508 O 414.64 0.531167 -4.34868 0
M  V30 4509 C 416.141 2.25456 -3.81686 0
M  V30 4510 H 413.361 0.199923 -0.640525 0
M  V30 4511 H 415.905 -0.0316096 -2.04476 0
M  V30 4512 H 414.06 2.15709 -3.21789 0
M  V30 4513 H 414.474 1.05509 -5.13778 0
M  V30 4514 H 415.948 2.731 -4.79709 0
M  V30 4515 H 416.425 3.07485 -3.13607 0
M  V30 4516 H 417.031 1.60727 -3.9376 0
M  V30 4517 N 415.346 1.54954 0.287554 0
M  V30 4518 C 416.309 1.86076 1.33823 0
M  V30 4519 C 417.309 0.734414 1.43049 0
M  V30 4520 O 418.499 1.00266 1.42452 0
M  V30 4521 C 415.631 2.05305 2.72144 0
M  V30 4522 H 416.824 2.79984 1.07465 0
M  V30 4523 H 414.377 1.47223 0.524902 0
M  V30 4524 H 415.112 1.1373 3.03704 0
M  V30 4525 H 414.897 2.873 2.66836 0
M  V30 4526 H 416.387 2.30706 3.48087 0
M  V30 4527 N 416.824 -0.551391 1.4764 0
M  V30 4528 C 418.07 -1.31024 1.54792 0
M  V30 4529 C 418.403 -1.9304 0.211967 0
M  V30 4530 O 417.678 -1.78175 -0.77999 0
M  V30 4531 C 417.961 -2.41593 2.67029 0
M  V30 4532 C 417.814 -1.84408 4.10261 0
M  V30 4533 C 419.133 -3.43488 2.75143 0
M  V30 4534 H 416.252 -0.475031 0.563485 0
M  V30 4535 H 418.894 -0.616454 1.79722 0
M  V30 4536 H 417.044 -3.00772 2.45904 0
M  V30 4537 H 418.716 -1.29445 4.42766 0
M  V30 4538 H 416.959 -1.15051 4.18265 0
M  V30 4539 H 417.63 -2.64367 4.84576 0
M  V30 4540 H 420.106 -2.94236 2.94218 0
M  V30 4541 H 418.982 -4.18274 3.55441 0
M  V30 4542 H 419.243 -4.02703 1.82435 0
M  V30 4543 N 418.302 -1.35869 -0.798587 0
M  V30 4544 C 419.232 -1.32118 -1.92528 0
M  V30 4545 C 420.213 -0.194209 -1.68988 0
M  V30 4546 O 421.398 -0.390426 -1.90235 0
M  V30 4547 C 418.528 -1.10047 -3.29404 0
M  V30 4548 C 417.482 -2.19471 -3.67446 0
M  V30 4549 C 416.808 -1.82555 -5.02571 0
M  V30 4550 C 418.108 -3.61495 -3.76987 0
M  V30 4551 H 419.802 -2.26394 -1.95924 0
M  V30 4552 H 417.348 -1.08981 -0.94123 0
M  V30 4553 H 419.301 -1.06061 -4.07835 0
M  V30 4554 H 418.025 -0.122195 -3.26371 0
M  V30 4555 H 416.684 -2.22568 -2.91306 0
M  V30 4556 H 416.332 -0.833249 -4.9605 0
M  V30 4557 H 416.032 -2.5581 -5.28995 0
M  V30 4558 H 417.556 -1.80108 -5.83432 0
M  V30 4559 H 418.97 -3.60676 -4.4563 0
M  V30 4560 H 417.367 -4.33577 -4.14887 0
M  V30 4561 H 418.437 -3.97065 -2.78329 0
M  V30 4562 N 419.78 1.02168 -1.19998 0
M  V30 4563 C 421.026 1.75945 -1.00852 0
M  V30 4564 C 421.359 1.88702 0.458828 0
M  V30 4565 O 420.634 1.40911 1.34069 0
M  V30 4566 C 420.917 3.18154 -1.68671 0
M  V30 4567 C 420.77 3.13224 -3.22817 0
M  V30 4568 C 422.089 4.16711 -1.41561 0
M  V30 4569 H 419.208 0.638673 -0.367785 0
M  V30 4570 H 421.85 1.19222 -1.4794 0
M  V30 4571 H 420 3.66586 -1.28636 0
M  V30 4572 H 421.672 2.72635 -3.72112 0
M  V30 4573 H 419.915 2.50751 -3.53986 0
M  V30 4574 H 420.586 4.13728 -3.65422 0
M  V30 4575 H 423.062 3.76913 -1.76284 0
M  V30 4576 H 421.938 5.14391 -1.91553 0
M  V30 4577 H 422.199 4.40774 -0.342193 0
M  V30 4578 N 421.258 1.00505 1.21394 0
M  V30 4579 C 422.535 0.603277 1.86064 0
M  V30 4580 C 422.915 -0.919095 1.90042 0
M  V30 4581 O 422.263 -1.80607 1.39977 0
M  V30 4582 C 422.473 1.23772 3.26315 0
M  V30 4583 C 423.821 1.34586 4.02705 0
M  V30 4584 O 424.845 1.19304 3.35626 0
M  V30 4585 O 423.704 1.59169 5.22807 0
M  V30 4586 H 420.798 0.206634 0.800769 0
M  V30 4587 H 423.344 1.1017 1.29076 0
M  V30 4588 H 422.116 2.27848 3.18121 0
M  V30 4589 H 421.739 0.725648 3.90922 0
M  V30 4590 N 422.737 -1.36956 0.779787 0
M  V30 4591 C 423.983 -1.99787 0.348281 0
M  V30 4592 C 424.316 -1.61756 -1.07465 0
M  V30 4593 O 423.591 -0.867639 -1.74075 0
M  V30 4594 C 423.874 -3.56597 0.50104 0
M  V30 4595 C 423.727 -4.04513 1.96697 0
M  V30 4596 C 425.046 -4.40008 -0.0898097 0
M  V30 4597 H 422.165 -0.725796 0.128022 0
M  V30 4598 H 424.807 -1.62514 0.984331 0
M  V30 4599 H 422.957 -3.88479 -0.0404347 0
M  V30 4600 H 424.629 -3.83161 2.56876 0
M  V30 4601 H 422.872 -3.56408 2.47297 0
M  V30 4602 H 423.543 -5.1352 2.02486 0
M  V30 4603 H 426.019 -4.14431 0.372293 0
M  V30 4604 H 424.895 -5.4888 0.0471605 0
M  V30 4605 H 425.156 -4.26035 -1.18096 0
M  V30 4606 N 424.215 -0.530993 -1.48385 0
M  V30 4607 C 425.631 -0.188919 -1.58478 0
M  V30 4608 C 425.831 1.30786 -1.53288 0
M  V30 4609 O 424.887 2.08619 -1.42248 0
M  V30 4610 C 426.2 -0.792343 -2.90073 0
M  V30 4611 C 427.748 -0.76117 -3.03604 0
M  V30 4612 C 428.223 -1.34319 -4.37861 0
M  V30 4613 N 429.714 -1.3052 -4.44431 0
M  V30 4614 C 430.449 -1.72543 -5.46824 0
M  V30 4615 N 429.945 -2.22299 -6.56167 0
M  V30 4616 N 431.738 -1.63773 -5.37712 0
M  V30 4617 H 423.889 -1.50377 -1.50002 0
M  V30 4618 H 426.152 -0.625559 -0.712306 0
M  V30 4619 H 425.858 -1.84323 -2.99529 0
M  V30 4620 H 425.732 -0.270026 -3.76232 0
M  V30 4621 H 428.119 0.280957 -2.93759 0
M  V30 4622 H 428.2 -1.32097 -2.19053 0
M  V30 4623 H 427.844 -2.38425 -4.4846 0
M  V30 4624 H 427.774 -0.759064 -5.21101 0
M  V30 4625 H 430.265 -0.940973 -3.65997 0
M  V30 4626 H 430.578 -2.52356 -7.30436 0
M  V30 4627 H 428.923 -2.26293 -6.57127 0
M  V30 4628 H 432.114 -1.24698 -4.51185 0
M  V30 4629 H 432.287 -1.96844 -6.17379 0
M  V30 4630 N 425.693 1.55336 -0.266172 0
M  V30 4631 C 426.921 2.03801 0.356756 0
M  V30 4632 C 427.336 1.14485 1.50129 0
M  V30 4633 O 426.693 0.163121 1.8177 0
M  V30 4634 C 426.744 3.51455 0.846281 0
M  V30 4635 O 426.465 4.37371 -0.252663 0
M  V30 4636 C 427.966 4.15767 1.53794 0
M  V30 4637 H 425.186 0.665906 0.0825218 0
M  V30 4638 H 427.73 2.00636 -0.39566 0
M  V30 4639 H 425.885 3.55092 1.54881 0
M  V30 4640 H 426.299 5.24358 0.122173 0
M  V30 4641 H 427.773 5.20714 1.83198 0
M  V30 4642 H 428.25 3.63404 2.46646 0
M  V30 4643 H 428.856 4.16107 0.879488 0
M  V30 4644 N 427.171 -0.0066808 1.57599 0
M  V30 4645 C 428.419 -0.691552 1.899 0
M  V30 4646 C 428.74 -1.74682 0.866672 0
M  V30 4647 O 428.01 -1.95661 -0.0968189 0
M  V30 4648 H 426.59 -0.258416 0.700878 0
M  V30 4649 H 429.252 0.0326655 1.94873 0
M  V30 4650 H 428.348 -1.16702 2.8946 0
M  V30 4651 N 428.649 -1.55105 -0.279332 0
M  V30 4652 C 429.559 -1.90638 -1.36727 0
M  V30 4653 C 430.575 -0.802899 -1.54368 0
M  V30 4654 O 431.751 -1.10138 -1.68616 0
M  V30 4655 C 428.816 -2.16547 -2.70755 0
M  V30 4656 C 427.877 -3.40146 -2.61915 0
M  V30 4657 C 427.11 -3.6481 -3.8955 0
M  V30 4658 O 427.333 -2.92095 -4.89935 0
M  V30 4659 O 426.267 -4.58343 -3.90135 0
M  V30 4660 H 430.093 -2.83237 -1.09591 0
M  V30 4661 H 427.678 -1.4157 -0.477306 0
M  V30 4662 H 429.56 -2.34665 -3.50014 0
M  V30 4663 H 428.235 -1.27131 -2.9769 0
M  V30 4664 H 427.142 -3.2737 -1.81052 0
M  V30 4665 H 428.475 -4.29761 -2.3993 0
M  V30 4666 N 430.127 0.543554 -1.4793 0
M  V30 4667 C 431.373 1.30201 -1.55485 0
M  V30 4668 C 431.706 1.92925 -0.222201 0
M  V30 4669 O 430.981 1.78586 0.77053 0
M  V30 4670 C 431.264 2.40174 -2.68307 0
M  V30 4671 C 431.117 1.8223 -4.11233 0
M  V30 4672 C 432.436 3.42024 -2.76961 0
M  V30 4673 H 429.555 0.472036 -0.565996 0
M  V30 4674 H 432.197 0.606914 -1.80046 0
M  V30 4675 H 430.347 2.99463 -2.47495 0
M  V30 4676 H 432.019 1.27096 -4.43446 0
M  V30 4677 H 430.262 1.12832 -4.18869 0
M  V30 4678 H 430.933 2.61793 -4.85972 0
M  V30 4679 H 433.409 2.92672 -2.95774 0
M  V30 4680 H 432.285 4.16383 -3.57654 0
M  V30 4681 H 432.546 4.0173 -1.84568 0
M  V30 4682 N 431.605 1.3629 0.791371 0
M  V30 4683 C 432.535 1.33137 1.91825 0
M  V30 4684 C 433.516 0.203168 1.68882 0
M  V30 4685 O 434.701 0.400509 1.90025 0
M  V30 4686 C 431.831 1.11793 3.28816 0
M  V30 4687 C 430.785 2.21417 3.66277 0
M  V30 4688 C 430.111 1.85218 5.01596 0
M  V30 4689 C 431.411 3.63489 3.75064 0
M  V30 4690 H 433.105 2.2743 1.9472 0
M  V30 4691 H 430.651 1.09479 0.935437 0
M  V30 4692 H 432.604 1.08222 4.07266 0
M  V30 4693 H 431.328 0.139501 3.26302 0
M  V30 4694 H 429.987 2.2411 2.90121 0
M  V30 4695 H 429.635 0.859544 4.95602 0
M  V30 4696 H 429.335 2.58611 5.27631 0
M  V30 4697 H 430.859 1.832 5.82469 0
M  V30 4698 H 432.273 3.63034 4.43711 0
M  V30 4699 H 430.67 4.35771 4.12582 0
M  V30 4700 H 431.74 3.98536 2.76219 0
M  V30 4701 N 433.083 -1.0153 1.20538 0
M  V30 4702 C 434.046 -2.0826 0.957098 0
M  V30 4703 C 435.046 -1.60657 -0.0678655 0
M  V30 4704 O 436.236 -1.73385 0.168332 0
M  V30 4705 C 433.368 -3.38033 0.441188 0
M  V30 4706 H 434.561 -2.31719 1.90384 0
M  V30 4707 H 432.114 -1.1835 1.02093 0
M  V30 4708 H 432.849 -3.20249 -0.510961 0
M  V30 4709 H 432.634 -3.73911 1.18038 0
M  V30 4710 H 434.124 -4.16613 0.287009 0
M  V30 4711 N 434.561 -1.01147 -1.20859 0
M  V30 4712 C 435.494 -0.522108 -2.22147 0
M  V30 4713 C 436.472 0.427686 -1.56874 0
M  V30 4714 O 437.656 0.34889 -1.85243 0
M  V30 4715 C 434.783 0.240819 -3.37843 0
M  V30 4716 C 433.829 -0.657752 -4.21398 0
M  V30 4717 S 434.662 -2.12393 -4.91578 0
M  V30 4718 C 435.818 -1.37102 -6.10699 0
M  V30 4719 H 436.051 -1.38035 -2.63313 0
M  V30 4720 H 433.584 -0.819941 -1.30829 0
M  V30 4721 H 435.542 0.674908 -4.04914 0
M  V30 4722 H 434.203 1.07457 -2.95147 0
M  V30 4723 H 433.396 -0.0697456 -5.03952 0
M  V30 4724 H 432.998 -1.0294 -3.59555 0
M  V30 4725 H 435.29 -0.648315 -6.74391 0
M  V30 4726 H 436.233 -2.17252 -6.73949 0
M  V30 4727 H 436.641 -0.876154 -5.57659 0
M  V30 4728 N 436.039 1.36541 -0.78704 0
M  V30 4729 C 437.002 2.28413 -0.189778 0
M  V30 4730 C 438.002 1.48719 0.611499 0
M  V30 4731 O 439.192 1.68737 0.432842 0
M  V30 4732 C 436.324 3.32824 0.737638 0
M  V30 4733 H 437.517 2.82743 -0.999831 0
M  V30 4734 H 435.07 1.46065 -0.556298 0
M  V30 4735 H 435.805 2.83646 1.57212 0
M  V30 4736 H 435.59 3.91752 0.165044 0
M  V30 4737 H 437.08 4.0144 1.15047 0
M  V30 4738 N 437.518 0.538854 1.48102 0
M  V30 4739 C 438.746 0.0123136 2.06896 0
M  V30 4740 C 439.161 -1.27312 1.39417 0
M  V30 4741 O 438.518 -1.75949 0.484582 0
M  V30 4742 C 438.569 -0.206118 3.60912 0
M  V30 4743 O 438.29 1.0284 4.25859 0
M  V30 4744 C 439.791 -0.772033 4.36526 0
M  V30 4745 H 437.011 0.0375239 0.66995 0
M  V30 4746 H 439.555 0.747032 1.90367 0
M  V30 4747 H 437.71 -0.89091 3.77017 0
M  V30 4748 H 438.124 0.814654 5.18135 0
M  V30 4749 H 439.598 -0.874251 5.45033 0
M  V30 4750 H 440.075 -1.77904 4.01555 0
M  V30 4751 H 440.681 -0.123526 4.25121 0
M  V30 4752 N 438.996 -1.55193 0.274407 0
M  V30 4753 C 439.959 -2.212 -0.600279 0
M  V30 4754 C 440.959 -1.18963 -1.08187 0
M  V30 4755 O 442.149 -1.43873 -0.982158 0
M  V30 4756 C 439.281 -2.87739 -1.82809 0
M  V30 4757 H 440.474 -2.9989 -0.0239682 0
M  V30 4758 H 438.027 -1.5628 0.0250192 0
M  V30 4759 H 438.762 -2.13058 -2.44493 0
M  V30 4760 H 438.547 -3.62658 -1.49069 0
M  V30 4761 H 440.037 -3.38171 -2.45011 0
M  V30 4762 N 440.474 -0.00167713 -1.576 0
M  V30 4763 C 441.885 0.54091 -1.78693 0
M  V30 4764 C 442.236 1.7386 -0.909247 0
M  V30 4765 O 441.361 2.16109 -0.112176 0
M  V30 4766 C 441.956 0.98806 -3.24072 0
M  V30 4767 C 440.515 1.47594 -3.46256 0
M  V30 4768 C 439.662 0.42792 -2.73978 0
M  V30 4769 H 442.613 -0.22784 -1.57056 0
M  V30 4770 H 442.634 1.85398 -3.32277 0
M  V30 4771 H 442.146 0.116164 -3.87926 0
M  V30 4772 H 440.247 2.36868 -2.87618 0
M  V30 4773 H 440.36 1.50225 -4.54939 0
M  V30 4774 H 438.724 0.889934 -2.38647 0
M  V30 4775 H 439.507 -0.435038 -3.40532 0
M  V30 4776 N 441.952 1.55251 0.271103 0
M  V30 4777 C 443.177 1.80306 1.02491 0
M  V30 4778 C 443.602 0.575457 1.79081 0
M  V30 4779 O 442.96 -0.474987 1.74967 0
M  V30 4780 C 443.008 3.02832 1.95768 0
M  V30 4781 O 442.112 2.78051 3.04568 0
M  V30 4782 H 441.453 0.595896 0.292923 0
M  V30 4783 H 443.983 2.02397 0.299436 0
M  V30 4784 H 443.993 3.31616 2.37686 0
M  V30 4785 H 442.668 3.9183 1.39434 0
M  V30 4786 H 441.245 2.60369 2.66951 0
M  V30 4787 N 443.43 -0.535701 1.48216 0
M  V30 4788 C 444.66 -1.3148 1.59363 0
M  V30 4789 C 445.068 -1.8753 0.250844 0
M  V30 4790 O 444.411 -1.66821 -0.769174 0
M  V30 4791 C 444.473 -2.50731 2.57632 0
M  V30 4792 C 444.137 -2.15811 4.02833 0
M  V30 4793 C 445.134 -1.71822 4.90686 0
M  V30 4794 C 442.819 -2.26509 4.48329 0
M  V30 4795 C 444.813 -1.3899 6.22062 0
M  V30 4796 C 442.5 -1.93289 5.79726 0
M  V30 4797 C 443.498 -1.49599 6.66415 0
M  V30 4798 O 443.186 -1.16812 7.95368 0
M  V30 4799 H 442.918 -0.406315 0.540263 0
M  V30 4800 H 445.472 -0.653569 1.94725 0
M  V30 4801 H 443.702 -3.19817 2.1738 0
M  V30 4802 H 445.391 -3.12797 2.58675 0
M  V30 4803 H 446.157 -1.63031 4.56778 0
M  V30 4804 H 442.036 -2.59471 3.81045 0
M  V30 4805 H 445.58 -1.04816 6.89681 0
M  V30 4806 H 441.477 -2.01718 6.13172 0
M  V30 4807 H 442.245 -1.30259 8.08069 0
M  V30 4808 N 444.908 -1.36708 -0.784132 0
M  V30 4809 C 445.856 -1.31533 -1.91838 0
M  V30 4810 C 446.85 -0.206205 -1.6814 0
M  V30 4811 O 448.056 -0.373519 -1.76082 0
M  V30 4812 H 444.431 -0.409613 -0.630651 0
M  V30 4813 H 446.402 -2.2731 -1.9332 0
M  V30 4814 C 445.151 -1.12679 -3.28936 0
M  V30 4815 H 444.474 -1.97274 -3.4774 0
M  V30 4816 H 445.914 -1.13106 -4.08636 0
M  V30 4817 C 444.373 0.168281 -3.36479 0
M  V30 4818 O 444.903 1.15625 -3.84699 0
M  V30 4819 N 443.109 0.214762 -2.89805 0
M  V30 4820 H 442.656 -0.589852 -2.50756 0
M  V30 4821 H 442.614 1.08094 -2.95234 0
M  V30 4822 N 446.386 1.0089 -1.21074 0
M  V30 4823 C 447.797 1.56056 -1.02486 0
M  V30 4824 C 448.148 1.91728 0.416506 0
M  V30 4825 O 447.273 1.73066 1.29912 0
M  V30 4826 C 447.868 2.83563 -1.85411 0
M  V30 4827 C 446.427 3.3523 -1.71166 0
M  V30 4828 C 445.574 2.0846 -1.82865 0
M  V30 4829 H 448.525 0.831818 -1.35154 0
M  V30 4830 H 448.546 3.55286 -1.36205 0
M  V30 4831 H 448.058 2.57569 -2.9031 0
M  V30 4832 H 446.159 3.66167 -0.689361 0
M  V30 4833 H 446.272 4.06913 -2.52901 0
M  V30 4834 H 444.636 2.21275 -1.26132 0
M  V30 4835 H 445.419 1.84883 -2.89263 0
M  V30 4836 N 447.864 1.01787 1.20321 0
M  V30 4837 C 448.812 0.58254 2.25187 0
M  V30 4838 C 449.806 -0.379359 1.65098 0
M  V30 4839 O 451.012 -0.249142 1.78267 0
M  V30 4840 H 447.387 0.170078 0.732514 0
M  V30 4841 H 449.358 1.47788 2.59232 0
M  V30 4842 C 448.107 -0.0620885 3.47645 0
M  V30 4843 H 447.43 0.669069 3.94162 0
M  V30 4844 H 448.87 -0.329784 4.22716 0
M  V30 4845 C 447.329 -1.3053 3.10586 0
M  V30 4846 O 447.859 -2.39848 3.22236 0
M  V30 4847 N 446.065 -1.18988 2.65123 0
M  V30 4848 H 445.612 -0.300341 2.55843 0
M  V30 4849 H 445.57 -2.02267 2.40698 0
M  V30 4850 N 449.342 -1.36122 0.79427 0
M  V30 4851 C 450.29 -2.31871 0.184023 0
M  V30 4852 C 451.284 -1.56041 -0.659365 0
M  V30 4853 O 452.49 -1.71266 -0.553906 0
M  V30 4854 H 448.865 -0.750896 0.0407373 0
M  V30 4855 H 450.836 -2.80898 1.00693 0
M  V30 4856 C 449.585 -3.41324 -0.662813 0
M  V30 4857 H 448.908 -3.99793 -0.0231944 0
M  V30 4858 H 450.348 -4.10629 -1.05639 0
M  V30 4859 C 448.807 -2.83308 -1.82313 0
M  V30 4860 O 449.337 -2.75863 -2.91997 0
M  V30 4861 N 447.543 -2.40529 -1.63077 0
M  V30 4862 H 447.09 -2.46785 -0.738591 0
M  V30 4863 H 447.048 -2.02059 -2.40872 0
M  V30 4864 N 450.82 -0.546701 -1.47814 0
M  V30 4865 C 452.236 -0.205717 -1.58269 0
M  V30 4866 C 452.436 1.29153 -1.54667 0
M  V30 4867 O 451.492 2.07098 -1.44453 0
M  V30 4868 C 452.805 -0.823065 -2.89216 0
M  V30 4869 C 454.353 -0.793328 -3.02779 0
M  V30 4870 C 454.828 -1.38955 -4.36412 0
M  V30 4871 N 456.319 -1.35227 -4.43021 0
M  V30 4872 C 457.054 -1.78333 -5.44963 0
M  V30 4873 N 456.55 -2.29246 -6.53772 0
M  V30 4874 N 458.343 -1.69467 -5.35945 0
M  V30 4875 H 450.494 -1.5196 -1.48398 0
M  V30 4876 H 452.757 -0.633078 -0.705632 0
M  V30 4877 H 452.463 -1.8749 -2.97558 0
M  V30 4878 H 452.337 -0.309915 -3.75925 0
M  V30 4879 H 454.724 0.249784 -2.94041 0
M  V30 4880 H 454.805 -1.34412 -2.17639 0
M  V30 4881 H 454.449 -2.43168 -4.45906 0
M  V30 4882 H 454.379 -0.814291 -5.20266 0
M  V30 4883 H 456.87 -0.979739 -3.64979 0
M  V30 4884 H 457.183 -2.60089 -7.27718 0
M  V30 4885 H 455.528 -2.3325 -6.5469 0
M  V30 4886 H 458.719 -1.29477 -4.49837 0
M  V30 4887 H 458.892 -2.03381 -6.15256 0
M  V30 4888 N 452.299 1.55045 -0.282633 0
M  V30 4889 C 453.545 2.00056 0.332481 0
M  V30 4890 C 453.878 1.1708 1.54939 0
M  V30 4891 O 453.153 0.2427 1.9298 0
M  V30 4892 C 453.436 3.53086 0.70725 0
M  V30 4893 C 453.289 4.46813 -0.517521 0
M  V30 4894 C 454.608 4.12245 1.54084 0
M  V30 4895 H 451.727 0.727268 0.119373 0
M  V30 4896 H 454.369 1.85932 -0.391076 0
M  V30 4897 H 452.519 3.65253 1.32372 0
M  V30 4898 H 454.191 4.46579 -1.15607 0
M  V30 4899 H 452.434 4.18163 -1.1542 0
M  V30 4900 H 453.105 5.51595 -0.211426 0
M  V30 4901 H 455.581 4.03401 1.02013 0
M  V30 4902 H 454.457 5.19515 1.77186 0
M  V30 4903 H 454.718 3.62951 2.52427 0
M  V30 4904 N 453.777 0.010035 1.57597 0
M  V30 4905 C 455.025 -0.671371 1.90623 0
M  V30 4906 C 455.346 -1.73753 0.885151 0
M  V30 4907 O 454.616 -1.95752 -0.0760611 0
M  V30 4908 H 453.196 -0.250968 0.703579 0
M  V30 4909 H 455.858 0.0533325 1.94827 0
M  V30 4910 H 454.954 -1.13626 2.90681 0
M  V30 4911 N 455.255 -1.55392 -0.262866 0
M  V30 4912 C 456.501 -1.76737 -0.99458 0
M  V30 4913 C 456.834 -0.572453 -1.85571 0
M  V30 4914 O 456.109 0.429732 -1.89693 0
M  V30 4915 C 456.392 -3.07824 -1.8686 0
M  V30 4916 C 456.245 -4.3769 -1.03672 0
M  V30 4917 C 457.564 -3.35021 -2.85393 0
M  V30 4918 H 454.683 -0.643005 -0.360157 0
M  V30 4919 H 457.325 -1.88126 -0.266216 0
M  V30 4920 H 455.475 -2.98245 -2.48962 0
M  V30 4921 H 457.147 -4.59238 -0.43563 0
M  V30 4922 H 455.39 -4.32461 -0.340513 0
M  V30 4923 H 456.061 -5.25759 -1.6817 0
M  V30 4924 H 458.537 -3.44458 -2.33426 0
M  V30 4925 H 457.413 -4.27989 -3.43681 0
M  V30 4926 H 457.674 -2.55153 -3.61039 0
M  V30 4927 N 456.733 0.527833 -1.48498 0
M  V30 4928 C 457.68 1.6322 -1.6318 0
M  V30 4929 C 458.65 1.59199 -0.473815 0
M  V30 4930 O 459.835 1.77591 -0.697563 0
M  V30 4931 C 456.975 3.01474 -1.67951 0
M  V30 4932 C 456.088 3.15713 -2.94871 0
M  V30 4933 C 455.223 4.44539 -2.90789 0
M  V30 4934 C 454.262 4.52315 -4.12404 0
M  V30 4935 N 453.399 5.72533 -4.06387 0
M  V30 4936 H 458.239 1.50011 -2.57489 0
M  V30 4937 H 455.776 0.730298 -1.27691 0
M  V30 4938 H 457.734 3.81572 -1.68698 0
M  V30 4939 H 456.364 3.1345 -0.771306 0
M  V30 4940 H 455.416 2.28854 -3.03859 0
M  V30 4941 H 456.728 3.1732 -3.8485 0
M  V30 4942 H 455.882 5.3293 -2.89949 0
M  V30 4943 H 454.621 4.45457 -1.98542 0
M  V30 4944 H 453.626 3.62331 -4.13517 0
M  V30 4945 H 454.851 4.53134 -5.05812 0
M  V30 4946 H 452.797 5.74344 -3.16962 0
M  V30 4947 H 452.714 5.75643 -4.90073 0
M  V30 4948 H 453.982 6.63204 -4.0961 0
M  V30 4949 N 458.211 1.37122 0.776871 0
M  V30 4950 C 459.436 1.354 1.57104 0
M  V30 4951 C 459.861 -0.0595562 1.88006 0
M  V30 4952 O 459.219 -1.03514 1.48844 0
M  V30 4953 C 459.267 2.19472 2.8612 0
M  V30 4954 O 458.371 1.59582 3.80273 0
M  V30 4955 H 457.712 0.462869 0.476076 0
M  V30 4956 H 460.242 1.80577 0.961932 0
M  V30 4957 H 460.252 2.32502 3.35271 0
M  V30 4958 H 458.927 3.22222 2.62956 0
M  V30 4959 H 457.504 1.55564 3.38902 0
M  V30 4960 N 459.689 -1.00246 1.21608 0
M  V30 4961 C 460.599 -2.12515 0.993709 0
M  V30 4962 C 461.615 -1.73913 -0.0549939 0
M  V30 4963 O 462.791 -2.00943 0.135619 0
M  V30 4964 C 459.856 -3.42083 0.563953 0
M  V30 4965 C 458.917 -3.94843 1.68516 0
M  V30 4966 C 458.15 -5.18226 1.27582 0
M  V30 4967 O 458.373 -5.70201 0.150506 0
M  V30 4968 O 457.307 -5.64497 2.0887 0
M  V30 4969 H 461.133 -2.34152 1.93407 0
M  V30 4970 H 458.718 -1.10891 1.00118 0
M  V30 4971 H 460.6 -4.20073 0.334194 0
M  V30 4972 H 459.275 -3.21828 -0.347665 0
M  V30 4973 H 458.182 -3.18068 1.96935 0
M  V30 4974 H 459.515 -4.19512 2.5743 0
M  V30 4975 N 461.167 -1.02423 -1.1978 0
M  V30 4976 C 462.097 -0.62157 -2.25075 0
M  V30 4977 C 463.078 0.367148 -1.6609 0
M  V30 4978 O 464.263 0.250892 -1.92573 0
M  V30 4979 C 461.393 0.0331826 -3.47284 0
M  V30 4980 C 460.347 -0.877323 -4.18912 0
M  V30 4981 C 459.673 -0.0879296 -5.34628 0
M  V30 4982 C 460.973 -2.18892 -4.74219 0
M  V30 4983 H 462.667 -1.50179 -2.59011 0
M  V30 4984 H 460.213 -0.723547 -1.24502 0
M  V30 4985 H 462.166 0.326488 -4.20133 0
M  V30 4986 H 460.89 0.948164 -3.12534 0
M  V30 4987 H 459.549 -1.15475 -3.47938 0
M  V30 4988 H 459.197 0.828941 -4.96123 0
M  V30 4989 H 458.897 -0.694359 -5.83483 0
M  V30 4990 H 460.421 0.198743 -6.10276 0
M  V30 4991 H 461.835 -1.95746 -5.38847 0
M  V30 4992 H 460.232 -2.74686 -5.33542 0
M  V30 4993 H 461.302 -2.84674 -3.92541 0
M  V30 4994 N 462.645 1.35699 -0.801477 0
M  V30 4995 C 463.578 2.2768 -0.153922 0
M  V30 4996 C 464.556 1.47832 0.67709 0
M  V30 4997 O 465.74 1.77104 0.645474 0
M  V30 4998 C 462.867 3.2943 0.786986 0
M  V30 4999 C 461.913 4.26485 0.0362447 0
M  V30 5000 S 462.746 5.19573 -1.2963 0
M  V30 5001 C 463.902 6.24866 -0.359705 0
M  V30 5002 H 464.135 2.82254 -0.9338 0
M  V30 5003 H 461.668 1.42421 -0.596283 0
M  V30 5004 H 463.626 3.8855 1.32436 0
M  V30 5005 H 462.287 2.73745 1.54021 0
M  V30 5006 H 461.48 4.98378 0.750668 0
M  V30 5007 H 461.082 3.71508 -0.431017 0
M  V30 5008 H 463.374 6.75957 0.456954 0
M  V30 5009 H 464.317 7.00307 -1.04768 0
M  V30 5010 H 464.725 5.64484 0.0423274 0
M  V30 5011 N 464.123 0.554532 1.47522 0
M  V30 5012 C 465.539 0.214107 1.58157 0
M  V30 5013 C 465.739 -1.28331 1.55349 0
M  V30 5014 O 464.795 -2.06329 1.45549 0
M  V30 5015 C 466.108 0.838391 2.88776 0
M  V30 5016 C 467.656 0.809374 3.02354 0
M  V30 5017 C 468.131 1.41268 4.35669 0
M  V30 5018 N 469.622 1.37574 4.42298 0
M  V30 5019 C 470.357 1.8122 5.4401 0
M  V30 5020 N 469.853 2.3271 6.52547 0
M  V30 5021 N 471.646 1.72307 5.35039 0
M  V30 5022 H 463.797 1.52744 1.4759 0
M  V30 5023 H 466.06 0.636812 0.702264 0
M  V30 5024 H 465.766 1.89065 2.96559 0
M  V30 5025 H 465.64 0.329847 3.75755 0
M  V30 5026 H 468.027 -0.234187 2.94169 0
M  V30 5027 H 468.108 1.35565 2.16924 0
M  V30 5028 H 467.752 2.45529 4.4461 0
M  V30 5029 H 467.682 0.841871 5.19827 0
M  V30 5030 H 470.173 0.999081 3.64454 0
M  V30 5031 H 470.486 2.63944 7.26329 0
M  V30 5032 H 468.831 2.36719 6.53444 0
M  V30 5033 H 472.022 1.3186 4.49144 0
M  V30 5034 H 472.195 2.06641 6.14169 0
M  V30 5035 N 465.601 -1.54893 0.290851 0
M  V30 5036 C 466.549 -2.24579 -0.605576 0
M  V30 5037 C 467.543 -1.24824 -1.14522 0
M  V30 5038 O 468.749 -1.42706 -1.09704 0
M  V30 5039 H 465.124 -0.720946 -0.213872 0
M  V30 5040 H 467.095 -2.984 0.0048173 0
M  V30 5041 C 465.844 -2.99224 -1.77088 0
M  V30 5042 H 465.167 -3.75782 -1.36484 0
M  V30 5043 H 466.607 -3.51281 -2.3744 0
M  V30 5044 C 465.066 -2.05602 -2.66888 0
M  V30 5045 O 465.596 -1.61745 -3.67698 0
M  V30 5046 N 463.802 -1.71771 -2.34399 0
M  V30 5047 H 463.349 -2.07633 -1.52468 0
M  V30 5048 H 463.307 -1.09403 -2.94751 0
M  V30 5049 N 467.08 -0.0183926 -1.57589 0
M  V30 5050 C 468.496 0.337897 -1.55982 0
M  V30 5051 C 468.696 1.73604 -1.02294 0
M  V30 5052 O 467.752 2.43589 -0.664895 0
M  V30 5053 C 469.065 0.196305 -3.00059 0
M  V30 5054 C 470.613 0.269875 -3.11834 0
M  V30 5055 C 471.088 0.157197 -4.5773 0
M  V30 5056 N 472.579 0.214521 -4.62703 0
M  V30 5057 C 473.314 0.150955 -5.73201 0
M  V30 5058 N 472.81 0.0369212 -6.9279 0
M  V30 5059 N 474.603 0.204162 -5.61729 0
M  V30 5060 H 466.754 -0.93279 -1.90821 0
M  V30 5061 H 469.017 -0.359253 -0.877292 0
M  V30 5062 H 468.723 -0.766383 -3.43248 0
M  V30 5063 H 468.597 0.970908 -3.6449 0
M  V30 5064 H 470.984 1.22302 -2.68563 0
M  V30 5065 H 471.065 -0.534918 -2.50144 0
M  V30 5066 H 470.709 -0.792479 -5.01679 0
M  V30 5067 H 470.639 0.980717 -5.17387 0
M  V30 5068 H 473.13 0.303238 -3.76681 0
M  V30 5069 H 473.443 -0.00518321 -7.728 0
M  V30 5070 H 471.788 0.0022886 -6.95 0
M  V30 5071 H 474.979 0.291575 -4.67191 0
M  V30 5072 H 475.152 0.15116 -6.47824 0
M  V30 5073 N 468.558 1.5553 0.254621 0
M  V30 5074 C 469.521 1.88872 1.29846 0
M  V30 5075 C 470.521 0.764591 1.41459 0
M  V30 5076 O 471.711 1.03265 1.40293 0
M  V30 5077 C 468.843 2.11032 2.67728 0
M  V30 5078 H 470.036 2.82201 1.01502 0
M  V30 5079 H 467.589 1.48303 0.493556 0
M  V30 5080 H 468.324 1.20146 3.01223 0
M  V30 5081 H 468.109 2.92895 2.60682 0
M  V30 5082 H 469.599 2.38038 3.43115 0
M  V30 5083 N 470.036 -0.519951 1.48776 0
M  V30 5084 C 471.285 -1.27175 1.56555 0
M  V30 5085 C 471.598 -1.9401 0.248869 0
M  V30 5086 O 472.804 -2.70725 0.205004 0
M  V30 5087 C 471.26 -2.30811 2.76142 0
M  V30 5088 C 470.868 -1.7 4.14493 0
M  V30 5089 C 472.612 -3.06937 2.9324 0
M  V30 5090 C 470.519 -2.71635 5.25327 0
M  V30 5091 H 469.449 -0.478329 0.582853 0
M  V30 5092 H 472.1 -0.547916 1.75129 0
M  V30 5093 H 470.482 -3.06274 2.51023 0
M  V30 5094 H 471.656 -1.00658 4.49672 0
M  V30 5095 H 469.971 -1.06331 4.02595 0
M  V30 5096 H 472.568 -3.82905 3.73213 0
M  V30 5097 H 472.911 -3.63409 2.03075 0
M  V30 5098 H 473.444 -2.38589 3.18308 0
M  V30 5099 H 470.183 -2.1997 6.1749 0
M  V30 5100 H 469.703 -3.39275 4.94624 0
M  V30 5101 H 471.382 -3.34429 5.53865 0
M  V30 5102 N 471.514 -1.37532 -0.769588 0
M  V30 5103 C 472.742 -1.36059 -1.55871 0
M  V30 5104 C 473.157 0.053544 -1.88724 0
M  V30 5105 O 472.514 1.01591 -1.5161 0
M  V30 5106 C 472.565 -2.20107 -2.86767 0
M  V30 5107 O 472.286 -3.56009 -2.55321 0
M  V30 5108 C 473.787 -2.26636 -3.80987 0
M  V30 5109 H 471.007 -0.465967 -0.482821 0
M  V30 5110 H 473.551 -1.80901 -0.953686 0
M  V30 5111 H 471.706 -1.78768 -3.43687 0
M  V30 5112 H 472.12 -4.0009 -3.39158 0
M  V30 5113 H 473.594 -2.89763 -4.69831 0
M  V30 5114 H 474.071 -1.2754 -4.20274 0
M  V30 5115 H 474.677 -2.68296 -3.29996 0
M  V30 5116 N 472.992 0.995999 -1.22138 0
M  V30 5117 C 474.269 1.70834 -0.952642 0
M  V30 5118 C 474.649 2.04257 0.533119 0
M  V30 5119 O 473.997 1.72343 1.50034 0
M  V30 5120 C 474.207 2.96119 -1.84701 0
M  V30 5121 C 475.555 3.68962 -2.10124 0
M  V30 5122 O 476.579 3.0612 -1.82124 0
M  V30 5123 O 475.438 4.82017 -2.57531 0
M  V30 5124 H 472.532 0.745498 -0.357997 0
M  V30 5125 H 475.078 1.05262 -1.33109 0
M  V30 5126 H 473.85 2.67898 -2.85213 0
M  V30 5127 H 473.473 3.6943 -1.46995 0
M  V30 5128 N 474.47 1.03057 1.19235 0
M  V30 5129 C 475.698 0.747697 1.92917 0
M  V30 5130 C 476.113 -0.69372 1.75593 0
M  V30 5131 O 475.47 -1.47191 1.07894 0
M  V30 5132 C 475.521 1.09159 3.44625 0
M  V30 5133 O 475.242 2.47641 3.61394 0
M  V30 5134 C 476.743 0.831763 4.35427 0
M  V30 5135 H 473.963 0.273453 0.612751 0
M  V30 5136 H 476.507 1.37552 1.51327 0
M  V30 5137 H 474.662 0.508919 3.84043 0
M  V30 5138 H 475.076 2.60499 4.55237 0
M  V30 5139 H 476.55 1.12233 5.4047 0
M  V30 5140 H 477.027 -0.233769 4.38577 0
M  V30 5141 H 477.633 1.39725 4.01693 0
M  V30 5142 N 475.948 -1.35272 0.808662 0
M  V30 5143 C 477.195 -1.98709 0.390003 0
M  V30 5144 C 477.523 -1.64148 -1.04335 0
M  V30 5145 O 476.778 -0.897797 -1.73891 0
M  V30 5146 C 477.077 -3.53556 0.522798 0
M  V30 5147 C 476.743 -4.0799 1.91977 0
M  V30 5148 C 475.405 -4.22568 2.30195 0
M  V30 5149 C 477.757 -4.37442 2.83361 0
M  V30 5150 C 475.085 -4.63918 3.59162 0
M  V30 5151 C 477.437 -4.80232 4.11776 0
M  V30 5152 C 476.101 -4.93016 4.49991 0
M  V30 5153 H 475.371 -0.727127 0.142712 0
M  V30 5154 H 478.018 -1.6145 1.02985 0
M  V30 5155 H 476.323 -3.91287 -0.200494 0
M  V30 5156 H 478.02 -4.00598 0.179608 0
M  V30 5157 H 474.61 -3.97096 1.61284 0
M  V30 5158 H 478.794 -4.25731 2.55083 0
M  V30 5159 H 474.05 -4.72005 3.88615 0
M  V30 5160 H 478.224 -5.01982 4.82687 0
M  V30 5161 H 475.851 -5.24814 5.49976 0
M  V30 5162 N 477.426 -0.562348 -1.47226 0
M  V30 5163 C 478.336 0.185466 -2.33866 0
M  V30 5164 C 479.352 0.906713 -1.48508 0
M  V30 5165 O 480.528 0.874458 -1.81425 0
M  V30 5166 C 477.593 1.19904 -3.25306 0
M  V30 5167 C 476.654 0.484669 -4.26555 0
M  V30 5168 C 475.887 1.44996 -5.13626 0
M  V30 5169 O 476.11 2.68515 -5.03245 0
M  V30 5170 O 475.044 0.971642 -5.94006 0
M  V30 5171 H 478.87 -0.525361 -2.99121 0
M  V30 5172 H 476.455 -0.322916 -1.45868 0
M  V30 5173 H 478.337 1.78399 -3.81774 0
M  V30 5174 H 477.012 1.8917 -2.62672 0
M  V30 5175 H 475.919 -0.141605 -3.73832 0
M  V30 5176 H 477.252 -0.166634 -4.91918 0
M  V30 5177 N 478.904 1.54736 -0.299062 0
M  V30 5178 C 480.315 1.8569 0.193971 0
M  V30 5179 C 480.666 1.22101 1.53577 0
M  V30 5180 O 479.791 0.51799 2.10109 0
M  V30 5181 C 480.386 3.36895 0.358733 0
M  V30 5182 C 478.945 3.67887 0.795986 0
M  V30 5183 C 478.092 2.77131 -0.096807 0
M  V30 5184 H 481.043 1.49934 -0.520134 0
M  V30 5185 H 481.064 3.61294 1.19361 0
M  V30 5186 H 480.576 3.83148 -0.617998 0
M  V30 5187 H 478.677 3.27151 1.78334 0
M  V30 5188 H 478.79 4.75114 0.616718 0
M  V30 5189 H 477.154 2.51153 0.423581 0
M  V30 5190 H 477.937 3.26204 -1.06986 0
M  V30 5191 N 480.382 0.0267497 1.57577 0
M  V30 5192 C 481.63 -0.651116 1.91324 0
M  V30 5193 C 481.951 -1.72804 0.90353 0
M  V30 5194 O 481.221 -1.95822 -0.0552946 0
M  V30 5195 H 479.801 -0.243491 0.706202 0
M  V30 5196 H 482.463 0.0739935 1.94759 0
M  V30 5197 H 481.559 -1.10536 2.9187 0
M  V30 5198 N 481.861 -1.55662 -0.24637 0
M  V30 5199 C 483.086 -1.81914 -0.996093 0
M  V30 5200 C 483.511 -0.603875 -1.78143 0
M  V30 5201 O 482.869 0.447091 -1.75701 0
M  V30 5202 C 482.917 -3.05908 -1.90925 0
M  V30 5203 O 482.021 -2.82861 -3.00105 0
M  V30 5204 H 481.362 -0.600481 -0.283406 0
M  V30 5205 H 483.892 -2.02848 -0.267199 0
M  V30 5206 H 483.902 -3.35356 -2.3238 0
M  V30 5207 H 482.577 -3.93999 -1.33183 0
M  V30 5208 H 481.154 -2.64583 -2.62775 0
M  V30 5209 N 483.339 0.512053 -1.4905 0
M  V30 5210 C 484.567 1.29116 -1.61669 0
M  V30 5211 C 484.982 1.86655 -0.283787 0
M  V30 5212 O 484.339 1.67293 0.729331 0
M  V30 5213 C 484.39 2.4293 -2.67707 0
M  V30 5214 O 484.111 1.87758 -3.95826 0
M  V30 5215 C 485.612 3.34476 -2.90931 0
M  V30 5216 H 482.832 0.392009 -0.544583 0
M  V30 5217 H 485.376 0.615881 -1.95006 0
M  V30 5218 H 483.531 3.06308 -2.37179 0
M  V30 5219 H 483.945 2.62393 -4.54148 0
M  V30 5220 H 485.419 4.10642 -3.68886 0
M  V30 5221 H 485.896 3.90801 -2.00427 0
M  V30 5222 H 486.502 2.76874 -3.22832 0
M  V30 5223 N 484.817 1.37938 0.762283 0
M  V30 5224 C 486.063 1.33866 1.52341 0
M  V30 5225 C 486.396 -0.0738961 1.94059 0
M  V30 5226 O 485.671 -1.03326 1.64785 0
M  V30 5227 C 485.954 2.28644 2.78197 0
M  V30 5228 C 485.807 3.78722 2.42672 0
M  V30 5229 C 487.126 2.21702 3.80179 0
M  V30 5230 H 484.245 0.487593 0.55265 0
M  V30 5231 H 486.887 1.68717 0.873767 0
M  V30 5232 H 485.037 1.99055 3.33631 0
M  V30 5233 H 486.709 4.18948 1.93081 0
M  V30 5234 H 484.952 3.96827 1.75244 0
M  V30 5235 H 485.623 4.40486 3.3268 0
M  V30 5236 H 488.099 2.47805 3.34263 0
M  V30 5237 H 486.975 2.90143 4.65949 0
M  V30 5238 H 487.236 1.21301 4.25133 0
M  V30 5239 N 486.295 -0.989507 1.22664 0
M  V30 5240 C 487.242 -2.08024 0.999733 0
M  V30 5241 C 488.212 -1.65909 -0.0797047 0
M  V30 5242 O 489.397 -1.90669 0.0705715 0
M  V30 5243 C 486.537 -3.40067 0.587234 0
M  V30 5244 C 485.65 -3.95505 1.73781 0
M  V30 5245 C 484.785 -5.15722 1.27297 0
M  V30 5246 C 483.824 -5.63305 2.39488 0
M  V30 5247 N 482.961 -6.74758 1.94026 0
M  V30 5248 H 487.801 -2.26768 1.9334 0
M  V30 5249 H 485.338 -1.11171 0.963297 0
M  V30 5250 H 487.296 -4.15899 0.329227 0
M  V30 5251 H 485.926 -3.21314 -0.309426 0
M  V30 5252 H 484.978 -3.16513 2.11006 0
M  V30 5253 H 486.29 -4.26797 2.58158 0
M  V30 5254 H 485.444 -5.98854 0.972546 0
M  V30 5255 H 484.183 -4.86061 0.399445 0
M  V30 5256 H 483.188 -4.78759 2.70315 0
M  V30 5257 H 484.413 -5.94988 3.27362 0
M  V30 5258 H 482.359 -6.46874 1.09041 0
M  V30 5259 H 482.276 -7.05386 2.71968 0
M  V30 5260 H 483.544 -7.61387 1.67062 0
M  V30 5261 N 487.773 -1.03688 -1.18687 0
M  V30 5262 C 489.184 -0.766488 -1.70241 0
M  V30 5263 C 489.535 0.713052 -1.82784 0
M  V30 5264 O 488.66 1.55529 -1.50465 0
M  V30 5265 C 489.255 -1.38475 -3.09209 0
M  V30 5266 C 487.814 -1.16276 -3.5799 0
M  V30 5267 C 486.961 -1.4778 -2.34641 0
M  V30 5268 H 489.912 -1.20378 -1.03415 0
M  V30 5269 H 489.933 -0.785939 -3.72295 0
M  V30 5270 H 489.445 -2.46157 -3.00048 0
M  V30 5271 H 487.546 -0.104508 -3.72453 0
M  V30 5272 H 487.659 -1.8571 -4.41643 0
M  V30 5273 H 486.023 -0.897366 -2.38368 0
M  V30 5274 H 486.806 -2.56562 -2.28102 0
M  V30 5275 N 489.251 1.34841 -0.815825 0
M  V30 5276 C 490.498 1.98499 -0.400535 0
M  V30 5277 C 490.826 1.64699 1.03463 0
M  V30 5278 O 490.081 0.907006 1.73412 0
M  V30 5279 C 490.38 3.53273 -0.541541 0
M  V30 5280 C 490.046 4.06966 -1.94138 0
M  V30 5281 C 488.708 4.21341 -2.32433 0
M  V30 5282 C 491.06 4.35933 -2.85677 0
M  V30 5283 C 488.388 4.62007 -3.61617 0
M  V30 5284 C 490.74 4.78042 -4.14317 0
M  V30 5285 C 489.404 4.90622 -4.52599 0
M  V30 5286 H 488.674 0.72636 -0.146566 0
M  V30 5287 H 491.321 1.60902 -1.0384 0
M  V30 5288 H 489.626 3.91387 0.179741 0
M  V30 5289 H 491.323 4.00497 -0.20085 0
M  V30 5290 H 487.913 3.96235 -1.63388 0
M  V30 5291 H 492.097 4.24372 -2.57337 0
M  V30 5292 H 487.353 4.69937 -3.91113 0
M  V30 5293 H 491.527 4.99415 -4.85342 0
M  V30 5294 H 489.154 5.2189 -5.52752 0
M  V30 5295 N 490.729 0.570148 1.46925 0
M  V30 5296 C 491.975 0.0510284 2.02736 0
M  V30 5297 C 492.308 -1.3006 1.44215 0
M  V30 5298 O 491.583 -1.84932 0.602521 0
M  V30 5299 C 491.866 -0.028215 3.60089 0
M  V30 5300 C 491.719 1.35142 4.29018 0
M  V30 5301 C 493.038 -0.735181 4.33916 0
M  V30 5302 H 490.157 0.0200178 0.736728 0
M  V30 5303 H 492.799 0.73493 1.75211 0
M  V30 5304 H 490.949 -0.610648 3.83671 0
M  V30 5305 H 492.621 1.97806 4.16738 0
M  V30 5306 H 490.864 1.9226 3.88868 0
M  V30 5307 H 491.535 1.24857 5.37694 0
M  V30 5308 H 494.011 -0.240519 4.15404 0
M  V30 5309 H 492.887 -0.759622 5.43618 0
M  V30 5310 H 493.148 -1.79397 4.04066 0
M  V30 5311 N 492.207 -1.54576 0.307264 0
M  V30 5312 C 493.453 -2.0056 -0.300612 0
M  V30 5313 C 493.786 -1.1953 -1.53057 0
M  V30 5314 O 493.061 -0.27337 -1.92569 0
M  V30 5315 C 493.344 -3.54167 -0.650987 0
M  V30 5316 C 493.197 -4.45933 0.588539 0
M  V30 5317 C 494.516 -4.14645 -1.47506 0
M  V30 5318 H 491.635 -0.729075 -0.107788 0
M  V30 5319 H 494.277 -1.85286 0.420606 0
M  V30 5320 H 492.427 -3.67313 -1.26544 0
M  V30 5321 H 494.099 -4.44683 1.22697 0
M  V30 5322 H 492.342 -4.16274 1.22058 0
M  V30 5323 H 493.013 -5.51189 0.299153 0
M  V30 5324 H 495.489 -4.04973 -0.955821 0
M  V30 5325 H 494.365 -5.22269 -1.68899 0
M  V30 5326 H 494.626 -3.66921 -2.4662 0
M  V30 5327 N 493.685 -0.035106 -1.57561 0
M  V30 5328 C 494.615 0.942993 -2.13612 0
M  V30 5329 C 495.596 1.33531 -1.05373 0
M  V30 5330 O 496.781 1.41287 -1.33235 0
M  V30 5331 C 493.911 2.22332 -2.66807 0
M  V30 5332 C 492.865 1.97156 -3.79886 0
M  V30 5333 C 492.191 3.31506 -4.19533 0
M  V30 5334 C 493.491 1.30596 -5.05709 0
M  V30 5335 H 495.185 0.476179 -2.95589 0
M  V30 5336 H 492.731 0.227602 -1.4219 0
M  V30 5337 H 494.684 2.91142 -3.04654 0
M  V30 5338 H 493.408 2.7119 -1.81999 0
M  V30 5339 H 492.067 1.30763 -3.42486 0
M  V30 5340 H 491.715 3.78134 -3.31698 0
M  V30 5341 H 491.415 3.15465 -4.95738 0
M  V30 5342 H 492.939 4.01574 -4.59968 0
M  V30 5343 H 494.353 1.89416 -5.41105 0
M  V30 5344 H 492.75 1.24934 -5.86951 0
M  V30 5345 H 493.82 0.279742 -4.84092 0
M  V30 5346 N 495.163 1.55791 0.238111 0
M  V30 5347 C 496.391 1.82098 0.982233 0
M  V30 5348 C 496.806 0.612025 1.78605 0
M  V30 5349 O 496.163 -0.419381 1.77616 0
M  V30 5350 C 496.214 3.0673 1.91309 0
M  V30 5351 O 495.935 4.2296 1.14179 0
M  V30 5352 C 497.436 3.45903 2.77248 0
M  V30 5353 H 494.656 0.605748 0.288635 0
M  V30 5354 H 497.2 2.02862 0.258341 0
M  V30 5355 H 495.355 2.87991 2.59114 0
M  V30 5356 H 495.769 4.93653 1.7722 0
M  V30 5357 H 497.243 4.36189 3.38295 0
M  V30 5358 H 497.72 2.66891 3.48806 0
M  V30 5359 H 498.326 3.67024 2.14881 0
M  V30 5360 N 496.642 -0.504142 1.49319 0
M  V30 5361 C 497.605 -1.5883 1.65244 0
M  V30 5362 C 498.605 -1.52009 0.524386 0
M  V30 5363 O 499.795 -1.55218 0.79077 0
M  V30 5364 C 496.927 -2.98481 1.64687 0
M  V30 5365 H 498.12 -1.4604 2.61939 0
M  V30 5366 H 495.673 -0.728144 1.38303 0
M  V30 5367 H 496.408 -3.16751 0.695644 0
M  V30 5368 H 496.193 -3.0484 2.46607 0
M  V30 5369 H 497.683 -3.77256 1.79075 0
M  V30 5370 N 498.12 -1.38341 -0.754957 0
M  V30 5371 C 499.05 -1.38176 -1.88227 0
M  V30 5372 C 500.031 -0.247873 -1.68284 0
M  V30 5373 O 501.216 -0.45075 -1.88896 0
M  V30 5374 C 498.346 -1.20471 -3.25736 0
M  V30 5375 C 497.3 -2.3105 -3.60278 0
M  V30 5376 C 496.626 -1.98452 -4.96509 0
M  V30 5377 C 497.926 -3.73305 -3.65295 0
M  V30 5378 H 499.62 -2.32512 -1.88622 0
M  V30 5379 H 497.166 -1.1192 -0.906082 0
M  V30 5380 H 499.119 -1.18982 -4.04254 0
M  V30 5381 H 497.843 -0.225965 -3.25817 0
M  V30 5382 H 496.502 -2.31723 -2.84078 0
M  V30 5383 H 496.15 -0.990641 -4.93148 0
M  V30 5384 H 495.85 -2.7251 -5.20588 0
M  V30 5385 H 497.374 -1.98578 -5.77407 0
M  V30 5386 H 498.788 -3.7467 -4.3393 0
M  V30 5387 H 497.185 -4.46557 -4.00883 0
M  V30 5388 H 498.255 -4.05719 -2.65556 0
M  V30 5389 N 499.598 0.982988 -1.23187 0
M  V30 5390 C 500.53 2.07729 -0.968572 0
M  V30 5391 C 501.543 1.62702 0.0564821 0
M  V30 5392 O 502.732 1.77603 -0.178733 0
M  V30 5393 C 499.832 3.36071 -0.436974 0
M  V30 5394 C 499.005 4.10081 -1.52159 0
M  V30 5395 C 498.064 5.16701 -0.99532 0
M  V30 5396 O 497.09 5.43727 -1.68373 0
M  V30 5397 N 498.292 5.80226 0.178192 0
M  V30 5398 H 501.057 2.30894 -1.9107 0
M  V30 5399 H 498.618 1.14949 -1.1401 0
M  V30 5400 H 500.61 4.04639 -0.0700051 0
M  V30 5401 H 499.18 3.09893 0.410509 0
M  V30 5402 H 498.4 3.36004 -2.06144 0
M  V30 5403 H 499.688 4.56295 -2.25105 0
M  V30 5404 H 499.086 5.60651 0.754096 0
M  V30 5405 H 497.643 6.49982 0.486449 0
M  V30 5406 N 501.076 1.04316 1.18135 0
M  V30 5407 C 502.492 0.762858 1.40188 0
M  V30 5408 C 502.692 -0.646547 1.90846 0
M  V30 5409 O 501.748 -1.41036 2.0944 0
M  V30 5410 C 503.061 1.81106 2.40044 0
M  V30 5411 C 504.609 1.83226 2.53766 0
M  V30 5412 C 505.084 2.87044 3.56889 0
M  V30 5413 N 506.575 2.85951 3.64398 0
M  V30 5414 C 507.31 3.62932 4.43923 0
M  V30 5415 N 506.806 4.49672 5.27036 0
M  V30 5416 N 508.599 3.51411 4.38711 0
M  V30 5417 H 500.75 1.95264 0.835805 0
M  V30 5418 H 503.013 0.845017 0.429709 0
M  V30 5419 H 502.719 2.82214 2.09876 0
M  V30 5420 H 502.593 1.64529 3.39426 0
M  V30 5421 H 504.98 0.827869 2.8325 0
M  V30 5422 H 505.061 2.03879 1.54489 0
M  V30 5423 H 504.705 3.87663 3.28145 0
M  V30 5424 H 504.635 2.63645 4.5585 0
M  V30 5425 H 507.126 2.23051 3.05052 0
M  V30 5426 H 507.439 5.05116 5.84874 0
M  V30 5427 H 505.784 4.53738 5.26447 0
M  V30 5428 H 508.975 2.83047 3.72829 0
M  V30 5429 H 509.148 4.11654 5.00445 0
M  V30 5430 N 502.554 -1.34406 0.822964 0
M  V30 5431 C 503.802 -1.97892 0.410245 0
M  V30 5432 C 504.123 -1.65567 -1.03017 0
M  V30 5433 O 503.393 -0.94642 -1.71522 0
M  V30 5434 H 501.973 -0.732049 0.148707 0
M  V30 5435 H 504.635 -1.64043 1.05242 0
M  V30 5436 H 503.731 -3.07579 0.529284 0
M  V30 5437 N 504.032 -0.577932 -1.46621 0
M  V30 5438 C 505.278 -0.0617793 -2.02706 0
M  V30 5439 C 505.611 1.29294 -1.44903 0
M  V30 5440 O 504.886 1.8461 -0.61232 0
M  V30 5441 C 505.169 0.00911824 -3.60099 0
M  V30 5442 C 505.022 -1.37416 -4.28295 0
M  V30 5443 C 506.341 0.712159 -4.343 0
M  V30 5444 H 503.46 -0.0239246 -0.736612 0
M  V30 5445 H 506.102 -0.744211 -1.74818 0
M  V30 5446 H 504.252 0.590292 -3.83989 0
M  V30 5447 H 505.924 -2.00013 -4.15683 0
M  V30 5448 H 504.167 -1.94319 -3.87843 0
M  V30 5449 H 504.838 -1.27707 -5.37024 0
M  V30 5450 H 507.314 0.218486 -4.15526 0
M  V30 5451 H 506.19 0.730782 -5.44014 0
M  V30 5452 H 506.451 1.77251 -4.05012 0
M  V30 5453 N 505.51 1.54411 -0.315457 0
M  V30 5454 C 506.756 2.00716 0.289972 0
M  V30 5455 C 507.089 1.2034 1.5242 0
M  V30 5456 O 506.364 0.283579 1.92422 0
M  V30 5457 C 506.647 3.54507 0.632196 0
M  V30 5458 C 506.5 4.45615 -0.61218 0
M  V30 5459 C 507.819 4.15421 1.45305 0
M  V30 5460 H 504.938 0.729637 0.10392 0
M  V30 5461 H 507.58 1.8506 -0.430427 0
M  V30 5462 H 505.73 3.67979 1.24595 0
M  V30 5463 H 507.402 4.44026 -1.25053 0
M  V30 5464 H 505.645 4.15621 -1.24264 0
M  V30 5465 H 506.316 5.51022 -0.328379 0
M  V30 5466 H 508.792 4.05474 0.934331 0
M  V30 5467 H 507.668 5.23157 1.66127 0
M  V30 5468 H 507.929 3.68223 2.44671 0
M  V30 5469 N 506.988 0.0434614 1.5754 0
M  V30 5470 C 507.935 -0.93356 2.11077 0
M  V30 5471 C 508.905 -1.31383 1.01626 0
M  V30 5472 O 510.09 -1.40465 1.29129 0
M  V30 5473 C 507.23 -2.20578 2.65404 0
M  V30 5474 C 506.343 -1.88068 3.88914 0
M  V30 5475 C 505.478 -3.09691 4.31584 0
M  V30 5476 C 504.517 -2.73067 5.47815 0
M  V30 5477 N 503.654 -3.87359 5.85574 0
M  V30 5478 H 508.494 -0.470118 2.94268 0
M  V30 5479 H 506.031 -0.220434 1.45439 0
M  V30 5480 H 507.989 -2.95011 2.94999 0
M  V30 5481 H 506.619 -2.64513 1.85021 0
M  V30 5482 H 505.671 -1.03816 3.6596 0
M  V30 5483 H 506.983 -1.57104 4.73413 0
M  V30 5484 H 506.137 -3.92431 4.62691 0
M  V30 5485 H 504.876 -3.43827 3.45882 0
M  V30 5486 H 503.881 -1.88742 5.16388 0
M  V30 5487 H 505.106 -2.40131 6.35227 0
M  V30 5488 H 503.052 -4.21311 5.02825 0
M  V30 5489 H 502.969 -3.60068 6.64746 0
M  V30 5490 H 504.237 -4.70761 6.21292 0
M  V30 5491 N 508.466 -1.55915 -0.229846 0
M  V30 5492 C 509.882 -1.48721 -0.579166 0
M  V30 5493 C 510.082 -0.736976 -1.87539 0
M  V30 5494 O 509.138 -0.273258 -2.51017 0
M  V30 5495 C 510.451 -2.9323 -0.666082 0
M  V30 5496 C 511.999 -3.03701 -0.757267 0
M  V30 5497 C 512.474 -4.49552 -0.8756 0
M  V30 5498 N 513.965 -4.53561 -0.940035 0
M  V30 5499 C 514.7 -5.63683 -1.05116 0
M  V30 5500 N 514.196 -6.83576 -1.12675 0
M  V30 5501 N 515.989 -5.51516 -1.08565 0
M  V30 5502 H 508.14 -2.03123 0.620857 0
M  V30 5503 H 510.403 -0.922898 0.21671 0
M  V30 5504 H 510.109 -3.51032 0.21664 0
M  V30 5505 H 509.983 -3.44668 -1.53243 0
M  V30 5506 H 512.37 -2.45969 -1.63043 0
M  V30 5507 H 512.451 -2.55446 0.134583 0
M  V30 5508 H 512.095 -5.079 -0.00692351 0
M  V30 5509 H 512.025 -4.95506 -1.78274 0
M  V30 5510 H 514.516 -3.67215 -0.892269 0
M  V30 5511 H 514.829 -7.63251 -1.21109 0
M  V30 5512 H 513.174 -6.86303 -1.09603 0
M  V30 5513 H 516.365 -4.5678 -1.02319 0
M  V30 5514 H 516.538 -6.37372 -1.1688 0
M  V30 5515 N 509.944 0.496216 -1.49584 0
M  V30 5516 C 511.221 1.25755 -1.49816 0
M  V30 5517 C 511.601 2.09859 -0.228572 0
M  V30 5518 O 510.949 2.14449 0.788908 0
M  V30 5519 C 511.159 2.11017 -2.7798 0
M  V30 5520 C 512.507 2.70047 -3.27658 0
M  V30 5521 O 513.531 2.21281 -2.79129 0
M  V30 5522 O 512.39 3.58834 -4.1219 0
M  V30 5523 H 509.484 0.569322 -0.599834 0
M  V30 5524 H 512.03 0.510094 -1.61852 0
M  V30 5525 H 510.802 1.48879 -3.61871 0
M  V30 5526 H 510.425 2.92947 -2.68827 0
M  V30 5527 N 511.423 1.38739 0.74761 0
M  V30 5528 C 512.333 1.38696 1.89211 0
M  V30 5529 C 513.349 0.283303 1.71678 0
M  V30 5530 O 514.525 0.522713 1.94498 0
M  V30 5531 C 511.59 1.21662 3.24653 0
M  V30 5532 C 510.651 2.41886 3.54669 0
M  V30 5533 C 509.884 2.25655 4.83648 0
M  V30 5534 O 510.107 1.25339 5.56459 0
M  V30 5535 O 509.041 3.14372 5.13277 0
M  V30 5536 H 512.867 2.35143 1.92202 0
M  V30 5537 H 510.452 1.19721 0.893708 0
M  V30 5538 H 512.334 1.14246 4.05618 0
M  V30 5539 H 511.009 0.283024 3.2246 0
M  V30 5540 H 509.916 2.54877 2.73841 0
M  V30 5541 H 511.249 3.33895 3.61628 0
M  V30 5542 N 512.901 -0.976442 1.23707 0
M  V30 5543 C 514.15 -1.71254 1.06559 0
M  V30 5544 C 514.463 -1.91528 -0.397024 0
M  V30 5545 O 515.669 -2.62625 -0.688518 0
M  V30 5546 C 514.125 -3.08207 1.8584 0
M  V30 5547 C 513.733 -2.95806 3.36456 0
M  V30 5548 C 515.477 -3.85749 1.77194 0
M  V30 5549 C 513.384 -4.28015 4.08114 0
M  V30 5550 H 512.314 -0.642171 0.395136 0
M  V30 5551 H 514.965 -1.08877 1.4771 0
M  V30 5552 H 513.347 -3.71363 1.37498 0
M  V30 5553 H 514.521 -2.41716 3.92314 0
M  V30 5554 H 512.836 -2.31736 3.45959 0
M  V30 5555 H 515.433 -4.83633 2.28041 0
M  V30 5556 H 515.776 -4.09752 0.735477 0
M  V30 5557 H 516.309 -3.29303 2.23169 0
M  V30 5558 H 513.048 -4.09208 5.12083 0
M  V30 5559 H 512.568 -4.81955 3.57043 0
M  V30 5560 H 514.247 -4.96681 4.14629 0
M  V30 5561 N 514.379 -1.04941 -1.1758 0
M  V30 5562 C 515.628 -0.753124 -1.87112 0
M  V30 5563 C 515.941 0.722507 -1.81767 0
M  V30 5564 O 517.147 1.13265 -2.46746 0
M  V30 5565 C 515.603 -1.29695 -3.35719 0
M  V30 5566 C 515.211 -2.80184 -3.49572 0
M  V30 5567 C 516.955 -1.07759 -4.10595 0
M  V30 5568 C 514.862 -3.2788 -4.92187 0
M  V30 5569 H 513.792 -0.278034 -0.700866 0
M  V30 5570 H 516.443 -1.26637 -1.32798 0
M  V30 5571 H 514.825 -0.711522 -3.89555 0
M  V30 5572 H 515.999 -3.44561 -3.05965 0
M  V30 5573 H 514.314 -3.00632 -2.88113 0
M  V30 5574 H 516.911 -1.40899 -5.15802 0
M  V30 5575 H 517.254 -0.0152302 -4.16297 0
M  V30 5576 H 517.787 -1.62809 -3.62957 0
M  V30 5577 H 514.526 -4.33535 -4.91658 0
M  V30 5578 H 514.046 -2.68245 -5.36475 0
M  V30 5579 H 515.725 -3.22412 -5.60945 0
M  V30 5580 N 515.857 1.33968 -0.830081 0
M  V30 5581 C 516.805 2.31301 -0.245435 0
M  V30 5582 C 517.799 1.57734 0.617762 0
M  V30 5583 O 519.005 1.72674 0.508303 0
M  V30 5584 H 515.38 0.749552 -0.0606316 0
M  V30 5585 H 517.351 2.78129 -1.08105 0
M  V30 5586 C 516.1 3.42961 0.572084 0
M  V30 5587 H 515.423 3.99714 -0.0828118 0
M  V30 5588 H 516.863 4.13286 0.94715 0
M  V30 5589 C 515.322 2.88043 1.74737 0
M  V30 5590 O 515.852 2.83508 2.8458 0
M  V30 5591 N 514.058 2.44768 1.56642 0
M  V30 5592 H 513.605 2.48656 0.672901 0
M  V30 5593 H 513.563 2.08375 2.3543 0
M  V30 5594 N 517.335 0.585699 1.46312 0
M  V30 5595 C 518.563 0.0781299 2.06752 0
M  V30 5596 C 518.978 -1.22812 1.43396 0
M  V30 5597 O 518.335 -1.74318 0.540314 0
M  V30 5598 C 518.386 -0.0911927 3.61385 0
M  V30 5599 O 518.107 1.16336 4.22371 0
M  V30 5600 C 519.608 -0.632765 4.38761 0
M  V30 5601 H 516.828 0.0588188 0.668417 0
M  V30 5602 H 519.372 0.807218 1.87894 0
M  V30 5603 H 517.527 -0.770514 3.7966 0
M  V30 5604 H 517.941 0.979082 5.15281 0
M  V30 5605 H 519.415 -0.70041 5.47538 0
M  V30 5606 H 519.892 -1.65039 4.07012 0
M  V30 5607 H 520.498 0.0117856 4.25298 0
M  V30 5608 N 518.813 -1.54241 0.323641 0
M  V30 5609 C 520.041 -2.04985 -0.280871 0
M  V30 5610 C 520.456 -1.19978 -1.45777 0
M  V30 5611 O 519.813 -0.230471 -1.81039 0
M  V30 5612 C 519.864 -3.54353 -0.715258 0
M  V30 5613 O 519.585 -4.36132 0.414817 0
M  V30 5614 C 521.086 -4.21189 -1.38257 0
M  V30 5615 H 518.306 -0.66851 -0.0577502 0
M  V30 5616 H 520.85 -1.99029 0.469852 0
M  V30 5617 H 519.005 -3.60596 -1.41596 0
M  V30 5618 H 519.419 -5.2445 0.0725227 0
M  V30 5619 H 520.893 -5.27154 -1.63745 0
M  V30 5620 H 521.37 -3.72307 -2.32989 0
M  V30 5621 H 521.976 -4.19085 -0.724447 0
M  V30 5622 N 520.291 -0.0518155 -1.57515 0
M  V30 5623 C 521.516 0.634896 -1.97443 0
M  V30 5624 C 521.941 1.63546 -0.929207 0
M  V30 5625 O 521.299 1.80981 0.107484 0
M  V30 5626 C 521.347 1.29765 -3.36442 0
M  V30 5627 O 520.451 2.41333 -3.34413 0
M  V30 5628 H 519.792 0.164994 -0.643174 0
M  V30 5629 H 522.322 -0.120407 -2.04245 0
M  V30 5630 H 522.332 1.64918 -3.73184 0
M  V30 5631 H 521.007 0.564361 -4.12053 0
M  V30 5632 H 519.584 2.08122 -3.09418 0
M  V30 5633 N 521.769 1.56035 0.221574 0
M  V30 5634 C 523.016 1.79047 0.94597 0
M  V30 5635 C 523.344 0.62057 1.84334 0
M  V30 5636 O 522.599 -0.395053 1.91671 0
M  V30 5637 C 522.898 3.07813 1.8162 0
M  V30 5638 C 522.564 4.3797 1.07206 0
M  V30 5639 C 521.226 4.73334 0.866508 0
M  V30 5640 C 523.578 5.18326 0.546565 0
M  V30 5641 C 520.906 5.8657 0.123549 0
M  V30 5642 C 523.258 6.32335 -0.18305 0
M  V30 5643 C 521.922 6.66301 -0.399861 0
M  V30 5644 H 521.192 0.655178 0.346155 0
M  V30 5645 H 523.839 1.90299 0.214146 0
M  V30 5646 H 522.144 2.91682 2.61589 0
M  V30 5647 H 523.841 3.2282 2.37884 0
M  V30 5648 H 520.431 4.10202 1.24226 0
M  V30 5649 H 524.615 4.9144 0.692847 0
M  V30 5650 H 519.871 6.11376 -0.0546591 0
M  V30 5651 H 524.045 6.9383 -0.59775 0
M  V30 5652 H 521.672 7.53889 -0.977489 0
M  V30 5653 N 523.247 -0.488276 1.49845 0
M  V30 5654 C 524.194 -1.58836 1.67451 0
M  V30 5655 C 525.164 -1.57886 0.515857 0
M  V30 5656 O 526.349 -1.75679 0.744403 0
M  V30 5657 C 523.489 -2.96915 1.75885 0
M  V30 5658 C 522.602 -3.07784 3.03138 0
M  V30 5659 C 521.737 -4.36673 3.02473 0
M  V30 5660 C 520.776 -4.41222 4.24252 0
M  V30 5661 N 519.913 -5.61557 4.21424 0
M  V30 5662 H 524.753 -1.43131 2.61376 0
M  V30 5663 H 522.29 -0.696186 1.29583 0
M  V30 5664 H 524.248 -3.76965 1.78755 0
M  V30 5665 H 522.878 -3.11295 0.85414 0
M  V30 5666 H 521.93 -2.20717 3.09819 0
M  V30 5667 H 523.242 -3.07005 3.93128 0
M  V30 5668 H 522.396 -5.25055 3.03977 0
M  V30 5669 H 521.135 -4.40037 2.10283 0
M  V30 5670 H 520.14 -3.5124 4.22978 0
M  V30 5671 H 521.365 -4.39564 5.17649 0
M  V30 5672 H 519.311 -5.65738 3.32078 0
M  V30 5673 H 519.228 -5.62447 5.05163 0
M  V30 5674 H 520.496 -6.52111 4.2705 0
M  V30 5675 N 524.725 -1.39134 -0.740242 0
M  V30 5676 C 525.655 -1.40165 -1.86751 0
M  V30 5677 C 526.636 -0.265708 -1.68012 0
M  V30 5678 O 527.821 -0.47076 -1.88408 0
M  V30 5679 C 524.951 -1.2392 -3.2444 0
M  V30 5680 C 523.905 -2.34858 -3.57807 0
M  V30 5681 C 523.231 -2.03707 -4.94376 0
M  V30 5682 C 524.531 -3.77159 -3.61315 0
M  V30 5683 H 526.225 -2.345 -1.86145 0
M  V30 5684 H 523.771 -1.12875 -0.89416 0
M  V30 5685 H 525.724 -1.23263 -4.02969 0
M  V30 5686 H 524.448 -0.26051 -3.25559 0
M  V30 5687 H 523.107 -2.34723 -2.81604 0
M  V30 5688 H 522.755 -1.04289 -4.9207 0
M  V30 5689 H 522.455 -2.78016 -5.17669 0
M  V30 5690 H 523.979 -2.04691 -5.75268 0
M  V30 5691 H 525.393 -3.79252 -4.29931 0
M  V30 5692 H 523.79 -4.50784 -3.96124 0
M  V30 5693 H 524.86 -4.08513 -2.61238 0
M  V30 5694 N 526.204 0.969867 -1.24223 0
M  V30 5695 C 527.152 2.08535 -1.03034 0
M  V30 5696 C 528.146 1.69366 0.0340379 0
M  V30 5697 O 529.352 1.79597 -0.12034 0
M  V30 5698 H 525.727 0.682313 -0.316154 0
M  V30 5699 H 527.698 2.23569 -1.97635 0
M  V30 5700 C 526.447 3.4158 -0.649509 0
M  V30 5701 H 525.77 3.72177 -1.46028 0
M  V30 5702 H 527.21 4.20536 -0.540841 0
M  V30 5703 C 525.669 3.30703 0.643194 0
M  V30 5704 O 526.199 3.64443 1.68951 0
M  V30 5705 N 524.405 2.83841 0.623095 0
M  V30 5706 H 523.952 2.56583 -0.228719 0
M  V30 5707 H 523.91 2.76946 1.48823 0
M  V30 5708 N 527.682 1.05563 1.17022 0
M  V30 5709 C 528.93 0.76642 1.87004 0
M  V30 5710 C 529.251 -0.708854 1.8166 0
M  V30 5711 O 528.521 -1.51242 1.2451 0
M  V30 5712 H 527.101 0.280516 0.692329 0
M  V30 5713 H 529.763 1.33557 1.41945 0
M  V30 5714 H 528.859 1.08472 2.92644 0
M  V30 5715 N 529.16 -1.33526 0.837174 0
M  V30 5716 C 530.107 -2.29248 0.267169 0
M  V30 5717 C 531.077 -1.54252 -0.616071 0
M  V30 5718 O 532.262 -1.82559 -0.554699 0
M  V30 5719 C 529.402 -3.40638 -0.553152 0
M  V30 5720 C 528.515 -4.30548 0.353921 0
M  V30 5721 C 527.65 -5.29051 -0.477339 0
M  V30 5722 C 526.689 -6.106 0.42823 0
M  V30 5723 N 525.826 -7.01152 -0.364801 0
M  V30 5724 H 530.666 -2.77398 1.08877 0
M  V30 5725 H 528.203 -1.36496 0.54838 0
M  V30 5726 H 530.161 -4.03921 -1.04422 0
M  V30 5727 H 528.791 -2.93685 -1.33973 0
M  V30 5728 H 527.843 -3.68001 0.963289 0
M  V30 5729 H 529.155 -4.87631 1.04964 0
M  V30 5730 H 528.309 -5.97853 -1.0323 0
M  V30 5731 H 527.048 -4.72541 -1.2065 0
M  V30 5732 H 526.053 -5.40718 0.995219 0
M  V30 5733 H 527.278 -6.69193 1.15573 0
M  V30 5734 H 525.224 -6.47092 -1.07738 0
M  V30 5735 H 525.141 -7.5551 0.272238 0
M  V30 5736 H 526.409 -7.74263 -0.902054 0
M  V30 5737 N 530.638 -0.59345 -1.46 0
M  V30 5738 C 531.548 0.135817 -2.34207 0
M  V30 5739 C 532.564 0.875008 -1.50398 0
M  V30 5740 O 533.74 0.835778 -1.83239 0
M  V30 5741 C 530.805 1.12977 -3.27776 0
M  V30 5742 C 529.866 0.394081 -4.27487 0
M  V30 5743 C 529.099 1.34068 -5.16586 0
M  V30 5744 O 529.322 2.5778 -5.08828 0
M  V30 5745 O 528.256 0.845426 -5.95933 0
M  V30 5746 H 532.082 -0.588691 -2.9794 0
M  V30 5747 H 529.667 -0.353784 -1.45151 0
M  V30 5748 H 531.549 1.70261 -3.85473 0
M  V30 5749 H 530.224 1.83556 -2.66625 0
M  V30 5750 H 529.131 -0.220869 -3.73447 0
M  V30 5751 H 530.464 -0.270939 -4.91454 0
M  V30 5752 N 532.116 1.54067 -0.331816 0
M  V30 5753 C 533.365 1.99895 0.269209 0
M  V30 5754 C 533.678 1.22371 1.52593 0
M  V30 5755 O 534.884 1.58618 2.20347 0
M  V30 5756 C 533.34 3.55972 0.530244 0
M  V30 5757 C 532.948 4.4234 -0.709901 0
M  V30 5758 C 534.692 4.10247 1.09077 0
M  V30 5759 C 532.599 5.89905 -0.420312 0
M  V30 5760 H 531.529 0.746741 0.104371 0
M  V30 5761 H 534.18 1.78014 -0.445324 0
M  V30 5762 H 532.562 3.73873 1.30518 0
M  V30 5763 H 533.736 4.36215 -1.48504 0
M  V30 5764 H 532.051 3.98997 -1.19123 0
M  V30 5765 H 534.648 5.18095 1.32219 0
M  V30 5766 H 534.991 3.62739 2.0427 0
M  V30 5767 H 535.524 3.96011 0.376824 0
M  V30 5768 H 532.263 6.41623 -1.34164 0
M  V30 5769 H 531.783 5.98962 0.316962 0
M  V30 5770 H 533.462 6.46991 -0.0331956 0
M  V30 5771 N 533.594 0.0601682 1.57485 0
M  V30 5772 C 534.84 -0.612501 1.93329 0
M  V30 5773 C 535.173 -1.6996 0.939526 0
M  V30 5774 O 534.448 -1.94472 -0.0330957 0
M  V30 5775 C 534.731 -1.20025 3.39508 0
M  V30 5776 C 534.584 -0.12059 4.49638 0
M  V30 5777 C 535.903 -2.10923 3.86264 0
M  V30 5778 H 533.022 -0.221185 0.703027 0
M  V30 5779 H 535.664 0.123768 1.89596 0
M  V30 5780 H 533.814 -1.82774 3.42821 0
M  V30 5781 H 535.486 0.51185 4.58452 0
M  V30 5782 H 533.729 0.550251 4.30296 0
M  V30 5783 H 534.4 -0.572019 5.49028 0
M  V30 5784 H 536.876 -1.58124 3.84884 0
M  V30 5785 H 535.752 -2.48987 4.8918 0
M  V30 5786 H 536.013 -3.01292 3.23536 0
M  V30 5787 N 535.072 -1.5615 -0.213296 0
M  V30 5788 C 536.349 -1.70349 -0.961281 0
M  V30 5789 C 536.729 -0.609791 -2.02101 0
M  V30 5790 O 536.077 0.381987 -2.25285 0
M  V30 5791 C 536.287 -3.11982 -1.56424 0
M  V30 5792 C 537.635 -3.71649 -2.05334 0
M  V30 5793 O 538.659 -3.14995 -1.66302 0
M  V30 5794 O 537.518 -4.71038 -2.77102 0
M  V30 5795 H 534.612 -0.694121 -0.449582 0
M  V30 5796 H 537.158 -1.68464 -0.204426 0
M  V30 5797 H 535.93 -3.83046 -0.799457 0
M  V30 5798 H 535.553 -3.18019 -2.38641 0
M  V30 5799 N 536.55 0.480323 -1.50102 0
M  V30 5800 C 537.796 1.23489 -1.60867 0
M  V30 5801 C 538.129 1.91809 -0.303827 0
M  V30 5802 O 537.404 1.81694 0.694092 0
M  V30 5803 C 537.687 2.28578 -2.78252 0
M  V30 5804 C 537.54 1.64624 -4.18592 0
M  V30 5805 C 538.859 3.2997 -2.91218 0
M  V30 5806 H 535.978 0.447605 -0.585507 0
M  V30 5807 H 538.62 0.530005 -1.82458 0
M  V30 5808 H 536.77 2.88697 -2.59974 0
M  V30 5809 H 538.442 1.08173 -4.48438 0
M  V30 5810 H 536.685 0.949645 -4.23278 0
M  V30 5811 H 537.356 2.40946 -4.96638 0
M  V30 5812 H 539.832 2.79864 -3.07921 0
M  V30 5813 H 538.708 4.00839 -3.74993 0
M  V30 5814 H 538.969 3.93541 -2.0144 0
M  V30 5815 N 538.028 1.39524 0.732853 0
M  V30 5816 C 538.991 1.38189 1.82857 0
M  V30 5817 C 539.991 0.278624 1.58368 0
M  V30 5818 O 541.181 0.536639 1.65728 0
M  V30 5819 C 538.313 1.15661 3.2068 0
M  V30 5820 H 539.506 2.35692 1.85444 0
M  V30 5821 H 537.059 1.2512 0.936728 0
M  V30 5822 H 537.794 0.188482 3.23752 0
M  V30 5823 H 537.579 1.95559 3.39852 0
M  V30 5824 H 539.069 1.17472 4.00737 0
M  V30 5825 N 539.506 -0.963266 1.24736 0
M  V30 5826 C 540.917 -1.52145 1.08207 0
M  V30 5827 C 541.268 -1.93142 -0.345061 0
M  V30 5828 O 540.393 -1.77769 -1.23399 0
M  V30 5829 C 540.988 -2.76486 1.95808 0
M  V30 5830 C 539.547 -3.28646 1.8349 0
M  V30 5831 C 538.694 -2.01529 1.90476 0
M  V30 5832 H 541.645 -0.781083 1.38148 0
M  V30 5833 H 541.666 -3.49986 1.49297 0
M  V30 5834 H 541.178 -2.46617 2.99669 0
M  V30 5835 H 539.279 -3.63357 0.824787 0
M  V30 5836 H 539.392 -3.97246 2.67829 0
M  V30 5837 H 537.756 -2.16442 1.34258 0
M  V30 5838 H 538.539 -1.7402 2.95926 0
M  V30 5839 N 540.985 -1.06182 -1.16461 0
M  V30 5840 C 542.401 -0.785065 -1.38956 0
M  V30 5841 C 542.601 0.616103 -1.9185 0
M  V30 5842 O 541.657 1.37686 -2.11657 0
M  V30 5843 C 542.97 -1.84902 -2.37132 0
M  V30 5844 C 544.518 -1.8724 -2.50819 0
M  V30 5845 C 544.993 -2.92686 -3.52277 0
M  V30 5846 N 546.484 -2.91712 -3.59803 0
M  V30 5847 C 547.219 -3.69949 -4.38093 0
M  V30 5848 N 546.715 -4.58 -5.19815 0
M  V30 5849 N 548.508 -3.58346 -4.33064 0
M  V30 5850 H 540.659 -1.96569 -0.804634 0
M  V30 5851 H 542.922 -0.851747 -0.416211 0
M  V30 5852 H 542.628 -2.85518 -2.0536 0
M  V30 5853 H 542.502 -1.69908 -3.36766 0
M  V30 5854 H 544.889 -0.872827 -2.81897 0
M  V30 5855 H 544.97 -2.06311 -1.51226 0
M  V30 5856 H 544.614 -3.92835 -3.21937 0
M  V30 5857 H 544.544 -2.70864 -4.51598 0
M  V30 5858 H 547.035 -2.27876 -3.01464 0
M  V30 5859 H 547.348 -5.14357 -5.76764 0
M  V30 5860 H 545.693 -4.62056 -5.19162 0
M  V30 5861 H 548.884 -2.88943 -3.68279 0
M  V30 5862 H 549.057 -4.19563 -4.93833 0
M  V30 5863 N 542.463 1.3308 -0.844243 0
M  V30 5864 C 543.426 2.27403 -0.286485 0
M  V30 5865 C 544.426 1.51179 0.547872 0
M  V30 5866 O 545.616 1.70421 0.360886 0
M  V30 5867 C 542.748 3.35653 0.595813 0
M  V30 5868 H 543.941 2.78248 -1.11885 0
M  V30 5869 H 541.494 1.43574 -0.617749 0
M  V30 5870 H 542.229 2.90058 1.4504 0
M  V30 5871 H 542.014 3.921 -0.00125994 0
M  V30 5872 H 543.504 4.05958 0.979168 0
M  V30 5873 N 543.941 0.601185 1.45683 0
M  V30 5874 C 544.873 -0.159446 2.28645 0
M  V30 5875 C 545.886 -0.837882 1.39583 0
M  V30 5876 O 547.075 -0.704344 1.64016 0
M  V30 5877 C 544.175 -1.24641 3.15147 0
M  V30 5878 C 543.348 -0.656334 4.32448 0
M  V30 5879 C 542.407 -1.63337 5.00208 0
M  V30 5880 O 541.433 -1.16217 5.57209 0
M  V30 5881 N 542.635 -2.96773 4.98905 0
M  V30 5882 H 545.4 0.5524 2.94565 0
M  V30 5883 H 542.961 0.440223 1.558 0
M  V30 5884 H 544.953 -1.8997 3.57342 0
M  V30 5885 H 543.523 -1.86087 2.51178 0
M  V30 5886 H 542.743 0.174879 3.93812 0
M  V30 5887 H 544.031 -0.242211 5.08223 0
M  V30 5888 H 543.429 -3.37662 4.53873 0
M  V30 5889 H 541.986 -3.57541 5.44984 0
M  V30 5890 N 545.419 -1.53889 0.339982 0
M  V30 5891 C 546.351 -2.22435 -0.55275 0
M  V30 5892 C 547.364 -1.22975 -1.06681 0
M  V30 5893 O 548.553 -1.49351 -0.977575 0
M  V30 5894 C 545.653 -2.8882 -1.77302 0
M  V30 5895 C 544.826 -4.14563 -1.39486 0
M  V30 5896 C 543.885 -4.64391 -2.47442 0
M  V30 5897 O 542.911 -5.28687 -2.10899 0
M  V30 5898 N 544.113 -4.40015 -3.78639 0
M  V30 5899 H 546.878 -2.9968 0.0342669 0
M  V30 5900 H 544.439 -1.61068 0.16394 0
M  V30 5901 H 546.431 -3.19072 -2.48948 0
M  V30 5902 H 545.001 -2.15182 -2.26749 0
M  V30 5903 H 544.221 -3.90896 -0.509321 0
M  V30 5904 H 545.509 -4.96362 -1.11813 0
M  V30 5905 H 544.907 -3.88586 -4.11118 0
M  V30 5906 H 543.464 -4.74881 -4.46465 0
M  V30 5907 N 546.897 -0.0685191 -1.57451 0
M  V30 5908 C 548.125 0.610462 -1.97689 0
M  V30 5909 C 548.54 1.63346 -0.946758 0
M  V30 5910 O 547.897 1.82377 0.0669868 0
M  V30 5911 C 547.948 1.28196 -3.38006 0
M  V30 5912 O 547.669 0.299906 -4.37072 0
M  V30 5913 C 549.17 2.04907 -3.931 0
M  V30 5914 H 546.39 0.165689 -0.650222 0
M  V30 5915 H 548.934 -0.139953 -2.04021 0
M  V30 5916 H 547.089 1.98348 -3.32771 0
M  V30 5917 H 547.503 0.78126 -5.18649 0
M  V30 5918 H 548.977 2.47287 -4.93511 0
M  V30 5919 H 549.454 2.9043 -3.29465 0
M  V30 5920 H 550.06 1.39629 -4.01726 0
M  V30 5921 N 548.375 1.56261 0.205012 0
M  V30 5922 C 549.305 1.96779 1.257 0
M  V30 5923 C 550.286 0.838309 1.48008 0
M  V30 5924 O 551.471 1.10189 1.59913 0
M  V30 5925 C 548.601 2.29876 2.60335 0
M  V30 5926 C 547.555 3.45469 2.52656 0
M  V30 5927 C 546.881 3.64215 3.91473 0
M  V30 5928 C 548.181 4.79954 2.06014 0
M  V30 5929 H 549.875 2.84904 0.920338 0
M  V30 5930 H 547.421 1.37072 0.441277 0
M  V30 5931 H 549.374 2.56814 3.34102 0
M  V30 5932 H 548.098 1.38622 2.95722 0
M  V30 5933 H 546.757 3.18605 1.81345 0
M  V30 5934 H 546.405 2.70309 4.24196 0
M  V30 5935 H 546.105 4.41973 3.87213 0
M  V30 5936 H 547.629 3.93519 4.66878 0
M  V30 5937 H 549.043 5.05989 2.69533 0
M  V30 5938 H 547.44 5.61111 2.12777 0
M  V30 5939 H 548.51 4.74201 1.01297 0
M  V30 5940 N 549.853 -0.472356 1.50355 0
M  V30 5941 C 551.13 -1.23356 1.51798 0
M  V30 5942 C 551.51 -2.09469 0.26193 0
M  V30 5943 O 550.858 -2.15677 -0.754691 0
M  V30 5944 C 551.068 -2.06568 2.81302 0
M  V30 5945 C 552.416 -2.648 3.31913 0
M  V30 5946 O 553.44 -2.16812 2.82614 0
M  V30 5947 O 552.299 -3.52231 4.17846 0
M  V30 5948 H 549.393 -0.559707 0.608816 0
M  V30 5949 H 551.939 -0.48428 1.62643 0
M  V30 5950 H 550.711 -1.43103 3.64194 0
M  V30 5951 H 550.334 -2.88633 2.73454 0
M  V30 5952 N 551.331 -1.39911 -0.725443 0
M  V30 5953 C 552.241 -1.41688 -1.8698 0
M  V30 5954 C 553.257 -0.310579 -1.71206 0
M  V30 5955 O 554.433 -0.55359 -1.93642 0
M  V30 5956 C 551.498 -1.26811 -3.22676 0
M  V30 5957 C 550.559 -2.47497 -3.50776 0
M  V30 5958 C 549.792 -2.3332 -4.79997 0
M  V30 5959 O 550.015 -1.34175 -5.54394 0
M  V30 5960 O 548.949 -3.22498 -5.08211 0
M  V30 5961 H 552.775 -2.38171 -1.88436 0
M  V30 5962 H 550.36 -1.21128 -0.874548 0
M  V30 5963 H 552.242 -1.20684 -4.03749 0
M  V30 5964 H 550.917 -0.334289 -3.21969 0
M  V30 5965 H 549.824 -2.59201 -2.69751 0
M  V30 5966 H 551.157 -3.39606 -3.5627 0
M  V30 5967 N 552.809 0.956637 -1.25245 0
M  V30 5968 C 554.058 1.69537 -1.0927 0
M  V30 5969 C 554.371 1.92136 0.366503 0
M  V30 5970 O 555.577 2.63687 0.64665 0
M  V30 5971 C 554.033 3.05211 -1.9072 0
M  V30 5972 C 553.641 2.90416 -3.41119 0
M  V30 5973 C 555.385 3.82882 -1.83308 0
M  V30 5974 C 553.292 4.21468 -4.14872 0
M  V30 5975 H 552.222 0.635804 -0.405302 0
M  V30 5976 H 554.873 1.06513 -1.49423 0
M  V30 5977 H 553.255 3.69128 -1.43389 0
M  V30 5978 H 554.429 2.35444 -3.9611 0
M  V30 5979 H 552.744 2.26203 -3.49602 0
M  V30 5980 H 555.341 4.79944 -2.35706 0
M  V30 5981 H 555.684 4.0853 -0.800572 0
M  V30 5982 H 556.217 3.25711 -2.28379 0
M  V30 5983 H 552.956 4.01009 -5.18529 0
M  V30 5984 H 552.476 4.76213 -3.64665 0
M  V30 5985 H 554.155 4.90022 -4.22478 0
M  V30 5986 N 554.287 1.06798 1.15896 0
M  V30 5987 C 555.217 0.704677 2.22613 0
M  V30 5988 C 556.198 -0.305252 1.67339 0
M  V30 5989 O 557.383 -0.179247 1.93371 0
M  V30 5990 C 554.513 0.0957325 3.47168 0
M  V30 5991 C 553.467 1.0322 4.15367 0
M  V30 5992 C 552.793 0.286293 5.33933 0
M  V30 5993 C 554.093 2.36341 4.65768 0
M  V30 5994 H 555.787 1.59688 2.53259 0
M  V30 5995 H 553.333 0.769257 1.21731 0
M  V30 5996 H 555.286 -0.170333 4.21056 0
M  V30 5997 H 554.01 -0.831516 3.15838 0
M  V30 5998 H 552.669 1.28309 3.43413 0
M  V30 5999 H 552.317 -0.644237 4.98857 0
M  V30 6000 H 552.017 0.910436 5.80504 0
M  V30 6001 H 553.541 0.0278938 6.10594 0
M  V30 6002 H 554.955 2.1561 5.31211 0
M  V30 6003 H 553.352 2.94299 5.2298 0
M  V30 6004 H 554.422 2.99047 3.81705 0
M  V30 6005 N 555.766 -1.3263 0.851289 0
M  V30 6006 C 557.015 -1.96633 0.449267 0
M  V30 6007 C 557.328 -1.68131 -0.999562 0
M  V30 6008 O 558.534 -2.25845 -1.50685 0
M  V30 6009 C 556.99 -3.51946 0.752446 0
M  V30 6010 C 556.598 -3.89311 2.21678 0
M  V30 6011 C 558.342 -4.22437 0.417983 0
M  V30 6012 C 556.249 -5.37655 2.46336 0
M  V30 6013 H 555.179 -0.735888 0.164269 0
M  V30 6014 H 557.83 -1.51073 1.0416 0
M  V30 6015 H 556.212 -3.95899 0.0895858 0
M  V30 6016 H 557.386 -3.56378 2.92115 0
M  V30 6017 H 555.701 -3.31836 2.51543 0
M  V30 6018 H 558.298 -5.31549 0.579674 0
M  V30 6019 H 558.641 -4.11349 -0.640115 0
M  V30 6020 H 559.174 -3.84057 1.03659 0
M  V30 6021 H 555.913 -5.5376 3.50757 0
M  V30 6022 H 555.433 -5.72005 1.80473 0
M  V30 6023 H 557.112 -6.04695 2.30115 0
M  V30 6024 N 557.244 -0.608902 -1.45362 0
M  V30 6025 C 558.192 0.121639 -2.32282 0
M  V30 6026 C 559.186 0.858301 -1.46046 0
M  V30 6027 O 560.392 0.773718 -1.62523 0
M  V30 6028 H 556.767 0.058086 -0.749753 0
M  V30 6029 H 558.738 -0.629866 -2.91677 0
M  V30 6030 C 557.487 1.1047 -3.29684 0
M  V30 6031 H 556.81 0.547278 -3.96036 0
M  V30 6032 H 558.25 1.58576 -3.9323 0
M  V30 6033 C 556.709 2.17891 -2.56954 0
M  V30 6034 O 557.239 3.25652 -2.35189 0
M  V30 6035 N 555.445 1.93211 -2.17066 0
M  V30 6036 H 554.992 1.05584 -2.34967 0
M  V30 6037 H 554.95 2.6529 -1.68727 0
M  V30 6038 N 558.722 1.53707 -0.348139 0
M  V30 6039 C 559.947 2.05877 0.250883 0
M  V30 6040 C 560.372 1.22115 1.43072 0
M  V30 6041 O 559.73 0.235986 1.79758 0
M  V30 6042 C 559.778 3.54886 0.639416 0
M  V30 6043 O 558.882 3.73948 1.73888 0
M  V30 6044 H 558.223 0.662754 0.040653 0
M  V30 6045 H 560.753 1.98303 -0.503685 0
M  V30 6046 H 560.763 3.97601 0.915295 0
M  V30 6047 H 559.438 4.153 -0.223386 0
M  V30 6048 H 558.015 3.43134 1.45991 0
M  V30 6049 N 560.2 0.0768682 1.57412 0
M  V30 6050 C 561.425 -0.603404 1.98428 0
M  V30 6051 C 561.85 -1.62047 0.955108 0
M  V30 6052 O 561.208 -1.81129 -0.0786778 0
M  V30 6053 C 561.256 -1.24396 3.38464 0
M  V30 6054 O 560.36 -2.35982 3.3821 0
M  V30 6055 H 559.701 -0.154741 0.645718 0
M  V30 6056 H 562.231 0.152885 2.04028 0
M  V30 6057 H 562.241 -1.5896 3.7576 0
M  V30 6058 H 560.916 -0.498735 4.12899 0
M  V30 6059 H 559.493 -2.03173 3.1269 0
M  V30 6060 N 561.678 -1.56367 -0.196722 0
M  V30 6061 C 562.626 -1.95304 -1.2633 0
M  V30 6062 C 563.62 -0.838252 -1.47206 0
M  V30 6063 O 564.826 -1.02325 -1.48087 0
M  V30 6064 H 561.201 -0.621013 -0.424083 0
M  V30 6065 H 563.172 -2.84254 -0.907879 0
M  V30 6066 C 561.921 -2.3074 -2.60104 0
M  V30 6067 H 561.244 -3.16047 -2.44856 0
M  V30 6068 H 562.684 -2.61849 -3.33484 0
M  V30 6069 C 561.143 -1.14143 -3.16975 0
M  V30 6070 O 561.673 -0.415602 -3.99544 0
M  V30 6071 N 559.879 -0.91867 -2.75697 0
M  V30 6072 H 559.426 -1.51065 -2.08656 0
M  V30 6073 H 559.384 -0.140321 -3.14087 0
M  V30 6074 N 563.156 0.464375 -1.50603 0
M  V30 6075 C 564.572 0.798684 -1.38178 0
M  V30 6076 C 564.772 1.96568 -0.44308 0
M  V30 6077 O 563.828 2.52252 0.111814 0
M  V30 6078 C 565.141 1.10444 -2.79683 0
M  V30 6079 C 566.689 1.2105 -2.88645 0
M  V30 6080 C 567.164 1.54934 -4.30998 0
M  V30 6081 N 568.655 1.61913 -4.3398 0
M  V30 6082 C 569.39 1.8965 -5.41129 0
M  V30 6083 N 568.886 2.15361 -6.58477 0
M  V30 6084 N 570.679 1.91207 -5.28579 0
M  V30 6085 H 562.83 -0.304603 -2.10204 0
M  V30 6086 H 565.093 -0.0737804 -0.945125 0
M  V30 6087 H 564.799 0.319934 -3.50242 0
M  V30 6088 H 564.673 2.03896 -3.17342 0
M  V30 6089 H 567.06 1.98567 -2.18301 0
M  V30 6090 H 567.141 0.255613 -2.5452 0
M  V30 6091 H 566.785 0.779549 -5.01882 0
M  V30 6092 H 566.715 2.51584 -4.62615 0
M  V30 6093 H 569.206 1.44055 -3.49366 0
M  V30 6094 H 569.519 2.35818 -7.35941 0
M  V30 6095 H 567.864 2.1274 -6.6164 0
M  V30 6096 H 571.055 1.70622 -4.35897 0
M  V30 6097 H 571.228 2.12488 -6.12171 0
M  V30 6098 N 564.634 1.40294 0.718013 0
M  V30 6099 C 565.882 1.38167 1.47494 0
M  V30 6100 C 566.203 -0.01607 1.94993 0
M  V30 6101 O 565.473 -0.970396 1.70177 0
M  V30 6102 H 564.053 0.508505 0.547203 0
M  V30 6103 H 566.715 1.75324 0.851322 0
M  V30 6104 H 565.811 2.05503 2.34894 0
M  V30 6105 N 566.112 -0.949982 1.2575 0
M  V30 6106 C 567.358 -1.69766 1.10938 0
M  V30 6107 C 567.691 -1.91056 -0.348028 0
M  V30 6108 O 566.966 -1.48488 -1.25625 0
M  V30 6109 C 567.249 -3.07779 1.86933 0
M  V30 6110 C 567.102 -2.9387 3.4053 0
M  V30 6111 C 568.421 -4.07749 1.65616 0
M  V30 6112 H 565.54 -0.616144 0.404396 0
M  V30 6113 H 568.182 -1.10394 1.54639 0
M  V30 6114 H 566.332 -3.58462 1.4979 0
M  V30 6115 H 568.004 -2.50476 3.87375 0
M  V30 6116 H 566.247 -2.29686 3.68004 0
M  V30 6117 H 566.918 -3.91719 3.88922 0
M  V30 6118 H 569.394 -3.65994 1.97959 0
M  V30 6119 H 568.27 -5.02348 2.21218 0
M  V30 6120 H 568.531 -4.38029 0.598595 0
M  V30 6121 N 567.59 -1.07411 -1.15328 0
M  V30 6122 C 568.818 -0.818782 -1.90009 0
M  V30 6123 C 569.233 0.628072 -1.78047 0
M  V30 6124 O 568.59 1.43085 -1.13282 0
M  V30 6125 C 568.641 -1.21874 -3.40337 0
M  V30 6126 O 568.362 -2.60883 -3.51954 0
M  V30 6127 C 569.863 -0.992796 -4.3204 0
M  V30 6128 H 567.083 -0.296007 -0.60218 0
M  V30 6129 H 569.627 -1.43073 -1.46117 0
M  V30 6130 H 567.782 -0.651103 -3.81889 0
M  V30 6131 H 568.196 -2.77216 -4.45255 0
M  V30 6132 H 569.67 -1.32215 -5.35932 0
M  V30 6133 H 570.147 0.0708331 -4.39143 0
M  V30 6134 H 570.753 -1.54537 -3.9623 0
M  V30 6135 N 569.068 1.32177 -0.85831 0
M  V30 6136 C 570.484 1.49873 -0.548656 0
M  V30 6137 C 570.684 1.79278 0.919874 0
M  V30 6138 O 569.74 1.86451 1.70271 0
M  V30 6139 C 571.053 2.64043 -1.4388 0
M  V30 6140 C 572.601 2.77928 -1.43961 0
M  V30 6141 C 573.076 3.95182 -2.31506 0
M  V30 6142 N 574.567 4.0245 -2.29321 0
M  V30 6143 C 575.302 4.9242 -2.93786 0
M  V30 6144 N 574.798 5.87373 -3.67376 0
M  V30 6145 N 576.591 4.85572 -2.83155 0
M  V30 6146 H 568.742 1.11357 -1.80868 0
M  V30 6147 H 571.005 0.549175 -0.772729 0
M  V30 6148 H 570.711 2.49055 -2.48324 0
M  V30 6149 H 570.585 3.59912 -1.12885 0
M  V30 6150 H 572.972 2.92338 -0.402813 0
M  V30 6151 H 573.053 1.82762 -1.78974 0
M  V30 6152 H 572.697 3.81531 -3.35256 0
M  V30 6153 H 572.627 4.89633 -1.93823 0
M  V30 6154 H 575.118 3.34507 -1.75822 0
M  V30 6155 H 575.431 6.52728 -4.13722 0
M  V30 6156 H 573.776 5.87388 -3.71484 0
M  V30 6157 H 576.967 4.10363 -2.25211 0
M  V30 6158 H 577.14 5.55486 -3.33676 0
M  V30 6159 N 570.547 0.616602 1.45037 0
M  V30 6160 C 571.477 -0.0840787 2.33349 0
M  V30 6161 C 572.458 -0.849641 1.4736 0
M  V30 6162 O 573.643 -0.818407 1.76113 0
M  V30 6163 C 570.773 -1.07604 3.3021 0
M  V30 6164 C 569.727 -0.423096 4.25904 0
M  V30 6165 C 569.053 -1.52394 5.12523 0
M  V30 6166 C 570.353 0.661457 5.18095 0
M  V30 6167 H 572.047 0.653333 2.92185 0
M  V30 6168 H 569.593 0.315634 1.40498 0
M  V30 6169 H 571.546 -1.57485 3.90866 0
M  V30 6170 H 570.27 -1.84416 2.69552 0
M  V30 6171 H 568.929 0.05493 3.66559 0
M  V30 6172 H 568.577 -2.28257 4.48227 0
M  V30 6173 H 568.277 -1.09251 5.77354 0
M  V30 6174 H 569.801 -2.02485 5.76049 0
M  V30 6175 H 571.215 0.246353 5.7277 0
M  V30 6176 H 569.612 1.01517 5.91451 0
M  V30 6177 H 570.682 1.53446 4.59981 0
M  V30 6178 N 572.025 -1.5352 0.356285 0
M  V30 6179 C 572.988 -2.24071 -0.482182 0
M  V30 6180 C 573.988 -1.24531 -1.01729 0
M  V30 6181 O 575.178 -1.48876 -0.904513 0
M  V30 6182 C 572.31 -2.97025 -1.67299 0
M  V30 6183 H 573.503 -2.99596 0.135031 0
M  V30 6184 H 571.056 -1.55928 0.107825 0
M  V30 6185 H 571.791 -2.25719 -2.32855 0
M  V30 6186 H 571.576 -3.7005 -1.29636 0
M  V30 6187 H 573.066 -3.50683 -2.26741 0
M  V30 6188 N 573.503 -0.0852151 -1.57369 0
M  V30 6189 C 574.75 0.580806 -1.93992 0
M  V30 6190 C 575.078 1.68801 -0.966252 0
M  V30 6191 O 574.333 1.95694 0.0158649 0
M  V30 6192 C 574.632 1.18482 -3.3719 0
M  V30 6193 C 574.298 0.2024 -4.50446 0
M  V30 6194 C 572.96 -0.0678318 -4.81152 0
M  V30 6195 C 575.312 -0.46895 -5.19086 0
M  V30 6196 C 572.64 -1.01627 -5.77831 0
M  V30 6197 C 574.992 -1.4058 -6.16782 0
M  V30 6198 C 573.656 -1.68436 -6.45899 0
M  V30 6199 H 572.926 0.212532 -0.709867 0
M  V30 6200 H 575.573 -0.158947 -1.90839 0
M  V30 6201 H 573.878 2.0006 -3.36873 0
M  V30 6202 H 575.575 1.70767 -3.62822 0
M  V30 6203 H 572.165 0.423208 -4.26505 0
M  V30 6204 H 576.349 -0.273307 -4.95547 0
M  V30 6205 H 571.605 -1.2392 -5.9871 0
M  V30 6206 H 575.779 -1.93188 -6.69068 0
M  V30 6207 H 573.406 -2.42088 -7.20623 0
M  V30 6208 N 574.981 1.5647 0.188427 0
M  V30 6209 C 576.397 1.50204 0.539532 0
M  V30 6210 C 576.597 0.78644 1.85519 0
M  V30 6211 O 575.653 0.339714 2.50204 0
M  V30 6212 C 576.966 2.94893 0.588103 0
M  V30 6213 C 578.514 3.05602 0.67648 0
M  V30 6214 C 578.989 4.51716 0.756101 0
M  V30 6215 N 580.48 4.55894 0.819451 0
M  V30 6216 C 581.215 5.66272 0.90134 0
M  V30 6217 N 580.711 6.86323 0.945118 0
M  V30 6218 N 582.504 5.54201 0.939043 0
M  V30 6219 H 574.655 2.01406 -0.674493 0
M  V30 6220 H 576.918 0.916828 -0.241103 0
M  V30 6221 H 576.624 3.50334 -0.309633 0
M  V30 6222 H 576.498 3.4861 1.44051 0
M  V30 6223 H 578.885 2.50206 1.56465 0
M  V30 6224 H 578.966 2.54999 -0.202262 0
M  V30 6225 H 578.61 5.07739 -0.12774 0
M  V30 6226 H 578.54 5.00058 1.65074 0
M  V30 6227 H 581.031 3.69452 0.794594 0
M  V30 6228 H 581.344 7.66194 1.0083 0
M  V30 6229 H 579.689 6.88968 0.913683 0
M  V30 6230 H 582.88 4.59333 0.901725 0
M  V30 6231 H 583.053 6.40247 0.999402 0
M  V30 6232 N 576.459 -0.456382 1.50847 0
M  V30 6233 C 577.392 -1.57177 1.65441 0
M  V30 6234 C 578.37 -1.54649 0.502224 0
M  V30 6235 O 579.554 -1.74057 0.723633 0
M  V30 6236 C 576.681 -2.95763 1.65052 0
M  V30 6237 C 575.727 -3.16389 2.86007 0
M  V30 6238 S 576.56 -2.94716 4.47105 0
M  V30 6239 C 577.716 -4.35617 4.49432 0
M  V30 6240 H 577.949 -1.44561 2.59787 0
M  V30 6241 H 575.482 -0.644758 1.40293 0
M  V30 6242 H 577.44 -3.75654 1.65512 0
M  V30 6243 H 576.101 -3.05756 0.719153 0
M  V30 6244 H 575.294 -4.17667 2.82081 0
M  V30 6245 H 574.896 -2.44293 2.8319 0
M  V30 6246 H 577.188 -5.28503 4.239 0
M  V30 6247 H 578.131 -4.44582 5.51137 0
M  V30 6248 H 578.539 -4.18382 3.78967 0
M  V30 6249 N 577.937 -1.40673 -0.710563 0
M  V30 6250 C 579.348 -1.34975 -1.28991 0
M  V30 6251 C 579.699 -0.0256272 -1.96183 0
M  V30 6252 O 578.824 0.876339 -1.97862 0
M  V30 6253 C 579.419 -2.44467 -2.34567 0
M  V30 6254 C 577.978 -2.42213 -2.88114 0
M  V30 6255 C 577.125 -2.25085 -1.61963 0
M  V30 6256 H 580.076 -1.50406 -0.506343 0
M  V30 6257 H 580.097 -2.12663 -3.15523 0
M  V30 6258 H 579.609 -3.40825 -1.85634 0
M  V30 6259 H 577.71 -1.49568 -3.41263 0
M  V30 6260 H 577.823 -3.37983 -3.39565 0
M  V30 6261 H 576.187 -1.72691 -1.87216 0
M  V30 6262 H 576.97 -3.23449 -1.15047 0
M  V30 6263 N 579.415 0.9433 -1.26252 0
M  V30 6264 C 580.826 1.50404 -1.10614 0
M  V30 6265 C 581.177 1.93666 0.31429 0
M  V30 6266 O 580.302 1.79709 1.20555 0
M  V30 6267 C 580.897 2.73336 -2.00182 0
M  V30 6268 C 579.456 3.25686 -1.88695 0
M  V30 6269 C 578.603 1.98474 -1.93658 0
M  V30 6270 H 581.554 0.759006 -1.39373 0
M  V30 6271 H 581.575 3.47567 -1.54847 0
M  V30 6272 H 581.087 2.41818 -3.03555 0
M  V30 6273 H 579.188 3.61998 -0.882489 0
M  V30 6274 H 579.301 3.92935 -2.74115 0
M  V30 6275 H 577.665 2.14278 -1.37684 0
M  V30 6276 H 578.448 1.6929 -2.98657 0
M  V30 6277 N 580.893 1.08022 1.14757 0
M  V30 6278 C 582.118 0.82895 1.90114 0
M  V30 6279 C 582.543 -0.612772 1.77839 0
M  V30 6280 O 581.901 -1.42895 1.11583 0
M  V30 6281 C 581.949 1.25062 3.38219 0
M  V30 6282 O 581.053 0.400119 4.10454 0
M  V30 6283 H 580.394 0.301412 0.591648 0
M  V30 6284 H 582.924 1.44062 1.45284 0
M  V30 6285 H 582.934 1.22977 3.89025 0
M  V30 6286 H 581.609 2.30067 3.46471 0
M  V30 6287 H 580.186 0.484052 3.69745 0
M  V30 6288 N 582.371 -1.3172 0.865308 0
M  V30 6289 C 583.334 -2.26918 0.322627 0
M  V30 6290 C 584.334 -1.52031 -0.523751 0
M  V30 6291 O 585.524 -1.70973 -0.333727 0
M  V30 6292 C 582.656 -3.36558 -0.542338 0
M  V30 6293 H 583.849 -2.76432 1.16298 0
M  V30 6294 H 581.402 -1.42573 0.640512 0
M  V30 6295 H 582.137 -2.92329 -1.40407 0
M  V30 6296 H 581.922 -3.92048 0.0636395 0
M  V30 6297 H 583.412 -4.07465 -0.91446 0
M  V30 6298 N 583.85 -0.624285 -1.44708 0
M  V30 6299 C 584.779 0.0717025 -2.3339 0
M  V30 6300 C 585.76 0.841814 -1.47809 0
M  V30 6301 O 586.946 0.809056 -1.76544 0
M  V30 6302 C 584.076 1.05852 -3.30776 0
M  V30 6303 C 583.029 0.400503 -4.26122 0
M  V30 6304 C 582.356 1.49674 -5.13324 0
M  V30 6305 C 583.656 -0.688924 -5.17737 0
M  V30 6306 H 585.35 -0.668819 -2.91834 0
M  V30 6307 H 582.896 -0.32308 -1.40329 0
M  V30 6308 H 584.849 1.5541 -3.91696 0
M  V30 6309 H 583.572 1.82984 -2.70526 0
M  V30 6310 H 582.231 -0.0743687 -3.66525 0
M  V30 6311 H 581.88 2.25877 -4.49431 0
M  V30 6312 H 581.58 1.06188 -5.77926 0
M  V30 6313 H 583.104 1.99427 -5.77115 0
M  V30 6314 H 584.518 -0.276724 -5.72632 0
M  V30 6315 H 582.915 -1.04652 -5.90904 0
M  V30 6316 H 583.985 -1.55884 -4.5916 0
M  V30 6317 N 585.328 1.53329 -0.364422 0
M  V30 6318 C 586.261 2.22052 0.526145 0
M  V30 6319 C 587.239 1.21203 1.08391 0
M  V30 6320 O 588.423 1.50101 1.14026 0
M  V30 6321 C 585.55 2.91432 1.72583 0
M  V30 6322 C 584.596 4.06345 1.29562 0
M  V30 6323 S 585.429 5.34671 0.297885 0
M  V30 6324 C 586.585 6.07563 1.50392 0
M  V30 6325 H 586.818 2.97244 -0.0575055 0
M  V30 6326 H 584.351 1.53684 -0.148525 0
M  V30 6327 H 586.309 3.3202 2.41398 0
M  V30 6328 H 584.97 2.15966 2.28073 0
M  V30 6329 H 584.163 4.53901 2.19067 0
M  V30 6330 H 583.765 3.67642 0.686696 0
M  V30 6331 H 586.057 6.32224 2.43513 0
M  V30 6332 H 587 6.99973 1.06977 0
M  V30 6333 H 587.408 5.37994 1.70945 0
M  V30 6334 N 586.806 0.0935595 1.57322 0
M  V30 6335 C 587.716 -0.880192 2.17462 0
M  V30 6336 C 588.732 -1.31135 1.14366 0
M  V30 6337 O 589.908 -1.37958 1.46729 0
M  V30 6338 C 586.973 -2.12184 2.74188 0
M  V30 6339 C 586.034 -1.74503 3.92234 0
M  V30 6340 C 585.267 -2.92748 4.46245 0
M  V30 6341 O 585.49 -4.07427 3.99198 0
M  V30 6342 O 584.424 -2.71303 5.37288 0
M  V30 6343 H 588.25 -0.398516 3.01074 0
M  V30 6344 H 585.835 -0.130707 1.48827 0
M  V30 6345 H 587.717 -2.84953 3.10451 0
M  V30 6346 H 586.392 -2.59407 1.93623 0
M  V30 6347 H 585.299 -0.989186 3.60785 0
M  V30 6348 H 586.632 -1.32044 4.74157 0
M  V30 6349 N 588.284 -1.56567 -0.180126 0
M  V30 6350 C 589.512 -1.85618 -0.913972 0
M  V30 6351 C 589.927 -0.677892 -1.7621 0
M  V30 6352 O 589.284 0.353171 -1.7905 0
M  V30 6353 C 589.335 -3.13619 -1.79793 0
M  V30 6354 O 589.056 -4.26906 -0.98402 0
M  V30 6355 C 590.557 -3.55954 -2.64219 0
M  V30 6356 H 587.777 -0.616043 -0.265954 0
M  V30 6357 H 590.321 -2.03681 -0.182872 0
M  V30 6358 H 588.476 -2.97409 -2.48247 0
M  V30 6359 H 588.89 -4.9989 -1.58776 0
M  V30 6360 H 590.364 -4.48444 -3.21873 0
M  V30 6361 H 590.841 -2.79653 -3.38661 0
M  V30 6362 H 591.447 -3.74746 -2.01111 0
M  V30 6363 N 589.762 0.448376 -1.51087 0
M  V30 6364 C 590.992 1.21965 -1.66757 0
M  V30 6365 C 591.4 1.85748 -0.359753 0
M  V30 6366 O 590.743 1.71022 0.670604 0
M  V30 6367 C 590.805 2.35284 -2.71812 0
M  V30 6368 C 590.469 1.91957 -4.1473 0
M  V30 6369 C 591.466 1.42921 -4.9987 0
M  V30 6370 C 589.151 1.99985 -4.60772 0
M  V30 6371 C 591.145 1.02485 -6.29107 0
M  V30 6372 C 588.832 1.5916 -5.90009 0
M  V30 6373 C 589.83 1.10491 -6.74004 0
M  V30 6374 O 589.518 0.702413 -8.00825 0
M  V30 6375 H 589.25 0.374125 -0.563034 0
M  V30 6376 H 591.804 0.538927 -1.98204 0
M  V30 6377 H 590.034 3.06599 -2.35657 0
M  V30 6378 H 591.723 2.97184 -2.76472 0
M  V30 6379 H 592.489 1.36123 -4.65506 0
M  V30 6380 H 588.368 2.36814 -3.95525 0
M  V30 6381 H 591.912 0.644271 -6.94619 0
M  V30 6382 H 587.809 1.65626 -6.2389 0
M  V30 6383 H 588.577 0.829248 -8.14288 0
M  V30 6384 N 591.24 1.41047 0.703093 0
M  V30 6385 C 592.172 1.38228 1.82827 0
M  V30 6386 C 593.185 0.285637 1.60275 0
M  V30 6387 O 594.374 0.54685 1.69917 0
M  V30 6388 C 591.474 1.13136 3.19458 0
M  V30 6389 C 590.647 2.34695 3.69103 0
M  V30 6390 C 589.706 2.05574 4.84382 0
M  V30 6391 O 588.732 2.78549 4.96386 0
M  V30 6392 N 589.934 1.04135 5.71083 0
M  V30 6393 H 592.699 2.35203 1.85741 0
M  V30 6394 H 590.26 1.35562 0.885125 0
M  V30 6395 H 592.252 0.916183 3.94193 0
M  V30 6396 H 590.822 0.247836 3.11616 0
M  V30 6397 H 590.042 2.71963 2.85359 0
M  V30 6398 H 591.33 3.15705 3.99009 0
M  V30 6399 H 590.728 0.43722 5.64008 0
M  V30 6400 H 589.285 0.886078 6.45749 0
M  V30 6401 N 592.718 -0.936591 1.26751 0
M  V30 6402 C 593.666 -2.0573 1.08527 0
M  V30 6403 C 594.66 -1.69397 0.0108784 0
M  V30 6404 O 595.866 -1.79215 0.167915 0
M  V30 6405 H 592.241 -0.673691 0.334133 0
M  V30 6406 H 594.212 -2.1825 2.03493 0
M  V30 6407 C 592.961 -3.39738 0.739845 0
M  V30 6408 H 592.284 -3.68174 1.55845 0
M  V30 6409 H 593.724 -4.18955 0.652149 0
M  V30 6410 C 592.183 -3.32292 -0.555288 0
M  V30 6411 O 592.713 -3.68794 -1.59229 0
M  V30 6412 N 590.919 -2.85394 -0.54762 0
M  V30 6413 H 590.466 -2.55886 0.296667 0
M  V30 6414 H 590.424 -2.80795 -1.41427 0
M  V30 6415 N 594.196 -1.08629 -1.14182 0
M  V30 6416 C 595.159 -0.722027 -2.1753 0
M  V30 6417 C 596.159 0.244305 -1.58933 0
M  V30 6418 O 597.349 0.0235545 -1.74184 0
M  V30 6419 C 594.481 -0.0663966 -3.40835 0
M  V30 6420 H 595.674 -1.63719 -2.51269 0
M  V30 6421 H 593.227 -0.884442 -1.28869 0
M  V30 6422 H 593.962 0.860389 -3.12678 0
M  V30 6423 H 593.747 -0.761598 -3.84632 0
M  V30 6424 H 595.237 0.173346 -4.1724 0
M  V30 6425 N 595.674 1.31259 -0.872281 0
M  V30 6426 C 596.922 1.96233 -0.483409 0
M  V30 6427 C 597.243 1.69276 0.968012 0
M  V30 6428 O 596.513 1.00943 1.67891 0
M  V30 6429 H 595.093 0.726025 -0.175774 0
M  V30 6430 H 597.755 1.60024 -1.11258 0
M  V30 6431 H 596.851 3.05403 -0.643075 0
M  V30 6432 N 597.152 0.631951 1.44375 0
M  V30 6433 C 598.082 -0.0593243 2.33425 0
M  V30 6434 C 599.063 -0.833964 1.48253 0
M  V30 6435 O 600.248 -0.799682 1.76971 0
M  V30 6436 C 597.378 -1.04096 3.31333 0
M  V30 6437 C 596.332 -0.377899 4.26328 0
M  V30 6438 C 595.658 -1.4695 5.14111 0
M  V30 6439 C 596.958 0.716371 5.17364 0
M  V30 6440 H 598.652 0.684287 2.91475 0
M  V30 6441 H 596.198 0.330518 1.40156 0
M  V30 6442 H 598.151 -1.53331 3.92514 0
M  V30 6443 H 596.875 -1.81547 2.71493 0
M  V30 6444 H 595.534 0.0938054 3.6648 0
M  V30 6445 H 595.182 -2.2349 4.50623 0
M  V30 6446 H 594.882 -1.03121 5.78481 0
M  V30 6447 H 596.406 -1.96363 5.78164 0
M  V30 6448 H 597.82 0.307089 5.72477 0
M  V30 6449 H 596.217 1.07784 5.90341 0
M  V30 6450 H 597.287 1.58316 4.58327 0
M  V30 6451 N 598.631 -1.53133 0.372548 0
M  V30 6452 C 599.856 -2.0625 -0.218098 0
M  V30 6453 C 600.281 -1.24375 -1.41111 0
M  V30 6454 O 599.639 -0.264554 -1.79359 0
M  V30 6455 C 599.687 -3.55858 -0.582876 0
M  V30 6456 O 598.791 -3.76667 -1.67917 0
M  V30 6457 H 598.132 -0.663317 -0.030104 0
M  V30 6458 H 600.662 -1.97477 0.535169 0
M  V30 6459 H 600.672 -3.99007 -0.851925 0
M  V30 6460 H 599.347 -4.14892 0.289428 0
M  V30 6461 H 597.924 -3.45413 -1.40513 0
M  V30 6462 N 600.109 -0.101901 -1.5727 0
M  V30 6463 C 601.056 0.854577 -2.14396 0
M  V30 6464 C 602.026 1.27521 -1.06432 0
M  V30 6465 O 603.211 1.35575 -1.34253 0
M  V30 6466 C 600.351 2.10576 -2.73408 0
M  V30 6467 C 599.464 1.73504 -3.95626 0
M  V30 6468 C 598.599 2.9346 -4.42781 0
M  V30 6469 C 597.638 2.52547 -5.57572 0
M  V30 6470 N 596.775 3.65359 -5.99547 0
M  V30 6471 H 601.615 0.360578 -2.9581 0
M  V30 6472 H 599.152 0.166303 -1.46157 0
M  V30 6473 H 601.11 2.83859 -3.05745 0
M  V30 6474 H 599.74 2.57463 -1.94711 0
M  V30 6475 H 598.792 0.901622 -3.6956 0
M  V30 6476 H 600.104 1.39426 -4.78917 0
M  V30 6477 H 599.258 3.74988 -4.76937 0
M  V30 6478 H 597.997 3.30753 -3.58404 0
M  V30 6479 H 597.002 1.69446 -5.23037 0
M  V30 6480 H 598.227 2.1639 -6.43702 0
M  V30 6481 H 596.173 4.02358 -5.18116 0
M  V30 6482 H 596.09 3.35148 -6.77652 0
M  V30 6483 H 597.358 4.47378 -6.38336 0
M  V30 6484 N 601.587 1.56661 0.17182 0
M  V30 6485 C 602.998 1.71652 0.734329 0
M  V30 6486 C 603.349 0.712335 1.82812 0
M  V30 6487 O 602.474 -0.126401 2.16031 0
M  V30 6488 C 603.069 3.11226 1.3388 0
M  V30 6489 C 601.628 3.27904 1.84813 0
M  V30 6490 C 600.775 2.67603 0.726917 0
M  V30 6491 H 603.726 1.5861 -0.0535665 0
M  V30 6492 H 603.747 3.09849 2.20849 0
M  V30 6493 H 603.259 3.8429 0.54249 0
M  V30 6494 H 601.36 2.59796 2.6709 0
M  V30 6495 H 601.473 4.35637 1.99392 0
M  V30 6496 H 599.837 2.274 1.14723 0
M  V30 6497 H 600.62 3.43252 -0.0575334 0
M  V30 6498 N 603.065 -0.440357 1.51323 0
M  V30 6499 C 604.293 -1.21255 1.67645 0
M  V30 6500 C 604.708 -1.85088 0.37252 0
M  V30 6501 O 604.065 -1.70582 -0.648683 0
M  V30 6502 C 604.116 -2.29881 2.78993 0
M  V30 6503 O 603.837 -1.68659 4.04334 0
M  V30 6504 C 605.338 -3.20214 3.06558 0
M  V30 6505 H 602.558 -0.36558 0.562666 0
M  V30 6506 H 605.102 -0.52214 1.97722 0
M  V30 6507 H 603.257 -2.94643 2.51524 0
M  V30 6508 H 603.671 -2.40426 4.6615 0
M  V30 6509 H 605.145 -3.92575 3.88058 0
M  V30 6510 H 605.622 -3.80794 2.18844 0
M  V30 6511 H 606.228 -2.61156 3.35675 0
M  V30 6512 N 604.543 -1.41418 -0.695603 0
M  V30 6513 C 605.82 -1.31264 -1.45014 0
M  V30 6514 C 606.2 0.0597994 -2.11015 0
M  V30 6515 O 605.548 1.07403 -2.01685 0
M  V30 6516 C 605.758 -2.466 -2.4696 0
M  V30 6517 C 607.106 -2.87763 -3.12214 0
M  V30 6518 O 608.13 -2.46339 -2.57285 0
M  V30 6519 O 606.989 -3.59395 -4.11701 0
M  V30 6520 H 604.083 -0.516576 -0.645816 0
M  V30 6521 H 606.629 -1.53382 -0.726084 0
M  V30 6522 H 605.401 -3.38183 -1.96845 0
M  V30 6523 H 605.024 -2.26358 -3.26876 0
M  V30 6524 N 606.021 0.929856 -1.27246 0
M  V30 6525 C 606.951 2.04722 -1.12299 0
M  V30 6526 C 607.932 1.70082 -0.0250464 0
M  V30 6527 O 609.117 1.93176 -0.199141 0
M  V30 6528 C 606.247 3.38721 -0.767145 0
M  V30 6529 C 605.201 3.87466 -1.81808 0
M  V30 6530 C 604.527 5.18246 -1.31626 0
M  V30 6531 C 605.827 4.11095 -3.22177 0
M  V30 6532 H 607.521 2.17485 -2.05769 0
M  V30 6533 H 605.067 1.04503 -0.990715 0
M  V30 6534 H 607.02 4.16366 -0.649413 0
M  V30 6535 H 605.744 3.25967 0.203259 0
M  V30 6536 H 604.403 3.12012 -1.92468 0
M  V30 6537 H 604.051 5.01881 -0.335378 0
M  V30 6538 H 603.751 5.51829 -2.01887 0
M  V30 6539 H 605.275 5.98462 -1.21143 0
M  V30 6540 H 606.689 4.79316 -3.1453 0
M  V30 6541 H 605.086 4.55982 -3.90129 0
M  V30 6542 H 606.156 3.16468 -3.67391 0
M  V30 6543 N 607.499 1.09233 1.13605 0
M  V30 6544 C 608.747 0.825525 1.84471 0
M  V30 6545 C 609.068 -0.650702 1.83823 0
M  V30 6546 O 608.338 -1.47204 1.29259 0
M  V30 6547 H 606.918 0.3024 0.683054 0
M  V30 6548 H 609.58 1.38006 1.37624 0
M  V30 6549 H 608.676 1.17727 2.89045 0
M  V30 6550 N 608.977 -1.30795 0.87923 0
M  V30 6551 C 609.907 -2.30742 0.357796 0
M  V30 6552 C 610.888 -1.60747 -0.556283 0
M  V30 6553 O 612.073 -1.88393 -0.47135 0
M  V30 6554 C 609.203 -3.44583 -0.433555 0
M  V30 6555 C 608.157 -4.26235 0.388251 0
M  V30 6556 C 607.483 -5.32073 -0.529352 0
M  V30 6557 C 608.783 -4.96303 1.62729 0
M  V30 6558 H 610.477 -2.74605 1.19299 0
M  V30 6559 H 608.023 -1.32017 0.575104 0
M  V30 6560 H 609.976 -4.13563 -0.808934 0
M  V30 6561 H 608.7 -2.99511 -1.30234 0
M  V30 6562 H 607.359 -3.58936 0.745695 0
M  V30 6563 H 607.007 -4.83249 -1.39569 0
M  V30 6564 H 606.707 -5.87598 0.0166741 0
M  V30 6565 H 608.231 -6.0391 -0.901373 0
M  V30 6566 H 609.645 -5.5783 1.32283 0
M  V30 6567 H 608.042 -5.61666 2.11309 0
M  V30 6568 H 609.112 -4.22758 2.37494 0
M  V30 6569 N 610.455 -0.639598 -1.44038 0
M  V30 6570 C 611.704 -0.144885 -2.01179 0
M  V30 6571 C 612.017 1.24372 -1.50967 0
M  V30 6572 O 613.223 1.83291 -2.00292 0
M  V30 6573 C 611.679 -0.208244 -3.59297 0
M  V30 6574 C 611.287 -1.59869 -4.18504 0
M  V30 6575 C 613.031 0.229568 -4.23879 0
M  V30 6576 C 610.938 -1.61671 -5.68873 0
M  V30 6577 H 609.868 -0.0504005 -0.752314 0
M  V30 6578 H 612.519 -0.799639 -1.65161 0
M  V30 6579 H 610.901 0.513767 -3.92653 0
M  V30 6580 H 612.075 -2.34496 -3.96671 0
M  V30 6581 H 610.39 -1.98131 -3.66242 0
M  V30 6582 H 612.987 0.235758 -5.3418 0
M  V30 6583 H 613.33 1.25848 -3.96822 0
M  V30 6584 H 613.863 -0.440233 -3.95357 0
M  V30 6585 H 610.602 -2.62427 -6.00677 0
M  V30 6586 H 610.122 -0.913489 -5.92803 0
M  V30 6587 H 611.801 -1.35439 -6.32665 0
M  V30 6588 N 611.933 1.52934 -0.380664 0
M  V30 6589 C 613.181 2.01069 0.203874 0
M  V30 6590 C 613.502 1.26922 1.4804 0
M  V30 6591 O 612.772 0.386787 1.92044 0
M  V30 6592 H 611.352 0.742882 0.0783279 0
M  V30 6593 H 614.014 1.88099 -0.510368 0
M  V30 6594 H 613.11 3.09258 0.42021 0
M  V30 6595 N 613.412 0.11024 1.57214 0
M  V30 6596 C 614.322 -0.857077 2.18383 0
M  V30 6597 C 615.338 -1.29915 1.1575 0
M  V30 6598 O 616.514 -1.36394 1.48184 0
M  V30 6599 C 613.579 -2.09264 2.76423 0
M  V30 6600 C 612.64 -1.70333 3.94063 0
M  V30 6601 C 611.873 -2.87999 4.49324 0
M  V30 6602 O 612.096 -4.0317 4.03497 0
M  V30 6603 O 611.03 -2.6559 5.40135 0
M  V30 6604 H 614.856 -0.366561 3.0148 0
M  V30 6605 H 612.441 -0.114914 1.48957 0
M  V30 6606 H 614.323 -2.81644 3.13456 0
M  V30 6607 H 612.998 -2.57339 1.96363 0
M  V30 6608 H 611.905 -0.950864 3.61814 0
M  V30 6609 H 613.238 -1.27007 4.75531 0
M  V30 6610 N 614.89 -1.56749 -0.16351 0
M  V30 6611 C 615.822 -1.93587 -1.22705 0
M  V30 6612 C 616.835 -0.829824 -1.40063 0
M  V30 6613 O 618.024 -1.10826 -1.39928 0
M  V30 6614 C 615.124 -2.1803 -2.59454 0
M  V30 6615 C 614.297 -3.4928 -2.63292 0
M  V30 6616 C 613.356 -3.62457 -3.8146 0
M  V30 6617 O 612.382 -4.35004 -3.67096 0
M  V30 6618 N 613.584 -2.97888 -4.9824 0
M  V30 6619 H 616.349 -2.8542 -0.914081 0
M  V30 6620 H 613.91 -1.58 -0.353214 0
M  V30 6621 H 615.902 -2.24102 -3.36987 0
M  V30 6622 H 614.472 -1.32543 -2.8311 0
M  V30 6623 H 613.692 -3.54795 -1.71796 0
M  V30 6624 H 614.98 -4.35632 -2.62873 0
M  V30 6625 H 614.378 -2.38833 -5.12811 0
M  V30 6626 H 612.935 -3.09545 -5.73607 0
M  V30 6627 N 616.368 0.432326 -1.51554 0
M  V30 6628 C 617.614 1.18309 -1.64714 0
M  V30 6629 C 617.947 1.90745 -0.364696 0
M  V30 6630 O 617.222 1.8381 0.635936 0
M  V30 6631 C 617.505 2.1961 -2.85383 0
M  V30 6632 C 617.358 1.51223 -4.23617 0
M  V30 6633 C 618.677 3.20538 -3.01569 0
M  V30 6634 H 615.796 0.428751 -0.599451 0
M  V30 6635 H 618.438 0.471689 -1.84052 0
M  V30 6636 H 616.588 2.8028 -2.69027 0
M  V30 6637 H 618.26 0.938516 -4.51652 0
M  V30 6638 H 616.503 0.814501 -4.26085 0
M  V30 6639 H 617.174 2.25024 -5.04052 0
M  V30 6640 H 619.65 2.69926 -3.16669 0
M  V30 6641 H 618.526 3.88706 -3.87555 0
M  V30 6642 H 618.787 3.86933 -2.13859 0
M  V30 6643 N 617.846 1.41785 0.688094 0
M  V30 6644 C 619.094 1.41264 1.4453 0
M  V30 6645 C 619.415 0.0252946 1.94984 0
M  V30 6646 O 618.685 -0.934081 1.72197 0
M  V30 6647 H 617.265 0.519998 0.536294 0
M  V30 6648 H 619.927 1.7709 0.813941 0
M  V30 6649 H 619.023 2.10439 2.30482 0
M  V30 6650 N 619.324 -0.923095 1.27737 0
M  V30 6651 C 620.573 -1.66581 1.13727 0
M  V30 6652 C 620.886 -1.9304 -0.315433 0
M  V30 6653 O 622.092 -2.65309 -0.57651 0
M  V30 6654 C 620.548 -3.00047 1.98745 0
M  V30 6655 C 620.156 -2.8127 3.48699 0
M  V30 6656 C 621.9 -3.77887 1.93395 0
M  V30 6657 C 619.807 -4.1032 4.25901 0
M  V30 6658 H 618.737 -0.624834 0.422017 0
M  V30 6659 H 621.388 -1.02514 1.52194 0
M  V30 6660 H 619.77 -3.65197 1.53125 0
M  V30 6661 H 620.944 -2.24859 4.02213 0
M  V30 6662 H 619.259 -2.16854 3.55476 0
M  V30 6663 H 621.856 -4.73526 2.48348 0
M  V30 6664 H 622.199 -4.06264 0.908605 0
M  V30 6665 H 622.732 -3.19541 2.36935 0
M  V30 6666 H 619.471 -3.8712 5.28978 0
M  V30 6667 H 618.991 -4.66377 3.77163 0
M  V30 6668 H 620.67 -4.78648 4.35321 0
M  V30 6669 N 620.802 -1.09834 -1.13024 0
M  V30 6670 C 621.732 -0.763451 -2.20666 0
M  V30 6671 C 622.713 0.260778 -1.68089 0
M  V30 6672 O 623.898 0.127915 -1.93778 0
M  V30 6673 C 621.028 -0.187744 -3.46792 0
M  V30 6674 C 619.982 -1.14196 -4.12484 0
M  V30 6675 C 619.308 -0.427755 -5.32986 0
M  V30 6676 C 620.608 -2.48607 -4.59338 0
M  V30 6677 H 622.302 -1.66347 -2.48936 0
M  V30 6678 H 619.848 -0.801261 -1.19649 0
M  V30 6679 H 621.801 0.0586375 -4.21359 0
M  V30 6680 H 620.525 0.747485 -3.17931 0
M  V30 6681 H 619.184 -1.37369 -3.3989 0
M  V30 6682 H 618.832 0.511747 -5.0039 0
M  V30 6683 H 618.532 -1.06403 -5.77886 0
M  V30 6684 H 620.056 -0.189772 -6.10305 0
M  V30 6685 H 621.47 -2.29618 -5.25308 0
M  V30 6686 H 619.867 -3.08062 -5.14993 0
M  V30 6687 H 620.937 -3.09062 -3.73642 0
M  V30 6688 N 622.28 1.30327 -0.886154 0
M  V30 6689 C 623.228 2.30052 -0.343317 0
M  V30 6690 C 624.222 1.60212 0.550305 0
M  V30 6691 O 625.428 1.74674 0.434609 0
M  V30 6692 H 621.803 0.746306 -0.0923681 0
M  V30 6693 H 623.774 2.73294 -1.19804 0
M  V30 6694 C 622.523 3.45079 0.426107 0
M  V30 6695 H 621.846 3.99003 -0.25227 0
M  V30 6696 H 623.286 4.16931 0.771009 0
M  V30 6697 C 621.745 2.95195 1.62363 0
M  V30 6698 O 622.275 2.95323 2.723 0
M  V30 6699 N 620.481 2.51192 1.4612 0
M  V30 6700 H 620.028 2.51286 0.566832 0
M  V30 6701 H 619.986 2.18173 2.2638 0
M  V30 6702 N 623.758 0.647228 1.43697 0
M  V30 6703 C 624.721 -0.0385101 2.29168 0
M  V30 6704 C 625.721 -0.756487 1.41894 0
M  V30 6705 O 626.911 -0.598641 1.63591 0
M  V30 6706 C 624.043 -1.06524 3.23829 0
M  V30 6707 H 625.236 0.713445 2.9129 0
M  V30 6708 H 622.789 0.408153 1.50877 0
M  V30 6709 H 623.524 -1.84664 2.66589 0
M  V30 6710 H 623.309 -0.554147 3.88164 0
M  V30 6711 H 624.799 -1.54432 3.87996 0
M  V30 6712 N 625.236 -1.5273 0.388769 0
M  V30 6713 C 626.184 -2.27975 -0.461527 0
M  V30 6714 C 627.178 -1.31854 -1.06352 0
M  V30 6715 O 628.384 -1.49394 -1.00406 0
M  V30 6716 H 624.759 -0.733088 -0.16759 0
M  V30 6717 H 626.73 -2.97765 0.194579 0
M  V30 6718 C 625.479 -3.09881 -1.577 0
M  V30 6719 H 624.802 -3.83701 -1.12309 0
M  V30 6720 H 626.242 -3.6567 -2.14619 0
M  V30 6721 C 624.701 -2.22159 -2.53272 0
M  V30 6722 O 625.231 -1.84802 -3.56667 0
M  V30 6723 N 623.437 -1.8633 -2.23001 0
M  V30 6724 H 622.984 -2.16909 -1.38954 0
M  V30 6725 H 622.942 -1.27927 -2.87197 0
M  V30 6726 N 626.714 -0.118576 -1.57153 0
M  V30 6727 C 628.13 0.238014 -1.57815 0
M  V30 6728 C 628.33 1.66747 -1.13127 0
M  V30 6729 O 627.386 2.38867 -0.818462 0
M  V30 6730 C 628.699 0.00508207 -3.007 0
M  V30 6731 C 630.247 0.0710139 -3.12919 0
M  V30 6732 C 630.722 -0.13422 -4.57803 0
M  V30 6733 N 632.213 -0.0801755 -4.63131 0
M  V30 6734 C 632.948 -0.213885 -5.73001 0
M  V30 6735 N 632.444 -0.403742 -6.91623 0
M  V30 6736 N 634.237 -0.15349 -5.6189 0
M  V30 6737 H 626.388 -1.05226 -1.84503 0
M  V30 6738 H 628.651 -0.414318 -0.852669 0
M  V30 6739 H 628.357 -0.983125 -3.3768 0
M  V30 6740 H 628.231 0.73714 -3.69927 0
M  V30 6741 H 630.618 1.04975 -2.75798 0
M  V30 6742 H 630.699 -0.692918 -2.46236 0
M  V30 6743 H 630.343 -1.10992 -4.95624 0
M  V30 6744 H 630.273 0.649692 -5.22577 0
M  V30 6745 H 632.764 0.0630689 -3.77847 0
M  V30 6746 H 633.077 -0.496645 -7.71202 0
M  V30 6747 H 631.422 -0.43971 -6.93608 0
M  V30 6748 H 634.613 -0.00613174 -4.681 0
M  V30 6749 H 634.786 -0.261138 -6.47474 0
M  V30 6750 N 628.193 1.56834 0.155195 0
M  V30 6751 C 629.14 1.97646 1.19184 0
M  V30 6752 C 630.11 0.842788 1.4313 0
M  V30 6753 O 631.295 1.1042 1.55602 0
M  V30 6754 C 628.435 2.35527 2.52232 0
M  V30 6755 C 627.548 3.62147 2.35529 0
M  V30 6756 C 626.683 3.89167 3.61555 0
M  V30 6757 C 625.722 5.09084 3.39853 0
M  V30 6758 N 624.859 5.32156 4.5799 0
M  V30 6759 H 629.699 2.8601 0.836802 0
M  V30 6760 H 627.236 1.41507 0.401758 0
M  V30 6761 H 629.194 2.55516 3.29799 0
M  V30 6762 H 627.824 1.50253 2.85699 0
M  V30 6763 H 626.876 3.4998 1.49057 0
M  V30 6764 H 628.188 4.49871 2.15448 0
M  V30 6765 H 627.342 4.09611 4.47553 0
M  V30 6766 H 626.081 2.9985 3.84632 0
M  V30 6767 H 625.086 4.88522 2.52243 0
M  V30 6768 H 626.311 5.99947 3.18183 0
M  V30 6769 H 624.257 4.45791 4.81255 0
M  V30 6770 H 624.174 6.14133 4.40882 0
M  V30 6771 H 625.442 5.57091 5.45225 0
M  V30 6772 N 629.671 -0.424282 1.51781 0
M  V30 6773 C 631.087 -0.761768 1.40247 0
M  V30 6774 C 631.287 -1.95324 0.495041 0
M  V30 6775 O 630.343 -2.5246 -0.0448949 0
M  V30 6776 C 631.656 -1.0299 2.82513 0
M  V30 6777 C 633.204 -1.13354 2.91753 0
M  V30 6778 C 633.679 -1.43453 4.34954 0
M  V30 6779 N 635.17 -1.5035 4.3812 0
M  V30 6780 C 635.905 -1.75236 5.45967 0
M  V30 6781 N 635.401 -1.97827 6.63955 0
M  V30 6782 N 637.194 -1.77126 5.33463 0
M  V30 6783 H 629.345 0.360228 2.09323 0
M  V30 6784 H 631.608 0.0988128 0.942836 0
M  V30 6785 H 631.314 -0.226961 3.50967 0
M  V30 6786 H 631.188 -1.95411 3.22637 0
M  V30 6787 H 633.575 -1.92709 2.23489 0
M  V30 6788 H 633.656 -0.188041 2.55108 0
M  V30 6789 H 633.3 -0.646209 5.03772 0
M  V30 6790 H 633.23 -2.3923 4.69123 0
M  V30 6791 H 635.721 -1.34742 3.53062 0
M  V30 6792 H 636.034 -2.16223 7.41935 0
M  V30 6793 H 634.379 -1.95123 6.67047 0
M  V30 6794 H 637.57 -1.59005 4.40267 0
M  V30 6795 H 637.743 -1.96182 6.17589 0
M  V30 6796 N 631.149 -1.42148 -0.680565 0
M  V30 6797 C 632.395 -1.4352 -1.44131 0
M  V30 6798 C 632.75 -0.0486244 -1.92339 0
M  V30 6799 O 632.043 0.92819 -1.67616 0
M  V30 6800 C 632.237 -2.38945 -2.65782 0
M  V30 6801 C 632.066 -3.86743 -2.29477 0
M  V30 6802 C 630.836 -4.5532 -2.19115 0
M  V30 6803 C 633.034 -4.77321 -1.91491 0
M  V30 6804 N 631.016 -5.88174 -1.75853 0
M  V30 6805 C 632.387 -5.99238 -1.59103 0
M  V30 6806 C 634.442 -4.64829 -1.78432 0
M  V30 6807 C 633.145 -7.10053 -1.14968 0
M  V30 6808 C 635.171 -5.75621 -1.35702 0
M  V30 6809 C 634.533 -6.96645 -1.04234 0
M  V30 6810 H 630.632 -0.580363 -0.524121 0
M  V30 6811 H 633.216 -1.78132 -0.785939 0
M  V30 6812 H 631.387 -2.06403 -3.29017 0
M  V30 6813 H 633.119 -2.30935 -3.32342 0
M  V30 6814 H 629.874 -4.09456 -2.37998 0
M  V30 6815 H 630.298 -6.58625 -1.56661 0
M  V30 6816 H 634.94 -3.71745 -2.01409 0
M  V30 6817 H 632.658 -8.0299 -0.907365 0
M  V30 6818 H 636.244 -5.67964 -1.26126 0
M  V30 6819 H 635.124 -7.80918 -0.716707 0
M  V30 6820 N 632.627 0.916307 -1.28225 0
M  V30 6821 C 633.59 1.99996 -1.11957 0
M  V30 6822 C 634.59 1.60688 -0.0600152 0
M  V30 6823 O 635.78 1.71499 -0.30558 0
M  V30 6824 C 632.912 3.33458 -0.708411 0
M  V30 6825 H 634.105 2.15858 -2.08196 0
M  V30 6826 H 631.658 1.09863 -1.11175 0
M  V30 6827 H 632.393 3.23297 0.254859 0
M  V30 6828 H 632.178 3.63349 -1.47377 0
M  V30 6829 H 633.668 4.13014 -0.617164 0
M  V30 6830 N 634.105 1.10431 1.1244 0
M  V30 6831 C 635.382 0.758797 1.80282 0
M  V30 6832 C 635.762 -0.754727 1.97147 0
M  V30 6833 O 635.11 -1.68094 1.54779 0
M  V30 6834 C 635.32 1.50982 3.14651 0
M  V30 6835 C 636.668 1.68232 3.8985 0
M  V30 6836 O 637.692 1.47319 3.24308 0
M  V30 6837 O 636.551 2.02905 5.07437 0
M  V30 6838 H 633.645 0.273756 0.780376 0
M  V30 6839 H 636.191 1.20713 1.19275 0
M  V30 6840 H 634.963 2.53989 2.97666 0
M  V30 6841 H 634.586 1.05435 3.83366 0
M  V30 6842 N 635.583 -1.29855 0.893053 0
M  V30 6843 C 636.832 -1.95104 0.511597 0
M  V30 6844 C 637.145 -1.71226 -0.945567 0
M  V30 6845 O 638.351 -2.30525 -1.43424 0
M  V30 6846 C 636.807 -3.49374 0.864034 0
M  V30 6847 C 636.415 -3.82061 2.33952 0
M  V30 6848 C 638.159 -4.20894 0.552167 0
M  V30 6849 C 636.066 -5.29546 2.63316 0
M  V30 6850 H 634.996 -0.73029 0.187597 0
M  V30 6851 H 637.647 -1.47682 1.08914 0
M  V30 6852 H 636.029 -3.95413 0.215493 0
M  V30 6853 H 637.203 -3.46904 3.03305 0
M  V30 6854 H 635.518 -3.23665 2.61973 0
M  V30 6855 H 638.115 -5.29435 0.748489 0
M  V30 6856 H 638.458 -4.13178 -0.508924 0
M  V30 6857 H 638.991 -3.80564 1.15825 0
M  V30 6858 H 635.73 -5.4232 3.68197 0
M  V30 6859 H 635.25 -5.65974 1.9858 0
M  V30 6860 H 636.929 -5.97068 2.49236 0
M  V30 6861 N 637.061 -0.65484 -1.43351 0
M  V30 6862 C 637.971 0.0363603 -2.34572 0
M  V30 6863 C 638.987 0.810432 -1.53974 0
M  V30 6864 O 640.163 0.757308 -1.86619 0
M  V30 6865 C 637.228 0.989733 -3.32273 0
M  V30 6866 C 636.289 0.212414 -4.28774 0
M  V30 6867 C 635.522 1.12038 -5.21808 0
M  V30 6868 O 635.745 2.35967 -5.19303 0
M  V30 6869 O 634.679 0.59191 -5.98982 0
M  V30 6870 H 638.505 -0.714527 -2.95175 0
M  V30 6871 H 636.09 -0.415029 -1.4352 0
M  V30 6872 H 637.972 1.53759 -3.92347 0
M  V30 6873 H 636.647 1.72082 -2.74171 0
M  V30 6874 H 635.554 -0.379062 -3.72175 0
M  V30 6875 H 636.887 -0.479138 -4.89862 0
M  V30 6876 N 638.539 1.52521 -0.396863 0
M  V30 6877 C 639.955 1.5953 -0.0471659 0
M  V30 6878 C 640.155 1.41044 1.43906 0
M  V30 6879 O 639.211 1.23122 2.20448 0
M  V30 6880 C 640.524 2.95972 -0.531113 0
M  V30 6881 C 642.072 3.09172 -0.488024 0
M  V30 6882 C 642.547 4.48075 -0.948281 0
M  V30 6883 N 644.038 4.54281 -0.9046 0
M  V30 6884 C 644.773 5.60007 -1.23205 0
M  V30 6885 N 644.269 6.73343 -1.63036 0
M  V30 6886 N 646.062 5.50151 -1.15282 0
M  V30 6887 H 638.213 1.62786 -1.36435 0
M  V30 6888 H 640.476 0.76514 -0.559701 0
M  V30 6889 H 640.182 3.14741 -1.56942 0
M  V30 6890 H 640.056 3.77143 0.0657922 0
M  V30 6891 H 642.443 2.90095 0.541211 0
M  V30 6892 H 642.524 2.29937 -1.12083 0
M  V30 6893 H 642.168 4.67894 -1.97578 0
M  V30 6894 H 642.098 5.25788 -0.292412 0
M  V30 6895 H 644.589 3.72918 -0.6116 0
M  V30 6896 H 644.902 7.49992 -1.86365 0
M  V30 6897 H 643.247 6.74655 -1.66929 0
M  V30 6898 H 646.438 4.6049 -0.840602 0
M  V30 6899 H 646.611 6.32444 -1.41133 0
M  V30 6900 N 640.017 0.126909 1.57088 0
M  V30 6901 C 640.98 -0.806097 2.14557 0
M  V30 6902 C 641.98 -1.18918 1.08236 0
M  V30 6903 O 643.17 -1.11339 1.33975 0
M  V30 6904 C 640.302 -2.09116 2.69227 0
M  V30 6905 H 641.495 -0.306522 2.98329 0
M  V30 6906 H 639.048 -0.122393 1.5582 0
M  V30 6907 H 639.783 -2.63486 1.89065 0
M  V30 6908 H 639.568 -1.82588 3.46993 0
M  V30 6909 H 641.058 -2.75794 3.13572 0
M  V30 6910 N 641.495 -1.56914 -0.146875 0
M  V30 6911 C 642.723 -1.87515 -0.874394 0
M  V30 6912 C 643.138 -0.715116 -1.74733 0
M  V30 6913 O 642.495 0.315113 -1.79759 0
M  V30 6914 C 642.546 -3.17362 -1.731 0
M  V30 6915 O 642.267 -4.28897 -0.893245 0
M  V30 6916 C 643.768 -3.61479 -2.56609 0
M  V30 6917 H 640.988 -0.621546 -0.252827 0
M  V30 6918 H 643.532 -2.04023 -0.139627 0
M  V30 6919 H 641.687 -3.02608 -2.41883 0
M  V30 6920 H 642.101 -5.03146 -1.48137 0
M  V30 6921 H 643.575 -4.5517 -3.12289 0
M  V30 6922 H 644.052 -2.86773 -3.32653 0
M  V30 6923 H 644.658 -3.78927 -1.93117 0
M  V30 6924 N 642.974 0.416227 -1.52004 0
M  V30 6925 C 644.22 1.16555 -1.6596 0
M  V30 6926 C 644.553 1.90347 -0.384906 0
M  V30 6927 O 643.828 1.84474 0.616405 0
M  V30 6928 C 644.111 2.1657 -2.87696 0
M  V30 6929 C 643.964 1.46722 -4.25197 0
M  V30 6930 C 645.283 3.17321 -3.04951 0
M  V30 6931 H 642.402 0.422369 -0.603965 0
M  V30 6932 H 645.044 0.452141 -1.84542 0
M  V30 6933 H 643.194 2.77411 -2.71985 0
M  V30 6934 H 644.866 0.89056 -4.52622 0
M  V30 6935 H 643.109 0.769263 -4.26925 0
M  V30 6936 H 643.78 2.19665 -5.0641 0
M  V30 6937 H 646.256 2.66552 -3.19514 0
M  V30 6938 H 645.132 3.84573 -3.91656 0
M  V30 6939 H 645.393 3.84643 -2.17951 0
M  V30 6940 N 644.452 1.42507 0.673017 0
M  V30 6941 C 645.415 1.4582 1.76831 0
M  V30 6942 C 646.415 0.345542 1.57043 0
M  V30 6943 O 647.605 0.606447 1.63303 0
M  V30 6944 C 644.737 1.29158 3.15485 0
M  V30 6945 H 645.93 2.43345 1.7528 0
M  V30 6946 H 643.483 1.28981 0.882817 0
M  V30 6947 H 644.218 0.325626 3.22661 0
M  V30 6948 H 644.003 2.09797 3.31252 0
M  V30 6949 H 645.493 1.34363 3.95394 0
M  V30 6950 N 645.93 -0.909495 1.28709 0
M  V30 6951 C 647.16 -1.69027 1.188 0
M  V30 6952 C 647.568 -1.87469 -0.255329 0
M  V30 6953 O 646.911 -1.40458 -1.18394 0
M  V30 6954 C 646.973 -3.10064 1.81936 0
M  V30 6955 C 646.637 -3.14891 3.31199 0
M  V30 6956 C 647.634 -2.95768 4.27571 0
M  V30 6957 C 645.319 -3.37269 3.7223 0
M  V30 6958 C 647.313 -2.98942 5.6295 0
M  V30 6959 C 645 -3.40074 5.07733 0
M  V30 6960 C 645.998 -3.20932 6.02903 0
M  V30 6961 O 645.686 -3.23507 7.35934 0
M  V30 6962 H 645.418 -0.535014 0.413203 0
M  V30 6963 H 647.972 -1.14645 1.70428 0
M  V30 6964 H 646.202 -3.66005 1.24808 0
M  V30 6965 H 647.891 -3.70185 1.66486 0
M  V30 6966 H 648.657 -2.78302 3.97206 0
M  V30 6967 H 644.536 -3.51212 2.98615 0
M  V30 6968 H 648.08 -2.83919 6.37209 0
M  V30 6969 H 643.977 -3.5707 5.37747 0
M  V30 6970 H 644.745 -3.3984 7.44615 0
M  V30 6971 N 647.408 -1.11026 -1.11852 0
M  V30 6972 C 648.656 -0.854769 -1.83134 0
M  V30 6973 C 648.977 0.621375 -1.84835 0
M  V30 6974 O 648.247 1.45129 -1.31584 0
M  V30 6975 H 646.827 -0.313229 -0.678157 0
M  V30 6976 H 649.489 -1.40178 -1.35411 0
M  V30 6977 H 648.585 -1.22311 -2.87135 0
M  V30 6978 N 648.886 1.2938 -0.899927 0
M  V30 6979 C 650.116 1.99402 -0.540601 0
M  V30 6980 C 650.524 1.67534 0.87914 0
M  V30 6981 O 649.867 0.916821 1.59186 0
M  V30 6982 C 649.929 3.53514 -0.653326 0
M  V30 6983 C 649.593 4.08937 -2.04009 0
M  V30 6984 C 650.59 4.23815 -3.01126 0
M  V30 6985 C 648.275 4.43962 -2.34953 0
M  V30 6986 C 650.269 4.72951 -4.27313 0
M  V30 6987 C 647.956 4.92795 -3.61382 0
M  V30 6988 C 648.954 5.07244 -4.57376 0
M  V30 6989 O 648.642 5.55017 -5.8156 0
M  V30 6990 H 648.374 0.64383 -0.206057 0
M  V30 6991 H 650.928 1.65878 -1.21134 0
M  V30 6992 H 649.158 3.86628 0.0744449 0
M  V30 6993 H 650.847 4.04767 -0.303118 0
M  V30 6994 H 651.613 3.97043 -2.78535 0
M  V30 6995 H 647.492 4.31974 -1.60994 0
M  V30 6996 H 651.036 4.84144 -5.02245 0
M  V30 6997 H 646.933 5.19004 -3.83804 0
M  V30 6998 H 647.701 5.73331 -5.84153 0
M  V30 6999 N 650.364 0.662433 1.43002 0
M  V30 7000 C 651.612 0.179237 2.01304 0
M  V30 7001 C 651.933 -1.21428 1.52579 0
M  V30 7002 O 651.203 -1.81294 0.742252 0
M  V30 7003 H 649.783 0.0632725 0.744316 0
M  V30 7004 H 652.445 0.856169 1.75088 0
M  V30 7005 H 651.541 0.170957 3.11631 0
M  V30 7006 N 651.842 -1.52309 0.404946 0
M  V30 7007 C 653.091 -2.00952 -0.173529 0
M  V30 7008 C 653.404 -1.29512 -1.46581 0
M  V30 7009 O 654.61 -1.6895 -2.12528 0
M  V30 7010 C 653.066 -3.58097 -0.359801 0
M  V30 7011 C 652.674 -4.38449 0.920138 0
M  V30 7012 C 654.418 -4.14984 -0.893794 0
M  V30 7013 C 652.325 -5.87227 0.701285 0
M  V30 7014 H 651.255 -0.750871 -0.0686244 0
M  V30 7015 H 653.906 -1.75687 0.529749 0
M  V30 7016 H 652.288 -3.79675 -1.12531 0
M  V30 7017 H 653.462 -4.28633 1.69147 0
M  V30 7018 H 651.777 -3.92859 1.38024 0
M  V30 7019 H 654.374 -5.23813 -1.0735 0
M  V30 7020 H 654.717 -3.72072 -1.8673 0
M  V30 7021 H 655.25 -3.97358 -0.187453 0
M  V30 7022 H 651.989 -6.34491 1.64624 0
M  V30 7023 H 651.509 -5.99792 -0.0308288 0
M  V30 7024 H 653.188 -6.46096 0.341846 0
M  V30 7025 N 653.32 -0.135238 -1.57019 0
M  V30 7026 C 654.548 0.526066 -2.001 0
M  V30 7027 C 654.963 1.59184 -1.01519 0
M  V30 7028 O 654.32 1.82497 -0.0104258 0
M  V30 7029 C 654.371 1.13744 -3.43139 0
M  V30 7030 O 654.092 0.114259 -4.37951 0
M  V30 7031 C 655.593 1.8805 -4.01438 0
M  V30 7032 H 652.813 0.137962 -0.656664 0
M  V30 7033 H 655.357 -0.226359 -2.03243 0
M  V30 7034 H 653.512 1.84056 -3.40885 0
M  V30 7035 H 653.926 0.56058 -5.21496 0
M  V30 7036 H 655.4 2.26133 -5.03555 0
M  V30 7037 H 655.877 2.76194 -3.41487 0
M  V30 7038 H 656.483 1.22464 -4.07287 0
M  V30 7039 N 654.798 1.5699 0.138552 0
M  V30 7040 C 655.761 1.97984 1.15478 0
M  V30 7041 C 656.761 0.867416 1.35398 0
M  V30 7042 O 657.951 1.13387 1.32246 0
M  V30 7043 C 655.083 2.3031 2.51337 0
M  V30 7044 H 656.276 2.88953 0.802896 0
M  V30 7045 H 653.829 1.51555 0.382189 0
M  V30 7046 H 654.564 1.42159 2.91481 0
M  V30 7047 H 654.349 3.11425 2.38237 0
M  V30 7048 H 655.839 2.62834 3.24512 0
M  V30 7049 N 656.276 -0.40816 1.52223 0
M  V30 7050 C 657.504 -1.17672 1.70179 0
M  V30 7051 C 657.919 -1.84257 0.411696 0
M  V30 7052 O 657.276 -1.7192 -0.612354 0
M  V30 7053 C 657.327 -2.23911 2.83806 0
M  V30 7054 O 657.048 -1.60044 4.0782 0
M  V30 7055 C 658.549 -3.1364 3.13281 0
M  V30 7056 H 655.769 -0.353562 0.570293 0
M  V30 7057 H 658.313 -0.480083 1.98785 0
M  V30 7058 H 656.468 -2.89242 2.57717 0
M  V30 7059 H 656.882 -2.30484 4.71145 0
M  V30 7060 H 658.356 -3.84255 3.96298 0
M  V30 7061 H 658.833 -3.76066 2.26872 0
M  V30 7062 H 659.439 -2.53977 3.41139 0
M  V30 7063 N 657.755 -1.42862 -0.66545 0
M  V30 7064 C 659.166 -1.3901 -1.24632 0
M  V30 7065 C 659.517 -0.0880285 -1.96002 0
M  V30 7066 O 658.642 0.812947 -2.0055 0
M  V30 7067 C 659.237 -2.51806 -2.2667 0
M  V30 7068 C 657.796 -2.51257 -2.80262 0
M  V30 7069 C 656.943 -2.30124 -1.5472 0
M  V30 7070 H 659.894 -1.5194 -0.458237 0
M  V30 7071 H 659.915 -2.22593 -3.08598 0
M  V30 7072 H 659.427 -3.46558 -1.74697 0
M  V30 7073 H 657.528 -1.60349 -3.36332 0
M  V30 7074 H 657.641 -3.48614 -3.28641 0
M  V30 7075 H 656.005 -1.7856 -1.81627 0
M  V30 7076 H 656.788 -3.26945 -1.04699 0
M  V30 7077 N 659.233 0.902656 -1.29189 0
M  V30 7078 C 660.163 2.02294 -1.16616 0
M  V30 7079 C 661.144 1.6999 -0.0611175 0
M  V30 7080 O 662.329 1.9271 -0.240072 0
M  V30 7081 C 659.459 3.37018 -0.83882 0
M  V30 7082 C 658.413 3.83522 -1.89986 0
M  V30 7083 C 657.739 5.15337 -1.42589 0
M  V30 7084 C 659.039 4.04169 -3.30824 0
M  V30 7085 H 660.733 2.13071 -2.10336 0
M  V30 7086 H 658.279 1.02378 -1.01266 0
M  V30 7087 H 660.232 4.14895 -0.737584 0
M  V30 7088 H 658.956 3.26325 0.134071 0
M  V30 7089 H 657.615 3.07859 -1.99043 0
M  V30 7090 H 657.263 5.01056 -0.441759 0
M  V30 7091 H 656.963 5.47423 -2.13547 0
M  V30 7092 H 658.487 5.95758 -1.3381 0
M  V30 7093 H 659.901 4.72537 -3.24626 0
M  V30 7094 H 658.298 4.47604 -3.99713 0
M  V30 7095 H 659.368 3.08604 -3.74021 0
M  V30 7096 N 660.711 1.11618 1.11262 0
M  V30 7097 C 661.643 0.734015 2.17129 0
M  V30 7098 C 662.656 -0.235243 1.61091 0
M  V30 7099 O 663.845 -0.0178597 1.78491 0
M  V30 7100 C 660.945 0.0643682 3.38839 0
M  V30 7101 C 660.118 1.06092 4.24339 0
M  V30 7102 C 659.177 0.420482 5.24517 0
M  V30 7103 O 658.203 1.07495 5.58957 0
M  V30 7104 N 659.405 -0.815828 5.74739 0
M  V30 7105 H 662.17 1.64492 2.50524 0
M  V30 7106 H 659.731 1.00664 1.26801 0
M  V30 7107 H 661.723 -0.375851 4.02951 0
M  V30 7108 H 660.293 -0.749147 3.03491 0
M  V30 7109 H 659.513 1.67903 3.56654 0
M  V30 7110 H 660.801 1.73507 4.78302 0
M  V30 7111 H 660.199 -1.36668 5.48943 0
M  V30 7112 H 658.756 -1.199 6.40677 0
M  V30 7113 N 662.189 -1.289 0.906776 0
M  V30 7114 C 663.438 -1.9455 0.532262 0
M  V30 7115 C 663.751 -1.72219 -0.927353 0
M  V30 7116 O 664.957 -2.32033 -1.40971 0
M  V30 7117 C 663.413 -3.48438 0.901041 0
M  V30 7118 C 663.021 -3.79558 2.37991 0
M  V30 7119 C 664.765 -4.20284 0.596777 0
M  V30 7120 C 662.672 -5.26723 2.68918 0
M  V30 7121 H 661.602 -0.728259 0.195333 0
M  V30 7122 H 664.253 -1.46519 1.10474 0
M  V30 7123 H 662.635 -3.95162 0.257419 0
M  V30 7124 H 663.809 -3.43668 3.06967 0
M  V30 7125 H 662.124 -3.20868 2.65391 0
M  V30 7126 H 664.721 -5.28612 0.8046 0
M  V30 7127 H 665.064 -4.13694 -0.465072 0
M  V30 7128 H 665.597 -3.79315 1.19855 0
M  V30 7129 H 662.336 -5.38384 3.73928 0
M  V30 7130 H 661.856 -5.63836 2.04571 0
M  V30 7131 H 663.535 -5.94391 2.55555 0
M  V30 7132 N 663.667 -0.670007 -1.42649 0
M  V30 7133 C 664.63 0.00204659 -2.292 0
M  V30 7134 C 665.63 0.733817 -1.4308 0
M  V30 7135 O 666.82 0.57254 -1.64522 0
M  V30 7136 C 663.952 1.01359 -3.25483 0
M  V30 7137 H 665.145 -0.759696 -2.90118 0
M  V30 7138 H 662.698 -0.432105 -1.50208 0
M  V30 7139 H 663.433 1.80399 -2.69493 0
M  V30 7140 H 663.218 0.492323 -3.88997 0
M  V30 7141 H 664.708 1.4824 -3.90403 0
M  V30 7142 N 665.145 1.52092 -0.413018 0
M  V30 7143 C 666.561 1.59471 -0.0640836 0
M  V30 7144 C 666.761 1.42562 1.42402 0
M  V30 7145 O 665.817 1.25453 2.19129 0
M  V30 7146 C 667.13 2.95392 -0.562474 0
M  V30 7147 C 668.678 3.08637 -0.520788 0
M  V30 7148 C 669.153 4.47044 -0.995752 0
M  V30 7149 N 670.644 4.53296 -0.952732 0
M  V30 7150 C 671.379 5.58669 -1.29138 0
M  V30 7151 N 670.875 6.71576 -1.70168 0
M  V30 7152 N 672.668 5.48898 -1.2111 0
M  V30 7153 H 664.819 1.6133 -1.38153 0
M  V30 7154 H 667.082 0.75916 -0.567785 0
M  V30 7155 H 666.788 3.13059 -1.60271 0
M  V30 7156 H 666.662 3.77191 0.0257875 0
M  V30 7157 H 669.049 2.90652 0.510412 0
M  V30 7158 H 669.13 2.28735 -1.14515 0
M  V30 7159 H 668.774 4.65773 -2.0253 0
M  V30 7160 H 668.704 5.25448 -0.348162 0
M  V30 7161 H 671.195 3.72248 -0.651119 0
M  V30 7162 H 671.508 7.47973 -1.9431 0
M  V30 7163 H 669.853 6.72847 -1.74075 0
M  V30 7164 H 673.044 4.59573 -0.889396 0
M  V30 7165 H 673.217 6.30912 -1.47833 0
M  V30 7166 N 666.623 0.143563 1.56945 0
M  V30 7167 C 667.586 -0.783295 2.154 0
M  V30 7168 C 668.586 -1.17763 1.09492 0
M  V30 7169 O 669.776 -1.09912 1.35148 0
M  V30 7170 C 666.908 -2.06248 2.7143 0
M  V30 7171 H 668.101 -0.274863 2.98638 0
M  V30 7172 H 665.654 -0.105859 1.55941 0
M  V30 7173 H 666.389 -2.61466 1.91849 0
M  V30 7174 H 666.174 -1.78897 3.4891 0
M  V30 7175 H 667.664 -2.72453 3.16479 0
M  V30 7176 N 668.101 -1.57061 -0.130224 0
M  V30 7177 C 669.331 -1.88159 -0.853217 0
M  V30 7178 C 669.739 -0.731675 -1.7448 0
M  V30 7179 O 669.082 0.307035 -1.81116 0
M  V30 7180 C 669.144 -3.1415 -1.74785 0
M  V30 7181 C 668.808 -4.45202 -1.03173 0
M  V30 7182 C 669.805 -5.18526 -0.377759 0
M  V30 7183 C 667.49 -4.91912 -1.01624 0
M  V30 7184 C 669.484 -6.36775 0.282123 0
M  V30 7185 C 667.171 -6.10082 -0.352555 0
M  V30 7186 C 668.169 -6.82361 0.295483 0
M  V30 7187 O 667.857 -7.98284 0.948606 0
M  V30 7188 H 667.589 -0.627596 -0.251197 0
M  V30 7189 H 670.143 -2.05034 -0.1226 0
M  V30 7190 H 668.373 -2.93328 -2.51983 0
M  V30 7191 H 670.062 -3.31359 -2.34427 0
M  V30 7192 H 670.828 -4.83498 -0.381417 0
M  V30 7193 H 666.707 -4.35566 -1.51007 0
M  V30 7194 H 670.251 -6.93129 0.788525 0
M  V30 7195 H 666.148 -6.44569 -0.346621 0
M  V30 7196 H 666.916 -8.14054 0.851954 0
M  V30 7197 N 669.579 0.400081 -1.52437 0
M  V30 7198 C 670.542 1.4707 -1.75793 0
M  V30 7199 C 671.542 1.48036 -0.627856 0
M  V30 7200 O 672.732 1.49401 -0.895817 0
M  V30 7201 C 669.864 2.86427 -1.84858 0
M  V30 7202 H 671.057 1.27649 -2.71377 0
M  V30 7203 H 668.61 0.631141 -1.42991 0
M  V30 7204 H 669.345 3.11207 -0.912194 0
M  V30 7205 H 669.13 2.87128 -2.6702 0
M  V30 7206 H 670.62 3.64023 -2.04638 0
M  V30 7207 N 671.057 1.43213 0.657864 0
M  V30 7208 C 672.285 1.48015 1.44566 0
M  V30 7209 C 672.7 0.0965951 1.88553 0
M  V30 7210 O 672.057 -0.892221 1.59203 0
M  V30 7211 C 672.108 2.42199 2.68369 0
M  V30 7212 O 671.829 3.75173 2.26223 0
M  V30 7213 C 673.33 2.56195 3.61772 0
M  V30 7214 H 670.55 0.502861 0.444266 0
M  V30 7215 H 673.094 1.87907 0.806917 0
M  V30 7216 H 671.249 2.05514 3.28394 0
M  V30 7217 H 671.663 4.25776 3.06293 0
M  V30 7218 H 673.137 3.26182 4.4532 0
M  V30 7219 H 673.614 1.60534 4.0881 0
M  V30 7220 H 674.22 2.93671 3.07632 0
M  V30 7221 N 672.536 -0.895792 1.29666 0
M  V30 7222 C 673.466 -2.01673 1.17688 0
M  V30 7223 C 674.447 -1.69955 0.0701317 0
M  V30 7224 O 675.632 -1.9258 0.250289 0
M  V30 7225 C 672.762 -3.36568 0.856681 0
M  V30 7226 C 671.716 -3.82509 1.92017 0
M  V30 7227 C 671.042 -5.14574 1.4532 0
M  V30 7228 C 672.342 -4.02409 3.32963 0
M  V30 7229 H 674.036 -2.11953 2.11463 0
M  V30 7230 H 671.582 -1.01839 1.01807 0
M  V30 7231 H 673.535 -4.14498 0.759577 0
M  V30 7232 H 672.259 -3.26391 -0.116763 0
M  V30 7233 H 670.918 -3.068 2.00673 0
M  V30 7234 H 670.566 -5.00815 0.468325 0
M  V30 7235 H 670.266 -5.46283 2.16447 0
M  V30 7236 H 671.79 -5.9504 1.36968 0
M  V30 7237 H 673.204 -4.70808 3.27127 0
M  V30 7238 H 671.601 -4.45478 4.02082 0
M  V30 7239 H 672.671 -3.06616 3.75652 0
M  V30 7240 N 674.014 -1.12206 -1.10668 0
M  V30 7241 C 675.262 -0.874144 -1.82217 0
M  V30 7242 C 675.583 0.601736 -1.85484 0
M  V30 7243 O 674.853 1.43725 -1.33116 0
M  V30 7244 H 673.433 -0.320404 -0.674797 0
M  V30 7245 H 676.095 -1.41606 -1.33917 0
M  V30 7246 H 675.191 -1.25349 -2.85822 0
M  V30 7247 N 675.492 1.28418 -0.913599 0
M  V30 7248 C 676.717 1.99643 -0.561899 0
M  V30 7249 C 677.142 1.67819 0.849608 0
M  V30 7250 O 676.5 0.910503 1.56779 0
M  V30 7251 C 676.548 3.52116 -0.777622 0
M  V30 7252 O 675.652 4.12076 0.163457 0
M  V30 7253 H 674.993 0.627229 -0.217898 0
M  V30 7254 H 677.523 1.63575 -1.229 0
M  V30 7255 H 677.533 4.02163 -0.687666 0
M  V30 7256 H 676.208 3.74613 -1.8066 0
M  V30 7257 H 674.785 3.72892 0.0247827 0
M  V30 7258 N 676.97 0.677563 1.42291 0
M  V30 7259 C 678.217 0.200975 2.015 0
M  V30 7260 C 678.545 -1.19342 1.53583 0
M  V30 7261 O 677.8 -1.81579 0.7299 0
M  V30 7262 C 678.099 0.187229 3.56909 0
M  V30 7263 C 677.765 1.52667 4.24268 0
M  V30 7264 C 676.427 1.89341 4.42384 0
M  V30 7265 C 678.779 2.40869 4.62203 0
M  V30 7266 C 676.107 3.13836 4.95705 0
M  V30 7267 C 678.459 3.64679 5.16906 0
M  V30 7268 C 677.123 4.01519 5.33234 0
M  V30 7269 H 676.393 0.0735418 0.737342 0
M  V30 7270 H 679.04 0.873095 1.70439 0
M  V30 7271 H 677.345 -0.568407 3.87655 0
M  V30 7272 H 679.042 -0.198773 4.00507 0
M  V30 7273 H 675.632 1.23138 4.1053 0
M  V30 7274 H 679.816 2.1382 4.47878 0
M  V30 7275 H 675.072 3.42396 5.06532 0
M  V30 7276 H 679.246 4.33224 5.45243 0
M  V30 7277 H 676.873 4.98062 5.74316 0
M  V30 7278 N 678.448 -1.51871 0.421078 0
M  V30 7279 C 679.696 -2.01539 -0.150492 0
M  V30 7280 C 680.017 -1.30803 -1.44623 0
M  V30 7281 O 679.287 -0.437568 -1.90951 0
M  V30 7282 H 677.867 -0.744698 -0.0586041 0
M  V30 7283 H 680.529 -1.8668 0.560059 0
M  V30 7284 H 679.625 -3.10264 -0.338068 0
M  V30 7285 N 679.926 -0.151884 -1.56866 0
M  V30 7286 C 681.172 0.498742 -1.96572 0
M  V30 7287 C 681.505 1.64194 -1.03702 0
M  V30 7288 O 680.78 1.94334 -0.0803432 0
M  V30 7289 C 681.063 1.00027 -3.45929 0
M  V30 7290 C 680.916 -0.141767 -4.49577 0
M  V30 7291 C 682.235 1.88044 -3.97904 0
M  V30 7292 H 679.354 0.17982 -0.714726 0
M  V30 7293 H 681.996 -0.234097 -1.88552 0
M  V30 7294 H 680.146 1.62476 -3.52894 0
M  V30 7295 H 681.818 -0.778269 -4.54687 0
M  V30 7296 H 680.061 -0.80019 -4.26356 0
M  V30 7297 H 680.732 0.250947 -5.51429 0
M  V30 7298 H 683.208 1.35416 -3.93449 0
M  V30 7299 H 682.084 2.20043 -5.02864 0
M  V30 7300 H 682.345 2.81916 -3.40552 0
M  V30 7301 N 681.404 1.57128 0.121893 0
M  V30 7302 C 682.634 1.88609 0.843227 0
M  V30 7303 C 683.042 0.740917 1.74089 0
M  V30 7304 O 682.385 -0.297426 1.81276 0
M  V30 7305 C 682.447 3.15073 1.73117 0
M  V30 7306 C 682.111 4.45742 1.0081 0
M  V30 7307 C 683.108 5.18719 0.350255 0
M  V30 7308 C 680.793 4.92444 0.99014 0
M  V30 7309 C 682.787 6.36617 -0.315889 0
M  V30 7310 C 680.474 6.10261 0.320196 0
M  V30 7311 C 681.472 6.82194 -0.331666 0
M  V30 7312 O 681.16 7.97769 -0.990927 0
M  V30 7313 H 680.892 0.628919 0.247865 0
M  V30 7314 H 683.446 2.05096 0.111725 0
M  V30 7315 H 681.676 2.9466 2.50424 0
M  V30 7316 H 683.365 3.32597 2.32667 0
M  V30 7317 H 684.131 4.83693 0.35577 0
M  V30 7318 H 680.01 4.36361 1.48695 0
M  V30 7319 H 683.554 6.92701 -0.825272 0
M  V30 7320 H 679.451 6.44743 0.312433 0
M  V30 7321 H 680.219 8.13591 -0.895113 0
M  V30 7322 N 682.882 -0.391992 1.52647 0
M  V30 7323 C 684.298 -0.731848 1.41831 0
M  V30 7324 C 684.498 -1.9423 0.536361 0
M  V30 7325 O 683.554 -2.52499 0.00866571 0
M  V30 7326 C 684.867 -0.969743 2.84634 0
M  V30 7327 C 686.415 -1.0714 2.94092 0
M  V30 7328 C 686.89 -1.34195 4.37899 0
M  V30 7329 N 688.381 -1.41023 4.41211 0
M  V30 7330 C 689.116 -1.63616 5.49561 0
M  V30 7331 N 688.612 -1.83699 6.68002 0
M  V30 7332 N 690.405 -1.65771 5.371 0
M  V30 7333 H 682.556 0.404547 2.08512 0
M  V30 7334 H 684.819 0.11879 0.940528 0
M  V30 7335 H 684.525 -0.152465 3.51369 0
M  V30 7336 H 684.399 -1.88523 3.26709 0
M  V30 7337 H 686.786 -1.87925 2.27526 0
M  V30 7338 H 686.867 -0.133887 2.55449 0
M  V30 7339 H 686.511 -0.539207 5.0503 0
M  V30 7340 H 686.441 -2.29226 4.74092 0
M  V30 7341 H 688.932 -1.27223 3.55841 0
M  V30 7342 H 689.245 -2.00437 7.46354 0
M  V30 7343 H 687.59 -1.8093 6.71036 0
M  V30 7344 H 690.781 -1.4963 4.43541 0
M  V30 7345 H 690.954 -1.83038 6.21612 0
M  V30 7346 N 684.36 -1.4356 -0.65026 0
M  V30 7347 C 685.771 -1.40324 -1.2315 0
M  V30 7348 C 686.122 -0.108812 -1.95898 0
M  V30 7349 O 685.247 0.79163 -2.01401 0
M  V30 7350 C 685.842 -2.54195 -2.23987 0
M  V30 7351 C 684.401 -2.54215 -2.77582 0
M  V30 7352 C 683.548 -2.31752 -1.5227 0
M  V30 7353 H 686.499 -1.52418 -0.442095 0
M  V30 7354 H 686.52 -2.25854 -3.0622 0
M  V30 7355 H 686.032 -3.48392 -1.71011 0
M  V30 7356 H 684.133 -1.63907 -3.34612 0
M  V30 7357 H 684.246 -3.52081 -3.24925 0
M  V30 7358 H 682.61 -1.80476 -1.79723 0
M  V30 7359 H 683.393 -3.28037 -1.01225 0
M  V30 7360 N 685.838 0.888903 -1.30139 0
M  V30 7361 C 686.768 2.01046 -1.18755 0
M  V30 7362 C 687.749 1.69916 -0.0791438 0
M  V30 7363 O 688.934 1.92445 -0.260498 0
M  V30 7364 C 686.064 3.36109 -0.874518 0
M  V30 7365 C 685.018 3.81486 -1.94043 0
M  V30 7366 C 684.344 5.13796 -1.48047 0
M  V30 7367 C 685.644 4.00637 -3.35093 0
M  V30 7368 H 687.338 2.10828 -2.12584 0
M  V30 7369 H 684.884 1.01298 -1.02346 0
M  V30 7370 H 686.837 4.14089 -0.781548 0
M  V30 7371 H 685.561 3.26449 0.0994519 0
M  V30 7372 H 684.22 3.05731 -2.02297 0
M  V30 7373 H 683.868 5.0056 -0.494878 0
M  V30 7374 H 683.568 5.45127 -2.19341 0
M  V30 7375 H 685.092 5.94305 -1.40121 0
M  V30 7376 H 686.506 4.69067 -3.2962 0
M  V30 7377 H 684.903 4.43339 -4.04438 0
M  V30 7378 H 685.973 3.0462 -3.77273 0
M  V30 7379 N 687.317 1.12792 1.10072 0
M  V30 7380 C 688.542 0.908838 1.86427 0
M  V30 7381 C 688.967 -0.536793 1.80278 0
M  V30 7382 O 688.325 -1.38033 1.17543 0
M  V30 7383 C 688.373 1.39295 3.3261 0
M  V30 7384 O 687.477 0.573846 4.08388 0
M  V30 7385 H 686.818 0.326234 0.578331 0
M  V30 7386 H 689.348 1.50094 1.39043 0
M  V30 7387 H 689.358 1.39366 3.83459 0
M  V30 7388 H 688.033 2.44555 3.36401 0
M  V30 7389 H 686.61 0.640438 3.67359 0
M  V30 7390 N 688.795 -1.27931 0.920396 0
M  V30 7391 C 690.044 -1.93975 0.552867 0
M  V30 7392 C 690.357 -1.73193 -0.909035 0
M  V30 7393 O 691.563 -2.33515 -1.38502 0
M  V30 7394 C 690.019 -3.47463 0.937947 0
M  V30 7395 C 689.627 -3.77013 2.42003 0
M  V30 7396 C 691.371 -4.19628 0.64132 0
M  V30 7397 C 689.278 -5.23841 2.74489 0
M  V30 7398 H 688.208 -0.726146 0.203046 0
M  V30 7399 H 690.859 -1.45339 1.12022 0
M  V30 7400 H 689.241 -3.94867 0.299317 0
M  V30 7401 H 690.415 -3.40393 3.10595 0
M  V30 7402 H 688.73 -3.18035 2.6878 0
M  V30 7403 H 691.327 -5.27729 0.860622 0
M  V30 7404 H 691.67 -4.14164 -0.421168 0
M  V30 7405 H 692.203 -3.78022 1.23872 0
M  V30 7406 H 688.942 -5.34388 3.79618 0
M  V30 7407 H 688.462 -5.61634 2.1054 0
M  V30 7408 H 690.141 -5.91647 2.61845 0
M  V30 7409 N 690.273 -0.685099 -1.4193 0
M  V30 7410 C 691.501 -0.220372 -2.05723 0
M  V30 7411 C 691.916 1.12642 -1.51516 0
M  V30 7412 O 691.273 1.70182 -0.659114 0
M  V30 7413 C 691.324 -0.157974 -3.61155 0
M  V30 7414 O 691.045 -1.45156 -4.13354 0
M  V30 7415 C 692.546 0.329009 -4.42077 0
M  V30 7416 H 689.766 -0.104725 -0.662777 0
M  V30 7417 H 692.31 -0.934736 -1.81887 0
M  V30 7418 H 690.465 0.507144 -3.84066 0
M  V30 7419 H 690.879 -1.33172 -5.07312 0
M  V30 7420 H 692.353 0.321559 -5.51063 0
M  V30 7421 H 692.83 1.36608 -4.17414 0
M  V30 7422 H 693.436 -0.304737 -4.24207 0
M  V30 7423 N 691.751 1.51645 -0.429126 0
M  V30 7424 C 692.698 2.27542 0.386446 0
M  V30 7425 C 693.668 1.30786 1.02393 0
M  V30 7426 O 694.853 1.59678 1.0444 0
M  V30 7427 C 691.993 3.11457 1.48623 0
M  V30 7428 C 691.106 4.23196 0.867691 0
M  V30 7429 C 690.241 4.94435 1.94183 0
M  V30 7430 C 689.28 5.98108 1.30129 0
M  V30 7431 N 688.417 6.62786 2.31644 0
M  V30 7432 H 693.257 2.968 -0.267155 0
M  V30 7433 H 690.794 1.46397 -0.143591 0
M  V30 7434 H 692.752 3.58429 2.13506 0
M  V30 7435 H 691.382 2.44329 2.10957 0
M  V30 7436 H 690.434 3.80248 0.107373 0
M  V30 7437 H 691.746 4.97499 0.35997 0
M  V30 7438 H 690.9 5.44914 2.66747 0
M  V30 7439 H 689.639 4.19744 2.48326 0
M  V30 7440 H 688.644 5.4693 0.561082 0
M  V30 7441 H 689.869 6.74751 0.767303 0
M  V30 7442 H 687.815 5.90913 2.84883 0
M  V30 7443 H 687.732 7.32828 1.85741 0
M  V30 7444 H 689 7.17897 3.03717 0
M  V30 7445 N 693.229 0.160201 1.56784 0
M  V30 7446 C 694.475 -0.48831 1.96833 0
M  V30 7447 C 694.808 -1.63641 1.04571 0
M  V30 7448 O 694.083 -1.94289 0.0906481 0
M  V30 7449 C 694.366 -0.981908 3.46454 0
M  V30 7450 C 694.219 0.165607 4.49495 0
M  V30 7451 C 695.538 -1.85931 3.98896 0
M  V30 7452 H 692.657 -0.176027 0.71567 0
M  V30 7453 H 695.299 0.244093 1.88426 0
M  V30 7454 H 693.449 -1.60602 3.5375 0
M  V30 7455 H 695.121 0.802372 4.54268 0
M  V30 7456 H 693.364 0.822789 4.25926 0
M  V30 7457 H 694.035 -0.221699 5.51555 0
M  V30 7458 H 696.511 -1.33327 3.94161 0
M  V30 7459 H 695.387 -2.17373 5.04024 0
M  V30 7460 H 695.648 -2.80106 3.42042 0
M  V30 7461 N 694.707 -1.5719 -0.113559 0
M  V30 7462 C 695.984 -1.76117 -0.850999 0
M  V30 7463 C 696.364 -0.737085 -1.97814 0
M  V30 7464 O 695.712 0.237942 -2.27258 0
M  V30 7465 C 695.922 -3.21298 -1.36266 0
M  V30 7466 C 697.27 -3.83955 -1.81283 0
M  V30 7467 O 698.294 -3.24934 -1.45933 0
M  V30 7468 O 697.153 -4.87707 -2.46585 0
M  V30 7469 H 694.247 -0.721308 -0.404529 0
M  V30 7470 H 696.793 -1.69423 -0.0968756 0
M  V30 7471 H 695.565 -3.87355 -0.554235 0
M  V30 7472 H 695.188 -3.32552 -2.17933 0
M  V30 7473 N 696.185 0.383891 -1.52853 0
M  V30 7474 C 697.596 0.961591 -1.60032 0
M  V30 7475 C 697.947 1.90819 -0.456333 0
M  V30 7476 O 697.072 2.12288 0.419873 0
M  V30 7477 C 697.667 1.75078 -2.90057 0
M  V30 7478 C 696.226 2.2781 -2.99632 0
M  V30 7479 C 695.373 1.08512 -2.55187 0
M  V30 7480 H 698.324 0.163269 -1.57858 0
M  V30 7481 H 698.345 2.61046 -2.7683 0
M  V30 7482 H 697.857 1.06157 -3.73299 0
M  V30 7483 H 695.958 3.00028 -2.20939 0
M  V30 7484 H 696.071 2.56947 -4.0437 0
M  V30 7485 H 694.435 1.44667 -2.09627 0
M  V30 7486 H 695.218 0.41118 -3.40829 0
M  V30 7487 N 697.663 1.43903 0.642637 0
M  V30 7488 C 699.074 1.40975 1.22404 0
M  V30 7489 C 699.425 0.1192 1.95838 0
M  V30 7490 O 698.55 -0.780939 2.01818 0
M  V30 7491 C 699.145 2.5538 2.22636 0
M  V30 7492 C 697.704 2.55684 2.76229 0
M  V30 7493 C 696.851 2.32556 1.51039 0
M  V30 7494 H 699.802 1.5265 0.434006 0
M  V30 7495 H 699.823 2.27474 3.05017 0
M  V30 7496 H 699.335 3.49294 1.69161 0
M  V30 7497 H 697.436 1.65679 3.33738 0
M  V30 7498 H 697.549 3.53799 3.23053 0
M  V30 7499 H 695.913 1.81427 1.78764 0
M  V30 7500 H 696.696 3.28569 0.99484 0
M  V30 7501 N 699.141 -0.881989 1.30609 0
M  V30 7502 C 700.387 -1.63647 1.19781 0
M  V30 7503 C 700.72 -1.92632 -0.246265 0
M  V30 7504 O 699.995 -1.54938 -1.17577 0
M  V30 7505 C 700.278 -2.97437 2.02985 0
M  V30 7506 C 700.131 -2.75406 3.55628 0
M  V30 7507 C 701.45 -3.98397 1.86997 0
M  V30 7508 H 698.569 -0.593841 0.436488 0
M  V30 7509 H 701.211 -1.02041 1.60273 0
M  V30 7510 H 699.361 -3.50018 1.68581 0
M  V30 7511 H 701.033 -2.2959 4.00107 0
M  V30 7512 H 699.276 -2.09856 3.79662 0
M  V30 7513 H 699.947 -3.70552 4.09139 0
M  V30 7514 H 702.423 -3.54986 2.17081 0
M  V30 7515 H 701.299 -4.89916 2.47536 0
M  V30 7516 H 701.56 -4.3424 0.829943 0
M  V30 7517 N 700.619 -1.13374 -1.09472 0
M  V30 7518 C 701.868 -0.889844 -1.8101 0
M  V30 7519 C 702.181 0.585686 -1.86625 0
M  V30 7520 O 703.387 0.946497 -2.54467 0
M  V30 7521 C 701.843 -1.54241 -3.25174 0
M  V30 7522 C 701.451 -3.05343 -3.27826 0
M  V30 7523 C 703.195 -1.37919 -4.0147 0
M  V30 7524 C 701.102 -3.63486 -4.6651 0
M  V30 7525 H 700.032 -0.329256 -0.678311 0
M  V30 7526 H 702.683 -1.36139 -1.23038 0
M  V30 7527 H 701.065 -0.998525 -3.83204 0
M  V30 7528 H 702.239 -3.66307 -2.79563 0
M  V30 7529 H 700.554 -3.21175 -2.65019 0
M  V30 7530 H 703.151 -1.78771 -5.03929 0
M  V30 7531 H 703.494 -0.323987 -4.15037 0
M  V30 7532 H 704.027 -1.89284 -3.49881 0
M  V30 7533 H 700.766 -4.68811 -4.58145 0
M  V30 7534 H 700.286 -3.073 -5.15099 0
M  V30 7535 H 701.965 -3.63134 -5.35484 0
M  V30 7536 N 702.098 1.27442 -0.927168 0
M  V30 7537 C 703.346 1.94007 -0.566203 0
M  V30 7538 C 703.667 1.7323 0.895345 0
M  V30 7539 O 702.937 1.07973 1.63459 0
M  V30 7540 H 701.517 0.717917 -0.206409 0
M  V30 7541 H 704.179 1.55161 -1.17945 0
M  V30 7542 H 703.275 3.02401 -0.772028 0
M  V30 7543 N 703.576 0.692616 1.41565 0
M  V30 7544 C 704.523 0.0254264 2.30786 0
M  V30 7545 C 705.493 -0.774347 1.46946 0
M  V30 7546 O 706.678 -0.742981 1.7574 0
M  V30 7547 C 703.818 -0.907123 3.32964 0
M  V30 7548 C 702.931 -0.0992784 4.31886 0
M  V30 7549 C 702.066 -1.0292 5.21134 0
M  V30 7550 C 701.105 -0.214088 6.11725 0
M  V30 7551 N 700.242 -1.09766 6.93467 0
M  V30 7552 H 705.082 0.792036 2.87282 0
M  V30 7553 H 702.619 0.4023 1.41492 0
M  V30 7554 H 704.577 -1.46181 3.90752 0
M  V30 7555 H 703.207 -1.64016 2.78026 0
M  V30 7556 H 702.259 0.572287 3.76071 0
M  V30 7557 H 703.571 0.532782 4.95946 0
M  V30 7558 H 702.725 -1.65321 5.83741 0
M  V30 7559 H 701.464 -1.69512 4.57293 0
M  V30 7560 H 700.469 0.42302 5.4817 0
M  V30 7561 H 701.694 0.447995 6.77621 0
M  V30 7562 H 699.64 -1.74965 6.32237 0
M  V30 7563 H 699.557 -0.521099 7.54202 0
M  V30 7564 H 700.825 -1.70858 7.60544 0
M  V30 7565 N 705.054 -1.51416 0.437162 0
M  V30 7566 C 706.47 -1.59349 0.0894459 0
M  V30 7567 C 706.67 -1.44809 -1.40116 0
M  V30 7568 O 705.726 -1.28924 -2.17106 0
M  V30 7569 C 707.039 -2.9446 0.609398 0
M  V30 7570 C 708.587 -3.07769 0.569824 0
M  V30 7571 C 709.062 -4.45404 1.06675 0
M  V30 7572 N 710.553 -4.51723 1.02473 0
M  V30 7573 C 711.288 -5.56544 1.3801 0
M  V30 7574 N 710.784 -6.68784 1.80831 0
M  V30 7575 N 712.577 -5.46901 1.29828 0
M  V30 7576 H 704.728 -1.59112 1.40703 0
M  V30 7577 H 706.991 -0.750031 0.579791 0
M  V30 7578 H 706.697 -3.1047 1.65231 0
M  V30 7579 H 706.571 -3.77184 0.0342236 0
M  V30 7580 H 708.958 -2.91428 -0.464107 0
M  V30 7581 H 709.039 -2.26885 1.1814 0
M  V30 7582 H 708.683 -4.62492 2.09914 0
M  V30 7583 H 708.613 -5.24827 0.431712 0
M  V30 7584 H 711.104 -3.71165 0.710258 0
M  V30 7585 H 711.417 -7.44787 2.06185 0
M  V30 7586 H 709.762 -6.69992 1.84757 0
M  V30 7587 H 712.953 -4.581 0.962397 0
M  V30 7588 H 713.126 -6.2848 1.57851 0
M  V30 7589 N 706.532 -0.168513 -1.56696 0
M  V30 7590 C 707.778 0.477865 -1.9709 0
M  V30 7591 C 708.111 1.63084 -1.05438 0
M  V30 7592 O 707.386 1.94238 -0.10095 0
M  V30 7593 C 707.669 0.963521 -3.4697 0
M  V30 7594 C 707.522 -0.189443 -4.49401 0
M  V30 7595 C 708.841 1.83813 -3.99876 0
M  V30 7596 H 705.96 0.172229 -0.716593 0
M  V30 7597 H 708.602 -0.254083 -1.88293 0
M  V30 7598 H 706.752 1.58724 -3.54597 0
M  V30 7599 H 708.424 -0.826451 -4.53836 0
M  V30 7600 H 706.667 -0.845366 -4.25483 0
M  V30 7601 H 707.338 0.192446 -5.51664 0
M  V30 7602 H 709.814 1.31235 -3.94863 0
M  V30 7603 H 708.69 2.14697 -5.0517 0
M  V30 7604 H 708.951 2.78289 -3.43523 0
M  V30 7605 N 708.01 1.57248 0.105221 0
M  V30 7606 C 709.257 1.8557 0.810552 0
M  V30 7607 C 709.585 0.755595 1.79223 0
M  V30 7608 O 708.84 -0.251788 1.94073 0
M  V30 7609 C 709.139 3.20437 1.58287 0
M  V30 7610 C 708.805 4.44716 0.744235 0
M  V30 7611 C 707.467 4.78458 0.513013 0
M  V30 7612 C 709.819 5.20953 0.160578 0
M  V30 7613 C 707.147 5.8587 -0.311894 0
M  V30 7614 C 709.499 6.29235 -0.651596 0
M  V30 7615 C 708.163 6.615 -0.893005 0
M  V30 7616 H 707.433 0.67905 0.296602 0
M  V30 7617 H 710.08 1.91363 0.0723968 0
M  V30 7618 H 708.385 3.10283 2.39232 0
M  V30 7619 H 710.082 3.39576 2.13282 0
M  V30 7620 H 706.672 4.18287 0.934555 0
M  V30 7621 H 710.856 4.95226 0.3264 0
M  V30 7622 H 706.112 6.09286 -0.508012 0
M  V30 7623 H 710.286 6.87484 -1.11077 0
M  V30 7624 H 707.913 7.44562 -1.53401 0
M  V30 7625 N 709.488 -0.375779 1.53054 0
M  V30 7626 C 710.713 -1.14484 1.7294 0
M  V30 7627 C 711.138 -1.82572 0.452668 0
M  V30 7628 O 710.496 -1.71343 -0.592567 0
M  V30 7629 C 710.544 -2.15857 2.88857 0
M  V30 7630 O 709.648 -3.22725 2.56753 0
M  V30 7631 H 708.989 -0.332666 0.574656 0
M  V30 7632 H 711.519 -0.436025 1.999 0
M  V30 7633 H 711.529 -2.59631 3.14731 0
M  V30 7634 H 710.204 -1.65689 3.81471 0
M  V30 7635 H 708.781 -2.83996 2.41663 0
M  V30 7636 N 710.966 -1.44241 -0.634997 0
M  V30 7637 C 711.876 -1.53293 -1.77591 0
M  V30 7638 C 712.892 -0.418831 -1.68884 0
M  V30 7639 O 714.068 -0.675619 -1.8973 0
M  V30 7640 C 711.133 -1.47075 -3.13958 0
M  V30 7641 C 710.194 -2.69304 -3.34326 0
M  V30 7642 C 709.427 -2.63374 -4.64187 0
M  V30 7643 O 709.65 -1.69161 -5.44739 0
M  V30 7644 O 708.584 -3.54166 -4.86673 0
M  V30 7645 H 712.41 -2.49673 -1.72908 0
M  V30 7646 H 709.995 -1.26445 -0.795745 0
M  V30 7647 H 711.877 -1.46117 -3.95257 0
M  V30 7648 H 710.552 -0.538373 -3.19192 0
M  V30 7649 H 709.459 -2.75831 -2.52721 0
M  V30 7650 H 710.792 -3.61576 -3.33951 0
M  V30 7651 N 712.444 0.87505 -1.31075 0
M  V30 7652 C 713.391 1.98178 -1.18296 0
M  V30 7653 C 714.361 1.65952 -0.0699923 0
M  V30 7654 O 715.546 1.8926 -0.241951 0
M  V30 7655 C 712.686 3.33399 -0.891024 0
M  V30 7656 C 711.799 3.78253 -2.08684 0
M  V30 7657 C 710.934 5.02166 -1.73212 0
M  V30 7658 C 709.973 5.39455 -2.89231 0
M  V30 7659 N 709.11 6.54549 -2.53989 0
M  V30 7660 H 713.95 2.0844 -2.12971 0
M  V30 7661 H 711.487 1.02047 -1.05948 0
M  V30 7662 H 713.445 4.11246 -0.702338 0
M  V30 7663 H 712.075 3.22794 0.0188799 0
M  V30 7664 H 711.127 2.9623 -2.38646 0
M  V30 7665 H 712.439 4.01821 -2.95536 0
M  V30 7666 H 711.593 5.87666 -1.50777 0
M  V30 7667 H 710.332 4.80491 -0.83544 0
M  V30 7668 H 709.337 4.52477 -3.12321 0
M  V30 7669 H 710.562 5.63098 -3.79601 0
M  V30 7670 H 708.508 6.3443 -1.66838 0
M  V30 7671 H 708.425 6.78035 -3.34372 0
M  V30 7672 H 709.693 7.43254 -2.34934 0
M  V30 7673 N 713.922 1.13953 1.08869 0
M  V30 7674 C 715.171 0.899431 1.80536 0
M  V30 7675 C 715.484 -0.575781 1.86933 0
M  V30 7676 O 716.69 -0.932988 2.54966 0
M  V30 7677 C 715.146 1.55963 3.24351 0
M  V30 7678 C 714.754 3.07077 3.26202 0
M  V30 7679 C 716.498 1.40046 4.00733 0
M  V30 7680 C 714.405 3.65955 4.64576 0
M  V30 7681 H 713.335 0.332849 0.676556 0
M  V30 7682 H 715.986 1.3679 1.22314 0
M  V30 7683 H 714.368 1.01883 3.82669 0
M  V30 7684 H 715.542 3.67785 2.77617 0
M  V30 7685 H 713.857 3.22576 2.63312 0
M  V30 7686 H 716.454 1.81441 5.02974 0
M  V30 7687 H 716.797 0.345993 4.1486 0
M  V30 7688 H 717.33 1.91137 3.48872 0
M  V30 7689 H 714.069 4.71234 4.55652 0
M  V30 7690 H 713.589 3.10027 5.13462 0
M  V30 7691 H 715.268 3.65968 5.33551 0
M  V30 7692 N 715.4 -1.26948 0.933913 0
M  V30 7693 C 716.628 -1.98186 0.59414 0
M  V30 7694 C 717.043 -1.69614 -0.829257 0
M  V30 7695 O 716.4 -0.960213 -1.55197 0
M  V30 7696 C 716.451 -3.52123 0.818026 0
M  V30 7697 O 716.172 -3.79698 2.18543 0
M  V30 7698 C 717.673 -4.40608 0.48781 0
M  V30 7699 H 714.893 -0.632305 0.224569 0
M  V30 7700 H 717.437 -1.61646 1.25263 0
M  V30 7701 H 715.592 -3.86851 0.206246 0
M  V30 7702 H 716.006 -4.7426 2.24005 0
M  V30 7703 H 717.48 -5.47606 0.695126 0
M  V30 7704 H 717.957 -4.35394 -0.576913 0
M  V30 7705 H 718.563 -4.11411 1.078 0
M  V30 7706 N 716.879 -0.700114 -1.41195 0
M  V30 7707 C 717.826 -0.0376652 -2.30769 0
M  V30 7708 C 718.796 0.766544 -1.47354 0
M  V30 7709 O 719.981 0.73365 -1.76131 0
M  V30 7710 C 717.121 0.889452 -3.33441 0
M  V30 7711 C 716.234 0.076373 -4.31932 0
M  V30 7712 C 715.369 1.00155 -5.21673 0
M  V30 7713 C 714.408 0.181644 -6.1183 0
M  V30 7714 N 713.545 1.06087 -6.94039 0
M  V30 7715 H 718.385 -0.80726 -2.86858 0
M  V30 7716 H 715.922 -0.409798 -1.41277 0
M  V30 7717 H 717.88 1.44107 -3.91522 0
M  V30 7718 H 716.51 1.6254 -2.78892 0
M  V30 7719 H 715.562 -0.592223 -3.75762 0
M  V30 7720 H 716.874 -0.559076 -4.95657 0
M  V30 7721 H 716.028 1.62223 -5.8461 0
M  V30 7722 H 714.767 1.67085 -4.58186 0
M  V30 7723 H 713.772 -0.452085 -5.47938 0
M  V30 7724 H 714.997 -0.483925 -6.77374 0
M  V30 7725 H 712.943 1.7161 -6.33156 0
M  V30 7726 H 712.86 0.481094 -7.54468 0
M  V30 7727 H 714.128 1.66822 -7.6144 0
M  V30 7728 N 718.357 1.51182 -0.445186 0
M  V30 7729 C 719.634 1.9478 0.178965 0
M  V30 7730 C 720.014 1.38428 1.59376 0
M  V30 7731 O 719.362 0.574552 2.21159 0
M  V30 7732 C 719.572 3.48683 0.148711 0
M  V30 7733 C 720.92 4.23152 0.35042 0
M  V30 7734 O 721.944 3.55479 0.226474 0
M  V30 7735 O 720.803 5.4322 0.597893 0
M  V30 7736 H 717.897 0.817387 0.12573 0
M  V30 7737 H 720.443 1.62051 -0.503729 0
M  V30 7738 H 719.215 3.82176 -0.84009 0
M  V30 7739 H 718.838 3.87875 0.873979 0
M  V30 7740 N 719.835 0.176821 1.56605 0
M  V30 7741 C 721.084 -0.466833 1.96223 0
M  V30 7742 C 721.397 -1.64015 1.06576 0
M  V30 7743 O 722.603 -2.3504 1.35898 0
M  V30 7744 C 721.059 -0.881921 3.48927 0
M  V30 7745 C 720.667 0.266102 4.47209 0
M  V30 7746 C 722.411 -1.49368 3.97353 0
M  V30 7747 C 720.318 -0.168923 5.91159 0
M  V30 7748 H 719.248 -0.178178 0.732645 0
M  V30 7749 H 721.899 0.265929 1.81563 0
M  V30 7750 H 720.281 -1.67082 3.59026 0
M  V30 7751 H 721.455 1.04349 4.4883 0
M  V30 7752 H 719.77 0.788178 4.08872 0
M  V30 7753 H 722.367 -1.8313 5.02362 0
M  V30 7754 H 722.71 -2.3936 3.40606 0
M  V30 7755 H 723.243 -0.769114 3.90294 0
M  V30 7756 H 719.982 0.696351 6.51791 0
M  V30 7757 H 719.502 -0.911552 5.92833 0
M  V30 7758 H 721.181 -0.610938 6.44109 0
M  V30 7759 N 721.313 -1.57302 -0.09688 0
M  V30 7760 C 722.559 -1.86273 -0.801885 0
M  V30 7761 C 722.892 -0.765694 -1.78468 0
M  V30 7762 O 722.167 0.226495 -1.93177 0
M  V30 7763 C 722.45 -3.25876 -1.53221 0
M  V30 7764 C 722.303 -4.46205 -0.567529 0
M  V30 7765 C 723.622 -3.63352 -2.48321 0
M  V30 7766 H 720.741 -0.67752 -0.29006 0
M  V30 7767 H 723.383 -1.89887 -0.0655577 0
M  V30 7768 H 721.533 -3.22926 -2.15988 0
M  V30 7769 H 723.205 -4.6127 0.0529982 0
M  V30 7770 H 721.448 -4.33636 0.119233 0
M  V30 7771 H 722.119 -5.40608 -1.11564 0
M  V30 7772 H 724.595 -3.67234 -1.95648 0
M  V30 7773 H 723.471 -4.61968 -2.9644 0
M  V30 7774 H 723.732 -2.91941 -3.31998 0
M  V30 7775 N 722.791 0.367657 -1.53252 0
M  V30 7776 C 724.039 1.10832 -1.68999 0
M  V30 7777 C 724.36 1.89894 -0.443306 0
M  V30 7778 O 723.63 1.88235 0.54262 0
M  V30 7779 H 722.21 0.412153 -0.623008 0
M  V30 7780 H 724.872 0.414775 -1.90435 0
M  V30 7781 H 723.968 1.7993 -2.55013 0
M  V30 7782 N 724.269 1.44576 0.627338 0
M  V30 7783 C 725.518 1.46837 1.38281 0
M  V30 7784 C 725.831 0.10635 1.95311 0
M  V30 7785 O 727.037 0.00651084 2.71499 0
M  V30 7786 C 725.493 2.58527 2.50384 0
M  V30 7787 C 725.101 4.00953 1.99851 0
M  V30 7788 C 726.845 2.70013 3.27557 0
M  V30 7789 C 724.752 5.0406 3.09318 0
M  V30 7790 H 723.682 0.546319 0.519664 0
M  V30 7791 H 726.333 1.70654 0.674497 0
M  V30 7792 H 724.715 2.27957 3.23808 0
M  V30 7793 H 725.889 4.41108 1.33267 0
M  V30 7794 H 724.204 3.93743 1.35482 0
M  V30 7795 H 726.801 3.44217 4.09168 0
M  V30 7796 H 727.144 1.75961 3.77284 0
M  V30 7797 H 727.677 3.00011 2.61224 0
M  V30 7798 H 724.416 5.99753 2.6453 0
M  V30 7799 H 723.936 4.68493 3.74532 0
M  V30 7800 H 725.615 5.2793 3.74031 0
M  V30 7801 N 725.747 -0.868086 1.31537 0
M  V30 7802 C 726.677 -1.99131 1.21939 0
M  V30 7803 C 727.658 -1.69768 0.106166 0
M  V30 7804 O 728.843 -1.92006 0.291081 0
M  V30 7805 C 725.973 -3.34676 0.927879 0
M  V30 7806 C 724.927 -3.7835 2.00088 0
M  V30 7807 C 724.253 -5.11375 1.56203 0
M  V30 7808 C 725.553 -3.95256 3.41424 0
M  V30 7809 H 727.247 -2.07419 2.15911 0
M  V30 7810 H 724.793 -0.996569 1.03945 0
M  V30 7811 H 726.746 -4.12793 0.847327 0
M  V30 7812 H 725.47 -3.26565 -0.0475042 0
M  V30 7813 H 724.129 -3.02474 2.07135 0
M  V30 7814 H 723.777 -4.99709 0.57445 0
M  V30 7815 H 723.477 -5.41568 2.27985 0
M  V30 7816 H 725.001 -5.92001 1.49558 0
M  V30 7817 H 726.415 -4.63764 3.3704 0
M  V30 7818 H 724.812 -4.36849 4.1144 0
M  V30 7819 H 725.882 -2.98579 3.82072 0
M  V30 7820 N 727.225 -1.14528 -1.08264 0
M  V30 7821 C 728.135 -0.84728 -2.18765 0
M  V30 7822 C 729.151 0.172826 -1.7314 0
M  V30 7823 O 730.327 0.000985336 -2.014 0
M  V30 7824 C 727.392 -0.330633 -3.4512 0
M  V30 7825 C 726.453 -1.41348 -4.05363 0
M  V30 7826 C 725.686 -0.921387 -5.25686 0
M  V30 7827 O 725.909 0.236587 -5.69909 0
M  V30 7828 O 724.843 -1.70101 -5.77364 0
M  V30 7829 H 728.669 -1.7708 -2.46731 0
M  V30 7830 H 726.254 -0.923661 -1.17426 0
M  V30 7831 H 728.136 -0.0485053 -4.21372 0
M  V30 7832 H 726.811 0.565147 -3.18728 0
M  V30 7833 H 725.718 -1.74908 -3.30693 0
M  V30 7834 H 727.051 -2.28383 -4.36007 0
M  V30 7835 N 728.703 1.26451 -0.940633 0
M  V30 7836 C 729.65 2.264 -0.448497 0
M  V30 7837 C 730.62 1.5866 0.491546 0
M  V30 7838 O 731.805 1.86389 0.407874 0
M  V30 7839 C 728.945 3.43956 0.280715 0
M  V30 7840 C 728.058 4.26374 -0.694937 0
M  V30 7841 C 727.193 5.31171 0.0554186 0
M  V30 7842 C 726.232 6.05266 -0.912091 0
M  V30 7843 N 725.369 7.01833 -0.193524 0
M  V30 7844 H 730.209 2.67869 -1.30576 0
M  V30 7845 H 727.746 1.31707 -0.655112 0
M  V30 7846 H 729.704 4.10941 0.71994 0
M  V30 7847 H 728.334 3.03403 1.10212 0
M  V30 7848 H 727.386 3.59183 -1.25267 0
M  V30 7849 H 728.698 4.77748 -1.43382 0
M  V30 7850 H 727.852 6.04166 0.553951 0
M  V30 7851 H 726.591 4.80634 0.827183 0
M  V30 7852 H 725.596 5.31099 -1.42175 0
M  V30 7853 H 726.821 6.57893 -1.68385 0
M  V30 7854 H 724.767 6.53607 0.559758 0
M  V30 7855 H 724.684 7.50957 -0.871744 0
M  V30 7856 H 725.952 7.78983 0.283932 0
M  V30 7857 N 730.181 0.707592 1.40822 0
M  V30 7858 C 731.427 0.244031 2.01326 0
M  V30 7859 C 731.76 -1.15722 1.55955 0
M  V30 7860 O 731.035 -1.78347 0.776044 0
M  V30 7861 C 731.318 0.315128 3.58718 0
M  V30 7862 C 731.171 1.75419 4.14184 0
M  V30 7863 C 732.49 -0.318251 4.38948 0
M  V30 7864 H 729.609 0.0901471 0.731466 0
M  V30 7865 H 732.251 0.898584 1.67408 0
M  V30 7866 H 730.401 -0.242176 3.87744 0
M  V30 7867 H 732.073 2.36626 3.95987 0
M  V30 7868 H 730.316 2.28449 3.68773 0
M  V30 7869 H 730.987 1.75538 5.23345 0
M  V30 7870 H 733.463 0.156514 4.15806 0
M  V30 7871 H 732.339 -0.238019 5.48384 0
M  V30 7872 H 732.6 -1.40067 4.19325 0
M  V30 7873 N 731.66 -1.50943 0.453197 0
M  V30 7874 C 732.623 -2.26684 -0.338705 0
M  V30 7875 C 733.623 -1.30748 -0.936032 0
M  V30 7876 O 734.813 -1.54327 -0.808002 0
M  V30 7877 C 731.945 -3.07063 -1.48071 0
M  V30 7878 H 733.138 -2.98131 0.325289 0
M  V30 7879 H 730.691 -1.54926 0.206771 0
M  V30 7880 H 731.426 -2.4007 -2.18029 0
M  V30 7881 H 731.211 -3.77545 -1.0584 0
M  V30 7882 H 732.701 -3.64393 -2.0398 0
M  V30 7883 N 733.138 -0.185124 -1.56509 0
M  V30 7884 C 734.387 0.456421 -1.96468 0
M  V30 7885 C 734.7 1.63448 -1.07444 0
M  V30 7886 O 735.906 2.34316 -1.37143 0
M  V30 7887 C 734.362 0.863404 -3.4939 0
M  V30 7888 C 733.97 -0.289815 -4.47062 0
M  V30 7889 C 735.714 1.47259 -3.98139 0
M  V30 7890 C 733.621 0.137571 -5.9124 0
M  V30 7891 H 732.551 0.17429 -0.733579 0
M  V30 7892 H 735.202 -0.275554 -1.81419 0
M  V30 7893 H 733.584 1.65176 -3.59907 0
M  V30 7894 H 734.758 -1.06728 -4.4827 0
M  V30 7895 H 733.073 -0.809851 -4.08449 0
M  V30 7896 H 735.67 1.80463 -5.03326 0
M  V30 7897 H 736.013 2.3755 -3.41871 0
M  V30 7898 H 736.546 0.748405 -3.90696 0
M  V30 7899 H 733.285 -0.730907 -6.51412 0
M  V30 7900 H 732.805 0.8801 -5.93308 0
M  V30 7901 H 734.484 0.576771 -6.44424 0
M  V30 7902 N 734.616 1.57351 0.0885366 0
M  V30 7903 C 735.563 2.02523 1.10693 0
M  V30 7904 C 736.533 0.902736 1.39427 0
M  V30 7905 O 737.718 1.16921 1.50779 0
M  V30 7906 C 734.858 2.46013 2.42016 0
M  V30 7907 C 733.971 3.7181 2.19957 0
M  V30 7908 C 733.106 4.04152 3.44724 0
M  V30 7909 C 732.145 5.2304 3.17956 0
M  V30 7910 N 731.282 5.51102 4.35007 0
M  V30 7911 H 736.122 2.89302 0.714742 0
M  V30 7912 H 733.659 1.43084 0.341378 0
M  V30 7913 H 735.617 2.69274 3.18665 0
M  V30 7914 H 734.247 1.62235 2.79069 0
M  V30 7915 H 733.299 3.55987 1.34079 0
M  V30 7916 H 734.611 4.58604 1.96173 0
M  V30 7917 H 733.765 4.28225 4.29777 0
M  V30 7918 H 732.504 3.15893 3.71568 0
M  V30 7919 H 731.509 4.98781 2.31296 0
M  V30 7920 H 732.734 6.12902 2.92451 0
M  V30 7921 H 730.68 4.65802 4.61914 0
M  V30 7922 H 730.597 6.3228 4.14437 0
M  V30 7923 H 731.865 5.79714 5.21106 0
M  V30 7924 N 736.094 -0.359525 1.53444 0
M  V30 7925 C 737.042 -1.46104 1.80987 0
M  V30 7926 C 738.036 -1.55181 0.679351 0
M  V30 7927 O 739.242 -1.57995 0.862405 0
M  V30 7928 H 735.617 -0.486835 0.573145 0
M  V30 7929 H 737.588 -1.2008 2.73173 0
M  V30 7930 C 736.337 -2.82855 2.02208 0
M  V30 7931 H 735.66 -2.76631 2.88644 0
M  V30 7932 H 737.1 -3.59091 2.25455 0
M  V30 7933 C 735.559 -3.27192 0.802931 0
M  V30 7934 O 736.089 -4.017 -0.00544286 0
M  V30 7935 N 734.295 -2.83807 0.624657 0
M  V30 7936 H 733.842 -2.23339 1.28364 0
M  V30 7937 H 733.8 -3.13828 -0.189641 0
M  V30 7938 N 737.572 -1.44907 -0.619662 0
M  V30 7939 C 738.519 -1.52654 -1.73105 0
M  V30 7940 C 739.489 -0.373334 -1.6185 0
M  V30 7941 O 740.674 -0.585143 -1.81606 0
M  V30 7942 C 737.814 -1.48769 -3.11387 0
M  V30 7943 C 736.927 -2.74551 -3.33535 0
M  V30 7944 C 736.062 -2.62421 -4.61854 0
M  V30 7945 C 735.101 -3.83312 -4.77219 0
M  V30 7946 N 734.238 -3.69789 -5.96826 0
M  V30 7947 H 739.078 -2.47605 -1.65819 0
M  V30 7948 H 736.615 -1.22875 -0.808719 0
M  V30 7949 H 738.573 -1.44507 -3.91374 0
M  V30 7950 H 737.203 -0.573783 -3.1766 0
M  V30 7951 H 736.255 -2.88953 -2.47408 0
M  V30 7952 H 737.567 -3.64253 -3.40765 0
M  V30 7953 H 736.721 -2.56056 -5.50019 0
M  V30 7954 H 735.46 -1.70298 -4.57001 0
M  V30 7955 H 734.465 -3.90049 -3.87481 0
M  V30 7956 H 735.69 -4.76486 -4.83878 0
M  V30 7957 H 733.636 -2.80426 -5.93041 0
M  V30 7958 H 733.553 -4.53116 -6.05163 0
M  V30 7959 H 734.821 -3.67335 -6.87521 0
M  V30 7960 N 739.05 0.861098 -1.31996 0
M  V30 7961 C 740.466 1.14827 -1.10846 0
M  V30 7962 C 740.666 2.0117 0.11528 0
M  V30 7963 O 739.722 2.39423 0.802048 0
M  V30 7964 C 741.035 1.83183 -2.38462 0
M  V30 7965 C 742.583 1.95847 -2.44158 0
M  V30 7966 C 743.058 2.67617 -3.71679 0
M  V30 7967 N 744.549 2.75147 -3.72624 0
M  V30 7968 C 745.284 3.31314 -4.67994 0
M  V30 7969 N 744.78 3.88343 -5.73726 0
M  V30 7970 N 746.573 3.29356 -4.55501 0
M  V30 7971 H 738.724 0.285951 -2.10466 0
M  V30 7972 H 740.987 0.189303 -0.928907 0
M  V30 7973 H 740.693 1.27193 -3.27895 0
M  V30 7974 H 740.567 2.83393 -2.48935 0
M  V30 7975 H 742.954 2.50999 -1.55189 0
M  V30 7976 H 743.035 0.94653 -2.37644 0
M  V30 7977 H 742.679 2.13131 -4.61018 0
M  V30 7978 H 742.609 3.69237 -3.75462 0
M  V30 7979 H 745.1 2.34682 -2.96197 0
M  V30 7980 H 745.413 4.29338 -6.42564 0
M  V30 7981 H 743.758 3.86693 -5.77489 0
M  V30 7982 H 746.949 2.84047 -3.72069 0
M  V30 7983 H 747.122 3.7283 -5.30001 0
M  V30 7984 N 740.528 1.15101 1.07655 0
M  V30 7985 C 741.491 0.847625 2.12951 0
M  V30 7986 C 742.491 -0.151227 1.60087 0
M  V30 7987 O 743.681 0.0780399 1.74025 0
M  V30 7988 C 740.813 0.265 3.39868 0
M  V30 7989 H 742.006 1.7809 2.41296 0
M  V30 7990 H 739.559 0.958072 1.23494 0
M  V30 7991 H 740.294 -0.676625 3.17163 0
M  V30 7992 H 740.079 0.984554 3.79538 0
M  V30 7993 H 741.569 0.0702121 4.17541 0
M  V30 7994 N 742.006 -1.2595 0.947325 0
M  V30 7995 C 742.939 -2.24559 0.406009 0
M  V30 7996 C 743.917 -1.54441 -0.508598 0
M  V30 7997 O 745.101 -1.83181 -0.444644 0
M  V30 7998 C 742.228 -3.36136 -0.415987 0
M  V30 7999 C 741.274 -4.24245 0.437969 0
M  V30 8000 S 742.107 -5.01948 1.86572 0
M  V30 8001 C 743.263 -6.16997 1.05194 0
M  V30 8002 H 743.496 -2.70128 1.24171 0
M  V30 8003 H 741.029 -1.34912 0.750874 0
M  V30 8004 H 742.987 -4.00861 -0.88433 0
M  V30 8005 H 741.648 -2.89167 -1.22643 0
M  V30 8006 H 740.841 -5.03634 -0.192127 0
M  V30 8007 H 740.443 -3.64416 0.841235 0
M  V30 8008 H 742.735 -6.76848 0.297126 0
M  V30 8009 H 743.678 -6.84324 1.8195 0
M  V30 8010 H 744.086 -5.61458 0.585294 0
M  V30 8011 N 743.484 -0.715051 -1.40445 0
M  V30 8012 C 744.73 -0.254705 -2.01194 0
M  V30 8013 C 745.063 1.14894 -1.56567 0
M  V30 8014 O 744.338 1.77933 -0.785491 0
M  V30 8015 C 744.621 -0.334148 -3.58546 0
M  V30 8016 C 744.474 -1.77613 -4.13248 0
M  V30 8017 C 745.793 0.294968 -4.3911 0
M  V30 8018 H 742.912 -0.094025 -0.730978 0
M  V30 8019 H 745.554 -0.907449 -1.66929 0
M  V30 8020 H 743.704 0.221609 -3.87867 0
M  V30 8021 H 745.376 -2.38723 -3.94727 0
M  V30 8022 H 743.619 -2.30402 -3.67556 0
M  V30 8023 H 744.29 -1.78311 -5.22407 0
M  V30 8024 H 746.766 -0.178563 -4.15717 0
M  V30 8025 H 745.642 0.208934 -5.48502 0
M  V30 8026 H 745.903 1.37841 -4.20062 0
M  V30 8027 N 744.962 1.50701 -0.461195 0
M  V30 8028 C 745.872 2.32069 0.343661 0
M  V30 8029 C 746.888 1.42016 1.00535 0
M  V30 8030 O 748.064 1.75077 0.995498 0
M  V30 8031 C 745.129 3.16424 1.41692 0
M  V30 8032 C 744.19 4.22286 0.772869 0
M  V30 8033 C 743.423 5.02609 1.79499 0
M  V30 8034 O 743.646 4.83874 3.0203 0
M  V30 8035 O 742.58 5.86047 1.3723 0
M  V30 8036 H 746.406 3.01996 -0.321268 0
M  V30 8037 H 743.991 1.47723 -0.223235 0
M  V30 8038 H 745.873 3.68795 2.03883 0
M  V30 8039 H 744.548 2.49236 2.0655 0
M  V30 8040 H 743.455 3.73931 0.112277 0
M  V30 8041 H 744.788 4.91915 0.167399 0
M  V30 8042 N 746.441 0.193421 1.56409 0
M  V30 8043 C 747.689 -0.444908 1.97142 0
M  V30 8044 C 748.01 -1.62268 1.08139 0
M  V30 8045 O 747.28 -1.95307 0.152326 0
M  V30 8046 H 745.86 -0.16736 0.728011 0
M  V30 8047 H 748.522 0.279763 1.92882 0
M  V30 8048 H 747.618 -0.790159 3.01932 0
M  V30 8049 N 747.919 -1.57396 -0.0801906 0
M  V30 8050 C 749.149 -1.90778 -0.792924 0
M  V30 8051 C 749.557 -0.786814 -1.72064 0
M  V30 8052 O 748.9 0.249259 -1.82001 0
M  V30 8053 C 748.962 -3.19552 -1.64702 0
M  V30 8054 C 748.626 -4.48259 -0.889567 0
M  V30 8055 C 749.623 -5.19465 -0.212602 0
M  V30 8056 C 747.308 -4.94896 -0.859229 0
M  V30 8057 C 749.302 -6.35555 0.484566 0
M  V30 8058 C 746.989 -6.10895 -0.158284 0
M  V30 8059 C 747.987 -6.81075 0.512421 0
M  V30 8060 O 747.675 -7.94862 1.20209 0
M  V30 8061 H 747.407 -0.63527 -0.231103 0
M  V30 8062 H 749.961 -2.0532 -0.0573081 0
M  V30 8063 H 748.191 -3.01196 -2.42524 0
M  V30 8064 H 749.88 -3.38649 -2.23767 0
M  V30 8065 H 750.646 -4.84467 -0.227403 0
M  V30 8066 H 746.525 -4.4015 -1.37073 0
M  V30 8067 H 750.069 -6.9027 1.00864 0
M  V30 8068 H 745.966 -6.45345 -0.141381 0
M  V30 8069 H 746.734 -8.10932 1.11051 0
M  V30 8070 N 749.397 0.351382 -1.53633 0
M  V30 8071 C 750.813 0.693987 -1.43722 0
M  V30 8072 C 751.013 1.9274 -0.587669 0
M  V30 8073 O 750.069 2.52387 -0.0756082 0
M  V30 8074 C 751.382 0.893937 -2.87105 0
M  V30 8075 C 752.93 0.993051 -2.96829 0
M  V30 8076 C 753.405 1.22537 -4.41303 0
M  V30 8077 N 754.896 1.29275 -4.44795 0
M  V30 8078 C 755.631 1.48988 -5.53706 0
M  V30 8079 N 755.127 1.65924 -6.72637 0
M  V30 8080 N 756.92 1.51472 -5.41306 0
M  V30 8081 H 749.071 -0.459688 -2.07366 0
M  V30 8082 H 751.334 -0.143684 -0.937048 0
M  V30 8083 H 751.04 0.0592517 -3.5165 0
M  V30 8084 H 750.914 1.79795 -3.31592 0
M  V30 8085 H 753.301 1.81827 -2.32429 0
M  V30 8086 H 753.382 0.0661119 -2.55715 0
M  V30 8087 H 753.026 0.405117 -5.06282 0
M  V30 8088 H 752.956 2.16575 -4.80003 0
M  V30 8089 H 755.447 1.17743 -3.59089 0
M  V30 8090 H 755.76 1.80578 -7.51406 0
M  V30 8091 H 754.105 1.63075 -6.75597 0
M  V30 8092 H 757.296 1.37818 -4.47352 0
M  V30 8093 H 757.469 1.66493 -6.26246 0
M  V30 8094 N 750.875 1.45233 0.611969 0
M  V30 8095 C 752.121 1.49242 1.37312 0
M  V30 8096 C 752.454 0.131963 1.93751 0
M  V30 8097 O 751.729 -0.852999 1.74798 0
M  V30 8098 C 752.012 2.56811 2.52428 0
M  V30 8099 C 751.865 4.02284 2.01215 0
M  V30 8100 C 753.184 2.60705 3.54572 0
M  V30 8101 H 750.303 0.54336 0.497925 0
M  V30 8102 H 752.945 1.77019 0.690242 0
M  V30 8103 H 751.095 2.33256 3.10683 0
M  V30 8104 H 752.767 4.37035 1.47643 0
M  V30 8105 H 751.01 4.1315 1.32248 0
M  V30 8106 H 751.681 4.7323 2.84178 0
M  V30 8107 H 754.157 2.81799 3.06151 0
M  V30 8108 H 753.033 3.37841 4.32614 0
M  V30 8109 H 753.294 1.65627 4.09903 0
M  V30 8110 N 752.353 -0.854086 1.3245 0
M  V30 8111 C 753.601 -1.60513 1.228 0
M  V30 8112 C 753.922 -1.93865 -0.210073 0
M  V30 8113 O 753.192 -1.59673 -1.13496 0
M  V30 8114 H 751.772 -0.595099 0.451516 0
M  V30 8115 H 754.434 -1.0216 1.6598 0
M  V30 8116 H 753.53 -2.54182 1.81102 0
M  V30 8117 N 753.831 -1.1567 -1.07043 0
M  V30 8118 C 755.077 -0.9349 -1.79965 0
M  V30 8119 C 755.41 0.536464 -1.86643 0
M  V30 8120 O 754.685 1.39781 -1.35247 0
M  V30 8121 C 754.968 -1.55371 -3.24857 0
M  V30 8122 C 754.821 -3.09589 -3.26305 0
M  V30 8123 C 756.14 -1.24209 -4.22209 0
M  V30 8124 H 753.259 -0.341061 -0.653335 0
M  V30 8125 H 755.901 -1.42883 -1.25237 0
M  V30 8126 H 754.051 -1.13368 -3.71591 0
M  V30 8127 H 755.723 -3.60521 -2.87789 0
M  V30 8128 H 753.966 -3.43315 -2.65174 0
M  V30 8129 H 754.637 -3.48002 -4.28484 0
M  V30 8130 H 757.113 -1.60548 -3.8388 0
M  V30 8131 H 755.989 -1.70119 -5.21872 0
M  V30 8132 H 756.25 -0.15964 -4.41812 0
M  V30 8133 N 755.309 1.25446 -0.953992 0
M  V30 8134 C 756.256 2.25912 -0.472485 0
M  V30 8135 C 757.226 1.59173 0.47469 0
M  V30 8136 O 758.411 1.86812 0.388082 0
M  V30 8137 C 755.551 3.44235 0.244218 0
M  V30 8138 C 754.664 4.25613 -0.740121 0
M  V30 8139 C 753.799 5.312 -0.000922267 0
M  V30 8140 C 752.838 6.04265 -0.976236 0
M  V30 8141 N 751.975 7.01589 -0.267952 0
M  V30 8142 H 756.815 2.66469 -1.3341 0
M  V30 8143 H 754.352 1.31005 -0.669045 0
M  V30 8144 H 756.31 4.11682 0.676314 0
M  V30 8145 H 754.94 3.04554 1.06988 0
M  V30 8146 H 753.992 3.57834 -1.2907 0
M  V30 8147 H 755.304 4.762 -1.48441 0
M  V30 8148 H 754.458 6.04719 0.48984 0
M  V30 8149 H 753.197 4.81484 0.776159 0
M  V30 8150 H 752.202 5.29561 -1.478 0
M  V30 8151 H 753.427 6.5607 -1.75354 0
M  V30 8152 H 751.373 6.54164 0.490403 0
M  V30 8153 H 751.29 7.4999 -0.951344 0
M  V30 8154 H 752.558 7.7924 0.201294 0
M  V30 8155 N 756.787 0.722489 1.40064 0
M  V30 8156 C 758.015 0.274838 2.05066 0
M  V30 8157 C 758.43 -1.08586 1.54449 0
M  V30 8158 O 757.787 -1.68375 0.704003 0
M  V30 8159 C 757.838 0.253673 3.60609 0
M  V30 8160 O 757.559 1.56064 4.0936 0
M  V30 8161 C 759.06 -0.211684 4.42794 0
M  V30 8162 H 756.28 0.12226 0.659768 0
M  V30 8163 H 758.824 0.982632 1.79345 0
M  V30 8164 H 756.979 -0.405137 3.85276 0
M  V30 8165 H 757.393 1.46576 5.03603 0
M  V30 8166 H 758.867 -0.175341 5.51721 0
M  V30 8167 H 759.344 -1.25493 4.2089 0
M  V30 8168 H 759.95 0.4171 4.2325 0
M  V30 8169 N 758.265 -1.50454 0.469181 0
M  V30 8170 C 759.513 -2.01916 -0.0862982 0
M  V30 8171 C 759.834 -1.35337 -1.40388 0
M  V30 8172 O 759.104 -0.498096 -1.89462 0
M  V30 8173 H 757.684 -0.746185 -0.0348825 0
M  V30 8174 H 760.346 -1.84804 0.619167 0
M  V30 8175 H 759.442 -3.11182 -0.239189 0
M  V30 8176 N 759.743 -0.201713 -1.56304 0
M  V30 8177 C 760.971 0.440723 -2.02152 0
M  V30 8178 C 761.386 1.54735 -1.08179 0
M  V30 8179 O 760.743 1.82289 -0.0878196 0
M  V30 8180 C 760.794 0.990884 -3.47655 0
M  V30 8181 O 760.515 -0.0715937 -4.38041 0
M  V30 8182 C 762.016 1.70854 -4.09052 0
M  V30 8183 H 759.236 0.109987 -0.661924 0
M  V30 8184 H 761.78 -0.312358 -2.021 0
M  V30 8185 H 759.935 1.69432 -3.48384 0
M  V30 8186 H 760.349 0.338892 -5.23404 0
M  V30 8187 H 761.823 2.04572 -5.12693 0
M  V30 8188 H 762.3 2.61462 -3.52894 0
M  V30 8189 H 762.906 1.0508 -4.12114 0
M  V30 8190 N 761.222 1.57436 0.0718424 0
M  V30 8191 C 762.185 2.02703 1.06977 0
M  V30 8192 C 763.185 0.924062 1.31597 0
M  V30 8193 O 764.375 1.18894 1.27318 0
M  V30 8194 C 761.507 2.40763 2.41342 0
M  V30 8195 H 762.7 2.92098 0.679619 0
M  V30 8196 H 760.253 1.5304 0.317565 0
M  V30 8197 H 760.988 1.54394 2.8519 0
M  V30 8198 H 760.773 3.21249 2.24814 0
M  V30 8199 H 762.263 2.76361 3.13073 0
M  V30 8200 N 762.7 -0.34323 1.53817 0
M  V30 8201 C 764.116 -0.686355 1.44088 0
M  V30 8202 C 764.316 -1.92426 0.597882 0
M  V30 8203 O 763.372 -2.52343 0.0889918 0
M  V30 8204 C 764.685 -0.878698 2.87575 0
M  V30 8205 C 766.233 -0.977296 2.97352 0
M  V30 8206 C 766.708 -1.20195 4.41947 0
M  V30 8207 N 768.199 -1.26915 4.45474 0
M  V30 8208 C 768.934 -1.46049 5.54488 0
M  V30 8209 N 768.43 -1.62354 6.73508 0
M  V30 8210 N 770.223 -1.48599 5.42102 0
M  V30 8211 H 762.374 0.470679 2.07119 0
M  V30 8212 H 764.637 0.148652 0.936273 0
M  V30 8213 H 764.343 -0.040602 3.51677 0
M  V30 8214 H 764.217 -1.78034 3.32541 0
M  V30 8215 H 766.604 -1.80591 2.3339 0
M  V30 8216 H 766.685 -0.0525498 2.55746 0
M  V30 8217 H 766.329 -0.378262 5.06489 0
M  V30 8218 H 766.259 -2.14027 4.81145 0
M  V30 8219 H 768.75 -1.15837 3.59708 0
M  V30 8220 H 769.063 -1.76591 7.52353 0
M  V30 8221 H 767.408 -1.5949 6.76453 0
M  V30 8222 H 770.599 -1.35443 4.48077 0
M  V30 8223 H 770.772 -1.6317 6.2712 0
M  V30 8224 N 764.178 -1.45556 -0.604258 0
M  V30 8225 C 765.125 -1.54482 -1.71476 0
M  V30 8226 C 766.095 -0.390479 -1.61445 0
M  V30 8227 O 767.28 -0.604371 -1.80975 0
M  V30 8228 C 764.42 -1.52064 -3.09791 0
M  V30 8229 C 763.533 -2.78073 -3.30604 0
M  V30 8230 C 762.668 -2.67304 -4.59044 0
M  V30 8231 C 761.707 -3.88352 -4.73127 0
M  V30 8232 N 760.844 -3.76098 -5.9287 0
M  V30 8233 H 765.684 -2.49349 -1.63184 0
M  V30 8234 H 763.221 -1.23725 -0.795641 0
M  V30 8235 H 765.179 -1.48649 -3.89819 0
M  V30 8236 H 763.809 -0.607442 -3.17033 0
M  V30 8237 H 762.861 -2.91561 -2.44329 0
M  V30 8238 H 764.173 -3.67847 -3.36883 0
M  V30 8239 H 763.327 -2.61875 -5.47272 0
M  V30 8240 H 762.066 -1.75135 -4.55169 0
M  V30 8241 H 761.071 -3.94137 -3.83322 0
M  V30 8242 H 762.296 -4.81591 -4.78797 0
M  V30 8243 H 760.242 -2.867 -5.90033 0
M  V30 8244 H 760.159 -4.59509 -6.00323 0
M  V30 8245 H 761.427 -3.74607 -6.83586 0
M  V30 8246 N 765.656 0.84705 -1.32902 0
M  V30 8247 C 766.905 1.59667 -1.23245 0
M  V30 8248 C 767.218 1.94551 0.202349 0
M  V30 8249 O 768.424 2.68218 0.420847 0
M  V30 8250 C 766.88 2.8795 -2.15901 0
M  V30 8251 C 766.488 2.60461 -3.64505 0
M  V30 8252 C 768.232 3.65968 -2.15098 0
M  V30 8253 C 766.139 3.84791 -4.49099 0
M  V30 8254 H 765.069 0.599167 -0.457728 0
M  V30 8255 H 767.72 0.934662 -1.57912 0
M  V30 8256 H 766.102 3.55648 -1.74157 0
M  V30 8257 H 767.276 2.01026 -4.14639 0
M  V30 8258 H 765.591 1.9576 -3.67515 0
M  V30 8259 H 768.188 4.58241 -2.75534 0
M  V30 8260 H 768.531 4.00275 -1.14392 0
M  V30 8261 H 769.064 3.05184 -2.55162 0
M  V30 8262 H 765.803 3.55621 -5.50649 0
M  V30 8263 H 765.323 4.43594 -4.03713 0
M  V30 8264 H 767.002 4.52454 -4.62487 0
M  V30 8265 N 767.134 1.16236 1.06428 0
M  V30 8266 C 768.044 0.881976 2.1739 0
M  V30 8267 C 769.06 -0.145259 1.73393 0
M  V30 8268 O 770.236 0.0310558 2.01376 0
M  V30 8269 C 767.301 0.385496 3.4455 0
M  V30 8270 C 766.362 1.47779 4.03063 0
M  V30 8271 C 765.595 1.0049 5.24154 0
M  V30 8272 O 765.818 -0.145889 5.70213 0
M  V30 8273 O 764.752 1.79265 5.74585 0
M  V30 8274 H 768.578 1.80983 2.43883 0
M  V30 8275 H 766.163 0.942226 1.15942 0
M  V30 8276 H 768.045 0.115536 4.21242 0
M  V30 8277 H 766.72 -0.514369 3.19587 0
M  V30 8278 H 765.627 1.80147 3.27869 0
M  V30 8279 H 766.96 2.35291 4.32318 0
M  V30 8280 N 768.612 -1.24939 0.960631 0
M  V30 8281 C 769.56 -2.27659 0.47686 0
M  V30 8282 C 770.554 -1.63148 -0.455961 0
M  V30 8283 O 771.76 -1.76911 -0.332029 0
M  V30 8284 H 768.135 -0.739651 0.135723 0
M  V30 8285 H 770.106 -2.65844 1.35534 0
M  V30 8286 C 768.855 -3.46976 -0.224191 0
M  V30 8287 H 768.178 -3.96854 0.484471 0
M  V30 8288 H 769.618 -4.20717 -0.526615 0
M  V30 8289 C 768.077 -3.04159 -1.44876 0
M  V30 8290 O 768.607 -3.10697 -2.54618 0
M  V30 8291 N 766.813 -2.59284 -1.31226 0
M  V30 8292 H 766.36 -2.54164 -0.419361 0
M  V30 8293 H 766.318 -2.31 -2.13275 0
M  V30 8294 N 770.09 -0.729906 -1.39679 0
M  V30 8295 C 771.338 -0.275077 -2.00219 0
M  V30 8296 C 771.659 1.1401 -1.58199 0
M  V30 8297 O 770.929 1.77546 -0.827904 0
M  V30 8298 H 769.509 -0.0987127 -0.740449 0
M  V30 8299 H 772.171 -0.93873 -1.70804 0
M  V30 8300 H 771.267 -0.319446 -3.10461 0
M  V30 8301 N 771.568 1.50203 -0.477153 0
M  V30 8302 C 772.518 2.25561 0.332625 0
M  V30 8303 C 773.502 1.29401 0.956249 0
M  V30 8304 O 774.694 1.54267 0.867795 0
M  V30 8305 C 771.823 3.12984 1.41052 0
M  V30 8306 C 770.909 4.16595 0.79433 0
M  V30 8307 N 771.3 5.05722 -0.0889633 0
M  V30 8308 C 769.598 4.33279 1.0576 0
M  V30 8309 C 770.299 5.80039 -0.439286 0
M  V30 8310 N 769.275 5.43278 0.187018 0
M  V30 8311 H 773.077 2.91836 -0.347718 0
M  V30 8312 H 770.591 1.59759 -0.291686 0
M  V30 8313 H 772.588 3.65582 2.00388 0
M  V30 8314 H 771.248 2.48258 2.09279 0
M  V30 8315 H 772.259 5.15869 -0.458205 0
M  V30 8316 H 768.936 3.79769 1.7344 0
M  V30 8317 H 770.326 6.61802 -1.1605 0
M  V30 8318 N 773.046 0.209999 1.56195 0
M  V30 8319 C 774.276 -0.429373 2.02089 0
M  V30 8320 C 774.684 -1.54703 1.0892 0
M  V30 8321 O 774.027 -1.83485 0.0889535 0
M  V30 8322 C 774.089 -1.03266 3.44349 0
M  V30 8323 C 773.753 -0.0518873 4.56971 0
M  V30 8324 C 774.75 0.744249 5.14545 0
M  V30 8325 C 772.435 0.0635185 5.0226 0
M  V30 8326 C 774.429 1.64261 6.15871 0
M  V30 8327 C 772.116 0.965423 6.03426 0
M  V30 8328 C 773.114 1.75352 6.60106 0
M  V30 8329 O 772.802 2.64029 7.59305 0
M  V30 8330 H 772.534 -0.110604 0.66689 0
M  V30 8331 H 775.088 0.320436 2.02885 0
M  V30 8332 H 773.318 -1.83134 3.40586 0
M  V30 8333 H 775.007 -1.57823 3.73961 0
M  V30 8334 H 775.773 0.665476 4.80413 0
M  V30 8335 H 771.652 -0.539762 4.57829 0
M  V30 8336 H 775.196 2.25819 6.60039 0
M  V30 8337 H 771.093 1.04526 6.36981 0
M  V30 8338 H 771.861 2.57974 7.76783 0
M  V30 8339 N 774.524 -1.57472 -0.0634922 0
M  V30 8340 C 775.77 -1.87932 -0.762194 0
M  V30 8341 C 776.103 -0.803377 -1.76804 0
M  V30 8342 O 775.378 0.185468 -1.93614 0
M  V30 8343 C 775.661 -3.29053 -1.46275 0
M  V30 8344 C 775.514 -4.47309 -0.472755 0
M  V30 8345 C 776.833 -3.68537 -2.40558 0
M  V30 8346 H 773.952 -0.683521 -0.275624 0
M  V30 8347 H 776.594 -1.89983 -0.0252651 0
M  V30 8348 H 774.744 -3.27435 -2.0909 0
M  V30 8349 H 776.416 -4.61053 0.150828 0
M  V30 8350 H 774.659 -4.33286 0.211187 0
M  V30 8351 H 775.33 -5.42853 -1.00072 0
M  V30 8352 H 777.806 -3.71302 -1.87814 0
M  V30 8353 H 776.682 -4.68152 -2.86574 0
M  V30 8354 H 776.943 -2.98917 -3.25731 0
M  V30 8355 N 776.003 0.335068 -1.53997 0
M  V30 8356 C 776.95 1.41187 -1.82579 0
M  V30 8357 C 777.92 1.51897 -0.672061 0
M  V30 8358 O 779.105 1.673 -0.917346 0
M  V30 8359 C 776.245 2.77717 -2.0486 0
M  V30 8360 C 775.358 2.7573 -3.32561 0
M  V30 8361 C 774.493 4.04032 -3.44864 0
M  V30 8362 C 773.532 3.96308 -4.66483 0
M  V30 8363 N 772.669 5.16317 -4.75774 0
M  V30 8364 H 777.509 1.16113 -2.74448 0
M  V30 8365 H 775.046 0.562305 -1.35928 0
M  V30 8366 H 777.004 3.57071 -2.15768 0
M  V30 8367 H 775.634 3.01124 -1.16294 0
M  V30 8368 H 774.686 1.88432 -3.3045 0
M  V30 8369 H 775.998 2.65902 -4.22016 0
M  V30 8370 H 775.152 4.91814 -3.55251 0
M  V30 8371 H 773.891 4.16652 -2.53481 0
M  V30 8372 H 772.896 3.06911 -4.56164 0
M  V30 8373 H 774.121 3.85263 -5.5924 0
M  V30 8374 H 772.067 5.29464 -3.87303 0
M  V30 8375 H 771.984 5.08779 -5.59178 0
M  V30 8376 H 773.252 6.05846 -4.9048 0
M  V30 8377 N 777.481 1.45874 0.596531 0
M  V30 8378 C 778.428 1.55389 1.70655 0
M  V30 8379 C 779.398 0.399036 1.61236 0
M  V30 8380 O 780.583 0.61396 1.80652 0
M  V30 8381 C 777.723 1.53705 3.0898 0
M  V30 8382 C 776.836 2.79823 3.29125 0
M  V30 8383 C 775.971 2.69735 4.5762 0
M  V30 8384 C 775.01 3.90856 4.71061 0
M  V30 8385 N 774.147 3.79237 5.90867 0
M  V30 8386 H 778.987 2.50211 1.61859 0
M  V30 8387 H 776.524 1.24146 0.789069 0
M  V30 8388 H 778.482 1.50715 3.89026 0
M  V30 8389 H 777.112 0.624247 3.16706 0
M  V30 8390 H 776.164 2.92852 2.42779 0
M  V30 8391 H 777.476 3.69628 3.34927 0
M  V30 8392 H 776.63 2.64773 5.45875 0
M  V30 8393 H 775.369 1.77547 4.54234 0
M  V30 8394 H 774.374 3.96164 3.81227 0
M  V30 8395 H 775.599 4.84124 4.76236 0
M  V30 8396 H 773.545 2.89825 5.88504 0
M  V30 8397 H 773.462 4.62686 5.97877 0
M  V30 8398 H 774.73 3.78227 6.8159 0
M  V30 8399 N 778.959 -0.83999 1.33349 0
M  V30 8400 C 780.189 -1.62492 1.27593 0
M  V30 8401 C 780.597 -1.88559 -0.155597 0
M  V30 8402 O 779.94 -1.46537 -1.10782 0
M  V30 8403 C 780.002 -2.99984 1.98116 0
M  V30 8404 C 779.666 -2.96892 3.47425 0
M  V30 8405 C 780.663 -2.72688 4.42648 0
M  V30 8406 C 778.348 -3.17063 3.89585 0
M  V30 8407 C 780.342 -2.68681 5.78004 0
M  V30 8408 C 778.029 -3.12682 5.25046 0
M  V30 8409 C 779.027 -2.88522 6.19067 0
M  V30 8410 O 778.715 -2.84042 7.52047 0
M  V30 8411 H 778.447 -0.512358 0.440982 0
M  V30 8412 H 781.001 -1.0545 1.76265 0
M  V30 8413 H 779.231 -3.58875 1.44034 0
M  V30 8414 H 780.92 -3.6084 1.85875 0
M  V30 8415 H 781.686 -2.56856 4.114 0
M  V30 8416 H 777.565 -3.34889 3.16813 0
M  V30 8417 H 781.109 -2.49743 6.51363 0
M  V30 8418 H 777.006 -3.28063 5.55918 0
M  V30 8419 H 777.774 -2.99892 7.61582 0
M  V30 8420 N 780.437 -1.16799 -1.0581 0
M  V30 8421 C 781.683 -0.953935 -1.78963 0
M  V30 8422 C 782.016 0.516638 -1.87202 0
M  V30 8423 O 781.291 1.38338 -1.36721 0
M  V30 8424 C 781.574 -1.58808 -3.23191 0
M  V30 8425 C 781.427 -3.13032 -3.23003 0
M  V30 8426 C 782.746 -1.2868 -4.20867 0
M  V30 8427 H 779.865 -0.347972 -0.64968 0
M  V30 8428 H 782.507 -1.44204 -1.23715 0
M  V30 8429 H 780.657 -1.17303 -3.70368 0
M  V30 8430 H 782.329 -3.63553 -2.83949 0
M  V30 8431 H 780.572 -3.46108 -2.61518 0
M  V30 8432 H 781.243 -3.52527 -4.24769 0
M  V30 8433 H 783.719 -1.6461 -3.82155 0
M  V30 8434 H 782.595 -1.75645 -5.20038 0
M  V30 8435 H 782.856 -0.206491 -4.41618 0
M  V30 8436 N 781.915 1.24427 -0.967243 0
M  V30 8437 C 782.878 2.23637 -0.501927 0
M  V30 8438 C 783.878 1.55712 0.401283 0
M  V30 8439 O 785.068 1.73085 0.196808 0
M  V30 8440 C 782.2 3.39804 0.273176 0
M  V30 8441 H 783.393 2.66317 -1.37897 0
M  V30 8442 H 780.946 1.37033 -0.751783 0
M  V30 8443 H 781.681 3.02562 1.16733 0
M  V30 8444 H 781.466 3.90303 -0.37498 0
M  V30 8445 H 782.956 4.13443 0.587776 0
M  V30 8446 N 783.393 0.737304 1.3929 0
M  V30 8447 C 784.64 0.286257 2.00467 0
M  V30 8448 C 784.968 -1.1272 1.58507 0
M  V30 8449 O 784.223 -1.7832 0.806257 0
M  V30 8450 C 784.522 0.338438 3.55794 0
M  V30 8451 C 784.188 1.70524 4.17411 0
M  V30 8452 C 782.85 2.07934 4.33955 0
M  V30 8453 C 785.202 2.60256 4.51571 0
M  V30 8454 C 782.53 3.34578 4.81948 0
M  V30 8455 C 784.882 3.86275 5.00974 0
M  V30 8456 C 783.546 4.23774 5.15725 0
M  V30 8457 H 782.816 0.104749 0.733559 0
M  V30 8458 H 785.463 0.944598 1.66582 0
M  V30 8459 H 783.768 -0.403478 3.89717 0
M  V30 8460 H 785.465 -0.0287255 4.0099 0
M  V30 8461 H 782.055 1.40439 4.04938 0
M  V30 8462 H 786.239 2.32624 4.38406 0
M  V30 8463 H 781.495 3.63572 4.91554 0
M  V30 8464 H 785.669 4.5596 5.26378 0
M  V30 8465 H 783.296 5.21972 5.52674 0
M  V30 8466 N 784.871 -1.49948 0.485112 0
M  V30 8467 C 786.099 -2.06806 -0.0622824 0
M  V30 8468 C 786.514 -1.34736 -1.32256 0
M  V30 8469 O 785.871 -0.420836 -1.77582 0
M  V30 8470 C 785.922 -3.59934 -0.336096 0
M  V30 8471 O 785.643 -4.29289 0.874203 0
M  V30 8472 C 787.144 -4.33459 -0.928903 0
M  V30 8473 H 784.364 -0.670867 0.0133472 0
M  V30 8474 H 786.908 -1.92937 0.677917 0
M  V30 8475 H 785.063 -3.7356 -1.02625 0
M  V30 8476 H 785.477 -5.20735 0.627332 0
M  V30 8477 H 786.951 -5.41527 -1.07017 0
M  V30 8478 H 787.428 -3.94881 -1.92265 0
M  V30 8479 H 788.034 -4.24399 -0.276705 0
M  V30 8480 N 786.349 -0.21828 -1.56081 0
M  V30 8481 C 787.312 0.679633 -2.18892 0
M  V30 8482 C 788.312 1.12405 -1.14986 0
M  V30 8483 O 789.502 1.03339 -1.40238 0
M  V30 8484 C 786.634 1.93063 -2.80962 0
M  V30 8485 H 787.827 0.132066 -2.99609 0
M  V30 8486 H 785.38 0.0313374 -1.56269 0
M  V30 8487 H 786.115 2.52015 -2.04106 0
M  V30 8488 H 785.9 1.62046 -3.57048 0
M  V30 8489 H 787.39 2.57043 -3.29118 0
M  V30 8490 N 787.827 1.57504 0.0551401 0
M  V30 8491 C 789.075 1.87684 0.74962 0
M  V30 8492 C 789.396 0.812547 1.77264 0
M  V30 8493 O 788.666 -0.15694 1.9527 0
M  V30 8494 H 787.246 0.6926 0.279846 0
M  V30 8495 H 789.908 1.94881 0.0272745 0
M  V30 8496 H 789.004 2.85734 1.25548 0
M  V30 8497 N 789.305 -0.326896 1.54172 0
M  V30 8498 C 790.554 -1.06274 1.71431 0
M  V30 8499 C 790.867 -1.89282 0.493123 0
M  V30 8500 O 792.073 -2.65933 0.54699 0
M  V30 8501 C 790.529 -1.93892 3.03206 0
M  V30 8502 C 790.137 -1.16011 4.32719 0
M  V30 8503 C 791.881 -2.67232 3.29829 0
M  V30 8504 C 789.788 -2.02755 5.55558 0
M  V30 8505 H 788.718 -0.400475 0.638855 0
M  V30 8506 H 791.369 -0.321184 1.80667 0
M  V30 8507 H 789.751 -2.71933 2.87869 0
M  V30 8508 H 790.925 -0.427643 4.58811 0
M  V30 8509 H 789.24 -0.54367 4.12836 0
M  V30 8510 H 791.837 -3.32434 4.18798 0
M  V30 8511 H 792.18 -3.34692 2.47562 0
M  V30 8512 H 792.713 -1.96255 3.46018 0
M  V30 8513 H 789.452 -1.3981 6.40417 0
M  V30 8514 H 788.972 -2.73745 5.33689 0
M  V30 8515 H 790.651 -2.61419 5.91835 0
M  V30 8516 N 790.784 -1.46188 -0.588786 0
M  V30 8517 C 791.747 -1.55882 -1.68029 0
M  V30 8518 C 792.747 -0.436515 -1.54762 0
M  V30 8519 O 793.937 -0.700626 -1.59489 0
M  V30 8520 C 791.069 -1.47332 -3.07418 0
M  V30 8521 H 792.262 -2.5315 -1.60795 0
M  V30 8522 H 789.815 -1.33908 -0.806116 0
M  V30 8523 H 790.55 -0.513193 -3.20214 0
M  V30 8524 H 790.335 -2.28753 -3.18456 0
M  V30 8525 H 791.825 -1.57187 -3.86887 0
M  V30 8526 N 792.262 0.832906 -1.33792 0
M  V30 8527 C 793.673 1.40489 -1.22963 0
M  V30 8528 C 794.024 1.95633 0.149026 0
M  V30 8529 O 793.149 1.8928 1.04891 0
M  V30 8530 C 793.744 2.55387 -2.22627 0
M  V30 8531 C 792.303 3.08522 -2.15618 0
M  V30 8532 C 791.45 1.81347 -2.09782 0
M  V30 8533 H 794.401 0.638156 -1.45304 0
M  V30 8534 H 794.422 3.33193 -1.83746 0
M  V30 8535 H 793.934 2.15222 -3.22957 0
M  V30 8536 H 792.035 3.53217 -1.18611 0
M  V30 8537 H 792.148 3.6829 -3.0643 0
M  V30 8538 H 790.512 2.01839 -1.55349 0
M  V30 8539 H 791.295 1.43369 -3.1193 0
M  V30 8540 N 793.74 1.17359 1.05189 0
M  V30 8541 C 794.989 0.956412 1.77583 0
M  V30 8542 C 795.302 -0.516018 1.88671 0
M  V30 8543 O 796.508 -0.851401 2.57805 0
M  V30 8544 C 794.964 1.66203 3.19225 0
M  V30 8545 C 794.572 3.17299 3.16267 0
M  V30 8546 C 796.316 1.52725 3.96075 0
M  V30 8547 C 794.223 3.8055 4.52698 0
M  V30 8548 H 793.153 0.354204 0.665624 0
M  V30 8549 H 795.804 1.40612 1.17901 0
M  V30 8550 H 794.186 1.14006 3.79234 0
M  V30 8551 H 795.36 3.76431 2.65776 0
M  V30 8552 H 793.675 3.3079 2.52917 0
M  V30 8553 H 796.272 1.97351 4.96947 0
M  V30 8554 H 796.615 0.477803 4.13549 0
M  V30 8555 H 797.148 2.02139 3.42614 0
M  V30 8556 H 793.887 4.85492 4.4043 0
M  V30 8557 H 793.407 3.26206 5.03339 0
M  V30 8558 H 795.086 3.82757 5.21638 0
M  V30 8559 N 795.218 -1.23913 0.973828 0
M  V30 8560 C 796.443 -1.96735 0.656511 0
M  V30 8561 C 796.868 -1.71682 -0.768571 0
M  V30 8562 O 796.226 -0.984267 -1.52256 0
M  V30 8563 C 796.274 -3.48004 0.944735 0
M  V30 8564 O 795.378 -4.12387 0.0333357 0
M  V30 8565 H 794.719 -0.616119 0.247575 0
M  V30 8566 H 797.249 -1.57525 1.30564 0
M  V30 8567 H 797.259 -3.98424 0.87876 0
M  V30 8568 H 795.934 -3.65567 1.98328 0
M  V30 8569 H 794.511 -3.72585 0.153157 0
M  V30 8570 N 796.696 -0.74468 -1.38897 0
M  V30 8571 C 797.973 -0.222773 -1.94327 0
M  V30 8572 C 798.353 1.27731 -1.68071 0
M  V30 8573 O 797.701 2.04754 -1.01429 0
M  V30 8574 C 797.911 -0.566836 -3.44366 0
M  V30 8575 C 799.259 -0.521531 -4.21385 0
M  V30 8576 O 800.283 -0.504599 -3.52608 0
M  V30 8577 O 799.142 -0.524595 -5.43976 0
M  V30 8578 H 796.236 -0.0439259 -0.825833 0
M  V30 8579 H 798.782 -0.824197 -1.48341 0
M  V30 8580 H 797.554 -1.60321 -3.56949 0
M  V30 8581 H 797.177 0.0630577 -3.9755 0
M  V30 8582 N 798.174 1.49689 -0.493057 0
M  V30 8583 C 799.585 1.8665 -0.0433032 0
M  V30 8584 C 799.936 1.40607 1.36836 0
M  V30 8585 O 799.061 0.780503 2.01834 0
M  V30 8586 C 799.656 3.38724 -0.0718069 0
M  V30 8587 C 798.215 3.75015 0.32257 0
M  V30 8588 C 797.362 2.7366 -0.4478 0
M  V30 8589 H 800.313 1.42119 -0.706246 0
M  V30 8590 H 800.334 3.73522 0.725347 0
M  V30 8591 H 799.846 3.72204 -1.09935 0
M  V30 8592 H 797.947 3.47142 1.35364 0
M  V30 8593 H 798.06 4.79099 0.00864259 0
M  V30 8594 H 796.424 2.54498 0.101354 0
M  V30 8595 H 797.207 3.09985 -1.47527 0
M  V30 8596 N 799.652 0.226554 1.55963 0
M  V30 8597 C 801.068 -0.128733 1.5908 0
M  V30 8598 C 801.268 -1.58558 1.24345 0
M  V30 8599 O 800.324 -2.32661 0.981069 0
M  V30 8600 C 801.637 0.202076 3.0002 0
M  V30 8601 C 803.185 0.144718 3.12665 0
M  V30 8602 C 803.66 0.449272 4.55791 0
M  V30 8603 N 805.151 0.399026 4.61478 0
M  V30 8604 C 805.886 0.608106 5.70166 0
M  V30 8605 N 805.382 0.879227 6.87198 0
M  V30 8606 N 807.175 0.5402 5.59498 0
M  V30 8607 H 799.326 1.17686 1.76816 0
M  V30 8608 H 801.589 0.472072 0.822102 0
M  V30 8609 H 801.295 1.21341 3.30105 0
M  V30 8610 H 801.169 -0.480554 3.74126 0
M  V30 8611 H 803.556 -0.857261 2.82374 0
M  V30 8612 H 803.637 0.860899 2.40878 0
M  V30 8613 H 803.281 1.44871 4.86801 0
M  V30 8614 H 803.211 -0.288157 5.25811 0
M  V30 8615 H 805.702 0.197372 3.77384 0
M  V30 8616 H 806.015 1.02673 7.65949 0
M  V30 8617 H 804.36 0.916477 6.88931 0
M  V30 8618 H 807.551 0.328581 4.66945 0
M  V30 8619 H 807.724 0.706548 6.44137 0
M  V30 8620 N 801.13 -1.57531 -0.0467866 0
M  V30 8621 C 802.36 -1.92417 -0.752279 0
M  V30 8622 C 802.768 -0.823134 -1.70356 0
M  V30 8623 O 802.111 0.210598 -1.82489 0
M  V30 8624 C 802.173 -3.22974 -1.57887 0
M  V30 8625 C 801.837 -4.50045 -0.794285 0
M  V30 8626 C 802.834 -5.19799 -0.102368 0
M  V30 8627 C 800.519 -4.96608 -0.754061 0
M  V30 8628 C 802.513 -6.34385 0.619267 0
M  V30 8629 C 800.2 -6.11093 -0.0286682 0
M  V30 8630 C 801.198 -6.79835 0.656772 0
M  V30 8631 O 800.886 -7.92133 1.37042 0
M  V30 8632 H 800.618 -0.640029 -0.217576 0
M  V30 8633 H 803.172 -2.05395 -0.0137438 0
M  V30 8634 H 801.402 -3.06273 -2.3608 0
M  V30 8635 H 803.091 -3.43319 -2.16533 0
M  V30 8636 H 803.857 -4.8484 -0.124589 0
M  V30 8637 H 799.736 -4.42958 -1.27706 0
M  V30 8638 H 803.28 -6.87975 1.15483 0
M  V30 8639 H 799.177 -6.455 -0.00446214 0
M  V30 8640 H 799.945 -8.08394 1.28227 0
M  V30 8641 N 802.608 0.318715 -1.54344 0
M  V30 8642 C 803.571 1.37545 -1.83342 0
M  V30 8643 C 804.571 1.445 -0.705444 0
M  V30 8644 O 805.761 1.44443 -0.973752 0
M  V30 8645 C 802.893 2.76225 -1.99781 0
M  V30 8646 H 804.086 1.13084 -2.77762 0
M  V30 8647 H 801.639 0.554457 -1.46135 0
M  V30 8648 H 802.374 3.05934 -1.07588 0
M  V30 8649 H 802.159 2.7257 -2.81865 0
M  V30 8650 H 803.649 3.52664 -2.23647 0
M  V30 8651 N 804.086 1.46499 0.581025 0
M  V30 8652 C 805.016 1.60052 1.70017 0
M  V30 8653 C 805.997 0.450788 1.64018 0
M  V30 8654 O 807.182 0.677237 1.82009 0
M  V30 8655 C 804.312 1.5921 3.08658 0
M  V30 8656 C 803.266 2.73169 3.29488 0
M  V30 8657 C 802.592 2.57389 4.68674 0
M  V30 8658 C 803.892 4.14978 3.1716 0
M  V30 8659 H 805.586 2.53735 1.5893 0
M  V30 8660 H 803.132 1.22113 0.763173 0
M  V30 8661 H 805.085 1.67285 3.86773 0
M  V30 8662 H 803.809 0.620718 3.20647 0
M  V30 8663 H 802.468 2.64566 2.53773 0
M  V30 8664 H 802.116 1.58331 4.77431 0
M  V30 8665 H 801.816 3.33826 4.83564 0
M  V30 8666 H 803.34 2.67358 5.48956 0
M  V30 8667 H 804.754 4.24684 3.85119 0
M  V30 8668 H 803.151 4.92016 3.4357 0
M  V30 8669 H 804.221 4.35016 2.14218 0
M  V30 8670 N 805.565 -0.825799 1.34232 0
M  V30 8671 C 806.811 -1.58419 1.26614 0
M  V30 8672 C 807.144 -1.93503 -0.164341 0
M  V30 8673 O 806.419 -1.59785 -1.109 0
M  V30 8674 C 806.702 -2.8856 2.15418 0
M  V30 8675 C 806.555 -2.60075 3.66989 0
M  V30 8676 C 807.874 -3.90107 2.03726 0
M  V30 8677 H 804.993 -0.574794 0.461282 0
M  V30 8678 H 807.635 -0.951519 1.64457 0
M  V30 8679 H 805.785 -3.42553 1.83275 0
M  V30 8680 H 807.457 -2.12414 4.09485 0
M  V30 8681 H 805.7 -1.93565 3.88221 0
M  V30 8682 H 806.371 -3.52866 4.24488 0
M  V30 8683 H 808.847 -3.45459 2.31942 0
M  V30 8684 H 807.723 -4.78976 2.68092 0
M  V30 8685 H 807.984 -4.30329 1.01337 0
M  V30 8686 N 807.043 -1.17915 -1.04565 0
M  V30 8687 C 808.292 -0.965816 -1.77073 0
M  V30 8688 C 808.605 0.506005 -1.88942 0
M  V30 8689 O 809.811 0.837717 -2.58253 0
M  V30 8690 C 808.267 -1.67894 -3.18339 0
M  V30 8691 C 807.875 -3.18972 -3.1458 0
M  V30 8692 C 809.619 -1.54823 -3.9526 0
M  V30 8693 C 807.526 -3.82946 -4.50674 0
M  V30 8694 H 806.456 -0.357729 -0.663736 0
M  V30 8695 H 809.107 -1.41235 -1.17153 0
M  V30 8696 H 807.489 -1.16016 -3.78624 0
M  V30 8697 H 808.663 -3.77835 -2.63776 0
M  V30 8698 H 806.978 -3.32127 -2.51159 0
M  V30 8699 H 809.575 -1.99984 -4.95894 0
M  V30 8700 H 809.918 -0.499727 -4.1329 0
M  V30 8701 H 810.451 -2.03953 -3.41538 0
M  V30 8702 H 807.19 -4.8782 -4.37849 0
M  V30 8703 H 806.71 -3.2887 -5.01602 0
M  V30 8704 H 808.389 -3.85518 -5.196 0
M  V30 8705 N 808.521 1.23394 -0.980386 0
M  V30 8706 C 809.451 2.2717 -0.540024 0
M  V30 8707 C 810.432 1.64659 0.426787 0
M  V30 8708 O 811.617 1.91543 0.320153 0
M  V30 8709 C 808.747 3.46939 0.15836 0
M  V30 8710 C 807.701 4.21802 -0.725732 0
M  V30 8711 C 807.027 5.34597 0.104866 0
M  V30 8712 C 808.327 4.81802 -2.01654 0
M  V30 8713 H 810.021 2.64257 -1.40743 0
M  V30 8714 H 807.567 1.2703 -0.678193 0
M  V30 8715 H 809.52 4.18683 0.477737 0
M  V30 8716 H 808.244 3.08912 1.06022 0
M  V30 8717 H 806.903 3.51875 -1.02857 0
M  V30 8718 H 806.551 4.92812 1.00726 0
M  V30 8719 H 806.251 5.85607 -0.483557 0
M  V30 8720 H 807.775 6.09163 0.418624 0
M  V30 8721 H 809.189 5.45554 -1.76193 0
M  V30 8722 H 807.586 5.43098 -2.55273 0
M  V30 8723 H 808.656 4.02549 -2.70338 0
M  V30 8724 N 809.999 0.752036 1.385 0
M  V30 8725 C 811.248 0.304294 1.99391 0
M  V30 8726 C 811.561 -1.11982 1.60373 0
M  V30 8727 O 812.767 -1.66795 2.14223 0
M  V30 8728 C 811.223 0.493101 3.56506 0
M  V30 8729 C 810.831 1.9262 4.04477 0
M  V30 8730 C 812.575 0.107994 4.24363 0
M  V30 8731 C 810.482 2.06365 5.54227 0
M  V30 8732 H 809.412 0.110024 0.745929 0
M  V30 8733 H 812.063 0.928355 1.58284 0
M  V30 8734 H 810.445 -0.20012 3.95494 0
M  V30 8735 H 811.619 2.65276 3.76783 0
M  V30 8736 H 809.934 2.26608 3.49339 0
M  V30 8737 H 812.531 0.189474 5.34364 0
M  V30 8738 H 812.874 -0.939165 4.05568 0
M  V30 8739 H 813.407 0.753011 3.90608 0
M  V30 8740 H 810.146 3.0933 5.77923 0
M  V30 8741 H 809.666 1.38167 5.83669 0
M  V30 8742 H 811.345 1.85286 6.19902 0
M  V30 8743 N 811.477 -1.49425 0.500989 0
M  V30 8744 C 812.425 -2.30771 -0.291149 0
M  V30 8745 C 813.419 -1.3938 -0.962787 0
M  V30 8746 O 814.625 -1.56431 -0.890477 0
M  V30 8747 H 811 -0.743499 -0.11275 0
M  V30 8748 H 812.971 -2.95501 0.414917 0
M  V30 8749 C 811.72 -3.20725 -1.34279 0
M  V30 8750 H 811.043 -3.90975 -0.83538 0
M  V30 8751 H 812.483 -3.80583 -1.86903 0
M  V30 8752 C 810.942 -2.40334 -2.36095 0
M  V30 8753 O 811.472 -2.10749 -3.41976 0
M  V30 8754 N 809.678 -2.02359 -2.08565 0
M  V30 8755 H 809.225 -2.26619 -1.22482 0
M  V30 8756 H 809.183 -1.48878 -2.76916 0
M  V30 8757 N 812.955 -0.234822 -1.55841 0
M  V30 8758 C 814.232 0.442961 -1.90518 0
M  V30 8759 C 814.612 1.76768 -1.15397 0
M  V30 8760 O 813.96 2.26928 -0.267534 0
M  V30 8761 C 814.17 0.622905 -3.43396 0
M  V30 8762 C 815.518 0.9243 -4.14417 0
M  V30 8763 O 816.542 0.709211 -3.49068 0
M  V30 8764 O 815.401 1.33323 -5.29988 0
M  V30 8765 H 812.495 0.236042 -0.792599 0
M  V30 8766 H 815.041 -0.277992 -1.67408 0
M  V30 8767 H 813.813 -0.310973 -3.90062 0
M  V30 8768 H 813.436 1.39485 -3.7233 0
M  V30 8769 N 814.433 1.57553 0.0384317 0
M  V30 8770 C 815.844 1.77258 0.586211 0
M  V30 8771 C 816.195 0.864706 1.76117 0
M  V30 8772 O 815.32 0.057141 2.16325 0
M  V30 8773 C 815.915 3.21453 1.07021 0
M  V30 8774 C 814.474 3.42387 1.56358 0
M  V30 8775 C 813.621 2.72801 0.497508 0
M  V30 8776 H 816.572 1.57585 -0.187796 0
M  V30 8777 H 816.593 3.27451 1.93794 0
M  V30 8778 H 816.105 3.87505 0.214851 0
M  V30 8779 H 814.206 2.81497 2.44111 0
M  V30 8780 H 814.319 4.50968 1.61754 0
M  V30 8781 H 812.683 2.36305 0.95038 0
M  V30 8782 H 813.466 3.41529 -0.348234 0
M  V30 8783 N 815.911 -0.310526 1.54511 0
M  V30 8784 C 816.858 -1.38264 1.84802 0
M  V30 8785 C 817.828 -1.50808 0.696141 0
M  V30 8786 O 819.013 -1.6582 0.943846 0
M  V30 8787 C 816.153 -2.74422 2.09252 0
M  V30 8788 C 815.266 -2.70405 3.36906 0
M  V30 8789 C 814.401 -3.98495 3.51248 0
M  V30 8790 C 813.44 -3.88836 4.72729 0
M  V30 8791 N 812.577 -5.08683 4.83928 0
M  V30 8792 H 817.417 -1.11732 2.76261 0
M  V30 8793 H 814.954 -0.540609 1.36806 0
M  V30 8794 H 816.912 -3.53593 2.21422 0
M  V30 8795 H 815.542 -2.99235 1.2107 0
M  V30 8796 H 814.594 -1.83151 3.33406 0
M  V30 8797 H 815.906 -2.59155 4.26193 0
M  V30 8798 H 815.06 -4.861 3.63031 0
M  V30 8799 H 813.799 -4.12567 2.60077 0
M  V30 8800 H 812.804 -2.99615 4.60989 0
M  V30 8801 H 814.029 -3.76318 5.65298 0
M  V30 8802 H 811.975 -5.23236 3.95677 0
M  V30 8803 H 811.892 -4.99819 5.67201 0
M  V30 8804 H 813.16 -5.97966 5.00057 0
M  V30 8805 N 817.389 -1.46805 -0.573248 0
M  V30 8806 C 818.352 -1.57655 -1.66366 0
M  V30 8807 C 819.352 -0.452905 -1.5429 0
M  V30 8808 O 820.542 -0.717502 -1.58737 0
M  V30 8809 C 817.674 -1.50584 -3.05839 0
M  V30 8810 H 818.867 -2.54842 -1.581 0
M  V30 8811 H 816.42 -1.34756 -0.791868 0
M  V30 8812 H 817.155 -0.547127 -3.19651 0
M  V30 8813 H 816.94 -2.32118 -3.16012 0
M  V30 8814 H 818.43 -1.61282 -3.85199 0
M  V30 8815 N 818.867 0.818669 -1.34668 0
M  V30 8816 C 820.115 1.57201 -1.27013 0
M  V30 8817 C 820.436 1.94354 0.158599 0
M  V30 8818 O 819.706 1.62626 1.09223 0
M  V30 8819 H 818.286 0.582919 -0.467135 0
M  V30 8820 H 820.948 0.977234 -1.6863 0
M  V30 8821 H 820.044 2.49291 -1.87778 0
M  V30 8822 N 820.346 1.18468 1.03938 0
M  V30 8823 C 821.256 0.927889 2.1547 0
M  V30 8824 C 822.272 -0.108447 1.73662 0
M  V30 8825 O 823.448 0.0737636 2.01265 0
M  V30 8826 C 820.513 0.458494 3.43655 0
M  V30 8827 C 819.574 1.56295 3.99838 0
M  V30 8828 C 818.807 1.11586 5.21904 0
M  V30 8829 O 819.03 -0.0249057 5.70395 0
M  V30 8830 O 817.964 1.91412 5.70653 0
M  V30 8831 H 821.79 1.86116 2.39989 0
M  V30 8832 H 819.375 0.966607 1.13917 0
M  V30 8833 H 821.257 0.204861 4.20902 0
M  V30 8834 H 819.932 -0.446464 3.20606 0
M  V30 8835 H 818.839 1.87061 3.23974 0
M  V30 8836 H 820.172 2.44408 4.2723 0
M  V30 8837 N 821.824 -1.22873 0.986916 0
M  V30 8838 C 823.054 -1.95204 0.67668 0
M  V30 8839 C 823.462 -1.73193 -0.761641 0
M  V30 8840 O 822.805 -1.0243 -1.52492 0
M  V30 8841 C 822.867 -3.48173 0.895302 0
M  V30 8842 C 822.531 -3.93912 2.31695 0
M  V30 8843 C 823.528 -4.02064 3.29607 0
M  V30 8844 C 821.213 -4.26722 2.64978 0
M  V30 8845 C 823.207 -4.42391 4.58878 0
M  V30 8846 C 820.894 -4.66729 3.94471 0
M  V30 8847 C 821.892 -4.74531 4.91232 0
M  V30 8848 O 821.58 -5.13636 6.18412 0
M  V30 8849 H 821.312 -0.628105 0.24992 0
M  V30 8850 H 823.866 -1.5714 1.32274 0
M  V30 8851 H 822.096 -3.86223 0.192072 0
M  V30 8852 H 823.785 -4.01717 0.581233 0
M  V30 8853 H 824.551 -3.76912 3.05225 0
M  V30 8854 H 820.43 -4.19858 1.9037 0
M  V30 8855 H 823.974 -4.48395 5.34404 0
M  V30 8856 H 819.871 -4.91332 4.18645 0
M  V30 8857 H 820.639 -5.31728 6.2226 0
M  V30 8858 N 823.302 -0.75937 -1.38099 0
M  V30 8859 C 824.532 -0.328634 -2.0397 0
M  V30 8860 C 824.94 1.04989 -1.57398 0
M  V30 8861 O 824.283 1.67918 -0.744932 0
M  V30 8862 C 824.345 -0.279216 -3.58414 0
M  V30 8863 C 824.009 -1.60025 -4.28067 0
M  V30 8864 C 825.006 -2.55048 -4.53041 0
M  V30 8865 C 822.691 -1.87128 -4.66142 0
M  V30 8866 C 824.685 -3.7539 -5.15132 0
M  V30 8867 C 822.372 -3.07742 -5.27956 0
M  V30 8868 C 823.37 -4.01694 -5.52387 0
M  V30 8869 O 823.058 -5.20186 -6.12912 0
M  V30 8870 H 822.79 -0.137443 -0.66188 0
M  V30 8871 H 825.344 -1.03082 -1.77661 0
M  V30 8872 H 823.574 0.479254 -3.83719 0
M  V30 8873 H 825.263 0.122781 -4.05714 0
M  V30 8874 H 826.029 -2.35387 -4.24049 0
M  V30 8875 H 821.908 -1.14833 -4.46469 0
M  V30 8876 H 825.452 -4.48737 -5.34117 0
M  V30 8877 H 821.349 -3.27294 -5.56371 0
M  V30 8878 H 822.117 -5.20846 -6.31397 0
M  V30 8879 N 824.78 1.49157 -0.508906 0
M  V30 8880 C 826.028 2.02073 0.0327335 0
M  V30 8881 C 826.349 1.39012 1.3675 0
M  V30 8882 O 825.619 0.548153 1.88075 0
M  V30 8883 H 824.199 0.746848 0.0150864 0
M  V30 8884 H 826.861 1.83097 -0.667946 0
M  V30 8885 H 825.957 3.11707 0.1566 0
M  V30 8886 N 826.258 0.243083 1.55714 0
M  V30 8887 C 827.506 -0.381964 1.98458 0
M  V30 8888 C 827.827 -1.58745 1.13247 0
M  V30 8889 O 827.097 -1.94723 0.214384 0
M  V30 8890 H 825.677 -0.144114 0.732967 0
M  V30 8891 H 828.339 0.340985 1.91894 0
M  V30 8892 H 827.435 -0.693702 3.04293 0
M  V30 8893 N 827.736 -1.57571 -0.0300757 0
M  V30 8894 C 828.699 -2.05468 -1.01565 0
M  V30 8895 C 829.699 -0.958628 -1.29101 0
M  V30 8896 O 830.889 -1.22228 -1.24121 0
M  V30 8897 C 828.021 -2.47077 -2.34874 0
M  V30 8898 H 829.214 -2.93797 -0.601936 0
M  V30 8899 H 826.767 -1.53828 -0.276878 0
M  V30 8900 H 827.502 -1.61901 -2.80996 0
M  V30 8901 H 827.287 -3.27097 -2.16218 0
M  V30 8902 H 828.777 -2.84564 -3.05635 0
M  V30 8903 N 829.214 0.302327 -1.54673 0
M  V30 8904 C 830.144 1.37759 -1.88533 0
M  V30 8905 C 831.125 1.52961 -0.744113 0
M  V30 8906 O 832.31 1.6649 -0.999731 0
M  V30 8907 C 829.44 2.74201 -2.13146 0
M  V30 8908 C 828.394 2.73765 -3.28993 0
M  V30 8909 C 827.72 4.13483 -3.39022 0
M  V30 8910 C 829.02 2.35624 -4.66132 0
M  V30 8911 H 830.714 1.0967 -2.78591 0
M  V30 8912 H 828.26 0.52613 -1.34044 0
M  V30 8913 H 830.213 3.49508 -2.35419 0
M  V30 8914 H 828.937 3.03812 -1.19858 0
M  V30 8915 H 827.596 2.00914 -3.06642 0
M  V30 8916 H 827.244 4.40269 -2.43253 0
M  V30 8917 H 826.944 4.14093 -4.16894 0
M  V30 8918 H 828.468 4.90572 -3.63553 0
M  V30 8919 H 829.882 3.00647 -4.88143 0
M  V30 8920 H 828.279 2.47449 -5.46707 0
M  V30 8921 H 829.349 1.30753 -4.66939 0
M  V30 8922 N 830.692 1.47107 0.565454 0
M  V30 8923 C 831.917 1.57153 1.35343 0
M  V30 8924 C 832.342 0.219247 1.86818 0
M  V30 8925 O 831.7 -0.803539 1.62521 0
M  V30 8926 C 831.748 2.59387 2.50501 0
M  V30 8927 O 830.852 2.14086 3.52478 0
M  V30 8928 H 830.193 0.528209 0.402357 0
M  V30 8929 H 832.723 1.92821 0.684189 0
M  V30 8930 H 832.733 2.79546 2.97184 0
M  V30 8931 H 831.408 3.57579 2.12391 0
M  V30 8932 H 829.985 2.03991 3.12157 0
M  V30 8933 N 832.17 -0.811516 1.35101 0
M  V30 8934 C 833.133 -1.90467 1.27495 0
M  V30 8935 C 834.133 -1.59703 0.187516 0
M  V30 8936 O 835.323 -1.68528 0.440896 0
M  V30 8937 C 832.455 -3.26774 0.971154 0
M  V30 8938 H 833.648 -1.98631 2.2469 0
M  V30 8939 H 831.201 -1.00681 1.19553 0
M  V30 8940 H 831.936 -3.243 0.0028557 0
M  V30 8941 H 831.721 -3.50488 1.75785 0
M  V30 8942 H 833.211 -4.06804 0.943414 0
M  V30 8943 N 833.648 -1.19017 -1.03309 0
M  V30 8944 C 835.059 -0.993206 -1.5809 0
M  V30 8945 C 835.41 0.45505 -1.9085 0
M  V30 8946 O 834.535 1.33372 -1.70414 0
M  V30 8947 C 835.13 -1.79661 -2.87241 0
M  V30 8948 C 833.689 -1.64377 -3.38611 0
M  V30 8949 C 832.836 -1.78628 -2.12102 0
M  V30 8950 H 835.787 -1.3345 -0.858879 0
M  V30 8951 H 835.808 -1.29019 -3.57958 0
M  V30 8952 H 835.32 -2.85061 -2.63366 0
M  V30 8953 H 833.421 -0.615447 -3.67482 0
M  V30 8954 H 833.534 -2.44651 -4.11926 0
M  V30 8955 H 831.898 -1.21648 -2.23772 0
M  V30 8956 H 832.681 -2.8548 -1.90673 0
M  V30 8957 N 835.127 1.22348 -0.993418 0
M  V30 8958 C 836.373 1.91393 -0.67056 0
M  V30 8959 C 836.706 1.77163 0.795428 0
M  V30 8960 O 835.981 1.14084 1.57528 0
M  V30 8961 C 836.264 3.43589 -1.0779 0
M  V30 8962 C 836.117 3.66867 -2.60248 0
M  V30 8963 C 837.436 4.35545 -0.631527 0
M  V30 8964 H 834.555 0.695057 -0.24508 0
M  V30 8965 H 837.197 1.44213 -1.23703 0
M  V30 8966 H 835.347 3.83903 -0.595902 0
M  V30 8967 H 837.019 3.35954 -3.16121 0
M  V30 8968 H 835.262 3.1113 -3.02293 0
M  V30 8969 H 835.933 4.73457 -2.838 0
M  V30 8970 H 838.409 4.0275 -1.04554 0
M  V30 8971 H 837.285 5.40707 -0.944831 0
M  V30 8972 H 837.546 4.39618 0.467779 0
M  V30 8973 N 836.605 0.766683 1.37694 0
M  V30 8974 C 837.852 0.328714 1.99814 0
M  V30 8975 C 838.18 -1.09333 1.60862 0
M  V30 8976 O 837.435 -1.7657 0.8439 0
M  V30 8977 C 837.734 0.413831 3.54996 0
M  V30 8978 C 837.4 1.7934 4.137 0
M  V30 8979 C 836.062 2.17092 4.29447 0
M  V30 8980 C 838.414 2.69776 4.45949 0
M  V30 8981 C 835.742 3.44726 4.74743 0
M  V30 8982 C 838.094 3.96814 4.92667 0
M  V30 8983 C 836.758 4.34618 5.0662 0
M  V30 8984 H 836.028 0.120285 0.731172 0
M  V30 8985 H 838.675 0.97972 1.64541 0
M  V30 8986 H 836.98 -0.320723 3.90485 0
M  V30 8987 H 838.677 0.0563369 4.0096 0
M  V30 8988 H 835.267 1.48997 4.01868 0
M  V30 8989 H 839.451 2.41871 4.33373 0
M  V30 8990 H 834.707 3.73917 4.83731 0
M  V30 8991 H 838.881 4.67022 5.16588 0
M  V30 8992 H 836.508 5.33578 5.41478 0
M  V30 8993 N 838.083 -1.48885 0.516809 0
M  V30 8994 C 839.308 -2.0739 -0.0205201 0
M  V30 8995 C 839.733 -1.37259 -1.28614 0
M  V30 8996 O 839.091 -0.434304 -1.76021 0
M  V30 8997 C 839.139 -3.59793 -0.24104 0
M  V30 8998 O 838.243 -3.90957 -1.31251 0
M  V30 8999 H 837.584 -0.663167 0.0332564 0
M  V30 9000 H 840.114 -1.91477 0.720956 0
M  V30 9001 H 840.124 -4.0531 -0.467737 0
M  V30 9002 H 838.799 -4.10244 0.68356 0
M  V30 9003 H 837.376 -3.57234 -1.06951 0
M  V30 9004 N 839.561 -0.251338 -1.55583 0
M  V30 9005 C 840.786 0.379136 -2.03905 0
M  V30 9006 C 841.211 1.50428 -1.12929 0
M  V30 9007 O 840.569 1.80882 -0.123114 0
M  V30 9008 C 840.617 0.86009 -3.50193 0
M  V30 9009 O 839.721 1.96932 -3.62342 0
M  V30 9010 H 839.062 0.0820183 -0.658915 0
M  V30 9011 H 841.592 -0.378692 -2.01065 0
M  V30 9012 H 841.602 1.16214 -3.91099 0
M  V30 9013 H 840.277 0.0367559 -4.15884 0
M  V30 9014 H 838.854 1.67163 -3.33333 0
M  V30 9015 N 841.039 1.57585 0.0217189 0
M  V30 9016 C 842.288 1.88786 0.710125 0
M  V30 9017 C 842.601 0.850819 1.76126 0
M  V30 9018 O 843.807 1.0523 2.50277 0
M  V30 9019 C 842.263 3.3505 1.31413 0
M  V30 9020 C 841.871 4.47001 0.298959 0
M  V30 9021 C 843.615 3.7539 1.98199 0
M  V30 9022 C 841.522 5.8433 0.911727 0
M  V30 9023 H 840.452 0.704388 0.268986 0
M  V30 9024 H 843.103 1.83466 -0.0352638 0
M  V30 9025 H 841.485 3.35138 2.10947 0
M  V30 9026 H 842.659 4.58395 -0.470203 0
M  V30 9027 H 840.974 4.15542 -0.267222 0
M  V30 9028 H 843.571 4.75314 2.4491 0
M  V30 9029 H 843.914 3.07766 2.80331 0
M  V30 9030 H 844.447 3.77508 1.2543 0
M  V30 9031 H 841.186 6.55372 0.129659 0
M  V30 9032 H 840.706 5.76643 1.65056 0
M  V30 9033 H 842.385 6.31295 1.41688 0
M  V30 9034 N 842.517 -0.29412 1.54831 0
M  V30 9035 C 843.45 -1.38779 1.81151 0
M  V30 9036 C 844.428 -1.48464 0.663124 0
M  V30 9037 O 845.612 -1.65418 0.903835 0
M  V30 9038 C 842.739 -2.76627 1.95436 0
M  V30 9039 C 841.785 -2.84333 3.17895 0
M  V30 9040 S 842.618 -2.45726 4.75793 0
M  V30 9041 C 843.774 -3.85589 4.93023 0
M  V30 9042 H 844.007 -1.16246 2.73631 0
M  V30 9043 H 841.54 -0.492611 1.46331 0
M  V30 9044 H 843.498 -3.56021 2.04351 0
M  V30 9045 H 842.159 -2.96425 1.03881 0
M  V30 9046 H 841.352 -3.85457 3.24713 0
M  V30 9047 H 840.954 -2.1294 3.07461 0
M  V30 9048 H 843.246 -4.80656 4.77468 0
M  V30 9049 H 844.189 -3.83737 5.95107 0
M  V30 9050 H 844.597 -3.75911 4.21131 0
M  V30 9051 N 843.995 -1.47404 -0.557645 0
M  V30 9052 C 845.243 -1.53703 -1.31224 0
M  V30 9053 C 845.564 -0.200742 -1.93964 0
M  V30 9054 O 844.834 0.775253 -1.79907 0
M  V30 9055 H 843.414 -0.566171 -0.487299 0
M  V30 9056 H 846.076 -1.83699 -0.651195 0
M  V30 9057 H 845.172 -2.30335 -2.10599 0
M  V30 9058 N 845.473 0.80434 -1.35529 0
M  V30 9059 C 846.703 1.59052 -1.31856 0
M  V30 9060 C 847.111 1.88905 0.105549 0
M  V30 9061 O 846.454 1.49422 1.06858 0
M  V30 9062 C 846.516 2.94626 -2.06 0
M  V30 9063 C 846.18 2.87576 -3.55175 0
M  V30 9064 C 847.177 2.60856 -4.49722 0
M  V30 9065 C 844.862 3.06623 -3.97854 0
M  V30 9066 C 846.856 2.53262 -5.84925 0
M  V30 9067 C 844.543 2.98652 -5.33151 0
M  V30 9068 C 845.541 2.72007 -6.26499 0
M  V30 9069 O 845.229 2.64003 -7.59314 0
M  V30 9070 H 844.961 0.500486 -0.454411 0
M  V30 9071 H 847.515 1.0074 -1.78999 0
M  V30 9072 H 845.745 3.5493 -1.53498 0
M  V30 9073 H 847.434 3.55785 -1.95376 0
M  V30 9074 H 848.2 2.45858 -4.18066 0
M  V30 9075 H 844.079 3.26372 -3.2558 0
M  V30 9076 H 847.623 2.32386 -6.57756 0
M  V30 9077 H 843.52 3.13208 -5.64421 0
M  V30 9078 H 844.288 2.79595 -7.69265 0
M  V30 9079 N 846.951 1.19563 1.02676 0
M  V30 9080 C 847.914 0.937182 2.09164 0
M  V30 9081 C 848.914 -0.0831927 1.60585 0
M  V30 9082 O 850.104 0.15178 1.73538 0
M  V30 9083 C 847.236 0.408912 3.38439 0
M  V30 9084 H 848.429 1.88164 2.33526 0
M  V30 9085 H 845.982 1.00959 1.19319 0
M  V30 9086 H 846.717 -0.541497 3.19747 0
M  V30 9087 H 846.502 1.14464 3.7502 0
M  V30 9088 H 847.992 0.247242 4.16867 0
M  V30 9089 N 848.429 -1.21819 0.999893 0
M  V30 9090 C 849.359 -2.26282 0.576096 0
M  V30 9091 C 850.34 -1.65317 -0.400537 0
M  V30 9092 O 851.525 -1.92028 -0.28964 0
M  V30 9093 C 848.655 -3.47147 -0.103145 0
M  V30 9094 C 847.609 -4.20594 0.792745 0
M  V30 9095 C 846.935 -5.34696 -0.0198026 0
M  V30 9096 C 848.235 -4.78533 2.09293 0
M  V30 9097 H 849.929 -2.61984 1.4493 0
M  V30 9098 H 847.475 -1.25935 0.698316 0
M  V30 9099 H 849.428 -4.1939 -0.411068 0
M  V30 9100 H 848.152 -3.1056 -1.01094 0
M  V30 9101 H 846.811 -3.50194 1.08442 0
M  V30 9102 H 846.459 -4.94352 -0.928729 0
M  V30 9103 H 846.159 -5.84764 0.576661 0
M  V30 9104 H 847.683 -6.09752 -0.321659 0
M  V30 9105 H 849.097 -5.42682 1.8485 0
M  V30 9106 H 847.494 -5.38968 2.63881 0
M  V30 9107 H 848.564 -3.98197 2.76708 0
M  V30 9108 N 849.908 -0.773975 -1.37286 0
M  V30 9109 C 851.324 -0.45386 -1.53011 0
M  V30 9110 C 851.524 1.03018 -1.73175 0
M  V30 9111 O 850.58 1.81597 -1.75438 0
M  V30 9112 C 851.893 -1.27087 -2.72524 0
M  V30 9113 C 853.441 -1.26299 -2.86387 0
M  V30 9114 C 853.916 -2.0634 -4.08886 0
M  V30 9115 N 855.407 -2.03706 -4.16003 0
M  V30 9116 C 856.142 -2.62418 -5.09828 0
M  V30 9117 N 855.638 -3.29926 -6.09197 0
M  V30 9118 N 857.431 -2.52236 -5.02328 0
M  V30 9119 H 849.582 -1.73551 -1.22449 0
M  V30 9120 H 851.845 -0.736874 -0.596423 0
M  V30 9121 H 851.551 -2.32263 -2.64096 0
M  V30 9122 H 851.425 -0.90157 -3.66267 0
M  V30 9123 H 853.812 -0.219213 -2.94285 0
M  V30 9124 H 853.893 -1.67195 -1.93596 0
M  V30 9125 H 853.537 -3.10741 -4.01749 0
M  V30 9126 H 853.467 -1.62825 -5.00795 0
M  V30 9127 H 855.958 -1.54559 -3.44848 0
M  V30 9128 H 856.271 -3.72095 -6.77322 0
M  V30 9129 H 854.616 -3.34026 -6.09469 0
M  V30 9130 H 857.807 -1.99108 -4.23643 0
M  V30 9131 H 857.98 -2.98286 -5.75265 0
M  V30 9132 N 851.386 1.48609 -0.524698 0
M  V30 9133 C 852.349 2.28041 0.230166 0
M  V30 9134 C 853.349 1.35065 0.872584 0
M  V30 9135 O 854.539 1.58007 0.73345 0
M  V30 9136 C 851.671 3.13778 1.33252 0
M  V30 9137 H 852.864 2.96239 -0.467161 0
M  V30 9138 H 850.417 1.53763 -0.280452 0
M  V30 9139 H 851.152 2.502 2.06327 0
M  V30 9140 H 850.937 3.82165 0.877058 0
M  V30 9141 H 852.427 3.7371 1.86362 0
M  V30 9142 N 852.864 0.259585 1.55447 0
M  V30 9143 C 853.812 -0.6507 2.23313 0
M  V30 9144 C 854.806 -1.17014 1.22491 0
M  V30 9145 O 856.012 -1.12557 1.40467 0
M  V30 9146 H 852.387 -0.228354 0.71649 0
M  V30 9147 H 854.358 -0.0553039 2.98349 0
M  V30 9148 C 853.107 -1.83081 2.95596 0
M  V30 9149 H 852.43 -1.44027 3.72956 0
M  V30 9150 H 853.87 -2.44469 3.46426 0
M  V30 9151 C 852.329 -2.70976 2.00184 0
M  V30 9152 O 852.859 -3.70882 1.54304 0
M  V30 9153 N 851.065 -2.37813 1.67014 0
M  V30 9154 H 850.612 -1.5662 2.04519 0
M  V30 9155 H 850.57 -2.96896 1.03443 0
M  V30 9156 N 854.342 -1.57594 -0.0133615 0
M  V30 9157 C 855.305 -2.06534 -0.993799 0
M  V30 9158 C 856.305 -0.972267 -1.28077 0
M  V30 9159 O 857.495 -1.23537 -1.22818 0
M  V30 9160 C 854.627 -2.49554 -2.3224 0
M  V30 9161 H 855.82 -2.94419 -0.570741 0
M  V30 9162 H 853.373 -1.54113 -0.260546 0
M  V30 9163 H 854.108 -1.64872 -2.79263 0
M  V30 9164 H 853.893 -3.29371 -2.12737 0
M  V30 9165 H 855.383 -2.8779 -3.026 0
M  V30 9166 N 855.82 0.285905 -1.54985 0
M  V30 9167 C 857.069 1.01691 -1.74189 0
M  V30 9168 C 857.382 1.87908 -0.543135 0
M  V30 9169 O 858.588 2.64389 -0.617305 0
M  V30 9170 C 857.044 1.85785 -3.0824 0
M  V30 9171 C 856.652 1.04497 -4.35642 0
M  V30 9172 C 858.396 2.58393 -3.36798 0
M  V30 9173 C 856.303 1.87955 -5.60738 0
M  V30 9174 H 855.233 0.383396 -0.649248 0
M  V30 9175 H 857.884 0.27317 -1.81455 0
M  V30 9176 H 856.266 2.64205 -2.94978 0
M  V30 9177 H 857.44 0.305847 -4.59784 0
M  V30 9178 H 855.755 0.434023 -4.14132 0
M  V30 9179 H 858.352 3.21214 -4.27464 0
M  V30 9180 H 858.695 3.28011 -2.56349 0
M  V30 9181 H 859.228 1.87012 -3.511 0
M  V30 9182 H 855.967 1.22781 -6.43898 0
M  V30 9183 H 855.487 2.59499 -5.40759 0
M  V30 9184 H 857.166 2.45636 -5.98558 0
M  V30 9185 N 857.298 1.47698 0.54982 0
M  V30 9186 C 858.709 1.48474 1.13191 0
M  V30 9187 C 859.06 0.243504 1.94683 0
M  V30 9188 O 858.185 -0.651009 2.06375 0
M  V30 9189 C 858.78 2.69022 2.05944 0
M  V30 9190 C 857.339 2.72733 2.5941 0
M  V30 9191 C 856.486 2.41691 1.35944 0
M  V30 9192 H 859.437 1.55101 0.336048 0
M  V30 9193 H 859.458 2.46412 2.89934 0
M  V30 9194 H 858.97 3.59345 1.46605 0
M  V30 9195 H 857.071 1.86568 3.22526 0
M  V30 9196 H 857.184 3.73628 2.99899 0
M  V30 9197 H 855.548 1.92428 1.66864 0
M  V30 9198 H 856.331 3.34231 0.783869 0
M  V30 9199 N 858.776 -0.797141 1.35954 0
M  V30 9200 C 859.708 -1.91782 1.25509 0
M  V30 9201 C 860.721 -1.61843 0.176271 0
M  V30 9202 O 861.91 -1.73235 0.430343 0
M  V30 9203 C 859.01 -3.26396 0.912073 0
M  V30 9204 C 858.183 -3.84171 2.0912 0
M  V30 9205 C 857.242 -4.9721 1.72246 0
M  V30 9206 O 856.268 -5.14136 2.44239 0
M  V30 9207 N 857.47 -5.76831 0.651611 0
M  V30 9208 H 860.235 -2.01266 2.22063 0
M  V30 9209 H 857.796 -0.975033 1.29247 0
M  V30 9210 H 859.788 -3.99499 0.646707 0
M  V30 9211 H 858.358 -3.12579 0.0359079 0
M  V30 9212 H 857.578 -3.03148 2.51982 0
M  V30 9213 H 858.866 -4.19503 2.87914 0
M  V30 9214 H 858.264 -5.65675 0.0536678 0
M  V30 9215 H 856.821 -6.50272 0.44605 0
M  V30 9216 N 860.254 -1.20106 -1.0204 0
M  V30 9217 C 861.531 -0.918029 -1.72718 0
M  V30 9218 C 861.911 0.574163 -2.03142 0
M  V30 9219 O 861.259 1.53476 -1.69285 0
M  V30 9220 C 861.469 -1.78698 -2.9978 0
M  V30 9221 C 862.817 -2.02648 -3.7312 0
M  V30 9222 O 863.841 -1.75919 -3.09727 0
M  V30 9223 O 862.7 -2.47767 -4.87107 0
M  V30 9224 H 859.794 -0.342904 -0.752559 0
M  V30 9225 H 862.34 -1.30961 -1.07923 0
M  V30 9226 H 861.112 -2.79757 -2.7359 0
M  V30 9227 H 860.735 -1.39522 -3.72316 0
M  V30 9228 N 861.732 1.21287 -1.00634 0
M  V30 9229 C 862.695 2.21927 -0.572821 0
M  V30 9230 C 863.695 1.5691 0.351541 0
M  V30 9231 O 864.885 1.73623 0.141643 0
M  V30 9232 C 862.017 3.40501 0.164932 0
M  V30 9233 H 863.21 2.61795 -1.463 0
M  V30 9234 H 860.763 1.34571 -0.794998 0
M  V30 9235 H 861.498 3.06123 1.07049 0
M  V30 9236 H 861.283 3.88912 -0.498962 0
M  V30 9237 H 862.773 4.15103 0.455945 0
M  V30 9238 N 863.21 0.781244 1.36873 0
M  V30 9239 C 864.12 0.174981 2.33947 0
M  V30 9240 C 865.136 -0.668512 1.60645 0
M  V30 9241 O 866.312 -0.586213 1.9268 0
M  V30 9242 C 863.377 -0.686557 3.39834 0
M  V30 9243 C 862.438 0.174489 4.28945 0
M  V30 9244 C 861.671 -0.646024 5.29776 0
M  V30 9245 O 861.894 -1.88254 5.38439 0
M  V30 9246 O 860.828 -0.0502214 6.01879 0
M  V30 9247 H 864.654 0.977382 2.87543 0
M  V30 9248 H 862.239 0.542559 1.392 0
M  V30 9249 H 864.121 -1.1781 4.04597 0
M  V30 9250 H 862.796 -1.46699 2.8855 0
M  V30 9251 H 861.703 0.712604 3.6725 0
M  V30 9252 H 863.036 0.918232 4.83559 0
M  V30 9253 N 864.689 -1.48329 0.532571 0
M  V30 9254 C 865.652 -2.2816 -0.218069 0
M  V30 9255 C 866.652 -1.35526 -0.865409 0
M  V30 9256 O 867.842 -1.58394 -0.725061 0
M  V30 9257 C 864.974 -3.1448 -1.31586 0
M  V30 9258 H 866.167 -2.95987 0.482865 0
M  V30 9259 H 863.72 -1.53612 0.288603 0
M  V30 9260 H 864.455 -2.5129 -2.04997 0
M  V30 9261 H 864.24 -3.82625 -0.856779 0
M  V30 9262 H 865.73 -3.74693 -1.84377 0
M  V30 9263 N 866.167 -0.267825 -1.55308 0
M  V30 9264 C 867.13 0.60965 -2.20943 0
M  V30 9265 C 868.13 1.0869 -1.18504 0
M  V30 9266 O 869.32 0.988248 -1.43455 0
M  V30 9267 C 866.452 1.84027 -2.86961 0
M  V30 9268 H 867.645 0.0366806 -2.99878 0
M  V30 9269 H 865.198 -0.0183941 -1.56289 0
M  V30 9270 H 865.933 2.45394 -2.1202 0
M  V30 9271 H 865.718 1.50605 -3.62023 0
M  V30 9272 H 867.208 2.46442 -3.37129 0
M  V30 9273 N 867.645 1.57599 0.00500368 0
M  V30 9274 C 868.555 2.11532 1.01446 0
M  V30 9275 C 869.571 1.05941 1.3803 0
M  V30 9276 O 870.747 1.37815 1.46864 0
M  V30 9277 C 867.812 2.60382 2.28915 0
M  V30 9278 C 866.873 3.80554 1.98689 0
M  V30 9279 C 866.106 4.27064 3.20081 0
M  V30 9280 O 866.329 3.72939 4.31593 0
M  V30 9281 O 865.263 5.1927 3.04371 0
M  V30 9282 H 869.089 2.97993 0.586011 0
M  V30 9283 H 866.674 1.47718 0.223519 0
M  V30 9284 H 868.556 2.92024 3.03809 0
M  V30 9285 H 867.231 1.77022 2.71007 0
M  V30 9286 H 866.138 3.53893 1.21286 0
M  V30 9287 H 867.471 4.64972 1.61437 0
M  V30 9288 N 869.123 -0.277682 1.55134 0
M  V30 9289 C 870.071 -1.36305 1.88478 0
M  V30 9290 C 871.065 -1.51362 0.760654 0
M  V30 9291 O 872.271 -1.53202 0.944943 0
M  V30 9292 H 868.646 -0.45577 0.598146 0
M  V30 9293 H 870.617 -1.05431 2.79154 0
M  V30 9294 C 869.366 -2.71739 2.16918 0
M  V30 9295 H 868.689 -2.60942 3.02901 0
M  V30 9296 H 870.129 -3.46635 2.44172 0
M  V30 9297 C 868.588 -3.22476 0.975239 0
M  V30 9298 O 869.118 -4.01164 0.207497 0
M  V30 9299 N 867.324 -2.80097 0.774219 0
M  V30 9300 H 866.871 -2.16221 1.40022 0
M  V30 9301 H 866.829 -3.14392 -0.023021 0
M  V30 9302 N 870.601 -1.47988 -0.541979 0
M  V30 9303 C 871.829 -1.59034 -1.32347 0
M  V30 9304 C 872.244 -0.246123 -1.87189 0
M  V30 9305 O 871.601 0.762889 -1.6579 0
M  V30 9306 C 871.652 -2.62759 -2.48274 0
M  V30 9307 O 871.373 -3.91963 -1.95695 0
M  V30 9308 C 872.874 -2.84133 -3.4027 0
M  V30 9309 H 870.094 -0.536574 -0.402901 0
M  V30 9310 H 872.638 -1.93725 -0.655045 0
M  V30 9311 H 870.793 -2.3096 -3.11025 0
M  V30 9312 H 871.207 -4.48769 -2.7149 0
M  V30 9313 H 872.681 -3.60538 -4.17991 0
M  V30 9314 H 873.158 -1.92512 -3.9476 0
M  V30 9315 H 873.764 -3.17188 -2.83322 0
M  V30 9316 N 872.079 0.78992 -1.36375 0
M  V30 9317 C 873.307 1.57873 -1.3373 0
M  V30 9318 C 873.722 1.88624 0.0815544 0
M  V30 9319 O 873.079 1.50085 1.03831 0
M  V30 9320 C 873.13 2.90003 -2.15825 0
M  V30 9321 O 872.851 2.60578 -3.5218 0
M  V30 9322 C 874.352 3.84309 -2.20955 0
M  V30 9323 H 871.572 0.489685 -0.458748 0
M  V30 9324 H 874.116 0.980436 -1.79465 0
M  V30 9325 H 872.271 3.46303 -1.73646 0
M  V30 9326 H 872.685 3.4506 -3.95011 0
M  V30 9327 H 874.159 4.74081 -2.82756 0
M  V30 9328 H 874.636 4.22121 -1.21287 0
M  V30 9329 H 875.242 3.33942 -2.63368 0
M  V30 9330 N 873.557 1.20646 1.01402 0
M  V30 9331 C 874.785 1.04389 1.78635 0
M  V30 9332 C 875.2 -0.406771 1.84366 0
M  V30 9333 O 874.557 -1.28239 1.2985 0
M  V30 9334 C 874.608 1.62378 3.22979 0
M  V30 9335 O 874.329 3.01768 3.17597 0
M  V30 9336 C 875.83 1.5111 4.1675 0
M  V30 9337 H 873.05 0.367077 0.56169 0
M  V30 9338 H 875.594 1.59789 1.27624 0
M  V30 9339 H 873.749 1.11092 3.7113 0
M  V30 9340 H 874.163 3.29331 4.08217 0
M  V30 9341 H 875.637 1.96441 5.15863 0
M  V30 9342 H 876.114 0.464011 4.36742 0
M  V30 9343 H 876.72 2.01599 3.74483 0
M  V30 9344 N 875.035 -1.20752 1.01276 0
M  V30 9345 C 875.982 -2.234 0.579732 0
M  V30 9346 C 876.952 -1.61256 -0.398206 0
M  V30 9347 O 878.137 -1.8845 -0.29851 0
M  V30 9348 C 875.277 -3.45008 -0.0797006 0
M  V30 9349 C 874.39 -4.21597 0.942343 0
M  V30 9350 C 873.525 -5.30591 0.254364 0
M  V30 9351 C 872.564 -5.98919 1.26343 0
M  V30 9352 N 871.701 -6.99511 0.602384 0
M  V30 9353 H 876.541 -2.59801 1.45971 0
M  V30 9354 H 874.078 -1.27663 0.730787 0
M  V30 9355 H 876.036 -4.1444 -0.479125 0
M  V30 9356 H 874.666 -3.09312 -0.923354 0
M  V30 9357 H 873.718 -3.51268 1.45996 0
M  V30 9358 H 875.03 -4.68576 1.70992 0
M  V30 9359 H 874.184 -6.06368 -0.200763 0
M  V30 9360 H 872.923 -4.84639 -0.545553 0
M  V30 9361 H 871.928 -5.21906 1.72898 0
M  V30 9362 H 873.153 -6.46957 2.06456 0
M  V30 9363 H 871.099 -6.55759 -0.177734 0
M  V30 9364 H 871.016 -7.44597 1.30809 0
M  V30 9365 H 872.284 -7.79313 0.17072 0
M  V30 9366 N 876.513 -0.788492 -1.36457 0
M  V30 9367 C 877.738 -0.371224 -2.04051 0
M  V30 9368 C 878.163 1.004 -1.59064 0
M  V30 9369 O 877.521 1.64663 -0.758679 0
M  V30 9370 C 877.569 -0.442275 -3.57877 0
M  V30 9371 O 876.673 0.55113 -4.08701 0
M  V30 9372 H 876.014 -0.157808 -0.644975 0
M  V30 9373 H 878.544 -1.06935 -1.74431 0
M  V30 9374 H 878.554 -0.305548 -4.06854 0
M  V30 9375 H 877.229 -1.44547 -3.89973 0
M  V30 9376 H 875.806 0.37614 -3.70998 0
M  V30 9377 N 877.991 1.48044 -0.54043 0
M  V30 9378 C 878.954 2.28273 0.205966 0
M  V30 9379 C 879.954 1.35983 0.858209 0
M  V30 9380 O 881.144 1.58776 0.716651 0
M  V30 9381 C 878.276 3.15174 1.29917 0
M  V30 9382 H 879.469 2.95727 -0.498555 0
M  V30 9383 H 877.022 1.53457 -0.296745 0
M  V30 9384 H 877.757 2.52374 2.03661 0
M  V30 9385 H 877.542 3.83074 0.836475 0
M  V30 9386 H 879.032 3.75666 1.82387 0
M  V30 9387 N 879.47 0.276058 1.55163 0
M  V30 9388 C 880.417 -0.611006 2.22565 0
M  V30 9389 C 881.387 -1.14902 1.19945 0
M  V30 9390 O 882.572 -1.19815 1.48489 0
M  V30 9391 C 879.712 -1.78885 2.95117 0
M  V30 9392 C 878.825 -1.2846 4.12458 0
M  V30 9393 C 877.96 -2.42432 4.72652 0
M  V30 9394 C 876.999 -1.89015 5.82185 0
M  V30 9395 N 876.136 -2.96463 6.36439 0
M  V30 9396 H 880.976 -0.0295849 2.97985 0
M  V30 9397 H 878.513 -0.00283607 1.471 0
M  V30 9398 H 880.471 -2.48121 3.35398 0
M  V30 9399 H 879.101 -2.34229 2.22119 0
M  V30 9400 H 878.153 -0.485312 3.77292 0
M  V30 9401 H 879.465 -0.853358 4.91446 0
M  V30 9402 H 878.619 -3.19659 5.15658 0
M  V30 9403 H 877.358 -2.88872 3.92943 0
M  V30 9404 H 876.363 -1.10267 5.38629 0
M  V30 9405 H 877.588 -1.43509 6.63763 0
M  V30 9406 H 875.534 -3.42283 5.59623 0
M  V30 9407 H 875.451 -2.57759 7.10701 0
M  V30 9408 H 876.719 -3.73663 6.84103 0
M  V30 9409 N 880.948 -1.576 0.00335426 0
M  V30 9410 C 882.364 -1.55653 -0.352766 0
M  V30 9411 C 882.564 -1.00632 -1.74572 0
M  V30 9412 O 881.62 -0.641621 -2.44212 0
M  V30 9413 C 882.933 -2.99858 -0.224929 0
M  V30 9414 C 884.481 -3.11563 -0.299619 0
M  V30 9415 C 884.956 -4.57559 -0.200868 0
M  V30 9416 N 886.447 -4.62477 -0.258663 0
M  V30 9417 C 887.182 -5.73031 -0.205644 0
M  V30 9418 N 886.678 -6.92723 -0.103027 0
M  V30 9419 N 888.471 -5.61509 -0.257754 0
M  V30 9420 H 880.622 -1.91703 0.914539 0
M  V30 9421 H 882.885 -0.88068 0.350865 0
M  V30 9422 H 882.591 -3.43964 0.733595 0
M  V30 9423 H 882.465 -3.63547 -1.00564 0
M  V30 9424 H 884.852 -2.67384 -1.24859 0
M  V30 9425 H 884.933 -2.50644 0.511025 0
M  V30 9426 H 884.577 -5.02413 0.744572 0
M  V30 9427 H 884.507 -5.16428 -1.03004 0
M  V30 9428 H 886.998 -3.76375 -0.339168 0
M  V30 9429 H 887.311 -7.7277 -0.0685593 0
M  V30 9430 H 885.656 -6.94966 -0.0686069 0
M  V30 9431 H 888.847 -4.66892 -0.336142 0
M  V30 9432 H 889.02 -6.4765 -0.21297 0
M  V30 9433 N 882.426 0.269451 -1.5528 0
M  V30 9434 C 883.675 0.998381 -1.75258 0
M  V30 9435 C 883.988 1.87321 -0.563034 0
M  V30 9436 O 885.194 2.63719 -0.645313 0
M  V30 9437 C 883.65 1.82505 -3.10193 0
M  V30 9438 C 883.258 0.99871 -4.36726 0
M  V30 9439 C 885.002 2.54807 -3.3952 0
M  V30 9440 C 882.909 1.81997 -5.627 0
M  V30 9441 H 881.839 0.376488 -0.653278 0
M  V30 9442 H 884.49 0.253909 -1.81735 0
M  V30 9443 H 882.872 2.61061 -2.97763 0
M  V30 9444 H 884.046 0.257064 -4.60082 0
M  V30 9445 H 882.361 0.390074 -4.14569 0
M  V30 9446 H 884.958 3.16662 -4.30847 0
M  V30 9447 H 885.301 3.25273 -2.59813 0
M  V30 9448 H 885.834 1.83278 -3.53064 0
M  V30 9449 H 882.573 1.15945 -6.45164 0
M  V30 9450 H 882.093 2.53749 -5.43481 0
M  V30 9451 H 883.772 2.39274 -6.0113 0
M  V30 9452 N 883.904 1.48273 0.534124 0
M  V30 9453 C 885.15 1.56311 1.29208 0
M  V30 9454 C 885.483 0.234481 1.92779 0
M  V30 9455 O 884.758 -0.759143 1.79073 0
M  V30 9456 C 885.041 2.69831 2.3846 0
M  V30 9457 C 884.894 4.12385 1.79608 0
M  V30 9458 C 886.213 2.79133 3.40254 0
M  V30 9459 H 883.332 0.56899 0.468422 0
M  V30 9460 H 885.974 1.80429 0.595438 0
M  V30 9461 H 884.124 2.49397 2.97881 0
M  V30 9462 H 885.796 4.44246 1.24269 0
M  V30 9463 H 884.039 4.19579 1.10162 0
M  V30 9464 H 884.71 4.87629 2.58693 0
M  V30 9465 H 887.186 2.97632 2.90783 0
M  V30 9466 H 886.062 3.60298 4.14097 0
M  V30 9467 H 886.323 1.87122 4.00547 0
M  V30 9468 N 885.382 -0.782676 1.36792 0
M  V30 9469 C 886.612 -1.56934 1.3437 0
M  V30 9470 C 887.02 -1.89049 -0.0754828 0
M  V30 9471 O 886.363 -1.51103 -1.04467 0
M  V30 9472 C 886.425 -2.91311 2.10661 0
M  V30 9473 C 886.089 -2.81889 3.59705 0
M  V30 9474 C 887.086 -2.53668 4.53815 0
M  V30 9475 C 884.771 -3.00254 4.02682 0
M  V30 9476 C 886.765 -2.43925 5.8888 0
M  V30 9477 C 884.452 -2.90132 5.37835 0
M  V30 9478 C 885.45 -2.62006 6.30747 0
M  V30 9479 O 885.138 -2.5189 7.63418 0
M  V30 9480 H 884.87 -0.493194 0.462316 0
M  V30 9481 H 887.424 -0.978791 1.80579 0
M  V30 9482 H 885.654 -3.52443 1.59125 0
M  V30 9483 H 887.343 -3.52632 2.01012 0
M  V30 9484 H 888.109 -2.39176 4.21924 0
M  V30 9485 H 883.988 -3.21151 3.30731 0
M  V30 9486 H 887.532 -2.21892 6.6137 0
M  V30 9487 H 883.429 -3.04189 5.69332 0
M  V30 9488 H 884.197 -2.67321 7.73616 0
M  V30 9489 N 886.86 -1.21182 -1.00761 0
M  V30 9490 C 888.109 -1.02166 -1.73911 0
M  V30 9491 C 888.422 0.445638 -1.90456 0
M  V30 9492 O 889.628 0.755132 -2.60787 0
M  V30 9493 C 888.084 -1.77936 -3.12837 0
M  V30 9494 C 887.692 -3.28819 -3.04273 0
M  V30 9495 C 889.436 -1.67319 -3.90134 0
M  V30 9496 C 887.343 -3.97089 -4.38262 0
M  V30 9497 H 886.273 -0.378665 -0.652019 0
M  V30 9498 H 888.924 -1.44891 -1.12601 0
M  V30 9499 H 887.306 -1.28003 -3.74742 0
M  V30 9500 H 888.48 -3.86035 -2.51622 0
M  V30 9501 H 886.795 -3.39949 -2.40465 0
M  V30 9502 H 889.392 -2.15659 -4.8928 0
M  V30 9503 H 889.735 -0.630959 -4.11491 0
M  V30 9504 H 890.268 -2.14716 -3.34876 0
M  V30 9505 H 887.007 -5.01503 -4.22107 0
M  V30 9506 H 886.527 -3.44662 -4.90885 0
M  V30 9507 H 888.206 -4.01854 -5.07072 0
M  V30 9508 N 888.338 1.20213 -1.01915 0
M  V30 9509 C 889.586 1.89272 -0.708552 0
M  V30 9510 C 889.907 1.79394 0.76438 0
M  V30 9511 O 889.177 1.198 1.54999 0
M  V30 9512 H 887.757 0.700628 -0.259094 0
M  V30 9513 H 890.419 1.45985 -1.29129 0
M  V30 9514 H 889.515 2.95841 -0.994215 0
M  V30 9515 N 889.816 0.795718 1.36037 0
M  V30 9516 C 890.726 0.199784 2.33748 0
M  V30 9517 C 891.742 -0.651436 1.61345 0
M  V30 9518 O 892.918 -0.565743 1.93291 0
M  V30 9519 C 889.983 -0.650475 3.40543 0
M  V30 9520 C 889.044 0.219974 4.28736 0
M  V30 9521 C 888.277 -0.589798 5.30431 0
M  V30 9522 O 888.5 -1.82532 5.40406 0
M  V30 9523 O 887.434 0.0136187 6.01898 0
M  V30 9524 H 891.26 1.00782 2.8649 0
M  V30 9525 H 888.845 0.557293 1.38617 0
M  V30 9526 H 890.727 -1.13512 4.05824 0
M  V30 9527 H 889.402 -1.4363 2.9009 0
M  V30 9528 H 888.309 0.751516 3.66474 0
M  V30 9529 H 889.642 0.969468 4.82558 0
M  V30 9530 N 891.294 -1.47756 0.548274 0
M  V30 9531 C 892.244 -2.26891 -0.224628 0
M  V30 9532 C 893.228 -1.33816 -0.893421 0
M  V30 9533 O 894.42 -1.58232 -0.793204 0
M  V30 9534 C 891.549 -3.19358 -1.25959 0
M  V30 9535 C 890.635 -4.1991 -0.594662 0
M  V30 9536 N 891.026 -5.04721 0.330148 0
M  V30 9537 C 889.324 -4.37832 -0.849672 0
M  V30 9538 C 890.025 -5.77282 0.71553 0
M  V30 9539 N 889.001 -5.43552 0.0723997 0
M  V30 9540 H 892.803 -2.89844 0.486561 0
M  V30 9541 H 890.317 -1.58185 0.367577 0
M  V30 9542 H 892.314 -3.74726 -1.82718 0
M  V30 9543 H 890.974 -2.57961 -1.97196 0
M  V30 9544 H 891.985 -5.13095 0.703811 0
M  V30 9545 H 888.662 -3.87612 -1.55123 0
M  V30 9546 H 890.052 -6.55512 1.47493 0
M  V30 9547 N 892.772 -0.284283 -1.55015 0
M  V30 9548 C 893.719 0.599194 -2.22886 0
M  V30 9549 C 894.689 1.14264 -1.20553 0
M  V30 9550 O 895.874 1.19025 -1.49123 0
M  V30 9551 C 893.014 1.77317 -2.96062 0
M  V30 9552 C 892.127 1.26271 -4.13134 0
M  V30 9553 C 891.262 2.39922 -4.73931 0
M  V30 9554 C 890.301 1.85925 -5.8318 0
M  V30 9555 N 889.438 2.93084 -6.38002 0
M  V30 9556 H 894.278 0.0137816 -2.97997 0
M  V30 9557 H 891.815 -0.00496503 -1.47099 0
M  V30 9558 H 893.773 2.46339 -3.36709 0
M  V30 9559 H 892.403 2.33047 -2.23358 0
M  V30 9560 H 891.455 0.465296 -3.77544 0
M  V30 9561 H 892.767 0.827284 -4.91892 0
M  V30 9562 H 891.921 3.1692 -5.17346 0
M  V30 9563 H 890.66 2.86784 -3.9447 0
M  V30 9564 H 889.665 1.07409 -5.39206 0
M  V30 9565 H 890.89 1.39987 -6.64515 0
M  V30 9566 H 888.836 3.3931 -5.61431 0
M  V30 9567 H 888.753 2.53986 -7.12058 0
M  V30 9568 H 890.021 3.7003 -6.86075 0
M  V30 9569 N 894.251 1.57596 -0.0117121 0
M  V30 9570 C 895.199 2.1029 0.994035 0
M  V30 9571 C 896.193 1.02549 1.34833 0
M  V30 9572 O 897.399 1.21003 1.3326 0
M  V30 9573 H 893.774 0.671624 0.338268 0
M  V30 9574 H 895.745 2.93761 0.524147 0
M  V30 9575 C 894.494 2.63099 2.27319 0
M  V30 9576 H 893.817 3.45642 2.00927 0
M  V30 9577 H 895.257 3.03635 2.95942 0
M  V30 9578 C 893.716 1.55044 2.99104 0
M  V30 9579 O 894.246 0.940127 3.90544 0
M  V30 9580 N 892.452 1.27506 2.61133 0
M  V30 9581 H 891.999 1.77322 1.86855 0
M  V30 9582 H 891.957 0.554292 3.09475 0
M  V30 9583 N 895.729 -0.261212 1.5542 0
M  V30 9584 C 896.661 -1.34571 1.85535 0
M  V30 9585 C 897.674 -1.44979 0.740612 0
M  V30 9586 O 898.863 -1.46584 1.01859 0
M  V30 9587 C 895.963 -2.7258 2.01378 0
M  V30 9588 C 895.136 -2.84618 3.32131 0
M  V30 9589 C 894.195 -4.03379 3.37893 0
M  V30 9590 O 893.221 -3.93581 4.11197 0
M  V30 9591 N 894.423 -5.15893 2.66148 0
M  V30 9592 H 897.188 -1.09078 2.79145 0
M  V30 9593 H 894.749 -0.451327 1.55482 0
M  V30 9594 H 896.741 -3.50342 2.0259 0
M  V30 9595 H 895.311 -2.90844 1.14579 0
M  V30 9596 H 894.531 -1.93647 3.43358 0
M  V30 9597 H 895.819 -2.896 4.18341 0
M  V30 9598 H 895.217 -5.26743 2.06297 0
M  V30 9599 H 893.774 -5.91842 2.73069 0
M  V30 9600 N 897.207 -1.48554 -0.526253 0
M  V30 9601 C 898.154 -1.63354 -1.63046 0
M  V30 9602 C 899.124 -0.475509 -1.59148 0
M  V30 9603 O 900.309 -0.699453 -1.77517 0
M  V30 9604 C 897.449 -1.68271 -3.01295 0
M  V30 9605 C 896.562 -2.95207 -3.15399 0
M  V30 9606 C 895.697 -2.91262 -4.4423 0
M  V30 9607 C 894.736 -4.12886 -4.51876 0
M  V30 9608 N 893.873 -4.06996 -5.721 0
M  V30 9609 H 898.713 -2.57649 -1.49737 0
M  V30 9610 H 896.25 -1.27769 -0.728938 0
M  V30 9611 H 898.208 -1.69104 -3.81392 0
M  V30 9612 H 896.838 -0.774641 -3.13367 0
M  V30 9613 H 895.89 -3.04102 -2.2853 0
M  V30 9614 H 897.202 -3.85187 -3.1691 0
M  V30 9615 H 896.356 -2.90516 -5.32621 0
M  V30 9616 H 895.095 -1.99016 -4.45246 0
M  V30 9617 H 894.1 -4.13902 -3.61891 0
M  V30 9618 H 895.325 -5.06294 -4.52596 0
M  V30 9619 H 893.271 -3.17573 -5.74006 0
M  V30 9620 H 893.188 -4.90685 -5.75121 0
M  V30 9621 H 894.456 -4.10315 -6.62768 0
M  V30 9622 N 898.685 0.775411 -1.37205 0
M  V30 9623 C 899.931 1.53611 -1.32407 0
M  V30 9624 C 900.264 1.9398 0.0924103 0
M  V30 9625 O 899.539 1.63791 1.04893 0
M  V30 9626 C 899.822 2.80367 -2.25979 0
M  V30 9627 C 899.675 2.46275 -3.76389 0
M  V30 9628 C 900.994 3.82277 -2.18064 0
M  V30 9629 H 898.113 0.557278 -0.482297 0
M  V30 9630 H 900.755 0.889826 -1.67875 0
M  V30 9631 H 898.905 3.35515 -1.95862 0
M  V30 9632 H 900.577 1.9707 -4.17087 0
M  V30 9633 H 898.82 1.79023 -3.95137 0
M  V30 9634 H 899.491 3.36868 -4.37291 0
M  V30 9635 H 901.967 3.36613 -2.44604 0
M  V30 9636 H 900.843 4.68696 -2.85684 0
M  V30 9637 H 901.104 4.26272 -1.17239 0
M  V30 9638 N 900.163 1.21714 1.00117 0
M  V30 9639 C 901.111 0.976937 2.11089 0
M  V30 9640 C 902.105 -0.0771295 1.69224 0
M  V30 9641 O 903.311 0.0745945 1.79845 0
M  V30 9642 H 899.686 0.298687 0.690138 0
M  V30 9643 H 901.657 1.91881 2.28526 0
M  V30 9644 C 900.406 0.562369 3.43122 0
M  V30 9645 H 899.729 1.36509 3.75773 0
M  V30 9646 H 901.169 0.433642 4.21777 0
M  V30 9647 C 899.628 -0.727148 3.28959 0
M  V30 9648 O 900.158 -1.78171 3.60025 0
M  V30 9649 N 898.364 -0.695129 2.82164 0
M  V30 9650 H 897.911 0.163346 2.57082 0
M  V30 9651 H 897.869 -1.55822 2.73069 0
M  V30 9652 O 901.68 -1.13182 1.15204 0
M  V30 9653 H 902.371 -1.72675 0.877672 0
M  V30 END ATOM
M  V30 BEGIN BOND
M  V30 END BOND
M  V30 END CTAB
M  END
$$$$
