drugbank_target|Q9X0F9 Putative L-rhamnose mutarotase (DB01942)
 OpenBabel12092120233D

  0  0  0     0  0            999 V3000
M  V30 BEGIN CTAB
M  V30 COUNTS 1839 1862 0 0 0
M  V30 BEGIN ATOM
M  V30 1 H -0.908 1.98254 -0.117106 0
M  V30 2 N 0 1.576 0 0
M  V30 3 C 0.933 2.03868 1.02534 0
M  V30 4 C 1.911 0.928543 1.3348 0
M  V30 5 O 3.095 1.19667 1.45644 0
M  V30 6 C 0.222 2.43627 2.35294 0
M  V30 7 C -0.732 3.65373 2.2001 0
M  V30 8 S 0.101 5.13292 1.52614 0
M  V30 9 C 1.257 5.56322 2.86805 0
M  V30 10 H 1.49 2.90518 0.631377 0
M  V30 11 H -0.977 1.52953 0.210867 0
M  V30 12 H 0.981 2.67203 3.11629 0
M  V30 13 H -0.358 1.57376 2.7183 0
M  V30 14 H -1.165 3.90944 3.18086 0
M  V30 15 H -1.563 3.418 1.51819 0
M  V30 16 H 0.729 5.58782 3.83104 0
M  V30 17 H 1.672 6.56266 2.65933 0
M  V30 18 H 2.08 4.83886 2.90714 0
M  V30 19 N 1.4781 -0.272755 1.55222 0
M  V30 20 C 2.4261 -1.35705 1.88909 0
M  V30 21 C 3.4201 -1.5112 0.765456 0
M  V30 22 O 4.6261 -1.52901 0.949802 0
M  V30 23 H 1.0011 -0.453868 0.59959 0
M  V30 24 H 2.9721 -1.04544 2.79487 0
M  V30 25 C 1.7211 -2.71049 2.17779 0
M  V30 26 H 1.0441 -2.59979 3.03728 0
M  V30 27 H 2.4841 -3.45858 2.45272 0
M  V30 28 C 0.9431 -3.22165 0.985473 0
M  V30 29 O 1.4731 -4.01096 0.220233 0
M  V30 30 N -0.3209 -2.7985 0.783108 0
M  V30 31 H -0.7739 -2.15775 1.40708 0
M  V30 32 H -0.8159 -3.14397 -0.0130392 0
M  V30 33 N 2.9562 -1.48159 -0.537278 0
M  V30 34 C 4.2042 -1.55497 -1.29094 0
M  V30 35 C 4.5252 -0.227454 -1.93669 0
M  V30 36 O 3.7952 0.750386 -1.80959 0
M  V30 37 H 2.3752 -0.572832 -0.47945 0
M  V30 38 H 5.0372 -1.84579 -0.625818 0
M  V30 39 H 4.1332 -2.33216 -2.07405 0
M  V30 40 N 4.4343 0.785586 -1.36625 0
M  V30 41 C 5.3973 1.87999 -1.31107 0
M  V30 42 C 6.3973 1.59316 -0.217959 0
M  V30 43 O 7.5873 1.67656 -0.472977 0
M  V30 44 C 4.7193 3.24861 -1.03334 0
M  V30 45 H 5.9123 1.94307 -2.2844 0
M  V30 46 H 3.4653 0.983813 -1.21453 0
M  V30 47 H 4.2003 3.24235 -0.0647432 0
M  V30 48 H 3.9853 3.4707 -1.82441 0
M  V30 49 H 5.4753 4.04929 -1.02088 0
M  V30 50 N 5.9124 1.20967 1.01018 0
M  V30 51 C 7.3284 0.965905 1.27053 0
M  V30 52 C 7.5284 -0.350785 1.98423 0
M  V30 53 O 6.5844 -1.07773 2.28344 0
M  V30 54 C 7.8974 2.15294 2.09926 0
M  V30 55 C 9.4454 2.19463 2.23171 0
M  V30 56 C 9.9204 3.3767 3.09424 0
M  V30 57 N 11.4114 3.37724 3.17012 0
M  V30 58 C 12.1464 4.25837 3.83993 0
M  V30 59 N 11.6424 5.24138 4.53047 0
M  V30 60 N 13.4354 4.1366 3.80581 0
M  V30 61 H 5.5864 2.0565 0.531194 0
M  V30 62 H 7.8494 0.90024 0.297106 0
M  V30 63 H 7.5554 3.10684 1.64828 0
M  V30 64 H 7.4294 2.13923 3.10672 0
M  V30 65 H 9.8164 1.24632 2.6749 0
M  V30 66 H 9.8974 2.2488 1.21912 0
M  V30 67 H 9.5414 4.32791 2.65808 0
M  V30 68 H 9.4714 3.29491 4.10784 0
M  V30 69 H 11.9624 2.6658 2.6785 0
M  V30 70 H 12.2754 5.87684 5.01844 0
M  V30 71 H 10.6204 5.28068 4.5185 0
M  V30 72 H 13.8114 3.36127 3.25785 0
M  V30 73 H 13.9844 4.82538 4.32505 0
M  V30 74 N 7.3905 -1.2043 1.01659 0
M  V30 75 C 8.3375 -2.23215 0.586822 0
M  V30 76 C 9.3075 -1.61382 -0.393085 0
M  V30 77 O 10.4925 -1.88544 -0.292525 0
M  V30 78 C 7.6325 -3.45032 -0.0687464 0
M  V30 79 C 6.7455 -4.21296 0.955724 0
M  V30 80 C 5.8805 -5.30507 0.271208 0
M  V30 81 C 4.9195 -5.98515 1.28244 0
M  V30 82 N 4.0565 -6.99316 0.62459 0
M  V30 83 H 8.8965 -2.59336 1.46796 0
M  V30 84 H 6.4335 -1.27431 0.734836 0
M  V30 85 H 8.3915 -4.1459 -0.465965 0
M  V30 86 H 7.0215 -3.09604 -0.913529 0
M  V30 87 H 6.0735 -3.50803 1.4711 0
M  V30 88 H 7.3855 -4.6803 1.72479 0
M  V30 89 H 6.5395 -6.06428 -0.18151 0
M  V30 90 H 5.2785 -4.8481 -0.530163 0
M  V30 91 H 4.2835 -5.21355 1.74554 0
M  V30 92 H 5.5085 -6.46298 2.08509 0
M  V30 93 H 3.4545 -6.55812 -0.156914 0
M  V30 94 H 3.3715 -7.44178 1.33172 0
M  V30 95 H 4.6395 -7.79255 0.195462 0
M  V30 96 N 8.8686 -0.792821 -1.36206 0
M  V30 97 C 10.1146 -0.376415 -1.99887 0
M  V30 98 C 10.4696 1.04127 -1.61788 0
M  V30 99 O 9.7626 1.71004 -0.864193 0
M  V30 100 C 9.9566 -0.481501 -3.54142 0
M  V30 101 C 9.7856 -1.90786 -4.07223 0
M  V30 102 C 8.5556 -2.53322 -4.37214 0
M  V30 103 C 10.7536 -2.87048 -4.26741 0
M  V30 104 N 8.7356 -3.8751 -4.7614 0
M  V30 105 C 10.1066 -4.06077 -4.6851 0
M  V30 106 C 12.1616 -2.8406 -4.08918 0
M  V30 107 C 10.8646 -5.22532 -4.94321 0
M  V30 108 C 12.8906 -3.99705 -4.35878 0
M  V30 109 C 12.2526 -5.1748 -4.77906 0
M  V30 110 H 8.3516 -0.185226 -0.759747 0
M  V30 111 H 10.9356 -1.03114 -1.65153 0
M  V30 112 H 9.1066 0.143154 -3.88136 0
M  V30 113 H 10.8386 -0.0410128 -4.04679 0
M  V30 114 H 7.5936 -2.04777 -4.2704 0
M  V30 115 H 8.0176 -4.5656 -4.99882 0
M  V30 116 H 12.6596 -1.94165 -3.75579 0
M  V30 117 H 10.3776 -6.1301 -5.2654 0
M  V30 118 H 13.9636 -3.98758 -4.23655 0
M  V30 119 H 12.8436 -6.05478 -4.98363 0
M  V30 120 N 10.3467 1.47872 -0.545128 0
M  V30 121 C 11.5937 2.02493 -0.0165858 0
M  V30 122 C 11.9217 1.42073 1.32836 0
M  V30 123 O 11.1767 0.561459 1.87473 0
M  V30 124 C 11.4757 3.57131 0.13867 0
M  V30 125 C 11.1417 4.36411 -1.13384 0
M  V30 126 C 9.8037 4.57792 -1.48256 0
M  V30 127 C 12.1557 4.82223 -1.97764 0
M  V30 128 C 9.4837 5.22233 -2.67376 0
M  V30 129 C 11.8357 5.47977 -3.16076 0
M  V30 130 C 10.4997 5.67593 -3.51275 0
M  V30 131 H 9.7697 0.740975 -0.00606918 0
M  V30 132 H 12.4167 1.77683 -0.714207 0
M  V30 133 H 10.7217 3.80865 0.919172 0
M  V30 134 H 12.4187 3.97031 0.562782 0
M  V30 135 H 9.0087 4.2004 -0.852297 0
M  V30 136 H 13.1927 4.65493 -1.72132 0
M  V30 137 H 8.4487 5.35616 -2.94831 0
M  V30 138 H 12.6227 5.8244 -3.81755 0
M  V30 139 H 10.2497 6.17298 -4.43675 0
M  V30 140 N 11.8248 0.280983 1.55075 0
M  V30 141 C 13.0718 -0.334115 1.99725 0
M  V30 142 C 13.3998 -1.5542 1.1694 0
M  V30 143 O 12.6548 -1.94361 0.228531 0
M  V30 144 C 12.9538 -0.754656 3.49342 0
M  V30 145 C 12.6198 0.361445 4.49449 0
M  V30 146 C 11.2818 0.667893 4.76542 0
M  V30 147 C 13.6338 1.11322 5.09173 0
M  V30 148 C 10.9618 1.7296 5.60626 0
M  V30 149 C 13.3138 2.1647 5.9441 0
M  V30 150 C 11.9778 2.47742 6.19822 0
M  V30 151 H 11.2478 -0.122261 0.730844 0
M  V30 152 H 13.8948 0.395917 1.87363 0
M  V30 153 H 12.1998 -1.56446 3.5921 0
M  V30 154 H 13.8968 -1.24142 3.813 0
M  V30 155 H 10.4868 0.112481 4.28452 0
M  V30 156 H 14.6708 0.88973 4.8826 0
M  V30 157 H 9.9268 1.97684 5.78559 0
M  V30 158 H 14.1008 2.75193 6.3972 0
M  V30 159 H 11.7278 3.30145 6.84769 0
M  V30 160 N 13.3029 -1.57598 0.00835791 0
M  V30 161 C 14.7139 -1.7892 -0.53333 0
M  V30 162 C 15.0649 -0.916609 -1.73473 0
M  V30 163 O 14.1899 -0.121336 -2.1606 0
M  V30 164 C 14.7849 -3.24488 -0.974313 0
M  V30 165 C 13.3439 -3.46878 -1.46125 0
M  V30 166 C 12.4909 -2.74157 -0.416302 0
M  V30 167 H 15.4419 -1.56958 0.234495 0
M  V30 168 H 15.4629 -3.3306 -1.83988 0
M  V30 169 H 14.9749 -3.87972 -0.099718 0
M  V30 170 H 13.0759 -2.8862 -2.35646 0
M  V30 171 H 13.1889 -4.55572 -1.48295 0
M  V30 172 H 11.5529 -2.39022 -0.87981 0
M  V30 173 H 12.3359 -3.40345 0.44947 0
M  V30 174 N 14.781 0.264519 -1.55364 0
M  V30 175 C 16.058 1.01677 -1.67096 0
M  V30 176 C 16.438 2.03996 -0.543015 0
M  V30 177 O 15.786 2.23907 0.45585 0
M  V30 178 C 15.996 1.66596 -3.0667 0
M  V30 179 C 17.344 2.17442 -3.64697 0
M  V30 180 O 18.368 1.76568 -3.09358 0
M  V30 181 O 17.227 2.92439 -4.61673 0
M  V30 182 H 14.321 0.472161 -0.678965 0
M  V30 183 H 16.867 0.259703 -1.67701 0
M  V30 184 H 15.639 0.924962 -3.80211 0
M  V30 185 H 15.262 2.48968 -3.10001 0
M  V30 186 N 16.2591 1.48442 0.529413 0
M  V30 187 C 17.5071 1.56179 1.28267 0
M  V30 188 C 17.8281 0.237721 1.93546 0
M  V30 189 O 17.0981 -0.740779 1.81354 0
M  V30 190 H 15.6781 0.575367 0.476405 0
M  V30 191 H 18.3401 1.84909 0.61602 0
M  V30 192 H 17.4361 2.34312 2.06165 0
M  V30 193 N 17.7372 -0.778329 1.37039 0
M  V30 194 C 18.9672 -1.56507 1.34868 0
M  V30 195 C 19.3752 -1.89072 -0.0694802 0
M  V30 196 O 18.7182 -1.51434 -1.03987 0
M  V30 197 C 18.7802 -2.90641 2.11585 0
M  V30 198 C 18.4442 -2.80746 3.60598 0
M  V30 199 C 19.4412 -2.52226 4.54618 0
M  V30 200 C 17.1262 -2.98974 4.03633 0
M  V30 201 C 19.1202 -2.42054 5.89651 0
M  V30 202 C 16.8072 -2.88423 5.38754 0
M  V30 203 C 17.8052 -2.60002 6.31576 0
M  V30 204 O 17.4932 -2.49465 7.64214 0
M  V30 205 H 17.2252 -0.491723 0.463879 0
M  V30 206 H 19.7792 -0.973053 1.80889 0
M  V30 207 H 18.0092 -3.51936 1.60243 0
M  V30 208 H 19.6982 -3.51992 2.0213 0
M  V30 209 H 20.4642 -2.37835 4.22681 0
M  V30 210 H 16.3432 -3.20099 3.31749 0
M  V30 211 H 19.8872 -2.19791 6.62071 0
M  V30 212 H 15.7842 -3.0238 5.70295 0
M  V30 213 H 16.5522 -2.64864 7.74461 0
M  V30 214 N 19.2153 -1.21501 -1.00376 0
M  V30 215 C 20.4643 -1.02718 -1.73586 0
M  V30 216 C 20.7773 0.439589 -1.90596 0
M  V30 217 O 21.9833 0.746848 -2.61026 0
M  V30 218 C 20.4393 -1.78929 -3.1227 0
M  V30 219 C 20.0473 -3.29783 -3.03228 0
M  V30 220 C 21.7913 -1.68557 -3.89601 0
M  V30 221 C 19.6983 -3.98479 -4.36999 0
M  V30 222 H 18.6283 -0.380733 -0.650814 0
M  V30 223 H 21.2793 -1.45248 -1.1214 0
M  V30 224 H 19.6613 -1.29192 -3.74333 0
M  V30 225 H 20.8353 -3.86832 -2.50395 0
M  V30 226 H 19.1503 -3.40711 -2.39385 0
M  V30 227 H 21.7473 -2.17211 -4.88593 0
M  V30 228 H 22.0903 -0.644021 -4.11288 0
M  V30 229 H 22.6233 -2.15778 -3.34193 0
M  V30 230 H 19.3623 -5.02841 -4.20513 0
M  V30 231 H 18.8823 -3.46219 -4.89788 0
M  V30 232 H 20.5613 -4.03462 -5.05794 0
M  V30 233 N 20.6934 1.19889 -1.02296 0
M  V30 234 C 22.1044 1.71124 -0.746568 0
M  V30 235 C 22.4554 1.81939 0.734335 0
M  V30 236 O 21.5804 1.48639 1.57275 0
M  V30 237 C 22.1754 3.10804 -1.34857 0
M  V30 238 C 20.7344 3.59323 -1.1209 0
M  V30 239 C 19.8814 2.3635 -1.45031 0
M  V30 240 H 22.8324 1.04813 -1.19163 0
M  V30 241 H 22.8534 3.73186 -0.742437 0
M  V30 242 H 22.3654 3.029 -2.42638 0
M  V30 243 H 20.4664 3.7255 -0.0610337 0
M  V30 244 H 20.5794 4.4378 -1.80544 0
M  V30 245 H 18.9434 2.39399 -0.869487 0
M  V30 246 H 19.7264 2.31081 -2.53883 0
M  V30 247 N 22.1715 0.800033 1.35784 0
M  V30 248 C 23.1195 0.193851 2.31791 0
M  V30 249 C 24.1135 -0.652744 1.56319 0
M  V30 250 O 25.3195 -0.546641 1.71499 0
M  V30 251 H 21.6945 0.04392 0.750716 0
M  V30 252 H 23.6655 1.01883 2.80468 0
M  V30 253 C 22.4145 -0.648338 3.41602 0
M  V30 254 H 21.7375 -0.00624665 3.998 0
M  V30 255 H 23.1775 -1.03898 4.11073 0
M  V30 256 C 21.6365 -1.8111 2.84079 0
M  V30 257 O 22.1665 -2.90825 2.77099 0
M  V30 258 N 20.3725 -1.62056 2.41218 0
M  V30 259 H 19.9195 -0.728123 2.47095 0
M  V30 260 H 19.8775 -2.40013 2.03079 0
M  V30 261 N 23.6496 -1.47581 0.552962 0
M  V30 262 C 24.8976 -2.02082 0.0272703 0
M  V30 263 C 25.2186 -1.4301 -1.32563 0
M  V30 264 O 24.4886 -0.603745 -1.86365 0
M  V30 265 H 23.0686 -0.746966 0.00709182 0
M  V30 266 H 25.7306 -1.81033 0.722008 0
M  V30 267 H 24.8266 -3.12034 -0.0639951 0
M  V30 268 N 25.1277 -0.289203 -1.54924 0
M  V30 269 C 26.0747 0.592115 -2.23075 0
M  V30 270 C 27.0447 1.13881 -1.20915 0
M  V30 271 O 28.2297 1.18551 -1.495 0
M  V30 272 C 25.3697 1.76376 -2.96623 0
M  V30 273 C 24.4827 1.24959 -4.13533 0
M  V30 274 C 23.6177 2.38416 -4.74691 0
M  V30 275 C 22.6567 1.84072 -5.83767 0
M  V30 276 N 21.7937 2.91057 -6.38929 0
M  V30 277 H 26.6337 0.00432038 -2.98 0
M  V30 278 H 24.1707 -0.00963529 -1.47097 0
M  V30 279 H 26.1287 2.45268 -3.3749 0
M  V30 280 H 24.7587 2.32337 -2.24097 0
M  V30 281 H 23.8107 0.453307 -3.77689 0
M  V30 282 H 25.1227 0.811662 -4.92152 0
M  V30 283 H 24.2767 3.15276 -5.18349 0
M  V30 284 H 23.0157 2.8553 -3.95378 0
M  V30 285 H 22.0207 1.05697 -5.39545 0
M  V30 286 H 23.2457 1.37877 -6.64956 0
M  V30 287 H 21.1917 3.37526 -5.62505 0
M  V30 288 H 21.1087 2.51724 -7.12861 0
M  V30 289 H 22.3767 3.6785 -6.87246 0
M  V30 290 N 26.6058 1.57591 -0.0167156 0
M  V30 291 C 28.0218 1.55946 0.339557 0
M  V30 292 C 28.2218 1.02109 1.73713 0
M  V30 293 O 27.2778 0.662303 2.43659 0
M  V30 294 C 28.5908 3.00037 0.199499 0
M  V30 295 C 30.1388 3.11805 0.273193 0
M  V30 296 C 30.6138 4.57713 0.162068 0
M  V30 297 N 32.1048 4.6268 0.219444 0
M  V30 298 C 32.8398 5.73185 0.157054 0
M  V30 299 N 32.3358 6.92786 0.0442936 0
M  V30 300 N 34.1288 5.61707 0.21014 0
M  V30 301 H 26.2798 1.90921 -0.930758 0
M  V30 302 H 28.5428 0.877674 -0.358319 0
M  V30 303 H 28.2488 3.4333 -0.76273 0
M  V30 304 H 28.1228 3.64387 0.974786 0
M  V30 305 H 30.5098 2.68433 1.22587 0
M  V30 306 H 30.5908 2.50201 -0.532256 0
M  V30 307 H 30.2348 5.01763 -0.78714 0
M  V30 308 H 30.1648 5.17283 0.986222 0
M  V30 309 H 32.6558 3.76649 0.307246 0
M  V30 310 H 32.9688 7.728 0.00304069 0
M  V30 311 H 31.3138 6.94999 0.00968457 0
M  V30 312 H 34.5048 4.6716 0.296546 0
M  V30 313 H 34.6778 6.47807 0.158054 0
M  V30 314 N 28.0839 -0.256276 1.55502 0
M  V30 315 C 29.3319 -0.983672 1.76545 0
M  V30 316 C 29.6529 -1.86206 0.578982 0
M  V30 317 O 28.9229 -1.91656 -0.405577 0
M  V30 318 H 27.5029 -0.366191 0.651086 0
M  V30 319 H 30.1649 -0.276479 1.92929 0
M  V30 320 H 29.2609 -1.61087 2.67315 0
M  V30 321 N 29.562 -1.4872 -0.521534 0
M  V30 322 C 30.792 -1.6061 -1.29954 0
M  V30 323 C 31.2 -0.268728 -1.87282 0
M  V30 324 O 30.543 0.753221 -1.67548 0
M  V30 325 C 30.605 -2.60013 -2.48261 0
M  V30 326 C 30.269 -4.04874 -2.11957 0
M  V30 327 C 31.266 -4.92304 -1.67132 0
M  V30 328 C 28.951 -4.5047 -2.22221 0
M  V30 329 C 30.945 -6.2336 -1.33047 0
M  V30 330 C 28.632 -5.81544 -1.87748 0
M  V30 331 C 29.63 -6.67812 -1.43234 0
M  V30 332 O 29.318 -7.96446 -1.09217 0
M  V30 333 H 29.05 -0.544116 -0.401141 0
M  V30 334 H 31.604 -1.95339 -0.634958 0
M  V30 335 H 29.834 -2.20422 -3.17728 0
M  V30 336 H 31.523 -2.61648 -3.10315 0
M  V30 337 H 32.289 -4.58312 -1.58665 0
M  V30 338 H 28.168 -3.83504 -2.55823 0
M  V30 339 H 31.712 -6.90649 -0.982299 0
M  V30 340 H 27.609 -6.15069 -1.95858 0
M  V30 341 H 28.377 -8.09275 -1.22542 0
M  V30 342 N 31.0401 0.771051 -1.3745 0
M  V30 343 C 31.9701 1.89827 -1.3597 0
M  V30 344 C 32.9511 1.68562 -0.228216 0
M  V30 345 O 34.1361 1.8941 -0.428675 0
M  V30 346 C 31.2661 3.2712 -1.16662 0
M  V30 347 C 30.2201 3.6295 -2.2683 0
M  V30 348 C 29.5461 4.98791 -1.92644 0
M  V30 349 C 30.8461 3.69627 -3.69017 0
M  V30 350 H 32.5401 1.91323 -2.30295 0
M  V30 351 H 30.0861 0.919082 -1.10855 0
M  V30 352 H 32.0391 4.05615 -1.14256 0
M  V30 353 H 30.7631 3.26059 -0.187926 0
M  V30 354 H 29.4221 2.86763 -2.28392 0
M  V30 355 H 29.0701 4.94271 -0.933021 0
M  V30 356 H 28.7701 5.23733 -2.66416 0
M  V30 357 H 30.2941 5.79685 -1.91826 0
M  V30 358 H 31.7081 4.38273 -3.69581 0
M  V30 359 H 30.1051 4.06067 -4.41848 0
M  V30 360 H 31.1751 2.70273 -4.02592 0
M  V30 361 N 32.5182 1.22032 0.997298 0
M  V30 362 C 33.7642 1.04376 1.73878 0
M  V30 363 C 34.0972 -0.420716 1.89588 0
M  V30 364 O 33.3722 -1.31202 1.43583 0
M  V30 365 C 33.6552 1.75047 3.14691 0
M  V30 366 C 33.5082 3.29062 3.06656 0
M  V30 367 C 34.8272 1.49928 4.13775 0
M  V30 368 H 31.9462 0.380578 0.631133 0
M  V30 369 H 34.5882 1.50312 1.16217 0
M  V30 370 H 32.7382 1.35996 3.63919 0
M  V30 371 H 34.4102 3.7753 2.65083 0
M  V30 372 H 32.6532 3.58967 2.43568 0
M  V30 373 H 33.3242 3.73683 4.06282 0
M  V30 374 H 35.8002 1.83842 3.73285 0
M  V30 375 H 34.6762 2.01878 5.10428 0
M  V30 376 H 34.9372 0.430929 4.39995 0
M  V30 377 N 33.9963 -1.19345 1.0293 0
M  V30 378 C 35.2213 -1.93538 0.745511 0
M  V30 379 C 35.6463 -1.75007 -0.689511 0
M  V30 380 O 35.0043 -1.05265 -1.47611 0
M  V30 381 C 35.0523 -3.43336 1.10239 0
M  V30 382 O 34.1563 -4.11806 0.221289 0
M  V30 383 H 33.4973 -0.604193 0.275404 0
M  V30 384 H 36.0273 -1.5141 1.37609 0
M  V30 385 H 36.0373 -3.94004 1.05947 0
M  V30 386 H 34.7123 -3.56146 2.14786 0
M  V30 387 H 33.2893 -3.715 0.322842 0
M  V30 388 N 35.4744 -0.807222 -1.35358 0
M  V30 389 C 36.4244 -0.190706 -2.27201 0
M  V30 390 C 37.4084 0.635838 -1.47804 0
M  V30 391 O 38.6004 0.492991 -1.69996 0
M  V30 392 C 35.7294 0.659337 -3.36909 0
M  V30 393 C 34.8154 -0.176971 -4.23731 0
M  V30 394 N 35.2064 -1.24029 -4.90357 0
M  V30 395 C 33.5044 0.0412953 -4.45981 0
M  V30 396 C 34.2054 -1.75092 -5.54723 0
M  V30 397 N 33.1814 -1.05727 -5.33219 0
M  V30 398 H 36.9834 -1.0043 -2.76208 0
M  V30 399 H 34.4974 -0.648445 -1.48892 0
M  V30 400 H 36.4944 1.11706 -4.01656 0
M  V30 401 H 35.1544 1.47127 -2.89454 0
M  V30 402 H 36.1654 -1.62295 -4.91814 0
M  V30 403 H 32.8424 0.82232 -4.09322 0
M  V30 404 H 34.2324 -2.63963 -6.17878 0
M  V30 405 N 36.9525 1.47285 -0.560781 0
M  V30 406 C 37.8625 2.33846 0.187954 0
M  V30 407 C 38.8785 1.48412 0.908293 0
M  V30 408 O 40.0545 1.81332 0.876388 0
M  V30 409 C 37.1195 3.25178 1.2025 0
M  V30 410 C 36.1805 4.26504 0.489208 0
M  V30 411 C 35.4135 5.13472 1.45542 0
M  V30 412 O 35.6365 5.02959 2.6905 0
M  V30 413 O 34.5705 5.93902 0.977963 0
M  V30 414 H 38.3965 2.99177 -0.522177 0
M  V30 415 H 35.9815 1.45903 -0.321364 0
M  V30 416 H 37.8635 3.81584 1.78805 0
M  V30 417 H 36.5385 2.6247 1.89449 0
M  V30 418 H 35.4455 3.73847 -0.137627 0
M  V30 419 H 36.7785 4.91935 -0.161399 0
M  V30 420 N 38.4306 0.297415 1.54768 0
M  V30 421 C 39.6556 -0.318435 2.04941 0
M  V30 422 C 40.0806 -1.4701 1.17345 0
M  V30 423 O 39.4386 -1.80436 0.176758 0
M  V30 424 C 39.4866 -0.755749 3.52592 0
M  V30 425 O 38.5906 -1.86088 3.68028 0
M  V30 426 H 37.9316 -0.062421 0.661059 0
M  V30 427 H 40.4616 0.438215 1.99852 0
M  V30 428 H 40.4716 -1.04552 3.94376 0
M  V30 429 H 39.1466 0.0867233 4.1581 0
M  V30 430 H 37.7236 -1.57193 3.38149 0
M  V30 431 N 39.9087 -1.5758 0.0250728 0
M  V30 432 C 40.8387 -2.13007 -0.956575 0
M  V30 433 C 41.8197 -1.0452 -1.342 0
M  V30 434 O 43.0047 -1.32332 -1.42133 0
M  V30 435 C 40.1347 -2.65386 -2.24026 0
M  V30 436 C 39.0887 -3.78623 -1.99571 0
M  V30 437 C 38.4147 -4.17414 -3.3417 0
M  V30 438 C 39.7147 -5.04867 -1.33814 0
M  V30 439 H 41.4087 -2.9528 -0.494991 0
M  V30 440 H 38.9547 -1.42042 -0.236651 0
M  V30 441 H 40.9077 -3.02794 -2.93076 0
M  V30 442 H 39.6317 -1.80268 -2.72343 0
M  V30 443 H 38.2907 -3.41646 -1.32941 0
M  V30 444 H 37.9387 -3.29284 -3.80238 0
M  V30 445 H 37.6387 -4.93719 -3.18615 0
M  V30 446 H 39.1627 -4.57402 -4.04495 0
M  V30 447 H 40.5767 -5.39888 -1.92857 0
M  V30 448 H 38.9737 -5.86144 -1.28669 0
M  V30 449 H 40.0437 -4.83904 -0.310561 0
M  V30 450 N 41.3868 0.248026 -1.55636 0
M  V30 451 C 42.6268 0.983592 -1.79178 0
M  V30 452 C 42.9908 1.82567 -0.594414 0
M  V30 453 O 44.1918 2.59292 -0.708583 0
M  V30 454 C 42.4628 1.82228 -3.07454 0
M  V30 455 S 44.0218 2.61709 -3.52213 0
M  V30 456 H 40.8398 0.330866 -0.629324 0
M  V30 457 H 43.4418 0.251562 -1.93875 0
M  V30 458 H 42.1458 1.19333 -3.92668 0
M  V30 459 H 41.6768 2.59708 -2.95492 0
M  V30 460 H 43.6918 3.84655 -3.13457 0
M  V30 461 N 42.8649 1.48995 0.513639 0
M  V30 462 C 44.1139 1.57093 1.2651 0
M  V30 463 C 44.4269 0.257091 1.93903 0
M  V30 464 O 45.6329 0.216478 2.70636 0
M  V30 465 C 44.0889 2.77118 2.29638 0
M  V30 466 C 43.6969 4.15209 1.68241 0
M  V30 467 C 45.4409 2.94538 3.05692 0
M  V30 468 C 43.3479 5.26474 2.69406 0
M  V30 469 H 42.2779 0.584876 0.475854 0
M  V30 470 H 44.9289 1.7536 0.540487 0
M  V30 471 H 43.3109 2.52319 3.05207 0
M  V30 472 H 44.4849 4.50094 0.987505 0
M  V30 473 H 42.7999 4.03042 1.04623 0
M  V30 474 H 45.3969 3.74832 3.8132 0
M  V30 475 H 45.7399 2.04614 3.62545 0
M  V30 476 H 46.2729 3.19316 2.37238 0
M  V30 477 H 43.0119 6.18417 2.17351 0
M  V30 478 H 42.5319 4.96058 3.37175 0
M  V30 479 H 44.2109 5.55277 3.32078 0
M  V30 480 N 44.343 -0.763751 1.37857 0
M  V30 481 C 45.276 -1.88486 1.28639 0
M  V30 482 C 46.254 -1.61757 0.165363 0
M  V30 483 O 47.438 -1.85391 0.340948 0
M  V30 484 C 44.565 -3.23884 0.990811 0
M  V30 485 C 43.611 -3.69514 2.12983 0
M  V30 486 S 44.444 -3.82244 3.75033 0
M  V30 487 C 45.6 -5.20477 3.47641 0
M  V30 488 H 45.833 -1.96017 2.23527 0
M  V30 489 H 43.366 -0.925684 1.23574 0
M  V30 490 H 45.324 -4.02081 0.827101 0
M  V30 491 H 43.985 -3.14044 0.0592832 0
M  V30 492 H 43.178 -4.67696 1.87821 0
M  V30 493 H 42.78 -2.98441 2.25408 0
M  V30 494 H 45.072 -6.05905 3.03125 0
M  V30 495 H 46.015 -5.50655 4.4518 0
M  V30 496 H 46.423 -4.88793 2.82385 0
M  V30 497 N 45.8211 -1.22559 -0.990812 0
M  V30 498 C 46.7691 -0.994798 -2.10253 0
M  V30 499 C 47.7631 0.0627798 -1.69284 0
M  V30 500 O 48.9691 -0.0898392 -1.79776 0
M  V30 501 H 45.3441 -0.304527 -0.687581 0
M  V30 502 H 47.3151 -1.93812 -2.26891 0
M  V30 503 C 46.0641 -0.591439 -3.42633 0
M  V30 504 H 45.3871 -1.3969 -3.74602 0
M  V30 505 H 46.8271 -0.469385 -4.21394 0
M  V30 506 C 45.2861 0.699232 -3.29564 0
M  V30 507 O 45.8161 1.75112 -3.61523 0
M  V30 508 N 44.0221 0.671182 -2.82743 0
M  V30 509 H 43.5691 -0.185136 -2.56934 0
M  V30 510 H 43.5271 1.53502 -2.7438 0
M  V30 511 N 47.2992 1.18797 -1.03562 0
M  V30 512 C 48.5272 1.92599 -0.755869 0
M  V30 513 C 48.9422 1.75886 0.686271 0
M  V30 514 O 48.2992 1.08517 1.46732 0
M  V30 515 C 48.3502 3.44159 -1.10619 0
M  V30 516 O 48.0712 3.60341 -2.4917 0
M  V30 517 C 49.5722 4.3507 -0.850214 0
M  V30 518 H 46.7922 0.611587 -0.276048 0
M  V30 519 H 49.3362 1.50742 -1.38192 0
M  V30 520 H 47.4912 3.83823 -0.525194 0
M  V30 521 H 47.9052 4.54128 -2.62427 0
M  V30 522 H 49.3792 5.39989 -1.14523 0
M  V30 523 H 49.8562 4.38673 0.215176 0
M  V30 524 H 50.4622 4.01097 -1.41426 0
M  V30 525 N 48.7773 0.814389 1.34928 0
M  V30 526 C 50.0253 0.397636 1.9815 0
M  V30 527 C 50.3463 -1.04069 1.64908 0
M  V30 528 O 49.6163 -1.72121 0.93548 0
M  V30 529 H 48.1963 0.144043 0.732981 0
M  V30 530 H 50.8583 1.04195 1.6471 0
M  V30 531 H 49.9543 0.509688 3.0791 0
M  V30 532 N 50.2554 -1.46986 0.568584 0
M  V30 533 C 51.5324 -1.95592 -0.0174074 0
M  V30 534 C 51.9124 -1.51124 -1.47393 0
M  V30 535 O 51.2604 -0.755329 -2.15655 0
M  V30 536 C 51.4704 -3.48719 0.139913 0
M  V30 537 C 52.8184 -4.246 0.000426376 0
M  V30 538 O 53.8424 -3.56135 0.0680316 0
M  V30 539 O 52.7014 -5.46302 -0.146988 0
M  V30 540 H 49.7954 -0.82498 -0.0577599 0
M  V30 541 H 52.3414 -1.57335 0.635909 0
M  V30 542 H 51.1134 -3.73927 1.15301 0
M  V30 543 H 50.7364 -3.93771 -0.550491 0
M  V30 544 N 51.7335 -0.305618 -1.54608 0
M  V30 545 C 52.6435 0.57778 -2.27374 0
M  V30 546 C 53.6595 1.14451 -1.31061 0
M  V30 547 O 54.8355 1.16831 -1.6405 0
M  V30 548 C 51.9005 1.73123 -3.00382 0
M  V30 549 C 50.9615 1.19812 -4.12242 0
M  V30 550 C 50.1945 2.2966 -4.81759 0
M  V30 551 O 50.4175 3.49651 -4.50666 0
M  V30 552 O 49.3515 1.96091 -5.69062 0
M  V30 553 H 53.1775 -0.012624 -3.03697 0
M  V30 554 H 50.7625 -0.0719184 -1.49227 0
M  V30 555 H 52.6445 2.40315 -3.4616 0
M  V30 556 H 51.3195 2.30815 -2.26949 0
M  V30 557 H 50.2265 0.491798 -3.70853 0
M  V30 558 H 51.5595 0.666566 -4.87666 0
M  V30 559 N 53.2116 1.57565 -0.0334293 0
M  V30 560 C 54.4396 1.9628 0.654347 0
M  V30 561 C 54.8546 0.910138 1.65414 0
M  V30 562 O 54.2116 -0.107595 1.82183 0
M  V30 563 C 54.2626 3.35067 1.35693 0
M  V30 564 O 53.9836 4.36296 0.397191 0
M  V30 565 C 55.4846 3.88439 2.13613 0
M  V30 566 H 52.7046 0.646369 0.180132 0
M  V30 567 H 55.2486 2.04282 -0.0944721 0
M  V30 568 H 53.4036 3.2827 2.05712 0
M  V30 569 H 53.8176 5.1678 0.896597 0
M  V30 570 H 55.2916 4.8788 2.58219 0
M  V30 571 H 55.7686 3.22914 2.97696 0
M  V30 572 H 56.3746 3.98516 1.48543 0
M  V30 573 N 54.6897 -0.239769 1.55765 0
M  V30 574 C 55.6527 -1.28038 1.90103 0
M  V30 575 C 56.6527 -1.40723 0.778055 0
M  V30 576 O 57.8427 -1.39301 1.04599 0
M  V30 577 C 54.9747 -2.65702 2.13577 0
M  V30 578 H 56.1677 -0.988048 2.83157 0
M  V30 579 H 53.7207 -0.479382 1.48767 0
M  V30 580 H 54.4557 -3.00063 1.23015 0
M  V30 581 H 54.2407 -2.57875 2.95369 0
M  V30 582 H 55.7307 -3.40828 2.41301 0
M  V30 583 N 56.1678 -1.49265 -0.50573 0
M  V30 584 C 57.1148 -1.65585 -1.6078 0
M  V30 585 C 58.0848 -0.497396 -1.58478 0
M  V30 586 O 59.2698 -0.72385 -1.76536 0
M  V30 587 C 56.4098 -1.72408 -2.98948 0
M  V30 588 C 55.5228 -2.99525 -3.11301 0
M  V30 589 C 54.6578 -2.97356 -4.40174 0
M  V30 590 C 53.6968 -4.19074 -4.46143 0
M  V30 591 N 52.8338 -4.14841 -5.66437 0
M  V30 592 H 57.6738 -2.59688 -1.46172 0
M  V30 593 H 55.2108 -1.28761 -0.711261 0
M  V30 594 H 57.1688 -1.74344 -3.79025 0
M  V30 595 H 55.7988 -0.817753 -3.1227 0
M  V30 596 H 54.8508 -3.07222 -2.24318 0
M  V30 597 H 56.1628 -3.89518 -3.11572 0
M  V30 598 H 55.3168 -2.97829 -5.28567 0
M  V30 599 H 54.0558 -2.05133 -4.42461 0
M  V30 600 H 53.0608 -4.1885 -3.56153 0
M  V30 601 H 54.2858 -5.12483 -4.45575 0
M  V30 602 H 52.2318 -3.25453 -5.69575 0
M  V30 603 H 52.1488 -4.98564 -5.68304 0
M  V30 604 H 53.4168 -4.1941 -6.57051 0
M  V30 605 N 57.6459 0.756429 -1.3826 0
M  V30 606 C 58.8949 1.51082 -1.3363 0
M  V30 607 C 59.2079 1.95467 0.0720068 0
M  V30 608 O 60.4139 2.7043 0.240834 0
M  V30 609 C 58.8699 2.72893 -2.34644 0
M  V30 610 C 58.4779 2.35544 -3.81081 0
M  V30 611 C 60.2219 3.50791 -2.39052 0
M  V30 612 C 58.1289 3.53948 -4.73787 0
M  V30 613 H 57.0589 0.56727 -0.49671 0
M  V30 614 H 59.7099 0.827147 -1.638 0
M  V30 615 H 58.0919 3.43227 -1.97513 0
M  V30 616 H 59.2659 1.72894 -4.27135 0
M  V30 617 H 57.5809 1.70786 -3.79764 0
M  V30 618 H 60.1779 4.38823 -3.05513 0
M  V30 619 H 60.5209 3.91745 -1.40861 0
M  V30 620 H 61.0539 2.87467 -2.74968 0
M  V30 621 H 57.7929 3.18064 -5.73163 0
M  V30 622 H 57.3129 4.15651 -4.32428 0
M  V30 623 H 58.9919 4.20566 -4.91663 0
M  V30 624 N 59.124 1.23083 0.984299 0
M  V30 625 C 60.54 0.992637 1.24975 0
M  V30 626 C 60.74 -0.308618 1.99123 0
M  V30 627 O 59.796 -1.02905 2.30579 0
M  V30 628 C 61.109 2.19698 2.05312 0
M  V30 629 C 62.657 2.24147 2.18465 0
M  V30 630 C 63.132 3.44157 3.02192 0
M  V30 631 N 64.623 3.44372 3.09777 0
M  V30 632 C 65.358 4.33886 3.74874 0
M  V30 633 N 64.854 5.3363 4.41827 0
M  V30 634 N 66.647 4.21639 3.71721 0
M  V30 635 H 58.798 2.06731 0.487453 0
M  V30 636 H 61.061 0.906339 0.277944 0
M  V30 637 H 60.767 3.1411 1.58201 0
M  V30 638 H 60.641 2.20465 3.06064 0
M  V30 639 H 63.028 1.30277 2.64786 0
M  V30 640 H 63.109 2.27415 1.17115 0
M  V30 641 H 62.753 4.38332 2.56568 0
M  V30 642 H 62.683 3.3813 4.03702 0
M  V30 643 H 65.174 2.72201 2.62135 0
M  V30 644 H 65.487 5.98196 4.89266 0
M  V30 645 H 63.832 5.37534 4.40548 0
M  V30 646 H 67.023 3.42962 3.18582 0
M  V30 647 H 67.196 4.91604 4.22173 0
M  V30 648 N 60.6021 -1.18246 1.0419 0
M  V30 649 C 61.8511 -1.87588 0.741194 0
M  V30 650 C 62.1641 -1.81303 -0.734066 0
M  V30 651 O 63.3701 -2.46019 -1.14834 0
M  V30 652 C 61.8261 -3.36538 1.27555 0
M  V30 653 C 61.4341 -3.51349 2.77953 0
M  V30 654 C 63.1781 -4.11273 1.05143 0
M  V30 655 C 61.0851 -4.94265 3.2474 0
M  V30 656 H 60.0151 -0.702622 0.273565 0
M  V30 657 H 62.6661 -1.33601 1.25789 0
M  V30 658 H 61.0481 -3.9 0.686703 0
M  V30 659 H 62.2221 -3.08153 3.42605 0
M  V30 660 H 60.5371 -2.90022 2.98791 0
M  V30 661 H 63.1341 -5.16689 1.37611 0
M  V30 662 H 63.4771 -4.16298 -0.0112774 0
M  V30 663 H 64.0101 -3.63987 1.60495 0
M  V30 664 H 60.7491 -4.94408 4.30396 0
M  V30 665 H 60.2691 -5.38172 2.64823 0
M  V30 666 H 61.9481 -5.62987 3.18834 0
M  V30 667 N 62.0802 -0.821533 -1.34494 0
M  V30 668 C 63.3082 -0.421884 -2.02553 0
M  V30 669 C 63.7232 0.971745 -1.61872 0
M  V30 670 O 63.0802 1.62864 -0.823496 0
M  V30 671 C 63.1312 -0.51285 -3.57844 0
M  V30 672 O 62.8522 -1.85155 -3.97051 0
M  V30 673 C 64.3532 -0.107921 -4.43169 0
M  V30 674 H 61.5732 -0.169482 -0.649243 0
M  V30 675 H 64.1172 -1.1093 -1.71798 0
M  V30 676 H 62.2722 0.126474 -3.87193 0
M  V30 677 H 62.6862 -1.82482 -4.91732 0
M  V30 678 H 64.1602 -0.222657 -5.51551 0
M  V30 679 H 64.6372 0.948401 -4.28838 0
M  V30 680 H 65.2432 -0.720989 -4.19144 0
M  V30 681 N 63.5583 1.46682 -0.576371 0
M  V30 682 C 64.8053 2.02412 -0.0595339 0
M  V30 683 C 65.1333 1.44859 1.29793 0
M  V30 684 O 64.3883 0.601099 1.8624 0
M  V30 685 C 64.6873 3.57345 0.062886 0
M  V30 686 C 64.3533 4.33908 -1.22616 0
M  V30 687 C 63.0153 4.54544 -1.57933 0
M  V30 688 C 65.3673 4.77919 -2.07948 0
M  V30 689 C 62.6953 5.16444 -2.78393 0
M  V30 690 C 65.0473 5.41149 -3.27629 0
M  V30 691 C 63.7113 5.60014 -3.63236 0
M  V30 692 H 62.9813 0.74068 -0.021785 0
M  V30 693 H 65.6283 1.76128 -0.751735 0
M  V30 694 H 63.9333 3.82729 0.838178 0
M  V30 695 H 65.6303 3.98136 0.478439 0
M  V30 696 H 62.2203 4.18138 -0.941202 0
M  V30 697 H 66.4043 4.61738 -1.81967 0
M  V30 698 H 61.6603 5.29242 -3.06126 0
M  V30 699 H 65.8343 5.74211 -3.94023 0
M  V30 700 H 63.4613 6.07748 -4.56669 0
M  V30 701 N 65.0364 0.313813 1.54444 0
M  V30 702 C 65.9664 -0.549454 2.26943 0
M  V30 703 C 66.9474 -1.12741 1.27372 0
M  V30 704 O 68.1324 -1.15436 1.56167 0
M  V30 705 C 65.2624 -1.71523 3.01989 0
M  V30 706 C 64.2164 -1.26703 4.08816 0
M  V30 707 C 63.5424 -2.51898 4.71647 0
M  V30 708 C 64.8424 -0.388962 5.2085 0
M  V30 709 H 66.5364 0.0552661 2.99349 0
M  V30 710 H 64.0824 0.0280207 1.43973 0
M  V30 711 H 66.0354 -2.32535 3.51433 0
M  V30 712 H 64.7594 -2.34639 2.27183 0
M  V30 713 H 63.4184 -0.679896 3.6024 0
M  V30 714 H 63.0664 -3.13356 3.93468 0
M  V30 715 H 62.7664 -2.22605 5.43802 0
M  V30 716 H 64.2904 -3.1369 5.23861 0
M  V30 717 H 65.7044 -0.905107 5.6611 0
M  V30 718 H 64.1014 -0.18924 5.99802 0
M  V30 719 H 65.1714 0.582699 4.81386 0
M  V30 720 N 66.5145 -1.57545 0.0417849 0
M  V30 721 C 67.7615 -1.92317 -0.634082 0
M  V30 722 C 68.0895 -0.919334 -1.71402 0
M  V30 723 O 67.3445 0.0698253 -1.95575 0
M  V30 724 C 67.6435 -3.33794 -1.27735 0
M  V30 725 C 67.3095 -4.49716 -0.326543 0
M  V30 726 C 65.9715 -4.81156 -0.0648814 0
M  V30 727 C 68.3235 -5.20182 0.325623 0
M  V30 728 C 65.6515 -5.80414 0.856539 0
M  V30 729 C 68.0035 -6.20424 1.23518 0
M  V30 730 C 66.6675 -6.50298 1.5056 0
M  V30 731 H 65.9375 -0.703736 -0.232027 0
M  V30 732 H 68.5845 -1.91205 0.106259 0
M  V30 733 H 66.8895 -3.31228 -2.09274 0
M  V30 734 H 68.5865 -3.57975 -1.80707 0
M  V30 735 H 65.1765 -4.25176 -0.540665 0
M  V30 736 H 69.3605 -4.96112 0.136546 0
M  V30 737 H 64.6165 -6.019 1.07363 0
M  V30 738 H 68.7905 -6.74141 1.74664 0
M  V30 739 H 66.4175 -7.27025 2.22123 0
M  V30 740 N 67.9926 0.231505 -1.5589 0
M  V30 741 C 68.9026 1.308 -1.94752 0
M  V30 742 C 69.9186 1.51826 -0.849989 0
M  V30 743 O 71.0946 1.6515 -1.15271 0
M  V30 744 C 68.1596 2.63968 -2.24771 0
M  V30 745 C 67.2206 2.51331 -3.48039 0
M  V30 746 C 66.4536 3.78148 -3.76616 0
M  V30 747 O 66.6766 4.80722 -3.07022 0
M  V30 748 O 65.6106 3.75857 -4.70123 0
M  V30 749 H 69.4366 1.0083 -2.86474 0
M  V30 750 H 67.0216 0.433547 -1.42971 0
M  V30 751 H 68.9036 3.42633 -2.45318 0
M  V30 752 H 67.5786 2.9364 -1.36225 0
M  V30 753 H 66.4856 1.709 -3.32782 0
M  V30 754 H 67.8186 2.26601 -4.36936 0
M  V30 755 N 69.4707 1.49531 0.497807 0
M  V30 756 C 70.7477 1.49682 1.25915 0
M  V30 757 C 71.1277 0.226339 2.09883 0
M  V30 758 O 70.4757 -0.791189 2.14365 0
M  V30 759 C 70.6857 2.77755 2.11313 0
M  V30 760 C 72.0337 3.27371 2.70395 0
M  V30 761 O 73.0577 2.78894 2.21578 0
M  V30 762 O 71.9167 4.11808 3.59272 0
M  V30 763 H 69.0107 0.599228 0.56996 0
M  V30 764 H 71.5567 1.61798 0.511816 0
M  V30 765 H 70.3287 3.61713 1.49264 0
M  V30 766 H 69.9517 2.68515 2.93233 0
M  V30 767 N 70.9488 -0.749086 1.3866 0
M  V30 768 C 72.1738 -1.54344 1.38538 0
M  V30 769 C 72.5988 -1.88088 -0.0216655 0
M  V30 770 O 71.9568 -1.50899 -1.00494 0
M  V30 771 C 72.0048 -2.8164 2.25192 0
M  V30 772 O 71.1088 -3.7698 1.67212 0
M  V30 773 H 70.4498 -0.466654 0.472367 0
M  V30 774 H 72.9798 -0.925355 1.82478 0
M  V30 775 H 72.9898 -3.30519 2.3921 0
M  V30 776 H 71.6648 -2.56411 3.27454 0
M  V30 777 H 70.2418 -3.35699 1.6236 0
M  V30 778 N 72.4269 -1.23603 -0.977757 0
M  V30 779 C 73.3739 -1.01954 -2.07061 0
M  V30 780 C 74.3439 0.0638697 -1.65977 0
M  V30 781 O 75.5289 -0.0887624 -1.90593 0
M  V30 782 C 72.6689 -0.619658 -3.39491 0
M  V30 783 C 71.7819 -1.77547 -3.93829 0
M  V30 784 C 70.9169 -1.32212 -5.14484 0
M  V30 785 C 69.9559 -2.44852 -5.60994 0
M  V30 786 N 69.0929 -2.00456 -6.72876 0
M  V30 787 H 73.9329 -1.95495 -2.24913 0
M  V30 788 H 71.4699 -0.973861 -1.10247 0
M  V30 789 H 73.4279 -0.368898 -4.15566 0
M  V30 790 H 72.0579 0.278752 -3.21594 0
M  V30 791 H 71.1099 -2.14016 -3.14486 0
M  V30 792 H 72.4219 -2.62219 -4.24314 0
M  V30 793 H 71.5759 -1.02965 -5.97899 0
M  V30 794 H 70.3149 -0.445808 -4.85658 0
M  V30 795 H 69.3199 -2.74871 -4.76157 0
M  V30 796 H 70.5449 -3.33024 -5.91837 0
M  V30 797 H 68.4909 -1.15208 -6.45804 0
M  V30 798 H 68.4079 -2.78687 -7.02759 0
M  V30 799 H 69.6759 -1.7432 -7.59758 0
M  V30 800 N 73.905 1.17692 -1.04816 0
M  V30 801 C 75.316 1.69501 -0.782698 0
M  V30 802 C 75.667 1.83456 0.695577 0
M  V30 803 O 74.792 1.51942 1.54086 0
M  V30 804 C 75.387 3.07874 -1.41419 0
M  V30 805 C 73.946 3.56864 -1.19686 0
M  V30 806 C 73.093 2.3322 -1.50012 0
M  V30 807 H 76.044 1.02262 -1.2136 0
M  V30 808 H 76.065 3.71528 -0.821428 0
M  V30 809 H 75.577 2.97685 -2.49009 0
M  V30 810 H 73.678 3.72337 -0.140043 0
M  V30 811 H 73.791 4.39851 -1.89916 0
M  V30 812 H 72.155 2.37501 -0.920071 0
M  V30 813 H 72.938 2.25644 -2.58727 0
M  V30 814 N 75.3831 0.828654 1.34056 0
M  V30 815 C 76.6291 0.42008 1.98402 0
M  V30 816 C 76.9621 -1.01564 1.65525 0
M  V30 817 O 76.2371 -1.70834 0.929831 0
M  V30 818 C 76.5201 0.62927 3.54559 0
M  V30 819 C 76.3731 2.11152 3.97159 0
M  V30 820 C 77.6921 0.0688756 4.40046 0
M  V30 821 H 74.8111 0.154104 0.720709 0
M  V30 822 H 77.4531 1.04228 1.5886 0
M  V30 823 H 75.6031 0.0996418 3.88372 0
M  V30 824 H 77.2751 2.70522 3.73651 0
M  V30 825 H 75.5181 2.59985 3.47261 0
M  V30 826 H 76.1891 2.20868 5.05887 0
M  V30 827 H 78.6651 0.521458 4.1282 0
M  V30 828 H 77.5411 0.245006 5.48353 0
M  V30 829 H 77.8021 -1.0266 4.30015 0
M  V30 830 N 76.8612 -1.46375 0.584142 0
M  V30 831 C 78.1072 -2.02678 0.0703716 0
M  V30 832 C 78.4402 -1.4545 -1.28678 0
M  V30 833 O 77.7152 -0.62014 -1.84349 0
M  V30 834 C 77.9982 -3.60099 0.00614674 0
M  V30 835 C 77.8512 -4.27709 1.3923 0
M  V30 836 C 79.1702 -4.34598 -0.693742 0
M  V30 837 H 76.2892 -0.736504 0.027047 0
M  V30 838 H 78.9312 -1.74501 0.751615 0
M  V30 839 H 77.0812 -3.84236 -0.574009 0
M  V30 840 H 78.7532 -4.14832 2.01773 0
M  V30 841 H 76.9962 -3.87016 1.95962 0
M  V30 842 H 77.6672 -5.36478 1.29982 0
M  V30 843 H 80.1432 -4.15615 -0.200869 0
M  V30 844 H 79.0192 -5.44318 -0.707714 0
M  V30 845 H 79.2802 -4.05759 -1.75533 0
M  V30 846 N 78.3393 -0.321999 -1.54275 0
M  V30 847 C 79.2893 0.560185 -2.21011 0
M  V30 848 C 80.2733 1.08283 -1.19011 0
M  V30 849 O 81.4653 1.02011 -1.44647 0
M  V30 850 C 78.5943 1.72137 -2.97025 0
M  V30 851 C 77.6803 1.21369 -4.06363 0
M  V30 852 N 78.0713 0.425566 -5.04007 0
M  V30 853 C 76.3693 1.49255 -4.20284 0
M  V30 854 C 77.0703 0.152601 -5.815 0
M  V30 855 N 76.0463 0.738294 -5.38563 0
M  V30 856 H 79.8483 -0.049265 -2.93859 0
M  V30 857 H 77.3623 -0.127779 -1.61897 0
M  V30 858 H 79.3593 2.36512 -3.43319 0
M  V30 859 H 78.0193 2.33431 -2.25699 0
M  V30 860 H 79.0303 0.068551 -5.17855 0
M  V30 861 H 75.7073 2.11145 -3.60172 0
M  V30 862 H 77.0973 -0.481764 -6.70171 0
M  V30 863 N 79.8174 1.5752 -0.0501392 0
M  V30 864 C 80.7274 2.14952 0.939827 0
M  V30 865 C 81.7434 1.10706 1.34239 0
M  V30 866 O 82.9194 1.42869 1.41952 0
M  V30 867 C 79.9844 2.68232 2.19665 0
M  V30 868 C 79.0454 3.87272 1.85253 0
M  V30 869 C 78.2784 4.38002 3.04943 0
M  V30 870 O 78.5014 3.87811 4.18281 0
M  V30 871 O 77.4354 5.29602 2.86017 0
M  V30 872 H 81.2614 2.9986 0.481392 0
M  V30 873 H 78.8464 1.4841 0.171699 0
M  V30 874 H 80.7284 3.02475 2.93406 0
M  V30 875 H 79.4034 1.86395 2.64648 0
M  V30 876 H 78.3104 3.5792 1.0883 0
M  V30 877 H 79.6434 4.70336 1.4507 0
M  V30 878 N 81.2955 -0.223234 1.56011 0
M  V30 879 C 82.5415 -0.949279 1.79211 0
M  V30 880 C 82.8745 -1.84054 0.619494 0
M  V30 881 O 82.1495 -1.90726 -0.381317 0
M  V30 882 C 82.4325 -1.78965 3.12479 0
M  V30 883 C 82.2855 -0.924997 4.40186 0
M  V30 884 C 83.6045 -2.76774 3.42175 0
M  V30 885 H 80.7235 -0.343676 0.651963 0
M  V30 886 H 83.3655 -0.218253 1.88742 0
M  V30 887 H 81.5155 -2.41291 3.04485 0
M  V30 888 H 83.1875 -0.318615 4.60198 0
M  V30 889 H 81.4305 -0.230344 4.33188 0
M  V30 890 H 82.1015 -1.54735 5.29869 0
M  V30 891 H 84.5775 -2.24584 3.50287 0
M  V30 892 H 83.4535 -3.32678 4.36597 0
M  V30 893 H 83.7145 -3.54429 2.64258 0
M  V30 894 N 82.7736 -1.49793 -0.48987 0
M  V30 895 C 83.6836 -1.70036 -1.61632 0
M  V30 896 C 84.6996 -0.583102 -1.63939 0
M  V30 897 O 85.8756 -0.859169 -1.82154 0
M  V30 898 C 82.9406 -1.77277 -2.97949 0
M  V30 899 C 82.0016 -3.00918 -3.06181 0
M  V30 900 C 81.2346 -3.07804 -4.35996 0
M  V30 901 O 81.4576 -2.21982 -5.25433 0
M  V30 902 O 80.3916 -4.00369 -4.49431 0
M  V30 903 H 84.2176 -2.65486 -1.47482 0
M  V30 904 H 81.8026 -1.33666 -0.667362 0
M  V30 905 H 83.6846 -1.84329 -3.78947 0
M  V30 906 H 82.3596 -0.850076 -3.12339 0
M  V30 907 H 81.2666 -2.99377 -2.2433 0
M  V30 908 H 82.5996 -3.92704 -2.96723 0
M  V30 909 N 84.2517 0.741722 -1.39055 0
M  V30 910 C 85.5007 1.49656 -1.35225 0
M  V30 911 C 85.8137 1.95533 0.0512708 0
M  V30 912 O 87.0197 2.7067 0.212138 0
M  V30 913 C 85.4757 2.70389 -2.37525 0
M  V30 914 C 85.0837 2.31489 -3.83558 0
M  V30 915 C 86.8277 3.48236 -2.42759 0
M  V30 916 C 84.7347 3.48903 -4.77515 0
M  V30 917 H 83.6647 0.56197 -0.502699 0
M  V30 918 H 86.3157 0.809727 -1.64668 0
M  V30 919 H 84.6977 3.41113 -2.01142 0
M  V30 920 H 85.8717 1.68354 -4.28945 0
M  V30 921 H 84.1867 1.66749 -3.81554 0
M  V30 922 H 86.7837 4.35558 -3.1015 0
M  V30 923 H 87.1267 3.90229 -1.45008 0
M  V30 924 H 87.6597 2.84535 -2.78002 0
M  V30 925 H 84.3987 3.11966 -5.76504 0
M  V30 926 H 83.9187 4.11041 -4.36813 0
M  V30 927 H 85.5977 4.15328 -4.96096 0
M  V30 928 N 85.7298 1.2412 0.971189 0
M  V30 929 C 86.9548 1.10667 1.75407 0
M  V30 930 C 87.3798 -0.337048 1.85056 0
M  V30 931 O 86.7378 -1.24396 1.31892 0
M  V30 932 C 86.7858 1.74726 3.15441 0
M  V30 933 O 85.8898 1.01566 3.99697 0
M  V30 934 H 85.2308 0.387341 0.539317 0
M  V30 935 H 87.7608 1.64358 1.2185 0
M  V30 936 H 87.7708 1.80341 3.6598 0
M  V30 937 H 86.4458 2.79773 3.07734 0
M  V30 938 H 85.0228 1.03713 3.58187 0
M  V30 939 N 87.2079 -1.17134 1.05439 0
M  V30 940 C 88.6189 -1.69084 0.791676 0
M  V30 941 C 88.9699 -1.83822 -0.685839 0
M  V30 942 O 88.0949 -1.52757 -1.53278 0
M  V30 943 C 88.6899 -3.07119 1.4305 0
M  V30 944 C 87.2489 -3.56225 1.21577 0
M  V30 945 C 86.3959 -2.32421 1.51247 0
M  V30 946 H 89.3469 -1.01617 1.219 0
M  V30 947 H 89.3679 -3.71087 0.84112 0
M  V30 948 H 88.8799 -2.9636 2.50584 0
M  V30 949 H 86.9809 -3.72257 0.159787 0
M  V30 950 H 87.0939 -4.38837 1.92246 0
M  V30 951 H 85.4579 -2.3701 0.932653 0
M  V30 952 H 86.2409 -2.24268 2.5992 0
M  V30 953 N 88.686 -0.835752 -1.33615 0
M  V30 954 C 89.619 -0.211815 -2.27215 0
M  V30 955 C 90.597 0.639249 -1.49507 0
M  V30 956 O 91.781 0.600193 -1.78689 0
M  V30 957 C 88.908 0.702893 -3.31326 0
M  V30 958 C 87.954 -0.0723049 -4.26439 0
M  V30 959 S 88.787 -1.42811 -5.16106 0
M  V30 960 C 89.943 -0.518613 -6.23748 0
M  V30 961 H 90.176 -1.00533 -2.79786 0
M  V30 962 H 87.709 -0.632336 -1.40858 0
M  V30 963 H 89.667 1.22505 -3.91794 0
M  V30 964 H 88.328 1.47004 -2.77576 0
M  V30 965 H 87.521 0.62359 -5.00127 0
M  V30 966 H 87.123 -0.525424 -3.70291 0
M  V30 967 H 89.415 0.284778 -6.76901 0
M  V30 968 H 90.358 -1.22556 -6.97413 0
M  V30 969 H 90.766 -0.101344 -5.64409 0
M  V30 970 N 90.1641 1.46063 -0.591896 0
M  V30 971 C 91.1111 2.30399 0.136069 0
M  V30 972 C 92.0811 1.41169 0.875238 0
M  V30 973 O 93.2661 1.70112 0.86409 0
M  V30 974 C 90.4061 3.25804 1.13781 0
M  V30 975 C 89.5191 4.30134 0.401137 0
M  V30 976 C 88.6541 5.12659 1.39121 0
M  V30 977 C 87.6931 6.0873 0.641462 0
M  V30 978 N 86.8301 6.8409 1.58004 0
M  V30 979 H 91.6701 2.92118 -0.589144 0
M  V30 980 H 89.2071 1.43959 -0.302342 0
M  V30 981 H 91.1651 3.79569 1.73156 0
M  V30 982 H 89.7951 2.65872 1.83062 0
M  V30 983 H 88.8471 3.79152 -0.307826 0
M  V30 984 H 90.1591 4.98458 -0.184565 0
M  V30 985 H 89.3131 5.70747 2.05749 0
M  V30 986 H 88.0521 4.44316 2.01084 0
M  V30 987 H 87.0571 5.49786 -0.0385419 0
M  V30 988 H 88.2821 6.79095 0.0270945 0
M  V30 989 H 86.2281 6.18449 2.18761 0
M  V30 990 H 86.1451 7.48709 1.04738 0
M  V30 991 H 87.4131 7.4673 2.23639 0
M  V30 992 N 91.6422 0.330177 1.54103 0
M  V30 993 C 92.8672 -0.274893 2.0557 0
M  V30 994 C 93.2922 -1.44487 1.20437 0
M  V30 995 O 92.6502 -1.80021 0.214991 0
M  V30 996 C 92.6982 -0.68079 3.54115 0
M  V30 997 O 91.8022 -1.7824 3.71893 0
M  V30 998 H 91.1432 -0.0483849 0.662235 0
M  V30 999 H 93.6732 0.480508 1.98878 0
M  V30 1000 H 93.6832 -0.961635 3.96505 0
M  V30 1001 H 92.3582 0.174903 4.15532 0
M  V30 1002 H 90.9352 -1.49985 3.41407 0
M  V30 1003 N 93.1203 -1.57491 0.0584922 0
M  V30 1004 C 94.0503 -2.14988 -0.911178 0
M  V30 1005 C 95.0313 -1.07343 -1.31952 0
M  V30 1006 O 96.2163 -1.35318 -1.39294 0
M  V30 1007 C 93.3463 -2.70078 -2.18347 0
M  V30 1008 C 92.3003 -3.82771 -1.91495 0
M  V30 1009 C 91.6263 -4.24408 -3.25241 0
M  V30 1010 C 92.9263 -5.07592 -1.23075 0
M  V30 1011 H 94.6203 -2.96263 -0.432246 0
M  V30 1012 H 92.1663 -1.42512 -0.206469 0
M  V30 1013 H 94.1193 -3.08943 -2.86587 0
M  V30 1014 H 92.8433 -1.86005 -2.68458 0
M  V30 1015 H 91.5023 -3.44389 -1.25664 0
M  V30 1016 H 91.1503 -3.37275 -3.73168 0
M  V30 1017 H 90.8503 -5.00366 -3.08071 0
M  V30 1018 H 92.3743 -4.65879 -3.94701 0
M  V30 1019 H 93.7883 -5.43857 -1.81362 0
M  V30 1020 H 92.1853 -5.88741 -1.16207 0
M  V30 1021 H 93.2553 -4.84454 -0.207847 0
M  V30 1022 N 94.5984 0.214957 -1.56127 0
M  V30 1023 C 95.5484 1.27006 -1.8935 0
M  V30 1024 C 96.5324 1.41969 -0.757202 0
M  V30 1025 O 97.7244 1.44673 -1.01973 0
M  V30 1026 C 94.8534 2.61911 -2.2194 0
M  V30 1027 C 93.9394 2.50822 -3.41978 0
M  V30 1028 N 94.3304 2.09391 -4.60423 0
M  V30 1029 C 92.6284 2.81765 -3.45723 0
M  V30 1030 C 93.3294 2.09712 -5.42582 0
M  V30 1031 N 92.3054 2.50454 -4.82466 0
M  V30 1032 H 96.1074 0.940734 -2.78437 0
M  V30 1033 H 93.6214 0.423492 -1.56781 0
M  V30 1034 H 95.6184 3.38096 -2.43919 0
M  V30 1035 H 94.2784 2.95684 -1.34169 0
M  V30 1036 H 95.2894 1.80416 -4.85459 0
M  V30 1037 H 91.9664 3.19865 -2.68314 0
M  V30 1038 H 93.3564 1.79748 -6.4741 0
M  V30 1039 N 96.0765 1.50051 0.48192 0
M  V30 1040 C 97.0065 1.71046 1.58951 0
M  V30 1041 C 97.9875 0.559288 1.60642 0
M  V30 1042 O 99.1725 0.797243 1.77081 0
M  V30 1043 C 96.3025 1.79462 2.97339 0
M  V30 1044 C 95.2565 2.94558 3.10515 0
M  V30 1045 C 94.5825 2.88105 4.50444 0
M  V30 1046 C 95.8825 4.35227 2.88747 0
M  V30 1047 H 97.5765 2.6378 1.41635 0
M  V30 1048 H 95.1225 1.26936 0.679942 0
M  V30 1049 H 97.0755 1.92734 3.74742 0
M  V30 1050 H 95.7995 0.833412 3.15788 0
M  V30 1051 H 94.4585 2.80918 2.35543 0
M  V30 1052 H 94.1065 1.89853 4.65795 0
M  V30 1053 H 93.8065 3.65366 4.60197 0
M  V30 1054 H 95.3305 3.03412 5.29881 0
M  V30 1055 H 96.7445 4.49449 3.55905 0
M  V30 1056 H 95.1415 5.13856 3.09955 0
M  V30 1057 H 96.2115 4.48347 1.84696 0
M  V30 1058 N 97.5546 -0.734337 1.39446 0
M  V30 1059 C 98.9706 -1.03997 1.21065 0
M  V30 1060 C 99.1706 -2.01369 0.0727019 0
M  V30 1061 O 98.2266 -2.45856 -0.575426 0
M  V30 1062 C 99.5396 -1.60163 2.54496 0
M  V30 1063 C 101.088 -1.7224 2.61347 0
M  V30 1064 C 101.563 -2.31814 3.95002 0
M  V30 1065 N 103.054 -2.39223 3.96644 0
M  V30 1066 C 103.789 -2.86258 4.96834 0
M  V30 1067 N 103.285 -3.33184 6.07421 0
M  V30 1068 N 105.078 -2.85473 4.84213 0
M  V30 1069 H 97.2286 -0.0885624 2.12215 0
M  V30 1070 H 99.4916 -0.10191 0.942506 0
M  V30 1071 H 99.1976 -0.960811 3.38321 0
M  V30 1072 H 99.0716 -2.5896 2.74262 0
M  V30 1073 H 101.459 -2.35443 1.77906 0
M  V30 1074 H 101.54 -0.720939 2.4543 0
M  V30 1075 H 101.184 -1.69238 4.78875 0
M  V30 1076 H 101.114 -3.32638 4.08239 0
M  V30 1077 H 103.605 -2.06057 3.16779 0
M  V30 1078 H 103.918 -3.67586 6.7978 0
M  V30 1079 H 102.263 -3.31191 6.11013 0
M  V30 1080 H 105.454 -2.48136 3.96921 0
M  V30 1081 H 105.627 -3.21814 5.62441 0
M  V30 1082 N 99.0327 -1.24633 -0.964593 0
M  V30 1083 C 99.9627 -1.06611 -2.07741 0
M  V30 1084 C 100.944 0.0218666 -1.70086 0
M  V30 1085 O 102.129 -0.145793 -1.93652 0
M  V30 1086 C 99.2587 -0.673444 -3.40708 0
M  V30 1087 C 98.2127 -1.71054 -3.92332 0
M  V30 1088 C 97.5387 -1.17285 -5.21678 0
M  V30 1089 C 98.8387 -3.10718 -4.19824 0
M  V30 1090 H 100.533 -1.99693 -2.23076 0
M  V30 1091 H 98.0787 -0.96152 -1.07195 0
M  V30 1092 H 100.032 -0.534345 -4.17998 0
M  V30 1093 H 98.7557 0.293073 -3.25282 0
M  V30 1094 H 97.4147 -1.83791 -3.17201 0
M  V30 1095 H 97.0627 -0.196847 -5.02615 0
M  V30 1096 H 96.7627 -1.86592 -5.57187 0
M  V30 1097 H 98.2867 -1.04593 -6.01575 0
M  V30 1098 H 99.7007 -3.01192 -4.87808 0
M  V30 1099 H 98.0977 -3.77406 -4.66567 0
M  V30 1100 H 99.1677 -3.58524 -3.26479 0
M  V30 1101 N 100.511 1.16574 -1.06058 0
M  V30 1102 C 101.788 1.83048 -0.689416 0
M  V30 1103 C 102.168 1.94122 0.829443 0
M  V30 1104 O 101.516 1.48249 1.7388 0
M  V30 1105 C 101.726 3.20186 -1.38859 0
M  V30 1106 C 103.074 3.95989 -1.53226 0
M  V30 1107 O 104.098 3.29696 -1.3483 0
M  V30 1108 O 102.957 5.14813 -1.83384 0
M  V30 1109 H 100.051 0.790258 -0.243764 0
M  V30 1110 H 102.597 1.23797 -1.16071 0
M  V30 1111 H 101.369 3.07146 -2.4244 0
M  V30 1112 H 100.992 3.87112 -0.907216 0
M  V30 1113 N 101.989 0.842826 1.3317 0
M  V30 1114 C 102.936 0.276885 2.29133 0
M  V30 1115 C 103.906 -0.609527 1.54512 0
M  V30 1116 O 105.091 -0.546955 1.82792 0
M  V30 1117 C 102.231 -0.538707 3.40869 0
M  V30 1118 C 101.344 0.372169 4.30394 0
M  V30 1119 C 100.479 -0.454908 5.29249 0
M  V30 1120 C 99.5179 0.45411 6.10413 0
M  V30 1121 N 98.6549 -0.335075 7.013 0
M  V30 1122 H 103.495 1.10052 2.76934 0
M  V30 1123 H 101.032 0.554161 1.36262 0
M  V30 1124 H 102.99 -1.02709 4.0436 0
M  V30 1125 H 101.62 -1.32727 2.9425 0
M  V30 1126 H 100.672 0.97888 3.6759 0
M  V30 1127 H 101.984 1.0703 4.87182 0
M  V30 1128 H 101.138 -1.00695 5.98285 0
M  V30 1129 H 99.8769 -1.18646 4.73048 0
M  V30 1130 H 98.8819 1.01813 5.40291 0
M  V30 1131 H 100.107 1.18409 6.68697 0
M  V30 1132 H 98.0529 -1.04994 6.47543 0
M  V30 1133 H 97.9699 0.304262 7.55387 0
M  V30 1134 H 99.2379 -0.869224 7.74638 0
M  V30 1135 N 103.467 -1.45747 0.599634 0
M  V30 1136 C 104.397 -2.33235 -0.111306 0
M  V30 1137 C 105.378 -1.46359 -0.866781 0
M  V30 1138 O 106.563 -1.75146 -0.838904 0
M  V30 1139 C 103.693 -3.28932 -1.11451 0
M  V30 1140 C 102.647 -4.25381 -0.472772 0
M  V30 1141 C 101.973 -5.1071 -1.58365 0
M  V30 1142 C 103.273 -5.18831 0.600948 0
M  V30 1143 H 104.967 -2.92927 0.61919 0
M  V30 1144 H 102.513 -1.40857 0.299215 0
M  V30 1145 H 104.466 -3.89002 -1.62036 0
M  V30 1146 H 103.19 -2.67381 -1.8755 0
M  V30 1147 H 101.849 -3.66598 0.0121472 0
M  V30 1148 H 101.497 -4.45533 -2.33473 0
M  V30 1149 H 101.197 -5.7604 -1.15982 0
M  V30 1150 H 102.721 -5.73647 -2.09194 0
M  V30 1151 H 104.135 -5.73019 0.179491 0
M  V30 1152 H 102.532 -5.92595 0.946076 0
M  V30 1153 H 103.602 -4.6174 1.48068 0
M  V30 1154 N 104.945 -0.338344 -1.53925 0
M  V30 1155 C 106.193 0.259245 -2.0043 0
M  V30 1156 C 106.514 1.51484 -1.22791 0
M  V30 1157 O 105.784 1.93037 -0.33368 0
M  V30 1158 H 104.364 0.0987845 -0.740439 0
M  V30 1159 H 107.026 -0.458302 -1.89435 0
M  V30 1160 H 106.122 0.505334 -3.07982 0
M  V30 1161 N 106.423 1.57458 -0.0668435 0
M  V30 1162 C 107.672 1.92477 0.602947 0
M  V30 1163 C 107.985 0.948419 1.71068 0
M  V30 1164 O 109.191 1.19124 2.43971 0
M  V30 1165 C 107.647 3.41903 1.12383 0
M  V30 1166 C 107.255 4.47975 0.04737 0
M  V30 1167 C 108.999 3.85931 1.76797 0
M  V30 1168 C 106.906 5.88529 0.582022 0
M  V30 1169 H 105.836 0.718387 0.22899 0
M  V30 1170 H 108.487 1.82978 -0.138276 0
M  V30 1171 H 106.869 3.46459 1.91787 0
M  V30 1172 H 108.043 4.55029 -0.726978 0
M  V30 1173 H 106.358 4.13384 -0.500243 0
M  V30 1174 H 108.955 4.88322 2.17821 0
M  V30 1175 H 109.298 3.23029 2.62599 0
M  V30 1176 H 109.831 3.83958 1.04024 0
M  V30 1177 H 106.57 6.55065 -0.238721 0
M  V30 1178 H 106.09 5.85004 1.324 0
M  V30 1179 H 107.769 6.38258 1.05999 0
M  V30 1180 N 107.901 -0.206675 1.56239 0
M  V30 1181 C 109.312 -0.772383 1.69974 0
M  V30 1182 C 109.663 -1.84353 0.671436 0
M  V30 1183 O 108.788 -2.15695 -0.174491 0
M  V30 1184 C 109.383 -1.40779 3.08167 0
M  V30 1185 C 107.942 -1.92072 3.23706 0
M  V30 1186 C 107.089 -0.786347 2.65917 0
M  V30 1187 H 110.04 0.0182223 1.5869 0
M  V30 1188 H 110.061 -2.27696 3.04852 0
M  V30 1189 H 109.573 -0.627958 3.82986 0
M  V30 1190 H 107.674 -2.7281 2.53782 0
M  V30 1191 H 107.787 -2.09046 4.31087 0
M  V30 1192 H 106.151 -1.1976 2.24788 0
M  V30 1193 H 106.934 -0.0189416 3.43295 0
M  V30 1194 N 109.379 -1.50304 -0.473955 0
M  V30 1195 C 110.326 -1.68959 -1.57231 0
M  V30 1196 C 111.296 -0.530899 -1.57387 0
M  V30 1197 O 112.481 -0.761133 -1.74961 0
M  V30 1198 C 109.621 -1.7871 -2.95223 0
M  V30 1199 C 108.734 -3.06061 -3.04878 0
M  V30 1200 C 107.869 -3.06626 -4.33767 0
M  V30 1201 C 106.908 -4.28443 -4.37154 0
M  V30 1202 N 106.045 -4.26763 -5.5751 0
M  V30 1203 H 110.885 -2.6273 -1.40631 0
M  V30 1204 H 108.422 -1.30241 -0.683789 0
M  V30 1205 H 110.38 -1.82344 -3.75242 0
M  V30 1206 H 109.01 -0.883806 -3.10465 0
M  V30 1207 H 108.062 -3.11911 -2.17751 0
M  V30 1208 H 109.374 -3.96039 -3.0324 0
M  V30 1209 H 108.528 -3.08973 -5.22131 0
M  V30 1210 H 107.267 -2.14473 -4.3801 0
M  V30 1211 H 106.272 -4.2631 -3.47188 0
M  V30 1212 H 107.497 -5.2182 -4.34605 0
M  V30 1213 H 105.443 -3.37462 -5.62544 0
M  V30 1214 H 105.36 -5.10507 -5.57601 0
M  V30 1215 H 106.628 -4.33253 -6.48006 0
M  V30 1216 N 110.857 0.726932 -1.39834 0
M  V30 1217 C 112.097 1.4992 -1.38936 0
M  V30 1218 C 112.461 1.91996 0.0126883 0
M  V30 1219 O 113.662 2.68399 0.146715 0
M  V30 1220 C 111.933 2.70013 -2.34153 0
M  V30 1221 S 113.492 3.59563 -2.51515 0
M  V30 1222 H 110.31 0.51271 -0.492595 0
M  V30 1223 H 112.912 0.85107 -1.76003 0
M  V30 1224 H 111.616 2.37254 -3.34871 0
M  V30 1225 H 111.147 3.39748 -1.98331 0
M  V30 1226 H 113.162 4.63973 -1.75909 0
M  V30 1227 N 112.336 1.25143 0.95797 0
M  V30 1228 C 113.283 1.05235 2.05412 0
M  V30 1229 C 114.253 -0.0374561 1.66058 0
M  V30 1230 O 115.438 0.119073 1.90428 0
M  V30 1231 C 112.578 0.673589 3.38462 0
M  V30 1232 C 111.691 1.8379 3.90954 0
M  V30 1233 C 110.826 1.40381 5.12315 0
M  V30 1234 C 109.865 2.53746 5.57027 0
M  V30 1235 N 109.002 2.11136 6.69601 0
M  V30 1236 H 113.842 1.99048 2.21774 0
M  V30 1237 H 111.379 0.991277 1.08683 0
M  V30 1238 H 113.337 0.434964 4.14926 0
M  V30 1239 H 111.967 -0.227554 3.21997 0
M  V30 1240 H 111.019 2.18992 3.11041 0
M  V30 1241 H 112.331 2.68937 4.20089 0
M  V30 1242 H 111.485 1.12464 5.96185 0
M  V30 1243 H 110.224 0.523015 4.84887 0
M  V30 1244 H 109.229 2.82412 4.71724 0
M  V30 1245 H 110.454 3.42398 5.86464 0
M  V30 1246 H 108.4 1.25468 6.4389 0
M  V30 1247 H 108.317 2.89832 6.98236 0
M  V30 1248 H 109.585 1.86385 7.56889 0
M  V30 1249 N 113.814 -1.1601 1.06675 0
M  V30 1250 C 115.225 -1.68235 0.809565 0
M  V30 1251 C 115.576 -1.8454 -0.666303 0
M  V30 1252 O 114.701 -1.54374 -1.5165 0
M  V30 1253 C 115.296 -3.05585 1.46299 0
M  V30 1254 C 113.855 -3.54915 1.25349 0
M  V30 1255 C 113.002 -2.30804 1.53703 0
M  V30 1256 H 115.953 -1.00318 1.22971 0
M  V30 1257 H 115.974 -3.70174 0.880431 0
M  V30 1258 H 115.486 -2.93686 2.53713 0
M  V30 1259 H 113.587 -3.72067 0.199261 0
M  V30 1260 H 113.7 -4.36774 1.9689 0
M  V30 1261 H 112.064 -2.36007 0.957739 0
M  V30 1262 H 112.847 -2.21499 2.62284 0
M  V30 1263 N 115.292 -0.849877 -1.32721 0
M  V30 1264 C 116.522 -0.46408 -2.0132 0
M  V30 1265 C 116.93 0.94246 -1.64056 0
M  V30 1266 O 116.273 1.6257 -0.855379 0
M  V30 1267 C 116.335 -0.517887 -3.5575 0
M  V30 1268 C 115.999 -1.88248 -4.16427 0
M  V30 1269 C 116.996 -2.84726 -4.35002 0
M  V30 1270 C 114.681 -2.17832 -4.52609 0
M  V30 1271 C 116.675 -4.08945 -4.8892 0
M  V30 1272 C 114.362 -3.42304 -5.06232 0
M  V30 1273 C 115.36 -4.37677 -5.24335 0
M  V30 1274 O 115.048 -5.59946 -5.76815 0
M  V30 1275 H 114.78 -0.181327 -0.651227 0
M  V30 1276 H 117.334 -1.14713 -1.70382 0
M  V30 1277 H 115.564 0.221997 -3.86062 0
M  V30 1278 H 117.253 -0.148366 -4.05629 0
M  V30 1279 H 118.019 -2.63174 -4.07388 0
M  V30 1280 H 113.898 -1.44385 -4.37806 0
M  V30 1281 H 117.442 -4.83396 -5.02966 0
M  V30 1282 H 113.339 -3.63709 -5.33278 0
M  V30 1283 H 114.107 -5.61838 -5.95214 0
M  V30 1284 N 116.77 1.45427 -0.607355 0
M  V30 1285 C 117.995 2.07124 -0.107006 0
M  V30 1286 C 118.42 1.44906 1.19933 0
M  V30 1287 O 117.778 0.541687 1.73019 0
M  V30 1288 C 117.826 3.60595 0.0194119 0
M  V30 1289 O 116.93 3.98285 1.0697 0
M  V30 1290 H 116.271 0.659868 -0.0739597 0
M  V30 1291 H 118.801 1.86683 -0.837297 0
M  V30 1292 H 118.811 4.07419 0.2177 0
M  V30 1293 H 117.486 4.05266 -0.934453 0
M  V30 1294 H 116.063 3.63133 0.847889 0
M  V30 1295 N 118.248 0.346503 1.53744 0
M  V30 1296 C 119.497 -0.250122 2.00143 0
M  V30 1297 C 119.81 -1.51418 1.23822 0
M  V30 1298 O 121.016 -2.18823 1.60713 0
M  V30 1299 C 119.472 -0.496252 3.56462 0
M  V30 1300 C 119.08 0.752077 4.41642 0
M  V30 1301 C 120.824 -1.05157 4.11269 0
M  V30 1302 C 118.731 0.476583 5.89477 0
M  V30 1303 H 117.661 -0.0972409 0.747703 0
M  V30 1304 H 120.312 0.46229 1.77581 0
M  V30 1305 H 118.694 -1.26944 3.75102 0
M  V30 1306 H 119.868 1.5266 4.34778 0
M  V30 1307 H 118.183 1.22925 3.97842 0
M  V30 1308 H 120.78 -1.27269 5.19333 0
M  V30 1309 H 121.123 -2.00799 3.64672 0
M  V30 1310 H 121.656 -0.339019 3.96353 0
M  V30 1311 H 118.395 1.4028 6.40314 0
M  V30 1312 H 117.915 -0.259794 5.99237 0
M  V30 1313 H 119.594 0.0949315 6.4693 0
M  V30 1314 N 119.726 -1.57421 0.075193 0
M  V30 1315 C 120.659 -2.08528 -0.926904 0
M  V30 1316 C 121.637 -0.991171 -1.28898 0
M  V30 1317 O 122.821 -1.26479 -1.39769 0
M  V30 1318 C 119.948 -2.54576 -2.23402 0
M  V30 1319 C 118.994 -3.75454 -2.02327 0
M  V30 1320 S 119.827 -5.19989 -1.27951 0
M  V30 1321 C 120.983 -5.69372 -2.59935 0
M  V30 1322 H 121.216 -2.932 -0.492048 0
M  V30 1323 H 118.749 -1.53785 -0.137651 0
M  V30 1324 H 120.707 -2.81767 -2.98526 0
M  V30 1325 H 119.368 -1.70166 -2.64012 0
M  V30 1326 H 118.561 -4.05675 -2.99071 0
M  V30 1327 H 118.163 -3.48654 -1.35339 0
M  V30 1328 H 120.455 -5.76424 -3.56008 0
M  V30 1329 H 121.398 -6.68207 -2.34319 0
M  V30 1330 H 121.806 -4.97205 -2.67296 0
M  V30 1331 N 121.204 0.198386 -1.56346 0
M  V30 1332 C 122.167 1.22952 -1.93431 0
M  V30 1333 C 123.167 1.38611 -0.815092 0
M  V30 1334 O 124.357 1.36479 -1.08255 0
M  V30 1335 C 121.489 2.59946 -2.20546 0
M  V30 1336 H 122.682 0.912626 -2.85677 0
M  V30 1337 H 120.235 0.43977 -1.49986 0
M  V30 1338 H 120.97 2.96696 -1.30927 0
M  V30 1339 H 120.755 2.49953 -3.02102 0
M  V30 1340 H 122.245 3.3431 -2.50253 0
M  V30 1341 N 122.682 1.50554 0.465978 0
M  V30 1342 C 123.592 1.72585 1.58907 0
M  V30 1343 C 124.608 0.60911 1.6299 0
M  V30 1344 O 125.784 0.88804 1.80765 0
M  V30 1345 C 122.849 1.81995 2.95091 0
M  V30 1346 C 121.91 3.05751 3.01355 0
M  V30 1347 C 121.143 3.14702 4.31043 0
M  V30 1348 O 121.366 2.30313 5.21835 0
M  V30 1349 O 120.3 4.07468 4.43005 0
M  V30 1350 H 124.126 2.67799 1.43239 0
M  V30 1351 H 121.711 1.34711 0.646013 0
M  V30 1352 H 123.593 1.90335 3.75966 0
M  V30 1353 H 122.268 0.899659 3.10947 0
M  V30 1354 H 121.175 3.02908 2.19539 0
M  V30 1355 H 122.508 3.97375 2.90437 0
M  V30 1356 N 124.16 -0.719506 1.40217 0
M  V30 1357 C 125.385 -1.51371 1.4178 0
M  V30 1358 C 125.81 -1.88091 0.0182355 0
M  V30 1359 O 125.168 -1.52997 -0.972707 0
M  V30 1360 C 125.216 -2.768 2.31115 0
M  V30 1361 O 124.32 -3.73349 1.7517 0
M  V30 1362 H 123.661 -0.456529 0.482159 0
M  V30 1363 H 126.191 -0.88644 1.844 0
M  V30 1364 H 126.201 -3.25371 2.46167 0
M  V30 1365 H 124.876 -2.49407 3.3282 0
M  V30 1366 H 123.453 -3.32179 1.69444 0
M  V30 1367 N 125.638 -1.25649 -0.95132 0
M  V30 1368 C 126.586 -1.06118 -2.06982 0
M  V30 1369 C 127.58 0.00889169 -1.69398 0
M  V30 1370 O 128.786 -0.146988 -1.79399 0
M  V30 1371 H 125.161 -0.326248 -0.677544 0
M  V30 1372 H 127.132 -2.00932 -2.2061 0
M  V30 1373 C 125.881 -0.700145 -3.40578 0
M  V30 1374 H 125.204 -1.51537 -3.69968 0
M  V30 1375 H 126.644 -0.603211 -4.19687 0
M  V30 1376 C 125.103 0.59403 -3.31622 0
M  V30 1377 O 125.633 1.63522 -3.66911 0
M  V30 1378 N 123.839 0.58089 -2.84735 0
M  V30 1379 H 123.386 -0.266783 -2.56215 0
M  V30 1380 H 123.344 1.44695 -2.79125 0
M  V30 1381 N 127.117 1.15442 -1.07289 0
M  V30 1382 C 128.363 1.86489 -0.796846 0
M  V30 1383 C 128.696 1.82078 0.675371 0
M  V30 1384 O 127.971 1.24346 1.4956 0
M  V30 1385 C 128.254 3.35626 -1.30489 0
M  V30 1386 C 128.107 3.48673 -2.84161 0
M  V30 1387 C 129.426 4.30357 -0.920907 0
M  V30 1388 H 126.545 0.677144 -0.290939 0
M  V30 1389 H 129.187 1.35633 -1.33056 0
M  V30 1390 H 127.337 3.79068 -0.850883 0
M  V30 1391 H 129.009 3.14099 -3.37846 0
M  V30 1392 H 127.252 2.90253 -3.22391 0
M  V30 1393 H 127.923 4.53453 -3.14777 0
M  V30 1394 H 130.399 3.94871 -1.3121 0
M  V30 1395 H 129.275 5.33193 -1.30372 0
M  V30 1396 H 129.536 4.4176 0.173226 0
M  V30 1397 N 128.595 0.856903 1.32268 0
M  V30 1398 C 130.006 0.515711 1.79436 0
M  V30 1399 C 130.357 -0.966586 1.70738 0
M  V30 1400 O 129.482 -1.75409 1.26731 0
M  V30 1401 C 130.077 0.929335 3.25805 0
M  V30 1402 C 128.636 0.640006 3.70919 0
M  V30 1403 C 127.783 1.12784 2.53328 0
M  V30 1404 H 130.734 1.04389 1.19535 0
M  V30 1405 H 130.755 0.246633 3.797 0
M  V30 1406 H 130.267 2.00821 3.32103 0
M  V30 1407 H 128.368 -0.428051 3.70133 0
M  V30 1408 H 128.481 1.20788 4.63624 0
M  V30 1409 H 126.845 0.548033 2.48734 0
M  V30 1410 H 127.628 2.21387 2.62379 0
M  V30 1411 N 130.073 -1.45103 0.615059 0
M  V30 1412 C 131.319 -2.02483 0.113347 0
M  V30 1413 C 131.652 -1.48146 -1.25564 0
M  V30 1414 O 130.927 -0.659104 -1.82992 0
M  V30 1415 C 131.21 -3.60005 0.0825278 0
M  V30 1416 C 131.063 -4.2466 1.48271 0
M  V30 1417 C 132.382 -4.35972 -0.601401 0
M  V30 1418 H 129.501 -0.735764 0.0426632 0
M  V30 1419 H 132.143 -1.72868 0.788461 0
M  V30 1420 H 130.293 -3.85367 -0.492378 0
M  V30 1421 H 131.965 -4.10458 2.10527 0
M  V30 1422 H 130.208 -3.82772 2.04127 0
M  V30 1423 H 130.879 -5.336 1.41332 0
M  V30 1424 H 133.355 -4.15947 -0.112666 0
M  V30 1425 H 132.231 -5.45697 -0.592097 0
M  V30 1426 H 132.492 -4.09391 -1.66887 0
M  V30 1427 N 131.551 -0.354651 -1.53558 0
M  V30 1428 C 132.797 0.238797 -2.01389 0
M  V30 1429 C 133.13 1.49309 -1.2418 0
M  V30 1430 O 132.405 1.91638 -0.332457 0
M  V30 1431 C 132.688 0.541771 -3.56001 0
M  V30 1432 C 132.541 -0.725388 -4.43912 0
M  V30 1433 C 133.86 1.34685 -4.18984 0
M  V30 1434 H 130.979 0.0853177 -0.732045 0
M  V30 1435 H 133.621 -0.477384 -1.83905 0
M  V30 1436 H 131.771 1.15189 -3.71031 0
M  V30 1437 H 133.443 -1.36313 -4.407 0
M  V30 1438 H 131.686 -1.34801 -4.12324 0
M  V30 1439 H 132.357 -0.468505 -5.50008 0
M  V30 1440 H 134.833 0.830837 -4.07721 0
M  V30 1441 H 133.709 1.52759 -5.27215 0
M  V30 1442 H 133.97 2.35221 -3.74331 0
M  V30 1443 N 133.029 1.57378 -0.0835403 0
M  V30 1444 C 133.962 2.09016 0.915833 0
M  V30 1445 C 134.94 0.997993 1.2837 0
M  V30 1446 O 136.124 1.27219 1.39096 0
M  V30 1447 C 133.251 2.55757 2.22049 0
M  V30 1448 C 132.297 3.76522 2.00333 0
M  V30 1449 S 133.13 5.20661 1.25191 0
M  V30 1450 C 134.286 5.70743 2.56912 0
M  V30 1451 H 134.519 2.93457 0.476492 0
M  V30 1452 H 132.052 1.53856 0.129493 0
M  V30 1453 H 134.01 2.83346 2.97027 0
M  V30 1454 H 132.671 1.71564 2.63106 0
M  V30 1455 H 131.864 4.07256 2.96916 0
M  V30 1456 H 131.466 3.49367 1.33488 0
M  V30 1457 H 133.758 5.78304 3.52946 0
M  V30 1458 H 134.701 6.6944 2.30772 0
M  V30 1459 H 135.109 4.98616 2.64655 0
M  V30 1460 N 134.507 -0.190092 1.56449 0
M  V30 1461 C 135.439 -1.25973 1.91477 0
M  V30 1462 C 136.452 -1.41452 0.805931 0
M  V30 1463 O 137.641 -1.41789 1.08435 0
M  V30 1464 C 134.741 -2.63117 2.13594 0
M  V30 1465 C 133.914 -2.69182 3.4476 0
M  V30 1466 C 132.973 -3.87557 3.5593 0
M  V30 1467 O 131.999 -3.74427 4.28711 0
M  V30 1468 N 133.201 -5.03224 2.89388 0
M  V30 1469 H 135.966 -0.962394 2.83828 0
M  V30 1470 H 133.527 -0.379981 1.57378 0
M  V30 1471 H 135.519 -3.40742 2.1835 0
M  V30 1472 H 134.089 -2.85319 1.27719 0
M  V30 1473 H 133.309 -1.77793 3.51828 0
M  V30 1474 H 134.597 -2.70229 4.31107 0
M  V30 1475 H 133.995 -5.16791 2.30094 0
M  V30 1476 H 132.552 -5.78778 2.99764 0
M  V30 1477 N 135.985 -1.50799 -0.457987 0
M  V30 1478 C 136.915 -1.73553 -1.5621 0
M  V30 1479 C 137.896 -0.584774 -1.59732 0
M  V30 1480 O 139.081 -0.825314 -1.7579 0
M  V30 1481 C 136.211 -1.84169 -2.94447 0
M  V30 1482 C 135.165 -2.99461 -3.0579 0
M  V30 1483 C 134.491 -2.95235 -4.45803 0
M  V30 1484 C 135.791 -4.39766 -2.81786 0
M  V30 1485 H 137.485 -2.66 -1.37421 0
M  V30 1486 H 135.031 -1.28002 -0.659662 0
M  V30 1487 H 136.984 -1.98672 -3.71628 0
M  V30 1488 H 135.708 -0.883545 -3.14422 0
M  V30 1489 H 134.367 -2.8463 -2.31044 0
M  V30 1490 H 134.015 -1.97239 -4.62715 0
M  V30 1491 H 133.715 -3.72642 -4.54326 0
M  V30 1492 H 135.239 -3.11803 -5.24987 0
M  V30 1493 H 136.653 -4.55054 -3.4871 0
M  V30 1494 H 135.05 -5.18722 -3.0174 0
M  V30 1495 H 136.12 -4.51229 -1.7754 0
M  V30 1496 N 137.463 0.71206 -1.40597 0
M  V30 1497 C 138.688 1.50617 -1.42581 0
M  V30 1498 C 139.113 1.88079 -0.0282102 0
M  V30 1499 O 138.471 1.53511 0.964579 0
M  V30 1500 C 138.519 2.7557 -2.3258 0
M  V30 1501 O 137.623 3.72414 -1.77148 0
M  V30 1502 H 136.964 0.453966 -0.484573 0
M  V30 1503 H 139.494 0.876649 -1.84868 0
M  V30 1504 H 139.504 3.2406 -2.47889 0
M  V30 1505 H 138.179 2.47639 -3.34138 0
M  V30 1506 H 136.756 3.31276 -1.71204 0
M  V30 1507 N 138.941 1.26152 0.944643 0
M  V30 1508 C 140.357 1.03189 1.21754 0
M  V30 1509 C 140.557 -0.245112 2.00004 0
M  V30 1510 O 139.613 -0.955176 2.33736 0
M  V30 1511 C 140.926 2.26119 1.98219 0
M  V30 1512 C 142.474 2.30984 2.11224 0
M  V30 1513 C 142.949 3.53597 2.91089 0
M  V30 1514 N 144.44 3.54053 2.98664 0
M  V30 1515 C 145.175 4.45593 3.60881 0
M  V30 1516 N 144.671 5.47416 4.24626 0
M  V30 1517 N 146.464 4.33252 3.58119 0
M  V30 1518 H 138.615 2.08177 0.421437 0
M  V30 1519 H 140.878 0.914723 0.248969 0
M  V30 1520 H 140.584 3.18984 1.48128 0
M  V30 1521 H 140.458 2.3009 2.98895 0
M  V30 1522 H 142.845 1.38635 2.60508 0
M  V30 1523 H 142.926 2.31026 1.09821 0
M  V30 1524 H 142.57 4.46273 2.42493 0
M  V30 1525 H 142.5 3.50802 3.92741 0
M  V30 1526 H 144.991 2.80403 2.53343 0
M  V30 1527 H 145.304 6.13459 4.69987 0
M  V30 1528 H 143.649 5.51278 4.23223 0
M  V30 1529 H 146.84 3.52924 3.0751 0
M  V30 1530 H 147.013 5.04786 4.06319 0
M  V30 1531 N 140.419 -1.14872 1.07899 0
M  V30 1532 C 141.349 -2.2193 0.725887 0
M  V30 1533 C 142.33 -1.67622 -0.28927 0
M  V30 1534 O 143.515 -1.93533 -0.160787 0
M  V30 1535 C 140.645 -3.47061 0.128856 0
M  V30 1536 C 139.599 -4.14363 1.07178 0
M  V30 1537 C 138.925 -5.33636 0.337229 0
M  V30 1538 C 140.225 -4.63492 2.40775 0
M  V30 1539 H 141.919 -2.51724 1.62097 0
M  V30 1540 H 139.465 -1.20991 0.780838 0
M  V30 1541 H 141.418 -4.21199 -0.130147 0
M  V30 1542 H 140.142 -3.16617 -0.80134 0
M  V30 1543 H 138.801 -3.42173 1.3158 0
M  V30 1544 H 138.449 -4.99449 -0.596606 0
M  V30 1545 H 138.149 -5.79609 0.965788 0
M  V30 1546 H 139.673 -6.10539 0.0861567 0
M  V30 1547 H 141.087 -5.2913 2.20669 0
M  V30 1548 H 139.484 -5.20148 2.99276 0
M  V30 1549 H 140.554 -3.78834 3.02676 0
M  V30 1550 N 141.898 -0.863906 -1.31812 0
M  V30 1551 C 143.175 -0.39275 -1.91616 0
M  V30 1552 C 143.555 1.12461 -1.7865 0
M  V30 1553 O 142.903 1.95045 -1.19037 0
M  V30 1554 C 143.113 -0.867385 -3.38049 0
M  V30 1555 C 144.461 -0.889966 -4.15168 0
M  V30 1556 O 145.485 -0.812635 -3.46806 0
M  V30 1557 O 144.344 -1.00079 -5.37258 0
M  V30 1558 H 141.438 -0.116358 -0.818773 0
M  V30 1559 H 143.984 -0.951418 -1.40521 0
M  V30 1560 H 142.756 -1.91081 -3.41473 0
M  V30 1561 H 142.379 -0.286687 -3.96565 0
M  V30 1562 N 143.376 1.44774 -0.622745 0
M  V30 1563 C 144.622 2.0242 -0.124083 0
M  V30 1564 C 144.955 1.4881 1.24777 0
M  V30 1565 O 144.23 0.668799 1.8264 0
M  V30 1566 C 144.513 3.59957 -0.101619 0
M  V30 1567 C 144.366 4.23867 -1.50521 0
M  V30 1568 C 145.685 4.36284 0.578272 0
M  V30 1569 H 142.804 0.735528 -0.0465645 0
M  V30 1570 H 145.446 1.72447 -0.797617 0
M  V30 1571 H 143.596 3.85623 0.471934 0
M  V30 1572 H 145.268 4.09336 -2.12701 0
M  V30 1573 H 143.511 3.81684 -2.06154 0
M  V30 1574 H 144.182 5.32843 -1.4416 0
M  V30 1575 H 146.658 4.16001 0.0906057 0
M  V30 1576 H 145.534 5.46004 0.563149 0
M  V30 1577 H 145.795 4.10271 1.64713 0
M  V30 1578 N 144.854 0.36279 1.53368 0
M  V30 1579 C 146.102 -0.227326 2.00817 0
M  V30 1580 C 146.423 -1.49511 1.25186 0
M  V30 1581 O 145.693 -1.92482 0.364348 0
M  V30 1582 H 144.273 -0.0869923 0.741917 0
M  V30 1583 H 146.935 0.488381 1.88682 0
M  V30 1584 H 146.031 -0.456273 3.08747 0
M  V30 1585 N 146.332 -1.57332 0.0918853 0
M  V30 1586 C 147.279 -2.13847 -0.868211 0
M  V30 1587 C 148.249 -1.05618 -1.28196 0
M  V30 1588 O 149.434 -1.33387 -1.36427 0
M  V30 1589 C 146.574 -2.72062 -2.12312 0
M  V30 1590 C 145.687 -3.94514 -1.7602 0
M  V30 1591 C 144.822 -4.40903 -2.96273 0
M  V30 1592 C 143.861 -5.55953 -2.56092 0
M  V30 1593 N 142.998 -5.97209 -3.69169 0
M  V30 1594 H 147.838 -2.95575 -0.379406 0
M  V30 1595 H 145.375 -1.46048 -0.175606 0
M  V30 1596 H 147.333 -3.03931 -2.858 0
M  V30 1597 H 145.963 -1.93068 -2.58698 0
M  V30 1598 H 145.015 -3.68979 -0.925135 0
M  V30 1599 H 146.327 -4.7802 -1.42472 0
M  V30 1600 H 145.481 -4.74539 -3.78018 0
M  V30 1601 H 144.22 -3.56291 -3.33029 0
M  V30 1602 H 143.225 -5.21948 -1.72773 0
M  V30 1603 H 144.45 -6.42311 -2.20484 0
M  V30 1604 H 142.396 -5.15543 -4.05649 0
M  V30 1605 H 142.313 -6.75504 -3.39456 0
M  V30 1606 H 143.581 -6.35475 -4.51434 0
M  V30 1607 N 147.81 0.181792 -1.56548 0
M  V30 1608 C 148.758 1.24461 -1.965 0
M  V30 1609 C 149.752 1.464 -0.852261 0
M  V30 1610 O 150.958 1.47103 -1.03733 0
M  V30 1611 H 147.333 0.418138 -0.625031 0
M  V30 1612 H 149.304 0.880714 -2.85107 0
M  V30 1613 C 148.053 2.57891 -2.33212 0
M  V30 1614 H 147.376 2.41829 -3.18369 0
M  V30 1615 H 148.816 3.3097 -2.65019 0
M  V30 1616 C 147.275 3.15871 -1.17163 0
M  V30 1617 O 147.805 3.9913 -0.453708 0
M  V30 1618 N 146.011 2.74808 -0.944936 0
M  V30 1619 H 145.558 2.07205 -1.53049 0
M  V30 1620 H 145.516 3.13939 -0.170286 0
M  V30 1621 N 149.288 1.51039 0.449983 0
M  V30 1622 C 150.238 1.67824 1.54335 0
M  V30 1623 C 151.222 0.5324 1.51836 0
M  V30 1624 O 152.414 0.787762 1.58503 0
M  V30 1625 C 149.543 1.7951 2.92628 0
M  V30 1626 C 148.629 2.99838 2.9993 0
M  V30 1627 N 149.02 4.23207 2.77001 0
M  V30 1628 C 147.318 2.98832 3.31082 0
M  V30 1629 C 148.019 5.04361 2.89818 0
M  V30 1630 N 146.995 4.38746 3.2094 0
M  V30 1631 H 150.797 2.60884 1.35339 0
M  V30 1632 H 148.311 1.48513 0.657085 0
M  V30 1633 H 150.308 1.89642 3.7127 0
M  V30 1634 H 148.968 0.876227 3.12654 0
M  V30 1635 H 149.979 4.5236 2.52172 0
M  V30 1636 H 146.656 2.16527 3.56963 0
M  V30 1637 H 148.046 6.12528 2.76151 0
M  V30 1638 N 150.766 -0.704594 1.40972 0
M  V30 1639 C 151.996 -1.49138 1.42974 0
M  V30 1640 C 152.404 -1.89175 0.0308406 0
M  V30 1641 O 151.747 -1.56734 -0.958138 0
M  V30 1642 C 151.809 -2.79016 2.26694 0
M  V30 1643 C 151.473 -2.61236 3.74973 0
M  V30 1644 C 152.47 -2.27773 4.67349 0
M  V30 1645 C 150.155 -2.77158 4.18914 0
M  V30 1646 C 152.149 -2.10457 6.01653 0
M  V30 1647 C 149.836 -2.59459 5.53285 0
M  V30 1648 C 150.834 -2.26158 6.4447 0
M  V30 1649 O 150.522 -2.08605 7.76363 0
M  V30 1650 H 150.254 -0.466443 0.489292 0
M  V30 1651 H 152.808 -0.8758 1.85793 0
M  V30 1652 H 151.038 -3.42947 1.78673 0
M  V30 1653 H 152.727 -3.40782 2.20504 0
M  V30 1654 H 153.493 -2.15095 4.34694 0
M  V30 1655 H 149.372 -3.02064 3.48251 0
M  V30 1656 H 152.916 -1.84387 6.72791 0
M  V30 1657 H 148.813 -2.71725 5.85522 0
M  V30 1658 H 149.581 -2.23439 7.87412 0
M  V30 1659 N 152.244 -1.26651 -0.937939 0
M  V30 1660 C 153.472 -1.15173 -1.7188 0
M  V30 1661 C 153.887 0.292668 -1.86518 0
M  V30 1662 O 153.244 1.20014 -1.37488 0
M  V30 1663 C 153.295 -1.81925 -3.12387 0
M  V30 1664 O 153.016 -3.2072 -2.98446 0
M  V30 1665 C 154.517 -1.76442 -4.06673 0
M  V30 1666 H 151.737 -0.400911 -0.538063 0
M  V30 1667 H 154.281 -1.67332 -1.1756 0
M  V30 1668 H 152.436 -1.33696 -3.63599 0
M  V30 1669 H 152.85 -3.53802 -3.872 0
M  V30 1670 H 154.324 -2.27781 -5.02812 0
M  V30 1671 H 154.801 -0.731608 -4.33064 0
M  V30 1672 H 155.407 -2.24238 -3.61382 0
M  V30 1673 N 153.722 1.14298 -1.08507 0
M  V30 1674 C 154.652 2.21542 -0.737646 0
M  V30 1675 C 155.633 1.67773 0.280377 0
M  V30 1676 O 156.818 1.93616 0.150521 0
M  V30 1677 C 153.948 3.46988 -0.147259 0
M  V30 1678 C 152.902 4.13789 -1.09374 0
M  V30 1679 C 152.228 5.33449 -0.365524 0
M  V30 1680 C 153.528 4.62208 -2.4323 0
M  V30 1681 H 155.222 2.5086 -1.6343 0
M  V30 1682 H 152.768 1.20576 -0.787243 0
M  V30 1683 H 154.721 4.21262 0.107808 0
M  V30 1684 H 153.445 3.17037 0.784538 0
M  V30 1685 H 152.104 3.4147 -1.33393 0
M  V30 1686 H 151.752 4.99759 0.57011 0
M  V30 1687 H 151.452 5.79088 -0.996512 0
M  V30 1688 H 152.976 6.10485 -0.118534 0
M  V30 1689 H 154.39 5.27952 -2.23472 0
M  V30 1690 H 152.787 5.18553 -3.02031 0
M  V30 1691 H 153.857 3.77224 -3.04681 0
M  V30 1692 N 155.201 0.870884 1.31352 0
M  V30 1693 C 156.134 0.271983 2.26573 0
M  V30 1694 C 157.112 -0.599385 1.51149 0
M  V30 1695 O 158.296 -0.552605 1.80218 0
M  V30 1696 C 155.423 -0.614801 3.33073 0
M  V30 1697 C 154.469 0.185342 4.26097 0
M  V30 1698 S 155.302 1.56444 5.12138 0
M  V30 1699 C 156.458 0.683807 6.22153 0
M  V30 1700 H 156.691 1.07916 2.77023 0
M  V30 1701 H 154.224 0.669459 1.39132 0
M  V30 1702 H 156.182 -1.12074 3.94905 0
M  V30 1703 H 154.843 -1.39593 2.81376 0
M  V30 1704 H 154.036 -0.490771 5.01605 0
M  V30 1705 H 153.638 0.623415 3.68768 0
M  V30 1706 H 155.93 -0.10521 6.77418 0
M  V30 1707 H 156.873 1.41004 6.93919 0
M  V30 1708 H 157.281 0.250952 5.63942 0
M  V30 1709 N 156.679 -1.44442 0.630414 0
M  V30 1710 C 157.907 -2.06414 0.141671 0
M  V30 1711 C 158.322 -1.47105 -1.18345 0
M  V30 1712 O 157.679 -0.593662 -1.72574 0
M  V30 1713 C 157.73 -3.61494 0.0199784 0
M  V30 1714 O 157.451 -4.18594 1.29269 0
M  V30 1715 C 158.952 -4.40499 -0.497544 0
M  V30 1716 H 156.172 -0.666292 0.0793452 0
M  V30 1717 H 158.716 -1.85323 0.864614 0
M  V30 1718 H 156.871 -3.8185 -0.653402 0
M  V30 1719 H 157.285 -5.12026 1.13707 0
M  V30 1720 H 158.759 -5.49433 -0.531708 0
M  V30 1721 H 159.236 -4.11895 -1.52445 0
M  V30 1722 H 159.842 -4.25061 0.142562 0
M  V30 1723 N 158.157 -0.370918 -1.53173 0
M  V30 1724 C 159.385 0.217704 -2.05751 0
M  V30 1725 C 159.8 1.42018 -1.24404 0
M  V30 1726 O 159.157 1.80245 -0.286033 0
M  V30 1727 C 159.208 0.605954 -3.56385 0
M  V30 1728 O 158.929 -0.548734 -4.3465 0
M  V30 1729 C 160.43 1.2524 -4.25241 0
M  V30 1730 H 157.65 0.0371659 -0.66997 0
M  V30 1731 H 160.194 -0.530832 -1.9749 0
M  V30 1732 H 158.349 1.3044 -3.6478 0
M  V30 1733 H 158.763 -0.23376 -5.23979 0
M  V30 1734 H 160.237 1.47458 -5.3194 0
M  V30 1735 H 160.714 2.2143 -3.79296 0
M  V30 1736 H 161.32 0.595233 -4.21114 0
M  V30 1737 N 159.635 1.57281 -0.100228 0
M  V30 1738 C 160.884 1.93713 0.561984 0
M  V30 1739 C 161.197 0.984492 1.69018 0
M  V30 1740 O 162.403 1.24273 2.41389 0
M  V30 1741 C 160.859 3.4421 1.05106 0
M  V30 1742 C 160.467 4.47975 -0.0476628 0
M  V30 1743 C 162.211 3.89595 1.68571 0
M  V30 1744 C 160.118 5.89631 0.457055 0
M  V30 1745 H 159.048 0.723082 0.2137 0
M  V30 1746 H 161.699 1.82644 -0.177057 0
M  V30 1747 H 160.081 3.50449 1.84395 0
M  V30 1748 H 161.255 4.53385 -0.823333 0
M  V30 1749 H 159.57 4.1223 -0.587816 0
M  V30 1750 H 162.167 4.92832 2.07414 0
M  V30 1751 H 162.51 3.28526 2.55688 0
M  V30 1752 H 163.043 3.86078 0.958562 0
M  V30 1753 H 159.782 6.54411 -0.377616 0
M  V30 1754 H 159.302 5.87681 1.19962 0
M  V30 1755 H 160.981 6.40363 0.92437 0
M  V30 1756 N 161.113 -0.173488 1.56642 0
M  V30 1757 C 162.361 -0.888706 1.81512 0
M  V30 1758 C 162.682 -1.82875 0.676872 0
M  V30 1759 O 161.952 -1.93536 -0.303414 0
M  V30 1760 H 160.532 -0.331164 0.669582 0
M  V30 1761 H 163.194 -0.173823 1.94123 0
M  V30 1762 H 162.29 -1.46691 2.75478 0
M  V30 1763 N 162.591 -1.51276 -0.441967 0
M  V30 1764 C 163.821 -1.67273 -1.21257 0
M  V30 1765 C 164.229 -0.367624 -1.85594 0
M  V30 1766 O 163.572 0.663349 -1.71305 0
M  V30 1767 C 163.634 -2.72807 -2.34129 0
M  V30 1768 C 163.298 -4.1554 -1.90198 0
M  V30 1769 C 164.295 -5.00471 -1.40801 0
M  V30 1770 C 161.98 -4.61616 -1.9803 0
M  V30 1771 C 163.974 -6.29536 -0.998174 0
M  V30 1772 C 161.661 -5.90679 -1.56658 0
M  V30 1773 C 162.659 -6.74466 -1.07633 0
M  V30 1774 O 162.347 -8.01116 -0.668459 0
M  V30 1775 H 162.079 -0.564614 -0.371734 0
M  V30 1776 H 164.633 -1.9843 -0.530521 0
M  V30 1777 H 162.863 -2.36954 -3.05597 0
M  V30 1778 H 164.552 -2.77729 -2.96009 0
M  V30 1779 H 165.318 -4.66079 -1.34148 0
M  V30 1780 H 161.197 -3.96526 -2.35135 0
M  V30 1781 H 164.741 -6.94885 -0.61482 0
M  V30 1782 H 160.638 -6.24586 -1.62979 0
M  V30 1783 H 161.406 -8.14633 -0.794722 0
M  V30 1784 N 164.069 0.697108 -1.41344 0
M  V30 1785 C 165.315 1.45796 -1.41828 0
M  V30 1786 C 165.67 1.92382 -0.0261743 0
M  V30 1787 O 164.963 1.66522 0.947688 0
M  V30 1788 C 165.157 2.68553 -2.35826 0
M  V30 1789 C 164.986 2.33975 -3.84039 0
M  V30 1790 C 163.756 2.24414 -4.52732 0
M  V30 1791 C 165.954 1.97048 -4.75054 0
M  V30 1792 N 163.936 1.82705 -5.86082 0
M  V30 1793 C 165.307 1.66086 -5.9734 0
M  V30 1794 C 167.362 1.83845 -4.62715 0
M  V30 1795 C 166.065 1.23246 -7.08663 0
M  V30 1796 C 168.091 1.4241 -5.73998 0
M  V30 1797 C 167.453 1.12357 -6.95381 0
M  V30 1798 H 163.552 0.530859 -0.574206 0
M  V30 1799 H 166.136 0.806674 -1.77203 0
M  V30 1800 H 164.307 3.31404 -2.02549 0
M  V30 1801 H 166.039 3.35015 -2.2704 0
M  V30 1802 H 162.794 2.4276 -4.0665 0
M  V30 1803 H 163.218 1.64337 -6.56751 0
M  V30 1804 H 167.86 2.05734 -3.69369 0
M  V30 1805 H 165.578 1.00102 -8.01876 0
M  V30 1806 H 169.164 1.32746 -5.66454 0
M  V30 1807 H 168.044 0.807795 -7.80028 0
M  V30 1808 N 165.547 1.27147 0.931209 0
M  V30 1809 C 166.457 1.11372 2.06478 0
M  V30 1810 C 167.473 0.044645 1.73943 0
M  V30 1811 O 168.649 0.250417 1.99837 0
M  V30 1812 C 165.714 0.758838 3.38294 0
M  V30 1813 C 164.775 1.90841 3.84549 0
M  V30 1814 C 164.008 1.57036 5.10074 0
M  V30 1815 O 164.231 0.476645 5.68405 0
M  V30 1816 O 163.165 2.40839 5.51616 0
M  V30 1817 H 166.991 2.06493 2.22698 0
M  V30 1818 H 164.576 1.06301 1.04978 0
M  V30 1819 H 166.458 0.574098 4.17471 0
M  V30 1820 H 165.133 -0.162879 3.2329 0
M  V30 1821 H 164.04 2.14819 3.06274 0
M  V30 1822 H 165.373 2.81021 4.04089 0
M  V30 1823 N 167.025 -1.13721 1.09112 0
M  V30 1824 C 167.935 -2.22638 0.73957 0
M  V30 1825 C 168.951 -1.72091 -0.257068 0
M  V30 1826 O 170.127 -2.01155 -0.0992154 0
M  V30 1827 C 167.192 -3.46322 0.16191 0
M  V30 1828 C 166.253 -4.11775 1.21408 0
M  V30 1829 C 165.486 -5.29555 0.663891 0
M  V30 1830 O 165.709 -5.68077 -0.514274 0
M  V30 1831 O 164.643 -5.84973 1.41738 0
M  V30 1832 H 168.469 -2.55074 1.64836 0
M  V30 1833 H 166.054 -1.21791 0.865289 0
M  V30 1834 H 167.936 -4.21107 -0.157073 0
M  V30 1835 H 166.611 -3.15593 -0.719932 0
M  V30 1836 H 165.518 -3.3883 1.58571 0
M  V30 1837 H 166.851 -4.46627 2.06845 0
M  V30 1838 O 168.542 -1.01112 -1.25931 0
M  V30 1839 H 169.233 -0.668764 -1.81789 0
M  V30 END ATOM
M  V30 BEGIN BOND
M  V30 END BOND
M  V30 END CTAB
M  END
$$$$
