drugbank_target|P11409 Modification methylase PvuII (DB01752)
 OpenBabel12092120223D

  0  0  0     0  0            999 V3000
M  V30 BEGIN CTAB
M  V30 COUNTS 5389 5460 0 0 0
M  V30 BEGIN ATOM
M  V30 1 H -0.908 1.98254 -0.117106 0
M  V30 2 N 0 1.576 0 0
M  V30 3 C 0.933 2.03868 1.02534 0
M  V30 4 C 1.911 0.928543 1.3348 0
M  V30 5 O 3.095 1.19667 1.45644 0
M  V30 6 C 0.222 2.43627 2.35294 0
M  V30 7 C -0.732 3.65373 2.2001 0
M  V30 8 S 0.101 5.13292 1.52614 0
M  V30 9 C 1.257 5.56322 2.86805 0
M  V30 10 H 1.49 2.90518 0.631377 0
M  V30 11 H -0.977 1.52953 0.210867 0
M  V30 12 H 0.981 2.67203 3.11629 0
M  V30 13 H -0.358 1.57376 2.7183 0
M  V30 14 H -1.165 3.90944 3.18086 0
M  V30 15 H -1.563 3.418 1.51819 0
M  V30 16 H 0.729 5.58782 3.83104 0
M  V30 17 H 1.672 6.56266 2.65933 0
M  V30 18 H 2.08 4.83886 2.90714 0
M  V30 19 N 1.4781 -0.272755 1.55222 0
M  V30 20 C 2.4111 -1.3627 1.83046 0
M  V30 21 C 3.3891 -1.47536 0.683521 0
M  V30 22 O 4.5731 -1.64157 0.926545 0
M  V30 23 C 1.7001 -2.73908 1.99229 0
M  V30 24 C 0.7461 -2.79925 3.21783 0
M  V30 25 S 1.5791 -2.39146 4.79134 0
M  V30 26 C 2.7351 -3.78758 4.9829 0
M  V30 27 H 2.9681 -1.12464 2.75207 0
M  V30 28 H 0.5011 -0.472398 1.46996 0
M  V30 29 H 2.4591 -3.53171 2.09238 0
M  V30 30 H 1.1201 -2.94965 1.07956 0
M  V30 31 H 0.3131 -3.80946 3.29994 0
M  V30 32 H -0.0849 -2.08683 3.10367 0
M  V30 33 H 2.2071 -4.7403 4.84047 0
M  V30 34 H 3.1501 -3.75499 6.00338 0
M  V30 35 H 3.5581 -3.70072 4.26271 0
M  V30 36 N 2.9562 -1.48159 -0.537278 0
M  V30 37 C 4.1842 -1.59454 -1.31841 0
M  V30 38 C 4.5992 -0.252065 -1.8711 0
M  V30 39 O 3.9562 0.757621 -1.66031 0
M  V30 40 C 4.0072 -2.63546 -2.47439 0
M  V30 41 O 3.7282 -3.92583 -1.94449 0
M  V30 42 C 5.2292 -2.85212 -3.39366 0
M  V30 43 H 2.4492 -0.53785 -0.401196 0
M  V30 44 H 4.9932 -1.93932 -0.648891 0
M  V30 45 H 3.1482 -2.31946 -3.1029 0
M  V30 46 H 3.5622 -4.49629 -2.70063 0
M  V30 47 H 5.0362 -3.61863 -4.16844 0
M  V30 48 H 5.5132 -1.93765 -3.94147 0
M  V30 49 H 6.1192 -3.18086 -2.82314 0
M  V30 50 N 4.4343 0.785586 -1.36625 0
M  V30 51 C 5.3643 1.91259 -1.33949 0
M  V30 52 C 6.3453 1.68795 -0.210325 0
M  V30 53 O 7.5303 1.89854 -0.408561 0
M  V30 54 C 4.6603 3.28339 -1.13186 0
M  V30 55 C 3.6143 3.65335 -2.22967 0
M  V30 56 C 2.9403 5.00806 -1.87342 0
M  V30 57 C 4.2403 3.7352 -3.65075 0
M  V30 58 H 5.9343 1.93755 -2.28253 0
M  V30 59 H 3.4803 0.930788 -1.09874 0
M  V30 60 H 5.4333 4.06804 -1.09948 0
M  V30 61 H 4.1573 3.2624 -0.153332 0
M  V30 62 H 2.8163 2.89169 -2.25337 0
M  V30 63 H 2.4643 4.95233 -0.880545 0
M  V30 64 H 2.1643 5.26529 -2.60846 0
M  V30 65 H 3.6883 5.81687 -1.85667 0
M  V30 66 H 5.1023 4.42168 -3.64911 0
M  V30 67 H 3.4993 4.10731 -4.37516 0
M  V30 68 H 4.5693 2.74527 -3.99703 0
M  V30 69 N 5.9124 1.20967 1.01018 0
M  V30 70 C 6.8604 0.961223 2.1181 0
M  V30 71 C 7.8544 -0.0897034 1.69162 0
M  V30 72 O 9.0604 0.0612271 1.79896 0
M  V30 73 H 5.4354 0.29355 0.692338 0
M  V30 74 H 7.4064 1.90178 2.29946 0
M  V30 75 C 6.1554 0.536854 3.4353 0
M  V30 76 H 5.4784 1.33713 3.76777 0
M  V30 77 H 6.9184 0.402286 4.22087 0
M  V30 78 C 5.3774 -0.751574 3.2841 0
M  V30 79 O 5.9074 -1.80841 3.58691 0
M  V30 80 N 4.1134 -0.716079 2.81639 0
M  V30 81 H 3.6604 0.144236 2.57196 0
M  V30 82 H 3.6184 -1.57847 2.71904 0
M  V30 83 N 7.3905 -1.2043 1.01659 0
M  V30 84 C 8.3205 -2.25466 0.607226 0
M  V30 85 C 9.3015 -1.65853 -0.377716 0
M  V30 86 O 10.4865 -1.92409 -0.263149 0
M  V30 87 C 7.6165 -3.47256 -0.0552949 0
M  V30 88 C 6.5705 -4.19462 0.850632 0
M  V30 89 C 5.8965 -5.34673 0.0538859 0
M  V30 90 C 7.1965 -4.75603 2.15868 0
M  V30 91 H 8.8905 -2.59962 1.48526 0
M  V30 92 H 6.4365 -1.2496 0.715605 0
M  V30 93 H 8.3895 -4.19917 -0.353233 0
M  V30 94 H 7.1135 -3.11924 -0.968045 0
M  V30 95 H 5.7725 -3.48667 1.13257 0
M  V30 96 H 5.4205 -4.95585 -0.860514 0
M  V30 97 H 5.1205 -5.83913 0.657192 0
M  V30 98 H 6.6445 -6.10138 -0.237598 0
M  V30 99 H 8.0585 -5.40083 1.92311 0
M  V30 100 H 6.4555 -5.3528 2.71284 0
M  V30 101 H 7.5255 -3.94346 2.82169 0
M  V30 102 N 8.8686 -0.792821 -1.36206 0
M  V30 103 C 9.8006 -0.151469 -2.28699 0
M  V30 104 C 10.8136 0.641262 -1.49638 0
M  V30 105 O 12.0026 0.475885 -1.72039 0
M  V30 106 C 9.1026 0.808424 -3.29117 0
M  V30 107 C 8.2756 0.0650202 -4.37352 0
M  V30 108 C 7.3346 0.941358 -5.17711 0
M  V30 109 O 6.3606 0.397352 -5.67811 0
M  V30 110 N 7.5626 2.2652 -5.3448 0
M  V30 111 H 10.3276 -0.945982 -2.84379 0
M  V30 112 H 7.8886 -0.647032 -1.48409 0
M  V30 113 H 9.8806 1.3986 -3.79765 0
M  V30 114 H 8.4506 1.5038 -2.74052 0
M  V30 115 H 7.6706 -0.706255 -3.87822 0
M  V30 116 H 8.9586 -0.447847 -5.06825 0
M  V30 117 H 8.3566 2.73128 -4.95396 0
M  V30 118 H 6.9136 2.80493 -5.88359 0
M  V30 119 N 10.3467 1.47872 -0.545128 0
M  V30 120 C 11.5747 2.06889 -0.021084 0
M  V30 121 C 11.9897 1.39955 1.2672 0
M  V30 122 O 11.3467 0.492036 1.75742 0
M  V30 123 C 11.3977 3.60996 0.190817 0
M  V30 124 O 11.1187 4.25419 -1.04644 0
M  V30 125 C 12.6197 4.36849 0.753521 0
M  V30 126 H 9.8397 0.669785 -0.0403635 0
M  V30 127 H 12.3837 1.90049 -0.755095 0
M  V30 128 H 10.5387 3.77391 0.87492 0
M  V30 129 H 10.9527 5.17785 -0.836611 0
M  V30 130 H 12.4267 5.45399 0.851139 0
M  V30 131 H 12.9037 4.02306 1.762 0
M  V30 132 H 13.5097 4.25169 0.105503 0
M  V30 133 N 11.8248 0.280983 1.55075 0
M  V30 134 C 12.7578 -0.645439 2.18882 0
M  V30 135 C 13.7358 -1.14786 1.15165 0
M  V30 136 O 14.9198 -1.21975 1.43716 0
M  V30 137 C 12.0468 -1.88088 2.81674 0
M  V30 138 C 11.0928 -1.51343 3.98745 0
M  V30 139 S 11.9258 -0.586548 5.32278 0
M  V30 140 C 13.0818 -1.83024 5.98543 0
M  V30 141 H 13.3148 -0.1033 2.9712 0
M  V30 142 H 10.8478 0.0652099 1.54262 0
M  V30 143 H 12.8058 -2.58997 3.18482 0
M  V30 144 H 11.4668 -2.39417 2.03318 0
M  V30 145 H 10.6598 -2.43289 4.41392 0
M  V30 146 H 10.2618 -0.884477 3.63391 0
M  V30 147 H 12.5538 -2.77342 6.18133 0
M  V30 148 H 13.4968 -1.44668 6.93164 0
M  V30 149 H 13.9048 -1.99785 5.27964 0
M  V30 150 N 13.3029 -1.57598 0.00835791 0
M  V30 151 C 14.5279 -1.95617 -0.689103 0
M  V30 152 C 14.9529 -0.883753 -1.66046 0
M  V30 153 O 14.3109 0.157352 -1.80616 0
M  V30 154 C 14.3589 -3.32736 -1.38994 0
M  V30 155 O 13.4629 -3.27631 -2.50463 0
M  V30 156 H 12.8039 -0.638379 -0.182668 0
M  V30 157 H 15.3339 -2.045 0.064036 0
M  V30 158 H 15.3439 -3.68494 -1.75147 0
M  V30 159 H 14.0189 -4.1034 -0.677778 0
M  V30 160 H 12.5959 -3.03561 -2.16576 0
M  V30 161 N 14.781 0.264519 -1.55364 0
M  V30 162 C 16.006 1.01726 -1.80739 0
M  V30 163 C 16.431 1.78836 -0.583044 0
M  V30 164 O 15.789 1.75167 0.467566 0
M  V30 165 C 15.837 1.94482 -3.03659 0
M  V30 166 O 14.941 3.03386 -2.7934 0
M  V30 167 H 14.282 0.290395 -0.597132 0
M  V30 168 H 16.812 0.290854 -2.02522 0
M  V30 169 H 16.822 2.36278 -3.32621 0
M  V30 170 H 15.497 1.37772 -3.92418 0
M  V30 171 H 14.074 2.65844 -2.61498 0
M  V30 172 N 16.2591 1.48442 0.529413 0
M  V30 173 C 17.2071 1.63452 1.65487 0
M  V30 174 C 18.2011 0.500955 1.61823 0
M  V30 175 O 19.4071 0.679695 1.66674 0
M  V30 176 H 15.7821 0.514905 0.548066 0
M  V30 177 H 17.7531 2.57975 1.49971 0
M  V30 178 C 16.5021 1.69196 3.03756 0
M  V30 179 H 15.8251 2.55784 3.07269 0
M  V30 180 H 17.2651 1.83743 3.82119 0
M  V30 181 C 15.7241 0.430765 3.34135 0
M  V30 182 O 16.2541 -0.4561 3.99102 0
M  V30 183 N 14.4601 0.302293 2.89023 0
M  V30 184 H 14.0071 1.02496 2.36331 0
M  V30 185 H 13.9651 -0.540546 3.09718 0
M  V30 186 N 17.7372 -0.778329 1.37039 0
M  V30 187 C 19.0142 -1.52551 1.22424 0
M  V30 188 C 19.3942 -2.10288 -0.184964 0
M  V30 189 O 18.7422 -1.94953 -1.19187 0
M  V30 190 C 18.9522 -2.61164 2.31504 0
M  V30 191 C 20.3002 -3.28746 2.68721 0
M  V30 192 O 21.3242 -2.71455 2.30631 0
M  V30 193 O 20.1832 -4.3231 3.3432 0
M  V30 194 H 17.2772 -0.675343 0.477326 0
M  V30 195 H 19.8232 -0.815859 1.48801 0
M  V30 196 H 18.5952 -2.16574 3.25901 0
M  V30 197 H 18.2182 -3.39737 2.06554 0
M  V30 198 N 19.2153 -1.21501 -1.00376 0
M  V30 199 C 20.1483 -0.918669 -2.08892 0
M  V30 200 C 21.1263 0.134277 -1.62045 0
M  V30 201 O 22.3103 0.00504255 -1.88499 0
M  V30 202 C 19.4373 -0.379645 -3.36566 0
M  V30 203 C 18.4833 -1.41559 -4.02323 0
M  V30 204 S 19.3163 -2.98521 -4.44574 0
M  V30 205 C 20.4723 -2.46228 -5.75433 0
M  V30 206 H 20.7053 -1.83761 -2.33707 0
M  V30 207 H 18.2383 -1.04489 -1.13673 0
M  V30 208 H 20.1963 -0.0752195 -4.10431 0
M  V30 209 H 18.8573 0.518008 -3.09799 0
M  V30 210 H 18.0503 -0.988076 -4.9422 0
M  V30 211 H 17.6523 -1.66815 -3.34737 0
M  V30 212 H 19.9443 -1.86791 -6.51241 0
M  V30 213 H 20.8873 -3.36572 -6.22997 0
M  V30 214 H 21.2953 -1.87894 -5.32312 0
M  V30 215 N 20.6934 1.19889 -1.02296 0
M  V30 216 C 21.6234 2.25141 -0.619174 0
M  V30 217 C 22.6044 1.66051 0.368915 0
M  V30 218 O 23.7894 1.92546 0.252941 0
M  V30 219 C 20.9194 3.4728 0.0368783 0
M  V30 220 C 19.8734 4.19005 -0.872865 0
M  V30 221 C 19.1994 5.34637 -0.0822402 0
M  V30 222 C 20.4994 4.74452 -2.18387 0
M  V30 223 H 22.1934 2.59171 -1.49903 0
M  V30 224 H 19.7394 1.24579 -0.722222 0
M  V30 225 H 21.6924 4.20098 0.330958 0
M  V30 226 H 20.4164 3.12433 0.95149 0
M  V30 227 H 19.0754 3.48061 -1.15105 0
M  V30 228 H 18.7234 4.96034 0.83422 0
M  V30 229 H 18.4234 5.83557 -0.688149 0
M  V30 230 H 19.9474 6.10255 0.205238 0
M  V30 231 H 21.3614 5.39055 -1.95172 0
M  V30 232 H 19.7584 5.33834 -2.74119 0
M  V30 233 H 20.8284 3.92844 -2.84257 0
M  V30 234 N 22.1715 0.800033 1.35784 0
M  V30 235 C 23.1195 0.193851 2.31791 0
M  V30 236 C 24.1135 -0.652744 1.56319 0
M  V30 237 O 25.3195 -0.546641 1.71499 0
M  V30 238 H 21.6945 0.04392 0.750716 0
M  V30 239 H 23.6655 1.01883 2.80468 0
M  V30 240 C 22.4145 -0.648338 3.41602 0
M  V30 241 H 21.7375 -0.00624665 3.998 0
M  V30 242 H 23.1775 -1.03898 4.11073 0
M  V30 243 C 21.6365 -1.8111 2.84079 0
M  V30 244 O 22.1665 -2.90825 2.77099 0
M  V30 245 N 20.3725 -1.62056 2.41218 0
M  V30 246 H 19.9195 -0.728123 2.47095 0
M  V30 247 H 19.8775 -2.40013 2.03079 0
M  V30 248 N 23.6496 -1.47581 0.552962 0
M  V30 249 C 24.8966 -2.02482 0.0273243 0
M  V30 250 C 25.2246 -1.42776 -1.32081 0
M  V30 251 O 24.4796 -0.571393 -1.87173 0
M  V30 252 C 24.7786 -3.57199 -0.119728 0
M  V30 253 C 24.4446 -4.35804 1.15697 0
M  V30 254 C 23.1066 -4.57 1.50681 0
M  V30 255 C 25.4586 -4.81167 2.00319 0
M  V30 256 C 22.7866 -5.20807 2.70142 0
M  V30 257 C 25.1386 -5.46293 3.18978 0
M  V30 258 C 23.8026 -5.65722 3.54281 0
M  V30 259 H 23.0726 -0.740933 0.00999866 0
M  V30 260 H 25.7196 -1.77302 0.72362 0
M  V30 261 H 24.0246 -3.81348 -0.89896 0
M  V30 262 H 25.7216 -3.97324 -0.541718 0
M  V30 263 H 22.3116 -4.19582 0.874561 0
M  V30 264 H 26.4956 -4.64574 1.74599 0
M  V30 265 H 21.7516 -5.34045 2.97668 0
M  V30 266 H 25.9256 -5.80407 3.84838 0
M  V30 267 H 23.5526 -6.14936 4.46942 0
M  V30 268 N 25.1277 -0.289203 -1.54924 0
M  V30 269 C 26.3757 0.322879 -1.99504 0
M  V30 270 C 26.6967 1.55313 -1.1791 0
M  V30 271 O 25.9667 1.94001 -0.272097 0
M  V30 272 H 24.5467 0.122291 -0.736922 0
M  V30 273 H 27.2087 -0.397802 -1.90797 0
M  V30 274 H 26.3047 0.603061 -3.06218 0
M  V30 275 N 26.6058 1.57591 -0.0167156 0
M  V30 276 C 27.5528 2.09462 0.969251 0
M  V30 277 C 28.5228 0.99381 1.33089 0
M  V30 278 O 29.7078 1.26726 1.42636 0
M  V30 279 C 26.8478 2.61622 2.25051 0
M  V30 280 C 25.9608 3.85666 1.94642 0
M  V30 281 C 25.0958 4.26266 3.16972 0
M  V30 282 C 24.1348 5.43101 2.82326 0
M  V30 283 N 23.2718 5.78915 3.97243 0
M  V30 284 H 28.1118 2.93428 0.519997 0
M  V30 285 H 25.6488 1.45044 0.245087 0
M  V30 286 H 27.6068 2.89949 2.99976 0
M  V30 287 H 26.2368 1.80505 2.67615 0
M  V30 288 H 25.2888 3.64145 1.10013 0
M  V30 289 H 26.6008 4.70678 1.65117 0
M  V30 290 H 25.7548 4.55963 4.00228 0
M  V30 291 H 24.4938 3.39996 3.49648 0
M  V30 292 H 23.4988 5.1311 1.97479 0
M  V30 293 H 24.7238 6.3106 2.50879 0
M  V30 294 H 22.6698 4.95602 4.29785 0
M  V30 295 H 22.5868 6.58539 3.71299 0
M  V30 296 H 23.8548 6.13212 4.81239 0
M  V30 297 N 28.0839 -0.256276 1.55502 0
M  V30 298 C 29.0309 -1.31714 1.89526 0
M  V30 299 C 30.0009 -1.4828 0.748479 0
M  V30 300 O 31.1859 -1.62416 1.00128 0
M  V30 301 C 28.3259 -2.66933 2.18725 0
M  V30 302 C 27.4389 -2.58452 3.4616 0
M  V30 303 C 26.5739 -3.85961 3.64976 0
M  V30 304 C 25.6129 -3.72059 4.86044 0
M  V30 305 N 24.7499 -4.9144 5.01429 0
M  V30 306 H 29.5899 -1.01998 2.80001 0
M  V30 307 H 27.1269 -0.492413 1.38613 0
M  V30 308 H 29.0849 -3.4563 2.33657 0
M  V30 309 H 27.7149 -2.94816 1.31466 0
M  V30 310 H 26.7669 -1.71374 3.3961 0
M  V30 311 H 28.0789 -2.44085 4.34999 0
M  V30 312 H 27.2329 -4.73101 3.79816 0
M  V30 313 H 25.9719 -4.03215 2.74353 0
M  V30 314 H 24.9769 -2.83302 4.7119 0
M  V30 315 H 26.2019 -3.56309 5.78118 0
M  V30 316 H 24.1479 -5.09072 4.13741 0
M  V30 317 H 24.0649 -4.79668 5.84341 0
M  V30 318 H 25.3329 -5.80104 5.20672 0
M  V30 319 N 29.562 -1.4872 -0.521534 0
M  V30 320 C 30.973 -1.50607 -1.10337 0
M  V30 321 C 31.324 -0.280612 -1.94183 0
M  V30 322 O 30.449 0.611507 -2.0758 0
M  V30 323 C 31.044 -2.72903 -2.00772 0
M  V30 324 C 29.603 -2.77634 -2.54158 0
M  V30 325 C 28.75 -2.44241 -1.31307 0
M  V30 326 H 31.701 -1.55714 -0.306388 0
M  V30 327 H 31.722 -2.519 -2.85178 0
M  V30 328 H 31.234 -3.62077 -1.39721 0
M  V30 329 H 29.335 -1.92689 -3.18907 0
M  V30 330 H 29.448 -3.79283 -2.92714 0
M  V30 331 H 27.812 -1.95577 -1.63161 0
M  V30 332 H 28.595 -3.35666 -0.719943 0
M  V30 333 N 31.0401 0.771051 -1.3745 0
M  V30 334 C 32.0031 1.86598 -1.33093 0
M  V30 335 C 33.0031 1.59076 -0.234845 0
M  V30 336 O 34.1931 1.67145 -0.490732 0
M  V30 337 C 31.3251 3.23747 -1.06773 0
M  V30 338 H 32.5181 1.91873 -2.30488 0
M  V30 339 H 30.0711 0.970876 -1.2249 0
M  V30 340 H 30.8061 3.24148 -0.099129 0
M  V30 341 H 30.5911 3.45115 -1.86112 0
M  V30 342 H 32.0811 4.03824 -1.06377 0
M  V30 343 N 32.5182 1.22032 0.997298 0
M  V30 344 C 33.7482 1.06686 1.76923 0
M  V30 345 C 34.1562 -0.385838 1.85224 0
M  V30 346 O 33.4992 -1.27929 1.31833 0
M  V30 347 C 33.5612 1.59802 3.22031 0
M  V30 348 C 33.2252 3.08362 3.37286 0
M  V30 349 C 34.2222 4.05835 3.24952 0
M  V30 350 C 31.9072 3.47727 3.6248 0
M  V30 351 C 33.9012 5.4066 3.37588 0
M  V30 352 C 31.5882 4.82701 3.74757 0
M  V30 353 C 32.5862 5.78977 3.62319 0
M  V30 354 O 32.2742 7.11502 3.74193 0
M  V30 355 H 32.0062 0.374767 0.562606 0
M  V30 356 H 34.5602 1.61991 1.26286 0
M  V30 357 H 32.7902 0.989003 3.73839 0
M  V30 358 H 34.4792 1.40184 3.80924 0
M  V30 359 H 35.2452 3.76766 3.05405 0
M  V30 360 H 31.1242 2.73317 3.7124 0
M  V30 361 H 34.6682 6.15788 3.27796 0
M  V30 362 H 30.5652 5.11453 3.9381 0
M  V30 363 H 31.3332 7.19019 3.91093 0
M  V30 364 N 33.9963 -1.19345 1.0293 0
M  V30 365 C 35.2243 -1.92997 0.745644 0
M  V30 366 C 35.6393 -1.75519 -0.695589 0
M  V30 367 O 34.9963 -1.07737 -1.47306 0
M  V30 368 C 35.0473 -3.44741 1.08792 0
M  V30 369 O 34.7683 -3.61658 2.47256 0
M  V30 370 C 36.2693 -4.35515 0.827129 0
M  V30 371 H 33.4893 -0.613042 0.272801 0
M  V30 372 H 36.0333 -1.51473 1.3739 0
M  V30 373 H 34.1883 -3.84097 0.504832 0
M  V30 374 H 34.6023 -4.55514 2.60015 0
M  V30 375 H 36.0763 -5.40589 1.11658 0
M  V30 376 H 36.5533 -4.38552 -0.238436 0
M  V30 377 H 37.1593 -4.01841 1.39297 0
M  V30 378 N 35.4744 -0.807222 -1.35358 0
M  V30 379 C 36.7024 -0.400377 -2.02989 0
M  V30 380 C 37.1174 0.988859 -1.60832 0
M  V30 381 O 36.4744 1.63729 -0.806175 0
M  V30 382 C 36.5254 -0.474867 -3.58368 0
M  V30 383 O 36.2464 -1.80933 -3.98992 0
M  V30 384 C 37.7474 -0.0609112 -4.43258 0
M  V30 385 H 34.9674 -0.162587 -0.651004 0
M  V30 386 H 37.5114 -1.09102 -1.72965 0
M  V30 387 H 35.6664 0.167534 -3.87038 0
M  V30 388 H 36.0804 -1.77256 -4.9364 0
M  V30 389 H 37.5544 -0.164145 -5.51756 0
M  V30 390 H 38.0314 0.993831 -4.27808 0
M  V30 391 H 38.6374 -0.676492 -4.19885 0
M  V30 392 N 36.9525 1.47285 -0.560781 0
M  V30 393 C 38.1775 2.07359 -0.0410566 0
M  V30 394 C 38.6025 1.41017 1.24483 0
M  V30 395 O 37.9605 0.486368 1.74654 0
M  V30 396 C 38.0085 3.6035 0.134123 0
M  V30 397 O 37.1125 3.94681 1.19587 0
M  V30 398 H 36.4535 0.661887 -0.0529291 0
M  V30 399 H 38.9835 1.89252 -0.777482 0
M  V30 400 H 38.9935 4.0652 0.347207 0
M  V30 401 H 37.6685 4.08034 -0.805047 0
M  V30 402 H 36.2455 3.60251 0.962987 0
M  V30 403 N 38.4306 0.297415 1.54768 0
M  V30 404 C 39.3786 -0.596051 2.24833 0
M  V30 405 C 40.3726 -1.13992 1.25308 0
M  V30 406 O 41.5786 -1.09098 1.4317 0
M  V30 407 H 37.9536 -0.210814 0.721846 0
M  V30 408 H 39.9246 0.0174667 2.98395 0
M  V30 409 C 38.6736 -1.75818 2.99972 0
M  V30 410 H 37.9966 -1.3489 3.76357 0
M  V30 411 H 39.4366 -2.35949 3.52284 0
M  V30 412 C 37.8956 -2.66014 2.06732 0
M  V30 413 O 38.4256 -3.67009 1.63302 0
M  V30 414 N 36.6316 -2.33669 1.72763 0
M  V30 415 H 36.1786 -1.51586 2.08277 0
M  V30 416 H 36.1366 -2.94285 1.10652 0
M  V30 417 N 39.9087 -1.5758 0.0250728 0
M  V30 418 C 41.1567 -1.91255 -0.653151 0
M  V30 419 C 41.4777 -0.901691 -1.729 0
M  V30 420 O 40.7477 0.0573785 -1.95816 0
M  V30 421 H 39.3277 -0.705942 -0.244243 0
M  V30 422 H 41.9897 -1.94767 0.0719209 0
M  V30 423 H 41.0857 -2.91752 -1.10847 0
M  V30 424 N 41.3868 0.248026 -1.55636 0
M  V30 425 C 42.6118 0.998028 -1.81808 0
M  V30 426 C 43.0368 1.78207 -0.601979 0
M  V30 427 O 42.3948 1.75653 0.448961 0
M  V30 428 C 42.4428 1.9125 -3.05705 0
M  V30 429 O 41.5468 3.00406 -2.82542 0
M  V30 430 H 40.8878 0.284045 -0.600179 0
M  V30 431 H 43.4178 0.269357 -2.02819 0
M  V30 432 H 43.4278 2.32737 -3.35108 0
M  V30 433 H 42.1028 1.33602 -3.93857 0
M  V30 434 H 40.6798 2.63056 -2.64303 0
M  V30 435 N 42.8649 1.48995 0.513639 0
M  V30 436 C 43.7979 1.59319 1.63379 0
M  V30 437 C 44.7759 0.442816 1.56454 0
M  V30 438 O 45.9599 0.656655 1.76693 0
M  V30 439 C 43.0869 1.5364 3.01848 0
M  V30 440 C 42.1329 2.7372 3.27078 0
M  V30 441 S 42.9659 4.35528 3.1157 0
M  V30 442 C 44.1219 4.32473 4.52458 0
M  V30 443 H 44.3549 2.54079 1.54374 0
M  V30 444 H 41.8879 1.3773 0.697849 0
M  V30 445 H 43.8459 1.51049 3.81699 0
M  V30 446 H 42.5069 0.601898 3.08279 0
M  V30 447 H 41.6999 2.6593 4.28132 0
M  V30 448 H 41.3019 2.73657 2.54927 0
M  V30 449 H 43.5939 4.03414 5.44301 0
M  V30 450 H 44.5369 5.33762 4.65299 0
M  V30 451 H 44.9449 3.62718 4.32546 0
M  V30 452 N 44.343 -0.763751 1.37857 0
M  V30 453 C 45.573 -1.55067 1.3652 0
M  V30 454 C 45.981 -1.89135 -0.0494227 0
M  V30 455 O 45.324 -1.52529 -1.02375 0
M  V30 456 C 45.386 -2.8838 2.14656 0
M  V30 457 C 45.05 -2.76905 3.63555 0
M  V30 458 C 46.047 -2.4739 4.57268 0
M  V30 459 C 43.732 -2.94676 4.06781 0
M  V30 460 C 45.726 -2.35786 5.92186 0
M  V30 461 C 43.413 -2.82692 5.41782 0
M  V30 462 C 44.411 -2.53289 6.34298 0
M  V30 463 O 44.099 -2.41345 7.66817 0
M  V30 464 H 43.831 -0.486776 0.469069 0
M  V30 465 H 46.385 -0.953812 1.81911 0
M  V30 466 H 44.615 -3.50217 1.63967 0
M  V30 467 H 46.304 -3.49828 2.05852 0
M  V30 468 H 47.07 -2.33339 4.2518 0
M  V30 469 H 42.949 -3.16563 3.35126 0
M  V30 470 H 46.493 -2.12757 6.64365 0
M  V30 471 H 42.39 -2.96314 5.7347 0
M  V30 472 H 43.158 -2.56634 7.77226 0
M  V30 473 N 45.8211 -1.22559 -0.990812 0
M  V30 474 C 47.0701 -1.04553 -1.72486 0
M  V30 475 C 47.3831 0.419349 -1.91052 0
M  V30 476 O 48.5891 0.719121 -2.61803 0
M  V30 477 C 47.0451 -1.82231 -3.10355 0
M  V30 478 C 46.6531 -3.32981 -2.99713 0
M  V30 479 C 48.3971 -1.7268 -3.87791 0
M  V30 480 C 46.3041 -4.03091 -4.32748 0
M  V30 481 H 45.2341 -0.387614 -0.646739 0
M  V30 482 H 47.8851 -1.46429 -1.10593 0
M  V30 483 H 46.2671 -1.33155 -3.72942 0
M  V30 484 H 47.4411 -3.89466 -2.46278 0
M  V30 485 H 45.7561 -3.43231 -2.35758 0
M  V30 486 H 48.3531 -2.22381 -4.86262 0
M  V30 487 H 48.6961 -0.687607 -4.10582 0
M  V30 488 H 49.2291 -2.1931 -3.31885 0
M  V30 489 H 45.9681 -5.07273 -4.15156 0
M  V30 490 H 45.4881 -3.51394 -4.86089 0
M  V30 491 H 47.1671 -4.08804 -5.01486 0
M  V30 492 N 47.2992 1.18797 -1.03562 0
M  V30 493 C 48.5472 1.88278 -0.734569 0
M  V30 494 C 48.8682 1.8043 0.739586 0
M  V30 495 O 48.1382 1.21925 1.53333 0
M  V30 496 H 46.7182 0.696991 -0.268725 0
M  V30 497 H 49.3802 1.44192 -1.31129 0
M  V30 498 H 48.4762 2.94443 -1.03489 0
M  V30 499 N 48.7773 0.814389 1.34928 0
M  V30 500 C 50.0543 0.321363 1.92942 0
M  V30 501 C 50.4343 -1.19014 1.74353 0
M  V30 502 O 49.7823 -1.99328 1.11716 0
M  V30 503 C 49.9923 0.741323 3.41036 0
M  V30 504 C 51.3403 0.735266 4.18185 0
M  V30 505 O 52.3643 0.68336 3.49584 0
M  V30 506 O 51.2233 0.800703 5.40602 0
M  V30 507 H 48.3173 0.0858893 0.822528 0
M  V30 508 H 50.8633 0.898609 1.43955 0
M  V30 509 H 49.6353 1.78276 3.4833 0
M  V30 510 H 49.2583 0.139307 3.97356 0
M  V30 511 N 50.2554 -1.46986 0.568584 0
M  V30 512 C 51.4804 -2.07335 0.0520528 0
M  V30 513 C 51.9054 -1.41675 -1.23733 0
M  V30 514 O 51.2634 -0.495623 -1.74394 0
M  V30 515 C 51.3114 -3.60417 -0.11501 0
M  V30 516 O 50.4154 -3.95309 -1.17492 0
M  V30 517 H 49.7564 -0.661597 0.0564385 0
M  V30 518 H 52.2864 -1.88837 0.787507 0
M  V30 519 H 52.2964 -4.06698 -0.325644 0
M  V30 520 H 50.9714 -4.07601 0.826675 0
M  V30 521 H 49.5484 -3.60757 -0.943869 0
M  V30 522 N 51.7335 -0.305618 -1.54608 0
M  V30 523 C 52.6635 0.561482 -2.26649 0
M  V30 524 C 53.6445 1.13415 -1.26772 0
M  V30 525 O 54.8295 1.16262 -1.55553 0
M  V30 526 C 51.9595 1.73122 -3.01075 0
M  V30 527 C 50.9135 1.2887 -4.08138 0
M  V30 528 C 50.2395 2.54396 -4.70305 0
M  V30 529 C 51.5395 0.416578 -5.20636 0
M  V30 530 H 53.2335 -0.0393902 -2.99374 0
M  V30 531 H 50.7795 -0.020385 -1.43986 0
M  V30 532 H 52.7325 2.34396 -3.50195 0
M  V30 533 H 51.4565 2.3584 -2.25936 0
M  V30 534 H 50.1155 0.698991 -3.59875 0
M  V30 535 H 49.7635 3.15439 -3.918 0
M  V30 536 H 49.4635 2.25486 -5.42614 0
M  V30 537 H 50.9875 3.16464 -5.2219 0
M  V30 538 H 52.4015 0.935116 -5.65622 0
M  V30 539 H 50.7985 0.221046 -5.99693 0
M  V30 540 H 51.8685 -0.557162 -4.81688 0
M  V30 541 N 53.2116 1.57565 -0.0334293 0
M  V30 542 C 54.1216 2.13943 0.962572 0
M  V30 543 C 55.1376 1.09276 1.35406 0
M  V30 544 O 56.3136 1.41355 1.4346 0
M  V30 545 C 53.3786 2.65887 2.22497 0
M  V30 546 C 52.4396 3.85286 1.8935 0
M  V30 547 C 51.6726 4.34743 3.09571 0
M  V30 548 O 51.8956 3.83352 4.22371 0
M  V30 549 O 50.8296 5.26538 2.91618 0
M  V30 550 H 54.6556 2.99333 0.513169 0
M  V30 551 H 52.2406 1.4822 0.18743 0
M  V30 552 H 54.1226 2.99346 2.96598 0
M  V30 553 H 52.7976 1.83578 2.6661 0
M  V30 554 H 51.7046 3.56746 1.1262 0
M  V30 555 H 53.0376 4.68771 1.5005 0
M  V30 556 N 54.6897 -0.239769 1.55765 0
M  V30 557 C 55.6197 -1.30052 1.9393 0
M  V30 558 C 56.6007 -1.49839 0.805132 0
M  V30 559 O 57.7857 -1.62328 1.06599 0
M  V30 560 C 54.9157 -2.65391 2.2402 0
M  V30 561 C 53.8697 -2.60289 3.39755 0
M  V30 562 C 53.1957 -3.99489 3.55405 0
M  V30 563 C 54.4957 -2.16654 4.75246 0
M  V30 564 H 56.1897 -0.983573 2.82783 0
M  V30 565 H 53.7357 -0.471701 1.36055 0
M  V30 566 H 55.6887 -3.3974 2.49308 0
M  V30 567 H 54.4127 -2.98736 1.32 0
M  V30 568 H 53.0717 -1.88398 3.14487 0
M  V30 569 H 52.7197 -4.30112 2.60793 0
M  V30 570 H 52.4197 -3.96962 4.33238 0
M  V30 571 H 53.9437 -4.75528 3.83022 0
M  V30 572 H 55.3577 -2.80737 4.99859 0
M  V30 573 H 53.7547 -2.25223 5.56232 0
M  V30 574 H 54.8247 -1.11835 4.71827 0
M  V30 575 N 56.1678 -1.49265 -0.50573 0
M  V30 576 C 57.0978 -1.68495 -1.61653 0
M  V30 577 C 58.0788 -0.53366 -1.61512 0
M  V30 578 O 59.2638 -0.76897 -1.78327 0
M  V30 579 C 56.3938 -1.74709 -3.00157 0
M  V30 580 C 55.3478 -2.89581 -3.15162 0
M  V30 581 C 54.6738 -2.80903 -4.5497 0
M  V30 582 C 55.9738 -4.30578 -2.95634 0
M  V30 583 H 57.6678 -2.61493 -1.45814 0
M  V30 584 H 55.2138 -1.25838 -0.70005 0
M  V30 585 H 57.1668 -1.86748 -3.77761 0
M  V30 586 H 55.8908 -0.783067 -3.17074 0
M  V30 587 H 54.5498 -2.77136 -2.39982 0
M  V30 588 H 54.1978 -1.82419 -4.68756 0
M  V30 589 H 53.8978 -3.57999 -4.65951 0
M  V30 590 H 55.4218 -2.94944 -5.34641 0
M  V30 591 H 56.8358 -4.4373 -3.63011 0
M  V30 592 H 55.2328 -5.0886 -3.18091 0
M  V30 593 H 56.3028 -4.45352 -1.91806 0
M  V30 594 N 57.6459 0.756429 -1.3826 0
M  V30 595 C 58.5559 1.9009 -1.37488 0
M  V30 596 C 59.5719 1.71855 -0.272366 0
M  V30 597 O 60.7479 1.94827 -0.510318 0
M  V30 598 C 57.8129 3.25421 -1.19592 0
M  V30 599 C 56.8739 3.56202 -2.39622 0
M  V30 600 C 56.1069 4.85075 -2.2257 0
M  V30 601 O 56.3299 5.57246 -1.21793 0
M  V30 602 O 55.2639 5.15269 -3.11098 0
M  V30 603 H 59.0899 1.93695 -2.33914 0
M  V30 604 H 56.6749 0.901313 -1.1915 0
M  V30 605 H 58.5569 4.06337 -1.11661 0
M  V30 606 H 57.2319 3.22634 -0.262486 0
M  V30 607 H 56.1389 2.75458 -2.53128 0
M  V30 608 H 57.4719 3.63747 -3.31586 0
M  V30 609 N 59.124 1.23083 0.984299 0
M  V30 610 C 60.349 1.088 1.76571 0
M  V30 611 C 60.774 -0.356657 1.84688 0
M  V30 612 O 60.132 -1.25788 1.30565 0
M  V30 613 C 60.18 1.71371 3.17277 0
M  V30 614 O 59.284 0.973213 4.00752 0
M  V30 615 H 58.625 0.381599 0.543395 0
M  V30 616 H 61.155 1.63057 1.23587 0
M  V30 617 H 61.165 1.76449 3.67872 0
M  V30 618 H 59.84 2.76493 3.10684 0
M  V30 619 H 58.417 0.999078 3.59267 0
M  V30 620 N 60.6021 -1.18246 1.0419 0
M  V30 621 C 61.8491 -1.88257 0.746017 0
M  V30 622 C 62.1771 -1.80429 -0.726331 0
M  V30 623 O 61.4321 -1.2 -1.54591 0
M  V30 624 C 61.7311 -3.38082 1.15911 0
M  V30 625 C 61.3971 -3.66114 2.63195 0
M  V30 626 C 60.0591 -3.73474 3.03432 0
M  V30 627 C 62.4111 -3.78398 3.5842 0
M  V30 628 C 59.7391 -3.90599 4.37778 0
M  V30 629 C 62.0911 -3.97039 4.92487 0
M  V30 630 C 60.7551 -4.02635 5.32392 0
M  V30 631 H 60.0251 -0.688883 0.272987 0
M  V30 632 H 62.6721 -1.3995 1.30715 0
M  V30 633 H 60.9771 -3.88377 0.516806 0
M  V30 634 H 62.6741 -3.90596 0.907516 0
M  V30 635 H 59.2641 -3.61003 2.3103 0
M  V30 636 H 63.4481 -3.72042 3.28479 0
M  V30 637 H 58.7041 -3.93175 4.68213 0
M  V30 638 H 62.8781 -4.05486 5.66175 0
M  V30 639 H 60.5051 -4.15657 6.36501 0
M  V30 640 N 62.0802 -0.821533 -1.34494 0
M  V30 641 C 63.4912 -0.467956 -1.8074 0
M  V30 642 C 63.8422 1.01151 -1.68116 0
M  V30 643 O 62.9672 1.78707 -1.22036 0
M  V30 644 C 63.5622 -0.842627 -3.28154 0
M  V30 645 C 62.1212 -0.541439 -3.72485 0
M  V30 646 C 61.2682 -1.06028 -2.56229 0
M  V30 647 H 64.2192 -1.01183 -1.22261 0
M  V30 648 H 64.2402 -0.145876 -3.8022 0
M  V30 649 H 63.7522 -1.91945 -3.37311 0
M  V30 650 H 61.8532 0.526034 -3.68868 0
M  V30 651 H 61.9662 -1.08453 -4.66663 0
M  V30 652 H 60.3302 -0.481892 -2.501 0
M  V30 653 H 61.1132 -2.14352 -2.68157 0
M  V30 654 N 63.5583 1.46682 -0.576371 0
M  V30 655 C 64.8353 1.95599 0.00703437 0
M  V30 656 C 65.2153 1.51904 1.46589 0
M  V30 657 O 64.5633 0.766755 2.15251 0
M  V30 658 C 64.7733 3.4864 -0.158404 0
M  V30 659 C 66.1213 4.24594 -0.0229439 0
M  V30 660 O 67.1453 3.56094 -0.0869173 0
M  V30 661 O 66.0043 5.46373 0.118015 0
M  V30 662 H 63.0983 0.825275 0.053384 0
M  V30 663 H 65.6443 1.56996 -0.644244 0
M  V30 664 H 64.4163 3.7331 -1.17282 0
M  V30 665 H 64.0393 3.94057 0.5296 0
M  V30 666 N 65.0364 0.313813 1.54444 0
M  V30 667 C 65.9464 -0.565714 2.27677 0
M  V30 668 C 66.9624 -1.13754 1.31666 0
M  V30 669 O 68.1384 -1.15959 1.64668 0
M  V30 670 C 65.2034 -1.71528 3.01296 0
M  V30 671 C 64.2644 -1.17624 4.12872 0
M  V30 672 C 63.4974 -2.27102 4.8297 0
M  V30 673 O 63.7204 -3.47256 4.52514 0
M  V30 674 O 62.6544 -1.9307 5.70094 0
M  V30 675 H 66.4804 0.0287296 3.03686 0
M  V30 676 H 64.0654 0.0798312 1.49187 0
M  V30 677 H 65.9474 -2.38476 3.4743 0
M  V30 678 H 64.6224 -2.29608 2.2817 0
M  V30 679 H 63.5294 -0.472124 3.71109 0
M  V30 680 H 64.8624 -0.640695 4.88012 0
M  V30 681 N 66.5145 -1.57545 0.0417849 0
M  V30 682 C 67.7395 -1.97035 -0.647455 0
M  V30 683 C 68.1645 -0.918775 -1.64135 0
M  V30 684 O 67.5225 0.119006 -1.80909 0
M  V30 685 C 67.5705 -3.35609 -1.31905 0
M  V30 686 O 66.6745 -3.3287 -2.43457 0
M  V30 687 H 66.0155 -0.64211 -0.169086 0
M  V30 688 H 68.5455 -2.04318 0.107399 0
M  V30 689 H 68.5555 -3.72126 -1.67291 0
M  V30 690 H 67.2305 -4.11685 -0.590586 0
M  V30 691 H 65.8075 -3.08087 -2.10088 0
M  V30 692 N 67.9926 0.231505 -1.5589 0
M  V30 693 C 69.2416 0.955346 -1.7764 0
M  V30 694 C 69.5546 1.85893 -0.608546 0
M  V30 695 O 70.7606 2.62067 -0.70943 0
M  V30 696 C 69.2166 1.74886 -3.14552 0
M  V30 697 C 68.8246 0.891915 -4.39032 0
M  V30 698 C 70.5686 2.46452 -3.45633 0
M  V30 699 C 68.4756 1.68221 -5.66971 0
M  V30 700 H 67.4056 0.360446 -0.662265 0
M  V30 701 H 70.0566 0.209516 -1.823 0
M  V30 702 H 68.4386 2.53723 -3.04041 0
M  V30 703 H 69.6126 0.144793 -4.60572 0
M  V30 704 H 67.9276 0.288863 -4.15397 0
M  V30 705 H 70.5246 3.06061 -4.38441 0
M  V30 706 H 70.8676 3.18841 -2.67668 0
M  V30 707 H 71.4006 1.74613 -3.57428 0
M  V30 708 H 68.1396 1.00178 -6.478 0
M  V30 709 H 67.6596 2.4042 -5.49507 0
M  V30 710 H 69.3386 2.24544 -6.06786 0
M  V30 711 N 69.4707 1.49531 0.497807 0
M  V30 712 C 70.6957 1.63159 1.28039 0
M  V30 713 C 71.1207 0.30418 1.85624 0
M  V30 714 O 70.4787 -0.728618 1.66015 0
M  V30 715 C 70.5267 2.70537 2.38416 0
M  V30 716 O 69.6307 2.29931 3.42353 0
M  V30 717 H 68.9717 0.546001 0.377861 0
M  V30 718 H 71.5017 1.9574 0.59558 0
M  V30 719 H 71.5117 2.92802 2.84132 0
M  V30 720 H 70.1867 3.6689 1.95869 0
M  V30 721 H 68.7637 2.18009 3.02533 0
M  V30 722 N 70.9488 -0.749086 1.3866 0
M  V30 723 C 71.8788 -1.8764 1.38973 0
M  V30 724 C 72.8598 -1.68178 0.255004 0
M  V30 725 O 74.0448 -1.88704 0.458754 0
M  V30 726 C 71.1748 -3.25222 1.21851 0
M  V30 727 C 70.1288 -3.59295 2.32575 0
M  V30 728 C 69.4548 -4.95663 2.00555 0
M  V30 729 C 70.7548 -3.63709 3.7485 0
M  V30 730 H 72.4488 -1.87635 2.3331 0
M  V30 731 H 69.9948 -0.901329 1.12303 0
M  V30 732 H 71.9478 -4.03746 1.20695 0
M  V30 733 H 70.6718 -3.25719 0.239775 0
M  V30 734 H 69.3308 -2.83093 2.32925 0
M  V30 735 H 68.9788 -4.92724 1.01154 0
M  V30 736 H 68.6788 -5.19429 2.74714 0
M  V30 737 H 70.2028 -5.7656 2.01024 0
M  V30 738 H 71.6168 -4.32338 3.76506 0
M  V30 739 H 70.0138 -3.98986 4.48252 0
M  V30 740 H 71.0838 -2.63834 4.06841 0
M  V30 741 N 72.4269 -1.23603 -0.977757 0
M  V30 742 C 73.6729 -1.07129 -1.72195 0
M  V30 743 C 74.0059 0.390501 -1.90233 0
M  V30 744 O 73.2809 1.28902 -1.45653 0
M  V30 745 C 73.5639 -1.80031 -3.11867 0
M  V30 746 C 73.4169 -3.33899 -3.01383 0
M  V30 747 C 74.7359 -1.56492 -4.11337 0
M  V30 748 H 71.8549 -0.390571 -0.624999 0
M  V30 749 H 74.4969 -1.52142 -1.13811 0
M  V30 750 H 72.6469 -1.41768 -3.6171 0
M  V30 751 H 74.3189 -3.81699 -2.59043 0
M  V30 752 H 72.5619 -3.62796 -2.37827 0
M  V30 753 H 73.2329 -3.801 -4.00285 0
M  V30 754 H 75.7089 -1.89757 -3.70313 0
M  V30 755 H 74.5849 -2.09973 -5.07151 0
M  V30 756 H 74.8459 -0.500874 -4.39254 0
M  V30 757 N 73.905 1.17692 -1.04816 0
M  V30 758 C 74.838 2.20436 -0.590173 0
M  V30 759 C 75.816 1.58115 0.379244 0
M  V30 760 O 77 1.86228 0.291762 0
M  V30 761 C 74.127 3.38424 0.136817 0
M  V30 762 C 73.173 4.19176 -0.787023 0
M  V30 763 S 74.006 4.84815 -2.27409 0
M  V30 764 C 75.162 6.06195 -1.55817 0
M  V30 765 H 75.395 2.58944 -1.46067 0
M  V30 766 H 72.928 1.28246 -0.859784 0
M  V30 767 H 74.886 4.06798 0.550076 0
M  V30 768 H 73.547 2.98312 0.983299 0
M  V30 769 H 72.74 5.03499 -0.224681 0
M  V30 770 H 72.342 3.56219 -1.13947 0
M  V30 771 H 74.634 6.72078 -0.855387 0
M  V30 772 H 75.577 6.6695 -2.37873 0
M  V30 773 H 75.985 5.54701 -1.04722 0
M  V30 774 N 75.3831 0.828654 1.34056 0
M  V30 775 C 76.6111 0.43262 2.02326 0
M  V30 776 C 77.0261 -0.963147 1.62385 0
M  V30 777 O 76.3831 -1.62425 0.832121 0
M  V30 778 C 76.4341 0.53182 3.57567 0
M  V30 779 O 76.1551 1.87258 3.96063 0
M  V30 780 C 77.6561 0.131422 4.43105 0
M  V30 781 H 74.8761 0.172923 0.648335 0
M  V30 782 H 77.4201 1.1184 1.71208 0
M  V30 783 H 75.5751 -0.105938 3.87255 0
M  V30 784 H 75.9891 1.85087 4.90758 0
M  V30 785 H 77.4631 0.251904 5.51425 0
M  V30 786 H 77.9401 -0.925645 4.29335 0
M  V30 787 H 78.5461 0.743207 4.18756 0
M  V30 788 N 76.8612 -1.46375 0.584142 0
M  V30 789 C 78.0862 -2.07268 0.0740405 0
M  V30 790 C 78.5112 -1.42979 -1.22223 0
M  V30 791 O 77.8692 -0.514092 -1.73859 0
M  V30 792 C 77.9172 -3.60518 -0.0767769 0
M  V30 793 O 77.0212 -3.96533 -1.13292 0
M  V30 794 H 76.3622 -0.660961 0.0634524 0
M  V30 795 H 78.8922 -1.87991 0.807492 0
M  V30 796 H 78.9022 -4.07021 -0.282489 0
M  V30 797 H 77.5772 -4.06702 0.86986 0
M  V30 798 H 76.1542 -3.61738 -0.905553 0
M  V30 799 N 78.3393 -0.321999 -1.54275 0
M  V30 800 C 79.7503 0.166384 -1.85957 0
M  V30 801 C 80.1013 1.51747 -1.24367 0
M  V30 802 O 79.2263 2.09317 -0.549124 0
M  V30 803 C 79.8213 0.308681 -3.37391 0
M  V30 804 C 78.3803 0.741286 -3.69028 0
M  V30 805 C 77.5273 -0.137937 -2.76957 0
M  V30 806 H 80.4783 -0.542335 -1.49146 0
M  V30 807 H 80.4993 1.13984 -3.63026 0
M  V30 808 H 80.0113 -0.674809 -3.82188 0
M  V30 809 H 78.1123 1.73458 -3.29762 0
M  V30 810 H 78.2253 0.546118 -4.75977 0
M  V30 811 H 76.5893 0.386251 -2.51754 0
M  V30 812 H 77.3723 -1.11816 -3.2458 0
M  V30 813 N 79.8174 1.5752 -0.0501392 0
M  V30 814 C 81.2284 1.80271 0.485705 0
M  V30 815 C 81.5794 0.96228 1.70981 0
M  V30 816 O 80.7044 0.178578 2.15662 0
M  V30 817 C 81.2994 3.26957 0.887938 0
M  V30 818 C 79.8584 3.5063 1.36877 0
M  V30 819 C 79.0054 2.75165 0.343468 0
M  V30 820 H 81.9564 1.56281 -0.276028 0
M  V30 821 H 81.9774 3.37821 1.75093 0
M  V30 822 H 81.4894 3.881 -0.0031809 0
M  V30 823 H 79.5904 2.94766 2.27911 0
M  V30 824 H 79.7034 4.59343 1.36164 0
M  V30 825 H 78.0674 2.4127 0.816128 0
M  V30 826 H 78.8504 3.39034 -0.539548 0
M  V30 827 N 81.2955 -0.223234 1.56011 0
M  V30 828 C 82.5425 -0.947875 1.78946 0
M  V30 829 C 82.8705 -1.844 0.618608 0
M  V30 830 O 82.1255 -1.91629 -0.397093 0
M  V30 831 C 82.4245 -1.81948 3.0762 0
M  V30 832 C 82.0905 -1.07672 4.37856 0
M  V30 833 C 80.7525 -0.871544 4.73242 0
M  V30 834 C 83.1045 -0.552081 5.18268 0
M  V30 835 C 80.4325 -0.129791 5.86556 0
M  V30 836 C 82.7845 0.17632 6.32354 0
M  V30 837 C 81.4485 0.39277 6.66343 0
M  V30 838 H 80.7185 -0.346852 0.654809 0
M  V30 839 H 83.3655 -0.216171 1.90276 0
M  V30 840 H 81.6705 -2.61899 2.91404 0
M  V30 841 H 83.3675 -2.38227 3.22566 0
M  V30 842 H 79.9575 -1.24662 4.1007 0
M  V30 843 H 84.1415 -0.698076 4.91366 0
M  V30 844 H 79.3975 0.048153 6.11381 0
M  V30 845 H 83.5715 0.590367 6.93893 0
M  V30 846 H 81.1985 0.969466 7.53993 0
M  V30 847 N 82.7736 -1.49793 -0.48987 0
M  V30 848 C 83.7366 -1.66752 -1.57246 0
M  V30 849 C 84.7366 -0.538867 -1.51502 0
M  V30 850 O 85.9266 -0.805545 -1.54456 0
M  V30 851 C 83.0586 -1.67528 -2.96896 0
M  V30 852 H 84.2516 -2.63321 -1.43534 0
M  V30 853 H 81.8046 -1.38992 -0.714914 0
M  V30 854 H 82.5396 -0.725837 -3.16073 0
M  V30 855 H 82.3246 -2.49504 -3.02473 0
M  V30 856 H 83.8146 -1.82667 -3.7553 0
M  V30 857 N 84.2517 0.741722 -1.39055 0
M  V30 858 C 85.1817 1.869 -1.39966 0
M  V30 859 C 86.1627 1.6804 -0.26392 0
M  V30 860 O 87.3477 1.88458 -0.468755 0
M  V30 861 C 84.4777 3.24572 -1.23574 0
M  V30 862 C 83.4317 3.58056 -2.34477 0
M  V30 863 C 82.7577 4.94593 -2.0318 0
M  V30 864 C 84.0577 3.61716 -3.76774 0
M  V30 865 H 85.7517 1.86395 -2.34302 0
M  V30 866 H 83.2977 0.895361 -1.1278 0
M  V30 867 H 85.2507 4.031 -1.22834 0
M  V30 868 H 83.9747 3.25587 -0.257045 0
M  V30 869 H 82.6337 2.81854 -2.34423 0
M  V30 870 H 82.2817 4.92181 -1.03765 0
M  V30 871 H 81.9817 5.17964 -2.77465 0
M  V30 872 H 83.5057 5.75486 -2.04079 0
M  V30 873 H 84.9197 4.30335 -3.78794 0
M  V30 874 H 83.3167 3.96603 -4.50362 0
M  V30 875 H 84.3867 2.61672 -4.08235 0
M  V30 876 N 85.7298 1.2412 0.971189 0
M  V30 877 C 86.6618 0.988349 2.06795 0
M  V30 878 C 87.6748 -0.0409541 1.62748 0
M  V30 879 O 88.8638 0.195673 1.77424 0
M  V30 880 C 85.9638 0.469023 3.35639 0
M  V30 881 C 85.1368 1.56065 4.08611 0
M  V30 882 C 84.1958 1.04458 5.15728 0
M  V30 883 O 83.2218 1.73553 5.42096 0
M  V30 884 N 84.4238 -0.122817 5.8037 0
M  V30 885 H 87.1888 1.93265 2.29061 0
M  V30 886 H 84.7498 1.15102 1.13856 0
M  V30 887 H 86.7418 0.108613 4.04554 0
M  V30 888 H 85.3118 -0.380919 3.1027 0
M  V30 889 H 84.5318 2.09341 3.34021 0
M  V30 890 H 85.8198 2.29449 4.54126 0
M  V30 891 H 85.2178 -0.700563 5.61345 0
M  V30 892 H 83.7748 -0.424404 6.50417 0
M  V30 893 N 87.2079 -1.17134 1.05439 0
M  V30 894 C 88.6239 -1.39454 0.776201 0
M  V30 895 C 88.8239 -1.91454 -0.628307 0
M  V30 896 O 87.8799 -2.10777 -1.39031 0
M  V30 897 C 89.1929 -2.38305 1.83388 0
M  V30 898 C 90.7409 -2.52006 1.85639 0
M  V30 899 C 91.2159 -3.54133 2.90437 0
M  V30 900 N 92.7069 -3.61653 2.89415 0
M  V30 901 C 93.4419 -4.4044 3.67152 0
M  V30 902 N 92.9379 -5.22721 4.54681 0
M  V30 903 N 94.7309 -4.35337 3.55581 0
M  V30 904 H 86.8819 -0.817134 1.96053 0
M  V30 905 H 89.1449 -0.421626 0.849079 0
M  V30 906 H 88.8509 -2.07173 2.84204 0
M  V30 907 H 88.7249 -3.37841 1.67761 0
M  V30 908 H 91.1119 -2.82447 0.85486 0
M  V30 909 H 91.1929 -1.52537 2.05344 0
M  V30 910 H 90.8369 -3.24431 3.90777 0
M  V30 911 H 90.7669 -4.53313 2.67983 0
M  V30 912 H 93.2579 -3.02909 2.25952 0
M  V30 913 H 93.5709 -5.80027 5.10674 0
M  V30 914 H 91.9159 -5.22093 4.58741 0
M  V30 915 H 95.1069 -3.70112 2.86592 0
M  V30 916 H 95.2799 -4.96494 4.1641 0
M  V30 917 N 88.686 -0.835752 -1.33615 0
M  V30 918 C 89.633 -0.26473 -2.29277 0
M  V30 919 C 90.603 0.617712 -1.54187 0
M  V30 920 O 91.788 0.556641 -1.825 0
M  V30 921 C 88.928 0.556777 -3.40579 0
M  V30 922 C 88.041 -0.349339 -4.30585 0
M  V30 923 C 87.176 0.482969 -5.29 0
M  V30 924 C 86.215 -0.421732 -6.10645 0
M  V30 925 N 85.352 0.372262 -7.01112 0
M  V30 926 H 90.192 -1.08582 -2.77514 0
M  V30 927 H 87.729 -0.546927 -1.36554 0
M  V30 928 H 89.687 1.04852 -4.03809 0
M  V30 929 H 88.317 1.34286 -2.93542 0
M  V30 930 H 87.369 -0.959372 -3.68104 0
M  V30 931 H 88.681 -1.04445 -4.87742 0
M  V30 932 H 87.835 1.03866 -5.97743 0
M  V30 933 H 86.574 1.21153 -4.72412 0
M  V30 934 H 85.579 -0.989464 -5.40823 0
M  V30 935 H 86.804 -1.14861 -6.69316 0
M  V30 936 H 84.75 1.08426 -6.46977 0
M  V30 937 H 84.667 -0.264198 -7.55538 0
M  V30 938 H 85.935 0.910293 -7.74167 0
M  V30 939 N 90.1641 1.46063 -0.591896 0
M  V30 940 C 91.1111 2.30399 0.136069 0
M  V30 941 C 92.0811 1.41169 0.875238 0
M  V30 942 O 93.2661 1.70112 0.86409 0
M  V30 943 C 90.4061 3.25804 1.13781 0
M  V30 944 C 89.5191 4.30134 0.401137 0
M  V30 945 C 88.6541 5.12659 1.39121 0
M  V30 946 C 87.6931 6.0873 0.641462 0
M  V30 947 N 86.8301 6.8409 1.58004 0
M  V30 948 H 91.6701 2.92118 -0.589144 0
M  V30 949 H 89.2071 1.43959 -0.302342 0
M  V30 950 H 91.1651 3.79569 1.73156 0
M  V30 951 H 89.7951 2.65872 1.83062 0
M  V30 952 H 88.8471 3.79152 -0.307826 0
M  V30 953 H 90.1591 4.98458 -0.184565 0
M  V30 954 H 89.3131 5.70747 2.05749 0
M  V30 955 H 88.0521 4.44316 2.01084 0
M  V30 956 H 87.0571 5.49786 -0.0385419 0
M  V30 957 H 88.2821 6.79095 0.0270945 0
M  V30 958 H 86.2281 6.18449 2.18761 0
M  V30 959 H 86.1451 7.48709 1.04738 0
M  V30 960 H 87.4131 7.4673 2.23639 0
M  V30 961 N 91.6422 0.330177 1.54103 0
M  V30 962 C 92.5522 -0.541534 2.28264 0
M  V30 963 C 93.5682 -1.12351 1.32866 0
M  V30 964 O 94.7442 -1.14206 1.65888 0
M  V30 965 C 91.8092 -1.68322 3.03098 0
M  V30 966 C 90.8702 -1.13238 4.14096 0
M  V30 967 C 90.1032 -2.21966 4.85352 0
M  V30 968 O 90.3262 -3.42437 4.56172 0
M  V30 969 O 89.2602 -1.87013 5.7211 0
M  V30 970 H 93.0862 0.060938 3.03639 0
M  V30 971 H 90.6712 0.09565 1.49093 0
M  V30 972 H 92.5532 -2.34777 3.49939 0
M  V30 973 H 91.2282 -2.27176 2.30593 0
M  V30 974 H 90.1352 -0.432736 3.71589 0
M  V30 975 H 91.4682 -0.588898 4.88664 0
M  V30 976 N 93.1203 -1.57491 0.0584922 0
M  V30 977 C 94.3503 -1.9701 -0.622134 0
M  V30 978 C 94.7583 -0.935034 -1.6448 0
M  V30 979 O 94.1013 0.0882904 -1.83488 0
M  V30 980 C 94.1633 -3.32794 -1.35972 0
M  V30 981 C 93.8273 -4.54343 -0.492043 0
M  V30 982 C 94.8243 -5.19323 0.244901 0
M  V30 983 C 92.5093 -5.00534 -0.420821 0
M  V30 984 C 94.5033 -6.28835 1.04143 0
M  V30 985 C 92.1903 -6.09921 0.379389 0
M  V30 986 C 93.1883 -6.73933 1.10919 0
M  V30 987 O 92.8763 -7.81216 1.89623 0
M  V30 988 H 92.6083 -0.653127 -0.174359 0
M  V30 989 H 95.1623 -2.05029 0.123418 0
M  V30 990 H 93.3923 -3.21351 -2.15105 0
M  V30 991 H 95.0813 -3.5701 -1.93129 0
M  V30 992 H 95.8473 -4.8459 0.19939 0
M  V30 993 H 91.7263 -4.50496 -0.978474 0
M  V30 994 H 95.2703 -6.7873 1.61157 0
M  V30 995 H 91.1673 -6.44089 0.426512 0
M  V30 996 H 91.9353 -7.98029 1.81913 0
M  V30 997 N 94.5984 0.214957 -1.56127 0
M  V30 998 C 95.8464 0.936518 -1.79091 0
M  V30 999 C 96.1674 1.84606 -0.628148 0
M  V30 1000 O 95.4374 1.92664 0.35462 0
M  V30 1001 H 94.0174 0.3488 -0.660566 0
M  V30 1002 H 96.6794 0.22523 -1.93594 0
M  V30 1003 H 95.7754 1.53943 -2.71492 0
M  V30 1004 N 96.0765 1.50051 0.48192 0
M  V30 1005 C 97.0245 1.68635 1.60203 0
M  V30 1006 C 98.0185 0.552184 1.60148 0
M  V30 1007 O 99.2245 0.732377 1.64427 0
M  V30 1008 H 95.5995 0.532081 0.531407 0
M  V30 1009 H 97.5705 2.62616 1.41688 0
M  V30 1010 C 96.3195 1.78775 2.9822 0
M  V30 1011 H 95.6425 2.6543 2.98976 0
M  V30 1012 H 97.0825 1.95806 3.7608 0
M  V30 1013 C 95.5415 0.536849 3.32595 0
M  V30 1014 O 96.0715 -0.328897 4.00351 0
M  V30 1015 N 94.2775 0.394091 2.87915 0
M  V30 1016 H 93.8245 1.09962 2.32951 0
M  V30 1017 H 93.7825 -0.441737 3.11281 0
M  V30 1018 N 97.5546 -0.734337 1.39446 0
M  V30 1019 C 98.4846 -1.86155 1.40955 0
M  V30 1020 C 99.4656 -1.67898 0.272827 0
M  V30 1021 O 100.651 -1.88207 0.478743 0
M  V30 1022 C 97.7806 -3.23912 1.25294 0
M  V30 1023 C 96.7346 -3.56808 2.36373 0
M  V30 1024 C 96.0606 -4.93508 2.058 0
M  V30 1025 C 97.3606 -3.59713 3.78687 0
M  V30 1026 H 99.0546 -1.8515 2.35287 0
M  V30 1027 H 96.6006 -0.889367 1.13253 0
M  V30 1028 H 98.5536 -4.02443 1.2497 0
M  V30 1029 H 97.2776 -3.25446 0.274308 0
M  V30 1030 H 95.9366 -2.80606 2.35914 0
M  V30 1031 H 95.5846 -4.91623 1.06374 0
M  V30 1032 H 95.2846 -5.16486 2.80208 0
M  V30 1033 H 96.8086 -5.74396 2.07128 0
M  V30 1034 H 98.2226 -4.2832 3.81071 0
M  V30 1035 H 96.6196 -3.94209 4.52459 0
M  V30 1036 H 97.6896 -2.59504 4.09617 0
M  V30 1037 N 99.0327 -1.24633 -0.964593 0
M  V30 1038 C 99.9427 -1.05859 -2.09359 0
M  V30 1039 C 100.959 0.00148855 -1.74 0
M  V30 1040 O 102.135 -0.197346 -2.00431 0
M  V30 1041 C 99.1997 -0.668879 -3.40187 0
M  V30 1042 C 98.2607 -1.80578 -3.89474 0
M  V30 1043 C 97.4937 -1.43457 -5.14058 0
M  V30 1044 O 97.7167 -0.325775 -5.69469 0
M  V30 1045 O 96.6507 -2.2613 -5.57807 0
M  V30 1046 H 100.477 -2.00516 -2.28094 0
M  V30 1047 H 98.0617 -1.03481 -1.0776 0
M  V30 1048 H 99.9437 -0.463211 -4.18846 0
M  V30 1049 H 98.6187 0.248536 -3.22744 0
M  V30 1050 H 97.5257 -2.06623 -3.11862 0
M  V30 1051 H 98.8587 -2.70208 -4.11398 0
M  V30 1052 N 100.511 1.16574 -1.06058 0
M  V30 1053 C 101.443 2.2045 -0.627239 0
M  V30 1054 C 102.456 1.59752 0.313534 0
M  V30 1055 O 103.645 1.78192 0.104896 0
M  V30 1056 C 100.745 3.3875 0.100974 0
M  V30 1057 C 99.9178 4.29008 -0.852687 0
M  V30 1058 C 98.9768 5.25944 -0.164152 0
M  V30 1059 O 98.0028 5.63535 -0.801047 0
M  V30 1060 N 99.2048 5.70075 1.09518 0
M  V30 1061 H 101.97 2.58249 -1.52077 0
M  V30 1062 H 99.5308 1.3156 -0.943594 0
M  V30 1063 H 101.523 4.00638 0.57194 0
M  V30 1064 H 100.093 2.99476 0.89628 0
M  V30 1065 H 99.3128 3.64419 -1.50308 0
M  V30 1066 H 100.601 4.86195 -1.49972 0
M  V30 1067 H 99.9988 5.41624 1.6328 0
M  V30 1068 H 98.5558 6.34067 1.51006 0
M  V30 1069 N 101.989 0.842826 1.3317 0
M  V30 1070 C 102.939 0.250877 2.26616 0
M  V30 1071 C 103.923 -0.596427 1.49437 0
M  V30 1072 O 105.115 -0.447747 1.71243 0
M  V30 1073 C 102.244 -0.569779 3.38539 0
M  V30 1074 C 101.33 0.289254 4.23112 0
M  V30 1075 N 101.721 1.36987 4.86897 0
M  V30 1076 C 100.019 0.0769631 4.45934 0
M  V30 1077 C 100.72 1.89737 5.49886 0
M  V30 1078 N 99.6959 1.19827 5.30229 0
M  V30 1079 H 103.498 1.07718 2.73448 0
M  V30 1080 H 101.012 0.687693 1.47121 0
M  V30 1081 H 103.009 -1.01018 4.04476 0
M  V30 1082 H 101.669 -1.39401 2.93253 0
M  V30 1083 H 102.68 1.75277 4.87338 0
M  V30 1084 H 99.3569 -0.713507 4.11358 0
M  V30 1085 H 100.747 2.80253 6.10662 0
M  V30 1086 N 103.467 -1.45747 0.599634 0
M  V30 1087 C 104.377 -2.34262 -0.125888 0
M  V30 1088 C 105.393 -1.50768 -0.868625 0
M  V30 1089 O 106.569 -1.83592 -0.828003 0
M  V30 1090 C 103.634 -3.28252 -1.11587 0
M  V30 1091 C 102.695 -4.27651 -0.375956 0
M  V30 1092 C 101.928 -5.1715 -1.31877 0
M  V30 1093 O 102.151 -5.09916 -2.55621 0
M  V30 1094 O 101.085 -5.96286 -0.820157 0
M  V30 1095 H 104.911 -2.97688 0.601315 0
M  V30 1096 H 102.496 -1.44999 0.359934 0
M  V30 1097 H 104.378 -3.86191 -1.68626 0
M  V30 1098 H 103.053 -2.67401 -1.82424 0
M  V30 1099 H 101.96 -3.7335 0.236698 0
M  V30 1100 H 103.293 -4.91334 0.29177 0
M  V30 1101 N 104.945 -0.338344 -1.53925 0
M  V30 1102 C 106.175 0.260919 -2.04946 0
M  V30 1103 C 106.583 1.45174 -1.2133 0
M  V30 1104 O 105.926 1.82122 -0.240262 0
M  V30 1105 C 105.988 0.744596 -3.51704 0
M  V30 1106 C 105.652 -0.325883 -4.55837 0
M  V30 1107 C 106.649 -1.16687 -5.06636 0
M  V30 1108 C 104.334 -0.478317 -5.00017 0
M  V30 1109 C 106.328 -2.14588 -6.00192 0
M  V30 1110 C 104.015 -1.46073 -5.93385 0
M  V30 1111 C 105.013 -2.29297 -6.4336 0
M  V30 1112 O 104.701 -3.25867 -7.34892 0
M  V30 1113 H 104.433 0.0551207 -0.673749 0
M  V30 1114 H 106.987 -0.486984 -1.99544 0
M  V30 1115 H 105.217 1.54366 -3.54553 0
M  V30 1116 H 106.906 1.26383 -3.85723 0
M  V30 1117 H 107.672 -1.06016 -4.73271 0
M  V30 1118 H 103.551 0.159613 -4.60724 0
M  V30 1119 H 107.095 -2.79585 -6.39123 0
M  V30 1120 H 102.992 -1.56802 -6.26166 0
M  V30 1121 H 103.76 -3.21278 -7.5281 0
M  V30 1122 N 106.423 1.57458 -0.0668435 0
M  V30 1123 C 107.669 1.93587 0.6043 0
M  V30 1124 C 108.002 0.946722 1.69561 0
M  V30 1125 O 107.277 -0.0248516 1.94484 0
M  V30 1126 C 107.56 3.40014 1.18585 0
M  V30 1127 C 107.413 4.49685 0.101529 0
M  V30 1128 C 108.732 3.87154 2.09284 0
M  V30 1129 H 105.851 0.703958 0.218202 0
M  V30 1130 H 108.493 1.89542 -0.131804 0
M  V30 1131 H 106.643 3.43592 1.81319 0
M  V30 1132 H 108.315 4.5823 -0.531279 0
M  V30 1133 H 106.558 4.30059 -0.568487 0
M  V30 1134 H 107.229 5.49266 0.54874 0
M  V30 1135 H 109.705 3.85551 1.56491 0
M  V30 1136 H 108.581 4.90231 2.46911 0
M  V30 1137 H 108.842 3.2481 2.99918 0
M  V30 1138 N 107.901 -0.206675 1.56239 0
M  V30 1139 C 109.178 -0.954051 1.70755 0
M  V30 1140 C 109.558 -2.01841 0.618353 0
M  V30 1141 O 108.906 -2.25444 -0.372434 0
M  V30 1142 C 109.116 -1.551 3.12642 0
M  V30 1143 C 110.464 -2.03757 3.72516 0
M  V30 1144 O 111.488 -1.64965 3.15698 0
M  V30 1145 O 110.347 -2.75103 4.72208 0
M  V30 1146 H 107.441 -0.446636 0.696021 0
M  V30 1147 H 109.987 -0.197283 1.68549 0
M  V30 1148 H 108.759 -0.783212 3.83382 0
M  V30 1149 H 108.382 -2.37291 3.19028 0
M  V30 1150 N 109.379 -1.50304 -0.473955 0
M  V30 1151 C 110.625 -1.62358 -1.22521 0
M  V30 1152 C 110.98 -0.318555 -1.89745 0
M  V30 1153 O 110.273 0.683315 -1.79001 0
M  V30 1154 C 110.467 -2.73938 -2.29549 0
M  V30 1155 C 110.296 -4.15165 -1.72825 0
M  V30 1156 C 109.066 -4.81604 -1.52924 0
M  V30 1157 C 111.264 -4.99503 -1.22481 0
M  V30 1158 N 109.246 -6.07056 -0.91413 0
M  V30 1159 C 110.617 -6.15655 -0.732743 0
M  V30 1160 C 112.672 -4.85299 -1.11308 0
M  V30 1161 C 111.375 -7.19164 -0.139976 0
M  V30 1162 C 113.401 -5.88982 -0.534258 0
M  V30 1163 C 112.763 -7.0438 -0.0525562 0
M  V30 1164 H 108.862 -0.648286 -0.437321 0
M  V30 1165 H 111.446 -1.87413 -0.527692 0
M  V30 1166 H 109.617 -2.50611 -2.9673 0
M  V30 1167 H 111.349 -2.75366 -2.96573 0
M  V30 1168 H 108.104 -4.3885 -1.78067 0
M  V30 1169 H 108.528 -6.74108 -0.625071 0
M  V30 1170 H 113.17 -3.96369 -1.47144 0
M  V30 1171 H 110.888 -8.07771 0.230591 0
M  V30 1172 H 114.474 -5.80055 -0.450219 0
M  V30 1173 H 113.354 -7.83238 0.388324 0
M  V30 1174 N 110.857 0.726932 -1.39834 0
M  V30 1175 C 112.104 1.48664 -1.37496 0
M  V30 1176 C 112.432 1.94482 0.0264678 0
M  V30 1177 O 111.687 1.67692 1.00886 0
M  V30 1178 C 111.986 2.73495 -2.30077 0
M  V30 1179 C 111.652 2.46502 -3.77555 0
M  V30 1180 C 110.314 2.3885 -4.17737 0
M  V30 1181 C 112.666 2.23604 -4.70798 0
M  V30 1182 C 109.994 2.06352 -5.49214 0
M  V30 1183 C 112.346 1.92622 -6.02561 0
M  V30 1184 C 111.01 1.83444 -6.41798 0
M  V30 1185 H 110.28 0.544001 -0.503135 0
M  V30 1186 H 112.927 0.833657 -1.72402 0
M  V30 1187 H 111.232 3.43575 -1.88317 0
M  V30 1188 H 112.929 3.31549 -2.25558 0
M  V30 1189 H 109.519 2.5334 -3.45712 0
M  V30 1190 H 113.703 2.28479 -4.40581 0
M  V30 1191 H 108.959 1.97776 -5.78528 0
M  V30 1192 H 113.133 1.73914 -6.74334 0
M  V30 1193 H 110.76 1.58029 -7.43593 0
M  V30 1194 N 112.336 1.25143 0.95797 0
M  V30 1195 C 113.266 1.07711 2.07173 0
M  V30 1196 C 114.247 -0.0128462 1.70095 0
M  V30 1197 O 115.432 0.156061 1.93572 0
M  V30 1198 C 112.562 0.691503 3.40346 0
M  V30 1199 C 111.516 1.73132 3.9142 0
M  V30 1200 C 110.842 1.20049 5.21049 0
M  V30 1201 C 112.142 3.1294 4.1817 0
M  V30 1202 H 113.836 2.00873 2.22014 0
M  V30 1203 H 111.382 0.967191 1.06684 0
M  V30 1204 H 113.335 0.556505 4.17709 0
M  V30 1205 H 112.059 -0.275819 3.25433 0
M  V30 1206 H 110.718 1.8547 3.16222 0
M  V30 1207 H 110.366 0.223499 5.02503 0
M  V30 1208 H 110.066 1.89545 5.56189 0
M  V30 1209 H 111.59 1.07782 6.01012 0
M  V30 1210 H 113.004 3.03775 4.86203 0
M  V30 1211 H 111.401 3.79875 4.64559 0
M  V30 1212 H 112.471 3.6025 3.24573 0
M  V30 1213 N 113.814 -1.1601 1.06675 0
M  V30 1214 C 115.039 -1.91068 0.806706 0
M  V30 1215 C 115.464 -1.77112 -0.633485 0
M  V30 1216 O 114.822 -1.09908 -1.44187 0
M  V30 1217 C 114.87 -3.39655 1.21106 0
M  V30 1218 O 113.974 -4.10893 0.352189 0
M  V30 1219 H 113.315 -0.595125 0.294486 0
M  V30 1220 H 115.845 -1.46955 1.42356 0
M  V30 1221 H 115.855 -3.90434 1.18428 0
M  V30 1222 H 114.53 -3.49132 2.26008 0
M  V30 1223 H 113.107 -3.70285 0.440868 0
M  V30 1224 N 115.292 -0.849877 -1.32721 0
M  V30 1225 C 116.539 -0.450923 -1.97416 0
M  V30 1226 C 116.867 0.992376 -1.67279 0
M  V30 1227 O 116.122 1.71048 -0.950845 0
M  V30 1228 C 116.421 -0.631272 -3.51781 0
M  V30 1229 C 116.087 -2.04432 -4.01894 0
M  V30 1230 C 114.749 -2.4308 -4.1529 0
M  V30 1231 C 117.101 -2.96679 -4.28522 0
M  V30 1232 C 114.429 -3.73257 -4.52654 0
M  V30 1233 C 116.781 -4.26349 -4.67343 0
M  V30 1234 C 115.445 -4.64939 -4.78945 0
M  V30 1235 H 114.715 -0.165004 -0.722395 0
M  V30 1236 H 117.362 -1.07901 -1.58207 0
M  V30 1237 H 115.667 0.0800767 -3.91718 0
M  V30 1238 H 117.364 -0.302709 -3.99856 0
M  V30 1239 H 113.954 -1.73419 -3.91949 0
M  V30 1240 H 118.138 -2.68054 -4.17685 0
M  V30 1241 H 113.394 -4.02946 -4.59831 0
M  V30 1242 H 117.568 -4.97895 -4.86902 0
M  V30 1243 H 115.195 -5.65855 -5.07654 0
M  V30 1244 N 116.77 1.45427 -0.607355 0
M  V30 1245 C 117.733 2.28974 0.101693 0
M  V30 1246 C 118.733 1.39754 0.795329 0
M  V30 1247 O 119.923 1.61878 0.643527 0
M  V30 1248 C 117.055 3.20768 1.15414 0
M  V30 1249 H 118.248 2.93147 -0.632844 0
M  V30 1250 H 115.801 1.51945 -0.366391 0
M  V30 1251 H 116.536 2.61395 1.91945 0
M  V30 1252 H 116.321 3.86489 0.66098 0
M  V30 1253 H 117.811 3.83589 1.65073 0
M  V30 1254 N 118.248 0.346503 1.53744 0
M  V30 1255 C 119.195 -0.508914 2.25119 0
M  V30 1256 C 120.165 -1.09315 1.25058 0
M  V30 1257 O 121.35 -1.12921 1.53797 0
M  V30 1258 C 118.49 -1.65246 3.02965 0
M  V30 1259 C 117.603 -1.09525 4.17886 0
M  V30 1260 C 116.738 -2.20634 4.83212 0
M  V30 1261 C 115.777 -1.62279 5.90196 0
M  V30 1262 N 114.914 -2.67143 6.49291 0
M  V30 1263 H 119.754 0.106283 2.9781 0
M  V30 1264 H 117.291 0.0642227 1.4696 0
M  V30 1265 H 119.249 -2.32574 3.4636 0
M  V30 1266 H 117.879 -2.2386 2.32565 0
M  V30 1267 H 116.931 -0.312818 3.79112 0
M  V30 1268 H 118.243 -0.628444 4.94825 0
M  V30 1269 H 117.397 -2.95821 5.29693 0
M  V30 1270 H 116.136 -2.70659 4.05703 0
M  V30 1271 H 115.141 -0.855989 5.43096 0
M  V30 1272 H 116.366 -1.13102 6.69615 0
M  V30 1273 H 114.312 -3.16417 5.74645 0
M  V30 1274 H 114.229 -2.25093 7.21713 0
M  V30 1275 H 115.497 -3.4209 7.00425 0
M  V30 1276 N 119.726 -1.57421 0.075193 0
M  V30 1277 C 120.972 -1.93905 -0.594025 0
M  V30 1278 C 121.305 -0.955701 -1.69056 0
M  V30 1279 O 120.58 0.0145373 -1.94495 0
M  V30 1280 C 120.863 -3.40638 -1.1678 0
M  V30 1281 C 120.716 -4.49733 -0.0776792 0
M  V30 1282 C 122.035 -3.88259 -2.07228 0
M  V30 1283 H 119.154 -0.705105 -0.214466 0
M  V30 1284 H 121.796 -1.8947 0.141854 0
M  V30 1285 H 119.946 -3.44549 -1.79494 0
M  V30 1286 H 121.618 -4.57942 0.555573 0
M  V30 1287 H 119.861 -4.29751 0.591286 0
M  V30 1288 H 120.532 -5.49549 -0.519603 0
M  V30 1289 H 123.008 -3.86376 -1.54445 0
M  V30 1290 H 121.884 -4.91533 -2.44308 0
M  V30 1291 H 122.145 -3.26396 -2.98191 0
M  V30 1292 N 121.204 0.198386 -1.56346 0
M  V30 1293 C 122.45 0.920648 -1.80698 0
M  V30 1294 C 122.783 1.83045 -0.648697 0
M  V30 1295 O 122.058 1.91308 0.350925 0
M  V30 1296 C 122.341 1.73971 -3.15287 0
M  V30 1297 C 122.194 0.85485 -4.41602 0
M  V30 1298 C 123.513 2.71296 -3.46535 0
M  V30 1299 H 120.632 0.333261 -0.657348 0
M  V30 1300 H 123.274 0.188198 -1.89066 0
M  V30 1301 H 121.424 2.36416 -3.08285 0
M  V30 1302 H 123.096 0.245362 -4.60647 0
M  V30 1303 H 121.339 0.161398 -4.335 0
M  V30 1304 H 122.01 1.46286 -5.32264 0
M  V30 1305 H 124.486 2.18983 -3.53816 0
M  V30 1306 H 123.362 3.2569 -4.41834 0
M  V30 1307 H 123.623 3.5018 -2.69864 0
M  V30 1308 N 122.682 1.50554 0.465978 0
M  V30 1309 C 123.63 1.70324 1.58406 0
M  V30 1310 C 124.624 0.569139 1.59553 0
M  V30 1311 O 125.83 0.749776 1.63641 0
M  V30 1312 H 122.205 0.537688 0.525734 0
M  V30 1313 H 124.176 2.64104 1.38894 0
M  V30 1314 C 122.925 1.81928 2.96307 0
M  V30 1315 H 122.248 2.68586 2.96144 0
M  V30 1316 H 123.688 1.99784 3.73982 0
M  V30 1317 C 122.147 0.572095 3.32007 0
M  V30 1318 O 122.677 -0.286416 4.00678 0
M  V30 1319 N 120.883 0.424606 2.87481 0
M  V30 1320 H 120.43 1.12427 2.31771 0
M  V30 1321 H 120.388 -0.408697 3.11732 0
M  V30 1322 N 124.16 -0.719506 1.40217 0
M  V30 1323 C 125.107 -1.83359 1.40172 0
M  V30 1324 C 126.077 -1.64065 0.259206 0
M  V30 1325 O 127.262 -1.85254 0.456677 0
M  V30 1326 C 124.402 -3.2103 1.26624 0
M  V30 1327 C 123.515 -3.51923 2.50548 0
M  V30 1328 C 122.65 -4.79079 2.29471 0
M  V30 1329 C 121.689 -5.02863 3.48992 0
M  V30 1330 N 120.826 -6.2123 3.27135 0
M  V30 1331 H 125.666 -1.82733 2.35399 0
M  V30 1332 H 123.203 -0.892688 1.16917 0
M  V30 1333 H 125.161 -4.00524 1.16776 0
M  V30 1334 H 123.791 -3.20895 0.350176 0
M  V30 1335 H 122.843 -2.67014 2.70939 0
M  V30 1336 H 124.155 -3.6541 3.39525 0
M  V30 1337 H 123.309 -5.66582 2.16955 0
M  V30 1338 H 122.048 -4.67794 1.37913 0
M  V30 1339 H 121.053 -4.13816 3.6199 0
M  V30 1340 H 122.278 -5.16023 4.41472 0
M  V30 1341 H 120.224 -6.11204 2.38256 0
M  V30 1342 H 120.141 -6.35375 4.09675 0
M  V30 1343 H 121.409 -7.11532 3.18344 0
M  V30 1344 N 125.638 -1.25649 -0.95132 0
M  V30 1345 C 126.585 -1.06323 -2.04851 0
M  V30 1346 C 127.555 0.0286491 -1.66075 0
M  V30 1347 O 128.74 -0.12917 -1.90362 0
M  V30 1348 C 125.88 -0.691529 -3.381 0
M  V30 1349 C 124.993 -1.85861 -3.89974 0
M  V30 1350 C 124.128 -1.43096 -5.11563 0
M  V30 1351 C 123.167 -2.56696 -5.55674 0
M  V30 1352 N 122.304 -2.14684 -6.68472 0
M  V30 1353 H 127.144 -2.00222 -2.20715 0
M  V30 1354 H 124.681 -0.997027 -1.08156 0
M  V30 1355 H 126.639 -0.456963 -4.1469 0
M  V30 1356 H 125.269 0.210474 -3.22113 0
M  V30 1357 H 124.321 -2.20639 -3.09875 0
M  V30 1358 H 125.633 -2.71161 -4.18657 0
M  V30 1359 H 124.787 -1.15624 -5.9558 0
M  V30 1360 H 123.526 -0.548722 -4.84603 0
M  V30 1361 H 122.531 -2.84909 -4.7022 0
M  V30 1362 H 123.756 -3.45503 -5.8464 0
M  V30 1363 H 121.702 -1.28881 -6.43215 0
M  V30 1364 H 121.619 -2.9353 -6.96689 0
M  V30 1365 H 122.887 -1.90397 -7.5589 0
M  V30 1366 N 127.117 1.15442 -1.07289 0
M  V30 1367 C 128.047 2.22312 -0.714107 0
M  V30 1368 C 129.028 1.67467 0.298155 0
M  V30 1369 O 130.213 1.93445 0.171048 0
M  V30 1370 C 127.343 3.47124 -0.110448 0
M  V30 1371 C 126.297 4.14926 -1.04979 0
M  V30 1372 C 125.623 5.33807 -0.308924 0
M  V30 1373 C 126.923 4.64762 -2.38314 0
M  V30 1374 H 128.617 2.5258 -1.6076 0
M  V30 1375 H 126.163 1.21404 -0.77441 0
M  V30 1376 H 128.116 4.21124 0.152482 0
M  V30 1377 H 126.84 3.16187 0.81812 0
M  V30 1378 H 125.499 3.42866 -1.29764 0
M  V30 1379 H 125.147 4.99126 0.623084 0
M  V30 1380 H 124.847 5.80113 -0.935036 0
M  V30 1381 H 126.371 6.10576 -0.0537771 0
M  V30 1382 H 127.785 5.30292 -2.1786 0
M  V30 1383 H 126.182 5.21728 -2.96514 0
M  V30 1384 H 127.252 3.80434 -3.00663 0
M  V30 1385 N 128.595 0.856903 1.32268 0
M  V30 1386 C 129.542 0.301172 2.28827 0
M  V30 1387 C 130.512 -0.593104 1.5515 0
M  V30 1388 O 131.697 -0.527537 1.83362 0
M  V30 1389 C 128.837 -0.502523 3.41422 0
M  V30 1390 C 127.95 0.417797 4.29975 0
M  V30 1391 C 127.085 -0.398749 5.29701 0
M  V30 1392 C 126.124 0.518827 6.09897 0
M  V30 1393 N 125.261 -0.260674 7.01616 0
M  V30 1394 H 130.101 1.12983 2.75751 0
M  V30 1395 H 127.638 0.568582 1.35667 0
M  V30 1396 H 129.596 -0.984141 4.05426 0
M  V30 1397 H 128.226 -1.29599 2.95642 0
M  V30 1398 H 127.278 1.01781 3.66531 0
M  V30 1399 H 128.59 1.12191 4.86019 0
M  V30 1400 H 127.744 -0.943435 5.9932 0
M  V30 1401 H 126.483 -1.13622 4.7428 0
M  V30 1402 H 125.488 1.07538 5.39181 0
M  V30 1403 H 126.713 1.25495 6.67404 0
M  V30 1404 H 124.659 -0.981198 6.4862 0
M  V30 1405 H 124.576 0.384364 7.55022 0
M  V30 1406 H 125.844 -0.787014 7.75517 0
M  V30 1407 N 130.073 -1.45103 0.615059 0
M  V30 1408 C 131.484 -1.85654 0.197383 0
M  V30 1409 C 131.835 -1.51433 -1.24749 0
M  V30 1410 O 130.96 -0.944608 -1.94695 0
M  V30 1411 C 131.555 -3.36972 0.351448 0
M  V30 1412 C 130.114 -3.76398 -0.011593 0
M  V30 1413 C 129.261 -2.69024 0.672394 0
M  V30 1414 H 132.212 -1.35797 0.821263 0
M  V30 1415 H 132.233 -3.78239 -0.414227 0
M  V30 1416 H 131.745 -3.61847 1.40314 0
M  V30 1417 H 129.846 -3.5714 -1.06217 0
M  V30 1418 H 129.959 -4.77532 0.387265 0
M  V30 1419 H 128.323 -2.54465 0.109284 0
M  V30 1420 H 129.106 -2.96735 1.72636 0
M  V30 1421 N 131.551 -0.354651 -1.53558 0
M  V30 1422 C 132.828 0.294281 -1.93374 0
M  V30 1423 C 133.208 1.67313 -1.28723 0
M  V30 1424 O 132.556 2.24179 -0.442247 0
M  V30 1425 C 132.766 0.355445 -3.47185 0
M  V30 1426 C 134.114 0.601007 -4.20325 0
M  V30 1427 O 135.138 0.437106 -3.53508 0
M  V30 1428 O 133.997 0.919322 -5.38712 0
M  V30 1429 H 131.091 0.174033 -0.808481 0
M  V30 1430 H 133.637 -0.406638 -1.64756 0
M  V30 1431 H 132.409 -0.611729 -3.86489 0
M  V30 1432 H 132.032 1.1027 -3.82003 0
M  V30 1433 N 133.029 1.57378 -0.0835403 0
M  V30 1434 C 134.277 1.93547 0.581718 0
M  V30 1435 C 134.598 0.96524 1.69435 0
M  V30 1436 O 133.868 0.0153369 1.95894 0
M  V30 1437 H 132.448 0.714521 0.217874 0
M  V30 1438 H 135.11 1.94366 -0.144158 0
M  V30 1439 H 134.206 2.95665 0.999423 0
M  V30 1440 N 134.507 -0.190092 1.56449 0
M  V30 1441 C 135.732 -0.929864 1.85387 0
M  V30 1442 C 136.157 -1.7585 0.667704 0
M  V30 1443 O 135.515 -1.77198 -0.383459 0
M  V30 1444 C 135.563 -1.79773 3.12593 0
M  V30 1445 O 134.667 -2.89713 2.93496 0
M  V30 1446 H 134.008 -0.261574 0.610307 0
M  V30 1447 H 136.538 -0.193896 2.03679 0
M  V30 1448 H 136.548 -2.20139 3.43515 0
M  V30 1449 H 135.223 -1.18892 3.98544 0
M  V30 1450 H 133.8 -2.53065 2.73884 0
M  V30 1451 N 135.985 -1.50799 -0.457987 0
M  V30 1452 C 137.232 -1.62442 -1.20908 0
M  V30 1453 C 137.56 -0.330865 -1.91665 0
M  V30 1454 O 136.815 0.68401 -1.83357 0
M  V30 1455 C 137.114 -2.76358 -2.2663 0
M  V30 1456 C 136.78 -4.16378 -1.73033 0
M  V30 1457 C 135.442 -4.54473 -1.58138 0
M  V30 1458 C 137.794 -5.03836 -1.33413 0
M  V30 1459 C 135.122 -5.77754 -1.02065 0
M  V30 1460 C 137.474 -6.27676 -0.78778 0
M  V30 1461 C 136.138 -6.64562 -0.625561 0
M  V30 1462 H 135.408 -0.594417 -0.442435 0
M  V30 1463 H 138.055 -1.84772 -0.503136 0
M  V30 1464 H 136.36 -2.48167 -3.03184 0
M  V30 1465 H 138.057 -2.82568 -2.84528 0
M  V30 1466 H 134.647 -3.86331 -1.85598 0
M  V30 1467 H 138.831 -4.75026 -1.4375 0
M  V30 1468 H 134.087 -6.04997 -0.882547 0
M  V30 1469 H 138.261 -6.94797 -0.472177 0
M  V30 1470 H 135.888 -7.59965 -0.188926 0
M  V30 1471 N 137.463 0.71206 -1.40597 0
M  V30 1472 C 138.709 1.47416 -1.39271 0
M  V30 1473 C 139.042 1.942 0.00388791 0
M  V30 1474 O 138.317 1.68403 0.973179 0
M  V30 1475 C 138.6 2.69774 -2.38525 0
M  V30 1476 C 138.453 2.28861 -3.87224 0
M  V30 1477 C 139.772 3.71939 -2.35264 0
M  V30 1478 H 136.891 0.534713 -0.5072 0
M  V30 1479 H 139.533 0.812375 -1.71757 0
M  V30 1480 H 137.683 3.26238 -2.10953 0
M  V30 1481 H 139.355 1.77852 -4.25636 0
M  V30 1482 H 137.598 1.60824 -4.02887 0
M  V30 1483 H 138.269 3.16584 -4.52193 0
M  V30 1484 H 140.745 3.25113 -2.59694 0
M  V30 1485 H 139.621 4.55186 -3.06753 0
M  V30 1486 H 139.882 4.20484 -1.36549 0
M  V30 1487 N 138.941 1.26152 0.944643 0
M  V30 1488 C 140.187 1.11657 1.69294 0
M  V30 1489 C 140.52 -0.339926 1.91202 0
M  V30 1490 O 139.795 -1.24994 1.49019 0
M  V30 1491 C 140.078 1.88236 3.06984 0
M  V30 1492 C 139.931 3.41772 2.92424 0
M  V30 1493 C 141.25 1.67343 4.07043 0
M  V30 1494 H 138.369 0.407004 0.614424 0
M  V30 1495 H 141.011 1.55106 1.09737 0
M  V30 1496 H 139.161 1.51308 3.57824 0
M  V30 1497 H 140.833 3.88433 2.48832 0
M  V30 1498 H 139.076 3.68974 2.28124 0
M  V30 1499 H 139.747 3.90579 3.90067 0
M  V30 1500 H 142.223 1.99509 3.65151 0
M  V30 1501 H 141.099 2.23346 5.01406 0
M  V30 1502 H 141.36 0.617158 4.37771 0
M  V30 1503 N 140.419 -1.14872 1.07899 0
M  V30 1504 C 141.696 -1.81928 0.71845 0
M  V30 1505 C 142.076 -1.95417 -0.798455 0
M  V30 1506 O 141.424 -1.50997 -1.715 0
M  V30 1507 C 141.634 -3.17937 1.43935 0
M  V30 1508 C 142.982 -3.93501 1.59506 0
M  V30 1509 O 144.006 -3.27509 1.40058 0
M  V30 1510 O 142.865 -5.1183 1.91551 0
M  V30 1511 H 139.959 -0.78628 0.256305 0
M  V30 1512 H 142.505 -1.21934 1.18026 0
M  V30 1513 H 141.277 -3.0325 2.47295 0
M  V30 1514 H 140.9 -3.85619 0.968687 0
M  V30 1515 N 141.898 -0.863906 -1.31812 0
M  V30 1516 C 143.145 -0.471836 -1.96926 0
M  V30 1517 C 143.473 0.974578 -1.68322 0
M  V30 1518 O 142.728 1.7003 -0.968933 0
M  V30 1519 C 143.027 -0.668547 -3.51091 0
M  V30 1520 C 142.693 -2.08683 -3.99703 0
M  V30 1521 C 141.355 -2.47471 -4.12688 0
M  V30 1522 C 143.707 -3.01207 -4.25351 0
M  V30 1523 C 141.035 -3.78037 -4.4867 0
M  V30 1524 C 143.387 -4.31282 -4.62794 0
M  V30 1525 C 142.051 -4.69992 -4.73987 0
M  V30 1526 H 141.321 -0.172657 -0.720604 0
M  V30 1527 H 143.968 -1.09573 -1.57054 0
M  V30 1528 H 142.273 0.0385252 -3.91781 0
M  V30 1529 H 143.97 -0.345102 -3.99512 0
M  V30 1530 H 140.56 -1.77566 -3.90087 0
M  V30 1531 H 144.744 -2.72469 -4.14819 0
M  V30 1532 H 140 -4.078 -4.55532 0
M  V30 1533 H 144.174 -5.03031 -4.81594 0
M  V30 1534 H 141.801 -5.71207 -5.01624 0
M  V30 1535 N 143.376 1.44774 -0.622745 0
M  V30 1536 C 144.624 2.01721 -0.123655 0
M  V30 1537 C 144.945 1.49172 1.25589 0
M  V30 1538 O 144.215 0.691974 1.83272 0
M  V30 1539 H 142.795 0.745777 -0.0427225 0
M  V30 1540 H 145.457 1.77382 -0.807559 0
M  V30 1541 H 144.553 3.11984 -0.0849534 0
M  V30 1542 N 144.854 0.36279 1.53368 0
M  V30 1543 C 146.102 -0.227326 2.00817 0
M  V30 1544 C 146.423 -1.49511 1.25186 0
M  V30 1545 O 145.693 -1.92482 0.364348 0
M  V30 1546 H 144.273 -0.0869923 0.741917 0
M  V30 1547 H 146.935 0.488381 1.88682 0
M  V30 1548 H 146.031 -0.456273 3.08747 0
M  V30 1549 N 146.332 -1.57332 0.0918853 0
M  V30 1550 C 147.295 -2.12708 -0.85369 0
M  V30 1551 C 148.295 -1.05561 -1.213 0
M  V30 1552 O 149.485 -1.31461 -1.14296 0
M  V30 1553 C 146.617 -2.64503 -2.15061 0
M  V30 1554 H 147.81 -2.97573 -0.3729 0
M  V30 1555 H 145.363 -1.55509 -0.157072 0
M  V30 1556 H 146.098 -1.83149 -2.67632 0
M  V30 1557 H 145.883 -3.4284 -1.90272 0
M  V30 1558 H 147.373 -3.07351 -2.82711 0
M  V30 1559 N 147.81 0.181792 -1.56548 0
M  V30 1560 C 149.04 0.914618 -1.85252 0
M  V30 1561 C 149.448 1.76791 -0.673914 0
M  V30 1562 O 148.791 1.80009 0.366416 0
M  V30 1563 C 148.853 1.85019 -3.08234 0
M  V30 1564 C 148.517 1.17754 -4.41569 0
M  V30 1565 C 149.514 0.548035 -5.17003 0
M  V30 1566 C 147.199 1.17742 -4.88305 0
M  V30 1567 C 149.193 -0.0726128 -6.37359 0
M  V30 1568 C 146.88 0.552946 -6.08593 0
M  V30 1569 C 147.878 -0.070978 -6.82963 0
M  V30 1570 O 147.566 -0.685635 -8.00971 0
M  V30 1571 H 147.298 0.271695 -0.618998 0
M  V30 1572 H 149.852 0.189944 -2.0452 0
M  V30 1573 H 148.082 2.61491 -2.84885 0
M  V30 1574 H 149.771 2.45195 -3.23472 0
M  V30 1575 H 150.537 0.540174 -4.81982 0
M  V30 1576 H 146.416 1.65246 -4.30366 0
M  V30 1577 H 149.96 -0.560213 -6.95347 0
M  V30 1578 H 145.857 0.558354 -6.43081 0
M  V30 1579 H 146.625 -0.58385 -8.16415 0
M  V30 1580 N 149.288 1.51039 0.449983 0
M  V30 1581 C 150.221 1.66105 1.56474 0
M  V30 1582 C 151.199 0.508776 1.54435 0
M  V30 1583 O 152.383 0.731005 1.73749 0
M  V30 1584 C 149.51 1.66304 2.9506 0
M  V30 1585 C 148.556 2.87346 3.15174 0
M  V30 1586 S 149.389 4.4835 2.92818 0
M  V30 1587 C 150.545 4.51274 4.33708 0
M  V30 1588 H 150.778 2.60397 1.43459 0
M  V30 1589 H 148.311 1.40565 0.638805 0
M  V30 1590 H 150.269 1.67103 3.74949 0
M  V30 1591 H 148.93 0.732108 3.05449 0
M  V30 1592 H 148.123 2.83849 4.16468 0
M  V30 1593 H 147.725 2.84223 2.43091 0
M  V30 1594 H 150.017 4.26136 5.26701 0
M  V30 1595 H 150.96 5.53017 4.42242 0
M  V30 1596 H 151.368 3.80738 4.16772 0
M  V30 1597 N 150.766 -0.704594 1.40972 0
M  V30 1598 C 151.713 -1.81862 1.42109 0
M  V30 1599 C 152.683 -1.63781 0.276593 0
M  V30 1600 O 153.868 -1.84759 0.4763 0
M  V30 1601 C 151.008 -3.19669 1.30022 0
M  V30 1602 C 150.121 -3.49246 2.54267 0
M  V30 1603 C 149.256 -4.76618 2.3454 0
M  V30 1604 C 148.295 -4.99133 3.54306 0
M  V30 1605 N 147.432 -6.17726 3.33706 0
M  V30 1606 H 152.272 -1.80226 2.37324 0
M  V30 1607 H 149.809 -0.880238 1.17857 0
M  V30 1608 H 151.767 -3.99263 1.21018 0
M  V30 1609 H 150.397 -3.20506 0.384192 0
M  V30 1610 H 149.449 -2.64125 2.73756 0
M  V30 1611 H 150.761 -3.61788 3.43381 0
M  V30 1612 H 149.915 -5.64249 2.22952 0
M  V30 1613 H 148.654 -4.66305 1.42867 0
M  V30 1614 H 147.659 -4.09953 3.66359 0
M  V30 1615 H 148.884 -5.11311 4.4692 0
M  V30 1616 H 146.83 -6.08642 2.44725 0
M  V30 1617 H 146.747 -6.30995 4.16391 0
M  V30 1618 H 148.015 -7.08115 3.25873 0
M  V30 1619 N 152.244 -1.26651 -0.937939 0
M  V30 1620 C 153.492 -1.12165 -1.68118 0
M  V30 1621 C 153.813 0.334983 -1.92101 0
M  V30 1622 O 153.083 1.23583 -1.52 0
M  V30 1623 H 151.663 -0.412093 -0.623048 0
M  V30 1624 H 154.325 -1.59027 -1.12678 0
M  V30 1625 H 153.421 -1.64289 -2.6536 0
M  V30 1626 N 153.722 1.14298 -1.08507 0
M  V30 1627 C 154.968 1.85633 -0.816581 0
M  V30 1628 C 155.301 1.82784 0.656021 0
M  V30 1629 O 154.576 1.25926 1.48233 0
M  V30 1630 C 154.859 3.34223 -1.34041 0
M  V30 1631 C 154.712 3.45639 -2.87843 0
M  V30 1632 C 156.031 4.29356 -0.9665 0
M  V30 1633 H 153.15 0.67402 -0.298104 0
M  V30 1634 H 155.792 1.34214 -1.34487 0
M  V30 1635 H 153.942 3.78144 -0.89104 0
M  V30 1636 H 155.614 3.10498 -3.41158 0
M  V30 1637 H 153.857 2.86817 -3.25451 0
M  V30 1638 H 154.528 4.50089 -3.19569 0
M  V30 1639 H 157.004 3.93457 -1.35391 0
M  V30 1640 H 155.88 5.3178 -1.3602 0
M  V30 1641 H 156.141 4.41919 0.126362 0
M  V30 1642 N 155.201 0.870884 1.31352 0
M  V30 1643 C 156.612 0.534714 1.78879 0
M  V30 1644 C 156.963 -0.948423 1.71754 0
M  V30 1645 O 156.088 -1.74055 1.28584 0
M  V30 1646 C 156.683 0.963839 3.24801 0
M  V30 1647 C 155.242 0.679311 3.70219 0
M  V30 1648 C 154.389 1.15465 2.52117 0
M  V30 1649 H 157.34 1.05651 1.18421 0
M  V30 1650 H 157.361 0.286892 3.79417 0
M  V30 1651 H 156.873 2.04332 3.29955 0
M  V30 1652 H 154.974 -0.388769 3.70566 0
M  V30 1653 H 155.087 1.25698 4.62317 0
M  V30 1654 H 153.451 0.574383 2.48139 0
M  V30 1655 H 154.234 2.24157 2.60016 0
M  V30 1656 N 156.679 -1.44442 0.630414 0
M  V30 1657 C 157.642 -2.29107 -0.0652523 0
M  V30 1658 C 158.642 -1.41002 -0.772995 0
M  V30 1659 O 159.832 -1.62881 -0.617692 0
M  V30 1660 C 156.964 -3.22564 -1.10296 0
M  V30 1661 H 158.157 -2.92103 0.679401 0
M  V30 1662 H 155.71 -1.51343 0.390517 0
M  V30 1663 H 156.445 -2.64416 -1.87762 0
M  V30 1664 H 156.23 -3.87491 -0.59941 0
M  V30 1665 H 157.72 -3.86167 -1.5895 0
M  V30 1666 N 158.157 -0.370918 -1.53173 0
M  V30 1667 C 159.573 -0.0200818 -1.59587 0
M  V30 1668 C 159.773 1.46279 -1.38581 0
M  V30 1669 O 158.829 2.22506 -1.19363 0
M  V30 1670 C 160.142 -0.4808 -2.96831 0
M  V30 1671 C 161.69 -0.435477 -3.09956 0
M  V30 1672 C 162.165 -0.872092 -4.4962 0
M  V30 1673 N 163.656 -0.827364 -4.55751 0
M  V30 1674 C 164.391 -1.13683 -5.62018 0
M  V30 1675 N 163.887 -1.51584 -6.76014 0
M  V30 1676 N 165.68 -1.05927 -5.52029 0
M  V30 1677 H 157.831 -1.33652 -1.65079 0
M  V30 1678 H 160.094 -0.546634 -0.774529 0
M  V30 1679 H 159.8 -1.51577 -3.1736 0
M  V30 1680 H 159.674 0.129796 -3.76977 0
M  V30 1681 H 162.061 0.590371 -2.89134 0
M  V30 1682 H 162.142 -1.08164 -2.31806 0
M  V30 1683 H 161.786 -1.89608 -4.71181 0
M  V30 1684 H 161.716 -0.203127 -5.26208 0
M  V30 1685 H 164.207 -0.548216 -3.73902 0
M  V30 1686 H 164.52 -1.73609 -7.53047 0
M  V30 1687 H 162.865 -1.55454 -6.77391 0
M  V30 1688 H 166.056 -0.762321 -4.61851 0
M  V30 1689 H 166.229 -1.30378 -6.34749 0
M  V30 1690 N 159.635 1.57281 -0.100228 0
M  V30 1691 C 160.86 1.99302 0.573881 0
M  V30 1692 C 161.285 0.979059 1.60611 0
M  V30 1693 O 160.643 -0.0517803 1.81226 0
M  V30 1694 C 160.691 3.40274 1.19358 0
M  V30 1695 O 159.795 3.41676 2.30935 0
M  V30 1696 H 159.136 0.647944 0.145138 0
M  V30 1697 H 161.666 2.03779 -0.183156 0
M  V30 1698 H 161.676 3.78078 1.53365 0
M  V30 1699 H 160.351 4.13594 0.437385 0
M  V30 1700 H 158.928 3.15672 1.98509 0
M  V30 1701 N 161.113 -0.173488 1.56642 0
M  V30 1702 C 162.362 -0.888758 1.81063 0
M  V30 1703 C 162.675 -1.83506 0.67712 0
M  V30 1704 O 163.881 -2.59254 0.806206 0
M  V30 1705 C 162.337 -1.63091 3.20826 0
M  V30 1706 C 161.945 -0.728357 4.4204 0
M  V30 1707 C 163.689 -2.33454 3.54541 0
M  V30 1708 C 161.596 -1.47062 5.72823 0
M  V30 1709 H 160.526 -0.335618 0.675186 0
M  V30 1710 H 163.177 -0.141712 1.82952 0
M  V30 1711 H 161.559 -2.42263 3.13248 0
M  V30 1712 H 162.733 0.0262449 4.60793 0
M  V30 1713 H 161.048 -0.134492 4.16183 0
M  V30 1714 H 163.645 -2.89578 4.49498 0
M  V30 1715 H 163.988 -3.08687 2.79317 0
M  V30 1716 H 164.521 -1.61227 3.63663 0
M  V30 1717 H 161.26 -0.760658 6.51072 0
M  V30 1718 H 160.78 -2.1986 5.58052 0
M  V30 1719 H 162.459 -2.01868 6.14702 0
M  V30 1720 N 162.591 -1.51276 -0.441967 0
M  V30 1721 C 163.821 -1.67273 -1.21257 0
M  V30 1722 C 164.229 -0.367624 -1.85594 0
M  V30 1723 O 163.572 0.663349 -1.71305 0
M  V30 1724 C 163.634 -2.72807 -2.34129 0
M  V30 1725 C 163.298 -4.1554 -1.90198 0
M  V30 1726 C 164.295 -5.00471 -1.40801 0
M  V30 1727 C 161.98 -4.61616 -1.9803 0
M  V30 1728 C 163.974 -6.29536 -0.998174 0
M  V30 1729 C 161.661 -5.90679 -1.56658 0
M  V30 1730 C 162.659 -6.74466 -1.07633 0
M  V30 1731 O 162.347 -8.01116 -0.668459 0
M  V30 1732 H 162.079 -0.564614 -0.371734 0
M  V30 1733 H 164.633 -1.9843 -0.530521 0
M  V30 1734 H 162.863 -2.36954 -3.05597 0
M  V30 1735 H 164.552 -2.77729 -2.96009 0
M  V30 1736 H 165.318 -4.66079 -1.34148 0
M  V30 1737 H 161.197 -3.96526 -2.35135 0
M  V30 1738 H 164.741 -6.94885 -0.61482 0
M  V30 1739 H 160.638 -6.24586 -1.62979 0
M  V30 1740 H 161.406 -8.14633 -0.794722 0
M  V30 1741 N 164.069 0.697108 -1.41344 0
M  V30 1742 C 165.017 1.83237 -1.43272 0
M  V30 1743 C 166.011 1.66522 -0.310947 0
M  V30 1744 O 167.217 1.73402 -0.482899 0
M  V30 1745 H 163.592 0.603802 -0.448249 0
M  V30 1746 H 165.563 1.78727 -2.38954 0
M  V30 1747 C 164.312 3.21245 -1.33029 0
M  V30 1748 H 163.635 3.34723 -2.18633 0
M  V30 1749 H 165.075 4.00763 -1.38439 0
M  V30 1750 C 163.534 3.36873 -0.0424635 0
M  V30 1751 O 164.064 3.91177 0.913421 0
M  V30 1752 N 162.27 2.90581 0.0331145 0
M  V30 1753 H 161.817 2.46577 -0.745506 0
M  V30 1754 H 161.775 3.01416 0.894199 0
M  V30 1755 N 165.547 1.27147 0.931209 0
M  V30 1756 C 166.794 1.13278 1.67852 0
M  V30 1757 C 167.122 -0.32204 1.91815 0
M  V30 1758 O 166.377 -1.25224 1.50391 0
M  V30 1759 C 166.676 1.8579 3.05314 0
M  V30 1760 C 166.342 3.35657 3.01073 0
M  V30 1761 C 165.004 3.76536 2.99623 0
M  V30 1762 C 167.356 4.31299 2.92627 0
M  V30 1763 C 164.684 5.11426 2.87506 0
M  V30 1764 C 167.036 5.66242 2.82051 0
M  V30 1765 C 165.7 6.06418 2.7895 0
M  V30 1766 H 164.97 0.414515 0.614214 0
M  V30 1767 H 167.617 1.57712 1.08624 0
M  V30 1768 H 165.922 1.33854 3.68226 0
M  V30 1769 H 167.619 1.72491 3.62005 0
M  V30 1770 H 164.209 3.03146 3.02986 0
M  V30 1771 H 168.393 4.00692 2.92848 0
M  V30 1772 H 163.649 5.41705 2.83489 0
M  V30 1773 H 167.823 6.40026 2.74481 0
M  V30 1774 H 165.45 7.10895 2.69318 0
M  V30 1775 N 167.025 -1.13721 1.09112 0
M  V30 1776 C 168.441 -1.36914 0.820174 0
M  V30 1777 C 168.641 -1.93356 -0.567079 0
M  V30 1778 O 167.697 -2.15093 -1.32255 0
M  V30 1779 C 169.01 -2.3235 1.90877 0
M  V30 1780 C 170.558 -2.45973 1.93562 0
M  V30 1781 C 171.033 -3.44714 3.01556 0
M  V30 1782 N 172.524 -3.52263 3.00775 0
M  V30 1783 C 173.259 -4.28536 3.80978 0
M  V30 1784 N 172.755 -5.07991 4.71081 0
M  V30 1785 N 174.548 -4.23804 3.69251 0
M  V30 1786 H 166.699 -0.754348 1.98553 0
M  V30 1787 H 168.962 -0.3944 0.862063 0
M  V30 1788 H 168.668 -1.98027 2.90651 0
M  V30 1789 H 168.542 -3.32332 1.78424 0
M  V30 1790 H 170.929 -2.79584 0.944286 0
M  V30 1791 H 171.01 -1.45926 2.10093 0
M  V30 1792 H 170.654 -3.11835 4.00901 0
M  V30 1793 H 170.584 -4.44558 2.82269 0
M  V30 1794 H 173.075 -2.95567 2.35475 0
M  V30 1795 H 173.388 -5.63487 5.28869 0
M  V30 1796 H 171.733 -5.07235 4.75119 0
M  V30 1797 H 174.924 -3.60806 2.98222 0
M  V30 1798 H 175.097 -4.82995 4.31995 0
M  V30 1799 N 168.503 -0.877838 -1.30888 0
M  V30 1800 C 169.749 -0.493426 -1.96706 0
M  V30 1801 C 170.082 0.953504 -1.6918 0
M  V30 1802 O 169.357 1.67266 -0.992594 0
M  V30 1803 C 169.64 -0.760429 -3.51979 0
M  V30 1804 C 169.493 -2.25747 -3.89048 0
M  V30 1805 C 170.812 -0.232148 -4.39487 0
M  V30 1806 H 167.931 -0.180746 -0.714493 0
M  V30 1807 H 170.573 -1.10052 -1.54882 0
M  V30 1808 H 168.723 -0.243715 -3.87735 0
M  V30 1809 H 170.395 -2.84204 -3.63354 0
M  V30 1810 H 168.638 -2.72694 -3.37373 0
M  V30 1811 H 169.309 -2.39491 -4.97341 0
M  V30 1812 H 171.785 -0.674314 -4.106 0
M  V30 1813 H 170.661 -0.448355 -5.47066 0
M  V30 1814 H 170.922 0.866297 -4.33529 0
M  V30 1815 N 169.982 1.44106 -0.638065 0
M  V30 1816 C 170.912 2.33448 0.0494287 0
M  V30 1817 C 171.893 1.48606 0.827672 0
M  V30 1818 O 173.078 1.77308 0.792173 0
M  V30 1819 C 170.208 3.31771 1.02691 0
M  V30 1820 C 169.162 4.26485 0.359823 0
M  V30 1821 C 168.488 5.14729 1.44769 0
M  V30 1822 C 169.788 5.17056 -0.738296 0
M  V30 1823 H 171.482 2.91183 -0.696636 0
M  V30 1824 H 169.028 1.40014 -0.336456 0
M  V30 1825 H 170.981 3.93161 1.51666 0
M  V30 1826 H 169.705 2.7226 1.80395 0
M  V30 1827 H 168.364 3.66437 -0.10934 0
M  V30 1828 H 168.012 4.51566 2.21578 0
M  V30 1829 H 167.712 5.78913 1.00668 0
M  V30 1830 H 169.236 5.78991 1.93911 0
M  V30 1831 H 170.65 5.72342 -0.331354 0
M  V30 1832 H 169.047 5.89879 -1.10286 0
M  V30 1833 H 170.117 4.57652 -1.60258 0
M  V30 1834 N 171.46 0.379036 1.52974 0
M  V30 1835 C 172.709 -0.207612 2.00629 0
M  V30 1836 C 173.022 -1.48758 1.27006 0
M  V30 1837 O 174.228 -2.15365 1.65318 0
M  V30 1838 C 172.684 -0.42053 3.57435 0
M  V30 1839 C 172.292 0.845587 4.39948 0
M  V30 1840 C 174.036 -0.964102 4.13407 0
M  V30 1841 C 171.943 0.601513 5.88333 0
M  V30 1842 H 170.873 -0.0813591 0.749598 0
M  V30 1843 H 173.524 0.499853 1.76561 0
M  V30 1844 H 171.906 -1.18959 3.7771 0
M  V30 1845 H 173.08 1.61848 4.31442 0
M  V30 1846 H 171.395 1.31336 3.95145 0
M  V30 1847 H 173.992 -1.16225 5.21916 0
M  V30 1848 H 174.335 -1.93019 3.68849 0
M  V30 1849 H 174.868 -0.25487 3.96983 0
M  V30 1850 H 171.607 1.53831 6.37194 0
M  V30 1851 H 171.127 -0.132628 5.99653 0
M  V30 1852 H 172.806 0.232134 6.46583 0
M  V30 1853 N 172.938 -1.57226 0.108567 0
M  V30 1854 C 174.354 -1.5766 -0.248058 0
M  V30 1855 C 174.554 -1.12063 -1.67464 0
M  V30 1856 O 173.61 -0.803236 -2.39383 0
M  V30 1857 C 174.923 -3.0069 -0.0242287 0
M  V30 1858 C 176.471 -3.12868 -0.0909372 0
M  V30 1859 C 176.946 -4.57879 0.105067 0
M  V30 1860 N 178.437 -4.63172 0.0506846 0
M  V30 1861 C 179.172 -5.73126 0.177396 0
M  V30 1862 N 178.668 -6.91866 0.359696 0
M  V30 1863 N 180.461 -5.61977 0.117709 0
M  V30 1864 H 172.612 -1.85169 1.04049 0
M  V30 1865 H 174.875 -0.85529 0.40888 0
M  V30 1866 H 174.581 -3.38299 0.961604 0
M  V30 1867 H 174.455 -3.6945 -0.76068 0
M  V30 1868 H 176.842 -2.75124 -1.06729 0
M  V30 1869 H 176.923 -2.46672 0.677225 0
M  V30 1870 H 176.567 -4.96321 1.07834 0
M  V30 1871 H 176.497 -5.22153 -0.682954 0
M  V30 1872 H 178.988 -3.778 -0.0871266 0
M  V30 1873 H 179.301 -7.71503 0.447529 0
M  V30 1874 H 177.646 -6.93874 0.395536 0
M  V30 1875 H 180.837 -4.68094 -0.0236741 0
M  V30 1876 H 181.01 -6.47627 0.219905 0
M  V30 1877 N 174.416 0.165178 -1.56732 0
M  V30 1878 C 175.349 1.23336 -1.91998 0
M  V30 1879 C 176.327 1.42476 -0.783531 0
M  V30 1880 O 177.511 1.57384 -1.03743 0
M  V30 1881 C 174.638 2.59533 -2.17625 0
M  V30 1882 C 173.684 2.57093 -3.40302 0
M  V30 1883 S 174.517 2.05571 -4.9447 0
M  V30 1884 C 175.673 3.43532 -5.23198 0
M  V30 1885 H 175.906 0.932387 -2.82301 0
M  V30 1886 H 173.439 0.370013 -1.49901 0
M  V30 1887 H 175.397 3.37918 -2.3307 0
M  V30 1888 H 174.058 2.86827 -1.28019 0
M  V30 1889 H 173.251 3.57308 -3.55453 0
M  V30 1890 H 172.853 1.86806 -3.24005 0
M  V30 1891 H 175.145 4.39559 -5.15552 0
M  V30 1892 H 176.088 3.33251 -6.2478 0
M  V30 1893 H 176.496 3.39828 -4.50752 0
M  V30 1894 N 175.894 1.51508 0.433938 0
M  V30 1895 C 177.143 1.63578 1.18005 0
M  V30 1896 C 177.456 0.359514 1.92268 0
M  V30 1897 O 178.662 0.359632 2.69108 0
M  V30 1898 C 177.118 2.88901 2.14626 0
M  V30 1899 C 176.726 4.23544 1.45995 0
M  V30 1900 C 178.47 3.10328 2.89649 0
M  V30 1901 C 176.377 5.40014 2.4112 0
M  V30 1902 H 175.307 0.609277 0.444182 0
M  V30 1903 H 177.958 1.77978 0.446773 0
M  V30 1904 H 176.34 2.68142 2.91403 0
M  V30 1905 H 177.514 4.54696 0.747532 0
M  V30 1906 H 175.829 4.08021 0.831115 0
M  V30 1907 H 178.426 3.94518 3.60915 0
M  V30 1908 H 178.769 2.23544 3.51189 0
M  V30 1909 H 179.302 3.31443 2.19978 0
M  V30 1910 H 176.041 6.29068 1.84264 0
M  V30 1911 H 175.561 5.13233 3.10406 0
M  V30 1912 H 177.24 5.72099 3.02177 0
M  V30 1913 N 177.372 -0.689602 1.41712 0
M  V30 1914 C 178.649 -1.44457 1.31877 0
M  V30 1915 C 179.029 -2.11039 -0.0508537 0
M  V30 1916 O 178.377 -2.02138 -1.06547 0
M  V30 1917 C 178.587 -2.45913 2.47645 0
M  V30 1918 C 179.935 -3.10991 2.89084 0
M  V30 1919 O 180.959 -2.56238 2.47428 0
M  V30 1920 O 179.818 -4.10174 3.61137 0
M  V30 1921 H 176.912 -0.64362 0.519309 0
M  V30 1922 H 179.458 -0.719576 1.53689 0
M  V30 1923 H 178.23 -1.95409 3.39015 0
M  V30 1924 H 177.853 -3.25913 2.27742 0
M  V30 1925 N 178.85 -1.27639 -0.924453 0
M  V30 1926 C 179.76 -1.12466 -2.05885 0
M  V30 1927 C 180.776 -0.053869 -1.73917 0
M  V30 1928 O 181.952 -0.261012 -1.99702 0
M  V30 1929 C 179.017 -0.776768 -3.37886 0
M  V30 1930 C 178.078 -1.92878 -3.83532 0
M  V30 1931 C 177.311 -1.59739 -5.09234 0
M  V30 1932 O 177.534 -0.506782 -5.68144 0
M  V30 1933 O 176.468 -2.43761 -5.50331 0
M  V30 1934 H 180.294 -2.07671 -2.21599 0
M  V30 1935 H 177.879 -1.06857 -1.04413 0
M  V30 1936 H 179.761 -0.596229 -4.17161 0
M  V30 1937 H 178.436 0.145732 -3.23372 0
M  V30 1938 H 177.343 -2.1644 -3.0513 0
M  V30 1939 H 178.676 -2.8316 -4.02593 0
M  V30 1940 N 180.328 1.1314 -1.09713 0
M  V30 1941 C 181.574 1.84757 -0.836224 0
M  V30 1942 C 181.907 1.8347 0.636598 0
M  V30 1943 O 181.182 1.27491 1.46889 0
M  V30 1944 C 181.465 3.32782 -1.37578 0
M  V30 1945 C 181.318 3.42567 -2.91493 0
M  V30 1946 C 182.637 4.28307 -1.01198 0
M  V30 1947 H 179.756 0.67082 -0.305236 0
M  V30 1948 H 182.398 1.3278 -1.35903 0
M  V30 1949 H 180.548 3.77177 -0.931097 0
M  V30 1950 H 182.22 3.06862 -3.44432 0
M  V30 1951 H 180.463 2.83349 -3.28475 0
M  V30 1952 H 181.134 4.46674 -3.24324 0
M  V30 1953 H 183.61 3.91999 -1.39556 0
M  V30 1954 H 182.486 5.30307 -1.41653 0
M  V30 1955 H 182.747 4.42029 0.0794833 0
M  V30 1956 N 181.806 0.884767 1.30421 0
M  V30 1957 C 183.054 0.502112 1.95763 0
M  V30 1958 C 183.375 -0.951815 1.70192 0
M  V30 1959 O 182.645 -1.6692 1.0254 0
M  V30 1960 H 181.225 0.182694 0.724315 0
M  V30 1961 H 183.887 1.1278 1.58955 0
M  V30 1962 H 182.983 0.672188 3.04775 0
M  V30 1963 N 183.284 -1.43765 0.645699 0
M  V30 1964 C 184.531 -2.01898 0.15604 0
M  V30 1965 C 184.859 -1.50887 -1.22733 0
M  V30 1966 O 184.114 -0.689271 -1.8316 0
M  V30 1967 C 184.413 -3.57238 0.107679 0
M  V30 1968 C 184.079 -4.27564 1.43178 0
M  V30 1969 C 182.741 -4.46492 1.7944 0
M  V30 1970 C 185.093 -4.67454 2.30513 0
M  V30 1971 C 182.421 -5.02573 3.02716 0
M  V30 1972 C 184.773 -5.24901 3.53074 0
M  V30 1973 C 183.437 -5.42046 3.89541 0
M  V30 1974 H 182.707 -0.738797 0.057099 0
M  V30 1975 H 185.354 -1.72341 0.834912 0
M  V30 1976 H 183.659 -3.86293 -0.654618 0
M  V30 1977 H 185.356 -3.99965 -0.287938 0
M  V30 1978 H 181.946 -4.13171 1.13963 0
M  V30 1979 H 186.13 -4.5253 2.0379 0
M  V30 1980 H 181.386 -5.14033 3.31028 0
M  V30 1981 H 185.56 -5.54758 4.20971 0
M  V30 1982 H 183.187 -5.85268 4.85145 0
M  V30 1983 N 184.763 -0.387143 -1.52771 0
M  V30 1984 C 186.01 0.195735 -2.01552 0
M  V30 1985 C 186.338 1.46995 -1.27369 0
M  V30 1986 O 185.593 1.92325 -0.361879 0
M  V30 1987 C 185.892 0.512209 -3.53711 0
M  V30 1988 C 185.558 -0.670202 -4.45891 0
M  V30 1989 C 184.22 -0.994586 -4.70809 0
M  V30 1990 C 186.572 -1.46134 -5.00294 0
M  V30 1991 C 183.9 -2.11169 -5.4738 0
M  V30 1992 C 186.252 -2.56903 -5.78086 0
M  V30 1993 C 184.916 -2.89852 -6.01284 0
M  V30 1994 H 184.186 0.0716246 -0.73753 0
M  V30 1995 H 186.833 -0.524046 -1.8419 0
M  V30 1996 H 185.138 1.31329 -3.69134 0
M  V30 1997 H 186.835 0.975804 -3.88946 0
M  V30 1998 H 183.425 -0.407366 -4.2666 0
M  V30 1999 H 187.609 -1.22397 -4.80971 0
M  V30 2000 H 182.865 -2.3707 -5.63567 0
M  V30 2001 H 187.039 -3.18608 -6.19243 0
M  V30 2002 H 184.666 -3.76533 -6.60399 0
M  V30 2003 N 186.241 1.57166 -0.116904 0
M  V30 2004 C 187.171 2.18222 0.830759 0
M  V30 2005 C 188.152 1.12167 1.27877 0
M  V30 2006 O 189.337 1.40394 1.34176 0
M  V30 2007 C 186.467 2.77996 2.08172 0
M  V30 2008 C 185.421 3.89614 1.77157 0
M  V30 2009 C 184.747 4.36187 3.09265 0
M  V30 2010 C 186.047 5.1181 1.04151 0
M  V30 2011 H 187.741 2.97664 0.321992 0
M  V30 2012 H 185.287 1.4318 0.153434 0
M  V30 2013 H 187.24 3.19366 2.74924 0
M  V30 2014 H 185.964 1.9584 2.6137 0
M  V30 2015 H 184.623 3.48816 1.12796 0
M  V30 2016 H 184.271 3.50893 3.60393 0
M  V30 2017 H 183.971 5.11455 2.89288 0
M  V30 2018 H 185.495 4.80207 3.77139 0
M  V30 2019 H 186.909 5.50214 1.61052 0
M  V30 2020 H 185.306 5.92648 0.942762 0
M  V30 2021 H 186.376 4.84892 0.0279022 0
M  V30 2022 N 187.719 -0.156864 1.56817 0
M  V30 2023 C 188.682 -1.17781 1.96622 0
M  V30 2024 C 189.682 -1.36401 0.851555 0
M  V30 2025 O 190.872 -1.33561 1.11836 0
M  V30 2026 C 188.004 -2.54008 2.27361 0
M  V30 2027 H 189.197 -0.836564 2.87996 0
M  V30 2028 H 186.75 -0.39985 1.51099 0
M  V30 2029 H 187.485 -2.9312 1.38748 0
M  V30 2030 H 187.27 -2.41856 3.08623 0
M  V30 2031 H 188.76 -3.27558 2.59029 0
M  V30 2032 N 189.197 -1.51736 -0.425897 0
M  V30 2033 C 190.107 -1.76738 -1.54275 0
M  V30 2034 C 191.123 -0.65211 -1.61318 0
M  V30 2035 O 192.299 -0.935654 -1.78346 0
M  V30 2036 C 189.364 -1.89755 -2.90162 0
M  V30 2037 C 188.425 -3.13633 -2.93143 0
M  V30 2038 C 187.658 -3.2602 -4.22548 0
M  V30 2039 O 187.881 -2.44067 -5.15546 0
M  V30 2040 O 186.815 -4.19071 -4.32046 0
M  V30 2041 H 190.641 -2.71502 -1.36089 0
M  V30 2042 H 188.226 -1.36376 -0.610069 0
M  V30 2043 H 190.108 -2.00236 -3.70788 0
M  V30 2044 H 188.783 -0.981785 -3.08452 0
M  V30 2045 H 187.69 -3.08622 -2.11431 0
M  V30 2046 H 189.023 -4.04936 -2.798 0
M  V30 2047 N 190.675 0.682077 -1.42076 0
M  V30 2048 C 191.952 1.43755 -1.32642 0
M  V30 2049 C 192.332 2.11063 0.0396611 0
M  V30 2050 O 191.68 2.02701 1.05474 0
M  V30 2051 C 191.89 2.44596 -2.48946 0
M  V30 2052 C 193.238 3.09454 -2.9073 0
M  V30 2053 O 194.262 2.54922 -2.48783 0
M  V30 2054 O 193.121 4.08253 -3.63307 0
M  V30 2055 H 190.215 0.640857 -0.522715 0
M  V30 2056 H 192.761 0.711415 -1.54068 0
M  V30 2057 H 191.533 1.93609 -3.40046 0
M  V30 2058 H 191.156 3.24701 -2.29467 0
M  V30 2059 N 192.153 1.28127 0.917671 0
M  V30 2060 C 193.4 1.15052 1.66641 0
M  V30 2061 C 193.728 -0.301677 1.92146 0
M  V30 2062 O 192.983 -1.23622 1.51711 0
M  V30 2063 C 193.282 1.89018 3.03327 0
M  V30 2064 C 192.948 3.38832 2.97496 0
M  V30 2065 C 191.61 3.79693 2.95613 0
M  V30 2066 C 193.962 4.34378 2.88036 0
M  V30 2067 C 191.29 5.14447 2.82066 0
M  V30 2068 C 193.642 5.69201 2.7603 0
M  V30 2069 C 192.306 6.09343 2.72502 0
M  V30 2070 H 191.576 0.421006 0.609783 0
M  V30 2071 H 194.223 1.58855 1.06945 0
M  V30 2072 H 192.528 1.37752 3.66785 0
M  V30 2073 H 194.225 1.76321 3.60156 0
M  V30 2074 H 190.815 3.06342 2.99754 0
M  V30 2075 H 194.999 4.03775 2.88581 0
M  V30 2076 H 190.255 5.44681 2.77728 0
M  V30 2077 H 194.429 6.42901 2.67678 0
M  V30 2078 H 192.056 7.13712 2.61762 0
M  V30 2079 N 193.631 -1.12557 1.10312 0
M  V30 2080 C 194.861 -1.87592 0.865617 0
M  V30 2081 C 195.269 -1.79851 -0.587389 0
M  V30 2082 O 194.612 -1.16949 -1.41664 0
M  V30 2083 C 194.674 -3.37665 1.23381 0
M  V30 2084 C 194.338 -3.69181 2.69359 0
M  V30 2085 C 195.335 -3.67652 3.67597 0
M  V30 2086 C 193.02 -3.98555 3.05711 0
M  V30 2087 C 195.014 -3.95053 5.00212 0
M  V30 2088 C 192.701 -4.25616 4.38514 0
M  V30 2089 C 193.699 -4.23851 5.35574 0
M  V30 2090 O 193.387 -4.50242 6.65986 0
M  V30 2091 H 193.119 -0.600442 0.310557 0
M  V30 2092 H 195.673 -1.4335 1.47105 0
M  V30 2093 H 193.903 -3.82454 0.571467 0
M  V30 2094 H 195.592 -3.94041 0.973994 0
M  V30 2095 H 196.358 -3.45024 3.40857 0
M  V30 2096 H 192.237 -3.99071 2.30789 0
M  V30 2097 H 195.781 -3.93591 5.75962 0
M  V30 2098 H 191.678 -4.47718 4.64994 0
M  V30 2099 H 192.446 -4.67867 6.71597 0
M  V30 2100 N 195.109 -0.891671 -1.2995 0
M  V30 2101 C 196.355 -0.523649 -1.96544 0
M  V30 2102 C 196.71 0.918394 -1.69066 0
M  V30 2103 O 196.003 1.64122 -0.988659 0
M  V30 2104 C 196.197 -0.742868 -3.49594 0
M  V30 2105 C 196.026 -2.20467 -3.9195 0
M  V30 2106 C 194.796 -2.85055 -4.17219 0
M  V30 2107 C 196.994 -3.17912 -4.04273 0
M  V30 2108 N 194.976 -4.21762 -4.46083 0
M  V30 2109 C 196.347 -4.39712 -4.37097 0
M  V30 2110 C 198.402 -3.1361 -3.86721 0
M  V30 2111 C 197.105 -5.5776 -4.54199 0
M  V30 2112 C 199.131 -4.30936 -4.05028 0
M  V30 2113 C 198.493 -5.51504 -4.38204 0
M  V30 2114 H 194.592 -0.241072 -0.743914 0
M  V30 2115 H 197.176 -1.15081 -1.5705 0
M  V30 2116 H 195.347 -0.14515 -3.88129 0
M  V30 2117 H 197.079 -0.341081 -4.0326 0
M  V30 2118 H 193.834 -2.35889 -4.10674 0
M  V30 2119 H 194.258 -4.92382 -4.64638 0
M  V30 2120 H 198.9 -2.21489 -3.60142 0
M  V30 2121 H 196.618 -6.50379 -4.79618 0
M  V30 2122 H 200.204 -4.29085 -3.92909 0
M  V30 2123 H 199.084 -6.40778 -4.52077 0
M  V30 2124 N 196.587 1.43421 -0.653314 0
M  V30 2125 C 197.834 2.01812 -0.166745 0
M  V30 2126 C 198.162 1.51535 1.21931 0
M  V30 2127 O 197.417 0.698975 1.82792 0
M  V30 2128 C 197.716 3.57176 -0.126623 0
M  V30 2129 C 197.382 4.26798 -1.45444 0
M  V30 2130 C 196.044 4.45534 -1.81805 0
M  V30 2131 C 198.396 4.66225 -2.32989 0
M  V30 2132 C 195.724 5.00961 -3.05377 0
M  V30 2133 C 198.076 5.23021 -3.55853 0
M  V30 2134 C 196.74 5.39973 -3.9241 0
M  V30 2135 H 196.01 0.738484 -0.0610162 0
M  V30 2136 H 198.657 1.71896 -0.84404 0
M  V30 2137 H 196.962 3.86634 0.634123 0
M  V30 2138 H 198.659 4.00112 0.266723 0
M  V30 2139 H 195.249 4.12561 -1.16153 0
M  V30 2140 H 199.433 4.51443 -2.06187 0
M  V30 2141 H 194.689 5.12271 -3.3375 0
M  V30 2142 H 198.863 5.52518 -4.23907 0
M  V30 2143 H 196.49 5.82687 -4.88242 0
M  V30 2144 N 198.065 0.39524 1.52563 0
M  V30 2145 C 199.013 -0.451859 2.28169 0
M  V30 2146 C 200.007 -1.05792 1.32304 0
M  V30 2147 O 201.213 -0.997718 1.49818 0
M  V30 2148 H 197.588 -0.164481 0.733792 0
M  V30 2149 H 199.559 0.207199 2.9768 0
M  V30 2150 C 198.308 -1.56385 3.10546 0
M  V30 2151 H 197.631 -1.10682 3.84174 0
M  V30 2152 H 199.071 -2.13067 3.66577 0
M  V30 2153 C 197.53 -2.52328 2.23231 0
M  V30 2154 O 198.06 -3.5588 1.86312 0
M  V30 2155 N 196.266 -2.22209 1.87274 0
M  V30 2156 H 195.813 -1.38033 2.17496 0
M  V30 2157 H 195.771 -2.86652 1.29143 0
M  V30 2158 N 199.544 -1.57102 0.125237 0
M  V30 2159 C 200.955 -1.82384 -0.399142 0
M  V30 2160 C 201.306 -1.04276 -1.66195 0
M  V30 2161 O 200.431 -0.281269 -2.14564 0
M  V30 2162 C 201.026 -3.30821 -0.730932 0
M  V30 2163 C 199.585 -3.56762 -1.19992 0
M  V30 2164 C 198.732 -2.7649 -0.211792 0
M  V30 2165 H 201.683 -1.54786 0.350277 0
M  V30 2166 H 201.704 -3.4579 -1.58775 0
M  V30 2167 H 201.216 -3.87643 0.188345 0
M  V30 2168 H 199.317 -3.05305 -2.13588 0
M  V30 2169 H 199.43 -4.65317 -1.14093 0
M  V30 2170 H 197.794 -2.4489 -0.700085 0
M  V30 2171 H 198.577 -3.36073 0.700691 0
M  V30 2172 N 201.022 0.148545 -1.56898 0
M  V30 2173 C 202.247 0.880385 -1.87787 0
M  V30 2174 C 202.672 1.74018 -0.714093 0
M  V30 2175 O 202.03 1.78153 0.336343 0
M  V30 2176 C 202.078 1.71422 -3.17249 0
M  V30 2177 O 201.182 2.8183 -3.01074 0
M  V30 2178 H 200.523 0.245301 -0.617028 0
M  V30 2179 H 203.053 0.139826 -2.04122 0
M  V30 2180 H 203.063 2.10954 -3.49231 0
M  V30 2181 H 201.738 1.08284 -4.01556 0
M  V30 2182 H 200.315 2.45715 -2.80497 0
M  V30 2183 N 202.5 1.5196 0.417844 0
M  V30 2184 C 203.447 1.74678 1.50852 0
M  V30 2185 C 204.417 0.588947 1.55308 0
M  V30 2186 O 205.602 0.825544 1.72016 0
M  V30 2187 C 202.742 1.89544 2.88387 0
M  V30 2188 C 201.855 3.17166 2.93309 0
M  V30 2189 C 200.99 3.22513 4.22088 0
M  V30 2190 C 200.029 4.44372 4.20951 0
M  V30 2191 N 199.166 4.47161 5.41287 0
M  V30 2192 H 204.006 2.67768 1.30783 0
M  V30 2193 H 201.543 1.32689 0.63498 0
M  V30 2194 H 203.501 1.96146 3.68216 0
M  V30 2195 H 202.131 0.998424 3.06971 0
M  V30 2196 H 201.183 3.19778 2.06024 0
M  V30 2197 H 202.495 4.07021 2.88332 0
M  V30 2198 H 201.649 3.28139 5.10303 0
M  V30 2199 H 200.388 2.30581 4.29748 0
M  V30 2200 H 199.393 4.38902 3.31127 0
M  V30 2201 H 200.618 5.3759 4.14938 0
M  V30 2202 H 198.564 3.58108 5.49632 0
M  V30 2203 H 198.481 5.3085 5.3827 0
M  V30 2204 H 199.749 4.57005 6.3148 0
M  V30 2205 N 203.978 -0.674533 1.42435 0
M  V30 2206 C 204.908 -1.80009 1.48724 0
M  V30 2207 C 205.889 -1.6659 0.343793 0
M  V30 2208 O 207.074 -1.86007 0.558137 0
M  V30 2209 C 204.204 -3.18306 1.38919 0
M  V30 2210 C 203.158 -3.46461 2.51294 0
M  V30 2211 C 202.484 -4.84335 2.26547 0
M  V30 2212 C 203.784 -3.43328 3.93603 0
M  V30 2213 H 205.478 -1.75004 2.42928 0
M  V30 2214 H 203.024 -0.840533 1.16923 0
M  V30 2215 H 204.977 -3.9678 1.41927 0
M  V30 2216 H 203.701 -3.2399 0.412094 0
M  V30 2217 H 202.36 -2.70348 2.47604 0
M  V30 2218 H 202.008 -4.86669 1.2713 0
M  V30 2219 H 201.708 -5.04136 3.01861 0
M  V30 2220 H 203.232 -5.65094 2.31304 0
M  V30 2221 H 204.646 -4.11772 3.98894 0
M  V30 2222 H 203.043 -3.74664 4.68771 0
M  V30 2223 H 204.113 -2.41897 4.20255 0
M  V30 2224 N 205.456 -1.28612 -0.910864 0
M  V30 2225 C 206.867 -1.14406 -1.47541 0
M  V30 2226 C 207.218 0.264901 -1.94403 0
M  V30 2227 O 206.343 1.15942 -1.82719 0
M  V30 2228 C 206.938 -2.07073 -2.68153 0
M  V30 2229 C 205.497 -1.96923 -3.20778 0
M  V30 2230 C 204.644 -1.98646 -1.93481 0
M  V30 2231 H 207.595 -1.41259 -0.723291 0
M  V30 2232 H 207.616 -1.63642 -3.43514 0
M  V30 2233 H 207.128 -3.09611 -2.34015 0
M  V30 2234 H 205.229 -0.97433 -3.59635 0
M  V30 2235 H 205.342 -2.84026 -3.85832 0
M  V30 2236 H 203.706 -1.43093 -2.10705 0
M  V30 2237 H 204.489 -3.02868 -1.61634 0
M  V30 2238 N 206.934 1.1197 -1.10907 0
M  V30 2239 C 208.159 1.87942 -0.877064 0
M  V30 2240 C 208.584 1.79341 0.567314 0
M  V30 2241 O 207.942 1.15184 1.40009 0
M  V30 2242 C 207.99 3.34926 -1.33629 0
M  V30 2243 O 207.094 4.09303 -0.504447 0
M  V30 2244 H 206.435 0.583785 -0.316371 0
M  V30 2245 H 208.965 1.4157 -1.47712 0
M  V30 2246 H 208.975 3.8577 -1.32837 0
M  V30 2247 H 207.65 3.40504 -2.3881 0
M  V30 2248 H 206.227 3.68393 -0.577993 0
M  V30 2249 N 208.412 0.89855 1.29475 0
M  V30 2250 C 209.823 0.572537 1.77705 0
M  V30 2251 C 210.174 -0.911778 1.73727 0
M  V30 2252 O 209.299 -1.71288 1.32247 0
M  V30 2253 C 209.894 1.03252 3.22683 0
M  V30 2254 C 208.453 0.757687 3.68695 0
M  V30 2255 C 207.6 1.20787 2.49612 0
M  V30 2256 H 210.551 1.08139 1.16153 0
M  V30 2257 H 210.572 0.367307 3.78723 0
M  V30 2258 H 210.084 2.11285 3.25546 0
M  V30 2259 H 208.185 -0.310079 3.71308 0
M  V30 2260 H 208.298 1.35476 4.59547 0
M  V30 2261 H 206.662 0.626888 2.46865 0
M  V30 2262 H 207.445 2.29622 2.55203 0
M  V30 2263 N 209.89 -1.43072 0.660911 0
M  V30 2264 C 211.139 -2.00942 0.174735 0
M  V30 2265 C 211.452 -1.52797 -1.22117 0
M  V30 2266 O 212.658 -2.02991 -1.80297 0
M  V30 2267 C 211.114 -3.58948 0.261559 0
M  V30 2268 C 210.722 -4.16085 1.66064 0
M  V30 2269 C 212.466 -4.24173 -0.166617 0
M  V30 2270 C 210.373 -5.6641 1.70098 0
M  V30 2271 H 209.303 -0.751483 0.0615631 0
M  V30 2272 H 211.954 -1.63955 0.824069 0
M  V30 2273 H 210.336 -3.93372 -0.455421 0
M  V30 2274 H 211.51 -3.93147 2.40359 0
M  V30 2275 H 209.825 -3.6326 2.03546 0
M  V30 2276 H 212.422 -5.34471 -0.156433 0
M  V30 2277 H 212.765 -3.98647 -1.19943 0
M  V30 2278 H 213.298 -3.94659 0.498875 0
M  V30 2279 H 210.037 -5.96715 2.71315 0
M  V30 2280 H 209.557 -5.91382 1.00139 0
M  V30 2281 H 211.236 -6.30585 1.44816 0
M  V30 2282 N 211.368 -0.403325 -1.52352 0
M  V30 2283 C 212.278 0.432009 -2.30588 0
M  V30 2284 C 213.294 1.05884 -1.38075 0
M  V30 2285 O 214.47 1.06161 -1.71148 0
M  V30 2286 C 211.535 1.53669 -3.10784 0
M  V30 2287 C 210.596 0.933525 -4.19027 0
M  V30 2288 C 209.829 1.98557 -4.9539 0
M  V30 2289 O 210.052 3.20283 -4.71991 0
M  V30 2290 O 208.986 1.59504 -5.80381 0
M  V30 2291 H 212.812 -0.205739 -3.03002 0
M  V30 2292 H 210.397 -0.166675 -1.48467 0
M  V30 2293 H 212.279 2.17814 -3.60742 0
M  V30 2294 H 210.954 2.15915 -2.41169 0
M  V30 2295 H 209.861 0.254954 -3.7323 0
M  V30 2296 H 211.194 0.35508 -4.90918 0
M  V30 2297 N 212.846 1.57033 -0.133567 0
M  V30 2298 C 214.092 1.96764 0.515326 0
M  V30 2299 C 214.447 1.01653 1.63353 0
M  V30 2300 O 213.74 0.0491374 1.91537 0
M  V30 2301 C 213.934 3.40674 1.08057 0
M  V30 2302 C 213.763 4.49696 0.0186522 0
M  V30 2303 C 212.533 5.03567 -0.418174 0
M  V30 2304 C 214.731 5.08536 -0.767809 0
M  V30 2305 N 212.713 5.9618 -1.46434 0
M  V30 2306 C 214.084 5.97231 -1.6648 0
M  V30 2307 C 216.139 4.9115 -0.817087 0
M  V30 2308 C 214.842 6.70401 -2.60681 0
M  V30 2309 C 216.868 5.65012 -1.74687 0
M  V30 2310 C 216.23 6.53403 -2.63141 0
M  V30 2311 H 212.329 0.765919 0.157771 0
M  V30 2312 H 214.913 1.93395 -0.22506 0
M  V30 2313 H 213.084 3.44662 1.79061 0
M  V30 2314 H 214.816 3.67495 1.69497 0
M  V30 2315 H 211.571 4.73594 -0.0229803 0
M  V30 2316 H 211.995 6.47191 -1.98678 0
M  V30 2317 H 216.637 4.22543 -0.147326 0
M  V30 2318 H 214.355 7.38245 -3.28664 0
M  V30 2319 H 217.941 5.53559 -1.79063 0
M  V30 2320 H 216.821 7.09556 -3.33917 0
M  V30 2321 N 214.325 -0.140222 1.56975 0
M  V30 2322 C 215.571 -0.852949 1.83991 0
M  V30 2323 C 215.904 -1.80512 0.716187 0
M  V30 2324 O 215.179 -1.92479 -0.279681 0
M  V30 2325 C 215.462 -1.6215 3.21527 0
M  V30 2326 C 215.315 -0.690363 4.4447 0
M  V30 2327 C 216.634 -2.58247 3.56366 0
M  V30 2328 H 213.753 -0.308634 0.669264 0
M  V30 2329 H 216.395 -0.117898 1.89634 0
M  V30 2330 H 214.545 -2.24812 3.16847 0
M  V30 2331 H 216.217 -0.0742264 4.6124 0
M  V30 2332 H 214.46 -0.000396433 4.338 0
M  V30 2333 H 215.131 -1.2643 5.37326 0
M  V30 2334 H 217.607 -2.05701 3.61699 0
M  V30 2335 H 216.483 -3.09067 4.53617 0
M  V30 2336 H 216.744 -3.39923 2.82674 0
M  V30 2337 N 215.803 -1.52179 -0.40978 0
M  V30 2338 C 216.751 -1.76086 -1.51975 0
M  V30 2339 C 217.745 -0.627964 -1.57331 0
M  V30 2340 O 218.951 -0.809993 -1.60745 0
M  V30 2341 H 215.326 -0.556829 -0.505416 0
M  V30 2342 H 217.297 -2.69077 -1.28996 0
M  V30 2343 C 216.046 -1.92799 -2.8935 0
M  V30 2344 H 215.369 -2.79392 -2.85972 0
M  V30 2345 H 216.809 -2.13527 -3.66309 0
M  V30 2346 C 215.268 -0.694923 -3.29655 0
M  V30 2347 O 215.798 0.13751 -4.01465 0
M  V30 2348 N 214.004 -0.53101 -2.85707 0
M  V30 2349 H 213.551 -1.20952 -2.27439 0
M  V30 2350 H 213.509 0.292718 -3.13034 0
M  V30 2351 N 217.281 0.66697 -1.42791 0
M  V30 2352 C 218.228 1.7803 -1.4688 0
M  V30 2353 C 219.198 1.6299 -0.319919 0
M  V30 2354 O 220.383 1.83432 -0.525118 0
M  V30 2355 C 217.523 3.1611 -1.38451 0
M  V30 2356 C 216.636 3.42381 -2.63437 0
M  V30 2357 C 215.771 4.70232 -2.47094 0
M  V30 2358 C 214.81 4.89564 -3.67415 0
M  V30 2359 N 213.947 6.08661 -3.49966 0
M  V30 2360 H 218.787 1.7387 -2.42019 0
M  V30 2361 H 216.324 0.84868 -1.20149 0
M  V30 2362 H 218.282 3.95914 -1.31561 0
M  V30 2363 H 216.912 3.19374 -0.469033 0
M  V30 2364 H 215.964 2.56774 -2.80662 0
M  V30 2365 H 217.276 3.52557 -3.52853 0
M  V30 2366 H 216.43 5.5814 -2.37834 0
M  V30 2367 H 215.169 4.62353 -1.5518 0
M  V30 2368 H 214.174 4.00096 -3.77099 0
M  V30 2369 H 215.399 4.99282 -4.6032 0
M  V30 2370 H 213.345 6.0194 -2.60776 0
M  V30 2371 H 213.262 6.19733 -4.32975 0
M  V30 2372 H 214.53 6.99226 -3.44532 0
M  V30 2373 N 218.759 1.29093 0.90403 0
M  V30 2374 C 220.175 1.07011 1.1841 0
M  V30 2375 C 220.375 -0.181358 2.00682 0
M  V30 2376 O 219.431 -0.880331 2.36657 0
M  V30 2377 C 220.744 2.32311 1.90924 0
M  V30 2378 C 222.292 2.37587 2.03768 0
M  V30 2379 C 222.767 3.62679 2.79693 0
M  V30 2380 N 224.258 3.63376 2.87249 0
M  V30 2381 C 224.993 4.56848 3.46522 0
M  V30 2382 N 224.489 5.60648 4.06996 0
M  V30 2383 N 226.282 4.44426 3.44154 0
M  V30 2384 H 218.433 2.09412 0.354993 0
M  V30 2385 H 220.696 0.922181 0.219742 0
M  V30 2386 H 220.402 3.23536 1.37905 0
M  V30 2387 H 220.276 2.39483 2.91424 0
M  V30 2388 H 222.663 1.46853 2.55965 0
M  V30 2389 H 222.744 2.34403 1.02415 0
M  V30 2390 H 222.388 4.53762 2.28173 0
M  V30 2391 H 222.318 3.63119 3.81381 0
M  V30 2392 H 224.809 2.88321 2.44293 0
M  V30 2393 H 225.122 6.28101 4.50232 0
M  V30 2394 H 223.467 5.64463 4.05471 0
M  V30 2395 H 226.658 3.62529 2.96126 0
M  V30 2396 H 226.831 5.17457 3.90054 0
M  V30 2397 N 220.237 -1.11381 1.11499 0
M  V30 2398 C 221.184 -2.17439 0.773887 0
M  V30 2399 C 222.154 -1.64132 -0.254899 0
M  V30 2400 O 223.339 -1.90345 -0.13168 0
M  V30 2401 C 220.479 -3.44373 0.223917 0
M  V30 2402 C 219.592 -4.1168 1.30934 0
M  V30 2403 C 218.727 -5.263 0.71984 0
M  V30 2404 C 217.766 -5.85493 1.78507 0
M  V30 2405 N 216.903 -6.91507 1.21502 0
M  V30 2406 H 221.743 -2.45962 1.68246 0
M  V30 2407 H 219.28 -1.20744 0.840191 0
M  V30 2408 H 221.238 -4.17047 -0.112921 0
M  V30 2409 H 219.868 -3.16232 -0.647851 0
M  V30 2410 H 218.92 -3.37073 1.76312 0
M  V30 2411 H 220.232 -4.51729 2.11524 0
M  V30 2412 H 219.386 -6.05785 0.333094 0
M  V30 2413 H 218.125 -4.87559 -0.117377 0
M  V30 2414 H 217.13 -5.04686 2.18111 0
M  V30 2415 H 218.355 -6.26301 2.62533 0
M  V30 2416 H 216.301 -6.54783 0.399455 0
M  V30 2417 H 216.218 -7.30214 1.95763 0
M  V30 2418 H 217.486 -7.74795 0.855181 0
M  V30 2419 N 221.715 -0.905404 -1.28997 0
M  V30 2420 C 222.964 -0.530191 -1.94607 0
M  V30 2421 C 223.277 0.929185 -1.72121 0
M  V30 2422 O 224.483 1.41218 -2.31883 0
M  V30 2423 C 222.939 -0.897333 -3.48534 0
M  V30 2424 C 222.547 -2.37587 -3.79811 0
M  V30 2425 C 224.291 -0.592304 -4.20347 0
M  V30 2426 C 222.198 -2.68357 -5.27009 0
M  V30 2427 H 221.128 -0.194558 -0.728466 0
M  V30 2428 H 223.779 -1.10318 -1.46636 0
M  V30 2429 H 222.161 -0.253214 -3.9519 0
M  V30 2430 H 223.335 -3.06602 -3.43994 0
M  V30 2431 H 221.65 -2.6505 -3.2115 0
M  V30 2432 H 224.247 -0.798975 -5.28697 0
M  V30 2433 H 224.59 0.469474 -4.13644 0
M  V30 2434 H 225.123 -1.19452 -3.79442 0
M  V30 2435 H 221.862 -3.73355 -5.38782 0
M  V30 2436 H 221.382 -2.03971 -5.64053 0
M  V30 2437 H 223.061 -2.54922 -5.94663 0
M  V30 2438 N 223.193 1.4272 -0.668489 0
M  V30 2439 C 224.609 1.55992 -0.33745 0
M  V30 2440 C 224.809 1.64933 1.15756 0
M  V30 2441 O 223.865 1.61278 1.94282 0
M  V30 2442 C 225.178 2.81314 -1.06222 0
M  V30 2443 C 226.726 2.95078 -1.04394 0
M  V30 2444 C 227.201 4.23252 -1.74991 0
M  V30 2445 N 228.692 4.3015 -1.71829 0
M  V30 2446 C 229.427 5.28127 -2.23315 0
M  V30 2447 N 228.923 6.32293 -2.83156 0
M  V30 2448 N 230.716 5.19882 -2.13726 0
M  V30 2449 H 222.867 1.3516 -1.63846 0
M  V30 2450 H 225.13 0.650174 -0.689912 0
M  V30 2451 H 224.836 2.80823 -2.11734 0
M  V30 2452 H 224.71 3.72012 -0.62344 0
M  V30 2453 H 227.097 2.951 0.0028244 0
M  V30 2454 H 227.178 2.05627 -1.52155 0
M  V30 2455 H 226.822 4.2399 -2.79633 0
M  V30 2456 H 226.752 5.11626 -1.24685 0
M  V30 2457 H 229.243 3.55499 -1.28175 0
M  V30 2458 H 229.556 7.03398 -3.20079 0
M  V30 2459 H 227.901 6.32873 -2.87223 0
M  V30 2460 H 231.092 4.37423 -1.66669 0
M  V30 2461 H 231.265 5.96077 -2.54158 0
M  V30 2462 N 224.671 0.411399 1.52136 0
M  V30 2463 C 225.917 -0.163888 2.02137 0
M  V30 2464 C 226.25 -1.44597 1.29636 0
M  V30 2465 O 225.525 -1.90272 0.403353 0
M  V30 2466 C 225.808 -0.40927 3.57767 0
M  V30 2467 C 225.661 0.889643 4.40914 0
M  V30 2468 C 226.98 -1.19042 4.23694 0
M  V30 2469 H 224.099 -0.0580896 0.734707 0
M  V30 2470 H 226.741 0.54531 1.82007 0
M  V30 2471 H 224.891 -1.0134 3.7505 0
M  V30 2472 H 226.563 1.52575 4.35337 0
M  V30 2473 H 224.806 1.50011 4.07037 0
M  V30 2474 H 225.477 0.672314 5.4789 0
M  V30 2475 H 227.953 -0.678942 4.10524 0
M  V30 2476 H 226.829 -1.33086 5.32522 0
M  V30 2477 H 227.09 -2.21166 3.82803 0
M  V30 2478 N 226.149 -1.5696 0.141893 0
M  V30 2479 C 227.096 -2.16501 -0.799737 0
M  V30 2480 C 228.066 -1.09643 -1.24771 0
M  V30 2481 O 229.251 -1.3766 -1.32115 0
M  V30 2482 C 226.391 -2.78679 -2.03549 0
M  V30 2483 C 225.504 -3.99914 -1.6338 0
M  V30 2484 C 224.639 -4.50106 -2.82096 0
M  V30 2485 C 223.678 -5.63819 -2.38275 0
M  V30 2486 N 222.815 -6.08651 -3.49983 0
M  V30 2487 H 227.655 -2.96632 -0.285179 0
M  V30 2488 H 225.192 -1.46533 -0.129053 0
M  V30 2489 H 227.15 -3.1287 -2.75986 0
M  V30 2490 H 225.78 -2.012 -2.52425 0
M  V30 2491 H 224.832 -3.71735 -0.807279 0
M  V30 2492 H 226.144 -4.82311 -1.27192 0
M  V30 2493 H 225.298 -4.86325 -3.62729 0
M  V30 2494 H 224.037 -3.66706 -3.21525 0
M  V30 2495 H 223.042 -5.2718 -1.56081 0
M  V30 2496 H 224.267 -6.49 -1.99938 0
M  V30 2497 H 222.213 -5.28188 -3.89042 0
M  V30 2498 H 222.13 -6.85961 -3.17794 0
M  V30 2499 H 223.398 -6.49515 -4.30988 0
M  V30 2500 N 227.627 0.131896 -1.57047 0
M  V30 2501 C 228.904 0.871495 -1.75112 0
M  V30 2502 C 229.284 1.9866 -0.713949 0
M  V30 2503 O 228.632 2.26965 0.264447 0
M  V30 2504 C 228.842 1.40007 -3.19686 0
M  V30 2505 C 230.19 1.85752 -3.81813 0
M  V30 2506 O 231.214 1.49715 -3.23209 0
M  V30 2507 O 230.073 2.5226 -4.84796 0
M  V30 2508 H 227.167 0.412919 -0.716538 0
M  V30 2509 H 229.713 0.116641 -1.69299 0
M  V30 2510 H 228.485 0.599404 -3.86682 0
M  V30 2511 H 228.108 2.218 -3.29986 0
M  V30 2512 N 229.106 1.52395 0.401703 0
M  V30 2513 C 230.069 1.75636 1.47257 0
M  V30 2514 C 231.069 0.62628 1.48103 0
M  V30 2515 O 232.259 0.894227 1.49497 0
M  V30 2516 C 229.391 1.84553 2.86624 0
M  V30 2517 H 230.584 2.71241 1.27938 0
M  V30 2518 H 228.137 1.42923 0.632662 0
M  V30 2519 H 228.872 0.908882 3.11303 0
M  V30 2520 H 228.657 2.66715 2.87412 0
M  V30 2521 H 230.147 2.04251 3.64241 0
M  V30 2522 N 230.584 -0.659388 1.43143 0
M  V30 2523 C 231.83 -1.42145 1.44647 0
M  V30 2524 C 232.163 -1.9408 0.0681907 0
M  V30 2525 O 231.438 -1.71899 -0.910007 0
M  V30 2526 C 231.721 -2.60735 2.48373 0
M  V30 2527 C 231.574 -2.14332 3.95451 0
M  V30 2528 C 232.893 -3.62951 2.48906 0
M  V30 2529 H 230.012 -0.51552 0.526696 0
M  V30 2530 H 232.654 -0.748069 1.74654 0
M  V30 2531 H 230.804 -3.18184 2.22916 0
M  V30 2532 H 232.476 -1.61932 4.31944 0
M  V30 2533 H 230.719 -1.4576 4.08578 0
M  V30 2534 H 231.39 -2.99583 4.63631 0
M  V30 2535 H 233.866 -3.1525 2.71582 0
M  V30 2536 H 232.742 -4.43487 3.23435 0
M  V30 2537 H 233.003 -4.15126 1.52061 0
M  V30 2538 N 232.062 -1.29571 -0.897171 0
M  V30 2539 C 233.01 -1.14802 -2.02295 0
M  V30 2540 C 234.004 -0.0629637 -1.69283 0
M  V30 2541 O 235.21 -0.222945 -1.78614 0
M  V30 2542 H 231.585 -0.354692 -0.663097 0
M  V30 2543 H 233.556 -2.10108 -2.11889 0
M  V30 2544 C 232.305 -0.843966 -3.37302 0
M  V30 2545 H 231.628 -1.67093 -3.63208 0
M  V30 2546 H 233.068 -0.780672 -4.16751 0
M  V30 2547 C 231.527 0.452843 -3.33843 0
M  V30 2548 O 232.057 1.47813 -3.73516 0
M  V30 2549 N 230.263 0.459601 -2.86943 0
M  V30 2550 H 229.81 -0.375213 -2.54853 0
M  V30 2551 H 229.768 1.32726 -2.85011 0
M  V30 2552 N 233.54 1.10788 -1.12088 0
M  V30 2553 C 234.768 1.86461 -0.896651 0
M  V30 2554 C 235.183 1.80492 0.553912 0
M  V30 2555 O 234.54 1.19102 1.38278 0
M  V30 2556 C 234.591 3.35006 -1.35843 0
M  V30 2557 O 234.312 3.40866 -2.75213 0
M  V30 2558 C 235.813 4.27565 -1.1706 0
M  V30 2559 H 233.033 0.589425 -0.320654 0
M  V30 2560 H 235.577 1.40076 -1.48993 0
M  V30 2561 H 233.732 3.7887 -0.808458 0
M  V30 2562 H 234.146 4.33411 -2.9539 0
M  V30 2563 H 235.62 5.30007 -1.54263 0
M  V30 2564 H 236.097 4.3906 -0.110814 0
M  V30 2565 H 236.703 3.89501 -1.70789 0
M  V30 2566 N 235.018 0.912232 1.28515 0
M  V30 2567 C 236.264 0.545405 1.95328 0
M  V30 2568 C 236.597 -0.908313 1.71649 0
M  V30 2569 O 235.872 -1.64575 1.03659 0
M  V30 2570 C 236.155 0.853483 3.4984 0
M  V30 2571 C 236.008 2.35982 3.82926 0
M  V30 2572 C 237.327 0.348589 4.38717 0
M  V30 2573 H 234.446 0.199626 0.709449 0
M  V30 2574 H 237.088 1.1412 1.5191 0
M  V30 2575 H 235.238 0.34643 3.86952 0
M  V30 2576 H 236.91 2.93738 3.55691 0
M  V30 2577 H 235.153 2.81543 3.30024 0
M  V30 2578 H 235.824 2.52593 4.90816 0
M  V30 2579 H 238.3 0.78294 4.08668 0
M  V30 2580 H 237.176 0.593242 5.45685 0
M  V30 2581 H 237.437 -0.751049 4.35674 0
M  V30 2582 N 236.496 -1.42363 0.676048 0
M  V30 2583 C 237.742 -2.02336 0.207809 0
M  V30 2584 C 238.097 -1.52506 -1.17302 0
M  V30 2585 O 237.39 -0.718048 -1.77636 0
M  V30 2586 C 237.584 -3.56929 0.183431 0
M  V30 2587 C 237.413 -4.21762 1.56036 0
M  V30 2588 C 236.183 -4.56881 2.15842 0
M  V30 2589 C 238.381 -4.49267 2.50327 0
M  V30 2590 N 236.363 -5.069 3.46303 0
M  V30 2591 C 237.734 -5.00851 3.65443 0
M  V30 2592 C 239.789 -4.31257 2.48841 0
M  V30 2593 C 238.492 -5.36317 4.79329 0
M  V30 2594 C 240.518 -4.678 3.61824 0
M  V30 2595 C 239.88 -5.19537 4.75668 0
M  V30 2596 H 235.979 -0.772583 0.120993 0
M  V30 2597 H 238.563 -1.73203 0.889306 0
M  V30 2598 H 236.734 -3.85576 -0.467483 0
M  V30 2599 H 238.466 -4.03603 -0.297808 0
M  V30 2600 H 235.221 -4.4268 1.68319 0
M  V30 2601 H 235.645 -5.36338 4.13123 0
M  V30 2602 H 240.287 -3.90511 1.62051 0
M  V30 2603 H 238.005 -5.75995 5.66794 0
M  V30 2604 H 241.591 -4.55541 3.61903 0
M  V30 2605 H 240.471 -5.47287 5.61646 0
M  V30 2606 N 237.974 -0.419461 -1.51915 0
M  V30 2607 C 239.22 0.145505 -2.02879 0
M  V30 2608 C 239.575 1.41926 -1.29903 0
M  V30 2609 O 238.868 1.87383 -0.399782 0
M  V30 2610 C 239.062 0.437067 -3.54717 0
M  V30 2611 C 238.891 -0.806877 -4.42402 0
M  V30 2612 C 237.661 -1.33514 -4.87342 0
M  V30 2613 C 239.859 -1.68796 -4.85811 0
M  V30 2614 N 237.841 -2.53349 -5.59185 0
M  V30 2615 C 239.212 -2.73247 -5.56539 0
M  V30 2616 C 241.267 -1.70449 -4.67816 0
M  V30 2617 C 239.97 -3.79276 -6.11181 0
M  V30 2618 C 241.996 -2.75403 -5.23361 0
M  V30 2619 C 241.358 -3.78575 -5.9402 0
M  V30 2620 H 237.457 0.0145424 -0.781865 0
M  V30 2621 H 240.041 -0.576126 -1.85981 0
M  V30 2622 H 238.212 1.12774 -3.71667 0
M  V30 2623 H 239.944 0.99182 -3.92358 0
M  V30 2624 H 236.699 -0.891657 -4.65131 0
M  V30 2625 H 237.123 -3.14066 -5.99743 0
M  V30 2626 H 241.765 -0.920209 -4.12664 0
M  V30 2627 H 239.483 -4.58554 -6.65397 0
M  V30 2628 H 243.069 -2.77603 -5.113 0
M  V30 2629 H 241.949 -4.58453 -6.36231 0
M  V30 2630 N 239.452 1.56882 -0.150215 0
M  V30 2631 C 240.699 1.96228 0.500093 0
M  V30 2632 C 241.027 1.03522 1.64661 0
M  V30 2633 O 240.282 0.0650683 1.95592 0
M  V30 2634 C 240.581 3.41801 1.04437 0
M  V30 2635 C 240.247 4.50897 0.0159671 0
M  V30 2636 C 238.909 4.8046 -0.266731 0
M  V30 2637 C 241.261 5.16703 -0.683192 0
M  V30 2638 C 238.589 5.73135 -1.25434 0
M  V30 2639 C 240.941 6.10441 -1.65964 0
M  V30 2640 C 239.605 6.38382 -1.95 0
M  V30 2641 H 238.875 0.718048 0.182997 0
M  V30 2642 H 241.522 1.90019 -0.237724 0
M  V30 2643 H 239.827 3.44857 1.85959 0
M  V30 2644 H 241.524 3.69573 1.55618 0
M  V30 2645 H 238.114 4.27891 0.246485 0
M  V30 2646 H 242.298 4.93993 -0.477983 0
M  V30 2647 H 237.554 5.93074 -1.48571 0
M  V30 2648 H 241.728 6.60507 -2.20689 0
M  V30 2649 H 239.355 7.09996 -2.71679 0
M  V30 2650 N 240.93 -0.123565 1.57115 0
M  V30 2651 C 242.155 -0.850398 1.89164 0
M  V30 2652 C 242.58 -1.7286 0.741688 0
M  V30 2653 O 241.938 -1.78665 -0.307958 0
M  V30 2654 C 241.986 -1.66353 3.19936 0
M  V30 2655 O 241.09 -2.77004 3.0552 0
M  V30 2656 H 240.431 -0.235454 0.620852 0
M  V30 2657 H 242.961 -0.107335 2.04318 0
M  V30 2658 H 242.971 -2.05372 3.52543 0
M  V30 2659 H 241.646 -1.01881 4.03228 0
M  V30 2660 H 240.223 -2.41221 2.84371 0
M  V30 2661 N 242.408 -1.52605 -0.393616 0
M  V30 2662 C 243.355 -1.77055 -1.48054 0
M  V30 2663 C 244.325 -0.61358 -1.54352 0
M  V30 2664 O 245.51 -0.852806 -1.70681 0
M  V30 2665 C 242.65 -1.94108 -2.85335 0
M  V30 2666 C 241.763 -3.21792 -2.88226 0
M  V30 2667 C 240.898 -3.29188 -4.16904 0
M  V30 2668 C 239.937 -4.51013 -4.13828 0
M  V30 2669 N 239.074 -4.55716 -5.34105 0
M  V30 2670 H 243.914 -2.69815 -1.26506 0
M  V30 2671 H 241.451 -1.33683 -0.61379 0
M  V30 2672 H 243.409 -2.01979 -3.65049 0
M  V30 2673 H 242.039 -1.04713 -3.05344 0
M  V30 2674 H 241.091 -3.23015 -2.00911 0
M  V30 2675 H 242.403 -4.11557 -2.8182 0
M  V30 2676 H 241.557 -3.36216 -5.05018 0
M  V30 2677 H 240.296 -2.37389 -4.26026 0
M  V30 2678 H 239.301 -4.44115 -3.24102 0
M  V30 2679 H 240.526 -5.44123 -4.06333 0
M  V30 2680 H 238.472 -3.66807 -5.43865 0
M  V30 2681 H 238.389 -5.39346 -5.29756 0
M  V30 2682 H 239.657 -4.66993 -6.2413 0
M  V30 2683 N 243.887 0.651787 -1.4349 0
M  V30 2684 C 245.115 1.43937 -1.48626 0
M  V30 2685 C 245.53 1.8851 -0.104587 0
M  V30 2686 O 244.887 1.5958 0.885464 0
M  V30 2687 C 244.938 2.6734 -2.43334 0
M  V30 2688 O 244.659 2.24631 -3.76128 0
M  V30 2689 C 246.16 3.60683 -2.57726 0
M  V30 2690 H 243.38 0.44213 -0.504739 0
M  V30 2691 H 245.924 0.798944 -1.88248 0
M  V30 2692 H 244.079 3.2752 -2.06904 0
M  V30 2693 H 244.493 3.04485 -4.2707 0
M  V30 2694 H 245.967 4.43933 -3.28067 0
M  V30 2695 H 246.444 4.08126 -1.62265 0
M  V30 2696 H 247.05 3.06384 -2.94973 0
M  V30 2697 N 245.365 1.30045 0.890287 0
M  V30 2698 C 246.275 1.17885 2.02831 0
M  V30 2699 C 247.291 0.0999609 1.73713 0
M  V30 2700 O 248.467 0.313867 1.98939 0
M  V30 2701 C 245.532 0.866079 3.35708 0
M  V30 2702 C 244.593 2.02979 3.78283 0
M  V30 2703 C 243.826 1.73184 5.0482 0
M  V30 2704 O 244.049 0.657237 5.66601 0
M  V30 2705 O 242.983 2.58267 5.43674 0
M  V30 2706 H 246.809 2.13474 2.16015 0
M  V30 2707 H 244.394 1.09587 1.01543 0
M  V30 2708 H 246.276 0.706623 4.15433 0
M  V30 2709 H 244.951 -0.0599443 3.23644 0
M  V30 2710 H 243.858 2.24454 2.99285 0
M  V30 2711 H 245.191 2.93734 3.94944 0
M  V30 2712 N 246.843 -1.10192 1.12674 0
M  V30 2713 C 248.089 -1.82658 0.894847 0
M  V30 2714 C 248.444 -1.83666 -0.573107 0
M  V30 2715 O 247.737 -1.28816 -1.41835 0
M  V30 2716 C 247.931 -3.28552 1.4067 0
M  V30 2717 C 247.76 -3.41756 2.92289 0
M  V30 2718 C 246.53 -3.54021 3.60551 0
M  V30 2719 C 248.728 -3.34949 3.90274 0
M  V30 2720 N 246.71 -3.55827 5.0026 0
M  V30 2721 C 248.081 -3.43531 5.16127 0
M  V30 2722 C 250.136 -3.18565 3.8265 0
M  V30 2723 C 248.839 -3.37416 6.3525 0
M  V30 2724 C 250.865 -3.13772 5.01299 0
M  V30 2725 C 250.227 -3.22938 6.26012 0
M  V30 2726 H 246.326 -0.683044 0.380756 0
M  V30 2727 H 248.91 -1.31752 1.43351 0
M  V30 2728 H 247.081 -3.77946 0.895055 0
M  V30 2729 H 248.813 -3.88991 1.11661 0
M  V30 2730 H 245.568 -3.57135 3.1105 0
M  V30 2731 H 245.992 -3.60335 5.73138 0
M  V30 2732 H 250.634 -3.10354 2.87124 0
M  V30 2733 H 248.352 -3.44391 7.3104 0
M  V30 2734 H 251.938 -3.02242 4.97133 0
M  V30 2735 H 250.818 -3.19235 7.16281 0
M  V30 2736 N 248.321 -0.919034 -1.28029 0
M  V30 2737 C 249.732 -0.600735 -1.76771 0
M  V30 2738 C 250.083 0.884024 -1.75156 0
M  V30 2739 O 249.208 1.69163 -1.34956 0
M  V30 2740 C 249.803 -1.08372 -3.21 0
M  V30 2741 C 248.362 -0.816248 -3.67443 0
M  V30 2742 C 247.509 -1.24742 -2.47658 0
M  V30 2743 H 250.46 -1.09974 -1.14418 0
M  V30 2744 H 250.481 -0.427512 -3.78091 0
M  V30 2745 H 249.993 -2.16437 -3.22144 0
M  V30 2746 H 248.094 0.250968 -3.71754 0
M  V30 2747 H 248.207 -1.4277 -4.57333 0
M  V30 2748 H 246.571 -0.666083 -2.45836 0
M  V30 2749 H 247.354 -2.33653 -2.51518 0
M  V30 2750 N 249.799 1.42003 -0.683588 0
M  V30 2751 C 250.746 2.30798 -0.0107309 0
M  V30 2752 C 251.716 1.4645 0.783688 0
M  V30 2753 O 252.901 1.75263 0.754156 0
M  V30 2754 C 250.041 3.3238 0.928306 0
M  V30 2755 C 249.154 4.31814 0.126776 0
M  V30 2756 C 248.289 5.20468 1.06236 0
M  V30 2757 C 247.328 6.11577 0.253035 0
M  V30 2758 N 246.465 6.92754 1.14179 0
M  V30 2759 H 251.305 2.8778 -0.773727 0
M  V30 2760 H 248.842 1.41745 -0.393283 0
M  V30 2761 H 250.8 3.89813 1.48666 0
M  V30 2762 H 249.43 2.76976 1.65783 0
M  V30 2763 H 248.482 3.76427 -0.54833 0
M  V30 2764 H 249.794 4.96276 -0.501192 0
M  V30 2765 H 248.948 5.82677 1.69035 0
M  V30 2766 H 247.687 4.56204 1.7242 0
M  V30 2767 H 246.692 5.48428 -0.388108 0
M  V30 2768 H 247.917 6.77892 -0.404839 0
M  V30 2769 H 245.863 6.3111 1.78987 0
M  V30 2770 H 245.78 7.53855 0.569111 0
M  V30 2771 H 247.048 7.59441 1.75697 0
M  V30 2772 N 251.277 0.427512 1.51691 0
M  V30 2773 C 252.502 -0.143601 2.06902 0
M  V30 2774 C 252.927 -1.36536 1.29382 0
M  V30 2775 O 252.285 -1.78289 0.329043 0
M  V30 2776 C 252.333 -0.454207 3.57728 0
M  V30 2777 O 251.437 -1.54228 3.82475 0
M  V30 2778 H 250.778 -0.00617128 0.663971 0
M  V30 2779 H 253.308 0.606014 1.95419 0
M  V30 2780 H 253.318 -0.707525 4.01818 0
M  V30 2781 H 251.993 0.438812 4.13579 0
M  V30 2782 H 250.57 -1.2797 3.50254 0
M  V30 2783 N 252.755 -1.56801 0.158532 0
M  V30 2784 C 254.032 -1.88131 -0.535357 0
M  V30 2785 C 254.412 -1.06638 -1.82186 0
M  V30 2786 O 253.76 -0.156533 -2.27963 0
M  V30 2787 C 253.97 -3.39949 -0.789653 0
M  V30 2788 C 255.318 -4.09416 -1.12533 0
M  V30 2789 O 256.342 -3.45194 -0.878622 0
M  V30 2790 O 255.201 -5.22855 -1.59014 0
M  V30 2791 H 252.295 -0.780143 -0.27442 0
M  V30 2792 H 254.841 -1.68564 0.19601 0
M  V30 2793 H 253.613 -3.91115 0.120353 0
M  V30 2794 H 253.236 -3.65084 -1.57479 0
M  V30 2795 N 254.233 0.115231 -1.57178 0
M  V30 2796 C 255.482 0.820945 -1.84237 0
M  V30 2797 C 255.795 1.80866 -0.744761 0
M  V30 2798 O 257.001 2.56083 -0.901871 0
M  V30 2799 C 255.457 1.51072 -3.26658 0
M  V30 2800 C 255.065 0.563795 -4.44438 0
M  V30 2801 C 256.809 2.20134 -3.62962 0
M  V30 2802 C 254.716 1.25701 -5.77887 0
M  V30 2803 H 253.646 0.310328 -0.687177 0
M  V30 2804 H 256.297 0.0737134 -1.83352 0
M  V30 2805 H 254.679 2.30471 -3.22024 0
M  V30 2806 H 255.853 -0.197247 -4.60378 0
M  V30 2807 H 254.168 -0.0200638 -4.16395 0
M  V30 2808 H 256.765 2.72696 -4.59936 0
M  V30 2809 H 257.108 2.98107 -2.90582 0
M  V30 2810 H 257.641 1.47619 -3.69396 0
M  V30 2811 H 254.38 0.518493 -6.53446 0
M  V30 2812 H 253.9 1.98997 -5.65827 0
M  V30 2813 H 255.579 1.78915 -6.2177 0
M  V30 2814 N 255.711 1.52812 0.385517 0
M  V30 2815 C 256.939 1.71907 1.15133 0
M  V30 2816 C 257.354 0.439004 1.83625 0
M  V30 2817 O 256.711 -0.586765 1.7281 0
M  V30 2818 C 256.762 2.87099 2.19673 0
M  V30 2819 O 256.483 4.10151 1.53973 0
M  V30 2820 C 257.984 3.17902 3.08955 0
M  V30 2821 H 255.204 0.575479 0.345057 0
M  V30 2822 H 257.748 1.99476 0.45052 0
M  V30 2823 H 255.903 2.61982 2.85384 0
M  V30 2824 H 256.317 4.74514 2.23465 0
M  V30 2825 H 257.791 4.01959 3.7833 0
M  V30 2826 H 258.268 2.3243 3.72657 0
M  V30 2827 H 258.874 3.44871 2.48885 0
M  V30 2828 N 257.189 -0.644168 1.43834 0
M  V30 2829 C 258.136 -1.75671 1.49694 0
M  V30 2830 C 259.106 -1.6246 0.345809 0
M  V30 2831 O 260.291 -1.82573 0.554234 0
M  V30 2832 C 257.431 -3.13867 1.43463 0
M  V30 2833 C 256.544 -3.38147 2.6885 0
M  V30 2834 C 255.679 -4.66241 2.54544 0
M  V30 2835 C 254.718 -4.83657 3.75157 0
M  V30 2836 N 253.855 -6.03016 3.59605 0
M  V30 2837 H 258.695 -1.69998 2.44754 0
M  V30 2838 H 256.232 -0.829458 1.21484 0
M  V30 2839 H 258.19 -3.9377 1.37843 0
M  V30 2840 H 256.82 -3.18588 0.519783 0
M  V30 2841 H 255.872 -2.52276 2.84712 0
M  V30 2842 H 257.184 -3.46899 3.58417 0
M  V30 2843 H 256.338 -5.54285 2.46683 0
M  V30 2844 H 255.077 -4.59826 1.62516 0
M  V30 2845 H 254.082 -3.94046 3.83416 0
M  V30 2846 H 255.307 -4.91896 4.68204 0
M  V30 2847 H 253.253 -5.97715 2.7032 0
M  V30 2848 H 253.17 -6.12766 4.42779 0
M  V30 2849 H 254.438 -6.93657 3.55613 0
M  V30 2850 N 258.668 -1.30515 -0.883378 0
M  V30 2851 C 259.914 -1.19607 -1.63774 0
M  V30 2852 C 260.247 0.248314 -1.92606 0
M  V30 2853 O 259.522 1.17742 -1.54813 0
M  V30 2854 C 259.805 -2.02669 -2.97653 0
M  V30 2855 C 259.658 -3.55335 -2.75784 0
M  V30 2856 C 260.977 -1.86573 -3.98596 0
M  V30 2857 H 258.096 -0.435856 -0.594305 0
M  V30 2858 H 260.738 -1.60165 -1.02212 0
M  V30 2859 H 258.888 -1.68208 -3.50197 0
M  V30 2860 H 260.56 -3.99863 -2.30016 0
M  V30 2861 H 258.803 -3.79438 -2.1026 0
M  V30 2862 H 259.474 -4.08745 -3.70988 0
M  V30 2863 H 261.95 -2.16703 -3.55217 0
M  V30 2864 H 260.826 -2.47014 -4.90179 0
M  V30 2865 H 261.087 -0.825321 -4.34328 0
M  V30 2866 N 260.146 1.09593 -1.13257 0
M  V30 2867 C 261.076 2.18214 -0.830946 0
M  V30 2868 C 262.057 1.68812 0.208966 0
M  V30 2869 O 263.242 1.9408 0.0682666 0
M  V30 2870 C 260.372 3.46051 -0.294296 0
M  V30 2871 C 259.326 4.08778 -1.26826 0
M  V30 2872 C 258.652 5.31419 -0.591449 0
M  V30 2873 C 259.952 4.51476 -2.62615 0
M  V30 2874 H 261.646 2.43703 -1.73923 0
M  V30 2875 H 259.192 1.17128 -0.837675 0
M  V30 2876 H 261.145 4.2134 -0.0709606 0
M  V30 2877 H 259.869 3.20079 0.649366 0
M  V30 2878 H 258.528 3.35505 -1.47756 0
M  V30 2879 H 258.176 5.01727 0.357633 0
M  V30 2880 H 257.876 5.74341 -1.24123 0
M  V30 2881 H 259.4 6.09433 -0.377355 0
M  V30 2882 H 260.814 5.17999 -2.45663 0
M  V30 2883 H 259.211 5.05277 -3.23752 0
M  V30 2884 H 260.281 3.63962 -3.20406 0
M  V30 2885 N 261.624 0.925811 1.2754 0
M  V30 2886 C 262.587 0.428129 2.25166 0
M  V30 2887 C 263.587 -0.452261 1.54309 0
M  V30 2888 O 264.777 -0.253608 1.72344 0
M  V30 2889 C 261.909 -0.384749 3.38722 0
M  V30 2890 H 263.102 1.29066 2.70706 0
M  V30 2891 H 260.655 0.706323 1.3943 0
M  V30 2892 H 261.39 -1.26618 2.98561 0
M  V30 2893 H 261.175 0.246454 3.91325 0
M  V30 2894 H 262.665 -0.723389 4.11287 0
M  V30 2895 N 263.102 -1.41638 0.69111 0
M  V30 2896 C 264.513 -1.84346 0.295517 0
M  V30 2897 C 264.864 -1.57833 -1.16547 0
M  V30 2898 O 263.989 -1.04648 -1.89414 0
M  V30 2899 C 264.584 -3.34636 0.529575 0
M  V30 2900 C 263.143 -3.7593 0.187944 0
M  V30 2901 C 262.29 -2.65082 0.814052 0
M  V30 2902 H 265.241 -1.31253 0.892092 0
M  V30 2903 H 265.262 -3.79903 -0.213148 0
M  V30 2904 H 264.774 -3.53901 1.59297 0
M  V30 2905 H 262.875 -3.62268 -0.871367 0
M  V30 2906 H 262.988 -4.74808 0.63985 0
M  V30 2907 H 261.352 -2.53528 0.244017 0
M  V30 2908 H 262.135 -2.87167 1.88123 0
M  V30 2909 N 264.58 -0.43555 -1.51462 0
M  V30 2910 C 265.81 0.130053 -2.0619 0
M  V30 2911 C 266.218 1.37164 -1.30317 0
M  V30 2912 O 265.561 1.80225 -0.355598 0
M  V30 2913 C 265.623 0.519418 -3.55728 0
M  V30 2914 C 265.287 -0.615119 -4.52841 0
M  V30 2915 C 266.284 -1.48671 -4.9819 0
M  V30 2916 C 263.969 -0.795341 -4.95963 0
M  V30 2917 C 265.963 -2.52324 -5.8533 0
M  V30 2918 C 263.65 -1.83514 -5.82894 0
M  V30 2919 C 264.648 -2.69748 -6.27475 0
M  V30 2920 O 264.336 -3.71944 -7.1268 0
M  V30 2921 H 264.068 0.0121612 -0.675891 0
M  V30 2922 H 266.622 -0.6129 -1.96043 0
M  V30 2923 H 264.852 1.31505 -3.63653 0
M  V30 2924 H 266.541 1.01597 -3.92979 0
M  V30 2925 H 267.307 -1.359 -4.65571 0
M  V30 2926 H 263.186 -0.133713 -4.60806 0
M  V30 2927 H 266.73 -3.19665 -6.20048 0
M  V30 2928 H 262.627 -1.96306 -6.14926 0
M  V30 2929 H 263.395 -3.68503 -7.30854 0
M  V30 2930 N 266.058 1.56714 -0.166846 0
M  V30 2931 C 267.283 2.01557 0.488833 0
M  V30 2932 C 267.708 1.0463 1.56314 0
M  V30 2933 O 267.066 0.0251304 1.81283 0
M  V30 2934 C 267.114 3.4503 1.04818 0
M  V30 2935 O 266.218 3.51163 2.16236 0
M  V30 2936 H 265.559 0.653516 0.117526 0
M  V30 2937 H 268.089 2.02818 -0.269421 0
M  V30 2938 H 268.099 3.84243 1.37191 0
M  V30 2939 H 266.774 4.15077 0.261572 0
M  V30 2940 H 265.351 3.23807 1.84942 0
M  V30 2941 N 267.536 -0.106894 1.57237 0
M  V30 2942 C 268.813 -0.843526 1.76477 0
M  V30 2943 C 269.193 -1.97499 0.745464 0
M  V30 2944 O 268.541 -2.27357 -0.228306 0
M  V30 2945 C 268.751 -1.34903 3.21873 0
M  V30 2946 C 270.099 -1.79654 3.8472 0
M  V30 2947 O 271.123 -1.44554 3.2555 0
M  V30 2948 O 269.982 -2.44515 4.88748 0
M  V30 2949 H 267.076 -0.401468 0.723016 0
M  V30 2950 H 269.622 -0.0896927 1.69463 0
M  V30 2951 H 268.394 -0.53781 3.87586 0
M  V30 2952 H 268.017 -2.16522 3.33473 0
M  V30 2953 N 269.014 -1.53014 -0.377408 0
M  V30 2954 C 270.43 -1.42523 -0.718281 0
M  V30 2955 C 270.63 -0.55487 -1.9371 0
M  V30 2956 O 269.686 -0.0327593 -2.52479 0
M  V30 2957 C 270.999 -2.85546 -0.942539 0
M  V30 2958 C 272.547 -2.95101 -1.04329 0
M  V30 2959 C 273.022 -4.3916 -1.3001 0
M  V30 2960 N 274.513 -4.42536 -1.36806 0
M  V30 2961 C 275.248 -5.51097 -1.58364 0
M  V30 2962 N 274.744 -6.69724 -1.77317 0
M  V30 2963 N 276.537 -5.38657 -1.60638 0
M  V30 2964 H 268.688 -2.08116 0.424426 0
M  V30 2965 H 270.951 -0.939352 0.127759 0
M  V30 2966 H 270.657 -3.51499 -0.118929 0
M  V30 2967 H 270.531 -3.28493 -1.85397 0
M  V30 2968 H 272.918 -2.29309 -1.85745 0
M  V30 2969 H 272.999 -2.55566 -0.109505 0
M  V30 2970 H 272.643 -5.05521 -0.490991 0
M  V30 2971 H 272.573 -4.76258 -2.24691 0
M  V30 2972 H 275.064 -3.57039 -1.23821 0
M  V30 2973 H 275.377 -7.48233 -1.93306 0
M  V30 2974 H 273.722 -6.72732 -1.74518 0
M  V30 2975 H 276.913 -4.44948 -1.45391 0
M  V30 2976 H 277.086 -6.2333 -1.77098 0
M  V30 2977 N 270.492 0.636531 -1.44174 0
M  V30 2978 C 271.425 1.76139 -1.45087 0
M  V30 2979 C 272.403 1.59611 -0.310326 0
M  V30 2980 O 273.587 1.81568 -0.506477 0
M  V30 2981 C 270.714 3.13648 -1.27839 0
M  V30 2982 C 269.76 3.48838 -2.45386 0
M  V30 2983 S 270.593 3.46927 -4.07924 0
M  V30 2984 C 271.749 4.87064 -3.9309 0
M  V30 2985 H 271.982 1.75096 -2.40268 0
M  V30 2986 H 269.515 0.810666 -1.31406 0
M  V30 2987 H 271.473 3.93002 -1.18575 0
M  V30 2988 H 270.134 3.12235 -0.341787 0
M  V30 2989 H 269.327 4.48886 -2.29167 0
M  V30 2990 H 268.929 2.76935 -2.51362 0
M  V30 2991 H 271.221 5.76153 -3.56446 0
M  V30 2992 H 272.164 5.08337 -4.92949 0
M  V30 2993 H 272.572 4.61384 -3.25246 0
M  V30 2994 N 271.97 1.30982 0.876444 0
M  V30 2995 C 272.917 1.18085 1.98304 0
M  V30 2996 C 273.887 0.0682263 1.6596 0
M  V30 2997 O 275.072 0.239937 1.89285 0
M  V30 2998 C 272.212 0.887475 3.33493 0
M  V30 2999 C 271.325 2.08281 3.78475 0
M  V30 3000 C 270.46 1.72678 5.0235 0
M  V30 3001 C 269.499 2.88657 5.39762 0
M  V30 3002 N 268.636 2.53292 6.54819 0
M  V30 3003 H 273.476 2.1275 2.08666 0
M  V30 3004 H 271.013 1.05839 1.02159 0
M  V30 3005 H 272.971 0.697961 4.1132 0
M  V30 3006 H 271.601 -0.022315 3.22792 0
M  V30 3007 H 270.653 2.3833 2.96484 0
M  V30 3008 H 271.965 2.95108 4.02135 0
M  V30 3009 H 271.119 1.50151 5.87826 0
M  V30 3010 H 269.858 0.830327 4.8058 0
M  V30 3011 H 268.863 3.1184 4.52809 0
M  V30 3012 H 270.088 3.79002 5.63502 0
M  V30 3013 H 268.034 1.66163 6.34607 0
M  V30 3014 H 267.951 3.3365 6.7839 0
M  V30 3015 H 269.219 2.34143 7.43503 0
M  V30 3016 N 273.449 -1.08991 1.13837 0
M  V30 3017 C 274.396 -2.15748 0.819835 0
M  V30 3018 C 275.366 -1.64636 -0.220026 0
M  V30 3019 O 276.551 -1.90582 -0.0912757 0
M  V30 3020 C 273.691 -3.4382 0.296913 0
M  V30 3021 C 272.804 -4.0881 1.39636 0
M  V30 3022 C 271.939 -5.24655 0.831314 0
M  V30 3023 C 270.978 -5.81575 1.90886 0
M  V30 3024 N 270.115 -6.88774 1.36142 0
M  V30 3025 H 274.955 -2.42338 1.73426 0
M  V30 3026 H 272.492 -1.18935 0.865613 0
M  V30 3027 H 274.45 -4.17193 -0.0244339 0
M  V30 3028 H 273.08 -3.17535 -0.580628 0
M  V30 3029 H 272.132 -3.33258 1.83422 0
M  V30 3030 H 273.444 -4.47141 2.21058 0
M  V30 3031 H 272.598 -6.04942 0.461515 0
M  V30 3032 H 271.337 -4.87698 -0.013932 0
M  V30 3033 H 270.342 -4.99946 2.28767 0
M  V30 3034 H 271.567 -6.20592 2.75758 0
M  V30 3035 H 269.513 -6.53788 0.538254 0
M  V30 3036 H 269.43 -7.25898 2.11208 0
M  V30 3037 H 270.698 -7.72806 1.01933 0
M  V30 3038 N 274.927 -0.932562 -1.27047 0
M  V30 3039 C 275.857 -0.452902 -2.29066 0
M  V30 3040 C 276.838 0.489338 -1.62909 0
M  V30 3041 O 278.023 0.393046 -1.90181 0
M  V30 3042 C 275.153 0.290698 -3.46081 0
M  V30 3043 C 274.107 -0.564168 -4.24265 0
M  V30 3044 C 273.433 0.308886 -5.33807 0
M  V30 3045 C 274.733 -1.83112 -4.89149 0
M  V30 3046 H 276.427 -1.30552 -2.69437 0
M  V30 3047 H 273.973 -0.629201 -1.29526 0
M  V30 3048 H 275.926 0.637233 -4.16554 0
M  V30 3049 H 274.65 1.17738 -3.0464 0
M  V30 3050 H 273.309 -0.893477 -3.55545 0
M  V30 3051 H 272.957 1.19467 -4.88607 0
M  V30 3052 H 272.657 -0.259633 -5.87026 0
M  V30 3053 H 274.181 0.650884 -6.07121 0
M  V30 3054 H 275.595 -1.55236 -5.51883 0
M  V30 3055 H 273.992 -2.34353 -5.52448 0
M  V30 3056 H 275.062 -2.54772 -4.12576 0
M  V30 3057 N 276.405 1.4127 -0.698611 0
M  V30 3058 C 277.654 2.00408 -0.227949 0
M  V30 3059 C 277.967 1.55981 1.18023 0
M  V30 3060 O 279.173 2.07699 1.74852 0
M  V30 3061 C 277.629 3.58129 -0.356636 0
M  V30 3062 C 277.237 4.11536 -1.77037 0
M  V30 3063 C 278.981 4.24466 0.0540969 0
M  V30 3064 C 276.888 5.61701 -1.85055 0
M  V30 3065 H 275.818 0.749586 -0.0814657 0
M  V30 3066 H 278.469 1.61713 -0.867249 0
M  V30 3067 H 276.851 3.94442 0.350965 0
M  V30 3068 H 278.025 3.86636 -2.50698 0
M  V30 3069 H 276.34 3.57736 -2.13105 0
M  V30 3070 H 278.937 5.34698 0.0146723 0
M  V30 3071 H 279.28 4.01687 1.09332 0
M  V30 3072 H 279.813 3.93198 -0.603337 0
M  V30 3073 H 276.552 5.89312 -2.8704 0
M  V30 3074 H 276.072 5.88519 -1.15783 0
M  V30 3075 H 277.751 6.26524 -1.61484 0
M  V30 3076 N 277.883 0.443576 1.51229 0
M  V30 3077 C 278.793 -0.370721 2.31652 0
M  V30 3078 C 279.809 -1.02186 1.40833 0
M  V30 3079 O 280.985 -1.01586 1.73903 0
M  V30 3080 C 278.05 -1.45376 3.14749 0
M  V30 3081 C 277.111 -0.822099 4.21355 0
M  V30 3082 C 276.344 -1.85353 5.0048 0
M  V30 3083 O 276.567 -3.07656 4.80316 0
M  V30 3084 O 275.501 -1.4406 5.84406 0
M  V30 3085 H 279.327 0.286002 3.0235 0
M  V30 3086 H 276.912 0.20598 1.47973 0
M  V30 3087 H 278.794 -2.08173 3.66391 0
M  V30 3088 H 277.469 -2.09445 2.46809 0
M  V30 3089 H 276.376 -0.155909 3.73775 0
M  V30 3090 H 277.709 -0.224797 4.91686 0
M  V30 3091 N 279.361 -1.56624 0.175154 0
M  V30 3092 C 280.638 -1.88688 -0.515373 0
M  V30 3093 C 281.018 -1.08564 -1.81044 0
M  V30 3094 O 280.366 -0.180703 -2.27784 0
M  V30 3095 C 280.576 -3.40768 -0.753552 0
M  V30 3096 C 281.924 -4.10587 -1.08184 0
M  V30 3097 O 282.948 -3.46106 -0.841961 0
M  V30 3098 O 281.807 -5.24512 -1.53459 0
M  V30 3099 H 278.901 -0.78301 -0.26613 0
M  V30 3100 H 281.447 -1.68347 0.213877 0
M  V30 3101 H 280.219 -3.90965 0.161829 0
M  V30 3102 H 279.842 -3.66733 -1.53598 0
M  V30 3103 N 280.839 0.0985539 -1.57292 0
M  V30 3104 C 282.25 0.653457 -1.74891 0
M  V30 3105 C 282.601 1.7929 -0.796838 0
M  V30 3106 O 281.726 2.16385 0.0254886 0
M  V30 3107 C 282.321 1.19216 -3.17133 0
M  V30 3108 C 280.88 1.69316 -3.36168 0
M  V30 3109 C 280.027 0.601294 -2.70702 0
M  V30 3110 H 282.978 -0.127497 -1.58187 0
M  V30 3111 H 282.999 2.06154 -3.19814 0
M  V30 3112 H 282.511 0.362635 -3.86402 0
M  V30 3113 H 280.612 2.5468 -2.71972 0
M  V30 3114 H 280.725 1.78853 -4.44464 0
M  V30 3115 H 279.089 1.0399 -2.32504 0
M  V30 3116 H 279.872 -0.217592 -3.4261 0
M  V30 3117 N 282.317 1.53212 0.369288 0
M  V30 3118 C 283.594 1.59815 1.12776 0
M  V30 3119 C 283.974 0.403402 2.0721 0
M  V30 3120 O 283.322 -0.606667 2.20299 0
M  V30 3121 C 283.532 2.94664 1.87013 0
M  V30 3122 C 284.88 3.49109 2.41677 0
M  V30 3123 O 285.904 2.96669 1.97144 0
M  V30 3124 O 284.763 4.40775 3.23079 0
M  V30 3125 H 281.857 0.645376 0.517125 0
M  V30 3126 H 284.403 1.65553 0.37285 0
M  V30 3127 H 283.175 3.73061 1.18071 0
M  V30 3128 H 282.798 2.92401 2.69421 0
M  V30 3129 N 283.795 -0.628877 1.44509 0
M  V30 3130 C 284.742 -1.74074 1.51549 0
M  V30 3131 C 285.712 -1.62084 0.363021 0
M  V30 3132 O 286.897 -1.81975 0.573567 0
M  V30 3133 C 284.037 -3.12328 1.46784 0
M  V30 3134 C 283.15 -3.35277 2.72422 0
M  V30 3135 C 282.285 -4.63515 2.59475 0
M  V30 3136 C 281.324 -4.7965 3.80266 0
M  V30 3137 N 280.461 -5.99168 3.65981 0
M  V30 3138 H 285.301 -1.67392 2.46544 0
M  V30 3139 H 282.838 -0.816527 1.22357 0
M  V30 3140 H 284.796 -3.92286 1.42012 0
M  V30 3141 H 283.426 -3.18018 0.553544 0
M  V30 3142 H 282.478 -2.49242 2.87372 0
M  V30 3143 H 283.79 -3.43078 3.62076 0
M  V30 3144 H 282.944 -5.51638 2.52548 0
M  V30 3145 H 281.683 -4.58076 1.67384 0
M  V30 3146 H 280.688 -3.89957 3.87574 0
M  V30 3147 H 281.913 -4.86902 4.73395 0
M  V30 3148 H 279.859 -5.94814 2.76644 0
M  V30 3149 H 279.776 -6.08035 4.49254 0
M  V30 3150 H 281.044 -6.89846 3.6295 0
M  V30 3151 N 285.273 -1.31445 -0.869486 0
M  V30 3152 C 286.52 -1.21158 -1.62256 0
M  V30 3153 C 286.848 0.230155 -1.93133 0
M  V30 3154 O 286.103 1.17906 -1.56194 0
M  V30 3155 C 286.402 -2.00145 -2.96102 0
M  V30 3156 C 286.068 -3.4964 -2.84715 0
M  V30 3157 C 284.73 -3.90403 -2.81317 0
M  V30 3158 C 287.082 -4.44769 -2.71716 0
M  V30 3159 C 284.41 -5.24561 -2.62778 0
M  V30 3160 C 286.762 -5.79054 -2.54714 0
M  V30 3161 C 285.426 -6.19037 -2.49699 0
M  V30 3162 H 284.696 -0.443348 -0.593737 0
M  V30 3163 H 287.343 -1.62715 -1.00976 0
M  V30 3164 H 285.648 -1.5127 -3.6142 0
M  V30 3165 H 287.345 -1.89566 -3.53363 0
M  V30 3166 H 283.935 -3.17256 -2.88178 0
M  V30 3167 H 288.119 -4.14208 -2.73397 0
M  V30 3168 H 283.375 -5.54613 -2.57321 0
M  V30 3169 H 287.549 -6.52393 -2.43632 0
M  V30 3170 H 285.176 -7.22935 -2.35093 0
M  V30 3171 N 286.751 1.08385 -1.14413 0
M  V30 3172 C 287.981 1.8425 -0.934644 0
M  V30 3173 C 288.389 1.81907 0.520234 0
M  V30 3174 O 287.732 1.22126 1.37226 0
M  V30 3175 C 287.794 3.32853 -1.35828 0
M  V30 3176 C 287.458 3.5893 -2.82875 0
M  V30 3177 C 288.455 3.53756 -3.80989 0
M  V30 3178 C 286.14 3.86934 -3.20293 0
M  V30 3179 C 288.134 3.76216 -5.14529 0
M  V30 3180 C 285.821 4.09047 -4.54008 0
M  V30 3181 C 286.819 4.03682 -5.50936 0
M  V30 3182 O 286.507 4.25214 -6.82238 0
M  V30 3183 H 286.239 0.588502 -0.332628 0
M  V30 3184 H 288.793 1.37792 -1.52324 0
M  V30 3185 H 287.023 3.8007 -0.713019 0
M  V30 3186 H 288.712 3.90154 -1.11957 0
M  V30 3187 H 289.478 3.32135 -3.53428 0
M  V30 3188 H 285.357 3.9023 -2.45442 0
M  V30 3189 H 288.901 3.71943 -5.90173 0
M  V30 3190 H 284.798 4.30151 -4.8129 0
M  V30 3191 H 285.566 4.42619 -6.88499 0
M  V30 3192 N 288.23 0.939286 1.26551 0
M  V30 3193 C 289.458 0.602536 1.97932 0
M  V30 3194 C 289.873 -0.82206 1.69964 0
M  V30 3195 O 289.23 -1.54789 0.966784 0
M  V30 3196 C 289.281 0.832946 3.51773 0
M  V30 3197 O 289.002 2.20151 3.78768 0
M  V30 3198 C 290.503 0.506483 4.40397 0
M  V30 3199 H 287.723 0.227248 0.631347 0
M  V30 3200 H 290.267 1.25948 1.61113 0
M  V30 3201 H 288.422 0.222644 3.8676 0
M  V30 3202 H 288.836 2.26013 4.73306 0
M  V30 3203 H 290.31 0.718333 5.47306 0
M  V30 3204 H 290.787 -0.558451 4.35635 0
M  V30 3205 H 291.393 1.09543 4.10951 0
M  V30 3206 N 289.708 -1.40897 0.706093 0
M  V30 3207 C 291.119 -1.84023 0.315052 0
M  V30 3208 C 291.47 -1.5906 -1.14866 0
M  V30 3209 O 290.595 -1.06651 -1.88293 0
M  V30 3210 C 291.19 -3.34055 0.565038 0
M  V30 3211 C 289.749 -3.7571 0.227806 0
M  V30 3212 C 288.896 -2.64204 0.842122 0
M  V30 3213 H 291.847 -1.303 0.905963 0
M  V30 3214 H 291.868 -3.80107 -0.172843 0
M  V30 3215 H 291.38 -3.52192 1.63042 0
M  V30 3216 H 289.481 -3.63172 -0.832895 0
M  V30 3217 H 289.594 -4.74103 0.690174 0
M  V30 3218 H 287.958 -2.53255 0.270893 0
M  V30 3219 H 288.741 -2.85155 1.91158 0
M  V30 3220 N 291.186 -0.45159 -1.50991 0
M  V30 3221 C 292.133 0.352625 -2.2809 0
M  V30 3222 C 293.103 1.0044 -1.32291 0
M  V30 3223 O 294.288 1.02058 -1.6121 0
M  V30 3224 C 291.428 1.43983 -3.13629 0
M  V30 3225 C 290.541 0.804772 -4.24438 0
M  V30 3226 C 289.676 1.86822 -4.97263 0
M  V30 3227 C 288.715 1.21236 -5.99973 0
M  V30 3228 N 287.852 2.2178 -6.66152 0
M  V30 3229 H 292.692 -0.311186 -2.96371 0
M  V30 3230 H 290.229 -0.165308 -1.46168 0
M  V30 3231 H 292.187 2.08161 -3.61559 0
M  V30 3232 H 290.817 2.07307 -2.47434 0
M  V30 3233 H 289.869 0.0509129 -3.80366 0
M  V30 3234 H 291.181 0.286076 -4.97979 0
M  V30 3235 H 290.335 2.58628 -5.48813 0
M  V30 3236 H 289.074 2.42068 -4.23385 0
M  V30 3237 H 288.079 0.479828 -5.47702 0
M  V30 3238 H 289.304 0.667051 -6.75816 0
M  V30 3239 H 287.25 2.76079 -5.95077 0
M  V30 3240 H 287.167 1.74841 -7.35504 0
M  V30 3241 H 288.435 2.93026 -7.22327 0
M  V30 3242 N 292.664 1.56529 -0.183458 0
M  V30 3243 C 293.892 2.01623 0.464285 0
M  V30 3244 C 294.307 1.06366 1.55986 0
M  V30 3245 O 293.664 0.0665398 1.82379 0
M  V30 3246 C 293.715 3.46475 1.03139 0
M  V30 3247 O 293.436 4.38095 -0.0204675 0
M  V30 3248 C 294.937 4.0703 1.75617 0
M  V30 3249 H 292.157 0.660596 0.117704 0
M  V30 3250 H 294.701 2.02451 -0.288751 0
M  V30 3251 H 292.856 3.46383 1.73486 0
M  V30 3252 H 293.27 5.22973 0.399952 0
M  V30 3253 H 294.744 5.10271 2.10542 0
M  V30 3254 H 295.221 3.49819 2.65563 0
M  V30 3255 H 295.827 4.1086 1.09882 0
M  V30 3256 N 294.142 -0.090211 1.57342 0
M  V30 3257 C 295.558 -0.444547 1.53284 0
M  V30 3258 C 295.758 -1.80238 0.900914 0
M  V30 3259 O 294.814 -2.4759 0.495513 0
M  V30 3260 C 296.127 -0.402543 2.97993 0
M  V30 3261 C 297.675 -0.48405 3.09234 0
M  V30 3262 C 298.15 -0.472144 4.5556 0
M  V30 3263 N 299.641 -0.532757 4.60126 0
M  V30 3264 C 300.376 -0.545462 5.708 0
M  V30 3265 N 299.872 -0.514082 6.9089 0
M  V30 3266 N 301.665 -0.59064 5.58988 0
M  V30 3267 H 293.816 0.799121 1.96794 0
M  V30 3268 H 296.079 0.297965 0.899956 0
M  V30 3269 H 295.785 0.528106 3.47712 0
M  V30 3270 H 295.659 -1.21969 3.56936 0
M  V30 3271 H 298.046 -1.40512 2.595 0
M  V30 3272 H 298.127 0.361328 2.53235 0
M  V30 3273 H 297.771 0.445 5.05947 0
M  V30 3274 H 297.701 -1.3348 5.09402 0
M  V30 3275 H 300.192 -0.562006 3.73698 0
M  V30 3276 H 300.505 -0.527195 7.71 0
M  V30 3277 H 298.85 -0.481054 6.93333 0
M  V30 3278 H 302.041 -0.61272 4.64073 0
M  V30 3279 H 302.214 -0.597073 6.45243 0
M  V30 3280 N 295.62 -1.53406 -0.361157 0
M  V30 3281 C 297.031 -1.61442 -0.937728 0
M  V30 3282 C 297.382 -0.48461 -1.90121 0
M  V30 3283 O 296.507 0.388312 -2.12888 0
M  V30 3284 C 297.102 -2.92624 -1.70753 0
M  V30 3285 C 295.661 -3.02981 -2.23337 0
M  V30 3286 C 294.808 -2.5677 -1.04712 0
M  V30 3287 H 297.759 -1.58083 -0.139816 0
M  V30 3288 H 297.78 -2.80675 -2.56908 0
M  V30 3289 H 297.292 -3.74834 -1.00604 0
M  V30 3290 H 295.393 -2.25368 -2.96715 0
M  V30 3291 H 295.506 -4.0814 -2.50916 0
M  V30 3292 H 293.87 -2.11752 -1.41539 0
M  V30 3293 H 294.653 -3.41402 -0.360539 0
M  V30 3294 N 297.098 0.621204 -1.44841 0
M  V30 3295 C 298.323 1.41244 -1.51871 0
M  V30 3296 C 298.748 1.87519 -0.147764 0
M  V30 3297 O 298.106 1.59334 0.865 0
M  V30 3298 C 298.154 2.60221 -2.49634 0
M  V30 3299 O 297.258 3.60395 -2.00473 0
M  V30 3300 H 296.599 0.42223 -0.512463 0
M  V30 3301 H 299.129 0.757305 -1.90069 0
M  V30 3302 H 299.139 3.0764 -2.67996 0
M  V30 3303 H 297.814 2.25887 -3.4921 0
M  V30 3304 H 296.391 3.19717 -1.91925 0
M  V30 3305 N 298.576 1.31904 0.862503 0
M  V30 3306 C 299.824 1.21776 1.61292 0
M  V30 3307 C 300.145 -0.222413 1.93727 0
M  V30 3308 O 299.415 -1.1451 1.58947 0
M  V30 3309 H 297.995 0.447717 0.597962 0
M  V30 3310 H 300.657 1.65326 1.03215 0
M  V30 3311 H 299.753 1.7948 2.5533 0
M  V30 3312 N 300.054 -1.07777 1.14986 0
M  V30 3313 C 301.004 -2.13082 0.811181 0
M  V30 3314 C 301.988 -1.59619 -0.202597 0
M  V30 3315 O 303.18 -1.77 -0.00398275 0
M  V30 3316 C 300.309 -3.42009 0.297439 0
M  V30 3317 C 299.395 -4.02337 1.34112 0
M  V30 3318 N 299.786 -4.36982 2.54716 0
M  V30 3319 C 298.084 -4.29752 1.19285 0
M  V30 3320 C 298.785 -4.84729 3.21578 0
M  V30 3321 N 297.761 -4.83233 2.48972 0
M  V30 3322 H 301.563 -2.37696 1.72853 0
M  V30 3323 H 299.077 -1.25173 1.03468 0
M  V30 3324 H 301.074 -4.16884 0.0364777 0
M  V30 3325 H 299.734 -3.18841 -0.614022 0
M  V30 3326 H 300.745 -4.27807 2.91894 0
M  V30 3327 H 297.422 -4.16106 0.340926 0
M  V30 3328 H 298.812 -5.20863 4.24442 0
M  V30 3329 N 301.532 -0.945985 -1.26051 0
M  V30 3330 C 302.809 -0.513816 -1.88731 0
M  V30 3331 C 303.189 1.00872 -1.8544 0
M  V30 3332 O 302.537 1.8708 -1.312 0
M  V30 3333 C 302.747 -1.08062 -3.31849 0
M  V30 3334 C 304.095 -1.1522 -4.08668 0
M  V30 3335 O 305.119 -1.03155 -3.40936 0
M  V30 3336 O 303.978 -1.34044 -5.29806 0
M  V30 3337 H 301.072 -0.168193 -0.809716 0
M  V30 3338 H 303.618 -1.03886 -1.34186 0
M  V30 3339 H 302.39 -2.1241 -3.2863 0
M  V30 3340 H 302.013 -0.538307 -3.93939 0
M  V30 3341 N 303.011 1.40521 -0.713556 0
M  V30 3342 C 304.26 2.00155 -0.249192 0
M  V30 3343 C 304.573 1.57224 1.16362 0
M  V30 3344 O 305.779 2.09542 1.72639 0
M  V30 3345 C 304.235 3.5773 -0.3946 0
M  V30 3346 C 303.843 4.09635 -1.81392 0
M  V30 3347 C 305.587 4.24499 0.00907364 0
M  V30 3348 C 303.494 5.59707 -1.91003 0
M  V30 3349 H 302.424 0.74868 -0.0894114 0
M  V30 3350 H 305.075 1.60784 -0.884352 0
M  V30 3351 H 303.457 3.94792 0.30911 0
M  V30 3352 H 304.631 3.83955 -2.54785 0
M  V30 3353 H 302.946 3.55456 -2.16888 0
M  V30 3354 H 305.543 5.34683 -0.0420404 0
M  V30 3355 H 305.886 4.02824 1.05065 0
M  V30 3356 H 306.419 3.92536 -0.645007 0
M  V30 3357 H 303.158 5.86234 -2.93275 0
M  V30 3358 H 302.678 5.87258 -1.22019 0
M  V30 3359 H 304.357 6.24776 -1.6812 0
M  V30 3360 N 304.489 0.459591 1.5075 0
M  V30 3361 C 305.737 -0.0991532 2.01857 0
M  V30 3362 C 306.058 -1.41247 1.34441 0
M  V30 3363 O 305.328 -1.89775 0.486022 0
M  V30 3364 H 303.908 -0.039633 0.745948 0
M  V30 3365 H 306.57 0.607387 1.85194 0
M  V30 3366 H 305.666 -0.258998 3.11023 0
M  V30 3367 N 305.967 -1.56429 0.191757 0
M  V30 3368 C 306.914 -2.18936 -0.730454 0
M  V30 3369 C 307.884 -1.13557 -1.21219 0
M  V30 3370 O 309.069 -1.41794 -1.27668 0
M  V30 3371 C 306.209 -2.85013 -1.9458 0
M  V30 3372 C 305.322 -4.04909 -1.50574 0
M  V30 3373 C 304.457 -4.58853 -2.67634 0
M  V30 3374 C 303.496 -5.71114 -2.20217 0
M  V30 3375 N 302.633 -6.19478 -3.30442 0
M  V30 3376 H 307.473 -2.97389 -0.190664 0
M  V30 3377 H 305.01 -1.46869 -0.0823694 0
M  V30 3378 H 306.968 -3.21492 -2.65893 0
M  V30 3379 H 305.598 -2.09129 -2.45896 0
M  V30 3380 H 304.65 -3.74115 -0.688605 0
M  V30 3381 H 305.962 -4.86113 -1.11784 0
M  V30 3382 H 305.116 -4.97619 -3.47074 0
M  V30 3383 H 303.855 -3.76749 -3.09696 0
M  V30 3384 H 302.86 -5.31879 -1.3923 0
M  V30 3385 H 304.085 -6.55033 -1.79189 0
M  V30 3386 H 302.031 -5.40297 -3.72041 0
M  V30 3387 H 301.948 -6.95725 -2.9581 0
M  V30 3388 H 303.216 -6.62898 -4.10106 0
M  V30 3389 N 307.445 0.0818655 -1.57387 0
M  V30 3390 C 308.67 0.799946 -1.91352 0
M  V30 3391 C 309.095 1.70833 -0.787258 0
M  V30 3392 O 308.453 1.79419 0.26048 0
M  V30 3393 C 308.501 1.57812 -3.24234 0
M  V30 3394 O 307.605 2.68806 -3.12757 0
M  V30 3395 H 306.946 0.21891 -0.626877 0
M  V30 3396 H 309.476 0.0531256 -2.04531 0
M  V30 3397 H 309.486 1.95952 -3.57864 0
M  V30 3398 H 308.161 0.911548 -4.05788 0
M  V30 3399 H 306.738 2.33597 -2.90666 0
M  V30 3400 N 308.923 1.53595 0.353017 0
M  V30 3401 C 310.17 1.70385 1.09431 0
M  V30 3402 C 310.498 0.462113 1.88931 0
M  V30 3403 O 309.753 -0.556074 1.87633 0
M  V30 3404 C 310.052 2.91313 2.07054 0
M  V30 3405 C 309.718 4.27308 1.43939 0
M  V30 3406 C 308.38 4.64287 1.26454 0
M  V30 3407 C 310.732 5.11829 0.983883 0
M  V30 3408 C 308.06 5.83412 0.620226 0
M  V30 3409 C 310.412 6.31611 0.353516 0
M  V30 3410 C 309.076 6.67293 0.166272 0
M  V30 3411 H 308.346 0.623484 0.400436 0
M  V30 3412 H 310.993 1.87799 0.374655 0
M  V30 3413 H 309.298 2.68463 2.85368 0
M  V30 3414 H 310.995 3.01497 2.64387 0
M  V30 3415 H 307.585 3.98198 1.58543 0
M  V30 3416 H 311.769 4.838 1.10685 0
M  V30 3417 H 307.025 6.09639 0.463681 0
M  V30 3418 H 311.199 6.964 -0.00757555 0
M  V30 3419 H 308.826 7.59461 -0.335047 0
M  V30 3420 N 310.401 -0.613514 1.45168 0
M  V30 3421 C 311.626 -1.40437 1.52618 0
M  V30 3422 C 312.051 -1.87438 0.157707 0
M  V30 3423 O 311.409 -1.59791 -0.856537 0
M  V30 3424 C 311.457 -2.58894 2.51011 0
M  V30 3425 O 310.561 -3.59326 2.02382 0
M  V30 3426 H 309.902 -0.419506 0.514695 0
M  V30 3427 H 312.432 -0.747215 1.90467 0
M  V30 3428 H 312.442 -3.06214 2.69624 0
M  V30 3429 H 311.117 -2.24032 3.50403 0
M  V30 3430 H 309.694 -3.18695 1.93618 0
M  V30 3431 N 311.879 -1.3236 -0.855495 0
M  V30 3432 C 312.826 -1.21225 -1.964 0
M  V30 3433 C 313.796 -0.0946204 -1.6583 0
M  V30 3434 O 314.981 -0.27002 -1.8888 0
M  V30 3435 C 312.121 -0.940419 -3.32039 0
M  V30 3436 C 311.234 -2.14276 -3.75113 0
M  V30 3437 C 310.369 -1.80648 -4.9954 0
M  V30 3438 C 309.408 -2.97208 -5.35102 0
M  V30 3439 N 308.545 -2.63678 -6.50706 0
M  V30 3440 H 313.385 -2.16042 -2.05255 0
M  V30 3441 H 310.922 -1.07451 -1.00463 0
M  V30 3442 H 312.88 -0.763311 -4.10158 0
M  V30 3443 H 311.51 -0.0290413 -3.22787 0
M  V30 3444 H 310.562 -2.43017 -2.92655 0
M  V30 3445 H 311.874 -3.01468 -3.97389 0
M  V30 3446 H 311.028 -1.59484 -5.85363 0
M  V30 3447 H 309.767 -0.906678 -4.79198 0
M  V30 3448 H 308.772 -3.19004 -4.47791 0
M  V30 3449 H 309.997 -3.87918 -5.57401 0
M  V30 3450 H 307.943 -1.76238 -6.31883 0
M  V30 3451 H 307.86 -3.444 -6.72997 0
M  V30 3452 H 309.128 -2.45942 -7.39684 0
M  V30 3453 N 313.357 1.07166 -1.15556 0
M  V30 3454 C 314.634 1.76546 -0.842069 0
M  V30 3455 C 315.014 2.00453 0.661939 0
M  V30 3456 O 314.362 1.62452 1.60691 0
M  V30 3457 C 314.572 3.07266 -1.65495 0
M  V30 3458 C 315.92 3.81578 -1.86234 0
M  V30 3459 O 316.944 3.17083 -1.62287 0
M  V30 3460 O 315.803 4.97419 -2.26355 0
M  V30 3461 H 312.897 0.766756 -0.309862 0
M  V30 3462 H 315.443 1.13514 -1.26145 0
M  V30 3463 H 314.215 2.85494 -2.67598 0
M  V30 3464 H 313.838 3.7803 -1.23203 0
M  V30 3465 N 314.835 0.952656 1.25548 0
M  V30 3466 C 315.783 0.462354 2.27958 0
M  V30 3467 C 316.777 -0.46634 1.62855 0
M  V30 3468 O 317.983 -0.343287 1.76696 0
M  V30 3469 H 314.358 0.13101 0.7405 0
M  V30 3470 H 316.329 1.33839 2.66702 0
M  V30 3471 C 315.078 -0.24628 3.46827 0
M  V30 3472 H 314.401 0.459192 3.97154 0
M  V30 3473 H 315.841 -0.553393 4.20373 0
M  V30 3474 C 314.3 -1.4681 3.0323 0
M  V30 3475 O 314.83 -2.56591 3.09069 0
M  V30 3476 N 313.036 -1.32874 2.58443 0
M  V30 3477 H 312.583 -0.435536 2.53891 0
M  V30 3478 H 312.541 -2.14742 2.29637 0
M  V30 3479 N 316.313 -1.40141 0.720998 0
M  V30 3480 C 317.561 -2.0039 0.262323 0
M  V30 3481 C 317.882 -1.57469 -1.15015 0
M  V30 3482 O 317.152 -0.816582 -1.78069 0
M  V30 3483 H 315.732 -0.741063 0.093996 0
M  V30 3484 H 318.394 -1.71398 0.927835 0
M  V30 3485 H 317.49 -3.10658 0.299671 0
M  V30 3486 N 317.792 -0.46758 -1.50504 0
M  V30 3487 C 319.04 0.0884469 -2.01906 0
M  V30 3488 C 319.361 1.40532 -1.35188 0
M  V30 3489 O 318.631 1.89515 -0.496079 0
M  V30 3490 H 317.211 0.0356765 -0.746148 0
M  V30 3491 H 319.873 -0.6172 -1.84869 0
M  V30 3492 H 318.969 0.2425 -3.11156 0
M  V30 3493 N 319.27 1.56325 -0.20005 0
M  V30 3494 C 320.495 2.02548 0.44597 0
M  V30 3495 C 320.92 1.07922 1.5406 0
M  V30 3496 O 320.278 0.0635775 1.81188 0
M  V30 3497 C 320.326 3.47175 0.974761 0
M  V30 3498 O 319.43 3.55671 2.08739 0
M  V30 3499 H 318.771 0.655862 0.103638 0
M  V30 3500 H 321.301 2.02201 -0.312381 0
M  V30 3501 H 321.311 3.87067 1.2901 0
M  V30 3502 H 319.986 4.15538 0.17347 0
M  V30 3503 H 318.563 3.27657 1.78032 0
M  V30 3504 N 320.748 -0.0735177 1.57428 0
M  V30 3505 C 321.997 -0.771809 1.86349 0
M  V30 3506 C 322.31 -1.78828 0.792452 0
M  V30 3507 O 323.516 -2.53602 0.96945 0
M  V30 3508 C 321.972 -1.42358 3.30548 0
M  V30 3509 C 321.58 -0.445761 4.45777 0
M  V30 3510 C 323.324 -2.10434 3.6867 0
M  V30 3511 C 321.231 -1.10335 5.81016 0
M  V30 3512 H 320.161 -0.291999 0.695164 0
M  V30 3513 H 322.812 -0.0250749 1.83483 0
M  V30 3514 H 321.194 -2.21852 3.28021 0
M  V30 3515 H 322.368 0.319239 4.59693 0
M  V30 3516 H 320.683 0.130457 4.16196 0
M  V30 3517 H 323.28 -2.60405 4.67004 0
M  V30 3518 H 323.623 -2.90298 2.98383 0
M  V30 3519 H 324.156 -1.37773 3.7318 0
M  V30 3520 H 320.895 -0.345061 6.54591 0
M  V30 3521 H 320.415 -1.83925 5.70904 0
M  V30 3522 H 322.094 -1.62367 6.26295 0
M  V30 3523 N 322.226 -1.5378 -0.344866 0
M  V30 3524 C 323.637 -1.62428 -0.920552 0
M  V30 3525 C 323.988 -0.504747 -1.89596 0
M  V30 3526 O 323.113 0.365711 -2.13287 0
M  V30 3527 C 323.708 -2.94419 -1.67639 0
M  V30 3528 C 322.267 -3.05333 -2.20111 0
M  V30 3529 C 321.414 -2.57866 -1.01982 0
M  V30 3530 H 324.365 -1.58222 -0.123042 0
M  V30 3531 H 324.386 -2.83384 -2.53917 0
M  V30 3532 H 323.898 -3.7588 -0.966224 0
M  V30 3533 H 321.999 -2.28502 -2.94308 0
M  V30 3534 H 322.112 -4.10778 -2.46573 0
M  V30 3535 H 320.476 -2.13241 -1.39285 0
M  V30 3536 H 321.259 -3.41765 -0.324308 0
M  V30 3537 N 323.704 0.605807 -1.45491 0
M  V30 3538 C 325.115 1.18777 -1.44045 0
M  V30 3539 C 325.466 1.95471 -0.169001 0
M  V30 3540 O 324.591 2.0374 0.729324 0
M  V30 3541 C 325.186 2.16064 -2.60963 0
M  V30 3542 C 323.745 2.69633 -2.62631 0
M  V30 3543 C 322.892 1.45072 -2.36325 0
M  V30 3544 H 325.843 0.395017 -1.53705 0
M  V30 3545 H 325.864 2.9913 -2.35163 0
M  V30 3546 H 325.376 1.60217 -3.53486 0
M  V30 3547 H 323.477 3.29414 -1.74119 0
M  V30 3548 H 323.59 3.13944 -3.61906 0
M  V30 3549 H 321.954 1.74089 -1.85917 0
M  V30 3550 H 322.737 0.910899 -3.30995 0
M  V30 3551 N 325.182 1.32811 0.848464 0
M  V30 3552 C 326.13 1.22231 1.97895 0
M  V30 3553 C 327.124 0.125749 1.68933 0
M  V30 3554 O 328.33 0.289083 1.77663 0
M  V30 3555 H 324.705 0.379058 0.649476 0
M  V30 3556 H 326.676 2.17828 2.03945 0
M  V30 3557 C 325.425 0.968572 3.33937 0
M  V30 3558 H 324.748 1.80458 3.56756 0
M  V30 3559 H 326.188 0.934808 4.13567 0
M  V30 3560 C 324.647 -0.328628 3.35293 0
M  V30 3561 O 325.177 -1.33848 3.78745 0
M  V30 3562 N 323.383 -0.352788 2.88451 0
M  V30 3563 H 322.93 0.469541 2.53285 0
M  V30 3564 H 322.888 -1.22057 2.89741 0
M  V30 3565 N 326.66 -1.06551 1.16123 0
M  V30 3566 C 327.59 -2.15935 0.88851 0
M  V30 3567 C 328.571 -1.69306 -0.164135 0
M  V30 3568 O 329.756 -1.94193 -0.0167857 0
M  V30 3569 C 326.886 -3.45149 0.385942 0
M  V30 3570 C 325.84 -4.05271 1.3762 0
M  V30 3571 C 325.166 -5.29664 0.732137 0
M  V30 3572 C 326.466 -4.44355 2.74493 0
M  V30 3573 H 328.16 -2.39006 1.80323 0
M  V30 3574 H 325.706 -1.14866 0.868435 0
M  V30 3575 H 327.659 -4.21004 0.182647 0
M  V30 3576 H 326.383 -3.21689 -0.564274 0
M  V30 3577 H 325.042 -3.3147 1.56599 0
M  V30 3578 H 324.69 -5.02499 -0.224483 0
M  V30 3579 H 324.39 -5.70848 1.39307 0
M  V30 3580 H 325.914 -6.08218 0.538802 0
M  V30 3581 H 327.328 -5.11303 2.59311 0
M  V30 3582 H 325.725 -4.96515 3.37035 0
M  V30 3583 H 326.795 -3.55339 3.29943 0
M  V30 3584 N 328.138 -0.959301 -1.25041 0
M  V30 3585 C 329.068 -0.501388 -2.28053 0
M  V30 3586 C 330.049 0.454673 -1.63911 0
M  V30 3587 O 331.234 0.352618 -1.90972 0
M  V30 3588 C 328.364 0.217224 -3.4662 0
M  V30 3589 C 327.318 -0.654034 -4.22973 0
M  V30 3590 C 326.644 0.195589 -5.34342 0
M  V30 3591 C 327.944 -1.93447 -4.85155 0
M  V30 3592 H 329.638 -1.36238 -2.66608 0
M  V30 3593 H 327.184 -0.656534 -1.28163 0
M  V30 3594 H 329.137 0.548732 -4.17812 0
M  V30 3595 H 327.861 1.1125 -3.07068 0
M  V30 3596 H 326.52 -0.968693 -3.5357 0
M  V30 3597 H 326.168 1.09076 -4.91031 0
M  V30 3598 H 325.868 -0.384091 -5.86343 0
M  V30 3599 H 327.392 0.521958 -6.08365 0
M  V30 3600 H 328.806 -1.66908 -5.48466 0
M  V30 3601 H 327.203 -2.46018 -5.47353 0
M  V30 3602 H 328.273 -2.63466 -4.07079 0
M  V30 3603 N 329.616 1.39756 -0.72842 0
M  V30 3604 C 330.548 2.29157 -0.0446202 0
M  V30 3605 C 331.561 1.46484 0.710367 0
M  V30 3606 O 332.75 1.69632 0.55562 0
M  V30 3607 C 329.85 3.24987 0.961071 0
M  V30 3608 C 329.023 4.36572 0.268967 0
M  V30 3609 C 328.082 5.12756 1.18184 0
M  V30 3610 O 327.108 5.6534 0.661794 0
M  V30 3611 N 328.31 5.23331 2.51206 0
M  V30 3612 H 331.075 2.88482 -0.812295 0
M  V30 3613 H 328.636 1.51265 -0.577098 0
M  V30 3614 H 330.628 3.72827 1.57423 0
M  V30 3615 H 329.198 2.66739 1.63 0
M  V30 3616 H 328.418 3.90694 -0.524574 0
M  V30 3617 H 329.706 5.08363 -0.210934 0
M  V30 3618 H 329.104 4.82116 2.9594 0
M  V30 3619 H 327.661 5.74634 3.07634 0
M  V30 3620 N 331.094 0.475555 1.50254 0
M  V30 3621 C 332.343 -0.0795996 2.01543 0
M  V30 3622 C 332.656 -1.4038 1.36209 0
M  V30 3623 O 333.862 -2.04415 1.7868 0
M  V30 3624 C 332.318 -0.192363 3.59386 0
M  V30 3625 C 331.926 1.12367 4.33679 0
M  V30 3626 C 333.67 -0.699238 4.18701 0
M  V30 3627 C 331.577 0.974453 5.83317 0
M  V30 3628 H 330.507 -0.0335228 0.753254 0
M  V30 3629 H 333.158 0.611128 1.73025 0
M  V30 3630 H 331.54 -0.946974 3.84511 0
M  V30 3631 H 332.714 1.88958 4.20276 0
M  V30 3632 H 331.029 1.562 3.85993 0
M  V30 3633 H 333.626 -0.827978 5.28251 0
M  V30 3634 H 333.969 -1.69171 3.80377 0
M  V30 3635 H 334.502 -0.00188807 3.978 0
M  V30 3636 H 331.241 1.94042 6.26121 0
M  V30 3637 H 330.761 0.248998 5.99283 0
M  V30 3638 H 332.44 0.642867 6.43798 0
M  V30 3639 N 332.573 -1.56217 0.208337 0
M  V30 3640 C 333.798 -2.02782 -0.435222 0
M  V30 3641 C 334.223 -1.08738 -1.53485 0
M  V30 3642 O 333.581 -0.0731855 -1.81152 0
M  V30 3643 C 333.629 -3.47687 -0.956335 0
M  V30 3644 O 332.733 -3.56773 -2.06849 0
M  V30 3645 H 332.074 -0.656403 -0.100158 0
M  V30 3646 H 334.604 -2.02033 0.3231 0
M  V30 3647 H 334.614 -3.87745 -1.26955 0
M  V30 3648 H 333.289 -4.15624 -0.15143 0
M  V30 3649 H 331.866 -3.28597 -1.76292 0
M  V30 3650 N 334.051 0.0651679 -1.57465 0
M  V30 3651 C 334.999 1.09542 -2.05191 0
M  V30 3652 C 335.993 1.39675 -0.958509 0
M  V30 3653 O 337.199 1.39003 -1.14359 0
M  V30 3654 H 333.574 0.370623 -0.654326 0
M  V30 3655 H 335.545 0.666802 -2.90854 0
M  V30 3656 C 334.294 2.39881 -2.51699 0
M  V30 3657 H 333.617 2.17547 -3.3543 0
M  V30 3658 H 335.057 3.104 -2.88839 0
M  V30 3659 C 333.516 3.0631 -1.40271 0
M  V30 3660 O 334.046 3.94664 -0.748523 0
M  V30 3661 N 332.252 2.67041 -1.14618 0
M  V30 3662 H 331.799 1.95281 -1.67997 0
M  V30 3663 H 331.757 3.1181 -0.402688 0
M  V30 3664 N 335.529 1.53961 0.336706 0
M  V30 3665 C 336.754 1.75797 1.10046 0
M  V30 3666 C 337.179 0.498985 1.81361 0
M  V30 3667 O 336.537 -0.548769 1.72795 0
M  V30 3668 C 336.585 2.94257 2.08436 0
M  V30 3669 O 335.689 2.64883 3.16087 0
M  V30 3670 H 335.03 0.582936 0.317934 0
M  V30 3671 H 337.56 2.00945 0.38501 0
M  V30 3672 H 337.57 3.21237 2.51537 0
M  V30 3673 H 336.245 3.85564 1.55927 0
M  V30 3674 H 334.822 2.48812 2.77753 0
M  V30 3675 N 337.007 -0.598083 1.45811 0
M  V30 3676 C 337.917 -1.73632 1.57763 0
M  V30 3677 C 338.933 -1.67763 0.461676 0
M  V30 3678 O 340.109 -1.87949 0.723685 0
M  V30 3679 C 337.174 -3.10114 1.55018 0
M  V30 3680 C 336.235 -3.27364 2.77726 0
M  V30 3681 C 335.468 -4.57334 2.75102 0
M  V30 3682 O 335.691 -5.40258 1.8297 0
M  V30 3683 O 334.625 -4.77502 3.66437 0
M  V30 3684 H 338.451 -1.66498 2.53992 0
M  V30 3685 H 336.036 -0.763308 1.28429 0
M  V30 3686 H 337.918 -3.9141 1.56129 0
M  V30 3687 H 336.593 -3.17718 0.619431 0
M  V30 3688 H 335.5 -2.45619 2.82174 0
M  V30 3689 H 336.833 -3.24641 3.69958 0
M  V30 3690 N 338.485 -1.33259 -0.841409 0
M  V30 3691 C 339.71 -1.2775 -1.63385 0
M  V30 3692 C 340.135 0.149188 -1.87507 0
M  V30 3693 O 339.493 1.10498 -1.43736 0
M  V30 3694 C 339.541 -2.05571 -2.96265 0
M  V30 3695 O 338.645 -1.41257 -3.87453 0
M  V30 3696 H 337.986 -0.439627 -0.497618 0
M  V30 3697 H 340.516 -1.75782 -1.04699 0
M  V30 3698 H 340.526 -2.16241 -3.45982 0
M  V30 3699 H 339.201 -3.09309 -2.7803 0
M  V30 3700 H 337.778 -1.39217 -3.45938 0
M  V30 3701 N 339.963 1.05934 -1.16686 0
M  V30 3702 C 340.911 2.15603 -0.872817 0
M  V30 3703 C 341.905 1.68647 0.159576 0
M  V30 3704 O 343.111 1.79995 0.0132125 0
M  V30 3705 H 339.486 0.703885 -0.264671 0
M  V30 3706 H 341.457 2.37613 -1.80507 0
M  V30 3707 C 340.206 3.45457 -0.394344 0
M  V30 3708 H 339.529 3.81984 -1.18019 0
M  V30 3709 H 340.969 4.2339 -0.227408 0
M  V30 3710 C 339.428 3.25021 0.88673 0
M  V30 3711 O 339.958 3.50906 1.95519 0
M  V30 3712 N 338.164 2.78437 0.831925 0
M  V30 3713 H 337.711 2.57572 -0.0377619 0
M  V30 3714 H 337.669 2.65144 1.68956 0
M  V30 3715 N 341.441 0.965919 1.2453 0
M  V30 3716 C 342.689 0.625593 1.92174 0
M  V30 3717 C 343.01 -0.841652 1.75901 0
M  V30 3718 O 342.28 -1.60061 1.12948 0
M  V30 3719 H 340.86 0.228388 0.71123 0
M  V30 3720 H 343.522 1.2266 1.51461 0
M  V30 3721 H 342.618 0.864653 2.99884 0
M  V30 3722 N 342.919 -1.39368 0.735821 0
M  V30 3723 C 343.851 -2.2913 0.0567723 0
M  V30 3724 C 344.864 -1.46859 -0.702589 0
M  V30 3725 O 346.053 -1.69925 -0.546616 0
M  V30 3726 C 343.153 -3.25492 -0.943823 0
M  V30 3727 C 342.326 -4.36709 -0.24581 0
M  V30 3728 C 341.385 -5.13376 -1.15463 0
M  V30 3729 O 340.411 -5.65683 -0.631803 0
M  V30 3730 N 341.613 -5.24656 -2.48427 0
M  V30 3731 H 344.378 -2.88047 0.827582 0
M  V30 3732 H 341.939 -1.50957 0.585112 0
M  V30 3733 H 343.931 -3.73657 -1.55443 0
M  V30 3734 H 342.501 -2.676 -1.61583 0
M  V30 3735 H 341.721 -3.9041 0.545286 0
M  V30 3736 H 343.009 -5.08244 0.237891 0
M  V30 3737 H 342.407 -4.83679 -2.93379 0
M  V30 3738 H 340.964 -5.76258 -3.04582 0
M  V30 3739 N 344.397 -0.483516 -1.5 0
M  V30 3740 C 345.627 0.0643896 -2.065 0
M  V30 3741 C 346.035 1.32949 -1.34615 0
M  V30 3742 O 345.378 1.79003 -0.412756 0
M  V30 3743 C 345.44 0.405983 -3.572 0
M  V30 3744 C 345.104 -0.758875 -4.50655 0
M  V30 3745 C 346.101 -1.64445 -4.93208 0
M  V30 3746 C 343.786 -0.952725 -4.93182 0
M  V30 3747 C 345.78 -2.70818 -5.77006 0
M  V30 3748 C 343.467 -2.01966 -5.76761 0
M  V30 3749 C 344.465 -2.89574 -6.18576 0
M  V30 3750 O 344.153 -3.94429 -7.00486 0
M  V30 3751 H 343.885 -0.00934786 -0.675935 0
M  V30 3752 H 346.439 -0.674959 -1.93993 0
M  V30 3753 H 344.669 1.19869 -3.67652 0
M  V30 3754 H 346.358 0.890433 -3.96013 0
M  V30 3755 H 347.124 -1.50643 -4.61012 0
M  V30 3756 H 343.003 -0.280247 -4.60147 0
M  V30 3757 H 346.547 -3.3923 -6.09565 0
M  V30 3758 H 342.444 -2.1577 -6.0837 0
M  V30 3759 H 343.212 -3.91568 -7.1876 0
M  V30 3760 N 345.875 1.56104 -0.216619 0
M  V30 3761 C 346.805 2.23063 0.690296 0
M  V30 3762 C 347.786 1.20072 1.20485 0
M  V30 3763 O 348.971 1.48643 1.24976 0
M  V30 3764 C 346.101 2.90672 1.90072 0
M  V30 3765 C 345.055 4.00092 1.5202 0
M  V30 3766 C 344.381 4.54972 2.80899 0
M  V30 3767 C 345.681 5.17398 0.71391 0
M  V30 3768 H 347.375 2.99109 0.132038 0
M  V30 3769 H 344.921 1.43866 0.0620664 0
M  V30 3770 H 346.874 3.36204 2.54057 0
M  V30 3771 H 345.598 2.12066 2.48386 0
M  V30 3772 H 344.257 3.55283 0.903839 0
M  V30 3773 H 343.905 3.73102 3.37348 0
M  V30 3774 H 343.605 5.28817 2.56176 0
M  V30 3775 H 345.129 5.0322 3.45836 0
M  V30 3776 H 346.543 5.59342 1.25735 0
M  V30 3777 H 344.94 5.97444 0.563951 0
M  V30 3778 H 346.01 4.84088 -0.280527 0
M  V30 3779 N 347.353 -0.0568162 1.57498 0
M  V30 3780 C 348.316 -1.05038 2.03715 0
M  V30 3781 C 349.316 -1.30709 0.936577 0
M  V30 3782 O 350.506 -1.26178 1.20103 0
M  V30 3783 C 347.638 -2.39034 2.43055 0
M  V30 3784 H 348.831 -0.651715 2.92733 0
M  V30 3785 H 346.384 -0.302947 1.53336 0
M  V30 3786 H 347.119 -2.83703 1.57108 0
M  V30 3787 H 346.904 -2.21739 3.2338 0
M  V30 3788 H 348.394 -3.10421 2.79336 0
M  V30 3789 N 348.832 -1.54138 -0.328536 0
M  V30 3790 C 349.78 -1.83894 -1.42428 0
M  V30 3791 C 350.774 -0.710478 -1.53781 0
M  V30 3792 O 351.98 -0.894062 -1.56226 0
M  V30 3793 H 348.355 -0.582837 -0.475189 0
M  V30 3794 H 350.326 -2.75537 -1.14552 0
M  V30 3795 C 349.075 -2.07866 -2.78724 0
M  V30 3796 H 348.398 -2.94158 -2.7076 0
M  V30 3797 H 349.838 -2.32644 -3.54476 0
M  V30 3798 C 348.297 -0.868689 -3.25508 0
M  V30 3799 O 348.827 -0.0754908 -4.01629 0
M  V30 3800 N 347.033 -0.681711 -2.82491 0
M  V30 3801 H 346.58 -1.32838 -2.20708 0
M  V30 3802 H 346.538 0.126374 -3.14146 0
M  V30 3803 N 350.31 0.590341 -1.46126 0
M  V30 3804 C 351.55 1.35995 -1.52593 0
M  V30 3805 C 351.914 1.91243 -0.170368 0
M  V30 3806 O 353.115 2.68576 -0.109775 0
M  V30 3807 C 351.386 2.46465 -2.58823 0
M  V30 3808 S 352.945 3.33953 -2.84641 0
M  V30 3809 H 349.763 0.463425 -0.53922 0
M  V30 3810 H 352.365 0.67944 -1.83314 0
M  V30 3811 H 351.069 2.04256 -3.5596 0
M  V30 3812 H 350.6 3.19297 -2.2981 0
M  V30 3813 H 352.615 4.45094 -2.19331 0
M  V30 3814 N 351.788 1.33704 0.83433 0
M  V30 3815 C 352.735 1.24335 1.94447 0
M  V30 3816 C 353.705 0.120991 1.65659 0
M  V30 3817 O 354.89 0.300035 1.88426 0
M  V30 3818 C 352.03 0.993124 3.30501 0
M  V30 3819 C 351.143 2.20217 3.71657 0
M  V30 3820 C 350.278 1.88572 4.96602 0
M  V30 3821 C 349.317 3.05683 5.30306 0
M  V30 3822 N 348.454 2.73997 6.46429 0
M  V30 3823 H 353.294 2.1928 2.01792 0
M  V30 3824 H 350.831 1.09035 0.987404 0
M  V30 3825 H 352.789 0.828467 4.08892 0
M  V30 3826 H 351.419 0.0803902 3.227 0
M  V30 3827 H 350.471 2.47642 2.88752 0
M  V30 3828 H 351.783 3.07752 3.92543 0
M  V30 3829 H 350.937 1.68776 5.82752 0
M  V30 3830 H 349.676 0.982799 4.77695 0
M  V30 3831 H 348.681 3.26088 4.42659 0
M  V30 3832 H 349.906 3.96737 5.51159 0
M  V30 3833 H 347.852 1.86268 6.28999 0
M  V30 3834 H 347.769 3.55064 6.67432 0
M  V30 3835 H 349.037 2.57679 7.35678 0
M  V30 3836 N 353.266 -1.05314 1.17247 0
M  V30 3837 C 354.196 -2.1498 0.911362 0
M  V30 3838 C 355.177 -1.69471 -0.146169 0
M  V30 3839 O 356.362 -1.942 0.003812 0
M  V30 3840 C 353.492 -3.4472 0.422528 0
M  V30 3841 C 352.446 -4.03789 1.4191 0
M  V30 3842 C 351.772 -5.28858 0.788274 0
M  V30 3843 C 353.072 -4.41418 2.7919 0
M  V30 3844 H 354.766 -2.3708 1.82848 0
M  V30 3845 H 352.312 -1.13938 0.880569 0
M  V30 3846 H 354.265 -4.20787 0.227289 0
M  V30 3847 H 352.989 -3.22269 -0.530123 0
M  V30 3848 H 351.648 -3.2979 1.60106 0
M  V30 3849 H 351.296 -5.02709 -0.171173 0
M  V30 3850 H 350.996 -5.69338 1.45353 0
M  V30 3851 H 352.52 -6.07612 0.603282 0
M  V30 3852 H 353.934 -5.08524 2.64719 0
M  V30 3853 H 352.331 -4.92913 3.42282 0
M  V30 3854 H 353.401 -3.51819 3.33693 0
M  V30 3855 N 354.744 -0.972509 -1.24016 0
M  V30 3856 C 355.677 -0.45117 -2.23696 0
M  V30 3857 C 356.655 0.477378 -1.55434 0
M  V30 3858 O 357.839 0.407647 -1.84039 0
M  V30 3859 C 354.966 0.34818 -3.36906 0
M  V30 3860 C 354.012 -0.523355 -4.23277 0
M  V30 3861 S 354.845 -1.96647 -4.98087 0
M  V30 3862 C 356.001 -1.17604 -6.14752 0
M  V30 3863 H 356.234 -1.29588 -2.67571 0
M  V30 3864 H 353.767 -0.777903 -1.33372 0
M  V30 3865 H 355.725 0.803387 -4.02562 0
M  V30 3866 H 354.386 1.16792 -2.91579 0
M  V30 3867 H 353.579 0.0906181 -5.03919 0
M  V30 3868 H 353.181 -0.914485 -3.62647 0
M  V30 3869 H 355.473 -0.433434 -6.76112 0
M  V30 3870 H 356.416 -1.95701 -6.8052 0
M  V30 3871 H 356.824 -0.698295 -5.60164 0
M  V30 3872 N 356.222 1.38976 -0.743202 0
M  V30 3873 C 357.47 1.99948 -0.29417 0
M  V30 3874 C 357.791 1.59279 1.12495 0
M  V30 3875 O 357.061 0.844808 1.76748 0
M  V30 3876 H 355.641 0.739473 -0.105774 0
M  V30 3877 H 358.303 1.699 -0.954986 0
M  V30 3878 H 357.399 3.10142 -0.349056 0
M  V30 3879 N 357.7 0.491464 1.49741 0
M  V30 3880 C 358.949 -0.0582189 2.01616 0
M  V30 3881 C 359.262 -1.38927 1.3769 0
M  V30 3882 O 360.468 -2.02509 1.80838 0
M  V30 3883 C 358.924 -0.154235 3.59569 0
M  V30 3884 C 358.532 1.1696 4.32463 0
M  V30 3885 C 360.276 -0.65479 4.1942 0
M  V30 3886 C 358.183 1.03627 5.8225 0
M  V30 3887 H 357.113 -0.0255317 0.753568 0
M  V30 3888 H 359.764 0.629445 1.72367 0
M  V30 3889 H 358.146 -0.906138 3.85493 0
M  V30 3890 H 359.32 1.93405 4.18248 0
M  V30 3891 H 357.635 1.60285 3.84315 0
M  V30 3892 H 360.232 -0.771903 5.29099 0
M  V30 3893 H 360.575 -1.65127 3.8215 0
M  V30 3894 H 361.108 0.040304 3.9778 0
M  V30 3895 H 357.847 2.00672 6.24028 0
M  V30 3896 H 357.367 0.312546 5.98985 0
M  V30 3897 H 359.046 0.711114 6.4308 0
M  V30 3898 N 359.178 -1.55987 0.224894 0
M  V30 3899 C 360.125 -2.20436 -0.68385 0
M  V30 3900 C 361.095 -1.16102 -1.18783 0
M  V30 3901 O 362.28 -1.4447 -1.24632 0
M  V30 3902 C 359.42 -2.89076 -1.88491 0
M  V30 3903 C 358.533 -4.08012 -1.41951 0
M  V30 3904 C 357.668 -4.64426 -2.5784 0
M  V30 3905 C 356.707 -5.75656 -2.08053 0
M  V30 3906 N 355.844 -6.26347 -3.17227 0
M  V30 3907 H 360.684 -2.97727 -0.12754 0
M  V30 3908 H 358.221 -1.47011 -0.0511978 0
M  V30 3909 H 360.179 -3.27059 -2.59014 0
M  V30 3910 H 358.809 -2.14298 -2.41405 0
M  V30 3911 H 357.861 -3.75492 -0.609095 0
M  V30 3912 H 359.173 -4.88375 -1.01447 0
M  V30 3913 H 358.327 -5.04869 -3.3644 0
M  V30 3914 H 357.066 -3.83233 -3.01635 0
M  V30 3915 H 356.071 -5.34712 -1.27916 0
M  V30 3916 H 357.296 -6.58686 -1.65255 0
M  V30 3917 H 355.242 -5.48067 -3.60497 0
M  V30 3918 H 355.159 -7.01843 -2.80986 0
M  V30 3919 H 356.427 -6.71447 -3.95953 0
M  V30 3920 N 360.656 0.0484629 -1.57525 0
M  V30 3921 C 361.619 1.03956 -2.04269 0
M  V30 3922 C 362.619 1.30211 -0.943496 0
M  V30 3923 O 363.809 1.25539 -1.20771 0
M  V30 3924 C 360.941 2.37742 -2.44319 0
M  V30 3925 H 362.134 0.636182 -2.93075 0
M  V30 3926 H 359.687 0.294811 -1.53494 0
M  V30 3927 H 360.422 2.82866 -1.5861 0
M  V30 3928 H 360.207 2.20021 -3.24551 0
M  V30 3929 H 361.697 3.08936 -2.80978 0
M  V30 3930 N 362.134 1.5431 0.320358 0
M  V30 3931 C 363.084 1.803 1.39556 0
M  V30 3932 C 364.068 0.659166 1.46778 0
M  V30 3933 O 365.26 0.91926 1.51257 0
M  V30 3934 C 362.389 2.03665 2.76361 0
M  V30 3935 C 361.475 3.24178 2.73439 0
M  V30 3936 N 361.866 4.4516 2.40137 0
M  V30 3937 C 360.164 3.25816 3.04565 0
M  V30 3938 C 360.865 5.27109 2.4603 0
M  V30 3939 N 359.841 4.64368 2.82601 0
M  V30 3940 H 363.643 2.71416 1.12742 0
M  V30 3941 H 361.157 1.53548 0.528856 0
M  V30 3942 H 363.154 2.20425 3.53862 0
M  V30 3943 H 361.814 1.13805 3.04103 0
M  V30 3944 H 362.825 4.72104 2.12927 0
M  V30 3945 H 359.502 2.46001 3.37328 0
M  V30 3946 H 360.892 6.33728 2.23246 0
M  V30 3947 N 363.613 -0.582584 1.46437 0
M  V30 3948 C 365.024 -1.1647 1.45916 0
M  V30 3949 C 365.375 -1.95177 0.200077 0
M  V30 3950 O 364.5 -2.04874 -0.696819 0
M  V30 3951 C 365.095 -2.11885 2.64367 0
M  V30 3952 C 363.654 -2.65421 2.66887 0
M  V30 3953 C 362.801 -1.41294 2.38603 0
M  V30 3954 H 365.752 -0.370514 1.54314 0
M  V30 3955 H 365.773 -2.9535 2.39892 0
M  V30 3956 H 365.285 -1.54573 3.5599 0
M  V30 3957 H 363.386 -3.26602 1.79338 0
M  V30 3958 H 363.499 -3.08147 3.66854 0
M  V30 3959 H 361.863 -1.71109 1.88663 0
M  V30 3960 H 362.646 -0.858125 3.32402 0
M  V30 3961 N 365.091 -1.34144 -0.827227 0
M  V30 3962 C 366.054 -1.25264 -1.91942 0
M  V30 3963 C 367.054 -0.168866 -1.59911 0
M  V30 3964 O 368.244 -0.421198 -1.69031 0
M  V30 3965 C 365.376 -0.932952 -3.27885 0
M  V30 3966 H 366.569 -2.22357 -2.0124 0
M  V30 3967 H 364.122 -1.1837 -1.0207 0
M  V30 3968 H 364.857 0.0349917 -3.24281 0
M  V30 3969 H 364.642 -1.71682 -3.52516 0
M  V30 3970 H 366.132 -0.895874 -4.07877 0
M  V30 3971 N 366.569 1.04691 -1.17803 0
M  V30 3972 C 367.985 1.29963 -0.926379 0
M  V30 3973 C 368.185 1.97251 0.411635 0
M  V30 3974 O 367.241 2.24922 1.14744 0
M  V30 3975 C 368.554 2.16447 -2.08737 0
M  V30 3976 C 370.102 2.29814 -2.12496 0
M  V30 3977 C 370.577 3.19661 -3.27995 0
M  V30 3978 N 372.068 3.27247 -3.27816 0
M  V30 3979 C 372.803 3.96906 -4.13827 0
M  V30 3980 N 372.299 4.6895 -5.09959 0
M  V30 3981 N 374.092 3.93122 -4.01761 0
M  V30 3982 H 366.243 0.594182 -2.0392 0
M  V30 3983 H 368.506 0.324649 -0.890678 0
M  V30 3984 H 368.212 1.74304 -3.05469 0
M  V30 3985 H 368.086 3.17103 -2.04268 0
M  V30 3986 H 370.473 2.71196 -1.16347 0
M  V30 3987 H 370.554 1.2877 -2.21025 0
M  V30 3988 H 370.198 2.78991 -4.24413 0
M  V30 3989 H 370.128 4.20722 -3.16703 0
M  V30 3990 H 372.619 2.75921 -2.58217 0
M  V30 3991 H 372.932 5.19679 -5.71974 0
M  V30 3992 H 371.277 4.67875 -5.13924 0
M  V30 3993 H 374.468 3.35967 -3.2595 0
M  V30 3994 H 374.641 4.47139 -4.6901 0
M  V30 3995 N 368.047 0.979072 1.23499 0
M  V30 3996 C 369.294 0.647219 1.91878 0
M  V30 3997 C 369.622 -0.819074 1.76413 0
M  V30 3998 O 368.877 -1.60616 1.11808 0
M  V30 3999 C 369.176 0.981932 3.43646 0
M  V30 4000 C 368.842 2.43822 3.79291 0
M  V30 4001 C 367.504 2.83622 3.88731 0
M  V30 4002 C 369.856 3.3828 3.96505 0
M  V30 4003 C 367.184 4.16897 4.12812 0
M  V30 4004 C 369.536 4.71197 4.22085 0
M  V30 4005 C 368.2 5.10758 4.29747 0
M  V30 4006 H 367.47 0.236834 0.702133 0
M  V30 4007 H 370.117 1.23268 1.46551 0
M  V30 4008 H 368.422 0.314365 3.90537 0
M  V30 4009 H 370.119 0.703395 3.94783 0
M  V30 4010 H 366.709 2.11966 3.72516 0
M  V30 4011 H 370.893 3.0871 3.88603 0
M  V30 4012 H 366.149 4.47157 4.16966 0
M  V30 4013 H 370.323 5.44348 4.34348 0
M  V30 4014 H 367.95 6.1405 4.48159 0
M  V30 4015 N 369.525 -1.3858 0.750561 0
M  V30 4016 C 370.936 -1.82927 0.373438 0
M  V30 4017 C 371.287 -1.62634 -1.09748 0
M  V30 4018 O 370.412 -1.12588 -1.84805 0
M  V30 4019 C 371.007 -3.32088 0.671029 0
M  V30 4020 C 369.566 -3.74795 0.34722 0
M  V30 4021 C 368.713 -2.61391 0.92575 0
M  V30 4022 H 371.664 -1.27351 0.946958 0
M  V30 4023 H 371.685 -3.80465 -0.0518269 0
M  V30 4024 H 371.197 -3.46826 1.74164 0
M  V30 4025 H 369.298 -3.65638 -0.716933 0
M  V30 4026 H 369.411 -4.71667 0.840656 0
M  V30 4027 H 367.775 -2.52265 0.351327 0
M  V30 4028 H 368.558 -2.78929 2.00133 0
M  V30 4029 N 371.003 -0.499398 -1.49478 0
M  V30 4030 C 371.966 0.268838 -2.27618 0
M  V30 4031 C 372.966 0.895383 -1.33565 0
M  V30 4032 O 374.156 0.760164 -1.56739 0
M  V30 4033 C 371.288 1.38559 -3.11471 0
M  V30 4034 H 372.481 -0.416812 -2.96989 0
M  V30 4035 H 370.034 -0.254313 -1.54217 0
M  V30 4036 H 370.769 2.10544 -2.46661 0
M  V30 4037 H 370.554 0.941797 -3.80621 0
M  V30 4038 H 372.044 1.92678 -3.70493 0
M  V30 4039 N 372.481 1.55866 -0.233164 0
M  V30 4040 C 373.428 2.20796 0.67215 0
M  V30 4041 C 374.398 1.16731 1.18166 0
M  V30 4042 O 375.583 1.45129 1.23864 0
M  V30 4043 C 372.723 2.90072 1.86955 0
M  V30 4044 C 371.836 4.08759 1.39786 0
M  V30 4045 C 370.971 4.65787 2.55374 0
M  V30 4046 C 370.01 5.76752 2.04998 0
M  V30 4047 N 369.147 6.28021 3.13901 0
M  V30 4048 H 373.987 2.9779 0.111749 0
M  V30 4049 H 371.524 1.47036 0.0434007 0
M  V30 4050 H 373.482 3.28428 2.57276 0
M  V30 4051 H 372.112 2.15575 2.40265 0
M  V30 4052 H 371.164 3.7581 0.589173 0
M  V30 4053 H 372.476 4.88906 0.98856 0
M  V30 4054 H 371.63 5.06646 3.33758 0
M  V30 4055 H 370.369 3.84828 2.99598 0
M  V30 4056 H 369.374 5.35383 1.25079 0
M  V30 4057 H 370.599 6.59553 1.61759 0
M  V30 4058 H 368.545 5.49971 3.57586 0
M  V30 4059 H 368.462 7.03323 2.7726 0
M  V30 4060 H 369.73 6.73538 3.92386 0
M  V30 4061 N 373.959 -0.0401083 1.57549 0
M  V30 4062 C 374.889 -1.04384 2.08869 0
M  V30 4063 C 375.87 -1.38407 0.988817 0
M  V30 4064 O 377.055 -1.47483 1.26342 0
M  V30 4065 C 374.185 -2.34808 2.55895 0
M  V30 4066 C 373.139 -2.15057 3.70047 0
M  V30 4067 C 372.465 -3.51145 4.03239 0
M  V30 4068 C 373.765 -1.54576 4.98902 0
M  V30 4069 H 375.459 -0.616666 2.92981 0
M  V30 4070 H 373.005 -0.295184 1.40942 0
M  V30 4071 H 374.958 -3.05346 2.90417 0
M  V30 4072 H 373.682 -2.79565 1.68853 0
M  V30 4073 H 372.341 -1.46954 3.35857 0
M  V30 4074 H 371.989 -3.93529 3.13279 0
M  V30 4075 H 371.689 -3.38758 4.80122 0
M  V30 4076 H 373.213 -4.23062 4.40285 0
M  V30 4077 H 374.627 -2.15017 5.31451 0
M  V30 4078 H 373.024 -1.52796 5.80322 0
M  V30 4079 H 374.094 -0.51039 4.82206 0
M  V30 4080 N 375.437 -1.54477 -0.31217 0
M  V30 4081 C 376.848 -1.64344 -0.885891 0
M  V30 4082 C 377.199 -0.54485 -1.88483 0
M  V30 4083 O 376.324 0.320387 -2.14015 0
M  V30 4084 C 376.919 -2.97908 -1.61357 0
M  V30 4085 C 375.478 -3.09933 -2.13585 0
M  V30 4086 C 374.625 -2.59971 -0.964897 0
M  V30 4087 H 377.576 -1.58448 -0.0894528 0
M  V30 4088 H 377.597 -2.88706 -2.47848 0
M  V30 4089 H 377.109 -3.77845 -0.886277 0
M  V30 4090 H 375.21 -2.34694 -2.89395 0
M  V30 4091 H 375.323 -4.15916 -2.37804 0
M  V30 4092 H 373.687 -2.16147 -1.34731 0
M  V30 4093 H 374.47 -3.42376 -0.251742 0
M  V30 4094 N 376.915 0.57481 -1.46744 0
M  V30 4095 C 377.825 1.711 -1.60505 0
M  V30 4096 C 378.841 1.67008 -0.488307 0
M  V30 4097 O 380.017 1.86774 -0.753495 0
M  V30 4098 C 377.082 3.07608 -1.59932 0
M  V30 4099 C 376.143 3.22904 -2.82898 0
M  V30 4100 C 375.376 4.529 -2.82343 0
M  V30 4101 O 375.599 5.37278 -1.91542 0
M  V30 4102 O 374.533 4.71611 -3.73987 0
M  V30 4103 H 378.359 1.62436 -2.56609 0
M  V30 4104 H 375.944 0.742779 -1.29627 0
M  V30 4105 H 377.826 3.88877 -1.62336 0
M  V30 4106 H 376.501 3.16692 -0.669898 0
M  V30 4107 H 375.408 2.41099 -2.86046 0
M  V30 4108 H 376.741 3.18715 -3.75076 0
M  V30 4109 N 378.394 1.34581 0.820102 0
M  V30 4110 C 379.641 1.27096 1.57648 0
M  V30 4111 C 379.969 -0.158317 1.93855 0
M  V30 4112 O 379.224 -1.12028 1.60463 0
M  V30 4113 C 379.523 2.10997 2.8847 0
M  V30 4114 C 379.189 3.59966 2.71543 0
M  V30 4115 C 377.851 4.00575 2.66634 0
M  V30 4116 C 380.203 4.54548 2.55021 0
M  V30 4117 C 377.531 5.33953 2.43128 0
M  V30 4118 C 379.883 5.88109 2.33047 0
M  V30 4119 C 378.547 6.27878 2.26552 0
M  V30 4120 H 377.817 0.465078 0.576874 0
M  V30 4121 H 380.464 1.6635 0.948671 0
M  V30 4122 H 378.769 1.6458 3.55557 0
M  V30 4123 H 380.466 2.0255 3.46084 0
M  V30 4124 H 377.056 3.27733 2.76205 0
M  V30 4125 H 381.24 4.24069 2.57835 0
M  V30 4126 H 376.496 5.63781 2.3656 0
M  V30 4127 H 380.67 6.60985 2.19251 0
M  V30 4128 H 378.297 7.31162 2.081 0
M  V30 4129 N 379.872 -1.04064 1.18357 0
M  V30 4130 C 381.119 -1.77265 0.978947 0
M  V30 4131 C 381.447 -1.88189 -0.491428 0
M  V30 4132 O 380.702 -1.38653 -1.38108 0
M  V30 4133 C 381.001 -3.20634 1.57888 0
M  V30 4134 C 380.667 -3.29743 3.07539 0
M  V30 4135 C 379.329 -3.31937 3.48384 0
M  V30 4136 C 381.681 -3.29841 4.03552 0
M  V30 4137 C 379.009 -3.3187 4.83818 0
M  V30 4138 C 381.361 -3.31313 5.38901 0
M  V30 4139 C 380.025 -3.31799 5.79194 0
M  V30 4140 H 379.295 -0.648659 0.358222 0
M  V30 4141 H 381.942 -1.22225 1.47422 0
M  V30 4142 H 380.247 -3.78675 1.00561 0
M  V30 4143 H 381.944 -3.75917 1.39598 0
M  V30 4144 H 378.534 -3.28757 2.74986 0
M  V30 4145 H 382.718 -3.27337 3.73047 0
M  V30 4146 H 377.974 -3.30562 5.14333 0
M  V30 4147 H 382.148 -3.30338 6.13066 0
M  V30 4148 H 379.775 -3.315 6.84114 0
M  V30 4149 N 381.35 -0.985608 -1.22978 0
M  V30 4150 C 382.599 -0.652881 -1.90841 0
M  V30 4151 C 382.912 0.817842 -1.77681 0
M  V30 4152 O 384.118 1.26185 -2.40395 0
M  V30 4153 C 382.574 -1.11717 -3.42122 0
M  V30 4154 C 382.182 -2.6126 -3.63933 0
M  V30 4155 C 383.926 -0.85843 -4.1573 0
M  V30 4156 C 381.833 -3.0133 -5.08876 0
M  V30 4157 H 380.763 -0.240491 -0.714619 0
M  V30 4158 H 383.414 -1.1942 -1.39324 0
M  V30 4159 H 381.796 -0.504027 -3.92779 0
M  V30 4160 H 382.97 -3.27858 -3.23799 0
M  V30 4161 H 381.285 -2.84937 -3.03644 0
M  V30 4162 H 383.882 -1.13359 -5.22546 0
M  V30 4163 H 384.225 0.205461 -4.15793 0
M  V30 4164 H 384.758 -1.43341 -3.71077 0
M  V30 4165 H 381.497 -4.06864 -5.13947 0
M  V30 4166 H 381.017 -2.3943 -5.49939 0
M  V30 4167 H 382.696 -2.92224 -5.77247 0
M  V30 4168 N 382.828 1.3818 -0.7579 0
M  V30 4169 C 384.244 1.5353 -0.435972 0
M  V30 4170 C 384.444 1.71961 1.05032 0
M  V30 4171 O 383.5 1.73307 1.83633 0
M  V30 4172 C 384.813 2.73989 -1.23898 0
M  V30 4173 C 386.361 2.87841 -1.22949 0
M  V30 4174 C 386.836 4.11266 -2.01554 0
M  V30 4175 N 388.327 4.18352 -1.98837 0
M  V30 4176 C 389.062 5.12856 -2.5645 0
M  V30 4177 N 388.558 6.13005 -3.22794 0
M  V30 4178 N 390.351 5.05238 -2.46356 0
M  V30 4179 H 382.502 1.24467 -1.7211 0
M  V30 4180 H 384.765 0.604982 -0.729864 0
M  V30 4181 H 384.471 2.66789 -2.29165 0
M  V30 4182 H 384.345 3.67294 -0.858764 0
M  V30 4183 H 386.732 2.9452 -0.184854 0
M  V30 4184 H 386.813 1.95534 -1.64924 0
M  V30 4185 H 386.457 4.05349 -3.06031 0
M  V30 4186 H 386.387 5.02661 -1.5697 0
M  V30 4187 H 388.878 3.46628 -1.50524 0
M  V30 4188 H 389.191 6.81619 -3.64165 0
M  V30 4189 H 387.536 6.13325 -3.2689 0
M  V30 4190 H 390.727 4.25938 -1.9415 0
M  V30 4191 H 390.9 5.78707 -2.91552 0
M  V30 4192 N 384.306 0.507319 1.49211 0
M  V30 4193 C 385.239 -0.314509 2.26022 0
M  V30 4194 C 386.217 -0.964849 1.30879 0
M  V30 4195 O 387.401 -0.993707 1.6018 0
M  V30 4196 C 384.528 -1.44346 3.06402 0
M  V30 4197 C 383.574 -0.90685 4.16748 0
M  V30 4198 S 384.407 0.207392 5.35098 0
M  V30 4199 C 385.563 -0.924573 6.19033 0
M  V30 4200 H 385.796 0.337416 2.95379 0
M  V30 4201 H 383.329 0.292718 1.516 0
M  V30 4202 H 385.287 -2.09029 3.53295 0
M  V30 4203 H 383.948 -2.06702 2.36502 0
M  V30 4204 H 383.141 -1.75309 4.72528 0
M  V30 4205 H 382.743 -0.33712 3.72478 0
M  V30 4206 H 385.035 -1.82839 6.52362 0
M  V30 4207 H 385.978 -0.405248 7.06939 0
M  V30 4208 H 386.386 -1.19476 5.51712 0
M  V30 4209 N 385.784 -1.5574 0.241426 0
M  V30 4210 C 386.714 -2.24133 -0.654722 0
M  V30 4211 C 387.695 -1.21974 -1.1856 0
M  V30 4212 O 388.88 -1.50612 -1.22595 0
M  V30 4213 C 386.01 -2.93659 -1.85423 0
M  V30 4214 C 384.964 -4.0246 -1.45636 0
M  V30 4215 C 384.29 -4.59383 -2.73626 0
M  V30 4216 C 385.59 -5.18468 -0.631506 0
M  V30 4217 H 387.284 -2.99281 -0.0844353 0
M  V30 4218 H 384.83 -1.43947 -0.0391707 0
M  V30 4219 H 386.783 -3.40203 -2.48676 0
M  V30 4220 H 385.507 -2.15991 -2.44981 0
M  V30 4221 H 384.166 -3.56676 -0.847202 0
M  V30 4222 H 383.814 -3.78422 -3.3137 0
M  V30 4223 H 383.514 -5.32826 -2.4773 0
M  V30 4224 H 385.038 -5.08658 -3.37786 0
M  V30 4225 H 386.452 -5.61272 -1.1682 0
M  V30 4226 H 384.849 -5.98266 -0.468831 0
M  V30 4227 H 385.919 -4.8358 0.357506 0
M  V30 4228 N 387.262 0.0317525 -1.57568 0
M  V30 4229 C 388.49 0.734949 -1.93407 0
M  V30 4230 C 388.905 1.69036 -0.84096 0
M  V30 4231 O 388.262 1.81582 0.182836 0
M  V30 4232 C 388.313 1.49432 -3.29169 0
M  V30 4233 O 388.034 0.577261 -4.3428 0
M  V30 4234 C 389.535 2.29492 -3.79273 0
M  V30 4235 H 386.755 0.206706 -0.638368 0
M  V30 4236 H 389.299 -0.00992046 -2.04498 0
M  V30 4237 H 387.454 2.1911 -3.19483 0
M  V30 4238 H 387.868 1.10952 -5.1263 0
M  V30 4239 H 389.342 2.78172 -4.76785 0
M  V30 4240 H 389.819 3.10794 -3.10328 0
M  V30 4241 H 390.425 1.64894 -3.92033 0
M  V30 4242 N 388.74 1.54641 0.303973 0
M  V30 4243 C 389.65 1.88439 1.39743 0
M  V30 4244 C 390.666 0.778239 1.55626 0
M  V30 4245 O 391.842 1.07442 1.70347 0
M  V30 4246 C 388.907 2.12212 2.74166 0
M  V30 4247 C 387.968 3.35936 2.67293 0
M  V30 4248 C 387.201 3.58566 3.95305 0
M  V30 4249 O 387.424 2.84263 4.9452 0
M  V30 4250 O 386.358 4.52078 3.97378 0
M  V30 4251 H 390.184 2.81458 1.14083 0
M  V30 4252 H 387.769 1.40793 0.499768 0
M  V30 4253 H 389.651 2.29067 3.53704 0
M  V30 4254 H 388.326 1.22379 2.99675 0
M  V30 4255 H 387.233 3.24448 1.86237 0
M  V30 4256 H 388.566 4.2589 2.46736 0
M  V30 4257 N 390.218 -0.567019 1.47046 0
M  V30 4258 C 391.629 -1.14916 1.47143 0
M  V30 4259 C 391.98 -1.94954 0.220767 0
M  V30 4260 O 391.105 -2.05602 -0.67505 0
M  V30 4261 C 391.7 -2.09069 2.666 0
M  V30 4262 C 390.259 -2.62575 2.69687 0
M  V30 4263 C 389.406 -1.38755 2.40088 0
M  V30 4264 H 392.357 -0.354126 1.54699 0
M  V30 4265 H 392.378 -2.92789 2.43011 0
M  V30 4266 H 391.89 -1.50789 3.57609 0
M  V30 4267 H 389.991 -3.24681 1.82792 0
M  V30 4268 H 390.104 -3.04239 3.70102 0
M  V30 4269 H 388.468 -1.69098 1.90468 0
M  V30 4270 H 389.251 -0.822822 3.33293 0
M  V30 4271 N 391.696 -1.35014 -0.812953 0
M  V30 4272 C 392.973 -1.18502 -1.55617 0
M  V30 4273 C 393.353 0.238421 -2.09749 0
M  V30 4274 O 392.701 1.2411 -1.91857 0
M  V30 4275 C 392.911 -2.24783 -2.66971 0
M  V30 4276 C 394.259 -2.60268 -3.35478 0
M  V30 4277 O 395.283 -2.23648 -2.77236 0
M  V30 4278 O 394.142 -3.2321 -4.40678 0
M  V30 4279 H 391.236 -0.459984 -0.687272 0
M  V30 4280 H 393.782 -1.46677 -0.853464 0
M  V30 4281 H 392.554 -3.20284 -2.24798 0
M  V30 4282 H 392.177 -1.97841 -3.44884 0
M  V30 4283 N 393.175 1.03435 -1.18907 0
M  V30 4284 C 394.452 1.73778 -0.89781 0
M  V30 4285 C 394.832 2.02458 0.597832 0
M  V30 4286 O 394.18 1.67482 1.55441 0
M  V30 4287 C 394.39 3.01845 -1.75187 0
M  V30 4288 C 395.738 3.7546 -1.9828 0
M  V30 4289 O 396.762 3.11759 -1.72293 0
M  V30 4290 O 395.621 4.89966 -2.42065 0
M  V30 4291 H 392.715 0.75651 -0.334098 0
M  V30 4292 H 395.261 1.09444 -1.29693 0
M  V30 4293 H 394.033 2.76836 -2.76545 0
M  V30 4294 H 393.656 3.73919 -1.35167 0
M  V30 4295 N 394.653 0.992116 1.22453 0
M  V30 4296 C 395.583 0.561677 2.26644 0
M  V30 4297 C 396.564 -0.411055 1.65059 0
M  V30 4298 O 397.749 -0.301861 1.9184 0
M  V30 4299 C 394.879 -0.125247 3.47074 0
M  V30 4300 C 393.833 0.765948 4.21091 0
M  V30 4301 C 393.159 -0.0538484 5.34673 0
M  V30 4302 C 394.459 2.06242 4.79856 0
M  V30 4303 H 396.153 1.43259 2.62902 0
M  V30 4304 H 393.699 0.690283 1.26377 0
M  V30 4305 H 395.652 -0.437764 4.1912 0
M  V30 4306 H 394.376 -1.03069 3.0991 0
M  V30 4307 H 393.035 1.0621 3.50878 0
M  V30 4308 H 392.683 -0.960188 4.9375 0
M  V30 4309 H 392.383 0.539415 5.85119 0
M  V30 4310 H 393.907 -0.360477 6.09535 0
M  V30 4311 H 395.321 1.8139 5.43848 0
M  V30 4312 H 393.718 2.60444 5.40638 0
M  V30 4313 H 394.788 2.74167 3.99951 0
M  V30 4314 N 396.131 -1.37776 0.765217 0
M  V30 4315 C 397.377 -2.00145 0.327072 0
M  V30 4316 C 397.71 -1.60607 -1.09175 0
M  V30 4317 O 396.985 -0.849127 -1.74986 0
M  V30 4318 C 397.268 -3.57109 0.46319 0
M  V30 4319 C 397.121 -4.06576 1.92395 0
M  V30 4320 C 398.44 -4.39888 -0.136473 0
M  V30 4321 H 395.559 -0.727113 0.120316 0
M  V30 4322 H 398.201 -1.63549 0.967039 0
M  V30 4323 H 396.351 -3.88414 -0.0816358 0
M  V30 4324 H 398.023 -3.85864 2.52798 0
M  V30 4325 H 396.266 -3.59011 2.43503 0
M  V30 4326 H 396.937 -5.15639 1.97028 0
M  V30 4327 H 399.413 -4.14803 0.328317 0
M  V30 4328 H 398.289 -5.48899 -0.0110582 0
M  V30 4329 H 398.55 -4.24758 -1.22608 0
M  V30 4330 N 397.609 -0.515225 -1.4894 0
M  V30 4331 C 398.855 0.0242508 -2.02785 0
M  V30 4332 C 399.188 1.35323 -1.39289 0
M  V30 4333 O 398.463 1.87041 -0.533469 0
M  V30 4334 C 398.746 0.16184 -3.59736 0
M  V30 4335 C 398.599 -1.19127 -4.33738 0
M  V30 4336 C 399.918 0.895719 -4.30888 0
M  V30 4337 H 397.037 0.00733914 -0.736963 0
M  V30 4338 H 399.679 -0.669395 -1.77818 0
M  V30 4339 H 397.829 0.752624 -3.8114 0
M  V30 4340 H 399.501 -1.82202 -4.23792 0
M  V30 4341 H 397.744 -1.77695 -3.95736 0
M  V30 4342 H 398.415 -1.04815 -5.41957 0
M  V30 4343 H 400.891 0.394528 -4.14225 0
M  V30 4344 H 399.767 0.960859 -5.40425 0
M  V30 4345 H 400.028 1.9427 -3.97129 0
M  V30 4346 N 399.087 1.5561 -0.249682 0
M  V30 4347 C 400.364 1.90932 0.424761 0
M  V30 4348 C 400.744 1.17078 1.75658 0
M  V30 4349 O 400.092 0.289176 2.26663 0
M  V30 4350 C 400.302 3.43975 0.590109 0
M  V30 4351 C 401.65 4.15281 0.884714 0
M  V30 4352 O 402.674 3.49729 0.67587 0
M  V30 4353 O 401.533 5.31236 1.28259 0
M  V30 4354 H 398.627 0.794815 0.228468 0
M  V30 4355 H 401.173 1.67135 -0.293954 0
M  V30 4356 H 399.945 3.89748 -0.34818 0
M  V30 4357 H 399.568 3.73644 1.35926 0
M  V30 4358 N 400.565 -0.0233959 1.57583 0
M  V30 4359 C 401.814 -0.712133 1.8871 0
M  V30 4360 C 402.127 -1.76217 0.848944 0
M  V30 4361 O 403.333 -2.50389 1.04964 0
M  V30 4362 C 401.789 -1.3177 3.3491 0
M  V30 4363 C 401.397 -0.303715 4.46969 0
M  V30 4364 C 403.141 -1.98598 3.75179 0
M  V30 4365 C 401.048 -0.917945 5.84233 0
M  V30 4366 H 399.978 -0.269735 0.704101 0
M  V30 4367 H 402.629 0.0333114 1.8347 0
M  V30 4368 H 401.011 -2.11304 3.34913 0
M  V30 4369 H 402.185 0.465325 4.58445 0
M  V30 4370 H 400.5 0.2628 4.1557 0
M  V30 4371 H 403.097 -2.45416 4.75053 0
M  V30 4372 H 403.44 -2.80659 3.07468 0
M  V30 4373 H 403.973 -1.25831 3.77374 0
M  V30 4374 H 400.712 -0.136633 6.55358 0
M  V30 4375 H 400.232 -1.65669 5.76467 0
M  V30 4376 H 401.911 -1.4236 6.31144 0
M  V30 4377 N 402.043 -1.548 -0.295768 0
M  V30 4378 C 403.29 -1.74329 -1.03032 0
M  V30 4379 C 403.618 -0.531915 -1.87085 0
M  V30 4380 O 402.873 0.486052 -1.89568 0
M  V30 4381 C 403.172 -2.98797 -1.961 0
M  V30 4382 C 402.838 -4.32356 -1.2798 0
M  V30 4383 C 401.5 -4.68661 -1.09135 0
M  V30 4384 C 403.852 -5.15128 -0.793243 0
M  V30 4385 C 401.18 -5.85312 -0.403269 0
M  V30 4386 C 403.532 -6.32488 -0.118854 0
M  V30 4387 C 402.196 -6.6745 0.0815043 0
M  V30 4388 H 401.466 -0.637916 -0.37702 0
M  V30 4389 H 404.113 -1.8906 -0.304696 0
M  V30 4390 H 402.418 -2.78869 -2.75207 0
M  V30 4391 H 404.115 -3.11102 -2.53015 0
M  V30 4392 H 400.705 -4.03808 -1.43655 0
M  V30 4393 H 404.889 -4.87575 -0.92653 0
M  V30 4394 H 400.145 -6.1094 -0.237098 0
M  V30 4395 H 404.319 -6.95892 0.266035 0
M  V30 4396 H 401.946 -7.57695 0.616685 0
M  V30 4397 N 403.521 0.559213 -1.47345 0
M  V30 4398 C 404.769 1.31388 -1.53563 0
M  V30 4399 C 405.09 1.93985 -0.198678 0
M  V30 4400 O 404.36 1.79825 0.777167 0
M  V30 4401 H 402.94 0.487901 -0.565652 0
M  V30 4402 H 405.602 0.65315 -1.8363 0
M  V30 4403 H 404.698 2.10844 -2.30111 0
M  V30 4404 N 404.999 1.35443 0.805782 0
M  V30 4405 C 406.247 1.28507 1.55982 0
M  V30 4406 C 406.568 -0.140046 1.94496 0
M  V30 4407 O 405.838 -1.07666 1.63661 0
M  V30 4408 H 404.418 0.472676 0.578434 0
M  V30 4409 H 407.08 1.69555 0.961098 0
M  V30 4410 H 406.176 1.90148 2.47488 0
M  V30 4411 N 406.477 -1.02803 1.19454 0
M  V30 4412 C 407.702 -1.80378 1.02364 0
M  V30 4413 C 408.127 -1.83282 -0.423007 0
M  V30 4414 O 407.485 -1.25945 -1.30413 0
M  V30 4415 C 407.533 -3.23248 1.59821 0
M  V30 4416 O 406.637 -4.04 0.828105 0
M  V30 4417 H 405.978 -0.556799 0.361761 0
M  V30 4418 H 408.508 -1.29385 1.58495 0
M  V30 4419 H 408.518 -3.73994 1.63073 0
M  V30 4420 H 407.193 -3.2045 2.65113 0
M  V30 4421 H 405.77 -3.62635 0.86891 0
M  V30 4422 N 407.956 -0.998596 -1.21925 0
M  V30 4423 C 408.904 -0.546641 -2.26085 0
M  V30 4424 C 409.898 0.405576 -1.64473 0
M  V30 4425 O 411.104 0.277471 -1.77849 0
M  V30 4426 H 407.479 -0.158403 -0.735127 0
M  V30 4427 H 409.45 -1.43645 -2.61551 0
M  V30 4428 C 408.199 0.117388 -3.47502 0
M  V30 4429 H 407.522 -0.606277 -3.95176 0
M  V30 4430 H 408.962 0.396993 -4.22137 0
M  V30 4431 C 407.421 1.35455 -3.0847 0
M  V30 4432 O 407.951 2.44944 -3.18379 0
M  V30 4433 N 406.157 1.23191 -2.63196 0
M  V30 4434 H 405.704 0.341006 -2.55333 0
M  V30 4435 H 405.662 2.06071 -2.37449 0
M  V30 4436 N 409.434 1.37368 -0.772513 0
M  V30 4437 C 410.662 2.03942 -0.348588 0
M  V30 4438 C 411.077 1.58264 1.02947 0
M  V30 4439 O 410.434 0.764246 1.65727 0
M  V30 4440 C 410.485 3.5946 -0.38351 0
M  V30 4441 O 410.206 4.03468 -1.70721 0
M  V30 4442 C 411.707 4.4327 0.0519152 0
M  V30 4443 H 408.927 0.654931 -0.145966 0
M  V30 4444 H 411.471 1.75686 -1.04665 0
M  V30 4445 H 409.626 3.86486 0.265978 0
M  V30 4446 H 410.04 4.97991 -1.64636 0
M  V30 4447 H 411.514 5.51995 -0.0236733 0
M  V30 4448 H 411.991 4.2514 1.10238 0
M  V30 4449 H 412.597 4.21471 -0.569415 0
M  V30 4450 N 410.912 0.523116 1.48665 0
M  V30 4451 C 412.14 -0.0096312 2.06898 0
M  V30 4452 C 412.555 -1.28784 1.38059 0
M  V30 4453 O 411.912 -1.76453 0.465893 0
M  V30 4454 C 411.963 -0.244386 3.60673 0
M  V30 4455 O 411.684 0.983172 4.26925 0
M  V30 4456 C 413.185 -0.818289 4.35682 0
M  V30 4457 H 410.405 0.0304161 0.67031 0
M  V30 4458 H 412.949 0.726799 1.91149 0
M  V30 4459 H 411.104 -0.930847 3.76051 0
M  V30 4460 H 411.518 0.759653 5.1897 0
M  V30 4461 H 412.992 -0.93201 5.44075 0
M  V30 4462 H 413.469 -1.82153 3.99646 0
M  V30 4463 H 414.075 -0.168609 4.24966 0
M  V30 4464 N 412.39 -1.55475 0.257931 0
M  V30 4465 C 413.638 -1.98813 -0.363009 0
M  V30 4466 C 413.959 -1.14757 -1.57657 0
M  V30 4467 O 413.229 -0.232956 -1.9451 0
M  V30 4468 H 411.809 -0.734308 -0.137113 0
M  V30 4469 H 414.471 -1.9156 0.359281 0
M  V30 4470 H 413.567 -3.04941 -0.664634 0
M  V30 4471 N 413.868 0.0150385 -1.57593 0
M  V30 4472 C 414.798 1.01047 -2.10503 0
M  V30 4473 C 415.779 1.36816 -1.01071 0
M  V30 4474 O 416.964 1.45455 -1.28672 0
M  V30 4475 C 414.094 2.30708 -2.59598 0
M  V30 4476 C 413.048 2.09142 -3.73421 0
M  V30 4477 C 412.374 3.44685 -4.08774 0
M  V30 4478 C 413.674 1.46619 -5.01298 0
M  V30 4479 H 415.368 0.569978 -2.93925 0
M  V30 4480 H 412.914 0.272724 -1.41394 0
M  V30 4481 H 414.867 3.00687 -2.95238 0
M  V30 4482 H 413.591 2.76843 -1.73279 0
M  V30 4483 H 412.25 1.41592 -3.38153 0
M  V30 4484 H 411.898 3.88495 -3.195 0
M  V30 4485 H 411.598 3.31077 -4.8545 0
M  V30 4486 H 413.122 4.16004 -4.4696 0
M  V30 4487 H 414.536 2.06535 -5.34805 0
M  V30 4488 H 412.933 1.43544 -5.82679 0
M  V30 4489 H 414.003 0.433611 -4.82957 0
M  V30 4490 N 415.346 1.54954 0.287554 0
M  V30 4491 C 416.592 1.75132 1.02257 0
M  V30 4492 C 416.925 0.542858 1.86458 0
M  V30 4493 O 416.2 -0.459856 1.88986 0
M  V30 4494 C 416.483 3.04812 1.91733 0
M  V30 4495 C 416.336 4.35985 1.10622 0
M  V30 4496 C 417.655 3.30438 2.90687 0
M  V30 4497 H 414.774 0.637194 0.370341 0
M  V30 4498 H 417.416 1.87678 0.296111 0
M  V30 4499 H 415.566 2.94247 2.53675 0
M  V30 4500 H 417.238 4.58487 0.508636 0
M  V30 4501 H 415.481 4.31865 0.409271 0
M  V30 4502 H 416.152 5.23017 1.76513 0
M  V30 4503 H 418.628 3.40701 2.38877 0
M  V30 4504 H 417.504 4.22467 3.50447 0
M  V30 4505 H 417.765 2.49377 3.65053 0
M  V30 4506 N 416.824 -0.551391 1.4764 0
M  V30 4507 C 417.787 -1.64007 1.60107 0
M  V30 4508 C 418.787 -1.53601 0.47576 0
M  V30 4509 O 419.977 -1.57655 0.740988 0
M  V30 4510 C 417.109 -3.03569 1.55108 0
M  V30 4511 H 418.302 -1.543 2.57161 0
M  V30 4512 H 415.855 -0.771776 1.35917 0
M  V30 4513 H 416.59 -3.18804 0.594519 0
M  V30 4514 H 416.375 -3.12532 2.36783 0
M  V30 4515 H 417.865 -3.82762 1.66982 0
M  V30 4516 N 418.302 -1.35869 -0.798587 0
M  V30 4517 C 419.212 -1.31578 -1.94228 0
M  V30 4518 C 420.228 -0.21939 -1.72611 0
M  V30 4519 O 421.404 -0.450167 -1.96305 0
M  V30 4520 C 418.469 -1.09528 -3.28944 0
M  V30 4521 C 417.53 -2.28556 -3.63402 0
M  V30 4522 C 416.763 -2.07549 -4.9169 0
M  V30 4523 O 416.986 -1.046 -5.60727 0
M  V30 4524 O 415.92 -2.95106 -5.24591 0
M  V30 4525 H 419.746 -2.27847 -2.00796 0
M  V30 4526 H 417.331 -1.16322 -0.937526 0
M  V30 4527 H 419.213 -0.991127 -4.09579 0
M  V30 4528 H 417.888 -0.16315 -3.23289 0
M  V30 4529 H 416.795 -2.44538 -2.83112 0
M  V30 4530 H 418.128 -3.20244 -3.73771 0
M  V30 4531 N 419.78 1.02168 -1.19998 0
M  V30 4532 C 421.196 1.27969 -0.953737 0
M  V30 4533 C 421.396 1.98079 0.369703 0
M  V30 4534 O 420.452 2.27306 1.09947 0
M  V30 4535 C 421.765 2.11971 -2.13281 0
M  V30 4536 C 423.313 2.25255 -2.17323 0
M  V30 4537 C 423.788 3.12632 -3.34702 0
M  V30 4538 N 425.279 3.2022 -3.34684 0
M  V30 4539 C 426.014 3.88039 -4.22153 0
M  V30 4540 N 425.51 4.58027 -5.19791 0
M  V30 4541 N 427.303 3.84511 -4.10009 0
M  V30 4542 H 419.454 0.550794 -2.05134 0
M  V30 4543 H 421.717 0.305683 -0.897364 0
M  V30 4544 H 421.423 1.67785 -3.09097 0
M  V30 4545 H 421.297 3.12699 -2.10949 0
M  V30 4546 H 423.684 2.68667 -1.22073 0
M  V30 4547 H 423.765 1.24053 -2.23706 0
M  V30 4548 H 423.409 2.69926 -4.30235 0
M  V30 4549 H 423.339 4.13909 -3.25556 0
M  V30 4550 H 425.83 2.70382 -2.64012 0
M  V30 4551 H 426.143 5.07429 -5.82868 0
M  V30 4552 H 424.488 4.56869 -5.23733 0
M  V30 4553 H 427.679 3.28978 -3.33003 0
M  V30 4554 H 427.852 4.3709 -4.78389 0
M  V30 4555 N 421.258 1.00505 1.21394 0
M  V30 4556 C 422.168 0.574806 2.27449 0
M  V30 4557 C 423.184 -0.382206 1.6975 0
M  V30 4558 O 424.36 -0.246027 1.99892 0
M  V30 4559 C 421.425 -0.0917414 3.46579 0
M  V30 4560 C 420.486 0.909758 4.1955 0
M  V30 4561 C 419.719 0.274924 5.32991 0
M  V30 4562 O 419.942 -0.928254 5.62796 0
M  V30 4563 O 418.876 0.985877 5.93771 0
M  V30 4564 H 422.702 1.45744 2.66444 0
M  V30 4565 H 420.287 0.773923 1.27792 0
M  V30 4566 H 422.169 -0.464551 4.18832 0
M  V30 4567 H 420.844 -0.948755 3.09484 0
M  V30 4568 H 419.751 1.33372 3.49518 0
M  V30 4569 H 421.084 1.73636 4.60555 0
M  V30 4570 N 422.737 -1.36956 0.779787 0
M  V30 4571 C 423.962 -2.04283 0.358224 0
M  V30 4572 C 424.387 -1.58422 -1.01411 0
M  V30 4573 O 423.745 -0.748179 -1.65142 0
M  V30 4574 C 423.793 -3.58152 0.419479 0
M  V30 4575 O 422.897 -4.08342 -0.577142 0
M  V30 4576 H 422.238 -0.645967 0.153698 0
M  V30 4577 H 424.768 -1.75108 1.05822 0
M  V30 4578 H 424.778 -4.07041 0.279636 0
M  V30 4579 H 423.453 -3.90886 1.42061 0
M  V30 4580 H 422.03 -3.70751 -0.399755 0
M  V30 4581 N 424.215 -0.530993 -1.48385 0
M  V30 4582 C 425.631 -0.188919 -1.58478 0
M  V30 4583 C 425.831 1.30786 -1.53288 0
M  V30 4584 O 424.887 2.08619 -1.42248 0
M  V30 4585 C 426.2 -0.792343 -2.90073 0
M  V30 4586 C 427.748 -0.76117 -3.03604 0
M  V30 4587 C 428.223 -1.34319 -4.37861 0
M  V30 4588 N 429.714 -1.3052 -4.44431 0
M  V30 4589 C 430.449 -1.72543 -5.46824 0
M  V30 4590 N 429.945 -2.22299 -6.56167 0
M  V30 4591 N 431.738 -1.63773 -5.37712 0
M  V30 4592 H 423.889 -1.50377 -1.50002 0
M  V30 4593 H 426.152 -0.625559 -0.712306 0
M  V30 4594 H 425.858 -1.84323 -2.99529 0
M  V30 4595 H 425.732 -0.270026 -3.76232 0
M  V30 4596 H 428.119 0.280957 -2.93759 0
M  V30 4597 H 428.2 -1.32097 -2.19053 0
M  V30 4598 H 427.844 -2.38425 -4.4846 0
M  V30 4599 H 427.774 -0.759064 -5.21101 0
M  V30 4600 H 430.265 -0.940973 -3.65997 0
M  V30 4601 H 430.578 -2.52356 -7.30436 0
M  V30 4602 H 428.923 -2.26293 -6.57127 0
M  V30 4603 H 432.114 -1.24698 -4.51185 0
M  V30 4604 H 432.287 -1.96844 -6.17379 0
M  V30 4605 N 425.693 1.55336 -0.266172 0
M  V30 4606 C 426.64 2.22172 0.625165 0
M  V30 4607 C 427.61 1.19211 1.15663 0
M  V30 4608 O 428.795 1.47723 1.20758 0
M  V30 4609 C 425.935 2.93972 1.8076 0
M  V30 4610 C 425.048 4.11632 1.31084 0
M  V30 4611 C 424.183 4.71099 2.45436 0
M  V30 4612 C 423.222 5.8097 1.92718 0
M  V30 4613 N 422.359 6.34538 3.00509 0
M  V30 4614 H 427.199 2.9796 0.0485582 0
M  V30 4615 H 424.736 1.47095 0.0122024 0
M  V30 4616 H 426.694 3.33811 2.50251 0
M  V30 4617 H 425.324 2.20623 2.35638 0
M  V30 4618 H 424.376 3.76975 0.509326 0
M  V30 4619 H 425.688 4.90893 0.884633 0
M  V30 4620 H 424.842 5.13612 3.22936 0
M  V30 4621 H 423.581 3.91096 2.91368 0
M  V30 4622 H 422.586 5.37916 1.13695 0
M  V30 4623 H 423.811 6.62836 1.47733 0
M  V30 4624 H 421.757 5.57433 3.45839 0
M  V30 4625 H 421.674 7.09046 2.62279 0
M  V30 4626 H 422.942 6.81709 3.78011 0
M  V30 4627 N 427.171 -0.0066808 1.57599 0
M  V30 4628 C 428.417 -0.68835 1.91398 0
M  V30 4629 C 428.772 -1.7175 0.86716 0
M  V30 4630 O 428.065 -1.91215 -0.121475 0
M  V30 4631 C 428.259 -1.37939 3.29708 0
M  V30 4632 C 428.088 -0.418689 4.47747 0
M  V30 4633 C 426.858 -0.031526 5.0529 0
M  V30 4634 C 429.056 0.312301 5.13351 0
M  V30 4635 N 427.038 0.928088 6.06844 0
M  V30 4636 C 428.409 1.12682 6.09674 0
M  V30 4637 C 430.464 0.376853 4.96472 0
M  V30 4638 C 429.167 2 6.90936 0
M  V30 4639 C 431.193 1.23723 5.78314 0
M  V30 4640 C 430.555 2.03962 6.74225 0
M  V30 4641 H 426.654 -0.225292 0.748844 0
M  V30 4642 H 429.238 0.0520973 1.9463 0
M  V30 4643 H 427.409 -2.09017 3.27363 0
M  V30 4644 H 429.141 -2.01522 3.50957 0
M  V30 4645 H 425.896 -0.398485 4.71921 0
M  V30 4646 H 426.32 1.40307 6.62301 0
M  V30 4647 H 430.962 -0.22921 4.22178 0
M  V30 4648 H 428.68 2.61676 7.64559 0
M  V30 4649 H 432.266 1.291 5.67296 0
M  V30 4650 H 431.146 2.69461 7.36451 0
M  V30 4651 N 428.649 -1.55105 -0.279332 0
M  V30 4652 C 429.898 -1.74618 -1.00952 0
M  V30 4653 C 430.211 -0.551096 -1.87676 0
M  V30 4654 O 431.417 -0.628507 -2.64125 0
M  V30 4655 C 429.873 -3.09025 -1.84476 0
M  V30 4656 C 429.481 -4.36081 -1.0265 0
M  V30 4657 C 431.225 -3.37891 -2.56963 0
M  V30 4658 C 429.132 -5.6153 -1.85576 0
M  V30 4659 H 428.062 -0.650868 -0.38064 0
M  V30 4660 H 430.713 -1.81569 -0.265475 0
M  V30 4661 H 429.095 -2.96095 -2.62952 0
M  V30 4662 H 430.269 -4.59909 -0.286354 0
M  V30 4663 H 428.584 -4.14312 -0.416464 0
M  V30 4664 H 431.181 -4.28822 -3.19399 0
M  V30 4665 H 431.524 -2.57737 -3.26921 0
M  V30 4666 H 432.057 -3.5189 -1.85522 0
M  V30 4667 H 428.796 -6.44413 -1.2005 0
M  V30 4668 H 428.316 -5.41854 -2.57204 0
M  V30 4669 H 429.995 -5.99594 -2.43096 0
M  V30 4670 N 430.127 0.543554 -1.4793 0
M  V30 4671 C 431.352 1.32995 -1.59145 0
M  V30 4672 C 431.777 1.86472 -0.246956 0
M  V30 4673 O 431.135 1.63696 0.779324 0
M  V30 4674 C 431.183 2.46623 -2.63077 0
M  V30 4675 O 430.287 3.49261 -2.19295 0
M  V30 4676 H 429.628 0.394472 -0.534124 0
M  V30 4677 H 432.158 0.655489 -1.93816 0
M  V30 4678 H 432.168 2.93001 -2.83926 0
M  V30 4679 H 430.843 2.07059 -3.60693 0
M  V30 4680 H 429.42 3.09094 -2.08603 0
M  V30 4681 N 431.605 1.3629 0.791371 0
M  V30 4682 C 432.852 1.30412 1.54916 0
M  V30 4683 C 433.18 -0.117162 1.94147 0
M  V30 4684 O 432.435 -1.08599 1.62803 0
M  V30 4685 C 432.734 2.17068 2.8393 0
M  V30 4686 C 432.4 3.65645 2.63846 0
M  V30 4687 C 431.062 4.0614 2.58077 0
M  V30 4688 C 433.414 4.59855 2.45322 0
M  V30 4689 C 430.742 5.3899 2.31748 0
M  V30 4690 C 433.094 5.9292 2.2052 0
M  V30 4691 C 431.758 6.32542 2.13183 0
M  V30 4692 H 431.028 0.47721 0.566879 0
M  V30 4693 H 433.675 1.68325 0.913172 0
M  V30 4694 H 431.98 1.72085 3.51986 0
M  V30 4695 H 433.677 2.09846 3.4171 0
M  V30 4696 H 430.267 3.33518 2.69191 0
M  V30 4697 H 434.451 4.29443 2.48782 0
M  V30 4698 H 429.707 5.68672 2.24548 0
M  V30 4699 H 433.881 6.65487 2.05182 0
M  V30 4700 H 431.508 7.35412 1.92544 0
M  V30 4701 N 433.083 -1.0153 1.20538 0
M  V30 4702 C 433.993 -2.13557 0.971113 0
M  V30 4703 C 435.009 -1.73845 -0.0734366 0
M  V30 4704 O 436.185 -2.01075 0.114299 0
M  V30 4705 C 433.25 -3.42661 0.527639 0
M  V30 4706 C 432.311 -3.96608 1.64319 0
M  V30 4707 C 431.544 -5.1955 1.22078 0
M  V30 4708 O 431.767 -5.70329 0.0900198 0
M  V30 4709 O 430.701 -5.66681 2.02871 0
M  V30 4710 H 434.527 -2.3619 1.90913 0
M  V30 4711 H 432.112 -1.11946 0.989362 0
M  V30 4712 H 433.994 -4.20404 0.289621 0
M  V30 4713 H 432.669 -3.21441 -0.381779 0
M  V30 4714 H 431.576 -3.20139 1.93551 0
M  V30 4715 H 432.909 -4.22219 2.52966 0
M  V30 4716 N 434.561 -1.01147 -1.20859 0
M  V30 4717 C 435.494 -0.522108 -2.22147 0
M  V30 4718 C 436.472 0.427686 -1.56874 0
M  V30 4719 O 437.656 0.34889 -1.85243 0
M  V30 4720 C 434.783 0.240819 -3.37843 0
M  V30 4721 C 433.829 -0.657752 -4.21398 0
M  V30 4722 S 434.662 -2.12393 -4.91578 0
M  V30 4723 C 435.818 -1.37102 -6.10699 0
M  V30 4724 H 436.051 -1.38035 -2.63313 0
M  V30 4725 H 433.584 -0.819941 -1.30829 0
M  V30 4726 H 435.542 0.674908 -4.04914 0
M  V30 4727 H 434.203 1.07457 -2.95147 0
M  V30 4728 H 433.396 -0.0697456 -5.03952 0
M  V30 4729 H 432.998 -1.0294 -3.59555 0
M  V30 4730 H 435.29 -0.648315 -6.74391 0
M  V30 4731 H 436.233 -2.17252 -6.73949 0
M  V30 4732 H 436.641 -0.876154 -5.57659 0
M  V30 4733 N 436.039 1.36541 -0.78704 0
M  V30 4734 C 436.986 2.30082 -0.181901 0
M  V30 4735 C 437.956 1.5186 0.672896 0
M  V30 4736 O 439.141 1.80374 0.622072 0
M  V30 4737 C 436.281 3.3835 0.679197 0
M  V30 4738 C 435.394 4.31565 -0.193882 0
M  V30 4739 C 434.529 5.26915 0.673364 0
M  V30 4740 C 433.568 6.11769 -0.201315 0
M  V30 4741 N 432.705 6.99315 0.624777 0
M  V30 4742 H 437.545 2.81248 -0.985064 0
M  V30 4743 H 435.082 1.38437 -0.497342 0
M  V30 4744 H 437.04 3.99767 1.19341 0
M  V30 4745 H 435.67 2.8851 1.44781 0
M  V30 4746 H 434.722 3.71323 -0.826044 0
M  V30 4747 H 436.034 4.91191 -0.867937 0
M  V30 4748 H 435.188 5.9361 1.25348 0
M  V30 4749 H 433.927 4.67737 1.38105 0
M  V30 4750 H 432.932 5.44039 -0.793849 0
M  V30 4751 H 434.157 6.73022 -0.906568 0
M  V30 4752 H 432.103 6.42648 1.3168 0
M  V30 4753 H 432.02 7.56 0.00835237 0
M  V30 4754 H 433.288 7.70382 1.18879 0
M  V30 4755 N 437.518 0.538854 1.48102 0
M  V30 4756 C 438.929 0.100679 1.86428 0
M  V30 4757 C 439.28 -1.32447 1.44749 0
M  V30 4758 O 438.405 -1.99339 0.842199 0
M  V30 4759 C 439 0.175933 3.38343 0
M  V30 4760 C 437.559 -0.207098 3.7583 0
M  V30 4761 C 436.706 0.531741 2.72154 0
M  V30 4762 H 439.657 0.749614 1.3988 0
M  V30 4763 H 439.678 -0.610144 3.75576 0
M  V30 4764 H 439.19 1.21328 3.68648 0
M  V30 4765 H 437.291 -1.24626 3.5114 0
M  V30 4766 H 437.404 0.138687 4.78899 0
M  V30 4767 H 435.768 -0.0230462 2.5469 0
M  V30 4768 H 436.551 1.56989 3.05302 0
M  V30 4769 N 438.996 -1.55193 0.274407 0
M  V30 4770 C 439.906 -2.26164 -0.623473 0
M  V30 4771 C 440.922 -1.28729 -1.17068 0
M  V30 4772 O 442.098 -1.61663 -1.20112 0
M  V30 4773 C 439.163 -2.96833 -1.7914 0
M  V30 4774 C 438.224 -4.09745 -1.28093 0
M  V30 4775 C 437.457 -4.77034 -2.3932 0
M  V30 4776 O 437.68 -4.4353 -3.5866 0
M  V30 4777 O 436.614 -5.64996 -2.07516 0
M  V30 4778 H 440.44 -3.03661 -0.0485661 0
M  V30 4779 H 438.025 -1.49341 0.0418382 0
M  V30 4780 H 439.907 -3.41248 -2.4724 0
M  V30 4781 H 438.582 -2.22253 -2.35341 0
M  V30 4782 H 437.489 -3.69787 -0.566416 0
M  V30 4783 H 438.822 -4.86224 -0.764683 0
M  V30 4784 N 440.474 -0.00167713 -1.576 0
M  V30 4785 C 441.704 0.692754 -1.94639 0
M  V30 4786 C 442.112 1.67744 -0.87513 0
M  V30 4787 O 441.455 1.8305 0.154382 0
M  V30 4788 C 441.517 1.47881 -3.27676 0
M  V30 4789 C 441.181 0.655518 -4.52274 0
M  V30 4790 C 442.178 -0.0575214 -5.19868 0
M  V30 4791 C 439.863 0.600994 -4.98692 0
M  V30 4792 C 441.857 -0.814052 -6.3218 0
M  V30 4793 C 439.544 -0.15926 -6.10892 0
M  V30 4794 C 440.542 -0.865515 -6.77494 0
M  V30 4795 O 440.23 -1.61336 -7.87544 0
M  V30 4796 H 439.962 0.197792 -0.646417 0
M  V30 4797 H 442.516 -0.049423 -2.05341 0
M  V30 4798 H 440.746 2.2655 -3.13388 0
M  V30 4799 H 442.435 2.05874 -3.49816 0
M  V30 4800 H 443.201 -0.0245611 -4.84994 0
M  V30 4801 H 439.08 1.14025 -4.46676 0
M  V30 4802 H 442.624 -1.36584 -6.84098 0
M  V30 4803 H 438.521 -0.194035 -6.45208 0
M  V30 4804 H 439.289 -1.53025 -8.04068 0
M  V30 4805 N 441.952 1.55251 0.271103 0
M  V30 4806 C 443.198 1.76207 1.00394 0
M  V30 4807 C 443.531 0.562604 1.85872 0
M  V30 4808 O 442.806 -0.439785 1.89463 0
M  V30 4809 C 443.089 3.06828 1.8849 0
M  V30 4810 C 442.942 4.37134 1.05992 0
M  V30 4811 C 444.261 3.33503 2.87165 0
M  V30 4812 H 441.38 0.641086 0.363562 0
M  V30 4813 H 444.022 1.87982 0.276189 0
M  V30 4814 H 442.172 2.96921 2.5054 0
M  V30 4815 H 443.844 4.59001 0.459978 0
M  V30 4816 H 442.087 4.32275 0.363443 0
M  V30 4817 H 442.758 5.2486 1.70955 0
M  V30 4818 H 445.234 3.43215 2.3525 0
M  V30 4819 H 444.11 4.2616 3.45946 0
M  V30 4820 H 444.371 2.53235 3.62387 0
M  V30 4821 N 443.43 -0.535701 1.48216 0
M  V30 4822 C 444.393 -1.623 1.61838 0
M  V30 4823 C 445.393 -1.53087 0.492024 0
M  V30 4824 O 446.583 -1.5686 0.757668 0
M  V30 4825 C 443.715 -3.01907 1.58319 0
M  V30 4826 H 444.908 -1.51564 2.58783 0
M  V30 4827 H 442.461 -0.757317 1.36727 0
M  V30 4828 H 443.196 -3.18155 0.628299 0
M  V30 4829 H 442.981 -3.10003 2.40085 0
M  V30 4830 H 444.471 -3.80969 1.71033 0
M  V30 4831 N 444.908 -1.36708 -0.784132 0
M  V30 4832 C 445.871 -1.31307 -1.87859 0
M  V30 4833 C 446.871 -0.219654 -1.59293 0
M  V30 4834 O 448.061 -0.47476 -1.67606 0
M  V30 4835 C 445.193 -1.03679 -3.24751 0
M  V30 4836 H 446.386 -2.28647 -1.94064 0
M  V30 4837 H 443.939 -1.21558 -0.98252 0
M  V30 4838 H 444.674 -0.0681936 -3.24228 0
M  V30 4839 H 444.459 -1.82811 -3.46876 0
M  V30 4840 H 445.949 -1.02518 -4.04821 0
M  V30 4841 N 446.386 1.0089 -1.21074 0
M  V30 4842 C 447.611 1.78727 -1.05221 0
M  V30 4843 C 448.036 1.83932 0.393795 0
M  V30 4844 O 447.394 1.28004 1.28393 0
M  V30 4845 C 447.442 3.20665 -1.64944 0
M  V30 4846 O 446.546 4.02632 -0.892273 0
M  V30 4847 H 445.887 0.550973 -0.370574 0
M  V30 4848 H 448.417 1.26847 -1.60534 0
M  V30 4849 H 448.427 3.71352 -1.69002 0
M  V30 4850 H 447.102 3.16191 -2.70177 0
M  V30 4851 H 445.679 3.61207 -0.926492 0
M  V30 4852 N 447.864 1.01787 1.20321 0
M  V30 4853 C 448.827 0.593972 2.2137 0
M  V30 4854 C 449.827 -0.336553 1.57239 0
M  V30 4855 O 451.017 -0.125069 1.7375 0
M  V30 4856 C 448.149 -0.132433 3.40643 0
M  V30 4857 H 449.342 1.48791 2.60387 0
M  V30 4858 H 446.895 0.807803 1.33807 0
M  V30 4859 H 447.63 -1.04123 3.0713 0
M  V30 4860 H 447.415 0.53605 3.88418 0
M  V30 4861 H 448.905 -0.416314 4.1552 0
M  V30 4862 N 449.342 -1.36122 0.79427 0
M  V30 4863 C 450.589 -1.99111 0.368905 0
M  V30 4864 C 450.917 -1.63032 -1.0607 0
M  V30 4865 O 450.172 -0.879303 -1.74833 0
M  V30 4866 C 450.471 -3.5409 0.48527 0
M  V30 4867 C 450.137 -4.10003 1.87638 0
M  V30 4868 C 448.799 -4.24986 2.257 0
M  V30 4869 C 451.151 -4.40423 2.78706 0
M  V30 4870 C 448.479 -4.67701 3.54221 0
M  V30 4871 C 450.831 -4.84573 4.0666 0
M  V30 4872 C 449.495 -4.97761 4.44737 0
M  V30 4873 H 448.765 -0.7286 0.134992 0
M  V30 4874 H 451.412 -1.62534 1.01267 0
M  V30 4875 H 449.717 -3.91052 -0.241984 0
M  V30 4876 H 451.414 -4.00766 0.137109 0
M  V30 4877 H 448.004 -3.98784 1.57064 0
M  V30 4878 H 452.188 -4.28412 2.50553 0
M  V30 4879 H 447.444 -4.761 3.83587 0
M  V30 4880 H 451.618 -5.07074 4.77336 0
M  V30 4881 H 449.245 -5.30618 5.44379 0
M  V30 4882 N 450.82 -0.546701 -1.47814 0
M  V30 4883 C 452.236 -0.205717 -1.58269 0
M  V30 4884 C 452.436 1.29153 -1.54667 0
M  V30 4885 O 451.492 2.07098 -1.44453 0
M  V30 4886 C 452.805 -0.823065 -2.89216 0
M  V30 4887 C 454.353 -0.793328 -3.02779 0
M  V30 4888 C 454.828 -1.38955 -4.36412 0
M  V30 4889 N 456.319 -1.35227 -4.43021 0
M  V30 4890 C 457.054 -1.78333 -5.44963 0
M  V30 4891 N 456.55 -2.29246 -6.53772 0
M  V30 4892 N 458.343 -1.69467 -5.35945 0
M  V30 4893 H 450.494 -1.5196 -1.48398 0
M  V30 4894 H 452.757 -0.633078 -0.705632 0
M  V30 4895 H 452.463 -1.8749 -2.97558 0
M  V30 4896 H 452.337 -0.309915 -3.75925 0
M  V30 4897 H 454.724 0.249784 -2.94041 0
M  V30 4898 H 454.805 -1.34412 -2.17639 0
M  V30 4899 H 454.449 -2.43168 -4.45906 0
M  V30 4900 H 454.379 -0.814291 -5.20266 0
M  V30 4901 H 456.87 -0.979739 -3.64979 0
M  V30 4902 H 457.183 -2.60089 -7.27718 0
M  V30 4903 H 455.528 -2.3325 -6.5469 0
M  V30 4904 H 458.719 -1.29477 -4.49837 0
M  V30 4905 H 458.892 -2.03381 -6.15256 0
M  V30 4906 N 452.299 1.55045 -0.282633 0
M  V30 4907 C 453.546 1.9976 0.33199 0
M  V30 4908 C 453.874 1.17105 1.55295 0
M  V30 4909 O 453.129 0.230599 1.94337 0
M  V30 4910 C 453.428 3.49422 0.750938 0
M  V30 4911 C 453.094 4.4941 -0.366228 0
M  V30 4912 C 451.756 4.76471 -0.672964 0
M  V30 4913 C 454.108 5.09054 -1.11864 0
M  V30 4914 C 451.436 5.60442 -1.73556 0
M  V30 4915 C 453.788 5.9418 -2.17102 0
M  V30 4916 C 452.452 6.19558 -2.48402 0
M  V30 4917 H 451.722 0.730974 0.121484 0
M  V30 4918 H 454.369 1.8732 -0.39791 0
M  V30 4919 H 452.674 3.59377 1.56063 0
M  V30 4920 H 454.371 3.81432 1.23736 0
M  V30 4921 H 450.961 4.2844 -0.117041 0
M  V30 4922 H 455.145 4.88165 -0.894925 0
M  V30 4923 H 450.401 5.78349 -1.983 0
M  V30 4924 H 454.575 6.39427 -2.75873 0
M  V30 4925 H 452.202 6.84417 -3.30874 0
M  V30 4926 N 453.777 0.010035 1.57597 0
M  V30 4927 C 454.707 -0.976857 2.12084 0
M  V30 4928 C 455.688 -1.35191 1.03235 0
M  V30 4929 O 456.873 -1.43389 1.3097 0
M  V30 4930 C 454.003 -2.26548 2.63236 0
M  V30 4931 C 452.957 -2.03175 3.76701 0
M  V30 4932 C 452.283 -3.38138 4.14206 0
M  V30 4933 C 453.583 -1.38625 5.03568 0
M  V30 4934 H 455.277 -0.523145 2.94794 0
M  V30 4935 H 452.823 -0.250195 1.4181 0
M  V30 4936 H 454.776 -2.95952 2.99984 0
M  V30 4937 H 453.5 -2.74051 1.77661 0
M  V30 4938 H 452.159 -1.36195 3.40362 0
M  V30 4939 H 451.807 -3.83363 3.25641 0
M  V30 4940 H 451.507 -3.23312 4.90656 0
M  V30 4941 H 453.031 -4.08841 4.53521 0
M  V30 4942 H 454.445 -1.98 5.38023 0
M  V30 4943 H 452.842 -1.34256 5.84889 0
M  V30 4944 H 453.912 -0.356722 4.83586 0
M  V30 4945 N 455.255 -1.55392 -0.262866 0
M  V30 4946 C 456.532 -1.67204 -1.01499 0
M  V30 4947 C 456.912 -0.545186 -2.03939 0
M  V30 4948 O 456.26 0.453467 -2.23955 0
M  V30 4949 C 456.47 -3.06847 -1.6627 0
M  V30 4950 C 457.818 -3.64928 -2.17054 0
M  V30 4951 O 458.842 -3.09545 -1.76239 0
M  V30 4952 O 457.701 -4.61984 -2.91947 0
M  V30 4953 H 454.795 -0.679467 -0.471438 0
M  V30 4954 H 457.341 -1.67729 -0.257918 0
M  V30 4955 H 456.113 -3.80309 -0.920915 0
M  V30 4956 H 455.736 -3.10266 -2.48638 0
M  V30 4957 N 456.733 0.527833 -1.48498 0
M  V30 4958 C 457.681 1.65313 -1.63628 0
M  V30 4959 C 458.675 1.6177 -0.502676 0
M  V30 4960 O 459.881 1.66601 -0.681469 0
M  V30 4961 H 456.256 0.547518 -0.515488 0
M  V30 4962 H 458.227 1.49696 -2.58135 0
M  V30 4963 C 456.976 3.03576 -1.6952 0
M  V30 4964 H 456.299 3.06997 -2.56111 0
M  V30 4965 H 457.739 3.81923 -1.84149 0
M  V30 4966 C 456.198 3.34089 -0.43432 0
M  V30 4967 O 456.728 3.99151 0.451852 0
M  V30 4968 N 454.934 2.88991 -0.305368 0
M  V30 4969 H 454.481 2.36222 -1.02747 0
M  V30 4970 H 454.439 3.09776 0.537249 0
M  V30 4971 N 458.211 1.37122 0.776871 0
M  V30 4972 C 459.159 1.32549 1.91138 0
M  V30 4973 C 460.153 0.215119 1.68029 0
M  V30 4974 O 461.359 0.382852 1.75881 0
M  V30 4975 H 457.734 0.412952 0.62847 0
M  V30 4976 H 459.705 2.28332 1.92112 0
M  V30 4977 C 458.454 1.14422 3.28333 0
M  V30 4978 H 457.777 1.99115 3.46689 0
M  V30 4979 H 459.217 1.15272 4.0803 0
M  V30 4980 C 457.676 -0.150434 3.36564 0
M  V30 4981 O 458.206 -1.13584 3.85307 0
M  V30 4982 N 456.412 -0.19939 2.89915 0
M  V30 4983 H 455.959 0.603142 2.5044 0
M  V30 4984 H 455.917 -1.06526 2.95803 0
M  V30 4985 N 459.689 -1.00246 1.21608 0
M  V30 4986 C 460.938 -1.73476 1.02902 0
M  V30 4987 C 461.251 -1.90643 -0.437561 0
M  V30 4988 O 462.457 -2.61105 -0.74407 0
M  V30 4989 C 460.913 -3.12079 1.79261 0
M  V30 4990 C 460.521 -3.02877 3.30106 0
M  V30 4991 C 462.265 -3.89421 1.68972 0
M  V30 4992 C 460.172 -4.36575 3.98944 0
M  V30 4993 H 459.102 -0.650408 0.381425 0
M  V30 4994 H 461.753 -1.11985 1.45367 0
M  V30 4995 H 460.135 -3.74196 1.2959 0
M  V30 4996 H 461.309 -2.49983 3.87098 0
M  V30 4997 H 459.624 -2.39022 3.40965 0
M  V30 4998 H 462.221 -4.88362 2.17731 0
M  V30 4999 H 462.564 -4.1122 0.648397 0
M  V30 5000 H 463.097 -3.33963 2.16133 0
M  V30 5001 H 459.836 -4.19978 5.03288 0
M  V30 5002 H 459.356 -4.8942 3.4674 0
M  V30 5003 H 461.035 -5.05364 4.04 0
M  V30 5004 N 461.167 -1.02423 -1.1978 0
M  V30 5005 C 462.392 -0.7373 -1.93852 0
M  V30 5006 C 462.817 0.696923 -1.74713 0
M  V30 5007 O 462.175 1.48056 -1.04638 0
M  V30 5008 C 462.223 -1.08783 -3.438 0
M  V30 5009 O 461.327 -0.20383 -4.11896 0
M  V30 5010 H 460.668 -0.27284 -0.605355 0
M  V30 5011 H 463.198 -1.36966 -1.51992 0
M  V30 5012 H 463.208 -1.04276 -3.9445 0
M  V30 5013 H 461.883 -2.13274 -3.57053 0
M  V30 5014 H 460.46 -0.307091 -3.71633 0
M  V30 5015 N 462.645 1.35699 -0.801477 0
M  V30 5016 C 463.555 2.33661 -0.209691 0
M  V30 5017 C 464.571 1.6162 0.644591 0
M  V30 5018 O 465.747 1.93529 0.557545 0
M  V30 5019 C 462.812 3.40816 0.636033 0
M  V30 5020 C 461.873 4.28639 -0.238147 0
M  V30 5021 C 461.106 5.30676 0.567307 0
M  V30 5022 O 461.329 5.41174 1.8024 0
M  V30 5023 O 460.263 6.01887 -0.0391336 0
M  V30 5024 H 464.089 2.8606 -1.01996 0
M  V30 5025 H 461.674 1.38379 -0.563164 0
M  V30 5026 H 463.556 4.06301 1.11791 0
M  V30 5027 H 462.231 2.90696 1.42399 0
M  V30 5028 H 461.138 3.66152 -0.767044 0
M  V30 5029 H 462.471 4.82143 -0.989915 0
M  V30 5030 N 464.123 0.554532 1.47522 0
M  V30 5031 C 465.033 -0.197865 2.33764 0
M  V30 5032 C 466.049 -0.914576 1.48025 0
M  V30 5033 O 467.225 -0.884067 1.80959 0
M  V30 5034 C 464.29 -1.21628 3.24665 0
M  V30 5035 C 463.351 -0.507283 4.26292 0
M  V30 5036 C 462.584 -1.47718 5.1285 0
M  V30 5037 O 462.807 -2.7118 5.01814 0
M  V30 5038 O 461.741 -1.00313 5.93482 0
M  V30 5039 H 465.567 0.50949 2.99396 0
M  V30 5040 H 463.152 0.315176 1.46038 0
M  V30 5041 H 465.034 -1.80421 3.80823 0
M  V30 5042 H 463.709 -1.9056 2.61665 0
M  V30 5043 H 462.616 0.121778 3.73902 0
M  V30 5044 H 463.949 0.140544 4.91999 0
M  V30 5045 N 465.601 -1.54893 0.290851 0
M  V30 5046 C 466.548 -2.23138 -0.58974 0
M  V30 5047 C 467.518 -1.21036 -1.13752 0
M  V30 5048 O 468.703 -1.49626 -1.18392 0
M  V30 5049 C 465.843 -2.96811 -1.76061 0
M  V30 5050 C 464.956 -4.13665 -1.24519 0
M  V30 5051 C 464.091 -4.74944 -2.3791 0
M  V30 5052 C 463.13 -5.83963 -1.83451 0
M  V30 5053 N 462.267 -6.39239 -2.90376 0
M  V30 5054 H 467.107 -2.98 -0.00114915 0
M  V30 5055 H 464.644 -1.47096 0.0112006 0
M  V30 5056 H 466.602 -3.37751 -2.44909 0
M  V30 5057 H 465.232 -2.24344 -2.32098 0
M  V30 5058 H 464.284 -3.77737 -0.449288 0
M  V30 5059 H 465.596 -4.92238 -0.806424 0
M  V30 5060 H 464.75 -5.18684 -3.14724 0
M  V30 5061 H 463.489 -3.95682 -2.85109 0
M  V30 5062 H 462.494 -5.39657 -1.05122 0
M  V30 5063 H 463.719 -6.65103 -1.37169 0
M  V30 5064 H 461.665 -5.62864 -3.36927 0
M  V30 5065 H 461.582 -7.13129 -2.50965 0
M  V30 5066 H 462.85 -6.87637 -3.67118 0
M  V30 5067 N 467.08 -0.0183926 -1.57589 0
M  V30 5068 C 468.329 0.66185 -1.90532 0
M  V30 5069 C 468.642 1.73904 -0.895366 0
M  V30 5070 O 469.848 2.47518 -1.11566 0
M  V30 5071 C 468.304 1.22844 -3.38286 0
M  V30 5072 C 467.912 0.185103 -4.47617 0
M  V30 5073 C 469.656 1.88581 -3.80312 0
M  V30 5074 C 467.563 0.762723 -5.86461 0
M  V30 5075 H 466.493 0.250972 -0.711006 0
M  V30 5076 H 469.144 -0.0819435 -1.83317 0
M  V30 5077 H 467.526 2.0235 -3.40398 0
M  V30 5078 H 468.7 -0.58671 -4.5705 0
M  V30 5079 H 467.015 -0.372889 -4.14727 0
M  V30 5080 H 469.612 2.32735 -4.81392 0
M  V30 5081 H 469.955 2.72408 -3.14801 0
M  V30 5082 H 470.488 1.15782 -3.80578 0
M  V30 5083 H 467.227 -0.0371713 -6.55489 0
M  V30 5084 H 466.747 1.50327 -5.80656 0
M  V30 5085 H 468.426 1.25576 -6.34697 0
M  V30 5086 N 468.558 1.5553 0.254621 0
M  V30 5087 C 469.786 1.81046 1.00149 0
M  V30 5088 C 470.201 0.593047 1.79244 0
M  V30 5089 O 469.558 -0.438196 1.77161 0
M  V30 5090 C 469.609 3.04684 1.94551 0
M  V30 5091 O 469.33 4.21725 1.18658 0
M  V30 5092 C 470.831 3.42943 2.80901 0
M  V30 5093 H 468.051 0.602653 0.295044 0
M  V30 5094 H 470.595 2.02576 0.279842 0
M  V30 5095 H 468.75 2.85226 2.62154 0
M  V30 5096 H 469.164 4.91746 1.82445 0
M  V30 5097 H 470.638 4.32576 3.42902 0
M  V30 5098 H 471.115 2.63176 3.51617 0
M  V30 5099 H 471.721 3.64724 2.18762 0
M  V30 5100 N 470.036 -0.519951 1.48776 0
M  V30 5101 C 471.313 -1.28123 1.47797 0
M  V30 5102 C 471.693 -2.10196 0.195157 0
M  V30 5103 O 471.041 -2.13167 -0.822925 0
M  V30 5104 C 471.251 -2.15413 2.74587 0
M  V30 5105 C 472.599 -2.75225 3.23321 0
M  V30 5106 O 473.623 -2.25694 2.75574 0
M  V30 5107 O 472.482 -3.65346 4.06429 0
M  V30 5108 H 469.576 -0.578793 0.590701 0
M  V30 5109 H 472.122 -0.535779 1.6102 0
M  V30 5110 H 470.894 -1.54617 3.59457 0
M  V30 5111 H 470.517 -2.97186 2.64132 0
M  V30 5112 N 471.514 -1.37532 -0.769588 0
M  V30 5113 C 472.763 -1.32183 -1.5235 0
M  V30 5114 C 473.076 0.0906555 -1.9539 0
M  V30 5115 O 474.282 0.266628 -2.70188 0
M  V30 5116 C 472.738 -2.32029 -2.75119 0
M  V30 5117 C 472.346 -3.78816 -2.3917 0
M  V30 5118 C 474.09 -2.35694 -3.53056 0
M  V30 5119 C 471.997 -4.70388 -3.58453 0
M  V30 5120 H 470.927 -0.491275 -0.571984 0
M  V30 5121 H 473.578 -1.63004 -0.842739 0
M  V30 5122 H 471.96 -1.94229 -3.45096 0
M  V30 5123 H 473.134 -4.25466 -1.76962 0
M  V30 5124 H 471.449 -3.78117 -1.74402 0
M  V30 5125 H 474.046 -3.01312 -4.41718 0
M  V30 5126 H 474.389 -1.37117 -3.93071 0
M  V30 5127 H 474.922 -2.72212 -2.90078 0
M  V30 5128 H 471.661 -5.70102 -3.23518 0
M  V30 5129 H 471.181 -4.28442 -4.19758 0
M  V30 5130 H 472.86 -4.87628 -4.25239 0
M  V30 5131 N 472.992 0.995999 -1.22138 0
M  V30 5132 C 474.222 1.76809 -1.06874 0
M  V30 5133 C 474.63 1.85265 0.383866 0
M  V30 5134 O 473.973 1.31969 1.27789 0
M  V30 5135 C 474.035 3.2186 -1.60144 0
M  V30 5136 C 473.699 3.36958 -3.0872 0
M  V30 5137 C 474.696 3.2452 -4.0618 0
M  V30 5138 C 472.381 3.62109 -3.48112 0
M  V30 5139 C 474.375 3.37013 -5.41019 0
M  V30 5140 C 472.062 3.74243 -4.831 0
M  V30 5141 C 473.06 3.61702 -5.79362 0
M  V30 5142 O 472.748 3.73436 -7.119 0
M  V30 5143 H 472.48 0.562207 -0.375365 0
M  V30 5144 H 475.034 1.26113 -1.62125 0
M  V30 5145 H 473.264 3.73734 -0.992981 0
M  V30 5146 H 474.953 3.80775 -1.40589 0
M  V30 5147 H 475.719 3.05004 -3.77091 0
M  V30 5148 H 471.598 3.70949 -2.73712 0
M  V30 5149 H 475.142 3.27141 -6.16137 0
M  V30 5150 H 471.039 3.93266 -5.11872 0
M  V30 5151 H 471.807 3.90328 -7.19435 0
M  V30 5152 N 474.47 1.03057 1.19235 0
M  V30 5153 C 475.418 0.606391 2.24557 0
M  V30 5154 C 476.412 -0.361826 1.65491 0
M  V30 5155 O 477.618 -0.23022 1.78522 0
M  V30 5156 H 473.993 0.177838 0.730669 0
M  V30 5157 H 475.964 1.50529 2.5765 0
M  V30 5158 C 474.713 -0.0252127 3.47691 0
M  V30 5159 H 474.036 0.710838 3.9343 0
M  V30 5160 H 475.476 -0.284931 4.23042 0
M  V30 5161 C 473.935 -1.27229 3.11953 0
M  V30 5162 O 474.465 -2.36416 3.24762 0
M  V30 5163 N 472.671 -1.16169 2.6637 0
M  V30 5164 H 472.218 -0.273189 2.56147 0
M  V30 5165 H 472.176 -1.99703 2.42829 0
M  V30 5166 N 475.948 -1.35272 0.808662 0
M  V30 5167 C 477.364 -1.51806 0.492653 0
M  V30 5168 C 477.564 -1.7574 -0.985778 0
M  V30 5169 O 476.62 -1.80003 -1.77074 0
M  V30 5170 C 477.933 -2.69202 1.33981 0
M  V30 5171 C 479.481 -2.8308 1.33547 0
M  V30 5172 C 479.956 -4.03502 2.16679 0
M  V30 5173 N 481.447 -4.10684 2.14227 0
M  V30 5174 C 482.182 -5.02984 2.75308 0
M  V30 5175 N 481.678 -6.00603 3.45323 0
M  V30 5176 N 483.471 -4.95746 2.64938 0
M  V30 5177 H 475.622 -1.17993 1.76611 0
M  V30 5178 H 477.885 -0.577476 0.751814 0
M  V30 5179 H 477.591 -2.581 2.38909 0
M  V30 5180 H 477.465 -3.63854 0.994491 0
M  V30 5181 H 479.852 -2.93631 0.294036 0
M  V30 5182 H 479.933 -1.89278 1.72068 0
M  V30 5183 H 479.577 -3.93711 3.20864 0
M  V30 5184 H 479.507 -4.96489 1.75517 0
M  V30 5185 H 481.998 -3.40802 1.63285 0
M  V30 5186 H 482.311 -6.67633 3.89212 0
M  V30 5187 H 480.656 -6.0077 3.49428 0
M  V30 5188 H 483.847 -4.18439 2.09825 0
M  V30 5189 H 484.02 -5.67487 3.12829 0
M  V30 5190 N 477.426 -0.562348 -1.47226 0
M  V30 5191 C 478.675 -0.038041 -2.01664 0
M  V30 5192 C 478.988 1.32199 -1.44162 0
M  V30 5193 O 480.194 1.9365 -1.90294 0
M  V30 5194 C 478.65 -0.0174958 -3.59896 0
M  V30 5195 C 478.258 -1.3746 -4.2639 0
M  V30 5196 C 480.002 0.453934 -4.22066 0
M  V30 5197 C 477.909 -1.31289 -5.76643 0
M  V30 5198 H 476.839 -0.0104511 -0.753928 0
M  V30 5199 H 479.49 -0.710966 -1.69167 0
M  V30 5200 H 477.872 0.721182 -3.89378 0
M  V30 5201 H 479.046 -2.1314 -4.08544 0
M  V30 5202 H 477.361 -1.78438 -3.7623 0
M  V30 5203 H 479.958 0.518584 -5.32179 0
M  V30 5204 H 480.301 1.46706 -3.89594 0
M  V30 5205 H 480.834 -0.230044 -3.97134 0
M  V30 5206 H 477.573 -2.30217 -6.13743 0
M  V30 5207 H 477.093 -0.597973 -5.96812 0
M  V30 5208 H 478.772 -1.01713 -6.38955 0
M  V30 5209 N 478.904 1.54736 -0.299062 0
M  V30 5210 C 479.834 2.26409 0.571085 0
M  V30 5211 C 480.815 1.2629 1.13951 0
M  V30 5212 O 482 1.55059 1.16921 0
M  V30 5213 C 479.13 3.00338 1.74396 0
M  V30 5214 C 478.084 4.07588 1.30599 0
M  V30 5215 C 477.41 4.69222 2.56387 0
M  V30 5216 C 478.71 5.20455 0.438645 0
M  V30 5217 H 480.404 2.99388 -0.0266991 0
M  V30 5218 H 477.95 1.43993 -0.0142812 0
M  V30 5219 H 479.903 3.49198 2.35878 0
M  V30 5220 H 478.627 2.24934 2.36796 0
M  V30 5221 H 477.286 3.59575 0.71424 0
M  V30 5222 H 476.934 3.9046 3.17097 0
M  V30 5223 H 476.634 5.41653 2.27784 0
M  V30 5224 H 478.158 5.20844 3.18675 0
M  V30 5225 H 479.572 5.65221 0.959085 0
M  V30 5226 H 477.969 5.99594 0.246466 0
M  V30 5227 H 479.039 4.8192 -0.536738 0
M  V30 5228 N 480.382 0.0267497 1.57577 0
M  V30 5229 C 481.33 -0.973923 2.11229 0
M  V30 5230 C 482.324 -1.33849 1.03831 0
M  V30 5231 O 483.53 -1.321 1.22269 0
M  V30 5232 H 479.905 -0.331844 0.674821 0
M  V30 5233 H 481.876 -0.496092 2.94247 0
M  V30 5234 C 480.625 -2.24798 2.65257 0
M  V30 5235 H 479.948 -1.9762 3.47543 0
M  V30 5236 H 481.388 -2.93031 3.06445 0
M  V30 5237 C 479.847 -2.97611 1.57891 0
M  V30 5238 O 480.377 -3.89629 0.97735 0
M  V30 5239 N 478.583 -2.59905 1.29992 0
M  V30 5240 H 478.13 -1.85154 1.79097 0
M  V30 5241 H 478.088 -3.08932 0.583798 0
M  V30 5242 N 481.861 -1.55662 -0.24637 0
M  V30 5243 C 483.109 -1.77168 -0.972411 0
M  V30 5244 C 483.43 -0.590827 -1.85834 0
M  V30 5245 O 482.7 0.393365 -1.9191 0
M  V30 5246 H 481.28 -0.653405 -0.362038 0
M  V30 5247 H 483.942 -1.93101 -0.264189 0
M  V30 5248 H 483.038 -2.68335 -1.59382 0
M  V30 5249 N 483.339 0.512053 -1.4905 0
M  V30 5250 C 484.249 1.64139 -1.67617 0
M  V30 5251 C 485.265 1.64786 -0.558701 0
M  V30 5252 O 486.441 1.8341 -0.832034 0
M  V30 5253 C 483.506 3.00548 -1.72835 0
M  V30 5254 C 482.567 3.10615 -2.96339 0
M  V30 5255 C 481.8 4.40517 -3.01298 0
M  V30 5256 O 482.023 5.28671 -2.14157 0
M  V30 5257 O 480.957 4.55325 -3.93653 0
M  V30 5258 H 484.783 1.51407 -2.63267 0
M  V30 5259 H 482.368 0.687131 -1.32661 0
M  V30 5260 H 484.25 3.81641 -1.78683 0
M  V30 5261 H 482.925 3.13566 -0.803616 0
M  V30 5262 H 481.832 2.2875 -2.96014 0
M  V30 5263 H 483.165 3.0252 -3.88256 0
M  V30 5264 N 484.817 1.37938 0.762283 0
M  V30 5265 C 486.042 1.37059 1.55659 0
M  V30 5266 C 486.467 -0.0396123 1.88058 0
M  V30 5267 O 485.825 -1.01929 1.49934 0
M  V30 5268 C 485.873 2.22494 2.83776 0
M  V30 5269 O 484.977 1.63607 3.78559 0
M  V30 5270 H 484.318 0.467892 0.47114 0
M  V30 5271 H 486.848 1.81587 0.942725 0
M  V30 5272 H 486.858 2.36045 3.32786 0
M  V30 5273 H 485.533 3.24993 2.59524 0
M  V30 5274 H 484.11 1.5915 3.37233 0
M  V30 5275 N 486.295 -0.989507 1.22664 0
M  V30 5276 C 487.225 -2.09847 1.02404 0
M  V30 5277 C 488.206 -1.70007 -0.0561303 0
M  V30 5278 O 489.391 -1.93906 0.106748 0
M  V30 5279 C 486.521 -3.41996 0.604663 0
M  V30 5280 C 485.475 -3.95699 1.63115 0
M  V30 5281 C 484.801 -5.23936 1.0675 0
M  V30 5282 C 486.101 -4.25999 3.02196 0
M  V30 5283 H 487.795 -2.27054 1.95158 0
M  V30 5284 H 485.341 -1.09111 0.939727 0
M  V30 5285 H 487.294 -4.1899 0.45002 0
M  V30 5286 H 486.018 -3.24626 -0.35855 0
M  V30 5287 H 484.677 -3.2084 1.77362 0
M  V30 5288 H 484.325 -5.02909 0.0955422 0
M  V30 5289 H 484.025 -5.60833 1.75328 0
M  V30 5290 H 485.549 -6.0356 0.924516 0
M  V30 5291 H 486.963 -4.93777 2.91303 0
M  V30 5292 H 485.36 -4.74076 3.67929 0
M  V30 5293 H 486.43 -3.33636 3.51873 0
M  V30 5294 N 487.773 -1.03688 -1.18687 0
M  V30 5295 C 489.05 -0.652397 -1.84399 0
M  V30 5296 C 489.43 0.868386 -1.92412 0
M  V30 5297 O 488.778 1.76832 -1.44716 0
M  V30 5298 C 488.988 -1.3238 -3.22919 0
M  V30 5299 C 490.336 -1.45216 -3.98996 0
M  V30 5300 O 491.36 -1.2816 -3.32345 0
M  V30 5301 O 490.219 -1.72975 -5.18403 0
M  V30 5302 H 487.313 -0.227793 -0.795009 0
M  V30 5303 H 489.859 -1.13553 -1.2611 0
M  V30 5304 H 488.631 -2.36202 -3.11968 0
M  V30 5305 H 488.254 -0.829039 -3.88861 0
M  V30 5306 N 489.251 1.34841 -0.815825 0
M  V30 5307 C 490.181 2.32187 -0.247298 0
M  V30 5308 C 491.162 1.5791 0.632344 0
M  V30 5309 O 492.347 1.8593 0.560698 0
M  V30 5310 C 489.477 3.42122 0.597466 0
M  V30 5311 C 488.431 4.27602 -0.184446 0
M  V30 5312 C 487.757 5.28942 0.782609 0
M  V30 5313 C 489.057 5.03502 -1.38865 0
M  V30 5314 H 490.751 2.79985 -1.06061 0
M  V30 5315 H 488.297 1.34611 -0.511461 0
M  V30 5316 H 490.25 4.09232 1.00533 0
M  V30 5317 H 488.974 2.92956 1.44376 0
M  V30 5318 H 487.633 3.62085 -0.573592 0
M  V30 5319 H 487.281 4.7604 1.62466 0
M  V30 5320 H 486.981 5.87008 0.263695 0
M  V30 5321 H 488.505 5.98922 1.18848 0
M  V30 5322 H 489.919 5.63506 -1.05518 0
M  V30 5323 H 488.316 5.71108 -1.8427 0
M  V30 5324 H 489.386 4.33608 -2.17054 0
M  V30 5325 N 490.729 0.570148 1.46925 0
M  V30 5326 C 491.677 -0.183181 2.31878 0
M  V30 5327 C 492.671 -0.896721 1.43719 0
M  V30 5328 O 493.877 -0.816536 1.60414 0
M  V30 5329 H 490.252 -0.077944 0.74795 0
M  V30 5330 H 492.223 0.552312 2.93244 0
M  V30 5331 C 490.972 -1.19172 3.2664 0
M  V30 5332 H 490.295 -0.652088 3.94446 0
M  V30 5333 H 491.735 -1.68946 3.88887 0
M  V30 5334 C 490.194 -2.24627 2.51086 0
M  V30 5335 O 490.724 -3.31773 2.26472 0
M  V30 5336 N 488.93 -1.98898 2.11867 0
M  V30 5337 H 488.477 -1.11777 2.32086 0
M  V30 5338 H 488.435 -2.6967 1.61634 0
M  V30 5339 N 492.207 -1.54576 0.307264 0
M  V30 5340 C 493.432 -2.05139 -0.305379 0
M  V30 5341 C 493.857 -1.18278 -1.46259 0
M  V30 5342 O 493.215 -0.188243 -1.8032 0
M  V30 5343 C 493.263 -3.53066 -0.733283 0
M  V30 5344 O 492.367 -3.69206 -1.83741 0
M  V30 5345 H 491.708 -0.661444 -0.0582105 0
M  V30 5346 H 494.238 -1.99569 0.450931 0
M  V30 5347 H 494.248 -3.95034 -1.02039 0
M  V30 5348 H 492.923 -4.15746 0.113198 0
M  V30 5349 H 491.5 -3.39143 -1.55037 0
M  V30 5350 N 493.685 -0.035106 -1.57561 0
M  V30 5351 C 494.934 0.641604 -1.91223 0
M  V30 5352 C 495.247 1.72944 -0.913761 0
M  V30 5353 O 496.453 2.46321 -1.14185 0
M  V30 5354 C 494.909 1.19249 -3.3957 0
M  V30 5355 C 494.517 0.137616 -4.47789 0
M  V30 5356 C 496.261 1.84537 -3.82291 0
M  V30 5357 C 494.168 0.700478 -5.87237 0
M  V30 5358 H 493.098 0.243417 -0.713627 0
M  V30 5359 H 495.749 -0.101382 -1.8322 0
M  V30 5360 H 494.131 1.98728 -3.42525 0
M  V30 5361 H 495.305 -0.635153 -4.56402 0
M  V30 5362 H 493.62 -0.416855 -4.14308 0
M  V30 5363 H 496.217 2.27616 -4.83834 0
M  V30 5364 H 496.56 2.69054 -3.17672 0
M  V30 5365 H 497.093 1.11739 -3.81784 0
M  V30 5366 H 493.832 -0.106693 -6.55413 0
M  V30 5367 H 493.352 1.4416 -5.82218 0
M  V30 5368 H 495.031 1.18837 -6.35993 0
M  V30 5369 N 495.163 1.55791 0.238111 0
M  V30 5370 C 496.412 1.77234 0.962868 0
M  V30 5371 C 496.725 0.600661 1.86149 0
M  V30 5372 O 497.931 0.698315 2.62366 0
M  V30 5373 C 496.387 3.13808 1.76218 0
M  V30 5374 C 495.995 4.3865 0.910518 0
M  V30 5375 C 497.739 3.44585 2.47914 0
M  V30 5376 C 495.646 5.66252 1.70623 0
M  V30 5377 H 494.576 0.660731 0.36325 0
M  V30 5378 H 497.227 1.8221 0.217242 0
M  V30 5379 H 495.609 3.02963 2.55009 0
M  V30 5380 H 496.783 4.60507 0.164316 0
M  V30 5381 H 495.098 4.15271 0.30647 0
M  V30 5382 H 497.695 4.3714 3.07917 0
M  V30 5383 H 498.038 2.66314 3.19973 0
M  V30 5384 H 498.571 3.56685 1.76127 0
M  V30 5385 H 495.31 6.47369 1.02923 0
M  V30 5386 H 494.83 5.48483 2.42748 0
M  V30 5387 H 496.509 6.05829 2.27114 0
M  V30 5388 O 496.68 -0.383686 1.56876 0
M  V30 5389 H 497.371 -1.03525 1.63714 0
M  V30 END ATOM
M  V30 BEGIN BOND
M  V30 END BOND
M  V30 END CTAB
M  END
$$$$
