drugbank_target|P00861 Diaminopimelate decarboxylase (DB03252; DB03814)
 OpenBabel12092120013D

  0  0  0     0  0            999 V3000
M  V30 BEGIN CTAB
M  V30 COUNTS 6444 6513 0 0 0
M  V30 BEGIN ATOM
M  V30 1 H -0.908 1.98254 -0.117106 0
M  V30 2 N 0 1.576 0 0
M  V30 3 C 0.933 2.03868 1.02534 0
M  V30 4 C 1.911 0.928543 1.3348 0
M  V30 5 O 3.095 1.19667 1.45644 0
M  V30 6 C 0.222 2.43627 2.35294 0
M  V30 7 C -0.732 3.65373 2.2001 0
M  V30 8 S 0.101 5.13292 1.52614 0
M  V30 9 C 1.257 5.56322 2.86805 0
M  V30 10 H 1.49 2.90518 0.631377 0
M  V30 11 H -0.977 1.52953 0.210867 0
M  V30 12 H 0.981 2.67203 3.11629 0
M  V30 13 H -0.358 1.57376 2.7183 0
M  V30 14 H -1.165 3.90944 3.18086 0
M  V30 15 H -1.563 3.418 1.51819 0
M  V30 16 H 0.729 5.58782 3.83104 0
M  V30 17 H 1.672 6.56266 2.65933 0
M  V30 18 H 2.08 4.83886 2.90714 0
M  V30 19 N 1.4781 -0.272755 1.55222 0
M  V30 20 C 2.8891 -0.84378 1.66545 0
M  V30 21 C 3.2401 -1.87035 0.592641 0
M  V30 22 O 2.3651 -2.14761 -0.265818 0
M  V30 23 C 2.9601 -1.53723 3.01918 0
M  V30 24 C 1.5191 -2.05628 3.15268 0
M  V30 25 C 0.6661 -0.898424 2.62343 0
M  V30 26 H 3.6171 -0.0490998 1.58624 0
M  V30 27 H 3.6381 -2.40421 2.94921 0
M  V30 28 H 3.1501 -0.78983 3.79978 0
M  V30 29 H 1.2511 -2.83329 2.41983 0
M  V30 30 H 1.3641 -2.27142 4.21833 0
M  V30 31 H -0.2719 -1.29186 2.19506 0
M  V30 32 H 0.5111 -0.164528 3.42906 0
M  V30 33 N 2.9562 -1.48159 -0.537278 0
M  V30 34 C 3.9062 -1.5854 -1.63857 0
M  V30 35 C 4.8902 -0.442969 -1.54682 0
M  V30 36 O 6.0822 -0.69401 -1.62827 0
M  V30 37 C 3.2112 -1.62144 -3.02596 0
M  V30 38 C 2.2972 -2.81841 -3.16901 0
M  V30 39 N 2.6882 -4.06337 -3.01204 0
M  V30 40 C 0.9862 -2.79021 -3.47942 0
M  V30 41 C 1.6872 -4.86606 -3.18731 0
M  V30 42 N 0.6632 -4.19288 -3.45974 0
M  V30 43 H 4.4652 -2.5255 -1.50319 0
M  V30 44 H 1.9792 -1.4443 -0.742555 0
M  V30 45 H 3.9762 -1.67674 -3.81695 0
M  V30 46 H 2.6362 -0.69245 -3.17231 0
M  V30 47 H 3.6472 -4.36888 -2.78117 0
M  V30 48 H 0.3242 -1.95347 -3.6898 0
M  V30 49 H 1.7142 -5.95385 -3.11394 0
M  V30 50 N 4.4343 0.785586 -1.36625 0
M  V30 51 C 5.6593 1.57963 -1.34397 0
M  V30 52 C 6.0843 1.87964 0.071526 0
M  V30 53 O 5.4423 1.48182 1.0446 0
M  V30 54 C 5.4903 2.87511 -2.17646 0
M  V30 55 O 4.5943 3.81281 -1.57158 0
M  V30 56 H 3.9353 0.479014 -0.459828 0
M  V30 57 H 6.4653 0.973411 -1.79961 0
M  V30 58 H 6.4753 3.36745 -2.30362 0
M  V30 59 H 5.1503 2.65002 -3.20541 0
M  V30 60 H 3.7273 3.39885 -1.53403 0
M  V30 61 N 5.9124 1.20967 1.01018 0
M  V30 62 C 6.8424 0.988272 2.11555 0
M  V30 63 C 7.8234 -0.0849778 1.69888 0
M  V30 64 O 9.0084 0.0738202 1.9406 0
M  V30 65 C 6.1384 0.546528 3.42973 0
M  V30 66 C 5.0924 1.56375 3.9841 0
M  V30 67 C 4.4184 0.97842 5.25672 0
M  V30 68 C 5.7184 2.94922 4.31066 0
M  V30 69 H 7.4124 1.91276 2.30334 0
M  V30 70 H 4.9584 0.921073 1.1069 0
M  V30 71 H 6.9114 0.378839 4.19694 0
M  V30 72 H 5.6354 -0.413598 3.23971 0
M  V30 73 H 4.2944 1.71891 3.23804 0
M  V30 74 H 3.9424 0.0101688 5.02999 0
M  V30 75 H 3.6424 1.65784 5.63728 0
M  V30 76 H 5.1664 0.821939 6.05043 0
M  V30 77 H 6.5804 2.8288 4.9865 0
M  V30 78 H 4.9774 3.5983 4.80253 0
M  V30 79 H 6.0474 3.4616 3.39561 0
M  V30 80 N 7.3905 -1.2043 1.01659 0
M  V30 81 C 8.6375 -1.89797 0.705917 0
M  V30 82 C 8.9655 -1.78848 -0.764439 0
M  V30 83 O 8.2205 -1.16694 -1.57102 0
M  V30 84 C 8.5195 -3.40464 1.08714 0
M  V30 85 C 8.1855 -3.71614 2.5537 0
M  V30 86 C 6.8475 -3.79826 2.95441 0
M  V30 87 C 9.1995 -3.85915 3.50313 0
M  V30 88 C 6.5275 -3.99797 4.29394 0
M  V30 89 C 8.8795 -4.07396 4.83954 0
M  V30 90 C 7.5435 -4.13837 5.23732 0
M  V30 91 H 6.8135 -0.694518 0.258313 0
M  V30 92 H 9.4605 -1.42691 1.27717 0
M  V30 93 H 7.7655 -3.89385 0.434309 0
M  V30 94 H 9.4625 -3.92433 0.824461 0
M  V30 95 H 6.0525 -3.65822 2.23321 0
M  V30 96 H 10.2365 -3.78926 3.20513 0
M  V30 97 H 5.4925 -4.03018 4.59768 0
M  V30 98 H 9.6665 -4.17404 5.57447 0
M  V30 99 H 7.2935 -4.29064 6.27541 0
M  V30 100 N 8.8686 -0.792821 -1.36206 0
M  V30 101 C 10.0936 -0.377701 -2.03932 0
M  V30 102 C 10.5186 0.998947 -1.59382 0
M  V30 103 O 9.8766 1.64421 -0.763903 0
M  V30 104 C 9.9246 -0.453635 -3.57735 0
M  V30 105 O 9.0286 0.538151 -4.08874 0
M  V30 106 H 8.3696 -0.159855 -0.644471 0
M  V30 107 H 10.8996 -1.07488 -1.7409 0
M  V30 108 H 10.9096 -0.318464 -4.06755 0
M  V30 109 H 9.5846 -1.45784 -3.89512 0
M  V30 110 H 8.1616 0.364359 -3.71116 0
M  V30 111 N 10.3467 1.47872 -0.545128 0
M  V30 112 C 11.5747 2.06889 -0.021084 0
M  V30 113 C 11.9897 1.39955 1.2672 0
M  V30 114 O 11.3467 0.492036 1.75742 0
M  V30 115 C 11.3977 3.60996 0.190817 0
M  V30 116 O 11.1187 4.25419 -1.04644 0
M  V30 117 C 12.6197 4.36849 0.753521 0
M  V30 118 H 9.8397 0.669785 -0.0403635 0
M  V30 119 H 12.3837 1.90049 -0.755095 0
M  V30 120 H 10.5387 3.77391 0.87492 0
M  V30 121 H 10.9527 5.17785 -0.836611 0
M  V30 122 H 12.4267 5.45399 0.851139 0
M  V30 123 H 12.9037 4.02306 1.762 0
M  V30 124 H 13.5097 4.25169 0.105503 0
M  V30 125 N 11.8248 0.280983 1.55075 0
M  V30 126 C 13.1018 -0.386207 1.91749 0
M  V30 127 C 13.4818 -1.73264 1.20594 0
M  V30 128 O 12.8298 -2.26034 0.334784 0
M  V30 129 C 13.0398 -0.520687 3.45094 0
M  V30 130 C 14.3878 -0.800865 4.16979 0
M  V30 131 O 15.4118 -0.605271 3.5102 0
M  V30 132 O 14.2708 -1.1753 5.33712 0
M  V30 133 H 11.3648 -0.212408 0.799257 0
M  V30 134 H 13.9108 0.327568 1.66509 0
M  V30 135 H 12.6828 0.426633 3.88967 0
M  V30 136 H 12.3058 -1.2837 3.76307 0
M  V30 137 N 13.3029 -1.57598 0.00835791 0
M  V30 138 C 14.5309 -1.95214 -0.68549 0
M  V30 139 C 14.9459 -0.883706 -1.66841 0
M  V30 140 O 14.3029 0.136565 -1.81988 0
M  V30 141 C 14.3539 -3.32865 -1.41007 0
M  V30 142 O 14.0749 -4.35609 -0.466552 0
M  V30 143 C 15.5759 -3.84991 -2.19765 0
M  V30 144 H 12.7959 -0.643422 -0.190392 0
M  V30 145 H 15.3399 -2.04406 0.0619607 0
M  V30 146 H 13.4949 -3.24956 -2.10908 0
M  V30 147 H 13.9089 -5.15288 -0.978699 0
M  V30 148 H 15.3829 -4.8371 -2.65948 0
M  V30 149 H 15.8599 -3.18137 -3.02796 0
M  V30 150 H 16.4659 -3.96103 -1.54864 0
M  V30 151 N 14.781 0.264519 -1.55364 0
M  V30 152 C 16.058 1.01677 -1.67096 0
M  V30 153 C 16.438 2.03996 -0.543015 0
M  V30 154 O 15.786 2.23907 0.45585 0
M  V30 155 C 15.996 1.66596 -3.0667 0
M  V30 156 C 17.344 2.17442 -3.64697 0
M  V30 157 O 18.368 1.76568 -3.09358 0
M  V30 158 O 17.227 2.92439 -4.61673 0
M  V30 159 H 14.321 0.472161 -0.678965 0
M  V30 160 H 16.867 0.259703 -1.67701 0
M  V30 161 H 15.639 0.924962 -3.80211 0
M  V30 162 H 15.262 2.48968 -3.10001 0
M  V30 163 N 16.2591 1.48442 0.529413 0
M  V30 164 C 17.1891 1.65902 1.64313 0
M  V30 165 C 18.1701 0.507897 1.6234 0
M  V30 166 O 19.3551 0.740503 1.79528 0
M  V30 167 C 16.4851 1.69911 3.02898 0
M  V30 168 C 15.4391 2.8453 3.19729 0
M  V30 169 C 14.7651 2.73629 4.59381 0
M  V30 170 C 16.0651 4.25821 3.02447 0
M  V30 171 H 17.7591 2.5914 1.49955 0
M  V30 172 H 15.3051 1.24709 0.719982 0
M  V30 173 H 17.2581 1.80715 3.80684 0
M  V30 174 H 15.9821 0.732524 3.18279 0
M  V30 175 H 14.6411 2.73283 2.44361 0
M  V30 176 H 14.2891 1.74938 4.71599 0
M  V30 177 H 13.9891 3.50541 4.71588 0
M  V30 178 H 15.5131 2.86401 5.39265 0
M  V30 179 H 16.9271 4.37898 3.70024 0
M  V30 180 H 15.3241 5.03735 3.26146 0
M  V30 181 H 16.3941 4.42244 1.98867 0
M  V30 182 N 17.7372 -0.778329 1.37039 0
M  V30 183 C 18.9652 -1.56734 1.35063 0
M  V30 184 C 19.3802 -1.88686 -0.0655597 0
M  V30 185 O 18.7372 -1.5096 -1.02554 0
M  V30 186 C 18.7882 -2.88163 2.18276 0
M  V30 187 O 18.5092 -2.57583 3.54376 0
M  V30 188 C 20.0102 -3.82422 2.24206 0
M  V30 189 H 17.2302 -0.485778 0.462883 0
M  V30 190 H 19.7742 -0.965185 1.8029 0
M  V30 191 H 17.9292 -3.44818 1.76576 0
M  V30 192 H 18.3432 -3.41699 3.97922 0
M  V30 193 H 19.8172 -4.71667 2.86765 0
M  V30 194 H 20.2942 -4.21078 1.24861 0
M  V30 195 H 20.9002 -3.31697 2.6619 0
M  V30 196 N 19.2153 -1.21501 -1.00376 0
M  V30 197 C 20.1783 -0.976927 -2.07337 0
M  V30 198 C 21.1783 0.0525322 -1.60714 0
M  V30 199 O 22.3683 -0.184869 -1.73216 0
M  V30 200 C 19.5003 -0.473423 -3.37597 0
M  V30 201 H 20.6933 -1.92587 -2.29892 0
M  V30 202 H 18.2463 -1.03217 -1.17371 0
M  V30 203 H 18.9813 0.480379 -3.20722 0
M  V30 204 H 18.7663 -1.216 -3.72768 0
M  V30 205 H 20.2563 -0.32675 -4.1632 0
M  V30 206 N 20.6934 1.19889 -1.02296 0
M  V30 207 C 21.6034 2.26571 -0.608508 0
M  V30 208 C 22.6194 1.70299 0.356964 0
M  V30 209 O 23.7954 2.00235 0.216326 0
M  V30 210 C 20.8604 3.46677 0.0402814 0
M  V30 211 C 19.9214 4.18153 -0.97194 0
M  V30 212 C 19.1544 5.32525 -0.354016 0
M  V30 213 O 19.3774 5.64112 0.844604 0
M  V30 214 O 18.3114 5.92242 -1.07391 0
M  V30 215 H 22.1374 2.64251 -1.49684 0
M  V30 216 H 19.7224 1.26629 -0.792809 0
M  V30 217 H 21.6044 4.19475 0.402324 0
M  V30 218 H 20.2794 3.10858 0.902707 0
M  V30 219 H 19.1864 3.47499 -1.38546 0
M  V30 220 H 20.5194 4.57927 -1.80454 0
M  V30 221 N 22.1715 0.800033 1.35784 0
M  V30 222 C 23.1195 0.193851 2.31791 0
M  V30 223 C 24.1135 -0.652744 1.56319 0
M  V30 224 O 25.3195 -0.546641 1.71499 0
M  V30 225 H 21.6945 0.04392 0.750716 0
M  V30 226 H 23.6655 1.01883 2.80468 0
M  V30 227 C 22.4145 -0.648338 3.41602 0
M  V30 228 H 21.7375 -0.00624665 3.998 0
M  V30 229 H 23.1775 -1.03898 4.11073 0
M  V30 230 C 21.6365 -1.8111 2.84079 0
M  V30 231 O 22.1665 -2.90825 2.77099 0
M  V30 232 N 20.3725 -1.62056 2.41218 0
M  V30 233 H 19.9195 -0.728123 2.47095 0
M  V30 234 H 19.8775 -2.40013 2.03079 0
M  V30 235 N 23.6496 -1.47581 0.552962 0
M  V30 236 C 24.5796 -2.32762 -0.185451 0
M  V30 237 C 25.5606 -1.43527 -0.912905 0
M  V30 238 O 26.7456 -1.72388 -0.894201 0
M  V30 239 C 23.8756 -3.25219 -1.21859 0
M  V30 240 C 22.8296 -4.23661 -0.607864 0
M  V30 241 C 22.1556 -5.05413 -1.74533 0
M  V30 242 C 23.4556 -5.20481 0.435582 0
M  V30 243 H 25.1496 -2.94749 0.525684 0
M  V30 244 H 22.6956 -1.41738 0.254251 0
M  V30 245 H 24.6486 -3.8365 -1.7433 0
M  V30 246 H 23.3726 -2.61279 -1.95961 0
M  V30 247 H 22.0316 -3.66451 -0.104489 0
M  V30 248 H 21.6796 -4.3788 -2.47529 0
M  V30 249 H 21.3796 -5.72059 -1.34249 0
M  V30 250 H 22.9036 -5.66701 -2.27338 0
M  V30 251 H 24.3176 -5.733 -0.00290157 0
M  V30 252 H 22.7146 -5.95305 0.757067 0
M  V30 253 H 23.7846 -4.66217 1.33303 0
M  V30 254 N 25.1277 -0.289203 -1.54924 0
M  V30 255 C 26.0577 0.58549 -2.2604 0
M  V30 256 C 27.0387 1.14753 -1.25562 0
M  V30 257 O 28.2237 1.17906 -1.54311 0
M  V30 258 C 25.3537 1.76305 -2.99222 0
M  V30 259 C 24.3077 1.33191 -4.06748 0
M  V30 260 C 23.6337 2.5937 -4.6758 0
M  V30 261 C 24.9337 0.471775 -5.20165 0
M  V30 262 H 26.6277 -0.00763532 -2.99399 0
M  V30 263 H 24.1737 -0.00511229 -1.43999 0
M  V30 264 H 26.1267 2.38097 -3.47689 0
M  V30 265 H 24.8507 2.38223 -2.23422 0
M  V30 266 H 23.5097 0.737121 -3.59113 0
M  V30 267 H 23.1577 3.19576 -3.88433 0
M  V30 268 H 22.8577 2.31228 -5.40192 0
M  V30 269 H 24.3817 3.21985 -5.18804 0
M  V30 270 H 25.7957 0.995056 -5.64599 0
M  V30 271 H 24.1927 0.284639 -5.99425 0
M  V30 272 H 25.2627 -0.506041 -4.82252 0
M  V30 273 N 26.6058 1.57591 -0.0167156 0
M  V30 274 C 28.0218 1.55946 0.339557 0
M  V30 275 C 28.2218 1.02109 1.73713 0
M  V30 276 O 27.2778 0.662303 2.43659 0
M  V30 277 C 28.5908 3.00037 0.199499 0
M  V30 278 C 30.1388 3.11805 0.273193 0
M  V30 279 C 30.6138 4.57713 0.162068 0
M  V30 280 N 32.1048 4.6268 0.219444 0
M  V30 281 C 32.8398 5.73185 0.157054 0
M  V30 282 N 32.3358 6.92786 0.0442936 0
M  V30 283 N 34.1288 5.61707 0.21014 0
M  V30 284 H 26.2798 1.90921 -0.930758 0
M  V30 285 H 28.5428 0.877674 -0.358319 0
M  V30 286 H 28.2488 3.4333 -0.76273 0
M  V30 287 H 28.1228 3.64387 0.974786 0
M  V30 288 H 30.5098 2.68433 1.22587 0
M  V30 289 H 30.5908 2.50201 -0.532256 0
M  V30 290 H 30.2348 5.01763 -0.78714 0
M  V30 291 H 30.1648 5.17283 0.986222 0
M  V30 292 H 32.6558 3.76649 0.307246 0
M  V30 293 H 32.9688 7.728 0.00304069 0
M  V30 294 H 31.3138 6.94999 0.00968457 0
M  V30 295 H 34.5048 4.6716 0.296546 0
M  V30 296 H 34.6778 6.47807 0.158054 0
M  V30 297 N 28.0839 -0.256276 1.55502 0
M  V30 298 C 29.0139 -1.32102 1.92539 0
M  V30 299 C 29.9949 -1.50684 0.789194 0
M  V30 300 O 31.1799 -1.63449 1.04872 0
M  V30 301 C 28.3099 -2.67752 2.21192 0
M  V30 302 C 27.2639 -2.63878 3.36975 0
M  V30 303 C 26.5899 -4.03236 3.51147 0
M  V30 304 C 27.8899 -2.21682 4.72921 0
M  V30 305 H 29.5839 -1.01351 2.81724 0
M  V30 306 H 27.1299 -0.486105 1.35547 0
M  V30 307 H 29.0829 -3.42365 2.45691 0
M  V30 308 H 27.8069 -3.0012 1.28824 0
M  V30 309 H 26.4659 -1.91722 3.12471 0
M  V30 310 H 26.1139 -4.32854 2.56216 0
M  V30 311 H 25.8139 -4.01535 4.29003 0
M  V30 312 H 27.3379 -4.79563 3.77957 0
M  V30 313 H 28.7519 -2.86023 4.96854 0
M  V30 314 H 27.1489 -2.3111 5.53812 0
M  V30 315 H 28.2189 -1.16833 4.70615 0
M  V30 316 N 29.562 -1.4872 -0.521534 0
M  V30 317 C 30.973 -1.50607 -1.10337 0
M  V30 318 C 31.324 -0.280612 -1.94183 0
M  V30 319 O 30.449 0.611507 -2.0758 0
M  V30 320 C 31.044 -2.72903 -2.00772 0
M  V30 321 C 29.603 -2.77634 -2.54158 0
M  V30 322 C 28.75 -2.44241 -1.31307 0
M  V30 323 H 31.701 -1.55714 -0.306388 0
M  V30 324 H 31.722 -2.519 -2.85178 0
M  V30 325 H 31.234 -3.62077 -1.39721 0
M  V30 326 H 29.335 -1.92689 -3.18907 0
M  V30 327 H 29.448 -3.79283 -2.92714 0
M  V30 328 H 27.812 -1.95577 -1.63161 0
M  V30 329 H 28.595 -3.35666 -0.719943 0
M  V30 330 N 31.0401 0.771051 -1.3745 0
M  V30 331 C 32.0031 1.86598 -1.33093 0
M  V30 332 C 33.0031 1.59076 -0.234845 0
M  V30 333 O 34.1931 1.67145 -0.490732 0
M  V30 334 C 31.3251 3.23747 -1.06773 0
M  V30 335 H 32.5181 1.91873 -2.30488 0
M  V30 336 H 30.0711 0.970876 -1.2249 0
M  V30 337 H 30.8061 3.24148 -0.099129 0
M  V30 338 H 30.5911 3.45115 -1.86112 0
M  V30 339 H 32.0811 4.03824 -1.06377 0
M  V30 340 N 32.5182 1.22032 0.997298 0
M  V30 341 C 33.4282 1.00271 2.12092 0
M  V30 342 C 34.4442 -0.047621 1.73935 0
M  V30 343 O 35.6202 0.144136 2.00884 0
M  V30 344 C 32.6852 0.578449 3.4184 0
M  V30 345 C 31.7462 1.70189 3.94125 0
M  V30 346 C 30.9792 1.29778 5.17681 0
M  V30 347 O 31.2022 0.174676 5.70132 0
M  V30 348 O 30.1362 2.11261 5.63607 0
M  V30 349 H 33.9622 1.94398 2.3333 0
M  V30 350 H 31.5472 1.00587 1.10465 0
M  V30 351 H 33.4292 0.351998 4.19927 0
M  V30 352 H 32.1042 -0.334019 3.21972 0
M  V30 353 H 31.0112 1.98282 3.1723 0
M  V30 354 H 32.3442 2.59206 4.18417 0
M  V30 355 N 33.9963 -1.19345 1.0293 0
M  V30 356 C 35.2433 -1.89038 0.726008 0
M  V30 357 C 35.5713 -1.79649 -0.745427 0
M  V30 358 O 34.8263 -1.18354 -1.55855 0
M  V30 359 C 35.1253 -3.39292 1.12319 0
M  V30 360 C 34.7913 -3.68885 2.59297 0
M  V30 361 C 33.4533 -3.76671 2.99453 0
M  V30 362 C 35.8053 -3.82178 3.54386 0
M  V30 363 C 33.1333 -3.9522 4.33611 0
M  V30 364 C 35.4853 -4.0224 4.88248 0
M  V30 365 C 34.1493 -4.08259 5.28092 0
M  V30 366 H 33.4193 -0.691739 0.265665 0
M  V30 367 H 36.0663 -1.41328 1.29223 0
M  V30 368 H 34.3713 -3.88903 0.475584 0
M  V30 369 H 36.0683 -3.91536 0.866037 0
M  V30 370 H 32.6583 -3.63433 2.27189 0
M  V30 371 H 36.8423 -3.75505 3.24514 0
M  V30 372 H 32.0983 -3.98119 4.64016 0
M  V30 373 H 36.2723 -4.11468 5.61843 0
M  V30 374 H 33.8993 -4.22384 6.32057 0
M  V30 375 N 35.4744 -0.807222 -1.35358 0
M  V30 376 C 36.7224 -0.387122 -1.98358 0
M  V30 377 C 37.0434 1.04942 -1.64354 0
M  V30 378 O 36.3134 1.72615 -0.926339 0
M  V30 379 H 34.8934 -0.140154 -0.733734 0
M  V30 380 H 37.5554 -1.0332 -1.6526 0
M  V30 381 H 36.6514 -0.493352 -3.08176 0
M  V30 382 N 36.9525 1.47285 -0.560781 0
M  V30 383 C 38.1925 2.0436 -0.0404627 0
M  V30 384 C 38.5565 1.42534 1.28639 0
M  V30 385 O 39.7575 1.90677 1.89462 0
M  V30 386 C 38.0285 3.57369 0.0471856 0
M  V30 387 S 39.5875 4.3579 0.513109 0
M  V30 388 H 36.4055 0.710492 -0.0268674 0
M  V30 389 H 39.0075 1.80611 -0.748323 0
M  V30 390 H 37.7115 3.9989 -0.922817 0
M  V30 391 H 37.2425 3.8562 0.778491 0
M  V30 392 H 39.2575 4.63476 1.77212 0
M  V30 393 N 38.4306 0.297415 1.54768 0
M  V30 394 C 39.8416 -0.195947 1.85669 0
M  V30 395 C 40.1926 -1.53707 1.21937 0
M  V30 396 O 39.3176 -2.10164 0.515754 0
M  V30 397 C 39.9126 -0.362318 3.36857 0
M  V30 398 C 38.4716 -0.799901 3.67802 0
M  V30 399 C 37.6186 0.0938578 2.77141 0
M  V30 400 H 40.5696 0.518538 1.4999 0
M  V30 401 H 40.5906 -1.19745 3.61167 0
M  V30 402 H 40.1026 0.613921 3.83214 0
M  V30 403 H 38.2036 -1.78682 3.26961 0
M  V30 404 H 38.3166 -0.621773 4.75048 0
M  V30 405 H 36.6806 -0.426254 2.51108 0
M  V30 406 H 37.4636 1.06639 3.26318 0
M  V30 407 N 39.9087 -1.5758 0.0250728 0
M  V30 408 C 41.1547 -1.91917 -0.655413 0
M  V30 409 C 41.4877 -0.901433 -1.72011 0
M  V30 410 O 40.7627 0.0764069 -1.9435 0
M  V30 411 C 41.0457 -3.36751 -1.27558 0
M  V30 412 C 40.8987 -4.49258 -0.220719 0
M  V30 413 C 42.2177 -3.81469 -2.19475 0
M  V30 414 H 39.3367 -0.697925 -0.23679 0
M  V30 415 H 41.9787 -1.89825 0.0815036 0
M  V30 416 H 40.1287 -3.38664 -1.90365 0
M  V30 417 H 41.8007 -4.59478 0.409601 0
M  V30 418 H 40.0437 -4.31415 0.454264 0
M  V30 419 H 40.7147 -5.47618 -0.694175 0
M  V30 420 H 43.1907 -3.81266 -1.66659 0
M  V30 421 H 42.0667 -4.83512 -2.59822 0
M  V30 422 H 42.3277 -3.16744 -3.08424 0
M  V30 423 N 41.3868 0.248026 -1.55636 0
M  V30 424 C 42.6328 0.973427 -1.78594 0
M  V30 425 C 42.9878 1.83007 -0.593823 0
M  V30 426 O 42.2808 1.87097 0.412961 0
M  V30 427 C 42.4748 1.86819 -3.04686 0
M  V30 428 C 42.3038 1.09965 -4.36048 0
M  V30 429 C 41.0738 0.805204 -4.98843 0
M  V30 430 C 43.2718 0.477783 -5.12076 0
M  V30 431 N 41.2538 0.0124859 -6.13899 0
M  V30 432 C 42.6248 -0.179565 -6.1974 0
M  V30 433 C 44.6798 0.388136 -4.96385 0
M  V30 434 C 43.3828 -0.91795 -7.13419 0
M  V30 435 C 45.4088 -0.336716 -5.90441 0
M  V30 436 C 44.7708 -0.982705 -6.97511 0
M  V30 437 H 40.8698 0.337348 -0.705493 0
M  V30 438 H 43.4538 0.24667 -1.93131 0
M  V30 439 H 41.6248 2.56698 -2.9148 0
M  V30 440 H 43.3568 2.52907 -3.15944 0
M  V30 441 H 40.1118 1.11671 -4.60246 0
M  V30 442 H 40.5358 -0.371933 -6.75978 0
M  V30 443 H 45.1778 0.873237 -4.13684 0
M  V30 444 H 42.8958 -1.41466 -7.95621 0
M  V30 445 H 46.4818 -0.406731 -5.80377 0
M  V30 446 H 45.3618 -1.53464 -7.69037 0
M  V30 447 N 42.8649 1.48995 0.513639 0
M  V30 448 C 44.1109 1.58076 1.27042 0
M  V30 449 C 44.4439 0.261026 1.92438 0
M  V30 450 O 43.7189 -0.734393 1.80103 0
M  V30 451 C 44.0019 2.73091 2.34719 0
M  V30 452 C 43.8549 4.14821 1.73907 0
M  V30 453 C 45.1739 2.83796 3.36375 0
M  V30 454 H 42.2929 0.575391 0.460536 0
M  V30 455 H 44.9349 1.81232 0.570516 0
M  V30 456 H 43.0849 2.53479 2.94416 0
M  V30 457 H 44.7569 4.45917 1.18135 0
M  V30 458 H 42.9999 4.21058 1.0437 0
M  V30 459 H 43.6709 4.91147 2.51949 0
M  V30 460 H 46.1469 3.01611 2.86653 0
M  V30 461 H 45.0229 3.65971 4.09093 0
M  V30 462 H 45.2839 1.92624 3.9793 0
M  V30 463 N 44.343 -0.763751 1.37857 0
M  V30 464 C 45.573 -1.55067 1.3652 0
M  V30 465 C 45.981 -1.89135 -0.0494227 0
M  V30 466 O 45.324 -1.52529 -1.02375 0
M  V30 467 C 45.386 -2.8838 2.14656 0
M  V30 468 C 45.05 -2.76905 3.63555 0
M  V30 469 C 46.047 -2.4739 4.57268 0
M  V30 470 C 43.732 -2.94676 4.06781 0
M  V30 471 C 45.726 -2.35786 5.92186 0
M  V30 472 C 43.413 -2.82692 5.41782 0
M  V30 473 C 44.411 -2.53289 6.34298 0
M  V30 474 O 44.099 -2.41345 7.66817 0
M  V30 475 H 43.831 -0.486776 0.469069 0
M  V30 476 H 46.385 -0.953812 1.81911 0
M  V30 477 H 44.615 -3.50217 1.63967 0
M  V30 478 H 46.304 -3.49828 2.05852 0
M  V30 479 H 47.07 -2.33339 4.2518 0
M  V30 480 H 42.949 -3.16563 3.35126 0
M  V30 481 H 46.493 -2.12757 6.64365 0
M  V30 482 H 42.39 -2.96314 5.7347 0
M  V30 483 H 43.158 -2.56634 7.77226 0
M  V30 484 N 45.8211 -1.22559 -0.990812 0
M  V30 485 C 47.0981 -0.959875 -1.70428 0
M  V30 486 C 47.4781 0.524455 -2.04481 0
M  V30 487 O 46.8261 1.49302 -1.72977 0
M  V30 488 C 47.0361 -1.85955 -2.95333 0
M  V30 489 C 48.3841 -2.11687 -3.68068 0
M  V30 490 O 49.4081 -1.8342 -3.05345 0
M  V30 491 O 48.2671 -2.59572 -4.80921 0
M  V30 492 H 45.3611 -0.361154 -0.743974 0
M  V30 493 H 47.9071 -1.33554 -1.04697 0
M  V30 494 H 46.6791 -2.86346 -2.66687 0
M  V30 495 H 46.3021 -1.4856 -3.68803 0
M  V30 496 N 47.2992 1.18797 -1.03562 0
M  V30 497 C 48.2622 2.20464 -0.626769 0
M  V30 498 C 49.2622 1.57721 0.313173 0
M  V30 499 O 50.4522 1.73917 0.0992615 0
M  V30 500 C 47.5842 3.40802 0.0818498 0
M  V30 501 H 48.7772 2.58149 -1.5264 0
M  V30 502 H 46.3302 1.32593 -0.827578 0
M  V30 503 H 47.0652 3.08642 0.995518 0
M  V30 504 H 46.8502 3.8758 -0.593652 0
M  V30 505 H 48.3402 4.16092 0.354584 0
M  V30 506 N 48.7773 0.814389 1.34928 0
M  V30 507 C 49.7093 0.187834 2.28429 0
M  V30 508 C 50.7223 -0.617374 1.5064 0
M  V30 509 O 51.9113 -0.448454 1.72775 0
M  V30 510 C 49.0113 -0.755962 3.30361 0
M  V30 511 C 48.1843 0.00456686 4.374 0
M  V30 512 C 47.2433 -0.858876 5.19143 0
M  V30 513 O 46.2693 -0.306968 5.68372 0
M  V30 514 N 47.4713 -2.17988 5.38016 0
M  V30 515 H 50.2363 0.991105 2.82838 0
M  V30 516 H 47.7973 0.670561 1.4736 0
M  V30 517 H 49.7893 -1.338 3.81942 0
M  V30 518 H 48.3593 -1.46001 2.7641 0
M  V30 519 H 47.5793 0.767865 3.86649 0
M  V30 520 H 48.8673 0.528422 5.06049 0
M  V30 521 H 48.2653 -2.65212 4.99679 0
M  V30 522 H 46.8223 -2.71098 5.92747 0
M  V30 523 N 50.2554 -1.46986 0.568584 0
M  V30 524 C 51.5044 -2.01646 0.0465894 0
M  V30 525 C 51.8174 -1.44721 -1.31587 0
M  V30 526 O 53.0234 -1.91113 -1.92842 0
M  V30 527 C 51.4794 -3.59885 0.032752 0
M  V30 528 C 51.0874 -4.25804 1.39266 0
M  V30 529 C 52.8314 -4.22255 -0.436038 0
M  V30 530 C 50.7384 -5.76081 1.33732 0
M  V30 531 H 49.6684 -0.753876 0.013647 0
M  V30 532 H 52.3194 -1.68864 0.718131 0
M  V30 533 H 50.7014 -3.8968 -0.704669 0
M  V30 534 H 51.8754 -4.07637 2.1487 0
M  V30 535 H 50.1904 -3.7547 1.80032 0
M  V30 536 H 52.7874 -5.32394 -0.49602 0
M  V30 537 H 53.1304 -3.90212 -1.45053 0
M  V30 538 H 53.6634 -3.97033 0.246877 0
M  V30 539 H 50.4024 -6.12761 2.32817 0
M  V30 540 H 49.9224 -5.96553 0.623267 0
M  V30 541 H 51.6014 -6.38518 1.0442 0
M  V30 542 N 51.7335 -0.305618 -1.54608 0
M  V30 543 C 52.9825 0.303098 -1.9941 0
M  V30 544 C 53.2955 1.54648 -1.19764 0
M  V30 545 O 54.5015 2.23007 -1.54855 0
M  V30 546 C 52.9575 0.590588 -3.55021 0
M  V30 547 C 52.5655 -0.634719 -4.43481 0
M  V30 548 C 54.3095 1.16025 -4.08336 0
M  V30 549 C 52.2165 -0.320126 -5.90533 0
M  V30 550 H 51.1465 0.117031 -0.744862 0
M  V30 551 H 53.7975 -0.415045 -1.78745 0
M  V30 552 H 52.1795 1.36845 -3.71604 0
M  V30 553 H 53.3535 -1.41079 -4.38672 0
M  V30 554 H 51.6685 -1.12333 -4.00962 0
M  V30 555 H 54.2655 1.40994 -5.15776 0
M  V30 556 H 54.6085 2.10397 -3.5922 0
M  V30 557 H 55.1415 0.443985 -3.95315 0
M  V30 558 H 51.8805 -1.23254 -6.43808 0
M  V30 559 H 51.4005 0.418579 -5.98338 0
M  V30 560 H 53.0795 0.0766241 -6.46955 0
M  V30 561 N 53.2116 1.57565 -0.0334293 0
M  V30 562 C 54.6276 1.56297 0.322997 0
M  V30 563 C 54.8276 1.03945 1.7262 0
M  V30 564 O 53.8836 0.688109 2.42943 0
M  V30 565 C 55.1966 3.00232 0.167664 0
M  V30 566 C 56.7446 3.12078 0.240107 0
M  V30 567 C 57.2196 4.57859 0.113513 0
M  V30 568 N 58.7106 4.62887 0.170359 0
M  V30 569 C 59.4456 5.73319 0.0962517 0
M  V30 570 N 58.9416 6.92794 -0.0291881 0
M  V30 571 N 60.7346 5.61898 0.150551 0
M  V30 572 H 52.8856 1.89923 -0.950956 0
M  V30 573 H 55.1486 0.873824 -0.367608 0
M  V30 574 H 54.8546 3.42501 -0.799102 0
M  V30 575 H 54.7286 3.654 0.936083 0
M  V30 576 H 57.1156 2.69718 1.19733 0
M  V30 577 H 57.1966 2.49623 -0.558763 0
M  V30 578 H 56.8406 5.009 -0.840314 0
M  V30 579 H 56.7706 5.18299 0.931302 0
M  V30 580 H 59.2616 3.76954 0.26728 0
M  V30 581 H 59.5746 7.7276 -0.0789252 0
M  V30 582 H 57.9196 6.94971 -0.0640299 0
M  V30 583 H 61.1106 4.67448 0.246981 0
M  V30 584 H 61.2836 6.47938 0.0893365 0
M  V30 585 N 54.6897 -0.239769 1.55765 0
M  V30 586 C 56.1057 -0.588624 1.48349 0
M  V30 587 C 56.3057 -1.88005 0.72502 0
M  V30 588 O 55.3617 -2.51186 0.257269 0
M  V30 589 C 56.6747 -0.68474 2.928 0
M  V30 590 C 58.2227 -0.77659 3.03213 0
M  V30 591 C 58.6977 -0.904207 4.48986 0
M  V30 592 N 60.1887 -0.968896 4.52953 0
M  V30 593 C 60.9237 -1.08703 5.63002 0
M  V30 594 N 60.4197 -1.17026 6.82845 0
M  V30 595 N 62.2127 -1.12074 5.50814 0
M  V30 596 H 54.3637 0.607911 2.03515 0
M  V30 597 H 56.6267 0.21083 0.924259 0
M  V30 598 H 56.3327 0.194284 3.51163 0
M  V30 599 H 56.2067 -1.55435 3.43686 0
M  V30 600 H 58.5937 -1.64606 2.44926 0
M  V30 601 H 58.6747 0.118315 2.55526 0
M  V30 602 H 58.3187 -0.0392633 5.07885 0
M  V30 603 H 58.2487 -1.81426 4.9436 0
M  V30 604 H 60.7397 -0.915633 3.6664 0
M  V30 605 H 61.0527 -1.25966 7.62465 0
M  V30 606 H 59.3977 -1.13971 6.85591 0
M  V30 607 H 62.5887 -1.05226 4.5612 0
M  V30 608 H 62.7617 -1.20936 6.36615 0
M  V30 609 N 56.1678 -1.49265 -0.50573 0
M  V30 610 C 57.0998 -1.617 -1.62437 0
M  V30 611 C 58.1128 -0.499924 -1.54934 0
M  V30 612 O 59.3018 -0.771785 -1.60953 0
M  V30 613 C 56.4018 -1.5533 -3.01207 0
M  V30 614 C 55.5748 -2.8249 -3.33943 0
M  V30 615 C 54.6338 -2.69238 -4.52103 0
M  V30 616 O 53.6598 -3.43167 -4.5412 0
M  V30 617 N 54.8618 -1.80468 -5.51735 0
M  V30 618 H 57.6268 -2.58177 -1.52199 0
M  V30 619 H 55.1878 -1.46294 -0.693511 0
M  V30 620 H 57.1798 -1.44125 -3.78167 0
M  V30 621 H 55.7498 -0.667297 -3.05395 0
M  V30 622 H 54.9698 -3.08081 -2.45926 0
M  V30 623 H 56.2578 -3.66802 -3.5261 0
M  V30 624 H 55.6558 -1.19653 -5.52901 0
M  V30 625 H 54.2128 -1.75188 -6.27816 0
M  V30 626 N 57.6459 0.756429 -1.3826 0
M  V30 627 C 58.8949 1.51082 -1.3363 0
M  V30 628 C 59.2079 1.95467 0.0720068 0
M  V30 629 O 60.4139 2.7043 0.240834 0
M  V30 630 C 58.8699 2.72893 -2.34644 0
M  V30 631 C 58.4779 2.35544 -3.81081 0
M  V30 632 C 60.2219 3.50791 -2.39052 0
M  V30 633 C 58.1289 3.53948 -4.73787 0
M  V30 634 H 57.0589 0.56727 -0.49671 0
M  V30 635 H 59.7099 0.827147 -1.638 0
M  V30 636 H 58.0919 3.43227 -1.97513 0
M  V30 637 H 59.2659 1.72894 -4.27135 0
M  V30 638 H 57.5809 1.70786 -3.79764 0
M  V30 639 H 60.1779 4.38823 -3.05513 0
M  V30 640 H 60.5209 3.91745 -1.40861 0
M  V30 641 H 61.0539 2.87467 -2.74968 0
M  V30 642 H 57.7929 3.18064 -5.73163 0
M  V30 643 H 57.3129 4.15651 -4.32428 0
M  V30 644 H 58.9919 4.20566 -4.91663 0
M  V30 645 N 59.124 1.23083 0.984299 0
M  V30 646 C 60.087 1.00979 2.05757 0
M  V30 647 C 61.087 -0.0269573 1.60777 0
M  V30 648 O 62.277 0.212403 1.729 0
M  V30 649 C 59.409 0.527072 3.36801 0
M  V30 650 H 60.602 1.9622 2.26799 0
M  V30 651 H 58.155 1.05072 1.15714 0
M  V30 652 H 58.89 -0.429294 3.21446 0
M  V30 653 H 58.675 1.27515 3.70786 0
M  V30 654 H 60.165 0.392942 4.15747 0
M  V30 655 N 60.6021 -1.18246 1.0419 0
M  V30 656 C 61.5651 -2.20128 0.638452 0
M  V30 657 C 62.5651 -1.57885 -0.304805 0
M  V30 658 O 63.7551 -1.73967 -0.0900369 0
M  V30 659 C 60.8871 -3.4084 -0.0637751 0
M  V30 660 H 62.0801 -2.57336 1.54007 0
M  V30 661 H 59.6331 -1.32152 0.834598 0
M  V30 662 H 60.3681 -3.09166 -0.979136 0
M  V30 663 H 60.1531 -3.8726 0.614198 0
M  V30 664 H 61.6431 -4.16274 -0.332512 0
M  V30 665 N 62.0802 -0.821533 -1.34494 0
M  V30 666 C 63.0102 -0.257138 -2.3208 0
M  V30 667 C 63.9912 0.625645 -1.58176 0
M  V30 668 O 65.1762 0.552811 -1.86166 0
M  V30 669 C 62.3062 0.582958 -3.42372 0
M  V30 670 C 61.2602 -0.202571 -4.2752 0
M  V30 671 C 60.5862 0.760179 -5.29269 0
M  V30 672 C 61.8862 -1.40998 -5.02908 0
M  V30 673 H 63.5802 -1.07247 -2.79532 0
M  V30 674 H 61.1262 -0.517163 -1.34393 0
M  V30 675 H 63.0792 0.987972 -4.09655 0
M  V30 676 H 61.8032 1.43133 -2.93565 0
M  V30 677 H 60.4622 -0.588936 -3.61838 0
M  V30 678 H 60.1102 1.60447 -4.76724 0
M  V30 679 H 59.8102 0.238809 -5.87115 0
M  V30 680 H 61.3342 1.16308 -5.9942 0
M  V30 681 H 62.7482 -1.07905 -5.63054 0
M  V30 682 H 61.1452 -1.86689 -5.70322 0
M  V30 683 H 62.2152 -2.1889 -4.32684 0
M  V30 684 N 63.5583 1.46682 -0.576371 0
M  V30 685 C 64.5053 2.30241 0.160499 0
M  V30 686 C 65.4753 1.40233 0.890162 0
M  V30 687 O 66.6603 1.69186 0.882084 0
M  V30 688 C 63.8003 3.24578 1.1723 0
M  V30 689 C 62.9133 4.29684 0.446736 0
M  V30 690 C 62.0483 5.11154 1.44551 0
M  V30 691 C 61.0873 6.08015 0.70599 0
M  V30 692 N 60.2243 6.82376 1.65251 0
M  V30 693 H 65.0643 2.92727 -0.558127 0
M  V30 694 H 62.6013 1.44272 -0.287056 0
M  V30 695 H 64.5593 3.77711 1.77172 0
M  V30 696 H 63.1893 2.63916 1.85872 0
M  V30 697 H 62.2413 3.79458 -0.267594 0
M  V30 698 H 63.5533 4.98626 -0.131686 0
M  V30 699 H 62.7073 5.68533 2.11791 0
M  V30 700 H 61.4463 4.42158 2.05786 0
M  V30 701 H 60.4513 5.49796 0.0197725 0
M  V30 702 H 61.6763 6.79028 0.09912 0
M  V30 703 H 59.6223 6.16094 2.25308 0
M  V30 704 H 59.5393 7.47556 1.12673 0
M  V30 705 H 60.8073 7.44316 2.31546 0
M  V30 706 N 65.0364 0.313813 1.54444 0
M  V30 707 C 65.9684 -0.590425 2.21465 0
M  V30 708 C 66.9814 -1.08753 1.21147 0
M  V30 709 O 68.1704 -1.00278 1.4767 0
M  V30 710 C 65.2704 -1.82179 2.85769 0
M  V30 711 C 64.4434 -1.46502 4.12136 0
M  V30 712 C 63.5024 -2.55288 4.60124 0
M  V30 713 O 62.5284 -2.19842 5.25032 0
M  V30 714 N 63.7304 -3.86053 4.33525 0
M  V30 715 H 66.4954 -0.0166033 2.99695 0
M  V30 716 H 64.0564 0.136578 1.61323 0
M  V30 717 H 66.0484 -2.54328 3.14801 0
M  V30 718 H 64.6184 -2.30369 2.11303 0
M  V30 719 H 63.8384 -0.575595 3.89975 0
M  V30 720 H 65.1264 -1.20221 4.94393 0
M  V30 721 H 64.5244 -4.17654 3.81552 0
M  V30 722 H 63.0814 -4.54461 4.67235 0
M  V30 723 N 66.5145 -1.57545 0.0417849 0
M  V30 724 C 67.7615 -1.92317 -0.634082 0
M  V30 725 C 68.0895 -0.919334 -1.71402 0
M  V30 726 O 67.3445 0.0698253 -1.95575 0
M  V30 727 C 67.6435 -3.33794 -1.27735 0
M  V30 728 C 67.3095 -4.49716 -0.326543 0
M  V30 729 C 65.9715 -4.81156 -0.0648814 0
M  V30 730 C 68.3235 -5.20182 0.325623 0
M  V30 731 C 65.6515 -5.80414 0.856539 0
M  V30 732 C 68.0035 -6.20424 1.23518 0
M  V30 733 C 66.6675 -6.50298 1.5056 0
M  V30 734 H 65.9375 -0.703736 -0.232027 0
M  V30 735 H 68.5845 -1.91205 0.106259 0
M  V30 736 H 66.8895 -3.31228 -2.09274 0
M  V30 737 H 68.5865 -3.57975 -1.80707 0
M  V30 738 H 65.1765 -4.25176 -0.540665 0
M  V30 739 H 69.3605 -4.96112 0.136546 0
M  V30 740 H 64.6165 -6.019 1.07363 0
M  V30 741 H 68.7905 -6.74141 1.74664 0
M  V30 742 H 66.4175 -7.27025 2.22123 0
M  V30 743 N 67.9926 0.231505 -1.5589 0
M  V30 744 C 69.2696 0.981096 -1.69215 0
M  V30 745 C 69.6496 2.02799 -0.586164 0
M  V30 746 O 68.9976 2.24823 0.408253 0
M  V30 747 C 69.2076 1.60054 -3.10135 0
M  V30 748 C 70.5556 2.09658 -3.69227 0
M  V30 749 O 71.5796 1.69967 -3.13033 0
M  V30 750 O 70.4386 2.8258 -4.67772 0
M  V30 751 H 67.5326 0.457653 -0.688827 0
M  V30 752 H 70.0786 0.224073 -1.68214 0
M  V30 753 H 68.8506 0.844105 -3.82087 0
M  V30 754 H 68.4736 2.42336 -3.15212 0
M  V30 755 N 69.4707 1.49531 0.497807 0
M  V30 756 C 70.7167 1.59415 1.25358 0
M  V30 757 C 71.0497 0.281422 1.9215 0
M  V30 758 O 70.3247 -0.715249 1.80871 0
M  V30 759 C 70.6077 2.75566 2.3181 0
M  V30 760 C 70.4607 4.16642 1.69498 0
M  V30 761 C 71.7797 2.87347 3.33346 0
M  V30 762 H 68.8987 0.580244 0.454408 0
M  V30 763 H 71.5407 1.81827 0.551262 0
M  V30 764 H 69.6907 2.56587 2.91711 0
M  V30 765 H 71.3627 4.47145 1.13399 0
M  V30 766 H 69.6057 4.22141 0.998978 0
M  V30 767 H 70.2767 4.93792 2.46725 0
M  V30 768 H 72.7527 3.04634 2.83438 0
M  V30 769 H 71.6287 3.70289 4.05188 0
M  V30 770 H 71.8897 1.96834 3.95865 0
M  V30 771 N 70.9488 -0.749086 1.3866 0
M  V30 772 C 72.1948 -1.51056 1.35314 0
M  V30 773 C 72.5278 -1.94121 -0.0553751 0
M  V30 774 O 71.8028 -1.65763 -1.01749 0
M  V30 775 C 72.0858 -2.76003 2.31288 0
M  V30 776 C 71.9388 -2.39047 3.8102 0
M  V30 777 C 73.2578 -3.78046 2.2532 0
M  V30 778 H 70.3768 -0.547972 0.492844 0
M  V30 779 H 73.0188 -0.857628 1.69543 0
M  V30 780 H 71.1688 -3.31716 2.02229 0
M  V30 781 H 72.8408 -1.89074 4.20771 0
M  V30 782 H 71.0838 -1.71449 3.98482 0
M  V30 783 H 71.7548 -3.28462 4.4364 0
M  V30 784 H 74.2308 -3.31884 2.50983 0
M  V30 785 H 73.1068 -4.63159 2.94576 0
M  V30 786 H 73.3678 -4.23957 1.25352 0
M  V30 787 N 72.4269 -1.23603 -0.977757 0
M  V30 788 C 73.8429 -0.999251 -1.24447 0
M  V30 789 C 74.0429 0.298053 -1.99283 0
M  V30 790 O 73.0989 1.01681 -2.31122 0
M  V30 791 C 74.4119 -2.20784 -2.04144 0
M  V30 792 C 75.9599 -2.25303 -2.17273 0
M  V30 793 C 76.4349 -3.45755 -3.00362 0
M  V30 794 N 77.9259 -3.4601 -3.07947 0
M  V30 795 C 78.6609 -4.35868 -3.72568 0
M  V30 796 N 78.1569 -5.35966 -4.38991 0
M  V30 797 N 79.9499 -4.23605 -3.6948 0
M  V30 798 H 72.1009 -2.06986 -0.476483 0
M  V30 799 H 74.3639 -0.907801 -0.273134 0
M  V30 800 H 74.0699 -3.14945 -1.56533 0
M  V30 801 H 73.9439 -2.22085 -3.04891 0
M  V30 802 H 76.3309 -1.3168 -2.64092 0
M  V30 803 H 76.4119 -2.28033 -1.15907 0
M  V30 804 H 76.0559 -4.39687 -2.5424 0
M  V30 805 H 75.9859 -3.40266 -4.01904 0
M  V30 806 H 78.4769 -2.73588 -2.60688 0
M  V30 807 H 78.7899 -6.00783 -4.86086 0
M  V30 808 H 77.1349 -5.39863 -4.37691 0
M  V30 809 H 80.3259 -3.44647 -3.16759 0
M  V30 810 H 80.4989 -4.93836 -4.1956 0
M  V30 811 N 73.905 1.17692 -1.04816 0
M  V30 812 C 75.152 1.87859 -0.75599 0
M  V30 813 C 75.48 1.80812 0.716752 0
M  V30 814 O 74.735 1.20819 1.53952 0
M  V30 815 C 75.034 3.37462 -1.17703 0
M  V30 816 C 74.7 3.64713 -2.65133 0
M  V30 817 C 73.362 3.71859 -3.05408 0
M  V30 818 C 75.714 3.76492 -3.60421 0
M  V30 819 C 73.042 3.88271 -4.39843 0
M  V30 820 C 75.394 3.94421 -4.94585 0
M  V30 821 C 74.058 3.99806 -5.3452 0
M  V30 822 H 73.328 0.687425 -0.276636 0
M  V30 823 H 75.975 1.39255 -1.31455 0
M  V30 824 H 74.28 3.88097 -0.537395 0
M  V30 825 H 75.977 3.90109 -0.928218 0
M  V30 826 H 72.567 3.59772 -2.32942 0
M  V30 827 H 76.751 3.70295 -3.30447 0
M  V30 828 H 72.007 3.90687 -4.70291 0
M  V30 829 H 76.181 4.02477 -5.68318 0
M  V30 830 H 73.808 4.12276 -6.38696 0
M  V30 831 N 75.3831 0.828654 1.34056 0
M  V30 832 C 76.3461 0.259927 2.27721 0
M  V30 833 C 77.3461 -0.565478 1.50529 0
M  V30 834 O 78.5361 -0.38075 1.69988 0
M  V30 835 C 75.6681 -0.634944 3.34935 0
M  V30 836 H 76.8611 1.0863 2.79534 0
M  V30 837 H 74.4141 0.600951 1.44285 0
M  V30 838 H 75.1491 -1.48416 2.88346 0
M  V30 839 H 74.9341 -0.0444999 3.92075 0
M  V30 840 H 76.4241 -1.02648 4.04788 0
M  V30 841 N 76.8612 -1.46375 0.584142 0
M  V30 842 C 77.7932 -2.28443 -0.186119 0
M  V30 843 C 78.8062 -1.38596 -0.854115 0
M  V30 844 O 79.9952 -1.63183 -0.723438 0
M  V30 845 C 77.0952 -3.13671 -1.28311 0
M  V30 846 C 76.2682 -4.31652 -0.706758 0
M  V30 847 C 75.3272 -4.98267 -1.69163 0
M  V30 848 O 74.3532 -5.55815 -1.22712 0
M  V30 849 N 75.5552 -4.95408 -3.02575 0
M  V30 850 H 78.3202 -2.9519 0.517986 0
M  V30 851 H 75.8812 -1.56303 0.42201 0
M  V30 852 H 77.8732 -3.55101 -1.94128 0
M  V30 853 H 76.4432 -2.48989 -1.89005 0
M  V30 854 H 75.6632 -3.93989 0.128908 0
M  V30 855 H 76.9512 -5.07906 -0.301506 0
M  V30 856 H 76.3492 -4.49902 -3.42936 0
M  V30 857 H 74.9062 -5.40774 -3.63877 0
M  V30 858 N 78.3393 -0.321999 -1.54275 0
M  V30 859 C 79.2863 0.544664 -2.24281 0
M  V30 860 C 80.2563 1.1129 -1.23303 0
M  V30 861 O 81.4413 1.15354 -1.51981 0
M  V30 862 C 78.5813 1.70045 -3.00298 0
M  V30 863 C 77.6943 1.16159 -4.1609 0
M  V30 864 C 76.8293 2.28293 -4.79641 0
M  V30 865 C 75.8683 1.71648 -5.8754 0
M  V30 866 N 75.0053 2.77438 -6.44959 0
M  V30 867 H 79.8453 -0.0588907 -2.97942 0
M  V30 868 H 77.3823 -0.0408345 -1.47043 0
M  V30 869 H 79.3403 2.38054 -3.42616 0
M  V30 870 H 77.9703 2.27531 -2.28975 0
M  V30 871 H 77.0223 0.373092 -3.78566 0
M  V30 872 H 78.3343 0.707087 -4.93763 0
M  V30 873 H 77.4883 3.0421 -5.2492 0
M  V30 874 H 76.2273 2.77079 -4.01346 0
M  V30 875 H 75.2323 0.942282 -5.41665 0
M  V30 876 H 76.4573 1.23741 -6.67731 0
M  V30 877 H 74.4033 3.25519 -5.69538 0
M  V30 878 H 74.3203 2.36547 -7.1804 0
M  V30 879 H 75.5883 3.53189 -6.94894 0
M  V30 880 N 79.8174 1.5752 -0.0501392 0
M  V30 881 C 80.7804 2.1037 0.909786 0
M  V30 882 C 81.7804 1.02308 1.24056 0
M  V30 883 O 82.9704 1.28385 1.17741 0
M  V30 884 C 80.1024 2.58708 2.21998 0
M  V30 885 H 81.2954 2.96479 0.451665 0
M  V30 886 H 78.8484 1.55038 0.198248 0
M  V30 887 H 79.5834 1.75989 2.72394 0
M  V30 888 H 79.3684 3.37675 1.99295 0
M  V30 889 H 80.8584 2.99747 2.9076 0
M  V30 890 N 81.2955 -0.223234 1.56011 0
M  V30 891 C 82.5355 -0.954962 1.8072 0
M  V30 892 C 82.8995 -1.81598 0.623384 0
M  V30 893 O 84.1005 -2.58132 0.749745 0
M  V30 894 C 82.3715 -1.77313 3.10314 0
M  V30 895 S 83.9305 -2.56073 3.56332 0
M  V30 896 H 80.7485 -0.320812 0.634508 0
M  V30 897 H 83.3505 -0.220686 1.9425 0
M  V30 898 H 82.0545 -1.13071 3.94516 0
M  V30 899 H 81.5855 -2.54974 2.99586 0
M  V30 900 H 83.6005 -3.79619 3.19536 0
M  V30 901 N 82.7736 -1.49793 -0.48987 0
M  V30 902 C 83.9986 -1.63836 -1.27172 0
M  V30 903 C 84.4236 -0.31402 -1.8546 0
M  V30 904 O 83.7816 0.719803 -1.66399 0
M  V30 905 C 83.8296 -2.71797 -2.36978 0
M  V30 906 O 82.9336 -2.31744 -3.41128 0
M  V30 907 H 82.2746 -0.547997 -0.37496 0
M  V30 908 H 84.8046 -1.96053 -0.585191 0
M  V30 909 H 84.8146 -2.94305 -2.82575 0
M  V30 910 H 83.4896 -3.67923 -1.93921 0
M  V30 911 H 82.0666 -2.1961 -3.01373 0
M  V30 912 N 84.2517 0.741722 -1.39055 0
M  V30 913 C 85.1997 1.87702 -1.3737 0
M  V30 914 C 86.1937 1.67427 -0.257812 0
M  V30 915 O 87.3997 1.7485 -0.427489 0
M  V30 916 H 83.7747 0.617757 -0.428812 0
M  V30 917 H 85.7457 1.86239 -2.33147 0
M  V30 918 C 84.4947 3.25315 -1.22741 0
M  V30 919 H 83.8177 3.41509 -2.07873 0
M  V30 920 H 85.2577 4.04964 -1.25618 0
M  V30 921 C 83.7167 3.36838 0.0647316 0
M  V30 922 O 84.2467 3.88073 1.03741 0
M  V30 923 N 82.4527 2.90329 0.125544 0
M  V30 924 H 81.9997 2.48823 -0.666682 0
M  V30 925 H 81.9577 2.98418 0.989639 0
M  V30 926 N 85.7298 1.2412 0.971189 0
M  V30 927 C 86.9788 1.07284 1.70801 0
M  V30 928 C 87.2918 -0.388902 1.91695 0
M  V30 929 O 88.4978 -0.677379 2.62914 0
M  V30 930 C 86.9538 1.87145 3.07416 0
M  V30 931 C 86.5618 3.37707 2.94377 0
M  V30 932 C 88.3058 1.78828 3.84995 0
M  V30 933 C 86.2128 4.09925 4.26281 0
M  V30 934 H 85.1428 0.397854 0.64049 0
M  V30 935 H 87.7938 1.4817 1.0825 0
M  V30 936 H 86.1758 1.39071 3.70777 0
M  V30 937 H 87.3498 3.93335 2.4005 0
M  V30 938 H 85.6648 3.46938 2.30267 0
M  V30 939 H 88.2618 2.30089 4.82662 0
M  V30 940 H 88.6048 0.75284 4.09436 0
M  V30 941 H 89.1378 2.24563 3.28354 0
M  V30 942 H 85.8768 5.13813 4.07033 0
M  V30 943 H 85.3968 3.59083 4.80437 0
M  V30 944 H 87.0758 4.1673 4.94919 0
M  V30 945 N 87.2079 -1.17134 1.05439 0
M  V30 946 C 88.1579 -2.1919 0.627675 0
M  V30 947 C 89.1419 -1.57328 -0.337147 0
M  V30 948 O 90.3339 -1.76329 -0.153976 0
M  V30 949 C 87.4629 -3.43299 0.00651435 0
M  V30 950 C 86.5489 -4.12255 0.995312 0
M  V30 951 N 86.9399 -4.56997 2.16765 0
M  V30 952 C 85.2379 -4.38316 0.824336 0
M  V30 953 C 85.9389 -5.10239 2.7934 0
M  V30 954 N 84.9149 -5.02595 2.07122 0
M  V30 955 H 88.7169 -2.5149 1.52086 0
M  V30 956 H 86.2309 -1.33491 0.924868 0
M  V30 957 H 88.2279 -4.15693 -0.316965 0
M  V30 958 H 86.8879 -3.1249 -0.882033 0
M  V30 959 H 87.8989 -4.51006 2.54587 0
M  V30 960 H 84.5759 -4.17498 -0.0129526 0
M  V30 961 H 85.9659 -5.54961 3.78772 0
M  V30 962 N 88.686 -0.835752 -1.33615 0
M  V30 963 C 89.935 -0.426289 -1.97144 0
M  V30 964 C 90.248 1.01912 -1.66953 0
M  V30 965 O 91.454 1.53311 -2.24072 0
M  V30 966 C 89.91 -0.711321 -3.52801 0
M  V30 967 C 89.518 -2.1712 -3.91871 0
M  V30 968 C 91.262 -0.368654 -4.22896 0
M  V30 969 C 89.169 -2.40044 -5.40493 0
M  V30 970 H 88.099 -0.15567 -0.737755 0
M  V30 971 H 90.75 -1.0239 -1.52278 0
M  V30 972 H 89.132 -0.0433766 -3.95976 0
M  V30 973 H 90.306 -2.87936 -3.59763 0
M  V30 974 H 88.621 -2.47654 -3.34749 0
M  V30 975 H 91.218 -0.517601 -5.32189 0
M  V30 976 H 91.561 0.688078 -4.10574 0
M  V30 977 H 92.094 -0.991702 -3.8524 0
M  V30 978 H 88.833 -3.44271 -5.57815 0
M  V30 979 H 88.353 -1.73785 -5.74072 0
M  V30 980 H 90.032 -2.23042 -6.0734 0
M  V30 981 N 90.1641 1.46063 -0.591896 0
M  V30 982 C 91.0941 2.33172 0.123673 0
M  V30 983 C 92.0751 1.45897 0.87453 0
M  V30 984 O 93.2601 1.74698 0.848181 0
M  V30 985 C 90.3901 3.28336 1.13194 0
M  V30 986 C 89.3441 4.25124 0.495324 0
M  V30 987 C 88.6701 5.09863 1.61071 0
M  V30 988 C 89.9701 5.19143 -0.573425 0
M  V30 989 H 91.6641 2.93252 -0.603646 0
M  V30 990 H 89.2101 1.41014 -0.291741 0
M  V30 991 H 91.1631 3.88137 1.64097 0
M  V30 992 H 89.8871 2.66383 1.88965 0
M  V30 993 H 88.5461 3.66599 0.00729452 0
M  V30 994 H 88.1941 4.44288 2.35832 0
M  V30 995 H 87.8941 5.75417 1.19035 0
M  V30 996 H 89.4181 5.72529 2.12233 0
M  V30 997 H 90.8321 5.73106 -0.1491 0
M  V30 998 H 89.2291 5.93089 -0.914636 0
M  V30 999 H 90.2991 4.62519 -1.45617 0
M  V30 1000 N 91.6422 0.330177 1.54103 0
M  V30 1001 C 93.0582 -0.0222371 1.59585 0
M  V30 1002 C 93.2582 -1.49902 1.34654 0
M  V30 1003 O 92.3142 -2.25592 1.13421 0
M  V30 1004 C 93.6272 0.401932 2.98002 0
M  V30 1005 C 95.1752 0.353145 3.11001 0
M  V30 1006 C 95.6502 0.752576 4.51775 0
M  V30 1007 N 97.1412 0.706239 4.57784 0
M  V30 1008 C 97.8762 0.987417 5.64834 0
M  V30 1009 N 97.3722 1.33607 6.79795 0
M  V30 1010 N 99.1652 0.91254 5.54643 0
M  V30 1011 H 91.3162 1.29228 1.68564 0
M  V30 1012 H 93.5792 0.525906 0.78875 0
M  V30 1013 H 93.2852 1.4311 3.21267 0
M  V30 1014 H 93.1592 -0.229699 3.765 0
M  V30 1015 H 95.5462 -0.666822 2.87467 0
M  V30 1016 H 95.6272 1.0198 2.34593 0
M  V30 1017 H 95.2712 1.77049 4.76042 0
M  V30 1018 H 95.2012 0.0635409 5.26562 0
M  V30 1019 H 97.6922 0.44889 3.75224 0
M  V30 1020 H 98.0052 1.53582 7.57385 0
M  V30 1021 H 96.3502 1.37439 6.81275 0
M  V30 1022 H 99.5412 0.639601 4.6371 0
M  V30 1023 H 99.7142 1.13503 6.37982 0
M  V30 1024 N 93.1203 -1.57491 0.0584922 0
M  V30 1025 C 94.0503 -2.14988 -0.911178 0
M  V30 1026 C 95.0313 -1.07343 -1.31952 0
M  V30 1027 O 96.2163 -1.35318 -1.39294 0
M  V30 1028 C 93.3463 -2.70078 -2.18347 0
M  V30 1029 C 92.3003 -3.82771 -1.91495 0
M  V30 1030 C 91.6263 -4.24408 -3.25241 0
M  V30 1031 C 92.9263 -5.07592 -1.23075 0
M  V30 1032 H 94.6203 -2.96263 -0.432246 0
M  V30 1033 H 92.1663 -1.42512 -0.206469 0
M  V30 1034 H 94.1193 -3.08943 -2.86587 0
M  V30 1035 H 92.8433 -1.86005 -2.68458 0
M  V30 1036 H 91.5023 -3.44389 -1.25664 0
M  V30 1037 H 91.1503 -3.37275 -3.73168 0
M  V30 1038 H 90.8503 -5.00366 -3.08071 0
M  V30 1039 H 92.3743 -4.65879 -3.94701 0
M  V30 1040 H 93.7883 -5.43857 -1.81362 0
M  V30 1041 H 92.1853 -5.88741 -1.16207 0
M  V30 1042 H 93.2553 -4.84454 -0.207847 0
M  V30 1043 N 94.5984 0.214957 -1.56127 0
M  V30 1044 C 95.5314 1.29382 -1.87977 0
M  V30 1045 C 96.5094 1.44897 -0.737807 0
M  V30 1046 O 97.6934 1.60605 -0.986833 0
M  V30 1047 C 94.8204 2.66325 -2.09258 0
M  V30 1048 C 93.8664 2.67789 -3.31951 0
M  V30 1049 S 94.6994 2.21198 -4.8768 0
M  V30 1050 C 95.8554 3.60003 -5.12004 0
M  V30 1051 H 96.0884 1.02173 -2.79192 0
M  V30 1052 H 93.6214 0.417516 -1.48648 0
M  V30 1053 H 95.5794 3.45162 -2.22201 0
M  V30 1054 H 94.2404 2.90755 -1.18829 0
M  V30 1055 H 93.4334 3.68436 -3.43906 0
M  V30 1056 H 93.0354 1.9702 -3.17898 0
M  V30 1057 H 95.3274 4.55739 -5.01307 0
M  V30 1058 H 96.2704 3.52959 -6.13861 0
M  V30 1059 H 96.6784 3.53996 -4.39712 0
M  V30 1060 N 96.0765 1.50051 0.48192 0
M  V30 1061 C 97.4925 1.37237 0.814756 0
M  V30 1062 C 97.6925 0.420109 1.97072 0
M  V30 1063 O 96.7485 -0.141246 2.52105 0
M  V30 1064 C 98.0615 2.78375 1.13701 0
M  V30 1065 C 99.6095 2.87213 1.2441 0
M  V30 1066 C 100.084 4.29161 1.59954 0
M  V30 1067 N 101.575 4.32061 1.66967 0
M  V30 1068 C 102.31 5.38879 1.95952 0
M  V30 1069 N 101.806 6.55918 2.23031 0
M  V30 1070 N 103.599 5.26312 1.97363 0
M  V30 1071 H 95.7505 2.10546 -0.28005 0
M  V30 1072 H 98.0135 0.945921 -0.0627454 0
M  V30 1073 H 97.7195 3.49845 0.360787 0
M  V30 1074 H 97.5935 3.14941 2.07586 0
M  V30 1075 H 99.9805 2.15969 2.01101 0
M  V30 1076 H 100.061 2.54204 0.285299 0
M  V30 1077 H 99.7055 5.00938 0.838067 0
M  V30 1078 H 99.6355 4.59648 2.56966 0
M  V30 1079 H 102.126 3.47661 1.48123 0
M  V30 1080 H 102.439 7.33139 2.44391 0
M  V30 1081 H 100.784 6.59112 2.20447 0
M  V30 1082 H 103.975 4.33876 1.75697 0
M  V30 1083 H 104.148 6.09649 2.19618 0
M  V30 1084 N 97.5546 -0.734337 1.39446 0
M  V30 1085 C 98.4646 -1.87879 1.40495 0
M  V30 1086 C 99.4806 -1.714 0.299672 0
M  V30 1087 O 100.657 -1.93991 0.541249 0
M  V30 1088 C 97.7216 -3.23477 1.24754 0
M  V30 1089 C 96.7826 -3.52344 2.45259 0
M  V30 1090 C 96.0156 -4.81473 2.30259 0
M  V30 1091 O 96.2386 -5.55237 1.30643 0
M  V30 1092 O 95.1726 -5.10254 3.19256 0
M  V30 1093 H 98.9986 -1.89949 2.36966 0
M  V30 1094 H 96.5836 -0.882243 1.20569 0
M  V30 1095 H 98.4656 -4.04509 1.18111 0
M  V30 1096 H 97.1406 -3.22176 0.313781 0
M  V30 1097 H 96.0476 -2.71396 2.57478 0
M  V30 1098 H 97.3806 -3.58426 3.37331 0
M  V30 1099 N 99.0327 -1.24633 -0.964593 0
M  V30 1100 C 99.9647 -0.999302 -2.06268 0
M  V30 1101 C 100.978 0.0323226 -1.62768 0
M  V30 1102 O 102.167 -0.205079 -1.77318 0
M  V30 1103 C 99.2667 -0.486816 -3.35385 0
M  V30 1104 C 98.4397 -1.5823 -4.07777 0
M  V30 1105 C 97.4987 -1.07191 -5.15166 0
M  V30 1106 O 96.5247 -1.76426 -5.41168 0
M  V30 1107 N 97.7267 0.0920373 -5.80427 0
M  V30 1108 H 100.492 -1.94477 -2.28033 0
M  V30 1109 H 98.0527 -1.15704 -1.13244 0
M  V30 1110 H 100.045 -0.130066 -4.04491 0
M  V30 1111 H 98.6147 0.364459 -3.10468 0
M  V30 1112 H 97.8347 -2.11109 -3.32906 0
M  V30 1113 H 99.1227 -2.31854 -4.52903 0
M  V30 1114 H 98.5207 0.670784 -5.61709 0
M  V30 1115 H 97.0777 0.389905 -6.50633 0
M  V30 1116 N 100.511 1.16574 -1.06058 0
M  V30 1117 C 101.759 1.86677 -0.77434 0
M  V30 1118 C 102.08 1.81959 0.701147 0
M  V30 1119 O 101.35 1.2515 1.50713 0
M  V30 1120 H 99.9298 0.691134 -0.283449 0
M  V30 1121 H 102.592 1.41378 -1.34158 0
M  V30 1122 H 101.688 2.92181 -1.09711 0
M  V30 1123 N 101.989 0.842826 1.3317 0
M  V30 1124 C 103.235 0.441099 1.97945 0
M  V30 1125 C 103.568 -0.998024 1.66593 0
M  V30 1126 O 102.843 -1.69839 0.947898 0
M  V30 1127 C 103.126 0.666841 3.53872 0
M  V30 1128 C 102.979 2.15352 3.94897 0
M  V30 1129 C 104.298 0.115544 4.39948 0
M  V30 1130 H 101.417 0.161739 0.719034 0
M  V30 1131 H 104.059 1.05907 1.57746 0
M  V30 1132 H 102.209 0.140828 3.88245 0
M  V30 1133 H 103.881 2.7447 3.70761 0
M  V30 1134 H 102.124 2.63653 3.44484 0
M  V30 1135 H 102.795 2.26221 5.03516 0
M  V30 1136 H 105.271 0.565213 4.12243 0
M  V30 1137 H 104.147 0.303152 5.48062 0
M  V30 1138 H 104.408 -0.980935 4.3108 0
M  V30 1139 N 103.467 -1.45747 0.599634 0
M  V30 1140 C 104.414 -2.30467 -0.123849 0
M  V30 1141 C 105.384 -1.41632 -0.86774 0
M  V30 1142 O 106.569 -1.70568 -0.855056 0
M  V30 1143 C 103.709 -3.26402 -1.12051 0
M  V30 1144 C 102.822 -4.3034 -0.37832 0
M  V30 1145 C 101.957 -5.13389 -1.364 0
M  V30 1146 C 100.996 -6.09061 -0.609171 0
M  V30 1147 N 100.133 -6.84918 -1.54374 0
M  V30 1148 H 104.973 -2.91802 0.604627 0
M  V30 1149 H 102.51 -1.43797 0.309972 0
M  V30 1150 H 104.468 -3.80482 -1.7114 0
M  V30 1151 H 103.098 -2.66839 -1.8165 0
M  V30 1152 H 102.15 -3.78984 0.327929 0
M  V30 1153 H 103.462 -4.98354 0.210997 0
M  V30 1154 H 102.616 -5.7183 -2.02719 0
M  V30 1155 H 101.355 -4.45376 -1.98725 0
M  V30 1156 H 100.36 -5.49758 0.0676979 0
M  V30 1157 H 101.585 -6.79099 0.00891991 0
M  V30 1158 H 99.531 -6.19601 -2.15478 0
M  V30 1159 H 99.448 -7.49254 -1.00766 0
M  V30 1160 H 100.716 -7.47906 -2.19676 0
M  V30 1161 N 104.945 -0.338344 -1.53925 0
M  V30 1162 C 106.191 0.260143 -2.01125 0
M  V30 1163 C 106.524 1.50617 -1.22589 0
M  V30 1164 O 105.799 1.91979 -0.312113 0
M  V30 1165 C 106.082 0.579499 -3.55407 0
M  V30 1166 C 105.935 -0.678264 -4.44657 0
M  V30 1167 C 107.254 1.39122 -4.17532 0
M  V30 1168 H 104.373 0.0930772 -0.731099 0
M  V30 1169 H 107.015 -0.457852 -1.84401 0
M  V30 1170 H 105.165 1.19118 -3.69788 0
M  V30 1171 H 106.837 -1.31631 -4.42121 0
M  V30 1172 H 105.08 -1.3042 -4.13731 0
M  V30 1173 H 105.751 -0.410143 -5.50474 0
M  V30 1174 H 108.227 0.874035 -4.06817 0
M  V30 1175 H 107.103 1.58342 -5.25565 0
M  V30 1176 H 107.364 2.39178 -3.71815 0
M  V30 1177 N 106.423 1.57458 -0.0668435 0
M  V30 1178 C 107.7 1.8469 0.644132 0
M  V30 1179 C 108.08 0.958343 1.88093 0
M  V30 1180 O 107.428 0.0233579 2.28488 0
M  V30 1181 C 107.638 3.34767 0.986509 0
M  V30 1182 C 108.986 4.02159 1.36212 0
M  V30 1183 O 110.01 3.39484 1.07839 0
M  V30 1184 O 108.869 5.12694 1.89227 0
M  V30 1185 H 105.963 0.762816 0.319437 0
M  V30 1186 H 108.509 1.6942 -0.0973986 0
M  V30 1187 H 107.281 3.91151 0.107883 0
M  V30 1188 H 106.904 3.55281 1.78497 0
M  V30 1189 N 107.901 -0.206675 1.56239 0
M  V30 1190 C 109.126 -0.949474 1.8439 0
M  V30 1191 C 109.551 -1.76549 0.649016 0
M  V30 1192 O 108.909 -1.76782 -0.402231 0
M  V30 1193 C 108.957 -1.83078 3.10668 0
M  V30 1194 O 108.061 -2.9281 2.90407 0
M  V30 1195 H 107.402 -0.268033 0.607499 0
M  V30 1196 H 109.932 -0.215488 2.03462 0
M  V30 1197 H 109.942 -2.2377 3.41161 0
M  V30 1198 H 108.617 -1.23112 3.97261 0
M  V30 1199 H 107.194 -2.55956 2.71184 0
M  V30 1200 N 109.379 -1.50304 -0.473955 0
M  V30 1201 C 110.625 -1.61389 -1.22806 0
M  V30 1202 C 110.958 -0.311955 -1.91678 0
M  V30 1203 O 110.233 0.686384 -1.81986 0
M  V30 1204 C 110.516 -2.79219 -2.27396 0
M  V30 1205 C 110.369 -4.19286 -1.62848 0
M  V30 1206 C 111.688 -2.92614 -3.28732 0
M  V30 1207 H 108.807 -0.587399 -0.445119 0
M  V30 1208 H 111.449 -1.82681 -0.522265 0
M  V30 1209 H 109.599 -2.61195 -2.87592 0
M  V30 1210 H 111.271 -4.48892 -1.06271 0
M  V30 1211 H 109.514 -4.23677 -0.931693 0
M  V30 1212 H 110.185 -4.97655 -2.38838 0
M  V30 1213 H 112.661 -3.09105 -2.78556 0
M  V30 1214 H 111.537 -3.76688 -3.99246 0
M  V30 1215 H 111.798 -2.03107 -3.92683 0
M  V30 1216 N 110.857 0.726932 -1.39834 0
M  V30 1217 C 112.082 1.52121 -1.40976 0
M  V30 1218 C 112.507 1.88098 -0.00826029 0
M  V30 1219 O 111.865 1.52479 0.980807 0
M  V30 1220 C 111.913 2.78021 -2.29644 0
M  V30 1221 O 111.017 3.74272 -1.73188 0
M  V30 1222 H 110.358 0.45908 -0.479731 0
M  V30 1223 H 112.888 0.896207 -1.83927 0
M  V30 1224 H 112.898 3.26671 -2.44438 0
M  V30 1225 H 111.573 2.51169 -3.31492 0
M  V30 1226 H 110.15 3.33073 -1.6768 0
M  V30 1227 N 112.336 1.25143 0.95797 0
M  V30 1228 C 113.266 1.07711 2.07173 0
M  V30 1229 C 114.247 -0.0128462 1.70095 0
M  V30 1230 O 115.432 0.156061 1.93572 0
M  V30 1231 C 112.562 0.691503 3.40346 0
M  V30 1232 C 111.516 1.73132 3.9142 0
M  V30 1233 C 110.842 1.20049 5.21049 0
M  V30 1234 C 112.142 3.1294 4.1817 0
M  V30 1235 H 113.836 2.00873 2.22014 0
M  V30 1236 H 111.382 0.967191 1.06684 0
M  V30 1237 H 113.335 0.556505 4.17709 0
M  V30 1238 H 112.059 -0.275819 3.25433 0
M  V30 1239 H 110.718 1.8547 3.16222 0
M  V30 1240 H 110.366 0.223499 5.02503 0
M  V30 1241 H 110.066 1.89545 5.56189 0
M  V30 1242 H 111.59 1.07782 6.01012 0
M  V30 1243 H 113.004 3.03775 4.86203 0
M  V30 1244 H 111.401 3.79875 4.64559 0
M  V30 1245 H 112.471 3.6025 3.24573 0
M  V30 1246 N 113.814 -1.1601 1.06675 0
M  V30 1247 C 115.062 -1.86264 0.784229 0
M  V30 1248 C 115.383 -1.82328 -0.691488 0
M  V30 1249 O 114.653 -1.25947 -1.50047 0
M  V30 1250 H 113.233 -0.689621 0.28711 0
M  V30 1251 H 115.895 -1.40664 1.34906 0
M  V30 1252 H 114.991 -2.91595 1.11259 0
M  V30 1253 N 115.292 -0.849877 -1.32721 0
M  V30 1254 C 116.202 -0.293791 -2.32753 0
M  V30 1255 C 117.218 0.585906 -1.63839 0
M  V30 1256 O 118.394 0.487413 -1.95413 0
M  V30 1257 C 115.459 0.512752 -3.42887 0
M  V30 1258 C 114.52 -0.39252 -4.27502 0
M  V30 1259 C 113.753 0.375625 -5.32377 0
M  V30 1260 O 113.976 1.60613 -5.4732 0
M  V30 1261 O 112.91 -0.256094 -6.01355 0
M  V30 1262 H 116.736 -1.12242 -2.82197 0
M  V30 1263 H 114.321 -0.612685 -1.36259 0
M  V30 1264 H 116.203 0.970704 -4.10067 0
M  V30 1265 H 114.878 1.31826 -2.95641 0
M  V30 1266 H 113.785 -0.898547 -3.63149 0
M  V30 1267 H 115.118 -1.16309 -4.7826 0
M  V30 1268 N 116.77 1.45427 -0.607355 0
M  V30 1269 C 118.019 2.01452 -0.100036 0
M  V30 1270 C 118.332 1.48159 1.27704 0
M  V30 1271 O 119.538 1.96159 1.87707 0
M  V30 1272 C 117.994 3.59672 -0.128158 0
M  V30 1273 C 117.602 4.21962 -1.50507 0
M  V30 1274 C 119.346 4.23262 0.323932 0
M  V30 1275 C 117.253 5.72333 -1.48959 0
M  V30 1276 H 116.183 0.75325 -0.0336299 0
M  V30 1277 H 118.834 1.66901 -0.76265 0
M  V30 1278 H 117.216 3.91411 0.601105 0
M  V30 1279 H 118.39 4.01796 -2.25602 0
M  V30 1280 H 116.705 3.70565 -1.89923 0
M  V30 1281 H 119.302 5.33522 0.354691 0
M  V30 1282 H 119.645 3.93921 1.34656 0
M  V30 1283 H 120.178 3.96239 -0.352056 0
M  V30 1284 H 116.917 6.06373 -2.48981 0
M  V30 1285 H 116.437 5.94691 -0.781214 0
M  V30 1286 H 118.116 6.35525 -1.21313 0
M  V30 1287 N 118.248 0.346503 1.53744 0
M  V30 1288 C 119.158 -0.517293 2.28826 0
M  V30 1289 C 120.174 -1.10935 1.3405 0
M  V30 1290 O 121.35 -1.1244 1.6709 0
M  V30 1291 C 118.415 -1.65098 3.04866 0
M  V30 1292 C 117.476 -1.0884 4.15274 0
M  V30 1293 C 116.709 -2.16806 4.87679 0
M  V30 1294 O 116.932 -3.3758 4.59778 0
M  V30 1295 O 115.866 -1.80934 5.74061 0
M  V30 1296 H 119.692 0.0931396 3.03557 0
M  V30 1297 H 117.277 0.111458 1.48984 0
M  V30 1298 H 119.159 -2.31053 3.5241 0
M  V30 1299 H 117.834 -2.24717 2.32989 0
M  V30 1300 H 116.741 -0.3933 3.72027 0
M  V30 1301 H 118.074 -0.537036 4.89261 0
M  V30 1302 N 119.726 -1.57421 0.075193 0
M  V30 1303 C 121.142 -1.57099 -0.281444 0
M  V30 1304 C 121.342 -1.08486 -1.69803 0
M  V30 1305 O 120.398 -0.752279 -2.41033 0
M  V30 1306 C 121.711 -3.00571 -0.0880041 0
M  V30 1307 C 123.259 -3.12605 -0.157281 0
M  V30 1308 C 123.734 -4.57999 0.0079207 0
M  V30 1309 N 125.225 -4.63176 -0.0475725 0
M  V30 1310 C 125.96 -5.73373 0.0557876 0
M  V30 1311 N 125.456 -6.92473 0.21286 0
M  V30 1312 N 127.249 -5.621 -0.00152098 0
M  V30 1313 H 119.4 -1.87335 1.00098 0
M  V30 1314 H 121.663 -0.86377 0.390646 0
M  V30 1315 H 121.369 -3.40262 0.889629 0
M  V30 1316 H 121.243 -3.67754 -0.838875 0
M  V30 1317 H 123.63 -2.72798 -1.1254 0
M  V30 1318 H 123.711 -2.48053 0.62475 0
M  V30 1319 H 123.355 -4.98496 0.972824 0
M  V30 1320 H 123.285 -5.20586 -0.793556 0
M  V30 1321 H 125.776 -3.7753 -0.167244 0
M  V30 1322 H 126.089 -7.72279 0.283781 0
M  V30 1323 H 124.434 -6.94556 0.248267 0
M  V30 1324 H 127.625 -4.67938 -0.122958 0
M  V30 1325 H 127.798 -6.47948 0.0824844 0
M  V30 1326 N 121.204 0.198386 -1.56346 0
M  V30 1327 C 122.167 1.22952 -1.93431 0
M  V30 1328 C 123.167 1.38611 -0.815092 0
M  V30 1329 O 124.357 1.36479 -1.08255 0
M  V30 1330 C 121.489 2.59946 -2.20546 0
M  V30 1331 H 122.682 0.912626 -2.85677 0
M  V30 1332 H 120.235 0.43977 -1.49986 0
M  V30 1333 H 120.97 2.96696 -1.30927 0
M  V30 1334 H 120.755 2.49953 -3.02102 0
M  V30 1335 H 122.245 3.3431 -2.50253 0
M  V30 1336 N 122.682 1.50554 0.465978 0
M  V30 1337 C 123.612 1.72722 1.57128 0
M  V30 1338 C 124.593 0.576294 1.6004 0
M  V30 1339 O 125.778 0.81598 1.76225 0
M  V30 1340 C 122.908 1.82605 2.95419 0
M  V30 1341 C 121.862 2.97835 3.07373 0
M  V30 1342 C 121.188 2.92867 4.47363 0
M  V30 1343 C 122.488 4.38265 2.84114 0
M  V30 1344 H 124.182 2.65267 1.38829 0
M  V30 1345 H 121.728 1.2765 0.666441 0
M  V30 1346 H 123.681 1.96698 3.72677 0
M  V30 1347 H 122.405 0.866858 3.14886 0
M  V30 1348 H 121.064 2.83401 2.3255 0
M  V30 1349 H 120.712 1.94783 4.63755 0
M  V30 1350 H 120.412 3.70227 4.56296 0
M  V30 1351 H 121.936 3.09015 5.26633 0
M  V30 1352 H 123.35 4.53198 3.51118 0
M  V30 1353 H 121.747 5.17115 3.04487 0
M  V30 1354 H 122.817 4.50281 1.7993 0
M  V30 1355 N 124.16 -0.719506 1.40217 0
M  V30 1356 C 125.123 -1.8153 1.39927 0
M  V30 1357 C 126.123 -1.58095 0.293723 0
M  V30 1358 O 127.313 -1.65209 0.552429 0
M  V30 1359 C 124.445 -3.19561 1.18716 0
M  V30 1360 H 125.638 -1.83186 2.37451 0
M  V30 1361 H 123.191 -0.924746 1.26008 0
M  V30 1362 H 123.926 -3.23557 0.219366 0
M  V30 1363 H 123.711 -3.3797 1.98793 0
M  V30 1364 H 125.201 -3.99598 1.21291 0
M  V30 1365 N 125.638 -1.25649 -0.95132 0
M  V30 1366 C 126.601 -1.06399 -2.03007 0
M  V30 1367 C 127.601 -0.0156794 -1.60792 0
M  V30 1368 O 128.791 -0.25817 -1.72276 0
M  V30 1369 C 125.923 -0.616184 -3.35285 0
M  V30 1370 H 127.116 -2.02164 -2.21517 0
M  V30 1371 H 124.669 -1.08103 -1.12887 0
M  V30 1372 H 125.404 0.343917 -3.22471 0
M  V30 1373 H 125.189 -1.37301 -3.67275 0
M  V30 1374 H 126.679 -0.503032 -4.14559 0
M  V30 1375 N 127.117 1.15442 -1.07289 0
M  V30 1376 C 128.365 1.85845 -0.794096 0
M  V30 1377 C 128.686 1.82692 0.681809 0
M  V30 1378 O 127.956 1.26741 1.49377 0
M  V30 1379 H 126.536 0.688089 -0.290763 0
M  V30 1380 H 129.198 1.39947 -1.3565 0
M  V30 1381 H 128.294 2.91001 -1.12804 0
M  V30 1382 N 128.595 0.856903 1.32268 0
M  V30 1383 C 129.825 0.47475 2.01071 0
M  V30 1384 C 130.233 -0.933746 1.64553 0
M  V30 1385 O 129.576 -1.62114 0.863989 0
M  V30 1386 C 129.638 0.536746 3.55471 0
M  V30 1387 C 129.302 1.90453 4.15423 0
M  V30 1388 C 130.299 2.87029 4.33486 0
M  V30 1389 C 127.984 2.20229 4.51447 0
M  V30 1390 C 129.978 4.11532 4.86744 0
M  V30 1391 C 127.665 3.44984 5.0441 0
M  V30 1392 C 128.663 4.40452 5.22007 0
M  V30 1393 O 128.351 5.62998 5.73837 0
M  V30 1394 H 128.083 0.184778 0.650256 0
M  V30 1395 H 130.637 1.15615 1.69771 0
M  V30 1396 H 128.867 -0.20152 3.86175 0
M  V30 1397 H 130.556 0.169875 4.05544 0
M  V30 1398 H 131.322 2.6533 4.05986 0
M  V30 1399 H 127.201 1.46705 4.37034 0
M  V30 1400 H 130.745 4.86056 5.00395 0
M  V30 1401 H 126.642 3.66532 5.31342 0
M  V30 1402 H 127.41 5.64987 5.92226 0
M  V30 1403 N 130.073 -1.45103 0.615059 0
M  V30 1404 C 131.021 -2.32331 -0.111791 0
M  V30 1405 C 132.015 -1.46409 -0.852102 0
M  V30 1406 O 133.221 -1.62849 -0.766821 0
M  V30 1407 H 129.596 -0.749993 -0.0549072 0
M  V30 1408 H 131.567 -2.91407 0.642225 0
M  V30 1409 C 130.316 -3.3015 -1.09071 0
M  V30 1410 H 129.639 -3.96265 -0.530485 0
M  V30 1411 H 131.079 -3.93898 -1.56908 0
M  V30 1412 C 129.538 -2.57875 -2.168 0
M  V30 1413 O 130.068 -2.36567 -3.24652 0
M  V30 1414 N 128.274 -2.17884 -1.92289 0
M  V30 1415 H 127.821 -2.35413 -1.04587 0
M  V30 1416 H 127.779 -1.6985 -2.64572 0
M  V30 1417 N 131.551 -0.354651 -1.53558 0
M  V30 1418 C 132.962 0.126902 -1.86268 0
M  V30 1419 C 133.313 1.49075 -1.27558 0
M  V30 1420 O 132.438 2.08105 -0.5934 0
M  V30 1421 C 133.033 0.237046 -3.3797 0
M  V30 1422 C 131.592 0.662842 -3.70518 0
M  V30 1423 C 130.739 -0.196652 -2.76602 0
M  V30 1424 H 133.69 -0.573849 -1.47962 0
M  V30 1425 H 133.711 1.06259 -3.65362 0
M  V30 1426 H 133.223 -0.755725 -3.80671 0
M  V30 1427 H 131.324 1.66424 -3.33367 0
M  V30 1428 H 131.437 0.445034 -4.77029 0
M  V30 1429 H 129.801 0.332763 -2.52517 0
M  V30 1430 H 130.584 -1.18676 -3.22135 0
M  V30 1431 N 133.029 1.57378 -0.0835403 0
M  V30 1432 C 133.961 2.10389 0.909338 0
M  V30 1433 C 134.974 1.03858 1.25369 0
M  V30 1434 O 136.163 1.31338 1.20882 0
M  V30 1435 C 133.263 2.55908 2.2218 0
M  V30 1436 C 132.436 3.86145 2.05453 0
M  V30 1437 C 131.495 4.17633 3.20108 0
M  V30 1438 O 130.521 4.87043 2.94581 0
M  V30 1439 N 131.723 3.72113 4.45547 0
M  V30 1440 H 134.488 2.962 0.456657 0
M  V30 1441 H 132.049 1.61579 0.101877 0
M  V30 1442 H 134.041 2.74027 2.97811 0
M  V30 1443 H 132.611 1.75171 2.58909 0
M  V30 1444 H 131.831 3.7729 1.1422 0
M  V30 1445 H 133.119 4.7137 1.91541 0
M  V30 1446 H 132.517 3.16062 4.69171 0
M  V30 1447 H 131.074 3.95409 5.18165 0
M  V30 1448 N 134.507 -0.190092 1.56449 0
M  V30 1449 C 135.735 -0.925772 1.85033 0
M  V30 1450 C 136.15 -1.76638 0.666658 0
M  V30 1451 O 135.507 -1.78822 -0.364565 0
M  V30 1452 C 135.558 -1.81786 3.12468 0
M  V30 1453 O 135.279 -1.01118 4.26271 0
M  V30 1454 C 136.78 -2.6648 3.54265 0
M  V30 1455 H 134 -0.269872 0.614337 0
M  V30 1456 H 136.544 -0.195837 2.0356 0
M  V30 1457 H 134.699 -2.50136 2.95822 0
M  V30 1458 H 135.113 -1.61956 4.98869 0
M  V30 1459 H 136.587 -3.24722 4.46385 0
M  V30 1460 H 137.064 -3.40434 2.77491 0
M  V30 1461 H 137.67 -2.03493 3.73458 0
M  V30 1462 N 135.985 -1.50799 -0.457987 0
M  V30 1463 C 136.935 -1.67003 -1.55222 0
M  V30 1464 C 137.919 -0.52434 -1.52117 0
M  V30 1465 O 139.111 -0.779345 -1.58919 0
M  V30 1466 C 136.24 -1.77956 -2.93576 0
M  V30 1467 C 135.326 -2.98243 -3.01516 0
M  V30 1468 N 135.717 -4.21732 -2.79241 0
M  V30 1469 C 134.015 -2.97072 -3.32662 0
M  V30 1470 C 134.716 -5.02817 -2.92489 0
M  V30 1471 N 133.692 -4.37038 -3.23262 0
M  V30 1472 H 137.494 -2.60163 -1.36721 0
M  V30 1473 H 135.008 -1.48163 -0.664952 0
M  V30 1474 H 137.005 -1.87671 -3.72271 0
M  V30 1475 H 135.665 -0.859634 -3.13114 0
M  V30 1476 H 136.676 -4.51016 -2.54567 0
M  V30 1477 H 133.353 -2.14631 -3.58106 0
M  V30 1478 H 134.743 -6.11054 -2.79396 0
M  V30 1479 N 137.463 0.71206 -1.40597 0
M  V30 1480 C 138.874 1.29135 -1.34837 0
M  V30 1481 C 139.225 1.96186 -0.0235395 0
M  V30 1482 O 138.35 1.97768 0.878444 0
M  V30 1483 C 138.945 2.34827 -2.44217 0
M  V30 1484 C 137.504 2.88371 -2.41907 0
M  V30 1485 C 136.651 1.62202 -2.24913 0
M  V30 1486 H 139.602 0.507944 -1.50352 0
M  V30 1487 H 139.623 3.15749 -2.12327 0
M  V30 1488 H 139.135 1.85996 -3.40627 0
M  V30 1489 H 137.236 3.41422 -1.49204 0
M  V30 1490 H 137.349 3.39925 -3.37621 0
M  V30 1491 H 135.713 1.874 -1.72492 0
M  V30 1492 H 136.496 1.15391 -3.23326 0
M  V30 1493 N 138.941 1.26152 0.944643 0
M  V30 1494 C 140.218 1.02247 1.66748 0
M  V30 1495 C 140.598 -0.448202 2.06287 0
M  V30 1496 O 139.946 -1.42779 1.78399 0
M  V30 1497 C 140.156 1.96788 2.88228 0
M  V30 1498 C 141.504 2.25201 3.59958 0
M  V30 1499 O 142.528 1.94626 2.98327 0
M  V30 1500 O 141.387 2.77242 4.70956 0
M  V30 1501 H 138.481 0.388517 0.730057 0
M  V30 1502 H 141.027 1.37348 0.99668 0
M  V30 1503 H 139.799 2.96047 2.55875 0
M  V30 1504 H 139.422 1.62145 3.63035 0
M  V30 1505 N 140.419 -1.14872 1.07899 0
M  V30 1506 C 141.696 -1.81928 0.71845 0
M  V30 1507 C 142.076 -1.95417 -0.798455 0
M  V30 1508 O 141.424 -1.50997 -1.715 0
M  V30 1509 C 141.634 -3.17937 1.43935 0
M  V30 1510 C 142.982 -3.93501 1.59506 0
M  V30 1511 O 144.006 -3.27509 1.40058 0
M  V30 1512 O 142.865 -5.1183 1.91551 0
M  V30 1513 H 139.959 -0.78628 0.256305 0
M  V30 1514 H 142.505 -1.21934 1.18026 0
M  V30 1515 H 141.277 -3.0325 2.47295 0
M  V30 1516 H 140.9 -3.85619 0.968687 0
M  V30 1517 N 141.898 -0.863906 -1.31812 0
M  V30 1518 C 143.147 -0.46801 -1.96195 0
M  V30 1519 C 143.46 0.983474 -1.69077 0
M  V30 1520 O 144.666 1.48523 -2.27273 0
M  V30 1521 C 143.122 -0.785995 -3.51212 0
M  V30 1522 C 142.73 -2.25383 -3.87178 0
M  V30 1523 C 144.474 -0.458274 -4.22019 0
M  V30 1524 C 142.381 -2.51455 -5.3528 0
M  V30 1525 H 141.311 -0.171283 -0.734287 0
M  V30 1526 H 143.962 -1.05597 -1.50072 0
M  V30 1527 H 142.344 -0.127359 -3.95795 0
M  V30 1528 H 143.518 -2.95502 -3.53575 0
M  V30 1529 H 141.833 -2.54698 -3.2942 0
M  V30 1530 H 144.43 -0.630369 -5.30971 0
M  V30 1531 H 144.773 0.600834 -4.11941 0
M  V30 1532 H 145.306 -1.07319 -3.8305 0
M  V30 1533 H 142.045 -3.56025 -5.50387 0
M  V30 1534 H 141.565 -1.85923 -5.70257 0
M  V30 1535 H 143.244 -2.35874 -6.02472 0
M  V30 1536 N 143.376 1.44774 -0.622745 0
M  V30 1537 C 144.622 2.0242 -0.124083 0
M  V30 1538 C 144.955 1.4881 1.24777 0
M  V30 1539 O 144.23 0.668799 1.8264 0
M  V30 1540 C 144.513 3.59957 -0.101619 0
M  V30 1541 C 144.366 4.23867 -1.50521 0
M  V30 1542 C 145.685 4.36284 0.578272 0
M  V30 1543 H 142.804 0.735528 -0.0465645 0
M  V30 1544 H 145.446 1.72447 -0.797617 0
M  V30 1545 H 143.596 3.85623 0.471934 0
M  V30 1546 H 145.268 4.09336 -2.12701 0
M  V30 1547 H 143.511 3.81684 -2.06154 0
M  V30 1548 H 144.182 5.32843 -1.4416 0
M  V30 1549 H 146.658 4.16001 0.0906057 0
M  V30 1550 H 145.534 5.46004 0.563149 0
M  V30 1551 H 145.795 4.10271 1.64713 0
M  V30 1552 N 144.854 0.36279 1.53368 0
M  V30 1553 C 146.101 -0.227776 2.01215 0
M  V30 1554 C 146.429 -1.49003 1.25014 0
M  V30 1555 O 145.684 -1.92876 0.331236 0
M  V30 1556 C 145.983 -0.568417 3.52851 0
M  V30 1557 C 145.649 0.59918 4.46901 0
M  V30 1558 C 144.311 0.919559 4.72332 0
M  V30 1559 C 146.663 1.38156 5.02556 0
M  V30 1560 C 143.991 2.02434 5.5067 0
M  V30 1561 C 146.343 2.47674 5.821 0
M  V30 1562 C 145.007 2.8025 6.05819 0
M  V30 1563 H 144.277 -0.083349 0.736297 0
M  V30 1564 H 146.924 0.494677 1.85001 0
M  V30 1565 H 145.229 -1.37185 3.66998 0
M  V30 1566 H 146.926 -1.03756 3.87344 0
M  V30 1567 H 143.516 0.339437 4.27254 0
M  V30 1568 H 147.7 1.14729 4.82857 0
M  V30 1569 H 142.956 2.28075 5.67267 0
M  V30 1570 H 147.13 3.08716 6.24234 0
M  V30 1571 H 144.757 3.65979 6.66306 0
M  V30 1572 N 146.332 -1.57332 0.0918853 0
M  V30 1573 C 147.56 -1.98574 -0.581048 0
M  V30 1574 C 147.975 -0.970903 -1.61923 0
M  V30 1575 O 147.332 0.0399054 -1.82456 0
M  V30 1576 C 147.383 -3.39872 -1.23164 0
M  V30 1577 O 147.104 -4.37469 -0.234989 0
M  V30 1578 C 148.605 -3.96099 -1.99049 0
M  V30 1579 H 145.825 -0.65261 -0.156018 0
M  V30 1580 H 148.369 -2.0379 0.170225 0
M  V30 1581 H 146.524 -3.35679 -1.93386 0
M  V30 1582 H 146.938 -5.19751 -0.70418 0
M  V30 1583 H 148.412 -4.97127 -2.39934 0
M  V30 1584 H 148.889 -3.3374 -2.85507 0
M  V30 1585 H 149.495 -4.03755 -1.3365 0
M  V30 1586 N 147.81 0.181792 -1.56548 0
M  V30 1587 C 148.773 1.20894 -1.94724 0
M  V30 1588 C 149.773 1.37738 -0.829747 0
M  V30 1589 O 150.963 1.35323 -1.09697 0
M  V30 1590 C 148.095 2.57593 -2.23291 0
M  V30 1591 H 149.288 0.882275 -2.86629 0
M  V30 1592 H 146.841 0.423838 -1.50444 0
M  V30 1593 H 147.576 2.95291 -1.34067 0
M  V30 1594 H 147.361 2.46735 -3.04736 0
M  V30 1595 H 148.851 3.31637 -2.53785 0
M  V30 1596 N 149.288 1.51039 0.449983 0
M  V30 1597 C 150.565 1.53612 1.21089 0
M  V30 1598 C 150.945 0.292997 2.09057 0
M  V30 1599 O 150.293 -0.72259 2.16774 0
M  V30 1600 C 150.503 2.84337 2.0237 0
M  V30 1601 C 151.851 3.35807 2.59843 0
M  V30 1602 O 152.875 2.85802 2.12593 0
M  V30 1603 O 151.734 4.23029 3.45989 0
M  V30 1604 H 148.828 0.617057 0.550608 0
M  V30 1605 H 151.374 1.63344 0.460082 0
M  V30 1606 H 150.146 3.66278 1.37681 0
M  V30 1607 H 149.769 2.77708 2.84542 0
M  V30 1608 N 150.766 -0.704594 1.40972 0
M  V30 1609 C 152.012 -1.46675 1.40051 0
M  V30 1610 C 152.345 -1.94199 0.00641102 0
M  V30 1611 O 151.62 -1.68916 -0.964235 0
M  V30 1612 C 151.903 -2.68505 2.39952 0
M  V30 1613 C 151.756 -2.26805 3.88432 0
M  V30 1614 C 153.075 -3.70686 2.37233 0
M  V30 1615 H 150.194 -0.532015 0.510028 0
M  V30 1616 H 152.836 -0.803255 1.72185 0
M  V30 1617 H 150.986 -3.25114 2.1268 0
M  V30 1618 H 152.658 -1.75592 4.26574 0
M  V30 1619 H 150.901 -1.58685 4.03734 0
M  V30 1620 H 151.572 -3.14181 4.53866 0
M  V30 1621 H 154.048 -3.23731 2.61415 0
M  V30 1622 H 152.924 -4.53553 3.09162 0
M  V30 1623 H 153.185 -4.19754 1.38777 0
M  V30 1624 N 152.244 -1.26651 -0.937939 0
M  V30 1625 C 153.493 -1.11775 -1.67897 0
M  V30 1626 C 153.806 0.33794 -1.92659 0
M  V30 1627 O 155.012 0.607434 -2.64618 0
M  V30 1628 C 153.468 -1.9523 -3.02346 0
M  V30 1629 C 153.076 -3.45393 -2.8532 0
M  V30 1630 C 154.82 -1.88972 -3.80118 0
M  V30 1631 C 152.727 -4.21083 -4.15263 0
M  V30 1632 H 151.657 -0.414696 -0.629717 0
M  V30 1633 H 154.308 -1.50988 -1.04283 0
M  V30 1634 H 152.69 -1.48853 -3.66959 0
M  V30 1635 H 153.864 -3.99561 -2.29537 0
M  V30 1636 H 152.179 -3.52921 -2.20988 0
M  V30 1637 H 154.776 -2.42805 -4.76392 0
M  V30 1638 H 155.119 -0.86113 -4.07296 0
M  V30 1639 H 155.652 -2.33189 -3.22285 0
M  V30 1640 H 152.391 -5.24425 -3.93267 0
M  V30 1641 H 151.911 -3.71695 -4.70747 0
M  V30 1642 H 153.59 -4.29706 -4.83696 0
M  V30 1643 N 153.722 1.14298 -1.08507 0
M  V30 1644 C 154.999 1.81544 -0.728088 0
M  V30 1645 C 155.379 1.95838 0.78808 0
M  V30 1646 O 154.727 1.51904 1.70697 0
M  V30 1647 C 154.937 3.17169 -1.45619 0
M  V30 1648 C 156.285 3.9265 -1.61591 0
M  V30 1649 O 157.309 3.26762 -1.41793 0
M  V30 1650 O 156.168 5.10807 -1.94263 0
M  V30 1651 H 153.262 0.78491 -0.260471 0
M  V30 1652 H 155.808 1.21307 -1.18671 0
M  V30 1653 H 154.58 3.01934 -2.489 0
M  V30 1654 H 154.203 3.851 -0.989124 0
M  V30 1655 N 155.201 0.870884 1.31352 0
M  V30 1656 C 156.133 0.28455 2.27427 0
M  V30 1657 C 157.146 -0.552927 1.53123 0
M  V30 1658 O 158.335 -0.374771 1.74521 0
M  V30 1659 C 155.435 -0.615164 3.3327 0
M  V30 1660 C 154.608 0.190079 4.36987 0
M  V30 1661 C 153.667 -0.637917 5.22319 0
M  V30 1662 O 152.693 -0.065626 5.69162 0
M  V30 1663 N 153.895 -1.94973 5.46778 0
M  V30 1664 H 156.66 1.11017 2.7838 0
M  V30 1665 H 154.221 0.732458 1.44384 0
M  V30 1666 H 156.213 -1.1748 3.87273 0
M  V30 1667 H 154.783 -1.34146 2.82354 0
M  V30 1668 H 154.003 0.931165 3.83044 0
M  V30 1669 H 155.291 0.742579 5.03352 0
M  V30 1670 H 154.689 -2.4378 5.10478 0
M  V30 1671 H 153.246 -2.45713 6.03712 0
M  V30 1672 N 156.679 -1.44442 0.630414 0
M  V30 1673 C 157.642 -2.29107 -0.0652523 0
M  V30 1674 C 158.642 -1.41002 -0.772995 0
M  V30 1675 O 159.832 -1.62881 -0.617692 0
M  V30 1676 C 156.964 -3.22564 -1.10296 0
M  V30 1677 H 158.157 -2.92103 0.679401 0
M  V30 1678 H 155.71 -1.51343 0.390517 0
M  V30 1679 H 156.445 -2.64416 -1.87762 0
M  V30 1680 H 156.23 -3.87491 -0.59941 0
M  V30 1681 H 157.72 -3.86167 -1.5895 0
M  V30 1682 N 158.157 -0.370918 -1.53173 0
M  V30 1683 C 159.385 0.217704 -2.05751 0
M  V30 1684 C 159.8 1.42018 -1.24404 0
M  V30 1685 O 159.157 1.80245 -0.286033 0
M  V30 1686 C 159.208 0.605954 -3.56385 0
M  V30 1687 O 158.929 -0.548734 -4.3465 0
M  V30 1688 C 160.43 1.2524 -4.25241 0
M  V30 1689 H 157.65 0.0371659 -0.66997 0
M  V30 1690 H 160.194 -0.530832 -1.9749 0
M  V30 1691 H 158.349 1.3044 -3.6478 0
M  V30 1692 H 158.763 -0.23376 -5.23979 0
M  V30 1693 H 160.237 1.47458 -5.3194 0
M  V30 1694 H 160.714 2.2143 -3.79296 0
M  V30 1695 H 161.32 0.595233 -4.21114 0
M  V30 1696 N 159.635 1.57281 -0.100228 0
M  V30 1697 C 160.565 2.17328 0.853857 0
M  V30 1698 C 161.546 1.10804 1.2906 0
M  V30 1699 O 162.731 1.38963 1.35657 0
M  V30 1700 C 159.861 2.75772 2.11109 0
M  V30 1701 C 158.815 3.87713 1.81279 0
M  V30 1702 C 158.141 4.32882 3.13874 0
M  V30 1703 C 159.441 5.10677 1.09574 0
M  V30 1704 H 161.135 2.97305 0.353545 0
M  V30 1705 H 158.681 1.43009 0.168612 0
M  V30 1706 H 160.634 3.16433 2.78296 0
M  V30 1707 H 159.358 1.93057 2.63432 0
M  V30 1708 H 158.017 3.476 1.16489 0
M  V30 1709 H 157.665 3.47051 3.64095 0
M  V30 1710 H 157.365 5.08358 2.94696 0
M  V30 1711 H 158.889 4.7618 3.82211 0
M  V30 1712 H 160.303 5.48474 1.66879 0
M  V30 1713 H 158.7 5.91615 1.00557 0
M  V30 1714 H 159.77 4.84835 0.0793299 0
M  V30 1715 N 161.113 -0.173488 1.56642 0
M  V30 1716 C 162.023 -1.23482 1.99473 0
M  V30 1717 C 163.039 -1.48567 0.905752 0
M  V30 1718 O 164.215 -1.60758 1.21321 0
M  V30 1719 C 161.28 -2.55444 2.34413 0
M  V30 1720 C 160.341 -2.38241 3.57127 0
M  V30 1721 C 159.574 -3.63909 3.90392 0
M  V30 1722 O 159.797 -4.68996 3.24653 0
M  V30 1723 O 158.731 -3.58149 4.83749 0
M  V30 1724 H 162.557 -0.901279 2.90018 0
M  V30 1725 H 160.142 -0.380185 1.44482 0
M  V30 1726 H 162.024 -3.33292 2.57865 0
M  V30 1727 H 160.699 -2.88382 1.4703 0
M  V30 1728 H 159.606 -1.58431 3.38896 0
M  V30 1729 H 160.939 -2.10228 4.45045 0
M  V30 1730 N 162.591 -1.51276 -0.441967 0
M  V30 1731 C 164.007 -1.39349 -0.778083 0
M  V30 1732 C 164.207 -0.472212 -1.95889 0
M  V30 1733 O 163.263 0.0743551 -2.5239 0
M  V30 1734 C 164.576 -2.81292 -1.0628 0
M  V30 1735 C 166.124 -2.9041 -1.16751 0
M  V30 1736 C 166.599 -4.33251 -1.48519 0
M  V30 1737 N 168.09 -4.36336 -1.55453 0
M  V30 1738 C 168.825 -5.43885 -1.81596 0
M  V30 1739 N 168.321 -6.61601 -2.05562 0
M  V30 1740 N 170.114 -5.3136 -1.8334 0
M  V30 1741 H 162.265 -2.09729 0.335774 0
M  V30 1742 H 164.528 -0.943925 0.0878028 0
M  V30 1743 H 164.234 -3.50678 -0.267905 0
M  V30 1744 H 164.108 -3.20334 -1.99163 0
M  V30 1745 H 166.495 -2.21225 -1.95304 0
M  V30 1746 H 166.576 -2.54871 -0.217801 0
M  V30 1747 H 166.22 -5.02984 -0.704958 0
M  V30 1748 H 166.15 -4.66299 -2.44689 0
M  V30 1749 H 168.641 -3.51466 -1.38853 0
M  V30 1750 H 168.954 -7.39361 -2.24867 0
M  V30 1751 H 167.299 -6.64725 -2.02894 0
M  V30 1752 H 170.49 -4.38382 -1.64132 0
M  V30 1753 H 170.663 -6.15258 -2.03377 0
M  V30 1754 N 164.069 0.697108 -1.41344 0
M  V30 1755 C 165.315 1.4593 -1.40827 0
M  V30 1756 C 165.648 1.94193 -0.0167098 0
M  V30 1757 O 164.923 1.69425 0.955263 0
M  V30 1758 C 165.206 2.67229 -2.41373 0
M  V30 1759 C 165.059 2.24741 -3.8963 0
M  V30 1760 C 166.378 3.69423 -2.39196 0
M  V30 1761 H 163.497 0.529303 -0.512842 0
M  V30 1762 H 166.139 0.794112 -1.72609 0
M  V30 1763 H 164.289 3.23982 -2.14401 0
M  V30 1764 H 165.961 1.73327 -4.27499 0
M  V30 1765 H 164.204 1.56542 -4.0457 0
M  V30 1766 H 164.875 3.1177 -4.55525 0
M  V30 1767 H 167.351 3.2234 -2.63128 0
M  V30 1768 H 166.227 4.51907 -3.11563 0
M  V30 1769 H 166.488 4.19012 -1.41001 0
M  V30 1770 N 165.547 1.27147 0.931209 0
M  V30 1771 C 166.772 1.16191 1.71797 0
M  V30 1772 C 167.197 -0.278004 1.86034 0
M  V30 1773 O 166.555 -1.20137 1.35782 0
M  V30 1774 C 166.603 1.84673 3.09723 0
M  V30 1775 O 165.707 1.14231 3.96264 0
M  V30 1776 H 165.048 0.404303 0.526721 0
M  V30 1777 H 167.578 1.68152 1.1656 0
M  V30 1778 H 167.588 1.91893 3.60057 0
M  V30 1779 H 166.263 2.89421 2.98677 0
M  V30 1780 H 164.84 1.15056 3.54706 0
M  V30 1781 N 167.025 -1.13721 1.09112 0
M  V30 1782 C 167.935 -2.22638 0.73957 0
M  V30 1783 C 168.951 -1.72091 -0.257068 0
M  V30 1784 O 170.127 -2.01155 -0.0992154 0
M  V30 1785 C 167.192 -3.46322 0.16191 0
M  V30 1786 C 166.253 -4.11775 1.21408 0
M  V30 1787 C 165.486 -5.29555 0.663891 0
M  V30 1788 O 165.709 -5.68077 -0.514274 0
M  V30 1789 O 164.643 -5.84973 1.41738 0
M  V30 1790 H 168.469 -2.55074 1.64836 0
M  V30 1791 H 166.054 -1.21791 0.865289 0
M  V30 1792 H 167.936 -4.21107 -0.157073 0
M  V30 1793 H 166.611 -3.15593 -0.719932 0
M  V30 1794 H 165.518 -3.3883 1.58571 0
M  V30 1795 H 166.851 -4.46627 2.06845 0
M  V30 1796 N 168.503 -0.877838 -1.30888 0
M  V30 1797 C 169.433 -0.35534 -2.3078 0
M  V30 1798 C 170.414 0.557994 -1.60687 0
M  V30 1799 O 171.599 0.473355 -1.88343 0
M  V30 1800 C 168.729 0.437221 -3.44537 0
M  V30 1801 C 167.683 -0.383715 -4.26276 0
M  V30 1802 C 167.009 0.535014 -5.32017 0
M  V30 1803 C 168.309 -1.62201 -4.96476 0
M  V30 1804 H 170.003 -1.19007 -2.74732 0
M  V30 1805 H 167.549 -0.573698 -1.32078 0
M  V30 1806 H 169.502 0.813334 -4.13477 0
M  V30 1807 H 168.226 1.30553 -2.99372 0
M  V30 1808 H 166.885 -0.741874 -3.59015 0
M  V30 1809 H 166.533 1.40083 -4.831 0
M  V30 1810 H 166.233 -0.0104211 -5.87599 0
M  V30 1811 H 167.757 0.907799 -6.03814 0
M  V30 1812 H 169.171 -1.31689 -5.5797 0
M  V30 1813 H 167.568 -2.10711 -5.61891 0
M  V30 1814 H 168.638 -2.37044 -4.23011 0
M  V30 1815 N 169.982 1.44106 -0.638065 0
M  V30 1816 C 170.914 2.28976 0.101205 0
M  V30 1817 C 171.927 1.4167 0.802088 0
M  V30 1818 O 173.116 1.65755 0.662375 0
M  V30 1819 C 170.216 3.18217 1.16581 0
M  V30 1820 C 169.389 4.33978 0.546066 0
M  V30 1821 C 168.448 5.04202 1.50554 0
M  V30 1822 O 167.474 5.59986 1.01999 0
M  V30 1823 N 168.676 5.06296 2.8398 0
M  V30 1824 H 171.441 2.93064 -0.627186 0
M  V30 1825 H 169.002 1.54629 -0.479731 0
M  V30 1826 H 170.994 3.62061 1.80815 0
M  V30 1827 H 169.564 2.55833 1.79634 0
M  V30 1828 H 168.784 3.93239 -0.275046 0
M  V30 1829 H 170.072 5.08675 0.112793 0
M  V30 1830 H 169.47 4.62319 3.26002 0
M  V30 1831 H 168.027 5.53907 3.43556 0
M  V30 1832 N 171.46 0.379036 1.52974 0
M  V30 1833 C 172.709 -0.207612 2.00629 0
M  V30 1834 C 173.022 -1.48758 1.27006 0
M  V30 1835 O 174.228 -2.15365 1.65318 0
M  V30 1836 C 172.684 -0.42053 3.57435 0
M  V30 1837 C 172.292 0.845587 4.39948 0
M  V30 1838 C 174.036 -0.964102 4.13407 0
M  V30 1839 C 171.943 0.601513 5.88333 0
M  V30 1840 H 170.873 -0.0813591 0.749598 0
M  V30 1841 H 173.524 0.499853 1.76561 0
M  V30 1842 H 171.906 -1.18959 3.7771 0
M  V30 1843 H 173.08 1.61848 4.31442 0
M  V30 1844 H 171.395 1.31336 3.95145 0
M  V30 1845 H 173.992 -1.16225 5.21916 0
M  V30 1846 H 174.335 -1.93019 3.68849 0
M  V30 1847 H 174.868 -0.25487 3.96983 0
M  V30 1848 H 171.607 1.53831 6.37194 0
M  V30 1849 H 171.127 -0.132628 5.99653 0
M  V30 1850 H 172.806 0.232134 6.46583 0
M  V30 1851 N 172.938 -1.57226 0.108567 0
M  V30 1852 C 174.349 -1.8195 -0.418464 0
M  V30 1853 C 174.7 -1.02508 -1.67292 0
M  V30 1854 O 173.825 -0.258496 -2.14851 0
M  V30 1855 C 174.42 -3.30028 -0.765979 0
M  V30 1856 C 172.979 -3.55469 -1.23769 0
M  V30 1857 C 172.126 -2.7625 -0.241106 0
M  V30 1858 H 175.077 -1.55149 0.33384 0
M  V30 1859 H 175.098 -3.44086 -1.62434 0
M  V30 1860 H 174.61 -3.87821 0.147219 0
M  V30 1861 H 172.711 -3.03022 -2.16814 0
M  V30 1862 H 172.824 -4.6408 -1.19022 0
M  V30 1863 H 171.188 -2.44133 -0.72602 0
M  V30 1864 H 171.971 -3.36797 0.665007 0
M  V30 1865 N 174.416 0.165178 -1.56732 0
M  V30 1866 C 175.662 0.882112 -1.82611 0
M  V30 1867 C 175.995 1.81628 -0.687378 0
M  V30 1868 O 175.27 1.92009 0.310267 0
M  V30 1869 C 175.553 1.67245 -3.18906 0
M  V30 1870 C 175.406 0.760987 -4.43316 0
M  V30 1871 C 176.725 2.63884 -3.52212 0
M  V30 1872 H 173.844 0.319242 -0.664269 0
M  V30 1873 H 176.486 0.148052 -1.89422 0
M  V30 1874 H 174.636 2.29824 -3.1323 0
M  V30 1875 H 176.308 0.147596 -4.61064 0
M  V30 1876 H 174.551 0.0694102 -4.33744 0
M  V30 1877 H 175.222 1.34962 -5.35247 0
M  V30 1878 H 177.698 2.11429 -3.58381 0
M  V30 1879 H 176.574 3.16245 -4.48643 0
M  V30 1880 H 176.835 3.44377 -2.77231 0
M  V30 1881 N 175.894 1.51508 0.433938 0
M  V30 1882 C 176.842 1.73646 1.54757 0
M  V30 1883 C 177.836 0.602854 1.5831 0
M  V30 1884 O 179.042 0.784318 1.62014 0
M  V30 1885 H 175.417 0.548718 0.51421 0
M  V30 1886 H 177.388 2.66991 1.33261 0
M  V30 1887 C 176.137 1.88172 2.92381 0
M  V30 1888 H 175.46 2.74808 2.90381 0
M  V30 1889 H 176.9 2.07672 3.6966 0
M  V30 1890 C 175.359 0.64239 3.30719 0
M  V30 1891 O 175.889 -0.201362 4.01195 0
M  V30 1892 N 174.095 0.485489 2.86516 0
M  V30 1893 H 173.642 1.17318 2.29334 0
M  V30 1894 H 173.6 -0.342482 3.12529 0
M  V30 1895 N 177.372 -0.689602 1.41712 0
M  V30 1896 C 178.335 -1.78521 1.43746 0
M  V30 1897 C 179.335 -1.57436 0.327191 0
M  V30 1898 O 180.525 -1.64 0.587348 0
M  V30 1899 C 177.657 -3.16971 1.25467 0
M  V30 1900 H 178.85 -1.78108 2.41283 0
M  V30 1901 H 176.403 -0.89781 1.27942 0
M  V30 1902 H 177.138 -3.23019 0.287948 0
M  V30 1903 H 176.923 -3.33678 2.05917 0
M  V30 1904 H 178.413 -3.96935 1.2974 0
M  V30 1905 N 178.85 -1.27639 -0.924453 0
M  V30 1906 C 180.098 -1.13941 -1.66918 0
M  V30 1907 C 180.419 0.314589 -1.92446 0
M  V30 1908 O 179.689 1.21964 -1.53303 0
M  V30 1909 H 178.269 -0.418678 -0.618642 0
M  V30 1910 H 180.931 -1.60213 -1.10985 0
M  V30 1911 H 180.027 -1.67094 -2.63602 0
M  V30 1912 N 180.328 1.1314 -1.09713 0
M  V30 1913 C 181.553 1.88862 -0.857081 0
M  V30 1914 C 181.978 1.78729 0.586304 0
M  V30 1915 O 181.336 1.13692 1.41222 0
M  V30 1916 C 181.384 3.36325 -1.30069 0
M  V30 1917 O 180.488 4.09815 -0.461007 0
M  V30 1918 H 179.829 0.587108 -0.310162 0
M  V30 1919 H 182.359 1.43129 -1.46203 0
M  V30 1920 H 182.369 3.87157 -1.28738 0
M  V30 1921 H 181.044 3.43017 -2.35185 0
M  V30 1922 H 179.621 3.68986 -0.538888 0
M  V30 1923 N 181.806 0.884767 1.30421 0
M  V30 1924 C 183.052 0.503851 1.96441 0
M  V30 1925 C 183.385 -0.944518 1.69684 0
M  V30 1926 O 182.66 -1.66737 1.00145 0
M  V30 1927 C 182.943 0.779085 3.51571 0
M  V30 1928 C 182.796 2.27807 3.87846 0
M  V30 1929 C 184.115 0.255452 4.39358 0
M  V30 1930 H 181.234 0.184533 0.713524 0
M  V30 1931 H 183.876 1.10872 1.54297 0
M  V30 1932 H 182.026 0.264274 3.876 0
M  V30 1933 H 183.698 2.86127 3.61841 0
M  V30 1934 H 181.941 2.74479 3.35922 0
M  V30 1935 H 182.612 2.42125 4.96064 0
M  V30 1936 H 185.088 0.696079 4.10236 0
M  V30 1937 H 183.964 0.477361 5.4682 0
M  V30 1938 H 184.225 -0.843293 4.33983 0
M  V30 1939 N 183.284 -1.43765 0.645699 0
M  V30 1940 C 184.561 -1.9541 0.0862963 0
M  V30 1941 C 184.941 -1.58725 -1.39175 0
M  V30 1942 O 184.289 -0.868581 -2.11348 0
M  V30 1943 C 184.499 -3.47488 0.324565 0
M  V30 1944 C 185.847 -4.24001 0.225497 0
M  V30 1945 O 186.871 -3.55274 0.256715 0
M  V30 1946 O 185.73 -5.46313 0.142801 0
M  V30 1947 H 182.824 -0.826882 -0.0139483 0
M  V30 1948 H 185.37 -1.53743 0.718415 0
M  V30 1949 H 184.142 -3.67289 1.3496 0
M  V30 1950 H 183.765 -3.96135 -0.340987 0
M  V30 1951 N 184.763 -0.387143 -1.52771 0
M  V30 1952 C 185.696 0.493123 -2.22808 0
M  V30 1953 C 186.674 1.0658 -1.22798 0
M  V30 1954 O 187.858 1.11785 -1.51777 0
M  V30 1955 C 184.985 1.68238 -2.93962 0
M  V30 1956 C 184.031 1.23515 -4.08223 0
M  V30 1957 S 184.864 0.21848 -5.35054 0
M  V30 1958 C 186.02 1.41357 -6.09729 0
M  V30 1959 H 186.253 -0.101625 -2.97126 0
M  V30 1960 H 183.786 -0.171323 -1.53447 0
M  V30 1961 H 185.744 2.36443 -3.35567 0
M  V30 1962 H 184.405 2.24842 -2.19328 0
M  V30 1963 H 183.598 2.12304 -4.57103 0
M  V30 1964 H 183.2 0.632044 -3.68621 0
M  V30 1965 H 185.492 2.34101 -6.3577 0
M  V30 1966 H 186.435 0.965736 -7.01484 0
M  V30 1967 H 186.843 1.6294 -5.40473 0
M  V30 1968 N 186.241 1.57166 -0.116904 0
M  V30 1969 C 187.171 2.18222 0.830759 0
M  V30 1970 C 188.152 1.12167 1.27877 0
M  V30 1971 O 189.337 1.40394 1.34176 0
M  V30 1972 C 186.467 2.77996 2.08172 0
M  V30 1973 C 185.421 3.89614 1.77157 0
M  V30 1974 C 184.747 4.36187 3.09265 0
M  V30 1975 C 186.047 5.1181 1.04151 0
M  V30 1976 H 187.741 2.97664 0.321992 0
M  V30 1977 H 185.287 1.4318 0.153434 0
M  V30 1978 H 187.24 3.19366 2.74924 0
M  V30 1979 H 185.964 1.9584 2.6137 0
M  V30 1980 H 184.623 3.48816 1.12796 0
M  V30 1981 H 184.271 3.50893 3.60393 0
M  V30 1982 H 183.971 5.11455 2.89288 0
M  V30 1983 H 185.495 4.80207 3.77139 0
M  V30 1984 H 186.909 5.50214 1.61052 0
M  V30 1985 H 185.306 5.92648 0.942762 0
M  V30 1986 H 186.376 4.84892 0.0279022 0
M  V30 1987 N 187.719 -0.156864 1.56817 0
M  V30 1988 C 188.996 -0.899244 1.73704 0
M  V30 1989 C 189.376 -1.99771 0.682254 0
M  V30 1990 O 188.724 -2.26515 -0.300522 0
M  V30 1991 C 188.934 -1.45075 3.17418 0
M  V30 1992 C 190.282 -1.91802 3.7881 0
M  V30 1993 O 191.306 -1.54838 3.20786 0
M  V30 1994 O 190.165 -2.5994 4.80722 0
M  V30 1995 H 187.259 -0.424267 0.709878 0
M  V30 1996 H 189.805 -0.143561 1.69092 0
M  V30 1997 H 188.577 -0.660846 3.85679 0
M  V30 1998 H 188.2 -2.27021 3.26416 0
M  V30 1999 N 189.197 -1.51736 -0.425897 0
M  V30 2000 C 190.129 -1.70083 -1.53638 0
M  V30 2001 C 191.142 -0.581349 -1.52066 0
M  V30 2002 O 192.331 -0.856017 -1.56635 0
M  V30 2003 C 189.431 -1.71078 -2.9255 0
M  V30 2004 C 188.604 -2.99795 -3.185 0
M  V30 2005 C 187.663 -2.92825 -4.37196 0
M  V30 2006 O 186.689 -3.66756 -4.35291 0
M  V30 2007 N 187.891 -2.0946 -5.41393 0
M  V30 2008 H 190.656 -2.65882 -1.383 0
M  V30 2009 H 188.217 -1.49765 -0.614988 0
M  V30 2010 H 190.209 -1.63969 -3.69995 0
M  V30 2011 H 188.779 -0.828242 -3.01428 0
M  V30 2012 H 187.999 -3.20684 -2.2925 0
M  V30 2013 H 189.287 -3.84977 -3.32671 0
M  V30 2014 H 188.685 -1.48792 -5.45781 0
M  V30 2015 H 187.242 -2.08221 -6.17647 0
M  V30 2016 N 190.675 0.682077 -1.42076 0
M  V30 2017 C 191.605 1.80796 -1.47767 0
M  V30 2018 C 192.586 1.6677 -0.334954 0
M  V30 2019 O 193.771 1.863 -0.548264 0
M  V30 2020 C 190.901 3.19038 -1.37229 0
M  V30 2021 C 189.855 3.47789 -2.49453 0
M  V30 2022 C 189.181 4.8553 -2.23975 0
M  V30 2023 C 190.481 3.45411 -3.91776 0
M  V30 2024 H 192.175 1.7629 -2.41997 0
M  V30 2025 H 189.721 0.846721 -1.16476 0
M  V30 2026 H 191.674 3.97528 -1.39821 0
M  V30 2027 H 190.398 3.24204 -0.394907 0
M  V30 2028 H 189.057 2.71657 -2.46166 0
M  V30 2029 H 188.705 4.87337 -1.24547 0
M  V30 2030 H 188.405 5.0573 -2.99184 0
M  V30 2031 H 189.929 5.66312 -2.28304 0
M  V30 2032 H 191.343 4.13882 -3.96705 0
M  V30 2033 H 189.74 3.77145 -4.66778 0
M  V30 2034 H 190.81 2.44122 -4.18966 0
M  V30 2035 N 192.153 1.28127 0.917671 0
M  V30 2036 C 193.401 1.14825 1.66312 0
M  V30 2037 C 193.722 -0.304379 1.9261 0
M  V30 2038 O 192.992 -1.21149 1.53947 0
M  V30 2039 H 191.572 0.421953 0.616413 0
M  V30 2040 H 194.234 1.608 1.10134 0
M  V30 2041 H 193.33 1.68489 2.62712 0
M  V30 2042 N 193.631 -1.12557 1.10312 0
M  V30 2043 C 194.563 -2.17971 0.708625 0
M  V30 2044 C 195.576 -1.60806 -0.254027 0
M  V30 2045 O 196.765 -1.78458 -0.0386891 0
M  V30 2046 C 193.865 -3.38891 0.0248198 0
M  V30 2047 C 193.038 -4.25548 1.01132 0
M  V30 2048 C 192.097 -5.24972 0.35924 0
M  V30 2049 O 191.123 -5.60174 1.00965 0
M  V30 2050 N 192.325 -5.73747 -0.882847 0
M  V30 2051 H 195.09 -2.52427 1.61557 0
M  V30 2052 H 192.651 -1.27967 0.991771 0
M  V30 2053 H 194.643 -4.02485 -0.422852 0
M  V30 2054 H 193.213 -3.02596 -0.784514 0
M  V30 2055 H 192.433 -3.58589 1.6373 0
M  V30 2056 H 193.721 -4.80294 1.67914 0
M  V30 2057 H 193.119 -5.4731 -1.43065 0
M  V30 2058 H 191.676 -6.39234 -1.27369 0
M  V30 2059 N 195.109 -0.891671 -1.2995 0
M  V30 2060 C 196.355 -0.514261 -1.96171 0
M  V30 2061 C 196.688 0.935506 -1.70182 0
M  V30 2062 O 195.963 1.66204 -1.01028 0
M  V30 2063 C 196.246 -0.797719 -3.51153 0
M  V30 2064 C 196.099 -2.2986 -3.86632 0
M  V30 2065 C 197.418 -0.278749 -4.39216 0
M  V30 2066 H 194.537 -0.188314 -0.712535 0
M  V30 2067 H 197.179 -1.11689 -1.53706 0
M  V30 2068 H 195.329 -0.284826 -3.87455 0
M  V30 2069 H 197.001 -2.88042 -3.60319 0
M  V30 2070 H 195.244 -2.76257 -3.34462 0
M  V30 2071 H 195.915 -2.44753 -4.94773 0
M  V30 2072 H 198.391 -0.717825 -4.09862 0
M  V30 2073 H 197.267 -0.506353 -5.46559 0
M  V30 2074 H 197.528 0.820266 -4.34424 0
M  V30 2075 N 196.587 1.43421 -0.653314 0
M  V30 2076 C 197.812 2.06678 -0.172846 0
M  V30 2077 C 198.237 1.48648 1.15262 0
M  V30 2078 O 197.595 0.596457 1.71208 0
M  V30 2079 C 197.643 3.60474 -0.0953184 0
M  V30 2080 O 196.747 4.01487 0.942442 0
M  V30 2081 H 196.088 0.657181 -0.0949155 0
M  V30 2082 H 198.618 1.83925 -0.896265 0
M  V30 2083 H 198.628 4.07905 0.0879728 0
M  V30 2084 H 197.303 4.02088 -1.06291 0
M  V30 2085 H 195.88 3.65646 0.731932 0
M  V30 2086 N 198.065 0.39524 1.52563 0
M  V30 2087 C 199.476 -0.0774719 1.86539 0
M  V30 2088 C 199.827 -1.45641 1.31466 0
M  V30 2089 O 198.952 -2.06459 0.648367 0
M  V30 2090 C 199.547 -0.147356 3.38479 0
M  V30 2091 C 198.106 -0.564373 3.72145 0
M  V30 2092 C 197.253 0.269919 2.75983 0
M  V30 2093 H 200.204 0.612876 1.46388 0
M  V30 2094 H 200.225 -0.965343 3.68051 0
M  V30 2095 H 199.737 0.856387 3.78534 0
M  V30 2096 H 197.838 -1.57527 3.37663 0
M  V30 2097 H 197.951 -0.318402 4.78041 0
M  V30 2098 H 196.315 -0.265696 2.5331 0
M  V30 2099 H 197.098 1.27175 3.18875 0
M  V30 2100 N 199.544 -1.57102 0.125237 0
M  V30 2101 C 200.792 -1.95021 -0.530198 0
M  V30 2102 C 201.113 -1.00982 -1.66816 0
M  V30 2103 O 200.383 -0.0672693 -1.95784 0
M  V30 2104 H 198.963 -0.720046 -0.198853 0
M  V30 2105 H 201.625 -1.93916 0.19564 0
M  V30 2106 H 200.721 -2.98211 -0.920681 0
M  V30 2107 N 201.022 0.148545 -1.56898 0
M  V30 2108 C 201.972 1.1886 -1.94567 0
M  V30 2109 C 202.956 1.3863 -0.816735 0
M  V30 2110 O 204.148 1.40218 -1.08018 0
M  V30 2111 C 201.277 2.52262 -2.32849 0
M  V30 2112 C 200.363 2.36092 -3.52309 0
M  V30 2113 N 200.754 1.89674 -4.6889 0
M  V30 2114 C 199.052 2.66848 -3.57363 0
M  V30 2115 C 199.753 1.86511 -5.50989 0
M  V30 2116 N 198.729 2.29766 -4.92655 0
M  V30 2117 H 202.531 0.821793 -2.82177 0
M  V30 2118 H 200.045 0.356615 -1.58436 0
M  V30 2119 H 202.042 3.27447 -2.58039 0
M  V30 2120 H 200.702 2.89727 -1.46589 0
M  V30 2121 H 201.713 1.59663 -4.92674 0
M  V30 2122 H 198.39 3.08198 -2.81639 0
M  V30 2123 H 199.78 1.52128 -6.54452 0
M  V30 2124 N 202.5 1.5196 0.417844 0
M  V30 2125 C 203.916 1.40569 0.755816 0
M  V30 2126 C 204.116 0.503316 1.95113 0
M  V30 2127 O 203.172 -0.0341925 2.52477 0
M  V30 2128 C 204.485 2.82947 1.01791 0
M  V30 2129 C 206.033 2.92231 1.12116 0
M  V30 2130 C 206.508 4.35559 1.41608 0
M  V30 2131 N 207.999 4.38753 1.48491 0
M  V30 2132 C 208.734 5.46705 1.7292 0
M  V30 2133 N 208.23 6.64788 1.95011 0
M  V30 2134 N 210.023 5.34209 1.74863 0
M  V30 2135 H 202.174 2.09168 -0.369098 0
M  V30 2136 H 204.437 0.942409 -0.102809 0
M  V30 2137 H 204.143 3.5106 0.212081 0
M  V30 2138 H 204.017 3.23462 1.94042 0
M  V30 2139 H 206.404 2.24304 1.9176 0
M  V30 2140 H 206.485 2.55185 0.177225 0
M  V30 2141 H 206.129 5.04042 0.624848 0
M  V30 2142 H 206.059 4.70133 2.37239 0
M  V30 2143 H 208.55 3.5363 1.33244 0
M  V30 2144 H 208.863 7.42845 2.13076 0
M  V30 2145 H 207.208 6.67869 1.92293 0
M  V30 2146 H 210.399 4.40937 1.57137 0
M  V30 2147 H 210.572 6.18415 1.93563 0
M  V30 2148 N 203.978 -0.674533 1.42435 0
M  V30 2149 C 205.224 -1.43671 1.43131 0
M  V30 2150 C 205.557 -1.94142 0.0476021 0
M  V30 2151 O 204.832 -1.70924 -0.928188 0
M  V30 2152 C 205.115 -2.63355 2.45594 0
M  V30 2153 C 204.968 -2.18514 3.93156 0
M  V30 2154 C 206.287 -3.65571 2.45043 0
M  V30 2155 H 203.406 -0.521077 0.521198 0
M  V30 2156 H 206.048 -0.766551 1.7385 0
M  V30 2157 H 204.198 -3.2053 2.19528 0
M  V30 2158 H 205.87 -1.66504 4.30202 0
M  V30 2159 H 204.113 -1.50086 4.07009 0
M  V30 2160 H 204.784 -3.04484 4.60428 0
M  V30 2161 H 207.26 -3.18113 2.68223 0
M  V30 2162 H 206.136 -4.46893 3.18713 0
M  V30 2163 H 206.397 -4.16716 1.47649 0
M  V30 2164 N 205.456 -1.28612 -0.910864 0
M  V30 2165 C 206.702 -1.17116 -1.66299 0
M  V30 2166 C 207.057 0.276917 -1.90397 0
M  V30 2167 O 206.35 1.19795 -1.49532 0
M  V30 2168 C 206.544 -1.90624 -3.0232 0
M  V30 2169 C 206.373 -3.42431 -2.91498 0
M  V30 2170 C 205.143 -4.11773 -2.92867 0
M  V30 2171 C 207.341 -4.38124 -2.69355 0
M  V30 2172 N 205.323 -5.50025 -2.72664 0
M  V30 2173 C 206.694 -5.63759 -2.58023 0
M  V30 2174 C 208.749 -4.28016 -2.54375 0
M  V30 2175 C 207.452 -6.80436 -2.33238 0
M  V30 2176 C 209.478 -5.44433 -2.30969 0
M  V30 2177 C 208.84 -6.69034 -2.20394 0
M  V30 2178 H 204.939 -0.483506 -0.61461 0
M  V30 2179 H 207.523 -1.62299 -1.0755 0
M  V30 2180 H 205.694 -1.4787 -3.5915 0
M  V30 2181 H 207.426 -1.71488 -3.66571 0
M  V30 2182 H 204.181 -3.63378 -3.03732 0
M  V30 2183 H 204.605 -6.22705 -2.65646 0
M  V30 2184 H 209.247 -3.32388 -2.613 0
M  V30 2185 H 206.965 -7.7613 -2.25051 0
M  V30 2186 H 210.551 -5.38504 -2.20238 0
M  V30 2187 H 209.431 -7.57595 -2.02531 0
M  V30 2188 N 206.934 1.1197 -1.10907 0
M  V30 2189 C 207.864 2.19928 -0.784473 0
M  V30 2190 C 208.845 1.6833 0.244726 0
M  V30 2191 O 210.03 1.93892 0.109418 0
M  V30 2192 C 207.16 3.46597 -0.220827 0
M  V30 2193 C 206.114 4.11376 -1.18127 0
M  V30 2194 C 205.44 5.32554 -0.478594 0
M  V30 2195 C 206.74 4.56945 -2.52979 0
M  V30 2196 H 208.434 2.47337 -1.68715 0
M  V30 2197 H 205.98 1.18879 -0.812642 0
M  V30 2198 H 207.933 4.21396 0.0184278 0
M  V30 2199 H 206.657 3.1863 0.717113 0
M  V30 2200 H 205.316 3.38564 -1.40606 0
M  V30 2201 H 204.964 5.00856 0.463976 0
M  V30 2202 H 204.664 5.76844 -1.11912 0
M  V30 2203 H 206.188 6.10096 -0.248 0
M  V30 2204 H 207.602 5.23093 -2.3462 0
M  V30 2205 H 205.999 5.1203 -3.12962 0
M  V30 2206 H 207.069 3.70676 -3.12614 0
M  V30 2207 N 208.412 0.89855 1.29475 0
M  V30 2208 C 209.828 0.594483 1.48115 0
M  V30 2209 C 210.028 -0.86431 1.82022 0
M  V30 2210 O 209.084 -1.64457 1.91599 0
M  V30 2211 C 210.397 1.51932 2.59494 0
M  V30 2212 C 211.945 1.5244 2.7337 0
M  V30 2213 C 212.42 2.43548 3.87877 0
M  V30 2214 N 213.911 2.41589 3.95208 0
M  V30 2215 C 214.646 3.08789 4.83153 0
M  V30 2216 N 214.142 3.85265 5.75798 0
M  V30 2217 N 215.935 2.97952 4.76635 0
M  V30 2218 H 208.086 1.84207 1.05742 0
M  V30 2219 H 210.349 0.789251 0.525154 0
M  V30 2220 H 210.055 2.55865 2.41301 0
M  V30 2221 H 209.929 1.23899 3.56271 0
M  V30 2222 H 212.316 0.492518 2.90961 0
M  V30 2223 H 212.397 1.8451 1.77172 0
M  V30 2224 H 212.041 3.46829 3.71041 0
M  V30 2225 H 211.971 2.08788 4.83441 0
M  V30 2226 H 214.462 1.86025 3.28943 0
M  V30 2227 H 214.775 4.33598 6.39697 0
M  V30 2228 H 213.12 3.89371 5.75687 0
M  V30 2229 H 216.311 2.37723 4.03244 0
M  V30 2230 H 216.484 3.50599 5.44962 0
M  V30 2231 N 209.89 -1.43072 0.660911 0
M  V30 2232 C 211.136 -2.0202 0.177708 0
M  V30 2233 C 211.469 -1.52066 -1.20787 0
M  V30 2234 O 210.744 -0.716987 -1.80802 0
M  V30 2235 C 211.027 -3.59561 0.197019 0
M  V30 2236 C 210.88 -4.19727 1.61706 0
M  V30 2237 C 212.199 -4.37664 -0.462396 0
M  V30 2238 H 209.318 -0.734034 0.0660494 0
M  V30 2239 H 211.96 -1.70272 0.843058 0
M  V30 2240 H 210.11 -3.86739 -0.369527 0
M  V30 2241 H 211.782 -4.03553 2.23479 0
M  V30 2242 H 210.025 -3.76084 2.16201 0
M  V30 2243 H 210.696 -5.28834 1.58237 0
M  V30 2244 H 213.172 -4.16095 0.0197215 0
M  V30 2245 H 212.048 -5.47305 -0.418188 0
M  V30 2246 H 212.309 -4.14493 -1.53778 0
M  V30 2247 N 211.368 -0.403325 -1.52352 0
M  V30 2248 C 212.316 0.439752 -2.28405 0
M  V30 2249 C 213.31 1.05089 -1.32863 0
M  V30 2250 O 214.516 0.989759 -1.50345 0
M  V30 2251 H 210.891 0.160587 -0.734653 0
M  V30 2252 H 212.862 -0.222983 -2.97566 0
M  V30 2253 C 211.611 1.54736 -3.11371 0
M  V30 2254 H 210.934 1.08643 -3.84755 0
M  V30 2255 H 212.374 2.1112 -3.67701 0
M  V30 2256 C 210.833 2.51141 -2.24566 0
M  V30 2257 O 211.363 3.54887 -1.88196 0
M  V30 2258 N 209.569 2.21213 -1.8845 0
M  V30 2259 H 209.116 1.36878 -2.18225 0
M  V30 2260 H 209.074 2.85963 -1.30662 0
M  V30 2261 N 212.846 1.57033 -0.133567 0
M  V30 2262 C 214.257 1.82593 0.389464 0
M  V30 2263 C 214.608 1.05156 1.6564 0
M  V30 2264 O 213.733 0.292644 2.14412 0
M  V30 2265 C 214.328 3.31204 0.713377 0
M  V30 2266 C 212.887 3.57393 1.18098 0
M  V30 2267 C 212.034 2.76598 0.197126 0
M  V30 2268 H 214.985 1.54598 -0.358481 0
M  V30 2269 H 215.006 3.46627 1.56939 0
M  V30 2270 H 214.518 3.87537 -0.2089 0
M  V30 2271 H 212.619 3.06433 2.11966 0
M  V30 2272 H 212.732 4.65915 1.11624 0
M  V30 2273 H 211.096 2.45257 0.687088 0
M  V30 2274 H 211.879 3.35697 -0.718504 0
M  V30 2275 N 214.325 -0.140222 1.56975 0
M  V30 2276 C 215.573 -0.850005 1.83356 0
M  V30 2277 C 215.894 -1.81399 0.71551 0
M  V30 2278 O 215.164 -1.94136 -0.262294 0
M  V30 2279 H 213.744 -0.316886 0.676456 0
M  V30 2280 H 216.406 -0.132608 1.94448 0
M  V30 2281 H 215.502 -1.40814 2.78528 0
M  V30 2282 N 215.803 -1.52179 -0.40978 0
M  V30 2283 C 217.05 -1.66206 -1.15679 0
M  V30 2284 C 217.378 -0.391674 -1.90516 0
M  V30 2285 O 216.633 0.62533 -1.8544 0
M  V30 2286 C 216.932 -2.83428 -2.17723 0
M  V30 2287 C 216.598 -4.21672 -1.59699 0
M  V30 2288 C 215.26 -4.59274 -1.43599 0
M  V30 2289 C 217.612 -5.07825 -1.17317 0
M  V30 2290 C 214.94 -5.80709 -0.836328 0
M  V30 2291 C 217.292 -6.29864 -0.587691 0
M  V30 2292 C 215.956 -6.66216 -0.413818 0
M  V30 2293 H 215.226 -0.608192 -0.423301 0
M  V30 2294 H 217.873 -1.86279 -0.444097 0
M  V30 2295 H 216.178 -2.57687 -2.95135 0
M  V30 2296 H 217.875 -2.91477 -2.75394 0
M  V30 2297 H 214.465 -3.9204 -1.73213 0
M  V30 2298 H 218.649 -4.79359 -1.28565 0
M  V30 2299 H 213.905 -6.07498 -0.689626 0
M  V30 2300 H 218.079 -6.95948 -0.250894 0
M  V30 2301 H 215.706 -7.60182 0.0529471 0
M  V30 2302 N 217.281 0.66697 -1.42791 0
M  V30 2303 C 218.529 1.42417 -1.43394 0
M  V30 2304 C 218.85 1.94925 -0.0542373 0
M  V30 2305 O 218.12 1.73564 0.908415 0
M  V30 2306 H 216.7 0.528515 -0.527902 0
M  V30 2307 H 219.362 0.787562 -1.78279 0
M  V30 2308 H 218.458 2.27333 -2.13837 0
M  V30 2309 N 218.759 1.29093 0.90403 0
M  V30 2310 C 219.709 1.10482 1.99443 0
M  V30 2311 C 220.693 0.0255401 1.6088 0
M  V30 2312 O 221.885 0.24677 1.75271 0
M  V30 2313 C 219.014 0.778882 3.34348 0
M  V30 2314 C 218.1 1.89749 3.79284 0
M  V30 2315 N 218.491 3.14045 3.96497 0
M  V30 2316 C 216.789 1.78955 4.08523 0
M  V30 2317 C 217.49 3.86996 4.34292 0
M  V30 2318 N 216.466 3.14909 4.43095 0
M  V30 2319 H 220.268 2.04778 2.10815 0
M  V30 2320 H 217.782 1.20155 1.09255 0
M  V30 2321 H 219.779 0.62661 4.12164 0
M  V30 2322 H 218.439 -0.156205 3.24324 0
M  V30 2323 H 219.45 3.49548 3.82148 0
M  V30 2324 H 216.127 0.926886 4.07081 0
M  V30 2325 H 217.517 4.93941 4.55491 0
M  V30 2326 N 220.237 -1.11381 1.11499 0
M  V30 2327 C 221.485 -1.8277 0.862524 0
M  V30 2328 C 221.806 -1.85097 -0.613534 0
M  V30 2329 O 221.076 -1.32198 -1.4457 0
M  V30 2330 H 219.656 -0.676823 0.316101 0
M  V30 2331 H 222.318 -1.34816 1.4075 0
M  V30 2332 H 221.414 -2.86614 1.23527 0
M  V30 2333 N 221.715 -0.905404 -1.28997 0
M  V30 2334 C 222.665 -0.358713 -2.25161 0
M  V30 2335 C 223.649 0.524449 -1.52113 0
M  V30 2336 O 224.841 0.365534 -1.73184 0
M  V30 2337 C 221.97 0.407609 -3.40872 0
M  V30 2338 C 221.056 -0.490797 -4.21251 0
M  V30 2339 N 221.447 -1.60061 -4.79806 0
M  V30 2340 C 219.745 -0.289636 -4.45059 0
M  V30 2341 C 220.446 -2.15757 -5.40207 0
M  V30 2342 N 219.422 -1.44988 -5.23908 0
M  V30 2343 H 223.224 -1.20642 -2.67998 0
M  V30 2344 H 220.738 -0.757103 -1.43672 0
M  V30 2345 H 222.735 0.816046 -4.08835 0
M  V30 2346 H 221.395 1.25251 -2.9957 0
M  V30 2347 H 222.406 -1.98329 -4.7842 0
M  V30 2348 H 219.083 0.51643 -4.14294 0
M  V30 2349 H 220.473 -3.09069 -5.96595 0
M  V30 2350 N 223.193 1.4272 -0.668489 0
M  V30 2351 C 224.418 2.06484 -0.194758 0
M  V30 2352 C 224.843 1.49862 1.13679 0
M  V30 2353 O 224.201 0.614582 1.70565 0
M  V30 2354 C 224.249 3.60353 -0.133546 0
M  V30 2355 O 223.353 4.02464 0.899806 0
M  V30 2356 H 222.694 0.656137 -0.10188 0
M  V30 2357 H 225.224 1.82964 -0.915722 0
M  V30 2358 H 225.234 4.07976 0.0447041 0
M  V30 2359 H 223.909 4.00938 -1.1055 0
M  V30 2360 H 222.486 3.66402 0.693109 0
M  V30 2361 N 224.671 0.411399 1.52136 0
M  V30 2362 C 225.603 -0.448386 2.24771 0
M  V30 2363 C 226.616 -1.00828 1.27818 0
M  V30 2364 O 227.805 -0.906841 1.53749 0
M  V30 2365 C 224.905 -1.63636 2.96777 0
M  V30 2366 C 224.078 -1.19995 4.20618 0
M  V30 2367 C 223.137 -2.25509 4.75428 0
M  V30 2368 O 222.163 -1.86007 5.3795 0
M  V30 2369 N 223.365 -3.577 4.57199 0
M  V30 2370 H 226.13 0.174025 2.99194 0
M  V30 2371 H 223.691 0.238897 1.60128 0
M  V30 2372 H 225.683 -2.33793 3.30338 0
M  V30 2373 H 224.253 -2.16465 2.25526 0
M  V30 2374 H 223.473 -0.326421 3.92846 0
M  V30 2375 H 224.761 -0.885365 5.01038 0
M  V30 2376 H 224.159 -3.92543 4.07341 0
M  V30 2377 H 222.716 -4.23827 4.95191 0
M  V30 2378 N 226.149 -1.5696 0.141893 0
M  V30 2379 C 227.096 -2.16501 -0.799737 0
M  V30 2380 C 228.066 -1.09643 -1.24771 0
M  V30 2381 O 229.251 -1.3766 -1.32115 0
M  V30 2382 C 226.391 -2.78679 -2.03549 0
M  V30 2383 C 225.504 -3.99914 -1.6338 0
M  V30 2384 C 224.639 -4.50106 -2.82096 0
M  V30 2385 C 223.678 -5.63819 -2.38275 0
M  V30 2386 N 222.815 -6.08651 -3.49983 0
M  V30 2387 H 227.655 -2.96632 -0.285179 0
M  V30 2388 H 225.192 -1.46533 -0.129053 0
M  V30 2389 H 227.15 -3.1287 -2.75986 0
M  V30 2390 H 225.78 -2.012 -2.52425 0
M  V30 2391 H 224.832 -3.71735 -0.807279 0
M  V30 2392 H 226.144 -4.82311 -1.27192 0
M  V30 2393 H 225.298 -4.86325 -3.62729 0
M  V30 2394 H 224.037 -3.66706 -3.21525 0
M  V30 2395 H 223.042 -5.2718 -1.56081 0
M  V30 2396 H 224.267 -6.49 -1.99938 0
M  V30 2397 H 222.213 -5.28188 -3.89042 0
M  V30 2398 H 222.13 -6.85961 -3.17794 0
M  V30 2399 H 223.398 -6.49515 -4.30988 0
M  V30 2400 N 227.627 0.131896 -1.57047 0
M  V30 2401 C 228.855 0.856461 -1.88341 0
M  V30 2402 C 229.27 1.74042 -0.731757 0
M  V30 2403 O 228.627 1.80051 0.297945 0
M  V30 2404 C 228.678 1.70064 -3.18999 0
M  V30 2405 O 228.399 0.852278 -4.2973 0
M  V30 2406 C 229.9 2.53148 -3.63911 0
M  V30 2407 H 227.12 0.246885 -0.62393 0
M  V30 2408 H 229.664 0.120152 -2.04147 0
M  V30 2409 H 227.819 2.38984 -3.04902 0
M  V30 2410 H 228.233 1.43329 -5.04537 0
M  V30 2411 H 229.707 3.07931 -4.58129 0
M  V30 2412 H 230.184 3.29901 -2.89935 0
M  V30 2413 H 230.79 1.89492 -3.80753 0
M  V30 2414 N 229.106 1.52395 0.401703 0
M  V30 2415 C 230.054 1.7689 1.51039 0
M  V30 2416 C 231.048 0.636298 1.56996 0
M  V30 2417 O 232.254 0.818507 1.60314 0
M  V30 2418 H 228.629 0.559502 0.502456 0
M  V30 2419 H 230.6 2.69757 1.27568 0
M  V30 2420 C 229.349 1.94331 2.88324 0
M  V30 2421 H 228.672 2.80905 2.84486 0
M  V30 2422 H 230.112 2.15466 3.65172 0
M  V30 2423 C 228.571 0.712396 3.29282 0
M  V30 2424 O 229.101 -0.116218 4.01532 0
M  V30 2425 N 227.307 0.546154 2.85422 0
M  V30 2426 H 226.854 1.22156 2.26794 0
M  V30 2427 H 226.812 -0.276113 3.13185 0
M  V30 2428 N 230.584 -0.659388 1.43143 0
M  V30 2429 C 231.812 -1.44723 1.47861 0
M  V30 2430 C 232.227 -1.88563 0.0945886 0
M  V30 2431 O 231.584 -1.59108 -0.893915 0
M  V30 2432 C 231.635 -2.68627 2.41913 0
M  V30 2433 O 231.356 -2.26623 3.74932 0
M  V30 2434 C 232.857 -3.62045 2.55809 0
M  V30 2435 H 230.077 -0.444801 0.502387 0
M  V30 2436 H 232.621 -0.808916 1.87821 0
M  V30 2437 H 230.776 -3.28613 2.05164 0
M  V30 2438 H 231.19 -3.06745 4.2545 0
M  V30 2439 H 232.664 -4.45666 3.25708 0
M  V30 2440 H 233.141 -4.08981 1.60099 0
M  V30 2441 H 233.747 -3.07944 2.93344 0
M  V30 2442 N 232.062 -1.29571 -0.897171 0
M  V30 2443 C 233.31 -1.17456 -1.64464 0
M  V30 2444 C 233.631 0.273698 -1.9307 0
M  V30 2445 O 232.901 1.18684 -1.55855 0
M  V30 2446 H 231.481 -0.431706 -0.609622 0
M  V30 2447 H 234.143 -1.62531 -1.07562 0
M  V30 2448 H 233.239 -1.72648 -2.59998 0
M  V30 2449 N 233.54 1.10788 -1.12088 0
M  V30 2450 C 234.788 1.8231 -0.872205 0
M  V30 2451 C 235.109 1.85419 0.603709 0
M  V30 2452 O 234.379 1.32963 1.43867 0
M  V30 2453 H 232.959 0.675137 -0.319686 0
M  V30 2454 H 235.621 1.34068 -1.41463 0
M  V30 2455 H 234.717 2.85955 -1.25045 0
M  V30 2456 N 235.018 0.912232 1.28515 0
M  V30 2457 C 235.928 0.404506 2.31086 0
M  V30 2458 C 236.944 -0.50707 1.66448 0
M  V30 2459 O 238.12 -0.393624 1.97516 0
M  V30 2460 C 235.185 -0.348572 3.44943 0
M  V30 2461 C 234.246 0.59604 4.25142 0
M  V30 2462 C 233.479 -0.121194 5.33562 0
M  V30 2463 O 233.702 -1.34317 5.5436 0
M  V30 2464 O 232.636 0.542716 5.99448 0
M  V30 2465 H 236.462 1.25579 2.76521 0
M  V30 2466 H 234.047 0.676998 1.33181 0
M  V30 2467 H 235.929 -0.77395 4.14232 0
M  V30 2468 H 234.604 -1.17571 3.01594 0
M  V30 2469 H 233.511 1.07079 3.58448 0
M  V30 2470 H 234.844 1.38995 4.72167 0
M  V30 2471 N 236.496 -1.42363 0.676048 0
M  V30 2472 C 237.444 -2.32596 -0.0131507 0
M  V30 2473 C 238.438 -1.49891 -0.789238 0
M  V30 2474 O 239.644 -1.65955 -0.697061 0
M  V30 2475 H 236.019 -0.751647 -0.0230481 0
M  V30 2476 H 237.99 -2.88421 0.765243 0
M  V30 2477 C 236.739 -3.34479 -0.949702 0
M  V30 2478 H 236.062 -3.98158 -0.361938 0
M  V30 2479 H 237.502 -4.00199 -1.4006 0
M  V30 2480 C 235.961 -2.66838 -2.05667 0
M  V30 2481 O 236.491 -2.50124 -3.14326 0
M  V30 2482 N 234.697 -2.25843 -1.82875 0
M  V30 2483 H 234.244 -2.39637 -0.945085 0
M  V30 2484 H 234.202 -1.80918 -2.5713 0
M  V30 2485 N 237.974 -0.419461 -1.51915 0
M  V30 2486 C 239.199 0.154572 -2.06823 0
M  V30 2487 C 239.624 1.3722 -1.28656 0
M  V30 2488 O 238.982 1.78461 -0.319583 0
M  V30 2489 C 239.03 0.473172 -3.57482 0
M  V30 2490 O 238.134 1.56255 -3.81652 0
M  V30 2491 H 237.475 0.0096924 -0.663929 0
M  V30 2492 H 240.005 -0.595642 -1.95738 0
M  V30 2493 H 240.015 0.728825 -4.01438 0
M  V30 2494 H 238.69 -0.416873 -4.13805 0
M  V30 2495 H 237.267 1.29825 -3.49571 0
M  V30 2496 N 239.452 1.56882 -0.150215 0
M  V30 2497 C 240.399 2.16922 0.788244 0
M  V30 2498 C 241.369 1.10303 1.24187 0
M  V30 2499 O 242.554 1.38359 1.31383 0
M  V30 2500 C 239.694 2.79754 2.02068 0
M  V30 2501 C 238.807 4.00775 1.61257 0
M  V30 2502 C 237.942 4.51595 2.79705 0
M  V30 2503 C 236.981 5.65074 2.35282 0
M  V30 2504 N 236.118 6.10499 3.4675 0
M  V30 2505 H 240.958 2.96779 0.269444 0
M  V30 2506 H 238.495 1.46599 0.12128 0
M  V30 2507 H 240.453 3.14329 2.74323 0
M  V30 2508 H 239.083 2.02536 2.51354 0
M  V30 2509 H 238.135 3.72158 0.787553 0
M  V30 2510 H 239.447 4.82978 1.24633 0
M  V30 2511 H 238.601 4.88242 3.60145 0
M  V30 2512 H 237.34 3.68406 3.19576 0
M  V30 2513 H 236.345 5.28 1.53283 0
M  V30 2514 H 237.57 6.50052 1.96493 0
M  V30 2515 H 235.516 5.30243 3.86236 0
M  V30 2516 H 235.433 6.87637 3.14152 0
M  V30 2517 H 236.701 6.51791 4.27537 0
M  V30 2518 N 240.93 -0.123565 1.57115 0
M  V30 2519 C 241.88 -1.1575 1.96433 0
M  V30 2520 C 242.864 -1.37313 0.838686 0
M  V30 2521 O 244.056 -1.38482 1.10235 0
M  V30 2522 C 241.185 -2.48526 2.36833 0
M  V30 2523 C 240.271 -2.30457 3.5602 0
M  V30 2524 N 240.662 -1.8219 4.71848 0
M  V30 2525 C 238.96 -2.61129 3.61563 0
M  V30 2526 C 239.661 -1.77721 5.53886 0
M  V30 2527 N 238.637 -2.21899 4.96248 0
M  V30 2528 H 242.439 -0.776797 2.83449 0
M  V30 2529 H 239.953 -0.331364 1.58983 0
M  V30 2530 H 241.95 -3.233 2.63216 0
M  V30 2531 H 240.61 -2.87358 1.5118 0
M  V30 2532 H 241.621 -1.51805 4.95152 0
M  V30 2533 H 238.298 -3.03678 2.86507 0
M  V30 2534 H 239.688 -1.41697 6.56789 0
M  V30 2535 N 242.408 -1.52605 -0.393616 0
M  V30 2536 C 243.656 -1.67093 -1.13685 0
M  V30 2537 C 243.977 -0.411011 -1.90619 0
M  V30 2538 O 243.247 0.574491 -1.87287 0
M  V30 2539 H 241.827 -0.615923 -0.422668 0
M  V30 2540 H 244.489 -1.89704 -0.447039 0
M  V30 2541 H 243.585 -2.51922 -1.84232 0
M  V30 2542 N 243.887 0.651787 -1.4349 0
M  V30 2543 C 245.136 1.40754 -1.44469 0
M  V30 2544 C 245.449 1.95463 -0.0731845 0
M  V30 2545 O 246.655 2.71471 0.0395721 0
M  V30 2546 C 245.111 2.54735 -2.5424 0
M  V30 2547 C 244.719 2.06628 -3.97504 0
M  V30 2548 C 246.463 3.32092 -2.64414 0
M  V30 2549 C 244.37 3.17829 -4.98737 0
M  V30 2550 H 243.3 0.528862 -0.53742 0
M  V30 2551 H 245.951 0.703365 -1.69485 0
M  V30 2552 H 244.333 3.2763 -2.22428 0
M  V30 2553 H 245.507 1.40734 -4.38783 0
M  V30 2554 H 243.822 1.42146 -3.91387 0
M  V30 2555 H 246.419 4.14952 -3.37223 0
M  V30 2556 H 246.762 3.80217 -1.69532 0
M  V30 2557 H 247.295 2.66279 -2.95534 0
M  V30 2558 H 244.034 2.74671 -5.95177 0
M  V30 2559 H 243.554 3.82429 -4.62069 0
M  V30 2560 H 245.233 3.82937 -5.21505 0
M  V30 2561 N 245.365 1.30045 0.890287 0
M  V30 2562 C 246.611 1.19747 1.64415 0
M  V30 2563 C 246.966 -0.246591 1.90813 0
M  V30 2564 O 246.259 -1.174 1.51419 0
M  V30 2565 C 246.453 1.95409 2.99249 0
M  V30 2566 C 246.282 3.47025 2.86013 0
M  V30 2567 C 245.052 4.1638 2.86279 0
M  V30 2568 C 247.25 4.42353 2.62351 0
M  V30 2569 N 245.232 5.54293 2.63879 0
M  V30 2570 C 246.603 5.67792 2.49022 0
M  V30 2571 C 248.658 4.32009 2.47533 0
M  V30 2572 C 247.361 6.8406 2.22383 0
M  V30 2573 C 249.387 5.48038 2.22279 0
M  V30 2574 C 248.749 6.72455 2.09722 0
M  V30 2575 H 244.848 0.493223 0.60684 0
M  V30 2576 H 247.432 1.6399 1.04954 0
M  V30 2577 H 245.603 1.53565 3.56752 0
M  V30 2578 H 247.335 1.77298 3.63796 0
M  V30 2579 H 244.09 3.68164 2.97913 0
M  V30 2580 H 244.514 6.26852 2.55706 0
M  V30 2581 H 249.156 3.36503 2.55979 0
M  V30 2582 H 246.874 7.79612 2.12675 0
M  V30 2583 H 250.46 5.41939 2.11643 0
M  V30 2584 H 249.34 7.60722 1.90453 0
M  V30 2585 N 246.843 -1.10192 1.12674 0
M  V30 2586 C 248.073 -1.85713 0.905213 0
M  V30 2587 C 248.481 -1.81056 -0.549108 0
M  V30 2588 O 247.824 -1.19927 -1.39151 0
M  V30 2589 C 247.886 -3.34972 1.30516 0
M  V30 2590 C 247.55 -3.63385 2.77129 0
M  V30 2591 C 248.547 -3.59772 3.75313 0
M  V30 2592 C 246.232 -3.91981 3.14096 0
M  V30 2593 C 248.226 -3.84354 5.08479 0
M  V30 2594 C 245.913 -4.16218 4.47443 0
M  V30 2595 C 246.911 -4.12395 5.44444 0
M  V30 2596 O 246.599 -4.36014 6.75387 0
M  V30 2597 H 246.331 -0.593719 0.323223 0
M  V30 2598 H 248.885 -1.40198 1.50112 0
M  V30 2599 H 247.115 -3.81156 0.652463 0
M  V30 2600 H 248.804 -3.91886 1.05736 0
M  V30 2601 H 249.57 -3.37716 3.48099 0
M  V30 2602 H 245.449 -3.94085 2.39202 0
M  V30 2603 H 248.993 -3.81285 5.84181 0
M  V30 2604 H 244.89 -4.37754 4.74386 0
M  V30 2605 H 245.658 -4.53516 6.8137 0
M  V30 2606 N 248.321 -0.919034 -1.28029 0
M  V30 2607 C 249.549 -0.570971 -1.98866 0
M  V30 2608 C 249.964 0.848996 -1.68634 0
M  V30 2609 O 249.321 1.56307 -0.942036 0
M  V30 2610 C 249.372 -0.776876 -3.53054 0
M  V30 2611 O 249.093 -2.14097 -3.82222 0
M  V30 2612 C 250.594 -0.436356 -4.41147 0
M  V30 2613 H 247.814 -0.217175 -0.634883 0
M  V30 2614 H 250.358 -1.23368 -1.63097 0
M  V30 2615 H 248.513 -0.161085 -3.87065 0
M  V30 2616 H 248.927 -2.18455 -4.76841 0
M  V30 2617 H 250.401 -0.63117 -5.4838 0
M  V30 2618 H 250.878 0.627686 -4.34692 0
M  V30 2619 H 251.484 -1.02991 -4.12641 0
M  V30 2620 N 249.799 1.42003 -0.683588 0
M  V30 2621 C 251.076 1.95112 -0.138075 0
M  V30 2622 C 251.456 1.62359 1.34918 0
M  V30 2623 O 250.804 0.924311 2.08971 0
M  V30 2624 C 251.014 3.46505 -0.416581 0
M  V30 2625 C 252.362 4.23254 -0.337834 0
M  V30 2626 O 253.386 3.54468 -0.35082 0
M  V30 2627 O 252.245 5.45743 -0.287596 0
M  V30 2628 H 249.339 0.826961 -0.00797996 0
M  V30 2629 H 251.885 1.51784 -0.758924 0
M  V30 2630 H 250.657 3.63582 -1.4465 0
M  V30 2631 H 250.28 3.969 0.235839 0
M  V30 2632 N 251.277 0.427512 1.51691 0
M  V30 2633 C 252.207 -0.3796 2.30394 0
M  V30 2634 C 253.188 -1.02982 1.35384 0
M  V30 2635 O 254.373 -1.03534 1.643 0
M  V30 2636 C 251.503 -1.48649 3.1388 0
M  V30 2637 C 250.457 -0.960294 4.17088 0
M  V30 2638 C 249.783 -2.16219 4.89033 0
M  V30 2639 C 251.083 -0.00153679 5.223 0
M  V30 2640 H 252.777 0.277164 2.98114 0
M  V30 2641 H 250.323 0.134739 1.43368 0
M  V30 2642 H 252.276 -2.05826 3.67714 0
M  V30 2643 H 251 -2.1714 2.43962 0
M  V30 2644 H 249.659 -0.410806 3.64291 0
M  V30 2645 H 249.307 -2.83307 4.15628 0
M  V30 2646 H 249.007 -1.81654 5.58816 0
M  V30 2647 H 250.531 -2.73968 5.45687 0
M  V30 2648 H 251.945 -0.482687 5.71264 0
M  V30 2649 H 250.342 0.256199 5.99553 0
M  V30 2650 H 251.412 0.938174 4.75738 0
M  V30 2651 N 252.755 -1.56801 0.158532 0
M  V30 2652 C 254.166 -1.83189 -0.360366 0
M  V30 2653 C 254.517 -1.07778 -1.63946 0
M  V30 2654 O 253.642 -0.326718 -2.13919 0
M  V30 2655 C 254.237 -3.32297 -0.660595 0
M  V30 2656 C 252.796 -3.59227 -1.12398 0
M  V30 2657 C 251.943 -2.76877 -0.153097 0
M  V30 2658 H 254.894 -1.54008 0.383031 0
M  V30 2659 H 254.915 -3.4908 -1.51405 0
M  V30 2660 H 254.427 -3.87156 0.270527 0
M  V30 2661 H 252.528 -3.09766 -2.07064 0
M  V30 2662 H 252.641 -4.67632 -1.04197 0
M  V30 2663 H 251.005 -2.46319 -0.647983 0
M  V30 2664 H 251.788 -3.34511 0.77182 0
M  V30 2665 N 254.233 0.115231 -1.57178 0
M  V30 2666 C 255.196 1.12526 -1.99676 0
M  V30 2667 C 256.196 1.34095 -0.88742 0
M  V30 2668 O 257.386 1.30548 -1.15337 0
M  V30 2669 C 254.518 2.4789 -2.34015 0
M  V30 2670 H 255.711 0.759912 -2.90113 0
M  V30 2671 H 253.264 0.359648 -1.52106 0
M  V30 2672 H 253.999 2.89339 -1.4647 0
M  V30 2673 H 253.784 2.33588 -3.14927 0
M  V30 2674 H 255.274 3.20575 -2.67622 0
M  V30 2675 N 255.711 1.52812 0.385517 0
M  V30 2676 C 256.674 1.77188 1.45386 0
M  V30 2677 C 257.674 0.641953 1.4743 0
M  V30 2678 O 258.864 0.910033 1.4854 0
M  V30 2679 C 255.996 1.87582 2.8465 0
M  V30 2680 H 257.189 2.72583 1.25054 0
M  V30 2681 H 254.742 1.43586 0.617467 0
M  V30 2682 H 255.477 0.941849 3.10322 0
M  V30 2683 H 255.262 2.69748 2.84567 0
M  V30 2684 H 256.752 2.08102 3.62054 0
M  V30 2685 N 257.189 -0.644168 1.43834 0
M  V30 2686 C 258.119 -1.76814 1.52509 0
M  V30 2687 C 259.1 -1.65823 0.379052 0
M  V30 2688 O 260.285 -1.84781 0.597466 0
M  V30 2689 C 257.415 -3.15288 1.4564 0
M  V30 2690 C 256.369 -3.41053 2.58586 0
M  V30 2691 C 255.695 -4.79421 2.36769 0
M  V30 2692 C 256.995 -3.34902 4.00797 0
M  V30 2693 H 258.689 -1.69812 2.46586 0
M  V30 2694 H 256.235 -0.815542 1.1868 0
M  V30 2695 H 258.188 -3.93681 1.50311 0
M  V30 2696 H 256.912 -3.23043 0.480725 0
M  V30 2697 H 255.571 -2.65035 2.53282 0
M  V30 2698 H 255.219 -4.83863 1.37424 0
M  V30 2699 H 254.919 -4.9762 3.12487 0
M  V30 2700 H 256.443 -5.6006 2.43238 0
M  V30 2701 H 257.857 -4.03218 4.07539 0
M  V30 2702 H 256.254 -3.64637 4.76613 0
M  V30 2703 H 257.324 -2.32928 4.25291 0
M  V30 2704 N 258.668 -1.30515 -0.883378 0
M  V30 2705 C 259.945 -1.10086 -1.6168 0
M  V30 2706 C 260.325 0.349269 -2.08191 0
M  V30 2707 O 259.673 1.34105 -1.85008 0
M  V30 2708 C 259.883 -2.10315 -2.78511 0
M  V30 2709 C 261.231 -2.42119 -3.48803 0
M  V30 2710 O 262.255 -2.08638 -2.88702 0
M  V30 2711 O 261.114 -2.99396 -4.57192 0
M  V30 2712 H 258.208 -0.422907 -0.710689 0
M  V30 2713 H 260.754 -1.41947 -0.930015 0
M  V30 2714 H 259.526 -3.07917 -2.41459 0
M  V30 2715 H 259.149 -1.79282 -3.54886 0
M  V30 2716 N 260.146 1.09593 -1.13257 0
M  V30 2717 C 261.392 1.82003 -0.89458 0
M  V30 2718 C 261.725 1.85402 0.577906 0
M  V30 2719 O 261 1.32099 1.42759 0
M  V30 2720 C 261.283 3.28237 -1.48096 0
M  V30 2721 C 261.136 3.3312 -3.02244 0
M  V30 2722 C 262.455 4.24871 -1.14774 0
M  V30 2723 H 259.574 0.66077 -0.326424 0
M  V30 2724 H 262.216 1.28389 -1.40058 0
M  V30 2725 H 260.366 3.74024 -1.05062 0
M  V30 2726 H 262.038 2.95748 -3.54021 0
M  V30 2727 H 260.281 2.72756 -3.37323 0
M  V30 2728 H 260.952 4.3613 -3.38371 0
M  V30 2729 H 263.428 3.87361 -1.51957 0
M  V30 2730 H 262.304 5.25532 -1.58452 0
M  V30 2731 H 262.565 4.42058 -0.0611849 0
M  V30 2732 N 261.624 0.925811 1.2754 0
M  V30 2733 C 262.873 0.561084 1.93739 0
M  V30 2734 C 263.186 -0.901685 1.73577 0
M  V30 2735 O 264.392 -1.37511 2.34101 0
M  V30 2736 C 262.848 0.952668 3.47062 0
M  V30 2737 C 262.456 2.43599 3.75983 0
M  V30 2738 C 264.2 0.659103 4.19352 0
M  V30 2739 C 262.107 2.76707 5.22673 0
M  V30 2740 H 261.037 0.206122 0.725279 0
M  V30 2741 H 263.688 1.12637 1.44863 0
M  V30 2742 H 262.07 0.316053 3.94737 0
M  V30 2743 H 263.244 3.12035 3.39073 0
M  V30 2744 H 261.559 2.70125 3.16893 0
M  V30 2745 H 264.156 0.882985 5.27359 0
M  V30 2746 H 264.499 -0.403607 4.14339 0
M  V30 2747 H 265.032 1.25473 3.77494 0
M  V30 2748 H 261.771 3.8188 5.32774 0
M  V30 2749 H 261.291 2.12919 5.60737 0
M  V30 2750 H 262.97 2.6435 5.90532 0
M  V30 2751 N 263.102 -1.41638 0.69111 0
M  V30 2752 C 264.034 -2.29194 -0.0161523 0
M  V30 2753 C 265.047 -1.44549 -0.748955 0
M  V30 2754 O 266.236 -1.681 -0.6004 0
M  V30 2755 C 263.336 -3.22325 -1.0469 0
M  V30 2756 C 262.509 -4.35706 -0.384621 0
M  V30 2757 C 261.568 -5.09443 -1.31737 0
M  V30 2758 O 260.594 -5.63386 -0.811451 0
M  V30 2759 N 261.796 -5.16487 -2.64993 0
M  V30 2760 H 264.561 -2.90534 0.735523 0
M  V30 2761 H 262.122 -1.52742 0.53679 0
M  V30 2762 H 264.114 -3.68522 -1.67252 0
M  V30 2763 H 262.684 -2.62323 -1.70015 0
M  V30 2764 H 261.904 -3.91948 0.420804 0
M  V30 2765 H 263.192 -5.08743 0.0760765 0
M  V30 2766 H 262.59 -4.741 -3.08619 0
M  V30 2767 H 261.147 -5.66276 -3.22761 0
M  V30 2768 N 264.58 -0.43555 -1.51462 0
M  V30 2769 C 265.996 -0.0877501 -1.59359 0
M  V30 2770 C 266.196 1.4027 -1.4466 0
M  V30 2771 O 265.252 2.17243 -1.28693 0
M  V30 2772 C 266.565 -0.606264 -2.94525 0
M  V30 2773 C 268.113 -0.566548 -3.0783 0
M  V30 2774 C 268.588 -1.06201 -4.45517 0
M  V30 2775 N 270.079 -1.01992 -4.51832 0
M  V30 2776 C 270.814 -1.37417 -5.5669 0
M  V30 2777 N 270.31 -1.80119 -6.68976 0
M  V30 2778 N 272.103 -1.29245 -5.47039 0
M  V30 2779 H 264.254 -1.40533 -1.59261 0
M  V30 2780 H 266.517 -0.578992 -0.750648 0
M  V30 2781 H 266.223 -1.64901 -3.10645 0
M  V30 2782 H 266.097 -0.0302097 -3.77188 0
M  V30 2783 H 268.484 0.467208 -2.91378 0
M  V30 2784 H 268.565 -1.17898 -2.2701 0
M  V30 2785 H 268.209 -2.09422 -4.62715 0
M  V30 2786 H 268.139 -0.426127 -5.24873 0
M  V30 2787 H 270.63 -0.706308 -3.71241 0
M  V30 2788 H 270.943 -2.05392 -7.45006 0
M  V30 2789 H 269.288 -1.84044 -6.70189 0
M  V30 2790 H 272.479 -0.957522 -4.58202 0
M  V30 2791 H 272.652 -1.57182 -6.28648 0
M  V30 2792 N 266.058 1.56714 -0.166846 0
M  V30 2793 C 267.008 2.14338 0.777382 0
M  V30 2794 C 267.992 1.07642 1.19591 0
M  V30 2795 O 269.184 1.33775 1.15902 0
M  V30 2796 C 266.313 2.78417 2.00846 0
M  V30 2797 C 265.399 3.92264 1.61212 0
M  V30 2798 N 265.79 4.97268 0.925104 0
M  V30 2799 C 264.088 4.03342 1.90346 0
M  V30 2800 C 264.789 5.77093 0.730627 0
M  V30 2801 N 263.765 5.2854 1.27067 0
M  V30 2802 H 267.567 2.9289 0.243466 0
M  V30 2803 H 265.081 1.62364 0.0339954 0
M  V30 2804 H 267.078 3.18073 2.69509 0
M  V30 2805 H 265.738 2.01344 2.54736 0
M  V30 2806 H 266.749 5.14601 0.583646 0
M  V30 2807 H 263.426 3.37368 2.45946 0
M  V30 2808 H 264.816 6.71638 0.187668 0
M  V30 2809 N 267.536 -0.106894 1.57237 0
M  V30 2810 C 268.486 -1.1366 1.9765 0
M  V30 2811 C 269.47 -1.36416 0.853203 0
M  V30 2812 O 270.662 -1.37305 1.11697 0
M  V30 2813 C 267.791 -2.46 2.39455 0
M  V30 2814 C 266.877 -2.26668 3.58445 0
M  V30 2815 N 267.268 -1.77176 4.73754 0
M  V30 2816 C 265.566 -2.57279 3.64312 0
M  V30 2817 C 266.267 -1.71836 5.5574 0
M  V30 2818 N 265.243 -2.16623 4.98573 0
M  V30 2819 H 269.045 -0.74669 2.84256 0
M  V30 2820 H 266.559 -0.314483 1.59326 0
M  V30 2821 H 268.556 -3.2049 2.6663 0
M  V30 2822 H 267.216 -2.85738 1.54219 0
M  V30 2823 H 268.227 -1.46545 4.96734 0
M  V30 2824 H 264.904 -3.00622 2.89711 0
M  V30 2825 H 266.294 -1.34723 6.58255 0
M  V30 2826 N 269.014 -1.53014 -0.377408 0
M  V30 2827 C 269.944 -1.81589 -1.46791 0
M  V30 2828 C 270.925 -0.668622 -1.56408 0
M  V30 2829 O 272.11 -0.917337 -1.71168 0
M  V30 2830 C 269.24 -1.99519 -2.8427 0
M  V30 2831 C 268.194 -3.15249 -2.89486 0
M  V30 2832 C 267.52 -3.18451 -4.29527 0
M  V30 2833 C 268.82 -4.54084 -2.58079 0
M  V30 2834 H 270.514 -2.7291 -1.23127 0
M  V30 2835 H 268.06 -1.31319 -0.590883 0
M  V30 2836 H 270.013 -2.18092 -3.60575 0
M  V30 2837 H 268.737 -1.04897 -3.09296 0
M  V30 2838 H 267.396 -2.96477 -2.15631 0
M  V30 2839 H 267.044 -2.2149 -4.5161 0
M  V30 2840 H 266.744 -3.962 -4.33934 0
M  V30 2841 H 268.268 -3.39193 -5.07721 0
M  V30 2842 H 269.682 -4.72899 -3.24098 0
M  V30 2843 H 268.079 -5.33987 -2.7382 0
M  V30 2844 H 269.149 -4.60006 -1.53372 0
M  V30 2845 N 270.492 0.636531 -1.44174 0
M  V30 2846 C 271.424 1.7618 -1.46606 0
M  V30 2847 C 272.437 1.58768 -0.360091 0
M  V30 2848 O 273.626 1.67181 -0.625518 0
M  V30 2849 C 270.726 3.13833 -1.27915 0
M  V30 2850 C 269.899 3.57753 -2.51658 0
M  V30 2851 C 268.958 4.74265 -2.27945 0
M  V30 2852 O 267.984 4.82852 -3.01401 0
M  V30 2853 N 269.186 5.65604 -1.30662 0
M  V30 2854 H 271.951 1.74567 -2.43612 0
M  V30 2855 H 269.512 0.820924 -1.39544 0
M  V30 2856 H 271.504 3.8949 -1.09907 0
M  V30 2857 H 270.074 3.10121 -0.39293 0
M  V30 2858 H 269.294 2.72362 -2.84978 0
M  V30 2859 H 270.582 3.83847 -3.33974 0
M  V30 2860 H 269.98 5.61354 -0.699844 0
M  V30 2861 H 268.537 6.40913 -1.18634 0
M  V30 2862 N 271.97 1.30982 0.876444 0
M  V30 2863 C 272.9 1.20668 1.99903 0
M  V30 2864 C 273.881 0.095354 1.69833 0
M  V30 2865 O 275.066 0.27885 1.92188 0
M  V30 2866 C 272.196 0.90655 3.3526 0
M  V30 2867 C 271.15 1.97675 3.79617 0
M  V30 2868 C 270.476 1.52943 5.1236 0
M  V30 2869 C 271.776 3.389 3.97422 0
M  V30 2870 H 273.47 2.14586 2.0879 0
M  V30 2871 H 271.016 1.03308 1.00317 0
M  V30 2872 H 272.969 0.821025 4.13324 0
M  V30 2873 H 271.693 -0.0682969 3.26529 0
M  V30 2874 H 270.352 2.05205 3.03787 0
M  V30 2875 H 270 0.54262 5.00065 0
M  V30 2876 H 269.7 2.24532 5.43009 0
M  V30 2877 H 271.224 1.45786 5.92941 0
M  V30 2878 H 272.638 3.34081 4.659 0
M  V30 2879 H 271.035 4.0865 4.3946 0
M  V30 2880 H 272.105 3.80163 3.01006 0
M  V30 2881 N 273.449 -1.08991 1.13837 0
M  V30 2882 C 274.695 -1.81526 0.90422 0
M  V30 2883 C 275.028 -1.85706 -0.568066 0
M  V30 2884 O 274.303 -1.32855 -1.42056 0
M  V30 2885 C 274.586 -3.27447 1.49835 0
M  V30 2886 C 274.439 -3.31512 3.04006 0
M  V30 2887 C 275.758 -4.24256 1.17025 0
M  V30 2888 H 272.877 -0.659029 0.329923 0
M  V30 2889 H 275.519 -1.27644 1.40737 0
M  V30 2890 H 273.669 -3.73462 1.07044 0
M  V30 2891 H 275.341 -2.93867 3.55584 0
M  V30 2892 H 273.584 -2.70963 3.38765 0
M  V30 2893 H 274.255 -4.34329 3.40679 0
M  V30 2894 H 276.731 -3.86549 1.54009 0
M  V30 2895 H 275.607 -5.24684 1.61237 0
M  V30 2896 H 275.868 -4.42019 0.0846274 0
M  V30 2897 N 274.927 -0.932562 -1.27047 0
M  V30 2898 C 276.175 -0.574422 -1.93765 0
M  V30 2899 C 276.496 0.887993 -1.73608 0
M  V30 2900 O 275.766 1.62999 -1.08665 0
M  V30 2901 H 274.346 -0.209451 -0.717035 0
M  V30 2902 H 277.008 -1.18601 -1.5466 0
M  V30 2903 H 276.104 -0.784841 -3.02071 0
M  V30 2904 N 276.405 1.4127 -0.698611 0
M  V30 2905 C 277.654 2.00408 -0.227949 0
M  V30 2906 C 277.967 1.55981 1.18023 0
M  V30 2907 O 279.173 2.07699 1.74852 0
M  V30 2908 C 277.629 3.58129 -0.356636 0
M  V30 2909 C 277.237 4.11536 -1.77037 0
M  V30 2910 C 278.981 4.24466 0.0540969 0
M  V30 2911 C 276.888 5.61701 -1.85055 0
M  V30 2912 H 275.818 0.749586 -0.0814657 0
M  V30 2913 H 278.469 1.61713 -0.867249 0
M  V30 2914 H 276.851 3.94442 0.350965 0
M  V30 2915 H 278.025 3.86636 -2.50698 0
M  V30 2916 H 276.34 3.57736 -2.13105 0
M  V30 2917 H 278.937 5.34698 0.0146723 0
M  V30 2918 H 279.28 4.01687 1.09332 0
M  V30 2919 H 279.813 3.93198 -0.603337 0
M  V30 2920 H 276.552 5.89312 -2.8704 0
M  V30 2921 H 276.072 5.88519 -1.15783 0
M  V30 2922 H 277.751 6.26524 -1.61484 0
M  V30 2923 N 277.883 0.443576 1.51229 0
M  V30 2924 C 278.833 -0.382787 2.24764 0
M  V30 2925 C 279.817 -0.984836 1.27239 0
M  V30 2926 O 281.009 -0.901943 1.52296 0
M  V30 2927 C 278.138 -1.47989 3.09765 0
M  V30 2928 C 277.224 -0.886931 4.14722 0
M  V30 2929 N 277.615 -0.0237103 5.05794 0
M  V30 2930 C 275.913 -1.15385 4.30816 0
M  V30 2931 C 276.614 0.309971 5.80874 0
M  V30 2932 N 275.59 -0.307989 5.42727 0
M  V30 2933 H 279.392 0.282624 2.92538 0
M  V30 2934 H 276.906 0.256027 1.60369 0
M  V30 2935 H 278.903 -2.08482 3.61027 0
M  V30 2936 H 277.563 -2.14758 2.43535 0
M  V30 2937 H 278.574 0.34318 5.16762 0
M  V30 2938 H 275.251 -1.81857 3.75812 0
M  V30 2939 H 276.641 1.01279 6.64223 0
M  V30 2940 N 279.361 -1.56624 0.175154 0
M  V30 2941 C 280.294 -2.14 -0.792412 0
M  V30 2942 C 281.272 -1.07114 -1.22333 0
M  V30 2943 O 282.456 -1.35112 -1.31442 0
M  V30 2944 C 279.583 -2.68268 -2.0676 0
M  V30 2945 C 278.629 -3.87562 -1.7804 0
M  V30 2946 S 279.462 -5.27074 -0.946222 0
M  V30 2947 C 280.618 -5.8475 -2.23199 0
M  V30 2948 H 280.851 -2.95736 -0.304588 0
M  V30 2949 H 278.384 -1.54349 -0.0395705 0
M  V30 2950 H 280.342 -3.00182 -2.80002 0
M  V30 2951 H 279.003 -1.86612 -2.52656 0
M  V30 2952 H 278.196 -4.23874 -2.72666 0
M  V30 2953 H 277.798 -3.56555 -1.12891 0
M  V30 2954 H 280.09 -5.97898 -3.18629 0
M  V30 2955 H 281.033 -6.81756 -1.91349 0
M  V30 2956 H 281.441 -5.13198 -2.35134 0
M  V30 2957 N 280.839 0.0985539 -1.57292 0
M  V30 2958 C 281.789 1.1261 -1.9825 0
M  V30 2959 C 282.773 1.35961 -0.860426 0
M  V30 2960 O 283.965 1.36711 -1.12424 0
M  V30 2961 C 281.094 2.44727 -2.40757 0
M  V30 2962 C 280.18 2.24764 -3.59642 0
M  V30 2963 N 280.571 1.74661 -4.74687 0
M  V30 2964 C 278.869 2.55344 -3.65672 0
M  V30 2965 C 279.57 1.68887 -5.56644 0
M  V30 2966 N 278.546 2.13976 -4.99715 0
M  V30 2967 H 282.348 0.731604 -2.84648 0
M  V30 2968 H 279.862 0.306029 -1.59491 0
M  V30 2969 H 281.859 3.19072 -2.68326 0
M  V30 2970 H 280.519 2.84917 -1.55733 0
M  V30 2971 H 281.53 1.43908 -4.97505 0
M  V30 2972 H 278.207 2.99081 -2.91302 0
M  V30 2973 H 279.597 1.3123 -6.5896 0
M  V30 2974 N 282.317 1.53212 0.369288 0
M  V30 2975 C 283.566 1.68436 1.10961 0
M  V30 2976 C 283.879 0.440738 1.9057 0
M  V30 2977 O 285.085 0.473446 2.6734 0
M  V30 2978 C 283.541 2.97744 2.0218 0
M  V30 2979 C 283.149 4.29355 1.279 0
M  V30 2980 C 284.893 3.22334 2.76226 0
M  V30 2981 C 282.8 5.49755 2.17999 0
M  V30 2982 H 281.73 0.627568 0.41794 0
M  V30 2983 H 284.381 1.79713 0.370884 0
M  V30 2984 H 282.763 2.8026 2.79768 0
M  V30 2985 H 283.937 4.57458 0.554007 0
M  V30 2986 H 282.252 4.11179 0.657311 0
M  V30 2987 H 284.849 4.09471 3.43857 0
M  V30 2988 H 285.192 2.38238 3.41392 0
M  V30 2989 H 285.725 3.40475 2.05723 0
M  V30 2990 H 282.464 6.36318 1.57417 0
M  V30 2991 H 281.984 5.25937 2.88359 0
M  V30 2992 H 283.663 5.84401 2.77641 0
M  V30 2993 N 283.795 -0.628877 1.44509 0
M  V30 2994 C 285.043 -1.38565 1.4712 0
M  V30 2995 C 285.364 -1.94712 0.105899 0
M  V30 2996 O 284.634 -1.75912 -0.862079 0
M  V30 2997 H 283.214 -0.514333 0.541729 0
M  V30 2998 H 285.876 -0.740018 1.80305 0
M  V30 2999 H 284.972 -2.21583 2.19789 0
M  V30 3000 N 285.273 -1.31445 -0.869486 0
M  V30 3001 C 286.498 -1.24256 -1.66058 0
M  V30 3002 C 286.923 0.188928 -1.87149 0
M  V30 3003 O 286.281 1.13522 -1.4136 0
M  V30 3004 C 286.329 -1.9924 -3.00559 0
M  V30 3005 O 285.433 -1.33007 -3.90362 0
M  V30 3006 H 284.774 -0.428973 -0.506831 0
M  V30 3007 H 287.304 -1.73521 -1.08404 0
M  V30 3008 H 287.314 -2.08854 -3.50491 0
M  V30 3009 H 285.989 -3.03342 -2.84528 0
M  V30 3010 H 284.566 -1.31848 -3.48813 0
M  V30 3011 N 286.751 1.08385 -1.14413 0
M  V30 3012 C 287.999 1.80419 -0.910679 0
M  V30 3013 C 288.32 1.86658 0.564243 0
M  V30 3014 O 287.59 1.35985 1.41014 0
M  V30 3015 H 286.17 0.668204 -0.333934 0
M  V30 3016 H 288.832 1.31037 -1.44275 0
M  V30 3017 H 287.928 2.83238 -1.31082 0
M  V30 3018 N 288.23 0.939286 1.26551 0
M  V30 3019 C 289.476 0.586715 1.94128 0
M  V30 3020 C 289.809 -0.8717 1.73537 0
M  V30 3021 O 289.084 -1.62339 1.07127 0
M  V30 3022 C 289.367 0.927497 3.4795 0
M  V30 3023 C 289.22 2.44052 3.77834 0
M  V30 3024 C 290.539 0.441569 4.37879 0
M  V30 3025 H 287.658 0.21463 0.705055 0
M  V30 3026 H 290.3 1.17316 1.49455 0
M  V30 3027 H 288.45 0.428431 3.8613 0
M  V30 3028 H 290.122 3.01216 3.4938 0
M  V30 3029 H 288.365 2.8848 3.23978 0
M  V30 3030 H 289.036 2.62947 4.85348 0
M  V30 3031 H 291.512 0.869448 4.06915 0
M  V30 3032 H 290.388 0.708856 5.44304 0
M  V30 3033 H 290.649 -0.658467 4.37169 0
M  V30 3034 N 289.708 -1.40897 0.706093 0
M  V30 3035 C 290.985 -1.94868 0.169099 0
M  V30 3036 C 291.365 -1.64485 -1.32318 0
M  V30 3037 O 290.713 -0.95744 -2.07474 0
M  V30 3038 C 290.923 -3.45798 0.471654 0
M  V30 3039 C 292.271 -4.22663 0.405127 0
M  V30 3040 O 293.295 -3.53865 0.407168 0
M  V30 3041 O 292.154 -5.45216 0.374383 0
M  V30 3042 H 289.248 -0.82673 0.0211352 0
M  V30 3043 H 291.794 -1.50558 0.782976 0
M  V30 3044 H 290.566 -3.61235 1.50416 0
M  V30 3045 H 290.189 -3.97225 -0.172666 0
M  V30 3046 N 291.186 -0.45159 -1.50991 0
M  V30 3047 C 292.416 0.108177 -2.06317 0
M  V30 3048 C 292.824 1.35774 -1.31765 0
M  V30 3049 O 292.167 1.79838 -0.374694 0
M  V30 3050 C 292.229 0.481659 -3.56259 0
M  V30 3051 C 291.893 -0.663114 -4.52163 0
M  V30 3052 C 292.89 -1.53947 -4.96585 0
M  V30 3053 C 290.575 -0.8479 -4.95092 0
M  V30 3054 C 292.569 -2.58518 -5.82621 0
M  V30 3055 C 290.256 -1.89686 -5.80915 0
M  V30 3056 C 291.254 -2.76388 -6.24579 0
M  V30 3057 O 290.942 -3.79482 -7.08695 0
M  V30 3058 H 290.674 0.00499183 -0.675982 0
M  V30 3059 H 293.228 -0.633659 -1.95381 0
M  V30 3060 H 291.458 1.27641 -3.65027 0
M  V30 3061 H 293.147 0.974233 -3.94035 0
M  V30 3062 H 293.913 -1.4083 -4.64103 0
M  V30 3063 H 289.792 -0.18258 -4.60638 0
M  V30 3064 H 293.336 -3.26224 -6.16623 0
M  V30 3065 H 289.233 -2.02817 -6.12809 0
M  V30 3066 H 290.001 -3.76234 -7.26905 0
M  V30 3067 N 292.664 1.56529 -0.183458 0
M  V30 3068 C 293.627 2.17324 0.728223 0
M  V30 3069 C 294.627 1.12453 1.14939 0
M  V30 3070 O 295.817 1.37902 1.06437 0
M  V30 3071 C 292.949 2.76591 1.99274 0
M  V30 3072 H 294.142 2.99241 0.198772 0
M  V30 3073 H 291.695 1.5616 0.0661391 0
M  V30 3074 H 292.43 1.98441 2.56499 0
M  V30 3075 H 292.215 3.5335 1.69959 0
M  V30 3076 H 293.705 3.23311 2.6431 0
M  V30 3077 N 294.142 -0.090211 1.57342 0
M  V30 3078 C 295.092 -1.11557 1.98844 0
M  V30 3079 C 296.076 -1.35503 0.867624 0
M  V30 3080 O 297.268 -1.36113 1.13148 0
M  V30 3081 C 294.397 -2.43446 2.42051 0
M  V30 3082 C 293.483 -2.22853 3.60828 0
M  V30 3083 N 293.874 -1.72141 4.75606 0
M  V30 3084 C 292.172 -2.53401 3.67021 0
M  V30 3085 C 292.873 -1.65932 5.57531 0
M  V30 3086 N 291.849 -2.11323 5.00843 0
M  V30 3087 H 295.651 -0.716499 2.85032 0
M  V30 3088 H 293.165 -0.297567 1.59651 0
M  V30 3089 H 295.162 -3.17644 2.70014 0
M  V30 3090 H 293.822 -2.84087 1.57241 0
M  V30 3091 H 294.833 -1.41268 4.98261 0
M  V30 3092 H 291.51 -2.97532 2.92884 0
M  V30 3093 H 292.9 -1.27733 6.59647 0
M  V30 3094 N 295.62 -1.53406 -0.361157 0
M  V30 3095 C 296.55 -1.83136 -1.44857 0
M  V30 3096 C 297.531 -0.685174 -1.5569 0
M  V30 3097 O 298.716 -0.93544 -1.70186 0
M  V30 3098 C 295.846 -2.02522 -2.82138 0
M  V30 3099 C 294.8 -3.18302 -2.86126 0
M  V30 3100 C 294.126 -3.22989 -4.26125 0
M  V30 3101 C 295.426 -4.56796 -2.53248 0
M  V30 3102 H 297.12 -2.74201 -1.20226 0
M  V30 3103 H 294.666 -1.31938 -0.576922 0
M  V30 3104 H 296.619 -2.21904 -3.58241 0
M  V30 3105 H 295.343 -1.08172 -3.08166 0
M  V30 3106 H 294.002 -2.98747 -2.12475 0
M  V30 3107 H 293.65 -2.26267 -4.49235 0
M  V30 3108 H 293.35 -4.00781 -4.29708 0
M  V30 3109 H 294.874 -3.44559 -5.04094 0
M  V30 3110 H 296.288 -4.7631 -3.19064 0
M  V30 3111 H 294.685 -5.36862 -2.68141 0
M  V30 3112 H 295.755 -4.61606 -1.48484 0
M  V30 3113 N 297.098 0.621204 -1.44841 0
M  V30 3114 C 298.008 1.7612 -1.5498 0
M  V30 3115 C 299.024 1.68477 -0.434927 0
M  V30 3116 O 300.2 1.89076 -0.693693 0
M  V30 3117 C 297.265 3.1254 -1.50065 0
M  V30 3118 C 296.326 3.31741 -2.72482 0
M  V30 3119 C 295.559 4.61653 -2.67792 0
M  V30 3120 O 295.782 5.431 -1.74352 0
M  V30 3121 O 294.716 4.83271 -3.58794 0
M  V30 3122 H 298.542 1.70518 -2.51311 0
M  V30 3123 H 296.127 0.783643 -1.27198 0
M  V30 3124 H 298.009 3.93844 -1.49882 0
M  V30 3125 H 296.684 3.18663 -0.568806 0
M  V30 3126 H 295.591 2.50077 -2.7823 0
M  V30 3127 H 296.924 3.30486 -3.64746 0
M  V30 3128 N 298.576 1.31904 0.862503 0
M  V30 3129 C 299.508 1.16005 1.97675 0
M  V30 3130 C 300.521 0.0971234 1.6251 0
M  V30 3131 O 301.71 0.345337 1.75128 0
M  V30 3132 C 298.81 0.751791 3.30456 0
M  V30 3133 C 297.983 1.90133 3.93914 0
M  V30 3134 C 297.042 1.4779 5.05019 0
M  V30 3135 O 296.068 2.18872 5.25437 0
M  V30 3136 N 297.27 0.369491 5.79323 0
M  V30 3137 H 300.035 2.11982 2.11857 0
M  V30 3138 H 297.596 1.24337 1.03691 0
M  V30 3139 H 299.588 0.451084 4.02178 0
M  V30 3140 H 298.158 -0.116593 3.12382 0
M  V30 3141 H 297.378 2.36896 3.15078 0
M  V30 3142 H 298.666 2.67111 4.33047 0
M  V30 3143 H 298.064 -0.222299 5.65263 0
M  V30 3144 H 296.621 0.128354 6.51674 0
M  V30 3145 N 300.054 -1.07777 1.14986 0
M  V30 3146 C 301.3 -1.80557 0.923422 0
M  V30 3147 C 301.633 -1.86298 -0.548337 0
M  V30 3148 O 300.908 -1.34354 -1.40639 0
M  V30 3149 C 301.191 -3.25839 1.53299 0
M  V30 3150 C 301.044 -3.28269 3.07505 0
M  V30 3151 C 302.363 -4.22991 1.21518 0
M  V30 3152 H 299.482 -0.655493 0.336894 0
M  V30 3153 H 302.124 -1.26144 1.42083 0
M  V30 3154 H 300.274 -3.72306 1.10999 0
M  V30 3155 H 301.946 -2.90079 3.58681 0
M  V30 3156 H 300.189 -2.67355 3.4162 0
M  V30 3157 H 300.86 -4.30691 3.45266 0
M  V30 3158 H 303.336 -3.84894 1.581 0
M  V30 3159 H 302.212 -5.22945 1.66793 0
M  V30 3160 H 302.473 -4.41904 0.131505 0
M  V30 3161 N 301.532 -0.945985 -1.26051 0
M  V30 3162 C 302.772 -0.603665 -1.95282 0
M  V30 3163 C 303.136 0.842377 -1.72534 0
M  V30 3164 O 304.337 1.29387 -2.35611 0
M  V30 3165 C 302.608 -0.942292 -3.44754 0
M  V30 3166 S 304.167 -0.711242 -4.32997 0
M  V30 3167 H 300.985 -0.222176 -0.675395 0
M  V30 3168 H 303.587 -1.21832 -1.52896 0
M  V30 3169 H 302.291 -1.99203 -3.58812 0
M  V30 3170 H 301.822 -0.317546 -3.92116 0
M  V30 3171 H 303.837 0.422221 -4.944 0
M  V30 3172 N 303.011 1.40521 -0.713556 0
M  V30 3173 C 304.259 2.00527 -0.251692 0
M  V30 3174 C 304.58 1.56857 1.15848 0
M  V30 3175 O 303.85 0.807127 1.785 0
M  V30 3176 H 302.43 0.741551 -0.0900646 0
M  V30 3177 H 305.092 1.71887 -0.918733 0
M  V30 3178 H 304.188 3.10813 -0.283192 0
M  V30 3179 N 304.489 0.459591 1.5075 0
M  V30 3180 C 305.452 -0.329093 2.26825 0
M  V30 3181 C 306.452 -0.930481 1.31144 0
M  V30 3182 O 307.642 -0.801453 1.54669 0
M  V30 3183 C 304.774 -1.46768 3.07688 0
M  V30 3184 H 305.967 0.337924 2.9799 0
M  V30 3185 H 303.52 0.213336 1.54837 0
M  V30 3186 H 304.255 -2.17009 2.40993 0
M  V30 3187 H 304.04 -1.04238 3.77991 0
M  V30 3188 H 305.53 -2.02433 3.65254 0
M  V30 3189 N 305.967 -1.56429 0.191757 0
M  V30 3190 C 306.9 -2.14829 -0.76967 0
M  V30 3191 C 307.878 -1.08405 -1.2119 0
M  V30 3192 O 309.062 -1.36498 -1.30002 0
M  V30 3193 C 306.189 -2.70446 -2.03903 0
M  V30 3194 C 305.235 -3.89428 -1.7392 0
M  V30 3195 S 306.068 -5.28048 -0.890265 0
M  V30 3196 C 307.224 -5.87085 -2.16984 0
M  V30 3197 H 307.457 -2.96042 -0.273204 0
M  V30 3198 H 304.99 -1.54383 -0.0231975 0
M  V30 3199 H 306.948 -3.03134 -2.76803 0
M  V30 3200 H 305.609 -1.89281 -2.50662 0
M  V30 3201 H 304.802 -4.26742 -2.68155 0
M  V30 3202 H 304.404 -3.57732 -1.09103 0
M  V30 3203 H 306.696 -6.01244 -3.12269 0
M  V30 3204 H 307.639 -6.83747 -1.84108 0
M  V30 3205 H 308.047 -5.15663 -2.29678 0
M  V30 3206 N 307.445 0.0818655 -1.57387 0
M  V30 3207 C 308.691 0.784074 -1.8703 0
M  V30 3208 C 309.024 1.77729 -0.782689 0
M  V30 3209 O 308.299 1.93384 0.208051 0
M  V30 3210 C 308.582 1.50105 -3.27323 0
M  V30 3211 C 308.435 0.524925 -4.46727 0
M  V30 3212 C 309.754 2.44843 -3.65705 0
M  V30 3213 H 306.873 0.283582 -0.680257 0
M  V30 3214 H 309.515 0.0474352 -1.89941 0
M  V30 3215 H 307.665 2.12897 -3.24972 0
M  V30 3216 H 309.337 -0.0970111 -4.61198 0
M  V30 3217 H 307.58 -0.160606 -4.33503 0
M  V30 3218 H 308.251 1.064 -5.41648 0
M  V30 3219 H 310.727 1.92135 -3.69085 0
M  V30 3220 H 309.603 2.92018 -4.64776 0
M  V30 3221 H 309.864 3.29197 -2.95096 0
M  V30 3222 N 308.923 1.53595 0.353017 0
M  V30 3223 C 310.339 1.43648 0.695516 0
M  V30 3224 C 310.539 0.585617 1.92802 0
M  V30 3225 O 309.595 0.0729223 2.52395 0
M  V30 3226 C 310.908 2.8701 0.896991 0
M  V30 3227 C 312.456 2.96723 0.996209 0
M  V30 3228 C 312.931 4.41173 1.23007 0
M  V30 3229 N 314.422 4.44657 1.29749 0
M  V30 3230 C 315.157 5.53547 1.49577 0
M  V30 3231 N 314.653 6.72461 1.66639 0
M  V30 3232 N 316.446 5.41145 1.52048 0
M  V30 3233 H 308.597 2.07415 -0.457481 0
M  V30 3234 H 310.86 0.9372 -0.142687 0
M  V30 3235 H 310.566 3.51644 0.0629938 0
M  V30 3236 H 310.44 3.31401 1.80148 0
M  V30 3237 H 312.827 2.32235 1.82074 0
M  V30 3238 H 312.908 2.55707 0.0688331 0
M  V30 3239 H 312.552 5.06238 0.410505 0
M  V30 3240 H 312.482 4.79772 2.17086 0
M  V30 3241 H 314.973 3.58963 1.18126 0
M  V30 3242 H 315.286 7.51214 1.81378 0
M  V30 3243 H 313.631 6.75423 1.63794 0
M  V30 3244 H 316.822 4.47205 1.38294 0
M  V30 3245 H 316.995 6.26068 1.67159 0
M  V30 3246 N 310.401 -0.613514 1.45168 0
M  V30 3247 C 311.333 -1.73825 1.4939 0
M  V30 3248 C 312.346 -1.58175 0.385304 0
M  V30 3249 O 313.535 -1.66165 0.652036 0
M  V30 3250 C 310.635 -3.11758 1.32891 0
M  V30 3251 C 309.808 -3.53704 2.57317 0
M  V30 3252 C 308.867 -4.70579 2.35462 0
M  V30 3253 O 307.893 -4.77996 3.09044 0
M  V30 3254 N 309.095 -5.63454 1.39644 0
M  V30 3255 H 311.86 -1.70669 2.46358 0
M  V30 3256 H 309.421 -0.79862 1.40832 0
M  V30 3257 H 311.413 -3.87692 1.1609 0
M  V30 3258 H 309.983 -3.09456 0.442218 0
M  V30 3259 H 309.203 -2.67794 2.89275 0
M  V30 3260 H 310.491 -3.78486 3.40038 0
M  V30 3261 H 309.889 -5.6017 0.789062 0
M  V30 3262 H 308.446 -6.38944 1.28816 0
M  V30 3263 N 311.879 -1.3236 -0.855495 0
M  V30 3264 C 313.125 -1.23054 -1.612 0
M  V30 3265 C 313.458 0.207404 -1.93089 0
M  V30 3266 O 312.733 1.14432 -1.57275 0
M  V30 3267 C 313.016 -2.08937 -2.93287 0
M  V30 3268 C 312.869 -3.61105 -2.68185 0
M  V30 3269 C 314.188 -1.94986 -3.94549 0
M  V30 3270 H 311.307 -0.448364 -0.584926 0
M  V30 3271 H 313.949 -1.62297 -0.987917 0
M  V30 3272 H 312.099 -1.75599 -3.46551 0
M  V30 3273 H 313.771 -4.04652 -2.21483 0
M  V30 3274 H 312.014 -3.83813 -2.02164 0
M  V30 3275 H 312.685 -4.16522 -3.62234 0
M  V30 3276 H 315.161 -2.24189 -3.5054 0
M  V30 3277 H 314.037 -2.57356 -4.84829 0
M  V30 3278 H 314.298 -0.917263 -4.3248 0
M  V30 3279 N 313.357 1.07166 -1.15556 0
M  V30 3280 C 314.606 1.79181 -0.926132 0
M  V30 3281 C 314.919 1.87768 0.547967 0
M  V30 3282 O 316.125 2.56323 0.895036 0
M  V30 3283 C 314.581 3.22 -1.60761 0
M  V30 3284 C 314.189 3.21607 -3.11886 0
M  V30 3285 C 315.933 3.9861 -1.4598 0
M  V30 3286 C 313.84 4.59092 -3.72812 0
M  V30 3287 H 312.77 0.67154 -0.342856 0
M  V30 3288 H 315.421 1.2027 -1.3859 0
M  V30 3289 H 313.803 3.81115 -1.07553 0
M  V30 3290 H 314.977 2.72127 -3.71865 0
M  V30 3291 H 313.292 2.58495 -3.2645 0
M  V30 3292 H 315.889 5.00225 -1.88888 0
M  V30 3293 H 316.232 4.143 -0.407541 0
M  V30 3294 H 316.765 3.45996 -1.96295 0
M  V30 3295 H 313.504 4.48606 -4.77946 0
M  V30 3296 H 313.024 5.08803 -3.17616 0
M  V30 3297 H 314.703 5.28059 -3.73848 0
M  V30 3298 N 314.835 0.952656 1.25548 0
M  V30 3299 C 315.745 0.47782 2.29682 0
M  V30 3300 C 316.761 -0.453859 1.67977 0
M  V30 3301 O 317.937 -0.330587 1.98668 0
M  V30 3302 C 315.002 -0.238655 3.45878 0
M  V30 3303 C 314.063 0.730994 4.23031 0
M  V30 3304 C 313.296 0.0486165 5.33678 0
M  V30 3305 O 313.519 -1.16612 5.58353 0
M  V30 3306 O 312.453 0.733152 5.97418 0
M  V30 3307 H 316.279 1.34312 2.72386 0
M  V30 3308 H 313.864 0.719026 1.30959 0
M  V30 3309 H 315.746 -0.641774 4.16484 0
M  V30 3310 H 314.421 -1.07916 3.05181 0
M  V30 3311 H 313.328 1.18428 3.5486 0
M  V30 3312 H 314.661 1.53946 4.67506 0
M  V30 3313 N 316.313 -1.40141 0.720998 0
M  V30 3314 C 317.56 -2.00787 0.262842 0
M  V30 3315 C 317.888 -1.5718 -1.14563 0
M  V30 3316 O 317.143 -0.785391 -1.79249 0
M  V30 3317 C 317.442 -3.56165 0.296892 0
M  V30 3318 C 317.108 -4.19373 1.65641 0
M  V30 3319 C 315.77 -4.36352 2.02855 0
M  V30 3320 C 318.122 -4.54578 2.54968 0
M  V30 3321 C 315.45 -4.8582 3.28931 0
M  V30 3322 C 317.802 -5.05447 3.80402 0
M  V30 3323 C 316.466 -5.20635 4.17726 0
M  V30 3324 H 315.736 -0.734731 0.0961807 0
M  V30 3325 H 318.383 -1.67673 0.925093 0
M  V30 3326 H 316.688 -3.8922 -0.448932 0
M  V30 3327 H 318.385 -4.00929 -0.0755208 0
M  V30 3328 H 314.975 -4.06549 1.35704 0
M  V30 3329 H 319.159 -4.41091 2.27491 0
M  V30 3330 H 314.415 -4.95764 3.57811 0
M  V30 3331 H 318.589 -5.31663 4.49786 0
M  V30 3332 H 316.216 -5.58728 5.15487 0
M  V30 3333 N 317.792 -0.46758 -1.50504 0
M  V30 3334 C 319.04 0.0884469 -2.01906 0
M  V30 3335 C 319.361 1.40532 -1.35188 0
M  V30 3336 O 318.631 1.89515 -0.496079 0
M  V30 3337 H 317.211 0.0356765 -0.746148 0
M  V30 3338 H 319.873 -0.6172 -1.84869 0
M  V30 3339 H 318.969 0.2425 -3.11156 0
M  V30 3340 N 319.27 1.56325 -0.20005 0
M  V30 3341 C 320.202 2.16555 0.750771 0
M  V30 3342 C 321.215 1.12871 1.1732 0
M  V30 3343 O 322.404 1.39943 1.10807 0
M  V30 3344 C 319.504 2.71684 2.02586 0
M  V30 3345 C 318.677 4.00321 1.76244 0
M  V30 3346 C 317.736 4.40227 2.88248 0
M  V30 3347 O 316.762 5.07552 2.57642 0
M  V30 3348 N 317.964 4.04138 4.16717 0
M  V30 3349 H 320.729 2.98772 0.235685 0
M  V30 3350 H 318.29 1.6189 -0.0182594 0
M  V30 3351 H 320.282 2.95363 2.76664 0
M  V30 3352 H 318.852 1.93893 2.45202 0
M  V30 3353 H 318.072 3.84723 0.85919 0
M  V30 3354 H 319.36 4.84279 1.56048 0
M  V30 3355 H 318.758 3.49993 4.44434 0
M  V30 3356 H 317.315 4.32756 4.87407 0
M  V30 3357 N 320.748 -0.0735177 1.57428 0
M  V30 3358 C 322.025 -0.805903 1.78226 0
M  V30 3359 C 322.405 -1.95874 0.787189 0
M  V30 3360 O 321.753 -2.2779 -0.180029 0
M  V30 3361 C 321.963 -1.28045 3.24662 0
M  V30 3362 C 323.311 -1.71453 3.88444 0
M  V30 3363 O 324.335 -1.37616 3.28543 0
M  V30 3364 O 323.194 -2.34093 4.93825 0
M  V30 3365 H 320.288 -0.386041 0.73137 0
M  V30 3366 H 322.834 -0.0537269 1.69615 0
M  V30 3367 H 321.606 -0.455476 3.8864 0
M  V30 3368 H 321.229 -2.094 3.37991 0
M  V30 3369 N 322.226 -1.5378 -0.344866 0
M  V30 3370 C 323.156 -1.84662 -1.42906 0
M  V30 3371 C 324.137 -0.701648 -1.54955 0
M  V30 3372 O 325.322 -0.953438 -1.69184 0
M  V30 3373 C 322.452 -2.05503 -2.79974 0
M  V30 3374 C 321.406 -3.21318 -2.82734 0
M  V30 3375 C 320.732 -3.2749 -4.22675 0
M  V30 3376 C 322.032 -4.59456 -2.48389 0
M  V30 3377 H 323.726 -2.75461 -1.17311 0
M  V30 3378 H 321.272 -1.32542 -0.562896 0
M  V30 3379 H 323.225 -2.25691 -3.55867 0
M  V30 3380 H 321.949 -1.11434 -3.07002 0
M  V30 3381 H 320.608 -3.00984 -2.09294 0
M  V30 3382 H 320.256 -2.31019 -4.4681 0
M  V30 3383 H 319.956 -4.05316 -4.25433 0
M  V30 3384 H 321.48 -3.49887 -5.00412 0
M  V30 3385 H 322.894 -4.79667 -3.13995 0
M  V30 3386 H 321.291 -5.39675 -2.62432 0
M  V30 3387 H 322.361 -4.63155 -1.4358 0
M  V30 3388 N 323.704 0.605807 -1.45491 0
M  V30 3389 C 324.636 1.73031 -1.5031 0
M  V30 3390 C 325.649 1.57968 -0.393687 0
M  V30 3391 O 326.838 1.65817 -0.660839 0
M  V30 3392 C 323.938 3.11049 -1.34543 0
M  V30 3393 C 323.111 3.52334 -2.59189 0
M  V30 3394 C 322.17 4.69323 -2.37954 0
M  V30 3395 O 321.196 4.7635 -3.11575 0
M  V30 3396 N 322.398 5.62705 -1.4263 0
M  V30 3397 H 325.163 1.6936 -2.4726 0
M  V30 3398 H 322.724 0.79114 -1.41254 0
M  V30 3399 H 324.716 3.87071 -1.18144 0
M  V30 3400 H 323.286 3.09217 -0.458623 0
M  V30 3401 H 322.506 2.66256 -2.90691 0
M  V30 3402 H 323.794 3.76677 -3.42041 0
M  V30 3403 H 323.192 5.59744 -0.818758 0
M  V30 3404 H 321.749 6.38252 -1.32202 0
M  V30 3405 N 325.182 1.32811 0.848464 0
M  V30 3406 C 326.145 1.22194 1.9391 0
M  V30 3407 C 327.145 0.143404 1.60159 0
M  V30 3408 O 328.335 0.394253 1.6968 0
M  V30 3409 C 325.467 0.88067 3.29328 0
M  V30 3410 H 326.66 2.19127 2.04752 0
M  V30 3411 H 324.213 1.16731 1.0394 0
M  V30 3412 H 324.948 -0.0865776 3.24184 0
M  V30 3413 H 324.733 1.66052 3.55203 0
M  V30 3414 H 326.223 0.830871 4.09251 0
M  V30 3415 N 326.66 -1.06551 1.16123 0
M  V30 3416 C 327.909 -1.78687 0.935622 0
M  V30 3417 C 328.222 -1.88056 -0.538001 0
M  V30 3418 O 329.428 -2.56794 -0.88143 0
M  V30 3419 C 327.884 -3.21143 1.62466 0
M  V30 3420 C 327.492 -3.19949 3.13587 0
M  V30 3421 C 329.236 -3.9783 1.48092 0
M  V30 3422 C 327.143 -4.57108 3.75241 0
M  V30 3423 H 326.073 -0.669712 0.346412 0
M  V30 3424 H 328.724 -1.19534 1.39226 0
M  V30 3425 H 327.106 -3.80539 1.09572 0
M  V30 3426 H 328.28 -2.70151 3.73303 0
M  V30 3427 H 326.595 -2.5676 3.27816 0
M  V30 3428 H 329.192 -4.99217 1.91538 0
M  V30 3429 H 329.535 -4.14078 0.429507 0
M  V30 3430 H 330.068 -3.4495 1.98127 0
M  V30 3431 H 326.807 -4.46065 4.80319 0
M  V30 3432 H 326.327 -5.07111 3.20309 0
M  V30 3433 H 328.006 -5.26069 3.76644 0
M  V30 3434 N 328.138 -0.959301 -1.25041 0
M  V30 3435 C 329.363 -0.633507 -1.97488 0
M  V30 3436 C 329.788 0.788555 -1.70773 0
M  V30 3437 O 329.146 1.53394 -0.966431 0
M  V30 3438 C 329.194 -0.904057 -3.49083 0
M  V30 3439 O 328.298 0.0147939 -4.12397 0
M  V30 3440 H 327.639 -0.240368 -0.618966 0
M  V30 3441 H 330.169 -1.28717 -1.59038 0
M  V30 3442 H 330.179 -0.832203 -3.99423 0
M  V30 3443 H 328.854 -1.94048 -3.67856 0
M  V30 3444 H 327.431 -0.109664 -3.72739 0
M  V30 3445 N 329.616 1.39756 -0.72842 0
M  V30 3446 C 330.579 2.29012 -0.0927297 0
M  V30 3447 C 331.579 1.45992 0.674025 0
M  V30 3448 O 332.769 1.66749 0.50402 0
M  V30 3449 C 329.901 3.29396 0.878137 0
M  V30 3450 H 331.094 2.86729 -0.879011 0
M  V30 3451 H 328.647 1.48293 -0.493847 0
M  V30 3452 H 329.382 2.76722 1.69101 0
M  V30 3453 H 329.167 3.907 0.331051 0
M  V30 3454 H 330.657 3.96199 1.3197 0
M  V30 3455 N 331.094 0.475555 1.50254 0
M  V30 3456 C 332.342 -0.077738 2.0195 0
M  V30 3457 C 332.663 -1.39813 1.35931 0
M  V30 3458 O 331.933 -1.89249 0.506123 0
M  V30 3459 H 330.513 -0.031719 0.746326 0
M  V30 3460 H 333.175 0.626995 1.84539 0
M  V30 3461 H 332.271 -0.225995 3.11281 0
M  V30 3462 N 332.573 -1.56217 0.208337 0
M  V30 3463 C 333.821 -1.97558 -0.426076 0
M  V30 3464 C 334.142 -1.09683 -1.61229 0
M  V30 3465 O 333.412 -0.170956 -1.95153 0
M  V30 3466 H 331.992 -0.729575 -0.160405 0
M  V30 3467 H 334.654 -1.92606 0.298155 0
M  V30 3468 H 333.75 -3.02672 -0.761312 0
M  V30 3469 N 334.051 0.0651679 -1.57465 0
M  V30 3470 C 335.299 0.761555 -1.87202 0
M  V30 3471 C 335.62 1.77778 -0.801243 0
M  V30 3472 O 334.89 1.95166 0.16937 0
M  V30 3473 H 333.47 0.284251 -0.690804 0
M  V30 3474 H 336.132 0.0396827 -1.9486 0
M  V30 3475 H 335.228 1.27365 -2.84929 0
M  V30 3476 N 335.529 1.53961 0.336706 0
M  V30 3477 C 336.459 1.85417 1.41925 0
M  V30 3478 C 337.44 0.709856 1.5458 0
M  V30 3479 O 338.625 0.962396 1.68676 0
M  V30 3480 C 335.755 2.06985 2.78881 0
M  V30 3481 C 334.709 3.22813 2.81026 0
M  V30 3482 C 334.035 3.29727 4.20932 0
M  V30 3483 C 335.335 4.60767 2.45949 0
M  V30 3484 H 337.029 2.76079 1.15848 0
M  V30 3485 H 334.575 1.32839 0.555859 0
M  V30 3486 H 336.528 2.27575 3.54665 0
M  V30 3487 H 335.252 1.13061 3.06406 0
M  V30 3488 H 333.911 3.0209 2.07695 0
M  V30 3489 H 333.559 2.33385 4.45579 0
M  V30 3490 H 333.259 4.07566 4.23277 0
M  V30 3491 H 334.783 3.52536 4.98549 0
M  V30 3492 H 336.197 4.81325 3.11446 0
M  V30 3493 H 334.594 5.4106 2.59566 0
M  V30 3494 H 335.664 4.6391 1.41122 0
M  V30 3495 N 337.007 -0.598083 1.45811 0
M  V30 3496 C 338.232 -1.3881 1.54099 0
M  V30 3497 C 338.657 -1.8726 0.177578 0
M  V30 3498 O 338.015 -1.6069 -0.839541 0
M  V30 3499 C 338.063 -2.56217 2.53743 0
M  V30 3500 O 337.167 -3.5716 2.06182 0
M  V30 3501 H 336.508 -0.414024 0.519115 0
M  V30 3502 H 339.038 -0.726971 1.91249 0
M  V30 3503 H 339.048 -3.03337 2.72856 0
M  V30 3504 H 337.723 -2.20303 3.5276 0
M  V30 3505 H 336.3 -3.16624 1.96987 0
M  V30 3506 N 338.485 -1.33259 -0.841409 0
M  V30 3507 C 339.731 -1.24757 -1.59886 0
M  V30 3508 C 340.064 0.186913 -1.93298 0
M  V30 3509 O 339.339 1.12757 -1.5848 0
M  V30 3510 C 339.622 -2.12036 -2.91055 0
M  V30 3511 C 339.475 -3.63929 -2.6434 0
M  V30 3512 C 340.794 -1.9916 -3.92458 0
M  V30 3513 H 337.913 -0.454542 -0.580138 0
M  V30 3514 H 340.555 -1.63335 -0.970647 0
M  V30 3515 H 338.705 -1.79265 -3.44669 0
M  V30 3516 H 340.377 -4.06978 -2.17178 0
M  V30 3517 H 338.62 -3.85935 -1.98082 0
M  V30 3518 H 339.291 -4.20341 -3.57796 0
M  V30 3519 H 341.767 -2.27895 -3.48143 0
M  V30 3520 H 340.643 -2.62484 -4.82072 0
M  V30 3521 H 340.904 -0.963082 -4.31482 0
M  V30 3522 N 339.963 1.05934 -1.16686 0
M  V30 3523 C 341.374 1.60263 -0.957745 0
M  V30 3524 C 341.725 1.89789 0.49745 0
M  V30 3525 O 340.85 1.67401 1.37135 0
M  V30 3526 C 341.445 2.91172 -1.73218 0
M  V30 3527 C 340.004 3.42188 -1.56794 0
M  V30 3528 C 339.151 2.16028 -1.73859 0
M  V30 3529 H 342.102 0.888392 -1.31504 0
M  V30 3530 H 342.123 3.60744 -1.21014 0
M  V30 3531 H 341.635 2.6965 -2.79124 0
M  V30 3532 H 339.736 3.68762 -0.533437 0
M  V30 3533 H 339.849 4.17273 -2.35414 0
M  V30 3534 H 338.213 2.26426 -1.16633 0
M  V30 3535 H 338.996 1.96985 -2.81161 0
M  V30 3536 N 341.441 0.965919 1.2453 0
M  V30 3537 C 342.671 0.643451 1.96324 0
M  V30 3538 C 343.079 -0.790927 1.71875 0
M  V30 3539 O 342.422 -1.54208 0.998273 0
M  V30 3540 C 342.484 0.836078 3.49643 0
M  V30 3541 C 342.148 2.24975 3.97788 0
M  V30 3542 C 343.145 3.22735 4.07601 0
M  V30 3543 C 340.83 2.57697 4.31158 0
M  V30 3544 C 342.824 4.51303 4.50116 0
M  V30 3545 C 340.511 3.86492 4.73357 0
M  V30 3546 C 341.509 4.83107 4.828 0
M  V30 3547 O 341.197 6.09605 5.24058 0
M  V30 3548 H 340.929 0.239223 0.632257 0
M  V30 3549 H 343.483 1.29587 1.59362 0
M  V30 3550 H 341.713 0.12649 3.86493 0
M  V30 3551 H 343.402 0.512965 4.02646 0
M  V30 3552 H 344.168 2.98783 3.82039 0
M  V30 3553 H 340.047 1.83216 4.23028 0
M  V30 3554 H 343.591 5.26716 4.57401 0
M  V30 3555 H 339.488 4.10245 4.98366 0
M  V30 3556 H 340.256 6.13146 5.42213 0
M  V30 3557 N 342.919 -1.39368 0.735821 0
M  V30 3558 C 343.851 -2.2913 0.0567723 0
M  V30 3559 C 344.864 -1.46859 -0.702589 0
M  V30 3560 O 346.053 -1.69925 -0.546616 0
M  V30 3561 C 343.153 -3.25492 -0.943823 0
M  V30 3562 C 342.326 -4.36709 -0.24581 0
M  V30 3563 C 341.385 -5.13376 -1.15463 0
M  V30 3564 O 340.411 -5.65683 -0.631803 0
M  V30 3565 N 341.613 -5.24656 -2.48427 0
M  V30 3566 H 344.378 -2.88047 0.827582 0
M  V30 3567 H 341.939 -1.50957 0.585112 0
M  V30 3568 H 343.931 -3.73657 -1.55443 0
M  V30 3569 H 342.501 -2.676 -1.61583 0
M  V30 3570 H 341.721 -3.9041 0.545286 0
M  V30 3571 H 343.009 -5.08244 0.237891 0
M  V30 3572 H 342.407 -4.83679 -2.93379 0
M  V30 3573 H 340.964 -5.76258 -3.04582 0
M  V30 3574 N 344.397 -0.483516 -1.5 0
M  V30 3575 C 345.329 0.340634 -2.26655 0
M  V30 3576 C 346.342 0.946152 -1.32483 0
M  V30 3577 O 347.531 0.832453 -1.579 0
M  V30 3578 C 344.631 1.4929 -3.04246 0
M  V30 3579 C 343.804 0.997903 -4.25865 0
M  V30 3580 C 342.863 2.02569 -4.85646 0
M  V30 3581 O 341.889 1.60128 -5.46212 0
M  V30 3582 N 343.091 3.3548 -4.73744 0
M  V30 3583 H 345.856 -0.316577 -2.98023 0
M  V30 3584 H 343.417 -0.315024 -1.58806 0
M  V30 3585 H 345.409 2.17766 -3.41116 0
M  V30 3586 H 343.979 2.05458 -2.35597 0
M  V30 3587 H 343.199 0.138617 -3.93956 0
M  V30 3588 H 344.487 0.645305 -5.04691 0
M  V30 3589 H 343.885 3.72661 -4.25605 0
M  V30 3590 H 342.442 3.99718 -5.14848 0
M  V30 3591 N 345.875 1.56104 -0.216619 0
M  V30 3592 C 347.123 1.97781 0.415593 0
M  V30 3593 C 347.444 1.10536 1.60645 0
M  V30 3594 O 346.714 0.181303 1.95059 0
M  V30 3595 H 345.294 0.730415 0.156534 0
M  V30 3596 H 347.956 1.92445 -0.308366 0
M  V30 3597 H 347.052 3.03072 0.74525 0
M  V30 3598 N 347.353 -0.0568162 1.57498 0
M  V30 3599 C 348.263 -1.08346 2.08083 0
M  V30 3600 C 349.279 -1.41439 1.01346 0
M  V30 3601 O 350.455 -1.51316 1.32912 0
M  V30 3602 C 347.52 -2.37352 2.52715 0
M  V30 3603 C 346.581 -2.11093 3.73816 0
M  V30 3604 C 345.814 -3.33949 4.1631 0
M  V30 3605 O 346.037 -4.43622 3.58547 0
M  V30 3606 O 344.971 -3.21279 5.08983 0
M  V30 3607 H 348.797 -0.683667 2.95905 0
M  V30 3608 H 346.382 -0.271965 1.46904 0
M  V30 3609 H 348.264 -3.13246 2.81877 0
M  V30 3610 H 346.939 -2.76681 1.68016 0
M  V30 3611 H 345.846 -1.32856 3.49714 0
M  V30 3612 H 347.179 -1.76637 4.59413 0
M  V30 3613 N 348.832 -1.54138 -0.328536 0
M  V30 3614 C 349.742 -1.86192 -1.42723 0
M  V30 3615 C 350.758 -0.753382 -1.56844 0
M  V30 3616 O 351.934 -1.04718 -1.72035 0
M  V30 3617 C 348.999 -2.07824 -2.77507 0
M  V30 3618 C 348.06 -3.31641 -2.72603 0
M  V30 3619 C 347.293 -3.52232 -4.00959 0
M  V30 3620 O 347.516 -2.7636 -4.9898 0
M  V30 3621 O 346.45 -4.45699 -4.0452 0
M  V30 3622 H 350.276 -2.79608 -1.18547 0
M  V30 3623 H 347.861 -1.3998 -0.522104 0
M  V30 3624 H 349.743 -2.23411 -3.57303 0
M  V30 3625 H 348.418 -1.17596 -3.01584 0
M  V30 3626 H 347.325 -3.21444 -1.91376 0
M  V30 3627 H 348.658 -4.2191 -2.53481 0
M  V30 3628 N 350.31 0.590341 -1.46126 0
M  V30 3629 C 351.273 1.68194 -1.55703 0
M  V30 3630 C 352.273 1.54808 -0.434868 0
M  V30 3631 O 353.463 1.59564 -0.698928 0
M  V30 3632 C 350.595 3.07575 -1.47005 0
M  V30 3633 H 351.788 1.61064 -2.52979 0
M  V30 3634 H 349.341 0.807541 -1.33823 0
M  V30 3635 H 350.076 3.20268 -0.509785 0
M  V30 3636 H 349.861 3.187 -2.28414 0
M  V30 3637 H 351.351 3.87055 -1.56776 0
M  V30 3638 N 351.788 1.33704 0.83433 0
M  V30 3639 C 353.034 1.25603 1.59222 0
M  V30 3640 C 353.367 -0.176659 1.93395 0
M  V30 3641 O 352.642 -1.11915 1.59076 0
M  V30 3642 C 352.925 2.13576 2.89926 0
M  V30 3643 C 352.778 3.65326 2.62406 0
M  V30 3644 C 354.097 2.01238 3.91397 0
M  V30 3645 H 351.216 0.457613 0.577719 0
M  V30 3646 H 353.858 1.63848 0.961972 0
M  V30 3647 H 352.008 1.8109 3.43713 0
M  V30 3648 H 353.68 4.08124 2.15017 0
M  V30 3649 H 351.923 3.8698 1.96033 0
M  V30 3650 H 352.594 4.22232 3.55562 0
M  V30 3651 H 355.07 2.29738 3.46929 0
M  V30 3652 H 353.946 2.65036 4.80673 0
M  V30 3653 H 354.207 0.985951 4.30966 0
M  V30 3654 N 353.266 -1.05314 1.17247 0
M  V30 3655 C 354.543 -1.75184 0.87005 0
M  V30 3656 C 354.923 -2.01481 -0.629965 0
M  V30 3657 O 354.271 -1.64988 -1.58086 0
M  V30 3658 C 354.481 -3.04594 1.70363 0
M  V30 3659 C 355.829 -3.78567 1.92281 0
M  V30 3660 O 356.853 -3.14461 1.67311 0
M  V30 3661 O 355.712 -4.93755 2.3424 0
M  V30 3662 H 352.806 -0.761729 0.322021 0
M  V30 3663 H 355.352 -1.11493 1.27935 0
M  V30 3664 H 354.124 -2.81201 2.72106 0
M  V30 3665 H 353.747 -3.76022 1.29202 0
M  V30 3666 N 354.744 -0.972509 -1.24016 0
M  V30 3667 C 355.972 -0.654803 -1.96265 0
M  V30 3668 C 356.387 0.776708 -1.72083 0
M  V30 3669 O 355.744 1.52171 -1.00748 0
M  V30 3670 C 355.795 -0.92592 -3.49441 0
M  V30 3671 O 355.516 -2.30116 -3.72798 0
M  V30 3672 C 357.017 -0.623068 -4.38899 0
M  V30 3673 H 354.237 -0.243907 -0.6251 0
M  V30 3674 H 356.781 -1.30175 -1.57717 0
M  V30 3675 H 354.936 -0.325108 -3.86033 0
M  V30 3676 H 355.35 -2.38483 -4.67147 0
M  V30 3677 H 356.824 -0.863189 -5.45209 0
M  V30 3678 H 357.301 0.442754 -4.36963 0
M  V30 3679 H 357.907 -1.204 -4.07902 0
M  V30 3680 N 356.222 1.38976 -0.743202 0
M  V30 3681 C 357.132 2.3434 -0.110399 0
M  V30 3682 C 358.148 1.58741 0.712559 0
M  V30 3683 O 359.324 1.9099 0.639125 0
M  V30 3684 C 356.389 3.37812 0.780012 0
M  V30 3685 C 355.45 4.29263 -0.0561319 0
M  V30 3686 C 354.683 5.27793 0.791875 0
M  V30 3687 O 354.906 5.33043 2.03031 0
M  V30 3688 O 353.84 6.01512 0.216183 0
M  V30 3689 H 357.666 2.90129 -0.897714 0
M  V30 3690 H 355.251 1.40643 -0.503966 0
M  V30 3691 H 357.133 4.01194 1.28923 0
M  V30 3692 H 355.808 2.84395 1.546 0
M  V30 3693 H 354.715 3.69076 -0.611056 0
M  V30 3694 H 356.048 4.85907 -0.784531 0
M  V30 3695 N 357.7 0.491464 1.49741 0
M  V30 3696 C 358.65 -0.311086 2.25868 0
M  V30 3697 C 359.634 -0.943857 1.30308 0
M  V30 3698 O 360.826 -0.853035 1.55088 0
M  V30 3699 C 357.955 -1.38059 3.14316 0
M  V30 3700 C 357.041 -0.754541 4.17334 0
M  V30 3701 N 357.432 0.137216 5.05614 0
M  V30 3702 C 355.73 -1.01621 4.34269 0
M  V30 3703 C 356.431 0.494614 5.79593 0
M  V30 3704 N 355.407 -0.135169 5.43432 0
M  V30 3705 H 359.209 0.37555 2.91491 0
M  V30 3706 H 356.723 0.306917 1.59473 0
M  V30 3707 H 358.72 -1.96891 3.67477 0
M  V30 3708 H 357.38 -2.06901 2.50244 0
M  V30 3709 H 358.391 0.50741 5.15408 0
M  V30 3710 H 355.068 -1.69808 3.81407 0
M  V30 3711 H 356.458 1.2236 6.60665 0
M  V30 3712 N 359.178 -1.55987 0.224894 0
M  V30 3713 C 360.408 -2.02489 -0.41007 0
M  V30 3714 C 360.816 -1.10391 -1.53657 0
M  V30 3715 O 360.159 -0.106458 -1.83391 0
M  V30 3716 C 360.221 -3.45319 -0.999757 0
M  V30 3717 C 359.885 -4.56999 -0.00827976 0
M  V30 3718 C 360.882 -5.13812 0.793314 0
M  V30 3719 C 358.567 -5.02176 0.111442 0
M  V30 3720 C 360.561 -6.14276 1.7013 0
M  V30 3721 C 358.248 -6.02477 1.02296 0
M  V30 3722 C 359.246 -6.58403 1.81643 0
M  V30 3723 O 358.934 -7.56751 2.71262 0
M  V30 3724 H 358.666 -0.667915 -0.104235 0
M  V30 3725 H 361.22 -2.0257 0.339782 0
M  V30 3726 H 359.45 -3.42318 -1.79876 0
M  V30 3727 H 361.139 -3.7545 -1.54248 0
M  V30 3728 H 361.905 -4.79756 0.711288 0
M  V30 3729 H 357.784 -4.58323 -0.49605 0
M  V30 3730 H 361.328 -6.57854 2.32107 0
M  V30 3731 H 357.225 -6.35954 1.10599 0
M  V30 3732 H 357.993 -7.74286 2.65375 0
M  V30 3733 N 360.656 0.0484629 -1.57525 0
M  V30 3734 C 361.886 0.754326 -1.92337 0
M  V30 3735 C 362.294 1.70443 -0.82132 0
M  V30 3736 O 361.637 1.82466 0.21254 0
M  V30 3737 C 361.699 1.58231 -3.22805 0
M  V30 3738 C 361.363 0.799074 -4.4996 0
M  V30 3739 C 362.36 0.1079 -5.19788 0
M  V30 3740 C 360.045 0.759345 -4.96527 0
M  V30 3741 C 362.039 -0.612516 -6.3445 0
M  V30 3742 C 359.726 0.0351713 -6.1109 0
M  V30 3743 C 360.724 -0.649537 -6.79904 0
M  V30 3744 O 360.412 -1.36199 -7.92278 0
M  V30 3745 H 360.144 0.218257 -0.639797 0
M  V30 3746 H 362.698 0.0159295 -2.05394 0
M  V30 3747 H 360.928 2.36406 -3.06021 0
M  V30 3748 H 362.617 2.16898 -3.43089 0
M  V30 3749 H 363.383 0.129748 -4.84826 0
M  V30 3750 H 359.262 1.28177 -4.42822 0
M  V30 3751 H 362.806 -1.14751 -6.88097 0
M  V30 3752 H 358.703 0.0113314 -6.45499 0
M  V30 3753 H 359.471 -1.27366 -8.0853 0
M  V30 3754 N 362.134 1.5431 0.320358 0
M  V30 3755 C 363.382 1.72327 1.05583 0
M  V30 3756 C 363.703 0.50149 1.88441 0
M  V30 3757 O 362.973 -0.48448 1.89815 0
M  V30 3758 H 361.553 0.635387 0.3928 0
M  V30 3759 H 364.215 1.91621 0.356019 0
M  V30 3760 H 363.311 2.60426 1.72003 0
M  V30 3761 N 363.613 -0.582584 1.46437 0
M  V30 3762 C 364.543 -1.70187 1.59871 0
M  V30 3763 C 365.524 -1.64066 0.449042 0
M  V30 3764 O 366.709 -1.82081 0.6753 0
M  V30 3765 C 363.839 -3.08827 1.58881 0
M  V30 3766 C 362.793 -3.29779 2.72819 0
M  V30 3767 C 362.119 -4.68947 2.5689 0
M  V30 3768 C 363.419 -3.17601 4.1464 0
M  V30 3769 H 365.113 -1.592 2.53566 0
M  V30 3770 H 362.659 -0.764472 1.22032 0
M  V30 3771 H 364.612 -3.86951 1.66873 0
M  V30 3772 H 363.336 -3.20713 0.617306 0
M  V30 3773 H 361.995 -2.54054 2.64296 0
M  V30 3774 H 361.643 -4.77599 1.57823 0
M  V30 3775 H 361.343 -4.83919 3.33312 0
M  V30 3776 H 362.867 -5.4924 2.66773 0
M  V30 3777 H 364.281 -3.8557 4.24274 0
M  V30 3778 H 362.678 -3.44094 4.9165 0
M  V30 3779 H 363.748 -2.14681 4.34788 0
M  V30 3780 N 365.091 -1.34144 -0.827227 0
M  V30 3781 C 366.337 -1.27455 -1.58515 0
M  V30 3782 C 366.692 0.155271 -1.91772 0
M  V30 3783 O 365.985 1.10042 -1.56848 0
M  V30 3784 C 366.179 -2.09464 -2.89585 0
M  V30 3785 C 366.008 -3.60276 -2.69131 0
M  V30 3786 C 364.778 -4.29565 -2.66087 0
M  V30 3787 C 366.976 -4.54367 -2.40947 0
M  V30 3788 N 364.958 -5.66252 -2.37132 0
M  V30 3789 C 366.329 -5.79027 -2.21648 0
M  V30 3790 C 368.384 -4.43327 -2.26639 0
M  V30 3791 C 367.087 -6.93891 -1.89492 0
M  V30 3792 C 369.113 -5.58019 -1.95878 0
M  V30 3793 C 368.475 -6.81695 -1.774 0
M  V30 3794 H 364.574 -0.521614 -0.582617 0
M  V30 3795 H 367.158 -1.68811 -0.970105 0
M  V30 3796 H 365.329 -1.70411 -3.49019 0
M  V30 3797 H 367.061 -1.94453 -3.54923 0
M  V30 3798 H 363.816 -3.81959 -2.80008 0
M  V30 3799 H 364.24 -6.38338 -2.25507 0
M  V30 3800 H 368.882 -3.48333 -2.39633 0
M  V30 3801 H 366.6 -7.88871 -1.75236 0
M  V30 3802 H 370.186 -5.5142 -1.85546 0
M  V30 3803 H 369.066 -7.68942 -1.53941 0
M  V30 3804 N 366.569 1.04691 -1.17803 0
M  V30 3805 C 367.517 2.14665 -0.895635 0
M  V30 3806 C 368.511 1.68806 0.141679 0
M  V30 3807 O 369.717 1.79999 -0.00587914 0
M  V30 3808 H 366.092 0.701038 -0.272121 0
M  V30 3809 H 368.063 2.35685 -1.83017 0
M  V30 3810 C 366.812 3.45019 -0.430962 0
M  V30 3811 H 366.135 3.8071 -1.22064 0
M  V30 3812 H 367.575 4.23125 -0.272301 0
M  V30 3813 C 366.034 3.25943 0.852207 0
M  V30 3814 O 366.564 3.5296 1.91786 0
M  V30 3815 N 364.77 2.79304 0.802346 0
M  V30 3816 H 364.317 2.57518 -0.0650788 0
M  V30 3817 H 364.275 2.66921 1.66134 0
M  V30 3818 N 368.047 0.979072 1.23499 0
M  V30 3819 C 369.01 0.523244 2.23147 0
M  V30 3820 C 370.01 -0.386406 1.56088 0
M  V30 3821 O 371.2 -0.180283 1.73265 0
M  V30 3822 C 368.332 -0.240739 3.40049 0
M  V30 3823 H 369.525 1.40432 2.64989 0
M  V30 3824 H 367.078 0.764824 1.36309 0
M  V30 3825 H 367.813 -1.13841 3.03662 0
M  V30 3826 H 367.598 0.412207 3.89927 0
M  V30 3827 H 369.088 -0.548297 4.13985 0
M  V30 3828 N 369.525 -1.3858 0.750561 0
M  V30 3829 C 370.488 -2.28836 0.129152 0
M  V30 3830 C 371.488 -1.47045 -0.650714 0
M  V30 3831 O 372.678 -1.6753 -0.477428 0
M  V30 3832 C 369.81 -3.30751 -0.825622 0
M  V30 3833 H 371.003 -2.85294 0.924516 0
M  V30 3834 H 368.556 -1.47489 0.517376 0
M  V30 3835 H 369.291 -2.79378 -1.64677 0
M  V30 3836 H 369.076 -3.91177 -0.268852 0
M  V30 3837 H 370.566 -3.98249 -1.2565 0
M  V30 3838 N 371.003 -0.499398 -1.49478 0
M  V30 3839 C 372.419 -0.155261 -1.58843 0
M  V30 3840 C 372.619 1.34008 -1.50479 0
M  V30 3841 O 371.675 2.11589 -1.37791 0
M  V30 3842 C 372.988 -0.730636 -2.91689 0
M  V30 3843 C 374.536 -0.696599 -3.0515 0
M  V30 3844 C 375.011 -1.25001 -4.40612 0
M  V30 3845 N 376.502 -1.21064 -4.47099 0
M  V30 3846 C 377.237 -1.60905 -5.50361 0
M  V30 3847 N 376.733 -2.08331 -6.60735 0
M  V30 3848 N 378.526 -1.52331 -5.41065 0
M  V30 3849 H 370.677 -1.47162 -1.53158 0
M  V30 3850 H 372.94 -0.610309 -0.725415 0
M  V30 3851 H 372.646 -1.77928 -3.03372 0
M  V30 3852 H 372.52 -0.190161 -3.7672 0
M  V30 3853 H 374.907 0.343204 -2.93097 0
M  V30 3854 H 374.988 -1.2742 -2.21806 0
M  V30 3855 H 374.632 -2.28859 -4.53416 0
M  V30 3856 H 374.562 -0.64836 -5.22593 0
M  V30 3857 H 377.053 -0.863128 -3.67911 0
M  V30 3858 H 377.366 -2.36805 -7.35624 0
M  V30 3859 H 375.711 -2.12304 -6.6178 0
M  V30 3860 H 378.902 -1.151 -4.53729 0
M  V30 3861 H 379.075 -1.83704 -6.21415 0
M  V30 3862 N 372.481 1.55866 -0.233164 0
M  V30 3863 C 373.391 2.24431 0.683217 0
M  V30 3864 C 374.407 1.2558 1.2044 0
M  V30 3865 O 375.583 1.58422 1.24356 0
M  V30 3866 C 372.648 2.91979 1.86947 0
M  V30 3867 C 371.709 4.06204 1.38912 0
M  V30 3868 C 370.942 4.70522 2.51883 0
M  V30 3869 O 371.165 4.33865 3.70293 0
M  V30 3870 O 370.099 5.59296 2.22423 0
M  V30 3871 H 373.925 3.03426 0.129059 0
M  V30 3872 H 371.51 1.494 -0.0022283 0
M  V30 3873 H 373.392 3.34573 2.56201 0
M  V30 3874 H 372.067 2.15935 2.41151 0
M  V30 3875 H 370.974 3.68155 0.664259 0
M  V30 3876 H 372.307 4.84025 0.893328 0
M  V30 3877 N 373.959 -0.0401083 1.57549 0
M  V30 3878 C 374.891 -1.07149 2.02612 0
M  V30 3879 C 375.904 -1.33126 0.937085 0
M  V30 3880 O 377.093 -1.30808 1.21456 0
M  V30 3881 C 374.193 -2.41561 2.37701 0
M  V30 3882 C 373.366 -2.35096 3.68848 0
M  V30 3883 C 372.425 -3.51867 3.91249 0
M  V30 3884 O 371.451 -3.3186 4.62447 0
M  V30 3885 N 372.653 -4.73351 3.36035 0
M  V30 3886 H 375.418 -0.687485 2.91708 0
M  V30 3887 H 372.979 -0.228248 1.60283 0
M  V30 3888 H 374.971 -3.18379 2.49833 0
M  V30 3889 H 373.541 -2.71846 1.54332 0
M  V30 3890 H 372.761 -1.4345 3.67173 0
M  V30 3891 H 374.049 -2.27908 4.54901 0
M  V30 3892 H 373.447 -4.92507 2.78304 0
M  V30 3893 H 372.004 -5.47572 3.53565 0
M  V30 3894 N 375.437 -1.54477 -0.31217 0
M  V30 3895 C 376.686 -1.72438 -1.04633 0
M  V30 3896 C 376.999 -0.511163 -1.88803 0
M  V30 3897 O 378.205 -0.572341 -2.65399 0
M  V30 3898 C 376.661 -3.05043 -1.9099 0
M  V30 3899 C 376.269 -4.33806 -1.11877 0
M  V30 3900 C 378.013 -3.32364 -2.64073 0
M  V30 3901 C 375.92 -5.57467 -1.97445 0
M  V30 3902 H 374.85 -0.642647 -0.394361 0
M  V30 3903 H 377.501 -1.80966 -0.303929 0
M  V30 3904 H 375.883 -2.90451 -2.69173 0
M  V30 3905 H 377.057 -4.59199 -0.383843 0
M  V30 3906 H 375.372 -4.13336 -0.504252 0
M  V30 3907 H 377.969 -4.21951 -3.28423 0
M  V30 3908 H 378.312 -2.50745 -3.32314 0
M  V30 3909 H 378.845 -3.47875 -1.92944 0
M  V30 3910 H 375.584 -6.41722 -1.33692 0
M  V30 3911 H 375.104 -5.36277 -2.6864 0
M  V30 3912 H 376.783 -5.94303 -2.5576 0
M  V30 3913 N 376.915 0.57481 -1.46744 0
M  V30 3914 C 377.878 1.66533 -1.57478 0
M  V30 3915 C 378.878 1.54338 -0.451263 0
M  V30 3916 O 380.068 1.58814 -0.715813 0
M  V30 3917 C 377.2 3.05999 -1.50259 0
M  V30 3918 H 378.393 1.58372 -2.54673 0
M  V30 3919 H 375.946 0.793301 -1.34672 0
M  V30 3920 H 376.681 3.19709 -0.543725 0
M  V30 3921 H 376.466 3.16259 -2.31781 0
M  V30 3922 H 377.956 3.8537 -1.60872 0
M  V30 3923 N 378.394 1.34581 0.820102 0
M  V30 3924 C 379.81 1.14325 1.11364 0
M  V30 3925 C 380.01 -0.0533648 2.01429 0
M  V30 3926 O 379.066 -0.728044 2.41776 0
M  V30 3927 C 380.379 2.43983 1.75764 0
M  V30 3928 C 381.927 2.50065 1.88246 0
M  V30 3929 C 382.402 3.79732 2.56061 0
M  V30 3930 N 383.893 3.80908 2.63558 0
M  V30 3931 C 384.628 4.77961 3.16766 0
M  V30 3932 N 384.124 5.85397 3.70517 0
M  V30 3933 N 385.917 4.65413 3.15194 0
M  V30 3934 H 378.068 2.11246 0.221096 0
M  V30 3935 H 380.331 0.934289 0.160649 0
M  V30 3936 H 380.037 3.31651 1.1705 0
M  V30 3937 H 379.911 2.57531 2.75604 0
M  V30 3938 H 382.298 1.62834 2.46108 0
M  V30 3939 H 382.379 2.40442 0.873006 0
M  V30 3940 H 382.023 4.67354 1.98853 0
M  V30 3941 H 381.953 3.86639 3.57516 0
M  V30 3942 H 384.444 3.03274 2.25463 0
M  V30 3943 H 384.757 6.55463 4.09376 0
M  V30 3944 H 383.102 5.89107 3.68752 0
M  V30 3945 H 386.293 3.80627 2.72471 0
M  V30 3946 H 386.466 5.41216 3.56356 0
M  V30 3947 N 379.872 -1.04064 1.18357 0
M  V30 3948 C 380.822 -2.10393 0.878561 0
M  V30 3949 C 381.806 -1.60183 -0.151713 0
M  V30 3950 O 382.998 -1.76923 0.0523303 0
M  V30 3951 C 380.127 -3.4089 0.406096 0
M  V30 3952 C 379.213 -3.97866 1.46844 0
M  V30 3953 N 379.604 -4.28657 2.68489 0
M  V30 3954 C 377.902 -4.2574 1.32896 0
M  V30 3955 C 378.603 -4.74253 3.36836 0
M  V30 3956 N 377.579 -4.75068 2.64219 0
M  V30 3957 H 381.381 -2.32076 1.80327 0
M  V30 3958 H 378.895 -1.21818 1.07397 0
M  V30 3959 H 380.892 -4.16557 0.169088 0
M  V30 3960 H 379.552 -3.20633 -0.512275 0
M  V30 3961 H 380.563 -4.18304 3.05356 0
M  V30 3962 H 377.24 -4.1481 0.473134 0
M  V30 3963 H 378.63 -5.07096 4.40798 0
M  V30 3964 N 381.35 -0.985608 -1.22978 0
M  V30 3965 C 382.28 -0.549649 -2.26939 0
M  V30 3966 C 383.261 0.419803 -1.64838 0
M  V30 3967 O 384.446 0.31203 -1.91677 0
M  V30 3968 C 381.576 0.143652 -3.47003 0
M  V30 3969 C 380.53 -0.743606 -4.21491 0
M  V30 3970 C 379.856 0.0822027 -5.34637 0
M  V30 3971 C 381.156 -2.03694 -4.80943 0
M  V30 3972 H 382.85 -1.41862 -2.63658 0
M  V30 3973 H 380.396 -0.683571 -1.26741 0
M  V30 3974 H 382.349 0.459985 -4.18882 0
M  V30 3975 H 381.073 1.04711 -3.09359 0
M  V30 3976 H 379.732 -1.04347 -3.51436 0
M  V30 3977 H 379.38 0.986359 -4.93234 0
M  V30 3978 H 379.08 -0.508377 -5.85397 0
M  V30 3979 H 380.604 0.392797 -6.09335 0
M  V30 3980 H 382.018 -1.78504 -5.44802 0
M  V30 3981 H 380.415 -2.57573 -5.42011 0
M  V30 3982 H 381.485 -2.72042 -4.01399 0
M  V30 3983 N 382.828 1.3818 -0.7579 0
M  V30 3984 C 384.076 1.99624 -0.315361 0
M  V30 3985 C 384.397 1.60464 1.10799 0
M  V30 3986 O 383.667 0.863507 1.75842 0
M  V30 3987 H 382.247 0.73831 -0.113611 0
M  V30 3988 H 384.909 1.68878 -0.972952 0
M  V30 3989 H 384.005 3.09754 -0.381931 0
M  V30 3990 N 384.306 0.507319 1.49211 0
M  V30 3991 C 385.256 -0.287112 2.26185 0
M  V30 3992 C 386.24 -0.929983 1.31302 0
M  V30 3993 O 387.432 -0.836538 1.55984 0
M  V30 3994 C 384.561 -1.34718 3.15763 0
M  V30 3995 C 383.647 -0.710235 4.18111 0
M  V30 3996 N 384.038 0.190836 5.0544 0
M  V30 3997 C 382.336 -0.97009 4.35322 0
M  V30 3998 C 383.037 0.55606 5.79036 0
M  V30 3999 N 382.013 -0.0775232 5.43545 0
M  V30 4000 H 385.815 0.406445 2.91076 0
M  V30 4001 H 383.329 0.323814 1.59139 0
M  V30 4002 H 385.326 -1.92982 3.69545 0
M  V30 4003 H 383.986 -2.04235 2.52424 0
M  V30 4004 H 384.997 0.562047 5.14841 0
M  V30 4005 H 381.674 -1.65753 3.83187 0
M  V30 4006 H 383.064 1.2936 6.5933 0
M  V30 4007 N 385.784 -1.5574 0.241426 0
M  V30 4008 C 387.195 -1.84842 -0.262755 0
M  V30 4009 C 387.546 -1.16317 -1.58003 0
M  V30 4010 O 386.671 -0.439653 -2.11887 0
M  V30 4011 C 387.266 -3.35332 -0.483523 0
M  V30 4012 C 385.825 -3.6468 -0.931977 0
M  V30 4013 C 384.972 -2.77299 -0.0061151 0
M  V30 4014 H 387.923 -1.51761 0.464129 0
M  V30 4015 H 387.944 -3.56615 -1.32688 0
M  V30 4016 H 387.456 -3.85178 0.47537 0
M  V30 4017 H 385.557 -3.20307 -1.90353 0
M  V30 4018 H 385.67 -4.72498 -0.792628 0
M  V30 4019 H 384.034 -2.49408 -0.516503 0
M  V30 4020 H 384.817 -3.2995 0.948052 0
M  V30 4021 N 387.262 0.0317525 -1.57568 0
M  V30 4022 C 388.508 0.724175 -1.8943 0
M  V30 4023 C 388.841 1.75149 -0.838836 0
M  V30 4024 O 388.116 1.93948 0.146422 0
M  V30 4025 C 388.399 1.39615 -3.31933 0
M  V30 4026 C 388.252 0.382537 -4.4817 0
M  V30 4027 C 389.571 2.33084 -3.73309 0
M  V30 4028 H 386.69 0.261797 -0.688935 0
M  V30 4029 H 389.332 -0.013017 -1.89996 0
M  V30 4030 H 387.482 2.02451 -3.31581 0
M  V30 4031 H 389.154 -0.243689 -4.60656 0
M  V30 4032 H 387.397 -0.29844 -4.32772 0
M  V30 4033 H 388.068 0.891145 -5.44759 0
M  V30 4034 H 390.544 1.80295 -3.7501 0
M  V30 4035 H 389.42 2.77084 -4.73831 0
M  V30 4036 H 389.681 3.19643 -3.05419 0
M  V30 4037 N 388.74 1.54641 0.303973 0
M  V30 4038 C 389.687 1.85386 1.37479 0
M  V30 4039 C 390.657 0.702528 1.50512 0
M  V30 4040 O 391.842 0.950867 1.65418 0
M  V30 4041 C 388.982 2.10413 2.73533 0
M  V30 4042 C 388.095 3.38049 2.68974 0
M  V30 4043 C 387.23 3.52934 3.97002 0
M  V30 4044 C 386.269 4.74373 3.86829 0
M  V30 4045 N 385.406 4.8608 5.06627 0
M  V30 4046 H 390.246 2.76732 1.1056 0
M  V30 4047 H 387.783 1.37034 0.534805 0
M  V30 4048 H 389.741 2.22919 3.52652 0
M  V30 4049 H 388.371 1.22338 2.98719 0
M  V30 4050 H 387.423 3.3418 1.81736 0
M  V30 4051 H 388.735 4.27288 2.57346 0
M  V30 4052 H 387.889 3.65088 4.84557 0
M  V30 4053 H 386.628 2.61824 4.1146 0
M  V30 4054 H 385.633 4.62255 2.97658 0
M  V30 4055 H 386.858 5.66888 3.73918 0
M  V30 4056 H 384.804 3.97891 5.21554 0
M  V30 4057 H 384.721 5.69315 4.9741 0
M  V30 4058 H 385.989 5.02587 5.95841 0
M  V30 4059 N 390.218 -0.567019 1.47046 0
M  V30 4060 C 391.148 -1.68482 1.61667 0
M  V30 4061 C 392.129 -1.6358 0.466418 0
M  V30 4062 O 393.314 -1.81354 0.694574 0
M  V30 4063 C 390.444 -3.07124 1.62148 0
M  V30 4064 C 389.398 -3.26867 2.76301 0
M  V30 4065 C 388.724 -4.66196 2.61849 0
M  V30 4066 C 390.024 -3.13186 4.17986 0
M  V30 4067 H 391.718 -1.56502 2.5524 0
M  V30 4068 H 389.264 -0.751486 1.22836 0
M  V30 4069 H 391.217 -3.8516 1.70968 0
M  V30 4070 H 389.941 -3.2004 0.651287 0
M  V30 4071 H 388.6 -2.51237 2.66975 0
M  V30 4072 H 388.248 -4.75898 1.62879 0
M  V30 4073 H 387.948 -4.80356 3.38425 0
M  V30 4074 H 389.472 -5.46379 2.72584 0
M  V30 4075 H 390.886 -3.81049 4.2834 0
M  V30 4076 H 389.283 -3.3886 4.95272 0
M  V30 4077 H 390.353 -2.10057 4.3704 0
M  V30 4078 N 391.696 -1.35014 -0.812953 0
M  V30 4079 C 392.606 -1.2951 -1.95613 0
M  V30 4080 C 393.622 -0.20107 -1.72834 0
M  V30 4081 O 394.798 -0.42932 -1.96771 0
M  V30 4082 C 391.863 -1.06033 -3.30088 0
M  V30 4083 C 390.924 -2.24688 -3.65805 0
M  V30 4084 C 390.157 -2.02322 -4.93864 0
M  V30 4085 O 390.38 -0.986464 -5.61805 0
M  V30 4086 O 389.314 -2.89525 -5.27692 0
M  V30 4087 H 393.14 -2.25705 -2.03202 0
M  V30 4088 H 390.725 -1.15321 -0.949811 0
M  V30 4089 H 392.607 -0.94763 -4.10607 0
M  V30 4090 H 391.282 -0.128852 -3.23443 0
M  V30 4091 H 390.189 -2.41521 -2.85689 0
M  V30 4092 H 391.522 -3.16261 -3.77147 0
M  V30 4093 N 393.175 1.03435 -1.18907 0
M  V30 4094 C 394.424 1.76143 -0.982669 0
M  V30 4095 C 394.737 1.89416 0.487953 0
M  V30 4096 O 395.943 2.59041 0.813036 0
M  V30 4097 C 394.399 3.16722 -1.70924 0
M  V30 4098 C 394.007 3.11522 -3.21959 0
M  V30 4099 C 395.751 3.93764 -1.58588 0
M  V30 4100 C 393.658 4.46999 -3.87228 0
M  V30 4101 H 392.588 0.660292 -0.364047 0
M  V30 4102 H 395.239 1.158 -1.42347 0
M  V30 4103 H 393.621 3.775 -1.19623 0
M  V30 4104 H 394.795 2.60158 -3.80335 0
M  V30 4105 H 393.11 2.47978 -3.34508 0
M  V30 4106 H 395.707 4.93963 -2.04707 0
M  V30 4107 H 396.05 4.12794 -0.539142 0
M  V30 4108 H 396.583 3.39576 -2.07203 0
M  V30 4109 H 393.322 4.33174 -4.91976 0
M  V30 4110 H 392.842 4.98441 -3.33642 0
M  V30 4111 H 394.521 5.15898 -3.90459 0
M  V30 4112 N 394.653 0.992116 1.22453 0
M  V30 4113 C 395.563 0.55065 2.28046 0
M  V30 4114 C 396.579 -0.400189 1.69335 0
M  V30 4115 O 397.755 -0.267215 1.99619 0
M  V30 4116 C 394.82 -0.128496 3.46462 0
M  V30 4117 C 393.881 0.865208 4.20491 0
M  V30 4118 C 393.114 0.218377 5.33253 0
M  V30 4119 O 393.337 -0.987894 5.6178 0
M  V30 4120 O 392.271 0.922845 5.94783 0
M  V30 4121 H 396.097 1.4291 2.67975 0
M  V30 4122 H 393.682 0.760326 1.28606 0
M  V30 4123 H 395.564 -0.508947 4.18315 0
M  V30 4124 H 394.239 -0.981526 3.0846 0
M  V30 4125 H 393.146 1.29658 3.50913 0
M  V30 4126 H 394.479 1.68741 4.62371 0
M  V30 4127 N 396.131 -1.37776 0.765217 0
M  V30 4128 C 397.542 -1.82521 0.392819 0
M  V30 4129 C 397.893 -1.63789 -1.08017 0
M  V30 4130 O 397.018 -1.14542 -1.83601 0
M  V30 4131 C 397.613 -3.31358 0.706214 0
M  V30 4132 C 396.172 -3.74406 0.386952 0
M  V30 4133 C 395.319 -2.60394 0.953422 0
M  V30 4134 H 398.27 -1.2634 0.960412 0
M  V30 4135 H 398.291 -3.80498 -0.0114706 0
M  V30 4136 H 397.803 -3.44959 1.77833 0
M  V30 4137 H 395.904 -3.66377 -0.678112 0
M  V30 4138 H 396.017 -4.70749 0.890636 0
M  V30 4139 H 394.381 -2.51878 0.378064 0
M  V30 4140 H 395.164 -2.76791 2.03081 0
M  V30 4141 N 397.609 -0.515225 -1.4894 0
M  V30 4142 C 398.857 0.0241671 -2.02086 0
M  V30 4143 C 399.178 1.3616 -1.3959 0
M  V30 4144 O 398.448 1.87841 -0.556121 0
M  V30 4145 H 397.028 0.0119203 -0.746905 0
M  V30 4146 H 399.69 -0.675702 -1.82812 0
M  V30 4147 H 398.786 0.143385 -3.1177 0
M  V30 4148 N 399.087 1.5561 -0.249682 0
M  V30 4149 C 400.503 1.59254 0.105103 0
M  V30 4150 C 400.703 1.26685 1.56694 0
M  V30 4151 O 399.759 1.0155 2.31179 0
M  V30 4152 C 401.072 2.99687 -0.246592 0
M  V30 4153 C 402.62 3.12416 -0.191118 0
M  V30 4154 C 403.095 4.55074 -0.516885 0
M  V30 4155 N 404.586 4.60835 -0.467489 0
M  V30 4156 C 405.321 5.69201 -0.69268 0
M  V30 4157 N 404.817 6.85817 -0.981146 0
M  V30 4158 N 406.61 5.58635 -0.623198 0
M  V30 4159 H 398.761 1.75049 -1.20298 0
M  V30 4160 H 401.024 0.815003 -0.484225 0
M  V30 4161 H 400.73 3.28267 -1.26228 0
M  V30 4162 H 400.604 3.74798 0.424962 0
M  V30 4163 H 402.991 2.83615 0.815247 0
M  V30 4164 H 403.072 2.39573 -0.896563 0
M  V30 4165 H 402.716 4.84596 -1.52082 0
M  V30 4166 H 402.646 5.26181 0.210068 0
M  V30 4167 H 405.137 3.7705 -0.253373 0
M  V30 4168 H 405.45 7.64341 -1.14032 0
M  V30 4169 H 403.795 6.87494 -1.01865 0
M  V30 4170 H 406.986 4.66406 -0.397863 0
M  V30 4171 H 407.159 6.43017 -0.802093 0
M  V30 4172 N 400.565 -0.0233959 1.57583 0
M  V30 4173 C 401.812 -0.713063 1.8953 0
M  V30 4174 C 402.14 -1.75056 0.847673 0
M  V30 4175 O 401.395 -1.95119 -0.150636 0
M  V30 4176 C 401.694 -1.41428 3.28227 0
M  V30 4177 C 401.36 -0.512222 4.47981 0
M  V30 4178 C 400.022 -0.263785 4.80476 0
M  V30 4179 C 402.374 0.110248 5.21083 0
M  V30 4180 C 399.702 0.615804 5.83459 0
M  V30 4181 C 402.054 0.977573 6.25001 0
M  V30 4182 C 400.718 1.23542 6.55968 0
M  V30 4183 H 399.988 -0.260928 0.69354 0
M  V30 4184 H 402.635 0.0271047 1.91481 0
M  V30 4185 H 400.94 -2.22791 3.22291 0
M  V30 4186 H 402.637 -1.95355 3.50196 0
M  V30 4187 H 399.227 -0.716013 4.22577 0
M  V30 4188 H 403.411 -0.0687137 4.96252 0
M  V30 4189 H 398.667 0.82382 6.05824 0
M  V30 4190 H 402.841 1.46638 6.80786 0
M  V30 4191 H 400.468 1.91871 7.35588 0
M  V30 4192 N 402.043 -1.548 -0.295768 0
M  V30 4193 C 402.973 -1.89115 -1.36959 0
M  V30 4194 C 403.954 -0.75059 -1.52644 0
M  V30 4195 O 405.139 -1.00678 -1.66065 0
M  V30 4196 C 402.269 -2.14307 -2.73295 0
M  V30 4197 C 401.223 -3.30151 -2.72368 0
M  V30 4198 C 400.549 -3.40772 -4.12042 0
M  V30 4199 C 401.849 -4.67126 -2.33646 0
M  V30 4200 H 403.543 -2.79053 -1.08488 0
M  V30 4201 H 401.089 -1.34266 -0.520443 0
M  V30 4202 H 403.042 -2.36898 -3.48507 0
M  V30 4203 H 401.766 -1.21145 -3.03301 0
M  V30 4204 H 400.425 -3.0749 -1.99613 0
M  V30 4205 H 400.073 -2.45117 -4.39234 0
M  V30 4206 H 399.773 -4.18645 -4.12322 0
M  V30 4207 H 401.297 -3.6563 -4.89027 0
M  V30 4208 H 402.711 -4.89414 -2.98575 0
M  V30 4209 H 401.108 -5.47751 -2.45129 0
M  V30 4210 H 402.178 -4.67489 -1.28772 0
M  V30 4211 N 403.521 0.559213 -1.47345 0
M  V30 4212 C 404.767 1.31843 -1.54095 0
M  V30 4213 C 405.1 1.93149 -0.201726 0
M  V30 4214 O 404.375 1.77759 0.789428 0
M  V30 4215 C 404.658 2.43006 -2.65744 0
M  V30 4216 C 404.511 1.86581 -4.09277 0
M  V30 4217 C 405.83 3.44943 -2.73318 0
M  V30 4218 H 402.949 0.478012 -0.560957 0
M  V30 4219 H 405.591 0.625977 -1.79392 0
M  V30 4220 H 403.741 3.02072 -2.44305 0
M  V30 4221 H 405.413 1.31792 -4.42073 0
M  V30 4222 H 403.656 1.17268 -4.17649 0
M  V30 4223 H 404.327 2.66933 -4.83168 0
M  V30 4224 H 406.803 2.95793 -2.92653 0
M  V30 4225 H 405.679 4.20153 -3.53218 0
M  V30 4226 H 405.94 4.03665 -1.80296 0
M  V30 4227 N 404.999 1.35443 0.805782 0
M  V30 4228 C 405.962 1.28301 1.89925 0
M  V30 4229 C 406.962 0.194285 1.59622 0
M  V30 4230 O 408.152 0.448036 1.6834 0
M  V30 4231 C 405.284 0.984997 3.2636 0
M  V30 4232 H 406.477 2.2553 1.97677 0
M  V30 4233 H 404.03 1.19979 1.00173 0
M  V30 4234 H 404.765 0.016603 3.24296 0
M  V30 4235 H 404.55 1.77269 3.4974 0
M  V30 4236 H 406.04 0.960651 4.064 0
M  V30 4237 N 406.477 -1.02803 1.19454 0
M  V30 4238 C 407.409 -2.11181 0.890807 0
M  V30 4239 C 408.422 -1.6238 -0.116829 0
M  V30 4240 O 409.611 -1.78144 0.112694 0
M  V30 4241 C 406.711 -3.37461 0.311942 0
M  V30 4242 C 405.884 -4.15446 1.36834 0
M  V30 4243 C 404.943 -5.20039 0.802864 0
M  V30 4244 O 403.969 -5.49602 1.48077 0
M  V30 4245 N 405.171 -5.79165 -0.393417 0
M  V30 4246 H 407.936 -2.37827 1.82369 0
M  V30 4247 H 405.497 -1.19101 1.09666 0
M  V30 4248 H 407.489 -4.0462 -0.0802225 0
M  V30 4249 H 406.059 -3.08156 -0.52524 0
M  V30 4250 H 405.279 -3.43423 1.93531 0
M  V30 4251 H 406.567 -4.64335 2.08015 0
M  V30 4252 H 405.965 -5.57466 -0.961658 0
M  V30 4253 H 404.522 -6.47729 -0.727351 0
M  V30 4254 N 407.956 -0.998596 -1.21925 0
M  V30 4255 C 409.181 -0.696015 -1.95372 0
M  V30 4256 C 409.606 0.733826 -1.73195 0
M  V30 4257 O 408.964 1.50242 -1.01474 0
M  V30 4258 C 409.012 -1.01466 -3.4603 0
M  V30 4259 O 408.116 -0.116415 -4.12236 0
M  V30 4260 H 407.457 -0.259938 -0.611006 0
M  V30 4261 H 409.987 -1.33711 -1.54863 0
M  V30 4262 H 409.997 -0.958855 -3.96573 0
M  V30 4263 H 408.672 -2.05653 -3.61497 0
M  V30 4264 H 407.249 -0.228193 -3.72201 0
M  V30 4265 N 409.434 1.37368 -0.772513 0
M  V30 4266 C 410.682 1.99279 -0.336516 0
M  V30 4267 C 411.003 1.6163 1.09091 0
M  V30 4268 O 410.273 0.882109 1.74916 0
M  V30 4269 H 408.853 0.737063 -0.121435 0
M  V30 4270 H 411.515 1.67836 -0.990809 0
M  V30 4271 H 410.611 3.09332 -0.414763 0
M  V30 4272 N 410.912 0.523116 1.48665 0
M  V30 4273 C 412.158 -0.0134963 2.02796 0
M  V30 4274 C 412.491 -1.34582 1.40004 0
M  V30 4275 O 411.766 -1.86756 0.543381 0
M  V30 4276 C 412.049 -0.14276 3.59817 0
M  V30 4277 C 411.902 1.21425 4.331 0
M  V30 4278 C 413.221 -0.872856 4.31357 0
M  V30 4279 H 410.34 -0.00343074 0.736992 0
M  V30 4280 H 412.982 0.678816 1.7746 0
M  V30 4281 H 411.132 -0.732401 3.81534 0
M  V30 4282 H 412.804 1.84447 4.2282 0
M  V30 4283 H 411.047 1.79791 3.94788 0
M  V30 4284 H 411.718 1.07687 5.41394 0
M  V30 4285 H 414.194 -0.372555 4.14429 0
M  V30 4286 H 413.07 -0.932185 5.40927 0
M  V30 4287 H 413.331 -1.92161 3.98154 0
M  V30 4288 N 412.39 -1.55475 0.257931 0
M  V30 4289 C 413.32 -2.24815 -0.630912 0
M  V30 4290 C 414.301 -1.23224 -1.17259 0
M  V30 4291 O 415.486 -1.51904 -1.20991 0
M  V30 4292 C 412.616 -2.95609 -1.82298 0
M  V30 4293 C 411.57 -4.03982 -1.41359 0
M  V30 4294 C 410.896 -4.6226 -2.68738 0
M  V30 4295 C 412.196 -5.19109 -0.57648 0
M  V30 4296 H 413.89 -2.99354 -0.0526878 0
M  V30 4297 H 411.436 -1.4398 -0.023901 0
M  V30 4298 H 413.389 -3.42822 -2.45054 0
M  V30 4299 H 412.113 -2.18577 -2.42676 0
M  V30 4300 H 410.772 -3.57555 -0.809324 0
M  V30 4301 H 410.42 -3.81915 -3.27338 0
M  V30 4302 H 410.12 -5.35424 -2.42065 0
M  V30 4303 H 411.644 -5.12212 -3.32372 0
M  V30 4304 H 413.058 -5.62479 -1.10861 0
M  V30 4305 H 411.455 -5.98729 -0.405351 0
M  V30 4306 H 412.525 -4.83174 0.408776 0
M  V30 4307 N 413.868 0.0150385 -1.57593 0
M  V30 4308 C 415.117 0.702115 -1.89085 0
M  V30 4309 C 415.43 1.75764 -0.858277 0
M  V30 4310 O 416.636 2.49829 -1.0629 0
M  V30 4311 C 415.092 1.29992 -3.35604 0
M  V30 4312 C 414.7 0.280007 -4.47124 0
M  V30 4313 C 416.444 1.96606 -3.76227 0
M  V30 4314 C 414.351 0.886949 -5.84711 0
M  V30 4315 H 413.281 0.265997 -0.705522 0
M  V30 4316 H 415.932 -0.0430408 -1.8345 0
M  V30 4317 H 414.314 2.09525 -3.36029 0
M  V30 4318 H 415.488 -0.489631 -4.58191 0
M  V30 4319 H 413.803 -0.284835 -4.15425 0
M  V30 4320 H 416.4 2.42893 -4.76347 0
M  V30 4321 H 416.743 2.79024 -3.08952 0
M  V30 4322 H 417.276 1.23828 -3.78036 0
M  V30 4323 H 414.015 0.101876 -6.55421 0
M  V30 4324 H 413.535 1.6261 -5.77337 0
M  V30 4325 H 415.214 1.39011 -6.3189 0
M  V30 4326 N 415.346 1.54954 0.287554 0
M  V30 4327 C 416.574 1.78881 1.03967 0
M  V30 4328 C 416.989 0.554894 1.80462 0
M  V30 4329 O 416.346 -0.475676 1.76192 0
M  V30 4330 C 416.397 3.00488 2.0097 0
M  V30 4331 O 416.118 4.19113 1.27577 0
M  V30 4332 C 417.619 3.36907 2.88112 0
M  V30 4333 H 414.839 0.596259 0.307761 0
M  V30 4334 H 417.383 2.01937 0.322749 0
M  V30 4335 H 415.538 2.79601 2.68145 0
M  V30 4336 H 415.952 4.87765 1.92835 0
M  V30 4337 H 417.426 4.25205 3.52001 0
M  V30 4338 H 417.903 2.55659 3.57121 0
M  V30 4339 H 418.509 3.60001 2.26449 0
M  V30 4340 N 416.824 -0.551391 1.4764 0
M  V30 4341 C 417.756 -1.67333 1.56628 0
M  V30 4342 C 418.769 -1.56398 0.452045 0
M  V30 4343 O 419.958 -1.6325 0.721926 0
M  V30 4344 C 417.058 -3.05841 1.45994 0
M  V30 4345 C 416.231 -3.42472 2.72088 0
M  V30 4346 C 415.29 -4.60168 2.55209 0
M  V30 4347 O 414.316 -4.64458 3.2904 0
M  V30 4348 N 415.518 -5.57024 1.63416 0
M  V30 4349 H 418.283 -1.60066 2.53375 0
M  V30 4350 H 415.844 -0.738169 1.44093 0
M  V30 4351 H 417.836 -3.8242 1.32428 0
M  V30 4352 H 416.406 -3.07302 0.573071 0
M  V30 4353 H 415.626 -2.55284 3.00373 0
M  V30 4354 H 416.914 -3.63723 3.55785 0
M  V30 4355 H 416.312 -5.56319 1.02594 0
M  V30 4356 H 414.869 -6.32906 1.558 0
M  V30 4357 N 418.302 -1.35869 -0.798587 0
M  V30 4358 C 419.548 -1.2978 -1.55836 0
M  V30 4359 C 419.881 0.125322 -1.93795 0
M  V30 4360 O 419.156 1.07658 -1.61987 0
M  V30 4361 C 419.439 -2.21188 -2.84162 0
M  V30 4362 C 419.292 -3.72155 -2.52628 0
M  V30 4363 C 420.611 -2.11545 -3.85923 0
M  V30 4364 H 417.73 -0.472769 -0.565383 0
M  V30 4365 H 420.372 -1.66341 -0.918192 0
M  V30 4366 H 418.522 -1.90139 -3.38791 0
M  V30 4367 H 420.194 -4.13682 -2.04121 0
M  V30 4368 H 418.437 -3.92042 -1.85704 0
M  V30 4369 H 419.108 -4.31511 -3.44242 0
M  V30 4370 H 421.584 -2.38855 -3.40716 0
M  V30 4371 H 420.46 -2.77688 -4.73477 0
M  V30 4372 H 420.721 -1.09987 -4.282 0
M  V30 4373 N 419.78 1.02168 -1.19998 0
M  V30 4374 C 421.196 1.27969 -0.953737 0
M  V30 4375 C 421.396 1.98079 0.369703 0
M  V30 4376 O 420.452 2.27306 1.09947 0
M  V30 4377 C 421.765 2.11971 -2.13281 0
M  V30 4378 C 423.313 2.25255 -2.17323 0
M  V30 4379 C 423.788 3.12632 -3.34702 0
M  V30 4380 N 425.279 3.2022 -3.34684 0
M  V30 4381 C 426.014 3.88039 -4.22153 0
M  V30 4382 N 425.51 4.58027 -5.19791 0
M  V30 4383 N 427.303 3.84511 -4.10009 0
M  V30 4384 H 419.454 0.550794 -2.05134 0
M  V30 4385 H 421.717 0.305683 -0.897364 0
M  V30 4386 H 421.423 1.67785 -3.09097 0
M  V30 4387 H 421.297 3.12699 -2.10949 0
M  V30 4388 H 423.684 2.68667 -1.22073 0
M  V30 4389 H 423.765 1.24053 -2.23706 0
M  V30 4390 H 423.409 2.69926 -4.30235 0
M  V30 4391 H 423.339 4.13909 -3.25556 0
M  V30 4392 H 425.83 2.70382 -2.64012 0
M  V30 4393 H 426.143 5.07429 -5.82868 0
M  V30 4394 H 424.488 4.56869 -5.23733 0
M  V30 4395 H 427.679 3.28978 -3.33003 0
M  V30 4396 H 427.852 4.3709 -4.78389 0
M  V30 4397 N 421.258 1.00505 1.21394 0
M  V30 4398 C 422.483 0.706367 1.95001 0
M  V30 4399 C 422.908 -0.72463 1.73582 0
M  V30 4400 O 422.266 -1.49702 1.0227 0
M  V30 4401 C 422.314 1.03299 3.45487 0
M  V30 4402 O 421.418 0.138275 4.12168 0
M  V30 4403 H 420.759 0.263175 0.609619 0
M  V30 4404 H 423.289 1.34531 1.54151 0
M  V30 4405 H 423.299 0.979872 3.96059 0
M  V30 4406 H 421.974 2.07567 3.60401 0
M  V30 4407 H 420.551 0.247928 3.72075 0
M  V30 4408 N 422.737 -1.36956 0.779787 0
M  V30 4409 C 423.983 -1.99787 0.348281 0
M  V30 4410 C 424.316 -1.61756 -1.07465 0
M  V30 4411 O 423.591 -0.867639 -1.74075 0
M  V30 4412 C 423.874 -3.56597 0.50104 0
M  V30 4413 C 423.727 -4.04513 1.96697 0
M  V30 4414 C 425.046 -4.40008 -0.0898097 0
M  V30 4415 H 422.165 -0.725796 0.128022 0
M  V30 4416 H 424.807 -1.62514 0.984331 0
M  V30 4417 H 422.957 -3.88479 -0.0404347 0
M  V30 4418 H 424.629 -3.83161 2.56876 0
M  V30 4419 H 422.872 -3.56408 2.47297 0
M  V30 4420 H 423.543 -5.1352 2.02486 0
M  V30 4421 H 426.019 -4.14431 0.372293 0
M  V30 4422 H 424.895 -5.4888 0.0471605 0
M  V30 4423 H 425.156 -4.26035 -1.18096 0
M  V30 4424 N 424.215 -0.530993 -1.48385 0
M  V30 4425 C 425.162 0.231223 -2.29639 0
M  V30 4426 C 426.132 0.932864 -1.37429 0
M  V30 4427 O 427.317 0.933692 -1.66394 0
M  V30 4428 C 424.457 1.27155 -3.2082 0
M  V30 4429 C 423.57 0.578655 -4.28107 0
M  V30 4430 C 422.705 1.602 -5.06467 0
M  V30 4431 C 421.744 0.892625 -6.05556 0
M  V30 4432 N 420.881 1.86157 -6.76971 0
M  V30 4433 H 425.721 -0.467848 -2.94305 0
M  V30 4434 H 423.258 -0.242556 -1.45086 0
M  V30 4435 H 425.216 1.88703 -3.72085 0
M  V30 4436 H 423.846 1.939 -2.58075 0
M  V30 4437 H 422.898 -0.150782 -3.80101 0
M  V30 4438 H 424.21 0.0217065 -4.98795 0
M  V30 4439 H 423.364 2.29173 -5.61751 0
M  V30 4440 H 422.103 2.19285 -4.35621 0
M  V30 4441 H 421.108 0.188829 -5.49476 0
M  V30 4442 H 422.333 0.307878 -6.78402 0
M  V30 4443 H 420.279 2.44147 -6.08875 0
M  V30 4444 H 420.196 1.35608 -7.43738 0
M  V30 4445 H 421.464 2.54325 -7.36844 0
M  V30 4446 N 425.693 1.55336 -0.266172 0
M  V30 4447 C 426.625 2.19544 0.658247 0
M  V30 4448 C 427.638 1.17746 1.12427 0
M  V30 4449 O 428.827 1.44517 1.04772 0
M  V30 4450 C 425.927 2.80032 1.9088 0
M  V30 4451 C 425.1 4.07436 1.59106 0
M  V30 4452 C 424.159 4.52056 2.69317 0
M  V30 4453 O 423.185 5.18023 2.35883 0
M  V30 4454 N 424.387 4.21448 3.99201 0
M  V30 4455 H 427.152 2.99503 0.108754 0
M  V30 4456 H 424.713 1.61667 -0.0869059 0
M  V30 4457 H 426.705 3.06831 2.63888 0
M  V30 4458 H 425.275 2.04119 2.36758 0
M  V30 4459 H 424.495 3.88021 0.695243 0
M  V30 4460 H 425.783 4.90462 1.35367 0
M  V30 4461 H 425.181 3.68528 4.29189 0
M  V30 4462 H 423.738 4.53039 4.68614 0
M  V30 4463 N 427.171 -0.0066808 1.57599 0
M  V30 4464 C 428.104 -1.03397 2.03431 0
M  V30 4465 C 429.082 -1.33872 0.922877 0
M  V30 4466 O 430.266 -1.4615 1.19048 0
M  V30 4467 C 427.393 -2.36325 2.42628 0
M  V30 4468 C 426.439 -2.21557 3.64438 0
M  V30 4469 S 427.272 -1.54789 5.12641 0
M  V30 4470 C 428.428 -2.8916 5.55101 0
M  V30 4471 H 428.661 -0.643687 2.90248 0
M  V30 4472 H 426.194 -0.217349 1.52863 0
M  V30 4473 H 428.152 -3.12759 2.65879 0
M  V30 4474 H 426.813 -2.72495 1.56222 0
M  V30 4475 H 426.006 -3.1974 3.89592 0
M  V30 4476 H 425.608 -1.53267 3.41153 0
M  V30 4477 H 427.9 -3.8547 5.57153 0
M  V30 4478 H 428.843 -2.68713 6.55133 0
M  V30 4479 H 429.251 -2.92762 4.82649 0
M  V30 4480 N 428.649 -1.55105 -0.279332 0
M  V30 4481 C 429.897 -1.75066 -1.00977 0
M  V30 4482 C 430.218 -0.551276 -1.87045 0
M  V30 4483 O 429.488 0.433984 -1.91032 0
M  V30 4484 H 428.068 -0.645578 -0.375816 0
M  V30 4485 H 430.73 -1.92497 -0.305089 0
M  V30 4486 H 429.826 -2.64894 -1.65038 0
M  V30 4487 N 430.127 0.543554 -1.4793 0
M  V30 4488 C 431.352 1.32995 -1.59145 0
M  V30 4489 C 431.777 1.86472 -0.246956 0
M  V30 4490 O 431.135 1.63696 0.779324 0
M  V30 4491 C 431.183 2.46623 -2.63077 0
M  V30 4492 O 430.287 3.49261 -2.19295 0
M  V30 4493 H 429.628 0.394472 -0.534124 0
M  V30 4494 H 432.158 0.655489 -1.93816 0
M  V30 4495 H 432.168 2.93001 -2.83926 0
M  V30 4496 H 430.843 2.07059 -3.60693 0
M  V30 4497 H 429.42 3.09094 -2.08603 0
M  V30 4498 N 431.605 1.3629 0.791371 0
M  V30 4499 C 433.021 1.16661 1.08914 0
M  V30 4500 C 433.221 -0.0106266 2.01497 0
M  V30 4501 O 432.277 -0.676596 2.43266 0
M  V30 4502 C 433.59 2.47656 1.70549 0
M  V30 4503 C 435.138 2.54002 1.82899 0
M  V30 4504 C 435.613 3.85078 2.47949 0
M  V30 4505 N 437.104 3.86413 2.5542 0
M  V30 4506 C 437.839 4.84572 3.06557 0
M  V30 4507 N 437.335 5.93124 3.58016 0
M  V30 4508 N 439.128 4.71994 3.05251 0
M  V30 4509 H 431.279 2.11668 0.176238 0
M  V30 4510 H 433.542 0.937486 0.140796 0
M  V30 4511 H 433.248 3.34059 1.09989 0
M  V30 4512 H 433.122 2.63319 2.70079 0
M  V30 4513 H 435.509 1.68018 2.42598 0
M  V30 4514 H 435.59 2.42239 0.821808 0
M  V30 4515 H 435.234 4.71467 1.88895 0
M  V30 4516 H 435.164 3.94135 3.49235 0
M  V30 4517 H 437.655 3.07988 2.18979 0
M  V30 4518 H 437.968 6.63999 3.95381 0
M  V30 4519 H 436.313 5.96796 3.56173 0
M  V30 4520 H 439.504 3.86321 2.64336 0
M  V30 4521 H 439.677 5.48653 3.44796 0
M  V30 4522 N 433.083 -1.0153 1.20538 0
M  V30 4523 C 434.033 -2.08482 0.922991 0
M  V30 4524 C 435.017 -1.60469 -0.117702 0
M  V30 4525 O 436.209 -1.76772 0.0898465 0
M  V30 4526 C 433.338 -3.39952 0.478312 0
M  V30 4527 C 432.424 -3.94662 1.5525 0
M  V30 4528 N 432.815 -4.22866 2.77521 0
M  V30 4529 C 431.113 -4.22825 1.41897 0
M  V30 4530 C 431.814 -4.67002 3.4682 0
M  V30 4531 N 430.79 -4.69356 2.74237 0
M  V30 4532 H 434.592 -2.28199 1.85209 0
M  V30 4533 H 432.106 -1.19512 1.09957 0
M  V30 4534 H 434.103 -4.16105 0.257408 0
M  V30 4535 H 432.763 -3.21648 -0.444148 0
M  V30 4536 H 433.774 -4.11732 3.1416 0
M  V30 4537 H 430.451 -4.13714 0.561015 0
M  V30 4538 H 431.841 -4.97632 4.51455 0
M  V30 4539 N 434.561 -1.01147 -1.20859 0
M  V30 4540 C 435.808 -0.697865 -1.90095 0
M  V30 4541 C 436.136 0.772014 -1.78522 0
M  V30 4542 O 435.391 1.57595 -1.16027 0
M  V30 4543 C 435.69 -1.0727 -3.40922 0
M  V30 4544 C 435.356 -2.53792 -3.72693 0
M  V30 4545 C 434.018 -2.93829 -3.81075 0
M  V30 4546 C 436.37 -3.48674 -3.87397 0
M  V30 4547 C 433.698 -4.27696 -4.01613 0
M  V30 4548 C 436.05 -4.82223 -4.09444 0
M  V30 4549 C 434.714 -5.21973 -4.16054 0
M  V30 4550 H 433.984 -0.255367 -0.695607 0
M  V30 4551 H 436.631 -1.27111 -1.43231 0
M  V30 4552 H 434.936 -0.417799 -3.89566 0
M  V30 4553 H 436.633 -0.807818 -3.92779 0
M  V30 4554 H 433.223 -2.21768 -3.66765 0
M  V30 4555 H 437.407 -3.18904 -3.80281 0
M  V30 4556 H 432.663 -4.58055 -4.04964 0
M  V30 4557 H 436.837 -5.55672 -4.19763 0
M  V30 4558 H 434.464 -6.25717 -4.31721 0
M  V30 4559 N 436.039 1.36541 -0.78704 0
M  V30 4560 C 437.285 1.99599 -0.358872 0
M  V30 4561 C 437.618 1.62323 1.06606 0
M  V30 4562 O 436.893 0.876858 1.73613 0
M  V30 4563 C 437.176 3.56327 -0.519944 0
M  V30 4564 C 437.029 4.03464 -1.98839 0
M  V30 4565 C 438.348 4.4005 0.0664737 0
M  V30 4566 H 435.467 0.725107 -0.131869 0
M  V30 4567 H 438.109 1.6199 -0.992936 0
M  V30 4568 H 436.259 3.88495 0.0198321 0
M  V30 4569 H 437.931 3.81793 -2.58905 0
M  V30 4570 H 436.174 3.55092 -2.49183 0
M  V30 4571 H 436.845 5.12439 -2.05207 0
M  V30 4572 H 439.321 4.14228 -0.394267 0
M  V30 4573 H 438.197 5.48847 -0.0762682 0
M  V30 4574 H 438.458 4.26655 1.15835 0
M  V30 4575 N 437.518 0.538854 1.48102 0
M  V30 4576 C 438.448 -0.207654 2.32575 0
M  V30 4577 C 439.429 -0.926559 1.4265 0
M  V30 4578 O 440.614 -0.91061 1.71527 0
M  V30 4579 C 437.744 -1.24957 3.24042 0
M  V30 4580 C 436.698 -0.648263 4.23062 0
M  V30 4581 C 436.024 -1.79348 5.03725 0
M  V30 4582 C 437.324 0.385897 5.20872 0
M  V30 4583 H 439.018 0.497534 2.95237 0
M  V30 4584 H 436.564 0.240715 1.41974 0
M  V30 4585 H 438.517 -1.77983 3.81969 0
M  V30 4586 H 437.241 -1.98446 2.59397 0
M  V30 4587 H 435.9 -0.139452 3.66335 0
M  V30 4588 H 435.548 -2.51696 4.35498 0
M  V30 4589 H 435.248 -1.39702 5.70751 0
M  V30 4590 H 436.772 -2.32735 5.64506 0
M  V30 4591 H 438.186 -0.057607 5.73271 0
M  V30 4592 H 436.583 0.700227 5.96001 0
M  V30 4593 H 437.653 1.28848 4.67468 0
M  V30 4594 N 438.996 -1.55193 0.274407 0
M  V30 4595 C 440.242 -1.99877 -0.343086 0
M  V30 4596 C 440.575 -1.16256 -1.55558 0
M  V30 4597 O 439.85 -0.232462 -1.93106 0
M  V30 4598 C 440.133 -3.52706 -0.725965 0
M  V30 4599 C 439.986 -4.47081 0.493818 0
M  V30 4600 C 441.305 -4.11422 -1.56268 0
M  V30 4601 H 438.424 -0.726625 -0.123229 0
M  V30 4602 H 441.066 -1.86136 0.38121 0
M  V30 4603 H 439.216 -3.64546 -1.34307 0
M  V30 4604 H 440.888 -4.47186 1.13237 0
M  V30 4605 H 439.131 -4.1877 1.13201 0
M  V30 4606 H 439.802 -5.51699 0.18217 0
M  V30 4607 H 442.278 -4.02855 -1.04151 0
M  V30 4608 H 441.154 -5.18568 -1.79939 0
M  V30 4609 H 441.415 -3.61607 -2.54348 0
M  V30 4610 N 440.474 -0.00167713 -1.576 0
M  V30 4611 C 441.751 0.719951 -1.81868 0
M  V30 4612 C 442.131 1.91895 -0.879747 0
M  V30 4613 O 441.479 2.28389 0.0711423 0
M  V30 4614 C 441.689 1.12409 -3.30402 0
M  V30 4615 C 443.037 1.52724 -3.96182 0
M  V30 4616 O 444.061 1.21784 -3.34734 0
M  V30 4617 O 442.92 2.10265 -5.04431 0
M  V30 4618 H 440.014 0.350707 -0.748955 0
M  V30 4619 H 442.56 -0.0272597 -1.69678 0
M  V30 4620 H 441.332 0.269532 -3.90371 0
M  V30 4621 H 440.955 1.93035 -3.47596 0
M  V30 4622 N 441.952 1.55251 0.271103 0
M  V30 4623 C 442.915 1.87484 1.31842 0
M  V30 4624 C 443.915 0.749545 1.42262 0
M  V30 4625 O 445.105 1.01771 1.4138 0
M  V30 4626 C 442.237 2.0818 2.69951 0
M  V30 4627 H 443.43 2.81108 1.0449 0
M  V30 4628 H 440.983 1.47771 0.509258 0
M  V30 4629 H 441.718 1.16944 3.02481 0
M  V30 4630 H 441.503 2.90114 2.63774 0
M  V30 4631 H 442.993 2.34385 3.4562 0
M  V30 4632 N 443.43 -0.535701 1.48216 0
M  V30 4633 C 444.678 -1.28928 1.55634 0
M  V30 4634 C 444.999 -1.93645 0.229514 0
M  V30 4635 O 444.269 -1.81038 -0.74846 0
M  V30 4636 H 442.849 -0.47884 0.573342 0
M  V30 4637 H 445.511 -0.623853 1.84646 0
M  V30 4638 H 444.607 -2.07157 2.33436 0
M  V30 4639 N 444.908 -1.36708 -0.784132 0
M  V30 4640 C 446.155 -1.31231 -1.54222 0
M  V30 4641 C 446.483 0.106864 -1.94206 0
M  V30 4642 O 445.738 1.07734 -1.63376 0
M  V30 4643 C 446.037 -2.18571 -2.82774 0
M  V30 4644 C 445.703 -3.67039 -2.61903 0
M  V30 4645 C 444.365 -4.07503 -2.55919 0
M  V30 4646 C 446.717 -4.61149 -2.4288 0
M  V30 4647 C 444.045 -5.40211 -2.28886 0
M  V30 4648 C 446.397 -5.94081 -2.17373 0
M  V30 4649 C 445.061 -6.33664 -2.09825 0
M  V30 4650 H 444.331 -0.48021 -0.56434 0
M  V30 4651 H 446.978 -1.68807 -0.904233 0
M  V30 4652 H 445.283 -1.73949 -3.51068 0
M  V30 4653 H 446.98 -2.11655 -3.40592 0
M  V30 4654 H 443.57 -3.34941 -2.67418 0
M  V30 4655 H 447.754 -4.30756 -2.46501 0
M  V30 4656 H 443.01 -5.69855 -2.21529 0
M  V30 4657 H 447.184 -6.66566 -2.01649 0
M  V30 4658 H 444.811 -7.36423 -1.88641 0
M  V30 4659 N 446.386 1.0089 -1.21074 0
M  V30 4660 C 447.334 2.11707 -0.963476 0
M  V30 4661 C 448.328 1.69172 0.0879032 0
M  V30 4662 O 449.534 1.79889 -0.0631415 0
M  V30 4663 H 445.909 0.692026 -0.294287 0
M  V30 4664 H 447.88 2.29743 -1.90422 0
M  V30 4665 C 446.629 3.43473 -0.540509 0
M  V30 4666 H 445.952 3.76634 -1.34114 0
M  V30 4667 H 447.392 4.22044 -0.406777 0
M  V30 4668 C 445.851 3.2849 0.748079 0
M  V30 4669 O 446.381 3.58883 1.8046 0
M  V30 4670 N 444.587 2.81715 0.713081 0
M  V30 4671 H 444.134 2.5718 -0.146973 0
M  V30 4672 H 444.092 2.72071 1.57558 0
M  V30 4673 N 447.864 1.01787 1.20321 0
M  V30 4674 C 449.141 0.622978 1.85414 0
M  V30 4675 C 449.521 -0.898887 1.91006 0
M  V30 4676 O 448.869 -1.79112 1.41884 0
M  V30 4677 C 449.079 1.27226 3.24984 0
M  V30 4678 C 450.427 1.3885 4.01255 0
M  V30 4679 O 451.451 1.22857 3.34342 0
M  V30 4680 O 450.31 1.64705 5.2109 0
M  V30 4681 H 447.404 0.215116 0.798533 0
M  V30 4682 H 449.95 1.11533 1.27901 0
M  V30 4683 H 448.722 2.31209 3.15687 0
M  V30 4684 H 448.345 0.767069 3.90131 0
M  V30 4685 N 449.342 -1.36122 0.79427 0
M  V30 4686 C 450.272 -2.32551 0.210328 0
M  V30 4687 C 451.253 -1.56884 -0.657386 0
M  V30 4688 O 452.438 -1.85014 -0.590207 0
M  V30 4689 C 449.568 -3.41128 -0.651819 0
M  V30 4690 C 448.522 -4.27842 0.116395 0
M  V30 4691 C 447.848 -5.2763 -0.86666 0
M  V30 4692 C 449.148 -5.05647 1.30837 0
M  V30 4693 H 450.842 -2.81636 1.01594 0
M  V30 4694 H 448.388 -1.35407 0.489981 0
M  V30 4695 H 450.341 -4.07581 -1.07031 0
M  V30 4696 H 449.065 -2.90622 -1.49019 0
M  V30 4697 H 447.724 -3.62952 0.515915 0
M  V30 4698 H 447.372 -4.73395 -1.70019 0
M  V30 4699 H 447.072 -5.86514 -0.35705 0
M  V30 4700 H 448.596 -5.96955 -1.28361 0
M  V30 4701 H 450.01 -5.65113 0.965393 0
M  V30 4702 H 448.407 -5.73967 1.75161 0
M  V30 4703 H 449.477 -4.37006 2.10128 0
M  V30 4704 N 450.82 -0.546701 -1.47814 0
M  V30 4705 C 451.753 0.254472 -2.26777 0
M  V30 4706 C 452.731 0.929809 -1.33392 0
M  V30 4707 O 453.915 0.950889 -1.62759 0
M  V30 4708 C 451.042 1.36171 -3.10121 0
M  V30 4709 C 450.088 0.796038 -4.19005 0
M  V30 4710 S 450.921 -0.349191 -5.3436 0
M  V30 4711 C 452.077 0.760122 -6.21267 0
M  V30 4712 H 452.31 -0.415612 -2.94381 0
M  V30 4713 H 449.843 -0.332809 -1.5077 0
M  V30 4714 H 451.801 1.99588 -3.58713 0
M  V30 4715 H 450.462 2.00359 -2.41899 0
M  V30 4716 H 449.655 1.62719 -4.7701 0
M  V30 4717 H 449.257 0.238246 -3.7324 0
M  V30 4718 H 451.549 1.65479 -6.5698 0
M  V30 4719 H 452.492 0.217673 -7.07765 0
M  V30 4720 H 452.9 1.04806 -5.54685 0
M  V30 4721 N 452.299 1.55045 -0.282633 0
M  V30 4722 C 453.715 1.59441 0.0712997 0
M  V30 4723 C 453.915 1.2998 1.53972 0
M  V30 4724 O 452.971 1.06431 2.28973 0
M  V30 4725 C 454.284 2.99097 -0.310104 0
M  V30 4726 C 455.832 3.1194 -0.257343 0
M  V30 4727 C 456.307 4.53875 -0.613297 0
M  V30 4728 N 457.798 4.5974 -0.565134 0
M  V30 4729 C 458.533 5.67603 -0.81326 0
M  V30 4730 N 458.029 6.83582 -1.1264 0
M  V30 4731 N 459.822 5.57187 -0.741553 0
M  V30 4732 H 451.973 1.72458 -1.23984 0
M  V30 4733 H 454.236 0.804549 -0.501403 0
M  V30 4734 H 453.942 3.25516 -1.33163 0
M  V30 4735 H 453.816 3.75616 0.345366 0
M  V30 4736 H 456.203 2.85281 0.754905 0
M  V30 4737 H 456.284 2.37618 -0.947178 0
M  V30 4738 H 455.928 4.81261 -1.62327 0
M  V30 4739 H 455.858 5.26508 0.09841 0
M  V30 4740 H 458.349 3.76427 -0.333294 0
M  V30 4741 H 458.662 7.6175 -1.30219 0
M  V30 4742 H 457.007 6.85179 -1.16425 0
M  V30 4743 H 460.198 4.65457 -0.496705 0
M  V30 4744 H 460.371 6.41171 -0.938306 0
M  V30 4745 N 453.777 0.010035 1.57597 0
M  V30 4746 C 455.188 -0.531426 1.78977 0
M  V30 4747 C 455.539 -1.73375 0.918454 0
M  V30 4748 O 454.664 -2.16047 0.123635 0
M  V30 4749 C 455.259 -0.97086 3.24592 0
M  V30 4750 C 453.818 -1.45756 3.47033 0
M  V30 4751 C 452.965 -0.413384 2.74201 0
M  V30 4752 H 455.916 0.236166 1.56933 0
M  V30 4753 H 455.937 -1.83633 3.33255 0
M  V30 4754 H 455.449 -0.0955893 3.87982 0
M  V30 4755 H 453.55 -2.35339 2.88871 0
M  V30 4756 H 453.663 -1.4781 4.55729 0
M  V30 4757 H 452.027 -0.877266 2.39115 0
M  V30 4758 H 452.81 0.453092 3.40297 0
M  V30 4759 N 455.255 -1.55392 -0.262866 0
M  V30 4760 C 456.218 -1.88181 -1.30846 0
M  V30 4761 C 457.218 -0.757079 -1.41862 0
M  V30 4762 O 458.408 -1.02519 -1.40838 0
M  V30 4763 C 455.54 -2.09609 -2.68844 0
M  V30 4764 H 456.733 -2.81659 -1.02997 0
M  V30 4765 H 454.286 -1.48039 -0.501414 0
M  V30 4766 H 455.021 -1.18547 -3.01856 0
M  V30 4767 H 454.806 -2.91508 -2.62231 0
M  V30 4768 H 456.296 -2.36215 -3.44372 0
M  V30 4769 N 456.733 0.527833 -1.48498 0
M  V30 4770 C 457.666 1.64892 -1.57753 0
M  V30 4771 C 458.644 1.5687 -0.427867 0
M  V30 4772 O 459.828 1.77311 -0.639764 0
M  V30 4773 C 456.955 3.03301 -1.50752 0
M  V30 4774 C 456.001 3.29675 -2.70586 0
M  V30 4775 S 456.834 3.15712 -4.32535 0
M  V30 4776 C 457.99 4.56564 -4.28136 0
M  V30 4777 H 458.223 1.56792 -2.52594 0
M  V30 4778 H 455.756 0.710959 -1.37057 0
M  V30 4779 H 457.714 3.83123 -1.474 0
M  V30 4780 H 456.375 3.08839 -0.572454 0
M  V30 4781 H 455.568 4.3065 -2.61833 0
M  V30 4782 H 455.17 2.57526 -2.71212 0
M  V30 4783 H 457.462 5.48126 -3.98201 0
M  V30 4784 H 458.405 4.70371 -5.29298 0
M  V30 4785 H 458.813 4.35987 -3.58574 0
M  V30 4786 N 458.211 1.37122 0.776871 0
M  V30 4787 C 459.441 1.35034 1.56363 0
M  V30 4788 C 459.849 -0.0674681 1.8908 0
M  V30 4789 O 459.192 -1.03826 1.51545 0
M  V30 4790 C 459.254 2.11894 2.90415 0
M  V30 4791 C 458.918 3.60897 2.80362 0
M  V30 4792 C 459.915 4.54887 2.51742 0
M  V30 4793 C 457.6 4.03951 2.98545 0
M  V30 4794 C 459.594 5.89909 2.41426 0
M  V30 4795 C 457.281 5.3906 2.87849 0
M  V30 4796 C 458.279 6.31852 2.5933 0
M  V30 4797 O 457.967 7.64479 2.48651 0
M  V30 4798 H 457.699 0.464402 0.49123 0
M  V30 4799 H 460.253 1.80992 0.971127 0
M  V30 4800 H 458.483 1.60618 3.51765 0
M  V30 4801 H 460.172 2.02505 3.51776 0
M  V30 4802 H 460.938 4.22934 2.37385 0
M  V30 4803 H 456.817 3.3209 3.19746 0
M  V30 4804 H 460.361 6.62304 2.19086 0
M  V30 4805 H 456.258 5.70617 3.01773 0
M  V30 4806 H 457.026 7.74742 2.64039 0
M  V30 4807 N 459.689 -1.00246 1.21608 0
M  V30 4808 C 460.937 -1.73717 1.0328 0
M  V30 4809 C 461.258 -1.90102 -0.434318 0
M  V30 4810 O 460.528 -1.45376 -1.31311 0
M  V30 4811 H 459.108 -0.643613 0.379172 0
M  V30 4812 H 461.77 -1.20787 1.52959 0
M  V30 4813 H 460.866 -2.73535 1.50283 0
M  V30 4814 N 461.167 -1.02423 -1.1978 0
M  V30 4815 C 462.392 -0.7373 -1.93852 0
M  V30 4816 C 462.817 0.696923 -1.74713 0
M  V30 4817 O 462.175 1.48056 -1.04638 0
M  V30 4818 C 462.223 -1.08783 -3.438 0
M  V30 4819 O 461.327 -0.20383 -4.11896 0
M  V30 4820 H 460.668 -0.27284 -0.605355 0
M  V30 4821 H 463.198 -1.36966 -1.51992 0
M  V30 4822 H 463.208 -1.04276 -3.9445 0
M  V30 4823 H 461.883 -2.13274 -3.57053 0
M  V30 4824 H 460.46 -0.307091 -3.71633 0
M  V30 4825 N 462.645 1.35699 -0.801477 0
M  V30 4826 C 463.875 2.02862 -0.3912 0
M  V30 4827 C 464.283 1.60552 1.00099 0
M  V30 4828 O 463.626 0.796215 1.65548 0
M  V30 4829 C 463.688 3.57386 -0.389299 0
M  V30 4830 C 463.352 4.22943 -1.73113 0
M  V30 4831 C 464.349 4.44984 -2.68859 0
M  V30 4832 C 462.034 4.60167 -2.01373 0
M  V30 4833 C 464.028 5.03345 -3.91053 0
M  V30 4834 C 461.715 5.18243 -3.23832 0
M  V30 4835 C 462.713 5.39773 -4.1849 0
M  V30 4836 O 462.401 5.96626 -5.38788 0
M  V30 4837 H 462.133 0.657341 -0.157732 0
M  V30 4838 H 464.687 1.74407 -1.08496 0
M  V30 4839 H 462.917 3.85011 0.361031 0
M  V30 4840 H 464.606 4.059 -0.0020365 0
M  V30 4841 H 465.372 4.1661 -2.48316 0
M  V30 4842 H 461.251 4.42726 -1.28508 0
M  V30 4843 H 464.795 5.20065 -4.64949 0
M  V30 4844 H 460.692 5.46044 -3.44248 0
M  V30 4845 H 461.46 6.15082 -5.40015 0
M  V30 4846 N 464.123 0.554532 1.47522 0
M  V30 4847 C 465.073 -0.215008 2.26984 0
M  V30 4848 C 466.057 -0.88774 1.34194 0
M  V30 4849 O 467.249 -0.786489 1.58567 0
M  V30 4850 C 464.378 -1.24604 3.19889 0
M  V30 4851 C 463.464 -0.576857 4.20159 0
M  V30 4852 N 463.855 0.351541 5.04577 0
M  V30 4853 C 462.153 -0.831104 4.38188 0
M  V30 4854 C 462.854 0.739995 5.76974 0
M  V30 4855 N 461.83 0.0954407 5.43516 0
M  V30 4856 H 465.632 0.498843 2.89636 0
M  V30 4857 H 463.146 0.374279 1.58028 0
M  V30 4858 H 465.143 -1.81128 3.75498 0
M  V30 4859 H 463.803 -1.96101 2.58794 0
M  V30 4860 H 464.814 0.725556 5.12792 0
M  V30 4861 H 461.491 -1.53479 3.88266 0
M  V30 4862 H 462.881 1.50271 6.5488 0
M  V30 4863 N 465.601 -1.54893 0.290851 0
M  V30 4864 C 466.551 -2.19838 -0.604599 0
M  V30 4865 C 467.535 -1.16805 -1.10659 0
M  V30 4866 O 468.727 -1.42562 -1.04905 0
M  V30 4867 C 465.856 -2.93497 -1.78086 0
M  V30 4868 C 464.942 -4.03835 -1.29531 0
M  V30 4869 N 465.333 -5.03047 -0.527024 0
M  V30 4870 C 463.631 -4.17192 -1.57693 0
M  V30 4871 C 464.332 -5.81074 -0.269728 0
M  V30 4872 N 463.308 -5.36966 -0.846651 0
M  V30 4873 H 467.11 -2.93898 -0.00995032 0
M  V30 4874 H 464.624 -1.62121 0.0951353 0
M  V30 4875 H 466.621 -3.38484 -2.43381 0
M  V30 4876 H 465.281 -2.2095 -2.37931 0
M  V30 4877 H 466.292 -5.17611 -0.172872 0
M  V30 4878 H 462.969 -3.55845 -2.18359 0
M  V30 4879 H 464.359 -6.71005 0.346643 0
M  V30 4880 N 467.08 -0.0183926 -1.57589 0
M  V30 4881 C 468.329 0.66185 -1.90532 0
M  V30 4882 C 468.642 1.73904 -0.895366 0
M  V30 4883 O 469.848 2.47518 -1.11566 0
M  V30 4884 C 468.304 1.22844 -3.38286 0
M  V30 4885 C 467.912 0.185103 -4.47617 0
M  V30 4886 C 469.656 1.88581 -3.80312 0
M  V30 4887 C 467.563 0.762723 -5.86461 0
M  V30 4888 H 466.493 0.250972 -0.711006 0
M  V30 4889 H 469.144 -0.0819435 -1.83317 0
M  V30 4890 H 467.526 2.0235 -3.40398 0
M  V30 4891 H 468.7 -0.58671 -4.5705 0
M  V30 4892 H 467.015 -0.372889 -4.14727 0
M  V30 4893 H 469.612 2.32735 -4.81392 0
M  V30 4894 H 469.955 2.72408 -3.14801 0
M  V30 4895 H 470.488 1.15782 -3.80578 0
M  V30 4896 H 467.227 -0.0371713 -6.55489 0
M  V30 4897 H 466.747 1.50327 -5.80656 0
M  V30 4898 H 468.426 1.25576 -6.34697 0
M  V30 4899 N 468.558 1.5553 0.254621 0
M  V30 4900 C 469.783 1.81383 1.00573 0
M  V30 4901 C 470.208 0.594419 1.78461 0
M  V30 4902 O 469.566 -0.456403 1.75461 0
M  V30 4903 C 469.614 3.04892 1.92545 0
M  V30 4904 O 468.718 2.81266 3.01601 0
M  V30 4905 H 468.059 0.598969 0.286587 0
M  V30 4906 H 470.589 2.02703 0.277952 0
M  V30 4907 H 470.599 3.34119 2.34155 0
M  V30 4908 H 469.274 3.93287 1.3527 0
M  V30 4909 H 467.851 2.63185 2.64174 0
M  V30 4910 N 470.036 -0.519951 1.48776 0
M  V30 4911 C 470.999 -1.60574 1.6355 0
M  V30 4912 C 471.999 -1.52557 0.508234 0
M  V30 4913 O 473.189 -1.56047 0.774262 0
M  V30 4914 C 470.321 -3.00211 1.61512 0
M  V30 4915 H 471.514 -1.4881 2.60376 0
M  V30 4916 H 469.067 -0.742772 1.37523 0
M  V30 4917 H 469.802 -3.17471 0.662009 0
M  V30 4918 H 469.587 -3.07439 2.43359 0
M  V30 4919 H 471.077 -3.79134 1.75064 0
M  V30 4920 N 471.514 -1.37532 -0.769588 0
M  V30 4921 C 472.444 -1.36172 -1.89682 0
M  V30 4922 C 473.425 -0.23001 -1.68538 0
M  V30 4923 O 474.61 -0.43069 -1.89364 0
M  V30 4924 C 471.74 -1.1701 -3.26995 0
M  V30 4925 C 470.694 -2.27216 -3.62708 0
M  V30 4926 C 470.02 -1.93174 -4.98586 0
M  V30 4927 C 471.32 -3.6941 -3.69234 0
M  V30 4928 H 473.014 -2.30499 -1.91078 0
M  V30 4929 H 470.56 -1.10953 -0.917902 0
M  V30 4930 H 472.513 -1.14688 -4.05493 0
M  V30 4931 H 471.237 -0.191395 -3.26039 0
M  V30 4932 H 469.896 -2.28697 -2.86519 0
M  V30 4933 H 469.544 -0.938281 -4.94171 0
M  V30 4934 H 469.244 -2.66973 -5.23449 0
M  V30 4935 H 470.768 -1.92443 -5.79481 0
M  V30 4936 H 472.182 -3.70047 -4.37879 0
M  V30 4937 H 470.579 -4.4228 -4.05597 0
M  V30 4938 H 471.649 -4.0288 -2.69844 0
M  V30 4939 N 472.992 0.995999 -1.22138 0
M  V30 4940 C 473.955 2.06711 -0.990109 0
M  V30 4941 C 474.955 1.60744 0.0422978 0
M  V30 4942 O 476.145 1.73095 -0.195895 0
M  V30 4943 C 473.277 3.37288 -0.49491 0
M  V30 4944 H 474.47 2.28661 -1.94047 0
M  V30 4945 H 472.023 1.16711 -1.03963 0
M  V30 4946 H 472.758 3.21022 0.459948 0
M  V30 4947 H 472.543 3.71986 -1.23971 0
M  V30 4948 H 474.033 4.16103 -0.353253 0
M  V30 4949 N 474.47 1.03057 1.19235 0
M  V30 4950 C 475.433 0.617418 2.20727 0
M  V30 4951 C 476.433 -0.319856 1.57587 0
M  V30 4952 O 477.623 -0.106633 1.73873 0
M  V30 4953 C 474.755 -0.096296 3.40764 0
M  V30 4954 H 475.948 1.51544 2.58794 0
M  V30 4955 H 473.501 0.821949 1.32942 0
M  V30 4956 H 474.236 -1.00859 3.08217 0
M  V30 4957 H 474.021 0.577217 3.87828 0
M  V30 4958 H 475.511 -0.372219 4.15938 0
M  V30 4959 N 475.948 -1.35272 0.808662 0
M  V30 4960 C 477.225 -1.93077 0.313181 0
M  V30 4961 C 477.605 -1.73847 -1.19752 0
M  V30 4962 O 476.953 -1.1087 -1.998 0
M  V30 4963 C 477.163 -3.41347 0.726859 0
M  V30 4964 C 478.511 -4.18493 0.717532 0
M  V30 4965 O 479.535 -3.4987 0.668535 0
M  V30 4966 O 478.394 -5.40937 0.777779 0
M  V30 4967 H 475.488 -0.822885 0.0824018 0
M  V30 4968 H 478.034 -1.44335 0.892499 0
M  V30 4969 H 476.806 -3.49082 1.76797 0
M  V30 4970 H 476.429 -3.97411 0.122461 0
M  V30 4971 N 477.426 -0.562348 -1.47226 0
M  V30 4972 C 478.674 -0.0401371 -2.0206 0
M  V30 4973 C 478.995 1.3165 -1.43852 0
M  V30 4974 O 478.265 1.85976 -0.615599 0
M  V30 4975 H 476.845 -0.0118479 -0.746906 0
M  V30 4976 H 479.507 -0.73352 -1.8057 0
M  V30 4977 H 478.603 0.0441254 -3.12069 0
M  V30 4978 N 478.904 1.54736 -0.299062 0
M  V30 4979 C 480.32 1.59507 0.0543849 0
M  V30 4980 C 480.52 1.31606 1.52585 0
M  V30 4981 O 479.576 1.08853 2.27832 0
M  V30 4982 C 480.889 2.98751 -0.34181 0
M  V30 4983 C 482.437 3.1165 -0.290414 0
M  V30 4984 C 482.912 4.53199 -0.661402 0
M  V30 4985 N 484.403 4.59114 -0.613863 0
M  V30 4986 C 485.138 5.66709 -0.873417 0
M  V30 4987 N 484.634 6.82349 -1.19884 0
M  V30 4988 N 486.427 5.56369 -0.800608 0
M  V30 4989 H 478.578 1.71133 -1.25806 0
M  V30 4990 H 480.841 0.799186 -0.509908 0
M  V30 4991 H 480.547 3.24085 -1.36608 0
M  V30 4992 H 480.421 3.75961 0.305508 0
M  V30 4993 H 482.808 2.86066 0.724605 0
M  V30 4994 H 482.889 2.366 -0.972327 0
M  V30 4995 H 482.533 4.79513 -1.67422 0
M  V30 4996 H 482.463 5.26583 0.0425612 0
M  V30 4997 H 484.954 3.76053 -0.3732 0
M  V30 4998 H 485.267 7.60326 -1.38291 0
M  V30 4999 H 483.612 6.83906 -1.23685 0
M  V30 5000 H 486.803 4.64904 -0.546045 0
M  V30 5001 H 486.976 6.40139 -1.00626 0
M  V30 5002 N 480.382 0.0267497 1.57577 0
M  V30 5003 C 481.607 -0.666227 1.96408 0
M  V30 5004 C 482.032 -1.65004 0.903071 0
M  V30 5005 O 481.39 -1.80787 -0.136263 0
M  V30 5006 C 481.438 -1.35101 3.34335 0
M  V30 5007 O 480.542 -2.46623 3.30531 0
M  V30 5008 H 479.883 -0.175206 0.640468 0
M  V30 5009 H 482.413 0.0878977 2.04411 0
M  V30 5010 H 482.423 -1.70834 3.70513 0
M  V30 5011 H 481.098 -0.629844 4.11103 0
M  V30 5012 H 479.675 -2.13019 3.06068 0
M  V30 5013 N 481.861 -1.55662 -0.24637 0
M  V30 5014 C 482.791 -1.93377 -1.30873 0
M  V30 5015 C 483.772 -0.798773 -1.50179 0
M  V30 5016 O 484.957 -1.0591 -1.62778 0
M  V30 5017 C 482.087 -2.22893 -2.66338 0
M  V30 5018 C 481.041 -3.38649 -2.61727 0
M  V30 5019 C 480.367 -3.53708 -4.00992 0
M  V30 5020 C 481.667 -4.74323 -2.18666 0
M  V30 5021 H 483.361 -2.82363 -0.995552 0
M  V30 5022 H 480.907 -1.35854 -0.477464 0
M  V30 5023 H 482.86 -2.47866 -3.40794 0
M  V30 5024 H 481.584 -1.30733 -2.99293 0
M  V30 5025 H 480.243 -3.13685 -1.89729 0
M  V30 5026 H 479.891 -2.58967 -4.31214 0
M  V30 5027 H 479.591 -4.31551 -3.98795 0
M  V30 5028 H 481.115 -3.81003 -4.77147 0
M  V30 5029 H 482.529 -4.98665 -2.82854 0
M  V30 5030 H 480.926 -5.55273 -2.27579 0
M  V30 5031 H 481.996 -4.71349 -1.13834 0
M  V30 5032 N 483.339 0.512053 -1.4905 0
M  V30 5033 C 484.249 1.64139 -1.67617 0
M  V30 5034 C 485.265 1.64786 -0.558701 0
M  V30 5035 O 486.441 1.8341 -0.832034 0
M  V30 5036 C 483.506 3.00548 -1.72835 0
M  V30 5037 C 482.567 3.10615 -2.96339 0
M  V30 5038 C 481.8 4.40517 -3.01298 0
M  V30 5039 O 482.023 5.28671 -2.14157 0
M  V30 5040 O 480.957 4.55325 -3.93653 0
M  V30 5041 H 484.783 1.51407 -2.63267 0
M  V30 5042 H 482.368 0.687131 -1.32661 0
M  V30 5043 H 484.25 3.81641 -1.78683 0
M  V30 5044 H 482.925 3.13566 -0.803616 0
M  V30 5045 H 481.832 2.2875 -2.96014 0
M  V30 5046 H 483.165 3.0252 -3.88256 0
M  V30 5047 N 484.817 1.37938 0.762283 0
M  V30 5048 C 485.767 1.30976 1.86626 0
M  V30 5049 C 486.751 0.195714 1.59705 0
M  V30 5050 O 487.943 0.430937 1.71674 0
M  V30 5051 C 485.072 1.12847 3.24223 0
M  V30 5052 C 484.158 2.28836 3.57064 0
M  V30 5053 N 484.549 3.54256 3.61022 0
M  V30 5054 C 482.847 2.21198 3.87282 0
M  V30 5055 C 483.548 4.30798 3.90881 0
M  V30 5056 N 482.524 3.60049 4.07266 0
M  V30 5057 H 486.326 2.25946 1.87951 0
M  V30 5058 H 483.84 1.31046 0.959206 0
M  V30 5059 H 485.837 1.05943 4.03214 0
M  V30 5060 H 484.497 0.188024 3.24155 0
M  V30 5061 H 485.508 3.8804 3.42995 0
M  V30 5062 H 482.185 1.35264 3.94981 0
M  V30 5063 H 483.575 5.39386 4.00639 0
M  V30 5064 N 486.295 -0.989507 1.22664 0
M  V30 5065 C 487.258 -2.06183 1.00106 0
M  V30 5066 C 488.258 -1.60765 -0.0337726 0
M  V30 5067 O 489.448 -1.72989 0.205072 0
M  V30 5068 C 486.58 -3.37021 0.51279 0
M  V30 5069 H 487.773 -2.27629 1.95256 0
M  V30 5070 H 485.326 -1.16158 1.0458 0
M  V30 5071 H 486.061 -3.21261 -0.442917 0
M  V30 5072 H 485.846 -3.71323 1.25942 0
M  V30 5073 H 487.336 -4.1591 0.375315 0
M  V30 5074 N 487.773 -1.03688 -1.18687 0
M  V30 5075 C 489.184 -0.766488 -1.70241 0
M  V30 5076 C 489.535 0.713052 -1.82784 0
M  V30 5077 O 488.66 1.55529 -1.50465 0
M  V30 5078 C 489.255 -1.38475 -3.09209 0
M  V30 5079 C 487.814 -1.16276 -3.5799 0
M  V30 5080 C 486.961 -1.4778 -2.34641 0
M  V30 5081 H 489.912 -1.20378 -1.03415 0
M  V30 5082 H 489.933 -0.785939 -3.72295 0
M  V30 5083 H 489.445 -2.46157 -3.00048 0
M  V30 5084 H 487.546 -0.104508 -3.72453 0
M  V30 5085 H 487.659 -1.8571 -4.41643 0
M  V30 5086 H 486.023 -0.897366 -2.38368 0
M  V30 5087 H 486.806 -2.56562 -2.28102 0
M  V30 5088 N 489.251 1.34841 -0.815825 0
M  V30 5089 C 490.479 2.0273 -0.413294 0
M  V30 5090 C 490.894 1.61459 0.978599 0
M  V30 5091 O 490.251 0.816584 1.63212 0
M  V30 5092 C 490.302 3.58058 -0.497676 0
M  V30 5093 O 490.023 3.97832 -1.8347 0
M  V30 5094 C 491.524 4.4321 -0.0891339 0
M  V30 5095 H 488.744 0.649956 -0.166728 0
M  V30 5096 H 491.288 1.72267 -1.10201 0
M  V30 5097 H 489.443 3.87136 0.142886 0
M  V30 5098 H 489.857 4.92501 -1.80396 0
M  V30 5099 H 491.331 5.5164 -0.199274 0
M  V30 5100 H 491.808 4.28432 0.966571 0
M  V30 5101 H 492.414 4.19446 -0.703214 0
M  V30 5102 N 490.729 0.570148 1.46925 0
M  V30 5103 C 491.975 0.0510284 2.02736 0
M  V30 5104 C 492.308 -1.3006 1.44215 0
M  V30 5105 O 491.583 -1.84932 0.602521 0
M  V30 5106 C 491.866 -0.028215 3.60089 0
M  V30 5107 C 491.719 1.35142 4.29018 0
M  V30 5108 C 493.038 -0.735181 4.33916 0
M  V30 5109 H 490.157 0.0200178 0.736728 0
M  V30 5110 H 492.799 0.73493 1.75211 0
M  V30 5111 H 490.949 -0.610648 3.83671 0
M  V30 5112 H 492.621 1.97806 4.16738 0
M  V30 5113 H 490.864 1.9226 3.88868 0
M  V30 5114 H 491.535 1.24857 5.37694 0
M  V30 5115 H 494.011 -0.240519 4.15404 0
M  V30 5116 H 492.887 -0.759622 5.43618 0
M  V30 5117 H 493.148 -1.79397 4.04066 0
M  V30 5118 N 492.207 -1.54576 0.307264 0
M  V30 5119 C 493.117 -2.27435 -0.57536 0
M  V30 5120 C 494.133 -1.31183 -1.14311 0
M  V30 5121 O 495.309 -1.64175 -1.16656 0
M  V30 5122 C 492.374 -3.00566 -1.72803 0
M  V30 5123 C 491.435 -4.12369 -1.19373 0
M  V30 5124 C 490.668 -4.82003 -2.29147 0
M  V30 5125 O 490.891 -4.51038 -3.49171 0
M  V30 5126 O 489.825 -5.69271 -1.95485 0
M  V30 5127 H 493.651 -3.03696 0.0158558 0
M  V30 5128 H 491.236 -1.49219 0.0735064 0
M  V30 5129 H 493.118 -3.46416 -2.39946 0
M  V30 5130 H 491.793 -2.27195 -2.30574 0
M  V30 5131 H 490.7 -3.70905 -0.487851 0
M  V30 5132 H 492.033 -4.87736 -0.661376 0
M  V30 5133 N 493.685 -0.035106 -1.57561 0
M  V30 5134 C 494.913 0.652258 -1.9635 0
M  V30 5135 C 495.328 1.65317 -0.911897 0
M  V30 5136 O 494.685 1.82194 0.105657 0
M  V30 5137 C 494.736 1.35337 -3.35211 0
M  V30 5138 O 494.457 0.392548 -4.36338 0
M  V30 5139 C 495.958 2.13199 -3.88666 0
M  V30 5140 H 493.178 0.179444 -0.646561 0
M  V30 5141 H 495.722 -0.0966459 -2.04271 0
M  V30 5142 H 493.877 2.05362 -3.28489 0
M  V30 5143 H 494.291 0.891097 -5.16875 0
M  V30 5144 H 495.765 2.577 -4.88154 0
M  V30 5145 H 496.242 2.97353 -3.23231 0
M  V30 5146 H 496.848 1.48118 -3.98674 0
M  V30 5147 N 495.163 1.55791 0.238111 0
M  V30 5148 C 496.409 1.78297 0.966337 0
M  V30 5149 C 496.742 0.601903 1.84637 0
M  V30 5150 O 496.017 -0.399499 1.90353 0
M  V30 5151 C 496.3 3.10758 1.81939 0
M  V30 5152 C 496.153 4.39283 0.966958 0
M  V30 5153 C 497.472 3.39519 2.80027 0
M  V30 5154 H 494.591 0.648654 0.349882 0
M  V30 5155 H 497.233 1.88525 0.236253 0
M  V30 5156 H 495.383 3.02168 2.44185 0
M  V30 5157 H 497.055 4.59873 0.362514 0
M  V30 5158 H 495.298 4.32948 0.271669 0
M  V30 5159 H 495.969 5.28368 1.59784 0
M  V30 5160 H 498.445 3.48128 2.27917 0
M  V30 5161 H 497.321 4.33402 3.36829 0
M  V30 5162 H 497.582 2.60864 3.56934 0
M  V30 5163 N 496.642 -0.504142 1.49319 0
M  V30 5164 C 497.888 -1.26033 1.58882 0
M  V30 5165 C 498.221 -1.92268 0.273274 0
M  V30 5166 O 497.496 -1.80567 -0.72291 0
M  V30 5167 C 497.779 -2.32976 2.7458 0
M  V30 5168 C 497.632 -1.71263 4.1592 0
M  V30 5169 C 498.951 -3.34561 2.85932 0
M  V30 5170 H 496.07 -0.456863 0.578312 0
M  V30 5171 H 498.712 -0.558965 1.81592 0
M  V30 5172 H 496.862 -2.92796 2.55348 0
M  V30 5173 H 498.534 -1.15294 4.4666 0
M  V30 5174 H 496.777 -1.01686 4.21714 0
M  V30 5175 H 497.448 -2.48816 4.92742 0
M  V30 5176 H 499.924 -2.84727 3.0343 0
M  V30 5177 H 498.8 -4.06754 3.68568 0
M  V30 5178 H 499.061 -3.96695 1.95154 0
M  V30 5179 N 498.12 -1.38341 -0.754957 0
M  V30 5180 C 499.083 -1.35262 -1.85032 0
M  V30 5181 C 500.083 -0.253393 -1.58791 0
M  V30 5182 O 501.273 -0.510205 -1.66561 0
M  V30 5183 C 498.405 -1.10544 -3.22479 0
M  V30 5184 H 499.598 -2.32712 -1.8917 0
M  V30 5185 H 497.151 -1.23614 -0.956515 0
M  V30 5186 H 497.886 -0.136952 -3.24011 0
M  V30 5187 H 497.671 -1.90127 -3.4292 0
M  V30 5188 H 499.161 -1.11082 -4.02555 0
M  V30 5189 N 499.598 0.982988 -1.23187 0
M  V30 5190 C 500.846 1.72052 -1.06031 0
M  V30 5191 C 501.167 1.90769 0.404019 0
M  V30 5192 O 500.437 1.47446 1.28982 0
M  V30 5193 H 499.017 0.637499 -0.389363 0
M  V30 5194 H 501.679 1.18338 -1.54862 0
M  V30 5195 H 500.775 2.7111 -1.54615 0
M  V30 5196 N 501.076 1.04316 1.18135 0
M  V30 5197 C 502.487 0.775505 1.69832 0
M  V30 5198 C 502.838 -0.703348 1.8316 0
M  V30 5199 O 501.963 -1.54729 1.51287 0
M  V30 5200 C 502.558 1.40112 3.0847 0
M  V30 5201 C 501.117 1.18172 3.57368 0
M  V30 5202 C 500.264 1.49022 2.33854 0
M  V30 5203 H 503.215 1.20925 1.02775 0
M  V30 5204 H 503.236 0.805672 3.71873 0
M  V30 5205 H 502.748 2.47744 2.98738 0
M  V30 5206 H 500.849 0.124258 3.72393 0
M  V30 5207 H 500.962 1.8805 4.40652 0
M  V30 5208 H 499.326 0.909995 2.37889 0
M  V30 5209 H 500.109 2.57768 2.26738 0
M  V30 5210 N 502.554 -1.34406 0.822964 0
M  V30 5211 C 503.484 -2.32052 0.259608 0
M  V30 5212 C 504.465 -1.58243 -0.623961 0
M  V30 5213 O 505.65 -1.86224 -0.55083 0
M  V30 5214 C 502.78 -3.42434 -0.579314 0
M  V30 5215 C 501.734 -4.27499 0.20712 0
M  V30 5216 C 501.06 -5.29349 -0.754547 0
M  V30 5217 C 502.36 -5.02758 1.41533 0
M  V30 5218 H 504.054 -2.79418 1.07545 0
M  V30 5219 H 501.6 -1.34338 0.518593 0
M  V30 5220 H 503.553 -4.0976 -0.983612 0
M  V30 5221 H 502.277 -2.93717 -1.4282 0
M  V30 5222 H 500.936 -3.61776 0.592787 0
M  V30 5223 H 500.584 -4.76895 -1.59939 0
M  V30 5224 H 500.284 -5.8714 -0.232561 0
M  V30 5225 H 501.808 -5.99544 -1.1567 0
M  V30 5226 H 503.222 -5.62938 1.08504 0
M  V30 5227 H 501.619 -5.70123 1.87296 0
M  V30 5228 H 502.689 -4.32451 2.1935 0
M  V30 5229 N 504.032 -0.577932 -1.46621 0
M  V30 5230 C 505.272 -0.0643097 -2.04299 0
M  V30 5231 C 505.636 1.26967 -1.44026 0
M  V30 5232 O 506.837 1.87224 -1.92875 0
M  V30 5233 C 505.108 0.00547588 -3.574 0
M  V30 5234 S 506.667 0.462216 -4.36359 0
M  V30 5235 H 503.485 -0.0351573 -0.71013 0
M  V30 5236 H 506.087 -0.76935 -1.79725 0
M  V30 5237 H 504.791 -0.969423 -3.98786 0
M  V30 5238 H 504.322 0.733435 -3.86503 0
M  V30 5239 H 506.337 1.71791 -4.65513 0
M  V30 5240 N 505.51 1.54411 -0.315457 0
M  V30 5241 C 506.42 2.27737 0.56329 0
M  V30 5242 C 507.436 1.31787 1.13614 0
M  V30 5243 O 508.612 1.64791 1.15784 0
M  V30 5244 C 505.677 3.01478 1.71207 0
M  V30 5245 C 504.738 4.12997 1.17185 0
M  V30 5246 C 503.971 4.83212 2.26588 0
M  V30 5247 O 504.194 4.52884 3.46775 0
M  V30 5248 O 503.128 5.70299 1.92463 0
M  V30 5249 H 506.954 3.03683 -0.0319614 0
M  V30 5250 H 504.539 1.49178 -0.0814188 0
M  V30 5251 H 506.421 3.47683 2.38106 0
M  V30 5252 H 505.096 2.28414 2.29366 0
M  V30 5253 H 504.003 3.71159 0.468174 0
M  V30 5254 H 505.336 4.8808 0.635501 0
M  V30 5255 N 506.988 0.0434614 1.5754 0
M  V30 5256 C 508.213 -0.645358 1.97104 0
M  V30 5257 C 508.638 -1.64037 0.920521 0
M  V30 5258 O 507.996 -1.80922 -0.11708 0
M  V30 5259 C 508.044 -1.31547 3.35749 0
M  V30 5260 O 507.148 -2.43103 3.33129 0
M  V30 5261 H 506.489 -0.168403 0.64229 0
M  V30 5262 H 509.019 0.109573 2.04306 0
M  V30 5263 H 509.029 -1.66895 3.72304 0
M  V30 5264 H 507.704 -0.586205 4.11748 0
M  V30 5265 H 506.281 -2.0976 3.0831 0
M  V30 5266 N 508.466 -1.55915 -0.229846 0
M  V30 5267 C 509.714 -1.7819 -0.953565 0
M  V30 5268 C 510.035 -0.610504 -1.85197 0
M  V30 5269 O 509.305 0.372988 -1.92316 0
M  V30 5270 H 507.885 -0.657208 -0.355087 0
M  V30 5271 H 510.547 -1.9337 -0.243693 0
M  V30 5272 H 509.643 -2.70011 -1.56527 0
M  V30 5273 N 509.944 0.496216 -1.49584 0
M  V30 5274 C 511.221 1.25755 -1.49816 0
M  V30 5275 C 511.601 2.09859 -0.228572 0
M  V30 5276 O 510.949 2.14449 0.788908 0
M  V30 5277 C 511.159 2.11017 -2.7798 0
M  V30 5278 C 512.507 2.70047 -3.27658 0
M  V30 5279 O 513.531 2.21281 -2.79129 0
M  V30 5280 O 512.39 3.58834 -4.1219 0
M  V30 5281 H 509.484 0.569322 -0.599834 0
M  V30 5282 H 512.03 0.510094 -1.61852 0
M  V30 5283 H 510.802 1.48879 -3.61871 0
M  V30 5284 H 510.425 2.92947 -2.68827 0
M  V30 5285 N 511.423 1.38739 0.74761 0
M  V30 5286 C 512.669 1.35475 1.50912 0
M  V30 5287 C 513.002 -0.0533093 1.94127 0
M  V30 5288 O 512.277 -1.01572 1.65871 0
M  V30 5289 C 512.56 2.31582 2.75757 0
M  V30 5290 C 512.413 3.81274 2.38642 0
M  V30 5291 C 513.732 2.25722 3.77806 0
M  V30 5292 H 510.851 0.493427 0.547447 0
M  V30 5293 H 513.493 1.69634 0.855823 0
M  V30 5294 H 511.643 2.02582 3.31501 0
M  V30 5295 H 513.315 4.20972 1.88626 0
M  V30 5296 H 511.558 3.98664 1.71025 0
M  V30 5297 H 512.229 4.4399 3.27989 0
M  V30 5298 H 514.705 2.51336 3.31616 0
M  V30 5299 H 513.581 2.95069 4.62845 0
M  V30 5300 H 513.842 1.25803 4.23823 0
M  V30 5301 N 512.901 -0.976442 1.23707 0
M  V30 5302 C 514.148 -1.71827 1.07153 0
M  V30 5303 C 514.476 -1.9053 -0.390982 0
M  V30 5304 O 513.731 -1.45779 -1.30564 0
M  V30 5305 C 514.03 -3.11814 1.74662 0
M  V30 5306 C 513.696 -3.12978 3.24585 0
M  V30 5307 C 512.358 -3.13003 3.6549 0
M  V30 5308 C 514.71 -3.07986 4.20469 0
M  V30 5309 C 512.038 -3.05757 5.00729 0
M  V30 5310 C 514.39 -3.02282 5.55705 0
M  V30 5311 C 513.054 -3.00631 5.95968 0
M  V30 5312 H 512.324 -0.628758 0.392102 0
M  V30 5313 H 514.971 -1.14239 1.53693 0
M  V30 5314 H 513.276 -3.72812 1.20492 0
M  V30 5315 H 514.973 -3.67989 1.59328 0
M  V30 5316 H 511.563 -3.13718 2.92026 0
M  V30 5317 H 515.747 -3.07103 3.89874 0
M  V30 5318 H 511.003 -3.02834 5.31132 0
M  V30 5319 H 515.177 -2.97376 6.29714 0
M  V30 5320 H 512.804 -2.94771 7.00724 0
M  V30 5321 N 514.379 -1.04941 -1.1758 0
M  V30 5322 C 515.607 -0.778294 -1.91703 0
M  V30 5323 C 516.022 0.665697 -1.76675 0
M  V30 5324 O 515.379 1.45456 -1.10222 0
M  V30 5325 C 515.43 -1.14628 -3.42845 0
M  V30 5326 O 515.151 -2.53359 -3.57409 0
M  V30 5327 C 516.652 -0.900931 -4.34049 0
M  V30 5328 H 513.872 -0.283167 -0.608323 0
M  V30 5329 H 516.416 -1.39942 -1.49119 0
M  V30 5330 H 514.571 -0.569953 -3.83184 0
M  V30 5331 H 514.985 -2.67709 -4.51035 0
M  V30 5332 H 516.459 -1.20817 -5.38616 0
M  V30 5333 H 516.936 0.163966 -4.38894 0
M  V30 5334 H 517.542 -1.46097 -3.99419 0
M  V30 5335 N 515.857 1.33968 -0.830081 0
M  V30 5336 C 516.789 2.28194 -0.21448 0
M  V30 5337 C 517.802 1.5135 0.599752 0
M  V30 5338 O 518.991 1.73286 0.42826 0
M  V30 5339 C 516.091 3.31221 0.717356 0
M  V30 5340 C 515.264 4.37365 -0.055613 0
M  V30 5341 C 514.323 5.2011 0.798231 0
M  V30 5342 O 513.349 5.68691 0.240616 0
M  V30 5343 N 514.551 5.40523 2.11695 0
M  V30 5344 H 517.316 2.81662 -1.02405 0
M  V30 5345 H 514.877 1.46568 -0.687713 0
M  V30 5346 H 516.869 3.83477 1.29334 0
M  V30 5347 H 515.439 2.78095 1.42765 0
M  V30 5348 H 514.659 3.85727 -0.812936 0
M  V30 5349 H 515.947 5.05397 -0.587444 0
M  V30 5350 H 515.345 5.0274 2.59363 0
M  V30 5351 H 513.902 5.95871 2.64162 0
M  V30 5352 N 517.335 0.585699 1.46312 0
M  V30 5353 C 518.267 -0.183687 2.28463 0
M  V30 5354 C 519.28 -0.85264 1.38686 0
M  V30 5355 O 520.469 -0.721701 1.6326 0
M  V30 5356 C 517.569 -1.27977 3.13808 0
M  V30 5357 C 516.742 -0.702164 4.31727 0
M  V30 5358 C 515.801 -1.68633 4.98447 0
M  V30 5359 O 514.827 -1.22121 5.55945 0
M  V30 5360 N 516.029 -3.02047 4.95729 0
M  V30 5361 H 518.794 0.521127 2.95134 0
M  V30 5362 H 516.355 0.423673 1.56258 0
M  V30 5363 H 518.347 -1.9375 3.55307 0
M  V30 5364 H 516.917 -1.8874 2.4919 0
M  V30 5365 H 516.137 0.1331 3.93975 0
M  V30 5366 H 517.425 -0.296101 5.07938 0
M  V30 5367 H 516.823 -3.42457 4.50266 0
M  V30 5368 H 515.38 -3.63301 5.41161 0
M  V30 5369 N 518.813 -1.54241 0.323641 0
M  V30 5370 C 519.723 -2.28033 -0.551205 0
M  V30 5371 C 520.739 -1.32388 -1.12913 0
M  V30 5372 O 521.915 -1.65403 -1.14908 0
M  V30 5373 C 518.98 -3.02382 -1.69606 0
M  V30 5374 C 518.041 -4.13612 -1.14993 0
M  V30 5375 C 517.274 -4.84407 -2.24022 0
M  V30 5376 O 517.497 -4.54716 -3.44368 0
M  V30 5377 O 516.431 -5.71312 -1.89436 0
M  V30 5378 H 520.257 -3.03662 0.048066 0
M  V30 5379 H 517.842 -1.49133 0.0893289 0
M  V30 5380 H 519.724 -3.48941 -2.36259 0
M  V30 5381 H 518.399 -2.29628 -2.28151 0
M  V30 5382 H 517.306 -3.71402 -0.448484 0
M  V30 5383 H 518.639 -4.8841 -0.609608 0
M  V30 5384 N 520.291 -0.0518155 -1.57515 0
M  V30 5385 C 521.539 0.620595 -1.92336 0
M  V30 5386 C 521.86 1.71345 -0.930907 0
M  V30 5387 O 521.13 1.95885 0.0241341 0
M  V30 5388 H 519.71 0.232226 -0.709986 0
M  V30 5389 H 522.372 -0.104969 -1.94617 0
M  V30 5390 H 521.468 1.05879 -2.93592 0
M  V30 5391 N 521.769 1.56035 0.221574 0
M  V30 5392 C 523.017 1.78693 0.944102 0
M  V30 5393 C 523.338 0.620317 1.8487 0
M  V30 5394 O 522.608 -0.362784 1.92512 0
M  V30 5395 H 521.188 0.659082 0.351597 0
M  V30 5396 H 523.85 1.93497 0.233435 0
M  V30 5397 H 522.946 2.70837 1.55093 0
M  V30 5398 N 523.247 -0.488276 1.49845 0
M  V30 5399 C 524.195 -1.60917 1.67954 0
M  V30 5400 C 525.189 -1.6038 0.54539 0
M  V30 5401 O 526.395 -1.64736 0.7254 0
M  V30 5402 H 522.77 -0.533658 0.529824 0
M  V30 5403 H 524.741 -1.428 2.62013 0
M  V30 5404 C 523.49 -2.98975 1.77509 0
M  V30 5405 H 522.813 -3.00099 2.6416 0
M  V30 5406 H 524.253 -3.76906 1.9421 0
M  V30 5407 C 522.712 -3.3282 0.522745 0
M  V30 5408 O 523.242 -4.00208 -0.345866 0
M  V30 5409 N 521.448 -2.8808 0.381882 0
M  V30 5410 H 520.995 -2.33415 1.08974 0
M  V30 5411 H 520.953 -3.11091 -0.454929 0
M  V30 5412 N 524.725 -1.39134 -0.740242 0
M  V30 5413 C 525.971 -1.36273 -1.50192 0
M  V30 5414 C 526.304 0.0430136 -1.94152 0
M  V30 5415 O 525.579 1.00691 -1.66408 0
M  V30 5416 C 525.862 -2.33041 -2.74525 0
M  V30 5417 C 525.715 -3.82535 -2.36617 0
M  V30 5418 C 527.034 -2.27723 -3.76604 0
M  V30 5419 H 524.153 -0.496323 -0.544823 0
M  V30 5420 H 526.795 -1.70085 -0.846815 0
M  V30 5421 H 524.945 -2.04337 -3.30422 0
M  V30 5422 H 526.617 -4.21967 -1.86391 0
M  V30 5423 H 524.86 -3.99565 -1.68909 0
M  V30 5424 H 525.531 -4.45723 -3.2563 0
M  V30 5425 H 528.007 -2.53091 -3.30279 0
M  V30 5426 H 526.883 -2.97519 -4.61274 0
M  V30 5427 H 527.144 -1.28049 -4.2315 0
M  V30 5428 N 526.204 0.969867 -1.24223 0
M  V30 5429 C 527.114 2.09806 -1.0497 0
M  V30 5430 C 528.13 1.73998 0.00886455 0
M  V30 5431 O 529.306 2.00513 -0.188848 0
M  V30 5432 C 526.371 3.40467 -0.654452 0
M  V30 5433 C 525.432 3.90236 -1.78926 0
M  V30 5434 C 524.665 5.14662 -1.41277 0
M  V30 5435 O 524.888 5.69602 -0.301632 0
M  V30 5436 O 523.822 5.58761 -2.23763 0
M  V30 5437 H 527.648 2.28942 -1.99548 0
M  V30 5438 H 525.233 1.08197 -1.03023 0
M  V30 5439 H 527.115 4.19039 -0.445452 0
M  V30 5440 H 525.79 3.22636 0.262216 0
M  V30 5441 H 524.697 3.12735 -2.05299 0
M  V30 5442 H 526.03 4.1254 -2.68462 0
M  V30 5443 N 527.682 1.05563 1.17022 0
M  V30 5444 C 528.91 0.78845 1.91288 0
M  V30 5445 C 529.325 -0.656318 1.77025 0
M  V30 5446 O 528.682 -1.44869 1.10992 0
M  V30 5447 C 528.733 1.16444 3.42232 0
M  V30 5448 O 528.454 2.5525 3.5606 0
M  V30 5449 C 529.955 0.923937 4.33565 0
M  V30 5450 H 527.175 0.286389 0.606813 0
M  V30 5451 H 529.719 1.4073 1.48375 0
M  V30 5452 H 527.874 0.590266 3.82877 0
M  V30 5453 H 528.288 2.70097 4.49609 0
M  V30 5454 H 529.762 1.23672 5.37968 0
M  V30 5455 H 530.239 -0.140688 4.38975 0
M  V30 5456 H 530.845 1.48214 3.98639 0
M  V30 5457 N 529.16 -1.33526 0.837174 0
M  V30 5458 C 530.576 -1.50727 0.524743 0
M  V30 5459 C 530.776 -1.77792 -0.948279 0
M  V30 5460 O 529.832 -1.83719 -1.73216 0
M  V30 5461 C 531.145 -2.66299 1.39661 0
M  V30 5462 C 532.693 -2.80183 1.39521 0
M  V30 5463 C 533.168 -3.98815 2.25189 0
M  V30 5464 N 534.659 -4.06047 2.2289 0
M  V30 5465 C 535.394 -4.97032 2.85915 0
M  V30 5466 N 534.89 -5.93143 3.57985 0
M  V30 5467 N 536.683 -4.90015 2.75394 0
M  V30 5468 H 528.834 -1.1422 1.79074 0
M  V30 5469 H 531.097 -0.561399 0.763894 0
M  V30 5470 H 530.803 -2.52974 2.4433 0
M  V30 5471 H 530.677 -3.61663 1.07145 0
M  V30 5472 H 533.064 -2.92942 0.356253 0
M  V30 5473 H 533.145 -1.85586 1.76044 0
M  V30 5474 H 532.789 -3.86817 3.29143 0
M  V30 5475 H 532.719 -4.92654 1.86009 0
M  V30 5476 H 535.21 -3.37262 1.70478 0
M  V30 5477 H 535.523 -6.59227 4.03286 0
M  V30 5478 H 533.868 -5.93223 3.62093 0
M  V30 5479 H 537.059 -4.13894 2.18654 0
M  V30 5480 H 537.232 -5.60724 3.24796 0
M  V30 5481 N 530.638 -0.59345 -1.46 0
M  V30 5482 C 531.601 0.123538 -2.28867 0
M  V30 5483 C 532.601 0.808628 -1.38989 0
M  V30 5484 O 533.791 0.658945 -1.61256 0
M  V30 5485 C 530.923 1.1847 -3.19653 0
M  V30 5486 H 532.116 -0.604843 -2.93737 0
M  V30 5487 H 529.669 -0.351875 -1.52288 0
M  V30 5488 H 530.404 1.94431 -2.59552 0
M  V30 5489 H 530.189 0.69783 -3.8584 0
M  V30 5490 H 531.679 1.68726 -3.81997 0
M  V30 5491 N 532.116 1.54067 -0.331816 0
M  V30 5492 C 533.046 2.27569 0.522932 0
M  V30 5493 C 534.027 1.28679 1.11247 0
M  V30 5494 O 535.212 1.57504 1.13605 0
M  V30 5495 C 532.342 3.0397 1.67987 0
M  V30 5496 C 531.296 4.10267 1.21924 0
M  V30 5497 C 530.622 4.74555 2.46377 0
M  V30 5498 C 531.922 5.21268 0.32815 0
M  V30 5499 H 533.616 2.99264 -0.0901977 0
M  V30 5500 H 531.162 1.4393 -0.044821 0
M  V30 5501 H 533.115 3.54123 2.28418 0
M  V30 5502 H 531.839 2.29906 2.31971 0
M  V30 5503 H 530.498 3.61009 0.637809 0
M  V30 5504 H 530.146 3.97098 3.08743 0
M  V30 5505 H 529.846 5.46363 2.16243 0
M  V30 5506 H 531.37 5.27487 3.07555 0
M  V30 5507 H 532.784 5.67128 0.838978 0
M  V30 5508 H 531.181 5.99982 0.119228 0
M  V30 5509 H 532.251 4.80673 -0.638839 0
M  V30 5510 N 533.594 0.0601682 1.57485 0
M  V30 5511 C 535.005 -0.474217 1.80577 0
M  V30 5512 C 535.356 -1.70365 0.973147 0
M  V30 5513 O 534.481 -2.15544 0.192306 0
M  V30 5514 C 535.076 -0.867102 3.27516 0
M  V30 5515 C 533.635 -1.34642 3.51495 0
M  V30 5516 C 532.782 -0.32594 2.75378 0
M  V30 5517 H 535.733 0.285973 1.56102 0
M  V30 5518 H 535.754 -1.72938 3.38929 0
M  V30 5519 H 535.266 0.0278927 3.8809 0
M  V30 5520 H 533.367 -2.2603 2.96212 0
M  V30 5521 H 533.48 -1.33237 4.60201 0
M  V30 5522 H 531.844 -0.800749 2.41785 0
M  V30 5523 H 532.627 0.561125 3.38683 0
M  V30 5524 N 535.072 -1.5615 -0.213296 0
M  V30 5525 C 535.982 -1.96265 -1.28519 0
M  V30 5526 C 536.998 -0.86765 -1.50824 0
M  V30 5527 O 538.174 -1.17191 -1.63793 0
M  V30 5528 C 535.239 -2.27836 -2.61327 0
M  V30 5529 C 534.3 -3.50949 -2.47252 0
M  V30 5530 C 533.533 -3.81004 -3.73727 0
M  V30 5531 O 533.756 -3.12612 -4.77106 0
M  V30 5532 O 532.69 -4.74477 -3.70344 0
M  V30 5533 H 536.516 -2.87631 -0.974795 0
M  V30 5534 H 534.101 -1.43467 -0.416832 0
M  V30 5535 H 535.983 -2.49299 -3.39747 0
M  V30 5536 H 534.658 -1.39643 -2.9203 0
M  V30 5537 H 533.565 -3.34754 -1.67004 0
M  V30 5538 H 534.898 -4.39551 -2.21486 0
M  V30 5539 N 536.55 0.480323 -1.50102 0
M  V30 5540 C 537.796 1.23489 -1.60867 0
M  V30 5541 C 538.129 1.91809 -0.303827 0
M  V30 5542 O 537.404 1.81694 0.694092 0
M  V30 5543 C 537.687 2.28578 -2.78252 0
M  V30 5544 C 537.54 1.64624 -4.18592 0
M  V30 5545 C 538.859 3.2997 -2.91218 0
M  V30 5546 H 535.978 0.447605 -0.585507 0
M  V30 5547 H 538.62 0.530005 -1.82458 0
M  V30 5548 H 536.77 2.88697 -2.59974 0
M  V30 5549 H 538.442 1.08173 -4.48438 0
M  V30 5550 H 536.685 0.949645 -4.23278 0
M  V30 5551 H 537.356 2.40946 -4.96638 0
M  V30 5552 H 539.832 2.79864 -3.07921 0
M  V30 5553 H 538.708 4.00839 -3.74993 0
M  V30 5554 H 538.969 3.93541 -2.0144 0
M  V30 5555 N 538.028 1.39524 0.732853 0
M  V30 5556 C 538.975 1.38416 1.84688 0
M  V30 5557 C 539.945 0.243539 1.64305 0
M  V30 5558 O 541.13 0.438979 1.85681 0
M  V30 5559 C 538.27 1.23555 3.22224 0
M  V30 5560 C 537.383 2.47179 3.54298 0
M  V30 5561 C 536.518 2.2489 4.81246 0
M  V30 5562 C 535.557 3.44178 5.0617 0
M  V30 5563 N 534.694 3.21192 6.24323 0
M  V30 5564 H 539.534 2.33645 1.84971 0
M  V30 5565 H 537.071 1.16059 0.903804 0
M  V30 5566 H 539.029 1.12949 4.0162 0
M  V30 5567 H 537.659 0.31954 3.21215 0
M  V30 5568 H 536.711 2.68379 2.69587 0
M  V30 5569 H 538.023 3.36022 3.68633 0
M  V30 5570 H 537.177 2.11538 5.68627 0
M  V30 5571 H 535.916 1.33443 4.69089 0
M  V30 5572 H 534.921 3.58025 4.17251 0
M  V30 5573 H 536.146 4.36528 5.20212 0
M  V30 5574 H 534.092 2.32413 6.1345 0
M  V30 5575 H 534.009 4.03594 6.39256 0
M  V30 5576 H 535.277 3.1154 7.14537 0
M  V30 5577 N 539.506 -0.963266 1.24736 0
M  V30 5578 C 540.469 -2.04013 1.04457 0
M  V30 5579 C 541.469 -1.608 0.000335555 0
M  V30 5580 O 542.659 -1.72515 0.241719 0
M  V30 5581 C 539.791 -3.35858 0.584162 0
M  V30 5582 H 540.984 -2.23436 2.00041 0
M  V30 5583 H 538.537 -1.13914 1.07021 0
M  V30 5584 H 539.272 -3.22128 -0.374673 0
M  V30 5585 H 539.057 -3.68568 1.3379 0
M  V30 5586 H 540.547 -4.1502 0.463451 0
M  V30 5587 N 540.985 -1.06182 -1.16461 0
M  V30 5588 C 542.233 -0.776326 -1.86595 0
M  V30 5589 C 542.554 0.69921 -1.82033 0
M  V30 5590 O 541.824 1.50579 -1.2531 0
M  V30 5591 H 540.404 -0.284184 -0.690832 0
M  V30 5592 H 543.066 -1.34308 -1.41235 0
M  V30 5593 H 542.162 -1.10022 -2.92064 0
M  V30 5594 N 542.463 1.3308 -0.844243 0
M  V30 5595 C 543.74 1.92178 -0.364261 0
M  V30 5596 C 544.12 1.76961 1.15101 0
M  V30 5597 O 543.468 1.16128 1.9679 0
M  V30 5598 C 543.678 3.393 -0.817106 0
M  V30 5599 C 545.026 4.16444 -0.828236 0
M  V30 5600 O 546.05 3.47975 -0.761062 0
M  V30 5601 O 544.909 5.38685 -0.920926 0
M  V30 5602 H 542.003 0.820411 -0.10419 0
M  V30 5603 H 544.549 1.41918 -0.930453 0
M  V30 5604 H 543.321 3.44272 -1.85991 0
M  V30 5605 H 542.944 3.96947 -0.227785 0
M  V30 5606 N 543.941 0.601185 1.45683 0
M  V30 5607 C 545.171 0.0999093 2.06358 0
M  V30 5608 C 545.579 -1.21831 1.44754 0
M  V30 5609 O 544.922 -1.75157 0.553695 0
M  V30 5610 C 544.984 -0.12085 3.59297 0
M  V30 5611 C 544.648 1.11459 4.432 0
M  V30 5612 C 545.645 2.03118 4.7858 0
M  V30 5613 C 543.33 1.34162 4.84051 0
M  V30 5614 C 545.324 3.15814 5.53661 0
M  V30 5615 C 543.011 2.4716 5.58888 0
M  V30 5616 C 544.009 3.37814 5.93608 0
M  V30 5617 O 543.697 4.48846 6.66928 0
M  V30 5618 H 543.429 0.0630316 0.673055 0
M  V30 5619 H 545.983 0.826982 1.88016 0
M  V30 5620 H 544.213 -0.902744 3.76015 0
M  V30 5621 H 545.902 -0.572925 4.01836 0
M  V30 5622 H 546.668 1.86801 4.47583 0
M  V30 5623 H 542.547 0.645018 4.56465 0
M  V30 5624 H 546.091 3.86596 5.8068 0
M  V30 5625 H 541.988 2.63432 5.89299 0
M  V30 5626 H 542.756 4.47446 6.85371 0
M  V30 5627 N 545.419 -1.53889 0.339982 0
M  V30 5628 C 546.349 -2.27843 -0.510856 0
M  V30 5629 C 547.33 -1.29267 -1.10563 0
M  V30 5630 O 548.515 -1.58104 -1.12768 0
M  V30 5631 C 545.645 -3.04857 -1.66372 0
M  V30 5632 C 544.599 -4.10907 -1.19746 0
M  V30 5633 C 543.925 -4.75855 -2.43857 0
M  V30 5634 C 545.225 -5.21435 -0.300501 0
M  V30 5635 H 546.919 -2.99212 0.106067 0
M  V30 5636 H 544.465 -1.43904 0.0524533 0
M  V30 5637 H 546.418 -3.5533 -2.26537 0
M  V30 5638 H 545.142 -2.31133 -2.30749 0
M  V30 5639 H 543.801 -3.61342 -0.618654 0
M  V30 5640 H 543.449 -3.9873 -3.06633 0
M  V30 5641 H 543.149 -5.47502 -2.13343 0
M  V30 5642 H 544.673 -5.2911 -3.04754 0
M  V30 5643 H 546.087 -5.67565 -0.80889 0
M  V30 5644 H 544.484 -6.00036 -0.0874076 0
M  V30 5645 H 545.554 -4.80328 0.664321 0
M  V30 5646 N 546.897 -0.0685191 -1.57451 0
M  V30 5647 C 548.143 0.602239 -1.93652 0
M  V30 5648 C 548.476 1.6946 -0.948526 0
M  V30 5649 O 547.751 1.94487 0.022782 0
M  V30 5650 C 548.034 1.18223 -3.4014 0
M  V30 5651 C 547.887 0.0967431 -4.49696 0
M  V30 5652 C 549.206 2.08872 -3.87377 0
M  V30 5653 H 546.325 0.217453 -0.70419 0
M  V30 5654 H 548.967 -0.133821 -1.89528 0
M  V30 5655 H 547.117 1.80953 -3.43785 0
M  V30 5656 H 548.789 -0.536155 -4.58174 0
M  V30 5657 H 547.032 -0.573063 -4.29998 0
M  V30 5658 H 547.703 0.542894 -5.49324 0
M  V30 5659 H 550.179 1.56081 -3.85717 0
M  V30 5660 H 549.055 2.46389 -4.90493 0
M  V30 5661 H 549.316 2.99572 -3.25129 0
M  V30 5662 N 548.375 1.56261 0.205012 0
M  V30 5663 C 549.305 1.96779 1.257 0
M  V30 5664 C 550.286 0.838309 1.48008 0
M  V30 5665 O 551.471 1.10189 1.59913 0
M  V30 5666 C 548.601 2.29876 2.60335 0
M  V30 5667 C 547.555 3.45469 2.52656 0
M  V30 5668 C 546.881 3.64215 3.91473 0
M  V30 5669 C 548.181 4.79954 2.06014 0
M  V30 5670 H 549.875 2.84904 0.920338 0
M  V30 5671 H 547.421 1.37072 0.441277 0
M  V30 5672 H 549.374 2.56814 3.34102 0
M  V30 5673 H 548.098 1.38622 2.95722 0
M  V30 5674 H 546.757 3.18605 1.81345 0
M  V30 5675 H 546.405 2.70309 4.24196 0
M  V30 5676 H 546.105 4.41973 3.87213 0
M  V30 5677 H 547.629 3.93519 4.66878 0
M  V30 5678 H 549.043 5.05989 2.69533 0
M  V30 5679 H 547.44 5.61111 2.12777 0
M  V30 5680 H 548.51 4.74201 1.01297 0
M  V30 5681 N 549.853 -0.472356 1.50355 0
M  V30 5682 C 550.803 -1.56809 1.65514 0
M  V30 5683 C 551.787 -1.5261 0.509801 0
M  V30 5684 O 552.979 -1.59655 0.764145 0
M  V30 5685 C 550.108 -2.9526 1.75146 0
M  V30 5686 C 549.194 -3.04348 2.95353 0
M  V30 5687 N 549.585 -2.83253 4.19048 0
M  V30 5688 C 547.883 -3.35482 2.93884 0
M  V30 5689 C 548.584 -2.97273 5.00003 0
M  V30 5690 N 547.56 -3.27418 4.33934 0
M  V30 5691 H 551.362 -1.39197 2.58846 0
M  V30 5692 H 548.876 -0.67906 1.47521 0
M  V30 5693 H 550.873 -3.74044 1.8411 0
M  V30 5694 H 549.533 -3.1392 0.829717 0
M  V30 5695 H 550.544 -2.5886 4.48567 0
M  V30 5696 H 547.221 -3.60138 2.11204 0
M  V30 5697 H 548.611 -2.85214 6.08361 0
M  V30 5698 N 551.331 -1.39911 -0.725443 0
M  V30 5699 C 552.608 -1.28158 -1.47766 0
M  V30 5700 C 552.988 0.104545 -2.10841 0
M  V30 5701 O 552.336 1.11657 -1.99361 0
M  V30 5702 C 552.546 -2.41306 -2.52135 0
M  V30 5703 C 553.894 -2.81076 -3.18247 0
M  V30 5704 O 554.918 -2.40827 -2.62452 0
M  V30 5705 O 553.777 -3.50581 -4.19231 0
M  V30 5706 H 550.871 -0.502761 -0.656628 0
M  V30 5707 H 553.417 -1.51808 -0.758456 0
M  V30 5708 H 552.189 -3.33932 -2.03974 0
M  V30 5709 H 551.812 -2.19374 -3.31603 0
M  V30 5710 N 552.809 0.956637 -1.25245 0
M  V30 5711 C 554.037 1.73571 -1.12608 0
M  V30 5712 C 554.452 1.86063 0.320324 0
M  V30 5713 O 553.809 1.35691 1.22042 0
M  V30 5714 C 553.86 3.15053 -1.77268 0
M  V30 5715 O 553.581 3.03174 -3.16255 0
M  V30 5716 C 555.082 4.09248 -1.70386 0
M  V30 5717 H 552.302 0.543955 -0.392879 0
M  V30 5718 H 554.846 1.20031 -1.65568 0
M  V30 5719 H 553.001 3.65543 -1.28284 0
M  V30 5720 H 553.415 3.9241 -3.48015 0
M  V30 5721 H 554.889 5.06138 -2.20291 0
M  V30 5722 H 555.366 4.34102 -0.667239 0
M  V30 5723 H 555.972 3.64672 -2.18849 0
M  V30 5724 N 554.287 1.06798 1.15896 0
M  V30 5725 C 555.535 0.786211 1.8618 0
M  V30 5726 C 555.856 -0.689547 1.82401 0
M  V30 5727 O 555.126 -1.49913 1.26107 0
M  V30 5728 H 553.706 0.287843 0.689315 0
M  V30 5729 H 556.368 1.35055 1.40521 0
M  V30 5730 H 555.464 1.1157 2.91477 0
M  V30 5731 N 555.766 -1.3263 0.851289 0
M  V30 5732 C 556.729 -2.27247 0.298541 0
M  V30 5733 C 557.729 -1.51467 -0.539847 0
M  V30 5734 O 558.919 -1.7061 -0.351843 0
M  V30 5735 C 556.051 -3.35964 -0.578004 0
M  V30 5736 H 557.244 -2.7765 1.13359 0
M  V30 5737 H 554.797 -1.43245 0.625354 0
M  V30 5738 H 555.532 -2.90823 -1.435 0
M  V30 5739 H 555.317 -3.92094 0.0220539 0
M  V30 5740 H 556.807 -4.06472 -0.957626 0
M  V30 5741 N 557.244 -0.608902 -1.45362 0
M  V30 5742 C 558.474 -0.110852 -2.06302 0
M  V30 5743 C 558.882 1.21062 -1.45398 0
M  V30 5744 O 558.225 1.74861 -0.562976 0
M  V30 5745 C 558.287 0.101793 -3.59356 0
M  V30 5746 C 557.951 -1.13808 -4.42602 0
M  V30 5747 C 558.948 -2.05653 -4.77496 0
M  V30 5748 C 556.633 -1.36727 -4.83333 0
M  V30 5749 C 558.627 -3.18745 -5.51978 0
M  V30 5750 C 556.314 -2.5012 -5.57569 0
M  V30 5751 C 557.312 -3.40957 -5.91809 0
M  V30 5752 O 557 -4.52376 -6.64538 0
M  V30 5753 H 556.732 -0.0666001 -0.672711 0
M  V30 5754 H 559.286 -0.836942 -1.87575 0
M  V30 5755 H 557.516 0.88279 -3.76489 0
M  V30 5756 H 559.205 0.551607 -4.02134 0
M  V30 5757 H 559.971 -1.89172 -4.46586 0
M  V30 5758 H 555.85 -0.669216 -4.56117 0
M  V30 5759 H 559.394 -3.8967 -5.78622 0
M  V30 5760 H 555.291 -2.66553 -5.87894 0
M  V30 5761 H 556.059 -4.51075 -6.82989 0
M  V30 5762 N 558.722 1.53707 -0.348139 0
M  V30 5763 C 559.97 2.00591 0.246478 0
M  V30 5764 C 560.291 1.23753 1.50699 0
M  V30 5765 O 559.561 0.345964 1.92821 0
M  V30 5766 H 558.141 0.741053 0.0940679 0
M  V30 5767 H 560.803 1.89139 -0.470354 0
M  V30 5768 H 559.899 3.08297 0.485714 0
M  V30 5769 N 560.2 0.0768682 1.57412 0
M  V30 5770 C 561.163 -0.873949 2.11884 0
M  V30 5771 C 562.163 -1.22301 1.04398 0
M  V30 5772 O 563.353 -1.15545 1.30365 0
M  V30 5773 C 560.485 -2.17575 2.62438 0
M  V30 5774 H 561.678 -0.401278 2.97203 0
M  V30 5775 H 559.231 -0.171904 1.55352 0
M  V30 5776 H 559.966 -2.69368 1.80587 0
M  V30 5777 H 559.751 -1.93534 3.41009 0
M  V30 5778 H 561.241 -2.85631 3.04639 0
M  V30 5779 N 561.678 -1.56367 -0.196722 0
M  V30 5780 C 562.903 -1.84991 -0.937714 0
M  V30 5781 C 563.328 -0.660244 -1.76132 0
M  V30 5782 O 562.686 0.390967 -1.77034 0
M  V30 5783 C 562.734 -3.11828 -1.81096 0
M  V30 5784 O 561.838 -2.92266 -2.90955 0
M  V30 5785 H 561.179 -0.609193 -0.264159 0
M  V30 5786 H 563.709 -2.03595 -0.202529 0
M  V30 5787 H 563.719 -3.42579 -2.21594 0
M  V30 5788 H 562.394 -3.98037 -1.2058 0
M  V30 5789 H 560.971 -2.72809 -2.54224 0
M  V30 5790 N 563.156 0.464375 -1.50603 0
M  V30 5791 C 564.089 1.58052 -1.64605 0
M  V30 5792 C 565.067 1.54914 -0.494016 0
M  V30 5793 O 566.251 1.74438 -0.714393 0
M  V30 5794 C 563.378 2.96634 -1.63481 0
M  V30 5795 C 562.424 3.17901 -2.84325 0
M  V30 5796 S 563.257 2.97083 -4.45536 0
M  V30 5797 C 564.413 4.37994 -4.47115 0
M  V30 5798 H 564.646 1.45937 -2.59017 0
M  V30 5799 H 562.179 0.652189 -1.39949 0
M  V30 5800 H 564.137 3.76527 -1.63517 0
M  V30 5801 H 562.798 3.06134 -0.702928 0
M  V30 5802 H 561.991 4.19158 -2.79862 0
M  V30 5803 H 561.593 2.45792 -2.81891 0
M  V30 5804 H 563.885 5.30743 -4.21091 0
M  V30 5805 H 564.828 4.47499 -5.48772 0
M  V30 5806 H 565.236 4.20386 -3.76743 0
M  V30 5807 N 564.634 1.40294 0.718013 0
M  V30 5808 C 565.859 1.41941 1.5122 0
M  V30 5809 C 566.284 0.0202371 1.88089 0
M  V30 5810 O 565.642 -0.971078 1.53101 0
M  V30 5811 C 565.69 2.3141 2.76554 0
M  V30 5812 O 564.794 1.75567 3.73162 0
M  V30 5813 H 564.135 0.482644 0.456016 0
M  V30 5814 H 566.665 1.84494 0.884478 0
M  V30 5815 H 566.675 2.46513 3.25108 0
M  V30 5816 H 565.35 3.33085 2.49053 0
M  V30 5817 H 563.927 1.69798 3.31999 0
M  V30 5818 N 566.112 -0.949982 1.2575 0
M  V30 5819 C 567.337 -1.73503 1.13628 0
M  V30 5820 C 567.762 -1.85601 -0.30559 0
M  V30 5821 O 567.12 -1.33984 -1.22139 0
M  V30 5822 C 567.168 -3.1243 1.80055 0
M  V30 5823 O 566.272 -3.97916 1.08336 0
M  V30 5824 H 565.613 -0.532665 0.396439 0
M  V30 5825 H 568.143 -1.19043 1.66403 0
M  V30 5826 H 568.153 -3.62866 1.86527 0
M  V30 5827 H 566.828 -3.02941 2.84956 0
M  V30 5828 H 565.405 -3.56375 1.09777 0
M  V30 5829 N 567.59 -1.07411 -1.15328 0
M  V30 5830 C 568.538 -0.689316 -2.22151 0
M  V30 5831 C 569.532 0.300156 -1.6672 0
M  V30 5832 O 570.738 0.163804 -1.79253 0
M  V30 5833 H 567.113 -0.204834 -0.723566 0
M  V30 5834 H 569.084 -1.59988 -2.51886 0
M  V30 5835 C 567.833 -0.103848 -3.47545 0
M  V30 5836 H 567.156 -0.856367 -3.90521 0
M  V30 5837 H 568.596 0.127725 -4.23808 0
M  V30 5838 C 567.055 1.15563 -3.1646 0
M  V30 5839 O 567.585 2.242 -3.33312 0
M  V30 5840 N 565.791 1.06203 -2.70498 0
M  V30 5841 H 565.338 0.177933 -2.56985 0
M  V30 5842 H 565.296 1.90553 -2.50074 0
M  V30 5843 N 569.068 1.32177 -0.85831 0
M  V30 5844 C 570.298 2.01021 -0.476889 0
M  V30 5845 C 570.706 1.64653 0.931995 0
M  V30 5846 O 570.049 0.865713 1.62022 0
M  V30 5847 C 570.111 3.55413 -0.540528 0
M  V30 5848 C 569.775 4.1522 -1.90895 0
M  V30 5849 C 570.772 4.3318 -2.87491 0
M  V30 5850 C 568.457 4.51212 -2.20709 0
M  V30 5851 C 570.451 4.86306 -4.1205 0
M  V30 5852 C 568.138 5.04042 -3.45521 0
M  V30 5853 C 569.136 5.21538 -4.41007 0
M  V30 5854 O 568.824 5.73238 -5.63608 0
M  V30 5855 H 568.556 0.650059 -0.18547 0
M  V30 5856 H 571.11 1.69648 -1.15796 0
M  V30 5857 H 569.34 3.86196 0.19741 0
M  V30 5858 H 571.029 4.05526 -0.174191 0
M  V30 5859 H 571.795 4.05704 -2.65762 0
M  V30 5860 H 567.674 4.36878 -1.4717 0
M  V30 5861 H 571.218 4.99877 -4.86589 0
M  V30 5862 H 567.115 5.30952 -3.67098 0
M  V30 5863 H 567.883 5.91625 -5.65617 0
M  V30 5864 N 570.547 0.616602 1.45037 0
M  V30 5865 C 571.495 -0.109318 2.32343 0
M  V30 5866 C 572.489 -0.850543 1.465 0
M  V30 5867 O 573.695 -0.765088 1.62931 0
M  V30 5868 H 570.07 -0.0541091 0.750051 0
M  V30 5869 H 572.041 0.645326 2.91338 0
M  V30 5870 C 570.79 -1.0872 3.30266 0
M  V30 5871 H 570.113 -0.526267 3.96321 0
M  V30 5872 H 571.553 -1.56489 3.94065 0
M  V30 5873 C 570.012 -2.16525 2.58105 0
M  V30 5874 O 570.542 -3.244 2.36913 0
M  V30 5875 N 568.748 -1.92057 2.18088 0
M  V30 5876 H 568.295 -1.04337 2.35524 0
M  V30 5877 H 568.253 -2.64391 1.70131 0
M  V30 5878 N 572.025 -1.5352 0.356285 0
M  V30 5879 C 573.25 -2.06007 -0.239961 0
M  V30 5880 C 573.675 -1.22872 -1.42422 0
M  V30 5881 O 573.033 -0.245516 -1.7963 0
M  V30 5882 C 573.081 -3.5522 -0.620587 0
M  V30 5883 O 572.185 -3.74864 -1.71902 0
M  V30 5884 H 571.526 -0.662961 -0.0371377 0
M  V30 5885 H 574.056 -1.98033 0.514194 0
M  V30 5886 H 574.066 -3.98081 -0.894197 0
M  V30 5887 H 572.741 -4.15175 0.245407 0
M  V30 5888 H 571.318 -3.43904 -1.44169 0
M  V30 5889 N 573.503 -0.0852151 -1.57369 0
M  V30 5890 C 574.919 0.271436 -1.57275 0
M  V30 5891 C 575.119 1.69109 -1.09565 0
M  V30 5892 O 574.175 2.40549 -0.767611 0
M  V30 5893 C 575.488 0.0688638 -3.00621 0
M  V30 5894 C 577.036 0.137373 -3.12698 0
M  V30 5895 C 577.511 -0.0370832 -4.57985 0
M  V30 5896 N 579.002 0.0180794 -4.63196 0
M  V30 5897 C 579.737 -0.0922953 -5.73326 0
M  V30 5898 N 579.233 -0.256948 -6.92323 0
M  V30 5899 N 581.026 -0.0342702 -5.6209 0
M  V30 5900 H 573.177 -1.01288 -1.86693 0
M  V30 5901 H 575.44 -0.396138 -0.861266 0
M  V30 5902 H 575.146 -0.911277 -3.39689 0
M  V30 5903 H 575.02 0.815442 -3.6828 0
M  V30 5904 H 577.407 1.10801 -2.73509 0
M  V30 5905 H 577.488 -0.640532 -2.47651 0
M  V30 5906 H 577.132 -1.00455 -4.97867 0
M  V30 5907 H 577.062 0.760392 -5.21081 0
M  V30 5908 H 579.553 0.143202 -3.77629 0
M  V30 5909 H 579.866 -0.332949 -7.72082 0
M  V30 5910 H 578.211 -0.292487 -6.94384 0
M  V30 5911 H 581.402 0.0931605 -4.68007 0
M  V30 5912 H 581.575 -0.12374 -6.47882 0
M  V30 5913 N 574.981 1.5647 0.188427 0
M  V30 5914 C 576.392 1.70864 0.752494 0
M  V30 5915 C 576.743 0.692905 1.83557 0
M  V30 5916 O 575.868 -0.149307 2.15884 0
M  V30 5917 C 576.463 3.09789 1.37173 0
M  V30 5918 C 575.022 3.25925 1.88281 0
M  V30 5919 C 574.169 2.66817 0.755259 0
M  V30 5920 H 577.12 1.58657 -0.0367408 0
M  V30 5921 H 577.141 3.07489 2.24122 0
M  V30 5922 H 576.653 3.83693 0.583219 0
M  V30 5923 H 574.754 2.56948 2.6983 0
M  V30 5924 H 574.867 4.33498 2.04001 0
M  V30 5925 H 573.231 2.2617 1.17128 0
M  V30 5926 H 574.014 3.43294 -0.0211237 0
M  V30 5927 N 576.459 -0.456382 1.50847 0
M  V30 5928 C 577.389 -1.56025 1.73719 0
M  V30 5929 C 578.37 -1.5967 0.586473 0
M  V30 5930 O 579.555 -1.75702 0.827185 0
M  V30 5931 C 576.685 -2.94251 1.84483 0
M  V30 5932 C 575.639 -3.05471 2.99786 0
M  V30 5933 C 574.965 -4.45489 2.95709 0
M  V30 5934 C 576.265 -2.81318 4.40065 0
M  V30 5935 H 577.959 -1.37138 2.66146 0
M  V30 5936 H 575.505 -0.658299 1.28072 0
M  V30 5937 H 577.458 -3.71417 1.99067 0
M  V30 5938 H 576.182 -3.14328 0.886891 0
M  V30 5939 H 574.841 -2.30741 2.84876 0
M  V30 5940 H 574.489 -4.62505 1.97732 0
M  V30 5941 H 574.189 -4.53929 3.73125 0
M  V30 5942 H 575.713 -5.24655 3.12362 0
M  V30 5943 H 577.127 -3.48226 4.55425 0
M  V30 5944 H 575.524 -3.01188 5.19043 0
M  V30 5945 H 576.594 -1.7706 4.51418 0
M  V30 5946 N 577.937 -1.40673 -0.710563 0
M  V30 5947 C 578.867 -1.44095 -1.83736 0
M  V30 5948 C 579.848 -0.301286 -1.67411 0
M  V30 5949 O 581.033 -0.510618 -1.87367 0
M  V30 5950 C 578.163 -1.30773 -3.21738 0
M  V30 5951 C 577.117 -2.42395 -3.52745 0
M  V30 5952 C 576.443 -2.14147 -4.89944 0
M  V30 5953 C 577.743 -3.84738 -3.53234 0
M  V30 5954 H 579.437 -2.38396 -1.81129 0
M  V30 5955 H 576.983 -1.14746 -0.870017 0
M  V30 5956 H 578.936 -1.31783 -4.00264 0
M  V30 5957 H 577.66 -0.329507 -3.24934 0
M  V30 5958 H 576.319 -2.40643 -2.76562 0
M  V30 5959 H 575.967 -1.14703 -4.89747 0
M  V30 5960 H 575.667 -2.88934 -5.11655 0
M  V30 5961 H 577.191 -2.16848 -5.70797 0
M  V30 5962 H 578.605 -3.88286 -4.2179 0
M  V30 5963 H 577.002 -4.59085 -3.86473 0
M  V30 5964 H 578.072 -4.13962 -2.52514 0
M  V30 5965 N 579.415 0.9433 -1.26252 0
M  V30 5966 C 580.826 1.50404 -1.10614 0
M  V30 5967 C 581.177 1.93666 0.31429 0
M  V30 5968 O 580.302 1.79709 1.20555 0
M  V30 5969 C 580.897 2.73336 -2.00182 0
M  V30 5970 C 579.456 3.25686 -1.88695 0
M  V30 5971 C 578.603 1.98474 -1.93658 0
M  V30 5972 H 581.554 0.759006 -1.39373 0
M  V30 5973 H 581.575 3.47567 -1.54847 0
M  V30 5974 H 581.087 2.41818 -3.03555 0
M  V30 5975 H 579.188 3.61998 -0.882489 0
M  V30 5976 H 579.301 3.92935 -2.74115 0
M  V30 5977 H 577.665 2.14278 -1.37684 0
M  V30 5978 H 578.448 1.6929 -2.98657 0
M  V30 5979 N 580.893 1.08022 1.14757 0
M  V30 5980 C 581.803 0.718292 2.23333 0
M  V30 5981 C 582.819 -0.273477 1.71837 0
M  V30 5982 O 583.995 -0.118406 2.01052 0
M  V30 5983 C 581.06 0.128855 3.4646 0
M  V30 5984 C 580.121 1.17473 4.12915 0
M  V30 5985 C 579.354 0.61333 5.30164 0
M  V30 5986 O 579.577 -0.568458 5.6756 0
M  V30 5987 O 578.511 1.3615 5.86299 0
M  V30 5988 H 582.337 1.62394 2.56636 0
M  V30 5989 H 579.922 0.853628 1.22611 0
M  V30 5990 H 581.804 -0.197249 4.20938 0
M  V30 5991 H 580.479 -0.750014 3.14891 0
M  V30 5992 H 579.386 1.5533 3.40328 0
M  V30 5993 H 580.719 2.02574 4.48581 0
M  V30 5994 N 582.371 -1.3172 0.865308 0
M  V30 5995 C 583.617 -1.97168 0.474633 0
M  V30 5996 C 583.95 -1.68263 -0.969604 0
M  V30 5997 O 583.225 -0.976588 -1.68205 0
M  V30 5998 C 583.508 -3.52689 0.726808 0
M  V30 5999 C 583.361 -3.91185 2.22024 0
M  V30 6000 C 584.68 -4.39689 0.190201 0
M  V30 6001 H 581.799 -0.716185 0.17392 0
M  V30 6002 H 584.441 -1.55925 1.08569 0
M  V30 6003 H 582.591 -3.8795 0.206705 0
M  V30 6004 H 584.263 -3.66049 2.80724 0
M  V30 6005 H 582.506 -3.3996 2.69462 0
M  V30 6006 H 583.177 -4.99604 2.34735 0
M  V30 6007 H 585.653 -4.11225 0.635103 0
M  V30 6008 H 584.529 -5.47469 0.396132 0
M  V30 6009 H 584.79 -4.32683 -0.907625 0
M  V30 6010 N 583.85 -0.624285 -1.44708 0
M  V30 6011 C 584.779 0.0717025 -2.3339 0
M  V30 6012 C 585.76 0.841814 -1.47809 0
M  V30 6013 O 586.946 0.809056 -1.76544 0
M  V30 6014 C 584.076 1.05852 -3.30776 0
M  V30 6015 C 583.029 0.400503 -4.26122 0
M  V30 6016 C 582.356 1.49674 -5.13324 0
M  V30 6017 C 583.656 -0.688924 -5.17737 0
M  V30 6018 H 585.35 -0.668819 -2.91834 0
M  V30 6019 H 582.896 -0.32308 -1.40329 0
M  V30 6020 H 584.849 1.5541 -3.91696 0
M  V30 6021 H 583.572 1.82984 -2.70526 0
M  V30 6022 H 582.231 -0.0743687 -3.66525 0
M  V30 6023 H 581.88 2.25877 -4.49431 0
M  V30 6024 H 581.58 1.06188 -5.77926 0
M  V30 6025 H 583.104 1.99427 -5.77115 0
M  V30 6026 H 584.518 -0.276724 -5.72632 0
M  V30 6027 H 582.915 -1.04652 -5.90904 0
M  V30 6028 H 583.985 -1.55884 -4.5916 0
M  V30 6029 N 585.328 1.53329 -0.364422 0
M  V30 6030 C 586.575 2.01239 0.225634 0
M  V30 6031 C 586.903 1.25172 1.48869 0
M  V30 6032 O 586.158 0.333289 1.92841 0
M  V30 6033 C 586.457 3.52911 0.564661 0
M  V30 6034 C 586.123 4.46837 -0.603936 0
M  V30 6035 C 584.785 4.72234 -0.924585 0
M  V30 6036 C 587.137 5.02409 -1.38691 0
M  V30 6037 C 584.465 5.50454 -2.0302 0
M  V30 6038 C 586.817 5.81836 -2.48293 0
M  V30 6039 C 585.481 6.0552 -2.80894 0
M  V30 6040 H 584.751 0.736386 0.0825654 0
M  V30 6041 H 587.398 1.84948 -0.496645 0
M  V30 6042 H 585.703 3.67144 1.36794 0
M  V30 6043 H 587.4 3.87455 1.03344 0
M  V30 6044 H 583.99 4.27217 -0.343983 0
M  V30 6045 H 588.174 4.82735 -1.15243 0
M  V30 6046 H 583.43 5.67024 -2.28678 0
M  V30 6047 H 587.604 6.23905 -3.0938 0
M  V30 6048 H 585.231 6.65916 -3.66688 0
M  V30 6049 N 586.806 0.0935595 1.57322 0
M  V30 6050 C 588.083 -0.612692 1.85756 0
M  V30 6051 C 588.463 -1.86439 0.99013 0
M  V30 6052 O 587.811 -2.28416 0.0621362 0
M  V30 6053 C 588.021 -0.929547 3.36393 0
M  V30 6054 C 589.369 -1.29366 4.04413 0
M  V30 6055 O 590.393 -1.02061 3.41265 0
M  V30 6056 O 589.252 -1.80498 5.15832 0
M  V30 6057 H 586.346 -0.306444 0.768128 0
M  V30 6058 H 588.892 0.126141 1.69231 0
M  V30 6059 H 587.664 -0.0414766 3.91278 0
M  V30 6060 H 587.287 -1.72441 3.5826 0
M  V30 6061 N 588.284 -1.56567 -0.180126 0
M  V30 6062 C 589.232 -1.96632 -1.24251 0
M  V30 6063 C 590.226 -0.853818 -1.46309 0
M  V30 6064 O 591.432 -1.0389 -1.46993 0
M  V30 6065 H 587.807 -0.625476 -0.417473 0
M  V30 6066 H 589.778 -2.85201 -0.877679 0
M  V30 6067 C 588.527 -2.33486 -2.57642 0
M  V30 6068 H 587.85 -3.18626 -2.4149 0
M  V30 6069 H 589.29 -2.65371 -3.30688 0
M  V30 6070 C 587.749 -1.17499 -3.15746 0
M  V30 6071 O 588.279 -0.457956 -3.99081 0
M  V30 6072 N 586.485 -0.94786 -2.74707 0
M  V30 6073 H 586.032 -1.53269 -2.07042 0
M  V30 6074 H 585.99 -0.173626 -3.1392 0
M  V30 6075 N 589.762 0.448376 -1.51087 0
M  V30 6076 C 591.01 1.19635 -1.62886 0
M  V30 6077 C 591.331 1.91977 -0.342024 0
M  V30 6078 O 590.601 1.85094 0.641636 0
M  V30 6079 H 589.181 0.444598 -0.600285 0
M  V30 6080 H 591.843 0.515138 -1.87969 0
M  V30 6081 H 590.939 1.93194 -2.45117 0
M  V30 6082 N 591.24 1.41047 0.703093 0
M  V30 6083 C 592.172 1.38228 1.82827 0
M  V30 6084 C 593.185 0.285637 1.60275 0
M  V30 6085 O 594.374 0.54685 1.69917 0
M  V30 6086 C 591.474 1.13136 3.19458 0
M  V30 6087 C 590.647 2.34695 3.69103 0
M  V30 6088 C 589.706 2.05574 4.84382 0
M  V30 6089 O 588.732 2.78549 4.96386 0
M  V30 6090 N 589.934 1.04135 5.71083 0
M  V30 6091 H 592.699 2.35203 1.85741 0
M  V30 6092 H 590.26 1.35562 0.885125 0
M  V30 6093 H 592.252 0.916183 3.94193 0
M  V30 6094 H 590.822 0.247836 3.11616 0
M  V30 6095 H 590.042 2.71963 2.85359 0
M  V30 6096 H 591.33 3.15705 3.99009 0
M  V30 6097 H 590.728 0.43722 5.64008 0
M  V30 6098 H 589.285 0.886078 6.45749 0
M  V30 6099 N 592.718 -0.936591 1.26751 0
M  V30 6100 C 593.681 -2.01752 1.08761 0
M  V30 6101 C 594.681 -1.60763 0.0344435 0
M  V30 6102 O 595.871 -1.71963 0.278258 0
M  V30 6103 C 593.003 -3.34543 0.655271 0
M  V30 6104 H 594.196 -2.19143 2.04735 0
M  V30 6105 H 591.749 -1.11618 1.09413 0
M  V30 6106 H 592.484 -3.22851 -0.30626 0
M  V30 6107 H 592.269 -3.65647 1.41578 0
M  V30 6108 H 593.759 -4.13944 0.551378 0
M  V30 6109 N 594.196 -1.08629 -1.14182 0
M  V30 6110 C 595.612 -0.814363 -1.3726 0
M  V30 6111 C 595.812 0.575271 -1.93114 0
M  V30 6112 O 594.868 1.33165 -2.1453 0
M  V30 6113 C 596.181 -1.8989 -2.33157 0
M  V30 6114 C 597.729 -1.92518 -2.46791 0
M  V30 6115 C 598.204 -3.00092 -3.45989 0
M  V30 6116 N 599.695 -2.99279 -3.53534 0
M  V30 6117 C 600.43 -3.79158 -4.30147 0
M  V30 6118 N 599.926 -4.68923 -5.09983 0
M  V30 6119 N 601.719 -3.67451 -4.25366 0
M  V30 6120 H 593.87 -1.98232 -0.762758 0
M  V30 6121 H 596.133 -0.860383 -0.398051 0
M  V30 6122 H 595.839 -2.89809 -1.99257 0
M  V30 6123 H 595.713 -1.77013 -3.33086 0
M  V30 6124 H 598.1 -0.932425 -2.79982 0
M  V30 6125 H 598.181 -2.09473 -1.46816 0
M  V30 6126 H 597.825 -3.99575 -3.13532 0
M  V30 6127 H 597.755 -2.80382 -4.45751 0
M  V30 6128 H 600.246 -2.3422 -2.96563 0
M  V30 6129 H 600.559 -5.26475 -5.65724 0
M  V30 6130 H 598.904 -4.72964 -5.09244 0
M  V30 6131 H 602.095 -2.9669 -3.62067 0
M  V30 6132 H 602.268 -4.29944 -4.84822 0
M  V30 6133 N 595.674 1.31259 -0.872281 0
M  V30 6134 C 596.604 2.30929 -0.345554 0
M  V30 6135 C 597.585 1.60449 0.5648 0
M  V30 6136 O 598.77 1.8814 0.481335 0
M  V30 6137 C 595.9 3.44348 0.451823 0
M  V30 6138 C 594.854 4.26435 -0.365641 0
M  V30 6139 C 594.18 5.31785 0.557562 0
M  V30 6140 C 595.48 4.97159 -1.60095 0
M  V30 6141 H 597.174 2.75234 -1.17841 0
M  V30 6142 H 594.72 1.3232 -0.568094 0
M  V30 6143 H 596.673 4.13128 0.830854 0
M  V30 6144 H 595.397 2.98816 1.31821 0
M  V30 6145 H 594.056 3.59326 -0.726649 0
M  V30 6146 H 593.704 4.82502 1.4213 0
M  V30 6147 H 593.404 5.87598 0.0144878 0
M  V30 6148 H 594.928 6.03424 0.933387 0
M  V30 6149 H 596.342 5.58523 -1.29323 0
M  V30 6150 H 594.739 5.62779 -2.08327 0
M  V30 6151 H 595.809 4.24012 -2.35249 0
M  V30 6152 N 597.152 0.631951 1.44375 0
M  V30 6153 C 598.401 0.134214 2.01253 0
M  V30 6154 C 598.714 -1.25171 1.50305 0
M  V30 6155 O 599.92 -1.8435 1.99317 0
M  V30 6156 C 598.376 0.189187 3.59402 0
M  V30 6157 C 597.984 1.57647 4.19346 0
M  V30 6158 C 599.728 -0.252044 4.23751 0
M  V30 6159 C 597.635 1.58651 5.69722 0
M  V30 6160 H 596.565 0.0464101 0.75257 0
M  V30 6161 H 599.216 0.790868 1.65582 0
M  V30 6162 H 597.598 -0.534584 3.92375 0
M  V30 6163 H 598.772 2.32389 3.97909 0
M  V30 6164 H 597.087 1.96186 3.67288 0
M  V30 6165 H 599.684 -0.264084 5.34047 0
M  V30 6166 H 600.027 -1.27951 3.96149 0
M  V30 6167 H 600.56 0.41926 3.95584 0
M  V30 6168 H 597.299 2.59237 6.0206 0
M  V30 6169 H 596.819 0.882039 5.93279 0
M  V30 6170 H 598.498 1.32082 6.33375 0
M  V30 6171 N 598.631 -1.53133 0.372548 0
M  V30 6172 C 600.047 -1.59585 0.02178 0
M  V30 6173 C 600.247 -1.38736 -1.46132 0
M  V30 6174 O 599.303 -1.19599 -2.22379 0
M  V30 6175 C 600.616 -2.9678 0.483959 0
M  V30 6176 C 602.164 -3.09909 0.438775 0
M  V30 6177 C 602.639 -4.49527 0.876876 0
M  V30 6178 N 604.13 -4.55663 0.832214 0
M  V30 6179 C 604.865 -5.61896 1.14281 0
M  V30 6180 N 604.361 -6.75852 1.52303 0
M  V30 6181 N 606.154 -5.51916 1.06515 0
M  V30 6182 H 598.305 -1.64936 1.33827 0
M  V30 6183 H 600.568 -0.773947 0.547458 0
M  V30 6184 H 600.274 -3.17198 1.51915 0
M  V30 6185 H 600.148 -3.7699 -0.125784 0
M  V30 6186 H 602.535 -2.89197 -0.587294 0
M  V30 6187 H 602.616 -2.31691 1.0841 0
M  V30 6188 H 602.26 -4.70979 1.90109 0
M  V30 6189 H 602.19 -5.26186 0.208727 0
M  V30 6190 H 604.681 -3.73844 0.552195 0
M  V30 6191 H 604.994 -7.52862 1.7441 0
M  V30 6192 H 603.339 -6.77226 1.56175 0
M  V30 6193 H 606.53 -4.6177 0.767235 0
M  V30 6194 H 606.703 -6.34609 1.31053 0
M  V30 6195 N 600.109 -0.101901 -1.5727 0
M  V30 6196 C 601.525 0.254739 -1.57554 0
M  V30 6197 C 601.725 1.67937 -1.11352 0
M  V30 6198 O 600.781 2.39722 -0.793081 0
M  V30 6199 C 602.094 0.036975 -3.00677 0
M  V30 6200 C 603.642 0.104199 -3.12827 0
M  V30 6201 C 604.117 -0.0856565 -4.5792 0
M  V30 6202 N 605.608 -0.0310498 -4.6319 0
M  V30 6203 C 606.343 -0.153099 -5.73196 0
M  V30 6204 N 605.839 -0.330364 -6.92012 0
M  V30 6205 N 607.632 -0.0938854 -5.62022 0
M  V30 6206 H 599.783 -1.03263 -1.85609 0
M  V30 6207 H 602.046 -0.405251 -0.857016 0
M  V30 6208 H 601.752 -0.947254 -3.38703 0
M  V30 6209 H 601.626 0.776335 -3.69124 0
M  V30 6210 H 604.013 1.07894 -2.74669 0
M  V30 6211 H 604.094 -0.666762 -2.46957 0
M  V30 6212 H 603.738 -1.05729 -4.96773 0
M  V30 6213 H 603.668 0.705082 -5.21858 0
M  V30 6214 H 606.159 0.103141 -3.77759 0
M  V30 6215 H 606.472 -0.41482 -7.71686 0
M  V30 6216 H 604.817 -0.366119 -6.94035 0
M  V30 6217 H 608.008 0.0435168 -4.6808 0
M  V30 6218 H 608.181 -0.19245 -6.47714 0
M  V30 6219 N 601.587 1.56661 0.17182 0
M  V30 6220 C 603.003 1.50768 0.52357 0
M  V30 6221 C 603.203 0.806072 1.84675 0
M  V30 6222 O 602.259 0.366233 2.4983 0
M  V30 6223 C 603.572 2.955 0.556793 0
M  V30 6224 C 605.12 3.06303 0.644029 0
M  V30 6225 C 605.595 4.52492 0.708148 0
M  V30 6226 N 607.086 4.56737 0.771051 0
M  V30 6227 C 607.821 5.67196 0.841229 0
M  V30 6228 N 607.317 6.87287 0.872272 0
M  V30 6229 N 609.11 5.55165 0.88021 0
M  V30 6230 H 601.261 2.00679 -0.695817 0
M  V30 6231 H 603.524 0.914219 -0.250814 0
M  V30 6232 H 603.23 3.49986 -0.346774 0
M  V30 6233 H 603.104 3.50119 1.40346 0
M  V30 6234 H 605.491 2.51851 1.53802 0
M  V30 6235 H 605.572 2.5477 -0.229297 0
M  V30 6236 H 605.216 5.07575 -0.181585 0
M  V30 6237 H 605.146 5.01781 1.59761 0
M  V30 6238 H 607.637 3.70274 0.755364 0
M  V30 6239 H 607.95 7.6722 0.92698 0
M  V30 6240 H 606.295 6.89898 0.840557 0
M  V30 6241 H 609.486 4.60263 0.852956 0
M  V30 6242 H 609.659 6.41271 0.931439 0
M  V30 6243 N 603.065 -0.440357 1.51323 0
M  V30 6244 C 603.997 -1.55254 1.68609 0
M  V30 6245 C 605.01 -1.52614 0.566812 0
M  V30 6246 O 606.199 -1.57445 0.841032 0
M  V30 6247 C 603.299 -2.94169 1.68279 0
M  V30 6248 C 602.472 -3.21346 2.96742 0
M  V30 6249 C 601.531 -4.3997 2.8864 0
M  V30 6250 O 600.557 -4.38771 3.62586 0
M  V30 6251 N 601.759 -5.43367 2.04285 0
M  V30 6252 H 604.524 -1.40831 2.6455 0
M  V30 6253 H 602.085 -0.629251 1.49171 0
M  V30 6254 H 604.077 -3.71543 1.60431 0
M  V30 6255 H 602.647 -3.02205 0.799441 0
M  V30 6256 H 601.867 -2.32299 3.18482 0
M  V30 6257 H 603.155 -3.3633 3.81785 0
M  V30 6258 H 602.553 -5.47176 1.43578 0
M  V30 6259 H 601.11 -6.19605 2.02318 0
M  V30 6260 N 604.543 -1.41418 -0.695603 0
M  V30 6261 C 605.771 -1.4413 -1.48439 0
M  V30 6262 C 606.186 -0.0465698 -1.88743 0
M  V30 6263 O 605.543 0.934117 -1.56782 0
M  V30 6264 C 605.594 -2.34998 -2.74696 0
M  V30 6265 O 605.315 -3.69043 -2.36091 0
M  V30 6266 C 606.816 -2.46513 -3.68438 0
M  V30 6267 H 604.036 -0.490905 -0.457442 0
M  V30 6268 H 606.58 -1.85702 -0.856454 0
M  V30 6269 H 604.735 -1.96735 -3.33728 0
M  V30 6270 H 605.149 -4.17505 -3.17474 0
M  V30 6271 H 606.623 -3.1426 -4.53811 0
M  V30 6272 H 607.1 -1.49638 -4.12922 0
M  V30 6273 H 607.706 -2.85412 -3.1531 0
M  V30 6274 N 606.021 0.929856 -1.27246 0
M  V30 6275 C 607.27 1.67182 -1.12842 0
M  V30 6276 C 607.583 1.9287 0.325666 0
M  V30 6277 O 608.789 2.64999 0.590572 0
M  V30 6278 C 607.245 3.01097 -1.97151 0
M  V30 6279 C 606.853 2.83115 -3.47203 0
M  V30 6280 C 608.597 3.78907 -1.91389 0
M  V30 6281 C 606.504 4.12573 -4.23719 0
M  V30 6282 H 605.434 0.627064 -0.418697 0
M  V30 6283 H 608.085 1.0332 -1.51649 0
M  V30 6284 H 606.467 3.66004 -1.51186 0
M  V30 6285 H 607.641 2.26989 -4.01015 0
M  V30 6286 H 605.956 2.18736 -3.54321 0
M  V30 6287 H 608.553 4.74837 -2.45834 0
M  V30 6288 H 608.896 4.0674 -0.887047 0
M  V30 6289 H 609.429 3.20794 -2.35237 0
M  V30 6290 H 606.168 3.8992 -5.26918 0
M  V30 6291 H 605.688 4.68371 -3.74685 0
M  V30 6292 H 607.367 4.8095 -4.32777 0
M  V30 6293 N 607.499 1.09233 1.13605 0
M  V30 6294 C 608.409 0.741939 2.22559 0
M  V30 6295 C 609.425 -0.255236 1.72118 0
M  V30 6296 O 610.601 -0.0970747 2.01166 0
M  V30 6297 C 607.666 0.165595 3.46304 0
M  V30 6298 C 606.727 1.21846 4.11645 0
M  V30 6299 C 605.96 0.669526 5.29484 0
M  V30 6300 O 606.183 -0.508228 5.68131 0
M  V30 6301 O 605.117 1.42361 5.84822 0
M  V30 6302 H 608.943 1.65107 2.54899 0
M  V30 6303 H 606.528 0.866584 1.21699 0
M  V30 6304 H 608.41 -0.152592 4.21124 0
M  V30 6305 H 607.085 -0.716573 3.15669 0
M  V30 6306 H 605.992 1.58931 3.38662 0
M  V30 6307 H 607.325 2.07321 4.46407 0
M  V30 6308 N 608.977 -1.30795 0.87923 0
M  V30 6309 C 609.887 -2.32041 0.345565 0
M  V30 6310 C 610.903 -1.65103 -0.549265 0
M  V30 6311 O 612.079 -1.9645 -0.443763 0
M  V30 6312 C 609.144 -3.43944 -0.436245 0
M  V30 6313 C 608.205 -4.26521 0.48765 0
M  V30 6314 C 607.438 -5.33081 -0.256943 0
M  V30 6315 O 607.661 -5.50762 -1.48381 0
M  V30 6316 O 606.595 -6.00635 0.389985 0
M  V30 6317 H 610.421 -2.79627 1.18501 0
M  V30 6318 H 608.006 -1.3486 0.642885 0
M  V30 6319 H 609.888 -4.12128 -0.879119 0
M  V30 6320 H 608.563 -2.98504 -1.25208 0
M  V30 6321 H 607.47 -3.61057 0.979216 0
M  V30 6322 H 608.803 -4.75551 1.26933 0
M  V30 6323 N 610.455 -0.639598 -1.44038 0
M  V30 6324 C 611.385 0.0469443 -2.33453 0
M  V30 6325 C 612.366 0.82609 -1.48694 0
M  V30 6326 O 613.551 0.790285 -1.77393 0
M  V30 6327 C 610.681 1.02338 -3.3188 0
M  V30 6328 C 609.635 0.355284 -4.26523 0
M  V30 6329 C 608.961 1.44221 -5.14883 0
M  V30 6330 C 610.261 -0.743798 -5.16977 0
M  V30 6331 H 611.955 -0.699735 -2.91108 0
M  V30 6332 H 609.501 -0.337946 -1.39978 0
M  V30 6333 H 611.454 1.51247 -3.93322 0
M  V30 6334 H 610.178 1.80105 -2.72451 0
M  V30 6335 H 608.837 -0.113239 -3.66425 0
M  V30 6336 H 608.485 2.21097 -4.51802 0
M  V30 6337 H 608.185 1.00052 -5.79019 0
M  V30 6338 H 609.709 1.93295 -5.79197 0
M  V30 6339 H 611.123 -0.337444 -5.72306 0
M  V30 6340 H 609.52 -1.10914 -5.89761 0
M  V30 6341 H 610.59 -1.60745 -4.57481 0
M  V30 6342 N 611.933 1.52934 -0.380664 0
M  V30 6343 C 612.863 2.29118 0.450268 0
M  V30 6344 C 613.844 1.32153 1.07096 0
M  V30 6345 O 615.029 1.61038 1.08537 0
M  V30 6346 C 612.159 3.09161 1.58231 0
M  V30 6347 C 611.113 4.13938 1.0881 0
M  V30 6348 C 610.439 4.82153 2.31155 0
M  V30 6349 C 611.739 5.22048 0.162146 0
M  V30 6350 H 613.433 2.98826 -0.185361 0
M  V30 6351 H 610.979 1.43715 -0.0905886 0
M  V30 6352 H 612.932 3.61211 2.17036 0
M  V30 6353 H 611.656 2.3717 2.2454 0
M  V30 6354 H 610.315 3.62855 0.522633 0
M  V30 6355 H 609.963 4.06719 2.95953 0
M  V30 6356 H 609.663 5.52966 1.98752 0
M  V30 6357 H 611.187 5.37004 2.90618 0
M  V30 6358 H 612.601 5.6951 0.658126 0
M  V30 6359 H 610.998 6.00057 -0.0717122 0
M  V30 6360 H 612.068 4.78398 -0.791438 0
M  V30 6361 N 613.412 0.11024 1.57214 0
M  V30 6362 C 614.375 -0.828808 2.1369 0
M  V30 6363 C 615.375 -1.20059 1.06969 0
M  V30 6364 O 616.565 -1.12754 1.32786 0
M  V30 6365 C 613.697 -2.11959 2.66994 0
M  V30 6366 H 614.89 -0.338146 2.97988 0
M  V30 6367 H 612.443 -0.138913 1.55681 0
M  V30 6368 H 613.178 -2.65476 1.8626 0
M  V30 6369 H 612.963 -1.86258 3.45037 0
M  V30 6370 H 614.453 -2.79105 3.10629 0
M  V30 6371 N 614.89 -1.56749 -0.16351 0
M  V30 6372 C 615.82 -2.00042 -1.20438 0
M  V30 6373 C 616.801 -0.877256 -1.45733 0
M  V30 6374 O 617.986 -1.1439 -1.56935 0
M  V30 6375 C 615.116 -2.36697 -2.54149 0
M  V30 6376 C 614.07 -3.52046 -2.43408 0
M  V30 6377 C 613.396 -3.74466 -3.81679 0
M  V30 6378 C 614.696 -4.85247 -1.93216 0
M  V30 6379 H 616.39 -2.87244 -0.844477 0
M  V30 6380 H 613.936 -1.38194 -0.40478 0
M  V30 6381 H 615.889 -2.65582 -3.27176 0
M  V30 6382 H 614.613 -1.46414 -2.91943 0
M  V30 6383 H 613.272 -3.23301 -1.72834 0
M  V30 6384 H 612.92 -2.81461 -4.1688 0
M  V30 6385 H 612.62 -4.52084 -3.75359 0
M  V30 6386 H 614.144 -4.0576 -4.5628 0
M  V30 6387 H 615.558 -5.12957 -2.56023 0
M  V30 6388 H 613.955 -5.66556 -1.97825 0
M  V30 6389 H 615.025 -4.7672 -0.88689 0
M  V30 6390 N 616.368 0.432326 -1.51554 0
M  V30 6391 C 617.278 1.55023 -1.76082 0
M  V30 6392 C 618.294 1.61593 -0.645265 0
M  V30 6393 O 619.47 1.78742 -0.928086 0
M  V30 6394 C 616.535 2.90964 -1.88523 0
M  V30 6395 C 615.596 2.9447 -3.12388 0
M  V30 6396 C 614.829 4.23926 -3.24225 0
M  V30 6397 O 615.052 5.16576 -2.4188 0
M  V30 6398 O 613.986 4.33818 -4.17235 0
M  V30 6399 H 617.812 1.37238 -2.70923 0
M  V30 6400 H 615.397 0.615845 -1.36117 0
M  V30 6401 H 617.279 3.71633 -1.98662 0
M  V30 6402 H 615.954 3.08865 -0.9687 0
M  V30 6403 H 614.861 2.12737 -3.07723 0
M  V30 6404 H 616.194 2.81514 -4.03746 0
M  V30 6405 N 617.846 1.41785 0.688094 0
M  V30 6406 C 618.776 1.47 1.8142 0
M  V30 6407 C 619.757 0.327881 1.6691 0
M  V30 6408 O 620.942 0.540362 1.86531 0
M  V30 6409 C 618.072 1.35876 3.19617 0
M  V30 6410 C 617.026 2.47976 3.48844 0
M  V30 6411 C 616.352 2.21915 4.86475 0
M  V30 6412 C 617.652 3.90309 3.47068 0
M  V30 6413 H 619.346 2.41247 1.77314 0
M  V30 6414 H 616.892 1.16116 0.851651 0
M  V30 6415 H 618.845 1.38134 3.98117 0
M  V30 6416 H 617.569 0.38116 3.24368 0
M  V30 6417 H 616.228 2.45013 2.72698 0
M  V30 6418 H 615.876 1.2248 4.8786 0
M  V30 6419 H 615.576 2.97037 5.06994 0
M  V30 6420 H 617.1 2.25901 5.67275 0
M  V30 6421 H 618.514 3.94947 4.1556 0
M  V30 6422 H 616.911 4.65175 3.7912 0
M  V30 6423 H 617.981 4.17927 2.45896 0
M  V30 6424 N 619.324 -0.923095 1.27737 0
M  V30 6425 C 620.254 -2.04124 1.13383 0
M  V30 6426 C 621.235 -1.70066 0.0340658 0
M  V30 6427 O 622.42 -1.93068 0.209383 0
M  V30 6428 C 619.55 -3.3831 0.785097 0
M  V30 6429 C 618.504 -3.86496 1.8386 0
M  V30 6430 C 617.83 -5.1754 1.34373 0
M  V30 6431 C 619.13 -4.09381 3.24353 0
M  V30 6432 H 620.824 -2.1639 2.06919 0
M  V30 6433 H 618.37 -1.03976 0.996243 0
M  V30 6434 H 620.323 -4.16016 0.671485 0
M  V30 6435 H 619.047 -3.2607 -0.185969 0
M  V30 6436 H 617.706 -3.10987 1.9412 0
M  V30 6437 H 617.354 -5.01696 0.361989 0
M  V30 6438 H 617.054 -5.50751 2.04811 0
M  V30 6439 H 618.578 -5.97811 1.24315 0
M  V30 6440 H 619.992 -4.77641 3.17067 0
M  V30 6441 H 618.389 -4.53906 3.92542 0
M  V30 6442 H 619.459 -3.14515 3.69064 0
M  V30 6443 O 620.841 -1.22056 -1.05757 0
M  V30 6444 H 621.532 -0.983935 -1.66848 0
M  V30 END ATOM
M  V30 BEGIN BOND
M  V30 END BOND
M  V30 END CTAB
M  END
$$$$
