drugbank_target|P55073 Thyroxine 5-deiodinase (DB09333)
 OpenBabel12092121123D

  0  0  0     0  0            999 V3000
M  V30 BEGIN CTAB
M  V30 COUNTS 4719 4778 0 0 0
M  V30 BEGIN ATOM
M  V30 1 H -0.908 1.98254 -0.117106 0
M  V30 2 N 0 1.576 0 0
M  V30 3 C 0.933 2.03868 1.02534 0
M  V30 4 C 1.911 0.928543 1.3348 0
M  V30 5 O 3.095 1.19667 1.45644 0
M  V30 6 C 0.222 2.43627 2.35294 0
M  V30 7 C -0.732 3.65373 2.2001 0
M  V30 8 S 0.101 5.13292 1.52614 0
M  V30 9 C 1.257 5.56322 2.86805 0
M  V30 10 H 1.49 2.90518 0.631377 0
M  V30 11 H -0.977 1.52953 0.210867 0
M  V30 12 H 0.981 2.67203 3.11629 0
M  V30 13 H -0.358 1.57376 2.7183 0
M  V30 14 H -1.165 3.90944 3.18086 0
M  V30 15 H -1.563 3.418 1.51819 0
M  V30 16 H 0.729 5.58782 3.83104 0
M  V30 17 H 1.672 6.56266 2.65933 0
M  V30 18 H 2.08 4.83886 2.90714 0
M  V30 19 N 1.4781 -0.272755 1.55222 0
M  V30 20 C 2.8891 -0.84378 1.66545 0
M  V30 21 C 3.2401 -1.87035 0.592641 0
M  V30 22 O 2.3651 -2.14761 -0.265818 0
M  V30 23 C 2.9601 -1.53723 3.01918 0
M  V30 24 C 1.5191 -2.05628 3.15268 0
M  V30 25 C 0.6661 -0.898424 2.62343 0
M  V30 26 H 3.6171 -0.0490998 1.58624 0
M  V30 27 H 3.6381 -2.40421 2.94921 0
M  V30 28 H 3.1501 -0.78983 3.79978 0
M  V30 29 H 1.2511 -2.83329 2.41983 0
M  V30 30 H 1.3641 -2.27142 4.21833 0
M  V30 31 H -0.2719 -1.29186 2.19506 0
M  V30 32 H 0.5111 -0.164528 3.42906 0
M  V30 33 N 2.9562 -1.48159 -0.537278 0
M  V30 34 C 4.3722 -1.34118 -0.865129 0
M  V30 35 C 4.5722 -0.346678 -1.98495 0
M  V30 36 O 3.6282 0.234715 -2.51407 0
M  V30 37 C 4.9412 -2.73963 -1.23954 0
M  V30 38 C 6.4892 -2.82397 -1.34984 0
M  V30 39 C 6.9642 -4.22928 -1.75772 0
M  V30 40 N 8.4552 -4.25566 -1.82887 0
M  V30 41 C 9.1902 -5.31235 -2.15817 0
M  V30 42 N 8.6862 -6.47189 -2.47222 0
M  V30 43 N 10.4792 -5.18624 -2.16761 0
M  V30 44 H 2.6302 -2.1144 0.201715 0
M  V30 45 H 4.8932 -0.947598 0.0275949 0
M  V30 46 H 4.5992 -3.48264 -0.490381 0
M  V30 47 H 4.4732 -3.0702 -2.19132 0
M  V30 48 H 6.8602 -2.08356 -2.08978 0
M  V30 49 H 6.9412 -2.5297 -0.379448 0
M  V30 50 H 6.5852 -4.97482 -1.02341 0
M  V30 51 H 6.5152 -4.49794 -2.73848 0
M  V30 52 H 9.0062 -3.41924 -1.60924 0
M  V30 53 H 9.3192 -7.23564 -2.71433 0
M  V30 54 H 7.6642 -6.50476 -2.44757 0
M  V30 55 H 10.8552 -4.27056 -1.91679 0
M  V30 56 H 11.0282 -6.01078 -2.42093 0
M  V30 57 N 4.4343 0.785586 -1.36625 0
M  V30 58 C 5.3663 1.90711 -1.2713 0
M  V30 59 C 6.3793 1.61688 -0.189986 0
M  V30 60 O 7.5683 1.72864 -0.445014 0
M  V30 61 C 4.6683 3.25611 -0.939713 0
M  V30 62 C 3.8413 3.82385 -2.12369 0
M  V30 63 C 2.9003 4.95732 -1.76456 0
M  V30 64 O 1.9263 5.12047 -2.48589 0
M  V30 65 N 3.1283 5.76258 -0.700492 0
M  V30 66 H 5.8933 1.99376 -2.23762 0
M  V30 67 H 3.4543 0.964041 -1.30069 0
M  V30 68 H 5.4463 3.98937 -0.680554 0
M  V30 69 H 4.0163 3.12538 -0.0624074 0
M  V30 70 H 3.2363 3.01001 -2.54543 0
M  V30 71 H 4.5243 4.17047 -2.9146 0
M  V30 72 H 3.9223 5.65609 -0.101624 0
M  V30 73 H 2.4793 6.4987 -0.501165 0
M  V30 74 N 5.9124 1.20967 1.01018 0
M  V30 75 C 6.8754 0.965918 2.07853 0
M  V30 76 C 7.8754 -0.0610545 1.60684 0
M  V30 77 O 9.0654 0.175681 1.73312 0
M  V30 78 C 6.1974 0.455513 3.37843 0
M  V30 79 H 7.3904 1.91365 2.3091 0
M  V30 80 H 4.9434 1.02594 1.17916 0
M  V30 81 H 5.6784 -0.497381 3.20463 0
M  V30 82 H 5.4634 1.19622 3.73407 0
M  V30 83 H 6.9534 0.304667 4.16487 0
M  V30 84 N 7.3905 -1.2043 1.01659 0
M  V30 85 C 8.6185 -1.93777 0.725132 0
M  V30 86 C 9.0335 -1.74772 -0.714166 0
M  V30 87 O 8.3905 -1.06169 -1.4844 0
M  V30 88 C 8.4415 -3.45876 1.05129 0
M  V30 89 O 8.1625 -3.6426 2.43406 0
M  V30 90 C 9.6635 -4.36368 0.780891 0
M  V30 91 H 6.8835 -0.615901 0.266284 0
M  V30 92 H 9.4275 -1.52922 1.35776 0
M  V30 93 H 7.5825 -3.8461 0.464065 0
M  V30 94 H 7.9965 -4.58246 2.55169 0
M  V30 95 H 9.4705 -5.41743 1.05918 0
M  V30 96 H 9.9475 -4.38275 -0.284937 0
M  V30 97 H 10.5535 -4.03296 1.35027 0
M  V30 98 N 8.8686 -0.792821 -1.36206 0
M  V30 99 C 10.0936 -0.377701 -2.03932 0
M  V30 100 C 10.5186 0.998947 -1.59382 0
M  V30 101 O 9.8766 1.64421 -0.763903 0
M  V30 102 C 9.9246 -0.453635 -3.57735 0
M  V30 103 O 9.0286 0.538151 -4.08874 0
M  V30 104 H 8.3696 -0.159855 -0.644471 0
M  V30 105 H 10.8996 -1.07488 -1.7409 0
M  V30 106 H 10.9096 -0.318464 -4.06755 0
M  V30 107 H 9.5846 -1.45784 -3.89512 0
M  V30 108 H 8.1616 0.364359 -3.71116 0
M  V30 109 N 10.3467 1.47872 -0.545128 0
M  V30 110 C 11.7627 1.5829 -0.204032 0
M  V30 111 C 11.9627 1.54529 1.29317 0
M  V30 112 O 11.0187 1.44232 2.07252 0
M  V30 113 C 12.3317 2.89304 -0.819987 0
M  V30 114 C 13.8797 3.02864 -0.790105 0
M  V30 115 C 14.3547 4.3656 -1.38491 0
M  V30 116 N 15.8457 4.43165 -1.34755 0
M  V30 117 C 16.5807 5.45153 -1.77753 0
M  V30 118 N 16.0767 6.54016 -2.2855 0
M  V30 119 N 17.8697 5.36125 -1.68897 0
M  V30 120 H 10.0207 1.4856 -1.51802 0
M  V30 121 H 12.2837 0.706305 -0.632327 0
M  V30 122 H 11.9897 2.97757 -1.87173 0
M  V30 123 H 11.8637 3.75957 -0.305915 0
M  V30 124 H 14.2507 2.94014 0.252913 0
M  V30 125 H 14.3317 2.17782 -1.34181 0
M  V30 126 H 13.9757 4.46164 -2.42693 0
M  V30 127 H 13.9057 5.20353 -0.808754 0
M  V30 128 H 16.3967 3.65083 -0.975855 0
M  V30 129 H 16.7097 7.27994 -2.59314 0
M  V30 130 H 15.0547 6.54938 -2.32553 0
M  V30 131 H 18.2457 4.49975 -1.28998 0
M  V30 132 H 18.4187 6.15472 -2.02726 0
M  V30 133 N 11.8248 0.280983 1.55075 0
M  V30 134 C 12.7548 -0.597469 2.25727 0
M  V30 135 C 13.7358 -1.15417 1.24952 0
M  V30 136 O 14.9208 -1.18722 1.53684 0
M  V30 137 C 12.0508 -1.7789 2.98283 0
M  V30 138 C 11.0048 -1.35347 4.06036 0
M  V30 139 C 10.3308 -2.61846 4.66198 0
M  V30 140 C 11.6308 -0.499354 5.19907 0
M  V30 141 H 13.3248 -0.00824265 2.99399 0
M  V30 142 H 10.8708 -0.0025244 1.44 0
M  V30 143 H 12.8238 -2.39937 3.46422 0
M  V30 144 H 11.5478 -2.39405 2.22155 0
M  V30 145 H 10.2068 -0.756156 3.58717 0
M  V30 146 H 9.8548 -3.21632 3.86732 0
M  V30 147 H 9.5548 -2.3409 5.38958 0
M  V30 148 H 11.0788 -3.24732 5.1709 0
M  V30 149 H 12.4928 -1.02498 5.64063 0
M  V30 150 H 10.8898 -0.316424 5.99265 0
M  V30 151 H 11.9598 0.480459 4.82514 0
M  V30 152 N 13.3029 -1.57598 0.00835791 0
M  V30 153 C 14.5489 -1.91211 -0.675732 0
M  V30 154 C 14.8819 -0.883139 -1.72958 0
M  V30 155 O 14.1569 0.097016 -1.94258 0
M  V30 156 C 14.4399 -3.35379 -1.31123 0
M  V30 157 C 14.2929 -4.48999 -0.268356 0
M  V30 158 C 15.6119 -3.7912 -2.23508 0
M  V30 159 H 12.7309 -0.695374 -0.244179 0
M  V30 160 H 15.3729 -1.89901 0.0613655 0
M  V30 161 H 13.5229 -3.36626 -1.93946 0
M  V30 162 H 15.1949 -4.59887 0.360844 0
M  V30 163 H 13.4379 -4.31873 0.408482 0
M  V30 164 H 14.1089 -5.46851 -0.752218 0
M  V30 165 H 16.5849 -3.79477 -1.70693 0
M  V30 166 H 15.4609 -4.80729 -2.64936 0
M  V30 167 H 15.7219 -3.13455 -3.11766 0
M  V30 168 N 14.781 0.264519 -1.55364 0
M  V30 169 C 16.027 0.99646 -1.76631 0
M  V30 170 C 16.36 1.85632 -0.570478 0
M  V30 171 O 15.635 1.89647 0.43175 0
M  V30 172 C 15.918 1.87187 -3.07625 0
M  V30 173 C 15.771 1.04138 -4.37579 0
M  V30 174 C 17.09 2.85749 -3.34717 0
M  V30 175 H 14.209 0.360841 -0.642622 0
M  V30 176 H 16.851 0.268218 -1.88097 0
M  V30 177 H 15.001 2.49279 -2.9798 0
M  V30 178 H 16.673 0.440517 -4.59192 0
M  V30 179 H 14.916 0.345115 -4.32425 0
M  V30 180 H 15.587 1.68729 -5.2558 0
M  V30 181 H 18.063 2.33793 -3.4421 0
M  V30 182 H 16.939 3.44136 -4.27623 0
M  V30 183 H 17.2 3.61311 -2.54768 0
M  V30 184 N 16.2591 1.48442 0.529413 0
M  V30 185 C 17.5071 1.56179 1.28267 0
M  V30 186 C 17.8281 0.237721 1.93546 0
M  V30 187 O 17.0981 -0.740779 1.81354 0
M  V30 188 H 15.6781 0.575367 0.476405 0
M  V30 189 H 18.3401 1.84909 0.61602 0
M  V30 190 H 17.4361 2.34312 2.06165 0
M  V30 191 N 17.7372 -0.778329 1.37039 0
M  V30 192 C 18.6472 -1.92253 1.34446 0
M  V30 193 C 19.6632 -1.72267 0.244991 0
M  V30 194 O 20.8392 -1.95615 0.479258 0
M  V30 195 C 17.9042 -3.27282 1.144 0
M  V30 196 C 16.9652 -3.59969 2.33925 0
M  V30 197 C 16.1982 -4.88555 2.14825 0
M  V30 198 O 16.4212 -5.59113 1.12912 0
M  V30 199 O 15.3552 -5.20153 3.02861 0
M  V30 200 H 19.1812 -1.97392 2.30803 0
M  V30 201 H 16.7662 -0.920154 1.17701 0
M  V30 202 H 18.6482 -4.08062 1.05182 0
M  V30 203 H 17.3232 -3.23011 0.211124 0
M  V30 204 H 16.2302 -2.7945 2.48714 0
M  V30 205 H 17.5632 -3.68976 3.25757 0
M  V30 206 N 19.2153 -1.21501 -1.00376 0
M  V30 207 C 20.4633 -1.03095 -1.73827 0
M  V30 208 C 20.7843 0.436341 -1.90055 0
M  V30 209 O 20.0543 1.31466 -1.45236 0
M  V30 210 H 18.6343 -0.378487 -0.644016 0
M  V30 211 H 21.2963 -1.52831 -1.20949 0
M  V30 212 H 20.3923 -1.49991 -2.73695 0
M  V30 213 N 20.6934 1.19889 -1.02296 0
M  V30 214 C 21.6034 2.26571 -0.608508 0
M  V30 215 C 22.6194 1.70299 0.356964 0
M  V30 216 O 23.7954 2.00235 0.216326 0
M  V30 217 C 20.8604 3.46677 0.0402814 0
M  V30 218 C 19.9214 4.18153 -0.97194 0
M  V30 219 C 19.1544 5.32525 -0.354016 0
M  V30 220 O 19.3774 5.64112 0.844604 0
M  V30 221 O 18.3114 5.92242 -1.07391 0
M  V30 222 H 22.1374 2.64251 -1.49684 0
M  V30 223 H 19.7224 1.26629 -0.792809 0
M  V30 224 H 21.6044 4.19475 0.402324 0
M  V30 225 H 20.2794 3.10858 0.902707 0
M  V30 226 H 19.1864 3.47499 -1.38546 0
M  V30 227 H 20.5194 4.57927 -1.80454 0
M  V30 228 N 22.1715 0.800033 1.35784 0
M  V30 229 C 23.4195 0.376597 1.9856 0
M  V30 230 C 23.7405 -1.05812 1.63795 0
M  V30 231 O 23.0105 -1.73103 0.917171 0
M  V30 232 H 21.5905 0.136261 0.734467 0
M  V30 233 H 24.2525 1.02442 1.65806 0
M  V30 234 H 23.3485 0.477002 3.08433 0
M  V30 235 N 23.6496 -1.47581 0.552962 0
M  V30 236 C 24.8746 -2.07378 0.0300593 0
M  V30 237 C 25.2996 -1.40355 -1.25229 0
M  V30 238 O 24.6576 -0.477099 -1.7491 0
M  V30 239 C 24.7056 -3.60274 -0.153231 0
M  V30 240 O 23.8096 -3.94041 -1.21678 0
M  V30 241 H 23.1506 -0.662158 0.0494182 0
M  V30 242 H 25.6806 -1.89662 0.767434 0
M  V30 243 H 25.6906 -4.0633 -0.368761 0
M  V30 244 H 24.3656 -4.08455 0.783397 0
M  V30 245 H 22.9426 -3.59735 -0.982079 0
M  V30 246 N 25.1277 -0.289203 -1.54924 0
M  V30 247 C 26.0597 0.625583 -2.20497 0
M  V30 248 C 27.0727 1.10667 -1.19402 0
M  V30 249 O 28.2617 1.02615 -1.46056 0
M  V30 250 C 25.3617 1.86702 -2.82835 0
M  V30 251 C 24.5347 1.5304 -4.09753 0
M  V30 252 C 23.5937 2.62576 -4.56005 0
M  V30 253 O 22.6197 2.28167 -5.21468 0
M  V30 254 N 23.8217 3.92901 -4.27328 0
M  V30 255 H 26.5867 0.0642801 -2.99631 0
M  V30 256 H 24.1477 -0.110896 -1.6152 0
M  V30 257 H 26.1397 2.59304 -3.10715 0
M  V30 258 H 24.7097 2.33702 -2.07611 0
M  V30 259 H 23.9297 0.637564 -3.8901 0
M  V30 260 H 25.2177 1.28072 -4.92418 0
M  V30 261 H 24.6157 4.23671 -3.74859 0
M  V30 262 H 23.1727 4.61837 -4.59946 0
M  V30 263 N 26.6058 1.57591 -0.0167156 0
M  V30 264 C 27.8538 1.90906 0.663285 0
M  V30 265 C 28.1748 0.892509 1.73376 0
M  V30 266 O 27.4448 -0.0677623 1.95783 0
M  V30 267 H 26.0248 0.704637 0.247983 0
M  V30 268 H 28.6868 1.94803 -0.0615909 0
M  V30 269 H 27.7828 2.9116 1.12393 0
M  V30 270 N 28.0839 -0.256276 1.55502 0
M  V30 271 C 29.0469 -1.30047 1.88734 0
M  V30 272 C 30.0469 -1.4154 0.763086 0
M  V30 273 O 31.2369 -1.40403 1.03115 0
M  V30 274 C 28.3689 -2.67953 2.10747 0
M  V30 275 H 29.5619 -1.01802 2.82093 0
M  V30 276 H 27.1149 -0.495134 1.4825 0
M  V30 277 H 27.8499 -3.01351 1.19825 0
M  V30 278 H 27.6349 -2.60993 2.92617 0
M  V30 279 H 29.1249 -3.43368 2.37673 0
M  V30 280 N 29.562 -1.4872 -0.521534 0
M  V30 281 C 30.787 -1.61101 -1.30618 0
M  V30 282 C 31.212 -0.274611 -1.86085 0
M  V30 283 O 30.57 0.754937 -1.64834 0
M  V30 284 C 30.618 -2.66709 -2.4269 0
M  V30 285 O 29.722 -2.24456 -3.45967 0
M  V30 286 H 29.063 -0.539921 -0.386499 0
M  V30 287 H 31.593 -1.94767 -0.626645 0
M  V30 288 H 31.603 -2.88245 -2.88754 0
M  V30 289 H 30.278 -3.63727 -2.01682 0
M  V30 290 H 28.855 -2.13168 -3.05964 0
M  V30 291 N 31.0401 0.771051 -1.3745 0
M  V30 292 C 32.2881 1.52661 -1.32435 0
M  V30 293 C 32.6091 1.9479 0.0905024 0
M  V30 294 O 31.8791 1.66348 1.03466 0
M  V30 295 H 30.4591 0.566218 -0.487244 0
M  V30 296 H 33.1211 0.917636 -1.71946 0
M  V30 297 H 32.2171 2.42568 -1.96385 0
M  V30 298 N 32.5182 1.22032 0.997298 0
M  V30 299 C 33.9292 1.0397 1.55071 0
M  V30 300 C 34.2802 -0.398192 1.92117 0
M  V30 301 O 33.4052 -1.28254 1.74298 0
M  V30 302 C 34.0002 1.88109 2.81781 0
M  V30 303 C 32.5592 1.74357 3.33581 0
M  V30 304 C 31.7062 1.84846 2.06706 0
M  V30 305 H 34.6572 1.35941 0.818883 0
M  V30 306 H 34.6782 1.39589 3.53971 0
M  V30 307 H 34.1902 2.92754 2.54787 0
M  V30 308 H 32.2912 0.72427 3.65493 0
M  V30 309 H 32.4042 2.56772 4.04481 0
M  V30 310 H 30.7682 1.28238 2.20062 0
M  V30 311 H 31.5512 2.91014 1.82114 0
M  V30 312 N 33.9963 -1.19345 1.0293 0
M  V30 313 C 34.9593 -2.20793 0.615069 0
M  V30 314 C 35.9593 -1.57553 -0.321533 0
M  V30 315 O 37.1493 -1.73862 -0.108483 0
M  V30 316 C 34.2813 -3.40754 -0.0999222 0
M  V30 317 H 35.4743 -2.58955 1.51269 0
M  V30 318 H 33.0273 -1.3303 0.820534 0
M  V30 319 H 33.7623 -3.0811 -1.01187 0
M  V30 320 H 33.5473 -3.87889 0.57309 0
M  V30 321 H 35.0373 -4.15898 -0.376645 0
M  V30 322 N 35.4744 -0.807222 -1.35358 0
M  V30 323 C 36.4374 -0.223665 -2.28106 0
M  V30 324 C 37.4374 0.589354 -1.4961 0
M  V30 325 O 38.6274 0.407745 -1.69361 0
M  V30 326 C 35.7594 0.688149 -3.33882 0
M  V30 327 H 36.9524 -1.04169 -2.81227 0
M  V30 328 H 34.5054 -0.577921 -1.45223 0
M  V30 329 H 35.2404 1.52984 -2.85948 0
M  V30 330 H 35.0254 0.10687 -3.91954 0
M  V30 331 H 36.5154 1.09075 -4.03104 0
M  V30 332 N 36.9525 1.47285 -0.560781 0
M  V30 333 C 38.1805 2.06855 -0.0430262 0
M  V30 334 C 38.5955 1.41291 1.25229 0
M  V30 335 O 37.9525 0.510648 1.7521 0
M  V30 336 C 38.0035 3.61178 0.152518 0
M  V30 337 O 37.7245 4.24285 -1.0915 0
M  V30 338 C 39.2255 4.37624 0.707145 0
M  V30 339 H 36.4455 0.669319 -0.0474652 0
M  V30 340 H 38.9895 1.89237 -0.77521 0
M  V30 341 H 37.1445 3.78298 0.834843 0
M  V30 342 H 37.5585 5.16868 -0.891482 0
M  V30 343 H 39.0325 5.46271 0.793244 0
M  V30 344 H 39.5095 4.04152 1.71923 0
M  V30 345 H 40.1155 4.25257 0.0604027 0
M  V30 346 N 38.4306 0.297415 1.54768 0
M  V30 347 C 39.3636 -0.622188 2.19554 0
M  V30 348 C 40.3416 -1.13558 1.16376 0
M  V30 349 O 41.5256 -1.20444 1.45002 0
M  V30 350 C 38.6526 -1.8509 2.83653 0
M  V30 351 C 37.6986 -1.47106 4.00328 0
M  V30 352 S 38.5316 -0.53006 5.3287 0
M  V30 353 C 39.6876 -1.76665 6.0045 0
M  V30 354 H 39.9206 -0.0717806 2.97213 0
M  V30 355 H 37.4536 0.0815678 1.54184 0
M  V30 356 H 39.4116 -2.55605 3.21211 0
M  V30 357 H 38.0726 -2.37247 2.05846 0
M  V30 358 H 37.2656 -2.38594 4.43947 0
M  V30 359 H 36.8676 -0.845885 3.64309 0
M  V30 360 H 39.1596 -2.7077 6.21039 0
M  V30 361 H 40.1026 -1.37308 6.9466 0
M  V30 362 H 40.5106 -1.94174 5.30054 0
M  V30 363 N 39.9087 -1.5758 0.0250728 0
M  V30 364 C 40.8387 -2.13007 -0.956575 0
M  V30 365 C 41.8197 -1.0452 -1.342 0
M  V30 366 O 43.0047 -1.32332 -1.42133 0
M  V30 367 C 40.1347 -2.65386 -2.24026 0
M  V30 368 C 39.0887 -3.78623 -1.99571 0
M  V30 369 C 38.4147 -4.17414 -3.3417 0
M  V30 370 C 39.7147 -5.04867 -1.33814 0
M  V30 371 H 41.4087 -2.9528 -0.494991 0
M  V30 372 H 38.9547 -1.42042 -0.236651 0
M  V30 373 H 40.9077 -3.02794 -2.93076 0
M  V30 374 H 39.6317 -1.80268 -2.72343 0
M  V30 375 H 38.2907 -3.41646 -1.32941 0
M  V30 376 H 37.9387 -3.29284 -3.80238 0
M  V30 377 H 37.6387 -4.93719 -3.18615 0
M  V30 378 H 39.1627 -4.57402 -4.04495 0
M  V30 379 H 40.5767 -5.39888 -1.92857 0
M  V30 380 H 38.9737 -5.86144 -1.28669 0
M  V30 381 H 40.0437 -4.83904 -0.310561 0
M  V30 382 N 41.3868 0.248026 -1.55636 0
M  V30 383 C 42.8028 0.596483 -1.48035 0
M  V30 384 C 43.0028 1.88386 -0.715039 0
M  V30 385 O 42.0588 2.51319 -0.243944 0
M  V30 386 C 43.3718 0.700258 -2.92433 0
M  V30 387 C 44.9198 0.792659 -3.02797 0
M  V30 388 C 45.3948 0.928005 -4.485 0
M  V30 389 N 46.8858 0.992903 -4.52433 0
M  V30 390 C 47.6208 1.11687 -5.62418 0
M  V30 391 N 47.1168 1.20645 -6.82214 0
M  V30 392 N 48.9098 1.14994 -5.50212 0
M  V30 393 H 41.0608 -0.597109 -2.03834 0
M  V30 394 H 43.3238 -0.205925 -0.925364 0
M  V30 395 H 43.0298 -0.175658 -3.51261 0
M  V30 396 H 42.9038 1.57255 -3.42857 0
M  V30 397 H 45.2908 1.65903 -2.4405 0
M  V30 398 H 45.3718 -0.104762 -2.55585 0
M  V30 399 H 45.0158 0.0661971 -5.07857 0
M  V30 400 H 44.9458 1.84045 -4.93391 0
M  V30 401 H 47.4368 0.935064 -3.66149 0
M  V30 402 H 47.7498 1.30008 -7.61786 0
M  V30 403 H 46.0948 1.17605 -6.84977 0
M  V30 404 H 49.2858 1.07643 -4.55555 0
M  V30 405 H 49.4588 1.24311 -6.35965 0
M  V30 406 N 42.8649 1.48995 0.513639 0
M  V30 407 C 44.0899 1.61792 1.29762 0
M  V30 408 C 44.5149 0.284475 1.85936 0
M  V30 409 O 43.8729 -0.746185 1.65232 0
M  V30 410 C 43.9209 2.67993 2.41272 0
M  V30 411 O 43.0249 2.26287 3.44772 0
M  V30 412 H 42.3659 0.541963 0.38363 0
M  V30 413 H 44.8959 1.95097 0.616307 0
M  V30 414 H 44.9059 2.89772 2.87221 0
M  V30 415 H 43.5809 3.64791 1.9975 0
M  V30 416 H 42.1579 2.14788 3.04829 0
M  V30 417 N 44.343 -0.763751 1.37857 0
M  V30 418 C 45.273 -1.89103 1.36975 0
M  V30 419 C 46.254 -1.68439 0.237152 0
M  V30 420 O 47.439 -1.8918 0.438713 0
M  V30 421 C 44.569 -3.26496 1.18395 0
M  V30 422 C 43.523 -3.61741 2.28751 0
M  V30 423 C 42.849 -4.97762 1.95286 0
M  V30 424 C 44.149 -3.67665 3.70972 0
M  V30 425 H 45.843 -1.90099 2.31307 0
M  V30 426 H 43.389 -0.91319 1.11341 0
M  V30 427 H 45.342 -4.05003 1.16406 0
M  V30 428 H 44.066 -3.25955 0.205215 0
M  V30 429 H 42.725 -2.85547 2.29909 0
M  V30 430 H 42.373 -4.93769 0.959221 0
M  V30 431 H 42.073 -5.22313 2.69189 0
M  V30 432 H 43.597 -5.7866 1.94898 0
M  V30 433 H 45.011 -4.36307 3.719 0
M  V30 434 H 43.408 -4.03718 4.43995 0
M  V30 435 H 44.478 -2.68134 4.0402 0
M  V30 436 N 45.8211 -1.22559 -0.990812 0
M  V30 437 C 46.7511 -1.0218 -2.09956 0
M  V30 438 C 47.7321 0.0579394 -1.70001 0
M  V30 439 O 48.9171 -0.104684 -1.93918 0
M  V30 440 C 46.0471 -0.601023 -3.4206 0
M  V30 441 C 45.0011 -1.62694 -3.95872 0
M  V30 442 C 44.3271 -1.06193 -5.24049 0
M  V30 443 C 45.6271 -3.01743 -4.2632 0
M  V30 444 H 47.3211 -1.94916 -2.27262 0
M  V30 445 H 44.8671 -0.938566 -1.09211 0
M  V30 446 H 46.8201 -0.445561 -4.19038 0
M  V30 447 H 45.5441 0.362005 -3.24588 0
M  V30 448 H 44.2031 -1.77021 -3.21028 0
M  V30 449 H 43.8511 -0.0901903 -5.02919 0
M  V30 450 H 43.5511 -1.74732 -5.61019 0
M  V30 451 H 45.0751 -0.918092 -6.03658 0
M  V30 452 H 46.4891 -2.90777 -4.94087 0
M  V30 453 H 44.8861 -3.67425 -4.74467 0
M  V30 454 H 45.9561 -3.51518 -3.34011 0
M  V30 455 N 47.2992 1.18797 -1.03562 0
M  V30 456 C 48.2292 2.24472 -0.643019 0
M  V30 457 C 49.2102 1.66433 0.351283 0
M  V30 458 O 50.3952 1.92803 0.232505 0
M  V30 459 C 47.5252 3.473 4.24935e-05 0
M  V30 460 C 46.4792 4.18055 -0.917257 0
M  V30 461 C 45.8052 5.34519 -0.138941 0
M  V30 462 C 47.1052 4.72109 -2.23407 0
M  V30 463 H 48.7992 2.57566 -1.52643 0
M  V30 464 H 46.3452 1.23806 -0.735394 0
M  V30 465 H 48.2982 4.20426 0.286383 0
M  V30 466 H 47.0222 3.13424 0.918299 0
M  V30 467 H 45.6812 3.46821 -1.1879 0
M  V30 468 H 45.3292 4.96891 0.781562 0
M  V30 469 H 45.0292 5.82794 -0.750005 0
M  V30 470 H 46.5532 6.10438 0.1405 0
M  V30 471 H 47.9672 5.36955 -2.00879 0
M  V30 472 H 46.3642 5.30897 -2.79765 0
M  V30 473 H 47.4342 3.89807 -2.88407 0
M  V30 474 N 48.7773 0.814389 1.34928 0
M  V30 475 C 49.7273 0.202752 2.27097 0
M  V30 476 C 50.7113 -0.62799 1.48139 0
M  V30 477 O 51.9033 -0.483969 1.70255 0
M  V30 478 C 49.0323 -0.64146 3.37254 0
M  V30 479 C 48.1183 0.19944 4.23631 0
M  V30 480 N 48.5093 1.26628 4.89693 0
M  V30 481 C 46.8073 -0.0176433 4.45997 0
M  V30 482 C 47.5083 1.78031 5.53787 0
M  V30 483 N 46.4843 1.08553 5.32651 0
M  V30 484 H 50.2863 1.01893 2.75672 0
M  V30 485 H 47.8003 0.656332 1.48546 0
M  V30 486 H 49.7973 -1.09575 4.02243 0
M  V30 487 H 48.4573 -1.4559 2.9023 0
M  V30 488 H 49.4683 1.64901 4.90946 0
M  V30 489 H 46.1453 -0.800601 4.09752 0
M  V30 490 H 47.5353 2.67236 6.16469 0
M  V30 491 N 50.2554 -1.46986 0.568584 0
M  V30 492 C 51.4804 -2.07335 0.0520528 0
M  V30 493 C 51.9054 -1.41675 -1.23733 0
M  V30 494 O 51.2634 -0.495623 -1.74394 0
M  V30 495 C 51.3114 -3.60417 -0.11501 0
M  V30 496 O 50.4154 -3.95309 -1.17492 0
M  V30 497 H 49.7564 -0.661597 0.0564385 0
M  V30 498 H 52.2864 -1.88837 0.787507 0
M  V30 499 H 52.2964 -4.06698 -0.325644 0
M  V30 500 H 50.9714 -4.07601 0.826675 0
M  V30 501 H 49.5484 -3.60757 -0.943869 0
M  V30 502 N 51.7335 -0.305618 -1.54608 0
M  V30 503 C 52.6635 0.561482 -2.26649 0
M  V30 504 C 53.6445 1.13415 -1.26772 0
M  V30 505 O 54.8295 1.16262 -1.55553 0
M  V30 506 C 51.9595 1.73122 -3.01075 0
M  V30 507 C 50.9135 1.2887 -4.08138 0
M  V30 508 C 50.2395 2.54396 -4.70305 0
M  V30 509 C 51.5395 0.416578 -5.20636 0
M  V30 510 H 53.2335 -0.0393902 -2.99374 0
M  V30 511 H 50.7795 -0.020385 -1.43986 0
M  V30 512 H 52.7325 2.34396 -3.50195 0
M  V30 513 H 51.4565 2.3584 -2.25936 0
M  V30 514 H 50.1155 0.698991 -3.59875 0
M  V30 515 H 49.7635 3.15439 -3.918 0
M  V30 516 H 49.4635 2.25486 -5.42614 0
M  V30 517 H 50.9875 3.16464 -5.2219 0
M  V30 518 H 52.4015 0.935116 -5.65622 0
M  V30 519 H 50.7985 0.221046 -5.99693 0
M  V30 520 H 51.8685 -0.557162 -4.81688 0
M  V30 521 N 53.2116 1.57565 -0.0334293 0
M  V30 522 C 54.6276 1.56297 0.322997 0
M  V30 523 C 54.8276 1.03945 1.7262 0
M  V30 524 O 53.8836 0.688109 2.42943 0
M  V30 525 C 55.1966 3.00232 0.167664 0
M  V30 526 C 56.7446 3.12078 0.240107 0
M  V30 527 C 57.2196 4.57859 0.113513 0
M  V30 528 N 58.7106 4.62887 0.170359 0
M  V30 529 C 59.4456 5.73319 0.0962517 0
M  V30 530 N 58.9416 6.92794 -0.0291881 0
M  V30 531 N 60.7346 5.61898 0.150551 0
M  V30 532 H 52.8856 1.89923 -0.950956 0
M  V30 533 H 55.1486 0.873824 -0.367608 0
M  V30 534 H 54.8546 3.42501 -0.799102 0
M  V30 535 H 54.7286 3.654 0.936083 0
M  V30 536 H 57.1156 2.69718 1.19733 0
M  V30 537 H 57.1966 2.49623 -0.558763 0
M  V30 538 H 56.8406 5.009 -0.840314 0
M  V30 539 H 56.7706 5.18299 0.931302 0
M  V30 540 H 59.2616 3.76954 0.26728 0
M  V30 541 H 59.5746 7.7276 -0.0789252 0
M  V30 542 H 57.9196 6.94971 -0.0640299 0
M  V30 543 H 61.1106 4.67448 0.246981 0
M  V30 544 H 61.2836 6.47938 0.0893365 0
M  V30 545 N 54.6897 -0.239769 1.55765 0
M  V30 546 C 55.6197 -1.30052 1.9393 0
M  V30 547 C 56.6007 -1.49839 0.805132 0
M  V30 548 O 57.7857 -1.62328 1.06599 0
M  V30 549 C 54.9157 -2.65391 2.2402 0
M  V30 550 C 53.8697 -2.60289 3.39755 0
M  V30 551 C 53.1957 -3.99489 3.55405 0
M  V30 552 C 54.4957 -2.16654 4.75246 0
M  V30 553 H 56.1897 -0.983573 2.82783 0
M  V30 554 H 53.7357 -0.471701 1.36055 0
M  V30 555 H 55.6887 -3.3974 2.49308 0
M  V30 556 H 54.4127 -2.98736 1.32 0
M  V30 557 H 53.0717 -1.88398 3.14487 0
M  V30 558 H 52.7197 -4.30112 2.60793 0
M  V30 559 H 52.4197 -3.96962 4.33238 0
M  V30 560 H 53.9437 -4.75528 3.83022 0
M  V30 561 H 55.3577 -2.80737 4.99859 0
M  V30 562 H 53.7547 -2.25223 5.56232 0
M  V30 563 H 54.8247 -1.11835 4.71827 0
M  V30 564 N 56.1678 -1.49265 -0.50573 0
M  V30 565 C 57.4078 -1.60128 -1.27038 0
M  V30 566 C 57.7718 -0.279557 -1.89954 0
M  V30 567 O 58.9728 -0.263329 -2.67507 0
M  V30 568 C 57.2438 -2.72507 -2.31246 0
M  V30 569 S 58.8028 -3.0329 -3.17113 0
M  V30 570 H 55.6208 -0.564863 -0.4318 0
M  V30 571 H 58.2228 -1.86902 -0.573397 0
M  V30 572 H 56.9268 -3.67068 -1.83546 0
M  V30 573 H 56.4578 -2.4771 -3.05619 0
M  V30 574 H 58.4728 -2.44448 -4.31809 0
M  V30 575 N 57.6459 0.756429 -1.3826 0
M  V30 576 C 58.6089 1.85176 -1.35065 0
M  V30 577 C 59.6089 1.58818 -0.251703 0
M  V30 578 O 60.7989 1.66615 -0.508433 0
M  V30 579 C 57.9309 3.22596 -1.10201 0
M  V30 580 H 59.1239 1.89417 -2.3251 0
M  V30 581 H 56.6769 0.95783 -1.23512 0
M  V30 582 H 57.4119 3.24025 -0.133504 0
M  V30 583 H 57.1969 3.43122 -1.89762 0
M  V30 584 H 58.6869 4.02673 -1.10654 0
M  V30 585 N 59.124 1.23083 0.984299 0
M  V30 586 C 60.056 0.96636 2.07832 0
M  V30 587 C 61.069 -0.0582135 1.62696 0
M  V30 588 O 62.258 0.176843 1.77622 0
M  V30 589 C 59.358 0.433397 3.36117 0
M  V30 590 C 58.531 1.51722 4.10243 0
M  V30 591 C 57.59 0.989821 5.16807 0
M  V30 592 O 56.616 1.67794 5.43906 0
M  V30 593 N 57.818 -0.184367 5.80207 0
M  V30 594 H 60.583 1.90824 2.31098 0
M  V30 595 H 58.144 1.13888 1.1507 0
M  V30 596 H 60.136 0.065699 4.04647 0
M  V30 597 H 58.706 -0.413806 3.09849 0
M  V30 598 H 57.926 2.05786 3.36223 0
M  V30 599 H 59.214 2.24619 4.56534 0
M  V30 600 H 58.612 -0.760062 5.60571 0
M  V30 601 H 57.169 -0.493366 6.4993 0
M  V30 602 N 60.6021 -1.18246 1.0419 0
M  V30 603 C 61.8301 -1.92195 0.766072 0
M  V30 604 C 62.2451 -1.76247 -0.676933 0
M  V30 605 O 61.6021 -1.09293 -1.46155 0
M  V30 606 C 61.6531 -3.43568 1.12442 0
M  V30 607 O 61.3741 -3.59015 2.51078 0
M  V30 608 C 62.8751 -4.34613 0.873275 0
M  V30 609 H 60.0951 -0.610114 0.279288 0
M  V30 610 H 62.6391 -1.50007 1.38989 0
M  V30 611 H 60.7941 -3.8354 0.545542 0
M  V30 612 H 61.2081 -4.5273 2.64831 0
M  V30 613 H 62.6821 -5.39374 1.17385 0
M  V30 614 H 63.1591 -4.38781 -0.191909 0
M  V30 615 H 63.7651 -4.00341 1.43551 0
M  V30 616 N 62.0802 -0.821533 -1.34494 0
M  V30 617 C 63.0432 -0.247847 -2.27856 0
M  V30 618 C 64.0432 0.573453 -1.50227 0
M  V30 619 O 65.2332 0.389759 -1.69784 0
M  V30 620 C 62.3652 0.652698 -3.34593 0
M  V30 621 H 63.5582 -1.07146 -2.80107 0
M  V30 622 H 61.1112 -0.593291 -1.44602 0
M  V30 623 H 61.8462 1.49943 -2.87555 0
M  V30 624 H 61.6312 0.065292 -3.92046 0
M  V30 625 H 63.1212 1.04793 -4.04238 0
M  V30 626 N 63.5583 1.46682 -0.576371 0
M  V30 627 C 64.7833 2.07304 -0.0630475 0
M  V30 628 C 65.2083 1.42329 1.2298 0
M  V30 629 O 64.5663 0.504865 1.74129 0
M  V30 630 C 64.6143 3.60472 0.095895 0
M  V30 631 O 63.7183 3.95927 1.15394 0
M  V30 632 H 63.0593 0.661288 -0.0599463 0
M  V30 633 H 65.5893 1.88417 -0.797511 0
M  V30 634 H 65.5993 4.06865 0.304071 0
M  V30 635 H 64.2743 4.07157 -0.84828 0
M  V30 636 H 62.8513 3.61252 0.924724 0
M  V30 637 N 65.0364 0.313813 1.54444 0
M  V30 638 C 66.2764 -0.292389 2.02298 0
M  V30 639 C 66.6404 -1.50105 1.19719 0
M  V30 640 O 67.8414 -2.17947 1.5733 0
M  V30 641 C 66.1124 -0.627682 3.51845 0
M  V30 642 S 67.6714 -1.21493 4.21646 0
M  V30 643 H 64.4894 -0.0890247 0.705405 0
M  V30 644 H 67.0914 0.444668 1.90376 0
M  V30 645 H 65.7954 0.260265 4.09574 0
M  V30 646 H 65.3264 -1.39519 3.67829 0
M  V30 647 H 67.3414 -2.5022 4.28491 0
M  V30 648 N 66.5145 -1.57545 0.0417849 0
M  V30 649 C 67.4445 -2.14009 -0.933929 0
M  V30 650 C 68.4255 -1.05938 -1.33083 0
M  V30 651 O 69.6105 -1.33833 -1.40721 0
M  V30 652 C 66.7405 -2.67747 -2.21199 0
M  V30 653 C 65.6945 -3.80718 -1.95544 0
M  V30 654 C 65.0205 -4.20935 -3.29724 0
M  V30 655 C 66.3205 -5.06258 -1.28452 0
M  V30 656 H 68.0145 -2.95788 -0.463645 0
M  V30 657 H 65.5605 -1.42285 -0.221573 0
M  V30 658 H 67.5135 -3.05886 -2.89848 0
M  V30 659 H 66.2375 -1.83147 -2.70416 0
M  V30 660 H 64.8965 -3.43037 -1.2931 0
M  V30 661 H 64.5445 -3.33298 -3.76724 0
M  V30 662 H 64.2445 -4.9707 -3.13361 0
M  V30 663 H 65.7685 -4.61666 -3.9962 0
M  V30 664 H 67.1825 -5.41903 -1.8712 0
M  V30 665 H 65.5795 -5.87475 -1.22445 0
M  V30 666 H 66.6495 -4.84207 -0.259219 0
M  V30 667 N 67.9926 0.231505 -1.5589 0
M  V30 668 C 69.2386 0.95877 -1.78705 0
M  V30 669 C 69.5716 1.8438 -0.609725 0
M  V30 670 O 68.8466 1.90521 0.391426 0
M  V30 671 C 69.1296 1.8062 -3.11526 0
M  V30 672 C 68.9826 0.948328 -4.39689 0
M  V30 673 C 70.3016 2.78585 -3.40703 0
M  V30 674 H 67.4206 0.347129 -0.650131 0
M  V30 675 H 70.0626 0.228259 -1.88624 0
M  V30 676 H 68.2126 2.42902 -3.03201 0
M  V30 677 H 69.8846 0.343016 -4.60023 0
M  V30 678 H 68.1276 0.253314 -4.3306 0
M  V30 679 H 68.7986 1.57543 -5.29041 0
M  V30 680 H 71.2746 2.26439 -3.49091 0
M  V30 681 H 70.1506 3.34988 -4.34826 0
M  V30 682 H 70.4116 3.55825 -2.62375 0
M  V30 683 N 69.4707 1.49531 0.497807 0
M  V30 684 C 70.4007 1.6935 1.60757 0
M  V30 685 C 71.3817 0.542218 1.61227 0
M  V30 686 O 72.5667 0.778417 1.77917 0
M  V30 687 C 69.6967 1.76298 2.99226 0
M  V30 688 C 68.6507 2.91248 3.13622 0
M  V30 689 C 67.9767 2.83312 4.53474 0
M  V30 690 C 69.2767 4.3214 2.93346 0
M  V30 691 H 70.9707 2.62263 1.44425 0
M  V30 692 H 68.5167 1.26208 0.693367 0
M  V30 693 H 70.4697 1.88749 3.76765 0
M  V30 694 H 69.1937 0.799871 3.16654 0
M  V30 695 H 67.8527 2.78404 2.38509 0
M  V30 696 H 67.5007 1.84902 4.67782 0
M  V30 697 H 67.2007 3.60465 4.64046 0
M  V30 698 H 68.7247 2.97775 5.33069 0
M  V30 699 H 70.1387 4.45649 3.60652 0
M  V30 700 H 68.5357 5.1054 3.15387 0
M  V30 701 H 69.6057 4.46363 1.89441 0
M  V30 702 N 70.9488 -0.749086 1.3866 0
M  V30 703 C 72.1958 -1.50833 1.35114 0
M  V30 704 C 72.5238 -1.94415 -0.0574049 0
M  V30 705 O 71.7788 -1.66065 -1.03541 0
M  V30 706 C 72.0778 -2.7712 2.25697 0
M  V30 707 C 71.7438 -2.52477 3.73585 0
M  V30 708 C 70.4058 -2.45466 4.13884 0
M  V30 709 C 72.7578 -2.31066 4.67181 0
M  V30 710 C 70.0858 -2.15064 5.45861 0
M  V30 711 C 72.4378 -2.02183 5.9942 0
M  V30 712 C 71.1018 -1.93631 6.38798 0
M  V30 713 H 70.3718 -0.551936 0.494416 0
M  V30 714 H 73.0188 -0.860979 1.71054 0
M  V30 715 H 71.3238 -3.46528 1.82827 0
M  V30 716 H 73.0208 -3.35096 2.20254 0
M  V30 717 H 69.6108 -2.58807 3.41638 0
M  V30 718 H 73.7948 -2.35459 4.3689 0
M  V30 719 H 69.0508 -2.06954 5.75308 0
M  V30 720 H 73.2248 -1.8462 6.71482 0
M  V30 721 H 70.8518 -1.69839 7.40985 0
M  V30 722 N 72.4269 -1.23603 -0.977757 0
M  V30 723 C 73.8379 -1.06424 -1.53398 0
M  V30 724 C 74.1889 0.367578 -1.92726 0
M  V30 725 O 73.3139 1.25465 -1.76316 0
M  V30 726 C 73.9089 -1.92568 -2.78753 0
M  V30 727 C 72.4679 -1.79642 -3.30765 0
M  V30 728 C 71.6149 -1.88111 -2.03739 0
M  V30 729 H 74.5659 -1.37227 -0.797152 0
M  V30 730 H 74.5869 -1.45203 -3.51705 0
M  V30 731 H 74.0989 -2.96771 -2.50098 0
M  V30 732 H 72.1999 -0.782325 -3.64294 0
M  V30 733 H 72.3129 -2.63174 -4.00345 0
M  V30 734 H 70.6769 -1.31723 -2.17994 0
M  V30 735 H 71.4599 -2.93875 -1.77461 0
M  V30 736 N 73.905 1.17692 -1.04816 0
M  V30 737 C 75.321 1.39863 -0.768794 0
M  V30 738 C 75.521 1.91118 0.638451 0
M  V30 739 O 74.577 2.10036 1.40146 0
M  V30 740 C 75.89 2.39274 -1.82122 0
M  V30 741 C 77.438 2.52987 -1.843 0
M  V30 742 C 77.913 3.55669 -2.88555 0
M  V30 743 N 79.404 3.63183 -2.87493 0
M  V30 744 C 80.139 4.42381 -3.64811 0
M  V30 745 N 79.635 5.25125 -4.51903 0
M  V30 746 N 81.428 4.37217 -3.53267 0
M  V30 747 H 73.579 0.82752 -1.95617 0
M  V30 748 H 75.842 0.426123 -0.846831 0
M  V30 749 H 75.548 2.08678 -2.83102 0
M  V30 750 H 75.422 3.38725 -1.65967 0
M  V30 751 H 77.809 2.82896 -0.839869 0
M  V30 752 H 77.89 1.53623 -2.04532 0
M  V30 753 H 77.534 3.26499 -3.89051 0
M  V30 754 H 77.464 4.54728 -2.65575 0
M  V30 755 H 79.955 3.04103 -2.24343 0
M  V30 756 H 80.268 5.82728 -5.07591 0
M  V30 757 H 78.613 5.24519 -4.55966 0
M  V30 758 H 81.804 3.71626 -2.84625 0
M  V30 759 H 81.977 4.98696 -4.13771 0
M  V30 760 N 75.3831 0.828654 1.34056 0
M  V30 761 C 76.6301 0.419458 1.98108 0
M  V30 762 C 76.9581 -1.01886 1.65679 0
M  V30 763 O 76.2131 -1.72539 0.923512 0
M  V30 764 C 76.5121 0.575226 3.52741 0
M  V30 765 C 76.1781 1.98012 4.05095 0
M  V30 766 C 74.8401 2.36442 4.19104 0
M  V30 767 C 77.1921 2.89824 4.33188 0
M  V30 768 C 74.5201 3.66009 4.58535 0
M  V30 769 C 76.8721 4.1886 4.74066 0
M  V30 770 C 75.5361 4.5726 4.86281 0
M  V30 771 H 74.8061 0.153491 0.724929 0
M  V30 772 H 77.4531 1.05371 1.59904 0
M  V30 773 H 75.7581 -0.142385 3.91541 0
M  V30 774 H 77.4551 0.239057 4.00287 0
M  V30 775 H 74.0451 1.67162 3.94658 0
M  V30 776 H 78.2291 2.61375 4.21897 0
M  V30 777 H 73.4851 3.95579 4.66184 0
M  V30 778 H 77.6591 4.90086 4.94761 0
M  V30 779 H 75.2861 5.57707 5.16592 0
M  V30 780 N 76.8612 -1.46375 0.584142 0
M  V30 781 C 77.7912 -2.33103 -0.136037 0
M  V30 782 C 78.7722 -1.45431 -0.882255 0
M  V30 783 O 79.9572 -1.74246 -0.857434 0
M  V30 784 C 77.0872 -3.27731 -1.14933 0
M  V30 785 C 76.0412 -4.24855 -0.517862 0
M  V30 786 C 75.3672 -5.09001 -1.63773 0
M  V30 787 C 76.6672 -5.19439 0.545886 0
M  V30 788 H 78.3612 -2.93568 0.588086 0
M  V30 789 H 75.9072 -1.41166 0.284259 0
M  V30 790 H 77.8602 -3.87261 -1.66153 0
M  V30 791 H 76.5842 -2.65377 -1.90375 0
M  V30 792 H 75.2432 -3.6659 -0.0267361 0
M  V30 793 H 74.8912 -4.43031 -2.38185 0
M  V30 794 H 74.5912 -5.74777 -1.22085 0
M  V30 795 H 76.1152 -5.71396 -2.15266 0
M  V30 796 H 77.5292 -5.73177 0.118704 0
M  V30 797 H 75.9262 -5.93566 0.88317 0
M  V30 798 H 76.9962 -4.63285 1.43162 0
M  V30 799 N 78.3393 -0.321999 -1.54275 0
M  V30 800 C 79.5873 0.280489 -2.00144 0
M  V30 801 C 79.9083 1.52777 -1.21178 0
M  V30 802 O 79.1783 1.9338 -0.313187 0
M  V30 803 H 77.7583 0.106632 -0.73935 0
M  V30 804 H 80.4203 -0.438184 -1.8991 0
M  V30 805 H 79.5163 0.537972 -3.07428 0
M  V30 806 N 79.8174 1.5752 -0.0501392 0
M  V30 807 C 81.0454 1.96963 0.633492 0
M  V30 808 C 81.4604 0.927631 1.6444 0
M  V30 809 O 80.8174 -0.0882665 1.82286 0
M  V30 810 C 80.8684 3.36487 1.32132 0
M  V30 811 O 80.5894 4.36693 0.350894 0
M  V30 812 C 82.0904 3.90682 2.09481 0
M  V30 813 H 79.3104 0.648244 0.173266 0
M  V30 814 H 81.8544 2.0417 -0.116134 0
M  V30 815 H 80.0094 3.30434 2.02218 0
M  V30 816 H 80.4234 5.17702 0.841735 0
M  V30 817 H 81.8974 4.90591 2.5303 0
M  V30 818 H 82.3744 3.26053 2.94255 0
M  V30 819 H 82.9804 4.00069 1.44307 0
M  V30 820 N 81.2955 -0.223234 1.56011 0
M  V30 821 C 82.2585 -1.26014 1.9145 0
M  V30 822 C 83.2585 -1.3989 0.792937 0
M  V30 823 O 84.4485 -1.38184 1.0607 0
M  V30 824 C 81.5805 -2.63422 2.16383 0
M  V30 825 H 82.7735 -0.95796 2.84189 0
M  V30 826 H 80.3265 -0.463576 1.49267 0
M  V30 827 H 81.0615 -2.98741 1.2619 0
M  V30 828 H 80.8465 -2.54728 2.98088 0
M  V30 829 H 82.3365 -3.38249 2.44903 0
M  V30 830 N 82.7736 -1.49793 -0.48987 0
M  V30 831 C 84.0206 -1.59841 -1.24327 0
M  V30 832 C 84.3486 -0.290135 -1.92324 0
M  V30 833 O 83.6036 0.722749 -1.81865 0
M  V30 834 C 83.9026 -2.71488 -2.32441 0
M  V30 835 C 83.5686 -4.12614 -1.81826 0
M  V30 836 C 82.2306 -4.51017 -1.67742 0
M  V30 837 C 84.5826 -5.00892 -1.4407 0
M  V30 838 C 81.9106 -5.75459 -1.14297 0
M  V30 839 C 84.2626 -6.25863 -0.920742 0
M  V30 840 C 82.9266 -6.63086 -0.766383 0
M  V30 841 H 82.1966 -0.584899 -0.454944 0
M  V30 842 H 84.8436 -1.83663 -0.542215 0
M  V30 843 H 83.1486 -2.4168 -3.0838 0
M  V30 844 H 84.8456 -2.76469 -2.90458 0
M  V30 845 H 81.4356 -3.82307 -1.93751 0
M  V30 846 H 85.6196 -4.7187 -1.53794 0
M  V30 847 H 80.8756 -6.02989 -1.01068 0
M  V30 848 H 85.0496 -6.9364 -0.619448 0
M  V30 849 H 82.6766 -7.59393 -0.350083 0
M  V30 850 N 84.2517 0.741722 -1.39055 0
M  V30 851 C 85.1847 1.86416 -1.31622 0
M  V30 852 C 86.1627 1.61473 -0.191076 0
M  V30 853 O 87.3467 1.84825 -0.370399 0
M  V30 854 C 84.4737 3.22266 -1.04221 0
M  V30 855 C 83.5197 3.66079 -2.18834 0
M  V30 856 S 84.3527 3.7623 -3.81066 0
M  V30 857 C 85.5087 5.14881 -3.55877 0
M  V30 858 H 85.7417 1.92437 -2.26617 0
M  V30 859 H 83.2747 0.905907 -1.25031 0
M  V30 860 H 85.2327 4.00714 -0.890964 0
M  V30 861 H 83.8937 3.1391 -0.109237 0
M  V30 862 H 83.0867 4.64648 -1.95238 0
M  V30 863 H 82.6887 2.94817 -2.30128 0
M  V30 864 H 84.9807 6.01006 -3.12726 0
M  V30 865 H 85.9237 5.43503 -4.53884 0
M  V30 866 H 86.3317 4.84239 -2.90126 0
M  V30 867 N 85.7298 1.2412 0.971189 0
M  V30 868 C 86.6598 1.05508 2.08304 0
M  V30 869 C 87.6408 -0.0308864 1.70072 0
M  V30 870 O 88.8258 0.135521 1.93727 0
M  V30 871 C 85.9558 0.655365 3.4106 0
M  V30 872 C 84.9098 1.68971 3.93234 0
M  V30 873 C 84.2358 1.14516 5.22293 0
M  V30 874 C 85.5358 3.08487 4.21465 0
M  V30 875 H 87.2298 1.98507 2.24132 0
M  V30 876 H 84.7758 0.955821 1.07704 0
M  V30 877 H 86.7288 0.51217 4.18276 0
M  V30 878 H 85.4528 -0.31032 3.25122 0
M  V30 879 H 84.1118 1.82106 3.18171 0
M  V30 880 H 83.7598 0.170189 5.02712 0
M  V30 881 H 83.4598 1.83635 5.58168 0
M  V30 882 H 84.9838 1.01401 6.02121 0
M  V30 883 H 86.3978 2.98601 4.89398 0
M  V30 884 H 84.7948 3.74926 4.68562 0
M  V30 885 H 85.8648 3.56787 3.28376 0
M  V30 886 N 87.2079 -1.17134 1.05439 0
M  V30 887 C 88.4539 -1.87979 0.776872 0
M  V30 888 C 88.8089 -1.7965 -0.688751 0
M  V30 889 O 88.1019 -1.19535 -1.4974 0
M  V30 890 C 88.2959 -3.36833 1.19491 0
M  V30 891 C 88.1249 -3.59653 2.69963 0
M  V30 892 C 86.8949 -3.76234 3.37307 0
M  V30 893 C 89.0929 -3.59091 3.68182 0
M  V30 894 N 87.0749 -3.86922 4.76618 0
M  V30 895 C 88.4459 -3.75659 4.93235 0
M  V30 896 C 90.5009 -3.42255 3.61616 0
M  V30 897 C 89.2039 -3.77133 6.12506 0
M  V30 898 C 91.2299 -3.45018 4.8033 0
M  V30 899 C 90.5919 -3.62096 6.04207 0
M  V30 900 H 86.6909 -0.705876 0.336546 0
M  V30 901 H 89.2749 -1.40602 1.34682 0
M  V30 902 H 87.4459 -3.82873 0.652884 0
M  V30 903 H 89.1779 -3.95305 0.866966 0
M  V30 904 H 85.9329 -3.76193 2.87708 0
M  V30 905 H 86.3569 -3.96055 5.49062 0
M  V30 906 H 90.9989 -3.27986 2.66805 0
M  V30 907 H 88.7169 -3.90186 7.07659 0
M  V30 908 H 92.3029 -3.33246 4.76905 0
M  V30 909 H 91.1829 -3.64142 6.94529 0
M  V30 910 N 88.686 -0.835752 -1.33615 0
M  V30 911 C 89.616 -0.281739 -2.31794 0
M  V30 912 C 90.597 0.608833 -1.58831 0
M  V30 913 O 91.782 0.533035 -1.86741 0
M  V30 914 C 88.912 0.546612 -3.42971 0
M  V30 915 C 87.866 -0.247904 -4.27281 0
M  V30 916 C 87.192 0.704001 -5.30045 0
M  V30 917 C 88.492 -1.46324 -5.01385 0
M  V30 918 H 90.186 -1.10206 -2.78379 0
M  V30 919 H 87.732 -0.531388 -1.33837 0
M  V30 920 H 89.685 0.944467 -4.1068 0
M  V30 921 H 88.409 1.40011 -2.95067 0
M  V30 922 H 87.068 -0.627281 -3.61194 0
M  V30 923 H 86.716 1.55381 -4.78399 0
M  V30 924 H 86.416 0.176524 -5.87335 0
M  V30 925 H 87.94 1.09944 -6.0062 0
M  V30 926 H 89.354 -1.13871 -5.61877 0
M  V30 927 H 87.751 -1.92728 -5.6831 0
M  V30 928 H 88.821 -2.23467 -4.30338 0
M  V30 929 N 90.1641 1.46063 -0.591896 0
M  V30 930 C 91.0941 2.33172 0.123673 0
M  V30 931 C 92.0751 1.45897 0.87453 0
M  V30 932 O 93.2601 1.74698 0.848181 0
M  V30 933 C 90.3901 3.28336 1.13194 0
M  V30 934 C 89.3441 4.25124 0.495324 0
M  V30 935 C 88.6701 5.09863 1.61071 0
M  V30 936 C 89.9701 5.19143 -0.573425 0
M  V30 937 H 91.6641 2.93252 -0.603646 0
M  V30 938 H 89.2101 1.41014 -0.291741 0
M  V30 939 H 91.1631 3.88137 1.64097 0
M  V30 940 H 89.8871 2.66383 1.88965 0
M  V30 941 H 88.5461 3.66599 0.00729452 0
M  V30 942 H 88.1941 4.44288 2.35832 0
M  V30 943 H 87.8941 5.75417 1.19035 0
M  V30 944 H 89.4181 5.72529 2.12233 0
M  V30 945 H 90.8321 5.73106 -0.1491 0
M  V30 946 H 89.2291 5.93089 -0.914636 0
M  V30 947 H 90.2991 4.62519 -1.45617 0
M  V30 948 N 91.6422 0.330177 1.54103 0
M  V30 949 C 92.9192 -0.325007 1.92881 0
M  V30 950 C 93.2992 -1.6934 1.26045 0
M  V30 951 O 92.6472 -2.24855 0.406526 0
M  V30 952 C 92.8572 -0.410634 3.46576 0
M  V30 953 C 94.2052 -0.667801 4.19316 0
M  V30 954 O 95.2292 -0.49329 3.52768 0
M  V30 955 O 94.0882 -1.00491 5.37181 0
M  V30 956 H 91.1822 -0.186873 0.80561 0
M  V30 957 H 93.7282 0.380376 1.65382 0
M  V30 958 H 92.5002 0.550164 3.87413 0
M  V30 959 H 92.1232 -1.16333 3.802 0
M  V30 960 N 93.1203 -1.57491 0.0584922 0
M  V30 961 C 94.3673 -1.92978 -0.613648 0
M  V30 962 C 94.6953 -0.937461 -1.70417 0
M  V30 963 O 93.9503 0.049078 -1.95638 0
M  V30 964 C 94.2493 -3.3513 -1.24188 0
M  V30 965 C 93.9153 -4.50037 -0.278826 0
M  V30 966 C 92.5773 -4.81198 -0.0138447 0
M  V30 967 C 94.9293 -5.19807 0.380777 0
M  V30 968 C 92.2573 -5.79473 0.918052 0
M  V30 969 C 94.6093 -6.19079 1.30091 0
M  V30 970 C 93.2733 -6.48665 1.57449 0
M  V30 971 H 92.5433 -0.706157 -0.22455 0
M  V30 972 H 95.1903 -1.91082 0.126533 0
M  V30 973 H 93.4953 -3.33429 -2.05749 0
M  V30 974 H 95.1923 -3.59871 -1.769 0
M  V30 975 H 91.7823 -4.25726 -0.495539 0
M  V30 976 H 95.9663 -4.95939 0.189158 0
M  V30 977 H 91.2223 -6.00727 1.1374 0
M  V30 978 H 95.3963 -6.7225 1.81804 0
M  V30 979 H 93.0233 -7.24628 2.29822 0
M  V30 980 N 94.5984 0.214957 -1.56127 0
M  V30 981 C 95.5284 1.2695 -1.95974 0
M  V30 982 C 96.5094 1.48539 -0.828868 0
M  V30 983 O 97.6944 1.60611 -1.09168 0
M  V30 984 C 94.8244 2.61794 -2.28214 0
M  V30 985 C 93.7784 2.54851 -3.43853 0
M  V30 986 C 93.1044 3.93785 -3.61715 0
M  V30 987 C 94.4044 2.09065 -4.78632 0
M  V30 988 H 96.0984 0.93846 -2.84312 0
M  V30 989 H 93.6444 0.449996 -1.36788 0
M  V30 990 H 95.5974 3.35731 -2.54682 0
M  V30 991 H 94.3214 2.96599 -1.36736 0
M  V30 992 H 92.9804 1.8337 -3.17444 0
M  V30 993 H 92.6284 4.25908 -2.67602 0
M  V30 994 H 92.3284 3.90019 -4.39498 0
M  V30 995 H 93.8524 4.69374 -3.90539 0
M  V30 996 H 95.2664 2.7275 -5.04262 0
M  V30 997 H 93.6634 2.16346 -5.59745 0
M  V30 998 H 94.7334 1.04315 -4.73547 0
M  V30 999 N 96.0765 1.50051 0.48192 0
M  V30 1000 C 97.3165 1.62128 1.24474 0
M  V30 1001 C 97.6805 0.309742 1.89485 0
M  V30 1002 O 98.8815 0.305854 2.67054 0
M  V30 1003 C 97.1525 2.76151 2.26882 0
M  V30 1004 S 98.7115 3.08297 3.12247 0
M  V30 1005 H 95.5295 0.571661 0.422759 0
M  V30 1006 H 98.1315 1.87791 0.54359 0
M  V30 1007 H 96.8355 3.69942 1.77683 0
M  V30 1008 H 96.3665 2.52541 3.0164 0
M  V30 1009 H 98.3815 2.51287 4.27866 0
M  V30 1010 N 97.5546 -0.734337 1.39446 0
M  V30 1011 C 98.8036 -1.48937 1.36017 0
M  V30 1012 C 99.1166 -1.95557 -0.0409005 0
M  V30 1013 O 100.323 -2.70779 -0.19778 0
M  V30 1014 C 98.7786 -2.69125 2.38955 0
M  V30 1015 C 98.3866 -2.29452 3.8478 0
M  V30 1016 C 100.131 -3.46944 2.44603 0
M  V30 1017 C 98.0376 -3.46366 4.79358 0
M  V30 1018 H 96.9676 -0.559296 0.505672 0
M  V30 1019 H 99.6186 -0.800983 1.65095 0
M  V30 1020 H 98.0006 -3.40041 2.02948 0
M  V30 1021 H 99.1746 -1.66077 4.29831 0
M  V30 1022 H 97.4896 -1.64723 3.82433 0
M  V30 1023 H 100.087 -4.33907 3.12456 0
M  V30 1024 H 100.43 -3.89454 1.47076 0
M  V30 1025 H 100.963 -2.83056 2.79507 0
M  V30 1026 H 97.7016 -3.08905 5.78151 0
M  V30 1027 H 97.2216 -4.08719 4.38986 0
M  V30 1028 H 98.9006 -4.12691 4.98292 0
M  V30 1029 N 99.0327 -1.24633 -0.964593 0
M  V30 1030 C 100.449 -1.01239 -1.2338 0
M  V30 1031 C 100.649 0.2769 -1.99588 0
M  V30 1032 O 99.7047 0.992241 -2.32187 0
M  V30 1033 C 101.018 -2.22937 -2.01791 0
M  V30 1034 C 102.566 -2.27594 -2.14872 0
M  V30 1035 C 103.041 -3.48921 -2.96678 0
M  V30 1036 N 104.532 -3.49257 -3.04259 0
M  V30 1037 C 105.267 -4.39795 -3.67924 0
M  V30 1038 N 104.763 -5.40591 -4.33281 0
M  V30 1039 N 106.556 -4.275 -3.64966 0
M  V30 1040 H 98.7067 -2.0748 -0.454502 0
M  V30 1041 H 100.97 -0.910647 -0.26349 0
M  V30 1042 H 100.676 -3.16587 -1.53184 0
M  V30 1043 H 100.55 -2.25306 -3.02518 0
M  V30 1044 H 102.937 -1.34473 -2.6268 0
M  V30 1045 H 103.018 -2.2925 -1.13482 0
M  V30 1046 H 102.662 -4.42359 -2.49562 0
M  V30 1047 H 102.592 -3.4451 -3.98272 0
M  V30 1048 H 105.083 -2.76337 -2.57771 0
M  V30 1049 H 105.396 -6.05904 -4.79687 0
M  V30 1050 H 103.741 -5.44475 -4.3194 0
M  V30 1051 H 106.932 -3.47987 -3.13086 0
M  V30 1052 H 107.105 -4.98258 -4.14298 0
M  V30 1053 N 100.511 1.16574 -1.06058 0
M  V30 1054 C 101.458 2.20883 -0.669263 0
M  V30 1055 C 102.428 1.62729 0.332918 0
M  V30 1056 O 103.613 1.895 0.222346 0
M  V30 1057 C 100.753 3.45049 -0.0593572 0
M  V30 1058 C 99.8658 4.17458 -1.11143 0
M  V30 1059 C 99.0008 5.29135 -0.467916 0
M  V30 1060 C 98.0398 5.93343 -1.50369 0
M  V30 1061 N 97.1768 6.96516 -0.883706 0
M  V30 1062 H 102.017 2.53709 -1.5632 0
M  V30 1063 H 99.5538 1.24616 -0.781625 0
M  V30 1064 H 101.512 4.16033 0.311771 0
M  V30 1065 H 100.142 3.12781 0.797992 0
M  V30 1066 H 99.1938 3.45101 -1.60029 0
M  V30 1067 H 100.506 4.61307 -1.89731 0
M  V30 1068 H 99.6598 6.06684 -0.0436871 0
M  V30 1069 H 98.3988 4.86443 0.349864 0
M  V30 1070 H 97.4038 5.14517 -1.93784 0
M  V30 1071 H 98.6288 6.38114 -2.32352 0
M  V30 1072 H 96.5748 6.55943 -0.086595 0
M  V30 1073 H 96.4918 7.38723 -1.607 0
M  V30 1074 H 97.7598 7.77993 -0.484543 0
M  V30 1075 N 101.989 0.842826 1.3317 0
M  V30 1076 C 102.939 0.250877 2.26616 0
M  V30 1077 C 103.923 -0.596427 1.49437 0
M  V30 1078 O 105.115 -0.447747 1.71243 0
M  V30 1079 C 102.244 -0.569779 3.38539 0
M  V30 1080 C 101.33 0.289254 4.23112 0
M  V30 1081 N 101.721 1.36987 4.86897 0
M  V30 1082 C 100.019 0.0769631 4.45934 0
M  V30 1083 C 100.72 1.89737 5.49886 0
M  V30 1084 N 99.6959 1.19827 5.30229 0
M  V30 1085 H 103.498 1.07718 2.73448 0
M  V30 1086 H 101.012 0.687693 1.47121 0
M  V30 1087 H 103.009 -1.01018 4.04476 0
M  V30 1088 H 101.669 -1.39401 2.93253 0
M  V30 1089 H 102.68 1.75277 4.87338 0
M  V30 1090 H 99.3569 -0.713507 4.11358 0
M  V30 1091 H 100.747 2.80253 6.10662 0
M  V30 1092 N 103.467 -1.45747 0.599634 0
M  V30 1093 C 104.714 -2.02292 0.0917284 0
M  V30 1094 C 105.042 -1.46906 -1.27472 0
M  V30 1095 O 104.297 -0.630652 -1.8526 0
M  V30 1096 C 104.596 -3.57399 -0.00602758 0
M  V30 1097 C 104.262 -4.31902 1.29503 0
M  V30 1098 C 102.924 -4.51974 1.65144 0
M  V30 1099 C 105.276 -4.74551 2.15525 0
M  V30 1100 C 102.604 -5.11949 2.86574 0
M  V30 1101 C 104.956 -5.35868 3.36196 0
M  V30 1102 C 103.62 -5.54165 3.72099 0
M  V30 1103 H 102.89 -0.740239 0.0335658 0
M  V30 1104 H 105.537 -1.7491 0.779661 0
M  V30 1105 H 103.842 -3.84014 -0.777183 0
M  V30 1106 H 105.539 -3.98846 -0.415038 0
M  V30 1107 H 102.129 -4.16588 1.00761 0
M  V30 1108 H 106.313 -4.58784 1.8929 0
M  V30 1109 H 101.569 -5.24305 3.14507 0
M  V30 1110 H 105.743 -5.6787 4.03109 0
M  V30 1111 H 103.37 -6.00406 4.6628 0
M  V30 1112 N 104.945 -0.338344 -1.53925 0
M  V30 1113 C 105.875 0.51328 -2.27789 0
M  V30 1114 C 106.856 1.107 -1.29149 0
M  V30 1115 O 108.041 1.12937 -1.57984 0
M  V30 1116 C 105.171 1.66697 -3.04679 0
M  V30 1117 C 104.125 1.20183 -4.1078 0
M  V30 1118 C 103.451 2.44363 -4.75595 0
M  V30 1119 C 104.751 0.30605 -5.21403 0
M  V30 1120 H 106.445 -0.102883 -2.99223 0
M  V30 1121 H 103.991 -0.0509219 -1.4391 0
M  V30 1122 H 105.944 2.26915 -3.55088 0
M  V30 1123 H 104.668 2.30995 -2.30887 0
M  V30 1124 H 103.327 0.622499 -3.61276 0
M  V30 1125 H 102.975 3.07057 -3.98403 0
M  V30 1126 H 102.675 2.13925 -5.47275 0
M  V30 1127 H 104.199 3.05317 -5.28786 0
M  V30 1128 H 105.613 0.814929 -5.67478 0
M  V30 1129 H 104.01 0.0937929 -6.00027 0
M  V30 1130 H 105.08 -0.65921 -4.80398 0
M  V30 1131 N 106.423 1.57458 -0.0668435 0
M  V30 1132 C 107.671 1.92919 0.602214 0
M  V30 1133 C 107.992 0.947215 1.70449 0
M  V30 1134 O 107.262 -0.00544117 1.95899 0
M  V30 1135 H 105.842 0.71217 0.22544 0
M  V30 1136 H 108.504 1.94508 -0.123535 0
M  V30 1137 H 107.6 2.94589 1.03073 0
M  V30 1138 N 107.901 -0.206675 1.56239 0
M  V30 1139 C 109.317 -0.557025 1.49564 0
M  V30 1140 C 109.517 -1.86424 0.764735 0
M  V30 1141 O 108.573 -2.50584 0.310491 0
M  V30 1142 C 109.886 -0.622478 2.94186 0
M  V30 1143 C 111.434 -0.712099 3.04792 0
M  V30 1144 C 111.909 -0.808767 4.50803 0
M  V30 1145 N 113.4 -0.8726 4.54907 0
M  V30 1146 C 114.135 -0.967365 5.65181 0
M  V30 1147 N 113.631 -1.02515 6.85173 0
M  V30 1148 N 115.424 -1.00366 5.53067 0
M  V30 1149 H 107.575 0.650943 2.02179 0
M  V30 1150 H 109.838 0.230387 0.919579 0
M  V30 1151 H 109.544 0.268727 3.50672 0
M  V30 1152 H 109.418 -1.4811 3.46905 0
M  V30 1153 H 111.805 -1.59374 2.48363 0
M  V30 1154 H 111.886 0.172489 2.55218 0
M  V30 1155 H 111.53 0.0684754 5.07854 0
M  V30 1156 H 111.46 -1.70899 4.98098 0
M  V30 1157 H 113.951 -0.837657 3.68499 0
M  V30 1158 H 114.264 -1.09765 7.64965 0
M  V30 1159 H 112.609 -0.994026 6.87855 0
M  V30 1160 H 115.8 -0.95527 4.58249 0
M  V30 1161 H 115.973 -1.07405 6.39037 0
M  V30 1162 N 109.379 -1.50304 -0.473955 0
M  V30 1163 C 110.795 -1.37667 -0.807466 0
M  V30 1164 C 110.995 -0.430555 -1.96846 0
M  V30 1165 O 110.051 0.127874 -2.52176 0
M  V30 1166 C 111.364 -2.78974 -1.12223 0
M  V30 1167 C 112.912 -2.87868 -1.22885 0
M  V30 1168 C 113.387 -4.30003 -1.57676 0
M  V30 1169 N 114.878 -4.3294 -1.64673 0
M  V30 1170 C 115.613 -5.3991 -1.93091 0
M  V30 1171 N 115.109 -6.57092 -2.1955 0
M  V30 1172 N 116.902 -5.27351 -1.94569 0
M  V30 1173 H 109.053 -2.10394 0.291212 0
M  V30 1174 H 111.316 -0.945575 0.0677609 0
M  V30 1175 H 111.022 -3.50031 -0.342229 0
M  V30 1176 H 110.896 -3.16038 -2.05913 0
M  V30 1177 H 113.283 -2.17032 -1.99953 0
M  V30 1178 H 113.364 -2.54352 -0.271814 0
M  V30 1179 H 113.008 -5.01375 -0.81149 0
M  V30 1180 H 112.938 -4.61004 -2.54525 0
M  V30 1181 H 115.429 -3.48441 -1.46277 0
M  V30 1182 H 115.742 -7.34425 -2.405 0
M  V30 1183 H 114.087 -6.60272 -2.16948 0
M  V30 1184 H 117.278 -4.34801 -1.73394 0
M  V30 1185 H 117.451 -6.10805 -2.16381 0
M  V30 1186 N 110.857 0.726932 -1.39834 0
M  V30 1187 C 112.273 1.03354 -1.21615 0
M  V30 1188 C 112.473 2.01327 -0.08338 0
M  V30 1189 O 111.529 2.46158 0.56238 0
M  V30 1190 C 112.842 1.58811 -2.55342 0
M  V30 1191 C 114.39 1.70851 -2.62257 0
M  V30 1192 C 114.865 2.29716 -3.96225 0
M  V30 1193 N 116.356 2.37116 -3.97907 0
M  V30 1194 C 117.091 2.83619 -4.98345 0
M  V30 1195 N 116.587 3.29958 -6.09179 0
M  V30 1196 N 118.38 2.82901 -4.8572 0
M  V30 1197 H 110.531 0.0773069 -2.12259 0
M  V30 1198 H 112.794 0.0969102 -0.943034 0
M  V30 1199 H 112.5 0.942855 -3.38826 0
M  V30 1200 H 112.374 2.57502 -2.75632 0
M  V30 1201 H 114.761 2.34497 -1.79152 0
M  V30 1202 H 114.842 0.707913 -2.45809 0
M  V30 1203 H 114.486 1.66696 -4.79765 0
M  V30 1204 H 114.416 3.30469 -4.09997 0
M  V30 1205 H 116.907 2.04374 -3.17868 0
M  V30 1206 H 117.22 3.63976 -6.8172 0
M  V30 1207 H 115.565 3.27946 -6.12761 0
M  V30 1208 H 118.756 2.46027 -3.98231 0
M  V30 1209 H 118.929 3.18827 -5.6414 0
M  V30 1210 N 112.336 1.25143 0.95797 0
M  V30 1211 C 113.752 1.01892 1.22842 0
M  V30 1212 C 113.952 -0.266311 1.99732 0
M  V30 1213 O 113.008 -0.979913 2.3271 0
M  V30 1214 C 114.321 2.24004 2.00606 0
M  V30 1215 C 115.869 2.28731 2.13662 0
M  V30 1216 C 116.344 3.5049 2.94823 0
M  V30 1217 N 117.835 3.50866 3.02403 0
M  V30 1218 C 118.57 4.4174 3.65586 0
M  V30 1219 N 118.066 5.42882 4.30408 0
M  V30 1220 N 119.859 4.29429 3.62694 0
M  V30 1221 H 112.01 2.07718 0.443493 0
M  V30 1222 H 114.273 0.912031 0.258657 0
M  V30 1223 H 113.979 3.17395 1.51503 0
M  V30 1224 H 113.853 2.26907 3.01319 0
M  V30 1225 H 116.24 1.35865 2.61963 0
M  V30 1226 H 116.321 2.29848 1.12265 0
M  V30 1227 H 115.965 4.43676 2.47213 0
M  V30 1228 H 115.895 3.46617 3.96439 0
M  V30 1229 H 118.386 2.777 2.56302 0
M  V30 1230 H 118.699 6.0844 4.76467 0
M  V30 1231 H 117.044 5.46758 4.29047 0
M  V30 1232 H 120.235 3.49643 3.11236 0
M  V30 1233 H 120.408 5.00448 4.1165 0
M  V30 1234 N 113.814 -1.1601 1.06675 0
M  V30 1235 C 115.062 -1.86264 0.784229 0
M  V30 1236 C 115.383 -1.82328 -0.691488 0
M  V30 1237 O 114.653 -1.25947 -1.50047 0
M  V30 1238 H 113.233 -0.689621 0.28711 0
M  V30 1239 H 115.895 -1.40664 1.34906 0
M  V30 1240 H 114.991 -2.91595 1.11259 0
M  V30 1241 N 115.292 -0.849877 -1.32721 0
M  V30 1242 C 116.224 -0.248332 -2.27851 0
M  V30 1243 C 117.237 0.577218 -1.52224 0
M  V30 1244 O 118.426 0.402489 -1.73903 0
M  V30 1245 C 115.526 0.668107 -3.32249 0
M  V30 1246 C 114.699 -0.120534 -4.37234 0
M  V30 1247 C 113.758 0.720932 -5.21238 0
M  V30 1248 O 112.784 0.156166 -5.68986 0
M  V30 1249 N 113.986 2.03647 -5.43607 0
M  V30 1250 H 116.751 -1.06575 -2.80111 0
M  V30 1251 H 114.312 -0.709395 -1.45531 0
M  V30 1252 H 116.304 1.23627 -3.85355 0
M  V30 1253 H 114.874 1.38621 -2.80184 0
M  V30 1254 H 114.094 -0.870108 -3.84477 0
M  V30 1255 H 115.382 -0.662406 -5.0447 0
M  V30 1256 H 114.78 2.51871 -5.06535 0
M  V30 1257 H 113.337 2.55287 -5.99727 0
M  V30 1258 N 116.77 1.45427 -0.607355 0
M  V30 1259 C 118.181 1.85756 -0.187535 0
M  V30 1260 C 118.532 1.5077 1.25551 0
M  V30 1261 O 117.657 0.93427 1.95193 0
M  V30 1262 C 118.252 3.37154 -0.333572 0
M  V30 1263 C 116.811 3.76387 0.0315542 0
M  V30 1264 C 115.958 2.69377 -0.658117 0
M  V30 1265 H 118.909 1.36231 -0.81405 0
M  V30 1266 H 118.93 3.78014 0.43428 0
M  V30 1267 H 118.442 3.62586 -1.38393 0
M  V30 1268 H 116.543 3.56571 1.0811 0
M  V30 1269 H 116.656 4.77731 -0.361935 0
M  V30 1270 H 115.02 2.5452 -0.0957873 0
M  V30 1271 H 115.803 2.97646 -1.7106 0
M  V30 1272 N 118.248 0.346503 1.53744 0
M  V30 1273 C 119.158 -0.517293 2.28826 0
M  V30 1274 C 120.174 -1.10935 1.3405 0
M  V30 1275 O 121.35 -1.1244 1.6709 0
M  V30 1276 C 118.415 -1.65098 3.04866 0
M  V30 1277 C 117.476 -1.0884 4.15274 0
M  V30 1278 C 116.709 -2.16806 4.87679 0
M  V30 1279 O 116.932 -3.3758 4.59778 0
M  V30 1280 O 115.866 -1.80934 5.74061 0
M  V30 1281 H 119.692 0.0931396 3.03557 0
M  V30 1282 H 117.277 0.111458 1.48984 0
M  V30 1283 H 119.159 -2.31053 3.5241 0
M  V30 1284 H 117.834 -2.24717 2.32989 0
M  V30 1285 H 116.741 -0.3933 3.72027 0
M  V30 1286 H 118.074 -0.537036 4.89261 0
M  V30 1287 N 119.726 -1.57421 0.075193 0
M  V30 1288 C 121.137 -1.81021 -0.456964 0
M  V30 1289 C 121.488 -0.98936 -1.69429 0
M  V30 1290 O 120.613 -0.212865 -2.15351 0
M  V30 1291 C 121.208 -3.28329 -0.83581 0
M  V30 1292 C 119.767 -3.52764 -1.31281 0
M  V30 1293 C 118.914 -2.75676 -0.299648 0
M  V30 1294 H 121.865 -1.55822 0.300856 0
M  V30 1295 H 121.886 -3.40564 -1.69696 0
M  V30 1296 H 121.398 -3.88046 0.0649238 0
M  V30 1297 H 119.499 -2.98355 -2.23193 0
M  V30 1298 H 119.612 -4.61451 -1.28839 0
M  V30 1299 H 117.976 -2.42538 -0.777641 0
M  V30 1300 H 118.759 -3.38132 0.593417 0
M  V30 1301 N 121.204 0.198386 -1.56346 0
M  V30 1302 C 122.114 1.2664 -1.97483 0
M  V30 1303 C 123.13 1.49989 -0.882002 0
M  V30 1304 O 124.306 1.62668 -1.18748 0
M  V30 1305 C 121.371 2.59141 -2.30319 0
M  V30 1306 C 120.432 2.43892 -3.53292 0
M  V30 1307 C 119.665 3.70074 -3.84553 0
M  V30 1308 O 119.888 4.74101 -3.1715 0
M  V30 1309 O 118.822 3.658 -4.7799 0
M  V30 1310 H 122.648 0.947304 -2.88548 0
M  V30 1311 H 120.233 0.403123 -1.43859 0
M  V30 1312 H 122.115 3.37352 -2.5253 0
M  V30 1313 H 120.79 2.90684 -1.42423 0
M  V30 1314 H 119.697 1.63803 -3.36332 0
M  V30 1315 H 121.03 2.17282 -4.41644 0
M  V30 1316 N 122.682 1.50554 0.465978 0
M  V30 1317 C 123.928 1.62038 1.21949 0
M  V30 1318 C 124.261 0.322116 1.9151 0
M  V30 1319 O 123.536 -0.676723 1.82348 0
M  V30 1320 C 123.819 2.80421 2.25912 0
M  V30 1321 C 123.672 4.20144 1.60622 0
M  V30 1322 C 124.991 2.94354 3.27176 0
M  V30 1323 H 122.11 0.589752 0.441998 0
M  V30 1324 H 124.752 1.82956 0.51257 0
M  V30 1325 H 122.902 2.62717 2.86203 0
M  V30 1326 H 124.574 4.49449 1.03889 0
M  V30 1327 H 122.817 4.24165 0.909211 0
M  V30 1328 H 123.488 4.98914 2.36196 0
M  V30 1329 H 125.964 3.10578 2.76913 0
M  V30 1330 H 124.84 3.788 3.97242 0
M  V30 1331 H 125.101 2.05186 3.916 0
M  V30 1332 N 124.16 -0.719506 1.40217 0
M  V30 1333 C 125.07 -1.86378 1.42479 0
M  V30 1334 C 126.086 -1.71073 0.317834 0
M  V30 1335 O 127.262 -1.93406 0.561794 0
M  V30 1336 C 124.327 -3.22136 1.28178 0
M  V30 1337 C 123.388 -3.49723 2.48982 0
M  V30 1338 C 122.621 -4.79004 2.35353 0
M  V30 1339 O 122.844 -5.53821 1.36524 0
M  V30 1340 O 121.778 -5.06839 3.2465 0
M  V30 1341 H 125.604 -1.87425 2.38968 0
M  V30 1342 H 123.189 -0.869405 1.21498 0
M  V30 1343 H 125.071 -4.03234 1.22395 0
M  V30 1344 H 123.746 -3.21825 0.347934 0
M  V30 1345 H 122.653 -2.6865 2.60342 0
M  V30 1346 H 123.986 -3.54828 3.41113 0
M  V30 1347 N 125.638 -1.25649 -0.95132 0
M  V30 1348 C 126.568 -1.08808 -2.06599 0
M  V30 1349 C 127.549 0.00382547 -1.701 0
M  V30 1350 O 128.734 -0.166325 -1.93486 0
M  V30 1351 C 125.864 -0.709542 -3.39975 0
M  V30 1352 C 124.818 -1.75206 -3.90496 0
M  V30 1353 C 124.144 -1.22811 -5.20405 0
M  V30 1354 C 125.444 -3.15153 -4.16504 0
M  V30 1355 H 127.138 -2.02048 -2.20946 0
M  V30 1356 H 124.684 -0.972835 -1.06169 0
M  V30 1357 H 126.637 -0.578649 -4.17408 0
M  V30 1358 H 125.361 0.258556 -3.25575 0
M  V30 1359 H 124.02 -1.87145 -3.15234 0
M  V30 1360 H 123.668 -0.250145 -5.02378 0
M  V30 1361 H 123.368 -1.92492 -5.55176 0
M  V30 1362 H 124.892 -1.10968 -6.00432 0
M  V30 1363 H 126.306 -3.06349 -4.84586 0
M  V30 1364 H 124.703 -3.82333 -4.62538 0
M  V30 1365 H 125.773 -3.61966 -3.22658 0
M  V30 1366 N 127.117 1.15442 -1.07289 0
M  V30 1367 C 128.065 2.22225 -0.686952 0
M  V30 1368 C 129.059 1.66688 0.30193 0
M  V30 1369 O 130.265 1.79236 0.165712 0
M  V30 1370 H 126.64 0.723783 -0.204064 0
M  V30 1371 H 128.611 2.52056 -1.5972 0
M  V30 1372 C 127.36 3.47556 -0.100149 0
M  V30 1373 H 126.683 3.90612 -0.852211 0
M  V30 1374 H 128.123 4.23794 0.132235 0
M  V30 1375 C 126.582 3.16337 1.159 0
M  V30 1376 O 127.112 3.33074 2.24555 0
M  V30 1377 N 125.318 2.70385 1.06491 0
M  V30 1378 H 124.865 2.56966 0.180668 0
M  V30 1379 H 124.823 2.49871 1.90819 0
M  V30 1380 N 128.595 0.856903 1.32268 0
M  V30 1381 C 129.82 0.474569 2.01897 0
M  V30 1382 C 130.245 -0.921766 1.63967 0
M  V30 1383 O 129.603 -1.60589 0.84148 0
M  V30 1384 C 129.651 0.623799 3.55164 0
M  V30 1385 O 128.755 -0.342459 4.10976 0
M  V30 1386 H 128.096 0.190422 0.63611 0
M  V30 1387 H 130.626 1.15672 1.68764 0
M  V30 1388 H 130.636 0.512169 4.04773 0
M  V30 1389 H 129.311 1.64202 3.82113 0
M  V30 1390 H 127.888 -0.18688 3.72431 0
M  V30 1391 N 130.073 -1.45103 0.615059 0
M  V30 1392 C 130.983 -2.34382 -0.101034 0
M  V30 1393 C 131.999 -1.51681 -0.852585 0
M  V30 1394 O 133.175 -1.8446 -0.808484 0
M  V30 1395 C 130.24 -3.29417 -1.08099 0
M  V30 1396 C 129.301 -4.28025 -0.330577 0
M  V30 1397 C 128.534 -5.1852 -1.26385 0
M  V30 1398 O 128.757 -5.12598 -2.50198 0
M  V30 1399 O 127.691 -5.97122 -0.756866 0
M  V30 1400 H 131.517 -2.97033 0.632855 0
M  V30 1401 H 129.102 -1.4461 0.375293 0
M  V30 1402 H 130.984 -3.87958 -1.6452 0
M  V30 1403 H 129.659 -2.69321 -1.79577 0
M  V30 1404 H 128.566 -3.73078 0.276283 0
M  V30 1405 H 129.899 -4.90997 0.343866 0
M  V30 1406 N 131.551 -0.354651 -1.53558 0
M  V30 1407 C 132.799 0.237972 -2.00694 0
M  V30 1408 C 133.12 1.50173 -1.24391 0
M  V30 1409 O 132.39 1.92673 -0.354135 0
M  V30 1410 H 130.97 0.0909256 -0.741446 0
M  V30 1411 H 133.632 -0.478368 -1.88938 0
M  V30 1412 H 132.728 0.47264 -3.085 0
M  V30 1413 N 133.029 1.57378 -0.0835403 0
M  V30 1414 C 133.939 2.16897 0.894021 0
M  V30 1415 C 134.955 1.13528 1.31861 0
M  V30 1416 O 136.131 1.45848 1.3889 0
M  V30 1417 C 133.196 2.72831 2.13925 0
M  V30 1418 C 132.257 3.91115 1.76997 0
M  V30 1419 C 131.49 4.44371 2.95584 0
M  V30 1420 O 131.713 3.96596 4.09961 0
M  V30 1421 O 130.647 5.35549 2.74719 0
M  V30 1422 H 134.473 3.00814 0.417679 0
M  V30 1423 H 132.058 1.48741 0.140181 0
M  V30 1424 H 133.94 3.0863 2.86924 0
M  V30 1425 H 132.615 1.91967 2.60635 0
M  V30 1426 H 131.522 3.60148 1.01214 0
M  V30 1427 H 132.855 4.73307 1.3506 0
M  V30 1428 N 134.507 -0.190092 1.56449 0
M  V30 1429 C 135.417 -1.25591 1.98152 0
M  V30 1430 C 136.433 -1.49519 0.889944 0
M  V30 1431 O 137.609 -1.62036 1.19609 0
M  V30 1432 C 134.674 -2.57916 2.3169 0
M  V30 1433 C 133.735 -2.42015 3.5458 0
M  V30 1434 C 132.968 -3.6803 3.8651 0
M  V30 1435 O 133.191 -4.72413 3.1966 0
M  V30 1436 O 132.125 -3.6326 4.79923 0
M  V30 1437 H 135.951 -0.931988 2.89046 0
M  V30 1438 H 133.536 -0.395488 1.4407 0
M  V30 1439 H 135.418 -3.36008 2.54316 0
M  V30 1440 H 134.093 -2.89925 1.43963 0
M  V30 1441 H 133 -1.62017 3.37196 0
M  V30 1442 H 134.333 -2.14937 4.4279 0
M  V30 1443 N 135.985 -1.50799 -0.457987 0
M  V30 1444 C 137.231 -1.62683 -1.21088 0
M  V30 1445 C 137.564 -0.332268 -1.91336 0
M  V30 1446 O 136.839 0.667043 -1.82704 0
M  V30 1447 C 137.122 -2.81615 -2.24422 0
M  V30 1448 C 136.975 -4.20989 -1.58392 0
M  V30 1449 C 138.294 -2.96085 -3.2561 0
M  V30 1450 H 135.413 -0.592087 -0.438864 0
M  V30 1451 H 138.055 -1.83225 -0.50286 0
M  V30 1452 H 136.205 -2.64231 -2.84806 0
M  V30 1453 H 137.877 -4.49994 -1.01504 0
M  V30 1454 H 136.12 -4.24641 -0.886704 0
M  V30 1455 H 136.791 -5.0016 -2.33547 0
M  V30 1456 H 139.267 -3.12042 -2.75262 0
M  V30 1457 H 138.143 -3.80902 -3.95228 0
M  V30 1458 H 138.404 -2.0726 -3.90507 0
M  V30 1459 N 137.463 0.71206 -1.40597 0
M  V30 1460 C 138.874 1.29135 -1.34837 0
M  V30 1461 C 139.225 1.96186 -0.0235395 0
M  V30 1462 O 138.35 1.97768 0.878444 0
M  V30 1463 C 138.945 2.34827 -2.44217 0
M  V30 1464 C 137.504 2.88371 -2.41907 0
M  V30 1465 C 136.651 1.62202 -2.24913 0
M  V30 1466 H 139.602 0.507944 -1.50352 0
M  V30 1467 H 139.623 3.15749 -2.12327 0
M  V30 1468 H 139.135 1.85996 -3.40627 0
M  V30 1469 H 137.236 3.41422 -1.49204 0
M  V30 1470 H 137.349 3.39925 -3.37621 0
M  V30 1471 H 135.713 1.874 -1.72492 0
M  V30 1472 H 136.496 1.15391 -3.23326 0
M  V30 1473 N 138.941 1.26152 0.944643 0
M  V30 1474 C 140.352 1.10454 1.50522 0
M  V30 1475 C 140.703 -0.31635 1.93633 0
M  V30 1476 O 139.828 -1.20746 1.79581 0
M  V30 1477 C 140.423 1.99891 2.73549 0
M  V30 1478 C 138.982 1.88348 3.25886 0
M  V30 1479 C 138.129 1.93447 1.9868 0
M  V30 1480 H 141.08 1.39292 0.760489 0
M  V30 1481 H 141.101 1.54477 3.47732 0
M  V30 1482 H 140.613 3.03297 2.42141 0
M  V30 1483 H 138.714 0.878636 3.62092 0
M  V30 1484 H 138.827 2.73696 3.93227 0
M  V30 1485 H 137.191 1.37456 2.14425 0
M  V30 1486 H 137.974 2.98476 1.69607 0
M  V30 1487 N 140.419 -1.14872 1.07899 0
M  V30 1488 C 141.696 -1.81928 0.71845 0
M  V30 1489 C 142.076 -1.95417 -0.798455 0
M  V30 1490 O 141.424 -1.50997 -1.715 0
M  V30 1491 C 141.634 -3.17937 1.43935 0
M  V30 1492 C 142.982 -3.93501 1.59506 0
M  V30 1493 O 144.006 -3.27509 1.40058 0
M  V30 1494 O 142.865 -5.1183 1.91551 0
M  V30 1495 H 139.959 -0.78628 0.256305 0
M  V30 1496 H 142.505 -1.21934 1.18026 0
M  V30 1497 H 141.277 -3.0325 2.47295 0
M  V30 1498 H 140.9 -3.85619 0.968687 0
M  V30 1499 N 141.898 -0.863906 -1.31812 0
M  V30 1500 C 143.175 -0.39275 -1.91616 0
M  V30 1501 C 143.555 1.12461 -1.7865 0
M  V30 1502 O 142.903 1.95045 -1.19037 0
M  V30 1503 C 143.113 -0.867385 -3.38049 0
M  V30 1504 C 144.461 -0.889966 -4.15168 0
M  V30 1505 O 145.485 -0.812635 -3.46806 0
M  V30 1506 O 144.344 -1.00079 -5.37258 0
M  V30 1507 H 141.438 -0.116358 -0.818773 0
M  V30 1508 H 143.984 -0.951418 -1.40521 0
M  V30 1509 H 142.756 -1.91081 -3.41473 0
M  V30 1510 H 142.379 -0.286687 -3.96565 0
M  V30 1511 N 143.376 1.44774 -0.622745 0
M  V30 1512 C 144.787 1.85546 -0.207226 0
M  V30 1513 C 145.138 1.52093 1.23944 0
M  V30 1514 O 144.263 0.95492 1.94191 0
M  V30 1515 C 144.858 3.36781 -0.369313 0
M  V30 1516 C 143.417 3.76399 -0.00836847 0
M  V30 1517 C 142.564 2.68664 -0.686651 0
M  V30 1518 H 145.515 1.3536 -0.828454 0
M  V30 1519 H 145.536 3.78453 0.394162 0
M  V30 1520 H 145.048 3.61098 -1.42231 0
M  V30 1521 H 143.149 3.57698 1.04322 0
M  V30 1522 H 143.262 4.7732 -0.412584 0
M  V30 1523 H 141.626 2.54404 -0.122777 0
M  V30 1524 H 142.409 2.95815 -1.74208 0
M  V30 1525 N 144.854 0.36279 1.53368 0
M  V30 1526 C 146.265 -0.117022 1.86333 0
M  V30 1527 C 146.616 -1.48397 1.28347 0
M  V30 1528 O 145.741 -2.07787 0.604428 0
M  V30 1529 C 146.336 -0.21912 3.38091 0
M  V30 1530 C 144.895 -0.643184 3.70864 0
M  V30 1531 C 144.042 0.211318 2.76494 0
M  V30 1532 H 146.993 0.581687 1.47655 0
M  V30 1533 H 147.014 -1.04319 3.6592 0
M  V30 1534 H 146.526 0.775902 3.80265 0
M  V30 1535 H 144.627 -1.64654 3.34245 0
M  V30 1536 H 144.74 -0.41973 4.77258 0
M  V30 1537 H 143.104 -0.319367 2.5269 0
M  V30 1538 H 143.887 1.20383 3.21501 0
M  V30 1539 N 146.332 -1.57332 0.0918853 0
M  V30 1540 C 147.581 -1.93412 -0.572249 0
M  V30 1541 C 147.894 -0.975515 -1.69538 0
M  V30 1542 O 149.1 -1.22991 -2.42045 0
M  V30 1543 C 147.556 -3.43648 -1.0693 0
M  V30 1544 C 147.164 -4.47994 0.0239049 0
M  V30 1545 C 148.908 -3.88695 -1.70635 0
M  V30 1546 C 146.815 -5.89381 -0.488319 0
M  V30 1547 H 145.745 -0.721939 -0.217532 0
M  V30 1548 H 148.396 -1.82735 0.167369 0
M  V30 1549 H 146.778 -3.49466 -1.8625 0
M  V30 1550 H 147.952 -4.53815 0.799277 0
M  V30 1551 H 146.267 -4.12536 0.565946 0
M  V30 1552 H 148.864 -4.91725 -2.10025 0
M  V30 1553 H 149.207 -3.27166 -2.57426 0
M  V30 1554 H 149.74 -3.85564 -0.979023 0
M  V30 1555 H 146.479 -6.54602 0.342906 0
M  V30 1556 H 145.999 -5.87037 -1.23077 0
M  V30 1557 H 147.678 -6.39863 -0.958317 0
M  V30 1558 N 147.81 0.181792 -1.56548 0
M  V30 1559 C 149.05 0.906711 -1.83189 0
M  V30 1560 C 149.414 1.79882 -0.671312 0
M  V30 1561 O 150.615 2.56054 -0.81792 0
M  V30 1562 C 148.886 1.69023 -3.14906 0
M  V30 1563 S 150.445 2.46535 -3.62996 0
M  V30 1564 H 147.263 0.303877 -0.642791 0
M  V30 1565 H 149.865 0.169107 -1.94767 0
M  V30 1566 H 148.569 1.02571 -3.97376 0
M  V30 1567 H 148.1 2.46941 -3.06241 0
M  V30 1568 H 150.115 3.71014 -3.29489 0
M  V30 1569 N 149.288 1.51039 0.449983 0
M  V30 1570 C 150.534 1.63322 1.20223 0
M  V30 1571 C 150.867 0.34241 1.91158 0
M  V30 1572 O 150.142 -0.657344 1.83055 0
M  V30 1573 C 150.425 2.82801 2.22925 0
M  V30 1574 C 150.278 4.21823 1.56157 0
M  V30 1575 C 151.597 2.97807 3.24035 0
M  V30 1576 H 148.716 0.594407 0.435718 0
M  V30 1577 H 151.358 1.83489 0.493136 0
M  V30 1578 H 149.508 2.65738 2.834 0
M  V30 1579 H 151.18 4.50526 0.991162 0
M  V30 1580 H 149.423 4.25105 0.864172 0
M  V30 1581 H 150.094 5.01391 2.30891 0
M  V30 1582 H 152.57 3.13497 2.73603 0
M  V30 1583 H 151.446 3.82992 3.93202 0
M  V30 1584 H 151.707 2.09328 3.89402 0
M  V30 1585 N 150.766 -0.704594 1.40972 0
M  V30 1586 C 151.991 -1.49858 1.43378 0
M  V30 1587 C 152.416 -1.88061 0.038184 0
M  V30 1588 O 151.774 -1.5402 -0.956425 0
M  V30 1589 C 151.822 -2.74333 2.34038 0
M  V30 1590 O 150.926 -3.7147 1.7912 0
M  V30 1591 H 150.267 -0.45139 0.486974 0
M  V30 1592 H 152.797 -0.866832 1.8533 0
M  V30 1593 H 152.807 -3.22741 2.49604 0
M  V30 1594 H 151.482 -2.45863 3.35446 0
M  V30 1595 H 150.059 -3.30363 1.72958 0
M  V30 1596 N 152.244 -1.26651 -0.937939 0
M  V30 1597 C 153.521 -1.0313 -1.66204 0
M  V30 1598 C 153.901 0.437256 -2.06522 0
M  V30 1599 O 153.249 1.41831 -1.79154 0
M  V30 1600 C 153.459 -1.98314 -2.87181 0
M  V30 1601 C 154.807 -2.27107 -3.58758 0
M  V30 1602 O 155.831 -1.96205 -2.97291 0
M  V30 1603 O 154.69 -2.79736 -4.69479 0
M  V30 1604 H 151.784 -0.392384 -0.727986 0
M  V30 1605 H 154.33 -1.37874 -0.989382 0
M  V30 1606 H 153.102 -2.97399 -2.54302 0
M  V30 1607 H 152.725 -1.64068 -3.6217 0
M  V30 1608 N 153.722 1.14298 -1.08507 0
M  V30 1609 C 154.999 1.81544 -0.728088 0
M  V30 1610 C 155.379 1.95838 0.78808 0
M  V30 1611 O 154.727 1.51904 1.70697 0
M  V30 1612 C 154.937 3.17169 -1.45619 0
M  V30 1613 C 156.285 3.9265 -1.61591 0
M  V30 1614 O 157.309 3.26762 -1.41793 0
M  V30 1615 O 156.168 5.10807 -1.94263 0
M  V30 1616 H 153.262 0.78491 -0.260471 0
M  V30 1617 H 155.808 1.21307 -1.18671 0
M  V30 1618 H 154.58 3.01934 -2.489 0
M  V30 1619 H 154.203 3.851 -0.989124 0
M  V30 1620 N 155.201 0.870884 1.31352 0
M  V30 1621 C 156.149 0.316445 2.30437 0
M  V30 1622 C 157.143 -0.568965 1.59559 0
M  V30 1623 O 158.349 -0.454964 1.74155 0
M  V30 1624 H 154.724 0.0836521 0.747333 0
M  V30 1625 H 156.695 1.16606 2.74673 0
M  V30 1626 C 155.444 -0.46635 3.44558 0
M  V30 1627 H 154.767 0.205687 3.99271 0
M  V30 1628 H 156.207 -0.819614 4.16003 0
M  V30 1629 C 154.666 -1.65797 2.9328 0
M  V30 1630 O 155.196 -2.75728 2.92125 0
M  V30 1631 N 153.402 -1.49041 2.4947 0
M  V30 1632 H 152.949 -0.59612 2.50608 0
M  V30 1633 H 152.907 -2.28911 2.15516 0
M  V30 1634 N 156.679 -1.44442 0.630414 0
M  V30 1635 C 158.095 -1.56832 0.295973 0
M  V30 1636 C 158.295 -1.61806 -1.20088 0
M  V30 1637 O 157.351 -1.5607 -1.9849 0
M  V30 1638 C 158.664 -2.84031 0.987264 0
M  V30 1639 C 160.212 -2.97742 0.96534 0
M  V30 1640 C 160.687 -4.27743 1.63708 0
M  V30 1641 N 162.178 -4.34555 1.60364 0
M  V30 1642 C 162.913 -5.33862 2.09234 0
M  V30 1643 N 162.409 -6.39578 2.66292 0
M  V30 1644 N 164.202 -5.25366 1.99867 0
M  V30 1645 H 156.353 -1.39457 1.60205 0
M  V30 1646 H 158.616 -0.668237 0.672431 0
M  V30 1647 H 158.322 -2.86338 2.04215 0
M  V30 1648 H 158.196 -3.73534 0.524588 0
M  V30 1649 H 160.583 -2.94989 -0.0810639 0
M  V30 1650 H 160.664 -2.09589 1.4665 0
M  V30 1651 H 160.308 -4.31255 2.68293 0
M  V30 1652 H 160.238 -5.14752 1.11076 0
M  V30 1653 H 162.729 -3.58772 1.18705 0
M  V30 1654 H 163.042 -7.11637 3.01317 0
M  V30 1655 H 161.387 -6.40265 2.70343 0
M  V30 1656 H 164.578 -4.41688 1.55013 0
M  V30 1657 H 164.751 -6.02606 2.38265 0
M  V30 1658 N 158.157 -0.370918 -1.53173 0
M  V30 1659 C 159.087 0.464847 -2.28826 0
M  V30 1660 C 160.068 1.07936 -1.31468 0
M  V30 1661 O 161.253 1.0956 -1.60344 0
M  V30 1662 C 158.383 1.60196 -3.08147 0
M  V30 1663 C 157.337 1.11443 -4.13237 0
M  V30 1664 C 156.663 2.3422 -4.80672 0
M  V30 1665 C 157.963 0.195384 -5.21934 0
M  V30 1666 H 159.657 -0.166329 -2.98938 0
M  V30 1667 H 157.203 -0.0814359 -1.4377 0
M  V30 1668 H 159.156 2.19332 -3.59822 0
M  V30 1669 H 157.88 2.26045 -2.35735 0
M  V30 1670 H 156.539 0.545727 -3.62515 0
M  V30 1671 H 156.187 2.98537 -4.04827 0
M  V30 1672 H 155.887 2.02269 -5.51689 0
M  V30 1673 H 157.411 2.94032 -5.35143 0
M  V30 1674 H 158.825 0.694375 -5.69079 0
M  V30 1675 H 157.222 -0.0335027 -6.00091 0
M  V30 1676 H 158.292 -0.760961 -4.78892 0
M  V30 1677 N 159.635 1.57281 -0.100228 0
M  V30 1678 C 160.875 1.96419 0.56558 0
M  V30 1679 C 161.239 0.981265 1.65031 0
M  V30 1680 O 162.44 1.26133 2.37369 0
M  V30 1681 C 160.711 3.39996 1.10171 0
M  V30 1682 S 162.27 4.01134 1.77867 0
M  V30 1683 H 159.088 0.68667 0.184406 0
M  V30 1684 H 161.69 1.94662 -0.180851 0
M  V30 1685 H 160.394 4.09296 0.300803 0
M  V30 1686 H 159.925 3.45361 1.88385 0
M  V30 1687 H 161.94 3.90358 3.06326 0
M  V30 1688 N 161.113 -0.173488 1.56642 0
M  V30 1689 C 162.341 -0.906095 1.86004 0
M  V30 1690 C 162.756 -1.75921 0.685355 0
M  V30 1691 O 162.113 -1.79198 -0.345578 0
M  V30 1692 C 162.164 -1.78462 3.14378 0
M  V30 1693 O 161.885 -0.965914 4.27319 0
M  V30 1694 C 163.386 -2.62707 3.57071 0
M  V30 1695 H 160.606 -0.263341 0.617165 0
M  V30 1696 H 163.15 -0.174236 2.03756 0
M  V30 1697 H 161.305 -2.46984 2.98459 0
M  V30 1698 H 161.719 -1.56655 5.00559 0
M  V30 1699 H 163.193 -3.19969 4.49804 0
M  V30 1700 H 163.67 -3.37472 2.81086 0
M  V30 1701 H 164.276 -1.99521 3.75595 0
M  V30 1702 N 162.591 -1.51276 -0.441967 0
M  V30 1703 C 163.521 -1.752 -1.54361 0
M  V30 1704 C 164.502 -0.601682 -1.59103 0
M  V30 1705 O 165.687 -0.843913 -1.74905 0
M  V30 1706 C 162.817 -1.87282 -2.92477 0
M  V30 1707 C 161.771 -3.02687 -3.02596 0
M  V30 1708 C 161.097 -2.99947 -4.42647 0
M  V30 1709 C 162.397 -4.4273 -2.77106 0
M  V30 1710 H 164.091 -2.67442 -1.34592 0
M  V30 1711 H 161.637 -1.28694 -0.646048 0
M  V30 1712 H 163.59 -2.02602 -3.695 0
M  V30 1713 H 162.314 -0.916844 -3.13467 0
M  V30 1714 H 160.973 -2.87065 -2.28012 0
M  V30 1715 H 160.621 -2.02136 -4.60597 0
M  V30 1716 H 160.321 -3.77439 -4.50348 0
M  V30 1717 H 161.845 -3.17354 -5.2165 0
M  V30 1718 H 163.259 -4.58727 -3.43864 0
M  V30 1719 H 161.656 -5.21893 -2.96222 0
M  V30 1720 H 162.726 -4.53087 -1.72744 0
M  V30 1721 N 164.069 0.697108 -1.41344 0
M  V30 1722 C 165.032 1.79281 -1.42797 0
M  V30 1723 C 166.032 1.57607 -0.318837 0
M  V30 1724 O 167.222 1.64309 -0.578642 0
M  V30 1725 C 164.354 3.17632 -1.23785 0
M  V30 1726 H 165.547 1.79385 -2.40335 0
M  V30 1727 H 163.1 0.904582 -1.27464 0
M  V30 1728 H 163.835 3.23167 -0.270814 0
M  V30 1729 H 163.62 3.34765 -2.04144 0
M  V30 1730 H 165.11 3.97617 -1.27633 0
M  V30 1731 N 165.547 1.27147 0.931209 0
M  V30 1732 C 166.772 1.16191 1.71797 0
M  V30 1733 C 167.197 -0.278004 1.86034 0
M  V30 1734 O 166.555 -1.20137 1.35782 0
M  V30 1735 C 166.603 1.84673 3.09723 0
M  V30 1736 O 165.707 1.14231 3.96264 0
M  V30 1737 H 165.048 0.404303 0.526721 0
M  V30 1738 H 167.578 1.68152 1.1656 0
M  V30 1739 H 167.588 1.91893 3.60057 0
M  V30 1740 H 166.263 2.89421 2.98677 0
M  V30 1741 H 164.84 1.15056 3.54706 0
M  V30 1742 N 167.025 -1.13721 1.09112 0
M  V30 1743 C 167.955 -2.21148 0.749385 0
M  V30 1744 C 168.936 -1.6792 -0.271475 0
M  V30 1745 O 170.121 -1.93693 -0.140251 0
M  V30 1746 C 167.251 -3.46905 0.165659 0
M  V30 1747 C 166.205 -4.13203 1.11567 0
M  V30 1748 C 165.531 -5.33248 0.393809 0
M  V30 1749 C 166.831 -4.60912 2.45678 0
M  V30 1750 H 168.525 -2.4999 1.64758 0
M  V30 1751 H 166.071 -1.20156 0.793626 0
M  V30 1752 H 168.024 -4.21313 -0.085466 0
M  V30 1753 H 166.748 -3.17449 -0.767714 0
M  V30 1754 H 165.407 -3.40758 1.35202 0
M  V30 1755 H 165.055 -5.00054 -0.543599 0
M  V30 1756 H 164.755 -5.78552 1.02721 0
M  V30 1757 H 166.279 -6.10413 0.150908 0
M  V30 1758 H 167.693 -5.26759 2.26269 0
M  V30 1759 H 166.09 -5.16944 3.04776 0
M  V30 1760 H 167.16 -3.75603 3.06677 0
M  V30 1761 N 168.503 -0.877838 -1.30888 0
M  V30 1762 C 169.45 -0.337538 -2.28318 0
M  V30 1763 C 170.42 0.568346 -1.56074 0
M  V30 1764 O 171.605 0.498298 -1.84178 0
M  V30 1765 C 168.745 0.448142 -3.42178 0
M  V30 1766 C 167.858 -0.48615 -4.29256 0
M  V30 1767 C 166.993 0.314427 -5.30269 0
M  V30 1768 C 166.032 -0.615791 -6.08995 0
M  V30 1769 N 165.169 0.14902 -7.01942 0
M  V30 1770 H 170.009 -1.17356 -2.73919 0
M  V30 1771 H 167.546 -0.590094 -1.34745 0
M  V30 1772 H 169.504 0.919517 -4.06941 0
M  V30 1773 H 168.134 1.24879 -2.97666 0
M  V30 1774 H 167.186 -1.076 -3.64865 0
M  V30 1775 H 168.498 -1.19909 -4.84173 0
M  V30 1776 H 167.652 0.847969 -6.00745 0
M  V30 1777 H 166.391 1.06062 -4.76027 0
M  V30 1778 H 165.396 -1.16102 -5.37401 0
M  V30 1779 H 166.621 -1.36097 -6.65323 0
M  V30 1780 H 164.567 0.877884 -6.50099 0
M  V30 1781 H 164.484 -0.504433 -7.54315 0
M  V30 1782 H 165.752 0.663537 -7.76671 0
M  V30 1783 N 169.982 1.44106 -0.638065 0
M  V30 1784 C 170.945 2.29138 0.0531013 0
M  V30 1785 C 171.945 1.41409 0.765506 0
M  V30 1786 O 173.135 1.63206 0.609046 0
M  V30 1787 C 170.267 3.23144 1.08584 0
M  V30 1788 H 171.46 2.91739 -0.694883 0
M  V30 1789 H 169.013 1.51134 -0.398538 0
M  V30 1790 H 169.748 2.65408 1.86357 0
M  V30 1791 H 169.533 3.87804 0.578852 0
M  V30 1792 H 171.023 3.87004 1.56899 0
M  V30 1793 N 171.46 0.379036 1.52974 0
M  V30 1794 C 172.706 -0.206727 2.01744 0
M  V30 1795 C 173.039 -1.47314 1.26539 0
M  V30 1796 O 172.314 -1.91084 0.362903 0
M  V30 1797 C 172.597 -0.485066 3.56818 0
M  V30 1798 C 172.45 0.795919 4.42702 0
M  V30 1799 C 173.769 -1.28003 4.21074 0
M  V30 1800 H 170.888 -0.0736607 0.73331 0
M  V30 1801 H 173.53 0.506581 1.83122 0
M  V30 1802 H 171.68 -1.09272 3.72816 0
M  V30 1803 H 173.352 1.43307 4.38476 0
M  V30 1804 H 171.595 1.41344 4.10127 0
M  V30 1805 H 172.266 0.555947 5.49193 0
M  V30 1806 H 174.742 -0.765867 4.08991 0
M  V30 1807 H 173.618 -1.44352 5.29579 0
M  V30 1808 H 173.879 -2.29236 3.78026 0
M  V30 1809 N 172.938 -1.57226 0.108567 0
M  V30 1810 C 174.184 -1.95919 -0.546564 0
M  V30 1811 C 174.539 -0.990417 -1.6495 0
M  V30 1812 O 173.832 -0.0186593 -1.91591 0
M  V30 1813 C 174.026 -3.38911 -1.13463 0
M  V30 1814 C 173.855 -4.4961 -0.0901926 0
M  V30 1815 C 172.625 -5.04168 0.338008 0
M  V30 1816 C 174.823 -5.09693 0.686808 0
M  V30 1817 N 172.805 -5.98434 1.36931 0
M  V30 1818 C 174.176 -5.99804 1.56958 0
M  V30 1819 C 176.231 -4.92388 0.738846 0
M  V30 1820 C 174.934 -6.74463 2.49983 0
M  V30 1821 C 176.96 -5.67719 1.65676 0
M  V30 1822 C 176.322 -6.57507 2.52713 0
M  V30 1823 H 172.421 -0.763312 -0.169936 0
M  V30 1824 H 175.005 -1.93728 0.194264 0
M  V30 1825 H 173.176 -3.41769 -1.84522 0
M  V30 1826 H 174.908 -3.64752 -1.75322 0
M  V30 1827 H 171.663 -4.73571 -0.0523673 0
M  V30 1828 H 172.087 -6.5027 1.88356 0
M  V30 1829 H 176.729 -4.22724 0.080084 0
M  V30 1830 H 174.447 -7.4338 3.16878 0
M  V30 1831 H 178.033 -5.56338 1.70233 0
M  V30 1832 H 176.913 -7.14778 3.22586 0
M  V30 1833 N 174.416 0.165178 -1.56732 0
M  V30 1834 C 175.366 1.20917 -1.93295 0
M  V30 1835 C 176.35 1.39488 -0.801985 0
M  V30 1836 O 177.542 1.41356 -1.06525 0
M  V30 1837 C 174.671 2.54718 -2.3016 0
M  V30 1838 C 173.757 2.39815 -3.49785 0
M  V30 1839 N 174.148 1.94637 -4.66851 0
M  V30 1840 C 172.446 2.70623 -3.54513 0
M  V30 1841 C 173.147 1.92344 -5.4898 0
M  V30 1842 N 172.123 2.34978 -4.9019 0
M  V30 1843 H 175.925 0.851675 -2.81289 0
M  V30 1844 H 173.439 0.373399 -1.58049 0
M  V30 1845 H 175.436 3.30165 -2.54552 0
M  V30 1846 H 174.096 2.91265 -1.43508 0
M  V30 1847 H 175.107 1.6488 -4.90953 0
M  V30 1848 H 171.784 3.11167 -2.78354 0
M  V30 1849 H 173.174 1.5906 -6.52801 0
M  V30 1850 N 175.894 1.51508 0.433938 0
M  V30 1851 C 177.142 1.6402 1.18075 0
M  V30 1852 C 177.463 0.360328 1.91642 0
M  V30 1853 O 176.733 -0.623945 1.85698 0
M  V30 1854 H 175.313 0.6045 0.43885 0
M  V30 1855 H 177.975 1.88452 0.497178 0
M  V30 1856 H 177.071 2.46949 1.90847 0
M  V30 1857 N 177.372 -0.689602 1.41712 0
M  V30 1858 C 178.304 -1.815 1.39966 0
M  V30 1859 C 179.317 -1.59995 0.300917 0
M  V30 1860 O 180.506 -1.69387 0.563039 0
M  V30 1861 C 177.606 -3.18364 1.16179 0
M  V30 1862 C 176.779 -3.66847 2.38206 0
M  V30 1863 C 175.838 -4.82398 2.10186 0
M  V30 1864 O 174.864 -4.93706 2.83272 0
M  V30 1865 N 176.066 -5.70064 1.0958 0
M  V30 1866 H 178.831 -1.83488 2.36965 0
M  V30 1867 H 176.392 -0.872149 1.36401 0
M  V30 1868 H 178.384 -3.93301 0.953756 0
M  V30 1869 H 176.954 -3.11365 0.27756 0
M  V30 1870 H 176.174 -2.82751 2.74673 0
M  V30 1871 H 177.462 -3.95978 3.19498 0
M  V30 1872 H 176.86 -5.63565 0.491019 0
M  V30 1873 H 175.417 -6.44874 0.947656 0
M  V30 1874 N 178.85 -1.27639 -0.924453 0
M  V30 1875 C 179.797 -1.10644 -2.0255 0
M  V30 1876 C 180.767 -0.00658438 -1.66099 0
M  V30 1877 O 181.952 -0.16952 -1.90045 0
M  V30 1878 C 179.092 -0.76309 -3.36557 0
M  V30 1879 C 178.205 -1.94091 -3.85944 0
M  V30 1880 C 177.34 -1.53914 -5.08413 0
M  V30 1881 C 176.379 -2.68425 -5.50104 0
M  V30 1882 N 175.516 -2.28815 -6.63768 0
M  V30 1883 H 180.356 -2.04858 -2.16419 0
M  V30 1884 H 177.893 -1.01974 -1.06017 0
M  V30 1885 H 179.851 -0.544822 -4.13627 0
M  V30 1886 H 178.481 0.142102 -3.22487 0
M  V30 1887 H 177.533 -2.27162 -3.05125 0
M  V30 1888 H 178.845 -2.7998 -4.12811 0
M  V30 1889 H 177.999 -1.28231 -5.92994 0
M  V30 1890 H 176.738 -0.651391 -4.8333 0
M  V30 1891 H 175.743 -2.94819 -4.64071 0
M  V30 1892 H 176.968 -3.57826 -5.7718 0
M  V30 1893 H 174.914 -1.42495 -6.40337 0
M  V30 1894 H 174.831 -3.08242 -6.90306 0
M  V30 1895 H 176.099 -2.06387 -7.51681 0
M  V30 1896 N 180.328 1.1314 -1.09713 0
M  V30 1897 C 181.258 2.20748 -0.761102 0
M  V30 1898 C 182.239 1.68061 0.262566 0
M  V30 1899 O 183.424 1.93765 0.129977 0
M  V30 1900 C 180.554 3.46812 -0.184054 0
M  V30 1901 C 179.508 4.12606 -1.13757 0
M  V30 1902 C 178.834 5.33031 -0.422083 0
M  V30 1903 C 180.134 4.59603 -2.48118 0
M  V30 1904 H 181.828 2.49113 -1.66082 0
M  V30 1905 H 179.374 1.19734 -0.799987 0
M  V30 1906 H 181.327 4.21353 0.0631215 0
M  V30 1907 H 180.051 3.17851 0.750868 0
M  V30 1908 H 178.71 3.40036 -1.37007 0
M  V30 1909 H 178.358 5.00335 0.517072 0
M  V30 1910 H 178.058 5.77999 -1.05788 0
M  V30 1911 H 179.582 6.10325 -0.183277 0
M  V30 1912 H 180.996 5.25552 -2.29059 0
M  V30 1913 H 179.393 5.15321 -3.07514 0
M  V30 1914 H 180.463 3.73971 -3.08665 0
M  V30 1915 N 181.806 0.884767 1.30421 0
M  V30 1916 C 183.083 0.423185 1.90967 0
M  V30 1917 C 183.463 -1.09605 1.80416 0
M  V30 1918 O 182.811 -1.93126 1.22125 0
M  V30 1919 C 183.021 0.921056 3.36627 0
M  V30 1920 C 184.369 0.955903 4.137 0
M  V30 1921 O 185.393 0.867706 3.4547 0
M  V30 1922 O 184.252 1.08614 5.35598 0
M  V30 1923 H 181.346 0.129369 0.816819 0
M  V30 1924 H 183.892 0.973653 1.3899 0
M  V30 1925 H 182.664 1.96489 3.3839 0
M  V30 1926 H 182.287 0.349741 3.96059 0
M  V30 1927 N 183.284 -1.43765 0.645699 0
M  V30 1928 C 184.531 -2.01898 0.15604 0
M  V30 1929 C 184.859 -1.50887 -1.22733 0
M  V30 1930 O 184.114 -0.689271 -1.8316 0
M  V30 1931 C 184.413 -3.57238 0.107679 0
M  V30 1932 C 184.079 -4.27564 1.43178 0
M  V30 1933 C 182.741 -4.46492 1.7944 0
M  V30 1934 C 185.093 -4.67454 2.30513 0
M  V30 1935 C 182.421 -5.02573 3.02716 0
M  V30 1936 C 184.773 -5.24901 3.53074 0
M  V30 1937 C 183.437 -5.42046 3.89541 0
M  V30 1938 H 182.707 -0.738797 0.057099 0
M  V30 1939 H 185.354 -1.72341 0.834912 0
M  V30 1940 H 183.659 -3.86293 -0.654618 0
M  V30 1941 H 185.356 -3.99965 -0.287938 0
M  V30 1942 H 181.946 -4.13171 1.13963 0
M  V30 1943 H 186.13 -4.5253 2.0379 0
M  V30 1944 H 181.386 -5.14033 3.31028 0
M  V30 1945 H 185.56 -5.54758 4.20971 0
M  V30 1946 H 183.187 -5.85268 4.85145 0
M  V30 1947 N 184.763 -0.387143 -1.52771 0
M  V30 1948 C 186.01 0.195735 -2.01552 0
M  V30 1949 C 186.338 1.46995 -1.27369 0
M  V30 1950 O 185.593 1.92325 -0.361879 0
M  V30 1951 C 185.892 0.512209 -3.53711 0
M  V30 1952 C 185.558 -0.670202 -4.45891 0
M  V30 1953 C 184.22 -0.994586 -4.70809 0
M  V30 1954 C 186.572 -1.46134 -5.00294 0
M  V30 1955 C 183.9 -2.11169 -5.4738 0
M  V30 1956 C 186.252 -2.56903 -5.78086 0
M  V30 1957 C 184.916 -2.89852 -6.01284 0
M  V30 1958 H 184.186 0.0716246 -0.73753 0
M  V30 1959 H 186.833 -0.524046 -1.8419 0
M  V30 1960 H 185.138 1.31329 -3.69134 0
M  V30 1961 H 186.835 0.975804 -3.88946 0
M  V30 1962 H 183.425 -0.407366 -4.2666 0
M  V30 1963 H 187.609 -1.22397 -4.80971 0
M  V30 1964 H 182.865 -2.3707 -5.63567 0
M  V30 1965 H 187.039 -3.18608 -6.19243 0
M  V30 1966 H 184.666 -3.76533 -6.60399 0
M  V30 1967 N 186.241 1.57166 -0.116904 0
M  V30 1968 C 187.188 2.15202 0.83408 0
M  V30 1969 C 188.158 1.07644 1.26499 0
M  V30 1970 O 189.343 1.35541 1.34288 0
M  V30 1971 C 186.483 2.75405 2.07957 0
M  V30 1972 C 185.596 3.97264 1.69721 0
M  V30 1973 C 184.731 4.45561 2.89221 0
M  V30 1974 C 183.77 5.59956 2.47215 0
M  V30 1975 N 182.907 6.03006 3.59622 0
M  V30 1976 H 187.747 2.96141 0.332335 0
M  V30 1977 H 185.284 1.46309 0.152349 0
M  V30 1978 H 187.242 3.08439 2.80929 0
M  V30 1979 H 185.872 1.97159 2.55594 0
M  V30 1980 H 184.924 3.70404 0.866316 0
M  V30 1981 H 186.236 4.80226 1.34849 0
M  V30 1982 H 185.39 4.80493 3.7042 0
M  V30 1983 H 184.129 3.61544 3.27318 0
M  V30 1984 H 183.134 5.2463 1.64448 0
M  V30 1985 H 184.359 6.45738 2.10238 0
M  V30 1986 H 182.305 5.21931 3.97396 0
M  V30 1987 H 182.222 6.80819 3.28667 0
M  V30 1988 H 183.49 6.42576 4.41267 0
M  V30 1989 N 187.719 -0.156864 1.56817 0
M  V30 1990 C 188.651 -1.21883 1.94106 0
M  V30 1991 C 189.664 -1.3971 0.835754 0
M  V30 1992 O 190.853 -1.39457 1.11418 0
M  V30 1993 C 187.953 -2.58527 2.19127 0
M  V30 1994 C 187.126 -2.61809 3.50393 0
M  V30 1995 C 186.185 -3.7992 3.64071 0
M  V30 1996 O 185.211 -3.65249 4.36557 0
M  V30 1997 N 186.413 -4.96973 2.99997 0
M  V30 1998 H 189.178 -0.901974 2.85805 0
M  V30 1999 H 186.739 -0.346513 1.58148 0
M  V30 2000 H 188.731 -3.36034 2.25529 0
M  V30 2001 H 187.301 -2.82545 1.33742 0
M  V30 2002 H 186.521 -1.7029 3.5552 0
M  V30 2003 H 187.809 -2.61024 4.36742 0
M  V30 2004 H 187.207 -5.11794 2.41004 0
M  V30 2005 H 185.764 -5.7229 3.11974 0
M  V30 2006 N 189.197 -1.51736 -0.425897 0
M  V30 2007 C 190.16 -1.73271 -1.50032 0
M  V30 2008 C 191.16 -0.602639 -1.4908 0
M  V30 2009 O 192.35 -0.87033 -1.509 0
M  V30 2010 C 189.482 -1.79969 -2.89523 0
M  V30 2011 H 190.675 -2.69172 -1.32237 0
M  V30 2012 H 188.228 -1.41899 -0.65532 0
M  V30 2013 H 188.963 -0.859241 -3.1271 0
M  V30 2014 H 188.748 -2.62109 -2.91619 0
M  V30 2015 H 190.238 -1.9843 -3.67444 0
M  V30 2016 N 190.675 0.682077 -1.42076 0
M  V30 2017 C 191.625 1.78823 -1.41444 0
M  V30 2018 C 192.609 1.58323 -0.28681 0
M  V30 2019 O 193.801 1.68926 -0.528498 0
M  V30 2020 C 190.93 3.17232 -1.3122 0
M  V30 2021 C 190.016 3.4338 -2.489 0
M  V30 2022 N 190.407 3.40152 -3.7434 0
M  V30 2023 C 188.705 3.73986 -2.43003 0
M  V30 2024 C 189.406 3.65581 -4.52466 0
M  V30 2025 N 188.382 3.85989 -3.8277 0
M  V30 2026 H 192.184 1.7471 -2.36334 0
M  V30 2027 H 189.698 0.882622 -1.36321 0
M  V30 2028 H 191.695 3.96489 -1.2885 0
M  V30 2029 H 190.355 3.22547 -0.373263 0
M  V30 2030 H 191.366 3.20221 -4.07037 0
M  V30 2031 H 188.043 3.86591 -1.57651 0
M  V30 2032 H 189.433 3.69108 -5.61435 0
M  V30 2033 N 192.153 1.28127 0.917671 0
M  V30 2034 C 193.063 1.13556 2.05286 0
M  V30 2035 C 194.079 0.0630914 1.73886 0
M  V30 2036 O 195.255 0.271598 1.9956 0
M  V30 2037 C 192.32 0.794676 3.3747 0
M  V30 2038 C 191.381 1.94909 3.82504 0
M  V30 2039 C 190.614 1.62437 5.0838 0
M  V30 2040 O 190.837 0.536905 5.67867 0
M  V30 2041 O 189.771 2.46677 5.4903 0
M  V30 2042 H 193.597 2.08844 2.20495 0
M  V30 2043 H 191.182 1.07409 1.03845 0
M  V30 2044 H 193.064 0.618344 4.16839 0
M  V30 2045 H 191.739 -0.128581 3.23445 0
M  V30 2046 H 190.646 2.18055 3.03978 0
M  V30 2047 H 191.979 2.85291 4.01086 0
M  V30 2048 N 193.631 -1.12557 1.10312 0
M  V30 2049 C 194.879 -1.83675 0.843091 0
M  V30 2050 C 195.2 -1.84435 -0.633131 0
M  V30 2051 O 194.47 -1.30657 -1.45964 0
M  V30 2052 H 193.05 -0.680138 0.308904 0
M  V30 2053 H 195.712 -1.36301 1.39313 0
M  V30 2054 H 194.808 -2.87908 1.2048 0
M  V30 2055 N 195.109 -0.891671 -1.2995 0
M  V30 2056 C 196.357 -0.512486 -1.95494 0
M  V30 2057 C 196.678 0.942776 -1.70695 0
M  V30 2058 O 195.948 1.66374 -1.03424 0
M  V30 2059 H 194.528 -0.186533 -0.723336 0
M  V30 2060 H 197.19 -1.13621 -1.58355 0
M  V30 2061 H 196.286 -0.688342 -3.04415 0
M  V30 2062 N 196.587 1.43421 -0.653314 0
M  V30 2063 C 197.998 1.85065 -0.246537 0
M  V30 2064 C 198.349 1.54688 1.2069 0
M  V30 2065 O 197.474 0.995896 1.92122 0
M  V30 2066 C 198.069 3.35922 -0.440666 0
M  V30 2067 C 196.628 3.76297 -0.0882064 0
M  V30 2068 C 195.775 2.67147 -0.743484 0
M  V30 2069 H 198.726 1.33572 -0.856979 0
M  V30 2070 H 198.747 3.79204 0.313798 0
M  V30 2071 H 198.259 3.58 -1.49858 0
M  V30 2072 H 196.36 3.5983 0.96711 0
M  V30 2073 H 196.473 4.76338 -0.513738 0
M  V30 2074 H 194.837 2.54086 -0.176712 0
M  V30 2075 H 195.62 2.92053 -1.80443 0
M  V30 2076 N 198.065 0.39524 1.52563 0
M  V30 2077 C 199.028 -0.425001 2.25225 0
M  V30 2078 C 200.028 -0.985266 1.27079 0
M  V30 2079 O 201.218 -0.866332 1.5113 0
M  V30 2080 C 198.35 -1.59686 3.01186 0
M  V30 2081 H 199.543 0.211233 2.99155 0
M  V30 2082 H 197.096 0.147472 1.55603 0
M  V30 2083 H 197.831 -2.27035 2.31572 0
M  V30 2084 H 197.616 -1.20176 3.73229 0
M  V30 2085 H 199.106 -2.17743 3.5634 0
M  V30 2086 N 199.544 -1.57102 0.125237 0
M  V30 2087 C 200.955 -1.82384 -0.399142 0
M  V30 2088 C 201.306 -1.04276 -1.66195 0
M  V30 2089 O 200.431 -0.281269 -2.14564 0
M  V30 2090 C 201.026 -3.30821 -0.730932 0
M  V30 2091 C 199.585 -3.56762 -1.19992 0
M  V30 2092 C 198.732 -2.7649 -0.211792 0
M  V30 2093 H 201.683 -1.54786 0.350277 0
M  V30 2094 H 201.704 -3.4579 -1.58775 0
M  V30 2095 H 201.216 -3.87643 0.188345 0
M  V30 2096 H 199.317 -3.05305 -2.13588 0
M  V30 2097 H 199.43 -4.65317 -1.14093 0
M  V30 2098 H 197.794 -2.4489 -0.700085 0
M  V30 2099 H 198.577 -3.36073 0.700691 0
M  V30 2100 N 201.022 0.148545 -1.56898 0
M  V30 2101 C 201.97 1.20265 -1.99096 0
M  V30 2102 C 202.964 1.44559 -0.883123 0
M  V30 2103 O 204.17 1.4487 -1.0683 0
M  V30 2104 H 200.545 0.404786 -0.63376 0
M  V30 2105 H 202.516 0.82004 -2.86911 0
M  V30 2106 C 201.265 2.52886 -2.3863 0
M  V30 2107 H 200.588 2.35021 -3.23427 0
M  V30 2108 H 202.028 3.25274 -2.7198 0
M  V30 2109 C 200.487 3.13315 -1.23837 0
M  V30 2110 O 201.017 3.98077 -0.538268 0
M  V30 2111 N 199.223 2.72742 -1.00301 0
M  V30 2112 H 198.77 2.03912 -1.5741 0
M  V30 2113 H 198.728 3.13507 -0.236838 0
M  V30 2114 N 202.5 1.5196 0.417844 0
M  V30 2115 C 203.725 1.69717 1.1921 0
M  V30 2116 C 204.15 0.402148 1.83751 0
M  V30 2117 O 203.508 -0.639593 1.69643 0
M  V30 2118 C 203.556 2.82794 2.2374 0
M  V30 2119 O 202.66 2.47756 3.29683 0
M  V30 2120 H 202.001 0.565263 0.348387 0
M  V30 2121 H 204.531 1.98621 0.490985 0
M  V30 2122 H 204.541 3.07452 2.68212 0
M  V30 2123 H 203.216 3.76756 1.76146 0
M  V30 2124 H 201.793 2.33739 2.90552 0
M  V30 2125 N 203.978 -0.674533 1.42435 0
M  V30 2126 C 204.888 -1.81751 1.48337 0
M  V30 2127 C 205.904 -1.69975 0.372099 0
M  V30 2128 O 207.08 -1.91521 0.62304 0
M  V30 2129 C 204.145 -3.17895 1.38361 0
M  V30 2130 C 203.206 -3.41625 2.59982 0
M  V30 2131 C 202.439 -4.71274 2.50473 0
M  V30 2132 O 202.662 -5.49197 1.54075 0
M  V30 2133 O 201.596 -4.96254 3.4061 0
M  V30 2134 H 205.422 -1.79728 2.44809 0
M  V30 2135 H 203.007 -0.830312 1.24202 0
M  V30 2136 H 204.889 -3.99136 1.35161 0
M  V30 2137 H 203.564 -3.20555 0.450144 0
M  V30 2138 H 202.471 -2.60231 2.68757 0
M  V30 2139 H 203.804 -3.43796 3.52229 0
M  V30 2140 N 205.456 -1.28612 -0.910864 0
M  V30 2141 C 206.702 -1.16106 -1.66274 0
M  V30 2142 C 207.035 0.289113 -1.92036 0
M  V30 2143 O 206.31 1.21 -1.52281 0
M  V30 2144 C 206.593 -1.96309 -3.01885 0
M  V30 2145 C 206.446 -3.49405 -2.8326 0
M  V30 2146 C 207.765 -1.78076 -4.02463 0
M  V30 2147 H 204.884 -0.423152 -0.603417 0
M  V30 2148 H 207.526 -1.57961 -1.05586 0
M  V30 2149 H 205.676 -1.60742 -3.53687 0
M  V30 2150 H 207.348 -3.94894 -2.38446 0
M  V30 2151 H 205.591 -3.74893 -2.18261 0
M  V30 2152 H 206.262 -4.00784 -3.79574 0
M  V30 2153 H 208.738 -2.0912 -3.59733 0
M  V30 2154 H 207.614 -2.36561 -4.95308 0
M  V30 2155 H 207.875 -0.733008 -4.35981 0
M  V30 2156 N 206.934 1.1197 -1.10907 0
M  V30 2157 C 208.18 1.8386 -0.855773 0
M  V30 2158 C 208.513 1.84134 0.617103 0
M  V30 2159 O 207.788 1.29041 1.45529 0
M  V30 2160 C 208.071 3.31305 -1.411 0
M  V30 2161 C 207.924 3.39456 -2.9511 0
M  V30 2162 C 209.243 4.2721 -1.05736 0
M  V30 2163 H 206.362 0.667545 -0.312334 0
M  V30 2164 H 209.004 1.31331 -1.37303 0
M  V30 2165 H 207.154 3.76169 -0.97105 0
M  V30 2166 H 208.826 3.03191 -3.47668 0
M  V30 2167 H 207.069 2.79849 -3.31462 0
M  V30 2168 H 207.74 4.43209 -3.29044 0
M  V30 2169 H 210.216 3.90497 -1.43706 0
M  V30 2170 H 209.092 5.28775 -1.47269 0
M  V30 2171 H 209.353 4.42088 0.0325958 0
M  V30 2172 N 208.412 0.89855 1.29475 0
M  V30 2173 C 209.342 0.39201 2.30186 0
M  V30 2174 C 210.323 -0.532359 1.61555 0
M  V30 2175 O 211.508 -0.443331 1.89072 0
M  V30 2176 C 208.638 -0.382353 3.45189 0
M  V30 2177 C 207.592 0.451483 4.25612 0
M  V30 2178 C 206.918 -0.450307 5.328 0
M  V30 2179 C 208.218 1.70079 4.93832 0
M  V30 2180 H 209.912 1.23362 2.72804 0
M  V30 2181 H 207.458 0.594638 1.31149 0
M  V30 2182 H 209.411 -0.747451 4.14718 0
M  V30 2183 H 208.135 -1.25774 3.01411 0
M  V30 2184 H 206.794 0.798897 3.57789 0
M  V30 2185 H 206.442 -1.32379 4.85268 0
M  V30 2186 H 206.142 0.103902 5.87508 0
M  V30 2187 H 207.666 -0.811623 6.05182 0
M  V30 2188 H 209.08 1.40549 5.55805 0
M  V30 2189 H 207.477 2.19623 5.58467 0
M  V30 2190 H 208.547 2.43744 4.19186 0
M  V30 2191 N 209.89 -1.43072 0.660911 0
M  V30 2192 C 211.301 -1.84932 0.256348 0
M  V30 2193 C 211.652 -1.55325 -1.19868 0
M  V30 2194 O 210.777 -1.00607 -1.91591 0
M  V30 2195 C 211.372 -3.35684 0.458475 0
M  V30 2196 C 209.931 -3.76245 0.108161 0
M  V30 2197 C 209.078 -2.66749 0.757641 0
M  V30 2198 H 212.029 -1.33116 0.864051 0
M  V30 2199 H 212.05 -3.79365 -0.293683 0
M  V30 2200 H 211.562 -3.572 1.51755 0
M  V30 2201 H 209.663 -3.60338 -0.948014 0
M  V30 2202 H 209.776 -4.76058 0.538992 0
M  V30 2203 H 208.14 -2.53989 0.190185 0
M  V30 2204 H 208.923 -2.91092 1.81989 0
M  V30 2205 N 211.368 -0.403325 -1.52352 0
M  V30 2206 C 212.645 0.232611 -1.94212 0
M  V30 2207 C 213.025 1.63133 -1.33981 0
M  V30 2208 O 212.373 2.22659 -0.513344 0
M  V30 2209 C 212.583 0.244811 -3.4814 0
M  V30 2210 C 213.931 0.46698 -4.22024 0
M  V30 2211 O 214.955 0.324419 -3.5472 0
M  V30 2212 O 213.814 0.74747 -5.41364 0
M  V30 2213 H 210.908 0.148223 -0.813609 0
M  V30 2214 H 213.454 -0.458848 -1.63379 0
M  V30 2215 H 212.226 -0.734378 -3.84347 0
M  V30 2216 H 211.849 0.980611 -3.85318 0
M  V30 2217 N 212.846 1.57033 -0.133567 0
M  V30 2218 C 214.094 1.953 0.519848 0
M  V30 2219 C 214.415 1.01866 1.66278 0
M  V30 2220 O 213.685 0.0776513 1.95746 0
M  V30 2221 H 212.265 0.721091 0.195032 0
M  V30 2222 H 214.927 1.93809 -0.205921 0
M  V30 2223 H 214.023 2.98695 0.904854 0
M  V30 2224 N 214.325 -0.140222 1.56975 0
M  V30 2225 C 215.572 -0.851687 1.83719 0
M  V30 2226 C 215.9 -1.80862 0.715485 0
M  V30 2227 O 215.155 -1.93464 -0.294956 0
M  V30 2228 C 215.454 -1.65386 3.16832 0
M  V30 2229 C 215.12 -0.843112 4.42947 0
M  V30 2230 C 213.782 -0.619464 4.77196 0
M  V30 2231 C 216.134 -0.276582 5.20466 0
M  V30 2232 C 213.462 0.181312 5.8642 0
M  V30 2233 C 215.814 0.51127 6.30531 0
M  V30 2234 C 214.478 0.745432 6.63325 0
M  V30 2235 H 213.748 -0.311654 0.672274 0
M  V30 2236 H 216.395 -0.115006 1.91154 0
M  V30 2237 H 214.7 -2.46084 3.04877 0
M  V30 2238 H 216.397 -2.20793 3.34741 0
M  V30 2239 H 212.987 -1.0275 4.16101 0
M  V30 2240 H 217.171 -0.436632 4.94376 0
M  V30 2241 H 212.427 0.372165 6.10266 0
M  V30 2242 H 216.601 0.957354 6.89788 0
M  V30 2243 H 214.228 1.36778 7.47794 0
M  V30 2244 N 215.803 -1.52179 -0.40978 0
M  V30 2245 C 216.735 -1.71703 -1.51825 0
M  V30 2246 C 217.748 -0.597445 -1.51441 0
M  V30 2247 O 218.937 -0.872582 -1.55719 0
M  V30 2248 C 216.037 -1.74171 -2.90719 0
M  V30 2249 C 215.21 -3.03156 -3.15302 0
M  V30 2250 C 214.269 -2.97445 -4.34065 0
M  V30 2251 O 213.295 -3.71352 -4.31377 0
M  V30 2252 N 214.497 -2.15191 -5.39141 0
M  V30 2253 H 217.262 -2.67334 -1.35472 0
M  V30 2254 H 214.823 -1.50409 -0.599069 0
M  V30 2255 H 216.815 -1.67884 -3.68235 0
M  V30 2256 H 215.385 -0.860166 -3.00533 0
M  V30 2257 H 214.605 -3.23097 -2.25836 0
M  V30 2258 H 215.893 -3.88484 -3.28569 0
M  V30 2259 H 215.291 -1.54573 -5.44173 0
M  V30 2260 H 213.848 -2.1476 -6.15403 0
M  V30 2261 N 217.281 0.66697 -1.42791 0
M  V30 2262 C 218.506 1.46004 -1.47301 0
M  V30 2263 C 218.931 1.87894 -0.0880317 0
M  V30 2264 O 218.289 1.56502 0.915253 0
M  V30 2265 C 218.337 2.68031 -2.41229 0
M  V30 2266 O 217.441 3.6659 -1.88906 0
M  V30 2267 H 216.782 0.43832 -0.49877 0
M  V30 2268 H 219.312 0.817391 -1.87563 0
M  V30 2269 H 219.322 3.1601 -2.58073 0
M  V30 2270 H 217.997 2.36883 -3.41847 0
M  V30 2271 H 216.574 3.25661 -1.81656 0
M  V30 2272 N 218.759 1.29093 0.90403 0
M  V30 2273 C 219.691 1.09658 2.01266 0
M  V30 2274 C 220.704 0.0453729 1.62737 0
M  V30 2275 O 221.893 0.289446 1.76138 0
M  V30 2276 C 218.993 0.646278 3.32681 0
M  V30 2277 C 218.166 1.77505 3.99763 0
M  V30 2278 C 217.225 1.31649 5.09465 0
M  V30 2279 O 216.251 2.02045 5.32134 0
M  V30 2280 N 217.453 0.184997 5.80205 0
M  V30 2281 H 220.218 2.05135 2.18494 0
M  V30 2282 H 217.779 1.20975 1.07594 0
M  V30 2283 H 219.771 0.322906 4.0341 0
M  V30 2284 H 218.341 -0.215916 3.11853 0
M  V30 2285 H 217.561 2.26752 3.22455 0
M  V30 2286 H 218.849 2.53198 4.41325 0
M  V30 2287 H 218.247 -0.402021 5.6427 0
M  V30 2288 H 216.804 -0.0790358 6.51752 0
M  V30 2289 N 220.237 -1.11381 1.11499 0
M  V30 2290 C 221.187 -2.15555 0.74298 0
M  V30 2291 C 222.171 -1.58894 -0.253276 0
M  V30 2292 O 223.363 -1.76897 -0.0602918 0
M  V30 2293 C 220.492 -3.42782 0.188481 0
M  V30 2294 C 219.578 -4.064 1.21244 0
M  V30 2295 N 219.969 -4.44864 2.40685 0
M  V30 2296 C 218.267 -4.3333 1.05552 0
M  V30 2297 C 218.968 -4.94715 3.05994 0
M  V30 2298 N 217.944 -4.90909 2.33472 0
M  V30 2299 H 221.746 -2.43074 1.65203 0
M  V30 2300 H 219.26 -1.28401 0.994329 0
M  V30 2301 H 221.257 -4.16789 -0.0961693 0
M  V30 2302 H 219.917 -3.16727 -0.715149 0
M  V30 2303 H 220.928 -4.36876 2.78136 0
M  V30 2304 H 217.605 -4.1698 0.208372 0
M  V30 2305 H 218.995 -5.34103 4.07656 0
M  V30 2306 N 221.715 -0.905404 -1.28997 0
M  V30 2307 C 222.964 -0.530191 -1.94607 0
M  V30 2308 C 223.277 0.929185 -1.72121 0
M  V30 2309 O 224.483 1.41218 -2.31883 0
M  V30 2310 C 222.939 -0.897333 -3.48534 0
M  V30 2311 C 222.547 -2.37587 -3.79811 0
M  V30 2312 C 224.291 -0.592304 -4.20347 0
M  V30 2313 C 222.198 -2.68357 -5.27009 0
M  V30 2314 H 221.128 -0.194558 -0.728466 0
M  V30 2315 H 223.779 -1.10318 -1.46636 0
M  V30 2316 H 222.161 -0.253214 -3.9519 0
M  V30 2317 H 223.335 -3.06602 -3.43994 0
M  V30 2318 H 221.65 -2.6505 -3.2115 0
M  V30 2319 H 224.247 -0.798975 -5.28697 0
M  V30 2320 H 224.59 0.469474 -4.13644 0
M  V30 2321 H 225.123 -1.19452 -3.79442 0
M  V30 2322 H 221.862 -3.73355 -5.38782 0
M  V30 2323 H 221.382 -2.03971 -5.64053 0
M  V30 2324 H 223.061 -2.54922 -5.94663 0
M  V30 2325 N 223.193 1.4272 -0.668489 0
M  V30 2326 C 224.123 2.335 -0.000100175 0
M  V30 2327 C 225.104 1.50328 0.795964 0
M  V30 2328 O 226.289 1.78949 0.754385 0
M  V30 2329 C 223.419 3.33874 0.956302 0
M  V30 2330 C 222.373 4.27152 0.269278 0
M  V30 2331 C 221.699 5.17684 1.33818 0
M  V30 2332 C 222.999 5.15373 -0.847805 0
M  V30 2333 H 224.693 2.89639 -0.758244 0
M  V30 2334 H 222.239 1.39269 -0.366079 0
M  V30 2335 H 224.192 3.9629 1.43292 0
M  V30 2336 H 222.916 2.76025 1.74579 0
M  V30 2337 H 221.575 3.66123 -0.187042 0
M  V30 2338 H 221.223 4.56165 2.1195 0
M  V30 2339 H 220.923 5.80918 0.883659 0
M  V30 2340 H 222.447 5.82974 1.81586 0
M  V30 2341 H 223.861 5.7151 -0.452681 0
M  V30 2342 H 222.258 5.87407 -1.22773 0
M  V30 2343 H 223.328 4.5415 -1.69929 0
M  V30 2344 N 224.671 0.411399 1.52136 0
M  V30 2345 C 225.948 -0.222308 1.94333 0
M  V30 2346 C 226.328 -1.6242 1.34844 0
M  V30 2347 O 225.676 -2.22384 0.525145 0
M  V30 2348 C 225.886 -0.226345 3.48265 0
M  V30 2349 C 227.234 -0.444592 4.22266 0
M  V30 2350 O 228.258 -0.305602 3.54887 0
M  V30 2351 O 227.117 -0.718749 5.41753 0
M  V30 2352 H 224.211 -0.143907 0.814383 0
M  V30 2353 H 226.757 0.467506 1.63133 0
M  V30 2354 H 225.529 0.75475 3.83952 0
M  V30 2355 H 225.152 -0.960163 3.85832 0
M  V30 2356 N 226.149 -1.5696 0.141893 0
M  V30 2357 C 227.379 -2.00031 -0.516828 0
M  V30 2358 C 227.787 -1.02091 -1.59293 0
M  V30 2359 O 227.13 -0.00909657 -1.83698 0
M  V30 2360 C 227.192 -3.39534 -1.1814 0
M  V30 2361 C 226.856 -4.56313 -0.250513 0
M  V30 2362 C 227.853 -5.17295 0.519839 0
M  V30 2363 C 225.538 -5.02061 -0.154907 0
M  V30 2364 C 227.532 -6.2243 1.3733 0
M  V30 2365 C 225.219 -6.07053 0.702161 0
M  V30 2366 C 226.217 -6.67106 1.46487 0
M  V30 2367 O 225.905 -7.70066 2.30767 0
M  V30 2368 H 225.637 -0.661451 -0.139493 0
M  V30 2369 H 228.191 -2.04086 0.231926 0
M  V30 2370 H 226.421 -3.32302 -1.97769 0
M  V30 2371 H 228.11 -3.66745 -1.73933 0
M  V30 2372 H 228.876 -4.82852 0.45598 0
M  V30 2373 H 224.755 -4.5505 -0.7383 0
M  V30 2374 H 228.299 -6.69233 1.96909 0
M  V30 2375 H 224.196 -6.40923 0.76733 0
M  V30 2376 H 224.964 -7.87264 2.23959 0
M  V30 2377 N 227.627 0.131896 -1.57047 0
M  V30 2378 C 228.59 1.14638 -1.98471 0
M  V30 2379 C 229.59 1.35029 -0.873148 0
M  V30 2380 O 230.78 1.31764 -1.13946 0
M  V30 2381 C 227.912 2.50358 -2.31373 0
M  V30 2382 H 229.105 0.79064 -2.8929 0
M  V30 2383 H 226.658 0.375761 -1.51716 0
M  V30 2384 H 227.393 2.90876 -1.43393 0
M  V30 2385 H 227.178 2.36915 -3.12432 0
M  V30 2386 H 228.668 3.23395 -2.64207 0
M  V30 2387 N 229.106 1.52395 0.401703 0
M  V30 2388 C 230.038 1.72505 1.50912 0
M  V30 2389 C 231.051 0.605468 1.51122 0
M  V30 2390 O 232.24 0.880828 1.55254 0
M  V30 2391 C 229.34 1.75711 2.89791 0
M  V30 2392 C 228.513 3.04824 3.1369 0
M  V30 2393 C 227.572 2.99743 4.32482 0
M  V30 2394 O 226.598 3.73635 4.29402 0
M  V30 2395 N 227.8 2.18047 5.37992 0
M  V30 2396 H 230.565 2.68049 1.34052 0
M  V30 2397 H 228.126 1.50724 0.591084 0
M  V30 2398 H 230.118 1.69834 3.6734 0
M  V30 2399 H 228.688 0.876092 3.00072 0
M  V30 2400 H 227.908 3.2429 2.24119 0
M  V30 2401 H 229.196 3.90221 3.26504 0
M  V30 2402 H 228.594 1.57456 5.43345 0
M  V30 2403 H 227.151 2.18021 6.14256 0
M  V30 2404 N 230.584 -0.659388 1.43143 0
M  V30 2405 C 231.832 -1.41654 1.44147 0
M  V30 2406 C 232.153 -1.94893 0.0645739 0
M  V30 2407 O 231.423 -1.74044 -0.899198 0
M  V30 2408 H 230.003 -0.525708 0.530697 0
M  V30 2409 H 232.665 -0.778097 1.78694 0
M  V30 2410 H 231.761 -2.26195 2.1504 0
M  V30 2411 N 232.062 -1.29571 -0.897171 0
M  V30 2412 C 233.01 -1.14802 -2.02295 0
M  V30 2413 C 234.004 -0.0629637 -1.69283 0
M  V30 2414 O 235.21 -0.222945 -1.78614 0
M  V30 2415 H 231.585 -0.354692 -0.663097 0
M  V30 2416 H 233.556 -2.10108 -2.11889 0
M  V30 2417 C 232.305 -0.843966 -3.37302 0
M  V30 2418 H 231.628 -1.67093 -3.63208 0
M  V30 2419 H 233.068 -0.780672 -4.16751 0
M  V30 2420 C 231.527 0.452843 -3.33843 0
M  V30 2421 O 232.057 1.47813 -3.73516 0
M  V30 2422 N 230.263 0.459601 -2.86943 0
M  V30 2423 H 229.81 -0.375213 -2.54853 0
M  V30 2424 H 229.768 1.32726 -2.85011 0
M  V30 2425 N 233.54 1.10788 -1.12088 0
M  V30 2426 C 234.956 1.34691 -0.856186 0
M  V30 2427 C 235.156 1.94791 0.515615 0
M  V30 2428 O 234.212 2.18524 1.26505 0
M  V30 2429 C 235.525 2.27208 -1.9697 0
M  V30 2430 C 237.073 2.40755 -2.00016 0
M  V30 2431 C 237.548 3.36598 -3.1059 0
M  V30 2432 N 239.039 3.44164 -3.10008 0
M  V30 2433 C 239.774 4.18284 -3.92206 0
M  V30 2434 N 239.27 4.95322 -4.84384 0
M  V30 2435 N 241.063 4.13865 -3.80357 0
M  V30 2436 H 233.214 0.70144 -2.00483 0
M  V30 2437 H 235.477 0.371405 -0.872217 0
M  V30 2438 H 235.183 1.90251 -2.958 0
M  V30 2439 H 235.057 3.27485 -1.87172 0
M  V30 2440 H 237.444 2.76982 -1.01808 0
M  V30 2441 H 237.525 1.40305 -2.13888 0
M  V30 2442 H 237.169 3.01096 -4.09028 0
M  V30 2443 H 237.099 4.36918 -2.93956 0
M  V30 2444 H 239.59 2.8922 -2.43228 0
M  V30 2445 H 239.903 5.49267 -5.43623 0
M  V30 2446 H 238.248 4.94459 -4.884 0
M  V30 2447 H 241.439 3.52773 -3.07683 0
M  V30 2448 H 241.612 4.71372 -4.44649 0
M  V30 2449 N 235.018 0.912232 1.28515 0
M  V30 2450 C 236.429 0.591352 1.77087 0
M  V30 2451 C 236.78 -0.8933 1.74684 0
M  V30 2452 O 235.905 -1.69876 1.34056 0
M  V30 2453 C 236.5 1.06668 3.2157 0
M  V30 2454 C 235.059 0.79675 3.67871 0
M  V30 2455 C 234.206 1.23427 2.48316 0
M  V30 2456 H 237.157 1.09365 1.15 0
M  V30 2457 H 237.178 0.407455 3.78312 0
M  V30 2458 H 236.69 2.14726 3.23287 0
M  V30 2459 H 234.791 -0.270679 3.71616 0
M  V30 2460 H 234.904 1.40343 4.58084 0
M  V30 2461 H 233.268 0.653036 2.46186 0
M  V30 2462 H 234.051 2.32316 2.52753 0
M  V30 2463 N 236.496 -1.42363 0.676048 0
M  V30 2464 C 237.426 -2.33497 0.0124832 0
M  V30 2465 C 238.407 -1.50748 -0.787981 0
M  V30 2466 O 239.592 -1.79346 -0.744884 0
M  V30 2467 C 236.722 -3.34377 -0.938582 0
M  V30 2468 C 235.676 -4.27289 -0.246622 0
M  V30 2469 C 235.002 -5.18386 -1.31071 0
M  V30 2470 C 236.302 -5.14916 0.875125 0
M  V30 2471 H 237.996 -2.89233 0.773593 0
M  V30 2472 H 235.542 -1.39073 0.37346 0
M  V30 2473 H 237.495 -3.97044 -1.41188 0
M  V30 2474 H 236.219 -2.76947 -1.73113 0
M  V30 2475 H 234.878 -3.66018 0.206456 0
M  V30 2476 H 234.526 -4.57282 -2.09528 0
M  V30 2477 H 234.226 -5.81378 -0.852839 0
M  V30 2478 H 235.75 -5.83929 -1.78492 0
M  V30 2479 H 237.164 -5.71262 0.482983 0
M  V30 2480 H 235.561 -5.86747 1.25887 0
M  V30 2481 H 236.631 -4.53242 1.72335 0
M  V30 2482 N 237.974 -0.419461 -1.51915 0
M  V30 2483 C 239.22 0.153166 -2.02221 0
M  V30 2484 C 239.553 1.43907 -1.30401 0
M  V30 2485 O 238.828 1.90055 -0.413438 0
M  V30 2486 C 239.111 0.390291 -3.57979 0
M  V30 2487 C 238.964 -0.913014 -4.40436 0
M  V30 2488 C 240.283 1.16794 -4.2432 0
M  V30 2489 H 237.402 0.0541924 -0.735005 0
M  V30 2490 H 240.044 -0.554955 -1.81715 0
M  V30 2491 H 238.194 0.993491 -3.75582 0
M  V30 2492 H 239.866 -1.54882 -4.34522 0
M  V30 2493 H 238.109 -1.52168 -4.06236 0
M  V30 2494 H 238.78 -0.701361 -5.47526 0
M  V30 2495 H 241.256 0.657161 -4.10878 0
M  V30 2496 H 240.132 1.3026 -5.3322 0
M  V30 2497 H 240.393 2.19132 -3.83971 0
M  V30 2498 N 239.452 1.56882 -0.150215 0
M  V30 2499 C 240.382 2.19935 0.784284 0
M  V30 2500 C 241.363 1.14854 1.25469 0
M  V30 2501 O 242.548 1.43209 1.31168 0
M  V30 2502 C 239.678 2.82349 2.02229 0
M  V30 2503 C 238.632 3.93285 1.68853 0
M  V30 2504 C 237.958 4.42649 2.99944 0
M  V30 2505 C 239.258 5.13904 0.932714 0
M  V30 2506 H 240.952 2.9828 0.258781 0
M  V30 2507 H 238.498 1.43473 0.123029 0
M  V30 2508 H 240.451 3.25126 2.68088 0
M  V30 2509 H 239.175 2.0134 2.57157 0
M  V30 2510 H 237.834 3.5113 1.05371 0
M  V30 2511 H 237.482 3.58458 3.52869 0
M  V30 2512 H 237.182 5.17476 2.78374 0
M  V30 2513 H 238.706 4.88099 3.66868 0
M  V30 2514 H 240.12 5.53506 1.49345 0
M  V30 2515 H 238.517 5.94515 0.81684 0
M  V30 2516 H 239.587 4.84842 -0.0749568 0
M  V30 2517 N 240.93 -0.123565 1.57115 0
M  V30 2518 C 241.878 -1.17082 2.00984 0
M  V30 2519 C 242.872 -1.43136 0.906009 0
M  V30 2520 O 244.078 -1.43152 1.09121 0
M  V30 2521 H 240.453 -0.394653 0.64012 0
M  V30 2522 H 242.424 -0.774292 2.88179 0
M  V30 2523 C 241.173 -2.49057 2.42623 0
M  V30 2524 H 240.496 -2.29846 3.27125 0
M  V30 2525 H 241.936 -3.20906 2.7712 0
M  V30 2526 C 240.395 -3.11305 1.28805 0
M  V30 2527 O 240.925 -3.97171 0.60153 0
M  V30 2528 N 239.131 -2.71111 1.04628 0
M  V30 2529 H 238.678 -2.01382 1.60634 0
M  V30 2530 H 238.636 -3.1309 0.286685 0
M  V30 2531 N 242.408 -1.52605 -0.393616 0
M  V30 2532 C 243.655 -1.67424 -1.1391 0
M  V30 2533 C 243.983 -0.411859 -1.90089 0
M  V30 2534 O 243.238 0.605626 -1.86093 0
M  V30 2535 C 243.537 -2.85721 -2.14705 0
M  V30 2536 C 243.203 -4.23342 -1.55218 0
M  V30 2537 C 241.865 -4.60771 -1.3872 0
M  V30 2538 C 244.217 -5.09041 -1.11924 0
M  V30 2539 C 241.545 -5.81563 -0.774689 0
M  V30 2540 C 243.897 -6.30452 -0.520853 0
M  V30 2541 C 242.561 -6.66617 -0.343134 0
M  V30 2542 H 241.831 -0.612648 -0.416826 0
M  V30 2543 H 244.478 -1.8674 -0.424315 0
M  V30 2544 H 242.783 -2.60803 -2.92385 0
M  V30 2545 H 244.48 -2.94382 -2.72288 0
M  V30 2546 H 241.07 -3.93855 -1.69045 0
M  V30 2547 H 245.254 -4.80695 -1.23473 0
M  V30 2548 H 240.51 -6.08196 -0.625154 0
M  V30 2549 H 244.684 -6.96175 -0.177065 0
M  V30 2550 H 242.311 -7.60083 0.133571 0
M  V30 2551 N 243.887 0.651787 -1.4349 0
M  V30 2552 C 245.135 1.40888 -1.44897 0
M  V30 2553 C 245.456 1.94856 -0.0749086 0
M  V30 2554 O 244.726 1.74518 0.889956 0
M  V30 2555 H 243.306 0.522887 -0.533478 0
M  V30 2556 H 245.968 0.768609 -1.79104 0
M  V30 2557 H 245.064 2.25052 -2.16236 0
M  V30 2558 N 245.365 1.30045 0.890287 0
M  V30 2559 C 246.59 1.21598 1.68014 0
M  V30 2560 C 247.015 -0.218678 1.86825 0
M  V30 2561 O 246.373 -1.15756 1.39536 0
M  V30 2562 C 246.421 1.94434 3.03691 0
M  V30 2563 O 245.525 1.2678 3.92429 0
M  V30 2564 H 244.866 0.420856 0.513592 0
M  V30 2565 H 247.396 1.71775 1.11151 0
M  V30 2566 H 247.406 2.03251 3.5377 0
M  V30 2567 H 246.081 2.98777 2.89318 0
M  V30 2568 H 244.658 1.26282 3.50866 0
M  V30 2569 N 246.843 -1.10192 1.12674 0
M  V30 2570 C 248.083 -1.83825 0.893736 0
M  V30 2571 C 248.447 -1.83341 -0.570082 0
M  V30 2572 O 249.648 -2.52553 -0.920354 0
M  V30 2573 C 247.919 -3.26405 1.45582 0
M  V30 2574 S 249.478 -4.17136 1.36171 0
M  V30 2575 H 246.296 -0.633732 0.322342 0
M  V30 2576 H 248.898 -1.32581 1.43675 0
M  V30 2577 H 247.602 -3.24329 2.51473 0
M  V30 2578 H 247.133 -3.82721 0.910405 0
M  V30 2579 H 249.148 -4.95069 0.334863 0
M  V30 2580 N 248.321 -0.919034 -1.28029 0
M  V30 2581 C 249.549 -0.570971 -1.98866 0
M  V30 2582 C 249.964 0.848996 -1.68634 0
M  V30 2583 O 249.321 1.56307 -0.942036 0
M  V30 2584 C 249.372 -0.776876 -3.53054 0
M  V30 2585 O 249.093 -2.14097 -3.82222 0
M  V30 2586 C 250.594 -0.436356 -4.41147 0
M  V30 2587 H 247.814 -0.217175 -0.634883 0
M  V30 2588 H 250.358 -1.23368 -1.63097 0
M  V30 2589 H 248.513 -0.161085 -3.87065 0
M  V30 2590 H 248.927 -2.18455 -4.76841 0
M  V30 2591 H 250.401 -0.63117 -5.4838 0
M  V30 2592 H 250.878 0.627686 -4.34692 0
M  V30 2593 H 251.484 -1.02991 -4.12641 0
M  V30 2594 N 249.799 1.42003 -0.683588 0
M  V30 2595 C 251.039 2.03282 -0.213513 0
M  V30 2596 C 251.403 1.52924 1.16097 0
M  V30 2597 O 252.604 2.06048 1.7262 0
M  V30 2598 C 250.875 3.56483 -0.255856 0
M  V30 2599 Se 252.434 4.3857 0.14193 0
M  V30 2600 H 249.252 0.705659 -0.0869853 0
M  V30 2601 H 251.854 1.73619 -0.8987 0
M  V30 2602 H 250.558 3.90631 -1.25841 0
M  V30 2603 H 250.089 3.90831 0.448875 0
M  V30 2604 H 252.104 4.76828 1.37295 0
M  V30 2605 N 251.277 0.427512 1.51691 0
M  V30 2606 C 252.688 -0.0378867 1.86662 0
M  V30 2607 C 253.039 -1.42819 1.34525 0
M  V30 2608 O 252.164 -2.05037 0.692014 0
M  V30 2609 C 252.759 -0.0755266 3.38716 0
M  V30 2610 C 251.318 -0.485309 3.73258 0
M  V30 2611 C 250.465 0.328399 2.75349 0
M  V30 2612 H 253.416 0.64379 1.45055 0
M  V30 2613 H 253.437 -0.887056 3.70016 0
M  V30 2614 H 252.949 0.936487 3.76632 0
M  V30 2615 H 251.05 -1.50329 3.40928 0
M  V30 2616 H 251.163 -0.21693 4.78609 0
M  V30 2617 H 249.527 -0.211905 2.53817 0
M  V30 2618 H 250.31 1.3391 3.16106 0
M  V30 2619 N 252.755 -1.56801 0.158532 0
M  V30 2620 C 254.166 -1.83189 -0.360366 0
M  V30 2621 C 254.517 -1.07778 -1.63946 0
M  V30 2622 O 253.642 -0.326718 -2.13919 0
M  V30 2623 C 254.237 -3.32297 -0.660595 0
M  V30 2624 C 252.796 -3.59227 -1.12398 0
M  V30 2625 C 251.943 -2.76877 -0.153097 0
M  V30 2626 H 254.894 -1.54008 0.383031 0
M  V30 2627 H 254.915 -3.4908 -1.51405 0
M  V30 2628 H 254.427 -3.87156 0.270527 0
M  V30 2629 H 252.528 -3.09766 -2.07064 0
M  V30 2630 H 252.641 -4.67632 -1.04197 0
M  V30 2631 H 251.005 -2.46319 -0.647983 0
M  V30 2632 H 251.788 -3.34511 0.77182 0
M  V30 2633 N 254.233 0.115231 -1.57178 0
M  V30 2634 C 255.48 0.822351 -1.8505 0
M  V30 2635 C 255.808 1.79701 -0.744168 0
M  V30 2636 O 255.063 1.93909 0.26414 0
M  V30 2637 C 255.362 1.60324 -3.19423 0
M  V30 2638 C 255.028 0.772536 -4.44233 0
M  V30 2639 C 253.69 0.543468 -4.78121 0
M  V30 2640 C 256.042 0.193746 -5.2084 0
M  V30 2641 C 253.37 -0.274583 -5.86057 0
M  V30 2642 C 255.722 -0.611517 -6.29637 0
M  V30 2643 C 254.386 -0.850867 -6.62055 0
M  V30 2644 H 253.656 0.30092 -0.677147 0
M  V30 2645 H 256.303 0.0845802 -1.91313 0
M  V30 2646 H 254.608 2.41203 -3.08753 0
M  V30 2647 H 256.305 2.1544 -3.38211 0
M  V30 2648 H 252.895 0.96117 -4.17683 0
M  V30 2649 H 257.079 0.357926 -4.95008 0
M  V30 2650 H 252.335 -0.469206 -6.09597 0
M  V30 2651 H 256.509 -1.06697 -6.88178 0
M  V30 2652 H 254.136 -1.48657 -7.45523 0
M  V30 2653 N 255.711 1.52812 0.385517 0
M  V30 2654 C 256.644 1.72592 1.49289 0
M  V30 2655 C 257.622 0.573819 1.52138 0
M  V30 2656 O 258.806 0.80404 1.70492 0
M  V30 2657 C 255.933 1.78669 2.87741 0
M  V30 2658 C 254.979 3.00455 3.02703 0
M  V30 2659 S 255.812 4.60366 2.73538 0
M  V30 2660 C 256.968 4.69263 4.14177 0
M  V30 2661 H 257.201 2.66248 1.32285 0
M  V30 2662 H 254.734 1.43148 0.578611 0
M  V30 2663 H 256.692 1.82855 3.67524 0
M  V30 2664 H 255.353 0.861 3.02069 0
M  V30 2665 H 254.546 3.01258 4.04054 0
M  V30 2666 H 254.148 2.94278 2.30817 0
M  V30 2667 H 256.44 4.48092 5.08153 0
M  V30 2668 H 257.383 5.71276 4.18388 0
M  V30 2669 H 257.791 3.98072 4.00249 0
M  V30 2670 N 257.189 -0.644168 1.43834 0
M  V30 2671 C 258.152 -1.73857 1.49353 0
M  V30 2672 C 259.152 -1.56315 0.377112 0
M  V30 2673 O 260.342 -1.62048 0.639226 0
M  V30 2674 C 257.474 -3.12819 1.35488 0
M  V30 2675 H 258.667 -1.70342 2.46827 0
M  V30 2676 H 256.22 -0.856652 1.30733 0
M  V30 2677 H 256.955 -3.2194 0.390569 0
M  V30 2678 H 256.74 -3.26958 2.16428 0
M  V30 2679 H 258.23 -3.92606 1.42302 0
M  V30 2680 N 258.668 -1.30515 -0.883378 0
M  V30 2681 C 260.084 -1.08881 -1.16692 0
M  V30 2682 C 260.284 0.149409 -2.00945 0
M  V30 2683 O 259.34 0.84257 -2.38027 0
M  V30 2684 C 260.653 -2.35319 -1.87204 0
M  V30 2685 C 262.201 -2.40799 -1.99962 0
M  V30 2686 C 262.676 -3.67083 -2.73887 0
M  V30 2687 N 264.167 -3.679 -2.81432 0
M  V30 2688 C 264.902 -4.62303 -3.3921 0
M  V30 2689 N 264.398 -5.67052 -3.98025 0
M  V30 2690 N 266.191 -4.49845 -3.3704 0
M  V30 2691 H 258.342 -2.09951 -0.321633 0
M  V30 2692 H 260.605 -0.92556 -0.205043 0
M  V30 2693 H 260.311 -3.25689 -1.3274 0
M  V30 2694 H 260.185 -2.44089 -2.87577 0
M  V30 2695 H 262.572 -1.50907 -2.53597 0
M  V30 2696 H 262.653 -2.36003 -0.98673 0
M  V30 2697 H 262.297 -4.57334 -2.20925 0
M  V30 2698 H 262.227 -3.69141 -3.75556 0
M  V30 2699 H 264.718 -2.92171 -2.39676 0
M  V30 2700 H 265.031 -6.35184 -4.40183 0
M  V30 2701 H 263.376 -5.70842 -3.96439 0
M  V30 2702 H 266.567 -3.67194 -2.90321 0
M  V30 2703 H 266.74 -5.23597 -3.81772 0
M  V30 2704 N 260.146 1.09593 -1.13257 0
M  V30 2705 C 261.079 2.15451 -0.752061 0
M  V30 2706 C 262.057 1.60493 0.260913 0
M  V30 2707 O 263.241 1.8788 0.152819 0
M  V30 2708 C 260.368 3.38506 -0.114594 0
M  V30 2709 C 259.414 4.12183 -1.09579 0
M  V30 2710 S 260.247 4.6661 -2.62745 0
M  V30 2711 C 261.403 5.92966 -2.00354 0
M  V30 2712 H 261.636 2.47395 -1.64872 0
M  V30 2713 H 259.169 1.21515 -0.952545 0
M  V30 2714 H 261.127 4.09757 0.246808 0
M  V30 2715 H 259.788 3.04784 0.759309 0
M  V30 2716 H 258.981 5.00445 -0.597545 0
M  V30 2717 H 258.583 3.46785 -1.40057 0
M  V30 2718 H 260.875 6.63882 -1.35156 0
M  V30 2719 H 261.818 6.47467 -2.86691 0
M  V30 2720 H 262.226 5.45405 -1.4558 0
M  V30 2721 N 261.624 0.925811 1.2754 0
M  V30 2722 C 262.849 0.580924 1.99098 0
M  V30 2723 C 263.274 -0.833555 1.68622 0
M  V30 2724 O 262.632 -1.55903 0.925422 0
M  V30 2725 C 262.68 0.811186 3.51358 0
M  V30 2726 O 261.784 -0.124129 4.12213 0
M  V30 2727 H 261.125 0.223873 0.625122 0
M  V30 2728 H 263.655 1.24455 1.62395 0
M  V30 2729 H 263.665 0.72601 4.01489 0
M  V30 2730 H 262.34 1.84227 3.72872 0
M  V30 2731 H 260.917 0.0108006 3.72898 0
M  V30 2732 N 263.102 -1.41638 0.69111 0
M  V30 2733 C 264.065 -2.29178 0.0319786 0
M  V30 2734 C 265.065 -1.44153 -0.712496 0
M  V30 2735 O 266.255 -1.65354 -0.548053 0
M  V30 2736 C 263.387 -3.26952 -0.965161 0
M  V30 2737 H 264.58 -2.88959 0.802681 0
M  V30 2738 H 262.133 -1.4955 0.454356 0
M  V30 2739 H 262.868 -2.72142 -1.76378 0
M  V30 2740 H 262.653 -3.89685 -0.434522 0
M  V30 2741 H 264.143 -3.92561 -1.42428 0
M  V30 2742 N 264.58 -0.43555 -1.51462 0
M  V30 2743 C 265.827 0.131514 -2.02072 0
M  V30 2744 C 266.155 1.42868 -1.31981 0
M  V30 2745 O 265.41 1.91076 -0.422883 0
M  V30 2746 C 265.709 0.39942 -3.55161 0
M  V30 2747 C 265.375 -0.81172 -4.43533 0
M  V30 2748 C 264.037 -1.14387 -4.67407 0
M  V30 2749 C 266.389 -1.61976 -4.95392 0
M  V30 2750 C 263.717 -2.28477 -5.40384 0
M  V30 2751 C 266.069 -2.75164 -5.6962 0
M  V30 2752 C 264.733 -3.08835 -5.91758 0
M  V30 2753 H 264.003 0.0481244 -0.739436 0
M  V30 2754 H 266.65 -0.58238 -1.8243 0
M  V30 2755 H 264.955 1.19519 -3.73125 0
M  V30 2756 H 266.652 0.85157 -3.91854 0
M  V30 2757 H 263.242 -0.542898 -4.25148 0
M  V30 2758 H 267.426 -1.37637 -4.76833 0
M  V30 2759 H 262.682 -2.5488 -5.55739 0
M  V30 2760 H 266.856 -3.38147 -6.08793 0
M  V30 2761 H 264.483 -3.97353 -6.48086 0
M  V30 2762 N 266.058 1.56714 -0.166846 0
M  V30 2763 C 266.99 2.14914 0.796537 0
M  V30 2764 C 268.003 1.10357 1.19688 0
M  V30 2765 O 269.192 1.37561 1.13751 0
M  V30 2766 C 266.292 2.67326 2.08303 0
M  V30 2767 C 265.465 3.96493 1.84696 0
M  V30 2768 C 264.524 4.34014 2.97521 0
M  V30 2769 O 263.55 5.01973 2.6835 0
M  V30 2770 N 264.752 3.95208 4.25196 0
M  V30 2771 H 267.517 2.98205 0.299006 0
M  V30 2772 H 265.078 1.61892 0.0160839 0
M  V30 2773 H 267.07 2.89428 2.82867 0
M  V30 2774 H 265.64 1.88649 2.4926 0
M  V30 2775 H 264.86 3.82814 0.940602 0
M  V30 2776 H 266.148 4.8086 1.66285 0
M  V30 2777 H 265.546 3.40487 4.51758 0
M  V30 2778 H 264.103 4.2232 4.96477 0
M  V30 2779 N 267.536 -0.106894 1.57237 0
M  V30 2780 C 268.952 -0.46078 1.52804 0
M  V30 2781 C 269.152 -1.81184 0.881746 0
M  V30 2782 O 268.208 -2.48102 0.469224 0
M  V30 2783 C 269.521 -0.434127 2.9755 0
M  V30 2784 C 271.069 -0.516821 3.08704 0
M  V30 2785 C 271.544 -0.520436 4.55033 0
M  V30 2786 N 273.035 -0.58153 4.59535 0
M  V30 2787 C 273.77 -0.605973 5.70189 0
M  V30 2788 N 273.266 -0.587331 6.90306 0
M  V30 2789 N 275.059 -0.649895 5.5833 0
M  V30 2790 H 267.21 0.778203 1.9763 0
M  V30 2791 H 269.473 0.288403 0.903066 0
M  V30 2792 H 269.179 0.491197 3.48253 0
M  V30 2793 H 269.053 -1.25748 3.55622 0
M  V30 2794 H 271.44 -1.43256 2.57995 0
M  V30 2795 H 271.521 0.334449 2.53604 0
M  V30 2796 H 271.165 0.391313 5.0639 0
M  V30 2797 H 271.095 -1.38876 5.07958 0
M  V30 2798 H 273.586 -0.60161 3.73081 0
M  V30 2799 H 273.899 -0.60894 7.70397 0
M  V30 2800 H 272.244 -0.554564 6.92784 0
M  V30 2801 H 275.435 -0.661907 4.63397 0
M  V30 2802 H 275.608 -0.665476 6.44574 0
M  V30 2803 N 269.014 -1.53014 -0.377408 0
M  V30 2804 C 269.944 -1.81589 -1.46791 0
M  V30 2805 C 270.925 -0.668622 -1.56408 0
M  V30 2806 O 272.11 -0.917337 -1.71168 0
M  V30 2807 C 269.24 -1.99519 -2.8427 0
M  V30 2808 C 268.194 -3.15249 -2.89486 0
M  V30 2809 C 267.52 -3.18451 -4.29527 0
M  V30 2810 C 268.82 -4.54084 -2.58079 0
M  V30 2811 H 270.514 -2.7291 -1.23127 0
M  V30 2812 H 268.06 -1.31319 -0.590883 0
M  V30 2813 H 270.013 -2.18092 -3.60575 0
M  V30 2814 H 268.737 -1.04897 -3.09296 0
M  V30 2815 H 267.396 -2.96477 -2.15631 0
M  V30 2816 H 267.044 -2.2149 -4.5161 0
M  V30 2817 H 266.744 -3.962 -4.33934 0
M  V30 2818 H 268.268 -3.39193 -5.07721 0
M  V30 2819 H 269.682 -4.72899 -3.24098 0
M  V30 2820 H 268.079 -5.33987 -2.7382 0
M  V30 2821 H 269.149 -4.60006 -1.53372 0
M  V30 2822 N 270.492 0.636531 -1.44174 0
M  V30 2823 C 271.738 1.39826 -1.4689 0
M  V30 2824 C 272.071 1.93947 -0.0990585 0
M  V30 2825 O 271.346 1.73325 0.882544 0
M  V30 2826 C 271.629 2.56751 -2.5249 0
M  V30 2827 C 271.482 2.08014 -3.98811 0
M  V30 2828 C 272.801 3.58946 -2.54649 0
M  V30 2829 H 269.92 0.507075 -0.53483 0
M  V30 2830 H 272.562 0.720188 -1.75822 0
M  V30 2831 H 270.712 3.14597 -2.2795 0
M  V30 2832 H 272.384 1.5504 -4.34466 0
M  V30 2833 H 270.627 1.39242 -4.10846 0
M  V30 2834 H 271.298 2.92169 -4.68339 0
M  V30 2835 H 273.774 3.1089 -2.76563 0
M  V30 2836 H 272.65 4.38286 -3.3045 0
M  V30 2837 H 272.911 4.12655 -1.58646 0
M  V30 2838 N 271.97 1.30982 0.876444 0
M  V30 2839 C 273.198 1.23242 1.6619 0
M  V30 2840 C 273.613 -0.203345 1.87702 0
M  V30 2841 O 272.97 -1.13317 1.43057 0
M  V30 2842 C 273.021 1.96623 3.03351 0
M  V30 2843 O 272.742 3.34594 2.82804 0
M  V30 2844 C 274.243 1.95644 3.97792 0
M  V30 2845 H 271.463 0.426126 0.518322 0
M  V30 2846 H 274.007 1.7275 1.09442 0
M  V30 2847 H 272.162 1.50892 3.56806 0
M  V30 2848 H 272.576 3.71873 3.69879 0
M  V30 2849 H 274.05 2.51511 4.91372 0
M  V30 2850 H 274.527 0.937395 4.2908 0
M  V30 2851 H 275.133 2.41225 3.50272 0
M  V30 2852 N 273.449 -1.08991 1.13837 0
M  V30 2853 C 274.396 -2.15748 0.819835 0
M  V30 2854 C 275.366 -1.64636 -0.220026 0
M  V30 2855 O 276.551 -1.90582 -0.0912757 0
M  V30 2856 C 273.691 -3.4382 0.296913 0
M  V30 2857 C 272.804 -4.0881 1.39636 0
M  V30 2858 C 271.939 -5.24655 0.831314 0
M  V30 2859 C 270.978 -5.81575 1.90886 0
M  V30 2860 N 270.115 -6.88774 1.36142 0
M  V30 2861 H 274.955 -2.42338 1.73426 0
M  V30 2862 H 272.492 -1.18935 0.865613 0
M  V30 2863 H 274.45 -4.17193 -0.0244339 0
M  V30 2864 H 273.08 -3.17535 -0.580628 0
M  V30 2865 H 272.132 -3.33258 1.83422 0
M  V30 2866 H 273.444 -4.47141 2.21058 0
M  V30 2867 H 272.598 -6.04942 0.461515 0
M  V30 2868 H 271.337 -4.87698 -0.013932 0
M  V30 2869 H 270.342 -4.99946 2.28767 0
M  V30 2870 H 271.567 -6.20592 2.75758 0
M  V30 2871 H 269.513 -6.53788 0.538254 0
M  V30 2872 H 269.43 -7.25898 2.11208 0
M  V30 2873 H 270.698 -7.72806 1.01933 0
M  V30 2874 N 274.927 -0.932562 -1.27047 0
M  V30 2875 C 276.157 -0.591173 -1.97961 0
M  V30 2876 C 276.565 0.836219 -1.69717 0
M  V30 2877 O 275.908 1.56801 -0.957036 0
M  V30 2878 C 275.97 -0.743082 -3.51736 0
M  V30 2879 C 275.634 -2.1435 -4.03613 0
M  V30 2880 C 276.631 -3.11815 -4.16014 0
M  V30 2881 C 274.316 -2.46175 -4.37839 0
M  V30 2882 C 276.31 -4.39211 -4.61923 0
M  V30 2883 C 273.997 -3.73806 -4.83438 0
M  V30 2884 C 274.995 -4.70137 -4.95439 0
M  V30 2885 O 274.683 -5.95496 -5.40037 0
M  V30 2886 H 274.415 -0.222375 -0.638377 0
M  V30 2887 H 276.969 -1.25317 -1.62742 0
M  V30 2888 H 275.199 -0.0239739 -3.86693 0
M  V30 2889 H 276.888 -0.40603 -4.03864 0
M  V30 2890 H 277.654 -2.88549 -3.89826 0
M  V30 2891 H 273.533 -1.71936 -4.27737 0
M  V30 2892 H 277.077 -5.14404 -4.71205 0
M  V30 2893 H 272.974 -3.96888 -5.09068 0
M  V30 2894 H 273.742 -5.98554 -5.58279 0
M  V30 2895 N 276.405 1.4127 -0.698611 0
M  V30 2896 C 277.337 2.292 0.00399731 0
M  V30 2897 C 278.35 1.44944 0.741279 0
M  V30 2898 O 279.539 1.68416 0.591477 0
M  V30 2899 C 276.639 3.22875 1.02979 0
M  V30 2900 C 275.812 4.35904 0.36151 0
M  V30 2901 C 274.871 5.10134 1.29033 0
M  V30 2902 O 273.897 5.63809 0.781562 0
M  V30 2903 N 275.099 5.17885 2.6225 0
M  V30 2904 H 277.864 2.9014 -0.750921 0
M  V30 2905 H 275.425 1.52455 -0.544882 0
M  V30 2906 H 277.417 3.69404 1.65296 0
M  V30 2907 H 275.987 2.63221 1.68622 0
M  V30 2908 H 275.207 3.91719 -0.441584 0
M  V30 2909 H 276.495 5.08696 -0.103055 0
M  V30 2910 H 275.893 4.7573 3.061 0
M  V30 2911 H 274.45 5.6798 3.19754 0
M  V30 2912 N 277.883 0.443576 1.51229 0
M  V30 2913 C 279.299 0.0962001 1.5931 0
M  V30 2914 C 279.499 -1.39501 1.45402 0
M  V30 2915 O 278.555 -2.16557 1.29843 0
M  V30 2916 C 279.868 0.621875 2.94199 0
M  V30 2917 C 281.416 0.582865 3.07525 0
M  V30 2918 C 281.891 1.08562 4.44948 0
M  V30 2919 N 283.382 1.04387 4.51284 0
M  V30 2920 C 284.117 1.40368 5.55954 0
M  V30 2921 N 283.613 1.83664 6.68011 0
M  V30 2922 N 285.406 1.32145 5.46346 0
M  V30 2923 H 277.557 1.41376 1.58514 0
M  V30 2924 H 279.82 0.582965 0.747567 0
M  V30 2925 H 279.526 1.66546 3.09767 0
M  V30 2926 H 279.4 0.0502125 3.77167 0
M  V30 2927 H 281.787 -0.451749 2.91622 0
M  V30 2928 H 281.868 1.191 2.26382 0
M  V30 2929 H 281.512 2.11873 4.61598 0
M  V30 2930 H 281.442 0.453956 5.2464 0
M  V30 2931 H 283.933 0.725986 3.70861 0
M  V30 2932 H 284.246 2.0934 7.43906 0
M  V30 2933 H 282.591 1.87596 6.69203 0
M  V30 2934 H 285.782 0.981808 4.57688 0
M  V30 2935 H 285.955 1.60514 6.27805 0
M  V30 2936 N 279.361 -1.56624 0.175154 0
M  V30 2937 C 280.638 -1.88688 -0.515373 0
M  V30 2938 C 281.018 -1.08564 -1.81044 0
M  V30 2939 O 280.366 -0.180703 -2.27784 0
M  V30 2940 C 280.576 -3.40768 -0.753552 0
M  V30 2941 C 281.924 -4.10587 -1.08184 0
M  V30 2942 O 282.948 -3.46106 -0.841961 0
M  V30 2943 O 281.807 -5.24512 -1.53459 0
M  V30 2944 H 278.901 -0.78301 -0.26613 0
M  V30 2945 H 281.447 -1.68347 0.213877 0
M  V30 2946 H 280.219 -3.90965 0.161829 0
M  V30 2947 H 279.842 -3.66733 -1.53598 0
M  V30 2948 N 280.839 0.0985539 -1.57292 0
M  V30 2949 C 282.085 0.803867 -1.86188 0
M  V30 2950 C 282.418 1.78549 -0.763794 0
M  V30 2951 O 281.693 1.93153 0.22855 0
M  V30 2952 C 281.976 1.53568 -3.25713 0
M  V30 2953 C 281.829 0.572277 -4.46145 0
M  V30 2954 C 283.148 2.48708 -3.63087 0
M  V30 2955 H 280.267 0.290781 -0.677211 0
M  V30 2956 H 282.909 0.0675783 -1.8988 0
M  V30 2957 H 281.059 2.16332 -3.22696 0
M  V30 2958 H 282.731 -0.0480894 -4.61275 0
M  V30 2959 H 280.974 -0.114618 -4.33649 0
M  V30 2960 H 281.645 1.12139 -5.40489 0
M  V30 2961 H 284.121 1.96039 -3.67026 0
M  V30 2962 H 282.997 2.96932 -4.61652 0
M  V30 2963 H 283.258 3.32309 -2.91588 0
M  V30 2964 N 282.317 1.53212 0.369288 0
M  V30 2965 C 283.594 1.59815 1.12776 0
M  V30 2966 C 283.974 0.403402 2.0721 0
M  V30 2967 O 283.322 -0.606667 2.20299 0
M  V30 2968 C 283.532 2.94664 1.87013 0
M  V30 2969 C 284.88 3.49109 2.41677 0
M  V30 2970 O 285.904 2.96669 1.97144 0
M  V30 2971 O 284.763 4.40775 3.23079 0
M  V30 2972 H 281.857 0.645376 0.517125 0
M  V30 2973 H 284.403 1.65553 0.37285 0
M  V30 2974 H 283.175 3.73061 1.18071 0
M  V30 2975 H 282.798 2.92401 2.69421 0
M  V30 2976 N 283.795 -0.628877 1.44509 0
M  V30 2977 C 285.042 -1.38839 1.47411 0
M  V30 2978 C 285.37 -1.94202 0.10757 0
M  V30 2979 O 284.625 -1.74243 -0.890947 0
M  V30 2980 C 284.924 -2.56995 2.48371 0
M  V30 2981 C 284.59 -2.19908 3.93639 0
M  V30 2982 C 283.252 -2.09506 4.33198 0
M  V30 2983 C 285.604 -1.9064 4.85083 0
M  V30 2984 C 282.932 -1.68028 5.62124 0
M  V30 2985 C 285.284 -1.50655 6.14399 0
M  V30 2986 C 283.948 -1.38796 6.5291 0
M  V30 2987 H 283.218 -0.508048 0.539414 0
M  V30 2988 H 285.865 -0.712913 1.77735 0
M  V30 2989 H 284.17 -3.29786 2.11538 0
M  V30 2990 H 285.867 -3.15223 2.47861 0
M  V30 2991 H 282.457 -2.28922 3.62343 0
M  V30 2992 H 286.641 -1.97585 4.55273 0
M  V30 2993 H 281.897 -1.57452 5.90778 0
M  V30 2994 H 286.071 -1.27048 6.84713 0
M  V30 2995 H 283.698 -1.06429 7.52713 0
M  V30 2996 N 285.273 -1.31445 -0.869486 0
M  V30 2997 C 286.203 -1.21727 -1.99261 0
M  V30 2998 C 287.184 -0.104359 -1.6978 0
M  V30 2999 O 288.369 -0.289038 -1.92037 0
M  V30 3000 C 285.499 -0.924317 -3.34774 0
M  V30 3001 C 284.453 -1.99685 -3.78563 0
M  V30 3002 C 283.779 -1.55658 -5.11541 0
M  V30 3003 C 285.079 -3.41003 -3.95619 0
M  V30 3004 H 286.773 -2.1569 -2.07649 0
M  V30 3005 H 284.319 -1.03839 -0.997675 0
M  V30 3006 H 286.272 -0.842934 -4.12883 0
M  V30 3007 H 284.996 0.0509793 -3.2656 0
M  V30 3008 H 283.655 -2.06813 -3.02694 0
M  V30 3009 H 283.303 -0.569132 -4.9977 0
M  V30 3010 H 283.003 -2.27409 -5.41811 0
M  V30 3011 H 284.527 -1.48928 -5.92159 0
M  V30 3012 H 285.941 -3.36547 -4.64122 0
M  V30 3013 H 284.338 -4.10975 -4.37286 0
M  V30 3014 H 285.408 -3.81754 -2.98985 0
M  V30 3015 N 286.751 1.08385 -1.14413 0
M  V30 3016 C 288 1.80153 -0.907076 0
M  V30 3017 C 288.313 1.87176 0.567851 0
M  V30 3018 O 289.519 2.55359 0.922172 0
M  V30 3019 C 287.975 3.23687 -1.57336 0
M  V30 3020 C 287.583 3.24897 -3.08457 0
M  V30 3021 C 289.327 4.00136 -1.41744 0
M  V30 3022 C 287.234 4.6302 -3.67921 0
M  V30 3023 H 286.164 0.675139 -0.335714 0
M  V30 3024 H 288.815 1.21733 -1.37307 0
M  V30 3025 H 287.197 3.82234 -1.03505 0
M  V30 3026 H 288.371 2.76055 -3.68958 0
M  V30 3027 H 286.686 2.61943 -3.2369 0
M  V30 3028 H 289.283 5.02201 -1.83572 0
M  V30 3029 H 289.626 4.14709 -0.363576 0
M  V30 3030 H 290.159 3.48058 -1.92614 0
M  V30 3031 H 286.898 4.5365 -4.73161 0
M  V30 3032 H 286.418 5.12143 -3.12201 0
M  V30 3033 H 288.097 5.31994 -3.68227 0
M  V30 3034 N 288.23 0.939286 1.26551 0
M  V30 3035 C 289.479 0.581601 1.93133 0
M  V30 3036 C 289.792 -0.883224 1.74524 0
M  V30 3037 O 290.998 -1.3502 2.35546 0
M  V30 3038 C 289.454 0.989425 3.46032 0
M  V30 3039 C 289.062 2.47573 3.73379 0
M  V30 3040 C 290.806 0.703544 4.18629 0
M  V30 3041 C 288.713 2.82235 5.19709 0
M  V30 3042 H 287.643 0.213803 0.723052 0
M  V30 3043 H 290.294 1.14167 1.4366 0
M  V30 3044 H 288.676 0.357902 3.94379 0
M  V30 3045 H 289.85 3.15614 3.35744 0
M  V30 3046 H 288.165 2.73471 3.1401 0
M  V30 3047 H 290.762 0.938869 5.26393 0
M  V30 3048 H 291.105 -0.359639 4.14744 0
M  V30 3049 H 291.638 1.2947 3.76141 0
M  V30 3050 H 288.377 3.87509 5.28694 0
M  V30 3051 H 287.897 2.18854 5.58447 0
M  V30 3052 H 289.576 2.70599 5.87695 0
M  V30 3053 N 289.708 -1.40897 0.706093 0
M  V30 3054 C 290.938 -2.05075 0.250523 0
M  V30 3055 C 291.346 -1.53275 -1.10921 0
M  V30 3056 O 290.689 -0.680281 -1.7064 0
M  V30 3057 C 290.751 -3.59219 0.142178 0
M  V30 3058 C 290.415 -4.33864 1.43566 0
M  V30 3059 C 291.412 -4.62448 2.37566 0
M  V30 3060 C 289.097 -4.72946 1.69195 0
M  V30 3061 C 291.091 -5.29088 3.5545 0
M  V30 3062 C 288.778 -5.3932 2.87362 0
M  V30 3063 C 289.776 -5.6732 3.80312 0
M  V30 3064 O 289.464 -6.32325 4.96408 0
M  V30 3065 H 289.196 -0.666645 0.112074 0
M  V30 3066 H 291.75 -1.81467 0.962239 0
M  V30 3067 H 289.98 -3.81609 -0.6254 0
M  V30 3068 H 291.669 -4.0495 -0.277584 0
M  V30 3069 H 292.435 -4.32727 2.19027 0
M  V30 3070 H 288.314 -4.50527 0.977042 0
M  V30 3071 H 291.858 -5.50859 4.28018 0
M  V30 3072 H 287.755 -5.68461 3.05814 0
M  V30 3073 H 288.523 -6.50821 4.9636 0
M  V30 3074 N 291.186 -0.45159 -1.50991 0
M  V30 3075 C 292.435 0.111653 -2.01391 0
M  V30 3076 C 292.748 1.42529 -1.33959 0
M  V30 3077 O 293.954 2.07232 -1.75405 0
M  V30 3078 C 292.41 0.249514 -3.59034 0
M  V30 3079 C 292.018 -1.05453 -4.35412 0
M  V30 3080 C 293.762 0.765762 -4.17536 0
M  V30 3081 C 291.669 -0.881529 -5.84793 0
M  V30 3082 H 290.599 0.0455022 -0.752626 0
M  V30 3083 H 293.25 -0.583524 -1.73975 0
M  V30 3084 H 291.632 1.00803 -3.82955 0
M  V30 3085 H 292.806 -1.82248 -4.23229 0
M  V30 3086 H 291.121 -1.50039 -3.88429 0
M  V30 3087 H 293.718 0.911913 -5.26866 0
M  V30 3088 H 294.061 1.75201 -3.77638 0
M  V30 3089 H 294.594 0.0651744 -3.97747 0
M  V30 3090 H 291.333 -1.84057 -6.29129 0
M  V30 3091 H 290.853 -0.153625 -5.99603 0
M  V30 3092 H 292.532 -0.540363 -6.4474 0
M  V30 3093 N 292.664 1.56529 -0.183458 0
M  V30 3094 C 293.574 2.22144 0.754272 0
M  V30 3095 C 294.59 1.21684 1.24374 0
M  V30 3096 O 295.766 1.54385 1.29333 0
M  V30 3097 C 292.831 2.85884 1.96141 0
M  V30 3098 C 291.892 4.01579 1.51765 0
M  V30 3099 C 291.125 4.6227 2.66725 0
M  V30 3100 O 291.348 4.21865 3.83909 0
M  V30 3101 O 290.282 5.51936 2.40104 0
M  V30 3102 H 294.108 3.02861 0.225527 0
M  V30 3103 H 291.693 1.49331 0.0453032 0
M  V30 3104 H 293.575 3.26253 2.66715 0
M  V30 3105 H 292.25 2.08154 2.47899 0
M  V30 3106 H 291.157 3.65856 0.781049 0
M  V30 3107 H 292.49 4.80938 1.04686 0
M  V30 3108 N 294.142 -0.090211 1.57342 0
M  V30 3109 C 295.052 -1.12735 2.05738 0
M  V30 3110 C 296.068 -1.43557 0.983231 0
M  V30 3111 O 297.244 -1.54101 1.29672 0
M  V30 3112 C 294.309 -2.42659 2.47624 0
M  V30 3113 C 293.37 -2.18975 3.69254 0
M  V30 3114 C 292.603 -3.42704 4.09133 0
M  V30 3115 O 292.826 -4.51127 3.49057 0
M  V30 3116 O 291.76 -3.32003 5.02053 0
M  V30 3117 H 295.586 -0.746279 2.94388 0
M  V30 3118 H 293.171 -0.303064 1.46294 0
M  V30 3119 H 295.053 -3.19155 2.7517 0
M  V30 3120 H 293.728 -2.80182 1.62109 0
M  V30 3121 H 292.635 -1.40244 3.46818 0
M  V30 3122 H 293.968 -1.86342 4.55563 0
M  V30 3123 N 295.62 -1.53406 -0.361157 0
M  V30 3124 C 296.583 -1.79479 -1.42548 0
M  V30 3125 C 297.583 -0.665327 -1.4639 0
M  V30 3126 O 298.773 -0.933549 -1.47073 0
M  V30 3127 C 295.905 -1.92087 -2.8163 0
M  V30 3128 H 297.098 -2.74538 -1.20701 0
M  V30 3129 H 294.651 -1.4455 -0.594546 0
M  V30 3130 H 295.386 -0.991099 -3.08784 0
M  V30 3131 H 295.171 -2.74241 -2.80239 0
M  V30 3132 H 296.661 -2.13836 -3.58697 0
M  V30 3133 N 297.098 0.621204 -1.44841 0
M  V30 3134 C 298.048 1.72663 -1.48901 0
M  V30 3135 C 299.032 1.56964 -0.353702 0
M  V30 3136 O 300.224 1.66532 -0.599669 0
M  V30 3137 C 297.353 3.11381 -1.44557 0
M  V30 3138 C 296.439 3.32514 -2.6324 0
M  V30 3139 N 296.83 3.23969 -3.8843 0
M  V30 3140 C 295.128 3.63343 -2.58647 0
M  V30 3141 C 295.829 3.46062 -4.67564 0
M  V30 3142 N 294.805 3.69407 -3.98797 0
M  V30 3143 H 298.607 1.64529 -2.43531 0
M  V30 3144 H 296.121 0.82401 -1.39942 0
M  V30 3145 H 298.118 3.90667 -1.4555 0
M  V30 3146 H 296.778 3.20674 -0.509731 0
M  V30 3147 H 297.789 3.02669 -4.20252 0
M  V30 3148 H 294.466 3.79556 -1.73906 0
M  V30 3149 H 295.856 3.44963 -5.76585 0
M  V30 3150 N 298.576 1.31904 0.862503 0
M  V30 3151 C 299.987 1.19803 1.43193 0
M  V30 3152 C 300.338 -0.192567 1.95253 0
M  V30 3153 O 299.463 -1.09081 1.86896 0
M  V30 3154 C 300.058 2.16883 2.60283 0
M  V30 3155 C 298.617 2.08692 3.13248 0
M  V30 3156 C 297.764 2.05691 1.85975 0
M  V30 3157 H 300.715 1.43846 0.670365 0
M  V30 3158 H 300.736 1.76278 3.37204 0
M  V30 3159 H 300.248 3.18083 2.22363 0
M  V30 3160 H 298.349 1.10713 3.55771 0
M  V30 3161 H 298.462 2.9815 3.75025 0
M  V30 3162 H 296.826 1.50814 2.05249 0
M  V30 3163 H 297.609 3.08659 1.50282 0
M  V30 3164 N 300.054 -1.07777 1.14986 0
M  V30 3165 C 301.279 -1.84558 0.946213 0
M  V30 3166 C 301.704 -1.81323 -0.500362 0
M  V30 3167 O 301.062 -1.20301 -1.35637 0
M  V30 3168 C 301.11 -3.29736 1.45968 0
M  V30 3169 O 300.214 -4.07149 0.65601 0
M  V30 3170 H 299.555 -0.571641 0.33782 0
M  V30 3171 H 302.085 -1.35991 1.52865 0
M  V30 3172 H 302.095 -3.80574 1.47063 0
M  V30 3173 H 300.77 -3.31406 2.51283 0
M  V30 3174 H 299.347 -3.65994 0.714322 0
M  V30 3175 N 301.532 -0.945985 -1.26051 0
M  V30 3176 C 302.809 -0.513816 -1.88731 0
M  V30 3177 C 303.189 1.00872 -1.8544 0
M  V30 3178 O 302.537 1.8708 -1.312 0
M  V30 3179 C 302.747 -1.08062 -3.31849 0
M  V30 3180 C 304.095 -1.1522 -4.08668 0
M  V30 3181 O 305.119 -1.03155 -3.40936 0
M  V30 3182 O 303.978 -1.34044 -5.29806 0
M  V30 3183 H 301.072 -0.168193 -0.809716 0
M  V30 3184 H 303.618 -1.03886 -1.34186 0
M  V30 3185 H 302.39 -2.1241 -3.2863 0
M  V30 3186 H 302.013 -0.538307 -3.93939 0
M  V30 3187 N 303.011 1.40521 -0.713556 0
M  V30 3188 C 304.259 2.00527 -0.251692 0
M  V30 3189 C 304.58 1.56857 1.15848 0
M  V30 3190 O 303.85 0.807127 1.785 0
M  V30 3191 H 302.43 0.741551 -0.0900646 0
M  V30 3192 H 305.092 1.71887 -0.918733 0
M  V30 3193 H 304.188 3.10813 -0.283192 0
M  V30 3194 N 304.489 0.459591 1.5075 0
M  V30 3195 C 305.735 -0.091664 2.03193 0
M  V30 3196 C 306.09 -1.38432 1.3362 0
M  V30 3197 O 305.383 -1.86257 0.449322 0
M  V30 3198 C 305.577 -0.342866 3.55752 0
M  V30 3199 C 305.406 0.923888 4.40107 0
M  V30 3200 C 304.176 1.46388 4.83631 0
M  V30 3201 C 306.374 1.81617 4.81165 0
M  V30 3202 N 304.356 2.68086 5.52271 0
M  V30 3203 C 305.727 2.87907 5.49099 0
M  V30 3204 C 307.782 1.82793 4.63132 0
M  V30 3205 C 306.485 3.95347 6.0091 0
M  V30 3206 C 308.511 2.89182 5.15876 0
M  V30 3207 C 307.873 3.94191 5.83774 0
M  V30 3208 H 303.972 0.00619247 0.781975 0
M  V30 3209 H 306.556 0.625233 1.84388 0
M  V30 3210 H 304.727 -1.0288 3.74527 0
M  V30 3211 H 306.459 -0.887445 3.9485 0
M  V30 3212 H 303.214 1.01466 4.62603 0
M  V30 3213 H 303.638 3.29857 5.91205 0
M  V30 3214 H 308.28 1.0293 4.1008 0
M  V30 3215 H 305.998 4.76035 6.53006 0
M  V30 3216 H 309.584 2.91061 5.0376 0
M  V30 3217 H 308.464 4.75161 6.23853 0
M  V30 3218 N 305.967 -1.56429 0.191757 0
M  V30 3219 C 307.213 -1.97777 -0.448554 0
M  V30 3220 C 307.546 -1.07847 -1.61501 0
M  V30 3221 O 306.821 -0.129774 -1.94067 0
M  V30 3222 C 307.104 -3.48362 -0.911906 0
M  V30 3223 C 306.957 -4.4907 0.256136 0
M  V30 3224 C 308.276 -4.02561 -1.77857 0
M  V30 3225 H 305.395 -0.719071 -0.161572 0
M  V30 3226 H 308.037 -1.87896 0.282007 0
M  V30 3227 H 306.187 -3.56914 -1.53442 0
M  V30 3228 H 307.859 -4.5256 0.893733 0
M  V30 3229 H 306.102 -4.24181 0.908436 0
M  V30 3230 H 306.773 -5.51889 -0.11053 0
M  V30 3231 H 309.249 -3.96767 -1.25359 0
M  V30 3232 H 308.125 -5.08301 -2.07174 0
M  V30 3233 H 308.386 -3.47616 -2.73158 0
M  V30 3234 N 307.445 0.0818655 -1.57387 0
M  V30 3235 C 308.673 0.796108 -1.9097 0
M  V30 3236 C 309.088 1.71626 -0.786757 0
M  V30 3237 O 308.445 1.80908 0.240513 0
M  V30 3238 C 308.496 1.59829 -3.24248 0
M  V30 3239 O 308.217 0.715131 -4.32224 0
M  V30 3240 C 309.718 2.41442 -3.7178 0
M  V30 3241 H 306.938 0.22691 -0.631469 0
M  V30 3242 H 309.482 0.0551439 -2.04426 0
M  V30 3243 H 307.637 2.29163 -3.12351 0
M  V30 3244 H 308.051 1.27205 -5.08841 0
M  V30 3245 H 309.525 2.932 -4.67694 0
M  V30 3246 H 310.002 3.2051 -3.00283 0
M  V30 3247 H 310.608 1.77283 -3.86589 0
M  V30 3248 N 308.923 1.53595 0.353017 0
M  V30 3249 C 310.151 1.74311 1.1146 0
M  V30 3250 C 310.566 0.477854 1.82653 0
M  V30 3251 O 309.923 -0.549977 1.74016 0
M  V30 3252 C 309.974 2.91694 2.13534 0
M  V30 3253 O 309.695 4.13325 1.45238 0
M  V30 3254 C 311.196 3.24384 3.02142 0
M  V30 3255 H 308.416 0.582669 0.332773 0
M  V30 3256 H 310.96 2.00386 0.408107 0
M  V30 3257 H 309.115 2.67977 2.79763 0
M  V30 3258 H 309.529 4.79148 2.13349 0
M  V30 3259 H 311.003 4.09893 3.69718 0
M  V30 3260 H 311.48 2.40282 3.67643 0
M  V30 3261 H 312.086 3.50073 2.41514 0
M  V30 3262 N 310.401 -0.613514 1.45168 0
M  V30 3263 C 311.678 -1.37263 1.39349 0
M  V30 3264 C 312.058 -2.11012 0.0610848 0
M  V30 3265 O 311.406 -2.07502 -0.956825 0
M  V30 3266 C 311.616 -2.3244 2.60332 0
M  V30 3267 C 312.964 -2.9523 3.05163 0
M  V30 3268 O 313.988 -2.42762 2.60663 0
M  V30 3269 O 312.847 -3.90454 3.82372 0
M  V30 3270 H 309.941 -0.615188 0.552696 0
M  V30 3271 H 312.487 -0.637097 1.57287 0
M  V30 3272 H 311.259 -1.77164 3.48896 0
M  V30 3273 H 310.882 -3.13383 2.44698 0
M  V30 3274 N 311.879 -1.3236 -0.855495 0
M  V30 3275 C 313.104 -1.2601 -1.64731 0
M  V30 3276 C 313.529 0.169068 -1.87339 0
M  V30 3277 O 312.887 1.12016 -1.42556 0
M  V30 3278 C 312.935 -2.02417 -2.98429 0
M  V30 3279 O 312.039 -1.3714 -3.8893 0
M  V30 3280 H 311.38 -0.434325 -0.502253 0
M  V30 3281 H 313.91 -1.74661 -1.06558 0
M  V30 3282 H 313.92 -2.12559 -3.48257 0
M  V30 3283 H 312.595 -3.06343 -2.81295 0
M  V30 3284 H 311.172 -1.3554 -3.47395 0
M  V30 3285 N 313.357 1.07166 -1.15556 0
M  V30 3286 C 314.768 1.6127 -0.940693 0
M  V30 3287 C 315.119 1.89251 0.517551 0
M  V30 3288 O 314.244 1.65937 1.38903 0
M  V30 3289 C 314.839 2.92993 -1.7012 0
M  V30 3290 C 313.398 3.43832 -1.53156 0
M  V30 3291 C 312.545 2.1786 -1.71558 0
M  V30 3292 H 315.496 0.90229 -1.30554 0
M  V30 3293 H 315.517 3.62007 -1.17181 0
M  V30 3294 H 315.029 2.72596 -2.76248 0
M  V30 3295 H 313.13 3.69307 -0.494294 0
M  V30 3296 H 313.243 4.19747 -2.30975 0
M  V30 3297 H 311.607 2.2765 -1.14225 0
M  V30 3298 H 312.39 1.99956 -2.79056 0
M  V30 3299 N 314.835 0.952656 1.25548 0
M  V30 3300 C 316.065 0.622592 1.96996 0
M  V30 3301 C 316.473 -0.809112 1.71026 0
M  V30 3302 O 315.816 -1.55258 0.981861 0
M  V30 3303 C 315.878 0.798946 3.5051 0
M  V30 3304 C 315.542 2.20744 4.00151 0
M  V30 3305 C 316.539 3.18394 4.11001 0
M  V30 3306 C 314.224 2.5311 4.33867 0
M  V30 3307 C 316.218 4.46504 4.54877 0
M  V30 3308 C 313.905 3.8145 4.7743 0
M  V30 3309 C 314.903 4.77959 4.87897 0
M  V30 3310 O 314.591 6.04012 5.30494 0
M  V30 3311 H 314.323 0.232503 0.634758 0
M  V30 3312 H 316.877 1.2789 1.60728 0
M  V30 3313 H 315.107 0.0854903 3.86605 0
M  V30 3314 H 316.796 0.47023 4.03167 0
M  V30 3315 H 317.562 2.94715 3.85186 0
M  V30 3316 H 313.441 1.78719 4.24948 0
M  V30 3317 H 316.985 5.21835 4.62962 0
M  V30 3318 H 312.882 4.04936 5.0269 0
M  V30 3319 H 313.65 6.0736 5.48685 0
M  V30 3320 N 316.313 -1.40141 0.720998 0
M  V30 3321 C 317.562 -2.0002 0.259804 0
M  V30 3322 C 317.875 -1.57839 -1.15526 0
M  V30 3323 O 319.081 -2.10455 -1.71525 0
M  V30 3324 C 317.537 -3.57516 0.413566 0
M  V30 3325 C 317.145 -4.08667 1.83562 0
M  V30 3326 C 318.889 -4.24498 0.0134387 0
M  V30 3327 C 316.796 -5.58686 1.93968 0
M  V30 3328 H 315.726 -0.748195 0.0933806 0
M  V30 3329 H 318.377 -1.60313 0.892866 0
M  V30 3330 H 316.759 -3.9495 -0.288169 0
M  V30 3331 H 317.933 -3.82598 2.56817 0
M  V30 3332 H 316.248 -3.543 2.1877 0
M  V30 3333 H 318.845 -5.34654 0.0703954 0
M  V30 3334 H 319.188 -4.03375 -1.02927 0
M  V30 3335 H 319.721 -3.92188 0.665815 0
M  V30 3336 H 316.46 -5.8467 2.96379 0
M  V30 3337 H 315.98 -5.86602 1.25131 0
M  V30 3338 H 317.659 -6.23875 1.71431 0
M  V30 3339 N 317.792 -0.46758 -1.50504 0
M  V30 3340 C 319.041 0.0902868 -2.01498 0
M  V30 3341 C 319.354 1.411 -1.35463 0
M  V30 3342 O 320.56 2.0536 -1.77594 0
M  V30 3343 C 319.016 0.21142 -3.59278 0
M  V30 3344 C 318.624 -1.10065 -4.34269 0
M  V30 3345 C 320.368 0.721433 -4.18325 0
M  V30 3346 C 318.275 -0.943505 -5.83825 0
M  V30 3347 H 317.205 0.037517 -0.753066 0
M  V30 3348 H 319.856 -0.601943 -1.73346 0
M  V30 3349 H 318.238 0.967352 -3.84003 0
M  V30 3350 H 319.412 -1.86726 -4.21272 0
M  V30 3351 H 317.727 -1.5415 -3.86816 0
M  V30 3352 H 320.324 0.85598 -5.27804 0
M  V30 3353 H 320.667 1.71186 -3.79475 0
M  V30 3354 H 321.2 0.0229843 -3.97793 0
M  V30 3355 H 317.939 -1.90719 -6.27141 0
M  V30 3356 H 317.459 -0.217213 -5.99407 0
M  V30 3357 H 319.138 -0.608715 -6.4413 0
M  V30 3358 N 319.27 1.56325 -0.20005 0
M  V30 3359 C 320.681 1.8408 0.31167 0
M  V30 3360 C 321.032 1.12087 1.61031 0
M  V30 3361 O 320.157 0.38332 2.12978 0
M  V30 3362 C 320.752 3.33932 0.57226 0
M  V30 3363 C 319.311 3.6208 1.02834 0
M  V30 3364 C 318.458 2.77186 0.079634 0
M  V30 3365 H 321.409 1.52939 -0.423729 0
M  V30 3366 H 321.43 3.52971 1.42096 0
M  V30 3367 H 320.942 3.86303 -0.37308 0
M  V30 3368 H 319.043 3.15147 1.98778 0
M  V30 3369 H 319.156 4.7023 0.917624 0
M  V30 3370 H 317.52 2.47951 0.582448 0
M  V30 3371 H 318.303 3.32347 -0.860238 0
M  V30 3372 N 320.748 -0.0735177 1.57428 0
M  V30 3373 C 321.68 -1.11423 2.00294 0
M  V30 3374 C 322.693 -1.35084 0.908637 0
M  V30 3375 O 323.882 -1.33355 1.18654 0
M  V30 3376 C 320.982 -2.46548 2.32523 0
M  V30 3377 C 320.155 -2.42867 3.63778 0
M  V30 3378 C 319.214 -3.60087 3.83697 0
M  V30 3379 O 318.24 -3.41595 4.55304 0
M  V30 3380 N 319.442 -4.80372 3.25919 0
M  V30 3381 H 322.207 -0.749206 2.90184 0
M  V30 3382 H 319.768 -0.262195 1.59763 0
M  V30 3383 H 321.76 -3.23607 2.43024 0
M  V30 3384 H 320.33 -2.75059 1.48531 0
M  V30 3385 H 319.55 -1.51206 3.64047 0
M  V30 3386 H 320.838 -2.37506 4.49965 0
M  V30 3387 H 320.236 -4.983 2.67795 0
M  V30 3388 H 318.793 -5.54948 3.41871 0
M  V30 3389 N 322.226 -1.5378 -0.344866 0
M  V30 3390 C 323.176 -1.78057 -1.42407 0
M  V30 3391 C 324.16 -0.635732 -1.47808 0
M  V30 3392 O 325.352 -0.89508 -1.527 0
M  V30 3393 C 322.481 -1.99242 -2.79566 0
M  V30 3394 C 321.567 -3.19787 -2.78562 0
M  V30 3395 N 321.958 -4.41284 -2.47189 0
M  V30 3396 C 320.256 -3.2093 -3.0971 0
M  V30 3397 C 320.957 -5.23128 -2.54385 0
M  V30 3398 N 319.933 -4.59813 -2.89953 0
M  V30 3399 H 323.735 -2.69588 -1.17046 0
M  V30 3400 H 321.249 -1.52687 -0.553217 0
M  V30 3401 H 323.246 -2.14768 -3.57324 0
M  V30 3402 H 321.906 -1.08953 -3.05875 0
M  V30 3403 H 322.917 -4.68657 -2.20411 0
M  V30 3404 H 319.594 -2.40603 -3.41199 0
M  V30 3405 H 320.984 -6.30096 -2.333 0
M  V30 3406 N 323.704 0.605807 -1.45491 0
M  V30 3407 C 325.12 0.926751 -1.29936 0
M  V30 3408 C 325.32 1.99896 -0.253706 0
M  V30 3409 O 324.376 2.50038 0.351737 0
M  V30 3410 C 325.689 1.36599 -2.67883 0
M  V30 3411 C 327.237 1.4801 -2.75793 0
M  V30 3412 C 327.712 1.95309 -4.14268 0
M  V30 3413 N 329.203 2.0254 -4.16571 0
M  V30 3414 C 329.938 2.40363 -5.20589 0
M  V30 3415 N 329.434 2.77143 -6.34952 0
M  V30 3416 N 331.227 2.40718 -5.07948 0
M  V30 3417 H 323.378 -0.102862 -2.12151 0
M  V30 3418 H 325.641 0.016639 -0.947854 0
M  V30 3419 H 325.347 0.652306 -3.45598 0
M  V30 3420 H 325.221 2.33215 -2.96463 0
M  V30 3421 H 327.608 2.1847 -1.98381 0
M  V30 3422 H 327.689 0.497041 -2.50925 0
M  V30 3423 H 327.333 1.25436 -4.92167 0
M  V30 3424 H 327.263 2.94532 -4.3653 0
M  V30 3425 H 329.754 1.76699 -3.34045 0
M  V30 3426 H 330.067 3.0489 -7.10114 0
M  V30 3427 H 328.412 2.74834 -6.3835 0
M  V30 3428 H 331.603 2.11392 -4.1765 0
M  V30 3429 H 331.776 2.69869 -5.89131 0
M  V30 3430 N 325.182 1.32811 0.848464 0
M  V30 3431 C 326.407 1.26882 1.6406 0
M  V30 3432 C 326.832 -0.15913 1.87426 0
M  V30 3433 O 326.19 -1.11258 1.43148 0
M  V30 3434 C 326.238 2.03997 2.97351 0
M  V30 3435 O 325.342 1.39201 3.88197 0
M  V30 3436 H 324.683 0.436982 0.499943 0
M  V30 3437 H 327.213 1.75224 1.0563 0
M  V30 3438 H 327.223 2.14403 3.47124 0
M  V30 3439 H 325.898 3.0783 2.79666 0
M  V30 3440 H 324.475 1.37381 3.46671 0
M  V30 3441 N 326.66 -1.06551 1.16123 0
M  V30 3442 C 327.59 -2.15935 0.88851 0
M  V30 3443 C 328.571 -1.69306 -0.164135 0
M  V30 3444 O 329.756 -1.94193 -0.0167857 0
M  V30 3445 C 326.886 -3.45149 0.385942 0
M  V30 3446 C 325.84 -4.05271 1.3762 0
M  V30 3447 C 325.166 -5.29664 0.732137 0
M  V30 3448 C 326.466 -4.44355 2.74493 0
M  V30 3449 H 328.16 -2.39006 1.80323 0
M  V30 3450 H 325.706 -1.14866 0.868435 0
M  V30 3451 H 327.659 -4.21004 0.182647 0
M  V30 3452 H 326.383 -3.21689 -0.564274 0
M  V30 3453 H 325.042 -3.3147 1.56599 0
M  V30 3454 H 324.69 -5.02499 -0.224483 0
M  V30 3455 H 324.39 -5.70848 1.39307 0
M  V30 3456 H 325.914 -6.08218 0.538802 0
M  V30 3457 H 327.328 -5.11303 2.59311 0
M  V30 3458 H 325.725 -4.96515 3.37035 0
M  V30 3459 H 326.795 -3.55339 3.29943 0
M  V30 3460 N 328.138 -0.959301 -1.25041 0
M  V30 3461 C 329.048 -0.489994 -2.29426 0
M  V30 3462 C 330.064 0.444944 -1.68215 0
M  V30 3463 O 331.24 0.320046 -1.98841 0
M  V30 3464 C 328.305 0.220309 -3.45999 0
M  V30 3465 C 327.366 -0.753418 -4.22637 0
M  V30 3466 C 326.599 -0.076918 -5.33645 0
M  V30 3467 O 326.822 1.13649 -5.58963 0
M  V30 3468 O 325.756 -0.764824 -5.97021 0
M  V30 3469 H 329.582 -1.35755 -2.71669 0
M  V30 3470 H 327.167 -0.725961 -1.30576 0
M  V30 3471 H 329.049 0.619677 -4.16819 0
M  V30 3472 H 327.724 1.06296 -3.0575 0
M  V30 3473 H 326.631 -1.20308 -3.54227 0
M  V30 3474 H 327.964 -1.56423 -4.66683 0
M  V30 3475 N 329.616 1.39756 -0.72842 0
M  V30 3476 C 330.893 1.94574 -0.200079 0
M  V30 3477 C 331.273 1.66569 1.29684 0
M  V30 3478 O 330.621 0.990326 2.05924 0
M  V30 3479 C 330.831 3.45004 -0.526608 0
M  V30 3480 C 332.179 4.21965 -0.472318 0
M  V30 3481 O 333.203 3.53173 -0.463413 0
M  V30 3482 O 332.062 5.44552 -0.461075 0
M  V30 3483 H 329.156 0.826289 -0.0342851 0
M  V30 3484 H 331.702 1.49293 -0.806829 0
M  V30 3485 H 330.474 3.58796 -1.56144 0
M  V30 3486 H 330.097 3.97449 0.109449 0
M  V30 3487 N 331.094 0.475555 1.50254 0
M  V30 3488 C 332.51 0.12997 1.5907 0
M  V30 3489 C 332.71 -1.36385 1.48328 0
M  V30 3490 O 331.766 -2.13754 1.34407 0
M  V30 3491 C 333.079 0.684139 2.92814 0
M  V30 3492 C 334.627 0.647965 3.0622 0
M  V30 3493 C 335.102 1.17975 4.42545 0
M  V30 3494 N 336.593 1.13936 4.48969 0
M  V30 3495 C 337.328 1.52129 5.52851 0
M  V30 3496 N 336.824 1.97793 6.63965 0
M  V30 3497 N 338.617 1.43704 5.4342 0
M  V30 3498 H 330.768 1.44706 1.55479 0
M  V30 3499 H 333.031 0.598691 0.735033 0
M  V30 3500 H 332.737 1.73079 3.06164 0
M  V30 3501 H 332.611 0.130204 3.76975 0
M  V30 3502 H 334.998 -0.38979 2.92514 0
M  V30 3503 H 335.079 1.23876 2.23805 0
M  V30 3504 H 334.723 2.21616 4.57 0
M  V30 3505 H 334.653 0.565138 5.23559 0
M  V30 3506 H 337.144 0.804488 3.69238 0
M  V30 3507 H 337.457 2.25072 7.39299 0
M  V30 3508 H 335.802 2.01749 6.65073 0
M  V30 3509 H 338.993 1.07867 4.55502 0
M  V30 3510 H 339.166 1.73794 6.24259 0
M  V30 3511 N 332.573 -1.56217 0.208337 0
M  V30 3512 C 333.819 -1.98242 -0.427552 0
M  V30 3513 C 334.152 -1.09554 -1.60348 0
M  V30 3514 O 333.427 -0.15035 -1.93918 0
M  V30 3515 C 333.71 -3.4931 -0.874907 0
M  V30 3516 C 333.563 -4.48773 0.303751 0
M  V30 3517 C 334.882 -4.04424 -1.73577 0
M  V30 3518 H 332.001 -0.720744 -0.153936 0
M  V30 3519 H 334.643 -1.87586 0.30192 0
M  V30 3520 H 332.793 -3.58522 -1.49648 0
M  V30 3521 H 334.465 -4.51586 0.941682 0
M  V30 3522 H 332.708 -4.23194 0.953375 0
M  V30 3523 H 333.379 -5.51976 -0.0519883 0
M  V30 3524 H 335.855 -3.98075 -1.21143 0
M  V30 3525 H 334.731 -5.1047 -2.01771 0
M  V30 3526 H 334.992 -3.50494 -2.69456 0
M  V30 3527 N 334.051 0.0651679 -1.57465 0
M  V30 3528 C 335.276 0.779605 -1.9219 0
M  V30 3529 C 335.701 1.69988 -0.805333 0
M  V30 3530 O 335.059 1.79685 0.241435 0
M  V30 3531 C 335.107 1.54364 -3.2589 0
M  V30 3532 O 334.211 2.65474 -3.1559 0
M  V30 3533 H 333.552 0.212249 -0.629163 0
M  V30 3534 H 336.082 0.0314294 -2.04576 0
M  V30 3535 H 336.092 1.92146 -3.59922 0
M  V30 3536 H 334.767 0.868457 -4.06732 0
M  V30 3537 H 333.344 2.30501 -2.93128 0
M  V30 3538 N 335.529 1.53961 0.336706 0
M  V30 3539 C 336.492 1.81724 1.39675 0
M  V30 3540 C 337.492 0.688532 1.45313 0
M  V30 3541 O 338.682 0.956829 1.45569 0
M  V30 3542 C 335.814 1.96543 2.78538 0
M  V30 3543 H 337.007 2.76424 1.16318 0
M  V30 3544 H 334.56 1.45478 0.571474 0
M  V30 3545 H 335.295 1.0401 3.07168 0
M  V30 3546 H 335.08 2.78665 2.75841 0
M  V30 3547 H 336.57 2.19516 3.5525 0
M  V30 3548 N 337.007 -0.598083 1.45811 0
M  V30 3549 C 337.97 -1.69018 1.54808 0
M  V30 3550 C 338.97 -1.55037 0.426652 0
M  V30 3551 O 340.16 -1.59932 0.690456 0
M  V30 3552 C 337.292 -3.0835 1.45371 0
M  V30 3553 H 338.485 -1.62403 2.52121 0
M  V30 3554 H 336.038 -0.814626 1.33392 0
M  V30 3555 H 336.773 -3.20534 0.492793 0
M  V30 3556 H 336.558 -3.19907 2.26721 0
M  V30 3557 H 338.048 -3.8788 1.54721 0
M  V30 3558 N 338.485 -1.33259 -0.841409 0
M  V30 3559 C 339.901 -1.12538 -1.13169 0
M  V30 3560 C 340.101 0.0854037 -2.01319 0
M  V30 3561 O 339.157 0.766417 -2.40587 0
M  V30 3562 C 340.47 -2.41156 -1.79623 0
M  V30 3563 C 342.018 -2.47038 -1.922 0
M  V30 3564 C 342.493 -3.7561 -2.6207 0
M  V30 3565 N 343.984 -3.76667 -2.69585 0
M  V30 3566 C 344.719 -4.72861 -3.2433 0
M  V30 3567 N 344.215 -5.79428 -3.79783 0
M  V30 3568 N 346.008 -4.6034 -3.22558 0
M  V30 3569 H 338.159 -2.10868 -0.254676 0
M  V30 3570 H 340.422 -0.931615 -0.175493 0
M  V30 3571 H 340.128 -3.29747 -1.22311 0
M  V30 3572 H 340.002 -2.53114 -2.79666 0
M  V30 3573 H 342.389 -1.58898 -2.48667 0
M  V30 3574 H 342.47 -2.39022 -0.911148 0
M  V30 3575 H 342.114 -4.64131 -2.06263 0
M  V30 3576 H 342.044 -3.80902 -3.63622 0
M  V30 3577 H 344.535 -2.99648 -2.30259 0
M  V30 3578 H 344.848 -6.48867 -4.19752 0
M  V30 3579 H 343.193 -5.83166 -3.78078 0
M  V30 3580 H 346.384 -3.76244 -2.78492 0
M  V30 3581 H 346.557 -5.35478 -3.64921 0
M  V30 3582 N 339.963 1.05934 -1.16686 0
M  V30 3583 C 341.209 1.79065 -0.95203 0
M  V30 3584 C 341.542 1.87147 0.518629 0
M  V30 3585 O 340.817 1.36574 1.38484 0
M  V30 3586 C 341.1 3.23359 -1.58464 0
M  V30 3587 C 340.953 3.23336 -3.12689 0
M  V30 3588 C 342.272 4.21004 -1.28232 0
M  V30 3589 H 339.391 0.65005 -0.34728 0
M  V30 3590 H 342.033 1.23868 -1.44072 0
M  V30 3591 H 340.183 3.70493 -1.16908 0
M  V30 3592 H 341.855 2.84336 -3.6325 0
M  V30 3593 H 340.098 2.61886 -3.4583 0
M  V30 3594 H 340.769 4.25144 -3.52075 0
M  V30 3595 H 343.245 3.8233 -1.64203 0
M  V30 3596 H 342.121 5.20225 -1.75092 0
M  V30 3597 H 342.382 4.41639 -0.201791 0
M  V30 3598 N 341.441 0.965919 1.2453 0
M  V30 3599 C 342.371 0.513476 2.27784 0
M  V30 3600 C 343.352 -0.445974 1.6415 0
M  V30 3601 O 344.537 -0.342485 1.91156 0
M  V30 3602 C 341.667 -0.198839 3.4673 0
M  V30 3603 C 340.621 0.676456 4.2262 0
M  V30 3604 C 339.947 -0.167248 5.34438 0
M  V30 3605 C 341.247 1.96017 4.84123 0
M  V30 3606 H 342.941 1.3765 2.65881 0
M  V30 3607 H 340.487 0.663321 1.27813 0
M  V30 3608 H 342.44 -0.526567 4.18097 0
M  V30 3609 H 341.164 -1.0962 3.07654 0
M  V30 3610 H 339.823 0.98743 3.53052 0
M  V30 3611 H 339.471 -1.0647 4.91603 0
M  V30 3612 H 339.171 0.415181 5.86131 0
M  V30 3613 H 340.695 -0.489688 6.08633 0
M  V30 3614 H 342.109 1.69814 5.47573 0
M  V30 3615 H 340.506 2.48918 5.4604 0
M  V30 3616 H 341.576 2.65622 4.05676 0
M  V30 3617 N 342.919 -1.39368 0.735821 0
M  V30 3618 C 343.851 -2.2913 0.0567723 0
M  V30 3619 C 344.864 -1.46859 -0.702589 0
M  V30 3620 O 346.053 -1.69925 -0.546616 0
M  V30 3621 C 343.153 -3.25492 -0.943823 0
M  V30 3622 C 342.326 -4.36709 -0.24581 0
M  V30 3623 C 341.385 -5.13376 -1.15463 0
M  V30 3624 O 340.411 -5.65683 -0.631803 0
M  V30 3625 N 341.613 -5.24656 -2.48427 0
M  V30 3626 H 344.378 -2.88047 0.827582 0
M  V30 3627 H 341.939 -1.50957 0.585112 0
M  V30 3628 H 343.931 -3.73657 -1.55443 0
M  V30 3629 H 342.501 -2.676 -1.61583 0
M  V30 3630 H 341.721 -3.9041 0.545286 0
M  V30 3631 H 343.009 -5.08244 0.237891 0
M  V30 3632 H 342.407 -4.83679 -2.93379 0
M  V30 3633 H 340.964 -5.76258 -3.04582 0
M  V30 3634 N 344.397 -0.483516 -1.5 0
M  V30 3635 C 345.329 0.340634 -2.26655 0
M  V30 3636 C 346.342 0.946152 -1.32483 0
M  V30 3637 O 347.531 0.832453 -1.579 0
M  V30 3638 C 344.631 1.4929 -3.04246 0
M  V30 3639 C 343.804 0.997903 -4.25865 0
M  V30 3640 C 342.863 2.02569 -4.85646 0
M  V30 3641 O 341.889 1.60128 -5.46212 0
M  V30 3642 N 343.091 3.3548 -4.73744 0
M  V30 3643 H 345.856 -0.316577 -2.98023 0
M  V30 3644 H 343.417 -0.315024 -1.58806 0
M  V30 3645 H 345.409 2.17766 -3.41116 0
M  V30 3646 H 343.979 2.05458 -2.35597 0
M  V30 3647 H 343.199 0.138617 -3.93956 0
M  V30 3648 H 344.487 0.645305 -5.04691 0
M  V30 3649 H 343.885 3.72661 -4.25605 0
M  V30 3650 H 342.442 3.99718 -5.14848 0
M  V30 3651 N 345.875 1.56104 -0.216619 0
M  V30 3652 C 347.123 1.97781 0.415593 0
M  V30 3653 C 347.444 1.10536 1.60645 0
M  V30 3654 O 346.714 0.181303 1.95059 0
M  V30 3655 H 345.294 0.730415 0.156534 0
M  V30 3656 H 347.956 1.92445 -0.308366 0
M  V30 3657 H 347.052 3.03072 0.74525 0
M  V30 3658 N 347.353 -0.0568162 1.57498 0
M  V30 3659 C 348.316 -1.05038 2.03715 0
M  V30 3660 C 349.316 -1.30709 0.936577 0
M  V30 3661 O 350.506 -1.26178 1.20103 0
M  V30 3662 C 347.638 -2.39034 2.43055 0
M  V30 3663 H 348.831 -0.651715 2.92733 0
M  V30 3664 H 346.384 -0.302947 1.53336 0
M  V30 3665 H 347.119 -2.83703 1.57108 0
M  V30 3666 H 346.904 -2.21739 3.2338 0
M  V30 3667 H 348.394 -3.10421 2.79336 0
M  V30 3668 N 348.832 -1.54138 -0.328536 0
M  V30 3669 C 350.243 -1.63395 -0.903272 0
M  V30 3670 C 350.594 -0.524828 -1.8905 0
M  V30 3671 O 349.719 0.343068 -2.13663 0
M  V30 3672 C 350.314 -2.9618 -1.64507 0
M  V30 3673 C 348.873 -3.0765 -2.1686 0
M  V30 3674 C 348.02 -2.58933 -0.992416 0
M  V30 3675 H 350.971 -1.58344 -0.106253 0
M  V30 3676 H 350.992 -2.86061 -2.50897 0
M  V30 3677 H 350.504 -3.76884 -0.926302 0
M  V30 3678 H 348.605 -2.31611 -2.91868 0
M  V30 3679 H 348.718 -4.1337 -2.42202 0
M  V30 3680 H 347.082 -2.14706 -1.37016 0
M  V30 3681 H 347.865 -3.42089 -0.288041 0
M  V30 3682 N 350.31 0.590341 -1.46126 0
M  V30 3683 C 351.558 1.34616 -1.50742 0
M  V30 3684 C 351.879 1.94363 -0.157486 0
M  V30 3685 O 351.149 1.78136 0.815136 0
M  V30 3686 H 349.729 0.499789 -0.555175 0
M  V30 3687 H 352.391 0.691953 -1.82203 0
M  V30 3688 H 351.487 2.15678 -2.25587 0
M  V30 3689 N 351.788 1.33704 0.83433 0
M  V30 3690 C 353.028 1.26754 1.60352 0
M  V30 3691 C 353.392 -0.163182 1.91305 0
M  V30 3692 O 354.593 -0.3567 2.66423 0
M  V30 3693 C 352.864 2.12262 2.8754 0
M  V30 3694 S 354.423 2.22549 3.78176 0
M  V30 3695 H 351.241 0.450879 0.549753 0
M  V30 3696 H 353.843 1.68788 0.986444 0
M  V30 3697 H 352.547 3.15238 2.62779 0
M  V30 3698 H 352.078 1.71082 3.54252 0
M  V30 3699 H 354.093 1.3899 4.76336 0
M  V30 3700 N 353.266 -1.05314 1.17247 0
M  V30 3701 C 354.229 -2.112 0.890357 0
M  V30 3702 C 355.229 -1.60359 -0.118943 0
M  V30 3703 O 356.419 -1.73833 0.113086 0
M  V30 3704 C 353.551 -3.39266 0.333422 0
M  V30 3705 H 354.744 -2.37659 1.82916 0
M  V30 3706 H 352.297 -1.21538 0.982758 0
M  V30 3707 H 353.032 -3.18462 -0.612587 0
M  V30 3708 H 352.817 -3.77477 1.06082 0
M  V30 3709 H 354.307 -4.17315 0.154322 0
M  V30 3710 N 354.744 -0.972509 -1.24016 0
M  V30 3711 C 355.674 -0.525548 -2.27509 0
M  V30 3712 C 356.655 0.437262 -1.64384 0
M  V30 3713 O 357.84 0.332343 -1.91335 0
M  V30 3714 C 354.97 0.180448 -3.46831 0
M  V30 3715 C 353.924 -0.698859 -4.22256 0
M  V30 3716 C 353.25 0.138903 -5.3452 0
M  V30 3717 C 354.55 -1.98582 -4.83076 0
M  V30 3718 H 356.244 -1.39058 -2.65148 0
M  V30 3719 H 353.79 -0.67009 -1.27459 0
M  V30 3720 H 355.743 0.504387 -4.18371 0
M  V30 3721 H 354.467 1.07987 -3.08231 0
M  V30 3722 H 353.126 -1.00614 -3.52523 0
M  V30 3723 H 352.774 1.03862 -4.9216 0
M  V30 3724 H 352.474 -0.446259 -5.85903 0
M  V30 3725 H 353.998 0.457404 -6.08884 0
M  V30 3726 H 355.412 -1.72715 -5.46665 0
M  V30 3727 H 353.809 -2.5181 -5.44713 0
M  V30 3728 H 354.879 -2.67769 -4.04262 0
M  V30 3729 N 356.222 1.38976 -0.743202 0
M  V30 3730 C 357.468 2.0064 -0.295189 0
M  V30 3731 C 357.801 1.5885 1.11716 0
M  V30 3732 O 357.076 0.821181 1.76315 0
M  V30 3733 C 357.359 3.578 -0.406318 0
M  V30 3734 C 357.212 4.09586 -1.85903 0
M  V30 3735 C 358.531 4.39616 0.206439 0
M  V30 3736 H 355.65 0.728935 -0.108733 0
M  V30 3737 H 358.292 1.65067 -0.940897 0
M  V30 3738 H 356.442 3.88235 0.143419 0
M  V30 3739 H 358.114 3.89837 -2.46627 0
M  V30 3740 H 356.357 3.6284 -2.3776 0
M  V30 3741 H 357.028 5.18708 -1.888 0
M  V30 3742 H 359.504 4.15273 -0.262283 0
M  V30 3743 H 358.38 5.48812 0.0983819 0
M  V30 3744 H 358.641 4.22754 1.2935 0
M  V30 3745 N 357.7 0.491464 1.49741 0
M  V30 3746 C 358.63 -0.28154 2.31796 0
M  V30 3747 C 359.611 -0.971473 1.3963 0
M  V30 3748 O 360.796 -0.964719 1.68543 0
M  V30 3749 C 357.926 -1.35203 3.19902 0
M  V30 3750 C 356.88 -0.782529 4.20786 0
M  V30 3751 C 356.206 -1.95283 4.97764 0
M  V30 3752 C 357.506 0.21999 5.21837 0
M  V30 3753 H 359.2 0.403355 2.96671 0
M  V30 3754 H 356.746 0.195425 1.42668 0
M  V30 3755 H 358.699 -1.90045 3.76113 0
M  V30 3756 H 357.423 -2.06598 2.52953 0
M  V30 3757 H 356.082 -0.255928 3.65706 0
M  V30 3758 H 355.73 -2.65423 4.2727 0
M  V30 3759 H 355.43 -1.57789 5.66018 0
M  V30 3760 H 356.954 -2.50577 5.56816 0
M  V30 3761 H 358.368 -0.23996 5.72798 0
M  V30 3762 H 356.765 0.51026 5.97927 0
M  V30 3763 H 357.835 1.13911 4.7133 0
M  V30 3764 N 359.178 -1.55987 0.224894 0
M  V30 3765 C 360.455 -1.90232 -0.455083 0
M  V30 3766 C 360.835 -1.14269 -1.77499 0
M  V30 3767 O 360.183 -0.253079 -2.27094 0
M  V30 3768 C 360.393 -3.42993 -0.644758 0
M  V30 3769 C 361.741 -4.13821 -0.950669 0
M  V30 3770 O 362.765 -3.4861 -0.731423 0
M  V30 3771 O 361.624 -5.29128 -1.36695 0
M  V30 3772 H 358.718 -0.79108 -0.241084 0
M  V30 3773 H 361.264 -1.67581 0.267327 0
M  V30 3774 H 360.036 -3.90252 0.28613 0
M  V30 3775 H 359.659 -3.71434 -1.41853 0
M  V30 3776 N 360.656 0.0484629 -1.57525 0
M  V30 3777 C 361.884 0.755421 -1.92616 0
M  V30 3778 C 362.299 1.69919 -0.822984 0
M  V30 3779 O 361.656 1.81378 0.202085 0
M  V30 3780 C 361.707 1.52915 -3.27566 0
M  V30 3781 O 361.428 0.62329 -4.33644 0
M  V30 3782 C 362.929 2.33502 -3.76818 0
M  V30 3783 H 360.149 0.213465 -0.63614 0
M  V30 3784 H 362.693 0.0117698 -2.04497 0
M  V30 3785 H 360.848 2.22486 -3.17142 0
M  V30 3786 H 361.262 1.16383 -5.11425 0
M  V30 3787 H 362.736 2.83214 -4.73808 0
M  V30 3788 H 363.213 3.14068 -3.07014 0
M  V30 3789 H 363.819 1.69043 -3.90262 0
M  V30 3790 N 362.134 1.5431 0.320358 0
M  V30 3791 C 363.067 1.78769 1.41834 0
M  V30 3792 C 364.045 0.63783 1.49568 0
M  V30 3793 O 365.229 0.875628 1.66928 0
M  V30 3794 C 362.356 1.90712 2.79905 0
M  V30 3795 C 361.402 3.13023 2.89687 0
M  V30 3796 S 362.235 4.71554 2.53766 0
M  V30 3797 C 363.391 4.86408 3.93902 0
M  V30 3798 H 363.624 2.71619 1.20874 0
M  V30 3799 H 361.157 1.45474 0.517377 0
M  V30 3800 H 363.115 1.98279 3.59438 0
M  V30 3801 H 361.776 0.988343 2.98145 0
M  V30 3802 H 360.969 3.18124 3.90913 0
M  V30 3803 H 360.571 3.03803 2.18128 0
M  V30 3804 H 362.863 4.69241 4.88691 0
M  V30 3805 H 363.806 5.88508 3.93782 0
M  V30 3806 H 364.214 4.14689 3.83005 0
M  V30 3807 N 363.613 -0.582584 1.46437 0
M  V30 3808 C 364.576 -1.67366 1.56592 0
M  V30 3809 C 365.576 -1.54575 0.443072 0
M  V30 3810 O 366.766 -1.59191 0.707381 0
M  V30 3811 C 363.898 -3.06791 1.48634 0
M  V30 3812 H 365.091 -1.5972 2.5383 0
M  V30 3813 H 362.644 -0.800432 1.34249 0
M  V30 3814 H 363.379 -3.19993 0.526763 0
M  V30 3815 H 363.164 -3.17484 2.30101 0
M  V30 3816 H 364.654 -3.86218 1.58826 0
M  V30 3817 N 365.091 -1.34144 -0.827227 0
M  V30 3818 C 366.039 -1.25364 -1.95925 0
M  V30 3819 C 367.033 -0.152608 -1.68711 0
M  V30 3820 O 368.239 -0.317311 -1.77181 0
M  V30 3821 H 364.614 -0.389342 -0.643364 0
M  V30 3822 H 366.585 -2.21045 -2.00454 0
M  V30 3823 C 365.334 -1.02158 -3.32354 0
M  V30 3824 H 364.657 -1.86111 -3.5384 0
M  V30 3825 H 366.097 -1.00048 -4.12027 0
M  V30 3826 C 364.556 0.275244 -3.35774 0
M  V30 3827 O 365.086 1.27806 -3.80826 0
M  V30 3828 N 363.292 0.306853 -2.88975 0
M  V30 3829 H 362.839 -0.509777 -2.52506 0
M  V30 3830 H 362.797 1.17432 -2.91646 0
M  V30 3831 N 366.569 1.04691 -1.17803 0
M  V30 3832 C 367.794 1.81984 -0.994813 0
M  V30 3833 C 368.219 1.82586 0.452112 0
M  V30 3834 O 367.577 1.23854 1.324 0
M  V30 3835 C 367.625 3.2575 -1.54659 0
M  V30 3836 O 366.729 4.05267 -0.763728 0
M  V30 3837 H 366.07 0.562483 -0.352857 0
M  V30 3838 H 368.6 1.3189 -1.56417 0
M  V30 3839 H 368.61 3.76541 -1.57102 0
M  V30 3840 H 367.285 3.24627 -2.59981 0
M  V30 3841 H 365.862 3.63972 -0.811108 0
M  V30 3842 N 368.047 0.979072 1.23499 0
M  V30 3843 C 369.272 0.664845 1.96455 0
M  V30 3844 C 369.697 -0.761287 1.72006 0
M  V30 3845 O 369.055 -1.51837 0.990713 0
M  V30 3846 C 369.103 0.959479 3.47601 0
M  V30 3847 O 368.207 0.0508168 4.12369 0
M  V30 3848 H 367.548 0.250185 0.615064 0
M  V30 3849 H 370.078 1.31231 1.5697 0
M  V30 3850 H 370.088 0.895642 3.98048 0
M  V30 3851 H 368.763 1.99876 3.64723 0
M  V30 3852 H 367.34 0.16895 3.72517 0
M  V30 3853 N 369.525 -1.3858 0.750561 0
M  V30 3854 C 370.75 -2.04997 0.314812 0
M  V30 3855 C 371.175 -1.56235 -1.04749 0
M  V30 3856 O 370.533 -0.712981 -1.66692 0
M  V30 3857 C 370.581 -3.58961 0.343415 0
M  V30 3858 O 369.685 -4.07025 -0.663628 0
M  V30 3859 H 369.026 -0.649081 0.139962 0
M  V30 3860 H 371.556 -1.77313 1.02084 0
M  V30 3861 H 371.566 -4.07542 0.193233 0
M  V30 3862 H 370.241 -3.93811 1.33738 0
M  V30 3863 H 368.818 -3.6982 -0.478307 0
M  V30 3864 N 371.003 -0.499398 -1.49478 0
M  V30 3865 C 372.228 0.044722 -2.07352 0
M  V30 3866 C 372.653 1.30207 -1.35749 0
M  V30 3867 O 372.011 1.76516 -0.413732 0
M  V30 3868 C 372.059 0.283013 -3.59488 0
M  V30 3869 O 371.163 1.35804 -3.89398 0
M  V30 3870 H 370.504 -0.0255147 -0.66351 0
M  V30 3871 H 373.034 -0.698561 -1.92305 0
M  V30 3872 H 373.044 0.515007 -4.04737 0
M  V30 3873 H 371.719 -0.635636 -4.11014 0
M  V30 3874 H 370.296 1.11113 -3.55961 0
M  V30 3875 N 372.481 1.55866 -0.233164 0
M  V30 3876 C 373.444 2.1953 0.658715 0
M  V30 3877 C 374.444 1.16053 1.11303 0
M  V30 3878 O 375.634 1.41218 1.01996 0
M  V30 3879 C 372.766 2.82791 1.90373 0
M  V30 3880 H 373.959 2.99721 0.10347 0
M  V30 3881 H 371.512 1.56291 0.0164245 0
M  V30 3882 H 372.247 2.06501 2.50056 0
M  V30 3883 H 372.032 3.58578 1.58632 0
M  V30 3884 H 373.522 3.31556 2.53891 0
M  V30 3885 N 373.959 -0.0401083 1.57549 0
M  V30 3886 C 375.189 -0.744115 1.92734 0
M  V30 3887 C 375.597 -1.70005 0.830348 0
M  V30 3888 O 374.94 -1.82576 -0.20286 0
M  V30 3889 C 375.002 -1.56516 3.2364 0
M  V30 3890 C 374.666 -0.7752 4.50377 0
M  V30 3891 C 375.663 -0.0803326 5.19838 0
M  V30 3892 C 373.348 -0.733002 4.96923 0
M  V30 3893 C 375.342 0.646154 6.34116 0
M  V30 3894 C 373.029 -0.00276321 6.111 0
M  V30 3895 C 374.027 0.685585 6.7955 0
M  V30 3896 O 373.715 1.40399 7.91545 0
M  V30 3897 H 373.447 -0.214861 0.640945 0
M  V30 3898 H 376.001 -0.00503675 2.05399 0
M  V30 3899 H 374.231 -2.3478 3.07271 0
M  V30 3900 H 375.92 -2.15076 3.44234 0
M  V30 3901 H 376.686 -0.104035 4.84888 0
M  V30 3902 H 372.565 -1.25827 4.43496 0
M  V30 3903 H 376.109 1.18398 6.87479 0
M  V30 3904 H 372.006 0.0229012 6.45496 0
M  V30 3905 H 372.774 1.31653 8.07843 0
M  V30 3906 N 375.437 -1.54477 -0.31217 0
M  V30 3907 C 376.685 -1.72884 -1.04668 0
M  V30 3908 C 377.006 -0.511477 -1.88173 0
M  V30 3909 O 376.276 0.474407 -1.90069 0
M  V30 3910 H 374.856 -0.637461 -0.389425 0
M  V30 3911 H 377.518 -1.91807 -0.345852 0
M  V30 3912 H 376.614 -2.61334 -1.70619 0
M  V30 3913 N 376.915 0.57481 -1.46744 0
M  V30 3914 C 377.878 1.66533 -1.57478 0
M  V30 3915 C 378.878 1.54338 -0.451263 0
M  V30 3916 O 380.068 1.58814 -0.715813 0
M  V30 3917 C 377.2 3.05999 -1.50259 0
M  V30 3918 H 378.393 1.58372 -2.54673 0
M  V30 3919 H 375.946 0.793301 -1.34672 0
M  V30 3920 H 376.681 3.19709 -0.543725 0
M  V30 3921 H 376.466 3.16259 -2.31781 0
M  V30 3922 H 377.956 3.8537 -1.60872 0
M  V30 3923 N 378.394 1.34581 0.820102 0
M  V30 3924 C 379.624 1.29991 1.6058 0
M  V30 3925 C 380.032 -0.127588 1.88769 0
M  V30 3926 O 379.375 -1.08595 1.48165 0
M  V30 3927 C 379.437 2.02548 2.9701 0
M  V30 3928 C 379.101 3.51794 2.91701 0
M  V30 3929 C 380.098 4.46647 2.66087 0
M  V30 3930 C 377.783 3.94249 3.11245 0
M  V30 3931 C 379.777 5.81929 2.60071 0
M  V30 3932 C 377.464 5.2963 3.04853 0
M  V30 3933 C 378.462 6.23282 2.793 0
M  V30 3934 O 378.15 7.56181 2.72847 0
M  V30 3935 H 377.882 0.448539 0.505756 0
M  V30 3936 H 380.436 1.77811 1.02822 0
M  V30 3937 H 378.666 1.49345 3.56697 0
M  V30 3938 H 380.355 1.91211 3.58041 0
M  V30 3939 H 381.121 4.15168 2.5072 0
M  V30 3940 H 377 3.21749 3.30149 0
M  V30 3941 H 380.544 6.54999 2.40046 0
M  V30 3942 H 376.441 5.60727 3.19774 0
M  V30 3943 H 377.209 7.6595 2.88553 0
M  V30 3944 N 379.872 -1.04064 1.18357 0
M  V30 3945 C 381.119 -1.77265 0.978947 0
M  V30 3946 C 381.447 -1.88189 -0.491428 0
M  V30 3947 O 380.702 -1.38653 -1.38108 0
M  V30 3948 C 381.001 -3.20634 1.57888 0
M  V30 3949 C 380.667 -3.29743 3.07539 0
M  V30 3950 C 379.329 -3.31937 3.48384 0
M  V30 3951 C 381.681 -3.29841 4.03552 0
M  V30 3952 C 379.009 -3.3187 4.83818 0
M  V30 3953 C 381.361 -3.31313 5.38901 0
M  V30 3954 C 380.025 -3.31799 5.79194 0
M  V30 3955 H 379.295 -0.648659 0.358222 0
M  V30 3956 H 381.942 -1.22225 1.47422 0
M  V30 3957 H 380.247 -3.78675 1.00561 0
M  V30 3958 H 381.944 -3.75917 1.39598 0
M  V30 3959 H 378.534 -3.28757 2.74986 0
M  V30 3960 H 382.718 -3.27337 3.73047 0
M  V30 3961 H 377.974 -3.30562 5.14333 0
M  V30 3962 H 382.148 -3.30338 6.13066 0
M  V30 3963 H 379.775 -3.315 6.84114 0
M  V30 3964 N 381.35 -0.985608 -1.22978 0
M  V30 3965 C 382.26 -0.538548 -2.28335 0
M  V30 3966 C 383.276 0.409163 -1.69121 0
M  V30 3967 O 384.452 0.277797 -1.99475 0
M  V30 3968 C 381.517 0.146867 -3.46389 0
M  V30 3969 C 380.578 -0.842896 -4.20944 0
M  V30 3970 C 379.811 -0.190095 -5.33361 0
M  V30 3971 O 380.034 1.01767 -5.61248 0
M  V30 3972 O 378.968 -0.891289 -5.95264 0
M  V30 3973 H 382.794 -1.41487 -2.68729 0
M  V30 3974 H 380.379 -0.753495 -1.29007 0
M  V30 3975 H 382.261 0.531125 -4.1804 0
M  V30 3976 H 380.936 0.997871 -3.07935 0
M  V30 3977 H 379.843 -1.27795 -3.51595 0
M  V30 3978 H 381.176 -1.66287 -4.6326 0
M  V30 3979 N 382.828 1.3818 -0.7579 0
M  V30 3980 C 384.244 1.5353 -0.435972 0
M  V30 3981 C 384.444 1.71961 1.05032 0
M  V30 3982 O 383.5 1.73307 1.83633 0
M  V30 3983 C 384.813 2.73989 -1.23898 0
M  V30 3984 C 386.361 2.87841 -1.22949 0
M  V30 3985 C 386.836 4.11266 -2.01554 0
M  V30 3986 N 388.327 4.18352 -1.98837 0
M  V30 3987 C 389.062 5.12856 -2.5645 0
M  V30 3988 N 388.558 6.13005 -3.22794 0
M  V30 3989 N 390.351 5.05238 -2.46356 0
M  V30 3990 H 382.502 1.24467 -1.7211 0
M  V30 3991 H 384.765 0.604982 -0.729864 0
M  V30 3992 H 384.471 2.66789 -2.29165 0
M  V30 3993 H 384.345 3.67294 -0.858764 0
M  V30 3994 H 386.732 2.9452 -0.184854 0
M  V30 3995 H 386.813 1.95534 -1.64924 0
M  V30 3996 H 386.457 4.05349 -3.06031 0
M  V30 3997 H 386.387 5.02661 -1.5697 0
M  V30 3998 H 388.878 3.46628 -1.50524 0
M  V30 3999 H 389.191 6.81619 -3.64165 0
M  V30 4000 H 387.536 6.13325 -3.2689 0
M  V30 4001 H 390.727 4.25938 -1.9415 0
M  V30 4002 H 390.9 5.78707 -2.91552 0
M  V30 4003 N 384.306 0.507319 1.49211 0
M  V30 4004 C 385.236 -0.256939 2.32082 0
M  V30 4005 C 386.217 -0.956609 1.40652 0
M  V30 4006 O 387.402 -0.946788 1.69557 0
M  V30 4007 C 384.532 -1.31802 3.21318 0
M  V30 4008 C 383.486 -0.737855 4.21592 0
M  V30 4009 C 382.812 -1.89992 4.99807 0
M  V30 4010 C 384.112 0.275325 5.21574 0
M  V30 4011 H 385.806 0.434798 2.96226 0
M  V30 4012 H 383.352 0.210546 1.42452 0
M  V30 4013 H 385.305 -1.86045 3.78107 0
M  V30 4014 H 384.029 -2.03903 2.5513 0
M  V30 4015 H 382.688 -0.217126 3.65956 0
M  V30 4016 H 382.336 -2.60877 4.30061 0
M  V30 4017 H 382.036 -1.51777 5.6766 0
M  V30 4018 H 383.56 -2.44657 5.59442 0
M  V30 4019 H 384.974 -0.179193 5.7302 0
M  V30 4020 H 383.371 0.573649 5.97352 0
M  V30 4021 H 384.441 1.18903 4.70096 0
M  V30 4022 N 385.784 -1.5574 0.241426 0
M  V30 4023 C 387.014 -2.02913 -0.38857 0
M  V30 4024 C 387.422 -1.12014 -1.52478 0
M  V30 4025 O 386.765 -0.125903 -1.83268 0
M  V30 4026 C 386.827 -3.4636 -0.963075 0
M  V30 4027 C 386.491 -4.56982 0.0401916 0
M  V30 4028 C 387.488 -5.12941 0.847766 0
M  V30 4029 C 385.173 -5.0203 0.164699 0
M  V30 4030 C 387.167 -6.12437 1.76636 0
M  V30 4031 C 384.854 -6.01358 1.0868 0
M  V30 4032 C 385.852 -6.5644 1.88616 0
M  V30 4033 O 385.54 -7.53831 2.79273 0
M  V30 4034 H 385.272 -0.668983 -0.0971452 0
M  V30 4035 H 387.826 -2.02198 0.361248 0
M  V30 4036 H 386.056 -3.44206 -1.76235 0
M  V30 4037 H 387.745 -3.77065 -1.50257 0
M  V30 4038 H 388.511 -4.78974 0.762133 0
M  V30 4039 H 384.39 -4.58824 -0.447411 0
M  V30 4040 H 387.934 -6.55355 2.39071 0
M  V30 4041 H 383.831 -6.34746 1.17338 0
M  V30 4042 H 384.599 -7.71428 2.73572 0
M  V30 4043 N 387.262 0.0317525 -1.57568 0
M  V30 4044 C 388.508 0.724175 -1.8943 0
M  V30 4045 C 388.841 1.75149 -0.838836 0
M  V30 4046 O 388.116 1.93948 0.146422 0
M  V30 4047 C 388.399 1.39615 -3.31933 0
M  V30 4048 C 388.252 0.382537 -4.4817 0
M  V30 4049 C 389.571 2.33084 -3.73309 0
M  V30 4050 H 386.69 0.261797 -0.688935 0
M  V30 4051 H 389.332 -0.013017 -1.89996 0
M  V30 4052 H 387.482 2.02451 -3.31581 0
M  V30 4053 H 389.154 -0.243689 -4.60656 0
M  V30 4054 H 387.397 -0.29844 -4.32772 0
M  V30 4055 H 388.068 0.891145 -5.44759 0
M  V30 4056 H 390.544 1.80295 -3.7501 0
M  V30 4057 H 389.42 2.77084 -4.73831 0
M  V30 4058 H 389.681 3.19643 -3.05419 0
M  V30 4059 N 388.74 1.54641 0.303973 0
M  V30 4060 C 389.989 1.7299 1.03717 0
M  V30 4061 C 390.302 0.521168 1.88529 0
M  V30 4062 O 391.508 0.586408 2.65092 0
M  V30 4063 C 389.964 3.06051 1.89369 0
M  V30 4064 C 389.572 4.34393 1.09574 0
M  V30 4065 C 391.316 3.3376 2.62306 0
M  V30 4066 C 389.223 5.58506 1.94486 0
M  V30 4067 H 388.153 0.64473 0.390947 0
M  V30 4068 H 390.804 1.81124 0.294328 0
M  V30 4069 H 389.186 2.91874 2.67629 0
M  V30 4070 H 390.36 4.59396 0.359485 0
M  V30 4071 H 388.675 4.13597 0.482324 0
M  V30 4072 H 391.272 4.23687 3.26181 0
M  V30 4073 H 391.615 2.52503 3.3098 0
M  V30 4074 H 392.148 3.48894 1.91097 0
M  V30 4075 H 388.887 6.42422 1.30287 0
M  V30 4076 H 388.407 5.37694 2.65792 0
M  V30 4077 H 390.086 5.95651 2.52605 0
M  V30 4078 N 390.218 -0.567019 1.47046 0
M  V30 4079 C 391.15 -1.68985 1.54844 0
M  V30 4080 C 392.163 -1.56869 0.435431 0
M  V30 4081 O 393.352 -1.64006 0.70457 0
M  V30 4082 C 390.452 -3.07373 1.42742 0
M  V30 4083 C 389.625 -3.45339 2.6844 0
M  V30 4084 C 388.684 -4.62849 2.50314 0
M  V30 4085 O 387.71 -4.67922 3.24095 0
M  V30 4086 N 388.912 -5.58726 1.57499 0
M  V30 4087 H 391.677 -1.62745 2.51663 0
M  V30 4088 H 389.238 -0.753411 1.43302 0
M  V30 4089 H 391.23 -3.83803 1.28365 0
M  V30 4090 H 389.8 -3.07893 0.540445 0
M  V30 4091 H 389.02 -2.58455 2.97648 0
M  V30 4092 H 390.308 -3.67476 3.51907 0
M  V30 4093 H 389.706 -5.57376 0.966876 0
M  V30 4094 H 388.263 -6.34523 1.49078 0
M  V30 4095 N 391.696 -1.35014 -0.812953 0
M  V30 4096 C 392.921 -1.31187 -1.60639 0
M  V30 4097 C 393.346 0.109382 -1.87782 0
M  V30 4098 O 392.704 1.07424 -1.46047 0
M  V30 4099 C 392.752 -2.11809 -2.91838 0
M  V30 4100 O 391.856 -1.49444 -3.8437 0
M  V30 4101 H 391.197 -0.450084 -0.488181 0
M  V30 4102 H 393.727 -1.77963 -1.00947 0
M  V30 4103 H 393.737 -2.23531 -3.41318 0
M  V30 4104 H 392.412 -3.15137 -2.71407 0
M  V30 4105 H 390.989 -1.46524 -3.42907 0
M  V30 4106 N 393.175 1.03435 -1.18907 0
M  V30 4107 C 394.423 1.76394 -0.986382 0
M  V30 4108 C 394.744 1.88883 0.484567 0
M  V30 4109 O 394.014 1.41843 1.3512 0
M  V30 4110 H 392.594 0.65344 -0.361975 0
M  V30 4111 H 395.256 1.248 -1.49703 0
M  V30 4112 H 394.352 2.77424 -1.42978 0
M  V30 4113 N 394.653 0.992116 1.22453 0
M  V30 4114 C 395.881 0.685944 1.95198 0
M  V30 4115 C 396.296 -0.749233 1.73297 0
M  V30 4116 O 395.653 -1.50549 1.03156 0
M  V30 4117 C 395.704 0.981395 3.47924 0
M  V30 4118 O 395.425 2.36018 3.6909 0
M  V30 4119 C 396.926 0.692815 4.37853 0
M  V30 4120 H 394.146 0.253821 0.621141 0
M  V30 4121 H 396.69 1.32668 1.55626 0
M  V30 4122 H 394.845 0.386481 3.85467 0
M  V30 4123 H 395.259 2.45884 4.63294 0
M  V30 4124 H 396.733 0.949818 5.43767 0
M  V30 4125 H 397.21 -0.373181 4.37612 0
M  V30 4126 H 397.816 1.26874 4.05935 0
M  V30 4127 N 396.131 -1.37776 0.765217 0
M  V30 4128 C 397.38 -1.99092 0.323307 0
M  V30 4129 C 397.693 -1.61434 -1.10446 0
M  V30 4130 O 398.899 -2.15805 -1.64743 0
M  V30 4131 C 397.355 -3.56019 0.527098 0
M  V30 4132 C 396.963 -4.0262 1.96471 0
M  V30 4133 C 398.707 -4.2424 0.148483 0
M  V30 4134 C 396.614 -5.52233 2.11644 0
M  V30 4135 H 395.544 -0.744846 0.117137 0
M  V30 4136 H 398.195 -1.57391 0.943417 0
M  V30 4137 H 396.577 -3.95667 -0.162372 0
M  V30 4138 H 397.751 -3.74234 2.68859 0
M  V30 4139 H 396.066 -3.47161 2.29931 0
M  V30 4140 H 398.663 -5.34159 0.240456 0
M  V30 4141 H 399.006 -4.06446 -0.900422 0
M  V30 4142 H 399.539 -3.89872 0.79025 0
M  V30 4143 H 396.278 -5.74945 3.1483 0
M  V30 4144 H 395.798 -5.82324 1.4373 0
M  V30 4145 H 397.477 -6.18106 1.91193 0
M  V30 4146 N 397.609 -0.515225 -1.4894 0
M  V30 4147 C 398.542 0.302518 -2.26186 0
M  V30 4148 C 399.52 0.957895 -1.31389 0
M  V30 4149 O 400.704 0.985198 -1.60705 0
M  V30 4150 C 397.831 1.42719 -3.07163 0
M  V30 4151 C 396.877 0.884736 -4.17223 0
M  V30 4152 S 397.71 -0.235767 -5.34981 0
M  V30 4153 C 398.866 0.891731 -6.19515 0
M  V30 4154 H 399.099 -0.353076 -2.95196 0
M  V30 4155 H 396.632 -0.300753 -1.51443 0
M  V30 4156 H 398.59 2.07152 -3.54398 0
M  V30 4157 H 397.251 2.05445 -2.37595 0
M  V30 4158 H 396.444 1.72801 -4.73451 0
M  V30 4159 H 396.046 0.317362 -3.72651 0
M  V30 4160 H 398.338 1.79377 -6.53322 0
M  V30 4161 H 399.281 0.367751 -7.07144 0
M  V30 4162 H 399.689 1.16548 -5.52338 0
M  V30 4163 N 399.087 1.5561 -0.249682 0
M  V30 4164 C 400.317 2.03116 0.377803 0
M  V30 4165 C 400.725 1.12822 1.51881 0
M  V30 4166 O 400.068 0.13562 1.83199 0
M  V30 4167 C 400.13 3.46866 0.944693 0
M  V30 4168 C 399.794 4.56955 -0.0644259 0
M  V30 4169 C 400.791 5.12485 -0.874957 0
M  V30 4170 C 398.476 5.01936 -0.19132 0
M  V30 4171 C 400.47 6.11491 -1.79881 0
M  V30 4172 C 398.157 6.00773 -1.11868 0
M  V30 4173 C 399.155 6.5543 -1.92095 0
M  V30 4174 O 398.843 7.5234 -2.83267 0
M  V30 4175 H 398.575 0.669489 0.0935961 0
M  V30 4176 H 401.129 2.02004 -0.371966 0
M  V30 4177 H 399.359 3.45136 1.74407 0
M  V30 4178 H 401.048 3.77856 1.48255 0
M  V30 4179 H 401.814 4.78564 -0.787523 0
M  V30 4180 H 397.693 4.59055 0.423072 0
M  V30 4181 H 401.237 6.54078 -2.42543 0
M  V30 4182 H 397.134 6.34114 -1.20703 0
M  V30 4183 H 397.902 7.69966 -2.7766 0
M  V30 4184 N 400.565 -0.0233959 1.57583 0
M  V30 4185 C 401.497 -1.04994 2.03737 0
M  V30 4186 C 402.51 -1.32125 0.951152 0
M  V30 4187 O 403.699 -1.29512 1.22837 0
M  V30 4188 C 400.799 -2.39026 2.40249 0
M  V30 4189 C 399.972 -2.31171 3.7132 0
M  V30 4190 C 399.031 -3.47698 3.94959 0
M  V30 4191 O 398.057 -3.26937 4.65941 0
M  V30 4192 N 399.259 -4.6976 3.41037 0
M  V30 4193 H 402.024 -0.656507 2.92421 0
M  V30 4194 H 399.585 -0.211235 1.60516 0
M  V30 4195 H 401.577 -3.15712 2.53196 0
M  V30 4196 H 400.147 -2.70194 1.57207 0
M  V30 4197 H 399.367 -1.39547 3.68674 0
M  V30 4198 H 400.655 -2.23071 4.57293 0
M  V30 4199 H 400.053 -4.89528 2.83512 0
M  V30 4200 H 398.61 -5.43791 3.59353 0
M  V30 4201 N 402.043 -1.548 -0.295768 0
M  V30 4202 C 403.291 -1.73985 -1.02828 0
M  V30 4203 C 403.612 -0.531406 -1.87619 0
M  V30 4204 O 402.882 0.454221 -1.90561 0
M  V30 4205 H 401.462 -0.641556 -0.382642 0
M  V30 4206 H 404.124 -1.92163 -0.325489 0
M  V30 4207 H 403.22 -2.63129 -1.67838 0
M  V30 4208 N 403.521 0.559213 -1.47345 0
M  V30 4209 C 404.769 1.31388 -1.53563 0
M  V30 4210 C 405.09 1.93985 -0.198678 0
M  V30 4211 O 404.36 1.79825 0.777167 0
M  V30 4212 H 402.94 0.487901 -0.565652 0
M  V30 4213 H 405.602 0.65315 -1.8363 0
M  V30 4214 H 404.698 2.10844 -2.30111 0
M  V30 4215 N 404.999 1.35443 0.805782 0
M  V30 4216 C 406.415 1.15499 1.10146 0
M  V30 4217 C 406.615 -0.0319975 2.01475 0
M  V30 4218 O 405.671 -0.70236 2.42535 0
M  V30 4219 C 406.984 2.45833 1.73166 0
M  V30 4220 C 408.532 2.52047 1.85583 0
M  V30 4221 C 409.007 3.82427 2.52019 0
M  V30 4222 N 410.498 3.83682 2.59504 0
M  V30 4223 C 411.233 4.81294 3.11679 0
M  V30 4224 N 410.729 5.89294 3.64287 0
M  V30 4225 N 412.522 4.6873 3.1024 0
M  V30 4226 H 404.673 2.11469 0.198678 0
M  V30 4227 H 406.936 0.93594 0.150731 0
M  V30 4228 H 406.642 3.32874 1.13526 0
M  V30 4229 H 406.516 2.6044 2.72857 0
M  V30 4230 H 408.903 1.65435 2.44367 0
M  V30 4231 H 408.984 2.41354 0.847455 0
M  V30 4232 H 408.628 4.69437 1.93885 0
M  V30 4233 H 408.558 3.90409 3.53395 0
M  V30 4234 H 411.049 3.05648 2.22234 0
M  V30 4235 H 411.362 6.59768 4.02401 0
M  V30 4236 H 409.707 5.92985 3.62483 0
M  V30 4237 H 412.898 3.83496 2.68419 0
M  V30 4238 H 413.071 5.44965 3.50596 0
M  V30 4239 N 406.477 -1.02803 1.19454 0
M  V30 4240 C 407.725 -1.75869 0.995722 0
M  V30 4241 C 408.046 -1.89138 -0.474543 0
M  V30 4242 O 407.316 -1.42558 -1.34366 0
M  V30 4243 H 405.896 -0.651511 0.365435 0
M  V30 4244 H 408.558 -1.24004 1.50363 0
M  V30 4245 H 407.654 -2.76661 1.44447 0
M  V30 4246 N 407.956 -0.998596 -1.21925 0
M  V30 4247 C 409.367 -0.711939 -1.72593 0
M  V30 4248 C 409.718 0.770842 -1.80423 0
M  V30 4249 O 408.843 1.60237 -1.4544 0
M  V30 4250 C 409.438 -1.28567 -3.13458 0
M  V30 4251 C 407.997 -1.04828 -3.61508 0
M  V30 4252 C 407.144 -1.4024 -2.39224 0
M  V30 4253 H 410.095 -1.17027 -1.07193 0
M  V30 4254 H 410.116 -0.667098 -3.74607 0
M  V30 4255 H 409.628 -2.36486 -3.07727 0
M  V30 4256 H 407.729 0.0140383 -3.72597 0
M  V30 4257 H 407.842 -1.71566 -4.47328 0
M  V30 4258 H 406.206 -0.821077 -2.41103 0
M  V30 4259 H 406.989 -2.49176 -2.36149 0
M  V30 4260 N 409.434 1.37368 -0.772513 0
M  V30 4261 C 410.711 1.93839 -0.26188 0
M  V30 4262 C 411.091 1.7061 1.24319 0
M  V30 4263 O 410.439 1.05534 2.02669 0
M  V30 4264 C 410.649 3.43154 -0.636102 0
M  V30 4265 C 411.997 4.20249 -0.606324 0
M  V30 4266 O 413.021 3.5152 -0.575538 0
M  V30 4267 O 411.88 5.42809 -0.634086 0
M  V30 4268 H 408.974 0.82478 -0.0605555 0
M  V30 4269 H 411.52 1.4665 -0.853917 0
M  V30 4270 H 410.292 3.53647 -1.6748 0
M  V30 4271 H 409.915 3.97596 -0.0170516 0
M  V30 4272 N 410.912 0.523116 1.48665 0
M  V30 4273 C 412.16 -0.0134497 2.02096 0
M  V30 4274 C 412.481 -1.35418 1.40311 0
M  V30 4275 O 411.751 -1.87543 0.566074 0
M  V30 4276 H 410.331 -0.00795915 0.746958 0
M  V30 4277 H 412.993 0.685388 1.82451 0
M  V30 4278 H 412.089 -0.126849 3.11842 0
M  V30 4279 N 412.39 -1.55475 0.257931 0
M  V30 4280 C 413.62 -2.03314 -0.367026 0
M  V30 4281 C 414.028 -1.13625 -1.51281 0
M  V30 4282 O 413.371 -0.145334 -1.83124 0
M  V30 4283 C 413.433 -3.47362 -0.926284 0
M  V30 4284 C 413.097 -4.56914 0.0886584 0
M  V30 4285 C 414.094 -5.12013 0.902123 0
M  V30 4286 C 411.779 -5.01827 0.217936 0
M  V30 4287 C 413.773 -6.10529 1.83122 0
M  V30 4288 C 411.46 -6.00172 1.15052 0
M  V30 4289 C 412.458 -6.54402 1.95568 0
M  V30 4290 O 412.146 -7.50827 2.87253 0
M  V30 4291 H 411.878 -0.669976 -0.0900443 0
M  V30 4292 H 414.432 -2.01804 0.382673 0
M  V30 4293 H 412.662 -3.46056 -1.72575 0
M  V30 4294 H 414.351 -3.78637 -1.46249 0
M  V30 4295 H 415.117 -4.78139 0.812891 0
M  V30 4296 H 410.996 -4.59272 -0.398721 0
M  V30 4297 H 414.54 -6.52783 2.46008 0
M  V30 4298 H 410.437 -6.33465 1.24064 0
M  V30 4299 H 411.205 -7.68483 2.81739 0
M  V30 4300 N 413.868 0.0150385 -1.57593 0
M  V30 4301 C 414.8 1.03912 -2.04291 0
M  V30 4302 C 415.813 1.31618 -0.958146 0
M  V30 4303 O 417.002 1.28859 -1.23522 0
M  V30 4304 C 414.102 2.37749 -2.41514 0
M  V30 4305 C 413.275 2.29198 -3.72541 0
M  V30 4306 C 412.334 3.45598 -3.96797 0
M  V30 4307 O 411.36 3.24461 -4.67668 0
M  V30 4308 N 412.562 4.67945 -3.43523 0
M  V30 4309 H 415.327 0.64099 -2.92765 0
M  V30 4310 H 412.888 0.20272 -1.60626 0
M  V30 4311 H 414.88 3.14364 -2.54867 0
M  V30 4312 H 413.45 2.69357 -1.58637 0
M  V30 4313 H 412.67 1.3759 -3.69408 0
M  V30 4314 H 413.958 2.20642 -4.5847 0
M  V30 4315 H 413.356 4.88017 -2.86104 0
M  V30 4316 H 411.913 5.41878 -3.62232 0
M  V30 4317 N 415.346 1.54954 0.287554 0
M  V30 4318 C 416.592 1.75132 1.02257 0
M  V30 4319 C 416.925 0.542858 1.86458 0
M  V30 4320 O 416.2 -0.459856 1.88986 0
M  V30 4321 C 416.483 3.04812 1.91733 0
M  V30 4322 C 416.336 4.35985 1.10622 0
M  V30 4323 C 417.655 3.30438 2.90687 0
M  V30 4324 H 414.774 0.637194 0.370341 0
M  V30 4325 H 417.416 1.87678 0.296111 0
M  V30 4326 H 415.566 2.94247 2.53675 0
M  V30 4327 H 417.238 4.58487 0.508636 0
M  V30 4328 H 415.481 4.31865 0.409271 0
M  V30 4329 H 416.152 5.23017 1.76513 0
M  V30 4330 H 418.628 3.40701 2.38877 0
M  V30 4331 H 417.504 4.22467 3.50447 0
M  V30 4332 H 417.765 2.49377 3.65053 0
M  V30 4333 N 416.824 -0.551391 1.4764 0
M  V30 4334 C 418.049 -1.33837 1.58437 0
M  V30 4335 C 418.474 -1.866 0.237063 0
M  V30 4336 O 417.832 -1.6328 -0.787994 0
M  V30 4337 C 417.88 -2.48014 2.61766 0
M  V30 4338 O 416.984 -3.50419 2.1744 0
M  V30 4339 H 416.325 -0.397299 0.532024 0
M  V30 4340 H 418.855 -0.665759 1.93465 0
M  V30 4341 H 418.865 -2.94503 2.82369 0
M  V30 4342 H 417.54 -2.08969 3.5959 0
M  V30 4343 H 416.117 -3.10196 2.06961 0
M  V30 4344 N 418.302 -1.35869 -0.798587 0
M  V30 4345 C 419.212 -1.31578 -1.94228 0
M  V30 4346 C 420.228 -0.21939 -1.72611 0
M  V30 4347 O 421.404 -0.450167 -1.96305 0
M  V30 4348 C 418.469 -1.09528 -3.28944 0
M  V30 4349 C 417.53 -2.28556 -3.63402 0
M  V30 4350 C 416.763 -2.07549 -4.9169 0
M  V30 4351 O 416.986 -1.046 -5.60727 0
M  V30 4352 O 415.92 -2.95106 -5.24591 0
M  V30 4353 H 419.746 -2.27847 -2.00796 0
M  V30 4354 H 417.331 -1.16322 -0.937526 0
M  V30 4355 H 419.213 -0.991127 -4.09579 0
M  V30 4356 H 417.888 -0.16315 -3.23289 0
M  V30 4357 H 416.795 -2.44538 -2.83112 0
M  V30 4358 H 418.128 -3.20244 -3.73771 0
M  V30 4359 N 419.78 1.02168 -1.19998 0
M  V30 4360 C 420.71 2.12488 -0.96804 0
M  V30 4361 C 421.691 1.69799 0.101185 0
M  V30 4362 O 422.876 1.94121 -0.0552993 0
M  V30 4363 C 420.006 3.43479 -0.513776 0
M  V30 4364 C 418.96 3.99884 -1.52566 0
M  V30 4365 C 418.286 5.26582 -0.928214 0
M  V30 4366 C 419.586 4.33861 -2.90795 0
M  V30 4367 H 421.28 2.32149 -1.89069 0
M  V30 4368 H 418.826 1.11564 -0.910468 0
M  V30 4369 H 420.779 4.20036 -0.338774 0
M  V30 4370 H 419.503 3.23561 0.444493 0
M  V30 4371 H 418.162 3.25429 -1.68794 0
M  V30 4372 H 417.81 5.02986 0.0378289 0
M  V30 4373 H 417.51 5.65284 -1.60397 0
M  V30 4374 H 419.034 6.05799 -0.764167 0
M  V30 4375 H 420.448 5.01327 -2.78109 0
M  V30 4376 H 418.845 4.83664 -3.55231 0
M  V30 4377 H 419.915 3.42848 -3.42904 0
M  V30 4378 N 421.258 1.00505 1.21394 0
M  V30 4379 C 422.674 0.717873 1.42544 0
M  V30 4380 C 422.874 -0.706936 1.88692 0
M  V30 4381 O 421.93 -1.47627 2.04847 0
M  V30 4382 C 423.243 1.73377 2.45684 0
M  V30 4383 C 424.791 1.75059 2.59467 0
M  V30 4384 C 425.266 2.75545 3.6584 0
M  V30 4385 N 426.757 2.74213 3.73311 0
M  V30 4386 C 427.492 3.48626 4.55245 0
M  V30 4387 N 426.988 4.32678 5.41075 0
M  V30 4388 N 428.781 3.37276 4.49668 0
M  V30 4389 H 420.932 1.92506 0.897503 0
M  V30 4390 H 423.195 0.830919 0.456375 0
M  V30 4391 H 422.901 2.75395 2.18748 0
M  V30 4392 H 422.775 1.53647 3.44489 0
M  V30 4393 H 425.162 0.737337 2.8574 0
M  V30 4394 H 425.243 1.98861 1.60897 0
M  V30 4395 H 424.887 3.77028 3.40313 0
M  V30 4396 H 424.817 2.49009 4.64007 0
M  V30 4397 H 427.308 2.13234 3.11993 0
M  V30 4398 H 427.621 4.86253 6.00648 0
M  V30 4399 H 425.966 4.3676 5.40616 0
M  V30 4400 H 429.157 2.71043 3.81646 0
M  V30 4401 H 429.33 3.95524 5.13288 0
M  V30 4402 N 422.737 -1.36956 0.779787 0
M  V30 4403 C 423.965 -2.03755 0.359398 0
M  V30 4404 C 424.38 -1.58807 -1.02106 0
M  V30 4405 O 423.737 -0.773024 -1.6532 0
M  V30 4406 C 423.788 -3.59251 0.402568 0
M  V30 4407 O 423.509 -4.02557 1.72858 0
M  V30 4408 C 425.01 -4.43291 -0.0284068 0
M  V30 4409 H 422.23 -0.654148 0.149437 0
M  V30 4410 H 424.774 -1.75128 1.05595 0
M  V30 4411 H 422.929 -3.86621 -0.245478 0
M  V30 4412 H 423.343 -4.97111 1.67275 0
M  V30 4413 H 424.817 -5.51975 0.0529466 0
M  V30 4414 H 425.294 -4.25719 -1.07982 0
M  V30 4415 H 425.9 -4.21163 0.591758 0
M  V30 4416 N 424.215 -0.530993 -1.48385 0
M  V30 4417 C 425.461 -0.00538653 -2.03399 0
M  V30 4418 C 425.816 1.31899 -1.40073 0
M  V30 4419 O 425.109 1.83901 -0.537676 0
M  V30 4420 C 425.303 0.172742 -3.56982 0
M  V30 4421 C 425.132 -1.13282 -4.35198 0
M  V30 4422 C 423.902 -1.69296 -4.76096 0
M  V30 4423 C 426.1 -2.04367 -4.71952 0
M  V30 4424 N 424.082 -2.9413 -5.38851 0
M  V30 4425 C 425.453 -3.13777 -5.34737 0
M  V30 4426 C 427.508 -2.04681 -4.53883 0
M  V30 4427 C 426.211 -4.23567 -5.81363 0
M  V30 4428 C 428.237 -3.13466 -5.01491 0
M  V30 4429 C 427.599 -4.21595 -5.64302 0
M  V30 4430 H 423.698 -0.0434945 -0.780789 0
M  V30 4431 H 426.282 -0.712495 -1.81195 0
M  V30 4432 H 424.453 0.848937 -3.79009 0
M  V30 4433 H 426.185 0.698046 -3.98634 0
M  V30 4434 H 422.94 -1.23422 -4.57235 0
M  V30 4435 H 423.364 -3.57689 -5.74794 0
M  V30 4436 H 428.006 -1.22378 -4.04702 0
M  V30 4437 H 425.724 -5.06648 -6.2955 0
M  V30 4438 H 429.31 -3.14765 -4.893 0
M  V30 4439 H 428.19 -5.04384 -6.00472 0
M  V30 4440 N 425.693 1.55336 -0.266172 0
M  V30 4441 C 426.623 2.25146 0.618981 0
M  V30 4442 C 427.604 1.23845 1.16604 0
M  V30 4443 O 428.789 1.52544 1.20183 0
M  V30 4444 C 425.919 2.96572 1.80728 0
M  V30 4445 C 424.873 4.04726 1.39215 0
M  V30 4446 C 424.199 4.63678 2.66283 0
M  V30 4447 C 425.499 5.19407 0.548942 0
M  V30 4448 H 427.193 2.99377 0.0368116 0
M  V30 4449 H 424.739 1.43991 0.0162651 0
M  V30 4450 H 426.692 3.44116 2.43232 0
M  V30 4451 H 425.416 2.19861 2.41514 0
M  V30 4452 H 424.075 3.57979 0.790351 0
M  V30 4453 H 423.723 3.83646 3.25308 0
M  V30 4454 H 423.423 5.367 2.39222 0
M  V30 4455 H 424.947 5.13967 3.29651 0
M  V30 4456 H 426.361 5.63059 1.07876 0
M  V30 4457 H 424.758 5.98936 0.373593 0
M  V30 4458 H 425.828 4.8295 -0.434394 0
M  V30 4459 N 427.171 -0.0066808 1.57599 0
M  V30 4460 C 428.081 -1.01671 2.11424 0
M  V30 4461 C 429.097 -1.38143 1.05795 0
M  V30 4462 O 430.273 -1.47011 1.37658 0
M  V30 4463 C 427.338 -2.29192 2.60139 0
M  V30 4464 C 426.399 -1.99094 3.80342 0
M  V30 4465 C 425.632 -3.20535 4.26724 0
M  V30 4466 O 425.855 -4.3199 3.72479 0
M  V30 4467 O 424.789 -3.04924 5.18946 0
M  V30 4468 H 428.615 -0.589181 2.9793 0
M  V30 4469 H 426.2 -0.225091 1.47695 0
M  V30 4470 H 428.082 -3.0412 2.917 0
M  V30 4471 H 426.757 -2.71195 1.76733 0
M  V30 4472 H 425.664 -1.21663 3.53764 0
M  V30 4473 H 426.997 -1.61931 4.648 0
M  V30 4474 N 428.649 -1.55105 -0.279332 0
M  V30 4475 C 430.065 -1.46803 -0.626187 0
M  V30 4476 C 430.265 -0.676939 -1.89789 0
M  V30 4477 O 429.321 -0.19326 -2.51759 0
M  V30 4478 C 430.634 -2.90962 -0.759034 0
M  V30 4479 C 432.182 -3.01138 -0.853504 0
M  V30 4480 C 432.657 -4.46539 -1.01818 0
M  V30 4481 N 434.148 -4.50341 -1.08386 0
M  V30 4482 C 434.883 -5.60053 -1.22996 0
M  V30 4483 N 434.379 -6.79645 -1.34366 0
M  V30 4484 N 436.172 -5.47783 -1.26056 0
M  V30 4485 H 428.323 -2.04996 0.555921 0
M  V30 4486 H 430.586 -0.929325 0.187239 0
M  V30 4487 H 430.292 -3.51544 0.104852 0
M  V30 4488 H 430.166 -3.39619 -1.64131 0
M  V30 4489 H 432.553 -2.40658 -1.70786 0
M  V30 4490 H 432.634 -2.55745 0.0532466 0
M  V30 4491 H 432.278 -5.0762 -0.168504 0
M  V30 4492 H 432.208 -4.89583 -1.93948 0
M  V30 4493 H 434.699 -3.64191 -1.00864 0
M  V30 4494 H 435.012 -7.59012 -1.4533 0
M  V30 4495 H 433.357 -6.82469 -1.31382 0
M  V30 4496 H 436.548 -4.53294 -1.168 0
M  V30 4497 H 436.721 -6.33331 -1.37098 0
M  V30 4498 N 430.127 0.543554 -1.4793 0
M  V30 4499 C 431.357 1.32324 -1.58663 0
M  V30 4500 C 431.765 1.8766 -0.240896 0
M  V30 4501 O 431.108 1.66411 0.778011 0
M  V30 4502 C 431.17 2.52094 -2.56299 0
M  V30 4503 C 430.834 2.17944 -4.01683 0
M  V30 4504 C 431.831 1.74422 -4.89768 0
M  V30 4505 C 429.516 2.28884 -4.47121 0
M  V30 4506 C 431.51 1.42287 -6.21316 0
M  V30 4507 C 429.197 1.96361 -5.78693 0
M  V30 4508 C 430.195 1.53132 -6.65612 0
M  V30 4509 O 429.883 1.21029 -7.94737 0
M  V30 4510 H 429.615 0.409174 -0.538101 0
M  V30 4511 H 432.169 0.663887 -1.94375 0
M  V30 4512 H 430.399 3.20965 -2.15681 0
M  V30 4513 H 432.088 3.14165 -2.57012 0
M  V30 4514 H 432.854 1.65452 -4.55907 0
M  V30 4515 H 428.733 2.61488 -3.79664 0
M  V30 4516 H 432.277 1.08472 -6.89115 0
M  V30 4517 H 428.174 2.04967 -6.12094 0
M  V30 4518 H 428.942 1.34543 -8.07366 0
M  V30 4519 N 431.605 1.3629 0.791371 0
M  V30 4520 C 432.882 1.20962 1.53712 0
M  V30 4521 C 433.262 -0.205021 2.10102 0
M  V30 4522 O 432.61 -1.21042 1.93807 0
M  V30 4523 C 432.82 2.29002 2.63361 0
M  V30 4524 C 434.168 2.65572 3.31295 0
M  V30 4525 O 435.192 2.2803 2.73643 0
M  V30 4526 O 434.051 3.3018 4.35481 0
M  V30 4527 H 431.145 0.47086 0.679867 0
M  V30 4528 H 433.691 1.48016 0.830021 0
M  V30 4529 H 432.463 3.2382 2.19674 0
M  V30 4530 H 432.086 2.03303 3.41692 0
M  V30 4531 N 433.083 -1.0153 1.20538 0
M  V30 4532 C 433.993 -2.13557 0.971113 0
M  V30 4533 C 435.009 -1.73845 -0.0734366 0
M  V30 4534 O 436.185 -2.01075 0.114299 0
M  V30 4535 C 433.25 -3.42661 0.527639 0
M  V30 4536 C 432.311 -3.96608 1.64319 0
M  V30 4537 C 431.544 -5.1955 1.22078 0
M  V30 4538 O 431.767 -5.70329 0.0900198 0
M  V30 4539 O 430.701 -5.66681 2.02871 0
M  V30 4540 H 434.527 -2.3619 1.90913 0
M  V30 4541 H 432.112 -1.11946 0.989362 0
M  V30 4542 H 433.994 -4.20404 0.289621 0
M  V30 4543 H 432.669 -3.21441 -0.381779 0
M  V30 4544 H 431.576 -3.20139 1.93551 0
M  V30 4545 H 432.909 -4.22219 2.52966 0
M  V30 4546 N 434.561 -1.01147 -1.20859 0
M  V30 4547 C 435.493 -0.535546 -2.22855 0
M  V30 4548 C 436.506 0.379323 -1.58319 0
M  V30 4549 O 437.695 0.178489 -1.77605 0
M  V30 4550 C 434.795 0.240962 -3.38042 0
M  V30 4551 C 433.968 -0.674562 -4.32167 0
M  V30 4552 C 433.027 0.053467 -5.26173 0
M  V30 4553 O 432.053 -0.567339 -5.66366 0
M  V30 4554 N 433.255 1.32997 -5.65059 0
M  V30 4555 H 436.02 -1.41268 -2.64317 0
M  V30 4556 H 433.581 -0.888386 -1.35349 0
M  V30 4557 H 435.573 0.737115 -3.97931 0
M  V30 4558 H 434.143 1.01935 -2.95513 0
M  V30 4559 H 433.363 -1.35111 -3.70322 0
M  V30 4560 H 434.651 -1.2974 -4.91981 0
M  V30 4561 H 434.049 1.85536 -5.34409 0
M  V30 4562 H 432.606 1.77095 -6.2728 0
M  V30 4563 N 436.039 1.36541 -0.78704 0
M  V30 4564 C 436.969 2.32659 -0.197992 0
M  V30 4565 C 437.95 1.56533 0.665697 0
M  V30 4566 O 439.135 1.84698 0.60001 0
M  V30 4567 C 436.265 3.40778 0.669901 0
M  V30 4568 C 435.219 4.27897 -0.0937039 0
M  V30 4569 C 434.545 5.27163 0.894629 0
M  V30 4570 C 435.845 5.06334 -1.28154 0
M  V30 4571 H 437.539 2.82171 -1.00099 0
M  V30 4572 H 435.085 1.35665 -0.482793 0
M  V30 4573 H 437.038 4.07008 1.09191 0
M  V30 4574 H 435.762 2.89827 1.50558 0
M  V30 4575 H 434.421 3.6322 -0.49666 0
M  V30 4576 H 434.069 4.72486 1.72527 0
M  V30 4577 H 433.769 5.86317 0.388149 0
M  V30 4578 H 435.293 5.96266 1.31525 0
M  V30 4579 H 436.707 5.65617 -0.93541 0
M  V30 4580 H 435.104 5.74888 -1.72115 0
M  V30 4581 H 436.174 4.38114 -2.07807 0
M  V30 4582 N 437.518 0.538854 1.48102 0
M  V30 4583 C 438.468 -0.23907 2.26743 0
M  V30 4584 C 439.452 -0.901923 1.33245 0
M  V30 4585 O 440.644 -0.803263 1.57723 0
M  V30 4586 C 437.773 -1.2799 3.18549 0
M  V30 4587 C 436.859 -0.621388 4.19523 0
M  V30 4588 N 437.25 0.298004 5.04921 0
M  V30 4589 C 435.548 -0.877533 4.37282 0
M  V30 4590 C 436.249 0.678757 5.77726 0
M  V30 4591 N 435.225 0.0377881 5.43587 0
M  V30 4592 H 439.027 0.468096 2.90148 0
M  V30 4593 H 436.541 0.357497 1.58416 0
M  V30 4594 H 438.538 -1.851 3.73555 0
M  V30 4595 H 437.198 -1.98835 2.567 0
M  V30 4596 H 438.209 0.671126 5.13533 0
M  V30 4597 H 434.886 -1.57588 3.86616 0
M  V30 4598 H 436.276 1.43316 6.56437 0
M  V30 4599 N 438.996 -1.55193 0.274407 0
M  V30 4600 C 440.244 -1.99187 -0.341902 0
M  V30 4601 C 440.565 -1.16422 -1.56431 0
M  V30 4602 O 439.835 -0.253573 -1.94252 0
M  V30 4603 H 438.415 -0.735721 -0.129317 0
M  V30 4604 H 441.077 -1.91168 0.379578 0
M  V30 4605 H 440.173 -3.05629 -0.632253 0
M  V30 4606 N 440.474 -0.00167713 -1.576 0
M  V30 4607 C 441.437 0.974046 -2.07473 0
M  V30 4608 C 442.437 1.27143 -0.984444 0
M  V30 4609 O 443.627 1.21633 -1.24703 0
M  V30 4610 C 440.759 2.29849 -2.51759 0
M  V30 4611 H 441.952 0.54262 -2.9495 0
M  V30 4612 H 439.505 0.245829 -1.54355 0
M  V30 4613 H 440.24 2.77677 -1.67529 0
M  V30 4614 H 440.025 2.09584 -3.31386 0
M  V30 4615 H 441.515 2.9984 -2.90664 0
M  V30 4616 N 441.952 1.55251 0.271103 0
M  V30 4617 C 443.368 1.47133 0.618393 0
M  V30 4618 C 443.568 0.686994 1.89427 0
M  V30 4619 O 442.624 0.206609 2.51653 0
M  V30 4620 C 443.937 2.91361 0.743593 0
M  V30 4621 C 445.485 3.01587 0.837522 0
M  V30 4622 C 445.96 4.47073 0.994483 0
M  V30 4623 N 447.451 4.50909 1.05996 0
M  V30 4624 C 448.186 5.60698 1.20024 0
M  V30 4625 N 447.682 6.80348 1.30759 0
M  V30 4626 N 449.475 5.48444 1.23149 0
M  V30 4627 H 441.626 2.04698 -0.566784 0
M  V30 4628 H 443.889 0.928319 -0.192165 0
M  V30 4629 H 443.595 3.51483 -0.123493 0
M  V30 4630 H 443.469 3.40484 1.62328 0
M  V30 4631 H 445.856 2.4156 1.69507 0
M  V30 4632 H 445.937 2.55713 -0.0668086 0
M  V30 4633 H 445.581 5.07703 0.141582 0
M  V30 4634 H 445.511 4.90605 1.91349 0
M  V30 4635 H 448.002 3.6472 0.989316 0
M  V30 4636 H 448.315 7.59772 1.41303 0
M  V30 4637 H 446.66 6.83156 1.27761 0
M  V30 4638 H 449.851 4.53907 1.14394 0
M  V30 4639 H 450.024 6.34049 1.33738 0
M  V30 4640 N 443.43 -0.535701 1.48216 0
M  V30 4641 C 444.841 -1.11769 1.49548 0
M  V30 4642 C 445.192 -1.94442 0.26207 0
M  V30 4643 O 444.317 -2.06987 -0.631287 0
M  V30 4644 C 444.912 -2.03367 2.70975 0
M  V30 4645 C 443.471 -2.56795 2.75196 0
M  V30 4646 C 442.618 -1.33631 2.42977 0
M  V30 4647 H 445.569 -0.321232 1.55415 0
M  V30 4648 H 445.59 -2.87569 2.49167 0
M  V30 4649 H 445.102 -1.43169 3.60727 0
M  V30 4650 H 443.203 -3.20731 1.89638 0
M  V30 4651 H 443.316 -2.9632 3.76472 0
M  V30 4652 H 441.68 -1.6502 1.94012 0
M  V30 4653 H 442.463 -0.75194 3.34964 0
M  V30 4654 N 444.908 -1.36708 -0.784132 0
M  V30 4655 C 446.324 -1.17237 -1.08294 0
M  V30 4656 C 446.524 -5.93947e-05 -2.015 0
M  V30 4657 O 445.58 0.663686 -2.43622 0
M  V30 4658 C 446.893 -2.48557 -1.69233 0
M  V30 4659 C 448.441 -2.54968 -1.8155 0
M  V30 4660 C 448.916 -3.86388 -2.45904 0
M  V30 4661 N 450.407 -3.87762 -2.53367 0
M  V30 4662 C 451.142 -4.86191 -3.03983 0
M  V30 4663 N 450.638 -5.95015 -3.54866 0
M  V30 4664 N 452.431 -4.73606 -3.02743 0
M  V30 4665 H 444.582 -2.11758 -0.16501 0
M  V30 4666 H 446.845 -0.93822 -0.135822 0
M  V30 4667 H 446.551 -3.34638 -1.08215 0
M  V30 4668 H 446.425 -2.64748 -2.68679 0
M  V30 4669 H 448.812 -1.69302 -2.41704 0
M  V30 4670 H 448.893 -2.42672 -0.80895 0
M  V30 4671 H 448.537 -4.72462 -1.86392 0
M  V30 4672 H 448.467 -3.95982 -3.4714 0
M  V30 4673 H 450.958 -3.09145 -2.17343 0
M  V30 4674 H 451.271 -6.66086 -3.91854 0
M  V30 4675 H 449.616 -5.98676 -3.53003 0
M  V30 4676 H 452.807 -3.87717 -2.62284 0
M  V30 4677 H 452.98 -5.50473 -3.41881 0
M  V30 4678 N 446.386 1.0089 -1.21074 0
M  V30 4679 C 447.802 1.2695 -0.967257 0
M  V30 4680 C 448.002 1.9846 0.348673 0
M  V30 4681 O 447.058 2.28459 1.0753 0
M  V30 4682 C 448.371 2.09697 -2.15517 0
M  V30 4683 C 449.919 2.22937 -2.197 0
M  V30 4684 C 450.394 3.09064 -3.37999 0
M  V30 4685 N 451.885 3.16653 -3.38061 0
M  V30 4686 C 452.62 3.8354 -4.26245 0
M  V30 4687 N 452.116 4.52488 -5.2462 0
M  V30 4688 N 453.909 3.80141 -4.14064 0
M  V30 4689 H 446.06 0.529005 -2.05707 0
M  V30 4690 H 448.323 0.296148 -0.900556 0
M  V30 4691 H 448.029 1.64497 -3.10859 0
M  V30 4692 H 447.903 3.10444 -2.14253 0
M  V30 4693 H 450.29 2.67357 -1.24916 0
M  V30 4694 H 450.371 1.21673 -2.2501 0
M  V30 4695 H 450.015 2.65347 -4.33074 0
M  V30 4696 H 449.945 4.10433 -3.29928 0
M  V30 4697 H 452.436 2.67566 -2.66865 0
M  V30 4698 H 452.749 5.01219 -5.88217 0
M  V30 4699 H 451.094 4.51288 -5.28549 0
M  V30 4700 H 454.285 3.25427 -3.36474 0
M  V30 4701 H 454.458 4.31992 -4.82998 0
M  V30 4702 N 447.864 1.01787 1.20321 0
M  V30 4703 C 449.11 0.708985 1.90003 0
M  V30 4704 C 449.443 -0.759572 1.78729 0
M  V30 4705 O 448.718 -1.55198 1.17234 0
M  V30 4706 C 449.001 1.1469 3.41348 0
M  V30 4707 C 448.854 2.67586 3.61549 0
M  V30 4708 C 450.173 0.71915 4.34185 0
M  V30 4709 H 447.292 0.259034 0.689978 0
M  V30 4710 H 449.934 1.26584 1.41692 0
M  V30 4711 H 448.084 0.673128 3.82624 0
M  V30 4712 H 449.756 3.22826 3.29517 0
M  V30 4713 H 447.999 3.085 3.04976 0
M  V30 4714 H 448.67 2.93281 4.67643 0
M  V30 4715 H 451.146 1.12647 4.00562 0
M  V30 4716 H 450.022 1.05358 5.38694 0
M  V30 4717 H 450.283 -0.379111 4.40472 0
M  V30 4718 O 449.381 -1.32008 0.930387 0
M  V30 4719 H 450.072 -1.85615 0.553775 0
M  V30 END ATOM
M  V30 BEGIN BOND
M  V30 END BOND
M  V30 END CTAB
M  END
$$$$
