drugbank_target|Q06520 Bile salt sulfotransferase (DB01812; DB02854; DB04445)
 OpenBabel12092119423D

  0  0  0     0  0            999 V3000
M  V30 BEGIN CTAB
M  V30 COUNTS 4725 4797 0 0 0
M  V30 BEGIN ATOM
M  V30 1 H -0.908 1.98254 -0.117106 0
M  V30 2 N 0 1.576 0 0
M  V30 3 C 0.933 2.03868 1.02534 0
M  V30 4 C 1.911 0.928543 1.3348 0
M  V30 5 O 3.095 1.19667 1.45644 0
M  V30 6 C 0.222 2.43627 2.35294 0
M  V30 7 C -0.732 3.65373 2.2001 0
M  V30 8 S 0.101 5.13292 1.52614 0
M  V30 9 C 1.257 5.56322 2.86805 0
M  V30 10 H 1.49 2.90518 0.631377 0
M  V30 11 H -0.977 1.52953 0.210867 0
M  V30 12 H 0.981 2.67203 3.11629 0
M  V30 13 H -0.358 1.57376 2.7183 0
M  V30 14 H -1.165 3.90944 3.18086 0
M  V30 15 H -1.563 3.418 1.51819 0
M  V30 16 H 0.729 5.58782 3.83104 0
M  V30 17 H 1.672 6.56266 2.65933 0
M  V30 18 H 2.08 4.83886 2.90714 0
M  V30 19 N 1.4781 -0.272755 1.55222 0
M  V30 20 C 2.7031 -1.02683 1.80197 0
M  V30 21 C 3.1281 -1.79142 0.573551 0
M  V30 22 O 2.4861 -1.74917 -0.476849 0
M  V30 23 C 2.5341 -1.9609 3.02624 0
M  V30 24 O 1.6381 -3.04863 2.77727 0
M  V30 25 H 0.9791 -0.293557 0.595584 0
M  V30 26 H 3.5091 -0.30159 2.02365 0
M  V30 27 H 3.5191 -2.38039 3.31363 0
M  V30 28 H 2.1941 -1.39851 3.91682 0
M  V30 29 H 0.7711 -2.67228 2.60084 0
M  V30 30 N 2.9562 -1.48159 -0.537278 0
M  V30 31 C 4.2332 -1.46291 -1.29839 0
M  V30 32 C 4.6132 -0.170613 -2.10409 0
M  V30 33 O 3.9612 0.847746 -2.12192 0
M  V30 34 C 4.1712 -2.72055 -2.18603 0
M  V30 35 C 5.5192 -3.20087 -2.7898 0
M  V30 36 O 6.5432 -2.72921 -2.28894 0
M  V30 37 O 5.4022 -4.02138 -3.70064 0
M  V30 38 H 2.4962 -0.583906 -0.585647 0
M  V30 39 H 5.0422 -1.60384 -0.554534 0
M  V30 40 H 3.8142 -3.57628 -1.58801 0
M  V30 41 H 3.4372 -2.60646 -3.00249 0
M  V30 42 N 4.4343 0.785586 -1.36625 0
M  V30 43 C 5.7113 1.53198 -1.21613 0
M  V30 44 C 6.0913 2.10187 0.196113 0
M  V30 45 O 5.4393 1.94318 1.20219 0
M  V30 46 C 5.6493 2.62388 -2.30116 0
M  V30 47 C 6.9973 3.30167 -2.66974 0
M  V30 48 O 8.0213 2.72674 -2.29188 0
M  V30 49 O 6.8803 4.34077 -3.32023 0
M  V30 50 H 3.9743 0.677865 -0.473738 0
M  V30 51 H 6.5203 0.823739 -1.48367 0
M  V30 52 H 5.2923 2.18299 -3.24748 0
M  V30 53 H 4.9153 3.40827 -2.0475 0
M  V30 54 N 5.9124 1.20967 1.01018 0
M  V30 55 C 7.1594 1.02374 1.74716 0
M  V30 56 C 7.4874 -0.443375 1.89379 0
M  V30 57 O 6.7424 -1.34535 1.42123 0
M  V30 58 C 7.0414 1.65997 3.16512 0
M  V30 59 C 6.7074 3.15831 3.2181 0
M  V30 60 C 5.3694 3.56719 3.22963 0
M  V30 61 C 7.7214 4.11816 3.19464 0
M  V30 62 C 5.0494 4.92107 3.19449 0
M  V30 63 C 7.4014 5.47158 3.17491 0
M  V30 64 C 6.0654 5.87451 3.16951 0
M  V30 65 H 5.3354 0.374614 0.639332 0
M  V30 66 H 7.9824 1.50485 1.18434 0
M  V30 67 H 6.2874 1.10166 3.75993 0
M  V30 68 H 7.9844 1.49119 3.72242 0
M  V30 69 H 4.5744 2.83263 3.21652 0
M  V30 70 H 8.7584 3.81257 3.17737 0
M  V30 71 H 4.0144 5.22579 3.17366 0
M  V30 72 H 8.1884 6.21274 3.14629 0
M  V30 73 H 5.8154 6.92329 3.13983 0
M  V30 74 N 7.3905 -1.2043 1.01659 0
M  V30 75 C 8.3205 -2.25466 0.607226 0
M  V30 76 C 9.3015 -1.65853 -0.377716 0
M  V30 77 O 10.4865 -1.92409 -0.263149 0
M  V30 78 C 7.6165 -3.47256 -0.0552949 0
M  V30 79 C 6.5705 -4.19462 0.850632 0
M  V30 80 C 5.8965 -5.34673 0.0538859 0
M  V30 81 C 7.1965 -4.75603 2.15868 0
M  V30 82 H 8.8905 -2.59962 1.48526 0
M  V30 83 H 6.4365 -1.2496 0.715605 0
M  V30 84 H 8.3895 -4.19917 -0.353233 0
M  V30 85 H 7.1135 -3.11924 -0.968045 0
M  V30 86 H 5.7725 -3.48667 1.13257 0
M  V30 87 H 5.4205 -4.95585 -0.860514 0
M  V30 88 H 5.1205 -5.83913 0.657192 0
M  V30 89 H 6.6445 -6.10138 -0.237598 0
M  V30 90 H 8.0585 -5.40083 1.92311 0
M  V30 91 H 6.4555 -5.3528 2.71284 0
M  V30 92 H 7.5255 -3.94346 2.82169 0
M  V30 93 N 8.8686 -0.792821 -1.36206 0
M  V30 94 C 10.1146 -0.376415 -1.99887 0
M  V30 95 C 10.4696 1.04127 -1.61788 0
M  V30 96 O 9.7626 1.71004 -0.864193 0
M  V30 97 C 9.9566 -0.481501 -3.54142 0
M  V30 98 C 9.7856 -1.90786 -4.07223 0
M  V30 99 C 8.5556 -2.53322 -4.37214 0
M  V30 100 C 10.7536 -2.87048 -4.26741 0
M  V30 101 N 8.7356 -3.8751 -4.7614 0
M  V30 102 C 10.1066 -4.06077 -4.6851 0
M  V30 103 C 12.1616 -2.8406 -4.08918 0
M  V30 104 C 10.8646 -5.22532 -4.94321 0
M  V30 105 C 12.8906 -3.99705 -4.35878 0
M  V30 106 C 12.2526 -5.1748 -4.77906 0
M  V30 107 H 8.3516 -0.185226 -0.759747 0
M  V30 108 H 10.9356 -1.03114 -1.65153 0
M  V30 109 H 9.1066 0.143154 -3.88136 0
M  V30 110 H 10.8386 -0.0410128 -4.04679 0
M  V30 111 H 7.5936 -2.04777 -4.2704 0
M  V30 112 H 8.0176 -4.5656 -4.99882 0
M  V30 113 H 12.6596 -1.94165 -3.75579 0
M  V30 114 H 10.3776 -6.1301 -5.2654 0
M  V30 115 H 13.9636 -3.98758 -4.23655 0
M  V30 116 H 12.8436 -6.05478 -4.98363 0
M  V30 117 N 10.3467 1.47872 -0.545128 0
M  V30 118 C 11.5937 2.02493 -0.0165858 0
M  V30 119 C 11.9217 1.42073 1.32836 0
M  V30 120 O 11.1767 0.561459 1.87473 0
M  V30 121 C 11.4757 3.57131 0.13867 0
M  V30 122 C 11.1417 4.36411 -1.13384 0
M  V30 123 C 9.8037 4.57792 -1.48256 0
M  V30 124 C 12.1557 4.82223 -1.97764 0
M  V30 125 C 9.4837 5.22233 -2.67376 0
M  V30 126 C 11.8357 5.47977 -3.16076 0
M  V30 127 C 10.4997 5.67593 -3.51275 0
M  V30 128 H 9.7697 0.740975 -0.00606918 0
M  V30 129 H 12.4167 1.77683 -0.714207 0
M  V30 130 H 10.7217 3.80865 0.919172 0
M  V30 131 H 12.4187 3.97031 0.562782 0
M  V30 132 H 9.0087 4.2004 -0.852297 0
M  V30 133 H 13.1927 4.65493 -1.72132 0
M  V30 134 H 8.4487 5.35616 -2.94831 0
M  V30 135 H 12.6227 5.8244 -3.81755 0
M  V30 136 H 10.2497 6.17298 -4.43675 0
M  V30 137 N 11.8248 0.280983 1.55075 0
M  V30 138 C 12.7348 -0.61388 2.26426 0
M  V30 139 C 13.7508 -1.16521 1.29224 0
M  V30 140 O 14.9268 -1.19426 1.62171 0
M  V30 141 C 11.9918 -1.7788 2.9759 0
M  V30 142 C 11.0528 -1.26355 4.10284 0
M  V30 143 C 10.2858 -2.37295 4.78045 0
M  V30 144 O 10.5088 -3.56777 4.45047 0
M  V30 145 O 9.4428 -2.05119 5.65871 0
M  V30 146 H 13.2688 -0.0356932 3.03679 0
M  V30 147 H 10.8538 0.0481686 1.49322 0
M  V30 148 H 12.7358 -2.45791 3.42293 0
M  V30 149 H 11.4108 -2.34397 2.23249 0
M  V30 150 H 10.3178 -0.550735 3.70024 0
M  V30 151 H 11.6508 -0.744065 4.86543 0
M  V30 152 N 13.3029 -1.57598 0.00835791 0
M  V30 153 C 14.5509 -1.90551 -0.6734 0
M  V30 154 C 14.8719 -0.883301 -1.73847 0
M  V30 155 O 14.1419 0.0781442 -1.95744 0
M  V30 156 H 12.7219 -0.703312 -0.251717 0
M  V30 157 H 15.3839 -1.94833 0.0512592 0
M  V30 158 H 14.4799 -2.9056 -1.13935 0
M  V30 159 N 14.781 0.264519 -1.55364 0
M  V30 160 C 16.03 0.992812 -1.75574 0
M  V30 161 C 16.343 1.87142 -0.568979 0
M  V30 162 O 17.549 2.63513 -0.653682 0
M  V30 163 C 16.005 1.81519 -3.10771 0
M  V30 164 C 15.613 0.984839 -4.37041 0
M  V30 165 C 17.357 2.53727 -3.40327 0
M  V30 166 C 15.264 1.80209 -5.63275 0
M  V30 167 H 14.194 0.374412 -0.65447 0
M  V30 168 H 16.845 0.248138 -1.81815 0
M  V30 169 H 15.227 2.60115 -2.98591 0
M  V30 170 H 16.401 0.242455 -4.60162 0
M  V30 171 H 14.716 0.37691 -4.14691 0
M  V30 172 H 17.313 3.15292 -4.3185 0
M  V30 173 H 17.656 3.24447 -2.60845 0
M  V30 174 H 18.189 1.82156 -3.53644 0
M  V30 175 H 14.928 1.13896 -6.45529 0
M  V30 176 H 14.448 2.52022 -5.44284 0
M  V30 177 H 16.127 2.37364 -6.01887 0
M  V30 178 N 16.2591 1.48442 0.529413 0
M  V30 179 C 17.2221 1.62524 1.61612 0
M  V30 180 C 18.2221 0.498509 1.52877 0
M  V30 181 O 19.4121 0.76431 1.56537 0
M  V30 182 C 16.5441 1.59597 3.01233 0
M  V30 183 H 17.7371 2.59423 1.50465 0
M  V30 184 H 15.2901 1.37047 0.751514 0
M  V30 185 H 16.0251 0.641781 3.17886 0
M  V30 186 H 15.8101 2.41397 3.08982 0
M  V30 187 H 17.3001 1.72646 3.80241 0
M  V30 188 N 17.7372 -0.778329 1.37039 0
M  V30 189 C 18.9842 -1.53665 1.31884 0
M  V30 190 C 19.3122 -1.9425 -0.0986303 0
M  V30 191 O 18.5672 -1.63832 -1.07041 0
M  V30 192 C 18.8662 -2.81845 2.19768 0
M  V30 193 C 18.5322 -2.60345 3.68146 0
M  V30 194 C 17.1942 -2.5419 4.08584 0
M  V30 195 C 19.5462 -2.40923 4.62175 0
M  V30 196 C 16.8742 -2.26594 5.41177 0
M  V30 197 C 19.2262 -2.14852 5.94997 0
M  V30 198 C 17.8902 -2.07137 6.34547 0
M  V30 199 H 17.1602 -0.562299 0.482598 0
M  V30 200 H 19.8072 -0.897069 1.69189 0
M  V30 201 H 18.1122 -3.50328 1.75436 0
M  V30 202 H 19.8092 -3.39692 2.13097 0
M  V30 203 H 16.3992 -2.65996 3.36072 0
M  V30 204 H 20.5832 -2.44673 4.31797 0
M  V30 205 H 15.8392 -2.19111 5.70789 0
M  V30 206 H 20.0132 -1.98822 6.67415 0
M  V30 207 H 17.6402 -1.85518 7.37216 0
M  V30 208 N 19.2153 -1.21501 -1.00376 0
M  V30 209 C 20.6263 -1.03146 -1.55621 0
M  V30 210 C 20.9773 0.408375 -1.91903 0
M  V30 211 O 20.1023 1.29177 -1.73616 0
M  V30 212 C 20.6973 -1.86612 -2.82775 0
M  V30 213 C 19.2563 -1.72586 -3.34501 0
M  V30 214 C 18.4033 -1.83747 -2.07683 0
M  V30 215 H 21.3543 -1.35505 -0.826081 0
M  V30 216 H 21.3753 -1.3771 -3.54706 0
M  V30 217 H 20.8873 -2.91399 -2.56336 0
M  V30 218 H 18.9883 -0.704877 -3.65872 0
M  V30 219 H 19.1013 -2.54623 -4.05837 0
M  V30 220 H 17.4653 -1.27069 -2.20739 0
M  V30 221 H 18.2483 -2.90044 -1.83655 0
M  V30 222 N 20.6934 1.19889 -1.02296 0
M  V30 223 C 21.9214 1.9339 -0.735399 0
M  V30 224 C 22.3364 1.75148 0.704887 0
M  V30 225 O 21.6934 1.06954 1.47875 0
M  V30 226 C 21.7444 3.45313 -1.06962 0
M  V30 227 O 21.4654 3.62964 -2.45334 0
M  V30 228 C 22.9664 4.35948 -0.804021 0
M  V30 229 H 20.1864 0.61448 -0.269546 0
M  V30 230 H 22.7304 1.522 -1.36585 0
M  V30 231 H 20.8854 3.84359 -0.484455 0
M  V30 232 H 21.2994 4.56886 -2.57595 0
M  V30 233 H 22.7734 5.41174 -1.0879 0
M  V30 234 H 23.2504 4.3842 0.261691 0
M  V30 235 H 23.8564 4.02574 -1.37164 0
M  V30 236 N 22.1715 0.800033 1.35784 0
M  V30 237 C 23.1045 0.151499 2.27697 0
M  V30 238 C 24.0825 -0.678663 1.4776 0
M  V30 239 O 25.2665 -0.647358 1.77035 0
M  V30 240 C 22.3935 -0.790492 3.29346 0
M  V30 241 C 21.4395 -0.0407832 4.26481 0
M  V30 242 S 22.2725 1.29077 5.19711 0
M  V30 243 C 23.4285 0.353055 6.24903 0
M  V30 244 H 23.6615 0.930796 2.82353 0
M  V30 245 H 21.1945 0.594767 1.42485 0
M  V30 246 H 23.1525 -1.3285 3.88409 0
M  V30 247 H 21.8135 -1.54312 2.73581 0
M  V30 248 H 21.0065 -0.755971 4.98298 0
M  V30 249 H 20.6085 0.427063 3.71554 0
M  V30 250 H 22.9005 -0.464147 6.75908 0
M  V30 251 H 23.8435 1.04023 7.00418 0
M  V30 252 H 24.2515 -0.0483344 5.64479 0
M  V30 253 N 23.6496 -1.47581 0.552962 0
M  V30 254 C 24.8976 -2.02082 0.0272703 0
M  V30 255 C 25.2186 -1.4301 -1.32563 0
M  V30 256 O 24.4886 -0.603745 -1.86365 0
M  V30 257 H 23.0686 -0.746966 0.00709182 0
M  V30 258 H 25.7306 -1.81033 0.722008 0
M  V30 259 H 24.8266 -3.12034 -0.0639951 0
M  V30 260 N 25.1277 -0.289203 -1.54924 0
M  V30 261 C 26.3747 0.323519 -1.99899 0
M  V30 262 C 26.7027 1.54797 -1.17762 0
M  V30 263 O 25.9577 1.94237 -0.238835 0
M  V30 264 C 26.2567 0.736119 -3.49737 0
M  V30 265 C 25.9227 -0.385276 -4.49251 0
M  V30 266 C 24.5847 -0.693156 -4.76181 0
M  V30 267 C 26.9367 -1.14021 -5.08575 0
M  V30 268 C 24.2647 -1.7593 -5.59701 0
M  V30 269 C 26.6167 -2.19619 -5.93254 0
M  V30 270 C 25.2807 -2.51026 -6.185 0
M  V30 271 H 24.5507 0.118384 -0.731482 0
M  V30 272 H 27.1977 -0.405847 -1.8715 0
M  V30 273 H 25.5027 1.54539 -3.60035 0
M  V30 274 H 27.1997 1.22118 -3.81953 0
M  V30 275 H 23.7897 -0.135202 -4.28387 0
M  V30 276 H 27.9737 -0.915611 -4.87781 0
M  V30 277 H 23.2297 -2.0075 -5.77503 0
M  V30 278 H 27.4037 -2.78581 -6.38252 0
M  V30 279 H 25.0307 -3.33772 -6.83008 0
M  V30 280 N 26.6058 1.57591 -0.0167156 0
M  V30 281 C 28.0218 1.55946 0.339557 0
M  V30 282 C 28.2218 1.02109 1.73713 0
M  V30 283 O 27.2778 0.662303 2.43659 0
M  V30 284 C 28.5908 3.00037 0.199499 0
M  V30 285 C 30.1388 3.11805 0.273193 0
M  V30 286 C 30.6138 4.57713 0.162068 0
M  V30 287 N 32.1048 4.6268 0.219444 0
M  V30 288 C 32.8398 5.73185 0.157054 0
M  V30 289 N 32.3358 6.92786 0.0442936 0
M  V30 290 N 34.1288 5.61707 0.21014 0
M  V30 291 H 26.2798 1.90921 -0.930758 0
M  V30 292 H 28.5428 0.877674 -0.358319 0
M  V30 293 H 28.2488 3.4333 -0.76273 0
M  V30 294 H 28.1228 3.64387 0.974786 0
M  V30 295 H 30.5098 2.68433 1.22587 0
M  V30 296 H 30.5908 2.50201 -0.532256 0
M  V30 297 H 30.2348 5.01763 -0.78714 0
M  V30 298 H 30.1648 5.17283 0.986222 0
M  V30 299 H 32.6558 3.76649 0.307246 0
M  V30 300 H 32.9688 7.728 0.00304069 0
M  V30 301 H 31.3138 6.94999 0.00968457 0
M  V30 302 H 34.5048 4.6716 0.296546 0
M  V30 303 H 34.6778 6.47807 0.158054 0
M  V30 304 N 28.0839 -0.256276 1.55502 0
M  V30 305 C 29.3089 -1.00766 1.81276 0
M  V30 306 C 29.7339 -1.78524 0.59252 0
M  V30 307 O 29.0919 -1.75413 -0.45827 0
M  V30 308 C 29.1399 -1.92869 3.04687 0
M  V30 309 O 28.2439 -3.019 2.80945 0
M  V30 310 H 27.5849 -0.287224 0.598664 0
M  V30 311 H 30.1149 -0.280109 2.02674 0
M  V30 312 H 30.1249 -2.34511 3.33869 0
M  V30 313 H 28.7999 -1.35689 3.93143 0
M  V30 314 H 27.3769 -2.64454 2.62904 0
M  V30 315 N 29.562 -1.4872 -0.521534 0
M  V30 316 C 30.472 -1.66569 -1.65203 0
M  V30 317 C 31.488 -0.548197 -1.65139 0
M  V30 318 O 32.664 -0.820339 -1.83936 0
M  V30 319 C 29.729 -1.70917 -3.01642 0
M  V30 320 C 28.79 -2.94356 -3.12495 0
M  V30 321 C 28.023 -2.98487 -4.42426 0
M  V30 322 O 28.246 -2.10786 -5.30024 0
M  V30 323 O 27.18 -3.90746 -4.57822 0
M  V30 324 H 31.006 -2.62298 -1.5308 0
M  V30 325 H 28.591 -1.3222 -0.695565 0
M  V30 326 H 30.473 -1.7625 -3.82771 0
M  V30 327 H 29.148 -0.783633 -3.14071 0
M  V30 328 H 28.055 -2.94552 -2.3063 0
M  V30 329 H 29.388 -3.86322 -3.04986 0
M  V30 330 N 31.0401 0.771051 -1.3745 0
M  V30 331 C 32.2681 1.56015 -1.35893 0
M  V30 332 C 32.6831 1.88718 0.0555523 0
M  V30 333 O 32.0401 1.51502 1.01752 0
M  V30 334 C 32.0911 2.87001 -2.19801 0
M  V30 335 O 31.8121 2.557 -3.55738 0
M  V30 336 C 33.3131 3.81228 -2.26231 0
M  V30 337 H 30.5331 0.483317 -0.465453 0
M  V30 338 H 33.0771 0.955611 -1.80799 0
M  V30 339 H 31.2321 3.43877 -1.78402 0
M  V30 340 H 31.6461 3.39584 -3.99729 0
M  V30 341 H 33.1201 4.70139 -2.89263 0
M  V30 342 H 33.5971 4.20409 -1.27093 0
M  V30 343 H 34.2031 3.30281 -2.67945 0
M  V30 344 N 32.5182 1.22032 0.997298 0
M  V30 345 C 33.4482 1.01065 2.10495 0
M  V30 346 C 34.4292 -0.0669542 1.69968 0
M  V30 347 O 35.6142 0.0943987 1.9397 0
M  V30 348 C 32.7442 0.582874 3.42374 0
M  V30 349 C 31.6982 1.60592 3.96729 0
M  V30 350 C 31.0242 1.03412 5.24605 0
M  V30 351 C 32.3242 2.99478 4.27914 0
M  V30 352 H 34.0182 1.93708 2.28292 0
M  V30 353 H 31.5642 0.932761 1.09707 0
M  V30 354 H 33.5172 0.423332 4.19268 0
M  V30 355 H 32.2412 -0.379213 3.24391 0
M  V30 356 H 30.9002 1.75316 3.21963 0
M  V30 357 H 30.5482 0.063518 5.0296 0
M  V30 358 H 30.2482 1.71754 5.61938 0
M  V30 359 H 31.7722 0.886066 6.04137 0
M  V30 360 H 33.1862 2.88153 4.95622 0
M  V30 361 H 31.5832 3.64903 4.76409 0
M  V30 362 H 32.6532 3.49742 3.3587 0
M  V30 363 N 33.9963 -1.19345 1.0293 0
M  V30 364 C 35.4123 -1.41069 0.746446 0
M  V30 365 C 35.6123 -1.90078 -0.668776 0
M  V30 366 O 34.6683 -2.0778 -1.4347 0
M  V30 367 C 35.9813 -2.42141 1.78292 0
M  V30 368 C 37.5293 -2.55887 1.80252 0
M  V30 369 C 38.0043 -3.60214 2.8286 0
M  V30 370 N 39.4953 -3.67711 2.81679 0
M  V30 371 C 40.2303 -4.48128 3.57727 0
M  V30 372 N 39.7263 -5.32248 4.43491 0
M  V30 373 N 41.5193 -4.42782 3.46267 0
M  V30 374 H 33.6703 -0.858536 1.94275 0
M  V30 375 H 35.9333 -0.439541 0.839945 0
M  V30 376 H 35.6393 -2.13155 2.79746 0
M  V30 377 H 35.5133 -3.41323 1.60557 0
M  V30 378 H 37.9003 -2.84196 0.794757 0
M  V30 379 H 37.9813 -1.56858 2.02062 0
M  V30 380 H 37.6253 -3.32647 3.83807 0
M  V30 381 H 37.5553 -4.58895 2.58307 0
M  V30 382 H 40.0463 -3.07634 2.19476 0
M  V30 383 H 40.3593 -5.90729 4.98256 0
M  V30 384 H 38.7043 -5.31707 4.47564 0
M  V30 385 H 41.8953 -3.76107 2.78677 0
M  V30 386 H 42.0683 -5.05215 4.05785 0
M  V30 387 N 35.4744 -0.807222 -1.35358 0
M  V30 388 C 36.4214 -0.216037 -2.29787 0
M  V30 389 C 37.3914 0.650278 -1.52842 0
M  V30 390 O 38.5764 0.595227 -1.81278 0
M  V30 391 C 35.7164 0.628893 -3.39321 0
M  V30 392 C 34.8294 -0.257927 -4.31229 0
M  V30 393 C 33.9644 0.595069 -5.27856 0
M  V30 394 C 33.0034 -0.292111 -6.11403 0
M  V30 395 N 32.1404 0.520895 -7.00165 0
M  V30 396 H 36.9804 -1.02671 -2.79755 0
M  V30 397 H 34.5174 -0.517839 -1.37684 0
M  V30 398 H 36.4754 1.13393 -4.01494 0
M  V30 399 H 35.1054 1.40482 -2.90628 0
M  V30 400 H 34.1574 -0.881076 -3.70056 0
M  V30 401 H 35.4694 -0.940759 -4.89848 0
M  V30 402 H 34.6234 1.16522 -5.95405 0
M  V30 403 H 33.3624 1.31146 -4.69736 0
M  V30 404 H 32.3674 -0.874525 -5.428 0
M  V30 405 H 33.5924 -1.00638 -6.71602 0
M  V30 406 H 31.5384 1.22125 -6.44532 0
M  V30 407 H 31.4554 -0.103877 -7.55929 0
M  V30 408 H 32.7234 1.0743 -7.72062 0
M  V30 409 N 36.9525 1.47285 -0.560781 0
M  V30 410 C 38.1985 2.02764 -0.0381184 0
M  V30 411 C 38.5315 1.43384 1.30976 0
M  V30 412 O 37.8065 0.590733 1.85312 0
M  V30 413 C 38.0895 3.60064 0.0511427 0
M  V30 414 C 37.9425 4.2987 -1.32408 0
M  V30 415 C 39.2615 4.33439 0.762795 0
M  V30 416 H 36.3805 0.736841 -0.0153264 0
M  V30 417 H 39.0225 1.75675 -0.723759 0
M  V30 418 H 37.1725 3.83274 0.635065 0
M  V30 419 H 38.8445 4.17989 -1.95148 0
M  V30 420 H 37.0875 3.90085 -1.8978 0
M  V30 421 H 37.7585 5.38478 -1.21431 0
M  V30 422 H 40.2345 4.15243 0.266965 0
M  V30 423 H 39.1105 5.43124 0.794221 0
M  V30 424 H 39.3715 4.02915 1.81966 0
M  V30 425 N 38.4306 0.297415 1.54768 0
M  V30 426 C 39.8466 -0.0560823 1.59501 0
M  V30 427 C 40.0466 -1.52725 1.31444 0
M  V30 428 O 39.1026 -2.27947 1.08611 0
M  V30 429 C 40.4156 0.338631 2.98787 0
M  V30 430 C 41.9636 0.287097 3.11681 0
M  V30 431 C 42.4386 0.656579 4.53269 0
M  V30 432 N 43.9296 0.608977 4.59179 0
M  V30 433 C 44.6646 0.867385 5.66802 0
M  V30 434 N 44.1606 1.19157 6.82476 0
M  V30 435 N 45.9536 0.794687 5.56454 0
M  V30 436 H 38.1046 1.25624 1.71267 0
M  V30 437 H 40.3676 0.509057 0.799728 0
M  V30 438 H 40.0736 1.36263 3.2423 0
M  V30 439 H 39.9476 -0.309508 3.75928 0
M  V30 440 H 42.3346 -0.727649 2.85988 0
M  V30 441 H 42.4156 0.969809 2.36703 0
M  V30 442 H 42.0596 1.66912 4.7969 0
M  V30 443 H 41.9896 -0.0481649 5.26578 0
M  V30 444 H 44.4806 0.369198 3.76092 0
M  V30 445 H 44.7936 1.37482 7.60473 0
M  V30 446 H 43.1386 1.22958 6.84037 0
M  V30 447 H 46.3296 0.541098 4.64962 0
M  V30 448 H 46.5026 0.999445 6.40246 0
M  V30 449 N 39.9087 -1.5758 0.0250728 0
M  V30 450 C 41.1857 -1.82917 -0.692873 0
M  V30 451 C 41.5657 -0.908137 -1.90568 0
M  V30 452 O 40.9137 0.0372298 -2.2847 0
M  V30 453 C 41.1237 -3.32034 -1.07492 0
M  V30 454 C 42.4717 -3.98406 -1.46826 0
M  V30 455 O 43.4957 -3.36505 -1.16801 0
M  V30 456 O 42.3547 -5.07497 -2.02754 0
M  V30 457 H 39.4487 -0.754079 -0.33955 0
M  V30 458 H 41.9947 -1.69619 0.0524456 0
M  V30 459 H 40.7667 -3.90728 -0.211552 0
M  V30 460 H 40.3897 -3.50424 -1.87854 0
M  V30 461 N 41.3868 0.248026 -1.55636 0
M  V30 462 C 42.2968 1.32859 -1.93354 0
M  V30 463 C 43.3128 1.52719 -0.833838 0
M  V30 464 O 44.4888 1.66363 -1.13513 0
M  V30 465 C 41.5538 2.66337 -2.21958 0
M  V30 466 C 40.6148 2.55008 -3.45354 0
M  V30 467 C 39.8478 3.82121 -3.72584 0
M  V30 468 O 40.0708 4.83951 -3.01907 0
M  V30 469 O 39.0048 3.80822 -4.6611 0
M  V30 470 H 42.8308 1.03862 -2.85388 0
M  V30 471 H 40.4158 0.448686 -1.42503 0
M  V30 472 H 42.2978 3.45216 -2.4167 0
M  V30 473 H 40.9728 2.95068 -1.33103 0
M  V30 474 H 39.8798 1.7442 -3.30951 0
M  V30 475 H 41.2128 2.31222 -4.34508 0
M  V30 476 N 42.8649 1.48995 0.513639 0
M  V30 477 C 44.1119 1.57843 1.26854 0
M  V30 478 C 44.4399 0.259501 1.92761 0
M  V30 479 O 43.6949 -0.75159 1.80692 0
M  V30 480 C 43.9939 2.67756 2.36731 0
M  V30 481 C 43.6599 4.09669 1.88368 0
M  V30 482 C 42.3219 4.48291 1.74896 0
M  V30 483 C 44.6739 4.98537 1.52021 0
M  V30 484 C 42.0019 5.73568 1.23438 0
M  V30 485 C 44.3539 6.24319 1.0202 0
M  V30 486 C 43.0179 6.61783 0.871778 0
M  V30 487 H 42.2879 0.577587 0.464192 0
M  V30 488 H 44.9349 1.82778 0.571366 0
M  V30 489 H 43.2399 2.36743 3.12185 0
M  V30 490 H 44.9369 2.71813 2.9482 0
M  V30 491 H 41.5269 3.79176 1.99808 0
M  V30 492 H 45.7109 4.69363 1.61281 0
M  V30 493 H 40.9669 6.01304 1.10648 0
M  V30 494 H 45.1409 6.92566 0.729722 0
M  V30 495 H 42.7679 7.5874 0.470852 0
M  V30 496 N 44.343 -0.763751 1.37857 0
M  V30 497 C 45.589 -1.52483 1.33704 0
M  V30 498 C 45.922 -1.94051 -0.0759612 0
M  V30 499 O 45.197 -1.64675 -1.03501 0
M  V30 500 C 45.48 -2.78441 2.28348 0
M  V30 501 C 45.333 -2.43075 3.78463 0
M  V30 502 C 46.652 -3.80415 2.21298 0
M  V30 503 H 43.771 -0.553169 0.487005 0
M  V30 504 H 46.413 -0.875562 1.68624 0
M  V30 505 H 44.563 -3.33842 1.987 0
M  V30 506 H 46.235 -1.93527 4.18742 0
M  V30 507 H 44.478 -1.75666 3.96641 0
M  V30 508 H 45.149 -3.33149 4.40132 0
M  V30 509 H 47.625 -3.34527 2.47449 0
M  V30 510 H 46.501 -4.66257 2.89647 0
M  V30 511 H 46.762 -4.25262 1.20849 0
M  V30 512 N 45.8211 -1.22559 -0.990812 0
M  V30 513 C 47.0701 -1.04553 -1.72486 0
M  V30 514 C 47.3831 0.419349 -1.91052 0
M  V30 515 O 48.5891 0.719121 -2.61803 0
M  V30 516 C 47.0451 -1.82231 -3.10355 0
M  V30 517 C 46.6531 -3.32981 -2.99713 0
M  V30 518 C 48.3971 -1.7268 -3.87791 0
M  V30 519 C 46.3041 -4.03091 -4.32748 0
M  V30 520 H 45.2341 -0.387614 -0.646739 0
M  V30 521 H 47.8851 -1.46429 -1.10593 0
M  V30 522 H 46.2671 -1.33155 -3.72942 0
M  V30 523 H 47.4411 -3.89466 -2.46278 0
M  V30 524 H 45.7561 -3.43231 -2.35758 0
M  V30 525 H 48.3531 -2.22381 -4.86262 0
M  V30 526 H 48.6961 -0.687607 -4.10582 0
M  V30 527 H 49.2291 -2.1931 -3.31885 0
M  V30 528 H 45.9681 -5.07273 -4.15156 0
M  V30 529 H 45.4881 -3.51394 -4.86089 0
M  V30 530 H 47.1671 -4.08804 -5.01486 0
M  V30 531 N 47.2992 1.18797 -1.03562 0
M  V30 532 C 48.7152 1.40671 -0.753917 0
M  V30 533 C 48.9152 1.9043 0.658686 0
M  V30 534 O 47.9712 2.08538 1.42366 0
M  V30 535 C 49.2842 2.41192 -1.79574 0
M  V30 536 C 50.8322 2.54928 -1.81606 0
M  V30 537 C 51.3072 3.58709 -2.84766 0
M  V30 538 N 52.7982 3.66212 -2.83625 0
M  V30 539 C 53.5332 4.46225 -3.60098 0
M  V30 540 N 53.0292 5.29888 -4.46308 0
M  V30 541 N 54.8222 4.40939 -3.4861 0
M  V30 542 H 46.9732 0.848221 -1.94728 0
M  V30 543 H 49.2362 0.435081 -0.842264 0
M  V30 544 H 48.9422 2.11669 -2.80872 0
M  V30 545 H 48.8162 3.40467 -1.62365 0
M  V30 546 H 51.2032 2.83771 -0.809817 0
M  V30 547 H 51.2842 1.55784 -2.02891 0
M  V30 548 H 50.9282 3.30607 -3.85566 0
M  V30 549 H 50.8582 4.57519 -2.60737 0
M  V30 550 H 53.3492 3.06466 -2.21105 0
M  V30 551 H 53.6622 5.88078 -5.01382 0
M  V30 552 H 52.0072 5.29326 -4.50377 0
M  V30 553 H 55.1982 3.74624 -2.80668 0
M  V30 554 H 55.3712 5.03056 -4.08459 0
M  V30 555 N 48.7773 0.814389 1.34928 0
M  V30 556 C 50.0543 0.321363 1.92942 0
M  V30 557 C 50.4343 -1.19014 1.74353 0
M  V30 558 O 49.7823 -1.99328 1.11716 0
M  V30 559 C 49.9923 0.741323 3.41036 0
M  V30 560 C 51.3403 0.735266 4.18185 0
M  V30 561 O 52.3643 0.68336 3.49584 0
M  V30 562 O 51.2233 0.800703 5.40602 0
M  V30 563 H 48.3173 0.0858893 0.822528 0
M  V30 564 H 50.8633 0.898609 1.43955 0
M  V30 565 H 49.6353 1.78276 3.4833 0
M  V30 566 H 49.2583 0.139307 3.97356 0
M  V30 567 N 50.2554 -1.46986 0.568584 0
M  V30 568 C 51.1654 -2.33942 -0.17555 0
M  V30 569 C 52.1814 -1.48891 -0.90041 0
M  V30 570 O 53.3574 -1.81794 -0.86676 0
M  V30 571 C 50.4224 -3.25811 -1.18524 0
M  V30 572 C 49.4834 -4.26757 -0.466582 0
M  V30 573 C 48.7164 -5.14236 -1.42817 0
M  V30 574 O 48.9394 -5.04379 -2.66379 0
M  V30 575 O 47.8734 -5.94412 -0.946453 0
M  V30 576 H 51.6994 -2.98896 0.538036 0
M  V30 577 H 49.2844 -1.4573 0.329097 0
M  V30 578 H 51.1664 -3.82527 -1.76779 0
M  V30 579 H 49.8414 -2.63471 -1.88055 0
M  V30 580 H 48.7484 -3.73769 0.157451 0
M  V30 581 H 50.0814 -4.91843 0.187485 0
M  V30 582 N 51.7335 -0.305618 -1.54608 0
M  V30 583 C 53.0105 0.355652 -1.92339 0
M  V30 584 C 53.3905 1.71324 -1.23335 0
M  V30 585 O 52.7385 2.25473 -0.370702 0
M  V30 586 C 52.9485 0.46572 -3.45879 0
M  V30 587 C 54.2965 0.734426 -4.182 0
M  V30 588 O 55.3205 0.54935 -3.51938 0
M  V30 589 O 54.1795 1.09024 -5.35515 0
M  V30 590 H 51.2735 0.199666 -0.802535 0
M  V30 591 H 53.8195 -0.354017 -1.65966 0
M  V30 592 H 52.5915 -0.488461 -3.88239 0
M  V30 593 H 52.2145 1.22367 -3.78301 0
M  V30 594 N 53.2116 1.57565 -0.0334293 0
M  V30 595 C 54.4576 1.92262 0.645226 0
M  V30 596 C 54.7906 0.910543 1.71531 0
M  V30 597 O 54.0656 -0.066099 1.94388 0
M  V30 598 C 54.3486 3.37422 1.2577 0
M  V30 599 C 54.2016 4.49369 0.196891 0
M  V30 600 C 55.5206 3.82628 2.17449 0
M  V30 601 H 52.6396 0.699171 0.233085 0
M  V30 602 H 55.2816 1.89779 -0.0915694 0
M  V30 603 H 53.4316 3.39669 1.88566 0
M  V30 604 H 55.1036 4.59254 -0.433962 0
M  V30 605 H 53.3466 4.31168 -0.477137 0
M  V30 606 H 54.0176 5.47978 0.665124 0
M  V30 607 H 56.4936 3.82145 1.64634 0
M  V30 608 H 55.3696 4.84883 2.57254 0
M  V30 609 H 55.6306 3.18376 3.0674 0
M  V30 610 N 54.6897 -0.239769 1.55765 0
M  V30 611 C 55.9387 -0.964754 1.77131 0
M  V30 612 C 56.2517 -1.86213 0.59868 0
M  V30 613 O 57.4577 -2.6244 0.695522 0
M  V30 614 C 55.9137 -1.76552 3.1362 0
M  V30 615 C 55.5217 -0.915185 4.38553 0
M  V30 616 C 57.2657 -2.48281 3.44321 0
M  V30 617 C 55.1727 -1.71225 5.66071 0
M  V30 618 H 54.1027 -0.363953 0.660344 0
M  V30 619 H 56.7537 -0.219181 1.82186 0
M  V30 620 H 55.1357 -2.55331 3.02691 0
M  V30 621 H 56.3097 -0.169217 4.60489 0
M  V30 622 H 54.6247 -0.310889 4.15238 0
M  V30 623 H 57.2217 -3.08382 4.36812 0
M  V30 624 H 57.5647 -3.20256 2.65973 0
M  V30 625 H 58.0977 -1.76507 3.56497 0
M  V30 626 H 54.8367 -1.03612 6.4726 0
M  V30 627 H 54.3567 -2.43331 5.48224 0
M  V30 628 H 56.0357 -2.27758 6.05587 0
M  V30 629 N 56.1678 -1.49265 -0.50573 0
M  V30 630 C 57.4168 -1.57761 -1.25675 0
M  V30 631 C 57.7298 -0.267371 -1.93764 0
M  V30 632 O 58.9358 -0.230827 -2.70517 0
M  V30 633 C 57.3918 -2.78332 -2.28165 0
M  V30 634 C 56.9998 -4.16096 -1.66037 0
M  V30 635 C 58.7438 -2.96155 -3.04125 0
M  V30 636 C 56.6508 -5.27895 -2.6661 0
M  V30 637 H 55.5808 -0.587391 -0.472745 0
M  V30 638 H 58.2318 -1.75644 -0.53118 0
M  V30 639 H 56.6138 -2.53934 -3.03865 0
M  V30 640 H 57.7878 -4.50612 -0.963622 0
M  V30 641 H 56.1028 -4.03591 -1.02484 0
M  V30 642 H 58.6998 -3.76849 -3.79327 0
M  V30 643 H 59.0428 -2.06534 -3.61455 0
M  V30 644 H 59.5758 -3.2057 -2.35541 0
M  V30 645 H 56.3148 -6.1956 -2.14068 0
M  V30 646 H 55.8348 -4.97839 -3.34539 0
M  V30 647 H 57.5138 -5.57031 -3.29129 0
M  V30 648 N 57.6459 0.756429 -1.3826 0
M  V30 649 C 58.5759 1.88374 -1.37976 0
M  V30 650 C 59.5569 1.68311 -0.246082 0
M  V30 651 O 60.7419 1.88944 -0.44874 0
M  V30 652 C 57.8719 3.25864 -1.20125 0
M  V30 653 C 56.8259 3.60523 -2.30666 0
M  V30 654 C 56.1519 4.9672 -1.97923 0
M  V30 655 C 57.4519 3.65692 -3.72916 0
M  V30 656 H 59.1459 1.88869 -2.32312 0
M  V30 657 H 56.6919 0.907272 -1.11824 0
M  V30 658 H 58.6449 4.0438 -1.18552 0
M  V30 659 H 57.3689 3.25841 -0.222498 0
M  V30 660 H 56.0279 2.84324 -2.3142 0
M  V30 661 H 55.6759 4.93253 -0.985393 0
M  V30 662 H 55.3759 5.20878 -2.71955 0
M  V30 663 H 56.8999 5.77618 -1.97964 0
M  V30 664 H 58.3139 4.34328 -3.74208 0
M  V30 665 H 56.7109 4.01358 -4.4613 0
M  V30 666 H 57.7809 2.65987 -4.05436 0
M  V30 667 N 59.124 1.23083 0.984299 0
M  V30 668 C 60.352 1.08714 1.76037 0
M  V30 669 C 60.767 -0.361691 1.85303 0
M  V30 670 O 60.124 -1.25034 1.32939 0
M  V30 671 C 60.175 1.70206 3.18923 0
M  V30 672 O 59.896 3.09423 3.10144 0
M  V30 673 C 61.397 1.61227 4.12941 0
M  V30 674 H 58.617 0.380664 0.552572 0
M  V30 675 H 61.161 1.62853 1.23689 0
M  V30 676 H 59.316 1.20109 3.6831 0
M  V30 677 H 59.73 3.39188 4.00065 0
M  V30 678 H 61.204 2.08962 5.10919 0
M  V30 679 H 61.681 0.570375 4.35481 0
M  V30 680 H 62.287 2.10671 3.69456 0
M  V30 681 N 60.6021 -1.18246 1.0419 0
M  V30 682 C 61.8321 -1.91916 0.764961 0
M  V30 683 C 62.2401 -1.76485 -0.681898 0
M  V30 684 O 61.5831 -1.09275 -1.47664 0
M  V30 685 C 61.6451 -3.4373 1.05309 0
M  V30 686 C 61.3091 -3.8294 2.4941 0
M  V30 687 C 62.3061 -3.86621 3.47592 0
M  V30 688 C 59.9911 -4.142 2.84155 0
M  V30 689 C 61.9851 -4.21013 4.78568 0
M  V30 690 C 59.6721 -4.48262 4.15337 0
M  V30 691 C 60.6701 -4.51645 5.12353 0
M  V30 692 O 60.3581 -4.84911 6.41183 0
M  V30 693 H 60.0901 -0.61606 0.278292 0
M  V30 694 H 62.6441 -1.50947 1.39299 0
M  V30 695 H 60.8741 -3.84946 0.367933 0
M  V30 696 H 62.5631 -3.9865 0.763752 0
M  V30 697 H 63.3291 -3.62607 3.22089 0
M  V30 698 H 59.2081 -4.10743 2.09311 0
M  V30 699 H 62.7521 -4.23568 5.54289 0
M  V30 700 H 58.6491 -4.71737 4.40607 0
M  V30 701 H 59.4171 -5.02809 6.45852 0
M  V30 702 N 62.0802 -0.821533 -1.34494 0
M  V30 703 C 63.4912 -0.467956 -1.8074 0
M  V30 704 C 63.8422 1.01151 -1.68116 0
M  V30 705 O 62.9672 1.78707 -1.22036 0
M  V30 706 C 63.5622 -0.842627 -3.28154 0
M  V30 707 C 62.1212 -0.541439 -3.72485 0
M  V30 708 C 61.2682 -1.06028 -2.56229 0
M  V30 709 H 64.2192 -1.01183 -1.22261 0
M  V30 710 H 64.2402 -0.145876 -3.8022 0
M  V30 711 H 63.7522 -1.91945 -3.37311 0
M  V30 712 H 61.8532 0.526034 -3.68868 0
M  V30 713 H 61.9662 -1.08453 -4.66663 0
M  V30 714 H 60.3302 -0.481892 -2.501 0
M  V30 715 H 61.1132 -2.14352 -2.68157 0
M  V30 716 N 63.5583 1.46682 -0.576371 0
M  V30 717 C 64.5053 2.30241 0.160499 0
M  V30 718 C 65.4753 1.40233 0.890162 0
M  V30 719 O 66.6603 1.69186 0.882084 0
M  V30 720 C 63.8003 3.24578 1.1723 0
M  V30 721 C 62.9133 4.29684 0.446736 0
M  V30 722 C 62.0483 5.11154 1.44551 0
M  V30 723 C 61.0873 6.08015 0.70599 0
M  V30 724 N 60.2243 6.82376 1.65251 0
M  V30 725 H 65.0643 2.92727 -0.558127 0
M  V30 726 H 62.6013 1.44272 -0.287056 0
M  V30 727 H 64.5593 3.77711 1.77172 0
M  V30 728 H 63.1893 2.63916 1.85872 0
M  V30 729 H 62.2413 3.79458 -0.267594 0
M  V30 730 H 63.5533 4.98626 -0.131686 0
M  V30 731 H 62.7073 5.68533 2.11791 0
M  V30 732 H 61.4463 4.42158 2.05786 0
M  V30 733 H 60.4513 5.49796 0.0197725 0
M  V30 734 H 61.6763 6.79028 0.09912 0
M  V30 735 H 59.6223 6.16094 2.25308 0
M  V30 736 H 59.5393 7.47556 1.12673 0
M  V30 737 H 60.8073 7.44316 2.31546 0
M  V30 738 N 65.0364 0.313813 1.54444 0
M  V30 739 C 66.2614 -0.296681 2.05267 0
M  V30 740 C 66.6864 -1.45757 1.18897 0
M  V30 741 O 66.0444 -1.80239 0.195886 0
M  V30 742 C 66.0924 -0.71831 3.53373 0
M  V30 743 O 65.1964 -1.82175 3.69981 0
M  V30 744 H 64.5374 -0.0554061 0.661684 0
M  V30 745 H 67.0674 0.459387 1.99376 0
M  V30 746 H 67.0774 -1.00364 3.95463 0
M  V30 747 H 65.7524 0.130821 4.15694 0
M  V30 748 H 64.3294 -1.53598 3.39797 0
M  V30 749 N 66.5145 -1.57545 0.0417849 0
M  V30 750 C 67.7625 -1.91937 -0.632829 0
M  V30 751 C 68.0835 -0.919978 -1.71934 0
M  V30 752 O 67.3535 0.0366064 -1.95866 0
M  V30 753 H 65.9335 -0.708493 -0.236742 0
M  V30 754 H 68.5955 -1.9468 0.0925745 0
M  V30 755 H 67.6915 -2.92912 -1.07746 0
M  V30 756 N 67.9926 0.231505 -1.5589 0
M  V30 757 C 69.2206 0.974505 -1.82513 0
M  V30 758 C 69.6356 1.78344 -0.619591 0
M  V30 759 O 68.9926 1.77792 0.411848 0
M  V30 760 C 69.0436 1.90007 -3.07538 0
M  V30 761 O 68.7646 1.12385 -4.2344 0
M  V30 762 C 70.2656 2.75779 -3.47075 0
M  V30 763 H 67.4856 0.286065 -0.606966 0
M  V30 764 H 70.0296 0.249739 -2.02969 0
M  V30 765 H 68.1846 2.57891 -2.89086 0
M  V30 766 H 68.5986 1.75125 -4.944 0
M  V30 767 H 70.0726 3.36443 -4.37619 0
M  V30 768 H 70.5496 3.47672 -2.68367 0
M  V30 769 H 71.1556 2.13323 -3.67931 0
M  V30 770 N 69.4707 1.49531 0.497807 0
M  V30 771 C 70.4187 1.66926 1.61983 0
M  V30 772 C 71.4127 0.535167 1.60724 0
M  V30 773 O 72.6187 0.714896 1.65195 0
M  V30 774 H 68.9937 0.526415 0.537021 0
M  V30 775 H 70.9647 2.61098 1.44465 0
M  V30 776 C 69.7137 1.75602 3.00099 0
M  V30 777 H 69.0367 2.62244 3.01775 0
M  V30 778 H 70.4767 1.91807 3.78135 0
M  V30 779 C 68.9357 0.501543 3.33146 0
M  V30 780 O 69.4657 -0.371342 3.9998 0
M  V30 781 N 67.6717 0.363531 2.88317 0
M  V30 782 H 67.2187 1.07485 2.34104 0
M  V30 783 H 67.1767 -0.474728 3.10795 0
M  V30 784 N 70.9488 -0.749086 1.3866 0
M  V30 785 C 72.1948 -1.50959 1.36319 0
M  V30 786 C 72.5498 -1.92347 -0.0452451 0
M  V30 787 O 71.8428 -1.6289 -1.00884 0
M  V30 788 C 72.0368 -2.7712 2.25697 0
M  V30 789 C 71.8658 -2.48067 3.7509 0
M  V30 790 C 70.6358 -2.41062 4.44091 0
M  V30 791 C 72.8338 -2.14544 4.67414 0
M  V30 792 N 70.8158 -2.04331 5.78897 0
M  V30 793 C 72.1868 -1.88141 5.90765 0
M  V30 794 C 74.2418 -2.00892 4.55573 0
M  V30 795 C 72.9448 -1.49463 7.036 0
M  V30 796 C 74.9708 -1.63616 5.68317 0
M  V30 797 C 74.3328 -1.38088 6.90732 0
M  V30 798 H 70.4318 -0.551804 0.554108 0
M  V30 799 H 73.0158 -0.871886 1.74087 0
M  V30 800 H 71.1868 -3.38693 1.9011 0
M  V30 801 H 72.9188 -3.4321 2.1445 0
M  V30 802 H 69.6738 -2.57685 3.9736 0
M  V30 803 H 70.0978 -1.88598 6.502 0
M  V30 804 H 74.7398 -2.19301 3.61479 0
M  V30 805 H 72.4578 -1.29794 7.97608 0
M  V30 806 H 76.0438 -1.53678 5.61137 0
M  V30 807 H 74.9238 -1.09674 7.76493 0
M  V30 808 N 72.4269 -1.23603 -0.977757 0
M  V30 809 C 73.3569 -1.04401 -2.0886 0
M  V30 810 C 74.3379 0.0399052 -1.70053 0
M  V30 811 O 75.5229 -0.125246 -1.93796 0
M  V30 812 C 72.6529 -0.637269 -3.41403 0
M  V30 813 C 71.6069 -1.66883 -3.94124 0
M  V30 814 C 70.9329 -1.11745 -5.22893 0
M  V30 815 C 72.2329 -3.06247 -4.23096 0
M  V30 816 H 73.9269 -1.97316 -2.25182 0
M  V30 817 H 71.4729 -0.950096 -1.08209 0
M  V30 818 H 73.4259 -0.48998 -4.18542 0
M  V30 819 H 72.1499 0.327557 -3.24953 0
M  V30 820 H 70.8089 -1.80416 -3.19133 0
M  V30 821 H 70.4569 -0.143527 -5.02795 0
M  V30 822 H 70.1569 -1.80672 -5.59134 0
M  V30 823 H 71.6809 -0.982067 -6.02651 0
M  V30 824 H 73.0949 -2.96001 -4.90975 0
M  V30 825 H 71.4919 -3.72436 -4.70544 0
M  V30 826 H 72.5619 -3.55041 -3.30263 0
M  V30 827 N 73.905 1.17692 -1.04816 0
M  V30 828 C 74.868 2.19787 -0.650117 0
M  V30 829 C 75.868 1.58044 0.296427 0
M  V30 830 O 77.058 1.74012 0.0808097 0
M  V30 831 C 74.19 3.40869 0.0456987 0
M  V30 832 H 75.383 2.56516 -1.5537 0
M  V30 833 H 72.936 1.31708 -0.841594 0
M  V30 834 H 73.671 3.09681 0.962726 0
M  V30 835 H 73.456 3.86928 -0.634727 0
M  V30 836 H 74.946 4.16445 0.310432 0
M  V30 837 N 75.3831 0.828654 1.34056 0
M  V30 838 C 76.2931 0.256725 2.33191 0
M  V30 839 C 77.3091 -0.611898 1.62886 0
M  V30 840 O 78.4851 -0.51844 1.94613 0
M  V30 841 C 75.5501 -0.567238 3.42028 0
M  V30 842 C 74.6111 0.324458 4.28072 0
M  V30 843 C 73.8441 -0.460274 5.31712 0
M  V30 844 O 74.0671 -1.693 5.44696 0
M  V30 845 O 73.0011 0.160391 6.01686 0
M  V30 846 H 76.8271 1.07739 2.83947 0
M  V30 847 H 74.4121 0.59093 1.37217 0
M  V30 848 H 76.2941 -1.03582 4.08471 0
M  V30 849 H 74.9691 -1.36513 2.93506 0
M  V30 850 H 73.8761 0.840659 3.64532 0
M  V30 851 H 75.2091 1.08685 4.8005 0
M  V30 852 N 76.8612 -1.46375 0.584142 0
M  V30 853 C 78.1102 -2.01585 0.0679741 0
M  V30 854 C 78.4232 -1.46109 -1.30045 0
M  V30 855 O 79.6292 -1.93148 -1.90804 0
M  V30 856 C 78.0852 -3.5983 0.0709207 0
M  V30 857 C 77.6932 -4.24303 1.43775 0
M  V30 858 C 79.4372 -4.22693 -0.391228 0
M  V30 859 C 77.3442 -5.74631 1.39834 0
M  V30 860 H 76.2742 -0.753689 0.0216421 0
M  V30 861 H 78.9252 -1.68093 0.736001 0
M  V30 862 H 77.3072 -3.90405 -0.663299 0
M  V30 863 H 78.4812 -4.05335 2.19181 0
M  V30 864 H 76.7962 -3.73539 1.84004 0
M  V30 865 H 79.3932 -5.3289 -0.439524 0
M  V30 866 H 79.7362 -3.91728 -1.40906 0
M  V30 867 H 80.2692 -3.96749 0.288974 0
M  V30 868 H 77.0082 -6.10258 2.39303 0
M  V30 869 H 76.5282 -5.95858 0.686505 0
M  V30 870 H 78.2072 -6.37375 1.11187 0
M  V30 871 N 78.3393 -0.321999 -1.54275 0
M  V30 872 C 79.2693 0.537411 -2.27231 0
M  V30 873 C 80.2503 1.12064 -1.27968 0
M  V30 874 O 81.4353 1.14606 -1.56777 0
M  V30 875 C 78.5653 1.69919 -3.02894 0
M  V30 876 C 77.5193 1.24534 -4.09482 0
M  V30 877 C 76.8453 2.49394 -4.72977 0
M  V30 878 C 78.1453 0.361335 -5.21049 0
M  V30 879 H 79.8393 -0.0711406 -2.99315 0
M  V30 880 H 77.3853 -0.0356555 -1.43956 0
M  V30 881 H 79.3383 2.30668 -3.52662 0
M  V30 882 H 78.0623 2.33431 -2.28424 0
M  V30 883 H 76.7213 0.660782 -3.60596 0
M  V30 884 H 76.3693 3.11265 -3.95124 0
M  V30 885 H 76.0693 2.19718 -5.44975 0
M  V30 886 H 77.5933 3.10908 -5.25517 0
M  V30 887 H 79.0073 0.875072 -5.66582 0
M  V30 888 H 77.4043 0.157428 -5.99893 0
M  V30 889 H 78.4743 -0.60822 -4.8107 0
M  V30 890 N 79.8174 1.5752 -0.0501392 0
M  V30 891 C 81.0574 1.94521 0.627783 0
M  V30 892 C 81.4214 0.928265 1.68069 0
M  V30 893 O 82.6224 1.18517 2.41261 0
M  V30 894 C 80.8934 3.36319 1.20932 0
M  V30 895 S 82.4524 3.95272 1.90539 0
M  V30 896 H 79.2704 0.680456 0.206158 0
M  V30 897 H 81.8724 1.95139 -0.118829 0
M  V30 898 H 80.5764 4.08132 0.430865 0
M  V30 899 H 80.1074 3.39193 1.99277 0
M  V30 900 H 82.1224 3.80415 3.18589 0
M  V30 901 N 81.2955 -0.223234 1.56011 0
M  V30 902 C 82.2255 -1.27988 1.95298 0
M  V30 903 C 83.2065 -1.48976 0.820979 0
M  V30 904 O 84.3915 -1.61188 1.08315 0
M  V30 905 C 81.5215 -2.63 2.26822 0
M  V30 906 C 80.4755 -2.56671 3.42497 0
M  V30 907 C 79.8015 -3.95697 3.59622 0
M  V30 908 C 81.1015 -2.11601 4.77517 0
M  V30 909 H 82.7955 -0.953525 2.8381 0
M  V30 910 H 80.3415 -0.457244 1.36548 0
M  V30 911 H 82.2945 -3.37077 2.52898 0
M  V30 912 H 81.0185 -2.9732 1.35161 0
M  V30 913 H 79.6775 -1.85051 3.16467 0
M  V30 914 H 79.3255 -4.27322 2.6534 0
M  V30 915 H 79.0255 -3.92345 4.37424 0
M  V30 916 H 80.5495 -4.71438 3.88044 0
M  V30 917 H 81.9635 -2.7542 5.02809 0
M  V30 918 H 80.3605 -2.19311 5.5859 0
M  V30 919 H 81.4305 -1.06824 4.72987 0
M  V30 920 N 82.7736 -1.49793 -0.48987 0
M  V30 921 C 83.7066 -1.61898 -1.60823 0
M  V30 922 C 84.6846 -0.467651 -1.5573 0
M  V30 923 O 85.8686 -0.684682 -1.75626 0
M  V30 924 C 82.9956 -1.58422 -2.99366 0
M  V30 925 C 82.0416 -2.78889 -3.22682 0
M  V30 926 S 82.8746 -4.40429 -3.04602 0
M  V30 927 C 84.0306 -4.39617 -4.4552 0
M  V30 928 H 84.2636 -2.56502 -1.50312 0
M  V30 929 H 81.7966 -1.38822 -0.675849 0
M  V30 930 H 83.7546 -1.57103 -3.79248 0
M  V30 931 H 82.4156 -0.650866 -3.07283 0
M  V30 932 H 81.6086 -2.72708 -4.23847 0
M  V30 933 H 81.2106 -2.77678 -2.50541 0
M  V30 934 H 83.5026 -4.12022 -5.37814 0
M  V30 935 H 84.4456 -5.41097 -4.56749 0
M  V30 936 H 84.8536 -3.69554 -4.2672 0
M  V30 937 N 84.2517 0.741722 -1.39055 0
M  V30 938 C 85.2017 1.84661 -1.33732 0
M  V30 939 C 86.1857 1.59397 -0.219401 0
M  V30 940 O 87.3777 1.71015 -0.456375 0
M  V30 941 C 84.5067 3.22512 -1.17647 0
M  V30 942 C 83.5927 3.53628 -2.34112 0
M  V30 943 N 83.9837 3.55723 -3.59576 0
M  V30 944 C 82.2817 3.83956 -2.26923 0
M  V30 945 C 82.9827 3.84443 -4.36553 0
M  V30 946 N 81.9587 4.01877 -3.66055 0
M  V30 947 H 85.7607 1.84576 -2.28711 0
M  V30 948 H 83.2747 0.939647 -1.32455 0
M  V30 949 H 85.2717 4.01597 -1.11917 0
M  V30 950 H 83.9317 3.2384 -0.236124 0
M  V30 951 H 84.9427 3.37196 -3.93089 0
M  V30 952 H 81.6197 3.92929 -1.41113 0
M  V30 953 H 83.0097 3.92588 -5.45274 0
M  V30 954 N 85.7298 1.2412 0.971189 0
M  V30 955 C 86.9548 1.10667 1.75407 0
M  V30 956 C 87.3798 -0.337048 1.85056 0
M  V30 957 O 86.7378 -1.24396 1.31892 0
M  V30 958 C 86.7858 1.74726 3.15441 0
M  V30 959 O 85.8898 1.01566 3.99697 0
M  V30 960 H 85.2308 0.387341 0.539317 0
M  V30 961 H 87.7608 1.64358 1.2185 0
M  V30 962 H 87.7708 1.80341 3.6598 0
M  V30 963 H 86.4458 2.79773 3.07734 0
M  V30 964 H 85.0228 1.03713 3.58187 0
M  V30 965 N 87.2079 -1.17134 1.05439 0
M  V30 966 C 88.1549 -2.21235 0.657539 0
M  V30 967 C 89.1249 -1.62551 -0.341543 0
M  V30 968 O 90.3099 -1.89379 -0.232393 0
M  V30 969 C 87.4499 -3.45076 0.0410575 0
M  V30 970 C 86.5629 -4.18042 1.08927 0
M  V30 971 C 85.6979 -5.29376 0.439848 0
M  V30 972 C 84.7369 -5.94132 1.4722 0
M  V30 973 N 83.8739 -6.96975 0.846756 0
M  V30 974 H 88.7139 -2.54534 1.54972 0
M  V30 975 H 86.2509 -1.25028 0.775006 0
M  V30 976 H 88.2089 -4.15862 -0.33383 0
M  V30 977 H 86.8389 -3.12353 -0.814568 0
M  V30 978 H 85.8909 -3.45945 1.58196 0
M  V30 979 H 87.2029 -4.62306 1.87282 0
M  V30 980 H 86.3569 -6.06699 0.0115125 0
M  V30 981 H 85.0959 -4.86251 -0.375656 0
M  V30 982 H 84.1009 -5.15538 1.91052 0
M  V30 983 H 85.3259 -6.39337 2.28965 0
M  V30 984 H 83.2719 -6.5598 0.0518075 0
M  V30 985 H 83.1889 -7.39565 1.5678 0
M  V30 986 H 84.4569 -7.78239 0.443277 0
M  V30 987 N 88.686 -0.835752 -1.33615 0
M  V30 988 C 89.934 -0.429109 -1.97492 0
M  V30 989 C 90.255 1.01433 -1.66543 0
M  V30 990 O 89.525 1.70611 -0.962744 0
M  V30 991 H 88.105 -0.155686 -0.730596 0
M  V30 992 H 90.767 -1.06802 -1.63031 0
M  V30 993 H 89.863 -0.55861 -3.0706 0
M  V30 994 N 90.1641 1.46063 -0.591896 0
M  V30 995 C 91.4411 1.95595 -0.0137119 0
M  V30 996 C 91.8211 1.5345 1.4497 0
M  V30 997 O 91.1691 0.789543 2.14426 0
M  V30 998 C 91.3791 3.48453 -0.195373 0
M  V30 999 C 92.7271 4.24546 -0.0679765 0
M  V30 1000 O 93.7511 3.55982 -0.124681 0
M  V30 1001 O 92.6101 5.46467 0.0600579 0
M  V30 1002 H 89.7041 0.825795 0.0446279 0
M  V30 1003 H 92.2501 1.56303 -0.660859 0
M  V30 1004 H 91.0221 3.72045 -1.21235 0
M  V30 1005 H 90.6451 3.94597 0.487775 0
M  V30 1006 N 91.6422 0.330177 1.54103 0
M  V30 1007 C 92.6052 -0.520144 2.2322 0
M  V30 1008 C 93.6052 -1.03828 1.22786 0
M  V30 1009 O 94.7952 -0.929652 1.4732 0
M  V30 1010 C 91.9272 -1.72317 2.94142 0
M  V30 1011 H 93.1202 0.0841605 2.99782 0
M  V30 1012 H 90.6732 0.0813433 1.56088 0
M  V30 1013 H 91.4082 -2.36653 2.21734 0
M  V30 1014 H 91.1932 -1.35898 3.67796 0
M  V30 1015 H 92.6832 -2.3266 3.46784 0
M  V30 1016 N 93.1203 -1.57491 0.0584922 0
M  V30 1017 C 94.0673 -2.11958 -0.913376 0
M  V30 1018 C 95.0373 -1.02875 -1.30407 0
M  V30 1019 O 96.2223 -1.30464 -1.39226 0
M  V30 1020 C 93.3623 -2.67497 -2.18035 0
M  V30 1021 C 92.4753 -3.90691 -1.84349 0
M  V30 1022 C 91.6103 -4.3452 -3.05559 0
M  V30 1023 C 90.6493 -5.50395 -2.67827 0
M  V30 1024 N 89.7863 -5.89244 -3.81754 0
M  V30 1025 H 94.6263 -2.94704 -0.442017 0
M  V30 1026 H 92.1633 -1.45643 -0.206545 0
M  V30 1027 H 94.1213 -2.978 -2.92183 0
M  V30 1028 H 92.7513 -1.87537 -2.62735 0
M  V30 1029 H 91.8033 -3.66934 -1.00319 0
M  V30 1030 H 93.1153 -4.7489 -1.5258 0
M  V30 1031 H 92.2693 -4.66414 -3.87998 0
M  V30 1032 H 91.0083 -3.49147 -3.40511 0
M  V30 1033 H 90.0133 -5.18165 -1.83806 0
M  V30 1034 H 91.2383 -6.3749 -2.34059 0
M  V30 1035 H 89.1843 -5.06823 -4.16493 0
M  V30 1036 H 89.1013 -6.68151 -3.53708 0
M  V30 1037 H 90.3693 -6.25756 -4.64811 0
M  V30 1038 N 94.5984 0.214957 -1.56127 0
M  V30 1039 C 95.8444 0.935325 -1.80619 0
M  V30 1040 C 96.1994 1.81706 -0.632507 0
M  V30 1041 O 95.4924 1.87931 0.373182 0
M  V30 1042 C 95.6864 1.80314 -3.0858 0
M  V30 1043 C 95.5154 1.00691 -4.38282 0
M  V30 1044 C 94.2854 0.699211 -5.00439 0
M  V30 1045 C 96.4834 0.369057 -5.12974 0
M  V30 1046 N 94.4654 -0.117734 -6.13787 0
M  V30 1047 C 95.8364 -0.310981 -6.1922 0
M  V30 1048 C 97.8914 0.282759 -4.97096 0
M  V30 1049 C 96.5944 -1.06907 -7.11311 0
M  V30 1050 C 98.6204 -0.461881 -5.89594 0
M  V30 1051 C 97.9824 -1.13044 -6.9527 0
M  V30 1052 H 94.0814 0.322307 -0.71249 0
M  V30 1053 H 96.6654 0.205649 -1.93611 0
M  V30 1054 H 94.8364 2.50458 -2.96859 0
M  V30 1055 H 96.5684 2.46148 -3.21237 0
M  V30 1056 H 93.3234 1.01884 -4.62511 0
M  V30 1057 H 93.7474 -0.515235 -6.75037 0
M  V30 1058 H 98.3894 0.785292 -4.15443 0
M  V30 1059 H 96.1074 -1.5831 -7.92442 0
M  V30 1060 H 99.6934 -0.529746 -5.79383 0
M  V30 1061 H 98.5734 -1.69742 -7.65609 0
M  V30 1062 N 96.0765 1.50051 0.48192 0
M  V30 1063 C 97.3255 1.59741 1.23149 0
M  V30 1064 C 97.6385 0.298163 1.93314 0
M  V30 1065 O 98.8445 0.273835 2.70116 0
M  V30 1066 C 97.3005 2.81926 2.23708 0
M  V30 1067 C 96.9085 4.18685 1.59396 0
M  V30 1068 C 98.6525 3.00956 2.99375 0
M  V30 1069 C 96.5595 5.3207 2.58178 0
M  V30 1070 H 95.4895 0.594838 0.46334 0
M  V30 1071 H 98.1405 1.76467 0.503169 0
M  V30 1072 H 96.5225 2.58736 2.99786 0
M  V30 1073 H 97.6965 4.52088 0.891811 0
M  V30 1074 H 96.0115 4.05171 0.960503 0
M  V30 1075 H 98.6085 3.82836 3.73283 0
M  V30 1076 H 98.9515 2.12258 3.58123 0
M  V30 1077 H 99.4845 3.24277 2.30411 0
M  V30 1078 H 96.2235 6.22888 2.04184 0
M  V30 1079 H 95.7435 5.03098 3.26577 0
M  V30 1080 H 97.4225 5.62196 3.20225 0
M  V30 1081 N 97.5546 -0.734337 1.39446 0
M  V30 1082 C 98.4866 -1.85861 1.34121 0
M  V30 1083 C 99.4996 -1.60871 0.249864 0
M  V30 1084 O 100.689 -1.71093 0.508865 0
M  V30 1085 C 97.7886 -3.21899 1.05991 0
M  V30 1086 C 96.9616 -3.74239 2.26415 0
M  V30 1087 C 96.0206 -4.88841 1.94733 0
M  V30 1088 O 95.0466 -5.02468 2.67422 0
M  V30 1089 N 96.2486 -5.73261 0.913884 0
M  V30 1090 H 99.0136 -1.90934 2.31007 0
M  V30 1091 H 96.5746 -0.915102 1.33557 0
M  V30 1092 H 98.5666 -3.96136 0.828147 0
M  V30 1093 H 97.1366 -3.12091 0.178361 0
M  V30 1094 H 96.3566 -2.91347 2.65539 0
M  V30 1095 H 97.6446 -4.05942 3.06738 0
M  V30 1096 H 97.0426 -5.64842 0.311476 0
M  V30 1097 H 95.5996 -6.47563 0.742015 0
M  V30 1098 N 99.0327 -1.24633 -0.964593 0
M  V30 1099 C 100.258 -1.11596 -1.74818 0
M  V30 1100 C 100.683 0.32723 -1.85232 0
M  V30 1101 O 100.041 1.23695 -1.32549 0
M  V30 1102 C 100.089 -1.76397 -3.1451 0
M  V30 1103 O 99.1927 -1.03685 -3.99153 0
M  V30 1104 H 98.5337 -0.390196 -0.537255 0
M  V30 1105 H 101.064 -1.65002 -1.20977 0
M  V30 1106 H 101.074 -1.8228 -3.65018 0
M  V30 1107 H 99.7487 -2.81401 -3.06246 0
M  V30 1108 H 98.3257 -1.05611 -3.57632 0
M  V30 1109 N 100.511 1.16574 -1.06058 0
M  V30 1110 C 101.757 1.87324 -0.777022 0
M  V30 1111 C 102.09 1.81351 0.694645 0
M  V30 1112 O 101.365 1.22753 1.50871 0
M  V30 1113 C 101.648 3.36991 -1.26922 0
M  V30 1114 C 101.501 3.51667 -2.80447 0
M  V30 1115 C 102.82 4.3131 -0.87521 0
M  V30 1116 H 99.9388 0.680191 -0.28374 0
M  V30 1117 H 102.581 1.37036 -1.3161 0
M  V30 1118 H 100.731 3.79949 -0.81063 0
M  V30 1119 H 102.403 3.17664 -3.34495 0
M  V30 1120 H 100.646 2.93656 -3.19294 0
M  V30 1121 H 101.317 4.56766 -3.0995 0
M  V30 1122 H 103.793 3.9624 -1.27014 0
M  V30 1123 H 102.669 5.34545 -1.2471 0
M  V30 1124 H 102.93 4.41552 0.220071 0
M  V30 1125 N 101.989 0.842826 1.3317 0
M  V30 1126 C 103.4 0.496651 1.79973 0
M  V30 1127 C 103.751 -0.984641 1.69703 0
M  V30 1128 O 102.876 -1.76743 1.24863 0
M  V30 1129 C 103.471 0.894727 3.26772 0
M  V30 1130 C 102.03 0.600629 3.71577 0
M  V30 1131 C 101.177 1.10091 2.5451 0
M  V30 1132 H 104.128 1.03116 1.20635 0
M  V30 1133 H 104.149 0.206347 3.7994 0
M  V30 1134 H 103.661 1.97287 3.34215 0
M  V30 1135 H 101.762 -0.467284 3.69658 0
M  V30 1136 H 101.875 1.15863 4.64879 0
M  V30 1137 H 100.239 0.52162 2.49301 0
M  V30 1138 H 101.022 2.18591 2.64713 0
M  V30 1139 N 103.467 -1.45747 0.599634 0
M  V30 1140 C 104.716 -2.01502 0.0893511 0
M  V30 1141 C 105.029 -1.4748 -1.28488 0
M  V30 1142 O 106.235 -1.95161 -1.88745 0
M  V30 1143 C 104.691 -3.59735 0.109082 0
M  V30 1144 C 104.299 -4.22754 1.48267 0
M  V30 1145 C 106.043 -4.23085 -0.346374 0
M  V30 1146 C 103.95 -5.73115 1.45921 0
M  V30 1147 H 102.88 -0.753417 0.0296347 0
M  V30 1148 H 105.531 -1.67303 0.753788 0
M  V30 1149 H 103.913 -3.91087 -0.621854 0
M  V30 1150 H 105.087 -4.02987 2.23468 0
M  V30 1151 H 103.402 -3.71567 1.87955 0
M  V30 1152 H 105.999 -5.33327 -0.38298 0
M  V30 1153 H 106.342 -3.93201 -1.36743 0
M  V30 1154 H 106.875 -3.9642 0.331038 0
M  V30 1155 H 103.614 -6.07685 2.45762 0
M  V30 1156 H 103.134 -5.95097 0.749665 0
M  V30 1157 H 104.813 -6.3616 1.17941 0
M  V30 1158 N 104.945 -0.338344 -1.53925 0
M  V30 1159 C 106.191 0.252842 -2.01822 0
M  V30 1160 C 106.546 1.48612 -1.22197 0
M  V30 1161 O 105.839 1.89238 -0.299892 0
M  V30 1162 C 106.033 0.62448 -3.51902 0
M  V30 1163 C 105.862 -0.571235 -4.46057 0
M  V30 1164 C 104.632 -1.07493 -4.93734 0
M  V30 1165 C 106.83 -1.42807 -4.94076 0
M  V30 1166 N 104.812 -2.23351 -5.71828 0
M  V30 1167 C 106.183 -2.43362 -5.70241 0
M  V30 1168 C 108.238 -1.45412 -4.76193 0
M  V30 1169 C 106.941 -3.46346 -6.30426 0
M  V30 1170 C 108.967 -2.47274 -5.37224 0
M  V30 1171 C 108.329 -3.46555 -6.13253 0
M  V30 1172 H 104.428 0.0559669 -0.779995 0
M  V30 1173 H 107.012 -0.476732 -1.88773 0
M  V30 1174 H 105.183 1.32317 -3.65167 0
M  V30 1175 H 106.915 1.19841 -3.86549 0
M  V30 1176 H 103.67 -0.643848 -4.69203 0
M  V30 1177 H 104.094 -2.81834 -6.15548 0
M  V30 1178 H 108.736 -0.700171 -4.16962 0
M  V30 1179 H 106.454 -4.22638 -6.88769 0
M  V30 1180 H 110.04 -2.50109 -5.25297 0
M  V30 1181 H 108.92 -4.24083 -6.59638 0
M  V30 1182 N 106.423 1.57458 -0.0668435 0
M  V30 1183 C 107.333 2.15937 0.916975 0
M  V30 1184 C 108.349 1.12123 1.33058 0
M  V30 1185 O 109.525 1.44366 1.40429 0
M  V30 1186 C 106.59 2.70547 2.16807 0
M  V30 1187 C 105.651 3.89215 1.81135 0
M  V30 1188 C 104.884 4.41211 3.0028 0
M  V30 1189 O 105.107 3.92225 4.14144 0
M  V30 1190 O 104.041 5.32605 2.80384 0
M  V30 1191 H 107.867 3.00354 0.449561 0
M  V30 1192 H 105.452 1.48584 0.155949 0
M  V30 1193 H 107.334 3.0557 2.90181 0
M  V30 1194 H 106.009 1.89192 2.62656 0
M  V30 1195 H 104.916 3.59054 1.05028 0
M  V30 1196 H 106.249 4.71848 1.40073 0
M  V30 1197 N 107.901 -0.206675 1.56239 0
M  V30 1198 C 109.317 -0.557025 1.49564 0
M  V30 1199 C 109.517 -1.86424 0.764735 0
M  V30 1200 O 108.573 -2.50584 0.310491 0
M  V30 1201 C 109.886 -0.622478 2.94186 0
M  V30 1202 C 111.434 -0.712099 3.04792 0
M  V30 1203 C 111.909 -0.808767 4.50803 0
M  V30 1204 N 113.4 -0.8726 4.54907 0
M  V30 1205 C 114.135 -0.967365 5.65181 0
M  V30 1206 N 113.631 -1.02515 6.85173 0
M  V30 1207 N 115.424 -1.00366 5.53067 0
M  V30 1208 H 107.575 0.650943 2.02179 0
M  V30 1209 H 109.838 0.230387 0.919579 0
M  V30 1210 H 109.544 0.268727 3.50672 0
M  V30 1211 H 109.418 -1.4811 3.46905 0
M  V30 1212 H 111.805 -1.59374 2.48363 0
M  V30 1213 H 111.886 0.172489 2.55218 0
M  V30 1214 H 111.53 0.0684754 5.07854 0
M  V30 1215 H 111.46 -1.70899 4.98098 0
M  V30 1216 H 113.951 -0.837657 3.68499 0
M  V30 1217 H 114.264 -1.09765 7.64965 0
M  V30 1218 H 112.609 -0.994026 6.87855 0
M  V30 1219 H 115.8 -0.95527 4.58249 0
M  V30 1220 H 115.973 -1.07405 6.39037 0
M  V30 1221 N 109.379 -1.50304 -0.473955 0
M  V30 1222 C 110.604 -1.65175 -1.25427 0
M  V30 1223 C 111.029 -0.333673 -1.85117 0
M  V30 1224 O 110.387 0.702114 -1.67153 0
M  V30 1225 C 110.435 -2.74295 -2.34082 0
M  V30 1226 O 109.539 -2.35349 -3.38651 0
M  V30 1227 H 108.88 -0.551944 -0.369126 0
M  V30 1228 H 111.41 -1.96662 -0.564364 0
M  V30 1229 H 111.42 -2.97285 -2.79438 0
M  V30 1230 H 110.095 -3.69959 -1.90008 0
M  V30 1231 H 108.672 -2.22794 -2.99027 0
M  V30 1232 N 110.857 0.726932 -1.39834 0
M  V30 1233 C 112.268 1.30558 -1.3346 0
M  V30 1234 C 112.619 1.962 -0.00273003 0
M  V30 1235 O 111.744 1.96826 0.899371 0
M  V30 1236 C 112.339 2.37404 -2.41713 0
M  V30 1237 C 110.898 2.90921 -2.38835 0
M  V30 1238 C 110.045 1.64578 -2.2318 0
M  V30 1239 H 112.996 0.523862 -1.49804 0
M  V30 1240 H 113.017 3.17984 -2.08966 0
M  V30 1241 H 112.529 1.89599 -3.38635 0
M  V30 1242 H 110.63 3.42985 -1.45575 0
M  V30 1243 H 110.743 3.43487 -3.33997 0
M  V30 1244 H 109.107 1.89219 -1.70494 0
M  V30 1245 H 109.89 1.18814 -3.22084 0
M  V30 1246 N 112.336 1.25143 0.95797 0
M  V30 1247 C 113.582 1.10863 1.70531 0
M  V30 1248 C 113.937 -0.347391 1.89238 0
M  V30 1249 O 113.23 -1.25262 1.44983 0
M  V30 1250 C 113.424 1.79272 3.09187 0
M  V30 1251 C 113.253 3.31376 3.04006 0
M  V30 1252 C 112.023 4.0062 3.07948 0
M  V30 1253 C 114.221 4.27825 2.8543 0
M  V30 1254 N 112.203 5.39526 2.9289 0
M  V30 1255 C 113.574 5.53794 2.78769 0
M  V30 1256 C 115.629 4.1828 2.70085 0
M  V30 1257 C 114.332 6.7131 2.58331 0
M  V30 1258 C 116.358 5.35485 2.51017 0
M  V30 1259 C 115.72 6.60393 2.45073 0
M  V30 1260 H 111.819 0.460362 0.632132 0
M  V30 1261 H 114.403 1.58196 1.13499 0
M  V30 1262 H 112.574 1.34439 3.64391 0
M  V30 1263 H 114.306 1.57764 3.72683 0
M  V30 1264 H 111.061 3.51855 3.17009 0
M  V30 1265 H 111.485 6.12416 2.88574 0
M  V30 1266 H 116.127 3.22461 2.73457 0
M  V30 1267 H 113.845 7.67243 2.53701 0
M  V30 1268 H 117.431 5.29959 2.40073 0
M  V30 1269 H 116.311 7.49557 2.30509 0
M  V30 1270 N 113.814 -1.1601 1.06675 0
M  V30 1271 C 115.06 -1.86909 0.786945 0
M  V30 1272 C 115.393 -1.81717 -0.685018 0
M  V30 1273 O 114.668 -1.23551 -1.50218 0
M  V30 1274 C 114.951 -3.36313 1.28707 0
M  V30 1275 C 114.804 -3.50175 2.82308 0
M  V30 1276 C 116.123 -4.3084 0.898071 0
M  V30 1277 H 113.242 -0.678677 0.287343 0
M  V30 1278 H 115.884 -1.36336 1.32334 0
M  V30 1279 H 114.034 -3.79513 0.830768 0
M  V30 1280 H 115.706 -3.15886 3.36175 0
M  V30 1281 H 113.949 -2.91959 3.20847 0
M  V30 1282 H 114.62 -4.55116 3.12368 0
M  V30 1283 H 117.096 -3.95561 1.29114 0
M  V30 1284 H 115.972 -5.33876 1.27543 0
M  V30 1285 H 116.233 -4.41662 -0.196651 0
M  V30 1286 N 115.292 -0.849877 -1.32721 0
M  V30 1287 C 116.202 -0.293791 -2.32753 0
M  V30 1288 C 117.218 0.585906 -1.63839 0
M  V30 1289 O 118.394 0.487413 -1.95413 0
M  V30 1290 C 115.459 0.512752 -3.42887 0
M  V30 1291 C 114.52 -0.39252 -4.27502 0
M  V30 1292 C 113.753 0.375625 -5.32377 0
M  V30 1293 O 113.976 1.60613 -5.4732 0
M  V30 1294 O 112.91 -0.256094 -6.01355 0
M  V30 1295 H 116.736 -1.12242 -2.82197 0
M  V30 1296 H 114.321 -0.612685 -1.36259 0
M  V30 1297 H 116.203 0.970704 -4.10067 0
M  V30 1298 H 114.878 1.31826 -2.95641 0
M  V30 1299 H 113.785 -0.898547 -3.63149 0
M  V30 1300 H 115.118 -1.16309 -4.7826 0
M  V30 1301 N 116.77 1.45427 -0.607355 0
M  V30 1302 C 117.995 2.07124 -0.107006 0
M  V30 1303 C 118.42 1.44906 1.19933 0
M  V30 1304 O 117.778 0.541687 1.73019 0
M  V30 1305 C 117.826 3.60595 0.0194119 0
M  V30 1306 O 116.93 3.98285 1.0697 0
M  V30 1307 H 116.271 0.659868 -0.0739597 0
M  V30 1308 H 118.801 1.86683 -0.837297 0
M  V30 1309 H 118.811 4.07419 0.2177 0
M  V30 1310 H 117.486 4.05266 -0.934453 0
M  V30 1311 H 116.063 3.63133 0.847889 0
M  V30 1312 N 118.248 0.346503 1.53744 0
M  V30 1313 C 119.158 -0.517293 2.28826 0
M  V30 1314 C 120.174 -1.10935 1.3405 0
M  V30 1315 O 121.35 -1.1244 1.6709 0
M  V30 1316 C 118.415 -1.65098 3.04866 0
M  V30 1317 C 117.476 -1.0884 4.15274 0
M  V30 1318 C 116.709 -2.16806 4.87679 0
M  V30 1319 O 116.932 -3.3758 4.59778 0
M  V30 1320 O 115.866 -1.80934 5.74061 0
M  V30 1321 H 119.692 0.0931396 3.03557 0
M  V30 1322 H 117.277 0.111458 1.48984 0
M  V30 1323 H 119.159 -2.31053 3.5241 0
M  V30 1324 H 117.834 -2.24717 2.32989 0
M  V30 1325 H 116.741 -0.3933 3.72027 0
M  V30 1326 H 118.074 -0.537036 4.89261 0
M  V30 1327 N 119.726 -1.57421 0.075193 0
M  V30 1328 C 120.975 -1.92794 -0.592731 0
M  V30 1329 C 121.288 -0.957478 -1.70563 0
M  V30 1330 O 122.494 -1.20417 -2.43335 0
M  V30 1331 C 120.95 -3.42495 -1.10569 0
M  V30 1332 C 120.558 -4.47994 -0.0236121 0
M  V30 1333 C 122.302 -3.86864 -1.74748 0
M  V30 1334 C 120.209 -5.88829 -0.550803 0
M  V30 1335 H 119.139 -0.719591 -0.225177 0
M  V30 1336 H 121.79 -1.82902 0.147978 0
M  V30 1337 H 120.172 -3.47471 -1.89947 0
M  V30 1338 H 121.346 -4.54637 0.751099 0
M  V30 1339 H 119.661 -4.13113 0.522159 0
M  V30 1340 H 122.258 -4.8947 -2.15229 0
M  V30 1341 H 122.601 -3.24417 -2.60882 0
M  V30 1342 H 123.134 -3.84504 -1.01986 0
M  V30 1343 H 119.873 -6.54929 0.273457 0
M  V30 1344 H 119.393 -5.85698 -1.29296 0
M  V30 1345 H 121.072 -6.38811 -1.02613 0
M  V30 1346 N 121.204 0.198386 -1.56346 0
M  V30 1347 C 122.452 0.91747 -1.80075 0
M  V30 1348 C 122.773 1.83929 -0.647692 0
M  V30 1349 O 122.043 1.93029 0.334166 0
M  V30 1350 H 120.623 0.341774 -0.664228 0
M  V30 1351 H 123.285 0.204684 -1.93822 0
M  V30 1352 H 122.381 1.51055 -2.7311 0
M  V30 1353 N 122.682 1.50554 0.465978 0
M  V30 1354 C 123.912 1.65323 1.23903 0
M  V30 1355 C 124.32 0.338051 1.86155 0
M  V30 1356 O 123.663 -0.690518 1.70228 0
M  V30 1357 C 123.725 2.69048 2.3844 0
M  V30 1358 C 123.389 4.12462 1.96784 0
M  V30 1359 C 124.386 4.98168 1.48745 0
M  V30 1360 C 122.071 4.58407 2.05349 0
M  V30 1361 C 124.065 6.27868 1.0982 0
M  V30 1362 C 121.752 5.88112 1.66035 0
M  V30 1363 C 122.75 6.72668 1.18349 0
M  V30 1364 O 122.438 7.99951 0.795825 0
M  V30 1365 H 122.17 0.558629 0.38067 0
M  V30 1366 H 124.724 1.97561 0.562022 0
M  V30 1367 H 122.954 2.32062 3.09328 0
M  V30 1368 H 124.643 2.72985 3.0039 0
M  V30 1369 H 125.409 4.63885 1.41546 0
M  V30 1370 H 121.288 3.92735 2.41414 0
M  V30 1371 H 124.832 6.93819 0.725293 0
M  V30 1372 H 120.729 6.21914 1.72895 0
M  V30 1373 H 121.497 8.13265 0.924222 0
M  V30 1374 N 124.16 -0.719506 1.40217 0
M  V30 1375 C 125.388 -1.50864 1.41589 0
M  V30 1376 C 125.803 -1.88794 0.0145275 0
M  V30 1377 O 125.16 -1.55174 -0.960594 0
M  V30 1378 C 125.211 -2.78646 2.30302 0
M  V30 1379 O 124.932 -2.42321 3.64983 0
M  V30 1380 C 126.433 -3.72569 2.40224 0
M  V30 1381 H 123.653 -0.465709 0.48307 0
M  V30 1382 H 126.197 -0.88785 1.84221 0
M  V30 1383 H 124.352 -3.37019 1.91042 0
M  V30 1384 H 124.766 -3.24514 4.12057 0
M  V30 1385 H 126.24 -4.5908 3.06512 0
M  V30 1386 H 126.717 -4.15403 1.42608 0
M  V30 1387 H 127.323 -3.20109 2.80019 0
M  V30 1388 N 125.638 -1.25649 -0.95132 0
M  V30 1389 C 126.601 -1.06399 -2.03007 0
M  V30 1390 C 127.601 -0.0156794 -1.60792 0
M  V30 1391 O 128.791 -0.25817 -1.72276 0
M  V30 1392 C 125.923 -0.616184 -3.35285 0
M  V30 1393 H 127.116 -2.02164 -2.21517 0
M  V30 1394 H 124.669 -1.08103 -1.12887 0
M  V30 1395 H 125.404 0.343917 -3.22471 0
M  V30 1396 H 125.189 -1.37301 -3.67275 0
M  V30 1397 H 126.679 -0.503032 -4.14559 0
M  V30 1398 N 127.117 1.15442 -1.07289 0
M  V30 1399 C 128.047 2.22312 -0.714107 0
M  V30 1400 C 129.028 1.67467 0.298155 0
M  V30 1401 O 130.213 1.93445 0.171048 0
M  V30 1402 C 127.343 3.47124 -0.110448 0
M  V30 1403 C 126.297 4.14926 -1.04979 0
M  V30 1404 C 125.623 5.33807 -0.308924 0
M  V30 1405 C 126.923 4.64762 -2.38314 0
M  V30 1406 H 128.617 2.5258 -1.6076 0
M  V30 1407 H 126.163 1.21404 -0.77441 0
M  V30 1408 H 128.116 4.21124 0.152482 0
M  V30 1409 H 126.84 3.16187 0.81812 0
M  V30 1410 H 125.499 3.42866 -1.29764 0
M  V30 1411 H 125.147 4.99126 0.623084 0
M  V30 1412 H 124.847 5.80113 -0.935036 0
M  V30 1413 H 126.371 6.10576 -0.0537771 0
M  V30 1414 H 127.785 5.30292 -2.1786 0
M  V30 1415 H 126.182 5.21728 -2.96514 0
M  V30 1416 H 127.252 3.80434 -3.00663 0
M  V30 1417 N 128.595 0.856903 1.32268 0
M  V30 1418 C 129.82 0.474569 2.01897 0
M  V30 1419 C 130.245 -0.921766 1.63967 0
M  V30 1420 O 129.603 -1.60589 0.84148 0
M  V30 1421 C 129.651 0.623799 3.55164 0
M  V30 1422 O 128.755 -0.342459 4.10976 0
M  V30 1423 H 128.096 0.190422 0.63611 0
M  V30 1424 H 130.626 1.15672 1.68764 0
M  V30 1425 H 130.636 0.512169 4.04773 0
M  V30 1426 H 129.311 1.64202 3.82113 0
M  V30 1427 H 127.888 -0.18688 3.72431 0
M  V30 1428 N 130.073 -1.45103 0.615059 0
M  V30 1429 C 130.983 -2.34382 -0.101034 0
M  V30 1430 C 131.999 -1.51681 -0.852585 0
M  V30 1431 O 133.175 -1.8446 -0.808484 0
M  V30 1432 C 130.24 -3.29417 -1.08099 0
M  V30 1433 C 129.301 -4.28025 -0.330577 0
M  V30 1434 C 128.534 -5.1852 -1.26385 0
M  V30 1435 O 128.757 -5.12598 -2.50198 0
M  V30 1436 O 127.691 -5.97122 -0.756866 0
M  V30 1437 H 131.517 -2.97033 0.632855 0
M  V30 1438 H 129.102 -1.4461 0.375293 0
M  V30 1439 H 130.984 -3.87958 -1.6452 0
M  V30 1440 H 129.659 -2.69321 -1.79577 0
M  V30 1441 H 128.566 -3.73078 0.276283 0
M  V30 1442 H 129.899 -4.90997 0.343866 0
M  V30 1443 N 131.551 -0.354651 -1.53558 0
M  V30 1444 C 132.779 0.239515 -2.05509 0
M  V30 1445 C 133.194 1.4333 -1.2289 0
M  V30 1446 O 132.551 1.80538 -0.266899 0
M  V30 1447 C 132.602 0.643719 -3.55723 0
M  V30 1448 O 132.323 -0.502602 -4.35207 0
M  V30 1449 C 133.824 1.29743 -4.23889 0
M  V30 1450 H 131.044 0.0442697 -0.669538 0
M  V30 1451 H 133.588 -0.509856 -1.98042 0
M  V30 1452 H 131.743 1.34302 -3.63376 0
M  V30 1453 H 132.157 -0.178172 -5.24197 0
M  V30 1454 H 133.631 1.53091 -5.30346 0
M  V30 1455 H 134.108 2.25441 -3.76926 0
M  V30 1456 H 134.714 0.639865 -4.20459 0
M  V30 1457 N 133.029 1.57378 -0.0835403 0
M  V30 1458 C 133.939 2.16897 0.894021 0
M  V30 1459 C 134.955 1.13528 1.31861 0
M  V30 1460 O 136.131 1.45848 1.3889 0
M  V30 1461 C 133.196 2.72831 2.13925 0
M  V30 1462 C 132.257 3.91115 1.76997 0
M  V30 1463 C 131.49 4.44371 2.95584 0
M  V30 1464 O 131.713 3.96596 4.09961 0
M  V30 1465 O 130.647 5.35549 2.74719 0
M  V30 1466 H 134.473 3.00814 0.417679 0
M  V30 1467 H 132.058 1.48741 0.140181 0
M  V30 1468 H 133.94 3.0863 2.86924 0
M  V30 1469 H 132.615 1.91967 2.60635 0
M  V30 1470 H 131.522 3.60148 1.01214 0
M  V30 1471 H 132.855 4.73307 1.3506 0
M  V30 1472 N 134.507 -0.190092 1.56449 0
M  V30 1473 C 135.732 -0.929864 1.85387 0
M  V30 1474 C 136.157 -1.7585 0.667704 0
M  V30 1475 O 135.515 -1.77198 -0.383459 0
M  V30 1476 C 135.563 -1.79773 3.12593 0
M  V30 1477 O 134.667 -2.89713 2.93496 0
M  V30 1478 H 134.008 -0.261574 0.610307 0
M  V30 1479 H 136.538 -0.193896 2.03679 0
M  V30 1480 H 136.548 -2.20139 3.43515 0
M  V30 1481 H 135.223 -1.18892 3.98544 0
M  V30 1482 H 133.8 -2.53065 2.73884 0
M  V30 1483 N 135.985 -1.50799 -0.457987 0
M  V30 1484 C 137.396 -1.55152 -1.0385 0
M  V30 1485 C 137.747 -0.362719 -1.92818 0
M  V30 1486 O 136.872 0.522915 -2.09987 0
M  V30 1487 C 137.467 -2.81173 -1.89017 0
M  V30 1488 C 136.026 -2.88164 -2.42154 0
M  V30 1489 C 135.173 -2.49591 -1.20829 0
M  V30 1490 H 138.124 -1.56874 -0.240068 0
M  V30 1491 H 138.145 -2.63769 -2.74238 0
M  V30 1492 H 137.657 -3.67677 -1.24238 0
M  V30 1493 H 135.758 -2.06042 -3.10447 0
M  V30 1494 H 135.871 -3.91356 -2.76364 0
M  V30 1495 H 134.235 -2.02322 -1.54719 0
M  V30 1496 H 135.018 -3.38418 -0.576927 0
M  V30 1497 N 137.463 0.71206 -1.40597 0
M  V30 1498 C 138.879 1.02058 -1.22704 0
M  V30 1499 C 139.079 2.01228 -0.104729 0
M  V30 1500 O 138.135 2.4674 0.53624 0
M  V30 1501 C 139.448 1.56094 -2.57012 0
M  V30 1502 C 140.996 1.6806 -2.64054 0
M  V30 1503 C 141.471 2.25501 -3.9864 0
M  V30 1504 N 142.962 2.32882 -4.004 0
M  V30 1505 C 143.697 2.78317 -5.01325 0
M  V30 1506 N 143.193 3.23478 -6.12645 0
M  V30 1507 N 144.986 2.77733 -4.88693 0
M  V30 1508 H 137.137 0.0547896 -2.12329 0
M  V30 1509 H 139.4 0.0869027 -0.944008 0
M  V30 1510 H 139.106 0.906865 -3.39807 0
M  V30 1511 H 138.98 2.54564 -2.78347 0
M  V30 1512 H 141.367 2.32583 -1.81629 0
M  V30 1513 H 141.448 0.681802 -2.46546 0
M  V30 1514 H 141.092 1.61598 -4.81506 0
M  V30 1515 H 141.022 3.26102 -4.13479 0
M  V30 1516 H 143.513 2.00991 -3.20017 0
M  V30 1517 H 143.826 3.56725 -6.85542 0
M  V30 1518 H 142.171 3.21429 -6.16205 0
M  V30 1519 H 145.362 2.4179 -4.00818 0
M  V30 1520 H 145.535 3.12826 -5.67489 0
M  V30 1521 N 138.941 1.26152 0.944643 0
M  V30 1522 C 139.871 1.09902 2.06019 0
M  V30 1523 C 140.852 0.00519538 1.70099 0
M  V30 1524 O 142.037 0.176583 1.93396 0
M  V30 1525 C 139.167 0.727562 3.39594 0
M  V30 1526 C 138.121 1.77274 3.89561 0
M  V30 1527 C 137.447 1.25569 5.19747 0
M  V30 1528 C 138.747 3.17357 4.14827 0
M  V30 1529 H 140.441 2.03217 2.19871 0
M  V30 1530 H 137.987 0.978452 1.05652 0
M  V30 1531 H 139.94 0.600777 4.17095 0
M  V30 1532 H 138.664 -0.241287 3.25707 0
M  V30 1533 H 137.323 1.88814 3.14237 0
M  V30 1534 H 136.971 0.276783 5.02238 0
M  V30 1535 H 136.671 1.95433 5.54148 0
M  V30 1536 H 138.195 1.1415 5.99835 0
M  V30 1537 H 139.609 3.08914 4.82954 0
M  V30 1538 H 138.006 3.84781 4.60504 0
M  V30 1539 H 139.076 3.63673 3.20734 0
M  V30 1540 N 140.419 -1.14872 1.07899 0
M  V30 1541 C 141.666 -1.85789 0.805532 0
M  V30 1542 C 141.994 -1.82649 -0.668561 0
M  V30 1543 O 141.249 -1.24858 -1.50695 0
M  V30 1544 C 141.548 -3.34223 1.26609 0
M  V30 1545 C 141.214 -3.57555 2.74709 0
M  V30 1546 C 139.876 -3.63631 3.1516 0
M  V30 1547 C 142.228 -3.66803 3.70277 0
M  V30 1548 C 139.556 -3.76473 4.49983 0
M  V30 1549 C 141.908 -3.8117 5.04869 0
M  V30 1550 C 140.572 -3.85494 5.44932 0
M  V30 1551 H 139.842 -0.679849 0.294765 0
M  V30 1552 H 142.489 -1.3572 1.35101 0
M  V30 1553 H 140.794 -3.86536 0.640103 0
M  V30 1554 H 142.491 -3.87511 1.03132 0
M  V30 1555 H 139.081 -3.5347 2.42398 0
M  V30 1556 H 143.265 -3.61404 3.40149 0
M  V30 1557 H 138.521 -3.7808 4.80484 0
M  V30 1558 H 142.695 -3.87268 5.78789 0
M  V30 1559 H 140.322 -3.95197 6.49403 0
M  V30 1560 N 141.898 -0.863906 -1.31812 0
M  V30 1561 C 143.123 -0.48527 -2.01643 0
M  V30 1562 C 143.548 0.913058 -1.64453 0
M  V30 1563 O 142.906 1.6014 -0.849985 0
M  V30 1564 C 142.954 -0.642625 -3.54828 0
M  V30 1565 O 142.058 0.320659 -4.11151 0
M  V30 1566 H 141.399 -0.193793 -0.635091 0
M  V30 1567 H 143.929 -1.16565 -1.68148 0
M  V30 1568 H 143.939 -0.533628 -4.04495 0
M  V30 1569 H 142.614 -1.66227 -3.81237 0
M  V30 1570 H 141.191 0.167126 -3.72525 0
M  V30 1571 N 143.376 1.44774 -0.622745 0
M  V30 1572 C 144.601 2.06999 -0.128968 0
M  V30 1573 C 145.026 1.4617 1.1839 0
M  V30 1574 O 144.384 0.560007 1.72434 0
M  V30 1575 C 144.432 3.60595 -0.0188351 0
M  V30 1576 O 143.536 3.99398 1.02739 0
M  V30 1577 H 142.877 0.659047 -0.0809544 0
M  V30 1578 H 145.407 1.85784 -0.85705 0
M  V30 1579 H 145.417 4.07627 0.174476 0
M  V30 1580 H 144.092 4.04252 -0.977384 0
M  V30 1581 H 142.669 3.64011 0.809326 0
M  V30 1582 N 144.854 0.36279 1.53368 0
M  V30 1583 C 145.804 -0.501391 2.22419 0
M  V30 1584 C 146.788 -1.0509 1.2184 0
M  V30 1585 O 147.98 -0.981404 1.47301 0
M  V30 1586 C 145.109 -1.64201 3.01484 0
M  V30 1587 C 144.195 -1.10552 4.09438 0
M  V30 1588 N 144.586 -0.291788 5.04958 0
M  V30 1589 C 142.884 -1.3806 4.24094 0
M  V30 1590 C 143.585 0.00162655 5.817 0
M  V30 1591 N 142.561 -0.595244 5.40331 0
M  V30 1592 H 146.363 0.127159 2.93625 0
M  V30 1593 H 143.877 0.170658 1.61501 0
M  V30 1594 H 145.874 -2.27326 3.49469 0
M  V30 1595 H 144.534 -2.27365 2.31809 0
M  V30 1596 H 145.545 0.0687731 5.17854 0
M  V30 1597 H 142.222 -2.01522 3.65644 0
M  V30 1598 H 143.612 0.659278 6.68658 0
M  V30 1599 N 146.332 -1.57332 0.0918853 0
M  V30 1600 C 147.262 -2.16872 -0.865371 0
M  V30 1601 C 148.243 -1.10118 -1.29646 0
M  V30 1602 O 149.428 -1.38242 -1.36392 0
M  V30 1603 C 146.558 -2.74649 -2.12569 0
M  V30 1604 C 145.512 -3.86747 -1.83333 0
M  V30 1605 C 144.838 -4.31212 -3.16166 0
M  V30 1606 C 146.138 -5.10089 -1.1228 0
M  V30 1607 H 147.832 -2.97114 -0.369307 0
M  V30 1608 H 145.378 -1.42918 -0.176194 0
M  V30 1609 H 147.331 -3.14952 -2.7997 0
M  V30 1610 H 146.055 -1.91657 -2.64452 0
M  V30 1611 H 144.714 -3.46978 -1.18331 0
M  V30 1612 H 144.362 -3.45115 -3.6593 0
M  V30 1613 H 144.062 -5.06788 -2.97388 0
M  V30 1614 H 145.586 -4.74146 -3.84731 0
M  V30 1615 H 147 -5.47582 -1.69785 0
M  V30 1616 H 145.397 -5.91073 -1.03693 0
M  V30 1617 H 146.467 -4.84786 -0.105041 0
M  V30 1618 N 147.81 0.181792 -1.56548 0
M  V30 1619 C 149.221 0.745244 -1.71181 0
M  V30 1620 C 149.572 1.83262 -0.70068 0
M  V30 1621 O 148.697 2.15946 0.140154 0
M  V30 1622 C 149.292 1.35859 -3.10367 0
M  V30 1623 C 147.851 1.86898 -3.2672 0
M  V30 1624 C 146.998 0.743942 -2.67134 0
M  V30 1625 H 149.949 -0.0434661 -1.5864 0
M  V30 1626 H 149.97 2.22817 -3.08436 0
M  V30 1627 H 149.482 0.566948 -3.83937 0
M  V30 1628 H 147.583 2.68738 -2.5809 0
M  V30 1629 H 147.696 2.02162 -4.34359 0
M  V30 1630 H 146.06 1.16169 -2.26665 0
M  V30 1631 H 146.843 -0.035676 -3.43281 0
M  V30 1632 N 149.288 1.51039 0.449983 0
M  V30 1633 C 150.537 1.62317 1.19733 0
M  V30 1634 C 150.85 0.339101 1.92638 0
M  V30 1635 O 152.056 0.331069 2.69474 0
M  V30 1636 C 150.512 2.86608 2.17678 0
M  V30 1637 C 150.12 4.21972 1.50479 0
M  V30 1638 C 151.864 3.07239 2.92924 0
M  V30 1639 C 149.771 5.37426 2.46834 0
M  V30 1640 H 148.701 0.604532 0.450619 0
M  V30 1641 H 151.352 1.77494 0.465625 0
M  V30 1642 H 149.734 2.65037 2.94231 0
M  V30 1643 H 150.908 4.53878 0.795716 0
M  V30 1644 H 149.223 4.07117 0.874344 0
M  V30 1645 H 151.82 3.90668 3.65079 0
M  V30 1646 H 152.163 2.19807 3.5354 0
M  V30 1647 H 152.696 3.29091 2.23481 0
M  V30 1648 H 149.435 6.27079 1.90926 0
M  V30 1649 H 148.955 5.09912 3.15832 0
M  V30 1650 H 150.634 5.68862 3.08228 0
M  V30 1651 N 150.766 -0.704594 1.40972 0
M  V30 1652 C 151.698 -1.82974 1.38033 0
M  V30 1653 C 152.711 -1.60305 0.283931 0
M  V30 1654 O 153.9 -1.69975 0.545042 0
M  V30 1655 C 151 -3.19578 1.12795 0
M  V30 1656 C 150.173 -3.69352 2.34302 0
M  V30 1657 C 149.232 -4.84601 2.05058 0
M  V30 1658 O 148.258 -4.96682 2.7802 0
M  V30 1659 N 149.46 -5.71194 1.03528 0
M  V30 1660 H 152.225 -1.85991 2.35005 0
M  V30 1661 H 149.786 -0.886567 1.35468 0
M  V30 1662 H 151.778 -3.9429 0.911987 0
M  V30 1663 H 150.348 -3.11642 0.24452 0
M  V30 1664 H 149.568 -2.85649 2.71659 0
M  V30 1665 H 150.856 -3.99345 3.1528 0
M  V30 1666 H 150.254 -5.64054 0.431217 0
M  V30 1667 H 148.811 -6.45843 0.879205 0
M  V30 1668 N 152.244 -1.26651 -0.937939 0
M  V30 1669 C 153.174 -1.10993 -2.05433 0
M  V30 1670 C 154.155 -0.0142161 -1.70094 0
M  V30 1671 O 155.34 -0.186837 -1.93299 0
M  V30 1672 C 152.47 -0.745561 -3.39203 0
M  V30 1673 C 151.424 -1.79337 -3.88616 0
M  V30 1674 C 150.75 -1.28324 -5.19073 0
M  V30 1675 C 152.05 -3.19553 -4.13138 0
M  V30 1676 H 153.744 -2.0438 -2.1879 0
M  V30 1677 H 151.29 -0.984041 -1.05131 0
M  V30 1678 H 153.243 -0.622888 -4.16771 0
M  V30 1679 H 151.967 0.22401 -3.25831 0
M  V30 1680 H 150.626 -1.90477 -3.13231 0
M  V30 1681 H 150.274 -0.303414 -5.02084 0
M  V30 1682 H 149.974 -1.98369 -5.53103 0
M  V30 1683 H 151.498 -1.1733 -5.99221 0
M  V30 1684 H 152.912 -3.11471 -4.81309 0
M  V30 1685 H 151.309 -3.87218 -4.58457 0
M  V30 1686 H 152.379 -3.65368 -3.18801 0
M  V30 1687 N 153.722 1.14298 -1.08507 0
M  V30 1688 C 154.969 1.85359 -0.815373 0
M  V30 1689 C 155.297 1.83001 0.658865 0
M  V30 1690 O 154.552 1.25655 1.50031 0
M  V30 1691 C 154.851 3.33547 -1.28379 0
M  V30 1692 C 154.517 3.56093 -2.76602 0
M  V30 1693 C 153.179 3.61955 -3.17084 0
M  V30 1694 C 155.531 3.64834 -3.72217 0
M  V30 1695 C 152.859 3.74082 -4.51973 0
M  V30 1696 C 155.211 3.78487 -5.06883 0
M  V30 1697 C 153.875 3.82598 -5.46969 0
M  V30 1698 H 153.145 0.678276 -0.298366 0
M  V30 1699 H 155.792 1.35002 -1.35819 0
M  V30 1700 H 154.097 3.86191 -0.660593 0
M  V30 1701 H 155.794 3.86959 -1.05186 0
M  V30 1702 H 152.384 3.52179 -2.4427 0
M  V30 1703 H 156.568 3.59595 -3.42061 0
M  V30 1704 H 151.824 3.75527 -4.82483 0
M  V30 1705 H 155.998 3.84193 -5.80834 0
M  V30 1706 H 153.625 3.91747 -6.51489 0
M  V30 1707 N 155.201 0.870884 1.31352 0
M  V30 1708 C 156.612 0.534714 1.78879 0
M  V30 1709 C 156.963 -0.948423 1.71754 0
M  V30 1710 O 156.088 -1.74055 1.28584 0
M  V30 1711 C 156.683 0.963839 3.24801 0
M  V30 1712 C 155.242 0.679311 3.70219 0
M  V30 1713 C 154.389 1.15465 2.52117 0
M  V30 1714 H 157.34 1.05651 1.18421 0
M  V30 1715 H 157.361 0.286892 3.79417 0
M  V30 1716 H 156.873 2.04332 3.29955 0
M  V30 1717 H 154.974 -0.388769 3.70566 0
M  V30 1718 H 155.087 1.25698 4.62317 0
M  V30 1719 H 153.451 0.574383 2.48139 0
M  V30 1720 H 154.234 2.24157 2.60016 0
M  V30 1721 N 156.679 -1.44442 0.630414 0
M  V30 1722 C 157.626 -2.30678 -0.0749355 0
M  V30 1723 C 158.596 -1.4344 -0.837502 0
M  V30 1724 O 159.781 -1.72343 -0.818684 0
M  V30 1725 C 156.921 -3.28706 -1.05103 0
M  V30 1726 C 156.034 -4.31046 -0.286954 0
M  V30 1727 C 155.169 -5.16167 -1.2548 0
M  V30 1728 C 154.208 -6.10216 -0.479843 0
M  V30 1729 N 153.345 -6.88039 -1.39811 0
M  V30 1730 H 158.185 -2.90454 0.666386 0
M  V30 1731 H 155.722 -1.43107 0.340404 0
M  V30 1732 H 157.68 -3.84027 -1.63031 0
M  V30 1733 H 156.31 -2.70632 -1.75949 0
M  V30 1734 H 155.362 -3.78203 0.408243 0
M  V30 1735 H 156.674 -4.97794 0.316657 0
M  V30 1736 H 155.828 -5.76002 -1.90544 0
M  V30 1737 H 154.567 -4.49491 -1.89233 0
M  V30 1738 H 153.572 -5.49491 0.184295 0
M  V30 1739 H 154.797 -6.78928 0.152965 0
M  V30 1740 H 152.743 -6.24032 -2.02287 0
M  V30 1741 H 152.66 -7.51223 -0.848508 0
M  V30 1742 H 153.928 -7.52397 -2.03762 0
M  V30 1743 N 158.157 -0.370918 -1.53173 0
M  V30 1744 C 159.382 0.220293 -2.06227 0
M  V30 1745 C 159.807 1.41243 -1.24225 0
M  V30 1746 O 159.165 1.79387 -0.262645 0
M  V30 1747 C 159.213 0.586663 -3.55796 0
M  V30 1748 O 158.317 1.68317 -3.76488 0
M  V30 1749 H 157.658 0.0308099 -0.663285 0
M  V30 1750 H 160.188 -0.533068 -1.97534 0
M  V30 1751 H 160.198 0.85617 -3.98916 0
M  V30 1752 H 158.873 -0.285013 -4.14922 0
M  V30 1753 H 157.45 1.40881 -3.45264 0
M  V30 1754 N 159.635 1.57281 -0.100228 0
M  V30 1755 C 160.882 1.94537 0.562268 0
M  V30 1756 C 161.21 0.982315 1.67871 0
M  V30 1757 O 160.465 0.00280936 1.957 0
M  V30 1758 C 160.764 3.38305 1.15259 0
M  V30 1759 C 160.43 4.50618 0.159409 0
M  V30 1760 C 159.092 4.81066 -0.113741 0
M  V30 1761 C 161.444 5.18615 -0.518461 0
M  V30 1762 C 158.772 5.76835 -1.07137 0
M  V30 1763 C 161.124 6.15412 -1.46459 0
M  V30 1764 C 159.788 6.44262 -1.74592 0
M  V30 1765 H 159.058 0.711863 0.205748 0
M  V30 1766 H 161.705 1.90679 -0.17715 0
M  V30 1767 H 160.01 3.38766 1.96836 0
M  V30 1768 H 161.707 3.64435 1.67297 0
M  V30 1769 H 158.297 4.2689 0.382491 0
M  V30 1770 H 162.481 4.95264 -0.320581 0
M  V30 1771 H 157.737 5.975 -1.29628 0
M  V30 1772 H 161.911 6.67194 -1.99564 0
M  V30 1773 H 159.538 7.1828 -2.48953 0
M  V30 1774 N 161.113 -0.173488 1.56642 0
M  V30 1775 C 162.36 -0.890465 1.81871 0
M  V30 1776 C 162.688 -1.82339 0.67696 0
M  V30 1777 O 161.943 -1.92795 -0.335926 0
M  V30 1778 C 162.242 -1.72069 3.13252 0
M  V30 1779 C 161.908 -0.936878 4.41059 0
M  V30 1780 C 160.57 -0.720545 4.75775 0
M  V30 1781 C 162.922 -0.386919 5.19762 0
M  V30 1782 C 160.25 0.0568829 5.86672 0
M  V30 1783 C 162.602 0.37741 6.31473 0
M  V30 1784 C 161.266 0.604563 6.64757 0
M  V30 1785 H 160.536 -0.325844 0.665512 0
M  V30 1786 H 163.183 -0.155527 1.90867 0
M  V30 1787 H 161.488 -2.52496 2.99588 0
M  V30 1788 H 163.185 -2.27844 3.29982 0
M  V30 1789 H 159.775 -1.11553 4.13828 0
M  V30 1790 H 163.959 -0.541398 4.93338 0
M  V30 1791 H 159.215 0.242635 6.10918 0
M  V30 1792 H 163.389 0.810825 6.91664 0
M  V30 1793 H 161.016 1.20885 7.50527 0
M  V30 1794 N 162.591 -1.51276 -0.441967 0
M  V30 1795 C 163.816 -1.67799 -1.21895 0
M  V30 1796 C 164.241 -0.372864 -1.84367 0
M  V30 1797 O 163.599 0.666501 -1.68604 0
M  V30 1798 C 163.647 -2.79199 -2.28211 0
M  V30 1799 O 162.751 -2.42479 -3.33583 0
M  V30 1800 H 162.092 -0.559649 -0.357336 0
M  V30 1801 H 164.622 -1.97815 -0.522522 0
M  V30 1802 H 164.632 -3.03146 -2.73069 0
M  V30 1803 H 163.307 -3.73906 -1.82118 0
M  V30 1804 H 161.884 -2.29087 -2.94234 0
M  V30 1805 N 164.069 0.697108 -1.41344 0
M  V30 1806 C 165.294 1.49096 -1.44171 0
M  V30 1807 C 165.719 1.88038 -0.0481568 0
M  V30 1808 O 165.077 1.54525 0.948243 0
M  V30 1809 C 165.125 2.73088 -2.3549 0
M  V30 1810 O 164.229 3.70514 -1.81088 0
M  V30 1811 H 163.57 0.448801 -0.489361 0
M  V30 1812 H 166.1 0.856992 -1.85787 0
M  V30 1813 H 166.11 3.21413 -2.51312 0
M  V30 1814 H 164.785 2.44081 -3.36745 0
M  V30 1815 H 163.362 3.29441 -1.74708 0
M  V30 1816 N 165.547 1.27147 0.931209 0
M  V30 1817 C 166.494 1.09568 2.03134 0
M  V30 1818 C 167.464 -0.00222433 1.661 0
M  V30 1819 O 168.649 0.159439 1.90133 0
M  V30 1820 C 165.789 0.745231 3.36957 0
M  V30 1821 C 164.902 1.92041 3.86968 0
M  V30 1822 C 164.037 1.51216 5.09222 0
M  V30 1823 C 163.076 2.65504 5.5152 0
M  V30 1824 N 162.213 2.25291 6.64972 0
M  V30 1825 H 167.053 2.03708 2.17502 0
M  V30 1826 H 164.59 1.01411 1.06556 0
M  V30 1827 H 166.548 0.522878 4.1391 0
M  V30 1828 H 165.178 -0.159202 3.22407 0
M  V30 1829 H 164.23 2.25541 3.06326 0
M  V30 1830 H 165.542 2.77787 4.1429 0
M  V30 1831 H 164.696 1.25084 5.93666 0
M  V30 1832 H 163.435 0.625749 4.83669 0
M  V30 1833 H 162.44 2.92354 4.65628 0
M  V30 1834 H 163.665 3.54761 5.7907 0
M  V30 1835 H 161.611 1.39098 6.41083 0
M  V30 1836 H 161.528 3.04577 6.91931 0
M  V30 1837 H 162.796 2.02398 7.52765 0
M  V30 1838 N 167.025 -1.13721 1.09112 0
M  V30 1839 C 167.988 -2.17222 0.731241 0
M  V30 1840 C 168.988 -1.59035 -0.237566 0
M  V30 1841 O 170.178 -1.74192 -0.0161704 0
M  V30 1842 C 167.31 -3.40804 0.0808443 0
M  V30 1843 H 168.503 -2.50573 1.64783 0
M  V30 1844 H 166.056 -1.28493 0.889897 0
M  V30 1845 H 166.791 -3.1304 -0.847127 0
M  V30 1846 H 166.576 -3.84306 0.777896 0
M  V30 1847 H 168.066 -4.1731 -0.155657 0
M  V30 1848 N 168.503 -0.877838 -1.30888 0
M  V30 1849 C 169.45 -0.337538 -2.28318 0
M  V30 1850 C 170.42 0.568346 -1.56074 0
M  V30 1851 O 171.605 0.498298 -1.84178 0
M  V30 1852 C 168.745 0.448142 -3.42178 0
M  V30 1853 C 167.858 -0.48615 -4.29256 0
M  V30 1854 C 166.993 0.314427 -5.30269 0
M  V30 1855 C 166.032 -0.615791 -6.08995 0
M  V30 1856 N 165.169 0.14902 -7.01942 0
M  V30 1857 H 170.009 -1.17356 -2.73919 0
M  V30 1858 H 167.546 -0.590094 -1.34745 0
M  V30 1859 H 169.504 0.919517 -4.06941 0
M  V30 1860 H 168.134 1.24879 -2.97666 0
M  V30 1861 H 167.186 -1.076 -3.64865 0
M  V30 1862 H 168.498 -1.19909 -4.84173 0
M  V30 1863 H 167.652 0.847969 -6.00745 0
M  V30 1864 H 166.391 1.06062 -4.76027 0
M  V30 1865 H 165.396 -1.16102 -5.37401 0
M  V30 1866 H 166.621 -1.36097 -6.65323 0
M  V30 1867 H 164.567 0.877884 -6.50099 0
M  V30 1868 H 164.484 -0.504433 -7.54315 0
M  V30 1869 H 165.752 0.663537 -7.76671 0
M  V30 1870 N 169.982 1.44106 -0.638065 0
M  V30 1871 C 171.228 2.02277 -0.145546 0
M  V30 1872 C 171.561 1.50125 1.23191 0
M  V30 1873 O 170.836 0.688133 1.8192 0
M  V30 1874 C 171.119 3.59829 -0.139791 0
M  V30 1875 C 170.972 4.22247 -1.55008 0
M  V30 1876 C 172.291 4.36873 0.531966 0
M  V30 1877 H 169.41 0.734992 -0.0543632 0
M  V30 1878 H 172.052 1.71592 -0.815863 0
M  V30 1879 H 170.202 3.86102 0.431007 0
M  V30 1880 H 171.874 4.07057 -2.1703 0
M  V30 1881 H 170.117 3.79476 -2.10191 0
M  V30 1882 H 170.788 5.31284 -1.49804 0
M  V30 1883 H 173.264 4.16074 0.0464781 0
M  V30 1884 H 172.14 5.4657 0.505206 0
M  V30 1885 H 172.401 4.11995 1.60352 0
M  V30 1886 N 171.46 0.379036 1.52974 0
M  V30 1887 C 172.709 -0.207612 2.00629 0
M  V30 1888 C 173.022 -1.48758 1.27006 0
M  V30 1889 O 174.228 -2.15365 1.65318 0
M  V30 1890 C 172.684 -0.42053 3.57435 0
M  V30 1891 C 172.292 0.845587 4.39948 0
M  V30 1892 C 174.036 -0.964102 4.13407 0
M  V30 1893 C 171.943 0.601513 5.88333 0
M  V30 1894 H 170.873 -0.0813591 0.749598 0
M  V30 1895 H 173.524 0.499853 1.76561 0
M  V30 1896 H 171.906 -1.18959 3.7771 0
M  V30 1897 H 173.08 1.61848 4.31442 0
M  V30 1898 H 171.395 1.31336 3.95145 0
M  V30 1899 H 173.992 -1.16225 5.21916 0
M  V30 1900 H 174.335 -1.93019 3.68849 0
M  V30 1901 H 174.868 -0.25487 3.96983 0
M  V30 1902 H 171.607 1.53831 6.37194 0
M  V30 1903 H 171.127 -0.132628 5.99653 0
M  V30 1904 H 172.806 0.232134 6.46583 0
M  V30 1905 N 172.938 -1.57226 0.108567 0
M  V30 1906 C 174.168 -1.9889 -0.559142 0
M  V30 1907 C 174.576 -0.986889 -1.61422 0
M  V30 1908 O 173.919 0.0298705 -1.83676 0
M  V30 1909 C 173.981 -3.36952 -1.25315 0
M  V30 1910 C 173.645 -4.55679 -0.347248 0
M  V30 1911 C 174.642 -5.18281 0.409996 0
M  V30 1912 C 172.327 -5.0162 -0.261367 0
M  V30 1913 C 174.321 -6.25203 1.24096 0
M  V30 1914 C 172.008 -6.08405 0.573238 0
M  V30 1915 C 173.006 -6.70063 1.32304 0
M  V30 1916 O 172.694 -7.74788 2.14381 0
M  V30 1917 H 172.426 -0.658343 -0.153492 0
M  V30 1918 H 174.98 -2.04532 0.188584 0
M  V30 1919 H 173.21 -3.28032 -2.04773 0
M  V30 1920 H 174.899 -3.62974 -1.81673 0
M  V30 1921 H 175.665 -4.8371 0.353457 0
M  V30 1922 H 171.544 -4.53381 -0.834656 0
M  V30 1923 H 175.088 -6.73259 1.82669 0
M  V30 1924 H 170.985 -6.42406 0.631208 0
M  V30 1925 H 171.753 -7.91837 2.07209 0
M  V30 1926 N 174.416 0.165178 -1.56732 0
M  V30 1927 C 175.346 1.20651 -1.99914 0
M  V30 1928 C 176.327 1.45827 -0.875705 0
M  V30 1929 O 177.512 1.57057 -1.14223 0
M  V30 1930 C 174.642 2.54401 -2.36427 0
M  V30 1931 C 173.596 2.43782 -3.51787 0
M  V30 1932 C 172.922 3.82078 -3.7406 0
M  V30 1933 C 174.222 1.93732 -4.85041 0
M  V30 1934 H 175.916 0.847534 -2.87154 0
M  V30 1935 H 173.462 0.40625 -1.38151 0
M  V30 1936 H 175.415 3.27458 -2.65234 0
M  V30 1937 H 174.139 2.92098 -1.46103 0
M  V30 1938 H 172.798 1.73178 -3.23117 0
M  V30 1939 H 172.446 4.17179 -2.81017 0
M  V30 1940 H 172.146 3.7584 -4.51684 0
M  V30 1941 H 173.67 4.56712 -4.05274 0
M  V30 1942 H 175.084 2.56569 -5.12684 0
M  V30 1943 H 173.481 1.98428 -5.66345 0
M  V30 1944 H 174.551 0.891962 -4.76626 0
M  V30 1945 N 175.894 1.51508 0.433938 0
M  V30 1946 C 176.827 1.67756 1.54704 0
M  V30 1947 C 177.805 0.525127 1.53887 0
M  V30 1948 O 178.989 0.749393 1.72963 0
M  V30 1949 C 176.116 1.69424 2.9328 0
M  V30 1950 C 175.162 2.90673 3.12108 0
M  V30 1951 S 175.995 4.51431 2.88046 0
M  V30 1952 C 177.151 4.55849 4.28897 0
M  V30 1953 H 177.384 2.61904 1.40689 0
M  V30 1954 H 174.917 1.41235 0.62386 0
M  V30 1955 H 176.875 1.7107 3.73156 0
M  V30 1956 H 175.536 0.764464 3.04655 0
M  V30 1957 H 174.729 2.88251 4.13434 0
M  V30 1958 H 174.331 2.86786 2.40062 0
M  V30 1959 H 176.623 4.31699 5.22152 0
M  V30 1960 H 177.566 5.57676 4.36351 0
M  V30 1961 H 177.974 3.85137 4.12711 0
M  V30 1962 N 177.372 -0.689602 1.41712 0
M  V30 1963 C 178.788 -1.00093 1.24312 0
M  V30 1964 C 178.988 -2.01036 0.136729 0
M  V30 1965 O 178.044 -2.47562 -0.496918 0
M  V30 1966 C 179.357 -1.51985 2.59463 0
M  V30 1967 C 180.905 -1.63838 2.66695 0
M  V30 1968 C 181.38 -2.1913 4.02177 0
M  V30 1969 N 182.871 -2.26483 4.04054 0
M  V30 1970 C 183.606 -2.70306 5.0569 0
M  V30 1971 N 183.102 -3.13691 6.17713 0
M  V30 1972 N 184.895 -2.69923 4.9305 0
M  V30 1973 H 177.046 -0.0210029 2.1239 0
M  V30 1974 H 179.309 -0.0718733 0.945272 0
M  V30 1975 H 179.015 -0.85269 3.41207 0
M  V30 1976 H 178.889 -2.50103 2.82362 0
M  V30 1977 H 181.276 -2.29664 1.85306 0
M  V30 1978 H 181.357 -0.642492 2.476 0
M  V30 1979 H 181.001 -1.53918 4.84016 0
M  V30 1980 H 180.931 -3.19482 4.18615 0
M  V30 1981 H 183.422 -1.95874 3.23174 0
M  V30 1982 H 183.735 -3.45773 6.9113 0
M  V30 1983 H 182.08 -3.11585 6.21241 0
M  V30 1984 H 185.271 -2.35382 4.04614 0
M  V30 1985 H 185.444 -3.03758 5.72394 0
M  V30 1986 N 178.85 -1.27639 -0.924453 0
M  V30 1987 C 179.798 -1.10485 -2.04685 0
M  V30 1988 C 180.792 -0.0270421 -1.69378 0
M  V30 1989 O 181.998 -0.185008 -1.79047 0
M  V30 1990 H 178.373 -0.340546 -0.670472 0
M  V30 1991 H 180.344 -2.05566 -2.16298 0
M  V30 1992 C 179.093 -0.772229 -3.39016 0
M  V30 1993 H 178.416 -1.59351 -3.66671 0
M  V30 1994 H 179.856 -0.692097 -4.18313 0
M  V30 1995 C 178.315 0.523554 -3.32807 0
M  V30 1996 O 178.845 1.55702 -3.70297 0
M  V30 1997 N 177.051 0.520363 -2.85903 0
M  V30 1998 H 176.598 -0.32107 -2.55591 0
M  V30 1999 H 176.556 1.38742 -2.82131 0
M  V30 2000 N 180.328 1.1314 -1.09713 0
M  V30 2001 C 181.739 1.66029 -0.853885 0
M  V30 2002 C 182.09 1.86241 0.617142 0
M  V30 2003 O 181.215 1.5834 1.47503 0
M  V30 2004 C 181.81 3.01599 -1.5435 0
M  V30 2005 C 180.369 3.51467 -1.34714 0
M  V30 2006 C 179.516 2.26648 -1.59769 0
M  V30 2007 H 182.467 0.970226 -1.25588 0
M  V30 2008 H 182.488 3.67709 -0.978267 0
M  V30 2009 H 182 2.86856 -2.6141 0
M  V30 2010 H 180.101 3.71408 -0.297838 0
M  V30 2011 H 180.214 4.314 -2.08401 0
M  V30 2012 H 178.578 2.33385 -1.01998 0
M  V30 2013 H 179.361 2.14467 -2.68065 0
M  V30 2014 N 181.806 0.884767 1.30421 0
M  V30 2015 C 183.222 0.57874 1.48737 0
M  V30 2016 C 183.422 -0.883567 1.81095 0
M  V30 2017 O 182.478 -1.6648 1.89844 0
M  V30 2018 C 183.791 1.49171 2.61091 0
M  V30 2019 C 185.339 1.49532 2.74971 0
M  V30 2020 C 185.814 2.39421 3.90438 0
M  V30 2021 N 187.305 2.37383 3.97748 0
M  V30 2022 C 188.04 3.03647 4.86401 0
M  V30 2023 N 187.536 3.79136 5.79852 0
M  V30 2024 N 189.329 2.9288 4.79768 0
M  V30 2025 H 181.48 1.83075 1.0769 0
M  V30 2026 H 183.743 0.783637 0.533495 0
M  V30 2027 H 183.449 2.53291 2.44001 0
M  V30 2028 H 183.323 1.20113 3.57565 0
M  V30 2029 H 185.71 0.46163 2.91467 0
M  V30 2030 H 185.791 1.8262 1.79119 0
M  V30 2031 H 185.435 3.42874 3.74699 0
M  V30 2032 H 185.365 2.03649 4.85628 0
M  V30 2033 H 187.856 1.82525 3.30897 0
M  V30 2034 H 188.169 4.26789 6.4426 0
M  V30 2035 H 186.514 3.83243 5.79784 0
M  V30 2036 H 189.705 2.33433 4.05742 0
M  V30 2037 H 189.878 3.448 5.4865 0
M  V30 2038 N 183.284 -1.43765 0.645699 0
M  V30 2039 C 184.561 -1.9541 0.0862963 0
M  V30 2040 C 184.941 -1.58725 -1.39175 0
M  V30 2041 O 184.289 -0.868581 -2.11348 0
M  V30 2042 C 184.499 -3.47488 0.324565 0
M  V30 2043 C 185.847 -4.24001 0.225497 0
M  V30 2044 O 186.871 -3.55274 0.256715 0
M  V30 2045 O 185.73 -5.46313 0.142801 0
M  V30 2046 H 182.824 -0.826882 -0.0139483 0
M  V30 2047 H 185.37 -1.53743 0.718415 0
M  V30 2048 H 184.142 -3.67289 1.3496 0
M  V30 2049 H 183.765 -3.96135 -0.340987 0
M  V30 2050 N 184.763 -0.387143 -1.52771 0
M  V30 2051 C 186.009 0.196025 -2.0185 0
M  V30 2052 C 186.342 1.46641 -1.27319 0
M  V30 2053 O 185.617 1.90889 -0.373032 0
M  V30 2054 C 185.9 0.466136 -3.5707 0
M  V30 2055 C 185.753 -0.819385 -4.42274 0
M  V30 2056 C 187.072 1.25768 -4.21747 0
M  V30 2057 H 184.191 0.0697708 -0.73369 0
M  V30 2058 H 186.833 -0.516286 -1.82851 0
M  V30 2059 H 184.983 1.07293 -3.7339 0
M  V30 2060 H 186.655 -1.4563 -4.37709 0
M  V30 2061 H 184.898 -1.43517 -4.09372 0
M  V30 2062 H 185.569 -0.585065 -5.48891 0
M  V30 2063 H 188.045 0.744167 -4.09391 0
M  V30 2064 H 186.921 1.41541 -5.30337 0
M  V30 2065 H 187.182 2.27228 -3.79236 0
M  V30 2066 N 186.241 1.57166 -0.116904 0
M  V30 2067 C 187.171 2.18222 0.830759 0
M  V30 2068 C 188.152 1.12167 1.27877 0
M  V30 2069 O 189.337 1.40394 1.34176 0
M  V30 2070 C 186.467 2.77996 2.08172 0
M  V30 2071 C 185.421 3.89614 1.77157 0
M  V30 2072 C 184.747 4.36187 3.09265 0
M  V30 2073 C 186.047 5.1181 1.04151 0
M  V30 2074 H 187.741 2.97664 0.321992 0
M  V30 2075 H 185.287 1.4318 0.153434 0
M  V30 2076 H 187.24 3.19366 2.74924 0
M  V30 2077 H 185.964 1.9584 2.6137 0
M  V30 2078 H 184.623 3.48816 1.12796 0
M  V30 2079 H 184.271 3.50893 3.60393 0
M  V30 2080 H 183.971 5.11455 2.89288 0
M  V30 2081 H 185.495 4.80207 3.77139 0
M  V30 2082 H 186.909 5.50214 1.61052 0
M  V30 2083 H 185.306 5.92648 0.942762 0
M  V30 2084 H 186.376 4.84892 0.0279022 0
M  V30 2085 N 187.719 -0.156864 1.56817 0
M  V30 2086 C 188.965 -0.872416 1.83076 0
M  V30 2087 C 189.298 -1.81261 0.697001 0
M  V30 2088 O 188.573 -1.92171 -0.30008 0
M  V30 2089 C 188.856 -1.65551 3.19789 0
M  V30 2090 C 188.709 -0.737467 4.43713 0
M  V30 2091 C 190.028 -2.62012 3.53606 0
M  V30 2092 H 187.147 -0.315715 0.665953 0
M  V30 2093 H 189.789 -0.138004 1.89498 0
M  V30 2094 H 187.939 -2.28159 3.14445 0
M  V30 2095 H 189.611 -0.123143 4.61136 0
M  V30 2096 H 187.854 -0.0464067 4.33775 0
M  V30 2097 H 188.525 -1.32122 5.35955 0
M  V30 2098 H 191.001 -2.09525 3.59497 0
M  V30 2099 H 189.877 -3.13861 4.50314 0
M  V30 2100 H 190.138 -3.42902 2.79053 0
M  V30 2101 N 189.197 -1.51736 -0.425897 0
M  V30 2102 C 190.422 -1.69082 -1.20108 0
M  V30 2103 C 190.847 -0.392398 -1.83962 0
M  V30 2104 O 190.205 0.64858 -1.69302 0
M  V30 2105 C 190.253 -2.81604 -2.25237 0
M  V30 2106 O 189.357 -2.46004 -3.30992 0
M  V30 2107 H 188.698 -0.563408 -0.35138 0
M  V30 2108 H 191.228 -1.98358 -0.501512 0
M  V30 2109 H 191.238 -3.06025 -2.69838 0
M  V30 2110 H 189.913 -3.75817 -1.78142 0
M  V30 2111 H 188.49 -2.32195 -2.91787 0
M  V30 2112 N 190.675 0.682077 -1.42076 0
M  V30 2113 C 191.923 1.4393 -1.41876 0
M  V30 2114 C 192.244 1.94971 -0.0335599 0
M  V30 2115 O 191.514 1.72591 0.926773 0
M  V30 2116 H 190.094 0.534085 -0.522267 0
M  V30 2117 H 192.756 0.806427 -1.77434 0
M  V30 2118 H 191.852 2.29588 -2.11414 0
M  V30 2119 N 192.153 1.28127 0.917671 0
M  V30 2120 C 193.383 1.17722 1.6978 0
M  V30 2121 C 193.791 -0.267261 1.87303 0
M  V30 2122 O 193.134 -1.19286 1.39702 0
M  V30 2123 C 193.196 1.79958 3.11216 0
M  V30 2124 C 192.86 3.29187 3.16993 0
M  V30 2125 C 193.857 4.25679 2.98485 0
M  V30 2126 C 191.542 3.70075 3.39632 0
M  V30 2127 C 193.536 5.61035 3.02521 0
M  V30 2128 C 191.223 5.05557 3.433 0
M  V30 2129 C 192.221 6.00847 3.24764 0
M  V30 2130 O 191.909 7.33859 3.28187 0
M  V30 2131 H 191.641 0.409788 0.537634 0
M  V30 2132 H 194.195 1.69694 1.15728 0
M  V30 2133 H 192.425 1.22475 3.66793 0
M  V30 2134 H 194.114 1.64125 3.71238 0
M  V30 2135 H 194.88 3.95426 2.80826 0
M  V30 2136 H 190.759 2.96373 3.53106 0
M  V30 2137 H 194.303 6.35388 2.87971 0
M  V30 2138 H 190.2 5.35462 3.60486 0
M  V30 2139 H 190.968 7.42436 3.44575 0
M  V30 2140 N 193.631 -1.12557 1.10312 0
M  V30 2141 C 194.878 -1.84038 0.844759 0
M  V30 2142 C 195.206 -1.84026 -0.629668 0
M  V30 2143 O 194.461 -1.28026 -1.48013 0
M  V30 2144 C 194.76 -3.31462 1.33669 0
M  V30 2145 C 194.426 -3.51647 2.82232 0
M  V30 2146 C 193.088 -3.56864 3.22802 0
M  V30 2147 C 195.44 -3.58867 3.77974 0
M  V30 2148 C 192.768 -3.66844 4.57867 0
M  V30 2149 C 195.12 -3.70375 5.1284 0
M  V30 2150 C 193.784 -3.73848 5.52986 0
M  V30 2151 H 193.054 -0.673444 0.309119 0
M  V30 2152 H 195.701 -1.32824 1.37949 0
M  V30 2153 H 194.006 -3.85091 0.721949 0
M  V30 2154 H 195.703 -3.85236 1.11329 0
M  V30 2155 H 192.293 -3.48249 2.49842 0
M  V30 2156 H 196.477 -3.54107 3.47738 0
M  V30 2157 H 191.733 -3.67804 4.88396 0
M  V30 2158 H 195.907 -3.74904 5.86873 0
M  V30 2159 H 193.534 -3.81333 6.57639 0
M  V30 2160 N 195.109 -0.891671 -1.2995 0
M  V30 2161 C 196.356 -0.513501 -1.95881 0
M  V30 2162 C 196.684 0.938655 -1.70351 0
M  V30 2163 O 195.939 1.67936 -1.00478 0
M  V30 2164 C 196.238 -0.742868 -3.49594 0
M  V30 2165 C 195.904 -2.17114 -3.95186 0
M  V30 2166 C 194.566 -2.56169 -4.07346 0
M  V30 2167 C 196.918 -3.10162 -4.18866 0
M  V30 2168 C 194.246 -3.87469 -4.4055 0
M  V30 2169 C 196.598 -4.41001 -4.53542 0
M  V30 2170 C 195.262 -4.79941 -4.63911 0
M  V30 2171 H 194.532 -0.187903 -0.71678 0
M  V30 2172 H 197.179 -1.1288 -1.54694 0
M  V30 2173 H 195.484 -0.044586 -3.91775 0
M  V30 2174 H 197.181 -0.429767 -3.9869 0
M  V30 2175 H 193.771 -1.85801 -3.86233 0
M  V30 2176 H 197.955 -2.81206 -4.08946 0
M  V30 2177 H 193.211 -4.17371 -4.46779 0
M  V30 2178 H 197.385 -5.13133 -4.70815 0
M  V30 2179 H 195.012 -5.81719 -4.89395 0
M  V30 2180 N 196.587 1.43421 -0.653314 0
M  V30 2181 C 197.833 2.02641 -0.175593 0
M  V30 2182 C 198.188 1.5062 1.19713 0
M  V30 2183 O 197.481 0.689697 1.78756 0
M  V30 2184 C 197.675 3.57176 -0.126623 0
M  V30 2185 C 197.504 4.24191 -1.49306 0
M  V30 2186 C 196.274 4.60257 -2.08547 0
M  V30 2187 C 198.472 4.53193 -2.43148 0
M  V30 2188 N 196.454 5.12345 -3.38194 0
M  V30 2189 C 197.825 5.06601 -3.57429 0
M  V30 2190 C 199.88 4.35161 -2.41949 0
M  V30 2191 C 198.583 5.43875 -4.70736 0
M  V30 2192 C 200.609 4.73498 -3.54336 0
M  V30 2193 C 199.971 5.27039 -4.67343 0
M  V30 2194 H 196.07 0.77441 -0.108686 0
M  V30 2195 H 198.654 1.74596 -0.861638 0
M  V30 2196 H 196.825 3.84784 0.528766 0
M  V30 2197 H 198.557 4.03078 0.36198 0
M  V30 2198 H 195.312 4.45302 -1.61255 0
M  V30 2199 H 195.736 5.42842 -4.04538 0
M  V30 2200 H 200.378 3.9304 -1.55818 0
M  V30 2201 H 198.096 5.8494 -5.57558 0
M  V30 2202 H 201.682 4.61241 -3.5461 0
M  V30 2203 H 200.562 5.56153 -5.52868 0
M  V30 2204 N 198.065 0.39524 1.52563 0
M  V30 2205 C 199.012 -0.437036 2.26624 0
M  V30 2206 C 199.982 -1.05281 1.28472 0
M  V30 2207 O 201.167 -1.07971 1.57311 0
M  V30 2208 C 198.307 -1.55524 3.08069 0
M  V30 2209 C 197.42 -0.961745 4.21158 0
M  V30 2210 C 196.555 -2.05149 4.89987 0
M  V30 2211 C 195.594 -1.4342 5.95061 0
M  V30 2212 N 194.731 -2.46351 6.57462 0
M  V30 2213 H 199.571 0.200976 2.97322 0
M  V30 2214 H 197.108 0.110944 1.46681 0
M  V30 2215 H 199.066 -2.21437 3.53584 0
M  V30 2216 H 197.696 -2.16348 2.3957 0
M  V30 2217 H 196.748 -0.192048 3.79915 0
M  V30 2218 H 198.06 -0.470701 4.96574 0
M  V30 2219 H 197.214 -2.78819 5.38837 0
M  V30 2220 H 195.953 -2.57615 4.14109 0
M  V30 2221 H 194.958 -0.682774 5.45544 0
M  V30 2222 H 196.183 -0.917416 6.72875 0
M  V30 2223 H 194.129 -2.97975 5.8442 0
M  V30 2224 H 194.046 -2.02019 7.28508 0
M  V30 2225 H 195.314 -3.19633 7.10954 0
M  V30 2226 N 199.544 -1.57102 0.125237 0
M  V30 2227 C 200.492 -2.16905 -0.839927 0
M  V30 2228 C 201.486 -1.11998 -1.27094 0
M  V30 2229 O 202.692 -1.3029 -1.24195 0
M  V30 2230 H 199.067 -0.694252 -0.288995 0
M  V30 2231 H 201.038 -2.96774 -0.311115 0
M  V30 2232 C 199.787 -2.78795 -2.07771 0
M  V30 2233 H 199.11 -3.59221 -1.755 0
M  V30 2234 H 200.55 -3.2417 -2.73295 0
M  V30 2235 C 199.009 -1.76193 -2.87155 0
M  V30 2236 O 199.539 -1.21909 -3.82755 0
M  V30 2237 N 197.745 -1.45991 -2.51267 0
M  V30 2238 H 197.292 -1.90325 -1.73592 0
M  V30 2239 H 197.25 -0.775844 -3.04677 0
M  V30 2240 N 201.022 0.148545 -1.56898 0
M  V30 2241 C 201.955 1.21293 -1.93296 0
M  V30 2242 C 202.933 1.41637 -0.798599 0
M  V30 2243 O 204.117 1.56275 -1.05406 0
M  V30 2244 C 201.244 2.5721 -2.20365 0
M  V30 2245 C 200.29 2.53469 -3.4301 0
M  V30 2246 S 201.123 2.00315 -4.96623 0
M  V30 2247 C 202.279 3.37964 -5.26812 0
M  V30 2248 H 202.512 0.902393 -2.83274 0
M  V30 2249 H 200.045 0.354094 -1.50285 0
M  V30 2250 H 202.003 3.35427 -2.36641 0
M  V30 2251 H 200.664 2.85454 -1.31054 0
M  V30 2252 H 199.857 3.53518 -3.59223 0
M  V30 2253 H 199.459 1.83359 -3.25968 0
M  V30 2254 H 201.751 4.34066 -5.20185 0
M  V30 2255 H 202.694 3.26606 -6.28279 0
M  V30 2256 H 203.102 3.35028 -4.54331 0
M  V30 2257 N 202.5 1.5196 0.417844 0
M  V30 2258 C 203.447 1.74678 1.50852 0
M  V30 2259 C 204.417 0.588947 1.55308 0
M  V30 2260 O 205.602 0.825544 1.72016 0
M  V30 2261 C 202.742 1.89544 2.88387 0
M  V30 2262 C 201.855 3.17166 2.93309 0
M  V30 2263 C 200.99 3.22513 4.22088 0
M  V30 2264 C 200.029 4.44372 4.20951 0
M  V30 2265 N 199.166 4.47161 5.41287 0
M  V30 2266 H 204.006 2.67768 1.30783 0
M  V30 2267 H 201.543 1.32689 0.63498 0
M  V30 2268 H 203.501 1.96146 3.68216 0
M  V30 2269 H 202.131 0.998424 3.06971 0
M  V30 2270 H 201.183 3.19778 2.06024 0
M  V30 2271 H 202.495 4.07021 2.88332 0
M  V30 2272 H 201.649 3.28139 5.10303 0
M  V30 2273 H 200.388 2.30581 4.29748 0
M  V30 2274 H 199.393 4.38902 3.31127 0
M  V30 2275 H 200.618 5.3759 4.14938 0
M  V30 2276 H 198.564 3.58108 5.49632 0
M  V30 2277 H 198.481 5.3085 5.3827 0
M  V30 2278 H 199.749 4.57005 6.3148 0
M  V30 2279 N 203.978 -0.674533 1.42435 0
M  V30 2280 C 205.225 -1.43459 1.42919 0
M  V30 2281 C 205.553 -1.94446 0.0457312 0
M  V30 2282 O 204.808 -1.7132 -0.94593 0
M  V30 2283 C 205.107 -2.64767 2.40069 0
M  V30 2284 C 204.773 -2.3232 3.86443 0
M  V30 2285 C 203.435 -2.23182 4.26314 0
M  V30 2286 C 205.787 -2.05977 4.78773 0
M  V30 2287 C 203.115 -1.85827 5.56494 0
M  V30 2288 C 205.467 -1.70125 6.09295 0
M  V30 2289 C 204.131 -1.59498 6.48164 0
M  V30 2290 H 203.401 -0.524952 0.522978 0
M  V30 2291 H 206.048 -0.769097 1.75377 0
M  V30 2292 H 204.353 -3.36349 2.00939 0
M  V30 2293 H 206.05 -3.22949 2.37707 0
M  V30 2294 H 202.64 -2.40334 3.54877 0
M  V30 2295 H 206.824 -2.11969 4.48757 0
M  V30 2296 H 202.08 -1.76168 5.8547 0
M  V30 2297 H 206.254 -1.48767 6.80324 0
M  V30 2298 H 203.881 -1.30322 7.48946 0
M  V30 2299 N 205.456 -1.28612 -0.910864 0
M  V30 2300 C 206.705 -1.15311 -1.65488 0
M  V30 2301 C 207.018 0.296999 -1.93332 0
M  V30 2302 O 208.224 0.551168 -2.65847 0
M  V30 2303 C 206.68 -2.01599 -2.98137 0
M  V30 2304 C 206.288 -3.51367 -2.7793 0
M  V30 2305 C 208.032 -1.96993 -3.76024 0
M  V30 2306 C 205.939 -4.29797 -4.06237 0
M  V30 2307 H 204.869 -0.42796 -0.620779 0
M  V30 2308 H 207.52 -1.53166 -1.01057 0
M  V30 2309 H 205.902 -1.56603 -3.63719 0
M  V30 2310 H 207.076 -4.0434 -2.21011 0
M  V30 2311 H 205.391 -3.57529 -2.13452 0
M  V30 2312 H 207.988 -2.52856 -4.71135 0
M  V30 2313 H 208.331 -0.94733 -4.05378 0
M  V30 2314 H 208.864 -2.39973 -3.17266 0
M  V30 2315 H 205.603 -5.32648 -3.82055 0
M  V30 2316 H 205.123 -3.81596 -4.62757 0
M  V30 2317 H 206.802 -4.39869 -4.74473 0
M  V30 2318 N 206.934 1.1197 -1.10907 0
M  V30 2319 C 207.881 2.17846 -0.762345 0
M  V30 2320 C 208.851 1.63995 0.263599 0
M  V30 2321 O 210.036 1.90273 0.141773 0
M  V30 2322 C 207.176 3.44487 -0.205651 0
M  V30 2323 C 206.289 4.12369 -1.28748 0
M  V30 2324 C 205.424 5.26674 -0.691919 0
M  V30 2325 C 204.463 5.86431 -1.75399 0
M  V30 2326 N 203.6 6.92142 -1.17833 0
M  V30 2327 H 208.44 2.46851 -1.6694 0
M  V30 2328 H 205.977 1.21188 -0.833776 0
M  V30 2329 H 207.935 4.16981 0.135037 0
M  V30 2330 H 206.565 3.15884 0.664613 0
M  V30 2331 H 205.617 3.38003 -1.74522 0
M  V30 2332 H 206.929 4.52844 -2.09125 0
M  V30 2333 H 206.083 6.05953 -0.300963 0
M  V30 2334 H 204.822 4.8749 0.143232 0
M  V30 2335 H 203.827 5.05835 -2.15432 0
M  V30 2336 H 205.052 6.27685 -2.59208 0
M  V30 2337 H 202.998 6.54985 -0.364725 0
M  V30 2338 H 202.915 7.31242 -1.91887 0
M  V30 2339 H 204.183 7.75237 -0.81408 0
M  V30 2340 N 208.412 0.89855 1.29475 0
M  V30 2341 C 209.359 0.373819 2.27753 0
M  V30 2342 C 210.329 -0.543444 1.56958 0
M  V30 2343 O 211.514 -0.468934 1.84948 0
M  V30 2344 C 208.654 -0.393648 3.42848 0
M  V30 2345 C 207.767 0.554379 4.28428 0
M  V30 2346 C 206.902 -0.230026 5.30702 0
M  V30 2347 C 205.941 0.712599 6.07938 0
M  V30 2348 N 205.078 -0.0373283 7.0209 0
M  V30 2349 H 209.918 1.21699 2.72017 0
M  V30 2350 H 207.455 0.611456 1.33789 0
M  V30 2351 H 209.413 -0.85466 4.08352 0
M  V30 2352 H 208.043 -1.20128 2.99615 0
M  V30 2353 H 207.095 1.13391 3.63107 0
M  V30 2354 H 208.407 1.27597 4.82204 0
M  V30 2355 H 207.561 -0.752288 6.02018 0
M  V30 2356 H 206.3 -0.984758 4.77654 0
M  V30 2357 H 205.305 1.24637 5.35486 0
M  V30 2358 H 206.53 1.46664 6.63074 0
M  V30 2359 H 204.476 -0.774348 6.51414 0
M  V30 2360 H 204.393 0.624374 7.53417 0
M  V30 2361 H 205.661 -0.539891 7.77628 0
M  V30 2362 N 209.89 -1.43072 0.660911 0
M  V30 2363 C 211.301 -1.84932 0.256348 0
M  V30 2364 C 211.652 -1.55325 -1.19868 0
M  V30 2365 O 210.777 -1.00607 -1.91591 0
M  V30 2366 C 211.372 -3.35684 0.458475 0
M  V30 2367 C 209.931 -3.76245 0.108161 0
M  V30 2368 C 209.078 -2.66749 0.757641 0
M  V30 2369 H 212.029 -1.33116 0.864051 0
M  V30 2370 H 212.05 -3.79365 -0.293683 0
M  V30 2371 H 211.562 -3.572 1.51755 0
M  V30 2372 H 209.663 -3.60338 -0.948014 0
M  V30 2373 H 209.776 -4.76058 0.538992 0
M  V30 2374 H 208.14 -2.53989 0.190185 0
M  V30 2375 H 208.923 -2.91092 1.81989 0
M  V30 2376 N 211.368 -0.403325 -1.52352 0
M  V30 2377 C 212.315 0.425011 -2.26853 0
M  V30 2378 C 213.285 1.04598 -1.29029 0
M  V30 2379 O 214.47 1.07135 -1.57882 0
M  V30 2380 C 211.61 1.53888 -3.08889 0
M  V30 2381 C 210.723 0.939396 -4.21663 0
M  V30 2382 C 209.858 2.02547 -4.91068 0
M  V30 2383 C 208.897 1.40263 -5.95813 0
M  V30 2384 N 208.034 2.4286 -6.58759 0
M  V30 2385 H 212.874 -0.21674 -2.97211 0
M  V30 2386 H 210.411 -0.118722 -1.4662 0
M  V30 2387 H 212.369 2.19558 -3.54753 0
M  V30 2388 H 210.999 2.15074 -2.40714 0
M  V30 2389 H 210.051 0.171898 -3.80011 0
M  V30 2390 H 211.363 0.44436 -4.96817 0
M  V30 2391 H 210.517 2.75958 -5.40308 0
M  V30 2392 H 209.256 2.55415 -4.15469 0
M  V30 2393 H 208.261 0.653833 -5.45898 0
M  V30 2394 H 209.486 0.881719 -6.73352 0
M  V30 2395 H 207.432 2.94871 -5.85992 0
M  V30 2396 H 207.349 1.98152 -7.2957 0
M  V30 2397 H 208.617 3.15858 -7.12639 0
M  V30 2398 N 212.846 1.57033 -0.133567 0
M  V30 2399 C 214.071 2.00475 0.531477 0
M  V30 2400 C 214.496 1.01291 1.58499 0
M  V30 2401 O 213.854 -0.0133279 1.81295 0
M  V30 2402 C 213.902 3.42729 1.12113 0
M  V30 2403 O 213.006 3.46498 2.23636 0
M  V30 2404 H 212.347 0.650876 0.131362 0
M  V30 2405 H 214.877 2.03344 -0.22634 0
M  V30 2406 H 214.887 3.81246 1.4531 0
M  V30 2407 H 213.562 4.14428 0.349557 0
M  V30 2408 H 212.139 3.19811 1.91769 0
M  V30 2409 N 214.325 -0.140222 1.56975 0
M  V30 2410 C 215.571 -0.848084 1.84876 0
M  V30 2411 C 215.926 -1.78481 0.718481 0
M  V30 2412 O 215.219 -1.89497 -0.283093 0
M  V30 2413 C 215.413 -1.65386 3.16832 0
M  V30 2414 C 215.242 -0.79665 4.42587 0
M  V30 2415 C 214.012 -0.459648 5.03205 0
M  V30 2416 C 216.21 -0.12389 5.14151 0
M  V30 2417 N 214.192 0.410446 6.12526 0
M  V30 2418 C 215.563 0.606064 6.17031 0
M  V30 2419 C 217.618 -0.0452654 4.97879 0
M  V30 2420 C 216.321 1.40723 7.054 0
M  V30 2421 C 218.347 0.742658 5.86718 0
M  V30 2422 C 217.709 1.46087 6.89085 0
M  V30 2423 H 213.808 -0.287946 0.727056 0
M  V30 2424 H 216.392 -0.11304 1.94372 0
M  V30 2425 H 214.563 -2.36009 3.08471 0
M  V30 2426 H 216.295 -2.30541 3.32615 0
M  V30 2427 H 213.05 -0.797006 4.66846 0
M  V30 2428 H 213.474 0.836716 6.7181 0
M  V30 2429 H 218.116 -0.586184 4.18717 0
M  V30 2430 H 215.834 1.95938 7.83986 0
M  V30 2431 H 219.42 0.805574 5.76196 0
M  V30 2432 H 218.3 2.06077 7.56639 0
M  V30 2433 N 215.803 -1.52179 -0.40978 0
M  V30 2434 C 216.713 -1.78364 -1.52392 0
M  V30 2435 C 217.729 -0.669183 -1.60617 0
M  V30 2436 O 218.905 -0.954518 -1.77344 0
M  V30 2437 C 215.97 -1.92822 -2.88133 0
M  V30 2438 C 215.031 -3.16725 -2.898 0
M  V30 2439 C 214.264 -3.30483 -4.19067 0
M  V30 2440 O 214.487 -2.49522 -5.12928 0
M  V30 2441 O 213.421 -4.2363 -4.27576 0
M  V30 2442 H 217.247 -2.72931 -1.33201 0
M  V30 2443 H 214.832 -1.37016 -0.59557 0
M  V30 2444 H 216.714 -2.04157 -3.68643 0
M  V30 2445 H 215.389 -1.01444 -3.07393 0
M  V30 2446 H 214.296 -3.10848 -2.08146 0
M  V30 2447 H 215.629 -4.07881 -2.75489 0
M  V30 2448 N 217.281 0.66697 -1.42791 0
M  V30 2449 C 218.191 1.80962 -1.49299 0
M  V30 2450 C 219.207 1.69775 -0.381108 0
M  V30 2451 O 220.383 1.91188 -0.633188 0
M  V30 2452 C 217.448 3.17156 -1.40045 0
M  V30 2453 C 216.509 3.40242 -2.6179 0
M  V30 2454 C 215.742 4.69939 -2.52969 0
M  V30 2455 O 215.965 5.48372 -1.56985 0
M  V30 2456 O 214.899 4.94441 -3.43237 0
M  V30 2457 H 218.725 1.78427 -2.45759 0
M  V30 2458 H 216.31 0.823713 -1.24641 0
M  V30 2459 H 218.192 3.98413 -1.37276 0
M  V30 2460 H 216.867 3.20312 -0.467138 0
M  V30 2461 H 215.774 2.58802 -2.70134 0
M  V30 2462 H 217.107 3.41923 -3.54047 0
M  V30 2463 N 218.759 1.29093 0.90403 0
M  V30 2464 C 219.989 1.19516 1.68522 0
M  V30 2465 C 220.397 -0.24738 1.87576 0
M  V30 2466 O 219.74 -1.17798 1.40959 0
M  V30 2467 C 219.802 1.83249 3.0929 0
M  V30 2468 C 219.466 3.32531 3.13484 0
M  V30 2469 C 220.463 4.28821 2.93953 0
M  V30 2470 C 218.148 3.73656 3.35688 0
M  V30 2471 C 220.142 5.64212 2.96553 0
M  V30 2472 C 217.829 5.0917 3.37919 0
M  V30 2473 C 218.827 6.04258 3.18373 0
M  V30 2474 O 218.515 7.37298 3.20385 0
M  V30 2475 H 218.247 0.415467 0.533257 0
M  V30 2476 H 220.801 1.70912 1.13922 0
M  V30 2477 H 219.031 1.26358 3.65473 0
M  V30 2478 H 220.72 1.68054 3.69476 0
M  V30 2479 H 221.486 3.98382 2.76616 0
M  V30 2480 H 217.365 3.00101 3.49943 0
M  V30 2481 H 220.909 6.38407 2.81216 0
M  V30 2482 H 216.806 5.39256 3.54787 0
M  V30 2483 H 217.574 7.46048 3.36681 0
M  V30 2484 N 220.237 -1.11381 1.11499 0
M  V30 2485 C 221.484 -1.83132 0.864231 0
M  V30 2486 C 221.812 -1.84683 -0.610114 0
M  V30 2487 O 221.067 -1.29589 -1.46646 0
M  V30 2488 C 221.366 -3.30026 1.37177 0
M  V30 2489 C 221.032 -3.48634 2.85946 0
M  V30 2490 C 219.694 -3.53421 3.26569 0
M  V30 2491 C 222.046 -3.54837 3.81759 0
M  V30 2492 C 219.374 -3.61967 4.61733 0
M  V30 2493 C 221.726 -3.64915 5.1674 0
M  V30 2494 C 220.39 -3.67962 5.5692 0
M  V30 2495 H 219.66 -0.670127 0.316245 0
M  V30 2496 H 222.307 -1.31354 1.3935 0
M  V30 2497 H 220.612 -3.84304 0.762753 0
M  V30 2498 H 222.309 -3.84034 1.15408 0
M  V30 2499 H 218.899 -3.45579 2.53521 0
M  V30 2500 H 223.083 -3.50399 3.51474 0
M  V30 2501 H 218.339 -3.62603 4.92269 0
M  V30 2502 H 222.513 -3.68658 5.90816 0
M  V30 2503 H 220.14 -3.74336 6.61647 0
M  V30 2504 N 221.715 -0.905404 -1.28997 0
M  V30 2505 C 222.625 -0.392246 -2.31298 0
M  V30 2506 C 223.641 0.515889 -1.66176 0
M  V30 2507 O 224.817 0.404093 -1.97304 0
M  V30 2508 C 221.882 0.36686 -3.44754 0
M  V30 2509 C 220.943 -0.573485 -4.25452 0
M  V30 2510 C 220.176 0.149488 -5.33491 0
M  V30 2511 O 220.399 1.37255 -5.5364 0
M  V30 2512 O 219.333 -0.510919 -5.99728 0
M  V30 2513 H 223.159 -1.2411 -2.77183 0
M  V30 2514 H 220.744 -0.669926 -1.33538 0
M  V30 2515 H 222.626 0.795907 -4.13816 0
M  V30 2516 H 221.301 1.19169 -3.00966 0
M  V30 2517 H 220.208 -1.05176 -3.59011 0
M  V30 2518 H 221.541 -1.36489 -4.72897 0
M  V30 2519 N 223.193 1.4272 -0.668489 0
M  V30 2520 C 224.439 2.02443 -0.197076 0
M  V30 2521 C 224.794 1.51882 1.18109 0
M  V30 2522 O 224.087 0.708618 1.78015 0
M  V30 2523 C 224.281 3.57021 -0.164499 0
M  V30 2524 C 224.11 4.22583 -1.53797 0
M  V30 2525 C 222.88 4.58019 -2.13416 0
M  V30 2526 C 225.078 4.50588 -2.47941 0
M  V30 2527 N 223.06 5.08729 -3.4361 0
M  V30 2528 C 224.431 5.02782 -3.62782 0
M  V30 2529 C 226.486 4.32571 -2.46551 0
M  V30 2530 C 225.189 5.38852 -4.76478 0
M  V30 2531 C 227.215 4.69713 -3.59338 0
M  V30 2532 C 226.577 5.22053 -4.72906 0
M  V30 2533 H 222.676 0.773214 -0.116894 0
M  V30 2534 H 225.26 1.73673 -0.880108 0
M  V30 2535 H 223.431 3.85323 0.487925 0
M  V30 2536 H 225.163 4.03439 0.319207 0
M  V30 2537 H 221.918 4.43566 -1.65969 0
M  V30 2538 H 222.342 5.38521 -4.10273 0
M  V30 2539 H 226.984 3.91365 -1.59978 0
M  V30 2540 H 224.702 5.78993 -5.63731 0
M  V30 2541 H 228.288 4.57454 -3.59482 0
M  V30 2542 H 227.168 5.50258 -5.58736 0
M  V30 2543 N 224.671 0.411399 1.52136 0
M  V30 2544 C 225.918 -0.163645 2.01838 0
M  V30 2545 C 226.246 -1.4495 1.29691 0
M  V30 2546 O 225.501 -1.91725 0.392431 0
M  V30 2547 C 225.8 -0.455872 3.54481 0
M  V30 2548 C 225.466 0.741055 4.44769 0
M  V30 2549 C 224.128 1.06936 4.69167 0
M  V30 2550 C 226.48 1.54075 4.97906 0
M  V30 2551 C 223.808 2.19851 5.43951 0
M  V30 2552 C 226.16 2.66067 5.73926 0
M  V30 2553 C 224.824 2.99381 5.96596 0
M  V30 2554 H 224.094 -0.0598821 0.738576 0
M  V30 2555 H 226.741 0.553283 1.83333 0
M  V30 2556 H 225.046 -1.2544 3.71177 0
M  V30 2557 H 226.743 -0.913802 3.90449 0
M  V30 2558 H 223.333 0.475192 4.25958 0
M  V30 2559 H 227.517 1.30033 4.78963 0
M  V30 2560 H 222.773 2.46006 5.59724 0
M  V30 2561 H 226.947 3.28419 6.14096 0
M  V30 2562 H 224.574 3.86992 6.54325 0
M  V30 2563 N 226.149 -1.5696 0.141893 0
M  V30 2564 C 227.389 -1.9785 -0.513304 0
M  V30 2565 C 227.753 -1.02467 -1.62371 0
M  V30 2566 O 228.954 -1.32382 -2.33941 0
M  V30 2567 C 227.225 -3.42797 -1.01118 0
M  V30 2568 S 228.784 -4.05709 -1.67169 0
M  V30 2569 H 225.602 -0.691318 -0.166135 0
M  V30 2570 H 228.204 -1.94114 0.232398 0
M  V30 2571 H 226.908 -4.0995 -0.192179 0
M  V30 2572 H 226.439 -3.50235 -1.79162 0
M  V30 2573 H 228.454 -3.98342 -2.95868 0
M  V30 2574 N 227.627 0.131896 -1.57047 0
M  V30 2575 C 228.559 1.1878 -1.9602 0
M  V30 2576 C 229.572 1.38363 -0.857875 0
M  V30 2577 O 230.761 1.37666 -1.13623 0
M  V30 2578 C 227.861 2.55008 -2.23213 0
M  V30 2579 C 227.034 2.56201 -3.54513 0
M  V30 2580 C 226.093 3.7408 -3.70069 0
M  V30 2581 O 225.119 3.58258 -4.42312 0
M  V30 2582 N 226.321 4.92137 -3.07866 0
M  V30 2583 H 229.086 0.85639 -2.87204 0
M  V30 2584 H 226.647 0.321309 -1.5868 0
M  V30 2585 H 228.639 3.32404 -2.30846 0
M  V30 2586 H 227.209 2.80382 -1.3822 0
M  V30 2587 H 226.429 1.64613 -3.58185 0
M  V30 2588 H 227.717 2.54043 -4.4084 0
M  V30 2589 H 227.115 5.07895 -2.49116 0
M  V30 2590 H 225.672 5.67254 -3.21039 0
M  V30 2591 N 229.106 1.52395 0.401703 0
M  V30 2592 C 230.354 1.66488 1.14569 0
M  V30 2593 C 230.675 0.400897 1.90835 0
M  V30 2594 O 229.945 -0.584415 1.8698 0
M  V30 2595 H 228.525 0.613672 0.425929 0
M  V30 2596 H 231.187 1.89464 0.457093 0
M  V30 2597 H 230.283 2.50942 1.85566 0
M  V30 2598 N 230.584 -0.659388 1.43143 0
M  V30 2599 C 231.812 -1.44723 1.47861 0
M  V30 2600 C 232.227 -1.88563 0.0945886 0
M  V30 2601 O 231.584 -1.59108 -0.893915 0
M  V30 2602 C 231.635 -2.68627 2.41913 0
M  V30 2603 O 231.356 -2.26623 3.74932 0
M  V30 2604 C 232.857 -3.62045 2.55809 0
M  V30 2605 H 230.077 -0.444801 0.502387 0
M  V30 2606 H 232.621 -0.808916 1.87821 0
M  V30 2607 H 230.776 -3.28613 2.05164 0
M  V30 2608 H 231.19 -3.06745 4.2545 0
M  V30 2609 H 232.664 -4.45666 3.25708 0
M  V30 2610 H 233.141 -4.08981 1.60099 0
M  V30 2611 H 233.747 -3.07944 2.93344 0
M  V30 2612 N 232.062 -1.29571 -0.897171 0
M  V30 2613 C 233.308 -1.17863 -1.65034 0
M  V30 2614 C 233.641 0.268729 -1.92332 0
M  V30 2615 O 232.916 1.19378 -1.53555 0
M  V30 2616 C 233.199 -1.995 -2.99786 0
M  V30 2617 C 233.052 -3.5239 -2.79538 0
M  V30 2618 C 234.371 -1.82335 -4.00552 0
M  V30 2619 H 231.49 -0.429528 -0.598895 0
M  V30 2620 H 234.132 -1.59072 -1.03905 0
M  V30 2621 H 232.282 -1.64485 -3.51962 0
M  V30 2622 H 233.954 -3.97401 -2.34244 0
M  V30 2623 H 232.197 -3.77187 -2.14273 0
M  V30 2624 H 232.868 -4.04787 -3.75302 0
M  V30 2625 H 235.344 -2.12924 -3.57495 0
M  V30 2626 H 234.22 -2.41801 -4.92771 0
M  V30 2627 H 234.481 -0.779209 -4.35179 0
M  V30 2628 N 233.54 1.10788 -1.12088 0
M  V30 2629 C 234.47 2.19083 -0.807755 0
M  V30 2630 C 235.451 1.6858 0.226859 0
M  V30 2631 O 236.636 1.93997 0.0888475 0
M  V30 2632 C 233.766 3.46344 -0.257576 0
M  V30 2633 C 232.72 4.101 -1.22483 0
M  V30 2634 C 232.046 5.32016 -0.535052 0
M  V30 2635 C 233.346 4.54236 -2.57811 0
M  V30 2636 H 235.04 2.45534 -1.71328 0
M  V30 2637 H 232.586 1.1801 -0.825205 0
M  V30 2638 H 234.539 4.21392 -0.0262679 0
M  V30 2639 H 233.263 3.19373 0.683278 0
M  V30 2640 H 231.922 3.37054 -1.44189 0
M  V30 2641 H 231.57 5.01319 0.410827 0
M  V30 2642 H 231.27 5.75625 -1.18024 0
M  V30 2643 H 232.794 6.09799 -0.312695 0
M  V30 2644 H 234.208 5.20575 -2.40155 0
M  V30 2645 H 232.605 5.08682 -3.18375 0
M  V30 2646 H 233.675 3.6734 -3.16528 0
M  V30 2647 N 235.018 0.912232 1.28515 0
M  V30 2648 C 236.248 0.559604 1.98877 0
M  V30 2649 C 236.656 -0.863113 1.68366 0
M  V30 2650 O 235.999 -1.58304 0.931969 0
M  V30 2651 C 236.061 0.68703 3.52874 0
M  V30 2652 C 235.725 2.07901 4.06972 0
M  V30 2653 C 236.722 3.05157 4.20922 0
M  V30 2654 C 234.407 2.39178 4.417 0
M  V30 2655 C 236.401 4.31806 4.68852 0
M  V30 2656 C 234.088 3.66068 4.89324 0
M  V30 2657 C 235.086 4.62195 5.02856 0
M  V30 2658 O 234.774 5.86829 5.49442 0
M  V30 2659 H 234.506 0.212191 0.641834 0
M  V30 2660 H 237.06 1.22712 1.64715 0
M  V30 2661 H 235.29 -0.0375486 3.86682 0
M  V30 2662 H 236.979 0.341727 4.04459 0
M  V30 2663 H 237.745 2.82311 3.94367 0
M  V30 2664 H 233.624 1.65109 4.30418 0
M  V30 2665 H 237.168 5.06842 4.79329 0
M  V30 2666 H 233.065 3.88739 5.15318 0
M  V30 2667 H 233.833 5.89597 5.6773 0
M  V30 2668 N 236.496 -1.42363 0.676048 0
M  V30 2669 C 237.744 -2.01123 0.198437 0
M  V30 2670 C 238.065 -1.53731 -1.19966 0
M  V30 2671 O 237.335 -0.759518 -1.80577 0
M  V30 2672 H 235.915 -0.743678 0.0703721 0
M  V30 2673 H 238.577 -1.74263 0.872837 0
M  V30 2674 H 237.673 -3.11454 0.200686 0
M  V30 2675 N 237.974 -0.419461 -1.51915 0
M  V30 2676 C 239.199 0.154572 -2.06823 0
M  V30 2677 C 239.624 1.3722 -1.28656 0
M  V30 2678 O 238.982 1.78461 -0.319583 0
M  V30 2679 C 239.03 0.473172 -3.57482 0
M  V30 2680 O 238.134 1.56255 -3.81652 0
M  V30 2681 H 237.475 0.0096924 -0.663929 0
M  V30 2682 H 240.005 -0.595642 -1.95738 0
M  V30 2683 H 240.015 0.728825 -4.01438 0
M  V30 2684 H 238.69 -0.416873 -4.13805 0
M  V30 2685 H 237.267 1.29825 -3.49571 0
M  V30 2686 N 239.452 1.56882 -0.150215 0
M  V30 2687 C 240.698 1.97299 0.494427 0
M  V30 2688 C 241.053 1.0338 1.62266 0
M  V30 2689 O 240.346 0.0694497 1.91474 0
M  V30 2690 C 240.54 3.41801 1.04437 0
M  V30 2691 C 240.369 4.49691 -0.0290451 0
M  V30 2692 C 239.139 5.03095 -0.47156 0
M  V30 2693 C 241.337 5.07693 -0.821703 0
M  V30 2694 N 239.319 5.94593 -1.52749 0
M  V30 2695 C 240.69 5.95431 -1.72805 0
M  V30 2696 C 242.745 4.90256 -0.869134 0
M  V30 2697 C 241.448 6.67599 -2.67777 0
M  V30 2698 C 243.474 5.63127 -1.8067 0
M  V30 2699 C 242.836 6.50576 -2.70057 0
M  V30 2700 H 238.935 0.76755 0.149639 0
M  V30 2701 H 241.519 1.93145 -0.24556 0
M  V30 2702 H 239.69 3.46541 1.75396 0
M  V30 2703 H 241.422 3.69272 1.6559 0
M  V30 2704 H 238.177 4.73543 -0.0732101 0
M  V30 2705 H 238.601 6.45047 -2.05531 0
M  V30 2706 H 243.243 4.22363 -0.192134 0
M  V30 2707 H 240.961 7.34717 -3.36476 0
M  V30 2708 H 244.547 5.51629 -1.84924 0
M  V30 2709 H 243.427 7.05974 -3.41424 0
M  V30 2710 N 240.93 -0.123565 1.57115 0
M  V30 2711 C 242.177 -0.832153 1.84612 0
M  V30 2712 C 242.505 -1.80093 0.734627 0
M  V30 2713 O 241.76 -1.93766 -0.27442 0
M  V30 2714 C 242.059 -1.62016 3.18568 0
M  V30 2715 C 241.725 -0.796084 4.43817 0
M  V30 2716 C 240.387 -0.568816 4.77826 0
M  V30 2717 C 242.739 -0.221364 5.2073 0
M  V30 2718 C 240.067 0.243499 5.86194 0
M  V30 2719 C 242.419 0.578117 6.29953 0
M  V30 2720 C 241.083 0.815744 6.62497 0
M  V30 2721 H 240.353 -0.304507 0.675542 0
M  V30 2722 H 243 -0.0947248 1.91266 0
M  V30 2723 H 241.305 -2.42837 3.0747 0
M  V30 2724 H 243.002 -2.17231 3.37064 0
M  V30 2725 H 239.592 -0.983307 4.17168 0
M  V30 2726 H 243.776 -0.384173 4.94811 0
M  V30 2727 H 239.032 0.436871 6.09837 0
M  V30 2728 H 243.206 1.03046 6.88734 0
M  V30 2729 H 240.833 1.44701 7.46301 0
M  V30 2730 N 242.408 -1.52605 -0.393616 0
M  V30 2731 C 243.685 -1.58001 -1.15304 0
M  V30 2732 C 244.065 -0.370385 -2.07825 0
M  V30 2733 O 243.413 0.641638 -2.19306 0
M  V30 2734 C 243.623 -2.91652 -1.91677 0
M  V30 2735 C 244.971 -3.4522 -2.47201 0
M  V30 2736 O 245.995 -2.93495 -2.01839 0
M  V30 2737 O 244.854 -4.35579 -3.3005 0
M  V30 2738 H 241.948 -0.637068 -0.527327 0
M  V30 2739 H 244.494 -1.64939 -0.399141 0
M  V30 2740 H 243.266 -3.71136 -1.23992 0
M  V30 2741 H 242.889 -2.88077 -2.74039 0
M  V30 2742 N 243.887 0.651787 -1.4349 0
M  V30 2743 C 244.837 1.75783 -1.45205 0
M  V30 2744 C 245.821 1.57679 -0.320328 0
M  V30 2745 O 247.013 1.67767 -0.564211 0
M  V30 2746 C 244.142 3.14377 -1.3792 0
M  V30 2747 C 243.228 3.38023 -2.56127 0
M  V30 2748 N 243.619 3.32135 -3.81471 0
M  V30 2749 C 241.917 3.68747 -2.50882 0
M  V30 2750 C 242.618 3.55902 -4.60118 0
M  V30 2751 N 241.594 3.77783 -3.90872 0
M  V30 2752 H 245.396 1.69657 -2.39987 0
M  V30 2753 H 242.91 0.853508 -1.38163 0
M  V30 2754 H 244.907 3.93666 -1.37231 0
M  V30 2755 H 243.567 3.21683 -0.441596 0
M  V30 2756 H 244.578 3.11515 -4.13738 0
M  V30 2757 H 241.255 3.8316 -1.65816 0
M  V30 2758 H 242.645 3.57116 -5.69138 0
M  V30 2759 N 245.365 1.30045 0.890287 0
M  V30 2760 C 246.614 1.17929 1.63633 0
M  V30 2761 C 246.927 -0.266204 1.9378 0
M  V30 2762 O 248.133 -0.508804 2.6669 0
M  V30 2763 C 246.589 2.06317 2.94892 0
M  V30 2764 C 246.197 3.55745 2.72305 0
M  V30 2765 C 247.941 2.0295 3.72843 0
M  V30 2766 C 245.848 4.36205 3.99348 0
M  V30 2767 H 244.778 0.437782 0.613892 0
M  V30 2768 H 247.429 1.54754 0.986075 0
M  V30 2769 H 245.811 1.6237 3.61182 0
M  V30 2770 H 246.985 4.07805 2.1455 0
M  V30 2771 H 245.3 3.6088 2.07737 0
M  V30 2772 H 247.897 2.60319 4.67053 0
M  V30 2773 H 248.24 1.0117 4.0382 0
M  V30 2774 H 248.773 2.4499 3.13408 0
M  V30 2775 H 245.512 5.38659 3.73533 0
M  V30 2776 H 245.032 3.8891 4.56628 0
M  V30 2777 H 246.711 4.47362 4.67415 0
M  V30 2778 N 246.843 -1.10192 1.12674 0
M  V30 2779 C 247.793 -2.14754 0.765801 0
M  V30 2780 C 248.777 -1.59154 -0.236409 0
M  V30 2781 O 249.969 -1.76951 -0.0415261 0
M  V30 2782 C 247.098 -3.42563 0.224827 0
M  V30 2783 C 246.184 -4.05091 1.25548 0
M  V30 2784 N 246.575 -4.42287 2.4539 0
M  V30 2785 C 244.873 -4.32186 1.10142 0
M  V30 2786 C 245.574 -4.91441 3.11224 0
M  V30 2787 N 244.55 -4.88405 2.38666 0
M  V30 2788 H 248.352 -2.41309 1.67772 0
M  V30 2789 H 245.866 -1.27339 1.00789 0
M  V30 2790 H 247.863 -4.16868 -0.0519578 0
M  V30 2791 H 246.523 -3.17467 -0.681515 0
M  V30 2792 H 247.534 -4.33902 2.82754 0
M  V30 2793 H 244.211 -4.16735 0.252587 0
M  V30 2794 H 245.601 -5.29749 4.13298 0
M  V30 2795 N 248.321 -0.919034 -1.28029 0
M  V30 2796 C 249.569 -0.553838 -1.94363 0
M  V30 2797 C 249.89 0.906357 -1.72656 0
M  V30 2798 O 249.16 1.64143 -1.0693 0
M  V30 2799 H 247.74 -0.201834 -0.719216 0
M  V30 2800 H 250.402 -1.16954 -1.55909 0
M  V30 2801 H 249.498 -0.752758 -3.02886 0
M  V30 2802 N 249.799 1.42003 -0.683588 0
M  V30 2803 C 251.045 2.02223 -0.218536 0
M  V30 2804 C 251.4 1.53126 1.16492 0
M  V30 2805 O 250.693 0.727459 1.77253 0
M  V30 2806 C 250.887 3.56827 -0.202357 0
M  V30 2807 C 250.716 4.20928 -1.5827 0
M  V30 2808 C 249.486 4.5573 -2.18262 0
M  V30 2809 C 251.684 4.47933 -2.52706 0
M  V30 2810 N 249.666 5.05056 -3.48986 0
M  V30 2811 C 251.037 4.98906 -3.68094 0
M  V30 2812 C 253.092 4.29931 -2.51125 0
M  V30 2813 C 251.795 5.33768 -4.82166 0
M  V30 2814 C 253.821 4.65875 -3.643 0
M  V30 2815 C 253.183 5.17008 -4.78417 0
M  V30 2816 H 249.282 0.771931 -0.125088 0
M  V30 2817 H 251.866 1.72729 -0.898479 0
M  V30 2818 H 250.037 3.85819 0.447029 0
M  V30 2819 H 251.769 4.03755 0.276399 0
M  V30 2820 H 248.524 4.41781 -1.70665 0
M  V30 2821 H 248.948 5.34139 -4.15962 0
M  V30 2822 H 253.59 3.89647 -1.6412 0
M  V30 2823 H 251.308 5.72981 -5.6984 0
M  V30 2824 H 254.894 4.53615 -3.64314 0
M  V30 2825 H 253.774 5.44301 -5.64541 0
M  V30 2826 N 251.277 0.427512 1.51691 0
M  V30 2827 C 252.21 -0.433876 2.24037 0
M  V30 2828 C 253.188 -1.03287 1.25581 0
M  V30 2829 O 254.372 -1.07722 1.54688 0
M  V30 2830 C 251.499 -1.60385 2.98319 0
M  V30 2831 C 250.545 -1.12648 4.11355 0
M  V30 2832 S 251.378 -0.076543 5.35445 0
M  V30 2833 C 252.534 -1.25141 6.13262 0
M  V30 2834 H 252.767 0.180367 2.96752 0
M  V30 2835 H 250.3 0.211946 1.52938 0
M  V30 2836 H 252.258 -2.27462 3.41718 0
M  V30 2837 H 250.919 -2.18948 2.25213 0
M  V30 2838 H 250.112 -2.0011 4.62571 0
M  V30 2839 H 249.714 -0.534088 3.70167 0
M  V30 2840 H 252.006 -2.17162 6.41753 0
M  V30 2841 H 252.949 -0.779411 7.03797 0
M  V30 2842 H 253.357 -1.48553 5.44603 0
M  V30 2843 N 252.755 -1.56801 0.158532 0
M  V30 2844 C 254.166 -1.83189 -0.360366 0
M  V30 2845 C 254.517 -1.07778 -1.63946 0
M  V30 2846 O 253.642 -0.326718 -2.13919 0
M  V30 2847 C 254.237 -3.32297 -0.660595 0
M  V30 2848 C 252.796 -3.59227 -1.12398 0
M  V30 2849 C 251.943 -2.76877 -0.153097 0
M  V30 2850 H 254.894 -1.54008 0.383031 0
M  V30 2851 H 254.915 -3.4908 -1.51405 0
M  V30 2852 H 254.427 -3.87156 0.270527 0
M  V30 2853 H 252.528 -3.09766 -2.07064 0
M  V30 2854 H 252.641 -4.67632 -1.04197 0
M  V30 2855 H 251.005 -2.46319 -0.647983 0
M  V30 2856 H 251.788 -3.34511 0.77182 0
M  V30 2857 N 254.233 0.115231 -1.57178 0
M  V30 2858 C 255.166 1.17166 -1.95825 0
M  V30 2859 C 256.144 1.39912 -0.828463 0
M  V30 2860 O 257.328 1.54004 -1.08697 0
M  V30 2861 C 254.455 2.52478 -2.25771 0
M  V30 2862 C 253.501 2.46136 -3.48309 0
M  V30 2863 S 254.334 1.89736 -5.0076 0
M  V30 2864 C 255.49 3.26713 -5.33863 0
M  V30 2865 H 255.723 0.842103 -2.85124 0
M  V30 2866 H 253.256 0.322136 -1.51002 0
M  V30 2867 H 255.214 3.30332 -2.43702 0
M  V30 2868 H 253.875 2.82609 -1.37079 0
M  V30 2869 H 253.068 3.45819 -3.66641 0
M  V30 2870 H 252.67 1.76404 -3.29784 0
M  V30 2871 H 254.962 4.22935 -5.29275 0
M  V30 2872 H 255.905 3.13205 -6.35065 0
M  V30 2873 H 256.313 3.25316 -4.61335 0
M  V30 2874 N 255.711 1.52812 0.385517 0
M  V30 2875 C 257.127 1.4214 0.725829 0
M  V30 2876 C 257.327 0.544589 1.94001 0
M  V30 2877 O 256.383 0.0193693 2.52493 0
M  V30 2878 C 257.696 2.85042 0.957668 0
M  V30 2879 C 259.244 2.94543 1.05892 0
M  V30 2880 C 259.719 4.38464 1.32337 0
M  V30 2881 N 261.21 4.41804 1.39151 0
M  V30 2882 C 261.945 5.5025 1.61285 0
M  V30 2883 N 261.441 6.68775 1.80866 0
M  V30 2884 N 263.234 5.37798 1.63492 0
M  V30 2885 H 255.385 2.08338 -0.413383 0
M  V30 2886 H 257.648 0.940016 -0.122775 0
M  V30 2887 H 257.354 3.51431 0.137568 0
M  V30 2888 H 257.228 3.27505 1.87137 0
M  V30 2889 H 259.615 2.28321 1.86959 0
M  V30 2890 H 259.696 2.55504 0.123057 0
M  V30 2891 H 259.34 5.05254 0.517793 0
M  V30 2892 H 259.27 4.75059 2.27214 0
M  V30 2893 H 261.761 3.56377 1.25713 0
M  V30 2894 H 262.074 7.47197 1.97271 0
M  V30 2895 H 260.419 6.71797 1.78083 0
M  V30 2896 H 263.61 4.44171 1.47749 0
M  V30 2897 H 263.783 6.22382 1.80402 0
M  V30 2898 N 257.189 -0.644168 1.43834 0
M  V30 2899 C 258.099 -1.78563 1.52159 0
M  V30 2900 C 259.115 -1.69147 0.408069 0
M  V30 2901 O 260.291 -1.90156 0.663524 0
M  V30 2902 C 257.356 -3.14888 1.45073 0
M  V30 2903 C 256.417 -3.36034 2.6717 0
M  V30 2904 C 255.65 -4.65855 2.60413 0
M  V30 2905 O 255.873 -5.45805 1.65689 0
M  V30 2906 O 254.807 -4.88918 3.5106 0
M  V30 2907 H 258.633 -1.74494 2.48567 0
M  V30 2908 H 256.218 -0.80378 1.25935 0
M  V30 2909 H 258.1 -3.96179 1.43597 0
M  V30 2910 H 256.775 -3.19528 0.518037 0
M  V30 2911 H 255.682 -2.54472 2.74217 0
M  V30 2912 H 257.015 -3.36247 3.59442 0
M  V30 2913 N 258.668 -1.30515 -0.883378 0
M  V30 2914 C 259.578 -1.18959 -2.02203 0
M  V30 2915 C 260.594 -0.109172 -1.73657 0
M  V30 2916 O 261.77 -0.324413 -1.9877 0
M  V30 2917 C 258.835 -0.883871 -3.35244 0
M  V30 2918 C 257.896 -2.04982 -3.77201 0
M  V30 2919 C 257.129 -1.75859 -5.03894 0
M  V30 2920 O 257.352 -0.687276 -5.66244 0
M  V30 2921 O 256.286 -2.61146 -5.42297 0
M  V30 2922 H 260.112 -2.14616 -2.1488 0
M  V30 2923 H 257.697 -1.10124 -1.0096 0
M  V30 2924 H 259.579 -0.728644 -4.15053 0
M  V30 2925 H 258.254 0.0427798 -3.23672 0
M  V30 2926 H 257.161 -2.26038 -2.9809 0
M  V30 2927 H 258.494 -2.95825 -3.93381 0
M  V30 2928 N 260.146 1.09593 -1.13257 0
M  V30 2929 C 261.093 2.1618 -0.808381 0
M  V30 2930 C 262.063 1.64517 0.228754 0
M  V30 2931 O 263.248 1.9053 0.101381 0
M  V30 2932 C 260.388 3.43973 -0.278675 0
M  V30 2933 C 259.501 4.09545 -1.37466 0
M  V30 2934 C 258.636 5.25088 -0.803479 0
M  V30 2935 C 257.675 5.82579 -1.87799 0
M  V30 2936 N 256.812 6.89486 -1.32488 0
M  V30 2937 H 261.652 2.43254 -1.72138 0
M  V30 2938 H 259.189 1.19392 -0.859294 0
M  V30 2939 H 261.147 4.17174 0.0465583 0
M  V30 2940 H 259.777 3.17223 0.597459 0
M  V30 2941 H 258.829 3.34226 -1.81652 0
M  V30 2942 H 260.141 4.48307 -2.18684 0
M  V30 2943 H 259.295 6.05178 -0.429427 0
M  V30 2944 H 258.034 4.87684 0.0397956 0
M  V30 2945 H 257.039 5.01152 -2.26113 0
M  V30 2946 H 258.264 6.22045 -2.72463 0
M  V30 2947 H 256.21 6.54064 -0.503575 0
M  V30 2948 H 256.127 7.27007 -2.07355 0
M  V30 2949 H 257.395 7.73336 -0.978336 0
M  V30 2950 N 261.624 0.925811 1.2754 0
M  V30 2951 C 262.572 0.413897 2.28888 0
M  V30 2952 C 263.566 -0.500779 1.61829 0
M  V30 2953 O 264.772 -0.38069 1.75928 0
M  V30 2954 H 261.147 0.115274 0.743112 0
M  V30 2955 H 263.118 1.28151 2.69481 0
M  V30 2956 C 261.867 -0.319792 3.46226 0
M  V30 2957 H 261.19 0.374846 3.98039 0
M  V30 2958 H 262.63 -0.642435 4.19105 0
M  V30 2959 C 261.089 -1.53209 3.00048 0
M  V30 2960 O 261.619 -2.6309 3.03557 0
M  V30 2961 N 259.825 -1.38326 2.55566 0
M  V30 2962 H 259.372 -0.489292 2.5291 0
M  V30 2963 H 259.33 -2.19564 2.25031 0
M  V30 2964 N 263.102 -1.41638 0.69111 0
M  V30 2965 C 264.349 -2.01299 0.220193 0
M  V30 2966 C 264.677 -1.54715 -1.17871 0
M  V30 2967 O 263.932 -0.747193 -1.80874 0
M  V30 2968 C 264.231 -3.56714 0.221277 0
M  V30 2969 C 263.897 -4.22792 1.56709 0
M  V30 2970 C 262.559 -4.40557 1.93554 0
M  V30 2971 C 264.911 -4.59883 2.45268 0
M  V30 2972 C 262.239 -4.92688 3.18552 0
M  V30 2973 C 264.591 -5.13403 3.69595 0
M  V30 2974 C 263.255 -5.29379 4.06589 0
M  V30 2975 H 262.525 -0.736606 0.0805743 0
M  V30 2976 H 265.172 -1.69598 0.889319 0
M  V30 2977 H 263.477 -3.8818 -0.531391 0
M  V30 2978 H 265.174 -4.00678 -0.160547 0
M  V30 2979 H 261.764 -4.09336 1.2705 0
M  V30 2980 H 265.948 -4.45817 2.18084 0
M  V30 2981 H 261.204 -5.03242 3.47214 0
M  V30 2982 H 265.378 -5.41084 4.38407 0
M  V30 2983 H 263.005 -5.69537 5.03519 0
M  V30 2984 N 264.58 -0.43555 -1.51462 0
M  V30 2985 C 265.51 0.367376 -2.30592 0
M  V30 2986 C 266.491 1.02263 -1.35928 0
M  V30 2987 O 267.676 1.02661 -1.64847 0
M  V30 2988 C 264.806 1.46983 -3.14664 0
M  V30 2989 C 263.76 0.938161 -4.17591 0
M  V30 2990 C 263.086 2.13622 -4.90173 0
M  V30 2991 C 264.386 -0.0261621 -5.22293 0
M  V30 2992 H 266.08 -0.292969 -2.97963 0
M  V30 2993 H 263.626 -0.14234 -1.43295 0
M  V30 2994 H 265.579 2.03873 -3.688 0
M  V30 2995 H 264.303 2.15843 -2.4511 0
M  V30 2996 H 262.962 0.391481 -3.64504 0
M  V30 2997 H 262.61 2.81098 -4.17124 0
M  V30 2998 H 262.31 1.78688 -5.59772 0
M  V30 2999 H 263.834 2.7107 -5.47132 0
M  V30 3000 H 265.248 0.452384 -5.71512 0
M  V30 3001 H 263.645 -0.287992 -5.99409 0
M  V30 3002 H 264.715 -0.963391 -4.75233 0
M  V30 3003 N 266.058 1.56714 -0.166846 0
M  V30 3004 C 266.988 2.20754 0.760913 0
M  V30 3005 C 267.969 1.16178 1.24244 0
M  V30 3006 O 269.154 1.44592 1.29641 0
M  V30 3007 C 266.284 2.84478 1.99223 0
M  V30 3008 C 265.238 3.95053 1.64672 0
M  V30 3009 C 264.564 4.45805 2.95232 0
M  V30 3010 C 265.864 5.14865 0.878155 0
M  V30 3011 H 267.558 2.98537 0.22713 0
M  V30 3012 H 265.104 1.43596 0.107805 0
M  V30 3013 H 267.057 3.27951 2.64624 0
M  V30 3014 H 265.781 2.04056 2.55007 0
M  V30 3015 H 264.44 3.52228 1.01641 0
M  V30 3016 H 264.088 3.62181 3.49047 0
M  V30 3017 H 263.788 5.204 2.7287 0
M  V30 3018 H 265.312 4.91962 3.6167 0
M  V30 3019 H 266.726 5.55059 1.43466 0
M  V30 3020 H 265.123 5.95348 0.753738 0
M  V30 3021 H 266.193 4.84735 -0.126377 0
M  V30 3022 N 267.536 -0.106894 1.57237 0
M  V30 3023 C 268.466 -1.13148 2.04254 0
M  V30 3024 C 269.447 -1.42476 0.929224 0
M  V30 3025 O 270.632 -1.52709 1.19973 0
M  V30 3026 C 267.762 -2.4545 2.45706 0
M  V30 3027 C 266.716 -2.30558 3.60592 0
M  V30 3028 C 266.042 -3.67931 3.87983 0
M  V30 3029 C 267.342 -1.75597 4.91897 0
M  V30 3030 H 269.036 -0.740374 2.90101 0
M  V30 3031 H 266.582 -0.354696 1.39563 0
M  V30 3032 H 268.535 -3.17389 2.77205 0
M  V30 3033 H 267.259 -2.86475 1.56843 0
M  V30 3034 H 265.918 -1.61067 3.29322 0
M  V30 3035 H 265.566 -4.06462 2.96306 0
M  V30 3036 H 265.266 -3.58817 4.65322 0
M  V30 3037 H 266.79 -4.41356 4.21945 0
M  V30 3038 H 268.204 -2.37364 5.21854 0
M  V30 3039 H 266.601 -1.77272 5.73319 0
M  V30 3040 H 267.671 -0.714451 4.79608 0
M  V30 3041 N 269.014 -1.53014 -0.377408 0
M  V30 3042 C 270.239 -1.72818 -1.14668 0
M  V30 3043 C 270.664 -0.450725 -1.8262 0
M  V30 3044 O 270.022 0.59439 -1.7128 0
M  V30 3045 C 270.07 -2.88627 -2.16164 0
M  V30 3046 O 269.174 -2.56409 -3.22998 0
M  V30 3047 H 268.515 -0.574301 -0.333278 0
M  V30 3048 H 271.045 -1.99853 -0.438152 0
M  V30 3049 H 271.055 -3.14455 -2.59966 0
M  V30 3050 H 269.73 -3.81294 -1.66095 0
M  V30 3051 H 268.307 -2.4136 -2.84253 0
M  V30 3052 N 270.492 0.636531 -1.44174 0
M  V30 3053 C 271.722 1.42146 -1.49927 0
M  V30 3054 C 272.13 1.88812 -0.121063 0
M  V30 3055 O 271.473 1.61126 0.882267 0
M  V30 3056 C 271.535 2.67883 -2.39748 0
M  V30 3057 C 271.199 2.43048 -3.8701 0
M  V30 3058 C 272.196 2.05216 -4.77684 0
M  V30 3059 C 269.881 2.56856 -4.3166 0
M  V30 3060 C 271.875 1.81512 -6.11009 0
M  V30 3061 C 269.562 2.32766 -5.65034 0
M  V30 3062 C 270.56 1.95152 -6.54526 0
M  V30 3063 O 270.248 1.71326 -7.85431 0
M  V30 3064 H 269.98 0.442567 -0.51099 0
M  V30 3065 H 272.534 0.786158 -1.8976 0
M  V30 3066 H 270.764 3.34032 -1.94832 0
M  V30 3067 H 272.453 3.29874 -2.36513 0
M  V30 3068 H 273.219 1.94111 -4.44462 0
M  V30 3069 H 269.098 2.85104 -3.62266 0
M  V30 3070 H 272.642 1.52077 -6.80822 0
M  V30 3071 H 268.539 2.43479 -5.97819 0
M  V30 3072 H 269.307 1.85616 -7.97176 0
M  V30 3073 N 271.97 1.30982 0.876444 0
M  V30 3074 C 272.88 1.2003 2.01569 0
M  V30 3075 C 273.896 0.11838 1.73597 0
M  V30 3076 O 275.072 0.33495 1.98595 0
M  V30 3077 C 272.137 0.901637 3.34771 0
M  V30 3078 C 271.198 2.06979 3.76109 0
M  V30 3079 C 270.431 1.78529 5.02954 0
M  V30 3080 O 270.654 0.717296 5.65872 0
M  V30 3081 O 269.588 2.64019 5.40905 0
M  V30 3082 H 273.414 2.15753 2.13739 0
M  V30 3083 H 270.999 1.10658 1.00375 0
M  V30 3084 H 272.881 0.750645 4.1466 0
M  V30 3085 H 271.556 -0.0256141 3.2369 0
M  V30 3086 H 270.463 2.27616 2.96887 0
M  V30 3087 H 271.796 2.97907 3.91807 0
M  V30 3088 N 273.449 -1.08991 1.13837 0
M  V30 3089 C 274.359 -2.19301 0.833333 0
M  V30 3090 C 275.375 -1.73026 -0.183847 0
M  V30 3091 O 276.551 -2.01395 -0.0138092 0
M  V30 3092 C 273.616 -3.45323 0.308651 0
M  V30 3093 C 272.677 -4.06255 1.38764 0
M  V30 3094 C 271.91 -5.26262 0.887896 0
M  V30 3095 O 272.133 -5.69747 -0.27287 0
M  V30 3096 O 271.067 -5.78435 1.66421 0
M  V30 3097 H 274.893 -2.47854 1.75506 0
M  V30 3098 H 272.478 -1.18012 0.916166 0
M  V30 3099 H 274.36 -4.21394 0.0216739 0
M  V30 3100 H 273.035 -3.18362 -0.585431 0
M  V30 3101 H 271.942 -3.318 1.72799 0
M  V30 3102 H 273.275 -4.37452 2.25602 0
M  V30 3103 N 274.927 -0.932562 -1.27047 0
M  V30 3104 C 275.857 -0.452902 -2.29066 0
M  V30 3105 C 276.838 0.489338 -1.62909 0
M  V30 3106 O 278.023 0.393046 -1.90181 0
M  V30 3107 C 275.153 0.290698 -3.46081 0
M  V30 3108 C 274.107 -0.564168 -4.24265 0
M  V30 3109 C 273.433 0.308886 -5.33807 0
M  V30 3110 C 274.733 -1.83112 -4.89149 0
M  V30 3111 H 276.427 -1.30552 -2.69437 0
M  V30 3112 H 273.973 -0.629201 -1.29526 0
M  V30 3113 H 275.926 0.637233 -4.16554 0
M  V30 3114 H 274.65 1.17738 -3.0464 0
M  V30 3115 H 273.309 -0.893477 -3.55545 0
M  V30 3116 H 272.957 1.19467 -4.88607 0
M  V30 3117 H 272.657 -0.259633 -5.87026 0
M  V30 3118 H 274.181 0.650884 -6.07121 0
M  V30 3119 H 275.595 -1.55236 -5.51883 0
M  V30 3120 H 273.992 -2.34353 -5.52448 0
M  V30 3121 H 275.062 -2.54772 -4.12576 0
M  V30 3122 N 276.405 1.4127 -0.698611 0
M  V30 3123 C 277.352 2.30773 -0.0352094 0
M  V30 3124 C 278.322 1.47273 0.768111 0
M  V30 3125 O 279.507 1.76053 0.735524 0
M  V30 3126 C 276.647 3.33346 0.893 0
M  V30 3127 C 275.76 4.31924 0.0809695 0
M  V30 3128 C 274.895 5.21566 1.0071 0
M  V30 3129 C 273.934 6.11811 0.188155 0
M  V30 3130 N 273.071 6.93926 1.06825 0
M  V30 3131 H 277.911 2.86943 -0.804207 0
M  V30 3132 H 275.448 1.4132 -0.408294 0
M  V30 3133 H 277.406 3.91368 1.44523 0
M  V30 3134 H 276.036 2.78719 1.62836 0
M  V30 3135 H 275.088 3.75825 -0.588224 0
M  V30 3136 H 276.4 4.95716 -0.553801 0
M  V30 3137 H 275.554 5.84437 1.62845 0
M  V30 3138 H 274.293 4.58008 1.67572 0
M  V30 3139 H 273.298 5.47986 -0.446254 0
M  V30 3140 H 274.523 6.77425 -0.476716 0
M  V30 3141 H 272.469 6.32973 1.72283 0
M  V30 3142 H 272.386 7.54416 0.489123 0
M  V30 3143 H 273.654 7.61262 1.67632 0
M  V30 3144 N 277.883 0.443576 1.51229 0
M  V30 3145 C 278.815 -0.400608 2.25672 0
M  V30 3146 C 279.828 -0.980945 1.29928 0
M  V30 3147 O 281.017 -0.874024 1.55638 0
M  V30 3148 C 278.117 -1.57304 3.00181 0
M  V30 3149 C 277.29 -1.11046 4.23069 0
M  V30 3150 C 276.349 -2.15374 4.80105 0
M  V30 3151 O 275.375 -1.74554 5.41774 0
M  V30 3152 N 276.577 -3.47922 4.64683 0
M  V30 3153 H 279.342 0.23745 2.98758 0
M  V30 3154 H 276.903 0.272809 1.59585 0
M  V30 3155 H 278.895 -2.26733 3.35223 0
M  V30 3156 H 277.465 -2.11632 2.30066 0
M  V30 3157 H 276.685 -0.243019 3.9345 0
M  V30 3158 H 277.973 -0.778888 5.02803 0
M  V30 3159 H 277.371 -3.83815 4.15575 0
M  V30 3160 H 275.928 -4.13228 5.0407 0
M  V30 3161 N 279.361 -1.56624 0.175154 0
M  V30 3162 C 280.638 -1.88688 -0.515373 0
M  V30 3163 C 281.018 -1.08564 -1.81044 0
M  V30 3164 O 280.366 -0.180703 -2.27784 0
M  V30 3165 C 280.576 -3.40768 -0.753552 0
M  V30 3166 C 281.924 -4.10587 -1.08184 0
M  V30 3167 O 282.948 -3.46106 -0.841961 0
M  V30 3168 O 281.807 -5.24512 -1.53459 0
M  V30 3169 H 278.901 -0.78301 -0.26613 0
M  V30 3170 H 281.447 -1.68347 0.213877 0
M  V30 3171 H 280.219 -3.90965 0.161829 0
M  V30 3172 H 279.842 -3.66733 -1.53598 0
M  V30 3173 N 280.839 0.0985539 -1.57292 0
M  V30 3174 C 282.067 0.816318 -1.90115 0
M  V30 3175 C 282.482 1.72451 -0.768509 0
M  V30 3176 O 281.839 1.80643 0.259687 0
M  V30 3177 C 281.89 1.63259 -3.22535 0
M  V30 3178 O 281.611 0.760934 -4.31441 0
M  V30 3179 C 283.112 2.45372 -3.69199 0
M  V30 3180 H 280.332 0.233595 -0.629027 0
M  V30 3181 H 282.876 0.0768229 -2.04356 0
M  V30 3182 H 281.031 2.32463 -3.09903 0
M  V30 3183 H 281.445 1.32595 -5.07463 0
M  V30 3184 H 282.919 2.98144 -4.64558 0
M  V30 3185 H 283.396 3.23677 -2.96867 0
M  V30 3186 H 284.002 1.81373 -3.84687 0
M  V30 3187 N 282.317 1.53212 0.369288 0
M  V30 3188 C 283.565 1.68881 1.11012 0
M  V30 3189 C 283.886 0.441285 1.89941 0
M  V30 3190 O 283.156 -0.544623 1.88177 0
M  V30 3191 H 281.736 0.622569 0.412816 0
M  V30 3192 H 284.398 1.90391 0.416802 0
M  V30 3193 H 283.494 2.54822 1.80201 0
M  V30 3194 N 283.795 -0.628877 1.44509 0
M  V30 3195 C 285.211 -0.947305 1.28446 0
M  V30 3196 C 285.411 -2.00275 0.221872 0
M  V30 3197 O 284.467 -2.49447 -0.391471 0
M  V30 3198 C 285.78 -1.40843 2.65676 0
M  V30 3199 C 287.328 -1.52379 2.73404 0
M  V30 3200 C 287.803 -2.01875 4.11109 0
M  V30 3201 N 289.294 -2.09142 4.13296 0
M  V30 3202 C 290.029 -2.48615 5.16699 0
M  V30 3203 N 289.525 -2.87209 6.30462 0
M  V30 3204 N 291.318 -2.48768 5.04054 0
M  V30 3205 H 283.469 0.0690977 2.12288 0
M  V30 3206 H 285.732 -0.0317164 0.947469 0
M  V30 3207 H 285.438 -0.707206 3.44516 0
M  V30 3208 H 285.312 -2.37902 2.92716 0
M  V30 3209 H 287.699 -2.21598 1.9488 0
M  V30 3210 H 287.78 -0.536898 2.50102 0
M  V30 3211 H 287.424 -1.3325 4.90109 0
M  V30 3212 H 287.354 -3.0144 4.31789 0
M  V30 3213 H 289.845 -1.81991 3.31191 0
M  V30 3214 H 290.158 -3.16149 7.05174 0
M  V30 3215 H 288.503 -2.84955 6.33897 0
M  V30 3216 H 291.694 -2.18009 4.14234 0
M  V30 3217 H 291.867 -2.79207 5.84763 0
M  V30 3218 N 285.273 -1.31445 -0.869486 0
M  V30 3219 C 286.501 -1.24122 -1.65534 0
M  V30 3220 C 286.916 0.193387 -1.87807 0
M  V30 3221 O 286.273 1.12557 -1.43656 0
M  V30 3222 C 286.324 -1.98229 -3.02304 0
M  V30 3223 O 286.045 -3.3609 -2.81026 0
M  V30 3224 C 287.546 -1.97751 -3.96749 0
M  V30 3225 H 284.766 -0.428868 -0.516055 0
M  V30 3226 H 287.31 -1.73328 -1.08525 0
M  V30 3227 H 285.465 -1.52782 -3.56001 0
M  V30 3228 H 285.879 -3.7383 -3.67902 0
M  V30 3229 H 287.353 -2.54114 -4.90031 0
M  V30 3230 H 287.83 -0.960137 -4.28577 0
M  V30 3231 H 288.436 -2.43079 -3.48988 0
M  V30 3232 N 286.751 1.08385 -1.14413 0
M  V30 3233 C 288 1.80153 -0.907076 0
M  V30 3234 C 288.313 1.87176 0.567851 0
M  V30 3235 O 289.519 2.55359 0.922172 0
M  V30 3236 C 287.975 3.23687 -1.57336 0
M  V30 3237 C 287.583 3.24897 -3.08457 0
M  V30 3238 C 289.327 4.00136 -1.41744 0
M  V30 3239 C 287.234 4.6302 -3.67921 0
M  V30 3240 H 286.164 0.675139 -0.335714 0
M  V30 3241 H 288.815 1.21733 -1.37307 0
M  V30 3242 H 287.197 3.82234 -1.03505 0
M  V30 3243 H 288.371 2.76055 -3.68958 0
M  V30 3244 H 286.686 2.61943 -3.2369 0
M  V30 3245 H 289.283 5.02201 -1.83572 0
M  V30 3246 H 289.626 4.14709 -0.363576 0
M  V30 3247 H 290.159 3.48058 -1.92614 0
M  V30 3248 H 286.898 4.5365 -4.73161 0
M  V30 3249 H 286.418 5.12143 -3.12201 0
M  V30 3250 H 288.097 5.31994 -3.68227 0
M  V30 3251 N 288.23 0.939286 1.26551 0
M  V30 3252 C 289.14 0.453432 2.30176 0
M  V30 3253 C 290.156 -0.471649 1.67486 0
M  V30 3254 O 291.332 -0.35164 1.98306 0
M  V30 3255 C 288.397 -0.275326 3.45605 0
M  V30 3256 C 287.458 0.686084 4.23782 0
M  V30 3257 C 286.691 -0.00798994 5.33699 0
M  V30 3258 O 286.914 -1.22528 5.57085 0
M  V30 3259 O 285.848 0.669746 5.98162 0
M  V30 3260 H 289.674 1.31416 2.73795 0
M  V30 3261 H 287.259 0.705095 1.31715 0
M  V30 3262 H 289.141 -0.685911 4.1578 0
M  V30 3263 H 287.816 -1.11147 3.0402 0
M  V30 3264 H 286.723 1.14658 3.56096 0
M  V30 3265 H 288.056 1.48979 4.69112 0
M  V30 3266 N 289.708 -1.40897 0.706093 0
M  V30 3267 C 290.655 -2.30751 0.0474474 0
M  V30 3268 C 291.625 -1.47678 -0.76029 0
M  V30 3269 O 292.81 -1.76441 -0.726177 0
M  V30 3270 C 289.95 -3.33815 -0.875309 0
M  V30 3271 C 289.063 -4.31961 -0.0580623 0
M  V30 3272 C 288.198 -5.22093 -0.979425 0
M  V30 3273 C 287.237 -6.11902 -0.155706 0
M  V30 3274 N 286.374 -6.94482 -1.03144 0
M  V30 3275 H 291.214 -2.86513 0.819413 0
M  V30 3276 H 288.751 -1.41102 0.415783 0
M  V30 3277 H 290.709 -3.92129 -1.42446 0
M  V30 3278 H 289.339 -2.79579 -1.61356 0
M  V30 3279 H 288.391 -3.75507 0.608147 0
M  V30 3280 H 289.703 -4.95415 0.580082 0
M  V30 3281 H 288.857 -5.85292 -1.59744 0
M  V30 3282 H 287.596 -4.5889 -1.65141 0
M  V30 3283 H 286.601 -5.47742 0.475309 0
M  V30 3284 H 287.826 -6.77162 0.512635 0
M  V30 3285 H 285.772 -6.33877 -1.68924 0
M  V30 3286 H 285.689 -7.54665 -0.449108 0
M  V30 3287 H 286.957 -7.6214 -1.63593 0
M  V30 3288 N 291.186 -0.45159 -1.50991 0
M  V30 3289 C 292.435 0.111653 -2.01391 0
M  V30 3290 C 292.748 1.42529 -1.33959 0
M  V30 3291 O 293.954 2.07232 -1.75405 0
M  V30 3292 C 292.41 0.249514 -3.59034 0
M  V30 3293 C 292.018 -1.05453 -4.35412 0
M  V30 3294 C 293.762 0.765762 -4.17536 0
M  V30 3295 C 291.669 -0.881529 -5.84793 0
M  V30 3296 H 290.599 0.0455022 -0.752626 0
M  V30 3297 H 293.25 -0.583524 -1.73975 0
M  V30 3298 H 291.632 1.00803 -3.82955 0
M  V30 3299 H 292.806 -1.82248 -4.23229 0
M  V30 3300 H 291.121 -1.50039 -3.88429 0
M  V30 3301 H 293.718 0.911913 -5.26866 0
M  V30 3302 H 294.061 1.75201 -3.77638 0
M  V30 3303 H 294.594 0.0651744 -3.97747 0
M  V30 3304 H 291.333 -1.84057 -6.29129 0
M  V30 3305 H 290.853 -0.153625 -5.99603 0
M  V30 3306 H 292.532 -0.540363 -6.4474 0
M  V30 3307 N 292.664 1.56529 -0.183458 0
M  V30 3308 C 293.904 1.99141 0.460667 0
M  V30 3309 C 294.268 1.06736 1.59597 0
M  V30 3310 O 295.469 1.38538 2.30349 0
M  V30 3311 C 293.74 3.45358 0.919939 0
M  V30 3312 S 295.299 4.09999 1.56354 0
M  V30 3313 H 292.117 0.695479 0.147748 0
M  V30 3314 H 294.719 1.93429 -0.283782 0
M  V30 3315 H 293.423 4.10315 0.0834208 0
M  V30 3316 H 292.954 3.54862 1.69814 0
M  V30 3317 H 294.969 4.06046 2.85203 0
M  V30 3318 N 294.142 -0.090211 1.57342 0
M  V30 3319 C 295.074 -1.13541 1.99101 0
M  V30 3320 C 296.087 -1.3604 0.894258 0
M  V30 3321 O 297.276 -1.34606 1.17233 0
M  V30 3322 C 294.376 -2.49001 2.29895 0
M  V30 3323 C 293.549 -2.46712 3.61182 0
M  V30 3324 C 292.608 -3.64136 3.79857 0
M  V30 3325 O 291.634 -3.46405 4.51655 0
M  V30 3326 N 292.836 -4.83802 3.20806 0
M  V30 3327 H 295.601 -0.779942 2.89373 0
M  V30 3328 H 293.162 -0.279125 1.59476 0
M  V30 3329 H 295.154 -3.26166 2.39578 0
M  V30 3330 H 293.724 -2.76619 1.45605 0
M  V30 3331 H 292.944 -1.55058 3.62423 0
M  V30 3332 H 294.232 -2.42265 4.4742 0
M  V30 3333 H 293.63 -5.01112 2.62494 0
M  V30 3334 H 292.187 -5.58543 3.35966 0
M  V30 3335 N 295.62 -1.53406 -0.361157 0
M  V30 3336 C 296.867 -1.69802 -1.10333 0
M  V30 3337 C 297.195 -0.452087 -1.89173 0
M  V30 3338 O 296.45 0.566017 -1.87336 0
M  V30 3339 C 296.749 -2.90211 -2.08596 0
M  V30 3340 C 296.415 -4.26539 -1.46203 0
M  V30 3341 C 295.077 -4.6361 -1.28915 0
M  V30 3342 C 297.429 -5.113 -1.01101 0
M  V30 3343 C 294.757 -5.83075 -0.651157 0
M  V30 3344 C 297.109 -6.31415 -0.387007 0
M  V30 3345 C 295.773 -6.67195 -0.201657 0
M  V30 3346 H 295.043 -0.621351 -0.403737 0
M  V30 3347 H 297.69 -1.87598 -0.384609 0
M  V30 3348 H 295.995 -2.66946 -2.86788 0
M  V30 3349 H 297.692 -3.00091 -2.65982 0
M  V30 3350 H 294.282 -3.97352 -1.60653 0
M  V30 3351 H 298.466 -4.83206 -1.13249 0
M  V30 3352 H 293.722 -6.09385 -0.496006 0
M  V30 3353 H 297.896 -6.96394 -0.0293563 0
M  V30 3354 H 295.523 -7.59628 0.294766 0
M  V30 3355 N 297.098 0.621204 -1.44841 0
M  V30 3356 C 298.028 1.74366 -1.55303 0
M  V30 3357 C 299.009 1.65199 -0.405385 0
M  V30 3358 O 300.194 1.83807 -0.626787 0
M  V30 3359 C 297.324 3.12931 -1.50637 0
M  V30 3360 C 296.278 3.36896 -2.63979 0
M  V30 3361 C 295.604 4.75594 -2.44366 0
M  V30 3362 C 296.904 3.28483 -4.06074 0
M  V30 3363 H 298.598 1.65867 -2.49256 0
M  V30 3364 H 296.144 0.796558 -1.19962 0
M  V30 3365 H 298.097 3.9124 -1.56555 0
M  V30 3366 H 296.821 3.22237 -0.532057 0
M  V30 3367 H 295.48 2.60972 -2.57467 0
M  V30 3368 H 295.128 4.81616 -1.45105 0
M  V30 3369 H 294.828 4.92586 -3.20364 0
M  V30 3370 H 296.352 5.5612 -2.52117 0
M  V30 3371 H 297.766 3.96684 -4.13902 0
M  V30 3372 H 296.163 3.57008 -4.82354 0
M  V30 3373 H 297.233 2.26133 -4.28943 0
M  V30 3374 N 298.576 1.31904 0.862503 0
M  V30 3375 C 299.824 1.21776 1.61292 0
M  V30 3376 C 300.145 -0.222413 1.93727 0
M  V30 3377 O 299.415 -1.1451 1.58947 0
M  V30 3378 H 297.995 0.447717 0.597962 0
M  V30 3379 H 300.657 1.65326 1.03215 0
M  V30 3380 H 299.753 1.7948 2.5533 0
M  V30 3381 N 300.054 -1.07777 1.14986 0
M  V30 3382 C 301.001 -2.14867 0.842672 0
M  V30 3383 C 301.971 -1.6486 -0.202552 0
M  V30 3384 O 303.156 -1.90668 -0.0710568 0
M  V30 3385 C 300.296 -3.43486 0.333363 0
M  V30 3386 C 299.409 -4.07306 1.43965 0
M  V30 3387 C 298.544 -5.23744 0.886914 0
M  V30 3388 C 297.583 -5.79517 1.97043 0
M  V30 3389 N 296.72 -6.87291 1.4344 0
M  V30 3390 H 301.56 -2.40485 1.75986 0
M  V30 3391 H 299.097 -1.1801 0.878179 0
M  V30 3392 H 301.055 -4.17195 0.0198163 0
M  V30 3393 H 299.685 -3.18133 -0.546916 0
M  V30 3394 H 298.737 -3.31293 1.86946 0
M  V30 3395 H 300.049 -4.44771 2.25788 0
M  V30 3396 H 299.203 -6.04419 0.525651 0
M  V30 3397 H 297.942 -4.87685 0.0377957 0
M  V30 3398 H 296.947 -4.97491 2.34057 0
M  V30 3399 H 298.172 -6.17632 2.82325 0
M  V30 3400 H 296.118 -6.5318 0.607567 0
M  V30 3401 H 296.035 -7.23617 2.18895 0
M  V30 3402 H 297.303 -7.71682 1.10124 0
M  V30 3403 N 301.532 -0.945985 -1.26051 0
M  V30 3404 C 302.76 -0.613025 -1.9761 0
M  V30 3405 C 303.175 0.813035 -1.70397 0
M  V30 3406 O 302.532 1.54274 -0.974979 0
M  V30 3407 C 302.583 -0.85159 -3.51326 0
M  V30 3408 O 302.304 -2.22157 -3.77595 0
M  V30 3409 C 303.805 -0.529831 -4.40122 0
M  V30 3410 H 301.025 -0.230593 -0.630133 0
M  V30 3411 H 303.569 -1.268 -1.60443 0
M  V30 3412 H 301.724 -0.243151 -3.86636 0
M  V30 3413 H 302.138 -2.2852 -4.721 0
M  V30 3414 H 303.612 -0.747348 -5.46917 0
M  V30 3415 H 304.089 0.535341 -4.35925 0
M  V30 3416 H 304.695 -1.11721 -4.10364 0
M  V30 3417 N 303.011 1.40521 -0.713556 0
M  V30 3418 C 303.941 2.33381 -0.0743864 0
M  V30 3419 C 304.922 1.52784 0.747735 0
M  V30 3420 O 306.107 1.81258 0.697071 0
M  V30 3421 C 303.237 3.36748 0.849598 0
M  V30 3422 C 302.191 4.27793 0.133247 0
M  V30 3423 C 301.517 5.21679 1.17281 0
M  V30 3424 C 302.817 5.12415 -1.01134 0
M  V30 3425 H 304.511 2.87081 -0.850007 0
M  V30 3426 H 302.057 1.38034 -0.410201 0
M  V30 3427 H 304.01 4.00648 1.30612 0
M  V30 3428 H 302.734 2.81439 1.65709 0
M  V30 3429 H 301.393 3.65342 -0.303426 0
M  V30 3430 H 301.041 4.62677 1.9733 0
M  V30 3431 H 300.741 5.83435 0.698397 0
M  V30 3432 H 302.265 5.88456 1.62947 0
M  V30 3433 H 303.679 5.69781 -0.634274 0
M  V30 3434 H 302.076 5.83203 -1.41399 0
M  V30 3435 H 303.146 4.48514 -1.84292 0
M  V30 3436 N 304.489 0.459591 1.5075 0
M  V30 3437 C 305.399 -0.34613 2.32033 0
M  V30 3438 C 306.415 -1.00686 1.41909 0
M  V30 3439 O 307.591 -0.997361 1.7497 0
M  V30 3440 C 304.656 -1.42029 3.16273 0
M  V30 3441 C 303.717 -0.777362 4.22203 0
M  V30 3442 C 302.95 -1.80034 5.02418 0
M  V30 3443 O 303.173 -3.02544 4.83553 0
M  V30 3444 O 302.107 -1.37853 5.85901 0
M  V30 3445 H 305.933 0.318054 3.0203 0
M  V30 3446 H 303.518 0.221663 1.47746 0
M  V30 3447 H 305.4 -2.04275 3.68578 0
M  V30 3448 H 304.075 -2.06815 2.49016 0
M  V30 3449 H 302.982 -0.116256 3.73919 0
M  V30 3450 H 304.315 -0.172634 4.91897 0
M  V30 3451 N 305.967 -1.56429 0.191757 0
M  V30 3452 C 307.378 -1.83912 -0.321428 0
M  V30 3453 C 307.729 -1.11231 -1.61623 0
M  V30 3454 O 306.854 -0.37202 -2.13178 0
M  V30 3455 C 307.449 -3.33624 -0.589961 0
M  V30 3456 C 306.008 -3.6153 -1.04753 0
M  V30 3457 C 305.155 -2.7714 -0.0943327 0
M  V30 3458 H 308.106 -1.53161 0.415612 0
M  V30 3459 H 308.127 -3.52213 -1.43966 0
M  V30 3460 H 307.639 -3.86495 0.352588 0
M  V30 3461 H 305.74 -3.14089 -2.00447 0
M  V30 3462 H 305.853 -4.69737 -0.942549 0
M  V30 3463 H 304.217 -2.47638 -0.595589 0
M  V30 3464 H 305 -3.32799 0.842601 0
M  V30 3465 N 307.445 0.0818655 -1.57387 0
M  V30 3466 C 308.355 1.11642 -2.06333 0
M  V30 3467 C 309.371 1.43033 -0.99083 0
M  V30 3468 O 310.547 1.53411 -1.30488 0
M  V30 3469 C 307.612 2.41342 -2.48907 0
M  V30 3470 C 306.673 2.17014 -3.7041 0
M  V30 3471 C 305.906 3.4053 -4.10944 0
M  V30 3472 O 306.129 4.4927 -3.51444 0
M  V30 3473 O 305.063 3.29336 -5.03807 0
M  V30 3474 H 308.889 0.730657 -2.9478 0
M  V30 3475 H 306.474 0.295301 -1.46452 0
M  V30 3476 H 308.356 3.17691 -2.76858 0
M  V30 3477 H 307.031 2.79319 -1.63593 0
M  V30 3478 H 305.938 1.38403 -3.47556 0
M  V30 3479 H 307.271 1.83923 -4.56545 0
M  V30 3480 N 308.923 1.53595 0.353017 0
M  V30 3481 C 309.833 1.83897 1.45667 0
M  V30 3482 C 310.849 0.728334 1.58023 0
M  V30 3483 O 312.025 1.01968 1.73679 0
M  V30 3484 C 309.09 2.03383 2.80778 0
M  V30 3485 C 308.151 3.27262 2.77845 0
M  V30 3486 C 307.384 3.45809 4.06512 0
M  V30 3487 O 307.607 2.68387 5.03314 0
M  V30 3488 O 306.541 4.39207 4.11559 0
M  V30 3489 H 310.367 2.77686 1.2298 0
M  V30 3490 H 307.952 1.39132 0.544308 0
M  V30 3491 H 309.834 2.17698 3.60812 0
M  V30 3492 H 308.509 1.12783 3.03417 0
M  V30 3493 H 307.416 3.18359 1.96465 0
M  V30 3494 H 308.749 4.17824 2.60161 0
M  V30 3495 N 310.401 -0.613514 1.45168 0
M  V30 3496 C 311.331 -1.7354 1.56225 0
M  V30 3497 C 312.312 -1.64981 0.41414 0
M  V30 3498 O 313.497 -1.83472 0.636526 0
M  V30 3499 C 310.627 -3.12128 1.52295 0
M  V30 3500 C 309.581 -3.35491 2.65762 0
M  V30 3501 C 308.907 -4.74291 2.46885 0
M  V30 3502 C 310.207 -3.26325 4.0781 0
M  V30 3503 H 311.901 -1.64543 2.50132 0
M  V30 3504 H 309.447 -0.790185 1.20383 0
M  V30 3505 H 311.4 -3.90404 1.58628 0
M  V30 3506 H 310.124 -3.2195 0.549139 0
M  V30 3507 H 308.783 -2.59603 2.58847 0
M  V30 3508 H 308.431 -4.80839 1.47657 0
M  V30 3509 H 308.131 -4.9088 3.22972 0
M  V30 3510 H 309.655 -5.54775 2.55063 0
M  V30 3511 H 311.069 -3.94483 4.16 0
M  V30 3512 H 309.466 -3.54445 4.8424 0
M  V30 3513 H 310.536 -2.23855 4.30136 0
M  V30 3514 N 311.879 -1.3236 -0.855495 0
M  V30 3515 C 312.827 -1.2118 -1.9854 0
M  V30 3516 C 313.821 -0.116788 -1.68997 0
M  V30 3517 O 315.027 -0.279657 -1.77814 0
M  V30 3518 H 311.402 -0.375608 -0.651477 0
M  V30 3519 H 313.373 -2.16743 -2.05098 0
M  V30 3520 C 312.122 -0.950849 -3.34446 0
M  V30 3521 H 311.445 -1.78563 -3.57708 0
M  V30 3522 H 312.885 -0.912863 -4.14057 0
M  V30 3523 C 311.344 0.346404 -3.35114 0
M  V30 3524 O 311.874 1.35855 -3.7803 0
M  V30 3525 N 310.08 0.36808 -2.88259 0
M  V30 3526 H 309.627 -0.456102 -2.5353 0
M  V30 3527 H 309.585 1.23591 -2.89089 0
M  V30 3528 N 313.357 1.07166 -1.15556 0
M  V30 3529 C 314.287 2.16403 -0.877046 0
M  V30 3530 C 315.268 1.69217 0.173111 0
M  V30 3531 O 316.453 1.94181 0.027084 0
M  V30 3532 C 313.583 3.45349 -0.367632 0
M  V30 3533 C 312.537 4.05995 -1.35468 0
M  V30 3534 C 311.863 5.30045 -0.704038 0
M  V30 3535 C 313.163 4.45804 -2.72132 0
M  V30 3536 H 314.857 2.39959 -1.79053 0
M  V30 3537 H 312.403 1.15325 -0.862331 0
M  V30 3538 H 314.356 4.21095 -0.160317 0
M  V30 3539 H 313.08 3.21385 0.581326 0
M  V30 3540 H 311.739 3.32296 -1.54839 0
M  V30 3541 H 311.387 5.02373 0.251128 0
M  V30 3542 H 311.087 5.71579 -1.36277 0
M  V30 3543 H 312.611 6.08495 -0.50654 0
M  V30 3544 H 314.025 5.12671 -2.56595 0
M  V30 3545 H 312.422 4.98296 -3.34397 0
M  V30 3546 H 313.492 3.57083 -3.28054 0
M  V30 3547 N 314.835 0.952656 1.25548 0
M  V30 3548 C 316.084 0.602053 1.92505 0
M  V30 3549 C 316.397 -0.864663 1.75451 0
M  V30 3550 O 317.603 -1.32514 2.36965 0
M  V30 3551 C 316.059 1.02607 3.44963 0
M  V30 3552 C 315.667 2.51519 3.70732 0
M  V30 3553 C 317.411 0.747905 4.1786 0
M  V30 3554 C 315.318 2.87732 5.16686 0
M  V30 3555 H 314.248 0.22146 0.720744 0
M  V30 3556 H 316.899 1.15684 1.42441 0
M  V30 3557 H 315.281 0.399712 3.93978 0
M  V30 3558 H 316.455 3.19157 3.32378 0
M  V30 3559 H 314.77 2.76786 3.11092 0
M  V30 3560 H 317.367 0.994647 5.25367 0
M  V30 3561 H 317.71 -0.315629 4.15102 0
M  V30 3562 H 318.243 1.33452 3.74747 0
M  V30 3563 H 314.982 3.93095 5.24554 0
M  V30 3564 H 314.502 2.24765 5.56094 0
M  V30 3565 H 316.181 2.76817 5.84792 0
M  V30 3566 N 316.313 -1.40141 0.720998 0
M  V30 3567 C 317.243 -2.33339 0.0867621 0
M  V30 3568 C 318.224 -1.53178 -0.739622 0
M  V30 3569 O 319.409 -1.81625 -0.687449 0
M  V30 3570 C 316.539 -3.37194 -0.831728 0
M  V30 3571 C 315.493 -4.27857 -0.110558 0
M  V30 3572 C 314.819 -5.22294 -1.14513 0
M  V30 3573 C 316.119 -5.11872 1.0385 0
M  V30 3574 H 317.813 -2.86626 0.865219 0
M  V30 3575 H 315.359 -1.37814 0.417516 0
M  V30 3576 H 317.312 -4.01335 -1.28485 0
M  V30 3577 H 316.036 -2.82314 -1.64214 0
M  V30 3578 H 314.695 -3.65176 0.322797 0
M  V30 3579 H 314.343 -4.63717 -1.94874 0
M  V30 3580 H 314.043 -5.83797 -0.667446 0
M  V30 3581 H 315.567 -5.89312 -1.59824 0
M  V30 3582 H 316.981 -5.69436 0.664482 0
M  V30 3583 H 315.378 -5.82445 1.4449 0
M  V30 3584 H 316.448 -4.4753 1.86668 0
M  V30 3585 N 317.792 -0.46758 -1.50504 0
M  V30 3586 C 318.739 0.328413 -2.28452 0
M  V30 3587 C 319.709 0.990313 -1.33349 0
M  V30 3588 O 320.894 1.00343 -1.62284 0
M  V30 3589 C 318.034 1.40648 -3.15138 0
M  V30 3590 C 317.147 0.759709 -4.25267 0
M  V30 3591 C 316.282 1.81537 -4.99217 0
M  V30 3592 C 315.321 1.14866 -6.01226 0
M  V30 3593 N 314.458 2.14702 -6.68467 0
M  V30 3594 H 319.298 -0.342603 -2.96024 0
M  V30 3595 H 316.835 -0.180801 -1.45985 0
M  V30 3596 H 318.793 2.04315 -3.63746 0
M  V30 3597 H 317.423 2.04671 -2.49619 0
M  V30 3598 H 316.475 0.0105671 -3.80399 0
M  V30 3599 H 317.787 0.233243 -4.98254 0
M  V30 3600 H 316.941 2.52793 -5.51526 0
M  V30 3601 H 315.68 2.37564 -4.25928 0
M  V30 3602 H 314.685 0.42171 -5.4818 0
M  V30 3603 H 315.91 0.595334 -6.76485 0
M  V30 3604 H 313.856 2.69752 -5.97972 0
M  V30 3605 H 313.773 1.6703 -7.37317 0
M  V30 3606 H 315.041 2.85348 -7.25394 0
M  V30 3607 N 319.27 1.56325 -0.20005 0
M  V30 3608 C 320.218 2.20666 0.735482 0
M  V30 3609 C 321.212 1.17934 1.21605 0
M  V30 3610 O 322.418 1.36068 1.17837 0
M  V30 3611 H 318.793 0.70725 0.255542 0
M  V30 3612 H 320.764 2.9792 0.169166 0
M  V30 3613 C 319.513 2.88391 1.94232 0
M  V30 3614 H 318.836 3.67185 1.58161 0
M  V30 3615 H 320.276 3.3684 2.57517 0
M  V30 3616 C 318.735 1.89692 2.78421 0
M  V30 3617 O 319.265 1.40032 3.76502 0
M  V30 3618 N 317.471 1.57813 2.44015 0
M  V30 3619 H 317.018 1.9839 1.64314 0
M  V30 3620 H 316.976 0.920325 3.00628 0
M  V30 3621 N 320.748 -0.0735177 1.57428 0
M  V30 3622 C 321.973 -0.789787 1.91774 0
M  V30 3623 C 322.398 -1.70413 0.796306 0
M  V30 3624 O 321.756 -1.79555 -0.250961 0
M  V30 3625 C 321.804 -1.5609 3.25067 0
M  V30 3626 O 320.908 -2.67144 3.14178 0
M  V30 3627 H 320.249 -0.215582 0.628029 0
M  V30 3628 H 322.779 -0.0422781 2.04556 0
M  V30 3629 H 322.789 -1.94052 3.58898 0
M  V30 3630 H 321.464 -0.890015 4.06265 0
M  V30 3631 H 320.041 -2.32052 2.91901 0
M  V30 3632 N 322.226 -1.5378 -0.344866 0
M  V30 3633 C 323.451 -1.75211 -1.10977 0
M  V30 3634 C 323.876 -0.48936 -1.81623 0
M  V30 3635 O 323.234 0.557925 -1.72502 0
M  V30 3636 C 323.282 -2.93147 -2.09993 0
M  V30 3637 O 322.386 -2.63203 -3.17487 0
M  V30 3638 H 321.727 -0.581241 -0.321021 0
M  V30 3639 H 324.257 -2.00738 -0.395661 0
M  V30 3640 H 324.267 -3.19898 -2.53237 0
M  V30 3641 H 322.942 -3.84731 -1.5797 0
M  V30 3642 H 321.519 -2.47336 -2.79069 0
M  V30 3643 N 323.704 0.605807 -1.45491 0
M  V30 3644 C 324.951 1.36476 -1.49601 0
M  V30 3645 C 325.279 1.94007 -0.138452 0
M  V30 3646 O 324.534 1.75638 0.863114 0
M  V30 3647 C 324.833 2.53012 -2.52428 0
M  V30 3648 C 324.499 2.13617 -3.97087 0
M  V30 3649 C 323.161 2.02587 -4.36477 0
M  V30 3650 C 325.513 1.82899 -4.88055 0
M  V30 3651 C 322.841 1.59064 -5.64726 0
M  V30 3652 C 325.193 1.40861 -6.16718 0
M  V30 3653 C 323.857 1.28391 -6.55036 0
M  V30 3654 H 323.127 0.499402 -0.547429 0
M  V30 3655 H 325.774 0.684546 -1.78847 0
M  V30 3656 H 324.079 3.26379 -2.16758 0
M  V30 3657 H 325.776 3.1124 -2.52845 0
M  V30 3658 H 322.366 2.23129 -3.65939 0
M  V30 3659 H 326.55 1.90317 -4.58359 0
M  V30 3660 H 321.806 1.48034 -5.93208 0
M  V30 3661 H 325.98 1.16138 -6.86648 0
M  V30 3662 H 323.607 0.944403 -7.54311 0
M  V30 3663 N 325.182 1.32811 0.848464 0
M  V30 3664 C 326.114 1.18095 1.96433 0
M  V30 3665 C 327.127 0.114354 1.62398 0
M  V30 3666 O 328.316 0.363892 1.74751 0
M  V30 3667 C 325.416 0.786798 3.2964 0
M  V30 3668 C 324.589 1.943 3.91875 0
M  V30 3669 C 323.648 1.53138 5.03423 0
M  V30 3670 O 322.674 2.24432 5.23086 0
M  V30 3671 N 323.876 0.430915 5.78898 0
M  V30 3672 H 326.641 2.14218 2.09597 0
M  V30 3673 H 324.202 1.2543 1.02367 0
M  V30 3674 H 326.194 0.493715 4.01677 0
M  V30 3675 H 324.764 -0.0834541 3.12489 0
M  V30 3676 H 323.984 2.40224 3.12547 0
M  V30 3677 H 325.272 2.71689 4.30189 0
M  V30 3678 H 324.67 -0.162333 5.65467 0
M  V30 3679 H 323.227 0.197466 6.51501 0
M  V30 3680 N 326.66 -1.06551 1.16123 0
M  V30 3681 C 327.885 -1.83544 0.965735 0
M  V30 3682 C 328.31 -1.81843 -0.481102 0
M  V30 3683 O 327.668 -1.21732 -1.34354 0
M  V30 3684 C 327.716 -3.28169 1.49457 0
M  V30 3685 O 326.82 -4.0643 0.699157 0
M  V30 3686 H 326.161 -0.568026 0.343864 0
M  V30 3687 H 328.691 -1.34362 1.54299 0
M  V30 3688 H 328.701 -3.78992 1.51092 0
M  V30 3689 H 327.376 -3.28722 2.54784 0
M  V30 3690 H 325.953 -3.65216 0.7531 0
M  V30 3691 N 328.138 -0.959301 -1.25041 0
M  V30 3692 C 329.071 -0.427418 -2.24161 0
M  V30 3693 C 330.049 0.493837 -1.54919 0
M  V30 3694 O 331.233 0.427144 -1.83597 0
M  V30 3695 C 328.36 0.383893 -3.36517 0
M  V30 3696 C 327.406 -0.478431 -4.23808 0
M  V30 3697 S 328.239 -1.91353 -5.00144 0
M  V30 3698 C 329.395 -1.11077 -6.15965 0
M  V30 3699 H 329.628 -1.26743 -2.6893 0
M  V30 3700 H 327.161 -0.763714 -1.34189 0
M  V30 3701 H 329.119 0.846039 -4.01687 0
M  V30 3702 H 327.78 1.19878 -2.90324 0
M  V30 3703 H 326.973 0.14406 -5.03794 0
M  V30 3704 H 326.575 -0.87597 -3.63597 0
M  V30 3705 H 328.867 -0.361699 -6.76534 0
M  V30 3706 H 329.81 -1.88472 -6.82557 0
M  V30 3707 H 330.218 -0.638843 -5.60873 0
M  V30 3708 N 329.616 1.39756 -0.72842 0
M  V30 3709 C 330.563 2.30647 -0.0841519 0
M  V30 3710 C 331.533 1.48869 0.7367 0
M  V30 3711 O 332.718 1.77574 0.698015 0
M  V30 3712 C 329.858 3.35165 0.822091 0
M  V30 3713 C 328.971 4.31999 -0.0106663 0
M  V30 3714 C 328.106 5.23585 0.896241 0
M  V30 3715 C 327.145 6.12072 0.0583381 0
M  V30 3716 N 326.282 6.96035 0.920818 0
M  V30 3717 H 331.122 2.85173 -0.864891 0
M  V30 3718 H 328.659 1.40422 -0.438179 0
M  V30 3719 H 330.617 3.94345 1.36189 0
M  V30 3720 H 329.247 2.8211 1.56888 0
M  V30 3721 H 328.299 3.74492 -0.66781 0
M  V30 3722 H 329.611 4.9443 -0.658825 0
M  V30 3723 H 328.765 5.87759 1.50412 0
M  V30 3724 H 327.504 4.61459 1.57819 0
M  V30 3725 H 326.509 5.46916 -0.562389 0
M  V30 3726 H 327.734 6.76261 -0.6203 0
M  V30 3727 H 325.68 6.36485 1.58818 0
M  V30 3728 H 325.597 7.55284 0.32899 0
M  V30 3729 H 326.865 7.64646 1.51447 0
M  V30 3730 N 331.094 0.475555 1.50254 0
M  V30 3731 C 332.004 -0.321501 2.32387 0
M  V30 3732 C 333.02 -0.991755 1.42969 0
M  V30 3733 O 334.196 -0.978747 1.76018 0
M  V30 3734 C 331.261 -1.38667 3.17762 0
M  V30 3735 C 330.322 -0.732538 4.23004 0
M  V30 3736 C 329.555 -1.74695 5.04299 0
M  V30 3737 O 329.778 -2.97399 4.86734 0
M  V30 3738 O 328.712 -1.31631 5.8733 0
M  V30 3739 H 332.538 0.350071 3.01676 0
M  V30 3740 H 330.123 0.237321 1.47503 0
M  V30 3741 H 332.005 -2.00354 3.70724 0
M  V30 3742 H 330.68 -2.04163 2.51196 0
M  V30 3743 H 329.587 -0.0765902 3.74022 0
M  V30 3744 H 330.92 -0.120452 4.92053 0
M  V30 3745 N 332.573 -1.56217 0.208337 0
M  V30 3746 C 333.521 -2.21053 -0.723769 0
M  V30 3747 C 334.515 -1.18578 -1.20978 0
M  V30 3748 O 335.721 -1.36691 -1.17114 0
M  V30 3749 H 332.096 -0.708595 -0.251788 0
M  V30 3750 H 334.067 -2.98006 -0.153365 0
M  V30 3751 C 332.816 -2.89417 -1.927 0
M  V30 3752 H 332.139 -3.68019 -1.56212 0
M  V30 3753 H 333.579 -3.38201 -2.55727 0
M  V30 3754 C 332.038 -1.91166 -2.77411 0
M  V30 3755 O 332.568 -1.42026 -3.75754 0
M  V30 3756 N 330.774 -1.59105 -2.43175 0
M  V30 3757 H 330.321 -1.99259 -1.63259 0
M  V30 3758 H 330.279 -0.936255 -3.00136 0
M  V30 3759 N 334.051 0.0651679 -1.57465 0
M  V30 3760 C 334.998 1.07675 -2.04144 0
M  V30 3761 C 335.968 1.38071 -0.923335 0
M  V30 3762 O 337.153 1.49026 -1.19146 0
M  V30 3763 C 334.293 2.38337 -2.49579 0
M  V30 3764 C 333.406 2.14413 -3.75035 0
M  V30 3765 C 332.541 3.38686 -4.09225 0
M  V30 3766 C 331.58 3.10156 -5.27702 0
M  V30 3767 N 330.717 4.26778 -5.57499 0
M  V30 3768 H 335.557 0.671716 -2.90331 0
M  V30 3769 H 333.094 0.3201 -1.43575 0
M  V30 3770 H 335.052 3.14632 -2.73975 0
M  V30 3771 H 333.682 2.7663 -1.6636 0
M  V30 3772 H 332.734 1.2878 -3.57939 0
M  V30 3773 H 334.046 1.89344 -4.61466 0
M  V30 3774 H 333.2 4.23373 -4.34558 0
M  V30 3775 H 331.939 3.66837 -3.21374 0
M  V30 3776 H 330.944 2.23866 -5.02159 0
M  V30 3777 H 332.169 2.8332 -6.17176 0
M  V30 3778 H 330.115 4.54948 -4.72608 0
M  V30 3779 H 330.032 4.05005 -6.38362 0
M  V30 3780 H 331.3 5.12443 -5.87386 0
M  V30 3781 N 335.529 1.53961 0.336706 0
M  V30 3782 C 336.462 1.77255 1.43722 0
M  V30 3783 C 337.44 0.62193 1.50236 0
M  V30 3784 O 338.624 0.857874 1.67847 0
M  V30 3785 C 335.751 1.87733 2.81912 0
M  V30 3786 C 334.797 3.09933 2.92991 0
M  V30 3787 S 335.63 4.68836 2.58753 0
M  V30 3788 C 336.786 4.82202 3.99039 0
M  V30 3789 H 337.019 2.70322 1.23748 0
M  V30 3790 H 334.552 1.44917 0.532777 0
M  V30 3791 H 336.51 1.94455 3.61521 0
M  V30 3792 H 335.171 0.956666 2.99177 0
M  V30 3793 H 334.364 3.1396 3.94265 0
M  V30 3794 H 333.966 3.01472 2.21338 0
M  V30 3795 H 336.258 4.64032 4.9364 0
M  V30 3796 H 337.201 5.84298 4.00002 0
M  V30 3797 H 337.609 4.10604 3.87382 0
M  V30 3798 N 337.007 -0.598083 1.45811 0
M  V30 3799 C 338.232 -1.3881 1.54099 0
M  V30 3800 C 338.657 -1.8726 0.177578 0
M  V30 3801 O 338.015 -1.6069 -0.839541 0
M  V30 3802 C 338.063 -2.56217 2.53743 0
M  V30 3803 O 337.167 -3.5716 2.06182 0
M  V30 3804 H 336.508 -0.414024 0.519115 0
M  V30 3805 H 339.038 -0.726971 1.91249 0
M  V30 3806 H 339.048 -3.03337 2.72856 0
M  V30 3807 H 337.723 -2.20303 3.5276 0
M  V30 3808 H 336.3 -3.16624 1.96987 0
M  V30 3809 N 338.485 -1.33259 -0.841409 0
M  V30 3810 C 339.433 -1.23279 -1.97244 0
M  V30 3811 C 340.427 -0.134706 -1.68864 0
M  V30 3812 O 341.633 -0.298501 -1.77508 0
M  V30 3813 H 338.008 -0.382497 -0.647457 0
M  V30 3814 H 339.979 -2.18906 -2.02787 0
M  V30 3815 C 338.728 -0.986268 -3.33419 0
M  V30 3816 H 338.051 -1.82347 -3.55794 0
M  V30 3817 H 339.491 -0.956728 -4.13065 0
M  V30 3818 C 337.95 0.310842 -3.35463 0
M  V30 3819 O 338.48 1.31838 -3.79449 0
M  V30 3820 N 336.686 0.337485 -2.88634 0
M  V30 3821 H 336.233 -0.482967 -2.53032 0
M  V30 3822 H 336.191 1.20518 -2.90384 0
M  V30 3823 N 339.963 1.05934 -1.16686 0
M  V30 3824 C 341.193 1.82226 -0.973515 0
M  V30 3825 C 341.601 1.8297 0.481532 0
M  V30 3826 O 340.944 1.25009 1.34604 0
M  V30 3827 C 341.006 3.29897 -1.42858 0
M  V30 3828 C 340.67 3.52849 -2.90425 0
M  V30 3829 C 341.667 3.45595 -3.88407 0
M  V30 3830 C 339.352 3.80053 -3.28428 0
M  V30 3831 C 341.346 3.65217 -5.22394 0
M  V30 3832 C 339.033 3.99325 -4.62583 0
M  V30 3833 C 340.031 3.91905 -5.59374 0
M  V30 3834 O 339.719 4.10647 -6.91104 0
M  V30 3835 H 339.451 0.581314 -0.345036 0
M  V30 3836 H 342.005 1.3453 -1.55212 0
M  V30 3837 H 340.235 3.78472 -0.793477 0
M  V30 3838 H 341.924 3.87692 -1.20207 0
M  V30 3839 H 342.69 3.24564 -3.60393 0
M  V30 3840 H 338.569 3.84936 -2.53664 0
M  V30 3841 H 342.113 3.59341 -5.9793 0
M  V30 3842 H 338.01 4.19846 -4.90306 0
M  V30 3843 H 338.778 4.27915 -6.97733 0
M  V30 3844 N 341.441 0.965919 1.2453 0
M  V30 3845 C 342.666 0.643971 1.97149 0
M  V30 3846 C 343.091 -0.779487 1.71189 0
M  V30 3847 O 342.449 -1.5288 0.974553 0
M  V30 3848 C 342.497 0.922557 3.48599 0
M  V30 3849 O 341.601 0.00707672 4.12399 0
M  V30 3850 H 340.942 0.243647 0.617683 0
M  V30 3851 H 343.472 1.29558 1.58353 0
M  V30 3852 H 343.482 0.853373 3.98976 0
M  V30 3853 H 342.157 1.95996 3.66822 0
M  V30 3854 H 340.734 0.12943 3.72675 0
M  V30 3855 N 342.919 -1.39368 0.735821 0
M  V30 3856 C 343.849 -2.33234 0.111506 0
M  V30 3857 C 344.83 -1.53954 -0.723334 0
M  V30 3858 O 346.015 -1.82344 -0.668147 0
M  V30 3859 C 343.145 -3.38057 -0.795917 0
M  V30 3860 C 342.099 -4.2795 -0.065172 0
M  V30 3861 C 341.425 -5.23479 -1.08967 0
M  V30 3862 C 342.725 -5.10741 1.09273 0
M  V30 3863 H 344.419 -2.85692 0.895571 0
M  V30 3864 H 341.965 -1.37364 0.432109 0
M  V30 3865 H 343.918 -4.02675 -1.24221 0
M  V30 3866 H 342.642 -2.8404 -1.61211 0
M  V30 3867 H 341.301 -3.64813 0.361511 0
M  V30 3868 H 340.949 -4.65758 -1.89944 0
M  V30 3869 H 340.649 -5.84472 -0.605489 0
M  V30 3870 H 342.173 -5.90974 -1.53565 0
M  V30 3871 H 343.587 -5.68699 0.724841 0
M  V30 3872 H 341.984 -5.8088 1.50659 0
M  V30 3873 H 343.054 -4.45525 1.91404 0
M  V30 3874 N 344.397 -0.483516 -1.5 0
M  V30 3875 C 345.327 0.293829 -2.31644 0
M  V30 3876 C 346.308 0.978864 -1.39112 0
M  V30 3877 O 347.493 0.973644 -1.68029 0
M  V30 3878 C 344.623 1.36897 -3.19181 0
M  V30 3879 C 343.577 0.804833 -4.20365 0
M  V30 3880 C 342.903 1.9792 -4.96721 0
M  V30 3881 C 344.203 -0.192313 -5.21946 0
M  V30 3882 H 345.897 -0.387616 -2.9688 0
M  V30 3883 H 343.443 -0.187856 -1.42769 0
M  V30 3884 H 345.396 1.92037 -3.751 0
M  V30 3885 H 344.12 2.07936 -2.51853 0
M  V30 3886 H 342.779 0.275319 -3.65565 0
M  V30 3887 H 342.427 2.67686 -4.25856 0
M  V30 3888 H 342.127 1.60789 -5.65173 0
M  V30 3889 H 343.651 2.53526 -5.55479 0
M  V30 3890 H 345.065 0.270333 -5.72662 0
M  V30 3891 H 343.462 -0.478543 -5.98189 0
M  V30 3892 H 344.532 -1.11409 -4.71928 0
M  V30 3893 N 345.875 1.56104 -0.216619 0
M  V30 3894 C 347.1 2.0301 0.424462 0
M  V30 3895 C 347.525 1.0955 1.52907 0
M  V30 3896 O 346.883 0.0827914 1.81111 0
M  V30 3897 C 346.931 3.4819 0.937883 0
M  V30 3898 O 346.035 3.57865 2.04955 0
M  V30 3899 H 345.376 0.656925 0.0966755 0
M  V30 3900 H 347.906 2.01859 -0.33381 0
M  V30 3901 H 347.916 3.88413 1.24897 0
M  V30 3902 H 346.591 4.15699 0.129387 0
M  V30 3903 H 345.168 3.29527 1.74546 0
M  V30 3904 N 347.353 -0.0568162 1.57498 0
M  V30 3905 C 348.599 -0.75422 1.88253 0
M  V30 3906 C 348.932 -1.76461 0.810865 0
M  V30 3907 O 348.207 -1.93691 -0.177259 0
M  V30 3908 C 348.49 -1.44878 3.2967 0
M  V30 3909 C 348.343 -0.453789 4.47505 0
M  V30 3910 C 349.662 -2.38994 3.69554 0
M  V30 3911 H 346.781 -0.272724 0.684683 0
M  V30 3912 H 349.423 -0.0172113 1.89992 0
M  V30 3913 H 347.573 -2.077 3.28318 0
M  V30 3914 H 349.245 0.170371 4.60985 0
M  V30 3915 H 347.488 0.229552 4.33192 0
M  V30 3916 H 348.159 -0.977699 5.43273 0
M  V30 3917 H 350.635 -1.86239 3.72095 0
M  V30 3918 H 349.511 -2.84587 4.69363 0
M  V30 3919 H 349.772 -3.24461 3.00296 0
M  V30 3920 N 348.832 -1.54138 -0.328536 0
M  V30 3921 C 350.109 -1.62749 -1.08499 0
M  V30 3922 C 350.489 -0.458198 -2.06067 0
M  V30 3923 O 349.837 0.548046 -2.2183 0
M  V30 3924 C 350.047 -2.99519 -1.79135 0
M  V30 3925 C 351.395 -3.55394 -2.32337 0
M  V30 3926 O 352.419 -3.01792 -1.89209 0
M  V30 3927 O 351.278 -4.49186 -3.11279 0
M  V30 3928 H 348.372 -0.65886 -0.499832 0
M  V30 3929 H 350.918 -1.66484 -0.328826 0
M  V30 3930 H 349.69 -3.76061 -1.08139 0
M  V30 3931 H 349.313 -2.99441 -2.61574 0
M  V30 3932 N 350.31 0.590341 -1.46126 0
M  V30 3933 C 351.54 1.37304 -1.54373 0
M  V30 3934 C 351.948 1.88332 -0.181071 0
M  V30 3935 O 351.291 1.63852 0.830559 0
M  V30 3936 C 351.353 2.6012 -2.48149 0
M  V30 3937 C 351.017 2.30613 -3.94546 0
M  V30 3938 C 352.014 1.89915 -4.83971 0
M  V30 3939 C 349.699 2.42993 -4.39613 0
M  V30 3940 C 351.693 1.61981 -6.16475 0
M  V30 3941 C 349.38 2.14672 -5.72153 0
M  V30 3942 C 350.378 1.7423 -6.60404 0
M  V30 3943 O 350.066 1.46251 -7.90485 0
M  V30 3944 H 349.798 0.426086 -0.524811 0
M  V30 3945 H 352.352 0.72539 -1.92165 0
M  V30 3946 H 350.582 3.27664 -2.05361 0
M  V30 3947 H 352.271 3.22182 -2.46887 0
M  V30 3948 H 353.037 1.79872 -4.50412 0
M  V30 3949 H 348.916 2.73435 -3.71153 0
M  V30 3950 H 352.46 1.30341 -6.85315 0
M  V30 3951 H 348.357 2.24337 -6.05263 0
M  V30 3952 H 349.125 1.6016 -8.02677 0
M  V30 3953 N 351.788 1.33704 0.83433 0
M  V30 3954 C 353.034 1.25603 1.59222 0
M  V30 3955 C 353.367 -0.176659 1.93395 0
M  V30 3956 O 352.642 -1.11915 1.59076 0
M  V30 3957 C 352.925 2.13576 2.89926 0
M  V30 3958 C 352.778 3.65326 2.62406 0
M  V30 3959 C 354.097 2.01238 3.91397 0
M  V30 3960 H 351.216 0.457613 0.577719 0
M  V30 3961 H 353.858 1.63848 0.961972 0
M  V30 3962 H 352.008 1.8109 3.43713 0
M  V30 3963 H 353.68 4.08124 2.15017 0
M  V30 3964 H 351.923 3.8698 1.96033 0
M  V30 3965 H 352.594 4.22232 3.55562 0
M  V30 3966 H 355.07 2.29738 3.46929 0
M  V30 3967 H 353.946 2.65036 4.80673 0
M  V30 3968 H 354.207 0.985951 4.30966 0
M  V30 3969 N 353.266 -1.05314 1.17247 0
M  V30 3970 C 354.512 -1.78557 0.961513 0
M  V30 3971 C 354.845 -1.87419 -0.508697 0
M  V30 3972 O 354.12 -1.37307 -1.37757 0
M  V30 3973 C 354.403 -3.22514 1.60176 0
M  V30 3974 C 354.256 -3.21673 3.14399 0
M  V30 3975 C 355.575 -4.20318 1.30463 0
M  V30 3976 H 352.694 -0.6482 0.350723 0
M  V30 3977 H 355.336 -1.23102 1.44727 0
M  V30 3978 H 353.486 -3.69867 1.18871 0
M  V30 3979 H 355.158 -2.82405 3.64753 0
M  V30 3980 H 353.401 -2.60048 3.47214 0
M  V30 3981 H 354.072 -4.23271 3.54324 0
M  V30 3982 H 356.548 -3.81454 1.66229 0
M  V30 3983 H 355.424 -5.19289 1.77848 0
M  V30 3984 H 355.685 -4.41526 0.22521 0
M  V30 3985 N 354.744 -0.972509 -1.24016 0
M  V30 3986 C 356.021 -0.553733 -1.87598 0
M  V30 3987 C 356.401 0.969158 -1.87538 0
M  V30 3988 O 355.749 1.84255 -1.35139 0
M  V30 3989 C 355.959 -1.15076 -3.29482 0
M  V30 3990 C 357.307 -1.23862 -4.06132 0
M  V30 3991 O 358.331 -1.10363 -3.38672 0
M  V30 3992 O 357.19 -1.45252 -5.26844 0
M  V30 3993 H 354.284 -0.185331 -0.805966 0
M  V30 3994 H 356.83 -1.06709 -1.31952 0
M  V30 3995 H 355.602 -2.19333 -3.2405 0
M  V30 3996 H 355.225 -0.621746 -3.92709 0
M  V30 3997 N 356.222 1.38976 -0.743202 0
M  V30 3998 C 357.169 2.30544 -0.10861 0
M  V30 3999 C 358.139 1.49642 0.720869 0
M  V30 4000 O 359.324 1.78304 0.679142 0
M  V30 4001 C 356.464 3.36018 0.786496 0
M  V30 4002 C 355.577 4.31963 -0.0564849 0
M  V30 4003 C 354.712 5.24506 0.840657 0
M  V30 4004 C 353.751 6.121 -0.00658363 0
M  V30 4005 N 352.888 6.96973 0.846943 0
M  V30 4006 H 357.728 2.8424 -0.895088 0
M  V30 4007 H 355.265 1.3995 -0.453048 0
M  V30 4008 H 357.223 3.95768 1.31999 0
M  V30 4009 H 355.853 2.83758 1.53887 0
M  V30 4010 H 354.905 3.73763 -0.707492 0
M  V30 4011 H 356.217 4.93703 -0.711229 0
M  V30 4012 H 355.371 5.89322 1.4417 0
M  V30 4013 H 354.11 4.63107 1.52916 0
M  V30 4014 H 353.115 5.46289 -0.620366 0
M  V30 4015 H 354.34 6.75565 -0.691992 0
M  V30 4016 H 352.286 6.38133 1.52059 0
M  V30 4017 H 352.203 7.5559 0.248864 0
M  V30 4018 H 353.471 7.6621 1.43328 0
M  V30 4019 N 357.7 0.491464 1.49741 0
M  V30 4020 C 358.663 -0.280906 2.27472 0
M  V30 4021 C 359.663 -0.902454 1.33088 0
M  V30 4022 O 360.853 -0.768465 1.56334 0
M  V30 4023 C 357.985 -1.40209 3.10732 0
M  V30 4024 H 359.178 0.401056 2.97206 0
M  V30 4025 H 356.731 0.246131 1.5435 0
M  V30 4026 H 357.466 -2.11849 2.45541 0
M  V30 4027 H 357.251 -0.961969 3.80117 0
M  V30 4028 H 358.741 -1.9464 3.69466 0
M  V30 4029 N 359.178 -1.55987 0.224894 0
M  V30 4030 C 360.11 -2.17722 -0.716224 0
M  V30 4031 C 361.123 -1.14723 -1.15509 0
M  V30 4032 O 362.312 -1.41688 -1.08567 0
M  V30 4033 C 359.412 -2.74873 -1.98238 0
M  V30 4034 C 358.585 -4.03074 -1.69853 0
M  V30 4035 C 357.644 -4.44757 -2.81208 0
M  V30 4036 O 356.67 -5.11587 -2.49534 0
M  V30 4037 N 357.872 -4.10716 -4.10235 0
M  V30 4038 H 360.637 -2.99109 -0.188123 0
M  V30 4039 H 358.198 -1.6184 0.0440123 0
M  V30 4040 H 360.19 -2.99727 -2.7193 0
M  V30 4041 H 358.76 -1.9777 -2.42086 0
M  V30 4042 H 357.98 -3.86041 -0.797875 0
M  V30 4043 H 359.268 -4.86701 -1.48324 0
M  V30 4044 H 358.666 -3.57019 -4.38809 0
M  V30 4045 H 357.223 -4.40455 -4.80461 0
M  V30 4046 N 360.656 0.0484629 -1.57525 0
M  V30 4047 C 361.586 1.0549 -2.08313 0
M  V30 4048 C 362.567 1.38929 -0.981463 0
M  V30 4049 O 363.752 1.48151 -1.25558 0
M  V30 4050 C 360.882 2.36162 -2.54646 0
M  V30 4051 C 359.836 2.17016 -3.68901 0
M  V30 4052 C 359.162 3.53278 -4.01371 0
M  V30 4053 C 360.462 1.57219 -4.98076 0
M  V30 4054 H 362.156 0.632195 -2.92649 0
M  V30 4055 H 359.702 0.302654 -1.40784 0
M  V30 4056 H 361.655 3.06882 -2.88793 0
M  V30 4057 H 360.379 2.80456 -1.67368 0
M  V30 4058 H 359.038 1.48733 -3.35073 0
M  V30 4059 H 358.686 3.95185 -3.11188 0
M  V30 4060 H 358.386 3.41299 -4.78318 0
M  V30 4061 H 359.91 4.25391 -4.38035 0
M  V30 4062 H 361.324 2.17832 -5.30304 0
M  V30 4063 H 359.721 1.55871 -5.79503 0
M  V30 4064 H 360.791 0.535956 -4.81929 0
M  V30 4065 N 362.134 1.5431 0.320358 0
M  V30 4066 C 363.064 1.86912 1.3995 0
M  V30 4067 C 364.045 0.726211 1.53819 0
M  V30 4068 O 365.23 0.980233 1.67646 0
M  V30 4069 C 362.36 2.09932 2.7667 0
M  V30 4070 C 361.314 3.25776 2.77586 0
M  V30 4071 C 360.64 3.34173 4.17412 0
M  V30 4072 C 361.94 4.6335 2.41048 0
M  V30 4073 H 363.634 2.77292 1.12914 0
M  V30 4074 H 361.18 1.33421 0.541738 0
M  V30 4075 H 363.133 2.31324 3.52232 0
M  V30 4076 H 361.857 1.16304 3.0519 0
M  V30 4077 H 360.516 3.04276 2.04479 0
M  V30 4078 H 360.164 2.38098 4.43078 0
M  V30 4079 H 359.864 4.12033 4.18931 0
M  V30 4080 H 361.388 3.57803 4.94782 0
M  V30 4081 H 362.802 4.84602 3.06324 0
M  V30 4082 H 361.199 5.43782 2.53813 0
M  V30 4083 H 362.269 4.65381 1.36193 0
M  V30 4084 N 363.613 -0.582584 1.46437 0
M  V30 4085 C 365.029 -0.905962 1.31394 0
M  V30 4086 C 365.229 -1.99468 0.285476 0
M  V30 4087 O 364.285 -2.50566 -0.311914 0
M  V30 4088 C 365.598 -1.3232 2.70022 0
M  V30 4089 C 367.146 -1.43604 2.78113 0
M  V30 4090 C 367.621 -1.88694 4.17323 0
M  V30 4091 N 369.112 -1.95887 4.19741 0
M  V30 4092 C 369.847 -2.32051 5.24347 0
M  V30 4093 N 369.343 -2.67006 6.39281 0
M  V30 4094 N 371.136 -2.32606 5.11713 0
M  V30 4095 H 363.287 0.1366 2.1196 0
M  V30 4096 H 365.55 -0.00155736 0.947999 0
M  V30 4097 H 365.256 -0.597242 3.46592 0
M  V30 4098 H 365.13 -2.28469 3.00136 0
M  V30 4099 H 367.517 -2.15286 2.01832 0
M  V30 4100 H 367.598 -0.457059 2.51684 0
M  V30 4101 H 367.242 -1.1759 4.941 0
M  V30 4102 H 367.172 -2.8755 4.4116 0
M  V30 4103 H 369.663 -1.71362 3.36814 0
M  V30 4104 H 369.976 -2.93554 7.14875 0
M  V30 4105 H 368.321 -2.64644 6.42642 0
M  V30 4106 H 371.512 -2.04721 4.2096 0
M  V30 4107 H 371.685 -2.60462 5.93349 0
M  V30 4108 N 365.091 -1.34144 -0.827227 0
M  V30 4109 C 366.038 -1.25364 -1.93785 0
M  V30 4110 C 367.008 -0.129774 -1.65592 0
M  V30 4111 O 368.193 -0.310024 -1.88264 0
M  V30 4112 C 365.333 -1.01064 -3.2997 0
M  V30 4113 C 364.446 -2.22185 -3.70484 0
M  V30 4114 C 363.581 -1.91203 -4.95595 0
M  V30 4115 C 362.62 -3.08491 -5.28677 0
M  V30 4116 N 361.757 -2.77421 -6.44967 0
M  V30 4117 H 366.597 -2.20347 -2.00627 0
M  V30 4118 H 364.134 -1.09558 -0.981608 0
M  V30 4119 H 366.092 -0.850139 -4.08446 0
M  V30 4120 H 364.722 -0.0975026 -3.22653 0
M  V30 4121 H 363.774 -2.4917 -2.87434 0
M  V30 4122 H 365.086 -3.0983 -3.90905 0
M  V30 4123 H 364.24 -1.71864 -5.81848 0
M  V30 4124 H 362.979 -1.00812 -4.77167 0
M  V30 4125 H 361.984 -3.28431 -4.40923 0
M  V30 4126 H 363.209 -3.99655 -5.49047 0
M  V30 4127 H 361.155 -1.89601 -6.28003 0
M  V30 4128 H 361.072 -3.58598 -6.6554 0
M  V30 4129 H 362.34 -2.61577 -7.34301 0
M  V30 4130 N 366.569 1.04691 -1.17803 0
M  V30 4131 C 367.817 1.7743 -0.967617 0
M  V30 4132 C 368.138 1.88359 0.504574 0
M  V30 4133 O 367.408 1.40402 1.36617 0
M  V30 4134 H 365.988 0.657242 -0.355024 0
M  V30 4135 H 368.65 1.2638 -1.48371 0
M  V30 4136 H 367.746 2.78924 -1.40027 0
M  V30 4137 N 368.047 0.979072 1.23499 0
M  V30 4138 C 369.293 0.648178 1.92163 0
M  V30 4139 C 369.626 -0.816049 1.76222 0
M  V30 4140 O 368.901 -1.58849 1.12237 0
M  V30 4141 C 369.184 1.03773 3.44824 0
M  V30 4142 C 369.037 2.55948 3.69879 0
M  V30 4143 C 370.356 0.580653 4.36253 0
M  V30 4144 H 367.475 0.236952 0.69787 0
M  V30 4145 H 370.117 1.22012 1.45647 0
M  V30 4146 H 368.267 0.551058 3.84572 0
M  V30 4147 H 369.939 3.12179 3.3962 0
M  V30 4148 H 368.182 2.98641 3.14636 0
M  V30 4149 H 368.853 2.78255 4.76737 0
M  V30 4150 H 371.329 0.998465 4.03943 0
M  V30 4151 H 370.205 0.881663 5.41773 0
M  V30 4152 H 370.466 -0.519052 4.39042 0
M  V30 4153 N 369.525 -1.3858 0.750561 0
M  V30 4154 C 370.75 -2.04997 0.314812 0
M  V30 4155 C 371.175 -1.56235 -1.04749 0
M  V30 4156 O 370.533 -0.712981 -1.66692 0
M  V30 4157 C 370.581 -3.58961 0.343415 0
M  V30 4158 O 369.685 -4.07025 -0.663628 0
M  V30 4159 H 369.026 -0.649081 0.139962 0
M  V30 4160 H 371.556 -1.77313 1.02084 0
M  V30 4161 H 371.566 -4.07542 0.193233 0
M  V30 4162 H 370.241 -3.93811 1.33738 0
M  V30 4163 H 368.818 -3.6982 -0.478307 0
M  V30 4164 N 371.003 -0.499398 -1.49478 0
M  V30 4165 C 372.251 0.0455996 -2.02049 0
M  V30 4166 C 372.572 1.37633 -1.38138 0
M  V30 4167 O 371.842 1.8842 -0.536166 0
M  V30 4168 H 370.422 0.0198416 -0.746736 0
M  V30 4169 H 373.084 -0.656274 -1.83519 0
M  V30 4170 H 372.18 0.176445 -3.11601 0
M  V30 4171 N 372.481 1.55866 -0.233164 0
M  V30 4172 C 373.758 1.90471 0.444988 0
M  V30 4173 C 374.138 1.15209 1.7689 0
M  V30 4174 O 373.486 0.265119 2.26957 0
M  V30 4175 C 373.696 3.4333 0.626559 0
M  V30 4176 C 375.044 4.14319 0.92871 0
M  V30 4177 O 376.068 3.48993 0.712926 0
M  V30 4178 O 374.927 5.29846 1.33887 0
M  V30 4179 H 372.021 0.792347 0.236885 0
M  V30 4180 H 374.567 1.67437 -0.276211 0
M  V30 4181 H 373.339 3.90095 -0.306822 0
M  V30 4182 H 372.962 3.72181 1.39881 0
M  V30 4183 N 373.959 -0.0401083 1.57549 0
M  V30 4184 C 375.205 -0.728793 1.89895 0
M  V30 4185 C 375.56 -1.73551 0.830535 0
M  V30 4186 O 374.853 -1.90914 -0.162007 0
M  V30 4187 C 375.047 -1.44902 3.26708 0
M  V30 4188 C 374.876 -0.513568 4.46758 0
M  V30 4189 C 373.646 -0.138698 5.0511 0
M  V30 4190 C 375.844 0.203341 5.13898 0
M  V30 4191 N 373.826 0.799159 6.08676 0
M  V30 4192 C 375.197 0.997246 6.11927 0
M  V30 4193 C 377.252 0.271459 4.97159 0
M  V30 4194 C 375.955 1.85299 6.95023 0
M  V30 4195 C 377.981 1.11429 5.80808 0
M  V30 4196 C 377.343 1.89615 6.78399 0
M  V30 4197 H 373.442 -0.241125 0.743897 0
M  V30 4198 H 376.026 0.0108016 1.94697 0
M  V30 4199 H 374.197 -2.15914 3.22856 0
M  V30 4200 H 375.929 -2.08921 3.46603 0
M  V30 4201 H 372.684 -0.498496 4.70969 0
M  V30 4202 H 373.108 1.26227 6.65128 0
M  V30 4203 H 377.75 -0.318709 4.21597 0
M  V30 4204 H 375.468 2.454 7.69938 0
M  V30 4205 H 379.054 1.17038 5.69906 0
M  V30 4206 H 377.934 2.53779 7.42001 0
M  V30 4207 N 375.437 -1.54477 -0.31217 0
M  V30 4208 C 376.384 -1.84655 -1.38461 0
M  V30 4209 C 377.354 -0.694536 -1.50882 0
M  V30 4210 O 378.539 -0.942081 -1.6592 0
M  V30 4211 C 375.679 -2.0896 -2.74645 0
M  V30 4212 C 374.792 -3.36618 -2.70763 0
M  V30 4213 C 373.927 -3.50824 -3.98868 0
M  V30 4214 C 372.966 -4.72315 -3.89339 0
M  V30 4215 N 372.103 -4.83387 -5.09197 0
M  V30 4216 H 376.943 -2.76142 -1.12026 0
M  V30 4217 H 374.48 -1.36748 -0.542065 0
M  V30 4218 H 376.438 -2.21045 -3.53829 0
M  V30 4219 H 375.068 -1.20752 -2.99364 0
M  V30 4220 H 374.12 -3.33211 -1.83506 0
M  V30 4221 H 375.432 -4.25917 -2.59608 0
M  V30 4222 H 374.586 -3.62513 -4.86486 0
M  V30 4223 H 373.325 -2.59638 -4.12843 0
M  V30 4224 H 372.33 -4.6067 -3.00105 0
M  V30 4225 H 373.555 -5.64897 -3.76919 0
M  V30 4226 H 371.501 -3.9512 -5.23657 0
M  V30 4227 H 371.418 -5.66669 -5.00422 0
M  V30 4228 H 372.686 -4.9942 -5.98498 0
M  V30 4229 N 376.915 0.57481 -1.46744 0
M  V30 4230 C 377.863 1.70435 -1.58286 0
M  V30 4231 C 378.857 1.63287 -0.450956 0
M  V30 4232 O 380.063 1.68685 -0.628121 0
M  V30 4233 H 376.438 0.56364 -0.497809 0
M  V30 4234 H 378.409 1.57833 -2.53242 0
M  V30 4235 C 377.158 3.08815 -1.59776 0
M  V30 4236 H 376.481 3.1499 -2.46214 0
M  V30 4237 H 377.921 3.87588 -1.71905 0
M  V30 4238 C 376.38 3.35301 -0.327812 0
M  V30 4239 O 376.91 3.97511 0.57861 0
M  V30 4240 N 375.116 2.89816 -0.213274 0
M  V30 4241 H 374.663 2.39371 -0.951798 0
M  V30 4242 H 374.621 3.0791 0.63553 0
M  V30 4243 N 378.394 1.34581 0.820102 0
M  V30 4244 C 379.344 1.22943 1.92013 0
M  V30 4245 C 380.328 0.127802 1.60392 0
M  V30 4246 O 381.52 0.357737 1.73347 0
M  V30 4247 C 378.649 0.989938 3.28717 0
M  V30 4248 C 377.735 2.13486 3.66449 0
M  V30 4249 N 378.126 3.38625 3.75722 0
M  V30 4250 C 376.424 2.04573 3.96315 0
M  V30 4251 C 377.125 4.13832 4.08801 0
M  V30 4252 N 376.101 3.42451 4.22171 0
M  V30 4253 H 379.903 2.17771 1.97365 0
M  V30 4254 H 377.417 1.2686 1.01392 0
M  V30 4255 H 379.414 0.887462 4.07345 0
M  V30 4256 H 378.074 0.0503691 3.24661 0
M  V30 4257 H 379.085 3.73143 3.59144 0
M  V30 4258 H 375.762 1.1839 4.00362 0
M  V30 4259 H 377.152 5.21909 4.23156 0
M  V30 4260 N 379.872 -1.04064 1.18357 0
M  V30 4261 C 381.119 -1.77265 0.978947 0
M  V30 4262 C 381.447 -1.88189 -0.491428 0
M  V30 4263 O 380.702 -1.38653 -1.38108 0
M  V30 4264 C 381.001 -3.20634 1.57888 0
M  V30 4265 C 380.667 -3.29743 3.07539 0
M  V30 4266 C 379.329 -3.31937 3.48384 0
M  V30 4267 C 381.681 -3.29841 4.03552 0
M  V30 4268 C 379.009 -3.3187 4.83818 0
M  V30 4269 C 381.361 -3.31313 5.38901 0
M  V30 4270 C 380.025 -3.31799 5.79194 0
M  V30 4271 H 379.295 -0.648659 0.358222 0
M  V30 4272 H 381.942 -1.22225 1.47422 0
M  V30 4273 H 380.247 -3.78675 1.00561 0
M  V30 4274 H 381.944 -3.75917 1.39598 0
M  V30 4275 H 378.534 -3.28757 2.74986 0
M  V30 4276 H 382.718 -3.27337 3.73047 0
M  V30 4277 H 377.974 -3.30562 5.14333 0
M  V30 4278 H 382.148 -3.30338 6.13066 0
M  V30 4279 H 379.775 -3.315 6.84114 0
M  V30 4280 N 381.35 -0.985608 -1.22978 0
M  V30 4281 C 382.578 -0.675582 -1.95559 0
M  V30 4282 C 382.993 0.758413 -1.72897 0
M  V30 4283 O 382.35 1.51094 -1.02357 0
M  V30 4284 C 382.401 -0.96293 -3.48439 0
M  V30 4285 O 382.122 -2.34057 -3.70336 0
M  V30 4286 C 383.623 -0.669585 -4.38214 0
M  V30 4287 H 380.843 -0.250523 -0.622478 0
M  V30 4288 H 383.387 -1.3184 -1.56328 0
M  V30 4289 H 381.542 -0.366033 -3.85667 0
M  V30 4290 H 381.956 -2.43424 -4.64591 0
M  V30 4291 H 383.43 -0.920967 -5.44263 0
M  V30 4292 H 383.907 0.396383 -4.37408 0
M  V30 4293 H 384.513 -1.2472 -4.06602 0
M  V30 4294 N 382.828 1.3818 -0.7579 0
M  V30 4295 C 384.074 2.00316 -0.316453 0
M  V30 4296 C 384.407 1.60026 1.10025 0
M  V30 4297 O 383.682 0.839835 1.75434 0
M  V30 4298 C 383.965 3.57349 -0.444245 0
M  V30 4299 C 383.818 4.07591 -1.90236 0
M  V30 4300 C 385.137 4.3981 0.1598 0
M  V30 4301 H 382.256 0.727741 -0.116459 0
M  V30 4302 H 384.898 1.6406 -0.958352 0
M  V30 4303 H 383.048 3.88365 0.102233 0
M  V30 4304 H 384.72 3.87199 -2.50748 0
M  V30 4305 H 382.963 3.60297 -2.41595 0
M  V30 4306 H 383.634 5.16677 -1.94291 0
M  V30 4307 H 386.11 4.14971 -0.306314 0
M  V30 4308 H 384.986 5.48885 0.0401675 0
M  V30 4309 H 385.247 4.24102 1.24859 0
M  V30 4310 N 384.306 0.507319 1.49211 0
M  V30 4311 C 385.269 -0.256763 2.27757 0
M  V30 4312 C 386.269 -0.888287 1.34038 0
M  V30 4313 O 387.459 -0.751841 1.5714 0
M  V30 4314 C 384.591 -1.36905 3.12202 0
M  V30 4315 H 385.784 0.432557 2.96764 0
M  V30 4316 H 383.337 0.262488 1.5408 0
M  V30 4317 H 384.072 -2.09233 2.47775 0
M  V30 4318 H 383.857 -0.921599 3.81115 0
M  V30 4319 H 385.347 -1.9071 3.7151 0
M  V30 4320 N 385.784 -1.5574 0.241426 0
M  V30 4321 C 386.716 -2.18469 -0.693091 0
M  V30 4322 C 387.729 -1.15942 -1.14286 0
M  V30 4323 O 388.918 -1.42832 -1.07058 0
M  V30 4324 C 386.018 -2.7696 -1.95311 0
M  V30 4325 C 385.191 -4.04853 -1.65568 0
M  V30 4326 C 384.25 -4.47715 -2.76474 0
M  V30 4327 O 383.276 -5.14205 -2.44094 0
M  V30 4328 N 384.478 -4.15044 -4.05855 0
M  V30 4329 H 387.243 -2.99292 -0.156388 0
M  V30 4330 H 384.804 -1.61784 0.0611752 0
M  V30 4331 H 386.796 -3.02594 -2.68736 0
M  V30 4332 H 385.366 -2.00326 -2.39975 0
M  V30 4333 H 384.586 -3.86865 -0.756886 0
M  V30 4334 H 385.874 -4.88246 -1.43153 0
M  V30 4335 H 385.272 -3.61654 -4.34998 0
M  V30 4336 H 383.829 -4.45526 -4.75762 0
M  V30 4337 N 387.262 0.0317525 -1.57568 0
M  V30 4338 C 388.225 1.01783 -2.0536 0
M  V30 4339 C 389.225 1.29203 -0.957253 0
M  V30 4340 O 390.415 1.24251 -1.22095 0
M  V30 4341 C 387.547 2.35137 -2.46827 0
M  V30 4342 H 388.74 0.605062 -2.93733 0
M  V30 4343 H 386.293 0.278514 -1.53799 0
M  V30 4344 H 387.028 2.81168 -1.61602 0
M  V30 4345 H 386.813 2.16566 -3.26866 0
M  V30 4346 H 388.303 3.05938 -2.84239 0
M  V30 4347 N 388.74 1.54641 0.303973 0
M  V30 4348 C 389.65 1.88439 1.39743 0
M  V30 4349 C 390.666 0.778239 1.55626 0
M  V30 4350 O 391.842 1.07442 1.70347 0
M  V30 4351 C 388.907 2.12212 2.74166 0
M  V30 4352 C 387.968 3.35936 2.67293 0
M  V30 4353 C 387.201 3.58566 3.95305 0
M  V30 4354 O 387.424 2.84263 4.9452 0
M  V30 4355 O 386.358 4.52078 3.97378 0
M  V30 4356 H 390.184 2.81458 1.14083 0
M  V30 4357 H 387.769 1.40793 0.499768 0
M  V30 4358 H 389.651 2.29067 3.53704 0
M  V30 4359 H 388.326 1.22379 2.99675 0
M  V30 4360 H 387.233 3.24448 1.86237 0
M  V30 4361 H 388.566 4.2589 2.46736 0
M  V30 4362 N 390.218 -0.567019 1.47046 0
M  V30 4363 C 391.495 -1.3276 1.43646 0
M  V30 4364 C 391.875 -2.1071 0.128186 0
M  V30 4365 O 391.223 -2.10441 -0.890326 0
M  V30 4366 C 391.433 -2.2404 2.67595 0
M  V30 4367 C 392.781 -2.85372 3.14401 0
M  V30 4368 O 393.805 -2.34346 2.68254 0
M  V30 4369 O 392.664 -3.78091 3.946 0
M  V30 4370 H 389.758 -0.597293 0.571988 0
M  V30 4371 H 392.304 -0.586735 1.59234 0
M  V30 4372 H 391.076 -1.65975 3.54356 0
M  V30 4373 H 390.699 -3.05439 2.54544 0
M  V30 4374 N 391.696 -1.35014 -0.812953 0
M  V30 4375 C 392.943 -1.27931 -1.56971 0
M  V30 4376 C 393.271 0.148034 -1.93936 0
M  V30 4377 O 392.526 1.11175 -1.61054 0
M  V30 4378 C 392.825 -2.12524 -2.87347 0
M  V30 4379 C 392.491 -3.61401 -2.6963 0
M  V30 4380 C 391.153 -4.01983 -2.64506 0
M  V30 4381 C 393.505 -4.55894 -2.52607 0
M  V30 4382 C 390.833 -5.35235 -2.40293 0
M  V30 4383 C 393.185 -5.89336 -2.29925 0
M  V30 4384 C 391.849 -6.2907 -2.23219 0
M  V30 4385 H 391.119 -0.468131 -0.574399 0
M  V30 4386 H 393.766 -1.66851 -0.939836 0
M  V30 4387 H 392.071 -1.66463 -3.54679 0
M  V30 4388 H 393.768 -2.04383 -3.45005 0
M  V30 4389 H 390.358 -3.29193 -2.74463 0
M  V30 4390 H 394.542 -4.25431 -2.55583 0
M  V30 4391 H 389.798 -5.65028 -2.33566 0
M  V30 4392 H 393.972 -6.62139 -2.15743 0
M  V30 4393 H 391.599 -7.32256 -2.04219 0
M  V30 4394 N 393.175 1.03435 -1.18907 0
M  V30 4395 C 394.452 1.73778 -0.89781 0
M  V30 4396 C 394.832 2.02458 0.597832 0
M  V30 4397 O 394.18 1.67482 1.55441 0
M  V30 4398 C 394.39 3.01845 -1.75187 0
M  V30 4399 C 395.738 3.7546 -1.9828 0
M  V30 4400 O 396.762 3.11759 -1.72293 0
M  V30 4401 O 395.621 4.89966 -2.42065 0
M  V30 4402 H 392.715 0.75651 -0.334098 0
M  V30 4403 H 395.261 1.09444 -1.29693 0
M  V30 4404 H 394.033 2.76836 -2.76545 0
M  V30 4405 H 393.656 3.73919 -1.35167 0
M  V30 4406 N 394.653 0.992116 1.22453 0
M  V30 4407 C 395.6 0.541731 2.24352 0
M  V30 4408 C 396.57 -0.425519 1.60557 0
M  V30 4409 O 397.755 -0.330453 1.87917 0
M  V30 4410 C 394.895 -0.138248 3.44823 0
M  V30 4411 C 394.008 0.870649 4.23136 0
M  V30 4412 C 393.143 0.164269 5.30946 0
M  V30 4413 C 392.182 1.16159 6.00977 0
M  V30 4414 N 391.319 0.483568 7.00433 0
M  V30 4415 H 396.159 1.41541 2.62241 0
M  V30 4416 H 393.696 0.709013 1.28885 0
M  V30 4417 H 395.654 -0.5494 4.13567 0
M  V30 4418 H 394.284 -0.975721 3.077 0
M  V30 4419 H 393.336 1.40013 3.53696 0
M  V30 4420 H 394.648 1.63014 4.7141 0
M  V30 4421 H 393.802 -0.303653 6.0594 0
M  V30 4422 H 392.541 -0.627733 4.83643 0
M  V30 4423 H 391.546 1.64015 5.24766 0
M  V30 4424 H 392.771 1.95445 6.50368 0
M  V30 4425 H 390.717 -0.289012 6.55363 0
M  V30 4426 H 390.634 1.18152 7.4671 0
M  V30 4427 H 391.902 0.0384219 7.79491 0
M  V30 4428 N 396.131 -1.37776 0.765217 0
M  V30 4429 C 397.061 -2.32945 0.160953 0
M  V30 4430 C 398.042 -1.55454 -0.690516 0
M  V30 4431 O 399.227 -1.83721 -0.629318 0
M  V30 4432 C 396.357 -3.39669 -0.724031 0
M  V30 4433 C 395.311 -4.27992 0.0256173 0
M  V30 4434 C 394.637 -5.25673 -0.978383 0
M  V30 4435 C 395.937 -5.08309 1.20082 0
M  V30 4436 H 397.631 -2.83728 0.955969 0
M  V30 4437 H 395.177 -1.36416 0.461149 0
M  V30 4438 H 397.13 -4.05219 -1.15652 0
M  V30 4439 H 395.854 -2.87396 -1.5515 0
M  V30 4440 H 394.513 -3.63964 0.438812 0
M  V30 4441 H 394.161 -4.69682 -1.80022 0
M  V30 4442 H 393.861 -5.85625 -0.481378 0
M  V30 4443 H 395.385 -5.94098 -1.40995 0
M  V30 4444 H 396.799 -5.67034 0.845307 0
M  V30 4445 H 395.196 -5.77554 1.62947 0
M  V30 4446 H 396.266 -4.41365 2.00811 0
M  V30 4447 N 397.609 -0.515225 -1.4894 0
M  V30 4448 C 398.856 0.024215 -2.02486 0
M  V30 4449 C 399.184 1.35671 -1.39368 0
M  V30 4450 O 398.439 1.88566 -0.523574 0
M  V30 4451 C 398.738 0.210595 -3.56779 0
M  V30 4452 C 398.404 -1.04569 -4.38607 0
M  V30 4453 C 397.066 -1.39002 -4.60686 0
M  V30 4454 C 399.418 -1.88008 -4.86109 0
M  V30 4455 C 396.746 -2.568 -5.27514 0
M  V30 4456 C 399.098 -3.04972 -5.54234 0
M  V30 4457 C 397.762 -3.39768 -5.74555 0
M  V30 4458 H 397.032 0.00886088 -0.740947 0
M  V30 4459 H 399.679 -0.678263 -1.79086 0
M  V30 4460 H 397.984 0.99572 -3.78936 0
M  V30 4461 H 399.681 0.642659 -3.95817 0
M  V30 4462 H 396.271 -0.767497 -4.21672 0
M  V30 4463 H 400.455 -1.62719 -4.68867 0
M  V30 4464 H 395.711 -2.8398 -5.41447 0
M  V30 4465 H 399.885 -3.69943 -5.90013 0
M  V30 4466 H 397.512 -4.31148 -6.26112 0
M  V30 4467 N 399.087 1.5561 -0.249682 0
M  V30 4468 C 400.019 2.18834 0.681496 0
M  V30 4469 C 401.032 1.16546 1.1367 0
M  V30 4470 O 402.221 1.43397 1.06299 0
M  V30 4471 C 399.321 2.77992 1.9384 0
M  V30 4472 C 398.494 4.05725 1.63419 0
M  V30 4473 C 397.553 4.49174 2.74096 0
M  V30 4474 O 396.579 5.15492 2.41364 0
M  V30 4475 N 397.781 4.17191 4.03649 0
M  V30 4476 H 400.546 2.9937 0.140514 0
M  V30 4477 H 398.107 1.6175 -0.0697541 0
M  V30 4478 H 400.099 3.04015 2.67127 0
M  V30 4479 H 398.669 2.01596 2.38909 0
M  V30 4480 H 397.889 3.87261 0.736358 0
M  V30 4481 H 399.177 4.88999 1.40562 0
M  V30 4482 H 398.575 3.63955 4.33074 0
M  V30 4483 H 397.132 4.48043 4.73393 0
M  V30 4484 N 400.565 -0.0233959 1.57583 0
M  V30 4485 C 401.475 -1.03907 2.10334 0
M  V30 4486 C 402.491 -1.39257 1.04323 0
M  V30 4487 O 403.667 -1.48462 1.36091 0
M  V30 4488 C 400.732 -2.31938 2.57693 0
M  V30 4489 C 399.793 -2.03117 3.78209 0
M  V30 4490 C 399.026 -3.25043 4.233 0
M  V30 4491 O 399.249 -4.35916 3.67876 0
M  V30 4492 O 398.183 -3.10411 5.15683 0
M  V30 4493 H 402.009 -0.620748 2.97288 0
M  V30 4494 H 399.594 -0.240743 1.47448 0
M  V30 4495 H 401.476 -3.07196 2.88458 0
M  V30 4496 H 400.151 -2.73055 1.73847 0
M  V30 4497 H 399.058 -1.25408 3.52454 0
M  V30 4498 H 400.391 -1.66852 4.63056 0
M  V30 4499 N 402.043 -1.548 -0.295768 0
M  V30 4500 C 402.99 -1.86113 -1.36494 0
M  V30 4501 C 403.96 -0.7105 -1.50137 0
M  V30 4502 O 405.145 -0.959626 -1.64912 0
M  V30 4503 C 402.285 -2.11861 -2.72413 0
M  V30 4504 C 401.398 -3.39471 -2.67177 0
M  V30 4505 C 400.533 -3.55035 -3.95125 0
M  V30 4506 C 399.572 -4.76418 -3.84308 0
M  V30 4507 N 398.709 -4.8876 -5.04042 0
M  V30 4508 H 403.549 -2.77314 -1.09091 0
M  V30 4509 H 401.086 -1.37315 -0.52753 0
M  V30 4510 H 403.044 -2.24786 -3.51464 0
M  V30 4511 H 401.674 -1.2392 -2.98066 0
M  V30 4512 H 400.726 -3.35139 -1.79962 0
M  V30 4513 H 402.038 -4.28646 -2.55076 0
M  V30 4514 H 401.192 -3.67653 -4.82614 0
M  V30 4515 H 399.931 -2.64002 -4.10066 0
M  V30 4516 H 398.936 -4.63827 -2.95202 0
M  V30 4517 H 400.161 -5.68863 -3.70906 0
M  V30 4518 H 398.107 -4.00652 -5.19436 0
M  V30 4519 H 398.024 -5.71945 -4.94384 0
M  V30 4520 H 399.292 -5.0574 -5.93167 0
M  V30 4521 N 403.521 0.559213 -1.47345 0
M  V30 4522 C 404.454 1.68201 -1.5422 0
M  V30 4523 C 405.432 1.57742 -0.394497 0
M  V30 4524 O 406.616 1.78628 -0.60201 0
M  V30 4525 C 403.743 3.0643 -1.44285 0
M  V30 4526 C 402.789 3.3534 -2.63532 0
M  V30 4527 S 403.622 3.24816 -4.25741 0
M  V30 4528 C 404.778 4.65542 -4.18355 0
M  V30 4529 H 405.011 1.62114 -2.49211 0
M  V30 4530 H 402.544 0.739871 -1.35519 0
M  V30 4531 H 404.502 3.86164 -1.3924 0
M  V30 4532 H 403.163 3.09984 -0.506816 0
M  V30 4533 H 402.356 4.36107 -2.52639 0
M  V30 4534 H 401.958 2.63221 -2.65689 0
M  V30 4535 H 404.25 5.56449 -3.86485 0
M  V30 4536 H 405.193 4.81493 -5.19202 0
M  V30 4537 H 405.601 4.43495 -3.49246 0
M  V30 4538 N 404.999 1.35443 0.805782 0
M  V30 4539 C 405.962 1.28301 1.89925 0
M  V30 4540 C 406.962 0.194285 1.59622 0
M  V30 4541 O 408.152 0.448036 1.6834 0
M  V30 4542 C 405.284 0.984997 3.2636 0
M  V30 4543 H 406.477 2.2553 1.97677 0
M  V30 4544 H 404.03 1.19979 1.00173 0
M  V30 4545 H 404.765 0.016603 3.24296 0
M  V30 4546 H 404.55 1.77269 3.4974 0
M  V30 4547 H 406.04 0.960651 4.064 0
M  V30 4548 N 406.477 -1.02803 1.19454 0
M  V30 4549 C 407.754 -1.73299 0.907013 0
M  V30 4550 C 408.134 -2.02772 -0.587086 0
M  V30 4551 O 407.482 -1.68304 -1.54551 0
M  V30 4552 C 407.692 -3.00912 1.76785 0
M  V30 4553 C 409.04 -3.74403 2.00268 0
M  V30 4554 O 410.064 -3.10841 1.73943 0
M  V30 4555 O 408.923 -4.88675 2.4466 0
M  V30 4556 H 406.017 -0.754727 0.338106 0
M  V30 4557 H 408.563 -1.08754 1.30271 0
M  V30 4558 H 407.335 -2.75366 2.7801 0
M  V30 4559 H 406.958 -3.73197 1.37149 0
M  V30 4560 N 407.956 -0.998596 -1.21925 0
M  V30 4561 C 408.886 -0.573688 -2.26343 0
M  V30 4562 C 409.867 0.402296 -1.65274 0
M  V30 4563 O 411.052 0.291683 -1.91997 0
M  V30 4564 C 408.182 0.106839 -3.47136 0
M  V30 4565 C 407.136 -0.788269 -4.20678 0
M  V30 4566 C 406.462 0.0254927 -5.34694 0
M  V30 4567 C 407.762 -2.08784 -4.78755 0
M  V30 4568 H 409.456 -1.44651 -2.62138 0
M  V30 4569 H 407.002 -0.696975 -1.26009 0
M  V30 4570 H 408.955 0.415531 -4.19346 0
M  V30 4571 H 407.679 1.01424 -3.10452 0
M  V30 4572 H 406.338 -1.08069 -3.50309 0
M  V30 4573 H 405.986 0.933989 -4.94253 0
M  V30 4574 H 405.686 -0.570437 -5.84825 0
M  V30 4575 H 407.21 0.328147 -6.09718 0
M  V30 4576 H 408.624 -1.84272 -5.42878 0
M  V30 4577 H 407.021 -2.63307 -5.39249 0
M  V30 4578 H 408.091 -2.76284 -3.98491 0
M  V30 4579 N 409.434 1.37368 -0.772513 0
M  V30 4580 C 410.845 1.8231 -0.402493 0
M  V30 4581 C 411.196 1.6436 1.07146 0
M  V30 4582 O 410.321 1.15514 1.82991 0
M  V30 4583 C 410.916 3.30979 -0.723776 0
M  V30 4584 C 409.475 3.74195 -0.406802 0
M  V30 4585 C 408.622 2.59885 -0.967218 0
M  V30 4586 H 411.573 1.25829 -0.967099 0
M  V30 4587 H 411.594 3.80499 -0.00870832 0
M  V30 4588 H 411.106 3.44011 -1.7966 0
M  V30 4589 H 409.207 3.66732 0.658673 0
M  V30 4590 H 409.32 4.7027 -0.915588 0
M  V30 4591 H 407.684 2.51674 -0.391416 0
M  V30 4592 H 408.467 2.7571 -2.04546 0
M  V30 4593 N 410.912 0.523116 1.48665 0
M  V30 4594 C 412.328 0.180511 1.58576 0
M  V30 4595 C 412.528 -1.31597 1.52592 0
M  V30 4596 O 411.584 -2.0937 1.4114 0
M  V30 4597 C 412.897 0.776949 2.90489 0
M  V30 4598 C 414.445 0.745058 3.04003 0
M  V30 4599 C 414.92 1.31995 4.38567 0
M  V30 4600 N 416.411 1.28162 4.45117 0
M  V30 4601 C 417.146 1.6964 5.47731 0
M  V30 4602 N 416.642 2.18816 6.57337 0
M  V30 4603 N 418.435 1.6092 5.38573 0
M  V30 4604 H 410.586 1.4958 1.50797 0
M  V30 4605 H 412.849 0.621772 0.715614 0
M  V30 4606 H 412.555 1.82732 3.00503 0
M  V30 4607 H 412.429 0.25007 3.7637 0
M  V30 4608 H 414.816 -0.296532 2.93606 0
M  V30 4609 H 414.897 1.30933 2.1975 0
M  V30 4610 H 414.541 2.36043 4.49718 0
M  V30 4611 H 414.471 0.731418 5.21496 0
M  V30 4612 H 416.962 0.92155 3.66491 0
M  V30 4613 H 417.275 2.48478 7.31764 0
M  V30 4614 H 415.62 2.22805 6.58318 0
M  V30 4615 H 418.811 1.22304 4.5184 0
M  V30 4616 H 418.984 1.93567 6.18414 0
M  V30 4617 N 412.39 -1.55475 0.257931 0
M  V30 4618 C 413.3 -2.2549 -0.647425 0
M  V30 4619 C 414.316 -1.2748 -1.18427 0
M  V30 4620 O 415.492 -1.6038 -1.2182 0
M  V30 4621 C 412.557 -2.94916 -1.82278 0
M  V30 4622 C 411.618 -4.08363 -1.32432 0
M  V30 4623 C 410.851 -4.74469 -2.44366 0
M  V30 4624 O 411.074 -4.39701 -3.63344 0
M  V30 4625 O 410.008 -5.62763 -2.13497 0
M  V30 4626 H 413.834 -3.03593 -0.0807707 0
M  V30 4627 H 411.419 -1.49377 0.0259962 0
M  V30 4628 H 413.301 -3.38606 -2.50846 0
M  V30 4629 H 411.976 -2.19744 -2.37685 0
M  V30 4630 H 410.883 -3.69166 -0.605605 0
M  V30 4631 H 412.216 -4.85385 -0.816211 0
M  V30 4632 N 413.868 0.0150385 -1.57593 0
M  V30 4633 C 414.798 1.01047 -2.10503 0
M  V30 4634 C 415.779 1.36816 -1.01071 0
M  V30 4635 O 416.964 1.45455 -1.28672 0
M  V30 4636 C 414.094 2.30708 -2.59598 0
M  V30 4637 C 413.048 2.09142 -3.73421 0
M  V30 4638 C 412.374 3.44685 -4.08774 0
M  V30 4639 C 413.674 1.46619 -5.01298 0
M  V30 4640 H 415.368 0.569978 -2.93925 0
M  V30 4641 H 412.914 0.272724 -1.41394 0
M  V30 4642 H 414.867 3.00687 -2.95238 0
M  V30 4643 H 413.591 2.76843 -1.73279 0
M  V30 4644 H 412.25 1.41592 -3.38153 0
M  V30 4645 H 411.898 3.88495 -3.195 0
M  V30 4646 H 411.598 3.31077 -4.8545 0
M  V30 4647 H 413.122 4.16004 -4.4696 0
M  V30 4648 H 414.536 2.06535 -5.34805 0
M  V30 4649 H 412.933 1.43544 -5.82679 0
M  V30 4650 H 414.003 0.433611 -4.82957 0
M  V30 4651 N 415.346 1.54954 0.287554 0
M  V30 4652 C 416.593 1.74873 1.02106 0
M  V30 4653 C 416.921 0.541829 1.86801 0
M  V30 4654 O 416.176 -0.475992 1.89823 0
M  V30 4655 C 416.475 2.99833 1.94512 0
M  V30 4656 C 416.141 4.33029 1.25686 0
M  V30 4657 C 414.803 4.69233 1.06649 0
M  V30 4658 C 417.155 5.15542 0.765913 0
M  V30 4659 C 414.483 5.85518 0.372222 0
M  V30 4660 C 416.835 6.32542 0.0853101 0
M  V30 4661 C 415.499 6.67398 -0.1169 0
M  V30 4662 H 414.769 0.639906 0.373632 0
M  V30 4663 H 417.416 1.89219 0.294665 0
M  V30 4664 H 415.721 2.80325 2.73725 0
M  V30 4665 H 417.418 3.1244 2.51361 0
M  V30 4666 H 414.008 4.04564 1.41512 0
M  V30 4667 H 418.192 4.88059 0.90066 0
M  V30 4668 H 413.448 6.11057 0.204695 0
M  V30 4669 H 417.622 6.95741 -0.302936 0
M  V30 4670 H 415.249 7.57357 -0.656859 0
M  V30 4671 N 416.824 -0.551391 1.4764 0
M  V30 4672 C 418.235 -1.13349 1.48354 0
M  V30 4673 C 418.586 -1.94709 0.241432 0
M  V30 4674 O 417.711 -2.06306 -0.653205 0
M  V30 4675 C 418.306 -2.0623 2.68802 0
M  V30 4676 C 416.865 -2.597 2.72457 0
M  V30 4677 C 416.012 -1.36201 2.41546 0
M  V30 4678 H 418.963 -0.337698 1.55065 0
M  V30 4679 H 418.984 -2.90196 2.46103 0
M  V30 4680 H 418.496 -1.46987 3.59188 0
M  V30 4681 H 416.597 -3.22724 1.86225 0
M  V30 4682 H 416.71 -3.00296 3.73308 0
M  V30 4683 H 415.074 -1.67068 1.9225 0
M  V30 4684 H 415.857 -0.787425 3.34147 0
M  V30 4685 N 418.302 -1.35869 -0.798587 0
M  V30 4686 C 419.548 -1.30788 -1.55775 0
M  V30 4687 C 419.903 0.114558 -1.92059 0
M  V30 4688 O 419.196 1.06691 -1.59147 0
M  V30 4689 C 419.39 -2.1556 -2.85077 0
M  V30 4690 C 419.219 -3.65904 -2.61428 0
M  V30 4691 C 417.989 -4.35112 -2.56915 0
M  V30 4692 C 420.187 -4.59375 -2.31255 0
M  V30 4693 N 418.169 -5.71155 -2.25068 0
M  V30 4694 C 419.54 -5.83598 -2.09316 0
M  V30 4695 C 421.595 -4.48035 -2.17185 0
M  V30 4696 C 420.298 -6.97755 -1.74731 0
M  V30 4697 C 422.324 -5.62049 -1.83998 0
M  V30 4698 C 421.686 -6.85305 -1.629 0
M  V30 4699 H 417.785 -0.533855 -0.571422 0
M  V30 4700 H 420.369 -1.7083 -0.934079 0
M  V30 4701 H 418.54 -1.77776 -3.45326 0
M  V30 4702 H 420.272 -2.01938 -3.50718 0
M  V30 4703 H 417.027 -3.87812 -2.71843 0
M  V30 4704 H 417.451 -6.42978 -2.11916 0
M  V30 4705 H 422.093 -3.53338 -2.3219 0
M  V30 4706 H 419.811 -7.92411 -1.58464 0
M  V30 4707 H 423.397 -5.55232 -1.73808 0
M  V30 4708 H 422.277 -7.72034 -1.37596 0
M  V30 4709 N 419.78 1.02168 -1.19998 0
M  V30 4710 C 420.69 2.14069 -0.959774 0
M  V30 4711 C 421.706 1.73804 0.082655 0
M  V30 4712 O 422.882 2.01133 -0.103633 0
M  V30 4713 C 419.947 3.42936 -0.509459 0
M  V30 4714 C 419.008 3.97474 -1.62213 0
M  V30 4715 C 418.241 5.2019 -1.19321 0
M  V30 4716 O 418.464 5.70369 -0.0597726 0
M  V30 4717 O 417.398 5.67749 -1.99863 0
M  V30 4718 H 421.224 2.37199 -1.89658 0
M  V30 4719 H 418.809 1.12469 -0.983411 0
M  V30 4720 H 420.691 4.20551 -0.267322 0
M  V30 4721 H 419.366 3.21234 0.398821 0
M  V30 4722 H 418.273 3.21161 -1.9185 0
M  V30 4723 H 419.606 4.23555 -2.50723 0
M  V30 4724 O 421.297 1.13266 1.15122 0
M  V30 4725 H 421.988 0.848237 1.7414 0
M  V30 END ATOM
M  V30 BEGIN BOND
M  V30 END BOND
M  V30 END CTAB
M  END
$$$$
