drugbank_target|Q27743 L-lactate dehydrogenase (DB02111; DB02401; DB03162; DB03940; DB04640; DB04641; DB11638)
 OpenBabel12092119543D

  0  0  0     0  0            999 V3000
M  V30 BEGIN CTAB
M  V30 COUNTS 4872 4909 0 0 0
M  V30 BEGIN ATOM
M  V30 1 H -0.908 1.98254 -0.117106 0
M  V30 2 N 0 1.576 0 0
M  V30 3 C 0.933 2.03868 1.02534 0
M  V30 4 C 1.911 0.928543 1.3348 0
M  V30 5 O 3.095 1.19667 1.45644 0
M  V30 6 C 0.222 2.43627 2.35294 0
M  V30 7 C -0.732 3.65373 2.2001 0
M  V30 8 S 0.101 5.13292 1.52614 0
M  V30 9 C 1.257 5.56322 2.86805 0
M  V30 10 H 1.49 2.90518 0.631377 0
M  V30 11 H -0.977 1.52953 0.210867 0
M  V30 12 H 0.981 2.67203 3.11629 0
M  V30 13 H -0.358 1.57376 2.7183 0
M  V30 14 H -1.165 3.90944 3.18086 0
M  V30 15 H -1.563 3.418 1.51819 0
M  V30 16 H 0.729 5.58782 3.83104 0
M  V30 17 H 1.672 6.56266 2.65933 0
M  V30 18 H 2.08 4.83886 2.90714 0
M  V30 19 N 1.4781 -0.272755 1.55222 0
M  V30 20 C 2.4411 -1.32041 1.87344 0
M  V30 21 C 3.4411 -1.42342 0.74803 0
M  V30 22 O 4.6311 -1.41488 1.0162 0
M  V30 23 C 1.7631 -2.70173 2.07893 0
M  V30 24 H 2.9561 -1.04789 2.80997 0
M  V30 25 H 0.5091 -0.51083 1.47717 0
M  V30 26 H 1.2441 -3.02605 1.16622 0
M  V30 27 H 1.0291 -2.64082 2.89833 0
M  V30 28 H 2.5191 -3.45869 2.34017 0
M  V30 29 N 2.9562 -1.48159 -0.537278 0
M  V30 30 C 4.3672 -1.49429 -1.11928 0
M  V30 31 C 4.7182 -0.26 -1.9447 0
M  V30 32 O 3.8432 0.633489 -2.0692 0
M  V30 33 C 4.4382 -2.70758 -2.03656 0
M  V30 34 C 2.9972 -2.74923 -2.57088 0
M  V30 35 C 2.1442 -2.42835 -1.3389 0
M  V30 36 H 5.0952 -1.55381 -0.322886 0
M  V30 37 H 5.1162 -2.48861 -2.87834 0
M  V30 38 H 4.6282 -3.60575 -1.43553 0
M  V30 39 H 2.7292 -1.89296 -3.20933 0
M  V30 40 H 2.8422 -3.76157 -2.9672 0
M  V30 41 H 1.2062 -1.93836 -1.65226 0
M  V30 42 H 1.9892 -3.34884 -0.755504 0
M  V30 43 N 4.4343 0.785586 -1.36625 0
M  V30 44 C 5.3813 1.89838 -1.31264 0
M  V30 45 C 6.3513 1.65115 -0.180633 0
M  V30 46 O 7.5363 1.87222 -0.36777 0
M  V30 47 C 4.6763 3.26706 -1.11163 0
M  V30 48 C 3.7893 3.63476 -2.33472 0
M  V30 49 C 2.9243 4.89481 -2.06353 0
M  V30 50 C 1.9633 5.18941 -3.24602 0
M  V30 51 N 1.1003 6.36131 -2.97123 0
M  V30 52 H 5.9403 1.93756 -2.26413 0
M  V30 53 H 3.4773 0.947454 -1.12524 0
M  V30 54 H 5.4353 4.05639 -0.975337 0
M  V30 55 H 4.0653 3.222 -0.196674 0
M  V30 56 H 3.1173 2.79636 -2.57891 0
M  V30 57 H 4.4293 3.81193 -3.21704 0
M  V30 58 H 3.5833 5.76288 -1.89675 0
M  V30 59 H 2.3223 4.73841 -1.15437 0
M  V30 60 H 1.3273 4.30615 -3.41834 0
M  V30 61 H 2.5523 5.36498 -4.16349 0
M  V30 62 H 0.4983 6.21875 -2.08823 0
M  V30 63 H 0.4153 6.54198 -3.78894 0
M  V30 64 H 1.6833 7.2591 -2.84033 0
M  V30 65 N 5.9124 1.20967 1.01018 0
M  V30 66 C 6.8754 0.965918 2.07853 0
M  V30 67 C 7.8754 -0.0610545 1.60684 0
M  V30 68 O 9.0654 0.175681 1.73312 0
M  V30 69 C 6.1974 0.455513 3.37843 0
M  V30 70 H 7.3904 1.91365 2.3091 0
M  V30 71 H 4.9434 1.02594 1.17916 0
M  V30 72 H 5.6784 -0.497381 3.20463 0
M  V30 73 H 5.4634 1.19622 3.73407 0
M  V30 74 H 6.9534 0.304667 4.16487 0
M  V30 75 N 7.3905 -1.2043 1.01659 0
M  V30 76 C 8.3375 -2.23215 0.586822 0
M  V30 77 C 9.3075 -1.61382 -0.393085 0
M  V30 78 O 10.4925 -1.88544 -0.292525 0
M  V30 79 C 7.6325 -3.45032 -0.0687464 0
M  V30 80 C 6.7455 -4.21296 0.955724 0
M  V30 81 C 5.8805 -5.30507 0.271208 0
M  V30 82 C 4.9195 -5.98515 1.28244 0
M  V30 83 N 4.0565 -6.99316 0.62459 0
M  V30 84 H 8.8965 -2.59336 1.46796 0
M  V30 85 H 6.4335 -1.27431 0.734836 0
M  V30 86 H 8.3915 -4.1459 -0.465965 0
M  V30 87 H 7.0215 -3.09604 -0.913529 0
M  V30 88 H 6.0735 -3.50803 1.4711 0
M  V30 89 H 7.3855 -4.6803 1.72479 0
M  V30 90 H 6.5395 -6.06428 -0.18151 0
M  V30 91 H 5.2785 -4.8481 -0.530163 0
M  V30 92 H 4.2835 -5.21355 1.74554 0
M  V30 93 H 5.5085 -6.46298 2.08509 0
M  V30 94 H 3.4545 -6.55812 -0.156914 0
M  V30 95 H 3.3715 -7.44178 1.33172 0
M  V30 96 H 4.6395 -7.79255 0.195462 0
M  V30 97 N 8.8686 -0.792821 -1.36206 0
M  V30 98 C 10.1176 -0.363353 -1.984 0
M  V30 99 C 10.4306 1.07172 -1.63626 0
M  V30 100 O 11.6366 1.60362 -2.19081 0
M  V30 101 C 10.0926 -0.59872 -3.54885 0
M  V30 102 C 9.7006 -2.04543 -3.9858 0
M  V30 103 C 11.4446 -0.233926 -4.23855 0
M  V30 104 C 9.3516 -2.22727 -5.47856 0
M  V30 105 H 8.2816 -0.13212 -0.742334 0
M  V30 106 H 10.9326 -0.974935 -1.55458 0
M  V30 107 H 9.3146 0.0826222 -3.95914 0
M  V30 108 H 10.4886 -2.76345 -3.68741 0
M  V30 109 H 8.8036 -2.36879 -3.42458 0
M  V30 110 H 11.4006 -0.348027 -5.33566 0
M  V30 111 H 11.7436 0.818351 -4.08177 0
M  V30 112 H 12.2766 -0.868639 -3.882 0
M  V30 113 H 9.0156 -3.2635 -5.68486 0
M  V30 114 H 8.5356 -1.55434 -5.7931 0
M  V30 115 H 10.2146 -2.03607 -6.14128 0
M  V30 116 N 10.3467 1.47872 -0.545128 0
M  V30 117 C 11.5927 2.02793 -0.0166104 0
M  V30 118 C 11.9257 1.41987 1.32489 0
M  V30 119 O 11.2007 0.571045 1.85928 0
M  V30 120 C 11.4837 3.59989 0.0893294 0
M  V30 121 C 11.3367 4.3125 -1.27841 0
M  V30 122 C 12.6557 4.32606 0.808724 0
M  V30 123 H 9.7747 0.736962 -0.00751035 0
M  V30 124 H 12.4167 1.76433 -0.705085 0
M  V30 125 H 10.5667 3.82579 0.675681 0
M  V30 126 H 12.2387 4.20035 -1.90704 0
M  V30 127 H 10.4817 3.92076 -1.85632 0
M  V30 128 H 11.1527 5.39736 -1.15713 0
M  V30 129 H 13.6287 4.14936 0.310992 0
M  V30 130 H 12.5047 5.42251 0.851782 0
M  V30 131 H 12.7657 4.00963 1.86229 0
M  V30 132 N 11.8248 0.280983 1.55075 0
M  V30 133 C 12.7548 -0.597469 2.25727 0
M  V30 134 C 13.7358 -1.15417 1.24952 0
M  V30 135 O 14.9208 -1.18722 1.53684 0
M  V30 136 C 12.0508 -1.7789 2.98283 0
M  V30 137 C 11.0048 -1.35347 4.06036 0
M  V30 138 C 10.3308 -2.61846 4.66198 0
M  V30 139 C 11.6308 -0.499354 5.19907 0
M  V30 140 H 13.3248 -0.00824265 2.99399 0
M  V30 141 H 10.8708 -0.0025244 1.44 0
M  V30 142 H 12.8238 -2.39937 3.46422 0
M  V30 143 H 11.5478 -2.39405 2.22155 0
M  V30 144 H 10.2068 -0.756156 3.58717 0
M  V30 145 H 9.8548 -3.21632 3.86732 0
M  V30 146 H 9.5548 -2.3409 5.38958 0
M  V30 147 H 11.0788 -3.24732 5.1709 0
M  V30 148 H 12.4928 -1.02498 5.64063 0
M  V30 149 H 10.8898 -0.316424 5.99265 0
M  V30 150 H 11.9598 0.480459 4.82514 0
M  V30 151 N 13.3029 -1.57598 0.00835791 0
M  V30 152 C 14.5489 -1.91211 -0.675732 0
M  V30 153 C 14.8819 -0.883139 -1.72958 0
M  V30 154 O 14.1569 0.097016 -1.94258 0
M  V30 155 C 14.4399 -3.35379 -1.31123 0
M  V30 156 C 14.2929 -4.48999 -0.268356 0
M  V30 157 C 15.6119 -3.7912 -2.23508 0
M  V30 158 H 12.7309 -0.695374 -0.244179 0
M  V30 159 H 15.3729 -1.89901 0.0613655 0
M  V30 160 H 13.5229 -3.36626 -1.93946 0
M  V30 161 H 15.1949 -4.59887 0.360844 0
M  V30 162 H 13.4379 -4.31873 0.408482 0
M  V30 163 H 14.1089 -5.46851 -0.752218 0
M  V30 164 H 16.5849 -3.79477 -1.70693 0
M  V30 165 H 15.4609 -4.80729 -2.64936 0
M  V30 166 H 15.7219 -3.13455 -3.11766 0
M  V30 167 N 14.781 0.264519 -1.55364 0
M  V30 168 C 16.029 0.993021 -1.76021 0
M  V30 169 C 16.35 1.86511 -0.569099 0
M  V30 170 O 15.62 1.91438 0.415735 0
M  V30 171 H 14.2 0.369639 -0.649135 0
M  V30 172 H 16.862 0.286707 -1.9278 0
M  V30 173 H 15.958 1.62502 -2.66457 0
M  V30 174 N 16.2591 1.48442 0.529413 0
M  V30 175 C 17.4841 1.60406 1.31471 0
M  V30 176 C 17.9091 0.264738 1.86228 0
M  V30 177 O 17.2671 -0.763668 1.64432 0
M  V30 178 C 17.3151 2.65419 2.44101 0
M  V30 179 O 16.4191 2.22618 3.47153 0
M  V30 180 H 15.7601 0.537863 0.389357 0
M  V30 181 H 18.2901 1.94432 0.636965 0
M  V30 182 H 18.3001 2.86709 2.90279 0
M  V30 183 H 16.9751 3.62652 2.03608 0
M  V30 184 H 15.5521 2.11543 3.0709 0
M  V30 185 N 17.7372 -0.778329 1.37039 0
M  V30 186 C 18.9852 -1.53361 1.31623 0
M  V30 187 C 19.3062 -1.94739 -0.100831 0
M  V30 188 O 18.5762 -1.65797 -1.04347 0
M  V30 189 H 17.1562 -0.568794 0.484234 0
M  V30 190 H 19.8182 -0.926742 1.71457 0
M  V30 191 H 18.9142 -2.43606 1.95096 0
M  V30 192 N 19.2153 -1.21501 -1.00376 0
M  V30 193 C 20.1483 -0.918669 -2.08892 0
M  V30 194 C 21.1263 0.134277 -1.62045 0
M  V30 195 O 22.3103 0.00504255 -1.88499 0
M  V30 196 C 19.4373 -0.379645 -3.36566 0
M  V30 197 C 18.4833 -1.41559 -4.02323 0
M  V30 198 S 19.3163 -2.98521 -4.44574 0
M  V30 199 C 20.4723 -2.46228 -5.75433 0
M  V30 200 H 20.7053 -1.83761 -2.33707 0
M  V30 201 H 18.2383 -1.04489 -1.13673 0
M  V30 202 H 20.1963 -0.0752195 -4.10431 0
M  V30 203 H 18.8573 0.518008 -3.09799 0
M  V30 204 H 18.0503 -0.988076 -4.9422 0
M  V30 205 H 17.6523 -1.66815 -3.34737 0
M  V30 206 H 19.9443 -1.86791 -6.51241 0
M  V30 207 H 20.8873 -3.36572 -6.22997 0
M  V30 208 H 21.2953 -1.87894 -5.32312 0
M  V30 209 N 20.6934 1.19889 -1.02296 0
M  V30 210 C 21.9424 1.88743 -0.711257 0
M  V30 211 C 22.2554 1.80112 0.762817 0
M  V30 212 O 23.4614 2.44161 1.18733 0
M  V30 213 C 21.9174 3.38525 -1.22185 0
M  V30 214 C 21.5254 3.55727 -2.72328 0
M  V30 215 C 23.2694 4.12893 -0.985864 0
M  V30 216 C 21.1764 4.99369 -3.16835 0
M  V30 217 H 20.1064 0.706885 -0.262353 0
M  V30 218 H 22.7574 1.35586 -1.23648 0
M  V30 219 H 21.1394 3.91044 -0.624571 0
M  V30 220 H 22.3134 3.13564 -3.3766 0
M  V30 221 H 20.6284 2.94739 -2.9414 0
M  V30 222 H 23.2254 5.18813 -1.29374 0
M  V30 223 H 23.5684 4.16228 0.0775055 0
M  V30 224 H 24.1014 3.66494 -1.54684 0
M  V30 225 H 20.8404 5.01193 -4.22476 0
M  V30 226 H 20.3604 5.42317 -2.56228 0
M  V30 227 H 22.0394 5.67988 -3.09837 0
M  V30 228 N 22.1715 0.800033 1.35784 0
M  V30 229 C 23.4195 0.376597 1.9856 0
M  V30 230 C 23.7405 -1.05812 1.63795 0
M  V30 231 O 23.0105 -1.73103 0.917171 0
M  V30 232 H 21.5905 0.136261 0.734467 0
M  V30 233 H 24.2525 1.02442 1.65806 0
M  V30 234 H 23.3485 0.477002 3.08433 0
M  V30 235 N 23.6496 -1.47581 0.552962 0
M  V30 236 C 24.8976 -2.02082 0.0272703 0
M  V30 237 C 25.2186 -1.4301 -1.32563 0
M  V30 238 O 24.4886 -0.603745 -1.86365 0
M  V30 239 H 23.0686 -0.746966 0.00709182 0
M  V30 240 H 25.7306 -1.81033 0.722008 0
M  V30 241 H 24.8266 -3.12034 -0.0639951 0
M  V30 242 N 25.1277 -0.289203 -1.54924 0
M  V30 243 C 26.3737 0.323998 -2.00195 0
M  V30 244 C 26.7067 1.54441 -1.17735 0
M  V30 245 O 25.9817 1.92875 -0.250878 0
M  V30 246 C 26.2647 0.692276 -3.53383 0
M  V30 247 C 26.1177 -0.536457 -4.46589 0
M  V30 248 C 27.4367 1.52335 -4.12895 0
M  V30 249 H 24.5557 0.116289 -0.727768 0
M  V30 250 H 27.1977 -0.398954 -1.85764 0
M  V30 251 H 25.3477 1.30822 -3.65811 0
M  V30 252 H 27.0197 -1.17499 -4.46085 0
M  V30 253 H 25.2627 -1.17192 -4.1767 0
M  V30 254 H 25.9337 -0.234806 -5.515 0
M  V30 255 H 28.4097 1.00302 -4.0383 0
M  V30 256 H 27.2857 1.74982 -5.20262 0
M  V30 257 H 27.5467 2.50886 -3.64018 0
M  V30 258 N 26.6058 1.57591 -0.0167156 0
M  V30 259 C 27.5388 2.04944 1.00366 0
M  V30 260 C 28.5168 0.942648 1.32487 0
M  V30 261 O 29.7008 1.21205 1.44367 0
M  V30 262 C 26.8278 2.46109 2.32697 0
M  V30 263 C 25.8738 3.67686 2.16123 0
M  V30 264 S 26.7068 5.14882 1.47161 0
M  V30 265 C 27.8628 5.59332 2.80888 0
M  V30 266 H 28.0958 2.91172 0.600528 0
M  V30 267 H 25.6288 1.53168 0.194632 0
M  V30 268 H 27.5868 2.70493 3.08778 0
M  V30 269 H 26.2478 1.6025 2.70146 0
M  V30 270 H 25.4408 3.94296 3.13922 0
M  V30 271 H 25.0428 3.43391 1.48185 0
M  V30 272 H 27.3348 5.62814 3.77156 0
M  V30 273 H 28.2778 6.5905 2.58958 0
M  V30 274 H 28.6858 4.86942 2.85565 0
M  V30 275 N 28.0839 -0.256276 1.55502 0
M  V30 276 C 29.0469 -1.30047 1.88734 0
M  V30 277 C 30.0469 -1.4154 0.763086 0
M  V30 278 O 31.2369 -1.40403 1.03115 0
M  V30 279 C 28.3689 -2.67953 2.10747 0
M  V30 280 H 29.5619 -1.01802 2.82093 0
M  V30 281 H 27.1149 -0.495134 1.4825 0
M  V30 282 H 27.8499 -3.01351 1.19825 0
M  V30 283 H 27.6349 -2.60993 2.92617 0
M  V30 284 H 29.1249 -3.43368 2.37673 0
M  V30 285 N 29.562 -1.4872 -0.521534 0
M  V30 286 C 30.79 -1.60843 -1.30142 0
M  V30 287 C 31.205 -0.271897 -1.86832 0
M  V30 288 O 30.562 0.739969 -1.66825 0
M  V30 289 C 30.613 -2.66155 -2.4463 0
M  V30 290 O 30.334 -3.94623 -1.90275 0
M  V30 291 C 31.835 -2.88795 -3.36322 0
M  V30 292 H 29.055 -0.542075 -0.395468 0
M  V30 293 H 31.599 -1.94609 -0.628285 0
M  V30 294 H 29.754 -2.35224 -3.07812 0
M  V30 295 H 30.168 -4.52468 -2.65279 0
M  V30 296 H 31.642 -3.66264 -4.12983 0
M  V30 297 H 32.119 -1.97934 -3.9207 0
M  V30 298 H 32.725 -3.21063 -2.78924 0
M  V30 299 N 31.0401 0.771051 -1.3745 0
M  V30 300 C 31.9701 1.89827 -1.3597 0
M  V30 301 C 32.9511 1.68562 -0.228216 0
M  V30 302 O 34.1361 1.8941 -0.428675 0
M  V30 303 C 31.2661 3.2712 -1.16662 0
M  V30 304 C 30.2201 3.6295 -2.2683 0
M  V30 305 C 29.5461 4.98791 -1.92644 0
M  V30 306 C 30.8461 3.69627 -3.69017 0
M  V30 307 H 32.5401 1.91323 -2.30295 0
M  V30 308 H 30.0861 0.919082 -1.10855 0
M  V30 309 H 32.0391 4.05615 -1.14256 0
M  V30 310 H 30.7631 3.26059 -0.187926 0
M  V30 311 H 29.4221 2.86763 -2.28392 0
M  V30 312 H 29.0701 4.94271 -0.933021 0
M  V30 313 H 28.7701 5.23733 -2.66416 0
M  V30 314 H 30.2941 5.79685 -1.91826 0
M  V30 315 H 31.7081 4.38273 -3.69581 0
M  V30 316 H 30.1051 4.06067 -4.41848 0
M  V30 317 H 31.1751 2.70273 -4.02592 0
M  V30 318 N 32.5182 1.22032 0.997298 0
M  V30 319 C 33.7672 1.03637 1.73038 0
M  V30 320 C 34.0802 -0.429475 1.90827 0
M  V30 321 O 35.2862 -0.732995 2.61418 0
M  V30 322 C 33.7422 1.80582 3.11317 0
M  V30 323 C 33.3502 3.31387 3.01474 0
M  V30 324 C 35.0942 1.70621 3.88701 0
M  V30 325 C 33.0012 4.00791 4.3488 0
M  V30 326 H 31.9312 0.384179 0.648785 0
M  V30 327 H 34.5822 1.4584 1.11368 0
M  V30 328 H 32.9642 1.31175 3.73643 0
M  V30 329 H 34.1382 3.88155 2.4834 0
M  V30 330 H 32.4532 3.41976 2.37575 0
M  V30 331 H 35.0502 2.19799 4.87434 0
M  V30 332 H 35.3932 0.665823 4.10941 0
M  V30 333 H 35.9262 2.17547 3.33044 0
M  V30 334 H 32.6652 5.05064 4.1784 0
M  V30 335 H 32.1852 3.48811 4.87945 0
M  V30 336 H 33.8642 4.06139 5.03647 0
M  V30 337 N 33.9963 -1.19345 1.0293 0
M  V30 338 C 35.2423 -1.89318 0.727083 0
M  V30 339 C 35.5753 -1.79446 -0.742483 0
M  V30 340 O 34.8503 -1.1871 -1.54072 0
M  V30 341 C 35.1333 -3.40238 1.17942 0
M  V30 342 C 34.9863 -3.58979 2.71024 0
M  V30 343 C 36.3053 -4.33479 0.760548 0
M  V30 344 H 33.4243 -0.687475 0.265606 0
M  V30 345 H 36.0663 -1.40477 1.2793 0
M  V30 346 H 34.2163 -3.81964 0.709608 0
M  V30 347 H 35.8883 -3.26421 3.25955 0
M  V30 348 H 34.1313 -3.02018 3.11396 0
M  V30 349 H 34.8023 -4.64823 2.9773 0
M  V30 350 H 37.2783 -3.99469 1.16464 0
M  V30 351 H 36.1543 -5.37664 1.10493 0
M  V30 352 H 36.4153 -4.40813 -0.337063 0
M  V30 353 N 35.4744 -0.807222 -1.35358 0
M  V30 354 C 36.4064 -0.175717 -2.28525 0
M  V30 355 C 37.4194 0.625354 -1.5031 0
M  V30 356 O 38.6084 0.457611 -1.72535 0
M  V30 357 C 35.7084 0.773471 -3.29956 0
M  V30 358 C 34.8814 0.0186296 -4.37396 0
M  V30 359 C 33.9404 0.886395 -5.18681 0
M  V30 360 O 32.9664 0.337106 -5.68201 0
M  V30 361 N 34.1684 2.20839 -5.36852 0
M  V30 362 H 36.9334 -0.976091 -2.83359 0
M  V30 363 H 34.4944 -0.662737 -1.47714 0
M  V30 364 H 36.4864 1.35824 -3.81227 0
M  V30 365 H 35.0564 1.47465 -2.75632 0
M  V30 366 H 34.2764 -0.747349 -3.87051 0
M  V30 367 H 35.5644 -0.501577 -5.06322 0
M  V30 368 H 34.9624 2.67858 -4.98265 0
M  V30 369 H 33.5194 2.74237 -5.91301 0
M  V30 370 N 36.9525 1.47285 -0.560781 0
M  V30 371 C 37.8995 2.30058 0.18491 0
M  V30 372 C 38.8695 1.39281 0.904986 0
M  V30 373 O 40.0545 1.68241 0.899979 0
M  V30 374 C 37.1945 3.23317 1.20666 0
M  V30 375 C 36.3075 4.29186 0.492285 0
M  V30 376 C 35.4425 5.09592 1.49964 0
M  V30 377 C 34.4815 6.07232 0.770439 0
M  V30 378 N 33.6185 6.80584 1.72479 0
M  V30 379 H 38.4585 2.93302 -0.527048 0
M  V30 380 H 35.9955 1.44568 -0.271738 0
M  V30 381 H 37.9535 3.75811 1.81168 0
M  V30 382 H 36.5835 2.61929 1.88661 0
M  V30 383 H 35.6355 3.7972 -0.227333 0
M  V30 384 H 36.9475 4.98738 -0.0787929 0
M  V30 385 H 36.1015 5.66254 2.17809 0
M  V30 386 H 34.8405 4.3995 2.10464 0
M  V30 387 H 33.8455 5.49745 0.0780846 0
M  V30 388 H 35.0705 6.78884 0.171134 0
M  V30 389 H 33.0165 6.1367 2.3183 0
M  V30 390 H 32.9335 7.46319 1.20596 0
M  V30 391 H 34.2015 7.41818 2.39428 0
M  V30 392 N 38.4306 0.297415 1.54768 0
M  V30 393 C 39.3786 -0.596051 2.24833 0
M  V30 394 C 40.3726 -1.13992 1.25308 0
M  V30 395 O 41.5786 -1.09098 1.4317 0
M  V30 396 H 37.9536 -0.210814 0.721846 0
M  V30 397 H 39.9246 0.0174667 2.98395 0
M  V30 398 C 38.6736 -1.75818 2.99972 0
M  V30 399 H 37.9966 -1.3489 3.76357 0
M  V30 400 H 39.4366 -2.35949 3.52284 0
M  V30 401 C 37.8956 -2.66014 2.06732 0
M  V30 402 O 38.4256 -3.67009 1.63302 0
M  V30 403 N 36.6316 -2.33669 1.72763 0
M  V30 404 H 36.1786 -1.51586 2.08277 0
M  V30 405 H 36.1366 -2.94285 1.10652 0
M  V30 406 N 39.9087 -1.5758 0.0250728 0
M  V30 407 C 40.8387 -2.13007 -0.956575 0
M  V30 408 C 41.8197 -1.0452 -1.342 0
M  V30 409 O 43.0047 -1.32332 -1.42133 0
M  V30 410 C 40.1347 -2.65386 -2.24026 0
M  V30 411 C 39.0887 -3.78623 -1.99571 0
M  V30 412 C 38.4147 -4.17414 -3.3417 0
M  V30 413 C 39.7147 -5.04867 -1.33814 0
M  V30 414 H 41.4087 -2.9528 -0.494991 0
M  V30 415 H 38.9547 -1.42042 -0.236651 0
M  V30 416 H 40.9077 -3.02794 -2.93076 0
M  V30 417 H 39.6317 -1.80268 -2.72343 0
M  V30 418 H 38.2907 -3.41646 -1.32941 0
M  V30 419 H 37.9387 -3.29284 -3.80238 0
M  V30 420 H 37.6387 -4.93719 -3.18615 0
M  V30 421 H 39.1627 -4.57402 -4.04495 0
M  V30 422 H 40.5767 -5.39888 -1.92857 0
M  V30 423 H 38.9737 -5.86144 -1.28669 0
M  V30 424 H 40.0437 -4.83904 -0.310561 0
M  V30 425 N 41.3868 0.248026 -1.55636 0
M  V30 426 C 42.6348 0.974295 -1.77065 0
M  V30 427 C 42.9558 1.85897 -0.588849 0
M  V30 428 O 42.2258 1.91868 0.395407 0
M  V30 429 H 40.8058 0.362733 -0.653019 0
M  V30 430 H 43.4678 0.266244 -1.93073 0
M  V30 431 H 42.5638 1.59667 -2.68166 0
M  V30 432 N 42.8649 1.48995 0.513639 0
M  V30 433 C 44.1419 1.48338 1.27495 0
M  V30 434 C 44.5219 0.204065 2.10111 0
M  V30 435 O 43.8699 -0.813881 2.13514 0
M  V30 436 C 44.0799 2.75498 2.14247 0
M  V30 437 C 45.4279 3.24484 2.73852 0
M  V30 438 O 46.4519 2.76528 2.24523 0
M  V30 439 O 45.3109 4.07974 3.6362 0
M  V30 440 H 42.4049 0.593149 0.576284 0
M  V30 441 H 44.9509 1.61246 0.528948 0
M  V30 442 H 43.7229 3.60109 1.53092 0
M  V30 443 H 43.3459 2.6539 2.96064 0
M  V30 444 N 44.343 -0.763751 1.37857 0
M  V30 445 C 45.589 -1.52483 1.33704 0
M  V30 446 C 45.922 -1.94051 -0.0759612 0
M  V30 447 O 45.197 -1.64675 -1.03501 0
M  V30 448 C 45.48 -2.78441 2.28348 0
M  V30 449 C 45.333 -2.43075 3.78463 0
M  V30 450 C 46.652 -3.80415 2.21298 0
M  V30 451 H 43.771 -0.553169 0.487005 0
M  V30 452 H 46.413 -0.875562 1.68624 0
M  V30 453 H 44.563 -3.33842 1.987 0
M  V30 454 H 46.235 -1.93527 4.18742 0
M  V30 455 H 44.478 -1.75666 3.96641 0
M  V30 456 H 45.149 -3.33149 4.40132 0
M  V30 457 H 47.625 -3.34527 2.47449 0
M  V30 458 H 46.501 -4.66257 2.89647 0
M  V30 459 H 46.762 -4.25262 1.20849 0
M  V30 460 N 45.8211 -1.22559 -0.990812 0
M  V30 461 C 47.0671 -1.05297 -1.73322 0
M  V30 462 C 47.4001 0.410655 -1.89808 0
M  V30 463 O 46.6751 1.30439 -1.44277 0
M  V30 464 C 46.9581 -1.76713 -3.13759 0
M  V30 465 C 46.8111 -3.30684 -3.04907 0
M  V30 466 C 48.1301 -1.52121 -4.12974 0
M  V30 467 H 45.2491 -0.38392 -0.629106 0
M  V30 468 H 47.8911 -1.50926 -1.15418 0
M  V30 469 H 46.0411 -1.37924 -3.63193 0
M  V30 470 H 47.7131 -3.7893 -2.63077 0
M  V30 471 H 45.9561 -3.60253 -2.41661 0
M  V30 472 H 46.6271 -3.75833 -4.04294 0
M  V30 473 H 49.1031 -1.85819 -3.72304 0
M  V30 474 H 47.9791 -2.04582 -5.0935 0
M  V30 475 H 48.2401 -0.454257 -4.3976 0
M  V30 476 N 47.2992 1.18797 -1.03562 0
M  V30 477 C 48.2292 2.24472 -0.643019 0
M  V30 478 C 49.2102 1.66433 0.351283 0
M  V30 479 O 50.3952 1.92803 0.232505 0
M  V30 480 C 47.5252 3.473 4.24935e-05 0
M  V30 481 C 46.4792 4.18055 -0.917257 0
M  V30 482 C 45.8052 5.34519 -0.138941 0
M  V30 483 C 47.1052 4.72109 -2.23407 0
M  V30 484 H 48.7992 2.57566 -1.52643 0
M  V30 485 H 46.3452 1.23806 -0.735394 0
M  V30 486 H 48.2982 4.20426 0.286383 0
M  V30 487 H 47.0222 3.13424 0.918299 0
M  V30 488 H 45.6812 3.46821 -1.1879 0
M  V30 489 H 45.3292 4.96891 0.781562 0
M  V30 490 H 45.0292 5.82794 -0.750005 0
M  V30 491 H 46.5532 6.10438 0.1405 0
M  V30 492 H 47.9672 5.36955 -2.00879 0
M  V30 493 H 46.3642 5.30897 -2.79765 0
M  V30 494 H 47.4342 3.89807 -2.88407 0
M  V30 495 N 48.7773 0.814389 1.34928 0
M  V30 496 C 50.0243 0.398423 1.98542 0
M  V30 497 C 50.3523 -1.03638 1.64589 0
M  V30 498 O 49.6073 -1.73509 0.90516 0
M  V30 499 C 49.9063 0.537781 3.53331 0
M  V30 500 C 49.5723 1.93704 4.07172 0
M  V30 501 C 48.2343 2.31984 4.21589 0
M  V30 502 C 50.5863 2.85213 4.36237 0
M  V30 503 C 47.9143 3.61125 4.62391 0
M  V30 504 C 50.2663 4.13809 4.78482 0
M  V30 505 C 48.9303 4.52077 4.91104 0
M  V30 506 H 48.2003 0.145793 0.726516 0
M  V30 507 H 50.8473 1.03669 1.61012 0
M  V30 508 H 49.1523 -0.183906 3.91368 0
M  V30 509 H 50.8493 0.196588 4.00518 0
M  V30 510 H 47.4393 1.62966 3.96409 0
M  V30 511 H 51.6233 2.56885 4.24645 0
M  V30 512 H 46.8793 3.90612 4.70353 0
M  V30 513 H 51.0533 4.84811 4.99932 0
M  V30 514 H 48.6803 5.52196 5.22478 0
M  V30 515 N 50.2554 -1.46986 0.568584 0
M  V30 516 C 51.5324 -1.95592 -0.0174074 0
M  V30 517 C 51.9124 -1.51124 -1.47393 0
M  V30 518 O 51.2604 -0.755329 -2.15655 0
M  V30 519 C 51.4704 -3.48719 0.139913 0
M  V30 520 C 52.8184 -4.246 0.000426376 0
M  V30 521 O 53.8424 -3.56135 0.0680316 0
M  V30 522 O 52.7014 -5.46302 -0.146988 0
M  V30 523 H 49.7954 -0.82498 -0.0577599 0
M  V30 524 H 52.3414 -1.57335 0.635909 0
M  V30 525 H 51.1134 -3.73927 1.15301 0
M  V30 526 H 50.7364 -3.93771 -0.550491 0
M  V30 527 N 51.7335 -0.305618 -1.54608 0
M  V30 528 C 52.9825 0.303098 -1.9941 0
M  V30 529 C 53.2955 1.54648 -1.19764 0
M  V30 530 O 54.5015 2.23007 -1.54855 0
M  V30 531 C 52.9575 0.590588 -3.55021 0
M  V30 532 C 52.5655 -0.634719 -4.43481 0
M  V30 533 C 54.3095 1.16025 -4.08336 0
M  V30 534 C 52.2165 -0.320126 -5.90533 0
M  V30 535 H 51.1465 0.117031 -0.744862 0
M  V30 536 H 53.7975 -0.415045 -1.78745 0
M  V30 537 H 52.1795 1.36845 -3.71604 0
M  V30 538 H 53.3535 -1.41079 -4.38672 0
M  V30 539 H 51.6685 -1.12333 -4.00962 0
M  V30 540 H 54.2655 1.40994 -5.15776 0
M  V30 541 H 54.6085 2.10397 -3.5922 0
M  V30 542 H 55.1415 0.443985 -3.95315 0
M  V30 543 H 51.8805 -1.23254 -6.43808 0
M  V30 544 H 51.4005 0.418579 -5.98338 0
M  V30 545 H 53.0795 0.0766241 -6.46955 0
M  V30 546 N 53.2116 1.57565 -0.0334293 0
M  V30 547 C 54.4576 1.92262 0.645226 0
M  V30 548 C 54.7906 0.910543 1.71531 0
M  V30 549 O 54.0656 -0.066099 1.94388 0
M  V30 550 C 54.3486 3.37422 1.2577 0
M  V30 551 C 54.2016 4.49369 0.196891 0
M  V30 552 C 55.5206 3.82628 2.17449 0
M  V30 553 H 52.6396 0.699171 0.233085 0
M  V30 554 H 55.2816 1.89779 -0.0915694 0
M  V30 555 H 53.4316 3.39669 1.88566 0
M  V30 556 H 55.1036 4.59254 -0.433962 0
M  V30 557 H 53.3466 4.31168 -0.477137 0
M  V30 558 H 54.0176 5.47978 0.665124 0
M  V30 559 H 56.4936 3.82145 1.64634 0
M  V30 560 H 55.3696 4.84883 2.57254 0
M  V30 561 H 55.6306 3.18376 3.0674 0
M  V30 562 N 54.6897 -0.239769 1.55765 0
M  V30 563 C 55.6367 -1.29696 1.90913 0
M  V30 564 C 56.6067 -1.47478 0.764164 0
M  V30 565 O 57.7917 -1.61345 1.01845 0
M  V30 566 C 54.9317 -2.64598 2.21544 0
M  V30 567 C 54.0447 -2.54765 3.48882 0
M  V30 568 C 53.1797 -3.82069 3.69049 0
M  V30 569 C 52.2187 -3.66883 4.89963 0
M  V30 570 N 51.3557 -4.86094 5.06614 0
M  V30 571 H 56.1957 -0.990224 2.81067 0
M  V30 572 H 53.7327 -0.477684 1.39128 0
M  V30 573 H 55.6907 -3.43132 2.3731 0
M  V30 574 H 54.3207 -2.93405 1.34585 0
M  V30 575 H 53.3727 -1.67763 3.41409 0
M  V30 576 H 54.6847 -2.39457 4.37563 0
M  V30 577 H 53.8387 -4.69046 3.84812 0
M  V30 578 H 52.5777 -4.00282 2.78614 0
M  V30 579 H 51.5827 -2.78289 4.74168 0
M  V30 580 H 52.8077 -3.50157 5.81865 0
M  V30 581 H 50.7537 -5.04655 4.19117 0
M  V30 582 H 50.6707 -4.73443 5.89396 0
M  V30 583 H 51.9387 -5.74549 5.26795 0
M  V30 584 N 56.1678 -1.49265 -0.50573 0
M  V30 585 C 57.1158 -1.66065 -1.62866 0
M  V30 586 C 58.1098 -0.526636 -1.61006 0
M  V30 587 O 59.3158 -0.706126 -1.65571 0
M  V30 588 H 55.6908 -0.52356 -0.539805 0
M  V30 589 H 57.6618 -2.60329 -1.45848 0
M  V30 590 C 56.4108 -1.74008 -3.01026 0
M  V30 591 H 55.7338 -2.6064 -3.03161 0
M  V30 592 H 57.1738 -1.89798 -3.79147 0
M  V30 593 C 55.6328 -0.483868 -3.33407 0
M  V30 594 O 56.1628 0.392548 -3.99777 0
M  V30 595 N 54.3688 -0.348236 -2.88506 0
M  V30 596 H 53.9158 -1.06242 -2.34671 0
M  V30 597 H 53.8738 0.491204 -3.10539 0
M  V30 598 N 57.6459 0.756429 -1.3826 0
M  V30 599 C 58.5789 1.87802 -1.29637 0
M  V30 600 C 59.5569 1.61667 -0.173939 0
M  V30 601 O 60.7409 1.85208 -0.350775 0
M  V30 602 C 57.8679 3.23354 -1.00797 0
M  V30 603 C 56.9139 3.68379 -2.14939 0
M  V30 604 S 57.7469 3.8025 -3.77054 0
M  V30 605 C 58.9029 5.18626 -3.50396 0
M  V30 606 H 59.1359 1.94829 -2.24564 0
M  V30 607 H 56.6689 0.919117 -1.24063 0
M  V30 608 H 58.6269 4.01637 -0.848413 0
M  V30 609 H 57.2879 3.14008 -0.0759369 0
M  V30 610 H 56.4809 4.66693 -1.90299 0
M  V30 611 H 56.0829 2.97242 -2.26988 0
M  V30 612 H 58.3749 6.04289 -3.06334 0
M  V30 613 H 59.3179 5.48286 -4.48094 0
M  V30 614 H 59.7259 4.87289 -2.84973 0
M  V30 615 N 59.124 1.23083 0.984299 0
M  V30 616 C 60.535 1.05609 1.5396 0
M  V30 617 C 60.886 -0.377793 1.92528 0
M  V30 618 O 60.011 -1.26398 1.75649 0
M  V30 619 C 60.606 1.91087 2.7977 0
M  V30 620 C 59.165 1.77885 3.31713 0
M  V30 621 C 58.312 1.87028 2.04733 0
M  V30 622 H 61.263 1.36802 0.804419 0
M  V30 623 H 61.284 1.43336 3.5247 0
M  V30 624 H 60.796 2.9544 2.51668 0
M  V30 625 H 58.897 0.762995 3.64704 0
M  V30 626 H 59.01 2.61047 4.01735 0
M  V30 627 H 57.374 1.30565 2.18689 0
M  V30 628 H 58.157 2.92929 1.79017 0
M  V30 629 N 60.6021 -1.18246 1.0419 0
M  V30 630 C 61.5521 -2.19843 0.604392 0
M  V30 631 C 62.5361 -1.56962 -0.353814 0
M  V30 632 O 63.7281 -1.76156 -0.17267 0
M  V30 633 C 60.8571 -3.43287 -0.0298975 0
M  V30 634 C 59.9431 -4.13288 0.951531 0
M  V30 635 N 60.3341 -4.59271 2.11906 0
M  V30 636 C 58.6321 -4.39165 0.7778 0
M  V30 637 C 59.3331 -5.13173 2.73912 0
M  V30 638 N 58.3091 -5.04763 2.01779 0
M  V30 639 H 62.1111 -2.53089 1.4941 0
M  V30 640 H 59.6251 -1.34465 0.910658 0
M  V30 641 H 61.6221 -4.15334 -0.361037 0
M  V30 642 H 60.2821 -3.11537 -0.915127 0
M  V30 643 H 61.2931 -4.5368 2.49789 0
M  V30 644 H 57.9701 -4.17461 -0.0572331 0
M  V30 645 H 59.3601 -5.58947 3.72864 0
M  V30 646 N 62.0802 -0.821533 -1.34494 0
M  V30 647 C 63.3282 -0.408139 -1.97936 0
M  V30 648 C 63.6492 1.03193 -1.65457 0
M  V30 649 O 62.9192 1.71622 -0.944595 0
M  V30 650 H 61.4992 -0.147928 -0.732206 0
M  V30 651 H 64.1612 -1.05067 -1.64155 0
M  V30 652 H 63.2572 -0.52601 -3.07635 0
M  V30 653 N 63.5583 1.46682 -0.576371 0
M  V30 654 C 64.5053 2.30241 0.160499 0
M  V30 655 C 65.4753 1.40233 0.890162 0
M  V30 656 O 66.6603 1.69186 0.882084 0
M  V30 657 C 63.8003 3.24578 1.1723 0
M  V30 658 C 62.9133 4.29684 0.446736 0
M  V30 659 C 62.0483 5.11154 1.44551 0
M  V30 660 C 61.0873 6.08015 0.70599 0
M  V30 661 N 60.2243 6.82376 1.65251 0
M  V30 662 H 65.0643 2.92727 -0.558127 0
M  V30 663 H 62.6013 1.44272 -0.287056 0
M  V30 664 H 64.5593 3.77711 1.77172 0
M  V30 665 H 63.1893 2.63916 1.85872 0
M  V30 666 H 62.2413 3.79458 -0.267594 0
M  V30 667 H 63.5533 4.98626 -0.131686 0
M  V30 668 H 62.7073 5.68533 2.11791 0
M  V30 669 H 61.4463 4.42158 2.05786 0
M  V30 670 H 60.4513 5.49796 0.0197725 0
M  V30 671 H 61.6763 6.79028 0.09912 0
M  V30 672 H 59.6223 6.16094 2.25308 0
M  V30 673 H 59.5393 7.47556 1.12673 0
M  V30 674 H 60.8073 7.44316 2.31546 0
M  V30 675 N 65.0364 0.313813 1.54444 0
M  V30 676 C 65.9994 -0.54379 2.22656 0
M  V30 677 C 66.9994 -1.05124 1.21678 0
M  V30 678 O 68.1894 -0.945225 1.46325 0
M  V30 679 C 65.3214 -1.75427 2.92298 0
M  V30 680 H 66.5144 0.0523599 2.99854 0
M  V30 681 H 64.0674 0.0647834 1.56166 0
M  V30 682 H 64.8024 -2.38991 2.19211 0
M  V30 683 H 64.5874 -1.39791 3.66334 0
M  V30 684 H 66.0774 -2.36325 3.44297 0
M  V30 685 N 66.5145 -1.57545 0.0417849 0
M  V30 686 C 67.4445 -2.14009 -0.933929 0
M  V30 687 C 68.4255 -1.05938 -1.33083 0
M  V30 688 O 69.6105 -1.33833 -1.40721 0
M  V30 689 C 66.7405 -2.67747 -2.21199 0
M  V30 690 C 65.6945 -3.80718 -1.95544 0
M  V30 691 C 65.0205 -4.20935 -3.29724 0
M  V30 692 C 66.3205 -5.06258 -1.28452 0
M  V30 693 H 68.0145 -2.95788 -0.463645 0
M  V30 694 H 65.5605 -1.42285 -0.221573 0
M  V30 695 H 67.5135 -3.05886 -2.89848 0
M  V30 696 H 66.2375 -1.83147 -2.70416 0
M  V30 697 H 64.8965 -3.43037 -1.2931 0
M  V30 698 H 64.5445 -3.33298 -3.76724 0
M  V30 699 H 64.2445 -4.9707 -3.13361 0
M  V30 700 H 65.7685 -4.61666 -3.9962 0
M  V30 701 H 67.1825 -5.41903 -1.8712 0
M  V30 702 H 65.5795 -5.87475 -1.22445 0
M  V30 703 H 66.6495 -4.84207 -0.259219 0
M  V30 704 N 67.9926 0.231505 -1.5589 0
M  V30 705 C 69.2696 0.981096 -1.69215 0
M  V30 706 C 69.6496 2.02799 -0.586164 0
M  V30 707 O 68.9976 2.24823 0.408253 0
M  V30 708 C 69.2076 1.60054 -3.10135 0
M  V30 709 C 70.5556 2.09658 -3.69227 0
M  V30 710 O 71.5796 1.69967 -3.13033 0
M  V30 711 O 70.4386 2.8258 -4.67772 0
M  V30 712 H 67.5326 0.457653 -0.688827 0
M  V30 713 H 70.0786 0.224073 -1.68214 0
M  V30 714 H 68.8506 0.844105 -3.82087 0
M  V30 715 H 68.4736 2.42336 -3.15212 0
M  V30 716 N 69.4707 1.49531 0.497807 0
M  V30 717 C 70.6987 1.62893 1.27567 0
M  V30 718 C 71.1137 0.301585 1.86376 0
M  V30 719 O 70.4707 -0.713335 1.67982 0
M  V30 720 C 70.5217 2.70013 2.40364 0
M  V30 721 O 70.2427 3.976 1.83972 0
M  V30 722 C 71.7437 2.94109 3.31685 0
M  V30 723 H 68.9637 0.548298 0.386794 0
M  V30 724 H 71.5077 1.95584 0.597245 0
M  V30 725 H 69.6627 2.40092 3.04031 0
M  V30 726 H 70.0767 4.56631 2.58047 0
M  V30 727 H 71.5507 3.72788 4.07104 0
M  V30 728 H 72.0277 2.04147 3.88871 0
M  V30 729 H 72.6337 3.2546 2.73781 0
M  V30 730 N 70.9488 -0.749086 1.3866 0
M  V30 731 C 72.1738 -1.54344 1.38538 0
M  V30 732 C 72.5988 -1.88088 -0.0216655 0
M  V30 733 O 71.9568 -1.50899 -1.00494 0
M  V30 734 C 72.0048 -2.8164 2.25192 0
M  V30 735 O 71.1088 -3.7698 1.67212 0
M  V30 736 H 70.4498 -0.466654 0.472367 0
M  V30 737 H 72.9798 -0.925355 1.82478 0
M  V30 738 H 72.9898 -3.30519 2.3921 0
M  V30 739 H 71.6648 -2.56411 3.27454 0
M  V30 740 H 70.2418 -3.35699 1.6236 0
M  V30 741 N 72.4269 -1.23603 -0.977757 0
M  V30 742 C 73.3769 -0.986664 -2.05545 0
M  V30 743 C 74.3609 0.0683009 -1.60755 0
M  V30 744 O 75.5529 -0.144162 -1.76412 0
M  V30 745 C 72.6819 -0.582623 -3.3832 0
M  V30 746 C 71.7679 -1.67313 -3.89701 0
M  V30 747 N 72.1589 -2.90394 -4.14132 0
M  V30 748 C 70.4569 -1.54832 -4.18262 0
M  V30 749 C 71.1579 -3.61017 -4.56116 0
M  V30 750 N 70.1339 -2.8854 -4.60701 0
M  V30 751 H 73.9359 -1.92139 -2.22396 0
M  V30 752 H 71.4499 -1.1358 -1.16074 0
M  V30 753 H 73.4469 -0.38524 -4.15116 0
M  V30 754 H 72.1069 0.34503 -3.22862 0
M  V30 755 H 73.1179 -3.26673 -4.01877 0
M  V30 756 H 69.7949 -0.687969 -4.11793 0
M  V30 757 H 71.1849 -4.66544 -4.83514 0
M  V30 758 N 73.905 1.17692 -1.04816 0
M  V30 759 C 75.133 1.91786 -0.776254 0
M  V30 760 C 75.548 1.76604 0.667577 0
M  V30 761 O 74.905 1.10067 1.45573 0
M  V30 762 C 74.956 3.42967 -1.14263 0
M  V30 763 O 74.677 3.57678 -2.52978 0
M  V30 764 C 76.178 4.34144 -0.896311 0
M  V30 765 H 73.398 0.608624 -0.282519 0
M  V30 766 H 75.942 1.49268 -1.39783 0
M  V30 767 H 74.097 3.83245 -0.565874 0
M  V30 768 H 74.511 4.51319 -2.67229 0
M  V30 769 H 75.985 5.38744 -1.20244 0
M  V30 770 H 76.462 4.38876 0.168636 0
M  V30 771 H 77.068 3.99574 -1.45672 0
M  V30 772 N 75.3831 0.828654 1.34056 0
M  V30 773 C 76.3311 0.242973 2.31327 0
M  V30 774 C 77.3251 -0.61944 1.57668 0
M  V30 775 O 78.5311 -0.51014 1.7262 0
M  V30 776 H 74.9061 0.059834 0.749616 0
M  V30 777 H 76.8771 1.07809 2.78244 0
M  V30 778 C 75.6261 -0.575733 3.429 0
M  V30 779 H 74.9491 0.0785582 3.99723 0
M  V30 780 H 76.3891 -0.951547 4.13185 0
M  V30 781 C 74.8481 -1.75044 2.87856 0
M  V30 782 O 75.3781 -2.84882 2.83205 0
M  V30 783 N 73.5841 -1.56903 2.44602 0
M  V30 784 H 73.1311 -0.675547 2.48584 0
M  V30 785 H 73.0891 -2.35652 2.08124 0
M  V30 786 N 76.8612 -1.46375 0.584142 0
M  V30 787 C 78.1072 -2.02678 0.0703716 0
M  V30 788 C 78.4402 -1.4545 -1.28678 0
M  V30 789 O 77.7152 -0.62014 -1.84349 0
M  V30 790 C 77.9982 -3.60099 0.00614674 0
M  V30 791 C 77.8512 -4.27709 1.3923 0
M  V30 792 C 79.1702 -4.34598 -0.693742 0
M  V30 793 H 76.2892 -0.736504 0.027047 0
M  V30 794 H 78.9312 -1.74501 0.751615 0
M  V30 795 H 77.0812 -3.84236 -0.574009 0
M  V30 796 H 78.7532 -4.14832 2.01773 0
M  V30 797 H 76.9962 -3.87016 1.95962 0
M  V30 798 H 77.6672 -5.36478 1.29982 0
M  V30 799 H 80.1432 -4.15615 -0.200869 0
M  V30 800 H 79.0192 -5.44318 -0.707714 0
M  V30 801 H 79.2802 -4.05759 -1.75533 0
M  V30 802 N 78.3393 -0.321999 -1.54275 0
M  V30 803 C 79.2723 0.58718 -2.20516 0
M  V30 804 C 80.2503 1.11693 -1.18167 0
M  V30 805 O 81.4343 1.18122 -1.46899 0
M  V30 806 C 78.5613 1.80554 -2.86562 0
M  V30 807 C 77.6073 1.40718 -4.02617 0
M  V30 808 S 78.4403 0.445218 -5.33646 0
M  V30 809 C 79.5963 1.6709 -6.03185 0
M  V30 810 H 79.8293 0.0244875 -2.9729 0
M  V30 811 H 77.3623 -0.106087 -1.54035 0
M  V30 812 H 79.3203 2.50462 -3.25237 0
M  V30 813 H 77.9813 2.33942 -2.09595 0
M  V30 814 H 77.1743 2.31501 -4.47687 0
M  V30 815 H 76.7763 0.78782 -3.65608 0
M  V30 816 H 79.0683 2.60856 -6.25268 0
M  V30 817 H 80.0113 1.26239 -6.96756 0
M  V30 818 H 80.4193 1.85716 -5.33076 0
M  V30 819 N 79.8174 1.5752 -0.0501392 0
M  V30 820 C 80.7804 2.1037 0.909786 0
M  V30 821 C 81.7804 1.02308 1.24056 0
M  V30 822 O 82.9704 1.28385 1.17741 0
M  V30 823 C 80.1024 2.58708 2.21998 0
M  V30 824 H 81.2954 2.96479 0.451665 0
M  V30 825 H 78.8484 1.55038 0.198248 0
M  V30 826 H 79.5834 1.75989 2.72394 0
M  V30 827 H 79.3684 3.37675 1.99295 0
M  V30 828 H 80.8584 2.99747 2.9076 0
M  V30 829 N 81.2955 -0.223234 1.56011 0
M  V30 830 C 82.5255 -0.963413 1.82762 0
M  V30 831 C 82.9335 -1.78516 0.626804 0
M  V30 832 O 82.2765 -1.78974 -0.414014 0
M  V30 833 C 82.3385 -1.93126 3.0322 0
M  V30 834 C 82.0025 -1.2942 4.38291 0
M  V30 835 C 82.9995 -0.684916 5.15369 0
M  V30 836 C 80.6845 -1.30647 4.85012 0
M  V30 837 C 82.6785 -0.0963971 6.37327 0
M  V30 838 C 80.3655 -0.71411 6.06913 0
M  V30 839 C 81.3635 -0.110123 6.82911 0
M  V30 840 O 81.0515 0.47303 8.02507 0
M  V30 841 H 80.7835 -0.288011 0.611576 0
M  V30 842 H 83.3375 -0.244103 2.03944 0
M  V30 843 H 81.5675 -2.68952 2.77852 0
M  V30 844 H 83.2565 -2.53685 3.16857 0
M  V30 845 H 84.0225 -0.667774 4.80381 0
M  V30 846 H 79.9015 -1.76598 4.25833 0
M  V30 847 H 83.4455 0.375657 6.96588 0
M  V30 848 H 79.3425 -0.728659 6.41374 0
M  V30 849 H 80.1105 0.367186 8.17676 0
M  V30 850 N 82.7736 -1.49793 -0.48987 0
M  V30 851 C 83.9986 -1.63836 -1.27172 0
M  V30 852 C 84.4236 -0.31402 -1.8546 0
M  V30 853 O 83.7816 0.719803 -1.66399 0
M  V30 854 C 83.8296 -2.71797 -2.36978 0
M  V30 855 O 82.9336 -2.31744 -3.41128 0
M  V30 856 H 82.2746 -0.547997 -0.37496 0
M  V30 857 H 84.8046 -1.96053 -0.585191 0
M  V30 858 H 84.8146 -2.94305 -2.82575 0
M  V30 859 H 83.4896 -3.67923 -1.93921 0
M  V30 860 H 82.0666 -2.1961 -3.01373 0
M  V30 861 N 84.2517 0.741722 -1.39055 0
M  V30 862 C 85.1997 1.87702 -1.3737 0
M  V30 863 C 86.1937 1.67427 -0.257812 0
M  V30 864 O 87.3997 1.7485 -0.427489 0
M  V30 865 H 83.7747 0.617757 -0.428812 0
M  V30 866 H 85.7457 1.86239 -2.33147 0
M  V30 867 C 84.4947 3.25315 -1.22741 0
M  V30 868 H 83.8177 3.41509 -2.07873 0
M  V30 869 H 85.2577 4.04964 -1.25618 0
M  V30 870 C 83.7167 3.36838 0.0647316 0
M  V30 871 O 84.2467 3.88073 1.03741 0
M  V30 872 N 82.4527 2.90329 0.125544 0
M  V30 873 H 81.9997 2.48823 -0.666682 0
M  V30 874 H 81.9577 2.98418 0.989639 0
M  V30 875 N 85.7298 1.2412 0.971189 0
M  V30 876 C 86.9698 1.09066 1.7287 0
M  V30 877 C 87.3338 -0.364794 1.88503 0
M  V30 878 O 88.5348 -0.636748 2.61149 0
M  V30 879 C 86.8058 1.80629 3.08396 0
M  V30 880 S 88.3648 1.81263 3.99611 0
M  V30 881 H 85.1828 0.390145 0.594397 0
M  V30 882 H 87.7848 1.57397 1.15959 0
M  V30 883 H 86.4888 2.85647 2.94676 0
M  V30 884 H 86.0198 1.32617 3.70373 0
M  V30 885 H 88.0348 0.877804 4.88374 0
M  V30 886 N 87.2079 -1.17134 1.05439 0
M  V30 887 C 88.1549 -2.21235 0.657539 0
M  V30 888 C 89.1249 -1.62551 -0.341543 0
M  V30 889 O 90.3099 -1.89379 -0.232393 0
M  V30 890 C 87.4499 -3.45076 0.0410575 0
M  V30 891 C 86.5629 -4.18042 1.08927 0
M  V30 892 C 85.6979 -5.29376 0.439848 0
M  V30 893 C 84.7369 -5.94132 1.4722 0
M  V30 894 N 83.8739 -6.96975 0.846756 0
M  V30 895 H 88.7139 -2.54534 1.54972 0
M  V30 896 H 86.2509 -1.25028 0.775006 0
M  V30 897 H 88.2089 -4.15862 -0.33383 0
M  V30 898 H 86.8389 -3.12353 -0.814568 0
M  V30 899 H 85.8909 -3.45945 1.58196 0
M  V30 900 H 87.2029 -4.62306 1.87282 0
M  V30 901 H 86.3569 -6.06699 0.0115125 0
M  V30 902 H 85.0959 -4.86251 -0.375656 0
M  V30 903 H 84.1009 -5.15538 1.91052 0
M  V30 904 H 85.3259 -6.39337 2.28965 0
M  V30 905 H 83.2719 -6.5598 0.0518075 0
M  V30 906 H 83.1889 -7.39565 1.5678 0
M  V30 907 H 84.4569 -7.78239 0.443277 0
M  V30 908 N 88.686 -0.835752 -1.33615 0
M  V30 909 C 89.932 -0.430596 -1.98176 0
M  V30 910 C 90.265 1.00684 -1.66061 0
M  V30 911 O 89.54 1.70339 -0.938877 0
M  V30 912 C 89.823 -0.648065 -3.5422 0
M  V30 913 C 89.676 -2.13255 -3.96033 0
M  V30 914 C 90.995 -0.0922113 -4.40003 0
M  V30 915 H 88.114 -0.157924 -0.719881 0
M  V30 916 H 90.756 -1.05069 -1.58305 0
M  V30 917 H 88.906 -0.120237 -3.88314 0
M  V30 918 H 90.578 -2.725 -3.72211 0
M  V30 919 H 88.821 -2.61823 -3.45878 0
M  V30 920 H 89.492 -2.23547 -5.04708 0
M  V30 921 H 91.968 -0.543343 -4.12537 0
M  V30 922 H 90.844 -0.274083 -5.48215 0
M  V30 923 H 91.105 1.00378 -4.30554 0
M  V30 924 N 90.1641 1.46063 -0.591896 0
M  V30 925 C 91.3891 2.07226 -0.0850314 0
M  V30 926 C 91.8141 1.43625 1.21463 0
M  V30 927 O 91.1721 0.523305 1.73583 0
M  V30 928 C 91.2201 3.60554 0.0576567 0
M  V30 929 O 90.3241 3.97128 1.11188 0
M  V30 930 H 89.6651 0.660615 -0.0669568 0
M  V30 931 H 92.1951 1.8756 -0.81745 0
M  V30 932 H 92.2051 4.07165 0.2609 0
M  V30 933 H 90.8801 4.06235 -0.891416 0
M  V30 934 H 89.4571 3.62213 0.886356 0
M  V30 935 N 91.6422 0.330177 1.54103 0
M  V30 936 C 92.8902 -0.269871 2.0029 0
M  V30 937 C 93.2112 -1.52133 1.21986 0
M  V30 938 O 92.4812 -1.93212 0.323438 0
M  V30 939 H 91.0612 -0.10271 0.739905 0
M  V30 940 H 93.7232 0.448249 1.89675 0
M  V30 941 H 92.8192 -0.52166 3.07709 0
M  V30 942 N 93.1203 -1.57491 0.0584922 0
M  V30 943 C 94.3453 -1.97711 -0.62652 0
M  V30 944 C 94.7703 -0.936132 -1.63151 0
M  V30 945 O 94.1283 0.099811 -1.81025 0
M  V30 946 C 94.1763 -3.36989 -1.28338 0
M  V30 947 O 93.2803 -3.35433 -2.39913 0
M  V30 948 H 92.6213 -0.643868 -0.162266 0
M  V30 949 H 95.1513 -2.04193 0.129064 0
M  V30 950 H 95.1613 -3.73879 -1.63335 0
M  V30 951 H 93.8363 -4.12289 -0.546889 0
M  V30 952 H 92.4133 -3.10298 -2.06809 0
M  V30 953 N 94.5984 0.214957 -1.56127 0
M  V30 954 C 95.5464 1.28601 -1.93816 0
M  V30 955 C 96.5404 1.48175 -0.821016 0
M  V30 956 O 97.7464 1.49271 -1.0059 0
M  V30 957 H 94.1214 0.431302 -0.616022 0
M  V30 958 H 96.0924 0.940991 -2.83175 0
M  V30 959 C 94.8414 2.62779 -2.27689 0
M  V30 960 H 94.1644 2.48527 -3.13168 0
M  V30 961 H 95.6044 3.36517 -2.57939 0
M  V30 962 C 94.0634 3.18285 -1.10436 0
M  V30 963 O 94.5934 4.00002 -0.368945 0
M  V30 964 N 92.7994 2.7675 -0.886433 0
M  V30 965 H 92.3464 2.10404 -1.48619 0
M  V30 966 H 92.3044 3.14229 -0.103656 0
M  V30 967 N 96.0765 1.50051 0.48192 0
M  V30 968 C 97.3045 1.64237 1.25832 0
M  V30 969 C 97.7195 0.321336 1.86045 0
M  V30 970 O 97.0765 -0.695478 1.68729 0
M  V30 971 C 97.1275 2.72548 2.37487 0
M  V30 972 O 96.8485 3.99529 1.79745 0
M  V30 973 C 98.3495 2.9761 3.28547 0
M  V30 974 H 95.5695 0.55237 0.380957 0
M  V30 975 H 98.1135 1.96207 0.576467 0
M  V30 976 H 96.2685 2.43303 3.01467 0
M  V30 977 H 96.6825 4.59342 2.5319 0
M  V30 978 H 98.1565 3.77084 4.03127 0
M  V30 979 H 98.6335 2.0826 3.86684 0
M  V30 980 H 99.2395 3.28345 2.70314 0
M  V30 981 N 97.5546 -0.734337 1.39446 0
M  V30 982 C 98.7846 -1.52137 1.39778 0
M  V30 983 C 99.1926 -1.89198 -0.00929312 0
M  V30 984 O 98.5356 -1.54666 -0.991168 0
M  V30 985 C 98.5976 -2.83762 2.20724 0
M  V30 986 C 98.2616 -2.69131 3.69347 0
M  V30 987 C 99.2586 -2.37635 4.62413 0
M  V30 988 C 96.9436 -2.85982 4.1294 0
M  V30 989 C 98.9376 -2.23172 5.97054 0
M  V30 990 C 96.6246 -2.71137 5.47657 0
M  V30 991 C 97.6226 -2.39777 6.39528 0
M  V30 992 O 97.3106 -2.25026 7.71763 0
M  V30 993 H 97.0426 -0.476717 0.479288 0
M  V30 994 H 99.5966 -0.915012 1.83893 0
M  V30 995 H 97.8266 -3.4666 1.71359 0
M  V30 996 H 99.5156 -3.45383 2.13226 0
M  V30 997 H 100.282 -2.24267 4.30034 0
M  V30 998 H 96.1606 -3.09383 3.41765 0
M  V30 999 H 99.7046 -1.98617 6.68728 0
M  V30 1000 H 95.6016 -2.84083 5.79626 0
M  V30 1001 H 96.3696 -2.40091 7.82495 0
M  V30 1002 N 99.0327 -1.24633 -0.964593 0
M  V30 1003 C 100.31 -0.995809 -1.68354 0
M  V30 1004 C 100.69 0.480964 -2.05548 0
M  V30 1005 O 100.038 1.45599 -1.76105 0
M  V30 1006 C 100.248 -1.92177 -2.91323 0
M  V30 1007 C 101.596 -2.19446 -3.63495 0
M  V30 1008 O 102.62 -1.89855 -3.01386 0
M  V30 1009 O 101.479 -2.69714 -4.75307 0
M  V30 1010 H 98.5727 -0.376854 -0.736146 0
M  V30 1011 H 101.119 -1.35745 -1.0184 0
M  V30 1012 H 99.8907 -2.91938 -2.60553 0
M  V30 1013 H 99.5137 -1.56349 -3.65569 0
M  V30 1014 N 100.511 1.16574 -1.06058 0
M  V30 1015 C 101.788 1.83048 -0.689416 0
M  V30 1016 C 102.168 1.94122 0.829443 0
M  V30 1017 O 101.516 1.48249 1.7388 0
M  V30 1018 C 101.726 3.20186 -1.38859 0
M  V30 1019 C 103.074 3.95989 -1.53226 0
M  V30 1020 O 104.098 3.29696 -1.3483 0
M  V30 1021 O 102.957 5.14813 -1.83384 0
M  V30 1022 H 100.051 0.790258 -0.243764 0
M  V30 1023 H 102.597 1.23797 -1.16071 0
M  V30 1024 H 101.369 3.07146 -2.4244 0
M  V30 1025 H 100.992 3.87112 -0.907216 0
M  V30 1026 N 101.989 0.842826 1.3317 0
M  V30 1027 C 102.919 0.294028 2.31641 0
M  V30 1028 C 103.9 -0.600401 1.59151 0
M  V30 1029 O 105.085 -0.523124 1.87022 0
M  V30 1030 C 102.215 -0.528416 3.43257 0
M  V30 1031 C 101.169 0.27056 4.27144 0
M  V30 1032 C 100.495 -0.675881 5.30411 0
M  V30 1033 C 101.795 1.48981 5.00602 0
M  V30 1034 H 103.489 1.11681 2.77791 0
M  V30 1035 H 101.035 0.538478 1.33553 0
M  V30 1036 H 102.988 -0.922674 4.11175 0
M  V30 1037 H 101.712 -1.38445 2.95805 0
M  V30 1038 H 100.371 0.646427 3.60856 0
M  V30 1039 H 100.019 -1.52842 4.79216 0
M  V30 1040 H 99.7189 -0.145374 5.8742 0
M  V30 1041 H 101.243 -1.06757 6.01195 0
M  V30 1042 H 102.657 1.16849 5.61266 0
M  V30 1043 H 101.054 1.95739 5.6728 0
M  V30 1044 H 102.124 2.25746 4.29147 0
M  V30 1045 N 103.467 -1.45747 0.599634 0
M  V30 1046 C 104.43 -2.28917 -0.113835 0
M  V30 1047 C 105.43 -1.3933 -0.802729 0
M  V30 1048 O 106.62 -1.61534 -0.652103 0
M  V30 1049 C 103.752 -3.20152 -1.17114 0
M  V30 1050 H 104.945 -2.93478 0.617289 0
M  V30 1051 H 102.498 -1.52137 0.358327 0
M  V30 1052 H 103.233 -2.60374 -1.93329 0
M  V30 1053 H 103.018 -3.86133 -0.681468 0
M  V30 1054 H 104.508 -3.82708 -1.67105 0
M  V30 1055 N 104.945 -0.338344 -1.53925 0
M  V30 1056 C 106.193 0.259245 -2.0043 0
M  V30 1057 C 106.514 1.51484 -1.22791 0
M  V30 1058 O 105.784 1.93037 -0.33368 0
M  V30 1059 H 104.364 0.0987845 -0.740439 0
M  V30 1060 H 107.026 -0.458302 -1.89435 0
M  V30 1061 H 106.122 0.505334 -3.07982 0
M  V30 1062 N 106.423 1.57458 -0.0668435 0
M  V30 1063 C 107.386 2.11323 0.887422 0
M  V30 1064 C 108.386 1.03618 1.22964 0
M  V30 1065 O 109.576 1.29626 1.16373 0
M  V30 1066 C 106.708 2.61048 2.19242 0
M  V30 1067 H 107.901 2.96942 0.420194 0
M  V30 1068 H 105.454 1.55239 0.181793 0
M  V30 1069 H 106.189 1.78868 2.70512 0
M  V30 1070 H 105.974 3.39769 1.95702 0
M  V30 1071 H 107.464 3.02814 2.87565 0
M  V30 1072 N 107.901 -0.206675 1.56239 0
M  V30 1073 C 109.178 -0.954051 1.70755 0
M  V30 1074 C 109.558 -2.01841 0.618353 0
M  V30 1075 O 108.906 -2.25444 -0.372434 0
M  V30 1076 C 109.116 -1.551 3.12642 0
M  V30 1077 C 110.464 -2.03757 3.72516 0
M  V30 1078 O 111.488 -1.64965 3.15698 0
M  V30 1079 O 110.347 -2.75103 4.72208 0
M  V30 1080 H 107.441 -0.446636 0.696021 0
M  V30 1081 H 109.987 -0.197283 1.68549 0
M  V30 1082 H 108.759 -0.783212 3.83382 0
M  V30 1083 H 108.382 -2.37291 3.19028 0
M  V30 1084 N 109.379 -1.50304 -0.473955 0
M  V30 1085 C 110.625 -1.61389 -1.22806 0
M  V30 1086 C 110.958 -0.311955 -1.91678 0
M  V30 1087 O 110.233 0.686384 -1.81986 0
M  V30 1088 C 110.516 -2.79219 -2.27396 0
M  V30 1089 C 110.369 -4.19286 -1.62848 0
M  V30 1090 C 111.688 -2.92614 -3.28732 0
M  V30 1091 H 108.807 -0.587399 -0.445119 0
M  V30 1092 H 111.449 -1.82681 -0.522265 0
M  V30 1093 H 109.599 -2.61195 -2.87592 0
M  V30 1094 H 111.271 -4.48892 -1.06271 0
M  V30 1095 H 109.514 -4.23677 -0.931693 0
M  V30 1096 H 110.185 -4.97655 -2.38838 0
M  V30 1097 H 112.661 -3.09105 -2.78556 0
M  V30 1098 H 111.537 -3.76688 -3.99246 0
M  V30 1099 H 111.798 -2.03107 -3.92683 0
M  V30 1100 N 110.857 0.726932 -1.39834 0
M  V30 1101 C 112.103 1.48884 -1.377 0
M  V30 1102 C 112.436 1.94185 0.0244852 0
M  V30 1103 O 111.711 1.67361 0.990986 0
M  V30 1104 C 111.994 2.72288 -2.3565 0
M  V30 1105 C 111.847 2.32956 -3.84775 0
M  V30 1106 C 113.166 3.74414 -2.31306 0
M  V30 1107 H 110.285 0.540062 -0.5015 0
M  V30 1108 H 112.927 0.830547 -1.70886 0
M  V30 1109 H 111.077 3.28457 -2.07481 0
M  V30 1110 H 112.749 1.82356 -4.23726 0
M  V30 1111 H 110.992 1.65088 -4.01159 0
M  V30 1112 H 111.663 3.21362 -4.4881 0
M  V30 1113 H 114.139 3.27849 -2.56231 0
M  V30 1114 H 113.015 4.58414 -3.01907 0
M  V30 1115 H 113.276 4.21909 -1.32081 0
M  V30 1116 N 112.336 1.25143 0.95797 0
M  V30 1117 C 113.585 1.0909 1.69654 0
M  V30 1118 C 113.898 -0.368548 1.92097 0
M  V30 1119 O 115.104 -0.649455 2.63618 0
M  V30 1120 C 113.56 1.90395 3.05414 0
M  V30 1121 C 113.168 3.4081 2.90779 0
M  V30 1122 C 114.912 1.82901 3.83076 0
M  V30 1123 C 112.819 4.14423 4.21909 0
M  V30 1124 H 111.749 0.404625 0.636235 0
M  V30 1125 H 114.4 1.4931 1.06672 0
M  V30 1126 H 112.782 1.42996 3.69281 0
M  V30 1127 H 113.956 3.95859 2.35865 0
M  V30 1128 H 112.271 3.49361 2.26575 0
M  V30 1129 H 114.868 2.35196 4.80195 0
M  V30 1130 H 115.211 0.796224 4.08615 0
M  V30 1131 H 115.744 2.28033 3.25954 0
M  V30 1132 H 112.483 5.18102 4.01561 0
M  V30 1133 H 112.003 3.64159 4.76601 0
M  V30 1134 H 113.682 4.21956 4.90471 0
M  V30 1135 N 113.814 -1.1601 1.06675 0
M  V30 1136 C 115.06 -1.86909 0.786945 0
M  V30 1137 C 115.393 -1.81717 -0.685018 0
M  V30 1138 O 114.668 -1.23551 -1.50218 0
M  V30 1139 C 114.951 -3.36313 1.28707 0
M  V30 1140 C 114.804 -3.50175 2.82308 0
M  V30 1141 C 116.123 -4.3084 0.898071 0
M  V30 1142 H 113.242 -0.678677 0.287343 0
M  V30 1143 H 115.884 -1.36336 1.32334 0
M  V30 1144 H 114.034 -3.79513 0.830768 0
M  V30 1145 H 115.706 -3.15886 3.36175 0
M  V30 1146 H 113.949 -2.91959 3.20847 0
M  V30 1147 H 114.62 -4.55116 3.12368 0
M  V30 1148 H 117.096 -3.95561 1.29114 0
M  V30 1149 H 115.972 -5.33876 1.27543 0
M  V30 1150 H 116.233 -4.41662 -0.196651 0
M  V30 1151 N 115.292 -0.849877 -1.32721 0
M  V30 1152 C 116.52 -0.464754 -2.01613 0
M  V30 1153 C 116.935 0.937191 -1.63897 0
M  V30 1154 O 116.292 1.61081 -0.857856 0
M  V30 1155 C 116.343 -0.588638 -3.56675 0
M  V30 1156 O 116.064 -1.93535 -3.93034 0
M  V30 1157 C 117.565 -0.2019 -4.4284 0
M  V30 1158 H 114.785 -0.183215 -0.645502 0
M  V30 1159 H 117.329 -1.1455 -1.69407 0
M  V30 1160 H 115.484 0.0443159 -3.87375 0
M  V30 1161 H 115.898 -1.92871 -4.87751 0
M  V30 1162 H 117.372 -0.339599 -5.50954 0
M  V30 1163 H 117.849 0.857224 -4.30753 0
M  V30 1164 H 118.455 -0.809733 -4.17521 0
M  V30 1165 N 116.77 1.45427 -0.607355 0
M  V30 1166 C 117.733 2.28974 0.101693 0
M  V30 1167 C 118.733 1.39754 0.795329 0
M  V30 1168 O 119.923 1.61878 0.643527 0
M  V30 1169 C 117.055 3.20768 1.15414 0
M  V30 1170 H 118.248 2.93147 -0.632844 0
M  V30 1171 H 115.801 1.51945 -0.366391 0
M  V30 1172 H 116.536 2.61395 1.91945 0
M  V30 1173 H 116.321 3.86489 0.66098 0
M  V30 1174 H 117.811 3.83589 1.65073 0
M  V30 1175 N 118.248 0.346503 1.53744 0
M  V30 1176 C 119.496 -0.248612 2.00565 0
M  V30 1177 C 119.817 -1.5083 1.23593 0
M  V30 1178 O 119.087 -1.92858 0.343912 0
M  V30 1179 H 117.667 -0.0948564 0.740953 0
M  V30 1180 H 120.329 0.468341 1.89189 0
M  V30 1181 H 119.425 -0.488994 3.08245 0
M  V30 1182 N 119.726 -1.57421 0.075193 0
M  V30 1183 C 120.973 -1.93618 -0.593146 0
M  V30 1184 C 121.301 -0.955484 -1.69413 0
M  V30 1185 O 120.556 0.0283251 -1.9568 0
M  V30 1186 C 120.855 -3.36428 -1.20626 0
M  V30 1187 C 120.521 -4.50307 -0.231078 0
M  V30 1188 C 119.183 -4.81186 0.0371936 0
M  V30 1189 C 121.535 -5.19374 0.435888 0
M  V30 1190 C 118.863 -5.78466 0.979461 0
M  V30 1191 C 121.215 -6.17665 1.3665 0
M  V30 1192 C 119.879 -6.46958 1.6432 0
M  V30 1193 H 119.149 -0.708499 -0.217047 0
M  V30 1194 H 121.796 -1.90937 0.146793 0
M  V30 1195 H 120.101 -3.35592 -2.02201 0
M  V30 1196 H 121.798 -3.61727 -1.73073 0
M  V30 1197 H 118.388 -4.26227 -0.450357 0
M  V30 1198 H 122.572 -4.95711 0.241748 0
M  V30 1199 H 117.828 -5.99487 1.20106 0
M  V30 1200 H 122.002 -6.70284 1.88924 0
M  V30 1201 H 119.629 -7.2215 2.37494 0
M  V30 1202 N 121.204 0.198386 -1.56346 0
M  V30 1203 C 122.432 0.935572 -1.84539 0
M  V30 1204 C 122.847 1.76989 -0.657281 0
M  V30 1205 O 122.204 1.78626 0.374043 0
M  V30 1206 C 122.255 1.8344 -3.11499 0
M  V30 1207 O 121.976 1.03377 -4.25728 0
M  V30 1208 C 123.477 2.68355 -3.52846 0
M  V30 1209 H 120.697 0.273126 -0.612897 0
M  V30 1210 H 123.241 0.20663 -2.03453 0
M  V30 1211 H 121.396 2.51701 -2.94492 0
M  V30 1212 H 121.81 1.64599 -4.98003 0
M  V30 1213 H 123.284 3.27085 -4.44657 0
M  V30 1214 H 123.761 3.41901 -2.75681 0
M  V30 1215 H 124.367 2.05471 -3.72373 0
M  V30 1216 N 122.682 1.50554 0.465978 0
M  V30 1217 C 123.629 1.6979 1.56333 0
M  V30 1218 C 124.599 0.539239 1.57103 0
M  V30 1219 O 125.784 0.770401 1.74555 0
M  V30 1220 C 122.924 1.80273 2.94271 0
M  V30 1221 C 122.037 3.07674 3.0325 0
M  V30 1222 C 121.172 3.08922 4.32135 0
M  V30 1223 C 120.211 4.30755 4.34875 0
M  V30 1224 N 119.348 4.29714 5.55239 0
M  V30 1225 H 124.188 2.63472 1.39235 0
M  V30 1226 H 121.725 1.30602 0.676873 0
M  V30 1227 H 123.683 1.84332 3.74269 0
M  V30 1228 H 122.313 0.900258 3.09992 0
M  V30 1229 H 121.365 3.13062 2.16094 0
M  V30 1230 H 122.677 3.97642 3.01135 0
M  V30 1231 H 121.831 3.11738 5.20485 0
M  V30 1232 H 120.57 2.16792 4.36866 0
M  V30 1233 H 119.575 4.28146 3.44922 0
M  V30 1234 H 120.8 5.24117 4.31831 0
M  V30 1235 H 118.746 3.4044 5.60746 0
M  V30 1236 H 118.663 5.13456 5.54886 0
M  V30 1237 H 119.931 4.36683 6.457 0
M  V30 1238 N 124.16 -0.719506 1.40217 0
M  V30 1239 C 125.123 -1.8153 1.39927 0
M  V30 1240 C 126.123 -1.58095 0.293723 0
M  V30 1241 O 127.313 -1.65209 0.552429 0
M  V30 1242 C 124.445 -3.19561 1.18716 0
M  V30 1243 H 125.638 -1.83186 2.37451 0
M  V30 1244 H 123.191 -0.924746 1.26008 0
M  V30 1245 H 123.926 -3.23557 0.219366 0
M  V30 1246 H 123.711 -3.3797 1.98793 0
M  V30 1247 H 125.201 -3.99598 1.21291 0
M  V30 1248 N 125.638 -1.25649 -0.95132 0
M  V30 1249 C 127.049 -1.09654 -1.51106 0
M  V30 1250 C 127.4 0.326615 -1.93462 0
M  V30 1251 O 126.525 1.21697 -1.78938 0
M  V30 1252 C 127.12 -1.98437 -2.74605 0
M  V30 1253 C 125.679 -1.86618 -3.2688 0
M  V30 1254 C 124.826 -1.9239 -1.99703 0
M  V30 1255 H 127.777 -1.38887 -0.767865 0
M  V30 1256 H 127.798 -1.5263 -3.48546 0
M  V30 1257 H 127.31 -3.02009 -2.43746 0
M  V30 1258 H 125.411 -0.859421 -3.62553 0
M  V30 1259 H 125.524 -2.71607 -3.94673 0
M  V30 1260 H 123.888 -1.36317 -2.15151 0
M  V30 1261 H 124.671 -2.97573 -1.71188 0
M  V30 1262 N 127.117 1.15442 -1.07289 0
M  V30 1263 C 128.365 1.85845 -0.794096 0
M  V30 1264 C 128.686 1.82692 0.681809 0
M  V30 1265 O 127.956 1.26741 1.49377 0
M  V30 1266 H 126.536 0.688089 -0.290763 0
M  V30 1267 H 129.198 1.39947 -1.3565 0
M  V30 1268 H 128.294 2.91001 -1.12804 0
M  V30 1269 N 128.595 0.856903 1.32268 0
M  V30 1270 C 129.542 0.301172 2.28827 0
M  V30 1271 C 130.512 -0.593104 1.5515 0
M  V30 1272 O 131.697 -0.527537 1.83362 0
M  V30 1273 C 128.837 -0.502523 3.41422 0
M  V30 1274 C 127.95 0.417797 4.29975 0
M  V30 1275 C 127.085 -0.398749 5.29701 0
M  V30 1276 C 126.124 0.518827 6.09897 0
M  V30 1277 N 125.261 -0.260674 7.01616 0
M  V30 1278 H 130.101 1.12983 2.75751 0
M  V30 1279 H 127.638 0.568582 1.35667 0
M  V30 1280 H 129.596 -0.984141 4.05426 0
M  V30 1281 H 128.226 -1.29599 2.95642 0
M  V30 1282 H 127.278 1.01781 3.66531 0
M  V30 1283 H 128.59 1.12191 4.86019 0
M  V30 1284 H 127.744 -0.943435 5.9932 0
M  V30 1285 H 126.483 -1.13622 4.7428 0
M  V30 1286 H 125.488 1.07538 5.39181 0
M  V30 1287 H 126.713 1.25495 6.67404 0
M  V30 1288 H 124.659 -0.981198 6.4862 0
M  V30 1289 H 124.576 0.384364 7.55022 0
M  V30 1290 H 125.844 -0.787014 7.75517 0
M  V30 1291 N 130.073 -1.45103 0.615059 0
M  V30 1292 C 131.298 -2.07064 0.117988 0
M  V30 1293 C 131.723 -1.4554 -1.19163 0
M  V30 1294 O 131.081 -0.550855 -1.72729 0
M  V30 1295 C 131.129 -3.606 -0.000288387 0
M  V30 1296 O 130.233 -3.98847 -1.04856 0
M  V30 1297 H 129.574 -0.659467 0.0774581 0
M  V30 1298 H 132.104 -1.86236 0.847186 0
M  V30 1299 H 132.114 -4.07529 -0.196091 0
M  V30 1300 H 130.789 -4.04765 0.955932 0
M  V30 1301 H 129.366 -3.63577 -0.828619 0
M  V30 1302 N 131.551 -0.354651 -1.53558 0
M  V30 1303 C 132.828 0.294281 -1.93374 0
M  V30 1304 C 133.208 1.67313 -1.28723 0
M  V30 1305 O 132.556 2.24179 -0.442247 0
M  V30 1306 C 132.766 0.355445 -3.47185 0
M  V30 1307 C 134.114 0.601007 -4.20325 0
M  V30 1308 O 135.138 0.437106 -3.53508 0
M  V30 1309 O 133.997 0.919322 -5.38712 0
M  V30 1310 H 131.091 0.174033 -0.808481 0
M  V30 1311 H 133.637 -0.406638 -1.64756 0
M  V30 1312 H 132.409 -0.611729 -3.86489 0
M  V30 1313 H 132.032 1.1027 -3.82003 0
M  V30 1314 N 133.029 1.57378 -0.0835403 0
M  V30 1315 C 133.976 2.13384 0.879539 0
M  V30 1316 C 134.946 1.04936 1.28754 0
M  V30 1317 O 136.131 1.32662 1.37133 0
M  V30 1318 C 133.271 2.70932 2.13752 0
M  V30 1319 C 132.384 3.93575 1.7811 0
M  V30 1320 C 131.519 4.39326 2.98607 0
M  V30 1321 C 130.558 5.54587 2.59037 0
M  V30 1322 N 129.695 5.95243 3.72331 0
M  V30 1323 H 134.535 2.9537 0.395076 0
M  V30 1324 H 132.072 1.45953 0.183349 0
M  V30 1325 H 134.03 3.02411 2.87408 0
M  V30 1326 H 132.66 1.91693 2.59718 0
M  V30 1327 H 131.712 3.68483 0.94469 0
M  V30 1328 H 133.024 4.77258 1.45005 0
M  V30 1329 H 132.178 4.72528 3.80529 0
M  V30 1330 H 130.917 3.5452 3.34913 0
M  V30 1331 H 129.922 5.21024 1.75539 0
M  V30 1332 H 131.147 6.41133 2.23887 0
M  V30 1333 H 129.093 5.13385 4.08378 0
M  V30 1334 H 129.01 6.73694 3.43034 0
M  V30 1335 H 130.278 6.33072 4.54797 0
M  V30 1336 N 134.507 -0.190092 1.56449 0
M  V30 1337 C 135.417 -1.25591 1.98152 0
M  V30 1338 C 136.433 -1.49519 0.889944 0
M  V30 1339 O 137.609 -1.62036 1.19609 0
M  V30 1340 C 134.674 -2.57916 2.3169 0
M  V30 1341 C 133.735 -2.42015 3.5458 0
M  V30 1342 C 132.968 -3.6803 3.8651 0
M  V30 1343 O 133.191 -4.72413 3.1966 0
M  V30 1344 O 132.125 -3.6326 4.79923 0
M  V30 1345 H 135.951 -0.931988 2.89046 0
M  V30 1346 H 133.536 -0.395488 1.4407 0
M  V30 1347 H 135.418 -3.36008 2.54316 0
M  V30 1348 H 134.093 -2.89925 1.43963 0
M  V30 1349 H 133 -1.62017 3.37196 0
M  V30 1350 H 134.333 -2.14937 4.4279 0
M  V30 1351 N 135.985 -1.50799 -0.457987 0
M  V30 1352 C 137.231 -1.63648 -1.20792 0
M  V30 1353 C 137.586 -0.338662 -1.89396 0
M  V30 1354 O 136.879 0.664291 -1.79716 0
M  V30 1355 C 137.073 -2.76358 -2.2663 0
M  V30 1356 C 136.902 -4.16974 -1.68411 0
M  V30 1357 C 135.672 -4.83199 -1.47807 0
M  V30 1358 C 137.87 -5.00774 -1.17176 0
M  V30 1359 N 135.852 -6.07991 -0.849692 0
M  V30 1360 C 137.223 -6.16397 -0.667403 0
M  V30 1361 C 139.278 -4.86452 -1.06155 0
M  V30 1362 C 137.981 -7.19272 -0.0636908 0
M  V30 1363 C 140.007 -5.89515 -0.471759 0
M  V30 1364 C 139.369 -7.04397 0.0221557 0
M  V30 1365 H 135.468 -0.652888 -0.43042 0
M  V30 1366 H 138.052 -1.87962 -0.507785 0
M  V30 1367 H 136.223 -2.53744 -2.94056 0
M  V30 1368 H 137.955 -2.78496 -2.93636 0
M  V30 1369 H 134.71 -4.40714 -1.73403 0
M  V30 1370 H 135.134 -6.74733 -0.553537 0
M  V30 1371 H 139.776 -3.97907 -1.42932 0
M  V30 1372 H 137.494 -8.07481 0.316253 0
M  V30 1373 H 141.08 -5.805 -0.388671 0
M  V30 1374 H 139.96 -7.82782 0.471375 0
M  V30 1375 N 137.463 0.71206 -1.40597 0
M  V30 1376 C 138.411 1.84746 -1.41321 0
M  V30 1377 C 139.405 1.66842 -0.293268 0
M  V30 1378 O 140.611 1.73904 -0.464481 0
M  V30 1379 H 136.986 0.608522 -0.441819 0
M  V30 1380 H 138.957 1.81252 -2.37045 0
M  V30 1381 C 137.706 3.22638 -1.29614 0
M  V30 1382 H 137.029 3.37023 -2.15071 0
M  V30 1383 H 138.469 4.02209 -1.3418 0
M  V30 1384 C 136.928 3.36899 -0.00673121 0
M  V30 1385 O 137.458 3.90186 0.954859 0
M  V30 1386 N 135.664 2.9053 0.0639327 0
M  V30 1387 H 135.211 2.47353 -0.719311 0
M  V30 1388 H 135.169 3.0045 0.926118 0
M  V30 1389 N 138.941 1.26152 0.944643 0
M  V30 1390 C 140.357 1.03189 1.21754 0
M  V30 1391 C 140.557 -0.245112 2.00004 0
M  V30 1392 O 139.613 -0.955176 2.33736 0
M  V30 1393 C 140.926 2.26119 1.98219 0
M  V30 1394 C 142.474 2.30984 2.11224 0
M  V30 1395 C 142.949 3.53597 2.91089 0
M  V30 1396 N 144.44 3.54053 2.98664 0
M  V30 1397 C 145.175 4.45593 3.60881 0
M  V30 1398 N 144.671 5.47416 4.24626 0
M  V30 1399 N 146.464 4.33252 3.58119 0
M  V30 1400 H 138.615 2.08177 0.421437 0
M  V30 1401 H 140.878 0.914723 0.248969 0
M  V30 1402 H 140.584 3.18984 1.48128 0
M  V30 1403 H 140.458 2.3009 2.98895 0
M  V30 1404 H 142.845 1.38635 2.60508 0
M  V30 1405 H 142.926 2.31026 1.09821 0
M  V30 1406 H 142.57 4.46273 2.42493 0
M  V30 1407 H 142.5 3.50802 3.92741 0
M  V30 1408 H 144.991 2.80403 2.53343 0
M  V30 1409 H 145.304 6.13459 4.69987 0
M  V30 1410 H 143.649 5.51278 4.23223 0
M  V30 1411 H 146.84 3.52924 3.0751 0
M  V30 1412 H 147.013 5.04786 4.06319 0
M  V30 1413 N 140.419 -1.14872 1.07899 0
M  V30 1414 C 141.696 -1.81928 0.71845 0
M  V30 1415 C 142.076 -1.95417 -0.798455 0
M  V30 1416 O 141.424 -1.50997 -1.715 0
M  V30 1417 C 141.634 -3.17937 1.43935 0
M  V30 1418 C 142.982 -3.93501 1.59506 0
M  V30 1419 O 144.006 -3.27509 1.40058 0
M  V30 1420 O 142.865 -5.1183 1.91551 0
M  V30 1421 H 139.959 -0.78628 0.256305 0
M  V30 1422 H 142.505 -1.21934 1.18026 0
M  V30 1423 H 141.277 -3.0325 2.47295 0
M  V30 1424 H 140.9 -3.85619 0.968687 0
M  V30 1425 N 141.898 -0.863906 -1.31812 0
M  V30 1426 C 143.175 -0.39275 -1.91616 0
M  V30 1427 C 143.555 1.12461 -1.7865 0
M  V30 1428 O 142.903 1.95045 -1.19037 0
M  V30 1429 C 143.113 -0.867385 -3.38049 0
M  V30 1430 C 144.461 -0.889966 -4.15168 0
M  V30 1431 O 145.485 -0.812635 -3.46806 0
M  V30 1432 O 144.344 -1.00079 -5.37258 0
M  V30 1433 H 141.438 -0.116358 -0.818773 0
M  V30 1434 H 143.984 -0.951418 -1.40521 0
M  V30 1435 H 142.756 -1.91081 -3.41473 0
M  V30 1436 H 142.379 -0.286687 -3.96565 0
M  V30 1437 N 143.376 1.44774 -0.622745 0
M  V30 1438 C 144.306 2.33382 0.0741861 0
M  V30 1439 C 145.287 1.47719 0.843387 0
M  V30 1440 O 146.472 1.76458 0.810934 0
M  V30 1441 C 143.602 3.30663 1.06204 0
M  V30 1442 C 142.556 4.26079 0.405037 0
M  V30 1443 C 141.882 5.13165 1.5022 0
M  V30 1444 C 143.182 5.1781 -0.683414 0
M  V30 1445 H 144.876 2.91905 -0.665713 0
M  V30 1446 H 142.422 1.40363 -0.321587 0
M  V30 1447 H 144.375 3.9153 1.55827 0
M  V30 1448 H 143.099 2.70331 1.83272 0
M  V30 1449 H 141.758 3.66532 -0.0704683 0
M  V30 1450 H 141.406 4.49191 2.26355 0
M  V30 1451 H 141.106 5.77812 1.06803 0
M  V30 1452 H 142.63 5.76902 2.00041 0
M  V30 1453 H 144.044 5.72661 -0.270631 0
M  V30 1454 H 142.441 5.91015 -1.04023 0
M  V30 1455 H 143.511 4.59326 -1.55395 0
M  V30 1456 N 144.854 0.36279 1.53368 0
M  V30 1457 C 145.784 -0.476976 2.28576 0
M  V30 1458 C 146.765 -1.08631 1.30894 0
M  V30 1459 O 147.95 -1.10409 1.59761 0
M  V30 1460 C 145.08 -1.61828 3.07293 0
M  V30 1461 C 144.034 -1.13633 4.1264 0
M  V30 1462 C 143.36 -2.36766 4.79423 0
M  V30 1463 C 144.66 -0.223061 5.21823 0
M  V30 1464 H 146.354 0.150474 2.99022 0
M  V30 1465 H 143.9 0.0738103 1.43811 0
M  V30 1466 H 145.853 -2.21237 3.58653 0
M  V30 1467 H 144.577 -2.27292 2.34533 0
M  V30 1468 H 143.236 -0.564945 3.62221 0
M  V30 1469 H 142.884 -3.0068 4.03238 0
M  V30 1470 H 142.584 -2.05192 5.50609 0
M  V30 1471 H 144.108 -2.96865 5.33576 0
M  V30 1472 H 145.522 -0.724545 5.68703 0
M  V30 1473 H 143.919 0.001678 6.001 0
M  V30 1474 H 144.989 0.735553 4.79289 0
M  V30 1475 N 146.332 -1.57332 0.0918853 0
M  V30 1476 C 147.743 -1.81496 -0.437739 0
M  V30 1477 C 148.094 -1.00727 -1.6837 0
M  V30 1478 O 147.219 -0.235694 -2.15113 0
M  V30 1479 C 147.814 -3.29197 -0.800939 0
M  V30 1480 C 146.373 -3.54136 -1.27532 0
M  V30 1481 C 145.52 -2.75979 -0.270392 0
M  V30 1482 H 148.471 -1.55494 0.317366 0
M  V30 1483 H 148.492 -3.42344 -1.66074 0
M  V30 1484 H 148.004 -3.87955 0.106078 0
M  V30 1485 H 146.105 -3.00705 -2.20016 0
M  V30 1486 H 146.218 -4.62792 -1.23938 0
M  V30 1487 H 144.582 -2.43349 -0.751872 0
M  V30 1488 H 145.365 -3.37484 0.629248 0
M  V30 1489 N 147.81 0.181792 -1.56548 0
M  V30 1490 C 148.74 1.22765 -1.98623 0
M  V30 1491 C 149.721 1.46747 -0.860189 0
M  V30 1492 O 150.906 1.58259 -1.12551 0
M  V30 1493 C 148.036 2.56894 -2.33715 0
M  V30 1494 C 146.99 2.475 -3.49182 0
M  V30 1495 C 146.316 3.86023 -3.69986 0
M  V30 1496 C 147.616 1.98866 -4.82959 0
M  V30 1497 H 149.31 0.877942 -2.86239 0
M  V30 1498 H 146.856 0.42088 -1.37712 0
M  V30 1499 H 148.809 3.30253 -2.61746 0
M  V30 1500 H 147.533 2.93632 -1.42997 0
M  V30 1501 H 146.192 1.76596 -3.21262 0
M  V30 1502 H 145.84 4.20136 -2.76576 0
M  V30 1503 H 145.54 3.80609 -4.47672 0
M  V30 1504 H 147.064 4.60984 -4.00407 0
M  V30 1505 H 148.478 2.61992 -5.09934 0
M  V30 1506 H 146.875 2.04424 -5.64208 0
M  V30 1507 H 147.945 0.942465 -4.75653 0
M  V30 1508 N 149.288 1.51039 0.449983 0
M  V30 1509 C 150.236 1.71995 1.5659 0
M  V30 1510 C 151.23 0.586029 1.5894 0
M  V30 1511 O 152.436 0.76709 1.62837 0
M  V30 1512 H 148.811 0.543233 0.520001 0
M  V30 1513 H 150.782 2.65562 1.36085 0
M  V30 1514 C 149.531 1.8506 2.9436 0
M  V30 1515 H 148.854 2.71712 2.93279 0
M  V30 1516 H 150.294 2.0374 3.71842 0
M  V30 1517 C 148.753 0.607277 3.31382 0
M  V30 1518 O 149.283 -0.243903 4.00959 0
M  V30 1519 N 147.489 0.455073 2.87015 0
M  V30 1520 H 147.036 1.14879 2.30566 0
M  V30 1521 H 146.994 -0.375611 3.12148 0
M  V30 1522 N 150.766 -0.704594 1.40972 0
M  V30 1523 C 151.714 -1.83994 1.42299 0
M  V30 1524 C 152.708 -1.66684 0.302111 0
M  V30 1525 O 153.914 -1.73655 0.473697 0
M  V30 1526 H 150.289 -0.606171 0.44504 0
M  V30 1527 H 152.26 -1.79992 2.38003 0
M  V30 1528 C 151.009 -3.21946 1.31323 0
M  V30 1529 H 150.332 -3.35878 2.16855 0
M  V30 1530 H 151.772 -4.01491 1.36311 0
M  V30 1531 C 150.231 -3.36891 0.0245977 0
M  V30 1532 O 150.761 -3.90687 -0.934153 0
M  V30 1533 N 148.967 -2.90559 -0.0485243 0
M  V30 1534 H 148.514 -2.46968 0.732419 0
M  V30 1535 H 148.472 -3.00937 -0.910171 0
M  V30 1536 N 152.244 -1.26651 -0.937939 0
M  V30 1537 C 153.191 -1.0849 -2.03712 0
M  V30 1538 C 154.161 0.011033 -1.66096 0
M  V30 1539 O 155.346 -0.149353 -1.90215 0
M  V30 1540 C 152.486 -0.72735 -3.37348 0
M  V30 1541 C 151.599 -1.89986 -3.87981 0
M  V30 1542 C 150.734 -1.48513 -5.10017 0
M  V30 1543 C 149.773 -2.62575 -5.5292 0
M  V30 1544 N 148.91 -2.21762 -6.66158 0
M  V30 1545 H 153.75 -2.02551 -2.18579 0
M  V30 1546 H 151.287 -1.00844 -1.07093 0
M  V30 1547 H 153.245 -0.50092 -4.14182 0
M  V30 1548 H 151.875 0.176298 -3.22318 0
M  V30 1549 H 150.927 -2.23913 -3.07518 0
M  V30 1550 H 152.239 -2.75586 -4.15757 0
M  V30 1551 H 151.393 -1.21934 -5.94321 0
M  V30 1552 H 150.132 -0.60009 -4.83994 0
M  V30 1553 H 149.137 -2.8988 -4.67172 0
M  V30 1554 H 150.362 -3.51685 -5.80943 0
M  V30 1555 H 148.308 -1.35696 -6.41812 0
M  V30 1556 H 148.225 -3.00903 -6.93537 0
M  V30 1557 H 149.493 -1.98403 -7.53828 0
M  V30 1558 N 153.722 1.14298 -1.08507 0
M  V30 1559 C 154.971 1.84708 -0.810305 0
M  V30 1560 C 155.284 1.83903 0.666271 0
M  V30 1561 O 156.49 2.50112 1.05624 0
M  V30 1562 C 154.946 3.31572 -1.39957 0
M  V30 1563 C 154.554 3.40791 -2.90801 0
M  V30 1564 C 156.298 4.07087 -1.20334 0
M  V30 1565 C 154.205 4.81872 -3.4286 0
M  V30 1566 H 153.135 0.691985 -0.299454 0
M  V30 1567 H 155.786 1.28841 -1.30661 0
M  V30 1568 H 154.168 3.87183 -0.830976 0
M  V30 1569 H 155.342 2.95225 -3.53806 0
M  V30 1570 H 153.657 2.78732 -3.0935 0
M  V30 1571 H 156.254 5.11225 -1.56693 0
M  V30 1572 H 156.597 4.16054 -0.143237 0
M  V30 1573 H 157.13 3.57779 -1.73893 0
M  V30 1574 H 153.869 4.78094 -4.48449 0
M  V30 1575 H 153.389 5.27972 -2.84615 0
M  V30 1576 H 155.068 5.50765 -3.39509 0
M  V30 1577 N 155.201 0.870884 1.31352 0
M  V30 1578 C 156.134 0.271983 2.26573 0
M  V30 1579 C 157.112 -0.599385 1.51149 0
M  V30 1580 O 158.296 -0.552605 1.80218 0
M  V30 1581 C 155.423 -0.614801 3.33073 0
M  V30 1582 C 154.469 0.185342 4.26097 0
M  V30 1583 S 155.302 1.56444 5.12138 0
M  V30 1584 C 156.458 0.683807 6.22153 0
M  V30 1585 H 156.691 1.07916 2.77023 0
M  V30 1586 H 154.224 0.669459 1.39132 0
M  V30 1587 H 156.182 -1.12074 3.94905 0
M  V30 1588 H 154.843 -1.39593 2.81376 0
M  V30 1589 H 154.036 -0.490771 5.01605 0
M  V30 1590 H 153.638 0.623415 3.68768 0
M  V30 1591 H 155.93 -0.10521 6.77418 0
M  V30 1592 H 156.873 1.41004 6.93919 0
M  V30 1593 H 157.281 0.250952 5.63942 0
M  V30 1594 N 156.679 -1.44442 0.630414 0
M  V30 1595 C 157.928 -2.01267 0.132073 0
M  V30 1596 C 158.241 -1.50172 -1.25331 0
M  V30 1597 O 159.447 -1.9912 -1.84562 0
M  V30 1598 C 157.903 -3.59422 0.185362 0
M  V30 1599 C 157.511 -4.19514 1.57201 0
M  V30 1600 C 159.255 -4.23724 -0.256553 0
M  V30 1601 C 157.162 -5.69891 1.58045 0
M  V30 1602 H 156.092 -0.752619 0.0456092 0
M  V30 1603 H 158.743 -1.65666 0.789106 0
M  V30 1604 H 157.125 -3.92318 -0.538759 0
M  V30 1605 H 158.299 -3.98156 2.31966 0
M  V30 1606 H 156.614 -3.67496 1.95795 0
M  V30 1607 H 159.211 -5.34019 -0.269767 0
M  V30 1608 H 159.554 -3.96013 -1.28372 0
M  V30 1609 H 160.087 -3.95629 0.41505 0
M  V30 1610 H 156.826 -6.02336 2.58597 0
M  V30 1611 H 156.346 -5.93373 0.875725 0
M  V30 1612 H 158.025 -6.33515 1.31408 0
M  V30 1613 N 158.157 -0.370918 -1.53173 0
M  V30 1614 C 159.067 0.480823 -2.2962 0
M  V30 1615 C 160.083 1.08789 -1.35798 0
M  V30 1616 O 161.259 1.09768 -1.68858 0
M  V30 1617 C 158.324 1.60227 -3.07454 0
M  V30 1618 C 157.385 1.0222 -4.16953 0
M  V30 1619 C 156.618 2.0902 -4.91066 0
M  V30 1620 O 156.841 3.30222 -4.65091 0
M  V30 1621 O 155.775 1.71778 -5.76867 0
M  V30 1622 H 159.601 -0.141421 -3.03371 0
M  V30 1623 H 157.186 -0.135146 -1.48787 0
M  V30 1624 H 159.068 2.25417 -3.56041 0
M  V30 1625 H 157.743 2.20982 -2.36535 0
M  V30 1626 H 156.65 0.334064 -3.72605 0
M  V30 1627 H 157.983 0.459131 -4.90054 0
M  V30 1628 N 159.635 1.57281 -0.100228 0
M  V30 1629 C 160.884 1.93713 0.561984 0
M  V30 1630 C 161.197 0.984492 1.69018 0
M  V30 1631 O 162.403 1.24273 2.41389 0
M  V30 1632 C 160.859 3.4421 1.05106 0
M  V30 1633 C 160.467 4.47975 -0.0476628 0
M  V30 1634 C 162.211 3.89595 1.68571 0
M  V30 1635 C 160.118 5.89631 0.457055 0
M  V30 1636 H 159.048 0.723082 0.2137 0
M  V30 1637 H 161.699 1.82644 -0.177057 0
M  V30 1638 H 160.081 3.50449 1.84395 0
M  V30 1639 H 161.255 4.53385 -0.823333 0
M  V30 1640 H 159.57 4.1223 -0.587816 0
M  V30 1641 H 162.167 4.92832 2.07414 0
M  V30 1642 H 162.51 3.28526 2.55688 0
M  V30 1643 H 163.043 3.86078 0.958562 0
M  V30 1644 H 159.782 6.54411 -0.377616 0
M  V30 1645 H 159.302 5.87681 1.19962 0
M  V30 1646 H 160.981 6.40363 0.92437 0
M  V30 1647 N 161.113 -0.173488 1.56642 0
M  V30 1648 C 162.361 -0.888706 1.81512 0
M  V30 1649 C 162.682 -1.82875 0.676872 0
M  V30 1650 O 161.952 -1.93536 -0.303414 0
M  V30 1651 H 160.532 -0.331164 0.669582 0
M  V30 1652 H 163.194 -0.173823 1.94123 0
M  V30 1653 H 162.29 -1.46691 2.75478 0
M  V30 1654 N 162.591 -1.51276 -0.441967 0
M  V30 1655 C 163.839 -1.63392 -1.18943 0
M  V30 1656 C 164.16 -0.350159 -1.9183 0
M  V30 1657 O 163.43 0.633784 -1.85364 0
M  V30 1658 H 162.01 -0.602164 -0.442049 0
M  V30 1659 H 164.672 -1.88186 -0.507165 0
M  V30 1660 H 163.768 -2.45934 -1.92154 0
M  V30 1661 N 164.069 0.697108 -1.41344 0
M  V30 1662 C 165.019 1.80313 -1.39539 0
M  V30 1663 C 166.003 1.58618 -0.270001 0
M  V30 1664 O 167.195 1.69477 -0.510551 0
M  V30 1665 C 164.324 3.18606 -1.27848 0
M  V30 1666 C 163.41 3.46001 -2.45244 0
M  V30 1667 N 163.801 3.44103 -3.70711 0
M  V30 1668 C 162.099 3.76542 -2.39023 0
M  V30 1669 C 162.8 3.7036 -4.48563 0
M  V30 1670 N 161.776 3.90027 -3.78655 0
M  V30 1671 H 165.578 1.77207 -2.34468 0
M  V30 1672 H 163.092 0.897031 -1.35378 0
M  V30 1673 H 165.089 3.97833 -1.24637 0
M  V30 1674 H 163.749 3.22925 -0.339032 0
M  V30 1675 H 164.76 3.2452 -4.03618 0
M  V30 1676 H 161.437 3.88241 -1.53542 0
M  V30 1677 H 162.827 3.75042 -5.57488 0
M  V30 1678 N 165.547 1.27147 0.931209 0
M  V30 1679 C 166.796 1.12664 1.67302 0
M  V30 1680 C 167.109 -0.327718 1.92835 0
M  V30 1681 O 168.315 -0.593392 2.64936 0
M  V30 1682 C 166.771 1.9683 3.01307 0
M  V30 1683 C 166.379 3.46901 2.83485 0
M  V30 1684 C 168.123 1.90985 3.79111 0
M  V30 1685 C 166.03 4.23279 4.13024 0
M  V30 1686 H 164.96 0.41803 0.627509 0
M  V30 1687 H 167.611 1.51539 1.03481 0
M  V30 1688 H 165.993 1.50797 3.66164 0
M  V30 1689 H 167.167 4.00773 2.27415 0
M  V30 1690 H 165.482 3.54088 2.19113 0
M  V30 1691 H 168.079 2.45328 4.75098 0
M  V30 1692 H 168.422 0.882718 4.06834 0
M  V30 1693 H 168.955 2.34895 3.21044 0
M  V30 1694 H 165.694 5.26503 3.90481 0
M  V30 1695 H 165.214 3.74186 4.6877 0
M  V30 1696 H 166.893 4.32265 4.81411 0
M  V30 1697 N 167.025 -1.13721 1.09112 0
M  V30 1698 C 167.972 -2.19031 0.727591 0
M  V30 1699 C 168.942 -1.63555 -0.289656 0
M  V30 1700 O 170.127 -1.90023 -0.172026 0
M  V30 1701 C 167.267 -3.4477 0.15082 0
M  V30 1702 C 166.38 -4.14365 1.22172 0
M  V30 1703 C 165.515 -5.27709 0.608042 0
M  V30 1704 C 164.554 -5.89147 1.66047 0
M  V30 1705 N 163.691 -6.93929 1.06806 0
M  V30 1706 H 168.531 -2.49475 1.62991 0
M  V30 1707 H 166.068 -1.22499 0.81439 0
M  V30 1708 H 168.026 -4.16714 -0.201358 0
M  V30 1709 H 166.656 -3.14787 -0.714783 0
M  V30 1710 H 165.708 -3.40737 1.69122 0
M  V30 1711 H 167.02 -4.56114 2.01895 0
M  V30 1712 H 166.174 -6.06355 0.204523 0
M  V30 1713 H 164.913 -4.872 -0.220769 0
M  V30 1714 H 163.918 -5.09198 2.07357 0
M  V30 1715 H 165.143 -6.31729 2.49189 0
M  V30 1716 H 163.089 -6.55483 0.260476 0
M  V30 1717 H 163.006 -7.34202 1.8023 0
M  V30 1718 H 164.274 -7.76434 0.690644 0
M  V30 1719 N 168.503 -0.877838 -1.30888 0
M  V30 1720 C 169.45 -0.337538 -2.28318 0
M  V30 1721 C 170.42 0.568346 -1.56074 0
M  V30 1722 O 171.605 0.498298 -1.84178 0
M  V30 1723 C 168.745 0.448142 -3.42178 0
M  V30 1724 C 167.858 -0.48615 -4.29256 0
M  V30 1725 C 166.993 0.314427 -5.30269 0
M  V30 1726 C 166.032 -0.615791 -6.08995 0
M  V30 1727 N 165.169 0.14902 -7.01942 0
M  V30 1728 H 170.009 -1.17356 -2.73919 0
M  V30 1729 H 167.546 -0.590094 -1.34745 0
M  V30 1730 H 169.504 0.919517 -4.06941 0
M  V30 1731 H 168.134 1.24879 -2.97666 0
M  V30 1732 H 167.186 -1.076 -3.64865 0
M  V30 1733 H 168.498 -1.19909 -4.84173 0
M  V30 1734 H 167.652 0.847969 -6.00745 0
M  V30 1735 H 166.391 1.06062 -4.76027 0
M  V30 1736 H 165.396 -1.16102 -5.37401 0
M  V30 1737 H 166.621 -1.36097 -6.65323 0
M  V30 1738 H 164.567 0.877884 -6.50099 0
M  V30 1739 H 164.484 -0.504433 -7.54315 0
M  V30 1740 H 165.752 0.663537 -7.76671 0
M  V30 1741 N 169.982 1.44106 -0.638065 0
M  V30 1742 C 170.93 2.3248 0.0748149 0
M  V30 1743 C 171.924 1.47746 0.828702 0
M  V30 1744 O 173.13 1.64049 0.740816 0
M  V30 1745 H 169.505 0.750771 0.0429686 0
M  V30 1746 H 171.476 2.90348 -0.688504 0
M  V30 1747 C 170.225 3.31843 1.03805 0
M  V30 1748 H 169.548 3.97059 0.467375 0
M  V30 1749 H 170.988 3.96345 1.50622 0
M  V30 1750 C 169.447 2.61291 2.1267 0
M  V30 1751 O 169.977 2.41702 3.20847 0
M  V30 1752 N 168.183 2.20915 1.88798 0
M  V30 1753 H 167.73 2.37047 1.00829 0
M  V30 1754 H 167.688 1.74038 2.61836 0
M  V30 1755 N 171.46 0.379036 1.52974 0
M  V30 1756 C 172.7 -0.206325 2.03356 0
M  V30 1757 C 173.064 -1.44892 1.25977 0
M  V30 1758 O 174.265 -2.11078 1.66432 0
M  V30 1759 C 172.536 -0.477887 3.54191 0
M  V30 1760 S 174.095 -1.035 4.26419 0
M  V30 1761 H 170.913 -0.0590259 0.708546 0
M  V30 1762 H 173.515 0.525013 1.88319 0
M  V30 1763 H 172.219 0.433745 4.08101 0
M  V30 1764 H 171.75 -1.23793 3.73415 0
M  V30 1765 H 173.765 -2.31821 4.38718 0
M  V30 1766 N 172.938 -1.57226 0.108567 0
M  V30 1767 C 174.349 -1.8195 -0.418464 0
M  V30 1768 C 174.7 -1.02508 -1.67292 0
M  V30 1769 O 173.825 -0.258496 -2.14851 0
M  V30 1770 C 174.42 -3.30028 -0.765979 0
M  V30 1771 C 172.979 -3.55469 -1.23769 0
M  V30 1772 C 172.126 -2.7625 -0.241106 0
M  V30 1773 H 175.077 -1.55149 0.33384 0
M  V30 1774 H 175.098 -3.44086 -1.62434 0
M  V30 1775 H 174.61 -3.87821 0.147219 0
M  V30 1776 H 172.711 -3.03022 -2.16814 0
M  V30 1777 H 172.824 -4.6408 -1.19022 0
M  V30 1778 H 171.188 -2.44133 -0.72602 0
M  V30 1779 H 171.971 -3.36797 0.665007 0
M  V30 1780 N 174.416 0.165178 -1.56732 0
M  V30 1781 C 175.364 1.22369 -1.97809 0
M  V30 1782 C 176.358 1.45488 -0.867741 0
M  V30 1783 O 177.564 1.45995 -1.05288 0
M  V30 1784 H 173.939 0.411486 -0.629431 0
M  V30 1785 H 175.91 0.850425 -2.86025 0
M  V30 1786 C 174.659 2.55403 -2.35934 0
M  V30 1787 H 173.982 2.38438 -3.20916 0
M  V30 1788 H 175.422 3.2814 -2.68514 0
M  V30 1789 C 173.881 3.14611 -1.20506 0
M  V30 1790 O 174.411 3.98626 -0.496016 0
M  V30 1791 N 172.617 2.7379 -0.97403 0
M  V30 1792 H 172.164 2.0557 -1.55238 0
M  V30 1793 H 172.122 3.1374 -0.203573 0
M  V30 1794 N 175.894 1.51508 0.433938 0
M  V30 1795 C 176.857 1.72473 1.50949 0
M  V30 1796 C 177.857 0.594725 1.49398 0
M  V30 1797 O 179.047 0.862315 1.5136 0
M  V30 1798 C 176.179 1.78431 2.90474 0
M  V30 1799 H 177.372 2.68467 1.33662 0
M  V30 1800 H 174.925 1.41549 0.662836 0
M  V30 1801 H 175.66 0.842645 3.13161 0
M  V30 1802 H 175.445 2.60558 2.93005 0
M  V30 1803 H 176.935 1.96479 3.68491 0
M  V30 1804 N 177.372 -0.689602 1.41712 0
M  V30 1805 C 178.619 -1.44966 1.4139 0
M  V30 1806 C 178.947 -1.94484 0.025105 0
M  V30 1807 O 178.202 -1.70307 -0.964048 0
M  V30 1808 C 178.501 -2.67298 2.37247 0
M  V30 1809 C 178.167 -2.36405 3.83958 0
M  V30 1810 C 176.829 -2.27691 4.23923 0
M  V30 1811 C 179.181 -2.11043 4.76561 0
M  V30 1812 C 176.509 -1.91719 5.54492 0
M  V30 1813 C 178.861 -1.76578 6.07456 0
M  V30 1814 C 177.525 -1.66363 6.46436 0
M  V30 1815 H 176.795 -0.53047 0.517381 0
M  V30 1816 H 179.442 -0.787655 1.74552 0
M  V30 1817 H 177.747 -3.38461 1.9736 0
M  V30 1818 H 179.444 -3.25452 2.34269 0
M  V30 1819 H 176.034 -2.44085 3.52308 0
M  V30 1820 H 180.218 -2.16717 4.46483 0
M  V30 1821 H 175.474 -1.82367 5.83568 0
M  V30 1822 H 179.648 -1.55974 6.78708 0
M  V30 1823 H 177.275 -1.38258 7.47522 0
M  V30 1824 N 178.85 -1.27639 -0.924453 0
M  V30 1825 C 180.099 -1.13549 -1.66702 0
M  V30 1826 C 180.412 0.317487 -1.93006 0
M  V30 1827 O 181.618 0.579333 -2.65247 0
M  V30 1828 C 180.074 -1.98426 -3.00259 0
M  V30 1829 C 179.682 -3.484 -2.81641 0
M  V30 1830 C 181.426 -1.92993 -3.78092 0
M  V30 1831 C 179.333 -4.25464 -4.10773 0
M  V30 1832 H 178.263 -0.421351 -0.625283 0
M  V30 1833 H 180.914 -1.52085 -1.02676 0
M  V30 1834 H 179.296 -1.52736 -3.6536 0
M  V30 1835 H 180.47 -4.01973 -2.25287 0
M  V30 1836 H 178.785 -3.55245 -2.17232 0
M  V30 1837 H 181.382 -2.47844 -4.7379 0
M  V30 1838 H 181.725 -0.904281 -4.0636 0
M  V30 1839 H 182.258 -2.36595 -3.19793 0
M  V30 1840 H 178.997 -5.28566 -3.87683 0
M  V30 1841 H 178.517 -3.76667 -4.66779 0
M  V30 1842 H 180.196 -4.34812 -4.79111 0
M  V30 1843 N 180.328 1.1314 -1.09713 0
M  V30 1844 C 181.577 1.83838 -0.829851 0
M  V30 1845 C 181.89 1.84599 0.646728 0
M  V30 1846 O 183.096 2.51218 1.02965 0
M  V30 1847 C 181.552 3.30069 -1.43466 0
M  V30 1848 C 181.16 3.37688 -2.94399 0
M  V30 1849 C 182.904 4.05788 -1.24645 0
M  V30 1850 C 180.811 4.78209 -3.47952 0
M  V30 1851 H 179.741 0.68877 -0.306777 0
M  V30 1852 H 182.392 1.27448 -1.3202 0
M  V30 1853 H 180.774 3.8628 -0.871996 0
M  V30 1854 H 181.948 2.91456 -3.56918 0
M  V30 1855 H 180.263 2.75436 -3.12289 0
M  V30 1856 H 182.86 5.09535 -1.62107 0
M  V30 1857 H 183.203 4.15878 -0.187357 0
M  V30 1858 H 183.736 3.55915 -1.77678 0
M  V30 1859 H 180.475 4.73311 -4.53495 0
M  V30 1860 H 179.995 5.24924 -2.90198 0
M  V30 1861 H 181.674 5.47133 -3.45332 0
M  V30 1862 N 181.806 0.884767 1.30421 0
M  V30 1863 C 183.052 0.503851 1.96441 0
M  V30 1864 C 183.385 -0.944518 1.69684 0
M  V30 1865 O 182.66 -1.66737 1.00145 0
M  V30 1866 C 182.943 0.779085 3.51571 0
M  V30 1867 C 182.796 2.27807 3.87846 0
M  V30 1868 C 184.115 0.255452 4.39358 0
M  V30 1869 H 181.234 0.184533 0.713524 0
M  V30 1870 H 183.876 1.10872 1.54297 0
M  V30 1871 H 182.026 0.264274 3.876 0
M  V30 1872 H 183.698 2.86127 3.61841 0
M  V30 1873 H 181.941 2.74479 3.35922 0
M  V30 1874 H 182.612 2.42125 4.96064 0
M  V30 1875 H 185.088 0.696079 4.10236 0
M  V30 1876 H 183.964 0.477361 5.4682 0
M  V30 1877 H 184.225 -0.843293 4.33983 0
M  V30 1878 N 183.284 -1.43765 0.645699 0
M  V30 1879 C 184.53 -2.02197 0.156271 0
M  V30 1880 C 184.863 -1.50776 -1.22393 0
M  V30 1881 O 184.138 -0.697771 -1.81553 0
M  V30 1882 C 184.421 -3.59749 0.158872 0
M  V30 1883 C 184.274 -4.21419 1.57245 0
M  V30 1884 C 185.593 -4.37149 -0.50879 0
M  V30 1885 H 182.712 -0.734694 0.0582602 0
M  V30 1886 H 185.354 -1.71157 0.824951 0
M  V30 1887 H 183.504 -3.86325 -0.410525 0
M  V30 1888 H 185.176 -4.059 2.19186 0
M  V30 1889 H 183.419 -3.78356 2.122 0
M  V30 1890 H 184.09 -5.30482 1.52619 0
M  V30 1891 H 186.566 -4.16093 -0.024412 0
M  V30 1892 H 185.442 -5.4683 -0.476213 0
M  V30 1893 H 185.703 -4.12839 -1.58165 0
M  V30 1894 N 184.763 -0.387143 -1.52771 0
M  V30 1895 C 185.991 0.195869 -2.05971 0
M  V30 1896 C 186.406 1.40691 -1.25903 0
M  V30 1897 O 185.763 1.79931 -0.305134 0
M  V30 1898 C 185.814 0.56812 -3.57008 0
M  V30 1899 O 185.535 -0.594803 -4.34043 0
M  V30 1900 C 187.036 1.20723 -4.26545 0
M  V30 1901 H 184.256 0.0300578 -0.670326 0
M  V30 1902 H 186.8 -0.551749 -1.96916 0
M  V30 1903 H 184.955 1.26564 -3.66143 0
M  V30 1904 H 185.369 -0.289322 -5.23701 0
M  V30 1905 H 186.843 1.41807 -5.33474 0
M  V30 1906 H 187.32 2.17395 -3.81623 0
M  V30 1907 H 187.926 0.550535 -4.21722 0
M  V30 1908 N 186.241 1.57166 -0.116904 0
M  V30 1909 C 187.189 2.16457 0.851418 0
M  V30 1910 C 188.183 1.11323 1.27686 0
M  V30 1911 O 189.389 1.2963 1.24884 0
M  V30 1912 H 185.764 0.69271 0.292672 0
M  V30 1913 H 187.735 2.96605 0.32685 0
M  V30 1914 C 186.484 2.77689 2.09246 0
M  V30 1915 H 185.807 3.58285 1.77402 0
M  V30 1916 H 187.247 3.22716 2.7501 0
M  V30 1917 C 185.706 1.74667 2.88085 0
M  V30 1918 O 186.236 1.19877 3.83396 0
M  V30 1919 N 184.442 1.44656 2.52038 0
M  V30 1920 H 183.989 1.89402 1.74599 0
M  V30 1921 H 183.947 0.759675 3.05084 0
M  V30 1922 N 187.719 -0.156864 1.56817 0
M  V30 1923 C 189.13 -0.717916 1.72345 0
M  V30 1924 C 189.481 -1.82124 0.729747 0
M  V30 1925 O 188.606 -2.16141 -0.105781 0
M  V30 1926 C 189.201 -1.30904 3.12489 0
M  V30 1927 C 187.76 -1.81676 3.29653 0
M  V30 1928 C 186.907 -0.701349 2.68284 0
M  V30 1929 H 189.858 0.0686989 1.58551 0
M  V30 1930 H 189.879 -2.17882 3.11942 0
M  V30 1931 H 189.391 -0.505796 3.8479 0
M  V30 1932 H 187.492 -2.64598 2.62333 0
M  V30 1933 H 187.605 -1.95226 4.3752 0
M  V30 1934 H 185.969 -1.12548 2.28484 0
M  V30 1935 H 186.752 0.0902846 3.43181 0
M  V30 1936 N 189.197 -1.51736 -0.425897 0
M  V30 1937 C 190.443 -1.65214 -1.1761 0
M  V30 1938 C 190.776 -0.372778 -1.90589 0
M  V30 1939 O 190.051 0.628139 -1.84078 0
M  V30 1940 C 190.334 -2.86312 -2.18398 0
M  V30 1941 C 190.187 -4.24254 -1.49426 0
M  V30 1942 C 191.506 -3.02925 -3.19256 0
M  V30 1943 H 188.625 -0.601263 -0.426206 0
M  V30 1944 H 191.267 -1.8425 -0.463882 0
M  V30 1945 H 189.417 -2.70213 -2.79137 0
M  V30 1946 H 191.089 -4.52046 -0.919362 0
M  V30 1947 H 189.332 -4.26426 -0.796432 0
M  V30 1948 H 190.003 -5.05001 -2.22885 0
M  V30 1949 H 192.479 -3.1781 -2.68581 0
M  V30 1950 H 191.355 -3.89199 -3.8706 0
M  V30 1951 H 191.616 -2.15497 -3.86023 0
M  V30 1952 N 190.675 0.682077 -1.42076 0
M  V30 1953 C 191.952 1.43755 -1.32642 0
M  V30 1954 C 192.332 2.11063 0.0396611 0
M  V30 1955 O 191.68 2.02701 1.05474 0
M  V30 1956 C 191.89 2.44596 -2.48946 0
M  V30 1957 C 193.238 3.09454 -2.9073 0
M  V30 1958 O 194.262 2.54922 -2.48783 0
M  V30 1959 O 193.121 4.08253 -3.63307 0
M  V30 1960 H 190.215 0.640857 -0.522715 0
M  V30 1961 H 192.761 0.711415 -1.54068 0
M  V30 1962 H 191.533 1.93609 -3.40046 0
M  V30 1963 H 191.156 3.24701 -2.29467 0
M  V30 1964 N 192.153 1.28127 0.917671 0
M  V30 1965 C 193.399 1.15223 1.66888 0
M  V30 1966 C 193.732 -0.299293 1.9188 0
M  V30 1967 O 193.007 -1.21805 1.51637 0
M  V30 1968 C 193.29 1.94706 3.02922 0
M  V30 1969 C 193.143 3.47898 2.85109 0
M  V30 1970 C 194.462 1.75939 4.03402 0
M  V30 1971 H 191.581 0.419946 0.605652 0
M  V30 1972 H 194.223 1.57398 1.06423 0
M  V30 1973 H 192.373 1.58864 3.54534 0
M  V30 1974 H 194.045 3.93624 2.40537 0
M  V30 1975 H 192.288 3.7373 2.20246 0
M  V30 1976 H 192.959 3.98765 3.81694 0
M  V30 1977 H 195.435 2.07209 3.60837 0
M  V30 1978 H 194.311 2.33931 4.96556 0
M  V30 1979 H 194.572 0.709877 4.36364 0
M  V30 1980 N 193.631 -1.12557 1.10312 0
M  V30 1981 C 194.564 -2.1737 0.694674 0
M  V30 1982 C 195.542 -1.59745 -0.303373 0
M  V30 1983 O 196.726 -1.87408 -0.202578 0
M  V30 1984 C 193.853 -3.38691 0.0248052 0
M  V30 1985 C 192.899 -4.14943 0.986121 0
M  V30 1986 S 193.732 -4.73413 2.50281 0
M  V30 1987 C 194.888 -5.9807 1.84562 0
M  V30 1988 H 195.121 -2.5168 1.58255 0
M  V30 1989 H 192.654 -1.23998 0.919992 0
M  V30 1990 H 194.612 -4.08959 -0.355361 0
M  V30 1991 H 193.273 -3.02664 -0.839851 0
M  V30 1992 H 192.466 -5.01854 0.464651 0
M  V30 1993 H 192.068 -3.50377 1.30813 0
M  V30 1994 H 194.36 -6.67232 1.17507 0
M  V30 1995 H 195.303 -6.54841 2.69423 0
M  V30 1996 H 195.711 -5.49073 1.31069 0
M  V30 1997 N 195.109 -0.891671 -1.2995 0
M  V30 1998 C 196.355 -0.514261 -1.96171 0
M  V30 1999 C 196.688 0.935506 -1.70182 0
M  V30 2000 O 195.963 1.66204 -1.01028 0
M  V30 2001 C 196.246 -0.797719 -3.51153 0
M  V30 2002 C 196.099 -2.2986 -3.86632 0
M  V30 2003 C 197.418 -0.278749 -4.39216 0
M  V30 2004 H 194.537 -0.188314 -0.712535 0
M  V30 2005 H 197.179 -1.11689 -1.53706 0
M  V30 2006 H 195.329 -0.284826 -3.87455 0
M  V30 2007 H 197.001 -2.88042 -3.60319 0
M  V30 2008 H 195.244 -2.76257 -3.34462 0
M  V30 2009 H 195.915 -2.44753 -4.94773 0
M  V30 2010 H 198.391 -0.717825 -4.09862 0
M  V30 2011 H 197.267 -0.506353 -5.46559 0
M  V30 2012 H 197.528 0.820266 -4.34424 0
M  V30 2013 N 196.587 1.43421 -0.653314 0
M  V30 2014 C 197.519 2.29071 0.0769134 0
M  V30 2015 C 198.532 1.42513 0.787017 0
M  V30 2016 O 199.721 1.66449 0.644757 0
M  V30 2017 C 196.821 3.19436 1.13199 0
M  V30 2018 C 195.994 4.34533 0.500006 0
M  V30 2019 C 195.053 5.05771 1.45198 0
M  V30 2020 O 194.079 5.61037 0.960538 0
M  V30 2021 N 195.281 5.0928 2.78594 0
M  V30 2022 H 198.046 2.92382 -0.658235 0
M  V30 2023 H 195.607 1.54112 -0.496104 0
M  V30 2024 H 197.599 3.63958 1.76964 0
M  V30 2025 H 196.169 2.57724 1.7691 0
M  V30 2026 H 195.389 3.92925 -0.316738 0
M  V30 2027 H 196.677 5.08766 0.0588345 0
M  V30 2028 H 196.075 4.65751 3.2108 0
M  V30 2029 H 194.632 5.57519 3.37662 0
M  V30 2030 N 198.065 0.39524 1.52563 0
M  V30 2031 C 198.995 -0.428384 2.29537 0
M  V30 2032 C 199.976 -1.05831 1.33169 0
M  V30 2033 O 201.161 -1.06995 1.62067 0
M  V30 2034 C 198.291 -1.55274 3.10656 0
M  V30 2035 C 197.245 -1.04855 4.14957 0
M  V30 2036 C 196.571 -2.26543 4.84337 0
M  V30 2037 C 197.871 -0.112324 5.22179 0
M  V30 2038 H 199.565 0.213867 2.98635 0
M  V30 2039 H 197.111 0.104298 1.43622 0
M  V30 2040 H 199.064 -2.1358 3.63265 0
M  V30 2041 H 197.788 -2.22266 2.39302 0
M  V30 2042 H 196.447 -0.487985 3.63338 0
M  V30 2043 H 196.095 -2.92059 4.09525 0
M  V30 2044 H 195.795 -1.93466 5.54837 0
M  V30 2045 H 197.319 -2.85481 5.39753 0
M  V30 2046 H 198.733 -0.603752 5.70112 0
M  V30 2047 H 197.13 0.128968 5.99961 0
M  V30 2048 H 198.2 0.837052 4.77621 0
M  V30 2049 N 199.544 -1.57102 0.125237 0
M  V30 2050 C 200.474 -2.18659 -0.819174 0
M  V30 2051 C 201.455 -1.12843 -1.27281 0
M  V30 2052 O 202.64 -1.41104 -1.33429 0
M  V30 2053 C 199.77 -2.79096 -2.06695 0
M  V30 2054 C 198.724 -3.90548 -1.75088 0
M  V30 2055 C 198.05 -4.37821 -3.06948 0
M  V30 2056 C 199.35 -5.12356 -1.01435 0
M  V30 2057 H 201.044 -2.9783 -0.306202 0
M  V30 2058 H 198.59 -1.4326 -0.145839 0
M  V30 2059 H 200.543 -3.2082 -2.73226 0
M  V30 2060 H 199.267 -1.97223 -2.60328 0
M  V30 2061 H 197.926 -3.49409 -1.10944 0
M  V30 2062 H 197.574 -3.52799 -3.58527 0
M  V30 2063 H 197.274 -5.12982 -2.86571 0
M  V30 2064 H 198.798 -4.822 -3.74587 0
M  V30 2065 H 200.212 -5.5106 -1.58132 0
M  V30 2066 H 198.609 -5.9314 -0.911319 0
M  V30 2067 H 199.679 -4.849 -0.00218681 0
M  V30 2068 N 201.022 0.148545 -1.56898 0
M  V30 2069 C 201.972 1.1886 -1.94567 0
M  V30 2070 C 202.956 1.3863 -0.816735 0
M  V30 2071 O 204.148 1.40218 -1.08018 0
M  V30 2072 C 201.277 2.52262 -2.32849 0
M  V30 2073 C 200.363 2.36092 -3.52309 0
M  V30 2074 N 200.754 1.89674 -4.6889 0
M  V30 2075 C 199.052 2.66848 -3.57363 0
M  V30 2076 C 199.753 1.86511 -5.50989 0
M  V30 2077 N 198.729 2.29766 -4.92655 0
M  V30 2078 H 202.531 0.821793 -2.82177 0
M  V30 2079 H 200.045 0.356615 -1.58436 0
M  V30 2080 H 202.042 3.27447 -2.58039 0
M  V30 2081 H 200.702 2.89727 -1.46589 0
M  V30 2082 H 201.713 1.59663 -4.92674 0
M  V30 2083 H 198.39 3.08198 -2.81639 0
M  V30 2084 H 199.78 1.52128 -6.54452 0
M  V30 2085 N 202.5 1.5196 0.417844 0
M  V30 2086 C 203.432 1.70895 1.52733 0
M  V30 2087 C 204.445 0.589405 1.51756 0
M  V30 2088 O 205.634 0.864312 1.56179 0
M  V30 2089 C 202.734 1.72627 2.91639 0
M  V30 2090 C 201.907 3.01479 3.16905 0
M  V30 2091 C 200.966 2.95139 4.35637 0
M  V30 2092 O 199.992 3.69059 4.3334 0
M  V30 2093 N 201.194 2.12328 5.40275 0
M  V30 2094 H 203.959 2.66612 1.36888 0
M  V30 2095 H 201.52 1.50089 0.607037 0
M  V30 2096 H 203.512 1.65928 3.6912 0
M  V30 2097 H 202.082 0.844216 3.00985 0
M  V30 2098 H 201.302 3.21895 2.27546 0
M  V30 2099 H 202.59 3.86736 3.30625 0
M  V30 2100 H 201.988 1.51685 5.44985 0
M  V30 2101 H 200.545 2.11494 6.16534 0
M  V30 2102 N 203.978 -0.674533 1.42435 0
M  V30 2103 C 204.928 -1.7807 1.4239 0
M  V30 2104 C 205.912 -1.58169 0.295202 0
M  V30 2105 O 207.104 -1.68643 0.537449 0
M  V30 2106 C 204.233 -3.16532 1.32901 0
M  V30 2107 C 203.319 -3.42055 2.50717 0
M  V30 2108 N 203.71 -3.38162 3.76139 0
M  V30 2109 C 202.008 -3.72692 2.44983 0
M  V30 2110 C 202.709 -3.63177 4.54398 0
M  V30 2111 N 201.685 -3.83954 3.84812 0
M  V30 2112 H 205.487 -1.73454 2.37257 0
M  V30 2113 H 203.001 -0.875381 1.36788 0
M  V30 2114 H 204.998 -3.958 1.30951 0
M  V30 2115 H 203.658 -3.22345 0.390363 0
M  V30 2116 H 204.669 -3.18057 4.0873 0
M  V30 2117 H 201.346 -3.85749 1.59699 0
M  V30 2118 H 202.736 -3.66125 5.63384 0
M  V30 2119 N 205.456 -1.28612 -0.910864 0
M  V30 2120 C 206.681 -1.1891 -1.69927 0
M  V30 2121 C 207.106 0.248372 -1.86453 0
M  V30 2122 O 206.464 1.17961 -1.37676 0
M  V30 2123 C 206.512 -1.89578 -3.06745 0
M  V30 2124 O 205.616 -1.20521 -3.94396 0
M  V30 2125 H 204.957 -0.412632 -0.520222 0
M  V30 2126 H 207.487 -1.69985 -1.1387 0
M  V30 2127 H 207.497 -1.97597 -3.56958 0
M  V30 2128 H 206.172 -2.94136 -2.94035 0
M  V30 2129 H 204.749 -1.20684 -3.52831 0
M  V30 2130 N 206.934 1.1197 -1.10907 0
M  V30 2131 C 208.182 1.83225 -0.852819 0
M  V30 2132 C 208.503 1.84769 0.623341 0
M  V30 2133 O 207.773 1.3143 1.45269 0
M  V30 2134 H 206.353 0.67849 -0.312507 0
M  V30 2135 H 209.015 1.3556 -1.40033 0
M  V30 2136 H 208.111 2.87265 -1.22005 0
M  V30 2137 N 208.412 0.89855 1.29475 0
M  V30 2138 C 209.658 0.524658 1.95896 0
M  V30 2139 C 209.991 -0.926468 1.70676 0
M  V30 2140 O 209.266 -1.65665 1.01908 0
M  V30 2141 C 209.549 0.81633 3.50725 0
M  V30 2142 C 209.402 2.31907 3.85408 0
M  V30 2143 C 210.721 0.302038 4.39062 0
M  V30 2144 H 207.84 0.19209 0.711527 0
M  V30 2145 H 210.482 1.12502 1.53112 0
M  V30 2146 H 208.632 0.305369 3.87298 0
M  V30 2147 H 210.304 2.89949 3.58786 0
M  V30 2148 H 208.547 2.78027 3.32992 0
M  V30 2149 H 209.218 2.47373 4.93468 0
M  V30 2150 H 211.694 0.739551 4.09475 0
M  V30 2151 H 210.57 0.535331 5.46283 0
M  V30 2152 H 210.831 -0.797216 4.34853 0
M  V30 2153 N 209.89 -1.43072 0.660911 0
M  V30 2154 C 211.301 -1.84932 0.256348 0
M  V30 2155 C 211.652 -1.55325 -1.19868 0
M  V30 2156 O 210.777 -1.00607 -1.91591 0
M  V30 2157 C 211.372 -3.35684 0.458475 0
M  V30 2158 C 209.931 -3.76245 0.108161 0
M  V30 2159 C 209.078 -2.66749 0.757641 0
M  V30 2160 H 212.029 -1.33116 0.864051 0
M  V30 2161 H 212.05 -3.79365 -0.293683 0
M  V30 2162 H 211.562 -3.572 1.51755 0
M  V30 2163 H 209.663 -3.60338 -0.948014 0
M  V30 2164 H 209.776 -4.76058 0.538992 0
M  V30 2165 H 208.14 -2.53989 0.190185 0
M  V30 2166 H 208.923 -2.91092 1.81989 0
M  V30 2167 N 211.368 -0.403325 -1.52352 0
M  V30 2168 C 212.315 0.425011 -2.26853 0
M  V30 2169 C 213.285 1.04598 -1.29029 0
M  V30 2170 O 214.47 1.07135 -1.57882 0
M  V30 2171 C 211.61 1.53888 -3.08889 0
M  V30 2172 C 210.723 0.939396 -4.21663 0
M  V30 2173 C 209.858 2.02547 -4.91068 0
M  V30 2174 C 208.897 1.40263 -5.95813 0
M  V30 2175 N 208.034 2.4286 -6.58759 0
M  V30 2176 H 212.874 -0.21674 -2.97211 0
M  V30 2177 H 210.411 -0.118722 -1.4662 0
M  V30 2178 H 212.369 2.19558 -3.54753 0
M  V30 2179 H 210.999 2.15074 -2.40714 0
M  V30 2180 H 210.051 0.171898 -3.80011 0
M  V30 2181 H 211.363 0.44436 -4.96817 0
M  V30 2182 H 210.517 2.75958 -5.40308 0
M  V30 2183 H 209.256 2.55415 -4.15469 0
M  V30 2184 H 208.261 0.653833 -5.45898 0
M  V30 2185 H 209.486 0.881719 -6.73352 0
M  V30 2186 H 207.432 2.94871 -5.85992 0
M  V30 2187 H 207.349 1.98152 -7.2957 0
M  V30 2188 H 208.617 3.15858 -7.12639 0
M  V30 2189 N 212.846 1.57033 -0.133567 0
M  V30 2190 C 213.794 2.17348 0.828412 0
M  V30 2191 C 214.788 1.12671 1.26498 0
M  V30 2192 O 215.994 1.30947 1.23502 0
M  V30 2193 H 212.369 0.695775 0.285309 0
M  V30 2194 H 214.34 2.96935 0.295372 0
M  V30 2195 C 213.089 2.79893 2.06289 0
M  V30 2196 H 212.412 3.60147 1.73592 0
M  V30 2197 H 213.852 3.25615 2.71572 0
M  V30 2198 C 212.311 1.77713 2.86216 0
M  V30 2199 O 212.841 1.23937 3.82103 0
M  V30 2200 N 211.047 1.47321 2.50489 0
M  V30 2201 H 210.594 1.91243 1.7258 0
M  V30 2202 H 210.552 0.79199 3.04261 0
M  V30 2203 N 214.325 -0.140222 1.56975 0
M  V30 2204 C 215.272 -1.17292 1.98774 0
M  V30 2205 C 216.242 -1.4232 0.856408 0
M  V30 2206 O 217.427 -1.54541 1.119 0
M  V30 2207 C 214.567 -2.49973 2.37923 0
M  V30 2208 C 213.68 -2.32062 3.64378 0
M  V30 2209 C 212.815 -3.57825 3.926 0
M  V30 2210 C 211.854 -3.3498 5.12303 0
M  V30 2211 N 210.991 -4.52891 5.36502 0
M  V30 2212 H 215.831 -0.809472 2.86795 0
M  V30 2213 H 213.368 -0.388237 1.41884 0
M  V30 2214 H 215.326 -3.27346 2.58652 0
M  V30 2215 H 213.956 -2.84252 1.52972 0
M  V30 2216 H 213.008 -1.45711 3.51387 0
M  V30 2217 H 214.32 -2.11145 4.51906 0
M  V30 2218 H 213.474 -4.43624 4.13863 0
M  V30 2219 H 212.213 -3.81753 3.03506 0
M  V30 2220 H 211.218 -2.4757 4.90906 0
M  V30 2221 H 212.443 -3.12444 6.02956 0
M  V30 2222 H 210.389 -4.76979 4.50363 0
M  V30 2223 H 210.306 -4.35001 6.18312 0
M  V30 2224 H 211.574 -5.39884 5.62268 0
M  V30 2225 N 215.803 -1.52179 -0.40978 0
M  V30 2226 C 217.052 -1.65434 -1.15388 0
M  V30 2227 C 217.365 -0.390056 -1.91671 0
M  V30 2228 O 218.571 -0.402399 -2.68501 0
M  V30 2229 C 217.027 -2.92279 -2.10003 0
M  V30 2230 C 216.635 -4.25813 -1.39239 0
M  V30 2231 C 218.379 -3.14897 -2.84675 0
M  V30 2232 C 216.286 -5.43782 -2.32498 0
M  V30 2233 H 215.216 -0.616267 -0.434432 0
M  V30 2234 H 217.867 -1.78666 -0.418401 0
M  V30 2235 H 216.249 -2.72744 -2.871 0
M  V30 2236 H 217.423 -4.55828 -0.675099 0
M  V30 2237 H 215.738 -4.09292 -0.766097 0
M  V30 2238 H 218.335 -4.0021 -3.54593 0
M  V30 2239 H 218.678 -2.29103 -3.47588 0
M  V30 2240 H 219.211 -3.34901 -2.14677 0
M  V30 2241 H 215.95 -6.3192 -1.74233 0
M  V30 2242 H 215.47 -5.18106 -3.02201 0
M  V30 2243 H 217.149 -5.76834 -2.93038 0
M  V30 2244 N 217.281 0.66697 -1.42791 0
M  V30 2245 C 218.53 1.42278 -1.42968 0
M  V30 2246 C 218.843 1.9553 -0.0524489 0
M  V30 2247 O 220.049 2.71414 0.068363 0
M  V30 2248 C 218.505 2.57418 -2.51524 0
M  V30 2249 C 218.113 2.10832 -3.9529 0
M  V30 2250 C 219.857 3.34878 -2.60877 0
M  V30 2251 C 217.764 3.23101 -4.95338 0
M  V30 2252 H 216.694 0.534533 -0.531781 0
M  V30 2253 H 219.345 0.721302 -1.68729 0
M  V30 2254 H 217.727 3.29971 -2.18941 0
M  V30 2255 H 218.901 1.4538 -4.37266 0
M  V30 2256 H 217.216 1.46289 -3.89857 0
M  V30 2257 H 219.813 4.18505 -3.32802 0
M  V30 2258 H 220.156 3.81993 -1.6549 0
M  V30 2259 H 220.689 2.69398 -2.92693 0
M  V30 2260 H 217.428 2.80969 -5.9223 0
M  V30 2261 H 216.948 3.87309 -4.57987 0
M  V30 2262 H 218.627 3.88447 -5.17415 0
M  V30 2263 N 218.759 1.29093 0.90403 0
M  V30 2264 C 220.007 1.16583 1.65085 0
M  V30 2265 C 220.328 -0.283933 1.92922 0
M  V30 2266 O 219.598 -1.19509 1.55224 0
M  V30 2267 H 218.178 0.428467 0.611903 0
M  V30 2268 H 220.84 1.61959 1.08422 0
M  V30 2269 H 219.936 1.71266 2.6091 0
M  V30 2270 N 220.237 -1.11381 1.11499 0
M  V30 2271 C 221.167 -2.19509 0.796125 0
M  V30 2272 C 222.148 -1.68458 -0.235796 0
M  V30 2273 O 223.333 -1.93947 -0.0991344 0
M  V30 2274 C 220.463 -3.46475 0.239205 0
M  V30 2275 C 219.417 -4.10744 1.20307 0
M  V30 2276 C 218.743 -5.32293 0.50683 0
M  V30 2277 C 220.043 -4.55597 2.55399 0
M  V30 2278 H 221.737 -2.46439 1.70024 0
M  V30 2279 H 219.283 -1.18446 0.818935 0
M  V30 2280 H 221.236 -4.214 0.00392006 0
M  V30 2281 H 219.96 -3.19006 -0.700206 0
M  V30 2282 H 218.619 -3.37813 1.42399 0
M  V30 2283 H 218.267 -5.01095 -0.437408 0
M  V30 2284 H 217.967 -5.76243 1.1497 0
M  V30 2285 H 219.491 -6.09956 0.280351 0
M  V30 2286 H 220.905 -5.21841 2.37391 0
M  V30 2287 H 219.302 -5.10363 3.15673 0
M  V30 2288 H 220.372 -3.69013 3.14575 0
M  V30 2289 N 221.715 -0.905404 -1.28997 0
M  V30 2290 C 222.963 -0.533192 -1.9494 0
M  V30 2291 C 223.284 0.924618 -1.71685 0
M  V30 2292 O 222.554 1.65268 -1.05183 0
M  V30 2293 H 221.134 -0.194194 -0.721317 0
M  V30 2294 H 223.796 -1.15294 -1.57141 0
M  V30 2295 H 222.892 -0.72059 -3.03667 0
M  V30 2296 N 223.193 1.4272 -0.668489 0
M  V30 2297 C 224.441 2.01226 -0.187769 0
M  V30 2298 C 224.762 1.53092 1.2078 0
M  V30 2299 O 224.032 0.74993 1.80977 0
M  V30 2300 H 222.612 0.744041 -0.0664272 0
M  V30 2301 H 225.274 1.74723 -0.863583 0
M  V30 2302 H 224.37 3.11556 -0.184166 0
M  V30 2303 N 224.671 0.411399 1.52136 0
M  V30 2304 C 225.917 -0.163888 2.02137 0
M  V30 2305 C 226.25 -1.44597 1.29636 0
M  V30 2306 O 225.525 -1.90272 0.403353 0
M  V30 2307 C 225.808 -0.40927 3.57767 0
M  V30 2308 C 225.661 0.889643 4.40914 0
M  V30 2309 C 226.98 -1.19042 4.23694 0
M  V30 2310 H 224.099 -0.0580896 0.734707 0
M  V30 2311 H 226.741 0.54531 1.82007 0
M  V30 2312 H 224.891 -1.0134 3.7505 0
M  V30 2313 H 226.563 1.52575 4.35337 0
M  V30 2314 H 224.806 1.50011 4.07037 0
M  V30 2315 H 225.477 0.672314 5.4789 0
M  V30 2316 H 227.953 -0.678942 4.10524 0
M  V30 2317 H 226.829 -1.33086 5.32522 0
M  V30 2318 H 227.09 -2.21166 3.82803 0
M  V30 2319 N 226.149 -1.5696 0.141893 0
M  V30 2320 C 227.079 -2.19516 -0.795936 0
M  V30 2321 C 228.06 -1.14187 -1.26077 0
M  V30 2322 O 229.245 -1.42511 -1.31925 0
M  V30 2323 C 226.375 -2.81272 -2.03723 0
M  V30 2324 C 225.329 -3.92384 -1.70936 0
M  V30 2325 C 224.655 -4.41052 -3.02287 0
M  V30 2326 C 225.955 -5.13403 -0.959954 0
M  V30 2327 H 227.649 -2.98138 -0.274596 0
M  V30 2328 H 225.195 -1.43406 -0.130636 0
M  V30 2329 H 227.148 -3.237 -2.69808 0
M  V30 2330 H 225.872 -1.99973 -2.58221 0
M  V30 2331 H 224.531 -3.50566 -1.07232 0
M  V30 2332 H 224.179 -3.56582 -3.54765 0
M  V30 2333 H 223.879 -5.15993 -2.81114 0
M  V30 2334 H 225.403 -4.86146 -3.69451 0
M  V30 2335 H 226.817 -5.52706 -1.52279 0
M  V30 2336 H 225.214 -5.94073 -0.848357 0
M  V30 2337 H 226.284 -4.84875 0.0492434 0
M  V30 2338 N 227.627 0.131896 -1.57047 0
M  V30 2339 C 228.904 0.871495 -1.75112 0
M  V30 2340 C 229.284 1.9866 -0.713949 0
M  V30 2341 O 228.632 2.26965 0.264447 0
M  V30 2342 C 228.842 1.40007 -3.19686 0
M  V30 2343 C 230.19 1.85752 -3.81813 0
M  V30 2344 O 231.214 1.49715 -3.23209 0
M  V30 2345 O 230.073 2.5226 -4.84796 0
M  V30 2346 H 227.167 0.412919 -0.716538 0
M  V30 2347 H 229.713 0.116641 -1.69299 0
M  V30 2348 H 228.485 0.599404 -3.86682 0
M  V30 2349 H 228.108 2.218 -3.29986 0
M  V30 2350 N 229.106 1.52395 0.401703 0
M  V30 2351 C 230.334 1.70676 1.16949 0
M  V30 2352 C 230.749 0.419503 1.8408 0
M  V30 2353 O 230.106 -0.605061 1.72178 0
M  V30 2354 C 230.157 2.84753 2.22706 0
M  V30 2355 O 229.878 4.08495 1.58314 0
M  V30 2356 C 231.379 3.14608 3.12309 0
M  V30 2357 H 228.599 0.571787 0.351142 0
M  V30 2358 H 231.143 1.98987 0.471652 0
M  V30 2359 H 229.298 2.58941 2.88147 0
M  V30 2360 H 229.712 4.72117 2.28485 0
M  V30 2361 H 231.186 3.97923 3.82572 0
M  V30 2362 H 231.663 2.28464 3.75101 0
M  V30 2363 H 232.269 3.42212 2.52529 0
M  V30 2364 N 230.584 -0.659388 1.43143 0
M  V30 2365 C 231.809 -1.45221 1.48073 0
M  V30 2366 C 232.234 -1.87845 0.097995 0
M  V30 2367 O 231.592 -1.56985 -0.90694 0
M  V30 2368 C 231.64 -2.66748 2.42647 0
M  V30 2369 O 230.744 -3.65583 1.90848 0
M  V30 2370 H 230.085 -0.435669 0.501088 0
M  V30 2371 H 232.615 -0.807432 1.87994 0
M  V30 2372 H 232.625 -3.14637 2.59745 0
M  V30 2373 H 231.3 -2.35067 3.43098 0
M  V30 2374 H 229.877 -3.24693 1.83381 0
M  V30 2375 N 232.062 -1.29571 -0.897171 0
M  V30 2376 C 233.478 -1.07637 -1.17841 0
M  V30 2377 C 233.678 0.170713 -2.00776 0
M  V30 2378 O 232.734 0.867768 -2.3712 0
M  V30 2379 C 234.047 -2.3332 -1.8969 0
M  V30 2380 C 235.595 -2.38664 -2.02505 0
M  V30 2381 C 236.07 -3.64157 -2.77765 0
M  V30 2382 N 237.561 -3.64894 -2.85318 0
M  V30 2383 C 238.296 -4.58679 -3.44094 0
M  V30 2384 N 237.792 -5.62799 -4.04017 0
M  V30 2385 N 239.585 -4.46245 -3.41793 0
M  V30 2386 H 231.736 -2.09598 -0.343883 0
M  V30 2387 H 233.999 -0.923333 -0.214848 0
M  V30 2388 H 233.705 -3.24262 -1.36187 0
M  V30 2389 H 233.579 -2.41025 -2.9015 0
M  V30 2390 H 235.966 -1.48208 -2.55183 0
M  V30 2391 H 236.047 -2.34943 -1.01171 0
M  V30 2392 H 235.691 -4.54965 -2.25763 0
M  V30 2393 H 235.621 -3.65137 -3.7945 0
M  V30 2394 H 238.112 -2.89613 -2.42761 0
M  V30 2395 H 238.425 -6.3048 -4.46895 0
M  V30 2396 H 236.77 -5.66605 -4.02472 0
M  V30 2397 H 239.961 -3.64094 -2.94199 0
M  V30 2398 H 240.134 -5.19518 -3.87304 0
M  V30 2399 N 233.54 1.10788 -1.12088 0
M  V30 2400 C 234.47 2.19083 -0.807755 0
M  V30 2401 C 235.451 1.6858 0.226859 0
M  V30 2402 O 236.636 1.93997 0.0888475 0
M  V30 2403 C 233.766 3.46344 -0.257576 0
M  V30 2404 C 232.72 4.101 -1.22483 0
M  V30 2405 C 232.046 5.32016 -0.535052 0
M  V30 2406 C 233.346 4.54236 -2.57811 0
M  V30 2407 H 235.04 2.45534 -1.71328 0
M  V30 2408 H 232.586 1.1801 -0.825205 0
M  V30 2409 H 234.539 4.21392 -0.0262679 0
M  V30 2410 H 233.263 3.19373 0.683278 0
M  V30 2411 H 231.922 3.37054 -1.44189 0
M  V30 2412 H 231.57 5.01319 0.410827 0
M  V30 2413 H 231.27 5.75625 -1.18024 0
M  V30 2414 H 232.794 6.09799 -0.312695 0
M  V30 2415 H 234.208 5.20575 -2.40155 0
M  V30 2416 H 232.605 5.08682 -3.18375 0
M  V30 2417 H 233.675 3.6734 -3.16528 0
M  V30 2418 N 235.018 0.912232 1.28515 0
M  V30 2419 C 235.965 0.397954 2.27343 0
M  V30 2420 C 236.935 -0.526766 1.57526 0
M  V30 2421 O 238.12 -0.449292 1.85435 0
M  V30 2422 C 235.26 -0.357263 3.43246 0
M  V30 2423 C 234.373 0.599788 4.27816 0
M  V30 2424 C 233.508 -0.173725 5.30916 0
M  V30 2425 C 232.547 0.777039 6.07148 0
M  V30 2426 N 231.684 0.0371398 7.0209 0
M  V30 2427 H 236.524 1.24577 2.70711 0
M  V30 2428 H 234.061 0.625612 1.33133 0
M  V30 2429 H 236.019 -0.8113 4.09236 0
M  V30 2430 H 234.649 -1.16943 3.00872 0
M  V30 2431 H 233.701 1.17235 3.61884 0
M  V30 2432 H 235.013 1.32704 4.80823 0
M  V30 2433 H 234.167 -0.688394 6.02782 0
M  V30 2434 H 232.906 -0.934041 4.78672 0
M  V30 2435 H 231.911 1.3031 5.34134 0
M  V30 2436 H 233.136 1.53689 6.61481 0
M  V30 2437 H 231.082 -0.705213 6.52198 0
M  V30 2438 H 230.999 0.704249 7.52713 0
M  V30 2439 H 232.267 -0.457383 7.78157 0
M  V30 2440 N 236.496 -1.42363 0.676048 0
M  V30 2441 C 237.726 -2.05561 0.206967 0
M  V30 2442 C 238.134 -1.50887 -1.14148 0
M  V30 2443 O 237.477 -0.643933 -1.72044 0
M  V30 2444 C 237.539 -3.5944 0.0659508 0
M  V30 2445 C 237.203 -4.36812 1.34331 0
M  V30 2446 C 238.2 -4.67383 2.27704 0
M  V30 2447 C 235.885 -4.76429 1.59125 0
M  V30 2448 C 237.879 -5.36509 3.44147 0
M  V30 2449 C 235.566 -5.45294 2.75857 0
M  V30 2450 C 236.564 -5.75259 3.68193 0
M  V30 2451 O 236.252 -6.42712 4.82883 0
M  V30 2452 H 235.984 -0.668872 0.0979084 0
M  V30 2453 H 238.538 -1.83467 0.923531 0
M  V30 2454 H 236.768 -3.80197 -0.706204 0
M  V30 2455 H 238.457 -4.0427 -0.363418 0
M  V30 2456 H 239.223 -4.37275 2.09799 0
M  V30 2457 H 235.102 -4.52498 0.881258 0
M  V30 2458 H 238.646 -5.59814 4.16238 0
M  V30 2459 H 234.543 -5.7482 2.93688 0
M  V30 2460 H 235.311 -6.61204 4.82444 0
M  V30 2461 N 237.974 -0.419461 -1.51915 0
M  V30 2462 C 239.204 0.151915 -2.06041 0
M  V30 2463 C 239.612 1.38539 -1.28855 0
M  V30 2464 O 238.955 1.80592 -0.336463 0
M  V30 2465 C 239.017 0.557119 -3.55157 0
M  V30 2466 C 238.681 -0.567054 -4.53468 0
M  V30 2467 C 239.678 -1.43379 -4.99738 0
M  V30 2468 C 237.363 -0.742693 -4.96779 0
M  V30 2469 C 239.357 -2.46102 -5.87973 0
M  V30 2470 C 237.044 -1.77322 -5.84808 0
M  V30 2471 C 238.042 -2.63078 -6.30301 0
M  V30 2472 O 237.73 -3.64364 -7.16585 0
M  V30 2473 H 237.462 0.0193293 -0.675724 0
M  V30 2474 H 240.016 -0.592073 -1.96682 0
M  V30 2475 H 238.246 1.35355 -3.62238 0
M  V30 2476 H 239.935 1.05759 -3.9188 0
M  V30 2477 H 240.701 -1.30954 -4.66986 0
M  V30 2478 H 236.58 -0.0848307 -4.60922 0
M  V30 2479 H 240.124 -3.13071 -6.23404 0
M  V30 2480 H 236.021 -1.89773 -6.16974 0
M  V30 2481 H 236.789 -3.60731 -7.34721 0
M  V30 2482 N 239.452 1.56882 -0.150215 0
M  V30 2483 C 240.701 1.95403 0.500071 0
M  V30 2484 C 241.014 1.03777 1.658 0
M  V30 2485 O 242.22 1.31889 2.37313 0
M  V30 2486 C 240.676 3.4738 0.941018 0
M  V30 2487 C 240.284 4.47596 -0.190158 0
M  V30 2488 C 242.028 3.9476 1.56091 0
M  V30 2489 C 239.935 5.90787 0.269237 0
M  V30 2490 H 238.865 0.729515 0.190588 0
M  V30 2491 H 241.516 1.81988 -0.235074 0
M  V30 2492 H 239.898 3.56138 1.73152 0
M  V30 2493 H 241.072 4.50536 -0.967157 0
M  V30 2494 H 239.387 4.10151 -0.718666 0
M  V30 2495 H 241.984 4.99181 1.9163 0
M  V30 2496 H 242.327 3.36494 2.45107 0
M  V30 2497 H 242.86 3.88932 0.835249 0
M  V30 2498 H 239.599 6.52879 -0.585621 0
M  V30 2499 H 239.119 5.912 1.01204 0
M  V30 2500 H 240.798 6.42979 0.720176 0
M  V30 2501 N 240.93 -0.123565 1.57115 0
M  V30 2502 C 242.155 -0.850398 1.89164 0
M  V30 2503 C 242.58 -1.7286 0.741688 0
M  V30 2504 O 241.938 -1.78665 -0.307958 0
M  V30 2505 C 241.986 -1.66353 3.19936 0
M  V30 2506 O 241.09 -2.77004 3.0552 0
M  V30 2507 H 240.431 -0.235454 0.620852 0
M  V30 2508 H 242.961 -0.107335 2.04318 0
M  V30 2509 H 242.971 -2.05372 3.52543 0
M  V30 2510 H 241.646 -1.01881 4.03228 0
M  V30 2511 H 240.223 -2.41221 2.84371 0
M  V30 2512 N 242.408 -1.52605 -0.393616 0
M  V30 2513 C 243.34 -1.73303 -1.49995 0
M  V30 2514 C 244.353 -0.613473 -1.50799 0
M  V30 2515 O 245.542 -0.889049 -1.54784 0
M  V30 2516 C 242.642 -1.77245 -2.88855 0
M  V30 2517 C 241.815 -3.06483 -3.12069 0
M  V30 2518 C 240.874 -3.02033 -4.30886 0
M  V30 2519 O 239.9 -3.75907 -4.27414 0
M  V30 2520 N 241.102 -2.20897 -5.36828 0
M  V30 2521 H 243.867 -2.68756 -1.32629 0
M  V30 2522 H 241.428 -1.51036 -0.583083 0
M  V30 2523 H 243.42 -1.7178 -3.66434 0
M  V30 2524 H 241.99 -0.891993 -2.99603 0
M  V30 2525 H 241.21 -3.25474 -2.22396 0
M  V30 2526 H 242.498 -3.91947 -3.2443 0
M  V30 2527 H 241.896 -1.60336 -5.42502 0
M  V30 2528 H 240.453 -2.21275 -6.13091 0
M  V30 2529 N 243.887 0.651787 -1.4349 0
M  V30 2530 C 244.834 1.76462 -1.4876 0
M  V30 2531 C 245.804 1.62641 -0.337189 0
M  V30 2532 O 246.989 1.82864 -0.544544 0
M  V30 2533 C 244.129 3.14623 -1.41796 0
M  V30 2534 C 243.242 3.39568 -2.67053 0
M  V30 2535 C 242.377 4.67585 -2.52068 0
M  V30 2536 C 241.416 4.85639 -3.72587 0
M  V30 2537 N 240.553 6.04915 -3.56402 0
M  V30 2538 H 245.393 1.71293 -2.43849 0
M  V30 2539 H 242.93 0.835889 -1.21043 0
M  V30 2540 H 244.888 3.94496 -1.35753 0
M  V30 2541 H 243.518 3.18859 -0.50288 0
M  V30 2542 H 242.57 2.53783 -2.8337 0
M  V30 2543 H 243.882 3.48795 -3.56572 0
M  V30 2544 H 243.036 5.55586 -2.4374 0
M  V30 2545 H 241.775 4.60681 -1.60075 0
M  V30 2546 H 240.78 3.96073 -3.81321 0
M  V30 2547 H 242.005 4.94372 -4.65589 0
M  V30 2548 H 239.951 5.9914 -2.67146 0
M  V30 2549 H 239.868 6.15106 -4.39524 0
M  V30 2550 H 241.136 6.95533 -3.51929 0
M  V30 2551 N 245.365 1.30045 0.890287 0
M  V30 2552 C 246.295 1.18541 2.01172 0
M  V30 2553 C 247.276 0.0773356 1.69924 0
M  V30 2554 O 248.461 0.25845 1.92473 0
M  V30 2555 C 245.591 0.870941 3.36202 0
M  V30 2556 C 244.545 1.93637 3.81692 0
M  V30 2557 C 243.871 1.475 5.13953 0
M  V30 2558 C 245.171 3.34666 4.00994 0
M  V30 2559 H 246.865 2.12359 2.11054 0
M  V30 2560 H 244.411 1.02238 1.01407 0
M  V30 2561 H 246.364 0.777141 4.14172 0
M  V30 2562 H 245.088 -0.102926 3.26438 0
M  V30 2563 H 243.747 2.01972 3.05946 0
M  V30 2564 H 243.395 0.489551 5.00612 0
M  V30 2565 H 243.095 2.1876 5.4536 0
M  V30 2566 H 244.619 1.39489 5.94454 0
M  V30 2567 H 246.033 3.2912 4.69417 0
M  V30 2568 H 244.43 4.03966 4.43769 0
M  V30 2569 H 245.5 3.76949 3.05021 0
M  V30 2570 N 246.843 -1.10192 1.12674 0
M  V30 2571 C 247.791 -2.18694 0.792196 0
M  V30 2572 C 248.785 -1.67938 -0.222058 0
M  V30 2573 O 249.991 -1.79822 -0.0800074 0
M  V30 2574 H 246.366 -0.713223 0.238364 0
M  V30 2575 H 248.337 -2.44149 1.71564 0
M  V30 2576 C 247.086 -3.46682 0.265859 0
M  V30 2577 H 246.409 -3.86101 1.03761 0
M  V30 2578 H 247.849 -4.23942 0.0701128 0
M  V30 2579 C 246.308 -3.21506 -1.00675 0
M  V30 2580 O 246.838 -3.43408 -2.08408 0
M  V30 2581 N 245.044 -2.75158 -0.934692 0
M  V30 2582 H 244.591 -2.57535 -0.0578604 0
M  V30 2583 H 244.549 -2.58691 -1.7868 0
M  V30 2584 N 248.321 -0.919034 -1.28029 0
M  V30 2585 C 249.567 -0.555757 -1.95036 0
M  V30 2586 C 249.9 0.899198 -1.72128 0
M  V30 2587 O 249.175 1.64023 -1.04531 0
M  V30 2588 C 249.458 -0.872024 -3.49382 0
M  V30 2589 C 249.311 -2.3801 -3.81669 0
M  V30 2590 C 250.63 -0.37185 -4.38526 0
M  V30 2591 H 247.749 -0.203386 -0.708381 0
M  V30 2592 H 250.391 -1.14924 -1.51303 0
M  V30 2593 H 248.541 -0.366946 -3.86763 0
M  V30 2594 H 250.213 -2.9562 -3.54128 0
M  V30 2595 H 248.456 -2.83289 -3.28526 0
M  V30 2596 H 249.127 -2.55192 -4.8947 0
M  V30 2597 H 251.603 -0.804602 -4.08247 0
M  V30 2598 H 250.479 -0.622173 -5.45362 0
M  V30 2599 H 250.74 0.727934 -4.36066 0
M  V30 2600 N 249.799 1.42003 -0.683588 0
M  V30 2601 C 251.039 2.03282 -0.213513 0
M  V30 2602 C 251.403 1.52924 1.16097 0
M  V30 2603 O 252.604 2.06048 1.7262 0
M  V30 2604 C 250.875 3.56483 -0.255856 0
M  V30 2605 S 252.434 4.3857 0.14193 0
M  V30 2606 H 249.252 0.705659 -0.0869853 0
M  V30 2607 H 251.854 1.73619 -0.8987 0
M  V30 2608 H 250.558 3.90631 -1.25841 0
M  V30 2609 H 250.089 3.90831 0.448875 0
M  V30 2610 H 252.104 4.76828 1.37295 0
M  V30 2611 N 251.277 0.427512 1.51691 0
M  V30 2612 C 252.688 -0.0378867 1.86662 0
M  V30 2613 C 253.039 -1.42819 1.34525 0
M  V30 2614 O 252.164 -2.05037 0.692014 0
M  V30 2615 C 252.759 -0.0755266 3.38716 0
M  V30 2616 C 251.318 -0.485309 3.73258 0
M  V30 2617 C 250.465 0.328399 2.75349 0
M  V30 2618 H 253.416 0.64379 1.45055 0
M  V30 2619 H 253.437 -0.887056 3.70016 0
M  V30 2620 H 252.949 0.936487 3.76632 0
M  V30 2621 H 251.05 -1.50329 3.40928 0
M  V30 2622 H 251.163 -0.21693 4.78609 0
M  V30 2623 H 249.527 -0.211905 2.53817 0
M  V30 2624 H 250.31 1.3391 3.16106 0
M  V30 2625 N 252.755 -1.56801 0.158532 0
M  V30 2626 C 254.171 -1.5837 -0.197774 0
M  V30 2627 C 254.371 -1.17334 -1.63814 0
M  V30 2628 O 253.427 -0.878988 -2.36707 0
M  V30 2629 C 254.74 -3.00615 0.0714459 0
M  V30 2630 C 256.288 -3.12999 0.00864533 0
M  V30 2631 C 256.763 -4.57313 0.250685 0
M  V30 2632 N 258.254 -4.62777 0.198014 0
M  V30 2633 C 258.989 -5.72271 0.359642 0
M  V30 2634 N 258.485 -6.90371 0.579625 0
M  V30 2635 N 260.278 -5.61318 0.296438 0
M  V30 2636 H 252.429 -1.81765 1.09887 0
M  V30 2637 H 254.692 -0.841849 0.435884 0
M  V30 2638 H 254.398 -3.35068 1.06874 0
M  V30 2639 H 254.272 -3.71683 -0.642757 0
M  V30 2640 H 256.659 -2.7838 -0.979217 0
M  V30 2641 H 256.74 -2.44393 0.755359 0
M  V30 2642 H 256.384 -4.92639 1.2357 0
M  V30 2643 H 256.314 -5.24061 -0.516489 0
M  V30 2644 H 258.805 -3.77885 0.0331115 0
M  V30 2645 H 259.118 -7.69689 0.69275 0
M  V30 2646 H 257.463 -6.92264 0.616087 0
M  V30 2647 H 260.654 -4.67932 0.125258 0
M  V30 2648 H 260.827 -6.46599 0.425831 0
M  V30 2649 N 254.233 0.115231 -1.57178 0
M  V30 2650 C 255.51 0.852873 -1.76027 0
M  V30 2651 C 255.89 1.97892 -0.73498 0
M  V30 2652 O 255.238 2.27232 0.24036 0
M  V30 2653 C 255.448 1.36608 -3.21153 0
M  V30 2654 C 256.796 1.81692 -3.83762 0
M  V30 2655 O 257.82 1.46278 -3.24779 0
M  V30 2656 O 256.679 2.47104 -4.87444 0
M  V30 2657 H 253.773 0.405296 -0.720877 0
M  V30 2658 H 256.319 0.0986785 -1.69413 0
M  V30 2659 H 255.091 0.558357 -3.87296 0
M  V30 2660 H 254.714 2.18287 -3.3232 0
M  V30 2661 N 255.711 1.52812 0.385517 0
M  V30 2662 C 256.957 1.68275 1.13188 0
M  V30 2663 C 257.29 0.423179 1.89533 0
M  V30 2664 O 256.565 -0.579113 1.85679 0
M  V30 2665 C 256.848 2.92001 2.1073 0
M  V30 2666 C 256.701 4.28067 1.38125 0
M  V30 2667 C 258.02 3.11283 3.11113 0
M  V30 2668 H 255.139 0.612352 0.410115 0
M  V30 2669 H 257.781 1.85415 0.414869 0
M  V30 2670 H 255.931 2.77519 2.71874 0
M  V30 2671 H 257.603 4.54324 0.799187 0
M  V30 2672 H 255.846 4.28388 0.683092 0
M  V30 2673 H 256.517 5.10733 2.09417 0
M  V30 2674 H 258.993 3.2482 2.6006 0
M  V30 2675 H 257.869 3.99325 3.76605 0
M  V30 2676 H 258.13 2.25656 3.80173 0
M  V30 2677 N 257.189 -0.644168 1.43834 0
M  V30 2678 C 258.137 -1.77793 1.49974 0
M  V30 2679 C 259.131 -1.65253 0.372536 0
M  V30 2680 O 260.337 -1.7149 0.546924 0
M  V30 2681 H 256.712 -0.58675 0.47035 0
M  V30 2682 H 258.683 -1.69736 2.45423 0
M  V30 2683 C 257.432 -3.16087 1.4486 0
M  V30 2684 H 256.755 -3.26378 2.30905 0
M  V30 2685 H 258.195 -3.95349 1.53217 0
M  V30 2686 C 256.654 -3.36484 0.167463 0
M  V30 2687 O 257.184 -3.94298 -0.767609 0
M  V30 2688 N 255.39 -2.90504 0.0747556 0
M  V30 2689 H 254.937 -2.4364 0.836507 0
M  V30 2690 H 254.895 -3.04527 -0.781714 0
M  V30 2691 N 258.668 -1.30515 -0.883378 0
M  V30 2692 C 259.631 -1.1701 -1.97082 0
M  V30 2693 C 260.631 -0.10089 -1.60483 0
M  V30 2694 O 261.821 -0.349127 -1.70666 0
M  V30 2695 C 258.953 -0.793045 -3.31547 0
M  V30 2696 H 260.146 -2.13622 -2.10489 0
M  V30 2697 H 257.699 -1.13935 -1.06998 0
M  V30 2698 H 258.434 0.172499 -3.23841 0
M  V30 2699 H 258.219 -1.56576 -3.5948 0
M  V30 2700 H 259.709 -0.722073 -4.1131 0
M  V30 2701 N 260.146 1.09593 -1.13257 0
M  V30 2702 C 261.096 2.14345 -0.777179 0
M  V30 2703 C 262.08 1.59277 0.227966 0
M  V30 2704 O 263.272 1.76971 0.0321413 0
M  V30 2705 C 260.401 3.42439 -0.242991 0
M  V30 2706 C 259.487 4.04419 -1.27694 0
M  V30 2707 N 259.878 4.40979 -2.47732 0
M  V30 2708 C 258.176 4.31596 -1.12432 0
M  V30 2709 C 258.877 4.89784 -3.13826 0
M  V30 2710 N 257.853 4.87133 -2.41252 0
M  V30 2711 H 261.655 2.40415 -1.69049 0
M  V30 2712 H 259.169 1.26803 -1.01463 0
M  V30 2713 H 261.166 4.16889 0.0298496 0
M  V30 2714 H 259.826 3.17824 0.66467 0
M  V30 2715 H 260.837 4.32396 -2.85051 0
M  V30 2716 H 257.514 4.16595 -0.274684 0
M  V30 2717 H 258.904 5.2755 -4.16102 0
M  V30 2718 N 261.624 0.925811 1.2754 0
M  V30 2719 C 262.873 0.561084 1.93739 0
M  V30 2720 C 263.186 -0.901685 1.73577 0
M  V30 2721 O 264.392 -1.37511 2.34101 0
M  V30 2722 C 262.848 0.952668 3.47062 0
M  V30 2723 C 262.456 2.43599 3.75983 0
M  V30 2724 C 264.2 0.659103 4.19352 0
M  V30 2725 C 262.107 2.76707 5.22673 0
M  V30 2726 H 261.037 0.206122 0.725279 0
M  V30 2727 H 263.688 1.12637 1.44863 0
M  V30 2728 H 262.07 0.316053 3.94737 0
M  V30 2729 H 263.244 3.12035 3.39073 0
M  V30 2730 H 261.559 2.70125 3.16893 0
M  V30 2731 H 264.156 0.882985 5.27359 0
M  V30 2732 H 264.499 -0.403607 4.14339 0
M  V30 2733 H 265.032 1.25473 3.77494 0
M  V30 2734 H 261.771 3.8188 5.32774 0
M  V30 2735 H 261.291 2.12919 5.60737 0
M  V30 2736 H 262.97 2.6435 5.90532 0
M  V30 2737 N 263.102 -1.41638 0.69111 0
M  V30 2738 C 264.348 -2.01598 0.220519 0
M  V30 2739 C 264.681 -1.54594 -1.17535 0
M  V30 2740 O 263.956 -0.755177 -1.79241 0
M  V30 2741 C 264.239 -3.59062 0.273243 0
M  V30 2742 C 264.092 -4.16203 1.70573 0
M  V30 2743 C 265.411 -4.38546 -0.369457 0
M  V30 2744 H 262.53 -0.732468 0.0816045 0
M  V30 2745 H 265.172 -1.68445 0.878986 0
M  V30 2746 H 263.322 -3.87435 -0.287411 0
M  V30 2747 H 264.994 -3.98722 2.31989 0
M  V30 2748 H 263.237 -3.71414 2.2413 0
M  V30 2749 H 263.908 -5.25358 1.69419 0
M  V30 2750 H 266.384 -4.1596 0.107977 0
M  V30 2751 H 265.26 -5.48069 -0.302002 0
M  V30 2752 H 265.521 -4.17662 -1.44951 0
M  V30 2753 N 264.58 -0.43555 -1.51462 0
M  V30 2754 C 265.828 0.131254 -2.01673 0
M  V30 2755 C 266.149 1.43368 -1.32177 0
M  V30 2756 O 265.419 1.90524 -0.455769 0
M  V30 2757 H 263.999 0.0514954 -0.745223 0
M  V30 2758 H 266.661 -0.577847 -1.86137 0
M  V30 2759 H 265.757 0.308446 -3.10572 0
M  V30 2760 N 266.058 1.56714 -0.166846 0
M  V30 2761 C 267.021 2.16539 0.751232 0
M  V30 2762 C 268.021 1.11228 1.16125 0
M  V30 2763 O 269.211 1.36765 1.07894 0
M  V30 2764 C 266.343 2.74462 2.02196 0
M  V30 2765 H 267.536 2.99013 0.230499 0
M  V30 2766 H 265.089 1.56081 0.0826982 0
M  V30 2767 H 265.824 1.95709 2.58589 0
M  V30 2768 H 265.609 3.51527 1.73698 0
M  V30 2769 H 267.099 3.20489 2.67725 0
M  V30 2770 N 267.536 -0.106894 1.57237 0
M  V30 2771 C 268.486 -1.1366 1.9765 0
M  V30 2772 C 269.47 -1.36416 0.853203 0
M  V30 2773 O 270.662 -1.37305 1.11697 0
M  V30 2774 C 267.791 -2.46 2.39455 0
M  V30 2775 C 266.877 -2.26668 3.58445 0
M  V30 2776 N 267.268 -1.77176 4.73754 0
M  V30 2777 C 265.566 -2.57279 3.64312 0
M  V30 2778 C 266.267 -1.71836 5.5574 0
M  V30 2779 N 265.243 -2.16623 4.98573 0
M  V30 2780 H 269.045 -0.74669 2.84256 0
M  V30 2781 H 266.559 -0.314483 1.59326 0
M  V30 2782 H 268.556 -3.2049 2.6663 0
M  V30 2783 H 267.216 -2.85738 1.54219 0
M  V30 2784 H 268.227 -1.46545 4.96734 0
M  V30 2785 H 264.904 -3.00622 2.89711 0
M  V30 2786 H 266.294 -1.34723 6.58255 0
M  V30 2787 N 269.014 -1.53014 -0.377408 0
M  V30 2788 C 270.262 -1.6829 -1.11906 0
M  V30 2789 C 270.583 -0.431206 -1.90173 0
M  V30 2790 O 269.853 0.554595 -1.87886 0
M  V30 2791 H 268.433 -0.620371 -0.416112 0
M  V30 2792 H 271.095 -1.90167 -0.426893 0
M  V30 2793 H 270.191 -2.53862 -1.8155 0
M  V30 2794 N 270.492 0.636531 -1.44174 0
M  V30 2795 C 271.44 1.76995 -1.50915 0
M  V30 2796 C 272.434 1.65053 -0.381295 0
M  V30 2797 O 273.64 1.71197 -0.55601 0
M  V30 2798 H 270.015 0.584247 -0.473455 0
M  V30 2799 H 271.986 1.68432 -2.4632 0
M  V30 2800 C 270.735 3.15314 -1.46534 0
M  V30 2801 H 270.058 3.25149 -2.32633 0
M  V30 2802 H 271.498 3.9453 -1.55312 0
M  V30 2803 C 269.957 3.3639 -0.185305 0
M  V30 2804 O 270.487 3.94699 0.746688 0
M  V30 2805 N 268.693 2.9046 -0.0901606 0
M  V30 2806 H 268.24 2.43193 -0.849416 0
M  V30 2807 H 268.198 3.04937 0.765553 0
M  V30 2808 N 271.97 1.30982 0.876444 0
M  V30 2809 C 272.917 1.18085 1.98304 0
M  V30 2810 C 273.887 0.0682263 1.6596 0
M  V30 2811 O 275.072 0.239937 1.89285 0
M  V30 2812 C 272.212 0.887475 3.33493 0
M  V30 2813 C 271.325 2.08281 3.78475 0
M  V30 2814 C 270.46 1.72678 5.0235 0
M  V30 2815 C 269.499 2.88657 5.39762 0
M  V30 2816 N 268.636 2.53292 6.54819 0
M  V30 2817 H 273.476 2.1275 2.08666 0
M  V30 2818 H 271.013 1.05839 1.02159 0
M  V30 2819 H 272.971 0.697961 4.1132 0
M  V30 2820 H 271.601 -0.022315 3.22792 0
M  V30 2821 H 270.653 2.3833 2.96484 0
M  V30 2822 H 271.965 2.95108 4.02135 0
M  V30 2823 H 271.119 1.50151 5.87826 0
M  V30 2824 H 269.858 0.830327 4.8058 0
M  V30 2825 H 268.863 3.1184 4.52809 0
M  V30 2826 H 270.088 3.79002 5.63502 0
M  V30 2827 H 268.034 1.66163 6.34607 0
M  V30 2828 H 267.951 3.3365 6.7839 0
M  V30 2829 H 269.219 2.34143 7.43503 0
M  V30 2830 N 273.449 -1.08991 1.13837 0
M  V30 2831 C 274.382 -2.15049 0.763477 0
M  V30 2832 C 275.36 -1.60629 -0.252398 0
M  V30 2833 O 276.544 -1.87958 -0.142853 0
M  V30 2834 C 273.671 -3.38441 0.132545 0
M  V30 2835 C 272.717 -4.11596 1.11763 0
M  V30 2836 S 273.55 -4.6521 2.65216 0
M  V30 2837 C 274.706 -5.91896 2.03495 0
M  V30 2838 H 274.939 -2.46518 1.66182 0
M  V30 2839 H 272.472 -1.21008 0.958976 0
M  V30 2840 H 274.43 -4.09883 -0.225074 0
M  V30 2841 H 273.091 -3.05182 -0.743135 0
M  V30 2842 H 272.284 -5.00121 0.624076 0
M  V30 2843 H 271.886 -3.46038 1.41894 0
M  V30 2844 H 274.178 -6.63156 1.38675 0
M  V30 2845 H 275.121 -6.45938 2.9012 0
M  V30 2846 H 275.529 -5.44625 1.48471 0
M  V30 2847 N 274.927 -0.932562 -1.27047 0
M  V30 2848 C 276.173 -0.576412 -1.94436 0
M  V30 2849 C 276.506 0.880891 -1.73072 0
M  V30 2850 O 275.781 1.62905 -1.06264 0
M  V30 2851 C 276.064 -0.909031 -3.48437 0
M  V30 2852 C 275.917 -2.42044 -3.79123 0
M  V30 2853 C 277.236 -0.418341 -4.38107 0
M  V30 2854 H 274.355 -0.210888 -0.706184 0
M  V30 2855 H 276.997 -1.16522 -1.50075 0
M  V30 2856 H 275.147 -0.407947 -3.86352 0
M  V30 2857 H 276.819 -2.99359 -3.50973 0
M  V30 2858 H 275.062 -2.86758 -3.25503 0
M  V30 2859 H 275.733 -2.6037 -4.86736 0
M  V30 2860 H 278.209 -0.847856 -4.0737 0
M  V30 2861 H 277.085 -0.679981 -5.44672 0
M  V30 2862 H 277.346 0.681642 -4.36814 0
M  V30 2863 N 276.405 1.4127 -0.698611 0
M  V30 2864 C 277.335 2.33447 -0.049629 0
M  V30 2865 C 278.316 1.51982 0.763898 0
M  V30 2866 O 279.501 1.80509 0.716257 0
M  V30 2867 C 276.631 3.35828 0.885267 0
M  V30 2868 C 275.585 4.27627 0.178613 0
M  V30 2869 C 274.911 5.20406 1.22807 0
M  V30 2870 C 276.211 5.13459 -0.956933 0
M  V30 2871 H 277.905 2.87966 -0.81951 0
M  V30 2872 H 275.451 1.38461 -0.395538 0
M  V30 2873 H 277.404 3.9924 1.34854 0
M  V30 2874 H 276.128 2.79666 1.68685 0
M  V30 2875 H 274.787 3.65643 -0.26466 0
M  V30 2876 H 274.435 4.60558 2.02226 0
M  V30 2877 H 274.135 5.82661 0.760239 0
M  V30 2878 H 275.659 5.86695 1.69179 0
M  V30 2879 H 277.073 5.70421 -0.573805 0
M  V30 2880 H 275.47 5.8467 -1.35205 0
M  V30 2881 H 276.54 4.50443 -1.79524 0
M  V30 2882 N 277.883 0.443576 1.51229 0
M  V30 2883 C 278.813 -0.355142 2.30783 0
M  V30 2884 C 279.794 -1.0154 1.36468 0
M  V30 2885 O 280.979 -1.01785 1.65389 0
M  V30 2886 C 278.109 -1.45312 3.15439 0
M  V30 2887 C 277.063 -0.916002 4.18083 0
M  V30 2888 C 276.389 -2.1102 4.91299 0
M  V30 2889 C 277.689 0.0538602 5.22272 0
M  V30 2890 H 279.383 0.308767 2.97804 0
M  V30 2891 H 276.929 0.149937 1.43217 0
M  V30 2892 H 278.882 -2.01914 3.69876 0
M  V30 2893 H 277.606 -2.14541 2.46252 0
M  V30 2894 H 276.265 -0.372145 3.64706 0
M  V30 2895 H 275.913 -2.78882 4.18609 0
M  V30 2896 H 275.613 -1.75717 5.60712 0
M  V30 2897 H 277.137 -2.68164 5.48562 0
M  V30 2898 H 278.551 -0.422069 5.71744 0
M  V30 2899 H 276.948 0.319776 5.99247 0
M  V30 2900 H 278.018 0.98858 4.74716 0
M  V30 2901 N 279.361 -1.56624 0.175154 0
M  V30 2902 C 280.308 -2.18149 -0.753634 0
M  V30 2903 C 281.278 -1.12265 -1.22417 0
M  V30 2904 O 282.463 -1.40432 -1.29165 0
M  V30 2905 C 279.603 -2.82933 -1.97592 0
M  V30 2906 C 278.716 -4.03289 -1.5486 0
M  V30 2907 C 277.851 -4.55988 -2.72485 0
M  V30 2908 C 276.89 -5.68746 -2.26262 0
M  V30 2909 N 276.027 -6.15938 -3.36994 0
M  V30 2910 H 280.867 -2.9717 -0.222195 0
M  V30 2911 H 278.404 -1.46774 -0.0979422 0
M  V30 2912 H 280.362 -3.18653 -2.69288 0
M  V30 2913 H 278.992 -2.06509 -2.481 0
M  V30 2914 H 278.044 -3.73364 -0.728246 0
M  V30 2915 H 279.356 -4.849 -1.16933 0
M  V30 2916 H 278.51 -4.9391 -3.52332 0
M  V30 2917 H 277.249 -3.73443 -3.13674 0
M  V30 2918 H 276.254 -5.30372 -1.44863 0
M  V30 2919 H 277.479 -6.53095 -1.86127 0
M  V30 2920 H 275.425 -5.36321 -3.77751 0
M  V30 2921 H 275.342 -6.92548 -3.03172 0
M  V30 2922 H 276.61 -6.58511 -4.17114 0
M  V30 2923 N 280.839 0.0985539 -1.57292 0
M  V30 2924 C 282.255 0.45267 -1.53046 0
M  V30 2925 C 282.455 1.80713 -0.891342 0
M  V30 2926 O 281.511 2.4785 -0.482375 0
M  V30 2927 C 282.824 0.418341 -2.97776 0
M  V30 2928 C 284.372 0.500443 -3.08973 0
M  V30 2929 C 284.847 0.496297 -4.55303 0
M  V30 2930 N 286.338 0.557151 -4.59837 0
M  V30 2931 C 287.073 0.575726 -5.70502 0
M  V30 2932 N 286.569 0.550714 -6.90608 0
M  V30 2933 N 288.362 0.620277 -5.58667 0
M  V30 2934 H 280.513 -0.788673 -1.97215 0
M  V30 2935 H 282.776 -0.293188 -0.901524 0
M  V30 2936 H 282.482 -0.509659 -3.47988 0
M  V30 2937 H 282.356 1.2386 -3.56284 0
M  V30 2938 H 284.743 1.41886 -2.58751 0
M  V30 2939 H 284.824 -0.347894 -2.53423 0
M  V30 2940 H 284.468 -0.418162 -5.06176 0
M  V30 2941 H 284.398 1.3618 -5.08687 0
M  V30 2942 H 286.889 0.581816 -3.73394 0
M  V30 2943 H 287.202 0.568075 -7.70709 0
M  V30 2944 H 285.547 0.517816 -6.93068 0
M  V30 2945 H 288.738 0.637322 -4.63741 0
M  V30 2946 H 288.911 0.631283 -6.44918 0
M  V30 2947 N 282.317 1.53212 0.369288 0
M  V30 2948 C 283.547 1.72868 1.13139 0
M  V30 2949 C 283.955 0.455754 1.83629 0
M  V30 2950 O 283.298 -0.580861 1.74275 0
M  V30 2951 C 283.36 2.83667 2.20847 0
M  V30 2952 C 283.024 4.24142 1.70155 0
M  V30 2953 C 284.021 5.06619 1.16763 0
M  V30 2954 C 281.706 4.70539 1.7578 0
M  V30 2955 C 283.7 6.33581 0.696678 0
M  V30 2956 C 281.387 5.97481 1.28297 0
M  V30 2957 C 282.385 6.78833 0.753307 0
M  V30 2958 O 282.073 8.03393 0.285475 0
M  V30 2959 H 281.805 0.581707 0.344373 0
M  V30 2960 H 284.359 2.00736 0.435243 0
M  V30 2961 H 282.589 2.51265 2.93944 0
M  V30 2962 H 284.278 2.91536 2.82421 0
M  V30 2963 H 285.044 4.71948 1.11758 0
M  V30 2964 H 280.923 4.07293 2.15949 0
M  V30 2965 H 284.467 6.97027 0.282581 0
M  V30 2966 H 280.364 6.31651 1.32994 0
M  V30 2967 H 281.132 8.17497 0.405145 0
M  V30 2968 N 283.795 -0.628877 1.44509 0
M  V30 2969 C 285.044 -1.38437 1.4669 0
M  V30 2970 C 285.357 -1.95322 0.104272 0
M  V30 2971 O 286.563 -2.715 0.00362163 0
M  V30 2972 C 285.019 -2.50659 2.5826 0
M  V30 2973 C 284.627 -2.00277 4.0074 0
M  V30 2974 C 286.371 -3.27844 2.69664 0
M  V30 2975 C 284.278 -3.09854 5.0373 0
M  V30 2976 H 283.208 -0.520245 0.545766 0
M  V30 2977 H 285.859 -0.676313 1.70582 0
M  V30 2978 H 284.241 -3.2405 2.27612 0
M  V30 2979 H 285.415 -1.33736 4.40966 0
M  V30 2980 H 283.73 -1.35901 3.93599 0
M  V30 2981 H 286.327 -4.09534 3.43781 0
M  V30 2982 H 286.67 -3.77471 1.75559 0
M  V30 2983 H 287.203 -2.61543 2.99733 0
M  V30 2984 H 283.942 -2.65168 5.99472 0
M  V30 2985 H 283.462 -3.7503 4.68095 0
M  V30 2986 H 285.141 -3.74592 5.27532 0
M  V30 2987 N 285.273 -1.31445 -0.869486 0
M  V30 2988 C 286.501 -1.24122 -1.65534 0
M  V30 2989 C 286.916 0.193387 -1.87807 0
M  V30 2990 O 286.273 1.12557 -1.43656 0
M  V30 2991 C 286.324 -1.98229 -3.02304 0
M  V30 2992 O 286.045 -3.3609 -2.81026 0
M  V30 2993 C 287.546 -1.97751 -3.96749 0
M  V30 2994 H 284.766 -0.428868 -0.516055 0
M  V30 2995 H 287.31 -1.73328 -1.08525 0
M  V30 2996 H 285.465 -1.52782 -3.56001 0
M  V30 2997 H 285.879 -3.7383 -3.67902 0
M  V30 2998 H 287.353 -2.54114 -4.90031 0
M  V30 2999 H 287.83 -0.960137 -4.28577 0
M  V30 3000 H 288.436 -2.43079 -3.48988 0
M  V30 3001 N 286.751 1.08385 -1.14413 0
M  V30 3002 C 287.997 1.81044 -0.913834 0
M  V30 3003 C 288.33 1.86004 0.558209 0
M  V30 3004 O 287.605 1.33606 1.4135 0
M  V30 3005 C 287.888 3.26648 -1.51569 0
M  V30 3006 C 287.741 3.29895 -3.0576 0
M  V30 3007 C 289.06 4.23629 -1.19273 0
M  V30 3008 H 286.179 0.65727 -0.333414 0
M  V30 3009 H 288.821 1.26896 -1.41412 0
M  V30 3010 H 286.971 3.72889 -1.09023 0
M  V30 3011 H 288.643 2.91977 -3.57137 0
M  V30 3012 H 286.886 2.69163 -3.40197 0
M  V30 3013 H 287.557 4.32516 -3.42977 0
M  V30 3014 H 290.033 3.85727 -1.56057 0
M  V30 3015 H 288.909 5.23822 -1.64017 0
M  V30 3016 H 289.17 4.41968 -0.108068 0
M  V30 3017 N 288.23 0.939286 1.26551 0
M  V30 3018 C 289.478 0.58469 1.93457 0
M  V30 3019 C 289.799 -0.878774 1.74076 0
M  V30 3020 O 289.069 -1.62421 1.09528 0
M  V30 3021 H 287.649 0.21325 0.715914 0
M  V30 3022 H 290.311 1.1942 1.54029 0
M  V30 3023 H 289.407 0.800849 3.0165 0
M  V30 3024 N 289.708 -1.40897 0.706093 0
M  V30 3025 C 290.956 -2.00657 0.241054 0
M  V30 3026 C 291.277 -1.56241 -1.16678 0
M  V30 3027 O 290.547 -0.79765 -1.78926 0
M  V30 3028 H 289.127 -0.742018 0.0861308 0
M  V30 3029 H 291.789 -1.72372 0.909604 0
M  V30 3030 H 290.885 -3.10958 0.266705 0
M  V30 3031 N 291.186 -0.45159 -1.50991 0
M  V30 3032 C 292.435 0.111653 -2.01391 0
M  V30 3033 C 292.748 1.42529 -1.33959 0
M  V30 3034 O 293.954 2.07232 -1.75405 0
M  V30 3035 C 292.41 0.249514 -3.59034 0
M  V30 3036 C 292.018 -1.05453 -4.35412 0
M  V30 3037 C 293.762 0.765762 -4.17536 0
M  V30 3038 C 291.669 -0.881529 -5.84793 0
M  V30 3039 H 290.599 0.0455022 -0.752626 0
M  V30 3040 H 293.25 -0.583524 -1.73975 0
M  V30 3041 H 291.632 1.00803 -3.82955 0
M  V30 3042 H 292.806 -1.82248 -4.23229 0
M  V30 3043 H 291.121 -1.50039 -3.88429 0
M  V30 3044 H 293.718 0.911913 -5.26866 0
M  V30 3045 H 294.061 1.75201 -3.77638 0
M  V30 3046 H 294.594 0.0651744 -3.97747 0
M  V30 3047 H 291.333 -1.84057 -6.29129 0
M  V30 3048 H 290.853 -0.153625 -5.99603 0
M  V30 3049 H 292.532 -0.540363 -6.4474 0
M  V30 3050 N 292.664 1.56529 -0.183458 0
M  V30 3051 C 294.075 1.83739 0.331177 0
M  V30 3052 C 294.426 1.10373 1.62211 0
M  V30 3053 O 293.551 0.36071 2.13373 0
M  V30 3054 C 294.146 3.33306 0.607646 0
M  V30 3055 C 292.705 3.60969 1.06668 0
M  V30 3056 C 291.852 2.77086 0.109029 0
M  V30 3057 H 294.803 1.53379 -0.407484 0
M  V30 3058 H 294.824 3.51444 1.45832 0
M  V30 3059 H 294.336 3.86677 -0.332086 0
M  V30 3060 H 292.437 3.13021 2.0211 0
M  V30 3061 H 292.55 4.69231 0.967447 0
M  V30 3062 H 290.914 2.47319 0.608714 0
M  V30 3063 H 291.697 3.33241 -0.82494 0
M  V30 3064 N 294.142 -0.090211 1.57342 0
M  V30 3065 C 295.072 -1.10976 2.05443 0
M  V30 3066 C 296.053 -1.41482 0.944284 0
M  V30 3067 O 297.238 -1.51428 1.21586 0
M  V30 3068 C 294.368 -2.42831 2.48295 0
M  V30 3069 C 293.322 -2.26721 3.63018 0
M  V30 3070 C 292.648 -3.63796 3.91863 0
M  V30 3071 C 293.948 -1.7037 4.93732 0
M  V30 3072 H 295.642 -0.709564 2.9087 0
M  V30 3073 H 293.188 -0.339874 1.39932 0
M  V30 3074 H 295.141 -3.14431 2.80555 0
M  V30 3075 H 293.865 -2.84795 1.59873 0
M  V30 3076 H 292.524 -1.57565 3.31012 0
M  V30 3077 H 292.172 -4.03297 3.00601 0
M  V30 3078 H 291.872 -3.53861 4.69101 0
M  V30 3079 H 293.396 -4.36855 4.26603 0
M  V30 3080 H 294.81 -2.31816 5.24342 0
M  V30 3081 H 293.207 -1.71181 5.75167 0
M  V30 3082 H 294.277 -0.663542 4.80339 0
M  V30 3083 N 295.62 -1.53406 -0.361157 0
M  V30 3084 C 296.552 -1.76446 -1.46286 0
M  V30 3085 C 297.565 -0.645322 -1.49464 0
M  V30 3086 O 298.754 -0.921681 -1.52864 0
M  V30 3087 C 295.854 -1.83332 -2.85031 0
M  V30 3088 C 295.027 -3.13033 -3.05498 0
M  V30 3089 C 294.086 -3.11104 -4.24383 0
M  V30 3090 O 293.112 -3.84888 -4.19344 0
M  V30 3091 N 294.314 -2.32234 -5.32022 0
M  V30 3092 H 297.079 -2.71508 -1.26899 0
M  V30 3093 H 294.64 -1.52238 -0.550915 0
M  V30 3094 H 296.632 -1.79514 -3.62708 0
M  V30 3095 H 295.202 -0.955342 -2.97644 0
M  V30 3096 H 294.422 -3.30119 -2.15442 0
M  V30 3097 H 295.71 -3.9874 -3.16044 0
M  V30 3098 H 295.108 -1.71807 -5.38979 0
M  V30 3099 H 293.665 -2.3423 -6.08259 0
M  V30 3100 N 297.098 0.621204 -1.44841 0
M  V30 3101 C 298.008 1.7612 -1.5498 0
M  V30 3102 C 299.024 1.68477 -0.434927 0
M  V30 3103 O 300.2 1.89076 -0.693693 0
M  V30 3104 C 297.265 3.1254 -1.50065 0
M  V30 3105 C 296.326 3.31741 -2.72482 0
M  V30 3106 C 295.559 4.61653 -2.67792 0
M  V30 3107 O 295.782 5.431 -1.74352 0
M  V30 3108 O 294.716 4.83271 -3.58794 0
M  V30 3109 H 298.542 1.70518 -2.51311 0
M  V30 3110 H 296.127 0.783643 -1.27198 0
M  V30 3111 H 298.009 3.93844 -1.49882 0
M  V30 3112 H 296.684 3.18663 -0.568806 0
M  V30 3113 H 295.591 2.50077 -2.7823 0
M  V30 3114 H 296.924 3.30486 -3.64746 0
M  V30 3115 N 298.576 1.31904 0.862503 0
M  V30 3116 C 299.823 1.22017 1.61611 0
M  V30 3117 C 300.151 -0.21991 1.93253 0
M  V30 3118 O 299.406 -1.17076 1.56817 0
M  V30 3119 C 299.705 2.01713 2.95037 0
M  V30 3120 C 299.371 3.51145 2.82857 0
M  V30 3121 C 298.033 3.91889 2.79243 0
M  V30 3122 C 300.385 4.46204 2.69353 0
M  V30 3123 C 297.713 5.25947 2.59993 0
M  V30 3124 C 300.065 5.80397 2.5164 0
M  V30 3125 C 298.729 6.20352 2.46413 0
M  V30 3126 H 297.999 0.44649 0.591378 0
M  V30 3127 H 300.646 1.63248 1.00111 0
M  V30 3128 H 298.951 1.53185 3.60613 0
M  V30 3129 H 300.648 1.91437 3.52353 0
M  V30 3130 H 297.238 3.1878 2.86491 0
M  V30 3131 H 301.422 4.15652 2.71196 0
M  V30 3132 H 296.678 5.5597 2.54376 0
M  V30 3133 H 300.852 6.53676 2.40169 0
M  V30 3134 H 298.479 7.24172 2.31256 0
M  V30 3135 N 300.054 -1.07777 1.14986 0
M  V30 3136 C 301.303 -1.79669 0.916617 0
M  V30 3137 C 301.616 -1.87474 -0.557917 0
M  V30 3138 O 302.822 -2.55845 -0.908617 0
M  V30 3139 C 301.278 -3.22848 1.59051 0
M  V30 3140 C 300.886 -3.23257 3.10176 0
M  V30 3141 C 302.63 -3.99379 1.43864 0
M  V30 3142 C 300.537 -4.61063 3.70372 0
M  V30 3143 H 299.467 -0.673349 0.33929 0
M  V30 3144 H 302.118 -1.21003 1.37951 0
M  V30 3145 H 300.5 -3.8168 1.0553 0
M  V30 3146 H 301.674 -2.74095 3.70417 0
M  V30 3147 H 299.989 -2.60222 3.25074 0
M  V30 3148 H 302.586 -5.0122 1.86232 0
M  V30 3149 H 302.929 -4.14511 0.385564 0
M  V30 3150 H 303.462 -3.47032 1.94457 0
M  V30 3151 H 300.201 -4.51135 4.7556 0
M  V30 3152 H 299.721 -5.1048 3.14913 0
M  V30 3153 H 301.4 -5.30034 3.71043 0
M  V30 3154 N 301.532 -0.945985 -1.26051 0
M  V30 3155 C 302.48 -0.450259 -2.282 0
M  V30 3156 C 303.474 0.47497 -1.62605 0
M  V30 3157 O 304.68 0.352653 -1.76512 0
M  V30 3158 H 301.055 -0.127081 -0.741184 0
M  V30 3159 H 303.026 -1.32422 -2.67408 0
M  V30 3160 C 301.775 0.26467 -3.46691 0
M  V30 3161 H 301.098 -0.438123 -3.97392 0
M  V30 3162 H 302.538 0.575678 -4.20074 0
M  V30 3163 C 300.997 1.48416 -3.02447 0
M  V30 3164 O 301.527 2.58227 -3.07704 0
M  V30 3165 N 299.733 1.34243 -2.57735 0
M  V30 3166 H 299.28 0.448994 -2.53657 0
M  V30 3167 H 299.238 2.15957 -2.28495 0
M  V30 3168 N 303.011 1.40521 -0.713556 0
M  V30 3169 C 303.959 2.32549 -0.0485227 0
M  V30 3170 C 304.953 1.51931 0.74922 0
M  V30 3171 O 306.159 1.67745 0.652816 0
M  V30 3172 H 302.534 0.751994 0.00311138 0
M  V30 3173 H 304.505 2.86291 -0.841443 0
M  V30 3174 C 303.254 3.36879 0.860687 0
M  V30 3175 H 302.577 3.98978 0.256246 0
M  V30 3176 H 304.017 4.03772 1.294 0
M  V30 3177 C 302.476 2.72197 1.9852 0
M  V30 3178 O 303.006 2.5837 3.07584 0
M  V30 3179 N 301.212 2.30612 1.76823 0
M  V30 3180 H 300.759 2.42059 0.881217 0
M  V30 3181 H 300.717 1.87672 2.52243 0
M  V30 3182 N 304.489 0.459591 1.5075 0
M  V30 3183 C 305.436 -0.340524 2.28274 0
M  V30 3184 C 306.406 -0.997371 1.32822 0
M  V30 3185 O 307.591 -1.01202 1.61749 0
M  V30 3186 C 304.731 -1.42317 3.14388 0
M  V30 3187 C 303.844 -0.782251 4.24859 0
M  V30 3188 C 302.979 -1.84182 4.98247 0
M  V30 3189 C 302.018 -1.18053 6.00608 0
M  V30 3190 N 301.155 -2.18244 6.67319 0
M  V30 3191 H 305.995 0.326899 2.96202 0
M  V30 3192 H 303.532 0.173057 1.46078 0
M  V30 3193 H 305.49 -2.06241 3.62658 0
M  V30 3194 H 304.12 -2.05992 2.4853 0
M  V30 3195 H 303.172 -0.0307404 3.80388 0
M  V30 3196 H 304.484 -0.259663 4.98124 0
M  V30 3197 H 303.638 -2.55714 5.50177 0
M  V30 3198 H 302.377 -2.39819 4.24662 0
M  V30 3199 H 301.382 -0.450776 5.47949 0
M  V30 3200 H 302.607 -0.631202 6.7616 0
M  V30 3201 H 300.553 -2.72919 5.96533 0
M  V30 3202 H 300.47 -1.70938 7.36421 0
M  V30 3203 H 301.738 -2.89191 7.23871 0
M  V30 3204 N 305.967 -1.56429 0.191757 0
M  V30 3205 C 306.897 -2.21937 -0.725696 0
M  V30 3206 C 307.878 -1.1814 -1.2238 0
M  V30 3207 O 309.063 -1.46636 -1.27325 0
M  V30 3208 C 306.193 -2.87611 -1.94672 0
M  V30 3209 C 305.147 -3.97623 -1.58366 0
M  V30 3210 C 304.473 -4.50446 -2.88102 0
M  V30 3211 C 305.773 -5.16197 -0.796133 0
M  V30 3212 H 307.467 -2.98861 -0.179606 0
M  V30 3213 H 305.013 -1.43749 -0.0849464 0
M  V30 3214 H 306.966 -3.3212 -2.59373 0
M  V30 3215 H 305.69 -2.08087 -2.51728 0
M  V30 3216 H 304.349 -3.53801 -0.960247 0
M  V30 3217 H 303.997 -3.67688 -3.43241 0
M  V30 3218 H 303.697 -5.24675 -2.64556 0
M  V30 3219 H 305.221 -4.97654 -3.53798 0
M  V30 3220 H 306.635 -5.57271 -1.34618 0
M  V30 3221 H 305.032 -5.96471 -0.658928 0
M  V30 3222 H 306.102 -4.84473 0.203478 0
M  V30 3223 N 307.445 0.0818655 -1.57387 0
M  V30 3224 C 308.694 0.781681 -1.85937 0
M  V30 3225 C 309.007 1.79246 -0.782957 0
M  V30 3226 O 310.213 2.54112 -0.955987 0
M  V30 3227 C 308.669 1.44109 -3.29789 0
M  V30 3228 C 308.277 0.469396 -4.45534 0
M  V30 3229 C 310.021 2.12386 -3.67549 0
M  V30 3230 C 307.928 1.13415 -5.80423 0
M  V30 3231 H 306.858 0.295682 -0.693605 0
M  V30 3232 H 309.509 0.0348051 -1.83467 0
M  V30 3233 H 307.891 2.23588 -3.2684 0
M  V30 3234 H 309.065 -0.294856 -4.59856 0
M  V30 3235 H 307.38 -0.108383 -4.16259 0
M  V30 3236 H 309.977 2.62878 -4.65617 0
M  V30 3237 H 310.32 2.91877 -2.96839 0
M  V30 3238 H 310.853 1.39751 -3.72444 0
M  V30 3239 H 307.592 0.379771 -6.54399 0
M  V30 3240 H 307.112 1.8695 -5.69921 0
M  V30 3241 H 308.791 1.65686 -6.25426 0
M  V30 3242 N 308.923 1.53595 0.353017 0
M  V30 3243 C 310.148 1.7462 1.11904 0
M  V30 3244 C 310.573 0.479721 1.8188 0
M  V30 3245 O 309.931 -0.567066 1.72204 0
M  V30 3246 C 309.979 2.92029 2.11545 0
M  V30 3247 O 309.083 2.61516 3.18878 0
M  V30 3248 H 308.424 0.579531 0.324099 0
M  V30 3249 H 310.954 2.00525 0.406301 0
M  V30 3250 H 310.964 3.18551 2.5493 0
M  V30 3251 H 309.639 3.83888 1.60008 0
M  V30 3252 H 308.216 2.45852 2.80377 0
M  V30 3253 N 310.401 -0.613514 1.45168 0
M  V30 3254 C 311.678 -1.37263 1.39349 0
M  V30 3255 C 312.058 -2.11012 0.0610848 0
M  V30 3256 O 311.406 -2.07502 -0.956825 0
M  V30 3257 C 311.616 -2.3244 2.60332 0
M  V30 3258 C 312.964 -2.9523 3.05163 0
M  V30 3259 O 313.988 -2.42762 2.60663 0
M  V30 3260 O 312.847 -3.90454 3.82372 0
M  V30 3261 H 309.941 -0.615188 0.552696 0
M  V30 3262 H 312.487 -0.637097 1.57287 0
M  V30 3263 H 311.259 -1.77164 3.48896 0
M  V30 3264 H 310.882 -3.13383 2.44698 0
M  V30 3265 N 311.879 -1.3236 -0.855495 0
M  V30 3266 C 312.842 -1.21164 -1.94556 0
M  V30 3267 C 313.842 -0.134908 -1.60233 0
M  V30 3268 O 315.032 -0.385249 -1.69887 0
M  V30 3269 C 312.164 -0.863192 -3.29791 0
M  V30 3270 H 313.357 -2.18038 -2.05911 0
M  V30 3271 H 310.91 -1.16179 -1.04557 0
M  V30 3272 H 311.645 0.103769 -3.24134 0
M  V30 3273 H 311.43 -1.64166 -3.56078 0
M  V30 3274 H 312.92 -0.809156 -4.09686 0
M  V30 3275 N 313.357 1.07166 -1.15556 0
M  V30 3276 C 314.267 2.17947 -0.868116 0
M  V30 3277 C 315.283 1.73297 0.156297 0
M  V30 3278 O 316.459 2.01392 -0.0182327 0
M  V30 3279 C 313.524 3.44789 -0.36355 0
M  V30 3280 C 312.585 4.03996 -1.45209 0
M  V30 3281 C 311.818 5.24783 -0.971508 0
M  V30 3282 O 312.041 5.70109 0.182194 0
M  V30 3283 O 310.975 5.75715 -1.75603 0
M  V30 3284 H 314.801 2.4503 -1.79427 0
M  V30 3285 H 312.386 1.16539 -0.934824 0
M  V30 3286 H 314.268 4.21307 -0.0887113 0
M  V30 3287 H 312.943 3.19253 0.534708 0
M  V30 3288 H 311.85 3.29009 -1.78056 0
M  V30 3289 H 313.183 4.33808 -2.32533 0
M  V30 3290 N 314.835 0.952656 1.25548 0
M  V30 3291 C 315.765 0.489287 2.28316 0
M  V30 3292 C 316.746 -0.463359 1.63667 0
M  V30 3293 O 317.931 -0.36274 1.90782 0
M  V30 3294 C 315.061 -0.235603 3.465 0
M  V30 3295 C 314.015 0.631593 4.23314 0
M  V30 3296 C 313.341 -0.223923 5.34231 0
M  V30 3297 C 314.641 1.90871 4.86174 0
M  V30 3298 H 316.335 1.34822 2.67326 0
M  V30 3299 H 313.881 0.649728 1.28509 0
M  V30 3300 H 315.834 -0.570882 4.17515 0
M  V30 3301 H 314.558 -1.12877 3.06474 0
M  V30 3302 H 313.217 0.949929 3.54079 0
M  V30 3303 H 312.865 -1.11678 4.90446 0
M  V30 3304 H 312.565 0.35299 5.86539 0
M  V30 3305 H 314.089 -0.554214 6.0808 0
M  V30 3306 H 315.503 1.63997 5.49343 0
M  V30 3307 H 313.9 2.43112 5.4865 0
M  V30 3308 H 314.97 2.61304 4.08471 0
M  V30 3309 N 316.313 -1.40141 0.720998 0
M  V30 3310 C 317.223 -2.34486 0.0731031 0
M  V30 3311 C 318.239 -1.57587 -0.737723 0
M  V30 3312 O 319.415 -1.89949 -0.669429 0
M  V30 3313 C 316.48 -3.36528 -0.833656 0
M  V30 3314 C 315.541 -4.29298 -0.0121673 0
M  V30 3315 C 314.774 -5.26466 -0.875742 0
M  V30 3316 O 314.997 -5.29745 -2.11485 0
M  V30 3317 O 313.931 -6.01092 -0.31185 0
M  V30 3318 H 317.757 -2.9152 0.851444 0
M  V30 3319 H 315.342 -1.41427 0.481527 0
M  V30 3320 H 317.224 -3.99093 -1.35289 0
M  V30 3321 H 315.899 -2.81899 -1.59105 0
M  V30 3322 H 314.806 -3.70001 0.552262 0
M  V30 3323 H 316.139 -4.87094 0.707129 0
M  V30 3324 N 317.792 -0.46758 -1.50504 0
M  V30 3325 C 318.755 0.317059 -2.26996 0
M  V30 3326 C 319.755 0.923513 -1.31635 0
M  V30 3327 O 320.945 0.793239 -1.55091 0
M  V30 3328 C 318.077 1.45134 -3.08462 0
M  V30 3329 H 319.27 -0.353723 -2.97807 0
M  V30 3330 H 316.823 -0.221545 -1.54722 0
M  V30 3331 H 317.558 2.15728 -2.4214 0
M  V30 3332 H 317.343 1.02232 -3.78538 0
M  V30 3333 H 318.833 2.00493 -3.66323 0
M  V30 3334 N 319.27 1.56325 -0.20005 0
M  V30 3335 C 320.519 1.96895 0.437652 0
M  V30 3336 C 320.832 1.08999 1.62415 0
M  V30 3337 O 322.038 1.39372 2.32997 0
M  V30 3338 C 320.494 3.50198 0.830025 0
M  V30 3339 C 320.102 4.46765 -0.332461 0
M  V30 3340 C 321.846 3.99526 1.43453 0
M  V30 3341 C 319.753 5.91344 0.0811468 0
M  V30 3342 H 318.683 0.735209 0.167282 0
M  V30 3343 H 321.334 1.81148 -0.292853 0
M  V30 3344 H 319.716 3.61467 1.61734 0
M  V30 3345 H 320.89 4.47231 -1.11 0
M  V30 3346 H 319.205 4.07657 -0.848789 0
M  V30 3347 H 321.802 5.05025 1.75652 0
M  V30 3348 H 322.145 3.44122 2.34277 0
M  V30 3349 H 322.678 3.91393 0.71109 0
M  V30 3350 H 319.417 6.50685 -0.793033 0
M  V30 3351 H 318.937 5.94121 0.823445 0
M  V30 3352 H 320.616 6.44945 0.515252 0
M  V30 3353 N 320.748 -0.0735177 1.57428 0
M  V30 3354 C 321.995 -0.772999 1.87166 0
M  V30 3355 C 322.323 -1.77665 0.791551 0
M  V30 3356 O 321.578 -1.94541 -0.212636 0
M  V30 3357 C 321.877 -1.51799 3.23561 0
M  V30 3358 C 321.543 -0.654484 4.46125 0
M  V30 3359 C 320.205 -0.416511 4.79394 0
M  V30 3360 C 322.557 -0.0555862 5.2117 0
M  V30 3361 C 319.885 0.429869 5.85123 0
M  V30 3362 C 322.237 0.778239 6.27795 0
M  V30 3363 C 320.901 1.0261 6.59566 0
M  V30 3364 H 320.171 -0.282861 0.684888 0
M  V30 3365 H 322.818 -0.0338272 1.9147 0
M  V30 3366 H 321.123 -2.32932 3.1504 0
M  V30 3367 H 322.82 -2.06397 3.43804 0
M  V30 3368 H 319.41 -0.850091 4.20085 0
M  V30 3369 H 323.594 -0.226558 4.95783 0
M  V30 3370 H 318.85 0.630665 6.08139 0
M  V30 3371 H 323.024 1.24906 6.85107 0
M  V30 3372 H 320.651 1.68371 7.4132 0
M  V30 3373 N 322.226 -1.5378 -0.344866 0
M  V30 3374 C 323.503 -1.61589 -1.10219 0
M  V30 3375 C 323.883 -0.436316 -2.06542 0
M  V30 3376 O 323.231 0.571543 -2.21237 0
M  V30 3377 C 323.441 -2.97602 -1.82301 0
M  V30 3378 C 324.789 -3.5291 -2.36093 0
M  V30 3379 O 325.813 -2.99768 -1.924 0
M  V30 3380 O 324.672 -4.45859 -3.16026 0
M  V30 3381 H 321.766 -0.653522 -0.506792 0
M  V30 3382 H 324.312 -1.66126 -0.346465 0
M  V30 3383 H 323.084 -3.74893 -1.12121 0
M  V30 3384 H 322.707 -2.9665 -2.64735 0
M  V30 3385 N 323.704 0.605807 -1.45491 0
M  V30 3386 C 325.12 0.926751 -1.29936 0
M  V30 3387 C 325.32 1.99896 -0.253706 0
M  V30 3388 O 324.376 2.50038 0.351737 0
M  V30 3389 C 325.689 1.36599 -2.67883 0
M  V30 3390 C 327.237 1.4801 -2.75793 0
M  V30 3391 C 327.712 1.95309 -4.14268 0
M  V30 3392 N 329.203 2.0254 -4.16571 0
M  V30 3393 C 329.938 2.40363 -5.20589 0
M  V30 3394 N 329.434 2.77143 -6.34952 0
M  V30 3395 N 331.227 2.40718 -5.07948 0
M  V30 3396 H 323.378 -0.102862 -2.12151 0
M  V30 3397 H 325.641 0.016639 -0.947854 0
M  V30 3398 H 325.347 0.652306 -3.45598 0
M  V30 3399 H 325.221 2.33215 -2.96463 0
M  V30 3400 H 327.608 2.1847 -1.98381 0
M  V30 3401 H 327.689 0.497041 -2.50925 0
M  V30 3402 H 327.333 1.25436 -4.92167 0
M  V30 3403 H 327.263 2.94532 -4.3653 0
M  V30 3404 H 329.754 1.76699 -3.34045 0
M  V30 3405 H 330.067 3.0489 -7.10114 0
M  V30 3406 H 328.412 2.74834 -6.3835 0
M  V30 3407 H 331.603 2.11392 -4.1765 0
M  V30 3408 H 331.776 2.69869 -5.89131 0
M  V30 3409 N 325.182 1.32811 0.848464 0
M  V30 3410 C 326.41 1.26739 1.63538 0
M  V30 3411 C 326.825 -0.163484 1.88091 0
M  V30 3412 O 326.182 -1.10258 1.45429 0
M  V30 3413 C 326.233 2.03013 2.99112 0
M  V30 3414 O 325.954 3.40518 2.75643 0
M  V30 3415 C 327.455 2.04038 3.93552 0
M  V30 3416 H 324.675 0.437024 0.509167 0
M  V30 3417 H 327.219 1.75033 1.05753 0
M  V30 3418 H 325.374 1.58426 3.53525 0
M  V30 3419 H 325.788 3.79635 3.61908 0
M  V30 3420 H 327.262 2.61877 4.85926 0
M  V30 3421 H 327.739 1.0282 4.26995 0
M  V30 3422 H 328.345 2.486 3.45077 0
M  V30 3423 N 326.66 -1.06551 1.16123 0
M  V30 3424 C 327.906 -1.79567 0.94252 0
M  V30 3425 C 328.239 -1.86869 -0.528547 0
M  V30 3426 O 327.514 -1.35838 -1.39206 0
M  V30 3427 C 327.797 -3.24195 1.56747 0
M  V30 3428 C 327.65 -3.24989 3.10969 0
M  V30 3429 C 328.969 -4.21678 1.25998 0
M  V30 3430 H 326.088 -0.651883 0.343828 0
M  V30 3431 H 328.73 -1.2463 1.43413 0
M  V30 3432 H 326.88 -3.71107 1.14942 0
M  V30 3433 H 328.552 -2.86258 3.61737 0
M  V30 3434 H 326.795 -2.63716 3.44436 0
M  V30 3435 H 327.466 -4.27005 3.49815 0
M  V30 3436 H 329.942 -3.83196 1.62174 0
M  V30 3437 H 328.818 -5.21146 1.7233 0
M  V30 3438 H 329.079 -4.4174 0.178367 0
M  V30 3439 N 328.138 -0.959301 -1.25041 0
M  V30 3440 C 329.086 -0.474437 -2.2771 0
M  V30 3441 C 330.08 0.457697 -1.631 0
M  V30 3442 O 331.286 0.333912 -1.76876 0
M  V30 3443 H 327.661 -0.134936 -0.739795 0
M  V30 3444 H 329.632 -1.35251 -2.65988 0
M  V30 3445 C 328.381 0.227884 -3.46952 0
M  V30 3446 H 327.704 -0.480248 -3.96905 0
M  V30 3447 H 329.144 0.531091 -4.20661 0
M  V30 3448 C 327.603 1.452 -3.04004 0
M  V30 3449 O 328.133 2.54949 -3.10426 0
M  V30 3450 N 326.339 1.31502 -2.59144 0
M  V30 3451 H 325.886 0.422065 -2.54119 0
M  V30 3452 H 325.844 2.13521 -2.30773 0
M  V30 3453 N 329.616 1.39756 -0.72842 0
M  V30 3454 C 330.844 2.04948 -0.283528 0
M  V30 3455 C 331.259 1.54908 1.0793 0
M  V30 3456 O 330.616 0.711135 1.68075 0
M  V30 3457 C 330.667 3.60498 -0.268957 0
M  V30 3458 O 330.388 4.08695 -1.57798 0
M  V30 3459 C 331.889 4.4288 0.192912 0
M  V30 3460 H 329.109 0.659243 -0.125056 0
M  V30 3461 H 331.653 1.78927 -0.990226 0
M  V30 3462 H 329.808 3.85444 0.388801 0
M  V30 3463 H 330.222 5.02977 -1.48709 0
M  V30 3464 H 331.696 5.51791 0.151952 0
M  V30 3465 H 332.173 4.21418 1.23708 0
M  V30 3466 H 332.779 4.23069 -0.435039 0
M  V30 3467 N 331.094 0.475555 1.50254 0
M  V30 3468 C 332.057 -0.305016 2.27161 0
M  V30 3469 C 333.057 -0.916519 1.32123 0
M  V30 3470 O 334.247 -0.785003 1.5551 0
M  V30 3471 C 331.379 -1.43496 3.09227 0
M  V30 3472 H 332.572 0.369511 2.97615 0
M  V30 3473 H 330.125 0.229747 1.54602 0
M  V30 3474 H 330.86 -2.14441 2.43281 0
M  V30 3475 H 330.645 -1.00223 3.79075 0
M  V30 3476 H 332.135 -1.98548 3.67381 0
M  V30 3477 N 332.573 -1.56217 0.208337 0
M  V30 3478 C 333.503 -2.22694 -0.702116 0
M  V30 3479 C 334.484 -1.19432 -1.2112 0
M  V30 3480 O 335.669 -1.47978 -1.25762 0
M  V30 3481 C 332.799 -2.8966 -1.9161 0
M  V30 3482 C 331.753 -3.9928 -1.5414 0
M  V30 3483 C 331.079 -4.53476 -2.83308 0
M  V30 3484 C 332.379 -5.17012 -0.741339 0
M  V30 3485 H 334.073 -2.99034 -0.147898 0
M  V30 3486 H 331.619 -1.43831 -0.0696951 0
M  V30 3487 H 333.572 -3.34852 -2.55836 0
M  V30 3488 H 332.296 -2.10746 -2.49507 0
M  V30 3489 H 330.955 -3.54799 -0.922668 0
M  V30 3490 H 330.603 -3.71308 -3.39322 0
M  V30 3491 H 330.303 -5.27451 -2.58976 0
M  V30 3492 H 331.827 -5.01378 -3.485 0
M  V30 3493 H 333.241 -5.58667 -1.28699 0
M  V30 3494 H 331.638 -5.97137 -0.595627 0
M  V30 3495 H 332.708 -4.8423 0.254851 0
M  V30 3496 N 334.051 0.0651679 -1.57465 0
M  V30 3497 C 334.961 1.09448 -2.07505 0
M  V30 3498 C 335.977 1.41974 -1.00595 0
M  V30 3499 O 337.153 1.52018 -1.32107 0
M  V30 3500 C 334.218 2.38689 -2.51453 0
M  V30 3501 C 333.279 2.13073 -3.72691 0
M  V30 3502 C 332.512 3.36152 -4.14533 0
M  V30 3503 O 332.735 4.45517 -3.56189 0
M  V30 3504 O 331.669 3.23974 -5.07272 0
M  V30 3505 H 335.495 0.69935 -2.95538 0
M  V30 3506 H 333.08 0.279752 -1.46757 0
M  V30 3507 H 334.962 3.14736 -2.80212 0
M  V30 3508 H 333.637 2.77568 -1.66546 0
M  V30 3509 H 332.544 1.34709 -3.49005 0
M  V30 3510 H 333.877 1.79071 -4.5847 0
M  V30 3511 N 335.529 1.53961 0.336706 0
M  V30 3512 C 336.778 1.70751 1.07363 0
M  V30 3513 C 337.091 0.481061 1.89592 0
M  V30 3514 O 338.297 0.530046 2.66276 0
M  V30 3515 C 336.753 3.01965 1.95818 0
M  V30 3516 C 336.361 4.31971 1.18764 0
M  V30 3517 C 338.105 3.28121 2.69327 0
M  V30 3518 C 336.012 5.54255 2.06289 0
M  V30 3519 H 334.942 0.636292 0.404535 0
M  V30 3520 H 337.593 1.80459 0.332681 0
M  V30 3521 H 335.975 2.86132 2.7376 0
M  V30 3522 H 337.149 4.5853 0.456849 0
M  V30 3523 H 335.464 4.12481 0.569946 0
M  V30 3524 H 338.061 4.16673 3.35094 0
M  V30 3525 H 338.404 2.45426 3.36261 0
M  V30 3526 H 338.937 3.44762 1.98454 0
M  V30 3527 H 335.676 6.39513 1.43885 0
M  V30 3528 H 335.196 5.31935 2.77138 0
M  V30 3529 H 336.875 5.90159 2.65182 0
M  V30 3530 N 337.007 -0.598083 1.45811 0
M  V30 3531 C 338.253 -1.35882 1.50545 0
M  V30 3532 C 338.586 -1.93616 0.150445 0
M  V30 3533 O 337.861 -1.75604 -0.83628 0
M  V30 3534 C 338.144 -2.49966 2.59208 0
M  V30 3535 C 337.997 -1.97367 4.04186 0
M  V30 3536 C 339.316 -3.52068 2.64076 0
M  V30 3537 H 336.435 -0.492717 0.548087 0
M  V30 3538 H 339.077 -0.673319 1.77669 0
M  V30 3539 H 337.227 -3.08443 2.3621 0
M  V30 3540 H 338.899 -1.43466 4.38423 0
M  V30 3541 H 337.142 -1.283 4.14393 0
M  V30 3542 H 337.813 -2.79649 4.75921 0
M  V30 3543 H 340.289 -3.03448 2.84708 0
M  V30 3544 H 339.165 -4.2937 3.41954 0
M  V30 3545 H 339.426 -4.08304 1.69531 0
M  V30 3546 N 338.485 -1.33259 -0.841409 0
M  V30 3547 C 339.433 -1.23279 -1.97244 0
M  V30 3548 C 340.427 -0.134706 -1.68864 0
M  V30 3549 O 341.633 -0.298501 -1.77508 0
M  V30 3550 H 338.008 -0.382497 -0.647457 0
M  V30 3551 H 339.979 -2.18906 -2.02787 0
M  V30 3552 C 338.728 -0.986268 -3.33419 0
M  V30 3553 H 338.051 -1.82347 -3.55794 0
M  V30 3554 H 339.491 -0.956728 -4.13065 0
M  V30 3555 C 337.95 0.310842 -3.35463 0
M  V30 3556 O 338.48 1.31838 -3.79449 0
M  V30 3557 N 336.686 0.337485 -2.88634 0
M  V30 3558 H 336.233 -0.482967 -2.53032 0
M  V30 3559 H 336.191 1.20518 -2.90384 0
M  V30 3560 N 339.963 1.05934 -1.16686 0
M  V30 3561 C 340.893 2.1546 -0.899949 0
M  V30 3562 C 341.874 1.69391 0.155154 0
M  V30 3563 O 343.059 1.94199 0.00648693 0
M  V30 3564 C 340.189 3.44939 -0.404241 0
M  V30 3565 C 339.143 4.04536 -1.39767 0
M  V30 3566 C 338.469 5.29268 -0.760216 0
M  V30 3567 C 339.769 4.42893 -2.76845 0
M  V30 3568 H 341.463 2.38046 -1.81588 0
M  V30 3569 H 339.009 1.14404 -0.874514 0
M  V30 3570 H 340.962 4.20901 -0.204971 0
M  V30 3571 H 339.686 3.21983 0.547206 0
M  V30 3572 H 338.345 3.30635 -1.58355 0
M  V30 3573 H 337.993 5.02611 0.197831 0
M  V30 3574 H 337.693 5.70101 -1.42332 0
M  V30 3575 H 339.217 6.07924 -0.57105 0
M  V30 3576 H 340.631 5.09921 -2.62019 0
M  V30 3577 H 339.028 4.94721 -3.39663 0
M  V30 3578 H 340.098 3.53584 -3.31823 0
M  V30 3579 N 341.441 0.965919 1.2453 0
M  V30 3580 C 342.391 0.465731 2.23193 0
M  V30 3581 C 343.375 -0.451277 1.54442 0
M  V30 3582 O 344.567 -0.282489 1.74731 0
M  V30 3583 C 341.696 -0.244511 3.42428 0
M  V30 3584 C 340.782 0.691222 4.18429 0
M  V30 3585 N 341.173 1.82771 4.71623 0
M  V30 3586 C 339.471 0.501649 4.4317 0
M  V30 3587 C 340.172 2.41285 5.29298 0
M  V30 3588 N 339.148 1.69819 5.16394 0
M  V30 3589 H 342.95 1.33291 2.61937 0
M  V30 3590 H 340.464 0.824789 1.39896 0
M  V30 3591 H 342.461 -0.620056 4.12263 0
M  V30 3592 H 341.121 -1.10815 3.05205 0
M  V30 3593 H 342.132 2.20929 4.68413 0
M  V30 3594 H 338.809 -0.318177 4.16286 0
M  V30 3595 H 340.199 3.37181 5.8117 0
M  V30 3596 N 342.919 -1.39368 0.735821 0
M  V30 3597 C 343.882 -2.2896 0.104874 0
M  V30 3598 C 344.882 -1.46347 -0.666274 0
M  V30 3599 O 346.072 -1.67014 -0.49517 0
M  V30 3600 C 343.204 -3.29857 -0.860656 0
M  V30 3601 H 344.397 -2.86259 0.894205 0
M  V30 3602 H 341.95 -1.48029 0.501704 0
M  V30 3603 H 342.685 -2.77615 -1.67631 0
M  V30 3604 H 342.47 -3.9087 -0.310327 0
M  V30 3605 H 343.96 -3.96893 -1.29867 0
M  V30 3606 N 344.397 -0.483516 -1.5 0
M  V30 3607 C 345.622 0.0667119 -2.07293 0
M  V30 3608 C 346.047 1.3164 -1.3436 0
M  V30 3609 O 345.405 1.76945 -0.394987 0
M  V30 3610 C 345.453 0.321126 -3.59167 0
M  V30 3611 O 344.557 1.39927 -3.87936 0
M  V30 3612 H 343.898 -0.0184758 -0.663743 0
M  V30 3613 H 346.428 -0.678125 -1.93035 0
M  V30 3614 H 346.438 0.557906 -4.04168 0
M  V30 3615 H 345.113 -0.592007 -4.11665 0
M  V30 3616 H 343.69 1.14882 -3.54763 0
M  V30 3617 N 345.875 1.56104 -0.216619 0
M  V30 3618 C 347.286 1.844 0.292128 0
M  V30 3619 C 347.637 1.13788 1.59833 0
M  V30 3620 O 346.762 0.405888 2.12559 0
M  V30 3621 C 347.357 3.3452 0.53681 0
M  V30 3622 C 345.916 3.63151 0.989876 0
M  V30 3623 C 345.063 2.77255 0.0502302 0
M  V30 3624 H 348.014 1.52481 -0.439926 0
M  V30 3625 H 348.035 3.54459 1.38345 0
M  V30 3626 H 347.547 3.85885 -0.414031 0
M  V30 3627 H 345.648 3.17238 1.95425 0
M  V30 3628 H 345.761 4.71177 0.867698 0
M  V30 3629 H 344.125 2.48555 0.556117 0
M  V30 3630 H 344.908 3.31416 -0.89544 0
M  V30 3631 N 347.353 -0.0568162 1.57498 0
M  V30 3632 C 348.583 -0.764515 1.91934 0
M  V30 3633 C 348.991 -1.70877 0.81227 0
M  V30 3634 O 348.334 -1.82351 -0.222213 0
M  V30 3635 C 348.396 -1.5994 3.21962 0
M  V30 3636 C 348.06 -0.822925 4.4953 0
M  V30 3637 C 349.057 -0.135464 5.19723 0
M  V30 3638 C 346.742 -0.785666 4.96117 0
M  V30 3639 C 348.736 0.578861 6.34766 0
M  V30 3640 C 346.423 -0.0675784 6.11063 0
M  V30 3641 C 347.421 0.613471 6.80239 0
M  V30 3642 O 347.109 1.31996 7.92989 0
M  V30 3643 H 346.841 -0.221647 0.63863 0
M  V30 3644 H 349.395 -0.0268218 2.05382 0
M  V30 3645 H 347.625 -2.38026 3.04763 0
M  V30 3646 H 349.314 -2.18715 3.41934 0
M  V30 3647 H 350.08 -0.155458 4.84751 0
M  V30 3648 H 345.959 -1.30524 4.42136 0
M  V30 3649 H 349.503 1.111 6.88696 0
M  V30 3650 H 345.4 -0.0455636 6.45484 0
M  V30 3651 H 346.168 1.23077 8.09194 0
M  V30 3652 N 348.832 -1.54138 -0.328536 0
M  V30 3653 C 350.078 -1.7236 -1.06865 0
M  V30 3654 C 350.411 -0.493231 -1.87832 0
M  V30 3655 O 349.686 0.5098 -1.877 0
M  V30 3656 C 349.969 -2.99621 -1.99747 0
M  V30 3657 C 349.822 -4.32899 -1.22143 0
M  V30 3658 C 351.141 -3.22615 -2.99345 0
M  V30 3659 H 348.26 -0.627151 -0.387105 0
M  V30 3660 H 350.902 -1.86827 -0.345767 0
M  V30 3661 H 349.052 -2.87418 -2.61387 0
M  V30 3662 H 350.724 -4.56978 -0.630017 0
M  V30 3663 H 348.967 -4.30628 -0.523628 0
M  V30 3664 H 349.638 -5.18154 -1.90318 0
M  V30 3665 H 352.114 -3.34248 -2.47826 0
M  V30 3666 H 350.99 -4.13027 -3.61524 0
M  V30 3667 H 351.251 -2.3961 -3.71536 0
M  V30 3668 N 350.31 0.590341 -1.46126 0
M  V30 3669 C 351.273 1.68194 -1.55703 0
M  V30 3670 C 352.273 1.54808 -0.434868 0
M  V30 3671 O 353.463 1.59564 -0.698928 0
M  V30 3672 C 350.595 3.07575 -1.47005 0
M  V30 3673 H 351.788 1.61064 -2.52979 0
M  V30 3674 H 349.341 0.807541 -1.33823 0
M  V30 3675 H 350.076 3.20268 -0.509785 0
M  V30 3676 H 349.861 3.187 -2.28414 0
M  V30 3677 H 351.351 3.87055 -1.56776 0
M  V30 3678 N 351.788 1.33704 0.83433 0
M  V30 3679 C 353.199 1.22813 1.4062 0
M  V30 3680 C 353.55 -0.151107 1.95617 0
M  V30 3681 O 352.675 -1.05092 1.89168 0
M  V30 3682 C 353.27 2.22355 2.55624 0
M  V30 3683 C 351.829 2.1529 3.08751 0
M  V30 3684 C 350.976 2.09589 1.8157 0
M  V30 3685 H 353.927 1.45236 0.639702 0
M  V30 3686 H 353.948 1.83391 3.33389 0
M  V30 3687 H 353.46 3.22728 2.15566 0
M  V30 3688 H 351.561 1.18235 3.53343 0
M  V30 3689 H 351.674 3.06038 3.68616 0
M  V30 3690 H 350.038 1.55134 2.02004 0
M  V30 3691 H 350.821 3.11777 1.43701 0
M  V30 3692 N 353.266 -1.05314 1.17247 0
M  V30 3693 C 354.229 -2.112 0.890357 0
M  V30 3694 C 355.229 -1.60359 -0.118943 0
M  V30 3695 O 356.419 -1.73833 0.113086 0
M  V30 3696 C 353.551 -3.39266 0.333422 0
M  V30 3697 H 354.744 -2.37659 1.82916 0
M  V30 3698 H 352.297 -1.21538 0.982758 0
M  V30 3699 H 353.032 -3.18462 -0.612587 0
M  V30 3700 H 352.817 -3.77477 1.06082 0
M  V30 3701 H 354.307 -4.17315 0.154322 0
M  V30 3702 N 354.744 -0.972509 -1.24016 0
M  V30 3703 C 355.707 -0.511403 -2.23422 0
M  V30 3704 C 356.707 0.394679 -1.55881 0
M  V30 3705 O 357.897 0.189469 -1.73167 0
M  V30 3706 C 355.029 0.258769 -3.39916 0
M  V30 3707 H 356.222 -1.39024 -2.6573 0
M  V30 3708 H 353.775 -0.757585 -1.36713 0
M  V30 3709 H 354.51 1.1545 -3.03054 0
M  V30 3710 H 354.295 -0.391522 -3.9014 0
M  V30 3711 H 355.785 0.570244 -4.13688 0
M  V30 3712 N 356.222 1.38976 -0.743202 0
M  V30 3713 C 357.185 2.28901 -0.117014 0
M  V30 3714 C 358.185 1.46698 0.658503 0
M  V30 3715 O 359.375 1.67274 0.486305 0
M  V30 3716 C 356.507 3.30309 0.84315 0
M  V30 3717 H 357.7 2.8578 -0.909373 0
M  V30 3718 H 355.253 1.47761 -0.509547 0
M  V30 3719 H 355.988 2.785 1.66157 0
M  V30 3720 H 355.773 3.91029 0.289594 0
M  V30 3721 H 357.263 3.97577 1.2776 0
M  V30 3722 N 357.7 0.491464 1.49741 0
M  V30 3723 C 358.949 -0.0582189 2.01616 0
M  V30 3724 C 359.262 -1.38927 1.3769 0
M  V30 3725 O 360.468 -2.02509 1.80838 0
M  V30 3726 C 358.924 -0.154235 3.59569 0
M  V30 3727 C 358.532 1.1696 4.32463 0
M  V30 3728 C 360.276 -0.65479 4.1942 0
M  V30 3729 C 358.183 1.03627 5.8225 0
M  V30 3730 H 357.113 -0.0255317 0.753568 0
M  V30 3731 H 359.764 0.629445 1.72367 0
M  V30 3732 H 358.146 -0.906138 3.85493 0
M  V30 3733 H 359.32 1.93405 4.18248 0
M  V30 3734 H 357.635 1.60285 3.84315 0
M  V30 3735 H 360.232 -0.771903 5.29099 0
M  V30 3736 H 360.575 -1.65127 3.8215 0
M  V30 3737 H 361.108 0.040304 3.9778 0
M  V30 3738 H 357.847 2.00672 6.24028 0
M  V30 3739 H 357.367 0.312546 5.98985 0
M  V30 3740 H 359.046 0.711114 6.4308 0
M  V30 3741 N 359.178 -1.55987 0.224894 0
M  V30 3742 C 360.427 -1.97566 -0.406273 0
M  V30 3743 C 360.74 -1.11569 -1.6066 0
M  V30 3744 O 361.946 -1.43062 -2.3075 0
M  V30 3745 C 360.402 -3.51474 -0.774207 0
M  V30 3746 C 360.01 -4.46179 0.403496 0
M  V30 3747 C 361.754 -4.01758 -1.37079 0
M  V30 3748 C 359.661 -5.91399 0.0129412 0
M  V30 3749 H 358.591 -0.737777 -0.155565 0
M  V30 3750 H 361.242 -1.80659 0.321635 0
M  V30 3751 H 359.624 -3.63994 -1.55963 0
M  V30 3752 H 360.798 -4.45409 1.18101 0
M  V30 3753 H 359.113 -4.06255 0.913536 0
M  V30 3754 H 361.71 -5.07756 -1.67596 0
M  V30 3755 H 362.053 -3.47805 -2.28773 0
M  V30 3756 H 362.586 -3.92475 -0.648733 0
M  V30 3757 H 359.325 -6.49341 0.896451 0
M  V30 3758 H 358.845 -5.95356 -0.728821 0
M  V30 3759 H 360.524 -6.45683 -0.412582 0
M  V30 3760 N 360.656 0.0484629 -1.57525 0
M  V30 3761 C 361.566 1.07241 -2.08654 0
M  V30 3762 C 362.582 1.409 -1.02095 0
M  V30 3763 O 363.758 1.50609 -1.33712 0
M  V30 3764 C 360.823 2.36008 -2.5397 0
M  V30 3765 C 359.884 2.09108 -3.7493 0
M  V30 3766 C 359.117 3.31736 -4.18075 0
M  V30 3767 O 359.34 4.41714 -3.60895 0
M  V30 3768 O 358.274 3.18576 -5.10679 0
M  V30 3769 H 362.1 0.667965 -2.96263 0
M  V30 3770 H 359.685 0.26417 -1.47046 0
M  V30 3771 H 361.567 3.11747 -2.83535 0
M  V30 3772 H 360.242 2.75786 -1.69481 0
M  V30 3773 H 359.149 1.31 -3.50414 0
M  V30 3774 H 360.482 1.74198 -4.60343 0
M  V30 3775 N 362.134 1.5431 0.320358 0
M  V30 3776 C 363.067 1.78769 1.41834 0
M  V30 3777 C 364.045 0.63783 1.49568 0
M  V30 3778 O 365.229 0.875628 1.66928 0
M  V30 3779 C 362.356 1.90712 2.79905 0
M  V30 3780 C 361.402 3.13023 2.89687 0
M  V30 3781 S 362.235 4.71554 2.53766 0
M  V30 3782 C 363.391 4.86408 3.93902 0
M  V30 3783 H 363.624 2.71619 1.20874 0
M  V30 3784 H 361.157 1.45474 0.517377 0
M  V30 3785 H 363.115 1.98279 3.59438 0
M  V30 3786 H 361.776 0.988343 2.98145 0
M  V30 3787 H 360.969 3.18124 3.90913 0
M  V30 3788 H 360.571 3.03803 2.18128 0
M  V30 3789 H 362.863 4.69241 4.88691 0
M  V30 3790 H 363.806 5.88508 3.93782 0
M  V30 3791 H 364.214 4.14689 3.83005 0
M  V30 3792 N 363.613 -0.582584 1.46437 0
M  V30 3793 C 364.576 -1.67366 1.56592 0
M  V30 3794 C 365.576 -1.54575 0.443072 0
M  V30 3795 O 366.766 -1.59191 0.707381 0
M  V30 3796 C 363.898 -3.06791 1.48634 0
M  V30 3797 H 365.091 -1.5972 2.5383 0
M  V30 3798 H 362.644 -0.800432 1.34249 0
M  V30 3799 H 363.379 -3.19993 0.526763 0
M  V30 3800 H 363.164 -3.17484 2.30101 0
M  V30 3801 H 364.654 -3.86218 1.58826 0
M  V30 3802 N 365.091 -1.34144 -0.827227 0
M  V30 3803 C 366.001 -1.27428 -1.96975 0
M  V30 3804 C 367.017 -0.182728 -1.73038 0
M  V30 3805 O 368.193 -0.408426 -1.97215 0
M  V30 3806 C 365.258 -1.02526 -3.31194 0
M  V30 3807 C 364.319 -2.20796 -3.68168 0
M  V30 3808 C 363.552 -1.97073 -4.95982 0
M  V30 3809 O 363.775 -0.926822 -5.6282 0
M  V30 3810 O 362.709 -2.83912 -5.30733 0
M  V30 3811 H 366.535 -2.23537 -2.05584 0
M  V30 3812 H 364.12 -1.14307 -0.961989 0
M  V30 3813 H 366.002 -0.904026 -4.11589 0
M  V30 3814 H 364.677 -0.0945389 -3.23562 0
M  V30 3815 H 363.584 -2.38477 -2.88235 0
M  V30 3816 H 364.917 -3.12243 -3.8048 0
M  V30 3817 N 366.569 1.04691 -1.17803 0
M  V30 3818 C 367.794 1.81984 -0.994813 0
M  V30 3819 C 368.219 1.82586 0.452112 0
M  V30 3820 O 367.577 1.23854 1.324 0
M  V30 3821 C 367.625 3.2575 -1.54659 0
M  V30 3822 O 366.729 4.05267 -0.763728 0
M  V30 3823 H 366.07 0.562483 -0.352857 0
M  V30 3824 H 368.6 1.3189 -1.56417 0
M  V30 3825 H 368.61 3.76541 -1.57102 0
M  V30 3826 H 367.285 3.24627 -2.59981 0
M  V30 3827 H 365.862 3.63972 -0.811108 0
M  V30 3828 N 368.047 0.979072 1.23499 0
M  V30 3829 C 369.277 0.664237 1.95631 0
M  V30 3830 C 369.685 -0.772653 1.72704 0
M  V30 3831 O 369.028 -1.53141 1.01457 0
M  V30 3832 C 369.09 0.873115 3.48736 0
M  V30 3833 C 368.754 2.29182 3.95379 0
M  V30 3834 C 369.751 3.2704 4.04155 0
M  V30 3835 C 367.436 2.62256 4.28401 0
M  V30 3836 C 369.43 4.56052 4.45304 0
M  V30 3837 C 367.117 3.91491 4.69231 0
M  V30 3838 C 368.115 4.88201 4.77649 0
M  V30 3839 O 367.803 6.15129 5.17563 0
M  V30 3840 H 367.535 0.245915 0.629684 0
M  V30 3841 H 370.089 1.3127 1.57979 0
M  V30 3842 H 368.319 0.167476 3.86337 0
M  V30 3843 H 370.008 0.555642 4.02079 0
M  V30 3844 H 370.774 3.02819 3.78848 0
M  V30 3845 H 366.653 1.87692 4.21061 0
M  V30 3846 H 370.197 5.31538 4.51789 0
M  V30 3847 H 366.094 4.15508 4.93987 0
M  V30 3848 H 366.862 6.18862 5.35679 0
M  V30 3849 N 369.525 -1.3858 0.750561 0
M  V30 3850 C 370.455 -2.33102 0.136237 0
M  V30 3851 C 371.436 -1.54713 -0.706965 0
M  V30 3852 O 372.621 -1.83043 -0.648769 0
M  V30 3853 C 369.751 -3.38882 -0.760017 0
M  V30 3854 C 368.705 -4.27995 -0.0197785 0
M  V30 3855 C 368.031 -5.24605 -1.03408 0
M  V30 3856 C 369.331 -5.09554 1.14684 0
M  V30 3857 H 371.025 -2.84726 0.925822 0
M  V30 3858 H 368.571 -1.36898 0.446654 0
M  V30 3859 H 370.524 -4.0397 -1.19943 0
M  V30 3860 H 369.248 -2.85734 -1.58189 0
M  V30 3861 H 367.907 -3.64409 0.400184 0
M  V30 3862 H 367.555 -4.67746 -1.84994 0
M  V30 3863 H 367.255 -5.85081 -0.543464 0
M  V30 3864 H 368.779 -5.9257 -1.47288 0
M  V30 3865 H 370.193 -5.67899 0.785118 0
M  V30 3866 H 368.59 -5.7925 1.56812 0
M  V30 3867 H 369.66 -4.4347 1.96118 0
M  V30 3868 N 371.003 -0.499398 -1.49478 0
M  V30 3869 C 371.95 0.279881 -2.29097 0
M  V30 3870 C 372.92 0.961805 -1.3542 0
M  V30 3871 O 374.105 0.968777 -1.64376 0
M  V30 3872 C 371.245 1.33932 -3.18051 0
M  V30 3873 C 370.358 0.669333 -4.26783 0
M  V30 3874 C 369.493 1.70907 -5.02955 0
M  V30 3875 C 368.532 1.02087 -6.03527 0
M  V30 3876 N 367.669 2.00474 -6.7287 0
M  V30 3877 H 372.509 -0.405317 -2.95231 0
M  V30 3878 H 370.046 -0.211726 -1.45568 0
M  V30 3879 H 372.004 1.96553 -3.67998 0
M  V30 3880 H 370.634 1.9933 -2.53904 0
M  V30 3881 H 369.686 -0.0701234 -3.80335 0
M  V30 3882 H 370.998 0.127503 -4.98637 0
M  V30 3883 H 370.152 2.41037 -5.56764 0
M  V30 3884 H 368.891 2.28476 -4.30871 0
M  V30 3885 H 367.896 0.305338 -5.48951 0
M  V30 3886 H 369.121 0.451708 -6.77596 0
M  V30 3887 H 367.067 2.57007 -6.03559 0
M  V30 3888 H 366.984 1.51353 -7.40694 0
M  V30 3889 H 368.252 2.69897 -7.31284 0
M  V30 3890 N 372.481 1.55866 -0.233164 0
M  V30 3891 C 373.758 1.90471 0.444988 0
M  V30 3892 C 374.138 1.15209 1.7689 0
M  V30 3893 O 373.486 0.265119 2.26957 0
M  V30 3894 C 373.696 3.4333 0.626559 0
M  V30 3895 C 375.044 4.14319 0.92871 0
M  V30 3896 O 376.068 3.48993 0.712926 0
M  V30 3897 O 374.927 5.29846 1.33887 0
M  V30 3898 H 372.021 0.792347 0.236885 0
M  V30 3899 H 374.567 1.67437 -0.276211 0
M  V30 3900 H 373.339 3.90095 -0.306822 0
M  V30 3901 H 372.962 3.72181 1.39881 0
M  V30 3902 N 373.959 -0.0401083 1.57549 0
M  V30 3903 C 374.889 -1.04384 2.08869 0
M  V30 3904 C 375.87 -1.38407 0.988817 0
M  V30 3905 O 377.055 -1.47483 1.26342 0
M  V30 3906 C 374.185 -2.34808 2.55895 0
M  V30 3907 C 373.139 -2.15057 3.70047 0
M  V30 3908 C 372.465 -3.51145 4.03239 0
M  V30 3909 C 373.765 -1.54576 4.98902 0
M  V30 3910 H 375.459 -0.616666 2.92981 0
M  V30 3911 H 373.005 -0.295184 1.40942 0
M  V30 3912 H 374.958 -3.05346 2.90417 0
M  V30 3913 H 373.682 -2.79565 1.68853 0
M  V30 3914 H 372.341 -1.46954 3.35857 0
M  V30 3915 H 371.989 -3.93529 3.13279 0
M  V30 3916 H 371.689 -3.38758 4.80122 0
M  V30 3917 H 373.213 -4.23062 4.40285 0
M  V30 3918 H 374.627 -2.15017 5.31451 0
M  V30 3919 H 373.024 -1.52796 5.80322 0
M  V30 3920 H 374.094 -0.51039 4.82206 0
M  V30 3921 N 375.437 -1.54477 -0.31217 0
M  V30 3922 C 376.384 -1.84655 -1.38461 0
M  V30 3923 C 377.354 -0.694536 -1.50882 0
M  V30 3924 O 378.539 -0.942081 -1.6592 0
M  V30 3925 C 375.679 -2.0896 -2.74645 0
M  V30 3926 C 374.792 -3.36618 -2.70763 0
M  V30 3927 C 373.927 -3.50824 -3.98868 0
M  V30 3928 C 372.966 -4.72315 -3.89339 0
M  V30 3929 N 372.103 -4.83387 -5.09197 0
M  V30 3930 H 376.943 -2.76142 -1.12026 0
M  V30 3931 H 374.48 -1.36748 -0.542065 0
M  V30 3932 H 376.438 -2.21045 -3.53829 0
M  V30 3933 H 375.068 -1.20752 -2.99364 0
M  V30 3934 H 374.12 -3.33211 -1.83506 0
M  V30 3935 H 375.432 -4.25917 -2.59608 0
M  V30 3936 H 374.586 -3.62513 -4.86486 0
M  V30 3937 H 373.325 -2.59638 -4.12843 0
M  V30 3938 H 372.33 -4.6067 -3.00105 0
M  V30 3939 H 373.555 -5.64897 -3.76919 0
M  V30 3940 H 371.501 -3.9512 -5.23657 0
M  V30 3941 H 371.418 -5.66669 -5.00422 0
M  V30 3942 H 372.686 -4.9942 -5.98498 0
M  V30 3943 N 376.915 0.57481 -1.46744 0
M  V30 3944 C 377.862 1.68329 -1.57905 0
M  V30 3945 C 378.832 1.60625 -0.422927 0
M  V30 3946 O 380.017 1.79721 -0.640711 0
M  V30 3947 C 377.157 3.06665 -1.58274 0
M  V30 3948 C 376.27 3.24935 -2.84678 0
M  V30 3949 C 375.405 4.53566 -2.76499 0
M  V30 3950 C 374.444 4.65207 -3.97806 0
M  V30 3951 N 373.581 5.85172 -3.87967 0
M  V30 3952 H 378.421 1.58127 -2.52587 0
M  V30 3953 H 375.958 0.770552 -1.25303 0
M  V30 3954 H 377.916 3.86745 -1.56473 0
M  V30 3955 H 376.546 3.15745 -0.671194 0
M  V30 3956 H 375.598 2.38405 -2.96424 0
M  V30 3957 H 376.91 3.29403 -3.7456 0
M  V30 3958 H 376.064 5.41885 -2.72848 0
M  V30 3959 H 374.803 4.51548 -1.8427 0
M  V30 3960 H 373.808 3.75304 -4.0178 0
M  V30 3961 H 375.033 4.68997 -4.9114 0
M  V30 3962 H 372.979 5.84137 -2.98529 0
M  V30 3963 H 372.896 5.90943 -4.71511 0
M  V30 3964 H 374.164 6.759 -3.88303 0
M  V30 3965 N 378.394 1.34581 0.820102 0
M  V30 3966 C 379.64 1.27285 1.57881 0
M  V30 3967 C 379.973 -0.156137 1.93571 0
M  V30 3968 O 379.248 -1.10222 1.60254 0
M  V30 3969 C 379.531 2.16639 2.87645 0
M  V30 3970 C 379.384 3.68088 2.58517 0
M  V30 3971 C 380.703 2.05378 3.8924 0
M  V30 3972 H 377.822 0.463714 0.572833 0
M  V30 3973 H 380.464 1.64859 0.944539 0
M  V30 3974 H 378.614 1.84725 3.41773 0
M  V30 3975 H 380.286 4.10382 2.10676 0
M  V30 3976 H 378.529 3.89038 1.91917 0
M  V30 3977 H 379.2 4.2598 3.51063 0
M  V30 3978 H 381.676 2.33404 3.44473 0
M  V30 3979 H 380.552 2.7012 4.77835 0
M  V30 3980 H 380.813 1.0316 4.29896 0
M  V30 3981 N 379.872 -1.04064 1.18357 0
M  V30 3982 C 380.802 -2.14001 0.934113 0
M  V30 3983 C 381.783 -1.69616 -0.128186 0
M  V30 3984 O 382.968 -1.94185 0.0244093 0
M  V30 3985 C 380.098 -3.44253 0.459066 0
M  V30 3986 C 379.052 -4.02261 1.46185 0
M  V30 3987 C 378.378 -5.27992 0.844322 0
M  V30 3988 C 379.678 -4.38432 2.83856 0
M  V30 3989 H 381.372 -2.35127 1.85352 0
M  V30 3990 H 378.918 -1.12998 0.892604 0
M  V30 3991 H 380.871 -4.20522 0.271907 0
M  V30 3992 H 379.595 -3.22813 -0.495912 0
M  V30 3993 H 378.254 -3.28074 1.63595 0
M  V30 3994 H 377.902 -5.02862 -0.117845 0
M  V30 3995 H 377.602 -5.67765 1.51384 0
M  V30 3996 H 379.126 -6.06938 0.667693 0
M  V30 3997 H 380.54 -5.05688 2.70098 0
M  V30 3998 H 378.937 -4.89254 3.47491 0
M  V30 3999 H 380.007 -3.4826 3.37406 0
M  V30 4000 N 381.35 -0.985608 -1.22978 0
M  V30 4001 C 382.599 -0.652881 -1.90841 0
M  V30 4002 C 382.912 0.817842 -1.77681 0
M  V30 4003 O 384.118 1.26185 -2.40395 0
M  V30 4004 C 382.574 -1.11717 -3.42122 0
M  V30 4005 C 382.182 -2.6126 -3.63933 0
M  V30 4006 C 383.926 -0.85843 -4.1573 0
M  V30 4007 C 381.833 -3.0133 -5.08876 0
M  V30 4008 H 380.763 -0.240491 -0.714619 0
M  V30 4009 H 383.414 -1.1942 -1.39324 0
M  V30 4010 H 381.796 -0.504027 -3.92779 0
M  V30 4011 H 382.97 -3.27858 -3.23799 0
M  V30 4012 H 381.285 -2.84937 -3.03644 0
M  V30 4013 H 383.882 -1.13359 -5.22546 0
M  V30 4014 H 384.225 0.205461 -4.15793 0
M  V30 4015 H 384.758 -1.43341 -3.71077 0
M  V30 4016 H 381.497 -4.06864 -5.13947 0
M  V30 4017 H 381.017 -2.3943 -5.49939 0
M  V30 4018 H 382.696 -2.92224 -5.77247 0
M  V30 4019 N 382.828 1.3818 -0.7579 0
M  V30 4020 C 384.068 2.01864 -0.320968 0
M  V30 4021 C 384.432 1.58863 1.07827 0
M  V30 4022 O 385.633 2.14908 1.61456 0
M  V30 4023 C 383.904 3.54626 -0.44446 0
M  V30 4024 S 385.463 4.38706 -0.0907467 0
M  V30 4025 H 382.281 0.700056 -0.124268 0
M  V30 4026 H 384.883 1.68611 -0.989468 0
M  V30 4027 H 383.587 3.83411 -1.4637 0
M  V30 4028 H 383.118 3.92661 0.241073 0
M  V30 4029 H 385.133 4.83435 1.11826 0
M  V30 4030 N 384.306 0.507319 1.49211 0
M  V30 4031 C 385.531 -0.033725 2.07373 0
M  V30 4032 C 385.956 -1.29485 1.36437 0
M  V30 4033 O 385.314 -1.76294 0.423087 0
M  V30 4034 C 385.362 -0.263945 3.59633 0
M  V30 4035 O 384.466 -1.33737 3.90113 0
M  V30 4036 H 383.807 0.0290331 0.663365 0
M  V30 4037 H 386.337 0.708749 1.91932 0
M  V30 4038 H 386.347 -0.493536 4.05004 0
M  V30 4039 H 385.022 0.657424 4.10671 0
M  V30 4040 H 383.599 -1.09224 3.56545 0
M  V30 4041 N 385.784 -1.5574 0.241426 0
M  V30 4042 C 387.012 -2.03208 -0.389134 0
M  V30 4043 C 387.427 -1.12082 -1.51931 0
M  V30 4044 O 386.784 -0.134183 -1.82006 0
M  V30 4045 C 386.835 -3.50064 -0.902087 0
M  V30 4046 O 386.556 -4.37717 0.18305 0
M  V30 4047 C 388.057 -4.13268 -1.60389 0
M  V30 4048 H 385.277 -0.664509 -0.0931053 0
M  V30 4049 H 387.821 -2.0124 0.36369 0
M  V30 4050 H 385.976 -3.52583 -1.60511 0
M  V30 4051 H 386.39 -5.24097 -0.205579 0
M  V30 4052 H 387.864 -5.17733 -1.91458 0
M  V30 4053 H 388.341 -3.59434 -2.52397 0
M  V30 4054 H 388.947 -4.14655 -0.945576 0
M  V30 4055 N 387.262 0.0317525 -1.57568 0
M  V30 4056 C 388.192 1.03274 -2.0942 0
M  V30 4057 C 389.173 1.3788 -0.996143 0
M  V30 4058 O 390.358 1.46811 -1.27122 0
M  V30 4059 C 387.488 2.33448 -2.57137 0
M  V30 4060 C 386.442 2.13091 -3.71182 0
M  V30 4061 C 385.768 3.49001 -4.05095 0
M  V30 4062 C 387.068 1.51928 -4.99715 0
M  V30 4063 H 388.762 0.60112 -2.93303 0
M  V30 4064 H 386.308 0.287705 -1.41097 0
M  V30 4065 H 388.261 3.03802 -2.92032 0
M  V30 4066 H 386.985 2.78665 -1.70333 0
M  V30 4067 H 385.644 1.45171 -3.36632 0
M  V30 4068 H 385.292 3.91862 -3.15362 0
M  V30 4069 H 384.992 3.36207 -4.81911 0
M  V30 4070 H 386.516 4.20721 -4.42522 0
M  V30 4071 H 387.93 2.12196 -5.32584 0
M  V30 4072 H 386.327 1.49716 -5.81124 0
M  V30 4073 H 387.397 0.484811 -4.8247 0
M  V30 4074 N 388.74 1.54641 0.303973 0
M  V30 4075 C 389.67 1.88386 1.3796 0
M  V30 4076 C 390.651 0.742485 1.5304 0
M  V30 4077 O 391.836 0.997959 1.66597 0
M  V30 4078 C 388.966 2.12854 2.74427 0
M  V30 4079 C 387.92 3.28702 2.74115 0
M  V30 4080 C 387.246 3.38582 4.13844 0
M  V30 4081 C 388.546 4.65881 2.3612 0
M  V30 4082 H 390.24 2.78474 1.09966 0
M  V30 4083 H 387.786 1.33988 0.527556 0
M  V30 4084 H 389.739 2.35047 3.49758 0
M  V30 4085 H 388.463 1.19535 3.03939 0
M  V30 4086 H 387.122 3.06428 2.0124 0
M  V30 4087 H 386.77 2.42784 4.40528 0
M  V30 4088 H 386.47 4.16453 4.14537 0
M  V30 4089 H 387.994 3.63031 4.90959 0
M  V30 4090 H 389.408 4.87823 3.01167 0
M  V30 4091 H 387.805 5.46444 2.48031 0
M  V30 4092 H 388.875 4.66799 1.3125 0
M  V30 4093 N 390.218 -0.567019 1.47046 0
M  V30 4094 C 391.128 -1.70247 1.6141 0
M  V30 4095 C 392.144 -1.66746 0.497157 0
M  V30 4096 O 393.32 -1.86371 0.763389 0
M  V30 4097 C 390.385 -3.06756 1.61561 0
M  V30 4098 C 389.446 -3.21399 2.84607 0
M  V30 4099 C 388.679 -4.51396 2.84741 0
M  V30 4100 O 388.902 -5.36255 1.94388 0
M  V30 4101 O 387.836 -4.69621 3.76483 0
M  V30 4102 H 391.662 -1.61073 2.57467 0
M  V30 4103 H 389.247 -0.735894 1.30019 0
M  V30 4104 H 391.129 -3.8801 1.64396 0
M  V30 4105 H 389.804 -3.16333 0.686684 0
M  V30 4106 H 388.711 -2.39579 2.8732 0
M  V30 4107 H 390.044 -3.16721 3.76761 0
M  V30 4108 N 391.696 -1.35014 -0.812953 0
M  V30 4109 C 392.944 -1.27678 -1.56661 0
M  V30 4110 C 393.265 0.150359 -1.94419 0
M  V30 4111 O 392.535 1.08532 -1.63088 0
M  V30 4112 H 391.115 -0.469602 -0.580933 0
M  V30 4113 H 393.777 -1.69043 -0.970076 0
M  V30 4114 H 392.873 -1.88833 -2.48492 0
M  V30 4115 N 393.175 1.03435 -1.18907 0
M  V30 4116 C 394.107 2.1165 -0.879595 0
M  V30 4117 C 395.12 1.62316 0.125439 0
M  V30 4118 O 396.309 1.78201 -0.103245 0
M  V30 4119 C 393.409 3.37622 -0.294042 0
M  V30 4120 C 392.582 4.16166 -1.34629 0
M  V30 4121 C 391.641 5.20457 -0.775274 0
M  V30 4122 O 390.667 5.50379 -1.4516 0
M  V30 4123 N 391.869 5.78949 0.424126 0
M  V30 4124 H 394.634 2.38791 -1.81105 0
M  V30 4125 H 392.195 1.19681 -1.09032 0
M  V30 4126 H 394.187 4.04572 0.101679 0
M  V30 4127 H 392.757 3.07873 0.541575 0
M  V30 4128 H 391.977 3.44444 -1.91707 0
M  V30 4129 H 393.265 4.65432 -2.05549 0
M  V30 4130 H 392.663 5.56948 0.991209 0
M  V30 4131 H 391.22 6.47334 0.761691 0
M  V30 4132 N 394.653 0.992116 1.22453 0
M  V30 4133 C 395.883 0.684949 1.94915 0
M  V30 4134 C 396.291 -0.754292 1.73514 0
M  V30 4135 O 395.634 -1.52056 1.03076 0
M  V30 4136 C 395.696 0.910054 3.47791 0
M  V30 4137 C 395.36 2.33363 3.92926 0
M  V30 4138 C 396.357 3.31308 4.00663 0
M  V30 4139 C 394.042 2.66785 4.25595 0
M  V30 4140 C 396.036 4.6075 4.40441 0
M  V30 4141 C 393.723 3.96446 4.65053 0
M  V30 4142 C 394.721 4.9324 4.72444 0
M  V30 4143 O 394.409 6.20584 5.1101 0
M  V30 4144 H 394.141 0.25258 0.62704 0
M  V30 4145 H 396.695 1.32939 1.56577 0
M  V30 4146 H 394.925 0.208443 3.86138 0
M  V30 4147 H 396.614 0.598257 4.01467 0
M  V30 4148 H 397.38 3.0682 3.75615 0
M  V30 4149 H 393.259 1.92148 4.19047 0
M  V30 4150 H 396.803 5.363 4.46126 0
M  V30 4151 H 392.7 4.20724 4.89552 0
M  V30 4152 H 393.468 6.24509 5.29085 0
M  V30 4153 N 396.131 -1.37776 0.765217 0
M  V30 4154 C 397.379 -1.99454 0.325943 0
M  V30 4155 C 397.7 -1.61049 -1.09947 0
M  V30 4156 O 396.97 -0.872821 -1.75381 0
M  V30 4157 H 395.55 -0.737697 0.117525 0
M  V30 4158 H 398.212 -1.68359 0.981895 0
M  V30 4159 H 397.308 -3.09547 0.398353 0
M  V30 4160 N 397.609 -0.515225 -1.4894 0
M  V30 4161 C 398.559 0.275113 -2.26334 0
M  V30 4162 C 399.543 0.923007 -1.31793 0
M  V30 4163 O 400.735 0.828254 -1.56426 0
M  V30 4164 C 397.864 1.33041 -3.16473 0
M  V30 4165 C 396.95 0.688051 -4.18481 0
M  V30 4166 N 397.341 -0.217638 -5.05332 0
M  V30 4167 C 395.639 0.94699 -4.3583 0
M  V30 4168 C 396.34 -0.58676 -5.78733 0
M  V30 4169 N 395.316 0.0486966 -5.43578 0
M  V30 4170 H 399.118 -0.421876 -2.90856 0
M  V30 4171 H 396.632 -0.332249 -1.58965 0
M  V30 4172 H 398.629 1.9102 -3.70563 0
M  V30 4173 H 397.289 2.02894 -2.53504 0
M  V30 4174 H 398.3 -0.589343 -5.14536 0
M  V30 4175 H 394.977 1.63719 -3.8406 0
M  V30 4176 H 396.367 -1.32855 -6.58634 0
M  V30 4177 N 399.087 1.5561 -0.249682 0
M  V30 4178 C 400.312 2.03865 0.381305 0
M  V30 4179 C 400.737 1.12769 1.50548 0
M  V30 4180 O 400.095 0.121189 1.80895 0
M  V30 4181 C 400.143 3.50101 0.863816 0
M  V30 4182 O 399.247 3.62132 1.97318 0
M  V30 4183 H 398.588 0.658827 0.0827194 0
M  V30 4184 H 401.118 2.01105 -0.376552 0
M  V30 4185 H 401.128 3.90975 1.1663 0
M  V30 4186 H 399.803 4.1588 0.0411816 0
M  V30 4187 H 398.38 3.33155 1.67517 0
M  V30 4188 N 400.565 -0.0233959 1.57583 0
M  V30 4189 C 401.842 -0.748794 1.807 0
M  V30 4190 C 402.222 -1.9327 0.849106 0
M  V30 4191 O 401.57 -2.28247 -0.107468 0
M  V30 4192 C 401.78 -1.17651 3.28571 0
M  V30 4193 C 403.128 -1.59008 3.93702 0
M  V30 4194 O 404.152 -1.27094 3.32755 0
M  V30 4195 O 403.011 -2.18264 5.01022 0
M  V30 4196 H 400.105 -0.362578 0.743281 0
M  V30 4197 H 402.651 0.000261958 1.697 0
M  V30 4198 H 401.423 -0.331603 3.89892 0
M  V30 4199 H 401.046 -1.98541 3.44481 0
M  V30 4200 N 402.043 -1.548 -0.295768 0
M  V30 4201 C 403.292 -1.73538 -1.02798 0
M  V30 4202 C 403.605 -0.531159 -1.8825 0
M  V30 4203 O 404.811 -0.600458 -2.64777 0
M  V30 4204 C 403.267 -3.07051 -1.87744 0
M  V30 4205 C 402.875 -4.34968 -1.07269 0
M  V30 4206 C 404.619 -3.35146 -2.60533 0
M  V30 4207 C 402.526 -5.5953 -1.91521 0
M  V30 4208 H 401.456 -0.646794 -0.387522 0
M  V30 4209 H 404.107 -1.81278 -0.284718 0
M  V30 4210 H 402.489 -2.93289 -2.66078 0
M  V30 4211 H 403.663 -4.5958 -0.335117 0
M  V30 4212 H 401.978 -4.13847 -0.460384 0
M  V30 4213 H 404.575 -4.2541 -3.23929 0
M  V30 4214 H 404.918 -2.54255 -3.29636 0
M  V30 4215 H 405.451 -3.49902 -1.89244 0
M  V30 4216 H 402.19 -6.43103 -1.26878 0
M  V30 4217 H 401.71 -5.39096 -2.62937 0
M  V30 4218 H 403.389 -5.96982 -2.49442 0
M  V30 4219 N 403.521 0.559213 -1.47345 0
M  V30 4220 C 404.768 1.31648 -1.53867 0
M  V30 4221 C 405.096 1.93468 -0.200104 0
M  V30 4222 O 404.351 1.78295 0.806799 0
M  V30 4223 C 404.65 2.44853 -2.6035 0
M  V30 4224 C 404.316 2.00876 -4.03683 0
M  V30 4225 C 402.978 1.88599 -4.42701 0
M  V30 4226 C 405.33 1.67279 -4.93626 0
M  V30 4227 C 402.658 1.41017 -5.69501 0
M  V30 4228 C 405.01 1.21169 -6.20887 0
M  V30 4229 C 403.674 1.07487 -6.58789 0
M  V30 4230 H 402.944 0.481734 -0.56304 0
M  V30 4231 H 405.591 0.627301 -1.80934 0
M  V30 4232 H 403.896 3.19318 -2.27032 0
M  V30 4233 H 405.593 3.03039 -2.62619 0
M  V30 4234 H 402.183 2.11374 -3.72853 0
M  V30 4235 H 406.367 1.75638 -4.64182 0
M  V30 4236 H 401.623 1.29086 -5.97618 0
M  V30 4237 H 405.797 0.942345 -6.89995 0
M  V30 4238 H 403.424 0.703946 -7.56934 0
M  V30 4239 N 404.999 1.35443 0.805782 0
M  V30 4240 C 406.247 1.28507 1.55982 0
M  V30 4241 C 406.568 -0.140046 1.94496 0
M  V30 4242 O 405.838 -1.07666 1.63661 0
M  V30 4243 H 404.418 0.472676 0.578434 0
M  V30 4244 H 407.08 1.69555 0.961098 0
M  V30 4245 H 406.176 1.90148 2.47488 0
M  V30 4246 N 406.477 -1.02803 1.19454 0
M  V30 4247 C 407.725 -1.75869 0.995722 0
M  V30 4248 C 408.046 -1.89138 -0.474543 0
M  V30 4249 O 407.316 -1.42558 -1.34366 0
M  V30 4250 H 405.896 -0.651511 0.365435 0
M  V30 4251 H 408.558 -1.24004 1.50363 0
M  V30 4252 H 407.654 -2.76661 1.44447 0
M  V30 4253 N 407.956 -0.998596 -1.21925 0
M  V30 4254 C 409.184 -0.696286 -1.94832 0
M  V30 4255 C 409.599 0.740032 -1.73692 0
M  V30 4256 O 408.956 1.5 -1.03953 0
M  V30 4257 C 409.007 -0.999833 -3.47398 0
M  V30 4258 O 408.728 -2.37972 -3.67833 0
M  V30 4259 C 410.229 -0.716025 -4.37479 0
M  V30 4260 H 407.449 -0.257111 -0.619786 0
M  V30 4261 H 409.993 -1.33491 -1.54921 0
M  V30 4262 H 408.148 -0.406918 -3.85257 0
M  V30 4263 H 408.562 -2.48338 -4.61983 0
M  V30 4264 H 410.036 -0.978642 -5.43256 0
M  V30 4265 H 410.513 0.349968 -4.37803 0
M  V30 4266 H 411.119 -1.29025 -4.05256 0
M  V30 4267 N 409.434 1.37368 -0.772513 0
M  V30 4268 C 410.845 1.8231 -0.402493 0
M  V30 4269 C 411.196 1.6436 1.07146 0
M  V30 4270 O 410.321 1.15514 1.82991 0
M  V30 4271 C 410.916 3.30979 -0.723776 0
M  V30 4272 C 409.475 3.74195 -0.406802 0
M  V30 4273 C 408.622 2.59885 -0.967218 0
M  V30 4274 H 411.573 1.25829 -0.967099 0
M  V30 4275 H 411.594 3.80499 -0.00870832 0
M  V30 4276 H 411.106 3.44011 -1.7966 0
M  V30 4277 H 409.207 3.66732 0.658673 0
M  V30 4278 H 409.32 4.7027 -0.915588 0
M  V30 4279 H 407.684 2.51674 -0.391416 0
M  V30 4280 H 408.467 2.7571 -2.04546 0
M  V30 4281 N 410.912 0.523116 1.48665 0
M  V30 4282 C 412.158 -0.0134963 2.02796 0
M  V30 4283 C 412.491 -1.34582 1.40004 0
M  V30 4284 O 411.766 -1.86756 0.543381 0
M  V30 4285 C 412.049 -0.14276 3.59817 0
M  V30 4286 C 411.902 1.21425 4.331 0
M  V30 4287 C 413.221 -0.872856 4.31357 0
M  V30 4288 H 410.34 -0.00343074 0.736992 0
M  V30 4289 H 412.982 0.678816 1.7746 0
M  V30 4290 H 411.132 -0.732401 3.81534 0
M  V30 4291 H 412.804 1.84447 4.2282 0
M  V30 4292 H 411.047 1.79791 3.94788 0
M  V30 4293 H 411.718 1.07687 5.41394 0
M  V30 4294 H 414.194 -0.372555 4.14429 0
M  V30 4295 H 413.07 -0.932185 5.40927 0
M  V30 4296 H 413.331 -1.92161 3.98154 0
M  V30 4297 N 412.39 -1.55475 0.257931 0
M  V30 4298 C 413.636 -1.99502 -0.364266 0
M  V30 4299 C 413.969 -1.146 -1.56782 0
M  V30 4300 O 413.244 -0.211968 -1.93342 0
M  V30 4301 C 413.527 -3.51917 -0.763333 0
M  V30 4302 C 413.38 -4.4758 0.446371 0
M  V30 4303 C 414.699 -4.09742 -1.60623 0
M  V30 4304 H 411.818 -0.725277 -0.130929 0
M  V30 4305 H 414.46 -1.8653 0.361446 0
M  V30 4306 H 412.61 -3.63101 -1.38166 0
M  V30 4307 H 414.282 -4.48362 1.08487 0
M  V30 4308 H 412.525 -4.19947 1.08753 0
M  V30 4309 H 413.196 -5.51862 0.123645 0
M  V30 4310 H 415.672 -4.01727 -1.08418 0
M  V30 4311 H 414.548 -5.16631 -1.85429 0
M  V30 4312 H 414.809 -3.58889 -2.58169 0
M  V30 4313 N 413.868 0.0150385 -1.57593 0
M  V30 4314 C 414.798 1.01047 -2.10503 0
M  V30 4315 C 415.779 1.36816 -1.01071 0
M  V30 4316 O 416.964 1.45455 -1.28672 0
M  V30 4317 C 414.094 2.30708 -2.59598 0
M  V30 4318 C 413.048 2.09142 -3.73421 0
M  V30 4319 C 412.374 3.44685 -4.08774 0
M  V30 4320 C 413.674 1.46619 -5.01298 0
M  V30 4321 H 415.368 0.569978 -2.93925 0
M  V30 4322 H 412.914 0.272724 -1.41394 0
M  V30 4323 H 414.867 3.00687 -2.95238 0
M  V30 4324 H 413.591 2.76843 -1.73279 0
M  V30 4325 H 412.25 1.41592 -3.38153 0
M  V30 4326 H 411.898 3.88495 -3.195 0
M  V30 4327 H 411.598 3.31077 -4.8545 0
M  V30 4328 H 413.122 4.16004 -4.4696 0
M  V30 4329 H 414.536 2.06535 -5.34805 0
M  V30 4330 H 412.933 1.43544 -5.82679 0
M  V30 4331 H 414.003 0.433611 -4.82957 0
M  V30 4332 N 415.346 1.54954 0.287554 0
M  V30 4333 C 416.594 1.74528 1.01904 0
M  V30 4334 C 416.915 0.541349 1.87335 0
M  V30 4335 O 416.185 -0.444108 1.908 0
M  V30 4336 H 414.765 0.643576 0.379235 0
M  V30 4337 H 417.427 1.92333 0.315294 0
M  V30 4338 H 416.523 2.64015 1.6644 0
M  V30 4339 N 416.824 -0.551391 1.4764 0
M  V30 4340 C 417.787 -1.64007 1.60107 0
M  V30 4341 C 418.787 -1.53601 0.47576 0
M  V30 4342 O 419.977 -1.57655 0.740988 0
M  V30 4343 C 417.109 -3.03569 1.55108 0
M  V30 4344 H 418.302 -1.543 2.57161 0
M  V30 4345 H 415.855 -0.771776 1.35917 0
M  V30 4346 H 416.59 -3.18804 0.594519 0
M  V30 4347 H 416.375 -3.12532 2.36783 0
M  V30 4348 H 417.865 -3.82762 1.66982 0
M  V30 4349 N 418.302 -1.35869 -0.798587 0
M  V30 4350 C 419.25 -1.29491 -1.93222 0
M  V30 4351 C 420.244 -0.18836 -1.6835 0
M  V30 4352 O 421.45 -0.354822 -1.76468 0
M  V30 4353 H 417.825 -0.402901 -0.63496 0
M  V30 4354 H 419.796 -2.25247 -1.9572 0
M  V30 4355 C 418.545 -1.09184 -3.30112 0
M  V30 4356 H 417.868 -1.93574 -3.49813 0
M  V30 4357 H 419.308 -1.08766 -4.09812 0
M  V30 4358 C 417.767 0.203959 -3.36282 0
M  V30 4359 O 418.297 1.19699 -3.83451 0
M  V30 4360 N 416.503 0.245488 -2.89561 0
M  V30 4361 H 416.05 -0.563223 -2.51367 0
M  V30 4362 H 416.008 1.11219 -2.94071 0
M  V30 4363 N 419.78 1.02168 -1.19998 0
M  V30 4364 C 421.028 1.75338 -1.00504 0
M  V30 4365 C 421.349 1.89387 0.464506 0
M  V30 4366 O 420.619 1.43268 1.33608 0
M  V30 4367 H 419.199 0.649564 -0.368885 0
M  V30 4368 H 421.861 1.23205 -1.51018 0
M  V30 4369 H 420.957 2.75892 -1.45912 0
M  V30 4370 N 421.258 1.00505 1.21394 0
M  V30 4371 C 422.504 0.688793 1.90745 0
M  V30 4372 C 422.837 -0.778486 1.77914 0
M  V30 4373 O 422.112 -1.56433 1.15581 0
M  V30 4374 C 422.395 1.11063 3.42545 0
M  V30 4375 C 422.248 2.63737 3.64367 0
M  V30 4376 C 423.567 0.673059 4.34923 0
M  V30 4377 H 420.686 0.251702 0.692687 0
M  V30 4378 H 423.328 1.25074 1.43026 0
M  V30 4379 H 421.478 0.632508 3.83317 0
M  V30 4380 H 423.15 3.19313 3.32922 0
M  V30 4381 H 421.393 3.05248 3.08231 0
M  V30 4382 H 422.064 2.88305 4.70727 0
M  V30 4383 H 424.54 1.08392 4.01734 0
M  V30 4384 H 423.416 0.996383 5.39781 0
M  V30 4385 H 423.677 -0.425808 4.40045 0
M  V30 4386 N 422.737 -1.36956 0.779787 0
M  V30 4387 C 423.647 -2.33965 0.172491 0
M  V30 4388 C 424.663 -1.60574 -0.670222 0
M  V30 4389 O 425.839 -1.92617 -0.588263 0
M  V30 4390 C 422.904 -3.39761 -0.690173 0
M  V30 4391 C 421.965 -4.28964 0.169924 0
M  V30 4392 C 421.198 -5.29707 -0.651662 0
M  V30 4393 O 421.421 -5.38238 -1.88827 0
M  V30 4394 O 420.355 -6.01873 -0.0566264 0
M  V30 4395 H 424.181 -2.87647 0.974321 0
M  V30 4396 H 421.766 -1.39258 0.541078 0
M  V30 4397 H 423.648 -4.04471 -1.1824 0
M  V30 4398 H 422.323 -2.88394 -1.47006 0
M  V30 4399 H 421.23 -3.67326 0.708696 0
M  V30 4400 H 422.563 -4.83656 0.913085 0
M  V30 4401 N 424.215 -0.530993 -1.48385 0
M  V30 4402 C 425.147 0.268353 -2.27624 0
M  V30 4403 C 426.16 0.903525 -1.35426 0
M  V30 4404 O 427.349 0.781796 -1.60469 0
M  V30 4405 C 424.449 1.39535 -3.08842 0
M  V30 4406 C 423.622 0.861913 -4.28824 0
M  V30 4407 C 422.681 1.87016 -4.91845 0
M  V30 4408 O 421.707 1.4267 -5.5103 0
M  V30 4409 N 422.909 3.20238 -4.84178 0
M  V30 4410 H 425.674 -0.41123 -2.96865 0
M  V30 4411 H 423.235 -0.365387 -1.57723 0
M  V30 4412 H 425.227 2.06803 -3.47871 0
M  V30 4413 H 423.797 1.97859 -2.42014 0
M  V30 4414 H 423.017 0.0132126 -3.94198 0
M  V30 4415 H 424.305 0.484415 -5.06489 0
M  V30 4416 H 423.703 3.58932 -4.37246 0
M  V30 4417 H 422.26 3.83136 -5.27305 0
M  V30 4418 N 425.693 1.55336 -0.266172 0
M  V30 4419 C 426.939 1.99692 0.353681 0
M  V30 4420 C 427.272 1.1543 1.56172 0
M  V30 4421 O 426.547 0.222218 1.93226 0
M  V30 4422 C 426.83 3.52316 0.74466 0
M  V30 4423 C 426.683 4.47337 -0.470101 0
M  V30 4424 C 428.002 4.10588 1.58447 0
M  V30 4425 H 425.121 0.725961 0.12708 0
M  V30 4426 H 427.763 1.86336 -0.371333 0
M  V30 4427 H 425.913 3.63829 1.36239 0
M  V30 4428 H 427.585 4.4778 -1.10864 0
M  V30 4429 H 425.828 4.19364 -1.10978 0
M  V30 4430 H 426.499 5.51788 -0.15291 0
M  V30 4431 H 428.975 4.02297 1.06286 0
M  V30 4432 H 427.851 5.17607 1.82686 0
M  V30 4433 H 428.112 3.60253 2.56262 0
M  V30 4434 N 427.171 -0.0066808 1.57599 0
M  V30 4435 C 428.42 -0.692078 1.89455 0
M  V30 4436 C 428.733 -1.75306 0.867586 0
M  V30 4437 O 429.939 -2.49262 1.07614 0
M  V30 4438 C 428.395 -1.2821 3.36289 0
M  V30 4439 C 428.003 -0.256291 4.47266 0
M  V30 4440 C 429.747 -1.94608 3.77264 0
M  V30 4441 C 427.654 -0.855927 5.85173 0
M  V30 4442 H 426.584 -0.262252 0.706923 0
M  V30 4443 H 429.235 0.052769 1.83424 0
M  V30 4444 H 427.617 -2.0774 3.37135 0
M  V30 4445 H 428.791 0.513923 4.57925 0
M  V30 4446 H 427.106 0.306862 4.15268 0
M  V30 4447 H 429.703 -2.40364 4.77629 0
M  V30 4448 H 430.046 -2.77382 3.10427 0
M  V30 4449 H 430.579 -1.21822 3.78688 0
M  V30 4450 H 427.318 -0.0671161 6.55466 0
M  V30 4451 H 426.838 -1.59546 5.78191 0
M  V30 4452 H 428.517 -1.35658 6.32618 0
M  V30 4453 N 428.649 -1.55105 -0.279332 0
M  V30 4454 C 429.559 -1.90638 -1.36727 0
M  V30 4455 C 430.575 -0.802899 -1.54368 0
M  V30 4456 O 431.751 -1.10138 -1.68616 0
M  V30 4457 C 428.816 -2.16547 -2.70755 0
M  V30 4458 C 427.877 -3.40146 -2.61915 0
M  V30 4459 C 427.11 -3.6481 -3.8955 0
M  V30 4460 O 427.333 -2.92095 -4.89935 0
M  V30 4461 O 426.267 -4.58343 -3.90135 0
M  V30 4462 H 430.093 -2.83237 -1.09591 0
M  V30 4463 H 427.678 -1.4157 -0.477306 0
M  V30 4464 H 429.56 -2.34665 -3.50014 0
M  V30 4465 H 428.235 -1.27131 -2.9769 0
M  V30 4466 H 427.142 -3.2737 -1.81052 0
M  V30 4467 H 428.475 -4.29761 -2.3993 0
M  V30 4468 N 430.127 0.543554 -1.4793 0
M  V30 4469 C 431.057 1.65888 -1.64327 0
M  V30 4470 C 432.038 1.62818 -0.492383 0
M  V30 4471 O 433.223 1.80226 -0.723338 0
M  V30 4472 C 430.353 3.04506 -1.67013 0
M  V30 4473 C 429.307 3.2243 -2.81466 0
M  V30 4474 C 428.633 4.61972 -2.69233 0
M  V30 4475 C 429.933 3.06496 -4.22915 0
M  V30 4476 H 431.627 1.52421 -2.57698 0
M  V30 4477 H 429.173 0.731849 -1.24016 0
M  V30 4478 H 431.126 3.82391 -1.77074 0
M  V30 4479 H 429.85 3.18964 -0.70212 0
M  V30 4480 H 428.509 2.46957 -2.70938 0
M  V30 4481 H 428.157 4.73247 -1.7043 0
M  V30 4482 H 427.857 4.74911 -3.46025 0
M  V30 4483 H 429.381 5.41974 -2.81242 0
M  V30 4484 H 430.795 3.74186 -4.34348 0
M  V30 4485 H 429.192 3.30938 -5.006 0
M  V30 4486 H 430.262 2.03077 -4.40327 0
M  V30 4487 N 431.605 1.3629 0.791371 0
M  V30 4488 C 432.537 1.26321 1.91248 0
M  V30 4489 C 433.55 0.18313 1.61767 0
M  V30 4490 O 434.739 0.437682 1.73051 0
M  V30 4491 C 431.839 0.925901 3.26007 0
M  V30 4492 C 431.012 2.10746 3.83281 0
M  V30 4493 C 430.071 1.74352 4.96475 0
M  V30 4494 O 429.097 2.46416 5.13096 0
M  V30 4495 N 430.299 0.676058 5.7655 0
M  V30 4496 H 433.064 2.22915 2.00323 0
M  V30 4497 H 430.625 1.29659 0.969546 0
M  V30 4498 H 432.617 0.663636 3.99222 0
M  V30 4499 H 431.187 0.0491581 3.12561 0
M  V30 4500 H 430.407 2.53264 3.02077 0
M  V30 4501 H 431.695 2.8969 4.18279 0
M  V30 4502 H 431.093 0.0776467 5.65647 0
M  V30 4503 H 429.65 0.473612 6.50077 0
M  V30 4504 N 433.083 -1.0153 1.20538 0
M  V30 4505 C 434.013 -2.11972 0.979295 0
M  V30 4506 C 434.994 -1.6985 -0.0921787 0
M  V30 4507 O 436.179 -1.94089 0.0655932 0
M  V30 4508 C 433.309 -3.43201 0.531984 0
M  V30 4509 C 432.263 -3.9907 1.54685 0
M  V30 4510 C 431.589 -5.26082 0.956127 0
M  V30 4511 C 432.889 -4.32313 2.93092 0
M  V30 4512 H 434.583 -2.31143 1.90298 0
M  V30 4513 H 432.129 -1.11079 0.916372 0
M  V30 4514 H 434.082 -4.1985 0.361044 0
M  V30 4515 H 432.806 -3.23792 -0.427327 0
M  V30 4516 H 431.465 -3.2453 1.70517 0
M  V30 4517 H 431.113 -5.02999 -0.0111538 0
M  V30 4518 H 430.813 -5.64426 1.63393 0
M  V30 4519 H 432.337 -6.05386 0.796284 0
M  V30 4520 H 433.751 -4.99845 2.80763 0
M  V30 4521 H 432.148 -4.81774 3.57791 0
M  V30 4522 H 433.218 -3.41025 3.44717 0
M  V30 4523 N 434.561 -1.01147 -1.20859 0
M  V30 4524 C 435.509 -0.57059 -2.25493 0
M  V30 4525 C 436.503 0.388109 -1.64894 0
M  V30 4526 O 437.709 0.258592 -1.78133 0
M  V30 4527 H 434.084 -0.166191 -0.733406 0
M  V30 4528 H 436.055 -1.46411 -2.60012 0
M  V30 4529 C 434.804 0.0805241 -3.47607 0
M  V30 4530 H 434.127 -0.648156 -3.94511 0
M  V30 4531 H 435.567 0.352197 -4.22535 0
M  V30 4532 C 434.026 1.32175 -3.09889 0
M  V30 4533 O 434.556 2.41553 -3.20959 0
M  V30 4534 N 432.762 1.20392 -2.64488 0
M  V30 4535 H 432.309 0.313905 -2.5568 0
M  V30 4536 H 432.267 2.03541 -2.39621 0
M  V30 4537 N 436.039 1.36541 -0.78704 0
M  V30 4538 C 437.264 2.0409 -0.369053 0
M  V30 4539 C 437.689 1.58957 1.00569 0
M  V30 4540 O 437.047 0.756926 1.64743 0
M  V30 4541 C 437.095 3.57924 -0.438466 0
M  V30 4542 O 436.199 4.08642 0.555479 0
M  V30 4543 H 435.54 0.645142 -0.157122 0
M  V30 4544 H 438.07 1.74545 -1.06749 0
M  V30 4545 H 438.08 4.06887 -0.301218 0
M  V30 4546 H 436.755 3.90127 -1.44132 0
M  V30 4547 H 435.332 3.70958 0.380088 0
M  V30 4548 N 437.518 0.538854 1.48102 0
M  V30 4549 C 438.428 -0.222648 2.33541 0
M  V30 4550 C 439.444 -0.930225 1.47047 0
M  V30 4551 O 440.62 -0.903211 1.80011 0
M  V30 4552 C 437.685 -1.25064 3.23357 0
M  V30 4553 C 436.746 -0.552469 4.2573 0
M  V30 4554 C 435.979 -1.53149 5.11254 0
M  V30 4555 O 436.202 -2.76487 4.9891 0
M  V30 4556 O 435.136 -1.06602 5.92385 0
M  V30 4557 H 438.962 0.477707 2.99919 0
M  V30 4558 H 436.547 0.299669 1.46364 0
M  V30 4559 H 438.429 -1.8445 3.78888 0
M  V30 4560 H 437.104 -1.93325 2.59629 0
M  V30 4561 H 436.011 0.082114 3.7401 0
M  V30 4562 H 437.344 0.0883526 4.92121 0
M  V30 4563 N 438.996 -1.55193 0.274407 0
M  V30 4564 C 439.906 -2.26164 -0.623473 0
M  V30 4565 C 440.922 -1.28729 -1.17068 0
M  V30 4566 O 442.098 -1.61663 -1.20112 0
M  V30 4567 C 439.163 -2.96833 -1.7914 0
M  V30 4568 C 438.224 -4.09745 -1.28093 0
M  V30 4569 C 437.457 -4.77034 -2.3932 0
M  V30 4570 O 437.68 -4.4353 -3.5866 0
M  V30 4571 O 436.614 -5.64996 -2.07516 0
M  V30 4572 H 440.44 -3.03661 -0.0485661 0
M  V30 4573 H 438.025 -1.49341 0.0418382 0
M  V30 4574 H 439.907 -3.41248 -2.4724 0
M  V30 4575 H 438.582 -2.22253 -2.35341 0
M  V30 4576 H 437.489 -3.69787 -0.566416 0
M  V30 4577 H 438.822 -4.86224 -0.764683 0
M  V30 4578 N 440.474 -0.00167713 -1.576 0
M  V30 4579 C 441.421 0.989195 -2.08527 0
M  V30 4580 C 442.391 1.34031 -0.981065 0
M  V30 4581 O 443.576 1.43839 -1.2536 0
M  V30 4582 C 440.716 2.27537 -2.59463 0
M  V30 4583 C 439.829 1.98314 -3.83791 0
M  V30 4584 C 438.964 3.21025 -4.23222 0
M  V30 4585 C 438.003 2.87495 -5.40382 0
M  V30 4586 N 437.14 4.02749 -5.75098 0
M  V30 4587 H 441.98 0.547973 -2.92919 0
M  V30 4588 H 439.517 0.258917 -1.44803 0
M  V30 4589 H 441.475 3.02729 -2.87073 0
M  V30 4590 H 440.105 2.69325 -1.77943 0
M  V30 4591 H 439.157 1.13482 -3.63078 0
M  V30 4592 H 440.469 1.69601 -4.69081 0
M  V30 4593 H 439.623 4.04561 -4.52123 0
M  V30 4594 H 438.362 3.52877 -3.36644 0
M  V30 4595 H 437.367 2.02367 -5.11202 0
M  V30 4596 H 438.592 2.56889 -6.28637 0
M  V30 4597 H 436.538 4.34494 -4.91478 0
M  V30 4598 H 436.455 3.77566 -6.54966 0
M  V30 4599 H 437.723 4.87068 -6.08592 0
M  V30 4600 N 441.952 1.55251 0.271103 0
M  V30 4601 C 442.915 1.87484 1.31842 0
M  V30 4602 C 443.915 0.749545 1.42262 0
M  V30 4603 O 445.105 1.01771 1.4138 0
M  V30 4604 C 442.237 2.0818 2.69951 0
M  V30 4605 H 443.43 2.81108 1.0449 0
M  V30 4606 H 440.983 1.47771 0.509258 0
M  V30 4607 H 441.718 1.16944 3.02481 0
M  V30 4608 H 441.503 2.90114 2.63774 0
M  V30 4609 H 442.993 2.34385 3.4562 0
M  V30 4610 N 443.43 -0.535701 1.48216 0
M  V30 4611 C 444.377 -1.64083 1.62312 0
M  V30 4612 C 445.347 -1.59448 0.465365 0
M  V30 4613 O 446.532 -1.77959 0.688135 0
M  V30 4614 C 443.672 -3.0236 1.66349 0
M  V30 4615 C 442.785 -3.17273 2.93193 0
M  V30 4616 C 441.92 -4.46075 2.88427 0
M  V30 4617 C 440.959 -4.54496 4.1 0
M  V30 4618 N 440.096 -5.7468 4.03345 0
M  V30 4619 H 444.936 -1.51374 2.5669 0
M  V30 4620 H 442.473 -0.737059 1.27302 0
M  V30 4621 H 444.431 -3.82461 1.66672 0
M  V30 4622 H 443.061 -3.13854 0.754672 0
M  V30 4623 H 442.113 -2.30462 3.02641 0
M  V30 4624 H 443.425 -3.19357 3.83162 0
M  V30 4625 H 442.579 -5.3446 2.87119 0
M  V30 4626 H 441.318 -4.46504 1.96177 0
M  V30 4627 H 440.323 -3.64519 4.11589 0
M  V30 4628 H 441.548 -4.5581 5.03402 0
M  V30 4629 H 439.494 -5.76017 3.13912 0
M  V30 4630 H 439.411 -5.78234 4.87013 0
M  V30 4631 H 440.679 -6.65367 4.06087 0
M  V30 4632 N 444.908 -1.36708 -0.784132 0
M  V30 4633 C 446.155 -1.31231 -1.54222 0
M  V30 4634 C 446.483 0.106864 -1.94206 0
M  V30 4635 O 445.738 1.07734 -1.63376 0
M  V30 4636 C 446.037 -2.18571 -2.82774 0
M  V30 4637 C 445.703 -3.67039 -2.61903 0
M  V30 4638 C 444.365 -4.07503 -2.55919 0
M  V30 4639 C 446.717 -4.61149 -2.4288 0
M  V30 4640 C 444.045 -5.40211 -2.28886 0
M  V30 4641 C 446.397 -5.94081 -2.17373 0
M  V30 4642 C 445.061 -6.33664 -2.09825 0
M  V30 4643 H 444.331 -0.48021 -0.56434 0
M  V30 4644 H 446.978 -1.68807 -0.904233 0
M  V30 4645 H 445.283 -1.73949 -3.51068 0
M  V30 4646 H 446.98 -2.11655 -3.40592 0
M  V30 4647 H 443.57 -3.34941 -2.67418 0
M  V30 4648 H 447.754 -4.30756 -2.46501 0
M  V30 4649 H 443.01 -5.69855 -2.21529 0
M  V30 4650 H 447.184 -6.66566 -2.01649 0
M  V30 4651 H 444.811 -7.36423 -1.88641 0
M  V30 4652 N 446.386 1.0089 -1.21074 0
M  V30 4653 C 447.663 1.71834 -0.934469 0
M  V30 4654 C 448.043 2.0368 0.554753 0
M  V30 4655 O 447.391 1.70742 1.51854 0
M  V30 4656 C 447.601 2.98061 -1.8155 0
M  V30 4657 C 448.949 3.7117 -2.06199 0
M  V30 4658 O 449.973 3.08034 -1.78867 0
M  V30 4659 O 448.832 4.84721 -2.52404 0
M  V30 4660 H 445.926 0.749253 -0.35007 0
M  V30 4661 H 448.472 1.06668 -1.31985 0
M  V30 4662 H 447.244 2.70908 -2.82355 0
M  V30 4663 H 446.867 3.70968 -1.43068 0
M  V30 4664 N 447.864 1.01787 1.20321 0
M  V30 4665 C 448.774 0.598898 2.26827 0
M  V30 4666 C 449.79 -0.36418 1.70146 0
M  V30 4667 O 450.966 -0.224812 2.00141 0
M  V30 4668 C 448.031 -0.0549769 3.46656 0
M  V30 4669 C 447.092 0.954205 4.18561 0
M  V30 4670 C 446.325 0.331439 5.3267 0
M  V30 4671 O 446.548 -0.86851 5.63749 0
M  V30 4672 O 445.482 1.0488 5.92692 0
M  V30 4673 H 449.308 1.48562 2.64883 0
M  V30 4674 H 446.893 0.787434 1.26964 0
M  V30 4675 H 448.775 -0.420102 4.19301 0
M  V30 4676 H 447.45 -0.915876 3.10473 0
M  V30 4677 H 446.357 1.37072 3.48083 0
M  V30 4678 H 447.69 1.78511 4.58688 0
M  V30 4679 N 449.342 -1.36122 0.79427 0
M  V30 4680 C 450.305 -2.28309 0.201889 0
M  V30 4681 C 451.305 -1.49041 -0.603603 0
M  V30 4682 O 452.495 -1.68964 -0.423888 0
M  V30 4683 C 449.627 -3.3321 -0.719978 0
M  V30 4684 H 450.82 -2.82208 1.01481 0
M  V30 4685 H 448.373 -1.45768 0.564037 0
M  V30 4686 H 449.108 -2.84475 -1.55706 0
M  V30 4687 H 448.893 -3.91835 -0.144266 0
M  V30 4688 H 450.383 -4.02044 -1.12916 0
M  V30 4689 N 450.82 -0.546701 -1.47814 0
M  V30 4690 C 452.069 -0.0166497 -2.01693 0
M  V30 4691 C 452.382 1.33721 -1.42752 0
M  V30 4692 O 453.588 1.95658 -1.8823 0
M  V30 4693 C 452.044 0.0206769 -3.59894 0
M  V30 4694 C 451.652 -1.3293 -4.27824 0
M  V30 4695 C 453.396 0.498674 -4.21561 0
M  V30 4696 C 451.303 -1.25165 -5.78003 0
M  V30 4697 H 450.233 -0.0024541 -0.753996 0
M  V30 4698 H 452.884 -0.692984 -1.69912 0
M  V30 4699 H 451.266 0.76244 -3.88591 0
M  V30 4700 H 452.44 -2.08795 -4.10781 0
M  V30 4701 H 450.755 -1.74438 -3.78101 0
M  V30 4702 H 453.352 0.575 -5.31599 0
M  V30 4703 H 453.695 1.5083 -3.88016 0
M  V30 4704 H 454.228 -0.18791 -3.97356 0
M  V30 4705 H 450.967 -2.23695 -6.1615 0
M  V30 4706 H 450.487 -0.53464 -5.97412 0
M  V30 4707 H 452.166 -0.949299 -6.39998 0
M  V30 4708 N 452.299 1.55045 -0.282633 0
M  V30 4709 C 453.262 2.21515 0.588539 0
M  V30 4710 C 454.262 1.19535 1.07554 0
M  V30 4711 O 455.452 1.44391 0.974514 0
M  V30 4712 C 452.584 2.88704 1.8128 0
M  V30 4713 H 453.777 2.99899 0.00806397 0
M  V30 4714 H 451.33 1.56265 -0.0333067 0
M  V30 4715 H 452.065 2.14352 2.43359 0
M  V30 4716 H 451.85 3.63443 1.47144 0
M  V30 4717 H 453.34 3.39465 2.43214 0
M  V30 4718 N 453.777 0.010035 1.57597 0
M  V30 4719 C 454.687 -0.994226 2.12491 0
M  V30 4720 C 455.703 -1.37013 1.07254 0
M  V30 4721 O 456.879 -1.45542 1.3921 0
M  V30 4722 C 453.944 -2.2642 2.62555 0
M  V30 4723 C 453.005 -1.95049 3.82432 0
M  V30 4724 C 452.238 -3.15991 4.30099 0
M  V30 4725 O 452.461 -4.28015 3.7704 0
M  V30 4726 O 451.395 -2.99403 5.22151 0
M  V30 4727 H 455.221 -0.557549 2.98538 0
M  V30 4728 H 452.806 -0.209413 1.47925 0
M  V30 4729 H 454.688 -3.01009 2.9491 0
M  V30 4730 H 453.363 -2.69306 1.796 0
M  V30 4731 H 452.27 -1.17904 3.55034 0
M  V30 4732 H 453.603 -1.56992 4.66491 0
M  V30 4733 N 455.255 -1.55392 -0.262866 0
M  V30 4734 C 456.483 -1.80513 -1.01108 0
M  V30 4735 C 456.898 -0.583533 -1.79556 0
M  V30 4736 O 456.255 0.447585 -1.76926 0
M  V30 4737 C 456.306 -3.03648 -1.96164 0
M  V30 4738 O 456.027 -4.2109 -1.20893 0
M  V30 4739 C 457.528 -3.41448 -2.82715 0
M  V30 4740 H 454.748 -0.601079 -0.298236 0
M  V30 4741 H 457.292 -2.02425 -0.290582 0
M  V30 4742 H 455.447 -2.83832 -2.63663 0
M  V30 4743 H 455.861 -4.90771 -1.85051 0
M  V30 4744 H 457.335 -4.30751 -3.45192 0
M  V30 4745 H 457.812 -2.61308 -3.53008 0
M  V30 4746 H 458.418 -3.63559 -2.20693 0
M  V30 4747 N 456.733 0.527833 -1.48498 0
M  V30 4748 C 457.68 1.6322 -1.6318 0
M  V30 4749 C 458.65 1.59199 -0.473815 0
M  V30 4750 O 459.835 1.77591 -0.697563 0
M  V30 4751 C 456.975 3.01474 -1.67951 0
M  V30 4752 C 456.088 3.15713 -2.94871 0
M  V30 4753 C 455.223 4.44539 -2.90789 0
M  V30 4754 C 454.262 4.52315 -4.12404 0
M  V30 4755 N 453.399 5.72533 -4.06387 0
M  V30 4756 H 458.239 1.50011 -2.57489 0
M  V30 4757 H 455.776 0.730298 -1.27691 0
M  V30 4758 H 457.734 3.81572 -1.68698 0
M  V30 4759 H 456.364 3.1345 -0.771306 0
M  V30 4760 H 455.416 2.28854 -3.03859 0
M  V30 4761 H 456.728 3.1732 -3.8485 0
M  V30 4762 H 455.882 5.3293 -2.89949 0
M  V30 4763 H 454.621 4.45457 -1.98542 0
M  V30 4764 H 453.626 3.62331 -4.13517 0
M  V30 4765 H 454.851 4.53134 -5.05812 0
M  V30 4766 H 452.797 5.74344 -3.16962 0
M  V30 4767 H 452.714 5.75643 -4.90073 0
M  V30 4768 H 453.982 6.63204 -4.0961 0
M  V30 4769 N 458.211 1.37122 0.776871 0
M  V30 4770 C 459.627 1.1781 1.07671 0
M  V30 4771 C 459.827 0.0107454 2.01497 0
M  V30 4772 O 458.883 -0.650756 2.4397 0
M  V30 4773 C 460.196 2.49451 1.67913 0
M  V30 4774 C 461.744 2.55927 1.80195 0
M  V30 4775 C 462.219 3.87686 2.43851 0
M  V30 4776 N 463.71 3.891 2.51307 0
M  V30 4777 C 464.445 4.87797 3.014 0
M  V30 4778 N 463.941 5.96888 3.51705 0
M  V30 4779 N 465.734 4.75205 3.00227 0
M  V30 4780 H 457.885 2.11843 0.153778 0
M  V30 4781 H 460.148 0.938927 0.130844 0
M  V30 4782 H 459.854 3.35207 1.06439 0
M  V30 4783 H 459.728 2.66169 2.67271 0
M  V30 4784 H 462.115 1.70582 2.40803 0
M  V30 4785 H 462.196 2.43097 0.796069 0
M  V30 4786 H 461.84 4.73444 1.83884 0
M  V30 4787 H 461.77 3.97817 3.45035 0
M  V30 4788 H 464.261 3.10293 2.157 0
M  V30 4789 H 464.574 6.68155 3.88316 0
M  V30 4790 H 462.919 6.0054 3.49824 0
M  V30 4791 H 466.11 3.89103 2.60224 0
M  V30 4792 H 466.283 5.52279 3.38957 0
M  V30 4793 N 459.689 -1.00246 1.21608 0
M  V30 4794 C 460.622 -2.08794 0.920892 0
M  V30 4795 C 461.6 -1.62059 -0.132552 0
M  V30 4796 O 462.784 -1.885 -0.0030366 0
M  V30 4797 C 459.911 -3.36525 0.383226 0
M  V30 4798 C 458.957 -4.02172 1.41987 0
M  V30 4799 S 459.79 -4.44256 2.98994 0
M  V30 4800 C 460.946 -5.7517 2.4684 0
M  V30 4801 H 461.179 -2.33511 1.8401 0
M  V30 4802 H 458.712 -1.13562 1.04609 0
M  V30 4803 H 460.67 -4.10423 0.0795871 0
M  V30 4804 H 459.331 -3.09854 -0.514711 0
M  V30 4805 H 458.524 -4.94114 0.993335 0
M  V30 4806 H 458.126 -3.34559 1.67171 0
M  V30 4807 H 460.418 -6.51042 1.87484 0
M  V30 4808 H 461.361 -6.22638 3.37235 0
M  V30 4809 H 461.769 -5.32112 1.88461 0
M  V30 4810 N 461.167 -1.02423 -1.1978 0
M  V30 4811 C 462.114 -0.601023 -2.22837 0
M  V30 4812 C 463.084 0.382801 -1.61629 0
M  V30 4813 O 464.269 0.280514 -1.88727 0
M  V30 4814 C 461.409 0.0467755 -3.45068 0
M  V30 4815 C 460.522 -0.98253 -4.20678 0
M  V30 4816 C 459.657 -0.304982 -5.30324 0
M  V30 4817 C 458.696 -1.32052 -5.97686 0
M  V30 4818 N 457.833 -0.669105 -6.98904 0
M  V30 4819 H 462.673 -1.48444 -2.58396 0
M  V30 4820 H 460.21 -0.742936 -1.2696 0
M  V30 4821 H 462.168 0.439556 -4.14878 0
M  V30 4822 H 460.798 0.893796 -3.10179 0
M  V30 4823 H 459.85 -1.49341 -3.49859 0
M  V30 4824 H 461.162 -1.75455 -4.66923 0
M  V30 4825 H 460.316 0.142893 -6.06532 0
M  V30 4826 H 459.055 0.499283 -4.85138 0
M  V30 4827 H 458.06 -1.7787 -5.20233 0
M  V30 4828 H 459.285 -2.1262 -6.44957 0
M  V30 4829 H 457.231 0.115152 -6.55899 0
M  V30 4830 H 457.148 -1.37908 -7.43315 0
M  V30 4831 H 458.416 -0.245076 -7.79115 0
M  V30 4832 N 462.645 1.35699 -0.801477 0
M  V30 4833 C 463.608 2.28199 -0.213994 0
M  V30 4834 C 464.608 1.49359 0.595691 0
M  V30 4835 O 465.798 1.69186 0.414921 0
M  V30 4836 C 462.93 3.33587 0.702297 0
M  V30 4837 H 464.123 2.81666 -1.02976 0
M  V30 4838 H 461.676 1.45467 -0.571759 0
M  V30 4839 H 462.411 2.85297 1.54195 0
M  V30 4840 H 462.196 3.91906 0.123484 0
M  V30 4841 H 463.686 4.02638 1.10783 0
M  V30 4842 N 464.123 0.554532 1.47522 0
M  V30 4843 C 465.053 -0.182974 2.32782 0
M  V30 4844 C 466.034 -0.911377 1.43624 0
M  V30 4845 O 467.219 -0.892366 1.72483 0
M  V30 4846 C 464.349 -1.21513 3.25349 0
M  V30 4847 C 463.303 -0.603355 4.23726 0
M  V30 4848 C 462.629 -1.73995 5.05598 0
M  V30 4849 C 463.929 0.441121 5.20434 0
M  V30 4850 H 465.623 0.52882 2.94693 0
M  V30 4851 H 463.169 0.255759 1.41711 0
M  V30 4852 H 465.122 -1.73922 3.83835 0
M  V30 4853 H 463.846 -1.95683 2.61487 0
M  V30 4854 H 462.505 -0.10059 3.66462 0
M  V30 4855 H 462.153 -2.47063 4.38143 0
M  V30 4856 H 461.853 -1.3364 5.72201 0
M  V30 4857 H 463.377 -2.26735 5.66942 0
M  V30 4858 H 464.791 0.00319931 5.733 0
M  V30 4859 H 463.188 0.763402 5.95224 0
M  V30 4860 H 464.258 1.33799 4.66075 0
M  V30 4861 N 465.601 -1.54893 0.290851 0
M  V30 4862 C 466.564 -2.21824 -0.576784 0
M  V30 4863 C 467.564 -1.20104 -1.06919 0
M  V30 4864 O 468.754 -1.44906 -0.966843 0
M  V30 4865 C 465.886 -2.89662 -1.79747 0
M  V30 4866 H 467.079 -2.99899 0.00784051 0
M  V30 4867 H 464.632 -1.56245 0.0415934 0
M  V30 4868 H 465.367 -2.15639 -2.42219 0
M  V30 4869 H 465.152 -3.64219 -1.45214 0
M  V30 4870 H 466.642 -3.4075 -2.4141 0
M  V30 4871 O 467.118 -0.15707 -1.60734 0
M  V30 4872 H 467.809 0.435157 -1.88749 0
M  V30 END ATOM
M  V30 BEGIN BOND
M  V30 END BOND
M  V30 END CTAB
M  END
$$$$
