drugbank_target|P13501 C-C motif chemokine 5 (DB02322; DB02353)
 OpenBabel12092119443D

  0  0  0     0  0            999 V3000
M  V30 BEGIN CTAB
M  V30 COUNTS 1411 1428 0 0 0
M  V30 BEGIN ATOM
M  V30 1 H -0.908 1.98254 -0.117106 0
M  V30 2 N 0 1.576 0 0
M  V30 3 C 0.933 2.03868 1.02534 0
M  V30 4 C 1.911 0.928543 1.3348 0
M  V30 5 O 3.095 1.19667 1.45644 0
M  V30 6 C 0.222 2.43627 2.35294 0
M  V30 7 C -0.732 3.65373 2.2001 0
M  V30 8 S 0.101 5.13292 1.52614 0
M  V30 9 C 1.257 5.56322 2.86805 0
M  V30 10 H 1.49 2.90518 0.631377 0
M  V30 11 H -0.977 1.52953 0.210867 0
M  V30 12 H 0.981 2.67203 3.11629 0
M  V30 13 H -0.358 1.57376 2.7183 0
M  V30 14 H -1.165 3.90944 3.18086 0
M  V30 15 H -1.563 3.418 1.51819 0
M  V30 16 H 0.729 5.58782 3.83104 0
M  V30 17 H 1.672 6.56266 2.65933 0
M  V30 18 H 2.08 4.83886 2.90714 0
M  V30 19 N 1.4781 -0.272755 1.55222 0
M  V30 20 C 2.4251 -1.33716 1.88119 0
M  V30 21 C 3.3951 -1.49066 0.73271 0
M  V30 22 O 4.5801 -1.63469 0.984002 0
M  V30 23 C 1.7201 -2.69238 2.15882 0
M  V30 24 C 0.8331 -2.62108 3.43399 0
M  V30 25 C -0.0319 -3.89811 3.60861 0
M  V30 26 C -0.9929 -3.77193 4.8207 0
M  V30 27 N -1.8559 -4.9673 4.96189 0
M  V30 28 H 2.9841 -1.04962 2.78903 0
M  V30 29 H 0.5211 -0.507088 1.38083 0
M  V30 30 H 2.4791 -3.48089 2.29978 0
M  V30 31 H 1.1091 -2.96194 1.28331 0
M  V30 32 H 0.1611 -1.74967 3.37773 0
M  V30 33 H 1.4731 -2.48685 4.32386 0
M  V30 34 H 0.6271 -4.77103 3.74777 0
M  V30 35 H -0.6339 -4.06102 2.7006 0
M  V30 36 H -1.6289 -2.88284 4.68159 0
M  V30 37 H -0.4039 -3.62421 5.74307 0
M  V30 38 H -2.4579 -5.13431 4.08319 0
M  V30 39 H -2.5409 -4.85839 5.79221 0
M  V30 40 H -1.2729 -5.85594 5.1449 0
M  V30 41 N 2.9562 -1.48159 -0.537278 0
M  V30 42 C 4.2022 -1.56035 -1.29541 0
M  V30 43 C 4.5352 -0.230377 -1.92829 0
M  V30 44 O 3.8102 0.762952 -1.78911 0
M  V30 45 C 4.0932 -2.69323 -2.39034 0
M  V30 46 C 3.9462 -4.12002 -1.80485 0
M  V30 47 C 5.2652 -2.78408 -3.40847 0
M  V30 48 H 2.3842 -0.567992 -0.469632 0
M  V30 49 H 5.0262 -1.80302 -0.599277 0
M  V30 50 H 3.1762 -2.48763 -2.98412 0
M  V30 51 H 4.8482 -4.43981 -1.25215 0
M  V30 52 H 3.0912 -4.19344 -1.11055 0
M  V30 53 H 3.7622 -4.87077 -2.59731 0
M  V30 54 H 6.2382 -2.97012 -2.91416 0
M  V30 55 H 5.1142 -3.59416 -4.14863 0
M  V30 56 H 5.3752 -1.86269 -4.00944 0
M  V30 57 N 4.4343 0.785586 -1.36625 0
M  V30 58 C 5.6593 1.57963 -1.34397 0
M  V30 59 C 6.0843 1.87964 0.071526 0
M  V30 60 O 5.4423 1.48182 1.0446 0
M  V30 61 C 5.4903 2.87511 -2.17646 0
M  V30 62 O 4.5943 3.81281 -1.57158 0
M  V30 63 H 3.9353 0.479014 -0.459828 0
M  V30 64 H 6.4653 0.973411 -1.79961 0
M  V30 65 H 6.4753 3.36745 -2.30362 0
M  V30 66 H 5.1503 2.65002 -3.20541 0
M  V30 67 H 3.7273 3.39885 -1.53403 0
M  V30 68 N 5.9124 1.20967 1.01018 0
M  V30 69 C 6.8754 0.965918 2.07853 0
M  V30 70 C 7.8754 -0.0610545 1.60684 0
M  V30 71 O 9.0654 0.175681 1.73312 0
M  V30 72 C 6.1974 0.455513 3.37843 0
M  V30 73 H 7.3904 1.91365 2.3091 0
M  V30 74 H 4.9434 1.02594 1.17916 0
M  V30 75 H 5.6784 -0.497381 3.20463 0
M  V30 76 H 5.4634 1.19622 3.73407 0
M  V30 77 H 6.9534 0.304667 4.16487 0
M  V30 78 N 7.3905 -1.2043 1.01659 0
M  V30 79 C 8.3535 -2.21433 0.591616 0
M  V30 80 C 9.3535 -1.57203 -0.338226 0
M  V30 81 O 10.5435 -1.73737 -0.126918 0
M  V30 82 C 7.6755 -3.40628 -0.136058 0
M  V30 83 H 8.8685 -2.60545 1.48514 0
M  V30 84 H 6.4215 -1.33893 0.806379 0
M  V30 85 H 7.1565 -3.07019 -1.04449 0
M  V30 86 H 6.9415 -3.88475 0.531917 0
M  V30 87 H 8.4315 -4.15475 -0.420735 0
M  V30 88 N 8.8686 -0.792821 -1.36206 0
M  V30 89 C 9.8316 -0.199459 -2.2833 0
M  V30 90 C 10.8316 0.605189 -1.48977 0
M  V30 91 O 12.0216 0.425685 -1.68919 0
M  V30 92 C 9.1536 0.723523 -3.33134 0
M  V30 93 H 10.3466 -1.01181 -2.82316 0
M  V30 94 H 7.8996 -0.562485 -1.45828 0
M  V30 95 H 8.6346 1.56008 -2.84309 0
M  V30 96 H 8.4196 0.148436 -3.91819 0
M  V30 97 H 9.9096 1.13344 -4.01924 0
M  V30 98 N 10.3467 1.47872 -0.545128 0
M  V30 99 C 11.2767 2.32661 0.197793 0
M  V30 100 C 12.2577 1.43041 0.920504 0
M  V30 101 O 13.4427 1.71912 0.90333 0
M  V30 102 C 10.5727 3.24569 1.23582 0
M  V30 103 C 9.5267 4.23333 0.630323 0
M  V30 104 C 8.8527 5.0448 1.77211 0
M  V30 105 C 10.1527 5.20704 -0.407974 0
M  V30 106 H 11.8467 2.95024 -0.510045 0
M  V30 107 H 9.3927 1.4187 -0.246731 0
M  V30 108 H 11.3457 3.8272 1.76362 0
M  V30 109 H 10.0697 2.60236 1.97344 0
M  V30 110 H 8.7287 3.6639 0.123922 0
M  V30 111 H 8.3767 4.36561 2.49847 0
M  V30 112 H 8.0767 5.71339 1.37281 0
M  V30 113 H 9.6007 5.65487 2.3034 0
M  V30 114 H 11.0147 5.7329 0.033305 0
M  V30 115 H 9.4117 5.95699 -0.725486 0
M  V30 116 H 10.4817 4.66917 -1.30828 0
M  V30 117 N 11.8248 0.280983 1.55075 0
M  V30 118 C 12.7878 -0.590896 2.21452 0
M  V30 119 C 13.7878 -1.07682 1.19421 0
M  V30 120 O 14.9778 -0.97605 1.44288 0
M  V30 121 C 12.1098 -1.81587 2.88511 0
M  V30 122 H 13.3028 -0.0112554 2.99898 0
M  V30 123 H 10.8558 0.0316438 1.56268 0
M  V30 124 H 11.5908 -2.43587 2.14093 0
M  V30 125 H 11.3758 -1.4753 3.63287 0
M  V30 126 H 12.8658 -2.43575 3.39206 0
M  V30 127 N 13.3029 -1.57598 0.00835791 0
M  V30 128 C 14.5489 -1.91211 -0.675732 0
M  V30 129 C 14.8819 -0.883139 -1.72958 0
M  V30 130 O 14.1569 0.097016 -1.94258 0
M  V30 131 C 14.4399 -3.35379 -1.31123 0
M  V30 132 C 14.2929 -4.48999 -0.268356 0
M  V30 133 C 15.6119 -3.7912 -2.23508 0
M  V30 134 H 12.7309 -0.695374 -0.244179 0
M  V30 135 H 15.3729 -1.89901 0.0613655 0
M  V30 136 H 13.5229 -3.36626 -1.93946 0
M  V30 137 H 15.1949 -4.59887 0.360844 0
M  V30 138 H 13.4379 -4.31873 0.408482 0
M  V30 139 H 14.1089 -5.46851 -0.752218 0
M  V30 140 H 16.5849 -3.79477 -1.70693 0
M  V30 141 H 15.4609 -4.80729 -2.64936 0
M  V30 142 H 15.7219 -3.13455 -3.11766 0
M  V30 143 N 14.781 0.264519 -1.55364 0
M  V30 144 C 16.03 0.992812 -1.75574 0
M  V30 145 C 16.343 1.87142 -0.568979 0
M  V30 146 O 17.549 2.63513 -0.653682 0
M  V30 147 C 16.005 1.81519 -3.10771 0
M  V30 148 C 15.613 0.984839 -4.37041 0
M  V30 149 C 17.357 2.53727 -3.40327 0
M  V30 150 C 15.264 1.80209 -5.63275 0
M  V30 151 H 14.194 0.374412 -0.65447 0
M  V30 152 H 16.845 0.248138 -1.81815 0
M  V30 153 H 15.227 2.60115 -2.98591 0
M  V30 154 H 16.401 0.242455 -4.60162 0
M  V30 155 H 14.716 0.37691 -4.14691 0
M  V30 156 H 17.313 3.15292 -4.3185 0
M  V30 157 H 17.656 3.24447 -2.60845 0
M  V30 158 H 18.189 1.82156 -3.53644 0
M  V30 159 H 14.928 1.13896 -6.45529 0
M  V30 160 H 14.448 2.52022 -5.44284 0
M  V30 161 H 16.127 2.37364 -6.01887 0
M  V30 162 N 16.2591 1.48442 0.529413 0
M  V30 163 C 17.1891 1.65902 1.64313 0
M  V30 164 C 18.1701 0.507897 1.6234 0
M  V30 165 O 19.3551 0.740503 1.79528 0
M  V30 166 C 16.4851 1.69911 3.02898 0
M  V30 167 C 15.4391 2.8453 3.19729 0
M  V30 168 C 14.7651 2.73629 4.59381 0
M  V30 169 C 16.0651 4.25821 3.02447 0
M  V30 170 H 17.7591 2.5914 1.49955 0
M  V30 171 H 15.3051 1.24709 0.719982 0
M  V30 172 H 17.2581 1.80715 3.80684 0
M  V30 173 H 15.9821 0.732524 3.18279 0
M  V30 174 H 14.6411 2.73283 2.44361 0
M  V30 175 H 14.2891 1.74938 4.71599 0
M  V30 176 H 13.9891 3.50541 4.71588 0
M  V30 177 H 15.5131 2.86401 5.39265 0
M  V30 178 H 16.9271 4.37898 3.70024 0
M  V30 179 H 15.3241 5.03735 3.26146 0
M  V30 180 H 16.3941 4.42244 1.98867 0
M  V30 181 N 17.7372 -0.778329 1.37039 0
M  V30 182 C 18.9862 -1.53189 1.3121 0
M  V30 183 C 19.2992 -1.95328 -0.103095 0
M  V30 184 O 20.5052 -2.70012 -0.283826 0
M  V30 185 C 18.9612 -2.76591 2.30272 0
M  V30 186 C 18.5692 -2.41577 3.77286 0
M  V30 187 C 20.3132 -3.5455 2.33441 0
M  V30 188 C 18.2202 -3.61441 4.68096 0
M  V30 189 H 17.1502 -0.5751 0.487622 0
M  V30 190 H 19.8012 -0.853101 1.62464 0
M  V30 191 H 18.1832 -3.46326 1.92027 0
M  V30 192 H 19.3572 -1.79668 4.2433 0
M  V30 193 H 17.6722 -1.76806 3.76999 0
M  V30 194 H 20.2692 -4.43628 2.98493 0
M  V30 195 H 20.6122 -3.93936 1.34611 0
M  V30 196 H 21.1452 -2.91805 2.7036 0
M  V30 197 H 17.8842 -3.27142 5.6803 0
M  V30 198 H 17.4042 -4.22478 4.25761 0
M  V30 199 H 19.0832 -4.28335 4.8491 0
M  V30 200 N 19.2153 -1.21501 -1.00376 0
M  V30 201 C 20.1783 -0.976927 -2.07337 0
M  V30 202 C 21.1783 0.0525322 -1.60714 0
M  V30 203 O 22.3683 -0.184869 -1.73216 0
M  V30 204 C 19.5003 -0.473423 -3.37597 0
M  V30 205 H 20.6933 -1.92587 -2.29892 0
M  V30 206 H 18.2463 -1.03217 -1.17371 0
M  V30 207 H 18.9813 0.480379 -3.20722 0
M  V30 208 H 18.7663 -1.216 -3.72768 0
M  V30 209 H 20.2563 -0.32675 -4.1632 0
M  V30 210 N 20.6934 1.19889 -1.02296 0
M  V30 211 C 21.9214 1.9339 -0.735399 0
M  V30 212 C 22.3364 1.75148 0.704887 0
M  V30 213 O 21.6934 1.06954 1.47875 0
M  V30 214 C 21.7444 3.45313 -1.06962 0
M  V30 215 O 21.4654 3.62964 -2.45334 0
M  V30 216 C 22.9664 4.35948 -0.804021 0
M  V30 217 H 20.1864 0.61448 -0.269546 0
M  V30 218 H 22.7304 1.522 -1.36585 0
M  V30 219 H 20.8854 3.84359 -0.484455 0
M  V30 220 H 21.2994 4.56886 -2.57595 0
M  V30 221 H 22.7734 5.41174 -1.0879 0
M  V30 222 H 23.2504 4.3842 0.261691 0
M  V30 223 H 23.8564 4.02574 -1.37164 0
M  V30 224 N 22.1715 0.800033 1.35784 0
M  V30 225 C 23.1345 0.211565 2.28221 0
M  V30 226 C 24.1345 -0.59728 1.49296 0
M  V30 227 O 25.3245 -0.416721 1.69142 0
M  V30 228 C 22.4565 -0.705846 3.33513 0
M  V30 229 H 23.6495 1.02677 2.81776 0
M  V30 230 H 21.2025 0.570211 1.45528 0
M  V30 231 H 21.9375 -1.54498 2.85133 0
M  V30 232 H 21.7225 -0.127655 3.91892 0
M  V30 233 H 23.2125 -1.11211 4.02519 0
M  V30 234 N 23.6496 -1.47581 0.552962 0
M  V30 235 C 24.5796 -2.32762 -0.185451 0
M  V30 236 C 25.5606 -1.43527 -0.912905 0
M  V30 237 O 26.7456 -1.72388 -0.894201 0
M  V30 238 C 23.8756 -3.25219 -1.21859 0
M  V30 239 C 22.8296 -4.23661 -0.607864 0
M  V30 240 C 22.1556 -5.05413 -1.74533 0
M  V30 241 C 23.4556 -5.20481 0.435582 0
M  V30 242 H 25.1496 -2.94749 0.525684 0
M  V30 243 H 22.6956 -1.41738 0.254251 0
M  V30 244 H 24.6486 -3.8365 -1.7433 0
M  V30 245 H 23.3726 -2.61279 -1.95961 0
M  V30 246 H 22.0316 -3.66451 -0.104489 0
M  V30 247 H 21.6796 -4.3788 -2.47529 0
M  V30 248 H 21.3796 -5.72059 -1.34249 0
M  V30 249 H 22.9036 -5.66701 -2.27338 0
M  V30 250 H 24.3176 -5.733 -0.00290157 0
M  V30 251 H 22.7146 -5.95305 0.757067 0
M  V30 252 H 23.7846 -4.66217 1.33303 0
M  V30 253 N 25.1277 -0.289203 -1.54924 0
M  V30 254 C 26.3677 0.324536 -2.01807 0
M  V30 255 C 26.7317 1.5199 -1.17316 0
M  V30 256 O 27.9327 2.20422 -1.53843 0
M  V30 257 C 26.2037 0.683578 -3.50802 0
M  V30 258 S 27.7627 1.28185 -4.19659 0
M  V30 259 H 24.5807 0.100236 -0.703899 0
M  V30 260 H 27.1827 -0.414325 -1.91059 0
M  V30 261 H 25.8867 -0.195073 -4.09936 0
M  V30 262 H 25.4177 1.45354 -3.65562 0
M  V30 263 H 27.4327 2.57006 -4.24456 0
M  V30 264 N 26.6058 1.57591 -0.0167156 0
M  V30 265 C 27.5688 2.08393 0.954204 0
M  V30 266 C 28.5688 0.996531 1.26198 0
M  V30 267 O 29.7588 1.25858 1.20438 0
M  V30 268 C 26.8908 2.5394 2.27436 0
M  V30 269 H 28.0838 2.95455 0.514451 0
M  V30 270 H 25.6368 1.54582 0.231089 0
M  V30 271 H 26.3718 1.70171 2.76066 0
M  V30 272 H 26.1568 3.33371 2.06412 0
M  V30 273 H 27.6468 2.93512 2.97053 0
M  V30 274 N 28.0839 -0.256276 1.55502 0
M  V30 275 C 29.4949 -0.826068 1.67431 0
M  V30 276 C 29.8459 -1.86396 0.612446 0
M  V30 277 O 28.9709 -2.15031 -0.243025 0
M  V30 278 C 29.5659 -1.50512 3.03532 0
M  V30 279 C 28.1249 -2.02273 3.17431 0
M  V30 280 C 27.2719 -0.870548 2.63281 0
M  V30 281 H 30.2229 -0.0322728 1.58667 0
M  V30 282 H 30.2439 -2.37279 2.97454 0
M  V30 283 H 29.7559 -0.749484 3.80794 0
M  V30 284 H 27.8569 -2.80746 2.44974 0
M  V30 285 H 27.9699 -2.22655 4.24219 0
M  V30 286 H 26.3339 -1.26851 2.20864 0
M  V30 287 H 27.1169 -0.128149 3.43061 0
M  V30 288 N 29.562 -1.4872 -0.521534 0
M  V30 289 C 30.525 -1.63379 -1.60748 0
M  V30 290 C 31.525 -0.50661 -1.52611 0
M  V30 291 O 32.715 -0.772601 -1.5613 0
M  V30 292 C 29.847 -1.61192 -3.00383 0
M  V30 293 H 31.04 -2.60217 -1.49087 0
M  V30 294 H 28.593 -1.37444 -0.744235 0
M  V30 295 H 29.328 -0.65863 -3.17541 0
M  V30 296 H 29.113 -2.43032 -3.07698 0
M  V30 297 H 30.603 -1.7466 -3.7932 0
M  V30 298 N 31.0401 0.771051 -1.3745 0
M  V30 299 C 32.2651 1.56529 -1.36065 0
M  V30 300 C 32.6901 1.88029 0.0515859 0
M  V30 301 O 32.0481 1.49282 1.02882 0
M  V30 302 C 32.0961 2.85187 -2.20683 0
M  V30 303 O 31.2001 3.79593 -1.61193 0
M  V30 304 H 30.5411 0.47411 -0.464883 0
M  V30 305 H 33.0711 0.954269 -1.80983 0
M  V30 306 H 33.0811 3.34283 -2.33921 0
M  V30 307 H 31.7561 2.61588 -3.23334 0
M  V30 308 H 30.3331 3.38239 -1.56999 0
M  V30 309 N 32.5182 1.22032 0.997298 0
M  V30 310 C 33.4812 0.987909 2.06816 0
M  V30 311 C 34.4812 -0.0440084 1.6074 0
M  V30 312 O 35.6712 0.194053 1.73116 0
M  V30 313 C 32.8032 0.49132 3.37341 0
M  V30 314 H 33.9962 1.93803 2.28868 0
M  V30 315 H 31.5492 1.03838 1.16822 0
M  V30 316 H 32.2842 -0.463364 3.20973 0
M  V30 317 H 32.0692 1.23575 3.72118 0
M  V30 318 H 33.5592 0.348824 4.16141 0
M  V30 319 N 33.9963 -1.19345 1.0293 0
M  V30 320 C 35.2213 -1.93538 0.745511 0
M  V30 321 C 35.6463 -1.75007 -0.689511 0
M  V30 322 O 35.0043 -1.05265 -1.47611 0
M  V30 323 C 35.0523 -3.43336 1.10239 0
M  V30 324 O 34.1563 -4.11806 0.221289 0
M  V30 325 H 33.4973 -0.604193 0.275404 0
M  V30 326 H 36.0273 -1.5141 1.37609 0
M  V30 327 H 36.0373 -3.94004 1.05947 0
M  V30 328 H 34.7123 -3.56146 2.14786 0
M  V30 329 H 33.2893 -3.715 0.322842 0
M  V30 330 N 35.4744 -0.807222 -1.35358 0
M  V30 331 C 36.8854 -0.44876 -1.81226 0
M  V30 332 C 37.2364 1.02929 -1.67033 0
M  V30 333 O 36.3614 1.79991 -1.20133 0
M  V30 334 C 36.9564 -0.807774 -3.2903 0
M  V30 335 C 35.5154 -0.501901 -3.73039 0
M  V30 336 C 34.6624 -1.03304 -2.57339 0
M  V30 337 H 37.6134 -0.998808 -1.23327 0
M  V30 338 H 37.6344 -0.10554 -3.80354 0
M  V30 339 H 37.1464 -1.88357 -3.39328 0
M  V30 340 H 35.2474 0.565128 -3.68289 0
M  V30 341 H 35.3604 -1.03497 -4.67787 0
M  V30 342 H 33.7244 -0.455339 -2.50597 0
M  V30 343 H 34.5074 -2.11496 -2.70415 0
M  V30 344 N 36.9525 1.47285 -0.560781 0
M  V30 345 C 38.1825 2.06555 -0.0429638 0
M  V30 346 C 38.5905 1.41339 1.25777 0
M  V30 347 O 37.9335 0.505182 1.76617 0
M  V30 348 C 37.9955 3.58827 0.219887 0
M  V30 349 C 37.6595 4.46105 -0.991944 0
M  V30 350 C 38.6565 4.84 -1.89843 0
M  V30 351 C 36.3415 4.87567 -1.20762 0
M  V30 352 C 38.3355 5.6216 -3.00425 0
M  V30 353 C 36.0225 5.65491 -2.31653 0
M  V30 354 C 37.0205 6.02699 -3.21315 0
M  V30 355 O 36.7085 6.79052 -4.30283 0
M  V30 356 H 36.4405 0.674537 -0.0444468 0
M  V30 357 H 38.9945 1.90225 -0.774818 0
M  V30 358 H 37.2245 3.73383 1.00609 0
M  V30 359 H 38.9135 4.00103 0.683522 0
M  V30 360 H 39.6795 4.52564 -1.74387 0
M  V30 361 H 35.5585 4.5807 -0.518893 0
M  V30 362 H 39.1025 5.9112 -3.70436 0
M  V30 363 H 34.9995 5.9634 -2.47081 0
M  V30 364 H 35.7675 6.9745 -4.28376 0
M  V30 365 N 38.4306 0.297415 1.54768 0
M  V30 366 C 39.6556 -0.318435 2.04941 0
M  V30 367 C 40.0806 -1.4701 1.17345 0
M  V30 368 O 39.4386 -1.80436 0.176758 0
M  V30 369 C 39.4866 -0.755749 3.52592 0
M  V30 370 O 38.5906 -1.86088 3.68028 0
M  V30 371 H 37.9316 -0.062421 0.661059 0
M  V30 372 H 40.4616 0.438215 1.99852 0
M  V30 373 H 40.4716 -1.04552 3.94376 0
M  V30 374 H 39.1466 0.0867233 4.1581 0
M  V30 375 H 37.7236 -1.57193 3.38149 0
M  V30 376 N 39.9087 -1.5758 0.0250728 0
M  V30 377 C 41.1337 -1.96337 -0.668317 0
M  V30 378 C 41.5587 -0.901314 -1.651 0
M  V30 379 O 40.9167 0.138187 -1.80773 0
M  V30 380 C 40.9647 -3.34191 -1.35457 0
M  V30 381 O 40.0687 -3.30269 -2.46974 0
M  V30 382 H 39.4097 -0.640281 -0.175887 0
M  V30 383 H 41.9397 -2.0442 0.0857224 0
M  V30 384 H 41.9497 -3.70331 -1.71228 0
M  V30 385 H 40.6247 -4.11036 -0.634218 0
M  V30 386 H 39.2017 -3.05841 -2.13344 0
M  V30 387 N 41.3868 0.248026 -1.55636 0
M  V30 388 C 42.6638 0.998988 -1.68165 0
M  V30 389 C 43.0438 2.03409 -0.564621 0
M  V30 390 O 42.3918 2.24378 0.432076 0
M  V30 391 C 42.6018 1.63334 -3.0842 0
M  V30 392 C 43.9498 2.13562 -3.66983 0
M  V30 393 O 44.9738 1.73277 -3.11213 0
M  V30 394 O 43.8328 2.87526 -4.64749 0
M  V30 395 H 40.9268 0.464933 -0.683935 0
M  V30 396 H 43.4728 0.241902 -1.67967 0
M  V30 397 H 42.2448 0.884583 -3.8117 0
M  V30 398 H 41.8678 2.45666 -3.12624 0
M  V30 399 N 42.8649 1.48995 0.513639 0
M  V30 400 C 44.0929 1.61531 1.29288 0
M  V30 401 C 44.5079 0.281801 1.86685 0
M  V30 402 O 43.8649 -0.731111 1.67215 0
M  V30 403 C 43.9159 2.67449 2.43215 0
M  V30 404 O 43.6369 3.95626 1.88179 0
M  V30 405 C 45.1379 2.90575 3.34785 0
M  V30 406 H 42.3579 0.544165 0.392588 0
M  V30 407 H 44.9019 1.9494 0.617956 0
M  V30 408 H 43.0569 2.36853 3.0656 0
M  V30 409 H 43.4709 4.53868 2.62876 0
M  V30 410 H 44.9449 3.68449 4.11035 0
M  V30 411 H 45.4219 2.00011 3.91015 0
M  V30 412 H 46.0279 3.22538 2.77218 0
M  V30 413 N 44.343 -0.763751 1.37857 0
M  V30 414 C 45.571 -1.55293 1.36718 0
M  V30 415 C 45.986 -1.88745 -0.0455434 0
M  V30 416 O 45.343 -1.52039 -1.00947 0
M  V30 417 C 45.394 -2.85831 2.2132 0
M  V30 418 O 45.115 -2.5381 3.57089 0
M  V30 419 C 46.616 -3.80023 2.28249 0
M  V30 420 H 43.836 -0.480841 0.468009 0
M  V30 421 H 46.38 -0.946009 1.81303 0
M  V30 422 H 44.535 -3.42926 1.80223 0
M  V30 423 H 44.949 -3.37459 4.01524 0
M  V30 424 H 46.423 -4.68599 2.91752 0
M  V30 425 H 46.9 -4.1973 1.2932 0
M  V30 426 H 47.506 -3.28855 2.69693 0
M  V30 427 N 45.8211 -1.22559 -0.990812 0
M  V30 428 C 47.2321 -1.04791 -1.54518 0
M  V30 429 C 47.5831 0.387998 -1.92325 0
M  V30 430 O 46.7081 1.27328 -1.74976 0
M  V30 431 C 47.3031 -1.896 -2.80779 0
M  V30 432 C 45.8621 -1.76124 -3.32652 0
M  V30 433 C 45.0091 -1.8594 -2.05722 0
M  V30 434 H 47.9601 -1.36374 -0.811662 0
M  V30 435 H 47.9811 -1.41464 -3.53225 0
M  V30 436 H 47.4931 -2.94101 -2.53231 0
M  V30 437 H 45.5941 -0.743643 -3.65104 0
M  V30 438 H 45.7071 -2.58913 -4.03114 0
M  V30 439 H 44.0711 -1.29403 -2.19379 0
M  V30 440 H 44.8541 -2.91976 -1.80568 0
M  V30 441 N 47.2992 1.18797 -1.03562 0
M  V30 442 C 48.5392 1.90346 -0.744832 0
M  V30 443 C 48.9032 1.78231 0.713972 0
M  V30 444 O 50.1042 2.44441 1.11813 0
M  V30 445 C 48.3752 3.36942 -1.19184 0
M  V30 446 S 49.9342 4.26638 -1.02593 0
M  V30 447 H 46.7522 0.657343 -0.270963 0
M  V30 448 H 49.3542 1.43579 -1.32685 0
M  V30 449 H 48.0582 3.43287 -2.24905 0
M  V30 450 H 47.5892 3.88745 -0.603397 0
M  V30 451 H 49.6042 4.96164 0.0596033 0
M  V30 452 N 48.7773 0.814389 1.34928 0
M  V30 453 C 50.0173 0.404165 2.00364 0
M  V30 454 C 50.3813 -1.01166 1.63185 0
M  V30 455 O 51.5823 -1.52431 2.21401 0
M  V30 456 C 49.8533 0.590718 3.52484 0
M  V30 457 S 51.4123 0.272075 4.37956 0
M  V30 458 H 48.2303 0.15311 0.694319 0
M  V30 459 H 50.8323 1.05834 1.64376 0
M  V30 460 H 49.5363 1.62099 3.77031 0
M  V30 461 H 49.0673 -0.0785013 3.93322 0
M  V30 462 H 51.0823 -0.917405 4.87645 0
M  V30 463 N 50.2554 -1.46986 0.568584 0
M  V30 464 C 51.5024 -2.02441 0.0487986 0
M  V30 465 C 51.8304 -1.44169 -1.30559 0
M  V30 466 O 51.0854 -0.591213 -1.86556 0
M  V30 467 C 51.3844 -3.57306 -0.081836 0
M  V30 468 C 51.0504 -4.34552 1.20313 0
M  V30 469 C 49.7124 -4.55376 1.5552 0
M  V30 470 C 52.0644 -4.79016 2.05411 0
M  V30 471 C 49.3924 -5.17913 2.7565 0
M  V30 472 C 51.7444 -5.42879 3.24754 0
M  V30 473 C 50.4084 -5.61933 3.60261 0
M  V30 474 H 49.6784 -0.740785 0.0178567 0
M  V30 475 H 52.3254 -1.76525 0.742384 0
M  V30 476 H 50.6304 -3.8228 -0.858463 0
M  V30 477 H 52.3274 -3.97876 -0.499546 0
M  V30 478 H 48.9174 -4.18631 0.919014 0
M  V30 479 H 53.1014 -4.62696 1.79516 0
M  V30 480 H 48.3574 -5.30858 3.03315 0
M  V30 481 H 52.5314 -5.76293 3.90973 0
M  V30 482 H 50.1584 -6.10161 4.53439 0
M  V30 483 N 51.7335 -0.305618 -1.54608 0
M  V30 484 C 52.6965 0.555591 -2.22364 0
M  V30 485 C 53.6965 1.05768 -1.21119 0
M  V30 486 O 54.8865 0.952972 -1.45822 0
M  V30 487 C 52.0185 1.76974 -2.91364 0
M  V30 488 H 53.2115 -0.0364572 -2.99878 0
M  V30 489 H 50.7645 -0.0565007 -1.56198 0
M  V30 490 H 51.4995 2.40151 -2.17941 0
M  V30 491 H 51.2845 1.41732 -3.65588 0
M  V30 492 H 52.7745 2.38148 -3.43038 0
M  V30 493 N 53.2116 1.57565 -0.0334293 0
M  V30 494 C 54.4416 1.95996 0.653398 0
M  V30 495 C 54.8496 0.908749 1.65947 0
M  V30 496 O 54.1926 -0.117471 1.83324 0
M  V30 497 C 54.2546 3.30589 1.41249 0
M  V30 498 C 53.9186 4.53503 0.564263 0
M  V30 499 C 54.9156 5.19647 -0.16225 0
M  V30 500 C 52.6006 4.99801 0.500398 0
M  V30 501 C 54.5946 6.30412 -0.941255 0
M  V30 502 C 52.2816 6.10448 -0.282308 0
M  V30 503 C 53.2796 6.75612 -1.00184 0
M  V30 504 O 52.9676 7.84134 -1.77171 0
M  V30 505 H 52.6996 0.65027 0.184728 0
M  V30 506 H 55.2536 2.05199 -0.0907841 0
M  V30 507 H 53.4836 3.17888 2.20191 0
M  V30 508 H 55.1726 3.53892 1.98784 0
M  V30 509 H 55.9386 4.84846 -0.12227 0
M  V30 510 H 51.8176 4.48883 1.05002 0
M  V30 511 H 55.3616 6.81208 -1.50339 0
M  V30 512 H 51.2586 6.44686 -0.323989 0
M  V30 513 H 52.0266 8.00822 -1.69194 0
M  V30 514 N 54.6897 -0.239769 1.55765 0
M  V30 515 C 55.9387 -0.964754 1.77131 0
M  V30 516 C 56.2517 -1.86213 0.59868 0
M  V30 517 O 57.4577 -2.6244 0.695522 0
M  V30 518 C 55.9137 -1.76552 3.1362 0
M  V30 519 C 55.5217 -0.915185 4.38553 0
M  V30 520 C 57.2657 -2.48281 3.44321 0
M  V30 521 C 55.1727 -1.71225 5.66071 0
M  V30 522 H 54.1027 -0.363953 0.660344 0
M  V30 523 H 56.7537 -0.219181 1.82186 0
M  V30 524 H 55.1357 -2.55331 3.02691 0
M  V30 525 H 56.3097 -0.169217 4.60489 0
M  V30 526 H 54.6247 -0.310889 4.15238 0
M  V30 527 H 57.2217 -3.08382 4.36812 0
M  V30 528 H 57.5647 -3.20256 2.65973 0
M  V30 529 H 58.0977 -1.76507 3.56497 0
M  V30 530 H 54.8367 -1.03612 6.4726 0
M  V30 531 H 54.3567 -2.43331 5.48224 0
M  V30 532 H 56.0357 -2.27758 6.05587 0
M  V30 533 N 56.1678 -1.49265 -0.50573 0
M  V30 534 C 57.1308 -1.65075 -1.59006 0
M  V30 535 C 58.1308 -0.522768 -1.52065 0
M  V30 536 O 59.3208 -0.789117 -1.55302 0
M  V30 537 C 56.4528 -1.64369 -2.98656 0
M  V30 538 H 57.6458 -2.61784 -1.46319 0
M  V30 539 H 55.1988 -1.38226 -0.729616 0
M  V30 540 H 55.9338 -0.692272 -3.16825 0
M  V30 541 H 55.7188 -2.46282 -3.05103 0
M  V30 542 H 57.2088 -1.78674 -3.77446 0
M  V30 543 N 57.6459 0.756429 -1.3826 0
M  V30 544 C 59.0619 1.0591 -1.19395 0
M  V30 545 C 59.2619 2.01459 -0.0406567 0
M  V30 546 O 58.3179 2.44909 0.614467 0
M  V30 547 C 59.6309 1.64191 -2.51916 0
M  V30 548 C 61.1789 1.76376 -2.58574 0
M  V30 549 C 61.6539 2.38069 -3.91264 0
M  V30 550 N 63.1449 2.45503 -3.92788 0
M  V30 551 C 63.8799 2.94126 -4.92217 0
M  V30 552 N 63.3759 3.42805 -6.02043 0
M  V30 553 N 65.1689 2.9314 -4.7961 0
M  V30 554 H 57.3199 0.122313 -2.12048 0
M  V30 555 H 59.5829 0.116892 -0.940766 0
M  V30 556 H 59.2889 1.01451 -3.3675 0
M  V30 557 H 59.1629 2.6329 -2.70108 0
M  V30 558 H 61.5499 2.38244 -1.74137 0
M  V30 559 H 61.6309 0.759894 -2.44252 0
M  V30 560 H 61.2749 1.76835 -4.76121 0
M  V30 561 H 61.2049 3.39091 -4.02895 0
M  V30 562 H 63.6959 2.1107 -3.13461 0
M  V30 563 H 64.0089 3.78354 -6.73846 0
M  V30 564 H 62.3539 3.4087 -6.05667 0
M  V30 565 H 65.5449 2.54419 -3.92923 0
M  V30 566 H 65.7179 3.30721 -5.5725 0
M  V30 567 N 59.124 1.23083 0.984299 0
M  V30 568 C 60.535 1.05609 1.5396 0
M  V30 569 C 60.886 -0.377793 1.92528 0
M  V30 570 O 60.011 -1.26398 1.75649 0
M  V30 571 C 60.606 1.91087 2.7977 0
M  V30 572 C 59.165 1.77885 3.31713 0
M  V30 573 C 58.312 1.87028 2.04733 0
M  V30 574 H 61.263 1.36802 0.804419 0
M  V30 575 H 61.284 1.43336 3.5247 0
M  V30 576 H 60.796 2.9544 2.51668 0
M  V30 577 H 58.897 0.762995 3.64704 0
M  V30 578 H 59.01 2.61047 4.01735 0
M  V30 579 H 57.374 1.30565 2.18689 0
M  V30 580 H 58.157 2.92929 1.79017 0
M  V30 581 N 60.6021 -1.18246 1.0419 0
M  V30 582 C 61.5321 -2.24127 0.654914 0
M  V30 583 C 62.5131 -1.66617 -0.342451 0
M  V30 584 O 63.6981 -1.92924 -0.222277 0
M  V30 585 C 60.8281 -3.47295 0.0183757 0
M  V30 586 C 59.7821 -4.17563 0.939414 0
M  V30 587 C 59.1081 -5.34438 0.167286 0
M  V30 588 C 60.4081 -4.70917 2.25908 0
M  V30 589 H 62.1021 -2.56753 1.54007 0
M  V30 590 H 59.6481 -1.23414 0.74195 0
M  V30 591 H 61.6011 -4.20572 -0.264082 0
M  V30 592 H 60.3251 -3.13907 -0.901664 0
M  V30 593 H 58.9841 -3.46186 1.20628 0
M  V30 594 H 58.6321 -4.97298 -0.7552 0
M  V30 595 H 58.3321 -5.82388 0.780901 0
M  V30 596 H 59.8561 -6.10504 -0.108125 0
M  V30 597 H 61.2701 -5.35882 2.03724 0
M  V30 598 H 59.6671 -5.29406 2.82577 0
M  V30 599 H 60.7371 -3.88272 2.9047 0
M  V30 600 N 62.0802 -0.821533 -1.34494 0
M  V30 601 C 63.4912 -0.467956 -1.8074 0
M  V30 602 C 63.8422 1.01151 -1.68116 0
M  V30 603 O 62.9672 1.78707 -1.22036 0
M  V30 604 C 63.5622 -0.842627 -3.28154 0
M  V30 605 C 62.1212 -0.541439 -3.72485 0
M  V30 606 C 61.2682 -1.06028 -2.56229 0
M  V30 607 H 64.2192 -1.01183 -1.22261 0
M  V30 608 H 64.2402 -0.145876 -3.8022 0
M  V30 609 H 63.7522 -1.91945 -3.37311 0
M  V30 610 H 61.8532 0.526034 -3.68868 0
M  V30 611 H 61.9662 -1.08453 -4.66663 0
M  V30 612 H 60.3302 -0.481892 -2.501 0
M  V30 613 H 61.1132 -2.14352 -2.68157 0
M  V30 614 N 63.5583 1.46682 -0.576371 0
M  V30 615 C 64.9743 1.57822 -0.237562 0
M  V30 616 C 65.1743 1.57237 1.26011 0
M  V30 617 O 64.2303 1.48596 2.04146 0
M  V30 618 C 65.5433 2.87499 -0.881168 0
M  V30 619 C 67.0913 3.01119 -0.85417 0
M  V30 620 C 67.5663 4.33524 -1.4772 0
M  V30 621 N 69.0573 4.40207 -1.44125 0
M  V30 622 C 69.7923 5.4126 -1.89276 0
M  V30 623 N 69.2883 6.49021 -2.42371 0
M  V30 624 N 71.0813 5.32422 -1.80231 0
M  V30 625 H 63.2323 1.45306 -1.54919 0
M  V30 626 H 65.4953 0.692733 -0.647167 0
M  V30 627 H 65.2013 2.9372 -1.93447 0
M  V30 628 H 65.0753 3.75224 -0.385592 0
M  V30 629 H 67.4623 2.94485 0.190491 0
M  V30 630 H 67.5433 2.14887 -1.3877 0
M  V30 631 H 67.1873 4.40916 -2.52103 0
M  V30 632 H 67.1173 5.1852 -0.918947 0
M  V30 633 H 69.6083 3.62931 -1.05307 0
M  V30 634 H 69.9213 7.2233 -2.74698 0
M  V30 635 H 68.2663 6.49858 -2.46393 0
M  V30 636 H 71.4573 4.47137 -1.38514 0
M  V30 637 H 71.6303 6.11034 -2.15735 0
M  V30 638 N 65.0364 0.313813 1.54444 0
M  V30 639 C 65.9994 -0.54379 2.22656 0
M  V30 640 C 66.9994 -1.05124 1.21678 0
M  V30 641 O 68.1894 -0.945225 1.46325 0
M  V30 642 C 65.3214 -1.75427 2.92298 0
M  V30 643 H 66.5144 0.0523599 2.99854 0
M  V30 644 H 64.0674 0.0647834 1.56166 0
M  V30 645 H 64.8024 -2.38991 2.19211 0
M  V30 646 H 64.5874 -1.39791 3.66334 0
M  V30 647 H 66.0774 -2.36325 3.44297 0
M  V30 648 N 66.5145 -1.57545 0.0417849 0
M  V30 649 C 67.4645 -2.07483 -0.945247 0
M  V30 650 C 68.4485 -0.977983 -1.27767 0
M  V30 651 O 69.6405 -1.24142 -1.26166 0
M  V30 652 C 66.7695 -2.61576 -2.22335 0
M  V30 653 C 65.8555 -3.78213 -1.91874 0
M  V30 654 N 66.2465 -4.88344 -1.31733 0
M  V30 655 C 64.5445 -3.8694 -2.21796 0
M  V30 656 C 65.2455 -5.69462 -1.1869 0
M  V30 657 N 64.2215 -5.16771 -1.68666 0
M  V30 658 H 68.0235 -2.90029 -0.475441 0
M  V30 659 H 65.5375 -1.61581 -0.162911 0
M  V30 660 H 67.5345 -2.95651 -2.93932 0
M  V30 661 H 66.1945 -1.80465 -2.69931 0
M  V30 662 H 67.2055 -5.08335 -0.990729 0
M  V30 663 H 63.8825 -3.16757 -2.71977 0
M  V30 664 H 65.2725 -6.68023 -0.720793 0
M  V30 665 N 67.9926 0.231505 -1.5589 0
M  V30 666 C 69.2416 0.955346 -1.7764 0
M  V30 667 C 69.5546 1.85893 -0.608546 0
M  V30 668 O 70.7606 2.62067 -0.70943 0
M  V30 669 C 69.2166 1.74886 -3.14552 0
M  V30 670 C 68.8246 0.891915 -4.39032 0
M  V30 671 C 70.5686 2.46452 -3.45633 0
M  V30 672 C 68.4756 1.68221 -5.66971 0
M  V30 673 H 67.4056 0.360446 -0.662265 0
M  V30 674 H 70.0566 0.209516 -1.823 0
M  V30 675 H 68.4386 2.53723 -3.04041 0
M  V30 676 H 69.6126 0.144793 -4.60572 0
M  V30 677 H 67.9276 0.288863 -4.15397 0
M  V30 678 H 70.5246 3.06061 -4.38441 0
M  V30 679 H 70.8676 3.18841 -2.67668 0
M  V30 680 H 71.4006 1.74613 -3.57428 0
M  V30 681 H 68.1396 1.00178 -6.478 0
M  V30 682 H 67.6596 2.4042 -5.49507 0
M  V30 683 H 69.3386 2.24544 -6.06786 0
M  V30 684 N 69.4707 1.49531 0.497807 0
M  V30 685 C 70.4177 1.66436 1.59899 0
M  V30 686 C 71.3877 0.505793 1.58212 0
M  V30 687 O 72.5727 0.733202 1.7615 0
M  V30 688 C 69.7127 1.7399 2.98029 0
M  V30 689 C 68.8257 3.01172 3.09708 0
M  V30 690 C 67.9607 2.99686 4.38591 0
M  V30 691 C 66.9997 4.21434 4.43914 0
M  V30 692 N 66.1367 4.1784 5.64229 0
M  V30 693 H 70.9767 2.60459 1.44793 0
M  V30 694 H 68.5137 1.29137 0.704423 0
M  V30 695 H 70.4717 1.76352 3.78095 0
M  V30 696 H 69.1017 0.834301 3.11832 0
M  V30 697 H 68.1537 3.08408 2.22685 0
M  V30 698 H 69.4657 3.91165 3.09502 0
M  V30 699 H 68.6197 3.00628 5.2698 0
M  V30 700 H 67.3587 2.07477 4.41367 0
M  V30 701 H 66.3637 4.20733 3.53926 0
M  V30 702 H 67.5887 5.14839 4.42851 0
M  V30 703 H 65.5347 3.28469 5.67841 0
M  V30 704 H 65.4517 5.01571 5.65652 0
M  V30 705 H 66.7197 4.22889 6.54817 0
M  V30 706 N 70.9488 -0.749086 1.3866 0
M  V30 707 C 71.8588 -1.89358 1.38494 0
M  V30 708 C 72.8748 -1.71708 0.281476 0
M  V30 709 O 74.0508 -1.94554 0.520643 0
M  V30 710 C 71.1158 -3.24782 1.21316 0
M  V30 711 C 70.1768 -3.54926 2.41508 0
M  V30 712 C 69.4098 -4.83888 2.2514 0
M  V30 713 O 69.6328 -5.56592 1.24746 0
M  V30 714 O 68.5668 -5.13612 3.13826 0
M  V30 715 H 72.3928 -1.92452 2.34938 0
M  V30 716 H 69.9778 -0.894981 1.19626 0
M  V30 717 H 71.8598 -4.05739 1.13814 0
M  V30 718 H 70.5348 -3.2249 0.279592 0
M  V30 719 H 69.4418 -2.74112 2.54585 0
M  V30 720 H 70.7748 -3.61983 3.3351 0
M  V30 721 N 72.4269 -1.23603 -0.977757 0
M  V30 722 C 73.6569 -1.09487 -1.75203 0
M  V30 723 C 74.0649 0.356321 -1.85814 0
M  V30 724 O 73.4079 1.25816 -1.33851 0
M  V30 725 C 73.4699 -1.64905 -3.19447 0
M  V30 726 C 73.1339 -3.13688 -3.32338 0
M  V30 727 C 74.1309 -4.10953 -3.18455 0
M  V30 728 C 71.8159 -3.53449 -3.56902 0
M  V30 729 C 73.8099 -5.45962 -3.28944 0
M  V30 730 C 71.4969 -4.88602 -3.6703 0
M  V30 731 C 72.4949 -5.84668 -3.53062 0
M  V30 732 O 72.1829 -7.17365 -3.62826 0
M  V30 733 H 71.9149 -0.38367 -0.556573 0
M  V30 734 H 74.4689 -1.6398 -1.23693 0
M  V30 735 H 72.6989 -1.04835 -3.72218 0
M  V30 736 H 74.3879 -1.46226 -3.78646 0
M  V30 737 H 75.1539 -3.81577 -2.99372 0
M  V30 738 H 71.0329 -2.79188 -3.66844 0
M  V30 739 H 74.5769 -6.20925 -3.17958 0
M  V30 740 H 70.4739 -5.17653 -3.85623 0
M  V30 741 H 71.2419 -7.2515 -3.79605 0
M  V30 742 N 73.905 1.17692 -1.04816 0
M  V30 743 C 75.152 1.87859 -0.75599 0
M  V30 744 C 75.48 1.80812 0.716752 0
M  V30 745 O 74.735 1.20819 1.53952 0
M  V30 746 C 75.034 3.37462 -1.17703 0
M  V30 747 C 74.7 3.64713 -2.65133 0
M  V30 748 C 73.362 3.71859 -3.05408 0
M  V30 749 C 75.714 3.76492 -3.60421 0
M  V30 750 C 73.042 3.88271 -4.39843 0
M  V30 751 C 75.394 3.94421 -4.94585 0
M  V30 752 C 74.058 3.99806 -5.3452 0
M  V30 753 H 73.328 0.687425 -0.276636 0
M  V30 754 H 75.975 1.39255 -1.31455 0
M  V30 755 H 74.28 3.88097 -0.537395 0
M  V30 756 H 75.977 3.90109 -0.928218 0
M  V30 757 H 72.567 3.59772 -2.32942 0
M  V30 758 H 76.751 3.70295 -3.30447 0
M  V30 759 H 72.007 3.90687 -4.70291 0
M  V30 760 H 76.181 4.02477 -5.68318 0
M  V30 761 H 73.808 4.12276 -6.38696 0
M  V30 762 N 75.3831 0.828654 1.34056 0
M  V30 763 C 76.6131 0.431993 2.02033 0
M  V30 764 C 77.0211 -0.96844 1.62536 0
M  V30 765 O 76.3641 -1.6391 0.829408 0
M  V30 766 C 76.4261 0.461224 3.56529 0
M  V30 767 C 76.0901 1.81599 4.1937 0
M  V30 768 C 77.0871 2.7777 4.39477 0
M  V30 769 C 74.7721 2.10604 4.56017 0
M  V30 770 C 76.7661 4.01115 4.95364 0
M  V30 771 C 74.4531 3.34207 5.11614 0
M  V30 772 C 75.4511 4.2928 5.31232 0
M  V30 773 O 75.1391 5.50699 5.8565 0
M  V30 774 H 74.8711 0.170943 0.654029 0
M  V30 775 H 77.4251 1.11988 1.72185 0
M  V30 776 H 75.6551 -0.283388 3.8566 0
M  V30 777 H 77.3441 0.0838149 4.05813 0
M  V30 778 H 78.1101 2.56659 4.11523 0
M  V30 779 H 73.9891 1.37402 4.40047 0
M  V30 780 H 77.5331 4.75333 5.10592 0
M  V30 781 H 73.4301 3.55179 5.38997 0
M  V30 782 H 74.1981 5.52298 6.04077 0
M  V30 783 N 76.8612 -1.46375 0.584142 0
M  V30 784 C 78.0892 -2.06761 0.0759296 0
M  V30 785 C 78.5042 -1.43266 -1.22965 0
M  V30 786 O 77.8612 -0.538458 -1.74376 0
M  V30 787 C 77.9122 -3.61375 -0.0950384 0
M  V30 788 O 77.6332 -4.22495 1.15887 0
M  V30 789 C 79.1342 -4.38693 -0.637434 0
M  V30 790 H 76.3542 -0.668479 0.0581075 0
M  V30 791 H 78.8982 -1.8798 0.805218 0
M  V30 792 H 77.0532 -3.79578 -0.774554 0
M  V30 793 H 77.4672 -5.15385 0.973598 0
M  V30 794 H 78.9412 -5.47464 -0.706237 0
M  V30 795 H 79.4182 -4.06836 -1.65472 0
M  V30 796 H 80.0242 -4.25299 0.00725967 0
M  V30 797 N 78.3393 -0.321999 -1.54275 0
M  V30 798 C 79.5643 0.285791 -2.05422 0
M  V30 799 C 79.9893 1.45124 -1.19669 0
M  V30 800 O 79.3473 1.80132 -0.205441 0
M  V30 801 C 79.3953 0.69956 -3.53749 0
M  V30 802 O 78.4993 1.8021 -3.70942 0
M  V30 803 H 77.8403 0.0518962 -0.661969 0
M  V30 804 H 80.3703 -0.469954 -1.9913 0
M  V30 805 H 80.3803 0.982649 -3.9599 0
M  V30 806 H 79.0553 -0.152864 -4.15619 0
M  V30 807 H 77.6323 1.51794 -3.40607 0
M  V30 808 N 79.8174 1.5752 -0.0501392 0
M  V30 809 C 81.0654 1.9227 0.622642 0
M  V30 810 C 81.3864 0.929083 1.71444 0
M  V30 811 O 80.6564 -0.0262186 1.95882 0
M  V30 812 H 79.2364 0.709739 0.232981 0
M  V30 813 H 81.8984 1.94628 -0.102898 0
M  V30 814 H 80.9944 2.93479 1.06191 0
M  V30 815 N 81.2955 -0.223234 1.56011 0
M  V30 816 C 82.2425 -1.27664 1.92277 0
M  V30 817 C 83.2125 -1.46659 0.779763 0
M  V30 818 O 84.3975 -1.60256 1.03551 0
M  V30 819 C 81.5375 -2.62234 2.24338 0
M  V30 820 C 80.6505 -2.51051 3.51564 0
M  V30 821 C 79.7855 -3.78133 3.7308 0
M  V30 822 C 78.8245 -3.61665 4.93827 0
M  V30 823 N 77.9615 -4.80693 5.11741 0
M  V30 824 H 82.8015 -0.960358 2.82101 0
M  V30 825 H 80.3385 -0.462901 1.39627 0
M  V30 826 H 82.2965 -3.40596 2.40936 0
M  V30 827 H 80.9265 -2.91961 1.3769 0
M  V30 828 H 79.9785 -1.64132 3.43169 0
M  V30 829 H 81.2905 -2.34803 4.40079 0
M  V30 830 H 80.4445 -4.64938 3.89766 0
M  V30 831 H 79.1835 -3.97304 2.82844 0
M  V30 832 H 78.1885 -2.73244 4.77093 0
M  V30 833 H 79.4135 -3.43966 5.85546 0
M  V30 834 H 77.3595 -5.00181 4.24446 0
M  V30 835 H 77.2765 -4.67165 5.94384 0
M  V30 836 H 78.5445 -5.6893 5.3286 0
M  V30 837 N 82.7736 -1.49793 -0.48987 0
M  V30 838 C 84.0136 -1.61466 -1.25332 0
M  V30 839 C 84.3776 -0.299688 -1.89647 0
M  V30 840 O 85.5786 -0.291687 -2.67213 0
M  V30 841 C 83.8496 -2.74944 -2.28343 0
M  V30 842 S 85.4086 -3.06637 -3.13878 0
M  V30 843 H 82.2266 -0.569411 -0.425784 0
M  V30 844 H 84.8286 -1.875 -0.553541 0
M  V30 845 H 83.5326 -3.68994 -1.79643 0
M  V30 846 H 83.0636 -2.50938 -3.02975 0
M  V30 847 H 85.0786 -2.49015 -4.29192 0
M  V30 848 N 84.2517 0.741722 -1.39055 0
M  V30 849 C 85.4767 1.53607 -1.39354 0
M  V30 850 C 85.9017 1.88096 0.0116905 0
M  V30 851 O 85.2597 1.5143 0.996924 0
M  V30 852 C 85.3077 2.80441 -2.26682 0
M  V30 853 O 84.4117 3.76088 -1.69208 0
M  V30 854 H 83.7527 0.464142 -0.474835 0
M  V30 855 H 86.2827 0.915665 -1.82967 0
M  V30 856 H 86.2927 3.29246 -2.40959 0
M  V30 857 H 84.9677 2.5467 -3.2881 0
M  V30 858 H 83.5447 3.34833 -1.64138 0
M  V30 859 N 85.7298 1.2412 0.971189 0
M  V30 860 C 86.6778 1.02812 2.08644 0
M  V30 861 C 87.6718 -0.0358403 1.69362 0
M  V30 862 O 88.8778 0.118429 1.7961 0
M  V30 863 H 85.2528 0.315428 0.682649 0
M  V30 864 H 87.2238 1.97397 2.23779 0
M  V30 865 C 85.9728 0.645874 3.41649 0
M  V30 866 H 85.2958 1.45632 3.72332 0
M  V30 867 H 86.7358 0.536366 4.20594 0
M  V30 868 C 85.1948 -0.646713 3.30635 0
M  V30 869 O 85.7248 -1.69338 3.64263 0
M  V30 870 N 83.9308 -0.626115 2.83775 0
M  V30 871 H 83.4778 0.225988 2.56607 0
M  V30 872 H 83.4358 -1.49117 2.76788 0
M  V30 873 N 87.2079 -1.17134 1.05439 0
M  V30 874 C 88.6189 -1.69084 0.791676 0
M  V30 875 C 88.9699 -1.83822 -0.685839 0
M  V30 876 O 88.0949 -1.52757 -1.53278 0
M  V30 877 C 88.6899 -3.07119 1.4305 0
M  V30 878 C 87.2489 -3.56225 1.21577 0
M  V30 879 C 86.3959 -2.32421 1.51247 0
M  V30 880 H 89.3469 -1.01617 1.219 0
M  V30 881 H 89.3679 -3.71087 0.84112 0
M  V30 882 H 88.8799 -2.9636 2.50584 0
M  V30 883 H 86.9809 -3.72257 0.159787 0
M  V30 884 H 87.0939 -4.38837 1.92246 0
M  V30 885 H 85.4579 -2.3701 0.932653 0
M  V30 886 H 86.2409 -2.24268 2.5992 0
M  V30 887 N 88.686 -0.835752 -1.33615 0
M  V30 888 C 89.649 -0.272 -2.2758 0
M  V30 889 C 90.649 0.557487 -1.50827 0
M  V30 890 O 91.839 0.37173 -1.70188 0
M  V30 891 C 88.971 0.617173 -3.35267 0
M  V30 892 H 90.164 -1.10111 -2.78954 0
M  V30 893 H 87.717 -0.608594 -1.43965 0
M  V30 894 H 88.452 1.46884 -2.89129 0
M  V30 895 H 88.237 0.0237066 -3.92093 0
M  V30 896 H 89.727 1.005 -4.05326 0
M  V30 897 N 90.1641 1.46063 -0.591896 0
M  V30 898 C 91.4101 2.02638 -0.0811191 0
M  V30 899 C 91.7431 1.4613 1.27905 0
M  V30 900 O 91.0181 0.629908 1.84017 0
M  V30 901 C 91.3011 3.60091 -0.0252436 0
M  V30 902 C 91.1541 4.26965 -1.41496 0
M  V30 903 C 92.4731 4.3496 0.670685 0
M  V30 904 H 89.5921 0.73635 -0.0309524 0
M  V30 905 H 92.2341 1.741 -0.760859 0
M  V30 906 H 90.3841 3.84535 0.553624 0
M  V30 907 H 92.0561 4.13756 -2.0397 0
M  V30 908 H 90.2991 3.85971 -1.98011 0
M  V30 909 H 90.9701 5.35781 -1.32825 0
M  V30 910 H 93.4461 4.15716 0.178825 0
M  V30 911 H 92.3221 5.44686 0.678837 0
M  V30 912 H 92.5831 4.06685 1.73379 0
M  V30 913 N 91.6422 0.330177 1.54103 0
M  V30 914 C 92.8882 -0.270806 2.00984 0
M  V30 915 C 93.2212 -1.51265 1.21789 0
M  V30 916 O 92.4962 -1.92142 0.301927 0
M  V30 917 C 92.7792 -0.598339 3.55094 0
M  V30 918 C 92.6322 0.654674 4.4501 0
M  V30 919 C 93.9512 -1.41334 4.16789 0
M  V30 920 H 91.0702 -0.0969531 0.730595 0
M  V30 921 H 93.7122 0.448066 1.84641 0
M  V30 922 H 91.8622 -1.21078 3.69151 0
M  V30 923 H 93.5342 1.29285 4.42813 0
M  V30 924 H 91.7772 1.28224 4.14416 0
M  V30 925 H 92.4482 0.380944 5.50684 0
M  V30 926 H 94.9242 -0.895597 4.06347 0
M  V30 927 H 93.8002 -1.61127 5.24718 0
M  V30 928 H 94.0612 -2.41146 3.70541 0
M  V30 929 N 93.1203 -1.57491 0.0584922 0
M  V30 930 C 94.3673 -1.92978 -0.613648 0
M  V30 931 C 94.6953 -0.937461 -1.70417 0
M  V30 932 O 93.9503 0.049078 -1.95638 0
M  V30 933 C 94.2493 -3.3513 -1.24188 0
M  V30 934 C 93.9153 -4.50037 -0.278826 0
M  V30 935 C 92.5773 -4.81198 -0.0138447 0
M  V30 936 C 94.9293 -5.19807 0.380777 0
M  V30 937 C 92.2573 -5.79473 0.918052 0
M  V30 938 C 94.6093 -6.19079 1.30091 0
M  V30 939 C 93.2733 -6.48665 1.57449 0
M  V30 940 H 92.5433 -0.706157 -0.22455 0
M  V30 941 H 95.1903 -1.91082 0.126533 0
M  V30 942 H 93.4953 -3.33429 -2.05749 0
M  V30 943 H 95.1923 -3.59871 -1.769 0
M  V30 944 H 91.7823 -4.25726 -0.495539 0
M  V30 945 H 95.9663 -4.95939 0.189158 0
M  V30 946 H 91.2223 -6.00727 1.1374 0
M  V30 947 H 95.3963 -6.7225 1.81804 0
M  V30 948 H 93.0233 -7.24628 2.29822 0
M  V30 949 N 94.5984 0.214957 -1.56127 0
M  V30 950 C 95.8444 0.939762 -1.79712 0
M  V30 951 C 96.1774 1.83723 -0.629247 0
M  V30 952 O 95.4524 1.90925 0.371197 0
M  V30 953 C 95.7354 1.77306 -3.13424 0
M  V30 954 C 95.5884 0.90164 -4.40671 0
M  V30 955 C 96.9074 2.74956 -3.43638 0
M  V30 956 H 94.0264 0.340214 -0.653776 0
M  V30 957 H 96.6684 0.20824 -1.88855 0
M  V30 958 H 94.8184 2.39673 -3.0576 0
M  V30 959 H 96.4904 0.294206 -4.60361 0
M  V30 960 H 94.7334 0.207368 -4.33304 0
M  V30 961 H 95.4044 1.51923 -5.30682 0
M  V30 962 H 97.8804 2.22724 -3.51473 0
M  V30 963 H 96.7564 3.30358 -4.38355 0
M  V30 964 H 97.0174 3.53023 -2.66134 0
M  V30 965 N 96.0765 1.50051 0.48192 0
M  V30 966 C 97.3045 1.64237 1.25832 0
M  V30 967 C 97.7195 0.321336 1.86045 0
M  V30 968 O 97.0765 -0.695478 1.68729 0
M  V30 969 C 97.1275 2.72548 2.37487 0
M  V30 970 O 96.8485 3.99529 1.79745 0
M  V30 971 C 98.3495 2.9761 3.28547 0
M  V30 972 H 95.5695 0.55237 0.380957 0
M  V30 973 H 98.1135 1.96207 0.576467 0
M  V30 974 H 96.2685 2.43303 3.01467 0
M  V30 975 H 96.6825 4.59342 2.5319 0
M  V30 976 H 98.1565 3.77084 4.03127 0
M  V30 977 H 98.6335 2.0826 3.86684 0
M  V30 978 H 99.2395 3.28345 2.70314 0
M  V30 979 N 97.5546 -0.734337 1.39446 0
M  V30 980 C 98.9706 -1.03997 1.21065 0
M  V30 981 C 99.1706 -2.01369 0.0727019 0
M  V30 982 O 98.2266 -2.45856 -0.575426 0
M  V30 983 C 99.5396 -1.60163 2.54496 0
M  V30 984 C 101.088 -1.7224 2.61347 0
M  V30 985 C 101.563 -2.31814 3.95002 0
M  V30 986 N 103.054 -2.39223 3.96644 0
M  V30 987 C 103.789 -2.86258 4.96834 0
M  V30 988 N 103.285 -3.33184 6.07421 0
M  V30 989 N 105.078 -2.85473 4.84213 0
M  V30 990 H 97.2286 -0.0885624 2.12215 0
M  V30 991 H 99.4916 -0.10191 0.942506 0
M  V30 992 H 99.1976 -0.960811 3.38321 0
M  V30 993 H 99.0716 -2.5896 2.74262 0
M  V30 994 H 101.459 -2.35443 1.77906 0
M  V30 995 H 101.54 -0.720939 2.4543 0
M  V30 996 H 101.184 -1.69238 4.78875 0
M  V30 997 H 101.114 -3.32638 4.08239 0
M  V30 998 H 103.605 -2.06057 3.16779 0
M  V30 999 H 103.918 -3.67586 6.7978 0
M  V30 1000 H 102.263 -3.31191 6.11013 0
M  V30 1001 H 105.454 -2.48136 3.96921 0
M  V30 1002 H 105.627 -3.21814 5.62441 0
M  V30 1003 N 99.0327 -1.24633 -0.964593 0
M  V30 1004 C 99.9797 -1.04144 -2.05968 0
M  V30 1005 C 100.95 0.046262 -1.66036 0
M  V30 1006 O 102.135 -0.108972 -1.90489 0
M  V30 1007 C 99.2747 -0.65563 -3.38815 0
M  V30 1008 C 98.3877 -1.81714 -3.91923 0
M  V30 1009 C 97.5227 -1.37662 -5.13052 0
M  V30 1010 C 96.5617 -2.50788 -5.58365 0
M  V30 1011 N 95.6987 -2.07582 -6.70712 0
M  V30 1012 H 100.539 -1.9787 -2.22827 0
M  V30 1013 H 98.0757 -0.9855 -1.09208 0
M  V30 1014 H 100.034 -0.412954 -4.15151 0
M  V30 1015 H 98.6637 0.244627 -3.21872 0
M  V30 1016 H 97.7157 -2.1734 -3.12198 0
M  V30 1017 H 99.0277 -2.66705 -4.21509 0
M  V30 1018 H 98.1817 -1.093 -5.96773 0
M  V30 1019 H 96.9207 -0.497293 -4.85158 0
M  V30 1020 H 95.9257 -2.79906 -4.73215 0
M  V30 1021 H 97.1507 -3.39283 -5.88272 0
M  V30 1022 H 95.0967 -1.22051 -6.44546 0
M  V30 1023 H 95.0137 -2.86125 -6.99763 0
M  V30 1024 H 96.2817 -1.82369 -7.57867 0
M  V30 1025 N 100.511 1.16574 -1.06058 0
M  V30 1026 C 101.459 2.22941 -0.663343 0
M  V30 1027 C 102.453 1.66358 0.319593 0
M  V30 1028 O 103.659 1.7905 0.184713 0
M  V30 1029 H 100.034 0.725907 -0.196376 0
M  V30 1030 H 102.005 2.53736 -1.57037 0
M  V30 1031 C 100.754 3.47642 -0.0632808 0
M  V30 1032 H 100.077 3.91493 -0.810733 0
M  V30 1033 H 101.517 4.2363 0.177177 0
M  V30 1034 C 99.9758 3.1509 1.19248 0
M  V30 1035 O 100.506 3.30673 2.28075 0
M  V30 1036 N 98.7118 2.6924 1.09353 0
M  V30 1037 H 98.2588 2.5676 0.207912 0
M  V30 1038 H 98.2168 2.47833 1.93458 0
M  V30 1039 N 101.989 0.842826 1.3317 0
M  V30 1040 C 103.405 0.531128 1.50503 0
M  V30 1041 C 103.605 -0.940734 1.78192 0
M  V30 1042 O 102.661 -1.72436 1.84451 0
M  V30 1043 C 103.974 1.40789 2.65705 0
M  V30 1044 C 105.522 1.40708 2.79589 0
M  V30 1045 C 105.997 2.26878 3.97857 0
M  V30 1046 N 107.488 2.24609 4.05099 0
M  V30 1047 C 108.223 2.88019 4.95815 0
M  V30 1048 N 107.719 3.60496 5.9162 0
M  V30 1049 N 109.512 2.77469 4.88843 0
M  V30 1050 H 101.663 1.79557 1.1346 0
M  V30 1051 H 103.926 0.766267 0.558156 0
M  V30 1052 H 103.632 2.454 2.51936 0
M  V30 1053 H 103.506 1.08677 3.61205 0
M  V30 1054 H 105.893 0.368668 2.92788 0
M  V30 1055 H 105.974 1.76829 1.84838 0
M  V30 1056 H 105.618 3.3078 3.85418 0
M  V30 1057 H 105.548 1.88096 4.91861 0
M  V30 1058 H 108.039 1.71906 3.36536 0
M  V30 1059 H 108.352 4.06076 6.57512 0
M  V30 1060 H 106.697 3.64604 5.91683 0
M  V30 1061 H 109.888 2.20406 4.12963 0
M  V30 1062 H 110.061 3.2717 5.59342 0
M  V30 1063 N 103.467 -1.45747 0.599634 0
M  V30 1064 C 104.399 -2.28628 -0.161879 0
M  V30 1065 C 105.412 -1.39494 -0.839367 0
M  V30 1066 O 106.601 -1.63941 -0.706089 0
M  V30 1067 C 103.701 -3.15014 -1.24976 0
M  V30 1068 C 102.874 -4.32378 -0.660935 0
M  V30 1069 C 101.933 -5.00033 -1.63869 0
M  V30 1070 O 100.959 -5.57085 -1.1681 0
M  V30 1071 N 102.161 -4.98589 -2.97303 0
M  V30 1072 H 104.926 -2.94624 0.549265 0
M  V30 1073 H 102.487 -1.55847 0.438565 0
M  V30 1074 H 104.479 -3.5714 -1.9035 0
M  V30 1075 H 103.049 -2.5098 -1.86354 0
M  V30 1076 H 102.269 -3.9383 0.170688 0
M  V30 1077 H 103.557 -5.08197 -0.247619 0
M  V30 1078 H 102.955 -4.53514 -3.38145 0
M  V30 1079 H 101.512 -5.44603 -3.58121 0
M  V30 1080 N 104.945 -0.338344 -1.53925 0
M  V30 1081 C 106.191 0.260143 -2.01125 0
M  V30 1082 C 106.524 1.50617 -1.22589 0
M  V30 1083 O 105.799 1.91979 -0.312113 0
M  V30 1084 C 106.082 0.579499 -3.55407 0
M  V30 1085 C 105.935 -0.678264 -4.44657 0
M  V30 1086 C 107.254 1.39122 -4.17532 0
M  V30 1087 H 104.373 0.0930772 -0.731099 0
M  V30 1088 H 107.015 -0.457852 -1.84401 0
M  V30 1089 H 105.165 1.19118 -3.69788 0
M  V30 1090 H 106.837 -1.31631 -4.42121 0
M  V30 1091 H 105.08 -1.3042 -4.13731 0
M  V30 1092 H 105.751 -0.410143 -5.50474 0
M  V30 1093 H 108.227 0.874035 -4.06817 0
M  V30 1094 H 107.103 1.58342 -5.25565 0
M  V30 1095 H 107.364 2.39178 -3.71815 0
M  V30 1096 N 106.423 1.57458 -0.0668435 0
M  V30 1097 C 107.663 1.95175 0.607116 0
M  V30 1098 C 108.027 0.946039 1.67075 0
M  V30 1099 O 109.228 1.2107 2.39991 0
M  V30 1100 C 107.499 3.37582 1.17358 0
M  V30 1101 S 109.058 3.97271 1.86336 0
M  V30 1102 H 105.876 0.682604 0.19893 0
M  V30 1103 H 108.478 1.95002 -0.139519 0
M  V30 1104 H 107.182 4.08566 0.387553 0
M  V30 1105 H 106.713 3.41288 1.95669 0
M  V30 1106 H 108.728 3.83772 3.14537 0
M  V30 1107 N 107.901 -0.206675 1.56239 0
M  V30 1108 C 108.864 -1.23976 1.92776 0
M  V30 1109 C 109.864 -1.39041 0.807729 0
M  V30 1110 O 111.054 -1.37051 1.0753 0
M  V30 1111 C 108.186 -2.61112 2.19165 0
M  V30 1112 H 109.379 -0.927764 2.85189 0
M  V30 1113 H 106.932 -0.447718 1.4975 0
M  V30 1114 H 107.667 -2.97386 1.29352 0
M  V30 1115 H 107.452 -2.51552 3.00772 0
M  V30 1116 H 108.942 -3.35633 2.48476 0
M  V30 1117 N 109.379 -1.50304 -0.473955 0
M  V30 1118 C 110.327 -1.69482 -1.59307 0
M  V30 1119 C 111.321 -0.560669 -1.59853 0
M  V30 1120 O 112.527 -0.741087 -1.64036 0
M  V30 1121 H 108.902 -0.534892 -0.528578 0
M  V30 1122 H 110.873 -2.63364 -1.40293 0
M  V30 1123 C 109.622 -1.80354 -2.97267 0
M  V30 1124 H 108.945 -2.67012 -2.97564 0
M  V30 1125 H 110.385 -1.97798 -3.75036 0
M  V30 1126 C 108.844 -0.55448 -3.32306 0
M  V30 1127 O 109.374 0.307661 -4.0052 0
M  V30 1128 N 107.58 -0.409354 -2.87702 0
M  V30 1129 H 107.127 -1.11196 -2.32364 0
M  V30 1130 H 107.085 0.425223 -3.11511 0
M  V30 1131 N 110.857 0.726932 -1.39834 0
M  V30 1132 C 112.268 1.30558 -1.3346 0
M  V30 1133 C 112.619 1.962 -0.00273003 0
M  V30 1134 O 111.744 1.96826 0.899371 0
M  V30 1135 C 112.339 2.37404 -2.41713 0
M  V30 1136 C 110.898 2.90921 -2.38835 0
M  V30 1137 C 110.045 1.64578 -2.2318 0
M  V30 1138 H 112.996 0.523862 -1.49804 0
M  V30 1139 H 113.017 3.17984 -2.08966 0
M  V30 1140 H 112.529 1.89599 -3.38635 0
M  V30 1141 H 110.63 3.42985 -1.45575 0
M  V30 1142 H 110.743 3.43487 -3.33997 0
M  V30 1143 H 109.107 1.89219 -1.70494 0
M  V30 1144 H 109.89 1.18814 -3.22084 0
M  V30 1145 N 112.336 1.25143 0.95797 0
M  V30 1146 C 113.246 1.06968 2.08794 0
M  V30 1147 C 114.262 0.00773911 1.73998 0
M  V30 1148 O 115.438 0.207972 2.00323 0
M  V30 1149 C 112.503 0.68691 3.39827 0
M  V30 1150 C 111.564 1.82641 3.88511 0
M  V30 1151 C 110.797 1.46181 5.1329 0
M  V30 1152 O 111.02 0.355971 5.69288 0
M  V30 1153 O 109.954 2.29085 5.566 0
M  V30 1154 H 113.78 2.01723 2.27027 0
M  V30 1155 H 111.365 1.04051 1.07209 0
M  V30 1156 H 113.247 0.485417 4.18595 0
M  V30 1157 H 111.922 -0.231417 3.22872 0
M  V30 1158 H 110.829 2.08274 3.10762 0
M  V30 1159 H 112.162 2.72386 4.09959 0
M  V30 1160 N 113.814 -1.1601 1.06675 0
M  V30 1161 C 114.761 -2.20525 0.680967 0
M  V30 1162 C 115.731 -1.62904 -0.324283 0
M  V30 1163 O 116.916 -1.89615 -0.212294 0
M  V30 1164 C 114.056 -3.45013 0.0776551 0
M  V30 1165 C 113.169 -4.16863 1.13355 0
M  V30 1166 C 112.304 -5.2888 0.49597 0
M  V30 1167 C 111.343 -5.92537 1.53513 0
M  V30 1168 N 110.48 -6.96038 0.920631 0
M  V30 1169 H 115.32 -2.52876 1.57663 0
M  V30 1170 H 112.857 -1.24199 0.788223 0
M  V30 1171 H 114.815 -4.16193 -0.289704 0
M  V30 1172 H 113.445 -3.132 -0.781393 0
M  V30 1173 H 112.497 -3.44248 1.61857 0
M  V30 1174 H 113.809 -4.60294 1.92174 0
M  V30 1175 H 112.963 -6.06653 0.0758604 0
M  V30 1176 H 111.702 -4.86622 -0.324062 0
M  V30 1177 H 110.707 -5.13482 1.9651 0
M  V30 1178 H 111.932 -6.36873 2.35733 0
M  V30 1179 H 109.878 -6.55888 0.12138 0
M  V30 1180 H 109.795 -7.3786 1.64616 0
M  V30 1181 H 111.063 -7.77725 0.525795 0
M  V30 1182 N 115.292 -0.849877 -1.32721 0
M  V30 1183 C 116.239 -0.289033 -2.28983 0
M  V30 1184 C 117.209 0.601324 -1.54833 0
M  V30 1185 O 118.394 0.537253 -1.8308 0
M  V30 1186 C 115.534 0.520623 -3.4115 0
M  V30 1187 C 114.647 -0.394989 -4.3019 0
M  V30 1188 C 113.782 0.426834 -5.29482 0
M  V30 1189 C 112.821 -0.486476 -6.10164 0
M  V30 1190 N 111.958 0.297879 -7.01468 0
M  V30 1191 H 116.798 -1.11519 -2.76347 0
M  V30 1192 H 114.335 -0.56138 -1.35967 0
M  V30 1193 H 116.293 1.00563 -4.04899 0
M  V30 1194 H 114.923 1.31165 -2.9495 0
M  V30 1195 H 113.975 -0.99836 -3.67065 0
M  V30 1196 H 115.287 -1.09612 -4.86607 0
M  V30 1197 H 114.441 0.975205 -5.98811 0
M  V30 1198 H 113.18 1.16136 -4.73671 0
M  V30 1199 H 112.185 -1.04677 -5.39743 0
M  V30 1200 H 113.41 -1.21953 -6.6806 0
M  V30 1201 H 111.356 1.01558 -6.48091 0
M  V30 1202 H 111.273 -0.344318 -7.55216 0
M  V30 1203 H 112.541 0.828131 -7.75089 0
M  V30 1204 N 116.77 1.45427 -0.607355 0
M  V30 1205 C 118.016 2.03097 -0.111035 0
M  V30 1206 C 118.371 1.46735 1.24445 0
M  V30 1207 O 117.664 0.632478 1.8086 0
M  V30 1208 C 117.858 3.57398 -0.0129263 0
M  V30 1209 C 117.687 4.28726 -1.35735 0
M  V30 1210 C 116.457 4.66659 -1.93798 0
M  V30 1211 C 118.655 4.60699 -2.28607 0
M  V30 1212 N 116.637 5.22845 -3.21723 0
M  V30 1213 C 118.008 5.17716 -3.41131 0
M  V30 1214 C 120.063 4.42638 -2.27982 0
M  V30 1215 C 118.766 5.58576 -4.53194 0
M  V30 1216 C 120.792 4.84531 -3.39093 0
M  V30 1217 C 120.154 5.4164 -4.50339 0
M  V30 1218 H 116.253 0.777476 -0.083994 0
M  V30 1219 H 118.837 1.77249 -0.805655 0
M  V30 1220 H 117.008 3.82907 0.650914 0
M  V30 1221 H 118.74 4.01722 0.490033 0
M  V30 1222 H 115.495 4.50207 -1.47007 0
M  V30 1223 H 115.919 5.55438 -3.87063 0
M  V30 1224 H 120.561 3.97798 -1.43235 0
M  V30 1225 H 118.279 6.02382 -5.38667 0
M  V30 1226 H 121.865 4.72289 -3.39757 0
M  V30 1227 H 120.745 5.73461 -5.34895 0
M  V30 1228 N 118.248 0.346503 1.53744 0
M  V30 1229 C 119.494 -0.249473 2.0126 0
M  V30 1230 C 119.827 -1.49965 1.23386 0
M  V30 1231 O 119.102 -1.91811 0.32229 0
M  V30 1232 C 119.385 -0.560643 3.55709 0
M  V30 1233 C 119.238 0.701836 4.44291 0
M  V30 1234 C 120.557 -1.36905 4.18264 0
M  V30 1235 H 117.676 -0.0891987 0.731582 0
M  V30 1236 H 120.318 0.467624 1.84156 0
M  V30 1237 H 118.468 -1.17156 3.70414 0
M  V30 1238 H 120.14 1.33974 4.41417 0
M  V30 1239 H 118.383 1.32612 4.13033 0
M  V30 1240 H 119.054 0.43933 5.50249 0
M  V30 1241 H 121.53 -0.852448 4.07275 0
M  V30 1242 H 120.406 -1.55553 5.26398 0
M  V30 1243 H 120.667 -2.37203 3.73078 0
M  V30 1244 N 119.726 -1.57421 0.075193 0
M  V30 1245 C 121.142 -1.57099 -0.281444 0
M  V30 1246 C 121.342 -1.08486 -1.69803 0
M  V30 1247 O 120.398 -0.752279 -2.41033 0
M  V30 1248 C 121.711 -3.00571 -0.0880041 0
M  V30 1249 C 123.259 -3.12605 -0.157281 0
M  V30 1250 C 123.734 -4.57999 0.0079207 0
M  V30 1251 N 125.225 -4.63176 -0.0475725 0
M  V30 1252 C 125.96 -5.73373 0.0557876 0
M  V30 1253 N 125.456 -6.92473 0.21286 0
M  V30 1254 N 127.249 -5.621 -0.00152098 0
M  V30 1255 H 119.4 -1.87335 1.00098 0
M  V30 1256 H 121.663 -0.86377 0.390646 0
M  V30 1257 H 121.369 -3.40262 0.889629 0
M  V30 1258 H 121.243 -3.67754 -0.838875 0
M  V30 1259 H 123.63 -2.72798 -1.1254 0
M  V30 1260 H 123.711 -2.48053 0.62475 0
M  V30 1261 H 123.355 -4.98496 0.972824 0
M  V30 1262 H 123.285 -5.20586 -0.793556 0
M  V30 1263 H 125.776 -3.7753 -0.167244 0
M  V30 1264 H 126.089 -7.72279 0.283781 0
M  V30 1265 H 124.434 -6.94556 0.248267 0
M  V30 1266 H 127.625 -4.67938 -0.122958 0
M  V30 1267 H 127.798 -6.47948 0.0824844 0
M  V30 1268 N 121.204 0.198386 -1.56346 0
M  V30 1269 C 122.114 1.2664 -1.97483 0
M  V30 1270 C 123.13 1.49989 -0.882002 0
M  V30 1271 O 124.306 1.62668 -1.18748 0
M  V30 1272 C 121.371 2.59141 -2.30319 0
M  V30 1273 C 120.432 2.43892 -3.53292 0
M  V30 1274 C 119.665 3.70074 -3.84553 0
M  V30 1275 O 119.888 4.74101 -3.1715 0
M  V30 1276 O 118.822 3.658 -4.7799 0
M  V30 1277 H 122.648 0.947304 -2.88548 0
M  V30 1278 H 120.233 0.403123 -1.43859 0
M  V30 1279 H 122.115 3.37352 -2.5253 0
M  V30 1280 H 120.79 2.90684 -1.42423 0
M  V30 1281 H 119.697 1.63803 -3.36332 0
M  V30 1282 H 121.03 2.17282 -4.41644 0
M  V30 1283 N 122.682 1.50554 0.465978 0
M  V30 1284 C 123.912 1.65323 1.23903 0
M  V30 1285 C 124.32 0.338051 1.86155 0
M  V30 1286 O 123.663 -0.690518 1.70228 0
M  V30 1287 C 123.725 2.69048 2.3844 0
M  V30 1288 C 123.389 4.12462 1.96784 0
M  V30 1289 C 124.386 4.98168 1.48745 0
M  V30 1290 C 122.071 4.58407 2.05349 0
M  V30 1291 C 124.065 6.27868 1.0982 0
M  V30 1292 C 121.752 5.88112 1.66035 0
M  V30 1293 C 122.75 6.72668 1.18349 0
M  V30 1294 O 122.438 7.99951 0.795825 0
M  V30 1295 H 122.17 0.558629 0.38067 0
M  V30 1296 H 124.724 1.97561 0.562022 0
M  V30 1297 H 122.954 2.32062 3.09328 0
M  V30 1298 H 124.643 2.72985 3.0039 0
M  V30 1299 H 125.409 4.63885 1.41546 0
M  V30 1300 H 121.288 3.92735 2.41414 0
M  V30 1301 H 124.832 6.93819 0.725293 0
M  V30 1302 H 120.729 6.21914 1.72895 0
M  V30 1303 H 121.497 8.13265 0.924222 0
M  V30 1304 N 124.16 -0.719506 1.40217 0
M  V30 1305 C 125.409 -1.47486 1.37589 0
M  V30 1306 C 125.722 -1.9559 -0.0201568 0
M  V30 1307 O 126.928 -2.70973 -0.169049 0
M  V30 1308 C 125.384 -2.66575 2.41796 0
M  V30 1309 C 124.992 -2.25358 3.87192 0
M  V30 1310 C 126.736 -3.4433 2.48269 0
M  V30 1311 C 124.643 -3.41262 4.83005 0
M  V30 1312 H 123.573 -0.553901 0.511576 0
M  V30 1313 H 126.224 -0.783427 1.65936 0
M  V30 1314 H 124.606 -3.3787 2.06543 0
M  V30 1315 H 125.78 -1.61509 4.31569 0
M  V30 1316 H 124.095 -1.60657 3.84159 0
M  V30 1317 H 126.692 -4.30569 3.17041 0
M  V30 1318 H 127.035 -3.87872 1.51198 0
M  V30 1319 H 127.568 -2.80076 2.82493 0
M  V30 1320 H 124.307 -3.02755 5.81394 0
M  V30 1321 H 123.827 -4.0404 4.43297 0
M  V30 1322 H 125.506 -4.07383 5.02641 0
M  V30 1323 N 125.638 -1.25649 -0.95132 0
M  V30 1324 C 126.586 -1.06118 -2.06982 0
M  V30 1325 C 127.58 0.00889169 -1.69398 0
M  V30 1326 O 128.786 -0.146988 -1.79399 0
M  V30 1327 H 125.161 -0.326248 -0.677544 0
M  V30 1328 H 127.132 -2.00932 -2.2061 0
M  V30 1329 C 125.881 -0.700145 -3.40578 0
M  V30 1330 H 125.204 -1.51537 -3.69968 0
M  V30 1331 H 126.644 -0.603211 -4.19687 0
M  V30 1332 C 125.103 0.59403 -3.31622 0
M  V30 1333 O 125.633 1.63522 -3.66911 0
M  V30 1334 N 123.839 0.58089 -2.84735 0
M  V30 1335 H 123.386 -0.266783 -2.56215 0
M  V30 1336 H 123.344 1.44695 -2.79125 0
M  V30 1337 N 127.117 1.15442 -1.07289 0
M  V30 1338 C 128.342 1.90638 -0.816828 0
M  V30 1339 C 128.767 1.77445 0.624083 0
M  V30 1340 O 128.125 1.10671 1.43602 0
M  V30 1341 C 128.173 3.39008 -1.22906 0
M  V30 1342 O 127.277 4.10701 -0.373975 0
M  V30 1343 H 126.618 0.593555 -0.297638 0
M  V30 1344 H 129.148 1.46198 -1.43134 0
M  V30 1345 H 129.158 3.89801 -1.20497 0
M  V30 1346 H 127.833 3.47929 -2.27856 0
M  V30 1347 H 126.41 3.70046 -0.460499 0
M  V30 1348 N 128.595 0.856903 1.32268 0
M  V30 1349 C 129.525 0.31858 2.31316 0
M  V30 1350 C 130.506 -0.583487 1.59779 0
M  V30 1351 O 131.691 -0.503259 1.87566 0
M  V30 1352 C 128.821 -0.491979 3.43798 0
M  V30 1353 C 127.775 0.315849 4.26833 0
M  V30 1354 C 127.101 -0.619586 5.31098 0
M  V30 1355 C 128.401 1.54282 4.98993 0
M  V30 1356 H 130.095 1.14621 2.76591 0
M  V30 1357 H 127.641 0.552613 1.32974 0
M  V30 1358 H 129.594 -0.879012 4.1213 0
M  V30 1359 H 128.318 -1.35299 2.97257 0
M  V30 1360 H 126.977 0.684664 3.6015 0
M  V30 1361 H 126.625 -1.47751 4.8081 0
M  V30 1362 H 126.325 -0.0830621 5.87541 0
M  V30 1363 H 127.849 -1.00375 6.02293 0
M  V30 1364 H 129.263 1.22796 5.59995 0
M  V30 1365 H 127.66 2.01745 5.65172 0
M  V30 1366 H 128.73 2.30285 4.26728 0
M  V30 1367 N 130.073 -1.45103 0.615059 0
M  V30 1368 C 130.983 -2.34382 -0.101034 0
M  V30 1369 C 131.999 -1.51681 -0.852585 0
M  V30 1370 O 133.175 -1.8446 -0.808484 0
M  V30 1371 C 130.24 -3.29417 -1.08099 0
M  V30 1372 C 129.301 -4.28025 -0.330577 0
M  V30 1373 C 128.534 -5.1852 -1.26385 0
M  V30 1374 O 128.757 -5.12598 -2.50198 0
M  V30 1375 O 127.691 -5.97122 -0.756866 0
M  V30 1376 H 131.517 -2.97033 0.632855 0
M  V30 1377 H 129.102 -1.4461 0.375293 0
M  V30 1378 H 130.984 -3.87958 -1.6452 0
M  V30 1379 H 129.659 -2.69321 -1.79577 0
M  V30 1380 H 128.566 -3.73078 0.276283 0
M  V30 1381 H 129.899 -4.90997 0.343866 0
M  V30 1382 N 131.551 -0.354651 -1.53558 0
M  V30 1383 C 132.484 0.540273 -2.21712 0
M  V30 1384 C 133.462 1.09161 -1.2051 0
M  V30 1385 O 134.646 1.14979 -1.49372 0
M  V30 1386 C 131.773 1.74435 -2.90328 0
M  V30 1387 C 130.819 1.32146 -4.05512 0
M  V30 1388 S 131.652 0.331924 -5.3447 0
M  V30 1389 C 132.808 1.54258 -6.06593 0
M  V30 1390 H 133.041 -0.0385776 -2.97275 0
M  V30 1391 H 130.574 -0.138736 -1.53775 0
M  V30 1392 H 132.532 2.43507 -3.30476 0
M  V30 1393 H 131.193 2.29444 -2.1451 0
M  V30 1394 H 130.386 2.21952 -4.52497 0
M  V30 1395 H 129.988 0.710091 -3.67197 0
M  V30 1396 H 132.28 2.47534 -6.30661 0
M  V30 1397 H 133.223 1.11431 -6.99277 0
M  V30 1398 H 133.631 1.74367 -5.36895 0
M  V30 1399 N 133.029 1.57378 -0.0835403 0
M  V30 1400 C 134.254 1.98682 0.594987 0
M  V30 1401 C 134.679 0.961969 1.61641 0
M  V30 1402 O 134.037 -0.0709989 1.81161 0
M  V30 1403 C 134.085 3.38988 1.2296 0
M  V30 1404 O 133.189 3.39208 2.34546 0
M  V30 1405 H 132.53 0.646368 0.152002 0
M  V30 1406 H 135.06 2.03961 -0.161533 0
M  V30 1407 H 135.07 3.76431 1.57366 0
M  V30 1408 H 133.745 4.13107 0.481228 0
M  V30 1409 H 132.322 3.13548 2.01846 0
M  V30 1410 O 134.546 -0.0567894 1.614 0
M  V30 1411 H 135.237 -0.680852 1.8134 0
M  V30 END ATOM
M  V30 BEGIN BOND
M  V30 END BOND
M  V30 END CTAB
M  END
$$$$
