drugbank_target|P43235 Cathepsin K (DB01858; DB02679; DB02869; DB03405; DB03456; DB03642; DB03891; DB04234; DB04244; DB04523; DB05736; DB06367; DB06670; DB07563; DB07592; DB07593; DB07965; DB07967; DB08270; DB08287; DB08594; DB15599)
 OpenBabel12092120313D

  0  0  0     0  0            999 V3000
M  V30 BEGIN CTAB
M  V30 COUNTS 5154 5215 0 0 0
M  V30 BEGIN ATOM
M  V30 1 H -0.908 1.98254 -0.117106 0
M  V30 2 N 0 1.576 0 0
M  V30 3 C 0.933 2.03868 1.02534 0
M  V30 4 C 1.911 0.928543 1.3348 0
M  V30 5 O 3.095 1.19667 1.45644 0
M  V30 6 C 0.222 2.43627 2.35294 0
M  V30 7 C -0.732 3.65373 2.2001 0
M  V30 8 S 0.101 5.13292 1.52614 0
M  V30 9 C 1.257 5.56322 2.86805 0
M  V30 10 H 1.49 2.90518 0.631377 0
M  V30 11 H -0.977 1.52953 0.210867 0
M  V30 12 H 0.981 2.67203 3.11629 0
M  V30 13 H -0.358 1.57376 2.7183 0
M  V30 14 H -1.165 3.90944 3.18086 0
M  V30 15 H -1.563 3.418 1.51819 0
M  V30 16 H 0.729 5.58782 3.83104 0
M  V30 17 H 1.672 6.56266 2.65933 0
M  V30 18 H 2.08 4.83886 2.90714 0
M  V30 19 N 1.4781 -0.272755 1.55222 0
M  V30 20 C 2.7241 -1.00172 1.77023 0
M  V30 21 C 3.0791 -1.83928 0.564633 0
M  V30 22 O 2.3721 -1.86416 -0.442674 0
M  V30 23 C 2.5661 -1.91642 3.01675 0
M  V30 24 C 2.3951 -1.16888 4.34243 0
M  V30 25 C 1.1651 -0.884464 4.97499 0
M  V30 26 C 3.3631 -0.55919 5.11251 0
M  V30 27 N 1.3451 -0.11015 6.13801 0
M  V30 28 C 2.7161 0.0809469 6.19947 0
M  V30 29 C 4.7711 -0.467058 4.95705 0
M  V30 30 C 3.4741 0.804335 7.14789 0
M  V30 31 C 5.5001 0.242739 5.90902 0
M  V30 32 C 4.8621 0.871613 6.98987 0
M  V30 33 H 0.9611 -0.348529 0.700037 0
M  V30 34 H 3.5451 -0.277365 1.92714 0
M  V30 35 H 1.7161 -2.61303 2.87359 0
M  V30 36 H 3.4481 -2.57901 3.1188 0
M  V30 37 H 0.2031 -1.18979 4.58411 0
M  V30 38 H 0.6271 0.264344 6.76484 0
M  V30 39 H 5.2691 -0.93894 4.12242 0
M  V30 40 H 2.9871 1.2879 7.97771 0
M  V30 41 H 6.5731 0.314347 5.8095 0
M  V30 42 H 5.4531 1.4121 7.71381 0
M  V30 43 N 2.9562 -1.48159 -0.537278 0
M  V30 44 C 4.2042 -1.55497 -1.29094 0
M  V30 45 C 4.5252 -0.227454 -1.93669 0
M  V30 46 O 3.7952 0.750386 -1.80959 0
M  V30 47 H 2.3752 -0.572832 -0.47945 0
M  V30 48 H 5.0372 -1.84579 -0.625818 0
M  V30 49 H 4.1332 -2.33216 -2.07405 0
M  V30 50 N 4.4343 0.785586 -1.36625 0
M  V30 51 C 5.3643 1.91259 -1.33949 0
M  V30 52 C 6.3453 1.68795 -0.210325 0
M  V30 53 O 7.5303 1.89854 -0.408561 0
M  V30 54 C 4.6603 3.28339 -1.13186 0
M  V30 55 C 3.6143 3.65335 -2.22967 0
M  V30 56 C 2.9403 5.00806 -1.87342 0
M  V30 57 C 4.2403 3.7352 -3.65075 0
M  V30 58 H 5.9343 1.93755 -2.28253 0
M  V30 59 H 3.4803 0.930788 -1.09874 0
M  V30 60 H 5.4333 4.06804 -1.09948 0
M  V30 61 H 4.1573 3.2624 -0.153332 0
M  V30 62 H 2.8163 2.89169 -2.25337 0
M  V30 63 H 2.4643 4.95233 -0.880545 0
M  V30 64 H 2.1643 5.26529 -2.60846 0
M  V30 65 H 3.6883 5.81687 -1.85667 0
M  V30 66 H 5.1023 4.42168 -3.64911 0
M  V30 67 H 3.4993 4.10731 -4.37516 0
M  V30 68 H 4.5693 2.74527 -3.99703 0
M  V30 69 N 5.9124 1.20967 1.01018 0
M  V30 70 C 6.8594 0.964281 2.09691 0
M  V30 71 C 7.8294 -0.107853 1.65749 0
M  V30 72 O 9.0144 0.0381987 1.90762 0
M  V30 73 C 6.1544 0.52943 3.41015 0
M  V30 74 C 5.2674 1.67043 3.98398 0
M  V30 75 C 4.4024 1.18525 5.17808 0
M  V30 76 C 3.4414 2.29892 5.67288 0
M  V30 77 N 2.5784 1.82546 6.77954 0
M  V30 78 H 7.4184 1.89463 2.30017 0
M  V30 79 H 4.9554 0.944289 1.1279 0
M  V30 80 H 6.9134 0.258588 4.16398 0
M  V30 81 H 5.5434 -0.363919 3.20742 0
M  V30 82 H 4.5954 2.05603 3.20049 0
M  V30 83 H 5.9074 2.50877 4.31117 0
M  V30 84 H 5.0614 0.870762 6.00419 0
M  V30 85 H 3.8004 0.316887 4.86669 0
M  V30 86 H 2.8054 2.6215 4.83278 0
M  V30 87 H 4.0304 3.17216 6.00459 0
M  V30 88 H 1.9764 0.980454 6.48632 0
M  V30 89 H 1.8934 2.59956 7.09901 0
M  V30 90 H 3.1614 1.54115 7.64113 0
M  V30 91 N 7.3905 -1.2043 1.01659 0
M  V30 92 C 8.6365 -1.90079 0.706963 0
M  V30 93 C 8.9695 -1.78648 -0.761474 0
M  V30 94 O 8.2445 -1.17069 -1.55323 0
M  V30 95 C 8.5275 -3.41469 1.14327 0
M  V30 96 C 8.3805 -3.61833 2.67201 0
M  V30 97 C 9.6995 -4.34261 0.714529 0
M  V30 98 H 6.8185 -0.690254 0.2583 0
M  V30 99 H 9.4605 -1.41826 1.26433 0
M  V30 100 H 7.6105 -3.82696 0.669056 0
M  V30 101 H 9.2825 -3.2986 3.22475 0
M  V30 102 H 7.5255 -3.05304 3.08175 0
M  V30 103 H 8.1965 -4.67955 2.92783 0
M  V30 104 H 10.6725 -4.00682 1.12221 0
M  V30 105 H 9.5485 -5.38806 1.04784 0
M  V30 106 H 9.8095 -4.40431 -0.383799 0
M  V30 107 N 8.8686 -0.792821 -1.36206 0
M  V30 108 C 9.7986 -0.207853 -2.32573 0
M  V30 109 C 10.7796 0.659055 -1.56813 0
M  V30 110 O 11.9646 0.592176 -1.84951 0
M  V30 111 C 9.0946 0.655449 -3.41059 0
M  V30 112 C 8.0486 -0.111842 -4.27854 0
M  V30 113 C 7.3746 0.872274 -5.27537 0
M  V30 114 C 8.6746 -1.30299 -5.05786 0
M  V30 115 H 10.3686 -1.01294 -2.81744 0
M  V30 116 H 7.9146 -0.48854 -1.3546 0
M  V30 117 H 9.8676 1.07464 -4.07467 0
M  V30 118 H 8.5916 1.49328 -2.90463 0
M  V30 119 H 7.2506 -0.512053 -3.63006 0
M  V30 120 H 6.8986 1.70523 -4.73214 0
M  V30 121 H 6.5986 0.363291 -5.86476 0
M  V30 122 H 8.1226 1.28996 -5.96818 0
M  V30 123 H 9.5366 -0.959379 -5.65216 0
M  V30 124 H 7.9336 -1.7455 -5.74154 0
M  V30 125 H 9.0036 -2.09663 -4.37229 0
M  V30 126 N 10.3467 1.47872 -0.545128 0
M  V30 127 C 11.2767 2.32661 0.197793 0
M  V30 128 C 12.2577 1.43041 0.920504 0
M  V30 129 O 13.4427 1.71912 0.90333 0
M  V30 130 C 10.5727 3.24569 1.23582 0
M  V30 131 C 9.5267 4.23333 0.630323 0
M  V30 132 C 8.8527 5.0448 1.77211 0
M  V30 133 C 10.1527 5.20704 -0.407974 0
M  V30 134 H 11.8467 2.95024 -0.510045 0
M  V30 135 H 9.3927 1.4187 -0.246731 0
M  V30 136 H 11.3457 3.8272 1.76362 0
M  V30 137 H 10.0697 2.60236 1.97344 0
M  V30 138 H 8.7287 3.6639 0.123922 0
M  V30 139 H 8.3767 4.36561 2.49847 0
M  V30 140 H 8.0767 5.71339 1.37281 0
M  V30 141 H 9.6007 5.65487 2.3034 0
M  V30 142 H 11.0147 5.7329 0.033305 0
M  V30 143 H 9.4117 5.95699 -0.725486 0
M  V30 144 H 10.4817 4.66917 -1.30828 0
M  V30 145 N 11.8248 0.280983 1.55075 0
M  V30 146 C 12.7548 -0.597469 2.25727 0
M  V30 147 C 13.7358 -1.15417 1.24952 0
M  V30 148 O 14.9208 -1.18722 1.53684 0
M  V30 149 C 12.0508 -1.7789 2.98283 0
M  V30 150 C 11.0048 -1.35347 4.06036 0
M  V30 151 C 10.3308 -2.61846 4.66198 0
M  V30 152 C 11.6308 -0.499354 5.19907 0
M  V30 153 H 13.3248 -0.00824265 2.99399 0
M  V30 154 H 10.8708 -0.0025244 1.44 0
M  V30 155 H 12.8238 -2.39937 3.46422 0
M  V30 156 H 11.5478 -2.39405 2.22155 0
M  V30 157 H 10.2068 -0.756156 3.58717 0
M  V30 158 H 9.8548 -3.21632 3.86732 0
M  V30 159 H 9.5548 -2.3409 5.38958 0
M  V30 160 H 11.0788 -3.24732 5.1709 0
M  V30 161 H 12.4928 -1.02498 5.64063 0
M  V30 162 H 10.8898 -0.316424 5.99265 0
M  V30 163 H 11.9598 0.480459 4.82514 0
M  V30 164 N 13.3029 -1.57598 0.00835791 0
M  V30 165 C 14.7139 -1.7892 -0.53333 0
M  V30 166 C 15.0649 -0.916609 -1.73473 0
M  V30 167 O 14.1899 -0.121336 -2.1606 0
M  V30 168 C 14.7849 -3.24488 -0.974313 0
M  V30 169 C 13.3439 -3.46878 -1.46125 0
M  V30 170 C 12.4909 -2.74157 -0.416302 0
M  V30 171 H 15.4419 -1.56958 0.234495 0
M  V30 172 H 15.4629 -3.3306 -1.83988 0
M  V30 173 H 14.9749 -3.87972 -0.099718 0
M  V30 174 H 13.0759 -2.8862 -2.35646 0
M  V30 175 H 13.1889 -4.55572 -1.48295 0
M  V30 176 H 11.5529 -2.39022 -0.87981 0
M  V30 177 H 12.3359 -3.40345 0.44947 0
M  V30 178 N 14.781 0.264519 -1.55364 0
M  V30 179 C 16.027 0.99646 -1.76631 0
M  V30 180 C 16.36 1.85632 -0.570478 0
M  V30 181 O 15.635 1.89647 0.43175 0
M  V30 182 C 15.918 1.87187 -3.07625 0
M  V30 183 C 15.771 1.04138 -4.37579 0
M  V30 184 C 17.09 2.85749 -3.34717 0
M  V30 185 H 14.209 0.360841 -0.642622 0
M  V30 186 H 16.851 0.268218 -1.88097 0
M  V30 187 H 15.001 2.49279 -2.9798 0
M  V30 188 H 16.673 0.440517 -4.59192 0
M  V30 189 H 14.916 0.345115 -4.32425 0
M  V30 190 H 15.587 1.68729 -5.2558 0
M  V30 191 H 18.063 2.33793 -3.4421 0
M  V30 192 H 16.939 3.44136 -4.27623 0
M  V30 193 H 17.2 3.61311 -2.54768 0
M  V30 194 N 16.2591 1.48442 0.529413 0
M  V30 195 C 17.5051 1.5672 1.28711 0
M  V30 196 C 17.8381 0.2406 1.92704 0
M  V30 197 O 17.1131 -0.753454 1.79313 0
M  V30 198 C 17.3961 2.70587 2.37603 0
M  V30 199 C 17.2491 4.12953 1.78297 0
M  V30 200 C 18.5681 2.80212 3.39366 0
M  V30 201 H 15.6871 0.570474 0.466613 0
M  V30 202 H 18.3291 1.80617 0.589706 0
M  V30 203 H 16.4791 2.50342 2.97088 0
M  V30 204 H 18.1511 4.44639 1.22858 0
M  V30 205 H 16.3941 4.19927 1.0883 0
M  V30 206 H 17.0651 4.88448 2.57144 0
M  V30 207 H 19.5411 2.98553 2.89836 0
M  V30 208 H 18.4171 3.61611 4.12951 0
M  V30 209 H 18.6781 1.88393 3.99951 0
M  V30 210 N 17.7372 -0.778329 1.37039 0
M  V30 211 C 18.9622 -1.57248 1.35233 0
M  V30 212 C 19.3872 -1.87999 -0.0615568 0
M  V30 213 O 18.7452 -1.48734 -1.03672 0
M  V30 214 C 18.7932 -2.86353 2.19167 0
M  V30 215 O 17.8972 -3.80442 1.59178 0
M  V30 216 H 17.2382 -0.476569 0.462362 0
M  V30 217 H 19.7682 -0.963853 1.80474 0
M  V30 218 H 19.7782 -3.35519 2.32145 0
M  V30 219 H 18.4532 -2.63299 3.21942 0
M  V30 220 H 17.0302 -3.39067 1.55203 0
M  V30 221 N 19.2153 -1.21501 -1.00376 0
M  V30 222 C 20.4623 -1.03299 -1.74171 0
M  V30 223 C 20.7903 0.433326 -1.89612 0
M  V30 224 O 20.0453 1.33779 -1.42834 0
M  V30 225 C 20.3443 -1.67673 -3.15627 0
M  V30 226 C 20.0103 -3.17533 -3.2013 0
M  V30 227 C 18.6723 -3.58427 -3.21067 0
M  V30 228 C 21.0243 -4.13504 -3.17275 0
M  V30 229 C 18.3523 -4.93794 -3.16835 0
M  V30 230 C 20.7043 -5.48834 -3.14585 0
M  V30 231 C 19.3683 -5.89123 -3.13831 0
M  V30 232 H 18.6383 -0.377999 -0.637336 0
M  V30 233 H 21.2853 -1.51111 -1.17634 0
M  V30 234 H 19.5903 -1.12158 -3.75404 0
M  V30 235 H 21.2873 -1.51091 -3.71446 0
M  V30 236 H 17.8773 -2.84965 -3.20145 0
M  V30 237 H 22.0613 -3.82936 -3.15711 0
M  V30 238 H 17.3173 -5.24255 -3.1459 0
M  V30 239 H 21.4913 -6.22934 -3.1133 0
M  V30 240 H 19.1183 -6.93984 -3.10307 0
M  V30 241 N 20.6934 1.19889 -1.02296 0
M  V30 242 C 21.6564 2.21116 -0.603351 0
M  V30 243 C 22.6564 1.5738 0.329884 0
M  V30 244 O 23.8464 1.73802 0.117702 0
M  V30 245 C 20.9784 3.40696 0.117992 0
M  V30 246 H 22.1714 2.59754 -1.49893 0
M  V30 247 H 19.7244 1.33463 -0.813468 0
M  V30 248 H 20.4594 3.07569 1.0282 0
M  V30 249 H 20.2444 3.88188 -0.552511 0
M  V30 250 H 21.7344 4.15692 0.398696 0
M  V30 251 N 22.1715 0.800033 1.35784 0
M  V30 252 C 23.1015 0.220184 2.3246 0
M  V30 253 C 24.0825 -0.65073 1.57161 0
M  V30 254 O 25.2675 -0.582359 1.85263 0
M  V30 255 C 22.3975 -0.637353 3.41402 0
M  V30 256 C 21.3515 0.134531 4.27789 0
M  V30 257 C 20.6775 -0.844285 5.27992 0
M  V30 258 C 21.9775 1.32979 5.05088 0
M  V30 259 H 23.6715 1.02787 2.81203 0
M  V30 260 H 21.2175 0.495717 1.35199 0
M  V30 261 H 23.1705 -1.05302 4.08031 0
M  V30 262 H 21.8945 -1.47785 2.91251 0
M  V30 263 H 20.5535 0.531296 3.6273 0
M  V30 264 H 20.2015 -1.68011 4.74111 0
M  V30 265 H 19.9015 -0.332184 5.8666 0
M  V30 266 H 21.4255 -1.2583 5.97494 0
M  V30 267 H 22.8395 0.98934 5.64699 0
M  V30 268 H 21.2365 1.77593 5.7322 0
M  V30 269 H 22.3065 2.11978 4.36111 0
M  V30 270 N 23.6496 -1.47581 0.552962 0
M  V30 271 C 24.8796 -2.06575 0.0320091 0
M  V30 272 C 25.2876 -1.4067 -1.26525 0
M  V30 273 O 24.6306 -0.495808 -1.76883 0
M  V30 274 C 24.6926 -3.58705 -0.238913 0
M  V30 275 C 24.3566 -4.46625 0.968272 0
M  V30 276 C 25.3536 -4.85 1.87274 0
M  V30 277 C 23.0386 -4.88201 1.18175 0
M  V30 278 C 25.0326 -5.63745 2.9744 0
M  V30 279 C 22.7196 -5.66712 2.28651 0
M  V30 280 C 23.7176 -6.04394 3.18114 0
M  V30 281 O 23.4056 -6.81324 4.26676 0
M  V30 282 H 23.1376 -0.674763 0.0408689 0
M  V30 283 H 25.6916 -1.90634 0.764719 0
M  V30 284 H 23.9216 -3.72844 -1.02588 0
M  V30 285 H 25.6106 -3.99735 -0.704731 0
M  V30 286 H 26.3766 -4.53482 1.71984 0
M  V30 287 H 22.2556 -4.58339 0.494593 0
M  V30 288 H 25.7996 -5.93077 3.67296 0
M  V30 289 H 21.6966 -5.97642 2.43915 0
M  V30 290 H 22.4646 -6.99712 4.24671 0
M  V30 291 N 25.1277 -0.289203 -1.54924 0
M  V30 292 C 26.5387 0.205791 -1.85562 0
M  V30 293 C 26.8897 1.54351 -1.2112 0
M  V30 294 O 26.0147 2.10435 -0.504601 0
M  V30 295 C 26.6097 0.380177 -3.3666 0
M  V30 296 C 25.1687 0.819395 -3.67373 0
M  V30 297 C 24.3157 -0.079159 -2.77187 0
M  V30 298 H 27.2667 -0.510577 -1.50262 0
M  V30 299 H 27.2877 1.21659 -3.60526 0
M  V30 300 H 26.7997 -0.593589 -3.83534 0
M  V30 301 H 24.9007 1.80413 -3.26009 0
M  V30 302 H 25.0137 0.646957 -4.74712 0
M  V30 303 H 23.3777 0.439565 -2.50878 0
M  V30 304 H 24.1607 -1.04906 -3.26878 0
M  V30 305 N 26.6058 1.57591 -0.0167156 0
M  V30 306 C 27.5158 2.1291 0.98521 0
M  V30 307 C 28.5318 1.07834 1.36557 0
M  V30 308 O 29.7078 1.39826 1.44951 0
M  V30 309 C 26.7728 2.63512 2.25305 0
M  V30 310 C 25.8338 3.83256 1.93426 0
M  V30 311 C 25.0668 4.31435 3.14165 0
M  V30 312 O 25.2898 3.78851 4.26413 0
M  V30 313 O 24.2238 5.23416 2.97186 0
M  V30 314 H 28.0498 2.98772 0.544888 0
M  V30 315 H 25.6348 1.48012 0.203141 0
M  V30 316 H 27.5168 2.96183 2.99756 0
M  V30 317 H 26.1918 1.8074 2.68542 0
M  V30 318 H 25.0988 3.55531 1.16398 0
M  V30 319 H 26.4318 4.67153 1.55013 0
M  V30 320 N 28.0839 -0.256276 1.55502 0
M  V30 321 C 28.9939 -1.33882 1.92647 0
M  V30 322 C 30.0099 -1.53159 0.825727 0
M  V30 323 O 31.1859 -1.66963 1.12629 0
M  V30 324 C 28.2509 -2.6751 2.20543 0
M  V30 325 C 27.3119 -2.56836 3.43997 0
M  V30 326 C 26.5449 -3.84092 3.70553 0
M  V30 327 O 26.7679 -4.85545 2.99336 0
M  V30 328 O 25.7019 -3.83288 4.64084 0
M  V30 329 H 29.5279 -1.05374 2.84833 0
M  V30 330 H 27.1129 -0.456237 1.42263 0
M  V30 331 H 28.9949 -3.46492 2.39835 0
M  V30 332 H 27.6699 -2.9577 1.31536 0
M  V30 333 H 26.5769 -1.76172 3.30021 0
M  V30 334 H 27.9099 -2.33523 4.33275 0
M  V30 335 N 29.562 -1.4872 -0.521534 0
M  V30 336 C 30.811 -1.56419 -1.27341 0
M  V30 337 C 31.124 -0.246805 -1.94037 0
M  V30 338 O 32.33 -0.202122 -2.70747 0
M  V30 339 C 30.786 -2.75896 -2.31105 0
M  V30 340 C 30.394 -4.14311 -1.70441 0
M  V30 341 C 32.138 -2.92913 -3.07249 0
M  V30 342 C 30.045 -5.25038 -2.72194 0
M  V30 343 H 28.975 -0.582344 -0.478949 0
M  V30 344 H 31.626 -1.75071 -0.549779 0
M  V30 345 H 30.008 -2.50697 -3.06541 0
M  V30 346 H 31.182 -4.49564 -1.01136 0
M  V30 347 H 29.497 -4.02482 -1.06759 0
M  V30 348 H 32.094 -3.72805 -3.83302 0
M  V30 349 H 32.437 -2.02689 -3.63625 0
M  V30 350 H 32.97 -3.18054 -2.38928 0
M  V30 351 H 29.709 -6.17255 -2.20627 0
M  V30 352 H 29.229 -4.94263 -3.39801 0
M  V30 353 H 30.908 -5.53508 -3.35019 0
M  V30 354 N 31.0401 0.771051 -1.3745 0
M  V30 355 C 31.9701 1.89827 -1.3597 0
M  V30 356 C 32.9511 1.68562 -0.228216 0
M  V30 357 O 34.1361 1.8941 -0.428675 0
M  V30 358 C 31.2661 3.2712 -1.16662 0
M  V30 359 C 30.2201 3.6295 -2.2683 0
M  V30 360 C 29.5461 4.98791 -1.92644 0
M  V30 361 C 30.8461 3.69627 -3.69017 0
M  V30 362 H 32.5401 1.91323 -2.30295 0
M  V30 363 H 30.0861 0.919082 -1.10855 0
M  V30 364 H 32.0391 4.05615 -1.14256 0
M  V30 365 H 30.7631 3.26059 -0.187926 0
M  V30 366 H 29.4221 2.86763 -2.28392 0
M  V30 367 H 29.0701 4.94271 -0.933021 0
M  V30 368 H 28.7701 5.23733 -2.66416 0
M  V30 369 H 30.2941 5.79685 -1.91826 0
M  V30 370 H 31.7081 4.38273 -3.69581 0
M  V30 371 H 30.1051 4.06067 -4.41848 0
M  V30 372 H 31.1751 2.70273 -4.02592 0
M  V30 373 N 32.5182 1.22032 0.997298 0
M  V30 374 C 33.7952 0.950823 1.70935 0
M  V30 375 C 34.1752 -0.535292 2.042 0
M  V30 376 O 33.5232 -1.50217 1.72183 0
M  V30 377 C 33.7332 1.84386 2.96315 0
M  V30 378 C 35.0812 2.09732 3.69185 0
M  V30 379 O 36.1052 1.81798 3.06314 0
M  V30 380 O 34.9642 2.57018 4.82291 0
M  V30 381 H 32.0582 0.357204 0.745878 0
M  V30 382 H 34.6042 1.32997 1.05404 0
M  V30 383 H 33.3762 2.84928 2.68201 0
M  V30 384 H 32.9992 1.46602 3.69586 0
M  V30 385 N 33.9963 -1.19345 1.0293 0
M  V30 386 C 35.2243 -1.92997 0.745644 0
M  V30 387 C 35.6393 -1.75519 -0.695589 0
M  V30 388 O 34.9963 -1.07737 -1.47306 0
M  V30 389 C 35.0473 -3.44741 1.08792 0
M  V30 390 O 34.7683 -3.61658 2.47256 0
M  V30 391 C 36.2693 -4.35515 0.827129 0
M  V30 392 H 33.4893 -0.613042 0.272801 0
M  V30 393 H 36.0333 -1.51473 1.3739 0
M  V30 394 H 34.1883 -3.84097 0.504832 0
M  V30 395 H 34.6023 -4.55514 2.60015 0
M  V30 396 H 36.0763 -5.40589 1.11658 0
M  V30 397 H 36.5533 -4.38552 -0.238436 0
M  V30 398 H 37.1593 -4.01841 1.39297 0
M  V30 399 N 35.4744 -0.807222 -1.35358 0
M  V30 400 C 36.4244 -0.190706 -2.27201 0
M  V30 401 C 37.4084 0.635838 -1.47804 0
M  V30 402 O 38.6004 0.492991 -1.69996 0
M  V30 403 C 35.7294 0.659337 -3.36909 0
M  V30 404 C 34.8154 -0.176971 -4.23731 0
M  V30 405 N 35.2064 -1.24029 -4.90357 0
M  V30 406 C 33.5044 0.0412953 -4.45981 0
M  V30 407 C 34.2054 -1.75092 -5.54723 0
M  V30 408 N 33.1814 -1.05727 -5.33219 0
M  V30 409 H 36.9834 -1.0043 -2.76208 0
M  V30 410 H 34.4974 -0.648445 -1.48892 0
M  V30 411 H 36.4944 1.11706 -4.01656 0
M  V30 412 H 35.1544 1.47127 -2.89454 0
M  V30 413 H 36.1654 -1.62295 -4.91814 0
M  V30 414 H 32.8424 0.82232 -4.09322 0
M  V30 415 H 34.2324 -2.63963 -6.17878 0
M  V30 416 N 36.9525 1.47285 -0.560781 0
M  V30 417 C 38.1985 2.03347 -0.0463654 0
M  V30 418 C 38.5535 1.42702 1.2905 0
M  V30 419 O 37.8465 0.574619 1.8278 0
M  V30 420 C 38.0405 3.57258 0.100784 0
M  V30 421 C 37.8695 4.32827 -1.22027 0
M  V30 422 C 36.6395 4.72588 -1.78854 0
M  V30 423 C 38.8375 4.67739 -2.13834 0
M  V30 424 N 36.8195 5.32816 -3.04927 0
M  V30 425 C 38.1905 5.28307 -3.24487 0
M  V30 426 C 40.2455 4.49667 -2.13784 0
M  V30 427 C 38.9485 5.72711 -4.35194 0
M  V30 428 C 40.9745 4.95073 -3.23506 0
M  V30 429 C 40.3365 5.55693 -4.32879 0
M  V30 430 H 36.4355 0.779755 -0.0592166 0
M  V30 431 H 39.0195 1.79723 -0.748857 0
M  V30 432 H 37.1905 3.80642 0.772404 0
M  V30 433 H 38.9225 3.9996 0.617589 0
M  V30 434 H 35.6775 4.54656 -1.32609 0
M  V30 435 H 36.1015 5.67471 -3.69197 0
M  V30 436 H 40.7435 4.02154 -1.30507 0
M  V30 437 H 38.4615 6.19214 -5.1923 0
M  V30 438 H 42.0475 4.82859 -3.24559 0
M  V30 439 H 40.9275 5.90188 -5.1638 0
M  V30 440 N 38.4306 0.297415 1.54768 0
M  V30 441 C 39.3406 -0.58983 2.27064 0
M  V30 442 C 40.3566 -1.15144 1.30453 0
M  V30 443 O 41.5326 -1.17699 1.63428 0
M  V30 444 C 38.5976 -1.74714 2.9946 0
M  V30 445 C 37.6586 -1.21997 4.11601 0
M  V30 446 C 36.8916 -2.32212 4.80535 0
M  V30 447 O 37.1146 -3.52036 4.48806 0
M  V30 448 O 36.0486 -1.99106 5.68014 0
M  V30 449 H 39.8746 -0.00348199 3.037 0
M  V30 450 H 37.4596 0.0640035 1.49263 0
M  V30 451 H 39.3416 -2.42147 3.44881 0
M  V30 452 H 38.0166 -2.32016 2.25722 0
M  V30 453 H 36.9236 -0.511458 3.70587 0
M  V30 454 H 38.2566 -0.692419 4.87305 0
M  V30 455 N 39.9087 -1.5758 0.0250728 0
M  V30 456 C 40.8387 -2.13007 -0.956575 0
M  V30 457 C 41.8197 -1.0452 -1.342 0
M  V30 458 O 43.0047 -1.32332 -1.42133 0
M  V30 459 C 40.1347 -2.65386 -2.24026 0
M  V30 460 C 39.0887 -3.78623 -1.99571 0
M  V30 461 C 38.4147 -4.17414 -3.3417 0
M  V30 462 C 39.7147 -5.04867 -1.33814 0
M  V30 463 H 41.4087 -2.9528 -0.494991 0
M  V30 464 H 38.9547 -1.42042 -0.236651 0
M  V30 465 H 40.9077 -3.02794 -2.93076 0
M  V30 466 H 39.6317 -1.80268 -2.72343 0
M  V30 467 H 38.2907 -3.41646 -1.32941 0
M  V30 468 H 37.9387 -3.29284 -3.80238 0
M  V30 469 H 37.6387 -4.93719 -3.18615 0
M  V30 470 H 39.1627 -4.57402 -4.04495 0
M  V30 471 H 40.5767 -5.39888 -1.92857 0
M  V30 472 H 38.9737 -5.86144 -1.28669 0
M  V30 473 H 40.0437 -4.83904 -0.310561 0
M  V30 474 N 41.3868 0.248026 -1.55636 0
M  V30 475 C 42.6328 0.973427 -1.78594 0
M  V30 476 C 42.9878 1.83007 -0.593823 0
M  V30 477 O 42.2808 1.87097 0.412961 0
M  V30 478 C 42.4748 1.86819 -3.04686 0
M  V30 479 C 42.3038 1.09965 -4.36048 0
M  V30 480 C 41.0738 0.805204 -4.98843 0
M  V30 481 C 43.2718 0.477783 -5.12076 0
M  V30 482 N 41.2538 0.0124859 -6.13899 0
M  V30 483 C 42.6248 -0.179565 -6.1974 0
M  V30 484 C 44.6798 0.388136 -4.96385 0
M  V30 485 C 43.3828 -0.91795 -7.13419 0
M  V30 486 C 45.4088 -0.336716 -5.90441 0
M  V30 487 C 44.7708 -0.982705 -6.97511 0
M  V30 488 H 40.8698 0.337348 -0.705493 0
M  V30 489 H 43.4538 0.24667 -1.93131 0
M  V30 490 H 41.6248 2.56698 -2.9148 0
M  V30 491 H 43.3568 2.52907 -3.15944 0
M  V30 492 H 40.1118 1.11671 -4.60246 0
M  V30 493 H 40.5358 -0.371933 -6.75978 0
M  V30 494 H 45.1778 0.873237 -4.13684 0
M  V30 495 H 42.8958 -1.41466 -7.95621 0
M  V30 496 H 46.4818 -0.406731 -5.80377 0
M  V30 497 H 45.3618 -1.53464 -7.69037 0
M  V30 498 N 42.8649 1.48995 0.513639 0
M  V30 499 C 43.8119 1.6473 1.61656 0
M  V30 500 C 44.7819 0.488984 1.58739 0
M  V30 501 O 45.9669 0.714478 1.76918 0
M  V30 502 C 43.1069 1.7082 2.99858 0
M  V30 503 C 42.2199 2.9787 3.12885 0
M  V30 504 C 41.3549 2.95017 4.41744 0
M  V30 505 C 40.3939 4.16702 4.48359 0
M  V30 506 N 39.5309 4.11832 5.68629 0
M  V30 507 H 44.3709 2.58909 1.47547 0
M  V30 508 H 41.9079 1.28382 0.71808 0
M  V30 509 H 43.8659 1.72331 3.79944 0
M  V30 510 H 42.4959 0.801181 3.12699 0
M  V30 511 H 41.5479 3.06029 2.25944 0
M  V30 512 H 42.8599 3.8786 3.13633 0
M  V30 513 H 42.0139 2.95021 5.30139 0
M  V30 514 H 40.7529 2.02784 4.43542 0
M  V30 515 H 39.7579 4.16955 3.58369 0
M  V30 516 H 40.9829 5.10113 4.48287 0
M  V30 517 H 38.9289 3.22428 5.71293 0
M  V30 518 H 38.8459 4.95543 5.7094 0
M  V30 519 H 40.1139 4.1592 6.59266 0
M  V30 520 N 44.343 -0.763751 1.37857 0
M  V30 521 C 45.29 -1.87726 1.34267 0
M  V30 522 C 46.26 -1.64807 0.206879 0
M  V30 523 O 47.445 -1.86613 0.397508 0
M  V30 524 C 44.585 -3.24896 1.16346 0
M  V30 525 C 43.698 -3.59716 2.39225 0
M  V30 526 C 42.833 -4.86137 2.14114 0
M  V30 527 C 41.872 -5.13711 3.32817 0
M  V30 528 N 41.009 -6.31323 3.07206 0
M  V30 529 H 45.849 -1.90129 2.29466 0
M  V30 530 H 43.386 -0.929433 1.14017 0
M  V30 531 H 45.344 -4.04036 1.03975 0
M  V30 532 H 43.974 -3.21847 0.247909 0
M  V30 533 H 43.026 -2.75498 2.62307 0
M  V30 534 H 44.338 -3.76027 3.27728 0
M  V30 535 H 43.492 -5.73198 1.9882 0
M  V30 536 H 42.231 -4.71945 1.22961 0
M  V30 537 H 41.236 -4.25123 3.48641 0
M  V30 538 H 42.461 -5.29807 4.24832 0
M  V30 539 H 40.407 -6.18474 2.1869 0
M  V30 540 H 40.324 -6.48087 3.89254 0
M  V30 541 H 41.592 -7.213 2.95546 0
M  V30 542 N 45.8211 -1.22559 -0.990812 0
M  V30 543 C 47.0491 -1.07779 -1.76611 0
M  V30 544 C 47.4641 0.371513 -1.85109 0
M  V30 545 O 46.8211 1.25737 -1.32274 0
M  V30 546 C 46.8721 -1.68512 -3.19822 0
M  V30 547 O 46.5931 -3.07774 -3.1178 0
M  V30 548 C 48.0941 -1.59035 -4.13791 0
M  V30 549 H 45.3141 -0.377729 -0.554583 0
M  V30 550 H 47.8581 -1.62195 -1.24551 0
M  V30 551 H 46.0131 -1.18154 -3.68942 0
M  V30 552 H 46.4271 -3.37062 -4.01858 0
M  V30 553 H 47.9011 -2.0625 -5.1202 0
M  V30 554 H 48.3781 -0.547273 -4.35777 0
M  V30 555 H 48.9841 -2.08709 -3.70568 0
M  V30 556 N 47.2992 1.18797 -1.03562 0
M  V30 557 C 48.2492 2.20161 -0.592724 0
M  V30 558 C 49.2332 1.56772 0.362133 0
M  V30 559 O 50.4252 1.76062 0.182009 0
M  V30 560 C 47.5542 3.43266 0.0481024 0
M  V30 561 C 46.6402 4.13786 -0.9296 0
M  V30 562 N 47.0312 4.60388 -2.09467 0
M  V30 563 C 45.3292 4.39572 -0.754499 0
M  V30 564 C 46.0302 5.14619 -2.71187 0
M  V30 565 N 45.0062 5.05826 -1.991 0
M  V30 566 H 48.8082 2.53877 -1.48066 0
M  V30 567 H 46.3222 1.34946 -0.903514 0
M  V30 568 H 48.3192 4.15136 0.383058 0
M  V30 569 H 46.9792 3.11048 0.931636 0
M  V30 570 H 47.9902 4.54999 -2.47379 0
M  V30 571 H 44.6672 4.17425 0.0793713 0
M  V30 572 H 46.0572 5.60917 -3.69895 0
M  V30 573 N 48.7773 0.814389 1.34928 0
M  V30 574 C 50.1933 0.499084 1.51596 0
M  V30 575 C 50.3933 -0.978319 1.76157 0
M  V30 576 O 49.4493 -1.76309 1.80752 0
M  V30 577 C 50.7623 1.35121 2.68631 0
M  V30 578 C 52.3103 1.34746 2.82511 0
M  V30 579 C 52.7853 2.18388 4.0258 0
M  V30 580 N 54.2763 2.15966 4.09772 0
M  V30 581 C 55.0113 2.77437 5.01813 0
M  V30 582 N 54.5073 3.47866 5.99134 0
M  V30 583 N 56.3003 2.67037 4.94619 0
M  V30 584 H 48.4513 1.7711 1.17243 0
M  V30 585 H 50.7143 0.754256 0.574284 0
M  V30 586 H 50.4203 2.40001 2.57085 0
M  V30 587 H 50.2943 1.00991 3.63429 0
M  V30 588 H 52.6813 0.30648 2.93504 0
M  V30 589 H 52.7623 1.72869 1.88547 0
M  V30 590 H 52.4063 3.2253 3.92347 0
M  V30 591 H 52.3363 1.77621 4.9574 0
M  V30 592 H 54.8273 1.64729 3.40107 0
M  V30 593 H 55.1403 3.92038 6.65977 0
M  V30 594 H 53.4853 3.51972 5.99284 0
M  V30 595 H 56.6763 2.11597 4.17546 0
M  V30 596 H 56.8493 3.15232 5.66156 0
M  V30 597 N 50.2554 -1.46986 0.568584 0
M  V30 598 C 51.2024 -2.30153 -0.172707 0
M  V30 599 C 52.1724 -1.39759 -0.897586 0
M  V30 600 O 53.3574 -1.68716 -0.891044 0
M  V30 601 C 50.4974 -3.23952 -1.1895 0
M  V30 602 C 49.6104 -4.29441 -0.469517 0
M  V30 603 C 48.7454 -5.1038 -1.47259 0
M  V30 604 C 47.7844 -6.07632 -0.738225 0
M  V30 605 N 46.9214 -6.8149 -1.68868 0
M  V30 606 H 51.7614 -2.93019 0.542596 0
M  V30 607 H 49.2984 -1.44422 0.279401 0
M  V30 608 H 51.2564 -3.76767 -1.79173 0
M  V30 609 H 49.8864 -2.62926 -1.87269 0
M  V30 610 H 48.9384 -3.79594 0.247467 0
M  V30 611 H 50.2504 -4.98689 0.105241 0
M  V30 612 H 49.4044 -5.67402 -2.14803 0
M  V30 613 H 48.1434 -4.4106 -2.08128 0
M  V30 614 H 47.1484 -5.49778 -0.0489293 0
M  V30 615 H 48.3734 -6.78966 -0.135129 0
M  V30 616 H 46.3194 -6.14891 -2.28573 0
M  V30 617 H 46.2364 -7.46948 -1.16636 0
M  V30 618 H 47.5044 -7.43078 -2.3549 0
M  V30 619 N 51.7335 -0.305618 -1.54608 0
M  V30 620 C 52.6655 0.602161 -2.21149 0
M  V30 621 C 53.6785 1.09394 -1.20569 0
M  V30 622 O 54.8675 1.0106 -1.47136 0
M  V30 623 C 51.9675 1.83692 -2.84799 0
M  V30 624 C 51.1405 1.48686 -4.11353 0
M  V30 625 C 50.1995 2.57725 -4.58764 0
M  V30 626 O 49.2255 2.22623 -5.23858 0
M  V30 627 N 50.4275 3.88346 -4.31471 0
M  V30 628 H 53.1925 0.0324966 -2.99682 0
M  V30 629 H 50.7535 -0.128021 -1.61393 0
M  V30 630 H 52.7455 2.55994 -3.13448 0
M  V30 631 H 51.3155 2.31486 -2.10078 0
M  V30 632 H 50.5355 0.596269 -3.89664 0
M  V30 633 H 51.8235 1.22842 -4.93748 0
M  V30 634 H 51.2215 4.19671 -3.79331 0
M  V30 635 H 49.7785 4.56932 -4.64818 0
M  V30 636 N 53.2116 1.57565 -0.0334293 0
M  V30 637 C 54.4416 1.95996 0.653398 0
M  V30 638 C 54.8496 0.908749 1.65947 0
M  V30 639 O 54.1926 -0.117471 1.83324 0
M  V30 640 C 54.2546 3.30589 1.41249 0
M  V30 641 C 53.9186 4.53503 0.564263 0
M  V30 642 C 54.9156 5.19647 -0.16225 0
M  V30 643 C 52.6006 4.99801 0.500398 0
M  V30 644 C 54.5946 6.30412 -0.941255 0
M  V30 645 C 52.2816 6.10448 -0.282308 0
M  V30 646 C 53.2796 6.75612 -1.00184 0
M  V30 647 O 52.9676 7.84134 -1.77171 0
M  V30 648 H 52.6996 0.65027 0.184728 0
M  V30 649 H 55.2536 2.05199 -0.0907841 0
M  V30 650 H 53.4836 3.17888 2.20191 0
M  V30 651 H 55.1726 3.53892 1.98784 0
M  V30 652 H 55.9386 4.84846 -0.12227 0
M  V30 653 H 51.8176 4.48883 1.05002 0
M  V30 654 H 55.3616 6.81208 -1.50339 0
M  V30 655 H 51.2586 6.44686 -0.323989 0
M  V30 656 H 52.0266 8.00822 -1.69194 0
M  V30 657 N 54.6897 -0.239769 1.55765 0
M  V30 658 C 55.6377 -1.31668 1.91745 0
M  V30 659 C 56.6317 -1.49462 0.797338 0
M  V30 660 O 57.8377 -1.50852 0.982021 0
M  V30 661 H 54.2127 -0.441048 0.609082 0
M  V30 662 H 56.1837 -0.985923 2.81642 0
M  V30 663 C 54.9327 -2.66368 2.2348 0
M  V30 664 H 54.2557 -2.53478 3.09175 0
M  V30 665 H 55.6957 -3.40578 2.52553 0
M  V30 666 C 54.1547 -3.20002 1.05359 0
M  V30 667 O 54.6847 -4.00538 0.305261 0
M  V30 668 N 52.8907 -2.78126 0.842292 0
M  V30 669 H 52.4377 -2.12742 1.45253 0
M  V30 670 H 52.3957 -3.14354 0.053652 0
M  V30 671 N 56.1678 -1.49265 -0.50573 0
M  V30 672 C 57.1158 -1.66065 -1.62866 0
M  V30 673 C 58.1098 -0.526636 -1.61006 0
M  V30 674 O 59.3158 -0.706126 -1.65571 0
M  V30 675 H 55.6908 -0.52356 -0.539805 0
M  V30 676 H 57.6618 -2.60329 -1.45848 0
M  V30 677 C 56.4108 -1.74008 -3.01026 0
M  V30 678 H 55.7338 -2.6064 -3.03161 0
M  V30 679 H 57.1738 -1.89798 -3.79147 0
M  V30 680 C 55.6328 -0.483868 -3.33407 0
M  V30 681 O 56.1628 0.392548 -3.99777 0
M  V30 682 N 54.3688 -0.348236 -2.88506 0
M  V30 683 H 53.9158 -1.06242 -2.34671 0
M  V30 684 H 53.8738 0.491204 -3.10539 0
M  V30 685 N 57.6459 0.756429 -1.3826 0
M  V30 686 C 58.5929 1.87011 -1.35261 0
M  V30 687 C 59.5629 1.64695 -0.215616 0
M  V30 688 O 60.7479 1.864 -0.407399 0
M  V30 689 C 57.8879 3.24275 -1.18068 0
M  V30 690 C 57.0009 3.58442 -2.41129 0
M  V30 691 C 56.1359 4.84994 -2.16689 0
M  V30 692 C 55.1749 5.11939 -3.35537 0
M  V30 693 N 54.3119 6.29685 -3.10549 0
M  V30 694 H 59.1519 1.8891 -2.30472 0
M  V30 695 H 56.6889 0.923373 -1.14509 0
M  V30 696 H 58.6469 4.03479 -1.06116 0
M  V30 697 H 57.2769 3.21711 -0.264973 0
M  V30 698 H 56.3289 2.74103 -2.63764 0
M  V30 699 H 57.6409 3.74283 -3.29717 0
M  V30 700 H 56.7949 5.72135 -2.01857 0
M  V30 701 H 55.5339 4.71286 -1.25462 0
M  V30 702 H 54.5389 4.23268 -3.50891 0
M  V30 703 H 55.7639 5.27546 -4.27635 0
M  V30 704 H 53.7099 6.17306 -2.21967 0
M  V30 705 H 53.6269 6.46014 -3.92686 0
M  V30 706 H 54.8949 7.19722 -2.99367 0
M  V30 707 N 59.124 1.23083 0.984299 0
M  V30 708 C 60.37 1.06214 1.72761 0
M  V30 709 C 60.703 -0.400584 1.90024 0
M  V30 710 O 59.978 -1.29672 1.44967 0
M  V30 711 C 60.261 1.78375 3.12817 0
M  V30 712 C 60.114 3.32296 3.03149 0
M  V30 713 C 61.433 1.54309 4.12161 0
M  V30 714 H 58.552 0.387251 0.627061 0
M  V30 715 H 61.194 1.51536 1.14616 0
M  V30 716 H 59.344 1.39848 3.62457 0
M  V30 717 H 61.016 3.8032 2.61064 0
M  V30 718 H 59.259 3.6153 2.39747 0
M  V30 719 H 59.93 3.77972 4.02295 0
M  V30 720 H 62.406 1.87791 3.71314 0
M  V30 721 H 61.282 2.07281 5.08258 0
M  V30 722 H 61.543 0.477572 4.39513 0
M  V30 723 N 60.6021 -1.18246 1.0419 0
M  V30 724 C 61.8791 -1.84121 0.660208 0
M  V30 725 C 62.2591 -1.92778 -0.860221 0
M  V30 726 O 61.6071 -1.45464 -1.76217 0
M  V30 727 C 61.8171 -3.22355 1.33747 0
M  V30 728 C 63.1651 -3.98376 1.46906 0
M  V30 729 O 64.1891 -3.31799 1.29568 0
M  V30 730 O 63.0481 -5.17665 1.75171 0
M  V30 731 H 60.1421 -0.794036 0.231161 0
M  V30 732 H 62.6881 -1.25628 1.14087 0
M  V30 733 H 61.4601 -3.10964 2.37522 0
M  V30 734 H 61.0831 -3.88506 0.845515 0
M  V30 735 N 62.0802 -0.821533 -1.34494 0
M  V30 736 C 62.9902 -0.244355 -2.33324 0
M  V30 737 C 64.0062 0.620527 -1.62559 0
M  V30 738 O 65.1822 0.528754 -1.94335 0
M  V30 739 C 62.2472 0.585368 -3.41723 0
M  V30 740 C 61.3082 -0.301752 -4.28238 0
M  V30 741 C 60.5412 0.488466 -5.3146 0
M  V30 742 O 60.7642 1.72186 -5.4379 0
M  V30 743 O 59.6982 -0.12848 -6.01763 0
M  V30 744 H 63.5242 -1.06231 -2.84515 0
M  V30 745 H 61.1092 -0.583645 -1.37528 0
M  V30 746 H 62.9912 1.05747 -4.07916 0
M  V30 747 H 61.6662 1.38068 -2.92778 0
M  V30 748 H 60.5732 -0.821315 -3.64973 0
M  V30 749 H 61.9062 -1.06138 -4.8062 0
M  V30 750 N 63.5583 1.46682 -0.576371 0
M  V30 751 C 64.8073 2.01619 -0.0572825 0
M  V30 752 C 65.1203 1.45417 1.30818 0
M  V30 753 O 66.3263 1.92133 1.91825 0
M  V30 754 C 64.7823 3.59863 -0.0518371 0
M  V30 755 C 64.3903 4.25059 -1.41523 0
M  V30 756 C 66.1343 4.2248 0.413639 0
M  V30 757 C 64.0413 5.75364 -1.36785 0
M  V30 758 H 62.9713 0.753794 -0.0176448 0
M  V30 759 H 65.6223 1.68481 -0.727076 0
M  V30 760 H 64.0043 3.90048 0.683994 0
M  V30 761 H 65.1783 4.06491 -2.17029 0
M  V30 762 H 63.4933 3.7451 -1.8202 0
M  V30 763 H 66.0903 5.3265 0.467779 0
M  V30 764 H 66.4333 3.90976 1.42982 0
M  V30 765 H 66.9663 3.96897 -0.267929 0
M  V30 766 H 63.7053 6.11518 -2.36063 0
M  V30 767 H 63.2253 5.96214 -0.654895 0
M  V30 768 H 64.9043 6.37955 -1.07805 0
M  V30 769 N 65.0364 0.313813 1.54444 0
M  V30 770 C 66.2614 -0.296681 2.05267 0
M  V30 771 C 66.6864 -1.45757 1.18897 0
M  V30 772 O 66.0444 -1.80239 0.195886 0
M  V30 773 C 66.0924 -0.71831 3.53373 0
M  V30 774 O 65.1964 -1.82175 3.69981 0
M  V30 775 H 64.5374 -0.0554061 0.661684 0
M  V30 776 H 67.0674 0.459387 1.99376 0
M  V30 777 H 67.0774 -1.00364 3.95463 0
M  V30 778 H 65.7524 0.130821 4.15694 0
M  V30 779 H 64.3294 -1.53598 3.39797 0
M  V30 780 N 66.5145 -1.57545 0.0417849 0
M  V30 781 C 67.9305 -1.56467 -0.314704 0
M  V30 782 C 68.1305 -1.04859 -1.72066 0
M  V30 783 O 67.1865 -0.700983 -2.42575 0
M  V30 784 C 68.4995 -3.00317 -0.15174 0
M  V30 785 C 70.0475 -3.12201 -0.223553 0
M  V30 786 C 70.5225 -4.57913 -0.0892295 0
M  V30 787 N 72.0135 -4.6297 -0.145808 0
M  V30 788 C 72.7485 -5.73362 -0.0658459 0
M  V30 789 N 72.2445 -6.92769 0.0659282 0
M  V30 790 N 74.0375 -5.6197 -0.12075 0
M  V30 791 H 66.1885 -1.89416 0.961014 0
M  V30 792 H 68.4515 -0.871862 0.372237 0
M  V30 793 H 68.1575 -3.42073 0.817254 0
M  V30 794 H 68.0315 -3.65892 -0.916692 0
M  V30 795 H 70.4185 -2.70349 -1.18301 0
M  V30 796 H 70.4995 -2.49323 0.571994 0
M  V30 797 H 70.1435 -5.00448 0.866867 0
M  V30 798 H 70.0735 -5.18786 -0.903802 0
M  V30 799 H 72.5645 -3.7709 -0.247286 0
M  V30 800 H 72.8775 -7.72707 0.119905 0
M  V30 801 H 71.2225 -6.94927 0.100885 0
M  V30 802 H 74.4135 -4.67572 -0.222187 0
M  V30 803 H 74.5865 -6.47977 -0.0549735 0
M  V30 804 N 67.9926 0.231505 -1.5589 0
M  V30 805 C 69.4086 0.580748 -1.48659 0
M  V30 806 C 69.6086 1.87617 -0.73498 0
M  V30 807 O 68.6646 2.51046 -0.270586 0
M  V30 808 C 69.9776 0.669202 -2.93159 0
M  V30 809 C 71.5256 0.760499 -3.03621 0
M  V30 810 C 72.0006 0.880383 -4.49459 0
M  V30 811 N 73.4916 0.944861 -4.53461 0
M  V30 812 C 74.2266 1.05716 -5.63571 0
M  V30 813 N 73.7226 1.13403 -6.83456 0
M  V30 814 N 75.5156 1.09152 -5.514 0
M  V30 815 H 67.6666 -0.618695 -2.03189 0
M  V30 816 H 69.9296 -0.215728 -0.923128 0
M  V30 817 H 69.6356 -0.212904 -3.51055 0
M  V30 818 H 69.5096 1.5361 -3.44505 0
M  V30 819 H 71.8966 1.63305 -2.45796 0
M  V30 820 H 71.9776 -0.131864 -2.5546 0
M  V30 821 H 71.6216 0.0123284 -5.07899 0
M  V30 822 H 71.5516 1.78802 -4.95316 0
M  V30 823 H 74.0426 0.896176 -3.6712 0
M  V30 824 H 74.3556 1.21921 -7.63122 0
M  V30 825 H 72.7006 1.10333 -6.86186 0
M  V30 826 H 75.8916 1.02805 -4.56671 0
M  V30 827 H 76.0646 1.17558 -6.37247 0
M  V30 828 N 69.4707 1.49531 0.497807 0
M  V30 829 C 70.4007 1.6935 1.60757 0
M  V30 830 C 71.3817 0.542218 1.61227 0
M  V30 831 O 72.5667 0.778417 1.77917 0
M  V30 832 C 69.6967 1.76298 2.99226 0
M  V30 833 C 68.6507 2.91248 3.13622 0
M  V30 834 C 67.9767 2.83312 4.53474 0
M  V30 835 C 69.2767 4.3214 2.93346 0
M  V30 836 H 70.9707 2.62263 1.44425 0
M  V30 837 H 68.5167 1.26208 0.693367 0
M  V30 838 H 70.4697 1.88749 3.76765 0
M  V30 839 H 69.1937 0.799871 3.16654 0
M  V30 840 H 67.8527 2.78404 2.38509 0
M  V30 841 H 67.5007 1.84902 4.67782 0
M  V30 842 H 67.2007 3.60465 4.64046 0
M  V30 843 H 68.7247 2.97775 5.33069 0
M  V30 844 H 70.1387 4.45649 3.60652 0
M  V30 845 H 68.5357 5.1054 3.15387 0
M  V30 846 H 69.6057 4.46363 1.89441 0
M  V30 847 N 70.9488 -0.749086 1.3866 0
M  V30 848 C 72.1978 -1.50371 1.3443 0
M  V30 849 C 72.5108 -1.95503 -0.0616397 0
M  V30 850 O 73.7168 -2.70554 -0.226489 0
M  V30 851 C 72.1728 -2.71644 2.36088 0
M  V30 852 C 71.7808 -2.3352 3.82325 0
M  V30 853 C 73.5248 -3.49518 2.40909 0
M  V30 854 C 71.4318 -3.51431 4.75658 0
M  V30 855 H 70.3618 -0.564628 0.499712 0
M  V30 856 H 73.0128 -0.818449 1.64237 0
M  V30 857 H 71.3948 -3.42175 1.9933 0
M  V30 858 H 72.5688 -1.70627 4.28046 0
M  V30 859 H 70.8838 -1.6877 3.80665 0
M  V30 860 H 73.4808 -4.37197 3.07836 0
M  V30 861 H 73.8238 -3.90992 1.42937 0
M  V30 862 H 74.3568 -2.86005 2.76489 0
M  V30 863 H 71.0958 -3.15019 5.74842 0
M  V30 864 H 70.6158 -4.13352 4.34627 0
M  V30 865 H 72.2948 -4.17953 4.93887 0
M  V30 866 N 72.4269 -1.23603 -0.977757 0
M  V30 867 C 73.6729 -1.08136 -1.72274 0
M  V30 868 C 74.0279 0.377453 -1.88661 0
M  V30 869 O 73.3209 1.27552 -1.42972 0
M  V30 870 C 73.5149 -1.7433 -3.11999 0
M  V30 871 C 73.3439 -3.26498 -3.0924 0
M  V30 872 C 72.1139 -3.9567 -3.14282 0
M  V30 873 C 74.3119 -4.2323 -2.92201 0
M  V30 874 N 72.2939 -5.34799 -3.01436 0
M  V30 875 C 73.6649 -5.49289 -2.87544 0
M  V30 876 C 75.7199 -4.13931 -2.76705 0
M  V30 877 C 74.4229 -6.67116 -2.68978 0
M  V30 878 C 76.4489 -5.31424 -2.59504 0
M  V30 879 C 75.8109 -6.5641 -2.55548 0
M  V30 880 H 71.9099 -0.450247 -0.639376 0
M  V30 881 H 74.4939 -1.5637 -1.16002 0
M  V30 882 H 72.6649 -1.28624 -3.66484 0
M  V30 883 H 74.3969 -1.51815 -3.75146 0
M  V30 884 H 71.1519 -3.46767 -3.22567 0
M  V30 885 H 71.5759 -6.07748 -2.98281 0
M  V30 886 H 76.2179 -3.1807 -2.78552 0
M  V30 887 H 73.9359 -7.63109 -2.65876 0
M  V30 888 H 77.5219 -5.26072 -2.48474 0
M  V30 889 H 76.4019 -7.45795 -2.42405 0
M  V30 890 N 73.905 1.17692 -1.04816 0
M  V30 891 C 74.815 2.25229 -0.65643 0
M  V30 892 C 75.831 1.71018 0.320761 0
M  V30 893 O 77.007 2.00649 0.173805 0
M  V30 894 C 74.072 3.46684 -0.0332629 0
M  V30 895 C 73.133 4.15997 -1.06042 0
M  V30 896 C 72.366 5.31654 -0.466893 0
M  V30 897 O 72.589 5.65777 0.724758 0
M  V30 898 O 71.523 5.89831 -1.1993 0
M  V30 899 H 75.349 2.61016 -1.55255 0
M  V30 900 H 72.934 1.24919 -0.81949 0
M  V30 901 H 74.816 4.20234 0.313256 0
M  V30 902 H 73.491 3.12703 0.836566 0
M  V30 903 H 72.398 3.44482 -1.45886 0
M  V30 904 H 73.731 4.53996 -1.90127 0
M  V30 905 N 75.3831 0.828654 1.34056 0
M  V30 906 C 76.3301 0.252567 2.29414 0
M  V30 907 C 77.3001 -0.62588 1.53857 0
M  V30 908 O 78.4851 -0.566312 1.82202 0
M  V30 909 C 75.6251 -0.574831 3.40279 0
M  V30 910 C 74.7381 0.326499 4.30764 0
M  V30 911 C 73.8731 -0.511016 5.28736 0
M  V30 912 C 72.9121 0.389342 6.1086 0
M  V30 913 N 72.0491 -0.409439 7.00905 0
M  V30 914 H 76.8891 1.07108 2.78086 0
M  V30 915 H 74.4261 0.539677 1.36843 0
M  V30 916 H 76.3841 -1.06992 4.03248 0
M  V30 917 H 75.0141 -1.35841 2.92826 0
M  V30 918 H 74.0661 0.939837 3.68607 0
M  V30 919 H 75.3781 1.01857 4.88289 0
M  V30 920 H 74.5321 -1.07035 5.97184 0
M  V30 921 H 73.2711 -1.23657 4.71763 0
M  V30 922 H 72.2761 0.960769 5.4134 0
M  V30 923 H 73.5011 1.1131 6.69916 0
M  V30 924 H 71.4471 -1.11856 6.46393 0
M  V30 925 H 71.3641 0.224126 7.55668 0
M  V30 926 H 72.6321 -0.951336 7.73673 0
M  V30 927 N 76.8612 -1.46375 0.584142 0
M  V30 928 C 77.8092 -2.32042 -0.161047 0
M  V30 929 C 78.8032 -1.44569 -0.882966 0
M  V30 930 O 80.0092 -1.61186 -0.801191 0
M  V30 931 H 76.3842 -0.748659 -0.0708033 0
M  V30 932 H 78.3552 -2.92704 0.580269 0
M  V30 933 C 77.1042 -3.27762 -1.1605 0
M  V30 934 H 76.4272 -3.95051 -0.614419 0
M  V30 935 H 77.8672 -3.90481 -1.65228 0
M  V30 936 C 76.3262 -2.53218 -2.22221 0
M  V30 937 O 76.8562 -2.29628 -3.29597 0
M  V30 938 N 75.0622 -2.13756 -1.96868 0
M  V30 939 H 74.6092 -2.33142 -1.09557 0
M  V30 940 H 74.5672 -1.642 -2.68115 0
M  V30 941 N 78.3393 -0.321999 -1.54275 0
M  V30 942 C 79.2693 0.537411 -2.27231 0
M  V30 943 C 80.2503 1.12064 -1.27968 0
M  V30 944 O 81.4353 1.14606 -1.56777 0
M  V30 945 C 78.5653 1.69919 -3.02894 0
M  V30 946 C 77.5193 1.24534 -4.09482 0
M  V30 947 C 76.8453 2.49394 -4.72977 0
M  V30 948 C 78.1453 0.361335 -5.21049 0
M  V30 949 H 79.8393 -0.0711406 -2.99315 0
M  V30 950 H 77.3853 -0.0356555 -1.43956 0
M  V30 951 H 79.3383 2.30668 -3.52662 0
M  V30 952 H 78.0623 2.33431 -2.28424 0
M  V30 953 H 76.7213 0.660782 -3.60596 0
M  V30 954 H 76.3693 3.11265 -3.95124 0
M  V30 955 H 76.0693 2.19718 -5.44975 0
M  V30 956 H 77.5933 3.10908 -5.25517 0
M  V30 957 H 79.0073 0.875072 -5.66582 0
M  V30 958 H 77.4043 0.157428 -5.99893 0
M  V30 959 H 78.4743 -0.60822 -4.8107 0
M  V30 960 N 79.8174 1.5752 -0.0501392 0
M  V30 961 C 80.7644 2.1147 0.924603 0
M  V30 962 C 81.7344 1.02182 1.30951 0
M  V30 963 O 82.9194 1.29723 1.39916 0
M  V30 964 C 80.0594 2.66337 2.19451 0
M  V30 965 C 79.1724 3.89708 1.86418 0
M  V30 966 C 78.3074 4.32893 3.07859 0
M  V30 967 C 77.3464 5.48967 2.70742 0
M  V30 968 N 76.4834 5.87211 3.84874 0
M  V30 969 H 81.3234 2.94465 0.457639 0
M  V30 970 H 78.8604 1.45531 0.214266 0
M  V30 971 H 80.8184 2.96247 2.93758 0
M  V30 972 H 79.4484 1.86141 2.63726 0
M  V30 973 H 78.5004 3.66396 1.02264 0
M  V30 974 H 79.8124 4.74074 1.55096 0
M  V30 975 H 78.9664 4.6435 3.90466 0
M  V30 976 H 77.7054 3.47336 3.42358 0
M  V30 977 H 76.7104 5.17183 1.86551 0
M  V30 978 H 77.9354 6.3624 2.37436 0
M  V30 979 H 75.8814 5.04607 4.19175 0
M  V30 980 H 75.7984 6.66266 3.57247 0
M  V30 981 H 77.0664 6.23282 4.68123 0
M  V30 982 N 81.2955 -0.223234 1.56011 0
M  V30 983 C 82.5255 -0.963413 1.82762 0
M  V30 984 C 82.9335 -1.78516 0.626804 0
M  V30 985 O 82.2765 -1.78974 -0.414014 0
M  V30 986 C 82.3385 -1.93126 3.0322 0
M  V30 987 C 82.0025 -1.2942 4.38291 0
M  V30 988 C 82.9995 -0.684916 5.15369 0
M  V30 989 C 80.6845 -1.30647 4.85012 0
M  V30 990 C 82.6785 -0.0963971 6.37327 0
M  V30 991 C 80.3655 -0.71411 6.06913 0
M  V30 992 C 81.3635 -0.110123 6.82911 0
M  V30 993 O 81.0515 0.47303 8.02507 0
M  V30 994 H 80.7835 -0.288011 0.611576 0
M  V30 995 H 83.3375 -0.244103 2.03944 0
M  V30 996 H 81.5675 -2.68952 2.77852 0
M  V30 997 H 83.2565 -2.53685 3.16857 0
M  V30 998 H 84.0225 -0.667774 4.80381 0
M  V30 999 H 79.9015 -1.76598 4.25833 0
M  V30 1000 H 83.4455 0.375657 6.96588 0
M  V30 1001 H 79.3425 -0.728659 6.41374 0
M  V30 1002 H 80.1105 0.367186 8.17676 0
M  V30 1003 N 82.7736 -1.49793 -0.48987 0
M  V30 1004 C 84.0226 -1.59085 -1.23995 0
M  V30 1005 C 84.3356 -0.287907 -1.9347 0
M  V30 1006 O 85.5416 -0.259506 -2.70257 0
M  V30 1007 C 83.9976 -2.80736 -2.252 0
M  V30 1008 C 83.6056 -4.17833 -1.61614 0
M  V30 1009 C 85.3496 -2.99364 -3.00967 0
M  V30 1010 C 83.2566 -5.30693 -2.60996 0
M  V30 1011 H 82.1866 -0.592372 -0.466488 0
M  V30 1012 H 84.8376 -1.76197 -0.51252 0
M  V30 1013 H 83.2196 -2.57142 -3.01154 0
M  V30 1014 H 84.3936 -4.51608 -0.915774 0
M  V30 1015 H 82.7086 -4.04656 -0.981977 0
M  V30 1016 H 85.3056 -3.80851 -3.75308 0
M  V30 1017 H 85.6486 -2.10356 -3.59244 0
M  V30 1018 H 86.1816 -3.2305 -2.32128 0
M  V30 1019 H 82.9206 -6.21796 -2.07485 0
M  V30 1020 H 82.4406 -5.01359 -3.2924 0
M  V30 1021 H 84.1196 -5.6049 -3.23202 0
M  V30 1022 N 84.2517 0.741722 -1.39055 0
M  V30 1023 C 85.4767 1.53607 -1.39354 0
M  V30 1024 C 85.9017 1.88096 0.0116905 0
M  V30 1025 O 85.2597 1.5143 0.996924 0
M  V30 1026 C 85.3077 2.80441 -2.26682 0
M  V30 1027 O 84.4117 3.76088 -1.69208 0
M  V30 1028 H 83.7527 0.464142 -0.474835 0
M  V30 1029 H 86.2827 0.915665 -1.82967 0
M  V30 1030 H 86.2927 3.29246 -2.40959 0
M  V30 1031 H 84.9677 2.5467 -3.2881 0
M  V30 1032 H 83.5447 3.34833 -1.64138 0
M  V30 1033 N 85.7298 1.2412 0.971189 0
M  V30 1034 C 86.9788 1.07284 1.70801 0
M  V30 1035 C 87.2918 -0.388902 1.91695 0
M  V30 1036 O 88.4978 -0.677379 2.62914 0
M  V30 1037 C 86.9538 1.87145 3.07416 0
M  V30 1038 C 86.5618 3.37707 2.94377 0
M  V30 1039 C 88.3058 1.78828 3.84995 0
M  V30 1040 C 86.2128 4.09925 4.26281 0
M  V30 1041 H 85.1428 0.397854 0.64049 0
M  V30 1042 H 87.7938 1.4817 1.0825 0
M  V30 1043 H 86.1758 1.39071 3.70777 0
M  V30 1044 H 87.3498 3.93335 2.4005 0
M  V30 1045 H 85.6648 3.46938 2.30267 0
M  V30 1046 H 88.2618 2.30089 4.82662 0
M  V30 1047 H 88.6048 0.75284 4.09436 0
M  V30 1048 H 89.1378 2.24563 3.28354 0
M  V30 1049 H 85.8768 5.13813 4.07033 0
M  V30 1050 H 85.3968 3.59083 4.80437 0
M  V30 1051 H 87.0758 4.1673 4.94919 0
M  V30 1052 N 87.2079 -1.17134 1.05439 0
M  V30 1053 C 88.1579 -2.1919 0.627675 0
M  V30 1054 C 89.1419 -1.57328 -0.337147 0
M  V30 1055 O 90.3339 -1.76329 -0.153976 0
M  V30 1056 C 87.4629 -3.43299 0.00651435 0
M  V30 1057 C 86.5489 -4.12255 0.995312 0
M  V30 1058 N 86.9399 -4.56997 2.16765 0
M  V30 1059 C 85.2379 -4.38316 0.824336 0
M  V30 1060 C 85.9389 -5.10239 2.7934 0
M  V30 1061 N 84.9149 -5.02595 2.07122 0
M  V30 1062 H 88.7169 -2.5149 1.52086 0
M  V30 1063 H 86.2309 -1.33491 0.924868 0
M  V30 1064 H 88.2279 -4.15693 -0.316965 0
M  V30 1065 H 86.8879 -3.1249 -0.882033 0
M  V30 1066 H 87.8989 -4.51006 2.54587 0
M  V30 1067 H 84.5759 -4.17498 -0.0129526 0
M  V30 1068 H 85.9659 -5.54961 3.78772 0
M  V30 1069 N 88.686 -0.835752 -1.33615 0
M  V30 1070 C 89.634 -0.255238 -2.31195 0
M  V30 1071 C 90.628 0.61107 -1.57995 0
M  V30 1072 O 91.834 0.500979 -1.72888 0
M  V30 1073 H 88.209 -0.0638085 -0.749288 0
M  V30 1074 H 90.18 -1.09283 -2.77669 0
M  V30 1075 C 88.929 0.55754 -3.43201 0
M  V30 1076 H 88.252 -0.0997553 -3.99676 0
M  V30 1077 H 89.692 0.929622 -4.13683 0
M  V30 1078 C 88.151 1.73515 -2.88781 0
M  V30 1079 O 88.681 2.83376 -2.84712 0
M  V30 1080 N 86.887 1.55603 -2.4543 0
M  V30 1081 H 86.434 0.662354 -2.48939 0
M  V30 1082 H 86.392 2.34545 -2.09371 0
M  V30 1083 N 90.1641 1.46063 -0.591896 0
M  V30 1084 C 91.0941 2.33172 0.123673 0
M  V30 1085 C 92.0751 1.45897 0.87453 0
M  V30 1086 O 93.2601 1.74698 0.848181 0
M  V30 1087 C 90.3901 3.28336 1.13194 0
M  V30 1088 C 89.3441 4.25124 0.495324 0
M  V30 1089 C 88.6701 5.09863 1.61071 0
M  V30 1090 C 89.9701 5.19143 -0.573425 0
M  V30 1091 H 91.6641 2.93252 -0.603646 0
M  V30 1092 H 89.2101 1.41014 -0.291741 0
M  V30 1093 H 91.1631 3.88137 1.64097 0
M  V30 1094 H 89.8871 2.66383 1.88965 0
M  V30 1095 H 88.5461 3.66599 0.00729452 0
M  V30 1096 H 88.1941 4.44288 2.35832 0
M  V30 1097 H 87.8941 5.75417 1.19035 0
M  V30 1098 H 89.4181 5.72529 2.12233 0
M  V30 1099 H 90.8321 5.73106 -0.1491 0
M  V30 1100 H 89.2291 5.93089 -0.914636 0
M  V30 1101 H 90.2991 4.62519 -1.45617 0
M  V30 1102 N 91.6422 0.330177 1.54103 0
M  V30 1103 C 92.5522 -0.541534 2.28264 0
M  V30 1104 C 93.5682 -1.12351 1.32866 0
M  V30 1105 O 94.7442 -1.14206 1.65888 0
M  V30 1106 C 91.8092 -1.68322 3.03098 0
M  V30 1107 C 90.8702 -1.13238 4.14096 0
M  V30 1108 C 90.1032 -2.21966 4.85352 0
M  V30 1109 O 90.3262 -3.42437 4.56172 0
M  V30 1110 O 89.2602 -1.87013 5.7211 0
M  V30 1111 H 93.0862 0.060938 3.03639 0
M  V30 1112 H 90.6712 0.09565 1.49093 0
M  V30 1113 H 92.5532 -2.34777 3.49939 0
M  V30 1114 H 91.2282 -2.27176 2.30593 0
M  V30 1115 H 90.1352 -0.432736 3.71589 0
M  V30 1116 H 91.4682 -0.588898 4.88664 0
M  V30 1117 N 93.1203 -1.57491 0.0584922 0
M  V30 1118 C 94.0833 -2.1085 -0.898617 0
M  V30 1119 C 95.0833 -1.02964 -1.23511 0
M  V30 1120 O 96.2733 -1.29007 -1.17059 0
M  V30 1121 C 93.4053 -2.59881 -2.20623 0
M  V30 1122 H 94.5983 -2.96715 -0.435936 0
M  V30 1123 H 92.1513 -1.55141 -0.190023 0
M  V30 1124 H 92.8863 -1.77431 -2.71457 0
M  V30 1125 H 92.6713 -3.38727 -1.97501 0
M  V30 1126 H 94.1613 -3.01285 -2.89166 0
M  V30 1127 N 94.5984 0.214957 -1.56127 0
M  V30 1128 C 95.8234 0.95924 -1.83884 0
M  V30 1129 C 96.2484 1.7689 -0.639644 0
M  V30 1130 O 95.6064 1.76566 0.411601 0
M  V30 1131 C 95.6544 1.84723 -3.09693 0
M  V30 1132 O 94.7584 2.94346 -2.8885 0
M  V30 1133 H 94.0994 0.27125 -0.606069 0
M  V30 1134 H 96.6294 0.226276 -2.03345 0
M  V30 1135 H 96.6394 2.25576 -3.39969 0
M  V30 1136 H 95.3144 1.25218 -3.96602 0
M  V30 1137 H 93.8914 2.57391 -2.69823 0
M  V30 1138 N 96.0765 1.50051 0.48192 0
M  V30 1139 C 97.0065 1.71046 1.58951 0
M  V30 1140 C 97.9875 0.559288 1.60642 0
M  V30 1141 O 99.1725 0.797243 1.77081 0
M  V30 1142 C 96.3025 1.79462 2.97339 0
M  V30 1143 C 95.2565 2.94558 3.10515 0
M  V30 1144 C 94.5825 2.88105 4.50444 0
M  V30 1145 C 95.8825 4.35227 2.88747 0
M  V30 1146 H 97.5765 2.6378 1.41635 0
M  V30 1147 H 95.1225 1.26936 0.679942 0
M  V30 1148 H 97.0755 1.92734 3.74742 0
M  V30 1149 H 95.7995 0.833412 3.15788 0
M  V30 1150 H 94.4585 2.80918 2.35543 0
M  V30 1151 H 94.1065 1.89853 4.65795 0
M  V30 1152 H 93.8065 3.65366 4.60197 0
M  V30 1153 H 95.3305 3.03412 5.29881 0
M  V30 1154 H 96.7445 4.49449 3.55905 0
M  V30 1155 H 95.1415 5.13856 3.09955 0
M  V30 1156 H 96.2115 4.48347 1.84696 0
M  V30 1157 N 97.5546 -0.734337 1.39446 0
M  V30 1158 C 98.8026 -1.49096 1.36436 0
M  V30 1159 C 99.1236 -1.94961 -0.0388255 0
M  V30 1160 O 98.3936 -1.69033 -0.990191 0
M  V30 1161 H 96.9736 -0.5531 0.502085 0
M  V30 1162 H 99.6356 -0.871725 1.74319 0
M  V30 1163 H 98.7316 -2.37276 2.02747 0
M  V30 1164 N 99.0327 -1.24633 -0.964593 0
M  V30 1165 C 100.279 -1.08949 -1.71049 0
M  V30 1166 C 100.612 0.370302 -1.90637 0
M  V30 1167 O 99.8867 1.27349 -1.47011 0
M  V30 1168 C 100.17 -1.83329 -3.0994 0
M  V30 1169 C 100.023 -3.37077 -2.97824 0
M  V30 1170 C 101.342 -1.60846 -4.09654 0
M  V30 1171 H 98.4607 -0.397178 -0.620821 0
M  V30 1172 H 101.103 -1.5334 -1.12191 0
M  V30 1173 H 99.2527 -1.45597 -3.60186 0
M  V30 1174 H 100.925 -3.84425 -2.5498 0
M  V30 1175 H 99.1677 -3.65298 -2.33965 0
M  V30 1176 H 99.8387 -3.84324 -3.96231 0
M  V30 1177 H 102.315 -1.93674 -3.68279 0
M  V30 1178 H 101.191 -2.1534 -5.04896 0
M  V30 1179 H 101.452 -0.547434 -4.38698 0
M  V30 1180 N 100.511 1.16574 -1.06058 0
M  V30 1181 C 101.461 2.18854 -0.63929 0
M  V30 1182 C 102.445 1.57505 0.328798 0
M  V30 1183 O 103.637 1.76408 0.144623 0
M  V30 1184 C 100.766 3.43291 -0.0247203 0
M  V30 1185 C 99.8518 4.11722 -1.01716 0
M  V30 1186 N 100.243 4.55841 -2.19186 0
M  V30 1187 C 98.5408 4.37872 -0.847569 0
M  V30 1188 C 99.2418 5.08751 -2.82042 0
M  V30 1189 N 98.2178 5.01489 -2.09784 0
M  V30 1190 H 102.02 2.5068 -1.53417 0
M  V30 1191 H 99.5338 1.32999 -0.931935 0
M  V30 1192 H 101.531 4.15856 0.294915 0
M  V30 1193 H 100.191 3.12954 0.865448 0
M  V30 1194 H 101.202 4.49649 -2.56975 0
M  V30 1195 H 97.8788 4.17499 -0.00918848 0
M  V30 1196 H 99.2688 5.52944 -3.81709 0
M  V30 1197 N 101.989 0.842826 1.3317 0
M  V30 1198 C 103.217 0.454055 2.01856 0
M  V30 1199 C 103.632 -0.94587 1.63397 0
M  V30 1200 O 102.989 -1.61534 0.849302 0
M  V30 1201 C 103.04 0.569715 3.56982 0
M  V30 1202 O 102.761 1.91448 3.94055 0
M  V30 1203 C 104.262 0.178412 4.42941 0
M  V30 1204 H 101.482 0.17979 0.646465 0
M  V30 1205 H 104.026 1.1365 1.70012 0
M  V30 1206 H 102.181 -0.0648587 3.87346 0
M  V30 1207 H 102.595 1.90282 4.88767 0
M  V30 1208 H 104.069 0.310376 5.51127 0
M  V30 1209 H 104.546 -0.880056 4.30293 0
M  V30 1210 H 105.152 0.787579 4.17944 0
M  V30 1211 N 103.467 -1.45747 0.599634 0
M  V30 1212 C 104.697 -2.06369 0.0977132 0
M  V30 1213 C 105.105 -1.44624 -1.21985 0
M  V30 1214 O 104.448 -0.551831 -1.75216 0
M  V30 1215 C 104.51 -3.59284 -0.124673 0
M  V30 1216 C 104.174 -4.43318 1.10987 0
M  V30 1217 C 105.171 -4.78796 2.02609 0
M  V30 1218 C 102.856 -4.84194 1.33647 0
M  V30 1219 C 104.85 -5.53997 3.15224 0
M  V30 1220 C 102.537 -5.5915 2.46565 0
M  V30 1221 C 103.535 -5.93968 3.37182 0
M  V30 1222 O 103.223 -6.67405 4.48136 0
M  V30 1223 H 102.955 -0.673122 0.0623153 0
M  V30 1224 H 105.509 -1.88104 0.824981 0
M  V30 1225 H 103.739 -3.75919 -0.906745 0
M  V30 1226 H 105.428 -4.01775 -0.577201 0
M  V30 1227 H 106.194 -4.47781 1.86325 0
M  V30 1228 H 102.073 -4.56534 0.64016 0
M  V30 1229 H 105.617 -5.81091 3.85978 0
M  V30 1230 H 101.514 -5.89579 2.62805 0
M  V30 1231 H 102.282 -6.85847 4.46717 0
M  V30 1232 N 104.945 -0.338344 -1.53925 0
M  V30 1233 C 105.855 0.529421 -2.28548 0
M  V30 1234 C 106.871 1.11645 -1.3346 0
M  V30 1235 O 108.047 1.13325 -1.66492 0
M  V30 1236 C 105.112 1.66713 -3.03987 0
M  V30 1237 C 104.173 1.11041 -4.14691 0
M  V30 1238 C 103.406 2.19389 -4.86522 0
M  V30 1239 O 103.629 3.40013 -4.57982 0
M  V30 1240 O 102.563 1.83976 -5.73094 0
M  V30 1241 H 106.389 -0.0770399 -3.03602 0
M  V30 1242 H 103.974 -0.103555 -1.49041 0
M  V30 1243 H 105.856 2.32918 -3.5118 0
M  V30 1244 H 104.531 2.25949 -2.31794 0
M  V30 1245 H 103.438 0.413024 -3.71813 0
M  V30 1246 H 104.771 0.562975 -4.8897 0
M  V30 1247 N 106.423 1.57458 -0.0668435 0
M  V30 1248 C 107.353 2.15468 0.899764 0
M  V30 1249 C 108.334 1.08042 1.31381 0
M  V30 1250 O 109.519 1.36054 1.38574 0
M  V30 1251 C 106.649 2.71232 2.16911 0
M  V30 1252 C 105.603 3.83781 1.89463 0
M  V30 1253 C 104.929 4.26127 3.22986 0
M  V30 1254 C 106.229 5.08238 1.20381 0
M  V30 1255 H 107.923 2.96488 0.416529 0
M  V30 1256 H 105.469 1.4262 0.198908 0
M  V30 1257 H 107.422 3.10458 2.84945 0
M  V30 1258 H 106.146 1.87426 2.67468 0
M  V30 1259 H 104.805 3.45051 1.23836 0
M  V30 1260 H 104.453 3.39249 3.71374 0
M  V30 1261 H 104.153 5.01993 3.05413 0
M  V30 1262 H 105.677 4.67966 3.92225 0
M  V30 1263 H 107.091 5.44811 1.78475 0
M  V30 1264 H 105.488 5.89349 1.13083 0
M  V30 1265 H 106.558 4.84558 0.182153 0
M  V30 1266 N 107.901 -0.206675 1.56239 0
M  V30 1267 C 108.864 -1.23976 1.92776 0
M  V30 1268 C 109.864 -1.39041 0.807729 0
M  V30 1269 O 111.054 -1.37051 1.0753 0
M  V30 1270 C 108.186 -2.61112 2.19165 0
M  V30 1271 H 109.379 -0.927764 2.85189 0
M  V30 1272 H 106.932 -0.447718 1.4975 0
M  V30 1273 H 107.667 -2.97386 1.29352 0
M  V30 1274 H 107.452 -2.51552 3.00772 0
M  V30 1275 H 108.942 -3.35633 2.48476 0
M  V30 1276 N 109.379 -1.50304 -0.473955 0
M  V30 1277 C 110.312 -1.63595 -1.59097 0
M  V30 1278 C 111.29 -0.484142 -1.55225 0
M  V30 1279 O 112.474 -0.703271 -1.7489 0
M  V30 1280 C 109.601 -1.61589 -2.97669 0
M  V30 1281 C 108.647 -2.82295 -3.19705 0
M  V30 1282 S 109.48 -4.43635 -2.99913 0
M  V30 1283 C 110.636 -4.44317 -4.40832 0
M  V30 1284 H 110.869 -2.58082 -1.47583 0
M  V30 1285 H 108.402 -1.39531 -0.661087 0
M  V30 1286 H 110.36 -1.61116 -3.7756 0
M  V30 1287 H 109.021 -0.683421 -3.06575 0
M  V30 1288 H 108.214 -2.77188 -4.20931 0
M  V30 1289 H 107.816 -2.8032 -2.47582 0
M  V30 1290 H 110.108 -4.17703 -5.33414 0
M  V30 1291 H 111.051 -5.45911 -4.50984 0
M  V30 1292 H 111.459 -3.74059 -4.22777 0
M  V30 1293 N 110.857 0.726932 -1.39834 0
M  V30 1294 C 111.805 1.86235 -1.39353 0
M  V30 1295 C 112.799 1.67144 -0.275555 0
M  V30 1296 O 114.005 1.74387 -0.44601 0
M  V30 1297 H 110.38 0.613174 -0.43534 0
M  V30 1298 H 112.351 1.83756 -2.35109 0
M  V30 1299 C 111.1 3.23995 -1.26185 0
M  V30 1300 H 110.423 3.39285 -2.11484 0
M  V30 1301 H 111.863 4.03609 -1.29907 0
M  V30 1302 C 110.322 3.36888 0.0290018 0
M  V30 1303 O 110.852 3.89152 0.99619 0
M  V30 1304 N 109.058 2.90446 0.0947437 0
M  V30 1305 H 108.605 2.48102 -0.693035 0
M  V30 1306 H 108.563 2.99451 0.957932 0
M  V30 1307 N 112.336 1.25143 0.95797 0
M  V30 1308 C 113.286 1.01924 2.0395 0
M  V30 1309 C 114.27 -0.0427175 1.60843 0
M  V30 1310 O 115.462 0.17221 1.7616 0
M  V30 1311 C 112.591 0.636373 3.3735 0
M  V30 1312 C 111.677 1.73492 3.8699 0
M  V30 1313 N 112.068 2.96945 4.0946 0
M  V30 1314 C 110.366 1.61467 4.15746 0
M  V30 1315 C 111.067 3.68228 4.50315 0
M  V30 1316 N 110.043 2.95833 4.56053 0
M  V30 1317 H 113.845 1.95653 2.19311 0
M  V30 1318 H 111.359 1.15413 1.14253 0
M  V30 1319 H 113.356 0.451233 4.14451 0
M  V30 1320 H 112.016 -0.293621 3.2337 0
M  V30 1321 H 113.027 3.33025 3.96629 0
M  V30 1322 H 109.704 0.753394 4.10646 0
M  V30 1323 H 111.094 4.74178 4.76031 0
M  V30 1324 N 113.814 -1.1601 1.06675 0
M  V30 1325 C 114.744 -2.22688 0.702307 0
M  V30 1326 C 115.725 -1.67306 -0.307032 0
M  V30 1327 O 116.91 -1.93352 -0.181305 0
M  V30 1328 C 114.04 -3.47178 0.092038 0
M  V30 1329 C 112.994 -4.15477 1.02777 0
M  V30 1330 C 112.32 -5.33963 0.28061 0
M  V30 1331 C 113.62 -4.66019 2.35846 0
M  V30 1332 H 115.314 -2.53429 1.59419 0
M  V30 1333 H 112.86 -1.21813 0.767961 0
M  V30 1334 H 114.813 -4.21037 -0.174814 0
M  V30 1335 H 113.537 -3.15749 -0.834877 0
M  V30 1336 H 112.196 -3.43549 1.27944 0
M  V30 1337 H 111.844 -4.98788 -0.649545 0
M  V30 1338 H 111.544 -5.806 0.904258 0
M  V30 1339 H 113.068 -6.10596 0.021396 0
M  V30 1340 H 114.482 -5.3144 2.15045 0
M  V30 1341 H 112.879 -5.23293 2.93743 0
M  V30 1342 H 113.949 -3.82023 2.98641 0
M  V30 1343 N 115.292 -0.849877 -1.32721 0
M  V30 1344 C 116.54 -0.450032 -1.97026 0
M  V30 1345 C 116.861 0.996604 -1.67609 0
M  V30 1346 O 116.131 1.6958 -0.980786 0
M  V30 1347 H 114.711 -0.163426 -0.728904 0
M  V30 1348 H 117.373 -1.08526 -1.6189 0
M  V30 1349 H 116.469 -0.591146 -3.0645 0
M  V30 1350 N 116.77 1.45427 -0.607355 0
M  V30 1351 C 118.047 1.9557 -0.0344566 0
M  V30 1352 C 118.427 1.54979 1.43334 0
M  V30 1353 O 117.775 0.812241 2.13576 0
M  V30 1354 C 117.985 3.48226 -0.232321 0
M  V30 1355 C 119.333 4.2445 -0.113001 0
M  V30 1356 O 120.357 3.55829 -0.162431 0
M  V30 1357 O 119.216 5.465 0.00209442 0
M  V30 1358 H 116.31 0.826222 0.0358667 0
M  V30 1359 H 118.856 1.55594 -0.6774 0
M  V30 1360 H 117.628 3.70739 -1.25174 0
M  V30 1361 H 117.251 3.95092 0.445896 0
M  V30 1362 N 118.248 0.346503 1.53744 0
M  V30 1363 C 119.181 -0.552023 2.21423 0
M  V30 1364 C 120.159 -1.09798 1.19929 0
M  V30 1365 O 121.343 -1.1577 1.4876 0
M  V30 1366 C 118.47 -1.75972 2.89398 0
M  V30 1367 C 117.516 -1.34295 4.04805 0
M  V30 1368 S 118.349 -0.360263 5.34287 0
M  V30 1369 C 119.505 -1.57473 6.05767 0
M  V30 1370 H 119.738 0.0228119 2.97291 0
M  V30 1371 H 117.271 0.130579 1.53847 0
M  V30 1372 H 119.229 -2.45256 3.2918 0
M  V30 1373 H 117.89 -2.30578 2.1329 0
M  V30 1374 H 117.083 -2.24349 4.51313 0
M  V30 1375 H 116.685 -0.729555 3.66815 0
M  V30 1376 H 118.977 -2.50875 6.29339 0
M  V30 1377 H 119.92 -1.15138 6.98676 0
M  V30 1378 H 120.328 -1.77212 5.35963 0
M  V30 1379 N 119.726 -1.57421 0.075193 0
M  V30 1380 C 120.954 -1.97946 -0.602076 0
M  V30 1381 C 121.369 -0.953674 -1.62943 0
M  V30 1382 O 120.726 0.0592551 -1.82404 0
M  V30 1383 C 120.777 -3.38546 -1.26762 0
M  V30 1384 O 120.498 -4.37195 -0.281376 0
M  V30 1385 C 121.999 -3.93966 -2.03239 0
M  V30 1386 H 119.219 -0.650918 -0.162931 0
M  V30 1387 H 121.763 -2.03959 0.148601 0
M  V30 1388 H 119.918 -3.33609 -1.96936 0
M  V30 1389 H 120.332 -5.18975 -0.759267 0
M  V30 1390 H 121.806 -4.94555 -2.45193 0
M  V30 1391 H 122.283 -3.30693 -2.8903 0
M  V30 1392 H 122.889 -4.02315 -1.37924 0
M  V30 1393 N 121.204 0.198386 -1.56346 0
M  V30 1394 C 122.429 0.939682 -1.84891 0
M  V30 1395 C 122.854 1.76202 -0.658369 0
M  V30 1396 O 122.212 1.76993 0.392851 0
M  V30 1397 C 122.26 1.81428 -3.11635 0
M  V30 1398 O 121.364 2.91265 -2.91956 0
M  V30 1399 H 120.705 0.264807 -0.608912 0
M  V30 1400 H 123.235 0.204695 -2.03573 0
M  V30 1401 H 123.245 2.21958 -3.42343 0
M  V30 1402 H 121.92 1.21004 -3.97908 0
M  V30 1403 H 120.497 2.54514 -2.72538 0
M  V30 1404 N 122.682 1.50554 0.465978 0
M  V30 1405 C 123.592 1.72585 1.58907 0
M  V30 1406 C 124.608 0.60911 1.6299 0
M  V30 1407 O 125.784 0.88804 1.80765 0
M  V30 1408 C 122.849 1.81995 2.95091 0
M  V30 1409 C 121.91 3.05751 3.01355 0
M  V30 1410 C 121.143 3.14702 4.31043 0
M  V30 1411 O 121.366 2.30313 5.21835 0
M  V30 1412 O 120.3 4.07468 4.43005 0
M  V30 1413 H 124.126 2.67799 1.43239 0
M  V30 1414 H 121.711 1.34711 0.646013 0
M  V30 1415 H 123.593 1.90335 3.75966 0
M  V30 1416 H 122.268 0.899659 3.10947 0
M  V30 1417 H 121.175 3.02908 2.19539 0
M  V30 1418 H 122.508 3.97375 2.90437 0
M  V30 1419 N 124.16 -0.719506 1.40217 0
M  V30 1420 C 125.07 -1.86378 1.42479 0
M  V30 1421 C 126.086 -1.71073 0.317834 0
M  V30 1422 O 127.262 -1.93406 0.561794 0
M  V30 1423 C 124.327 -3.22136 1.28178 0
M  V30 1424 C 123.388 -3.49723 2.48982 0
M  V30 1425 C 122.621 -4.79004 2.35353 0
M  V30 1426 O 122.844 -5.53821 1.36524 0
M  V30 1427 O 121.778 -5.06839 3.2465 0
M  V30 1428 H 125.604 -1.87425 2.38968 0
M  V30 1429 H 123.189 -0.869405 1.21498 0
M  V30 1430 H 125.071 -4.03234 1.22395 0
M  V30 1431 H 123.746 -3.21825 0.347934 0
M  V30 1432 H 122.653 -2.6865 2.60342 0
M  V30 1433 H 123.986 -3.54828 3.41113 0
M  V30 1434 N 125.638 -1.25649 -0.95132 0
M  V30 1435 C 126.884 -1.10757 -1.69884 0
M  V30 1436 C 127.217 0.350061 -1.91019 0
M  V30 1437 O 126.492 1.25783 -1.48354 0
M  V30 1438 C 126.775 -1.86606 -3.07978 0
M  V30 1439 C 126.628 -3.40217 -2.94232 0
M  V30 1440 C 127.947 -1.65182 -4.07925 0
M  V30 1441 H 125.066 -0.40374 -0.616574 0
M  V30 1442 H 127.708 -1.54521 -1.10558 0
M  V30 1443 H 125.858 -1.49409 -3.58621 0
M  V30 1444 H 127.53 -3.87108 -2.50889 0
M  V30 1445 H 125.773 -3.67759 -2.30078 0
M  V30 1446 H 126.444 -3.88505 -3.92133 0
M  V30 1447 H 128.92 -1.9757 -3.66204 0
M  V30 1448 H 127.796 -2.20683 -5.02583 0
M  V30 1449 H 128.057 -0.593933 -4.38092 0
M  V30 1450 N 127.117 1.15442 -1.07289 0
M  V30 1451 C 128.363 1.86489 -0.796846 0
M  V30 1452 C 128.696 1.82078 0.675371 0
M  V30 1453 O 127.971 1.24346 1.4956 0
M  V30 1454 C 128.254 3.35626 -1.30489 0
M  V30 1455 C 128.107 3.48673 -2.84161 0
M  V30 1456 C 129.426 4.30357 -0.920907 0
M  V30 1457 H 126.545 0.677144 -0.290939 0
M  V30 1458 H 129.187 1.35633 -1.33056 0
M  V30 1459 H 127.337 3.79068 -0.850883 0
M  V30 1460 H 129.009 3.14099 -3.37846 0
M  V30 1461 H 127.252 2.90253 -3.22391 0
M  V30 1462 H 127.923 4.53453 -3.14777 0
M  V30 1463 H 130.399 3.94871 -1.3121 0
M  V30 1464 H 129.275 5.33193 -1.30372 0
M  V30 1465 H 129.536 4.4176 0.173226 0
M  V30 1466 N 128.595 0.856903 1.32268 0
M  V30 1467 C 129.527 0.260412 2.27716 0
M  V30 1468 C 130.54 -0.569137 1.52528 0
M  V30 1469 O 131.729 -0.39326 1.74114 0
M  V30 1470 C 128.829 -0.650477 3.32599 0
M  V30 1471 C 128.002 0.14372 4.37164 0
M  V30 1472 C 127.061 -0.69328 5.21613 0
M  V30 1473 O 126.087 -0.12599 5.69061 0
M  V30 1474 N 127.289 -2.00761 5.44679 0
M  V30 1475 H 130.054 1.08059 2.79541 0
M  V30 1476 H 127.615 0.717103 1.45152 0
M  V30 1477 H 129.607 -1.21581 3.86005 0
M  V30 1478 H 128.177 -1.37133 2.80915 0
M  V30 1479 H 127.397 0.890486 3.8401 0
M  V30 1480 H 128.685 0.68915 5.04111 0
M  V30 1481 H 128.083 -2.49181 5.07863 0
M  V30 1482 H 126.64 -2.52103 6.01072 0
M  V30 1483 N 130.073 -1.45103 0.615059 0
M  V30 1484 C 131.02 -2.30586 -0.0993978 0
M  V30 1485 C 131.99 -1.42544 -0.852669 0
M  V30 1486 O 133.175 -1.71465 -0.836917 0
M  V30 1487 C 130.315 -3.27572 -1.08583 0
M  V30 1488 C 129.428 -4.30717 -0.332656 0
M  V30 1489 C 128.563 -5.14807 -1.30947 0
M  V30 1490 C 127.602 -6.09673 -0.544538 0
M  V30 1491 N 126.739 -6.86517 -1.47101 0
M  V30 1492 H 131.579 -2.91144 0.635542 0
M  V30 1493 H 129.116 -1.4346 0.325206 0
M  V30 1494 H 131.074 -3.82276 -1.67095 0
M  V30 1495 H 129.704 -2.68751 -1.78809 0
M  V30 1496 H 128.756 -3.78615 0.368107 0
M  V30 1497 H 130.068 -4.98102 0.263842 0
M  V30 1498 H 129.222 -5.73948 -1.96643 0
M  V30 1499 H 127.961 -4.47458 -1.9399 0
M  V30 1500 H 126.966 -5.49656 0.126003 0
M  V30 1501 H 128.191 -6.79052 0.080947 0
M  V30 1502 H 126.137 -6.21851 -2.08895 0
M  V30 1503 H 126.054 -7.50281 -0.928137 0
M  V30 1504 H 127.322 -7.50194 -2.11731 0
M  V30 1505 N 131.551 -0.354651 -1.53558 0
M  V30 1506 C 132.484 0.540273 -2.21712 0
M  V30 1507 C 133.462 1.09161 -1.2051 0
M  V30 1508 O 134.646 1.14979 -1.49372 0
M  V30 1509 C 131.773 1.74435 -2.90328 0
M  V30 1510 C 130.819 1.32146 -4.05512 0
M  V30 1511 S 131.652 0.331924 -5.3447 0
M  V30 1512 C 132.808 1.54258 -6.06593 0
M  V30 1513 H 133.041 -0.0385776 -2.97275 0
M  V30 1514 H 130.574 -0.138736 -1.53775 0
M  V30 1515 H 132.532 2.43507 -3.30476 0
M  V30 1516 H 131.193 2.29444 -2.1451 0
M  V30 1517 H 130.386 2.21952 -4.52497 0
M  V30 1518 H 129.988 0.710091 -3.67197 0
M  V30 1519 H 132.28 2.47534 -6.30661 0
M  V30 1520 H 133.223 1.11431 -6.99277 0
M  V30 1521 H 133.631 1.74367 -5.36895 0
M  V30 1522 N 133.029 1.57378 -0.0835403 0
M  V30 1523 C 134.257 1.98263 0.59157 0
M  V30 1524 C 134.672 0.962302 1.62435 0
M  V30 1525 O 134.029 -0.049581 1.82433 0
M  V30 1526 C 134.08 3.39214 1.24965 0
M  V30 1527 O 133.801 4.37339 0.258186 0
M  V30 1528 C 135.302 3.95038 2.01147 0
M  V30 1529 H 132.522 0.651773 0.159477 0
M  V30 1530 H 135.066 2.03878 -0.159415 0
M  V30 1531 H 133.221 3.34649 1.95164 0
M  V30 1532 H 133.635 5.19371 0.731734 0
M  V30 1533 H 135.109 4.95848 2.42567 0
M  V30 1534 H 135.586 3.32222 2.87272 0
M  V30 1535 H 136.192 4.0304 1.35789 0
M  V30 1536 N 134.507 -0.190092 1.56449 0
M  V30 1537 C 135.755 -0.907908 1.80559 0
M  V30 1538 C 136.076 -1.83583 0.657438 0
M  V30 1539 O 135.346 -1.93203 -0.323924 0
M  V30 1540 H 133.926 -0.338247 0.666032 0
M  V30 1541 H 136.588 -0.194403 1.93928 0
M  V30 1542 H 135.684 -1.49604 2.73907 0
M  V30 1543 N 135.985 -1.50799 -0.457987 0
M  V30 1544 C 136.915 -1.73553 -1.5621 0
M  V30 1545 C 137.896 -0.584774 -1.59732 0
M  V30 1546 O 139.081 -0.825314 -1.7579 0
M  V30 1547 C 136.211 -1.84169 -2.94447 0
M  V30 1548 C 135.165 -2.99461 -3.0579 0
M  V30 1549 C 134.491 -2.95235 -4.45803 0
M  V30 1550 C 135.791 -4.39766 -2.81786 0
M  V30 1551 H 137.485 -2.66 -1.37421 0
M  V30 1552 H 135.031 -1.28002 -0.659662 0
M  V30 1553 H 136.984 -1.98672 -3.71628 0
M  V30 1554 H 135.708 -0.883545 -3.14422 0
M  V30 1555 H 134.367 -2.8463 -2.31044 0
M  V30 1556 H 134.015 -1.97239 -4.62715 0
M  V30 1557 H 133.715 -3.72642 -4.54326 0
M  V30 1558 H 135.239 -3.11803 -5.24987 0
M  V30 1559 H 136.653 -4.55054 -3.4871 0
M  V30 1560 H 135.05 -5.18722 -3.0174 0
M  V30 1561 H 136.12 -4.51229 -1.7754 0
M  V30 1562 N 137.463 0.71206 -1.40597 0
M  V30 1563 C 138.41 1.82613 -1.41142 0
M  V30 1564 C 139.38 1.63925 -0.267903 0
M  V30 1565 O 140.565 1.85009 -0.466495 0
M  V30 1566 C 137.705 3.20354 -1.28324 0
M  V30 1567 C 136.818 3.50589 -2.52411 0
M  V30 1568 C 135.953 4.77855 -2.32009 0
M  V30 1569 C 134.992 5.01005 -3.51654 0
M  V30 1570 N 134.129 6.19487 -3.30425 0
M  V30 1571 H 138.969 1.81482 -2.36365 0
M  V30 1572 H 136.506 0.886475 -1.17388 0
M  V30 1573 H 138.464 3.99899 -1.18899 0
M  V30 1574 H 137.094 3.20705 -0.367189 0
M  V30 1575 H 136.146 2.65573 -2.72351 0
M  V30 1576 H 137.458 3.63604 -3.41458 0
M  V30 1577 H 136.612 5.65424 -2.19956 0
M  V30 1578 H 135.351 4.67056 -1.40392 0
M  V30 1579 H 134.356 4.1189 -3.64179 0
M  V30 1580 H 135.581 5.13674 -4.44202 0
M  V30 1581 H 133.527 6.09932 -2.41494 0
M  V30 1582 H 133.444 6.33194 -4.13039 0
M  V30 1583 H 134.712 7.09834 -3.22113 0
M  V30 1584 N 138.941 1.26152 0.944643 0
M  V30 1585 C 140.187 1.11657 1.69294 0
M  V30 1586 C 140.52 -0.339926 1.91202 0
M  V30 1587 O 139.795 -1.24994 1.49019 0
M  V30 1588 C 140.078 1.88236 3.06984 0
M  V30 1589 C 139.931 3.41772 2.92424 0
M  V30 1590 C 141.25 1.67343 4.07043 0
M  V30 1591 H 138.369 0.407004 0.614424 0
M  V30 1592 H 141.011 1.55106 1.09737 0
M  V30 1593 H 139.161 1.51308 3.57824 0
M  V30 1594 H 140.833 3.88433 2.48832 0
M  V30 1595 H 139.076 3.68974 2.28124 0
M  V30 1596 H 139.747 3.90579 3.90067 0
M  V30 1597 H 142.223 1.99509 3.65151 0
M  V30 1598 H 141.099 2.23346 5.01406 0
M  V30 1599 H 141.36 0.617158 4.37771 0
M  V30 1600 N 140.419 -1.14872 1.07899 0
M  V30 1601 C 141.83 -1.67367 0.827363 0
M  V30 1602 C 142.181 -1.85236 -0.646693 0
M  V30 1603 O 141.306 -1.55974 -1.50004 0
M  V30 1604 C 141.901 -3.04016 1.49532 0
M  V30 1605 C 140.46 -3.53566 1.29106 0
M  V30 1606 C 139.607 -2.29161 1.56143 0
M  V30 1607 H 142.558 -0.990083 1.24028 0
M  V30 1608 H 142.579 -3.69219 0.919643 0
M  V30 1609 H 142.091 -2.90978 2.56814 0
M  V30 1610 H 140.192 -3.71835 0.238713 0
M  V30 1611 H 140.305 -4.34661 2.01511 0
M  V30 1612 H 138.669 -2.34978 0.982717 0
M  V30 1613 H 139.452 -2.18705 2.64619 0
M  V30 1614 N 141.898 -0.863906 -1.31812 0
M  V30 1615 C 142.828 -0.330843 -2.31144 0
M  V30 1616 C 143.809 0.575005 -1.60087 0
M  V30 1617 O 144.994 0.493304 -1.8783 0
M  V30 1618 C 142.124 0.47374 -3.44054 0
M  V30 1619 C 141.078 -0.338481 -4.26659 0
M  V30 1620 C 140.404 0.591412 -5.31419 0
M  V30 1621 C 141.704 -1.56926 -4.98168 0
M  V30 1622 H 143.398 -1.16086 -2.75979 0
M  V30 1623 H 140.944 -0.559657 -1.32679 0
M  V30 1624 H 142.897 0.857143 -4.12591 0
M  V30 1625 H 141.621 1.33721 -2.9797 0
M  V30 1626 H 140.28 -0.703754 -3.59782 0
M  V30 1627 H 139.928 1.45199 -4.81587 0
M  V30 1628 H 139.628 0.0519022 -5.87577 0
M  V30 1629 H 141.152 0.97179 -6.02817 0
M  V30 1630 H 142.566 -1.25764 -5.59336 0
M  V30 1631 H 140.963 -2.04739 -5.64094 0
M  V30 1632 H 142.033 -2.32544 -4.25501 0
M  V30 1633 N 143.376 1.44774 -0.622745 0
M  V30 1634 C 144.601 2.06999 -0.128968 0
M  V30 1635 C 145.026 1.4617 1.1839 0
M  V30 1636 O 144.384 0.560007 1.72434 0
M  V30 1637 C 144.432 3.60595 -0.0188351 0
M  V30 1638 O 143.536 3.99398 1.02739 0
M  V30 1639 H 142.877 0.659047 -0.0809544 0
M  V30 1640 H 145.407 1.85784 -0.85705 0
M  V30 1641 H 145.417 4.07627 0.174476 0
M  V30 1642 H 144.092 4.04252 -0.977384 0
M  V30 1643 H 142.669 3.64011 0.809326 0
M  V30 1644 N 144.854 0.36279 1.53368 0
M  V30 1645 C 145.804 -0.501391 2.22419 0
M  V30 1646 C 146.788 -1.0509 1.2184 0
M  V30 1647 O 147.98 -0.981404 1.47301 0
M  V30 1648 C 145.109 -1.64201 3.01484 0
M  V30 1649 C 144.195 -1.10552 4.09438 0
M  V30 1650 N 144.586 -0.291788 5.04958 0
M  V30 1651 C 142.884 -1.3806 4.24094 0
M  V30 1652 C 143.585 0.00162655 5.817 0
M  V30 1653 N 142.561 -0.595244 5.40331 0
M  V30 1654 H 146.363 0.127159 2.93625 0
M  V30 1655 H 143.877 0.170658 1.61501 0
M  V30 1656 H 145.874 -2.27326 3.49469 0
M  V30 1657 H 144.534 -2.27365 2.31809 0
M  V30 1658 H 145.545 0.0687731 5.17854 0
M  V30 1659 H 142.222 -2.01522 3.65644 0
M  V30 1660 H 143.612 0.659278 6.68658 0
M  V30 1661 N 146.332 -1.57332 0.0918853 0
M  V30 1662 C 147.557 -1.98995 -0.584442 0
M  V30 1663 C 147.982 -0.970528 -1.61128 0
M  V30 1664 O 147.34 0.0613904 -1.81196 0
M  V30 1665 C 147.388 -3.39636 -1.21161 0
M  V30 1666 O 146.492 -3.40447 -2.32744 0
M  V30 1667 H 145.833 -0.647165 -0.148572 0
M  V30 1668 H 148.363 -2.03873 0.172347 0
M  V30 1669 H 148.373 -3.7726 -1.55367 0
M  V30 1670 H 147.048 -4.13356 -0.459313 0
M  V30 1671 H 145.625 -3.14614 -2.0018 0
M  V30 1672 N 147.81 0.181792 -1.56548 0
M  V30 1673 C 149.226 0.53316 -1.50431 0
M  V30 1674 C 149.426 1.85184 -0.794297 0
M  V30 1675 O 148.482 2.50058 -0.350318 0
M  V30 1676 C 149.795 0.575597 -2.9514 0
M  V30 1677 C 151.343 0.663519 -3.05886 0
M  V30 1678 C 151.818 0.736946 -4.52032 0
M  V30 1679 N 153.309 0.800118 -4.56237 0
M  V30 1680 C 154.044 0.877327 -5.66649 0
M  V30 1681 N 153.54 0.916016 -6.86718 0
M  V30 1682 N 155.333 0.915542 -5.54594 0
M  V30 1683 H 147.484 -0.683025 -2.01118 0
M  V30 1684 H 149.747 -0.244988 -0.915797 0
M  V30 1685 H 149.453 -0.324482 -3.502 0
M  V30 1686 H 149.327 1.42572 -3.49218 0
M  V30 1687 H 151.714 1.55403 -2.50867 0
M  V30 1688 H 151.795 -0.21307 -2.54911 0
M  V30 1689 H 151.439 -0.149262 -5.07681 0
M  V30 1690 H 151.369 1.62953 -5.00753 0
M  V30 1691 H 153.86 0.778926 -3.69785 0
M  V30 1692 H 154.173 0.975813 -7.66614 0
M  V30 1693 H 152.518 0.884469 -6.89349 0
M  V30 1694 H 155.709 0.882245 -4.59711 0
M  V30 1695 H 155.882 0.972253 -6.40665 0
M  V30 1696 N 149.288 1.51039 0.449983 0
M  V30 1697 C 150.513 1.6715 1.22783 0
M  V30 1698 C 150.938 0.363081 1.84563 0
M  V30 1699 O 150.296 -0.675433 1.68249 0
M  V30 1700 C 150.344 2.77985 2.29689 0
M  V30 1701 O 149.448 2.40707 3.34864 0
M  V30 1702 H 148.789 0.557746 0.360299 0
M  V30 1703 H 151.319 1.97535 0.533005 0
M  V30 1704 H 151.329 3.01693 2.74673 0
M  V30 1705 H 150.004 3.72935 1.84098 0
M  V30 1706 H 148.581 2.27523 2.95445 0
M  V30 1707 N 150.766 -0.704594 1.40972 0
M  V30 1708 C 151.714 -1.83994 1.42299 0
M  V30 1709 C 152.708 -1.66684 0.302111 0
M  V30 1710 O 153.914 -1.73655 0.473697 0
M  V30 1711 H 150.289 -0.606171 0.44504 0
M  V30 1712 H 152.26 -1.79992 2.38003 0
M  V30 1713 C 151.009 -3.21946 1.31323 0
M  V30 1714 H 150.332 -3.35878 2.16855 0
M  V30 1715 H 151.772 -4.01491 1.36311 0
M  V30 1716 C 150.231 -3.36891 0.0245977 0
M  V30 1717 O 150.761 -3.90687 -0.934153 0
M  V30 1718 N 148.967 -2.90559 -0.0485243 0
M  V30 1719 H 148.514 -2.46968 0.732419 0
M  V30 1720 H 148.472 -3.00937 -0.910171 0
M  V30 1721 N 152.244 -1.26651 -0.937939 0
M  V30 1722 C 153.521 -1.0313 -1.66204 0
M  V30 1723 C 153.901 0.437256 -2.06522 0
M  V30 1724 O 153.249 1.41831 -1.79154 0
M  V30 1725 C 153.459 -1.98314 -2.87181 0
M  V30 1726 C 154.807 -2.27107 -3.58758 0
M  V30 1727 O 155.831 -1.96205 -2.97291 0
M  V30 1728 O 154.69 -2.79736 -4.69479 0
M  V30 1729 H 151.784 -0.392384 -0.727986 0
M  V30 1730 H 154.33 -1.37874 -0.989382 0
M  V30 1731 H 153.102 -2.97399 -2.54302 0
M  V30 1732 H 152.725 -1.64068 -3.6217 0
M  V30 1733 N 153.722 1.14298 -1.08507 0
M  V30 1734 C 154.95 1.89219 -0.836876 0
M  V30 1735 C 155.365 1.78638 0.611054 0
M  V30 1736 O 154.722 1.14643 1.41998 0
M  V30 1737 C 154.773 3.39158 -1.25116 0
M  V30 1738 O 154.494 3.49449 -2.64229 0
M  V30 1739 C 155.995 4.31073 -1.03398 0
M  V30 1740 H 153.215 0.599328 -0.301739 0
M  V30 1741 H 155.759 1.44746 -1.44461 0
M  V30 1742 H 153.914 3.81251 -0.687514 0
M  V30 1743 H 154.328 4.42589 -2.81452 0
M  V30 1744 H 155.802 5.34646 -1.37323 0
M  V30 1745 H 156.279 4.3919 0.0289259 0
M  V30 1746 H 156.885 3.94738 -1.58311 0
M  V30 1747 N 155.201 0.870884 1.31352 0
M  V30 1748 C 156.131 0.343096 2.30966 0
M  V30 1749 C 157.112 -0.566507 1.60389 0
M  V30 1750 O 158.297 -0.483336 1.88089 0
M  V30 1751 C 155.427 -0.455487 3.443 0
M  V30 1752 C 154.381 0.361103 4.26474 0
M  V30 1753 C 153.707 -0.563221 5.31725 0
M  V30 1754 C 155.007 1.59566 4.97329 0
M  V30 1755 H 156.701 1.17548 2.75359 0
M  V30 1756 H 154.247 0.566686 1.32381 0
M  V30 1757 H 156.2 -0.83525 4.13039 0
M  V30 1758 H 154.924 -1.32139 2.98675 0
M  V30 1759 H 153.583 0.722825 3.59403 0
M  V30 1760 H 153.231 -1.42643 4.82351 0
M  V30 1761 H 152.931 -0.0207409 5.87596 0
M  V30 1762 H 154.455 -0.939808 6.03324 0
M  V30 1763 H 155.869 1.28728 5.58661 0
M  V30 1764 H 154.266 2.07728 5.63 0
M  V30 1765 H 155.336 2.34798 4.24262 0
M  V30 1766 N 156.679 -1.44442 0.630414 0
M  V30 1767 C 157.909 -2.06115 0.141465 0
M  V30 1768 C 158.317 -1.47179 -1.1889 0
M  V30 1769 O 157.66 -0.588873 -1.74006 0
M  V30 1770 C 157.722 -3.59467 -0.0484355 0
M  V30 1771 C 157.386 -4.40864 1.20366 0
M  V30 1772 C 158.383 -4.74391 2.12719 0
M  V30 1773 C 156.068 -4.8125 1.43887 0
M  V30 1774 C 158.062 -5.47186 3.26904 0
M  V30 1775 C 155.749 -5.53795 2.5837 0
M  V30 1776 C 156.747 -5.86682 3.49705 0
M  V30 1777 O 156.435 -6.57749 4.62191 0
M  V30 1778 H 156.167 -0.671648 0.0765792 0
M  V30 1779 H 158.721 -1.86312 0.864695 0
M  V30 1780 H 156.951 -3.77758 -0.826803 0
M  V30 1781 H 158.64 -4.02909 -0.491849 0
M  V30 1782 H 159.406 -4.43728 1.95781 0
M  V30 1783 H 155.285 -4.55073 0.736853 0
M  V30 1784 H 158.829 -5.72773 3.98217 0
M  V30 1785 H 154.726 -5.83872 2.75251 0
M  V30 1786 H 155.494 -6.76217 4.61164 0
M  V30 1787 N 158.157 -0.370918 -1.53173 0
M  V30 1788 C 159.406 0.218249 -2.00516 0
M  V30 1789 C 159.719 1.49429 -1.26215 0
M  V30 1790 O 160.925 2.16239 -1.64174 0
M  V30 1791 C 159.381 0.43948 -3.57207 0
M  V30 1792 C 158.989 -0.822244 -4.4039 0
M  V30 1793 C 160.733 0.986012 -4.1289 0
M  V30 1794 C 158.64 -0.570304 -5.88644 0
M  V30 1795 H 157.57 0.0853333 -0.749156 0
M  V30 1796 H 160.221 -0.490483 -1.76823 0
M  V30 1797 H 158.603 1.20961 -3.77074 0
M  V30 1798 H 159.777 -1.59557 -4.32294 0
M  V30 1799 H 158.092 -1.29238 -3.95836 0
M  V30 1800 H 160.689 1.18991 -5.21292 0
M  V30 1801 H 161.032 1.94972 -3.6782 0
M  V30 1802 H 161.565 0.27592 -3.96842 0
M  V30 1803 H 158.304 -1.50449 -6.38001 0
M  V30 1804 H 157.824 0.164427 -5.99575 0
M  V30 1805 H 159.503 -0.19784 -6.46697 0
M  V30 1806 N 159.635 1.57281 -0.100228 0
M  V30 1807 C 161.046 1.81725 0.428107 0
M  V30 1808 C 161.397 1.01619 1.67833 0
M  V30 1809 O 160.522 0.247098 2.14985 0
M  V30 1810 C 161.117 3.29617 0.78347 0
M  V30 1811 C 159.676 3.54808 1.25653 0
M  V30 1812 C 158.823 2.76118 0.255752 0
M  V30 1813 H 161.774 1.55324 -0.325608 0
M  V30 1814 H 161.795 3.4322 1.64256 0
M  V30 1815 H 161.307 3.87893 -0.12665 0
M  V30 1816 H 159.408 3.01868 2.18418 0
M  V30 1817 H 159.521 4.63443 1.21482 0
M  V30 1818 H 157.885 2.43745 0.738956 0
M  V30 1819 H 158.668 3.37145 -0.647136 0
M  V30 1820 N 161.113 -0.173488 1.56642 0
M  V30 1821 C 162.023 -1.23482 1.99473 0
M  V30 1822 C 163.039 -1.48567 0.905752 0
M  V30 1823 O 164.215 -1.60758 1.21321 0
M  V30 1824 C 161.28 -2.55444 2.34413 0
M  V30 1825 C 160.341 -2.38241 3.57127 0
M  V30 1826 C 159.574 -3.63909 3.90392 0
M  V30 1827 O 159.797 -4.68996 3.24653 0
M  V30 1828 O 158.731 -3.58149 4.83749 0
M  V30 1829 H 162.557 -0.901279 2.90018 0
M  V30 1830 H 160.142 -0.380185 1.44482 0
M  V30 1831 H 162.024 -3.33292 2.57865 0
M  V30 1832 H 160.699 -2.88382 1.4703 0
M  V30 1833 H 159.606 -1.58431 3.38896 0
M  V30 1834 H 160.939 -2.10228 4.45045 0
M  V30 1835 N 162.591 -1.51276 -0.441967 0
M  V30 1836 C 163.837 -1.6492 -1.1905 0
M  V30 1837 C 164.192 -0.358731 -1.89026 0
M  V30 1838 O 163.485 0.645193 -1.8041 0
M  V30 1839 C 163.679 -2.78746 -2.23686 0
M  V30 1840 C 163.508 -4.18737 -1.63979 0
M  V30 1841 C 162.278 -4.84739 -1.42674 0
M  V30 1842 C 164.476 -5.01988 -1.11858 0
M  V30 1843 N 162.458 -6.08858 -0.785159 0
M  V30 1844 C 163.829 -6.17071 -0.601989 0
M  V30 1845 C 165.884 -4.87551 -1.0099 0
M  V30 1846 C 164.587 -7.19299 0.0126012 0
M  V30 1847 C 166.613 -5.89983 -0.409206 0
M  V30 1848 C 165.975 -7.04333 0.0968651 0
M  V30 1849 H 162.074 -0.657416 -0.423471 0
M  V30 1850 H 164.658 -1.8849 -0.48782 0
M  V30 1851 H 162.829 -2.56848 -2.91348 0
M  V30 1852 H 164.561 -2.81595 -2.90666 0
M  V30 1853 H 161.316 -4.42528 -1.68719 0
M  V30 1854 H 161.74 -6.75282 -0.481942 0
M  V30 1855 H 166.382 -3.99401 -1.38703 0
M  V30 1856 H 164.1 -8.071 0.401879 0
M  V30 1857 H 167.686 -5.8088 -0.327079 0
M  V30 1858 H 166.566 -7.82238 0.554373 0
M  V30 1859 N 164.069 0.697108 -1.41344 0
M  V30 1860 C 164.979 1.84088 -1.45427 0
M  V30 1861 C 165.995 1.70545 -0.34501 0
M  V30 1862 O 167.171 1.92488 -0.592492 0
M  V30 1863 C 164.236 3.20056 -1.33286 0
M  V30 1864 C 163.297 3.45718 -2.54514 0
M  V30 1865 C 162.53 4.75199 -2.42944 0
M  V30 1866 O 162.753 5.51579 -1.45318 0
M  V30 1867 O 161.687 5.0161 -3.32672 0
M  V30 1868 H 165.513 1.836 -2.41919 0
M  V30 1869 H 163.098 0.849966 -1.22866 0
M  V30 1870 H 164.98 4.01236 -1.28794 0
M  V30 1871 H 163.655 3.2123 -0.39909 0
M  V30 1872 H 162.562 2.64474 -2.64583 0
M  V30 1873 H 163.895 3.49356 -3.46715 0
M  V30 1874 N 165.547 1.27147 0.931209 0
M  V30 1875 C 166.795 1.13055 1.6752 0
M  V30 1876 C 167.116 -0.324791 1.92276 0
M  V30 1877 O 166.386 -1.22775 1.52654 0
M  V30 1878 H 164.966 0.415391 0.620854 0
M  V30 1879 H 167.628 1.59623 1.11833 0
M  V30 1880 H 166.724 1.65694 2.64485 0
M  V30 1881 N 167.025 -1.13721 1.09112 0
M  V30 1882 C 168.441 -1.36914 0.820174 0
M  V30 1883 C 168.641 -1.93356 -0.567079 0
M  V30 1884 O 167.697 -2.15093 -1.32255 0
M  V30 1885 C 169.01 -2.3235 1.90877 0
M  V30 1886 C 170.558 -2.45973 1.93562 0
M  V30 1887 C 171.033 -3.44714 3.01556 0
M  V30 1888 N 172.524 -3.52263 3.00775 0
M  V30 1889 C 173.259 -4.28536 3.80978 0
M  V30 1890 N 172.755 -5.07991 4.71081 0
M  V30 1891 N 174.548 -4.23804 3.69251 0
M  V30 1892 H 166.699 -0.754348 1.98553 0
M  V30 1893 H 168.962 -0.3944 0.862063 0
M  V30 1894 H 168.668 -1.98027 2.90651 0
M  V30 1895 H 168.542 -3.32332 1.78424 0
M  V30 1896 H 170.929 -2.79584 0.944286 0
M  V30 1897 H 171.01 -1.45926 2.10093 0
M  V30 1898 H 170.654 -3.11835 4.00901 0
M  V30 1899 H 170.584 -4.44558 2.82269 0
M  V30 1900 H 173.075 -2.95567 2.35475 0
M  V30 1901 H 173.388 -5.63487 5.28869 0
M  V30 1902 H 171.733 -5.07235 4.75119 0
M  V30 1903 H 174.924 -3.60806 2.98222 0
M  V30 1904 H 175.097 -4.82995 4.31995 0
M  V30 1905 N 168.503 -0.877838 -1.30888 0
M  V30 1906 C 169.466 -0.344265 -2.266 0
M  V30 1907 C 170.466 0.50922 -1.52524 0
M  V30 1908 O 171.656 0.317398 -1.71284 0
M  V30 1909 C 168.788 0.510198 -3.37061 0
M  V30 1910 H 169.981 -1.1893 -2.7531 0
M  V30 1911 H 167.534 -0.654088 -1.41956 0
M  V30 1912 H 168.269 1.37612 -2.93655 0
M  V30 1913 H 168.054 -0.101047 -3.9197 0
M  V30 1914 H 169.544 0.875537 -4.08319 0
M  V30 1915 N 169.982 1.44106 -0.638065 0
M  V30 1916 C 171.393 1.85316 -0.226894 0
M  V30 1917 C 171.744 1.53399 1.22324 0
M  V30 1918 O 170.869 0.975463 1.93167 0
M  V30 1919 C 171.464 3.3637 -0.405013 0
M  V30 1920 C 170.023 3.76369 -0.0482902 0
M  V30 1921 C 169.17 2.67921 -0.715108 0
M  V30 1922 H 172.121 1.34474 -0.842764 0
M  V30 1923 H 172.142 3.7885 0.354 0
M  V30 1924 H 171.654 3.59569 -1.46053 0
M  V30 1925 H 169.755 3.58784 1.00522 0
M  V30 1926 H 169.868 4.76856 -0.463187 0
M  V30 1927 H 168.232 2.54259 -0.149753 0
M  V30 1928 H 169.015 2.93951 -1.77335 0
M  V30 1929 N 171.46 0.379036 1.52974 0
M  V30 1930 C 172.737 -0.263479 1.93817 0
M  V30 1931 C 173.117 -1.65244 1.31368 0
M  V30 1932 O 172.465 -2.23448 0.477856 0
M  V30 1933 C 172.675 -0.300166 3.47707 0
M  V30 1934 C 174.023 -0.534061 4.21228 0
M  V30 1935 O 175.047 -0.38081 3.54159 0
M  V30 1936 O 173.906 -0.833501 5.40106 0
M  V30 1937 H 171 -0.161149 0.811147 0
M  V30 1938 H 173.546 0.432798 1.64088 0
M  V30 1939 H 172.318 0.673138 3.85467 0
M  V30 1940 H 171.941 -1.04179 3.83709 0
M  V30 1941 N 172.938 -1.57226 0.108567 0
M  V30 1942 C 174.163 -1.99604 -0.563303 0
M  V30 1943 C 174.588 -0.987563 -1.6009 0
M  V30 1944 O 173.946 0.0421687 -1.81251 0
M  V30 1945 C 173.994 -3.40902 -1.17552 0
M  V30 1946 O 173.098 -3.42896 -2.2912 0
M  V30 1947 H 172.439 -0.648704 -0.1417 0
M  V30 1948 H 174.969 -2.03679 0.193961 0
M  V30 1949 H 174.979 -3.78886 -1.51357 0
M  V30 1950 H 173.654 -4.1382 -0.415445 0
M  V30 1951 H 172.231 -3.1672 -1.96832 0
M  V30 1952 N 174.416 0.165178 -1.56732 0
M  V30 1953 C 175.662 0.882112 -1.82611 0
M  V30 1954 C 175.995 1.81628 -0.687378 0
M  V30 1955 O 175.27 1.92009 0.310267 0
M  V30 1956 C 175.553 1.67245 -3.18906 0
M  V30 1957 C 175.406 0.760987 -4.43316 0
M  V30 1958 C 176.725 2.63884 -3.52212 0
M  V30 1959 H 173.844 0.319242 -0.664269 0
M  V30 1960 H 176.486 0.148052 -1.89422 0
M  V30 1961 H 174.636 2.29824 -3.1323 0
M  V30 1962 H 176.308 0.147596 -4.61064 0
M  V30 1963 H 174.551 0.0694102 -4.33744 0
M  V30 1964 H 175.222 1.34962 -5.35247 0
M  V30 1965 H 177.698 2.11429 -3.58381 0
M  V30 1966 H 176.574 3.16245 -4.48643 0
M  V30 1967 H 176.835 3.44377 -2.77231 0
M  V30 1968 N 175.894 1.51508 0.433938 0
M  V30 1969 C 177.171 1.54888 1.19453 0
M  V30 1970 C 177.551 0.315154 2.08734 0
M  V30 1971 O 176.899 -0.699558 2.17528 0
M  V30 1972 C 177.109 2.86467 1.99342 0
M  V30 1973 C 178.457 3.38545 2.56267 0
M  V30 1974 O 179.481 2.88041 2.0955 0
M  V30 1975 O 178.34 4.26675 3.41483 0
M  V30 1976 H 175.434 0.622863 0.544032 0
M  V30 1977 H 177.98 1.63823 0.442732 0
M  V30 1978 H 176.752 3.67718 1.33788 0
M  V30 1979 H 176.375 2.8071 2.8158 0
M  V30 1980 N 177.372 -0.689602 1.41712 0
M  V30 1981 C 178.602 -1.47613 1.44548 0
M  V30 1982 C 179.01 -1.89132 0.0509034 0
M  V30 1983 O 178.353 -1.57741 -0.94146 0
M  V30 1984 C 178.415 -2.76596 2.2964 0
M  V30 1985 C 178.079 -2.57245 3.77722 0
M  V30 1986 C 179.076 -2.22804 4.69739 0
M  V30 1987 C 176.761 -2.727 4.2183 0
M  V30 1988 C 178.755 -2.04064 6.03851 0
M  V30 1989 C 176.442 -2.53576 5.56006 0
M  V30 1990 C 177.44 -2.1931 6.46832 0
M  V30 1991 O 177.128 -2.00359 7.78532 0
M  V30 1992 H 176.86 -0.461227 0.494212 0
M  V30 1993 H 179.414 -0.856045 1.86711 0
M  V30 1994 H 177.644 -3.41033 1.82301 0
M  V30 1995 H 179.333 -3.38424 2.24107 0
M  V30 1996 H 180.099 -2.10473 4.36951 0
M  V30 1997 H 175.978 -2.98353 3.51435 0
M  V30 1998 H 179.522 -1.77241 6.74708 0
M  V30 1999 H 175.419 -2.65499 5.88371 0
M  V30 2000 H 176.187 -2.15075 7.89737 0
M  V30 2001 N 178.85 -1.27639 -0.924453 0
M  V30 2002 C 180.266 -1.05113 -1.20097 0
M  V30 2003 C 180.466 0.213262 -2.00368 0
M  V30 2004 O 179.522 0.91787 -2.35226 0
M  V30 2005 C 180.835 -2.29244 -1.94596 0
M  V30 2006 C 182.383 -2.34315 -2.07522 0
M  V30 2007 C 182.858 -3.58183 -2.85427 0
M  V30 2008 N 184.349 -3.5876 -2.92994 0
M  V30 2009 C 185.084 -4.51277 -3.53746 0
M  V30 2010 N 184.58 -5.54102 -4.15863 0
M  V30 2011 N 186.373 -4.38894 -3.51181 0
M  V30 2012 H 178.524 -2.08821 -0.388264 0
M  V30 2013 H 180.787 -0.918568 -0.234385 0
M  V30 2014 H 180.493 -3.21301 -1.43034 0
M  V30 2015 H 180.367 -2.34816 -2.95197 0
M  V30 2016 H 182.754 -1.42762 -2.58269 0
M  V30 2017 H 182.835 -2.32744 -1.06131 0
M  V30 2018 H 182.479 -4.50074 -2.35363 0
M  V30 2019 H 182.409 -3.57006 -3.8711 0
M  V30 2020 H 184.9 -2.84398 -2.4885 0
M  V30 2021 H 185.213 -6.20859 -4.60168 0
M  V30 2022 H 183.558 -5.57941 -4.144 0
M  V30 2023 H 186.749 -3.57772 -3.01856 0
M  V30 2024 H 186.922 -5.11186 -3.98237 0
M  V30 2025 N 180.328 1.1314 -1.09713 0
M  V30 2026 C 181.275 2.18642 -0.739196 0
M  V30 2027 C 182.245 1.63706 0.280978 0
M  V30 2028 O 183.43 1.90111 0.161946 0
M  V30 2029 C 180.57 3.44685 -0.169102 0
M  V30 2030 C 179.683 4.13711 -1.24367 0
M  V30 2031 C 178.818 5.27379 -0.636019 0
M  V30 2032 C 177.857 5.88259 -1.69169 0
M  V30 2033 N 176.994 6.93352 -1.10485 0
M  V30 2034 H 181.834 2.48607 -1.64312 0
M  V30 2035 H 179.371 1.22066 -0.820875 0
M  V30 2036 H 181.329 4.16815 0.179256 0
M  V30 2037 H 179.959 3.15161 0.698079 0
M  V30 2038 H 179.011 3.39835 -1.70927 0
M  V30 2039 H 180.323 4.55037 -2.04311 0
M  V30 2040 H 179.477 6.06238 -0.236677 0
M  V30 2041 H 178.216 4.8731 0.194928 0
M  V30 2042 H 177.221 5.08092 -2.10055 0
M  V30 2043 H 178.446 6.30399 -2.52536 0
M  V30 2044 H 176.392 6.55335 -0.295234 0
M  V30 2045 H 176.309 7.33236 -1.84121 0
M  V30 2046 H 177.577 7.76057 -0.73181 0
M  V30 2047 N 181.806 0.884767 1.30421 0
M  V30 2048 C 182.753 0.349642 2.28136 0
M  V30 2049 C 183.723 -0.560061 1.56373 0
M  V30 2050 O 184.908 -0.488524 1.8444 0
M  V30 2051 C 182.048 -0.42999 3.42411 0
M  V30 2052 C 181.161 0.508907 4.28992 0
M  V30 2053 C 180.296 -0.286301 5.30428 0
M  V30 2054 C 179.335 0.648079 6.08659 0
M  V30 2055 N 178.472 -0.111792 7.02011 0
M  V30 2056 H 183.312 1.18807 2.73293 0
M  V30 2057 H 180.849 0.597231 1.3443 0
M  V30 2058 H 182.807 -0.897923 4.07423 0
M  V30 2059 H 181.437 -1.23299 2.98324 0
M  V30 2060 H 180.489 1.09533 3.64289 0
M  V30 2061 H 181.801 1.22475 4.8353 0
M  V30 2062 H 180.955 -0.816098 6.01186 0
M  V30 2063 H 179.694 -1.03536 4.76583 0
M  V30 2064 H 178.699 1.18951 5.36778 0
M  V30 2065 H 179.924 1.39623 6.64592 0
M  V30 2066 H 177.87 -0.843395 6.50556 0
M  V30 2067 H 177.787 0.544429 7.54037 0
M  V30 2068 H 179.055 -0.622339 7.77012 0
M  V30 2069 N 183.284 -1.43765 0.645699 0
M  V30 2070 C 184.532 -2.01499 0.155731 0
M  V30 2071 C 184.853 -1.51151 -1.232 0
M  V30 2072 O 184.123 -0.721044 -1.82148 0
M  V30 2073 H 182.703 -0.745003 0.0545817 0
M  V30 2074 H 185.365 -1.76075 0.835677 0
M  V30 2075 H 184.461 -3.1181 0.134577 0
M  V30 2076 N 184.763 -0.387143 -1.52771 0
M  V30 2077 C 185.993 0.195585 -2.05672 0
M  V30 2078 C 186.401 1.41241 -1.25887 0
M  V30 2079 O 185.744 1.81265 -0.298081 0
M  V30 2080 C 185.806 0.632327 -3.53895 0
M  V30 2081 C 185.47 -0.470739 -4.54569 0
M  V30 2082 C 186.467 -1.32746 -5.02667 0
M  V30 2083 C 184.152 -0.637151 -4.98243 0
M  V30 2084 C 186.146 -2.33574 -5.93061 0
M  V30 2085 C 183.833 -1.64877 -5.88438 0
M  V30 2086 C 184.831 -2.49649 -6.35739 0
M  V30 2087 O 184.519 -3.49082 -7.24153 0
M  V30 2088 H 184.251 0.033658 -0.675162 0
M  V30 2089 H 186.805 -0.550221 -1.97893 0
M  V30 2090 H 185.035 1.43008 -3.59285 0
M  V30 2091 H 186.724 1.14048 -3.89548 0
M  V30 2092 H 187.49 -1.21019 -4.69659 0
M  V30 2093 H 183.369 0.0129567 -4.60998 0
M  V30 2094 H 186.913 -2.99777 -6.29904 0
M  V30 2095 H 182.81 -1.76643 -6.2086 0
M  V30 2096 H 183.578 -3.45065 -7.42208 0
M  V30 2097 N 186.241 1.57166 -0.116904 0
M  V30 2098 C 187.487 1.95412 0.542405 0
M  V30 2099 C 187.82 1.00019 1.66463 0
M  V30 2100 O 187.095 0.0370346 1.94465 0
M  V30 2101 C 187.378 3.43615 1.07708 0
M  V30 2102 C 187.231 4.49781 -0.0415868 0
M  V30 2103 C 188.55 3.93616 1.96861 0
M  V30 2104 H 185.669 0.710543 0.195696 0
M  V30 2105 H 188.311 1.89027 -0.192038 0
M  V30 2106 H 186.461 3.49187 1.70296 0
M  V30 2107 H 188.133 4.56308 -0.676793 0
M  V30 2108 H 186.376 4.28033 -0.705019 0
M  V30 2109 H 187.047 5.50733 0.373717 0
M  V30 2110 H 189.523 3.90335 1.44146 0
M  V30 2111 H 188.399 4.97838 2.3119 0
M  V30 2112 H 188.66 3.34188 2.89432 0
M  V30 2113 N 187.719 -0.156864 1.56817 0
M  V30 2114 C 188.947 -0.886316 1.86955 0
M  V30 2115 C 189.362 -1.75185 0.703975 0
M  V30 2116 O 188.719 -1.79555 -0.326552 0
M  V30 2117 C 188.77 -1.75117 3.16253 0
M  V30 2118 O 188.491 -0.920537 4.2832 0
M  V30 2119 C 189.992 -2.58905 3.59837 0
M  V30 2120 H 187.212 -0.25678 0.619923 0
M  V30 2121 H 189.756 -0.152615 2.0393 0
M  V30 2122 H 187.911 -2.43805 3.01062 0
M  V30 2123 H 188.325 -1.51337 5.02192 0
M  V30 2124 H 189.799 -3.1518 4.53172 0
M  V30 2125 H 190.276 -3.34472 2.84649 0
M  V30 2126 H 190.882 -1.95526 3.7769 0
M  V30 2127 N 189.197 -1.51736 -0.425897 0
M  V30 2128 C 190.608 -1.5732 -1.00536 0
M  V30 2129 C 190.959 -0.403537 -1.92005 0
M  V30 2130 O 190.084 0.478256 -2.11049 0
M  V30 2131 C 190.679 -2.85119 -1.8301 0
M  V30 2132 C 189.238 -2.93236 -2.35987 0
M  V30 2133 C 188.385 -2.52098 -1.15508 0
M  V30 2134 H 191.336 -1.57348 -0.206739 0
M  V30 2135 H 191.357 -2.69526 -2.68581 0
M  V30 2136 H 190.869 -3.7023 -1.16411 0
M  V30 2137 H 188.97 -2.12581 -3.06007 0
M  V30 2138 H 189.083 -3.9713 -2.68001 0
M  V30 2139 H 187.447 -2.05558 -1.50393 0
M  V30 2140 H 188.23 -3.39565 -0.505014 0
M  V30 2141 N 190.675 0.682077 -1.42076 0
M  V30 2142 C 191.921 1.44428 -1.42367 0
M  V30 2143 C 192.254 1.94164 -0.0373056 0
M  V30 2144 O 191.529 1.70429 0.937239 0
M  V30 2145 C 191.812 2.64654 -2.44194 0
M  V30 2146 C 191.665 2.20596 -3.91991 0
M  V30 2147 C 192.984 3.66865 -2.431 0
M  V30 2148 H 190.103 0.523834 -0.518428 0
M  V30 2149 H 192.745 0.77576 -1.73442 0
M  V30 2150 H 190.895 3.2169 -2.17826 0
M  V30 2151 H 192.567 1.68783 -4.29313 0
M  V30 2152 H 190.81 1.52242 -4.06208 0
M  V30 2153 H 191.481 3.06921 -4.58807 0
M  V30 2154 H 193.957 3.19531 -2.66532 0
M  V30 2155 H 192.833 4.48577 -3.16339 0
M  V30 2156 H 193.094 4.17493 -1.45437 0
M  V30 2157 N 192.153 1.28127 0.917671 0
M  V30 2158 C 193.1 1.11717 2.0196 0
M  V30 2159 C 194.07 0.0153929 1.66093 0
M  V30 2160 O 195.255 0.179596 1.89953 0
M  V30 2161 C 192.395 0.780927 3.36148 0
M  V30 2162 C 191.508 1.96135 3.84909 0
M  V30 2163 C 190.643 1.56609 5.0759 0
M  V30 2164 C 189.682 2.71339 5.48673 0
M  V30 2165 N 188.819 2.32332 6.62545 0
M  V30 2166 H 193.659 2.06003 2.15329 0
M  V30 2167 H 191.196 1.02535 1.05475 0
M  V30 2168 H 193.154 0.56675 4.13333 0
M  V30 2169 H 191.784 -0.124998 3.22558 0
M  V30 2170 H 190.836 2.28777 3.03916 0
M  V30 2171 H 192.148 2.82165 4.1132 0
M  V30 2172 H 191.302 1.31374 5.92305 0
M  V30 2173 H 190.041 0.677014 4.82978 0
M  V30 2174 H 189.046 2.97276 4.62501 0
M  V30 2175 H 190.271 3.60882 5.75274 0
M  V30 2176 H 188.217 1.45889 6.39572 0
M  V30 2177 H 188.134 3.11899 6.88662 0
M  V30 2178 H 189.402 2.10371 7.50576 0
M  V30 2179 N 193.631 -1.12557 1.10312 0
M  V30 2180 C 194.579 -2.20325 0.745629 0
M  V30 2181 C 195.573 -1.67429 -0.25763 0
M  V30 2182 O 196.779 -1.79612 -0.118132 0
M  V30 2183 H 193.154 -0.718118 0.223182 0
M  V30 2184 H 195.125 -2.47733 1.66346 0
M  V30 2185 C 193.874 -3.47168 0.192262 0
M  V30 2186 H 193.197 -3.88215 0.955475 0
M  V30 2187 H 194.637 -4.23995 -0.0198274 0
M  V30 2188 C 193.096 -3.19298 -1.07472 0
M  V30 2189 O 193.626 -3.3891 -2.15645 0
M  V30 2190 N 191.832 -2.73113 -0.992847 0
M  V30 2191 H 191.379 -2.57354 -0.112474 0
M  V30 2192 H 191.337 -2.54842 -1.84127 0
M  V30 2193 N 195.109 -0.891671 -1.2995 0
M  V30 2194 C 196.041 -0.320695 -2.26945 0
M  V30 2195 C 197.054 0.528497 -1.53983 0
M  V30 2196 O 198.243 0.346959 -1.75096 0
M  V30 2197 C 195.343 0.562066 -3.34207 0
M  V30 2198 C 194.516 -0.259576 -4.36629 0
M  V30 2199 C 193.575 0.554739 -5.23268 0
M  V30 2200 O 192.601 -0.0249311 -5.69195 0
M  V30 2201 N 193.803 1.8625 -5.4981 0
M  V30 2202 H 196.568 -1.15432 -2.76578 0
M  V30 2203 H 194.129 -0.755336 -1.432 0
M  V30 2204 H 196.121 1.11304 -3.89093 0
M  V30 2205 H 194.691 1.29637 -2.84452 0
M  V30 2206 H 193.911 -0.991986 -3.81514 0
M  V30 2207 H 195.199 -0.822564 -5.02107 0
M  V30 2208 H 194.597 2.35628 -5.14292 0
M  V30 2209 H 193.154 2.36078 -6.07545 0
M  V30 2210 N 196.587 1.43421 -0.653314 0
M  V30 2211 C 197.835 2.01414 -0.166415 0
M  V30 2212 C 198.156 1.51803 1.22397 0
M  V30 2213 O 197.426 0.730693 1.81763 0
M  V30 2214 H 196.006 0.744703 -0.0585319 0
M  V30 2215 H 198.668 1.75629 -0.845003 0
M  V30 2216 H 197.764 3.11734 -0.151111 0
M  V30 2217 N 198.065 0.39524 1.52563 0
M  V30 2218 C 198.997 -0.472201 2.24283 0
M  V30 2219 C 200.01 -1.02178 1.26742 0
M  V30 2220 O 201.199 -0.923097 1.52778 0
M  V30 2221 C 198.299 -1.66775 2.95024 0
M  V30 2222 C 197.472 -1.2445 4.19322 0
M  V30 2223 C 196.531 -2.30539 4.7301 0
M  V30 2224 O 195.557 -1.91702 5.35947 0
M  V30 2225 N 196.759 -3.6253 4.53379 0
M  V30 2226 H 199.524 0.142282 2.99362 0
M  V30 2227 H 197.085 0.2219 1.60372 0
M  V30 2228 H 199.077 -2.37283 3.27839 0
M  V30 2229 H 197.647 -2.18845 2.23217 0
M  V30 2230 H 196.867 -0.368069 3.92478 0
M  V30 2231 H 198.155 -0.938457 5.0007 0
M  V30 2232 H 197.553 -3.96841 4.03154 0
M  V30 2233 H 196.11 -4.29055 4.90668 0
M  V30 2234 N 199.544 -1.57102 0.125237 0
M  V30 2235 C 200.784 -1.97294 -0.534259 0
M  V30 2236 C 201.148 -1.0074 -1.63449 0
M  V30 2237 O 202.349 -1.29893 -2.35332 0
M  V30 2238 C 200.62 -3.41705 -1.04748 0
M  V30 2239 S 202.179 -4.03913 -1.71463 0
M  V30 2240 H 198.997 -0.689517 -0.173458 0
M  V30 2241 H 201.599 -1.94349 0.211797 0
M  V30 2242 H 200.303 -4.09723 -0.235649 0
M  V30 2243 H 199.834 -3.48315 -1.82867 0
M  V30 2244 H 201.849 -3.95182 -3.00077 0
M  V30 2245 N 201.022 0.148545 -1.56898 0
M  V30 2246 C 202.27 0.859717 -1.82902 0
M  V30 2247 C 202.591 1.81775 -0.70588 0
M  V30 2248 O 201.861 1.93994 0.272586 0
M  V30 2249 H 200.441 0.320469 -0.674766 0
M  V30 2250 H 203.103 0.142918 -1.94375 0
M  V30 2251 H 202.199 1.4229 -2.77777 0
M  V30 2252 N 202.5 1.5196 0.417844 0
M  V30 2253 C 203.725 1.69717 1.1921 0
M  V30 2254 C 204.15 0.402148 1.83751 0
M  V30 2255 O 203.508 -0.639593 1.69643 0
M  V30 2256 C 203.556 2.82794 2.2374 0
M  V30 2257 O 202.66 2.47756 3.29683 0
M  V30 2258 H 202.001 0.565263 0.348387 0
M  V30 2259 H 204.531 1.98621 0.490985 0
M  V30 2260 H 204.541 3.07452 2.68212 0
M  V30 2261 H 203.216 3.76756 1.76146 0
M  V30 2262 H 201.793 2.33739 2.90552 0
M  V30 2263 N 203.978 -0.674533 1.42435 0
M  V30 2264 C 205.218 -1.4466 1.44405 0
M  V30 2265 C 205.582 -1.91911 0.0585784 0
M  V30 2266 O 206.783 -2.68759 -0.0469991 0
M  V30 2267 C 205.054 -2.61136 2.44013 0
M  V30 2268 S 206.613 -3.49981 2.64687 0
M  V30 2269 H 203.431 -0.494074 0.511284 0
M  V30 2270 H 206.033 -0.785162 1.7904 0
M  V30 2271 H 204.737 -2.24662 3.43446 0
M  V30 2272 H 204.268 -3.32153 2.10803 0
M  V30 2273 H 206.283 -4.57124 1.93007 0
M  V30 2274 N 205.456 -1.28612 -0.910864 0
M  V30 2275 C 206.702 -1.17116 -1.66299 0
M  V30 2276 C 207.057 0.276917 -1.90397 0
M  V30 2277 O 206.35 1.19795 -1.49532 0
M  V30 2278 C 206.544 -1.90624 -3.0232 0
M  V30 2279 C 206.373 -3.42431 -2.91498 0
M  V30 2280 C 205.143 -4.11773 -2.92867 0
M  V30 2281 C 207.341 -4.38124 -2.69355 0
M  V30 2282 N 205.323 -5.50025 -2.72664 0
M  V30 2283 C 206.694 -5.63759 -2.58023 0
M  V30 2284 C 208.749 -4.28016 -2.54375 0
M  V30 2285 C 207.452 -6.80436 -2.33238 0
M  V30 2286 C 209.478 -5.44433 -2.30969 0
M  V30 2287 C 208.84 -6.69034 -2.20394 0
M  V30 2288 H 204.939 -0.483506 -0.61461 0
M  V30 2289 H 207.523 -1.62299 -1.0755 0
M  V30 2290 H 205.694 -1.4787 -3.5915 0
M  V30 2291 H 207.426 -1.71488 -3.66571 0
M  V30 2292 H 204.181 -3.63378 -3.03732 0
M  V30 2293 H 204.605 -6.22705 -2.65646 0
M  V30 2294 H 209.247 -3.32388 -2.613 0
M  V30 2295 H 206.965 -7.7613 -2.25051 0
M  V30 2296 H 210.551 -5.38504 -2.20238 0
M  V30 2297 H 209.431 -7.57595 -2.02531 0
M  V30 2298 N 206.934 1.1197 -1.10907 0
M  V30 2299 C 207.897 2.16031 -0.765707 0
M  V30 2300 C 208.897 1.59393 0.212235 0
M  V30 2301 O 210.087 1.74196 -0.0115441 0
M  V30 2302 C 207.219 3.40632 -0.135053 0
M  V30 2303 H 208.412 2.47919 -1.68748 0
M  V30 2304 H 205.965 1.27061 -0.910226 0
M  V30 2305 H 206.7 3.14348 0.797218 0
M  V30 2306 H 206.485 3.8302 -0.838937 0
M  V30 2307 H 207.975 4.17505 0.0892469 0
M  V30 2308 N 208.412 0.89855 1.29475 0
M  V30 2309 C 209.659 0.523882 1.95606 0
M  V30 2310 C 209.987 -0.929608 1.70847 0
M  V30 2311 O 209.242 -1.67401 1.01367 0
M  V30 2312 C 209.541 0.761398 3.49195 0
M  V30 2313 C 209.207 2.19207 3.94029 0
M  V30 2314 C 207.869 2.58326 4.05982 0
M  V30 2315 C 210.221 3.12379 4.17216 0
M  V30 2316 C 207.549 3.898 4.38489 0
M  V30 2317 C 209.901 4.43401 4.51197 0
M  V30 2318 C 208.565 4.82394 4.61359 0
M  V30 2319 H 207.835 0.191702 0.715773 0
M  V30 2320 H 210.482 1.13699 1.54094 0
M  V30 2321 H 208.787 0.0653622 3.91745 0
M  V30 2322 H 210.484 0.450904 3.98457 0
M  V30 2323 H 207.074 1.87846 3.85242 0
M  V30 2324 H 211.258 2.83371 4.07449 0
M  V30 2325 H 206.514 4.19734 4.44559 0
M  V30 2326 H 210.688 5.15623 4.68087 0
M  V30 2327 H 208.315 5.84306 4.86303 0
M  V30 2328 N 209.89 -1.43072 0.660911 0
M  V30 2329 C 211.115 -2.06584 0.183805 0
M  V30 2330 C 211.54 -1.49257 -1.14472 0
M  V30 2331 O 210.898 -0.605528 -1.70889 0
M  V30 2332 C 210.946 -3.60418 0.114434 0
M  V30 2333 O 210.05 -4.01981 -0.921137 0
M  V30 2334 H 209.391 -0.656669 0.0983994 0
M  V30 2335 H 211.921 -1.83447 0.906006 0
M  V30 2336 H 211.931 -4.07946 -0.0663394 0
M  V30 2337 H 210.606 -4.01519 1.08422 0
M  V30 2338 H 209.183 -3.66029 -0.71253 0
M  V30 2339 N 211.368 -0.403325 -1.52352 0
M  V30 2340 C 212.593 0.176499 -2.06648 0
M  V30 2341 C 213.018 1.38577 -1.27193 0
M  V30 2342 O 212.376 1.7879 -0.300637 0
M  V30 2343 C 212.424 0.511061 -3.5696 0
M  V30 2344 O 211.528 1.60294 -3.79973 0
M  V30 2345 H 210.869 0.0167337 -0.663789 0
M  V30 2346 H 213.399 -0.574848 -1.96359 0
M  V30 2347 H 213.409 0.771362 -4.00642 0
M  V30 2348 H 212.084 -0.37296 -4.14224 0
M  V30 2349 H 210.661 1.33526 -3.48174 0
M  V30 2350 N 212.846 1.57033 -0.133567 0
M  V30 2351 C 214.092 1.95976 0.521649 0
M  V30 2352 C 214.425 1.01779 1.65393 0
M  V30 2353 O 213.7 0.0576581 1.94415 0
M  V30 2354 C 213.983 3.44738 1.04057 0
M  V30 2355 C 213.836 4.49711 -0.0892897 0
M  V30 2356 C 215.155 3.95682 1.92675 0
M  V30 2357 H 212.274 0.712579 0.188149 0
M  V30 2358 H 214.916 1.88813 -0.212076 0
M  V30 2359 H 213.066 3.50973 1.66583 0
M  V30 2360 H 214.738 4.55565 -0.725152 0
M  V30 2361 H 212.981 4.27261 -0.750378 0
M  V30 2362 H 213.652 5.51099 0.315284 0
M  V30 2363 H 216.128 3.91841 1.39998 0
M  V30 2364 H 215.004 5.00262 2.25897 0
M  V30 2365 H 215.265 3.37239 2.85872 0
M  V30 2366 N 214.325 -0.140222 1.56975 0
M  V30 2367 C 215.573 -0.850005 1.83356 0
M  V30 2368 C 215.894 -1.81399 0.71551 0
M  V30 2369 O 215.164 -1.94136 -0.262294 0
M  V30 2370 H 213.744 -0.316886 0.676456 0
M  V30 2371 H 216.406 -0.132608 1.94448 0
M  V30 2372 H 215.502 -1.40814 2.78528 0
M  V30 2373 N 215.803 -1.52179 -0.40978 0
M  V30 2374 C 216.766 -1.74853 -1.48186 0
M  V30 2375 C 217.766 -0.618417 -1.48433 0
M  V30 2376 O 218.956 -0.886286 -1.49969 0
M  V30 2377 C 216.088 -1.8303 -2.87598 0
M  V30 2378 H 217.281 -2.70559 -1.29374 0
M  V30 2379 H 214.834 -1.42586 -0.640233 0
M  V30 2380 H 215.569 -0.89236 -3.11781 0
M  V30 2381 H 215.354 -2.65187 -2.88822 0
M  V30 2382 H 216.844 -2.02316 -3.65319 0
M  V30 2383 N 217.281 0.66697 -1.42791 0
M  V30 2384 C 218.211 1.79218 -1.49677 0
M  V30 2385 C 219.192 1.66405 -0.352623 0
M  V30 2386 O 220.377 1.85708 -0.567993 0
M  V30 2387 C 217.507 3.17565 -1.40605 0
M  V30 2388 C 216.461 3.45124 -2.53127 0
M  V30 2389 C 215.787 4.83127 -2.29112 0
M  V30 2390 C 217.087 3.41236 -3.95418 0
M  V30 2391 H 218.781 1.73713 -2.43853 0
M  V30 2392 H 216.327 0.83432 -1.17367 0
M  V30 2393 H 218.28 3.96022 -1.44029 0
M  V30 2394 H 217.004 3.23767 -0.429271 0
M  V30 2395 H 215.663 2.69031 -2.49034 0
M  V30 2396 H 215.311 4.85988 -1.29709 0
M  V30 2397 H 215.011 5.02528 -3.04531 0
M  V30 2398 H 216.535 5.63859 -2.34297 0
M  V30 2399 H 217.949 4.09651 -4.01073 0
M  V30 2400 H 216.346 3.72173 -4.70752 0
M  V30 2401 H 217.416 2.39665 -4.21532 0
M  V30 2402 N 218.759 1.29093 0.90403 0
M  V30 2403 C 219.669 1.15727 2.0407 0
M  V30 2404 C 220.685 0.0815308 1.73809 0
M  V30 2405 O 221.861 0.292749 1.99261 0
M  V30 2406 C 218.926 0.830424 3.36608 0
M  V30 2407 C 217.987 1.98955 3.80415 0
M  V30 2408 C 217.22 1.6782 5.06628 0
M  V30 2409 O 217.443 0.597105 5.67266 0
M  V30 2410 O 216.377 2.52486 5.46383 0
M  V30 2411 H 220.203 2.11171 2.18267 0
M  V30 2412 H 217.788 1.08504 1.027 0
M  V30 2413 H 219.67 0.662521 4.16159 0
M  V30 2414 H 218.345 -0.0942678 3.23563 0
M  V30 2415 H 217.252 2.21267 3.01648 0
M  V30 2416 H 218.585 2.89529 3.98037 0
M  V30 2417 N 220.237 -1.11381 1.11499 0
M  V30 2418 C 221.485 -1.8277 0.862524 0
M  V30 2419 C 221.806 -1.85097 -0.613534 0
M  V30 2420 O 221.076 -1.32198 -1.4457 0
M  V30 2421 H 219.656 -0.676823 0.316101 0
M  V30 2422 H 222.318 -1.34816 1.4075 0
M  V30 2423 H 221.414 -2.86614 1.23527 0
M  V30 2424 N 221.715 -0.905404 -1.28997 0
M  V30 2425 C 222.647 -0.344748 -2.26592 0
M  V30 2426 C 223.66 0.512135 -1.54535 0
M  V30 2427 O 224.849 0.328368 -1.75454 0
M  V30 2428 C 221.949 0.526587 -3.34784 0
M  V30 2429 C 221.122 -0.305871 -4.36329 0
M  V30 2430 C 220.181 0.499209 -5.23827 0
M  V30 2431 O 219.207 -0.0853004 -5.69136 0
M  V30 2432 N 220.409 1.80408 -5.51755 0
M  V30 2433 H 223.174 -1.18359 -2.75338 0
M  V30 2434 H 220.735 -0.770481 -1.42391 0
M  V30 2435 H 222.727 1.07171 -3.90252 0
M  V30 2436 H 221.297 1.26613 -2.85811 0
M  V30 2437 H 220.517 -1.0324 -3.80441 0
M  V30 2438 H 221.805 -0.875773 -5.01206 0
M  V30 2439 H 221.203 2.3016 -5.16762 0
M  V30 2440 H 219.76 2.29621 -6.10014 0
M  V30 2441 N 223.193 1.4272 -0.668489 0
M  V30 2442 C 224.123 2.335 -0.000100175 0
M  V30 2443 C 225.104 1.50328 0.795964 0
M  V30 2444 O 226.289 1.78949 0.754385 0
M  V30 2445 C 223.419 3.33874 0.956302 0
M  V30 2446 C 222.373 4.27152 0.269278 0
M  V30 2447 C 221.699 5.17684 1.33818 0
M  V30 2448 C 222.999 5.15373 -0.847805 0
M  V30 2449 H 224.693 2.89639 -0.758244 0
M  V30 2450 H 222.239 1.39269 -0.366079 0
M  V30 2451 H 224.192 3.9629 1.43292 0
M  V30 2452 H 222.916 2.76025 1.74579 0
M  V30 2453 H 221.575 3.66123 -0.187042 0
M  V30 2454 H 221.223 4.56165 2.1195 0
M  V30 2455 H 220.923 5.80918 0.883659 0
M  V30 2456 H 222.447 5.82974 1.81586 0
M  V30 2457 H 223.861 5.7151 -0.452681 0
M  V30 2458 H 222.258 5.87407 -1.22773 0
M  V30 2459 H 223.328 4.5415 -1.69929 0
M  V30 2460 N 224.671 0.411399 1.52136 0
M  V30 2461 C 225.618 -0.412975 2.27075 0
M  V30 2462 C 226.588 -1.03912 1.29582 0
M  V30 2463 O 227.773 -1.06296 1.58448 0
M  V30 2464 C 224.913 -1.52247 3.09701 0
M  V30 2465 C 224.026 -0.917021 4.22155 0
M  V30 2466 C 223.161 -1.9994 4.92135 0
M  V30 2467 C 222.2 -1.37101 5.96548 0
M  V30 2468 N 221.337 -2.39364 6.60038 0
M  V30 2469 H 226.177 0.232499 2.97092 0
M  V30 2470 H 223.714 0.126496 1.46555 0
M  V30 2471 H 225.672 -2.17674 3.55913 0
M  V30 2472 H 224.302 -2.13794 2.41851 0
M  V30 2473 H 223.354 -0.151742 3.80097 0
M  V30 2474 H 224.666 -0.418006 4.97045 0
M  V30 2475 H 223.82 -2.73088 5.41763 0
M  V30 2476 H 222.559 -2.53208 4.16818 0
M  V30 2477 H 221.564 -0.624873 5.46237 0
M  V30 2478 H 222.789 -0.845998 6.7381 0
M  V30 2479 H 220.735 -2.91759 5.87548 0
M  V30 2480 H 220.652 -1.9428 7.3061 0
M  V30 2481 H 221.92 -3.12074 7.14304 0
M  V30 2482 N 226.149 -1.5696 0.141893 0
M  V30 2483 C 227.096 -2.16501 -0.799737 0
M  V30 2484 C 228.066 -1.09643 -1.24771 0
M  V30 2485 O 229.251 -1.3766 -1.32115 0
M  V30 2486 C 226.391 -2.78679 -2.03549 0
M  V30 2487 C 225.504 -3.99914 -1.6338 0
M  V30 2488 C 224.639 -4.50106 -2.82096 0
M  V30 2489 C 223.678 -5.63819 -2.38275 0
M  V30 2490 N 222.815 -6.08651 -3.49983 0
M  V30 2491 H 227.655 -2.96632 -0.285179 0
M  V30 2492 H 225.192 -1.46533 -0.129053 0
M  V30 2493 H 227.15 -3.1287 -2.75986 0
M  V30 2494 H 225.78 -2.012 -2.52425 0
M  V30 2495 H 224.832 -3.71735 -0.807279 0
M  V30 2496 H 226.144 -4.82311 -1.27192 0
M  V30 2497 H 225.298 -4.86325 -3.62729 0
M  V30 2498 H 224.037 -3.66706 -3.21525 0
M  V30 2499 H 223.042 -5.2718 -1.56081 0
M  V30 2500 H 224.267 -6.49 -1.99938 0
M  V30 2501 H 222.213 -5.28188 -3.89042 0
M  V30 2502 H 222.13 -6.85961 -3.17794 0
M  V30 2503 H 223.398 -6.49515 -4.30988 0
M  V30 2504 N 227.627 0.131896 -1.57047 0
M  V30 2505 C 228.574 1.16236 -1.99393 0
M  V30 2506 C 229.544 1.41863 -0.863943 0
M  V30 2507 O 230.729 1.53946 -1.12718 0
M  V30 2508 C 227.869 2.48708 -2.39245 0
M  V30 2509 C 226.982 2.30127 -3.65603 0
M  V30 2510 C 226.117 3.55738 -3.94492 0
M  V30 2511 C 225.156 3.32259 -5.14073 0
M  V30 2512 N 224.293 4.50039 -5.38896 0
M  V30 2513 H 229.133 0.794251 -2.87221 0
M  V30 2514 H 226.67 0.380707 -1.42088 0
M  V30 2515 H 228.628 3.25969 -2.60384 0
M  V30 2516 H 227.258 2.83437 -1.54478 0
M  V30 2517 H 226.31 1.43845 -3.52154 0
M  V30 2518 H 227.622 2.08746 -4.5302 0
M  V30 2519 H 226.776 4.41423 -4.1621 0
M  V30 2520 H 225.515 3.80138 -3.05526 0
M  V30 2521 H 224.52 2.44963 -4.92212 0
M  V30 2522 H 225.745 3.09242 -6.04604 0
M  V30 2523 H 223.691 4.74584 -4.52886 0
M  V30 2524 H 223.608 4.31716 -6.2061 0
M  V30 2525 H 224.876 5.36895 -5.65123 0
M  V30 2526 N 229.106 1.52395 0.401703 0
M  V30 2527 C 230.334 1.70676 1.16949 0
M  V30 2528 C 230.749 0.419503 1.8408 0
M  V30 2529 O 230.106 -0.605061 1.72178 0
M  V30 2530 C 230.157 2.84753 2.22706 0
M  V30 2531 O 229.878 4.08495 1.58314 0
M  V30 2532 C 231.379 3.14608 3.12309 0
M  V30 2533 H 228.599 0.571787 0.351142 0
M  V30 2534 H 231.143 1.98987 0.471652 0
M  V30 2535 H 229.298 2.58941 2.88147 0
M  V30 2536 H 229.712 4.72117 2.28485 0
M  V30 2537 H 231.186 3.97923 3.82572 0
M  V30 2538 H 231.663 2.28464 3.75101 0
M  V30 2539 H 232.269 3.42212 2.52529 0
M  V30 2540 N 230.584 -0.659388 1.43143 0
M  V30 2541 C 231.832 -1.41654 1.44147 0
M  V30 2542 C 232.153 -1.94893 0.0645739 0
M  V30 2543 O 231.423 -1.74044 -0.899198 0
M  V30 2544 H 230.003 -0.525708 0.530697 0
M  V30 2545 H 232.665 -0.778097 1.78694 0
M  V30 2546 H 231.761 -2.26195 2.1504 0
M  V30 2547 N 232.062 -1.29571 -0.897171 0
M  V30 2548 C 233.009 -1.14916 -2.00158 0
M  V30 2549 C 233.979 -0.0418149 -1.66047 0
M  V30 2550 O 235.164 -0.209793 -1.89643 0
M  V30 2551 C 232.304 -0.834307 -3.34863 0
M  V30 2552 C 231.417 -2.02234 -3.8174 0
M  V30 2553 C 230.552 -1.64664 -5.05034 0
M  V30 2554 C 229.591 -2.80033 -5.44286 0
M  V30 2555 N 228.728 -2.42843 -6.58765 0
M  V30 2556 H 233.568 -2.09403 -2.12025 0
M  V30 2557 H 231.105 -1.042 -1.0383 0
M  V30 2558 H 233.063 -0.632436 -4.12379 0
M  V30 2559 H 231.693 0.0736656 -3.22716 0
M  V30 2560 H 230.745 -2.33583 -3.00238 0
M  V30 2561 H 232.057 -2.88673 -4.06779 0
M  V30 2562 H 231.211 -1.4078 -5.9014 0
M  V30 2563 H 229.95 -0.753766 -4.8184 0
M  V30 2564 H 228.955 -3.04596 -4.57713 0
M  V30 2565 H 230.18 -3.69989 -5.6946 0
M  V30 2566 H 228.126 -1.56046 -6.3717 0
M  V30 2567 H 228.043 -3.22815 -6.83613 0
M  V30 2568 H 229.311 -2.22285 -7.47134 0
M  V30 2569 N 233.54 1.10788 -1.12088 0
M  V30 2570 C 234.47 2.19083 -0.807755 0
M  V30 2571 C 235.451 1.6858 0.226859 0
M  V30 2572 O 236.636 1.93997 0.0888475 0
M  V30 2573 C 233.766 3.46344 -0.257576 0
M  V30 2574 C 232.72 4.101 -1.22483 0
M  V30 2575 C 232.046 5.32016 -0.535052 0
M  V30 2576 C 233.346 4.54236 -2.57811 0
M  V30 2577 H 235.04 2.45534 -1.71328 0
M  V30 2578 H 232.586 1.1801 -0.825205 0
M  V30 2579 H 234.539 4.21392 -0.0262679 0
M  V30 2580 H 233.263 3.19373 0.683278 0
M  V30 2581 H 231.922 3.37054 -1.44189 0
M  V30 2582 H 231.57 5.01319 0.410827 0
M  V30 2583 H 231.27 5.75625 -1.18024 0
M  V30 2584 H 232.794 6.09799 -0.312695 0
M  V30 2585 H 234.208 5.20575 -2.40155 0
M  V30 2586 H 232.605 5.08682 -3.18375 0
M  V30 2587 H 233.675 3.6734 -3.16528 0
M  V30 2588 N 235.018 0.912232 1.28515 0
M  V30 2589 C 235.948 0.416403 2.29757 0
M  V30 2590 C 236.929 -0.515194 1.6211 0
M  V30 2591 O 238.114 -0.423253 1.89532 0
M  V30 2592 C 235.244 -0.34572 3.45575 0
M  V30 2593 C 234.198 0.496599 4.25109 0
M  V30 2594 C 233.524 -0.393771 5.33248 0
M  V30 2595 C 234.824 1.75307 4.92001 0
M  V30 2596 H 236.518 1.26249 2.7148 0
M  V30 2597 H 234.064 0.608515 1.30511 0
M  V30 2598 H 236.017 -0.703422 4.15488 0
M  V30 2599 H 234.741 -1.2257 3.02728 0
M  V30 2600 H 233.4 0.8368 3.56922 0
M  V30 2601 H 233.048 -1.27225 4.86644 0
M  V30 2602 H 232.748 0.166209 5.87365 0
M  V30 2603 H 234.272 -0.747389 6.06009 0
M  V30 2604 H 235.686 1.46437 5.54283 0
M  V30 2605 H 234.083 2.25534 5.56106 0
M  V30 2606 H 235.153 2.48176 4.16577 0
M  V30 2607 N 236.496 -1.42363 0.676048 0
M  V30 2608 C 237.444 -2.32596 -0.0131507 0
M  V30 2609 C 238.438 -1.49891 -0.789238 0
M  V30 2610 O 239.644 -1.65955 -0.697061 0
M  V30 2611 H 236.019 -0.751647 -0.0230481 0
M  V30 2612 H 237.99 -2.88421 0.765243 0
M  V30 2613 C 236.739 -3.34479 -0.949702 0
M  V30 2614 H 236.062 -3.98158 -0.361938 0
M  V30 2615 H 237.502 -4.00199 -1.4006 0
M  V30 2616 C 235.961 -2.66838 -2.05667 0
M  V30 2617 O 236.491 -2.50124 -3.14326 0
M  V30 2618 N 234.697 -2.25843 -1.82875 0
M  V30 2619 H 234.244 -2.39637 -0.945085 0
M  V30 2620 H 234.202 -1.80918 -2.5713 0
M  V30 2621 N 237.974 -0.419461 -1.51915 0
M  V30 2622 C 238.904 0.391813 -2.30189 0
M  V30 2623 C 239.885 1.03699 -1.34836 0
M  V30 2624 O 241.07 1.04403 -1.63748 0
M  V30 2625 C 238.2 1.50312 -3.13087 0
M  V30 2626 C 237.154 0.9824 -4.16573 0
M  V30 2627 C 236.48 2.18809 -4.8788 0
M  V30 2628 C 237.78 0.0292356 -5.22292 0
M  V30 2629 H 239.474 -0.26135 -2.98257 0
M  V30 2630 H 237.02 -0.127134 -1.43438 0
M  V30 2631 H 238.973 2.07773 -3.66617 0
M  V30 2632 H 237.697 2.18431 -2.42807 0
M  V30 2633 H 236.356 0.430119 -3.64068 0
M  V30 2634 H 236.004 2.85507 -4.14119 0
M  V30 2635 H 235.704 1.84615 -5.57845 0
M  V30 2636 H 237.228 2.76858 -5.44226 0
M  V30 2637 H 238.642 0.512976 -5.71 0
M  V30 2638 H 237.039 -0.2244 -5.9968 0
M  V30 2639 H 238.109 -0.912931 -4.76228 0
M  V30 2640 N 239.452 1.56882 -0.150215 0
M  V30 2641 C 240.677 2.01027 0.510184 0
M  V30 2642 C 241.102 1.02966 1.57415 0
M  V30 2643 O 240.46 0.00590158 1.81299 0
M  V30 2644 C 240.508 3.43899 1.08472 0
M  V30 2645 O 239.612 3.4885 2.19948 0
M  V30 2646 H 238.953 0.652233 0.124451 0
M  V30 2647 H 241.483 2.03093 -0.247894 0
M  V30 2648 H 241.493 3.82766 1.41259 0
M  V30 2649 H 240.168 4.14776 0.305582 0
M  V30 2650 H 238.745 3.21827 1.88366 0
M  V30 2651 N 240.93 -0.123565 1.57115 0
M  V30 2652 C 242.341 -0.681198 1.73829 0
M  V30 2653 C 242.692 -1.80535 0.768214 0
M  V30 2654 O 241.817 -2.16317 -0.0599103 0
M  V30 2655 C 242.412 -1.24246 3.15196 0
M  V30 2656 C 240.971 -1.74643 3.33432 0
M  V30 2657 C 240.118 -0.644284 2.69711 0
M  V30 2658 H 243.069 0.102315 1.5837 0
M  V30 2659 H 243.09 -2.11216 3.16493 0
M  V30 2660 H 242.602 -0.424062 3.85776 0
M  V30 2661 H 240.703 -2.58974 2.67886 0
M  V30 2662 H 240.816 -1.85902 4.41562 0
M  V30 2663 H 239.18 -1.07676 2.3082 0
M  V30 2664 H 239.963 0.163058 3.42913 0
M  V30 2665 N 242.408 -1.52605 -0.393616 0
M  V30 2666 C 243.34 -1.73303 -1.49995 0
M  V30 2667 C 244.353 -0.613473 -1.50799 0
M  V30 2668 O 245.542 -0.889049 -1.54784 0
M  V30 2669 C 242.642 -1.77245 -2.88855 0
M  V30 2670 C 241.815 -3.06483 -3.12069 0
M  V30 2671 C 240.874 -3.02033 -4.30886 0
M  V30 2672 O 239.9 -3.75907 -4.27414 0
M  V30 2673 N 241.102 -2.20897 -5.36828 0
M  V30 2674 H 243.867 -2.68756 -1.32629 0
M  V30 2675 H 241.428 -1.51036 -0.583083 0
M  V30 2676 H 243.42 -1.7178 -3.66434 0
M  V30 2677 H 241.99 -0.891993 -2.99603 0
M  V30 2678 H 241.21 -3.25474 -2.22396 0
M  V30 2679 H 242.498 -3.91947 -3.2443 0
M  V30 2680 H 241.896 -1.60336 -5.42502 0
M  V30 2681 H 240.453 -2.21275 -6.13091 0
M  V30 2682 N 243.887 0.651787 -1.4349 0
M  V30 2683 C 244.835 1.78586 -1.49029 0
M  V30 2684 C 245.829 1.65448 -0.363767 0
M  V30 2685 O 247.035 1.71777 -0.537821 0
M  V30 2686 H 243.41 0.589236 -0.467231 0
M  V30 2687 H 245.381 1.71035 -2.44519 0
M  V30 2688 C 244.13 3.16851 -1.43181 0
M  V30 2689 H 243.453 3.27598 -2.29171 0
M  V30 2690 H 244.893 3.96156 -1.51118 0
M  V30 2691 C 243.352 3.36568 -0.149616 0
M  V30 2692 O 243.882 3.93885 0.788509 0
M  V30 2693 N 242.088 2.90539 -0.0593484 0
M  V30 2694 H 241.635 2.4408 -0.823575 0
M  V30 2695 H 241.593 3.04108 0.797853 0
M  V30 2696 N 245.365 1.30045 0.890287 0
M  V30 2697 C 246.295 1.18541 2.01172 0
M  V30 2698 C 247.276 0.0773356 1.69924 0
M  V30 2699 O 248.461 0.25845 1.92473 0
M  V30 2700 C 245.591 0.870941 3.36202 0
M  V30 2701 C 244.545 1.93637 3.81692 0
M  V30 2702 C 243.871 1.475 5.13953 0
M  V30 2703 C 245.171 3.34666 4.00994 0
M  V30 2704 H 246.865 2.12359 2.11054 0
M  V30 2705 H 244.411 1.02238 1.01407 0
M  V30 2706 H 246.364 0.777141 4.14172 0
M  V30 2707 H 245.088 -0.102926 3.26438 0
M  V30 2708 H 243.747 2.01972 3.05946 0
M  V30 2709 H 243.395 0.489551 5.00612 0
M  V30 2710 H 243.095 2.1876 5.4536 0
M  V30 2711 H 244.619 1.39489 5.94454 0
M  V30 2712 H 246.033 3.2912 4.69417 0
M  V30 2713 H 244.43 4.03966 4.43769 0
M  V30 2714 H 245.5 3.76949 3.05021 0
M  V30 2715 N 246.843 -1.10192 1.12674 0
M  V30 2716 C 248.089 -1.82475 0.884915 0
M  V30 2717 C 248.422 -1.85093 -0.58773 0
M  V30 2718 O 247.697 -1.3134 -1.43457 0
M  V30 2719 C 247.98 -3.29018 1.46353 0
M  V30 2720 C 247.833 -3.34718 3.00473 0
M  V30 2721 C 249.152 -4.25473 1.12519 0
M  V30 2722 H 246.271 -0.662492 0.322915 0
M  V30 2723 H 248.913 -1.2913 1.39375 0
M  V30 2724 H 247.063 -3.74576 1.03077 0
M  V30 2725 H 248.735 -2.97622 3.52447 0
M  V30 2726 H 246.978 -2.74541 3.35872 0
M  V30 2727 H 247.649 -4.37918 3.36053 0
M  V30 2728 H 250.125 -3.88161 1.499 0
M  V30 2729 H 249.001 -5.26365 1.55663 0
M  V30 2730 H 249.262 -4.42084 0.0377407 0
M  V30 2731 N 248.321 -0.919034 -1.28029 0
M  V30 2732 C 249.598 -0.473668 -1.89778 0
M  V30 2733 C 249.978 1.04783 -1.83259 0
M  V30 2734 O 249.326 1.8982 -1.27202 0
M  V30 2735 C 249.536 -1.00998 -3.34066 0
M  V30 2736 C 250.884 -1.06525 -4.1102 0
M  V30 2737 O 251.908 -0.958996 -3.43048 0
M  V30 2738 O 250.767 -1.22776 -5.3253 0
M  V30 2739 H 247.861 -0.15098 -0.813101 0
M  V30 2740 H 250.407 -1.01016 -1.36359 0
M  V30 2741 H 249.179 -2.05392 -3.33061 0
M  V30 2742 H 248.802 -0.454626 -3.94992 0
M  V30 2743 N 249.799 1.42003 -0.683588 0
M  V30 2744 C 251.039 2.03282 -0.213513 0
M  V30 2745 C 251.403 1.52924 1.16097 0
M  V30 2746 O 252.604 2.06048 1.7262 0
M  V30 2747 C 250.875 3.56483 -0.255856 0
M  V30 2748 S 252.434 4.3857 0.14193 0
M  V30 2749 H 249.252 0.705659 -0.0869853 0
M  V30 2750 H 251.854 1.73619 -0.8987 0
M  V30 2751 H 250.558 3.90631 -1.25841 0
M  V30 2752 H 250.089 3.90831 0.448875 0
M  V30 2753 H 252.104 4.76828 1.37295 0
M  V30 2754 N 251.277 0.427512 1.51691 0
M  V30 2755 C 252.523 -0.142439 2.02299 0
M  V30 2756 C 252.856 -1.43214 1.31162 0
M  V30 2757 O 252.131 -1.89833 0.423511 0
M  V30 2758 C 252.414 -0.371301 3.58181 0
M  V30 2759 C 252.267 0.936358 4.39946 0
M  V30 2760 C 253.586 -1.14542 4.24933 0
M  V30 2761 H 250.705 -0.0502937 0.735282 0
M  V30 2762 H 253.347 0.564584 1.81418 0
M  V30 2763 H 251.497 -0.973559 3.76104 0
M  V30 2764 H 253.169 1.57184 4.33694 0
M  V30 2765 H 251.412 1.5432 4.05423 0
M  V30 2766 H 252.083 0.730388 5.47147 0
M  V30 2767 H 254.559 -0.635362 4.11221 0
M  V30 2768 H 253.435 -1.27431 5.33903 0
M  V30 2769 H 253.696 -2.17093 3.85127 0
M  V30 2770 N 252.755 -1.56801 0.158532 0
M  V30 2771 C 253.98 -2.01295 -0.499516 0
M  V30 2772 C 254.405 -1.03799 -1.56867 0
M  V30 2773 O 253.763 -0.0155162 -1.81293 0
M  V30 2774 C 253.811 -3.44469 -1.06647 0
M  V30 2775 O 252.915 -3.50012 -2.18095 0
M  V30 2776 H 252.256 -0.652884 -0.12099 0
M  V30 2777 H 254.786 -2.02958 0.258661 0
M  V30 2778 H 254.796 -3.8351 -1.39227 0
M  V30 2779 H 253.471 -4.14932 -0.283581 0
M  V30 2780 H 252.048 -3.22822 -1.86656 0
M  V30 2781 N 254.233 0.115231 -1.57178 0
M  V30 2782 C 255.143 1.15994 -2.03918 0
M  V30 2783 C 256.159 1.45103 -0.960268 0
M  V30 2784 O 257.335 1.56144 -1.27204 0
M  V30 2785 C 254.4 2.46568 -2.43732 0
M  V30 2786 C 253.461 2.24822 -3.65723 0
M  V30 2787 C 252.694 3.4917 -4.03629 0
M  V30 2788 O 252.917 4.56623 -3.41835 0
M  V30 2789 O 251.851 3.39949 -4.96708 0
M  V30 2790 H 255.677 0.793019 -2.93164 0
M  V30 2791 H 253.262 0.3263 -1.45793 0
M  V30 2792 H 255.144 3.23492 -2.70057 0
M  V30 2793 H 253.819 2.82726 -1.57631 0
M  V30 2794 H 252.726 1.45744 -3.44542 0
M  V30 2795 H 254.059 1.93566 -4.52541 0
M  V30 2796 N 255.711 1.52812 0.385517 0
M  V30 2797 C 256.659 1.78482 1.49155 0
M  V30 2798 C 257.653 0.652914 1.56312 0
M  V30 2799 O 258.859 0.835464 1.59436 0
M  V30 2800 H 255.234 0.5648 0.496493 0
M  V30 2801 H 257.205 2.71095 1.24699 0
M  V30 2802 C 255.954 1.97378 2.86247 0
M  V30 2803 H 255.277 2.83907 2.81491 0
M  V30 2804 H 256.717 2.19327 3.62866 0
M  V30 2805 C 255.176 0.74728 3.28508 0
M  V30 2806 O 255.706 -0.0736232 4.01633 0
M  V30 2807 N 253.912 0.576396 2.84826 0
M  V30 2808 H 253.459 1.24555 2.25486 0
M  V30 2809 H 253.417 -0.24288 3.1346 0
M  V30 2810 N 257.189 -0.644168 1.43834 0
M  V30 2811 C 258.466 -1.40188 1.36406 0
M  V30 2812 C 258.846 -2.11094 0.0163124 0
M  V30 2813 O 258.194 -2.05426 -1.00062 0
M  V30 2814 C 258.404 -2.3791 2.55343 0
M  V30 2815 C 259.752 -3.01637 2.98832 0
M  V30 2816 O 260.776 -2.48237 2.55455 0
M  V30 2817 O 259.635 -3.98477 3.74003 0
M  V30 2818 H 256.729 -0.626773 0.539523 0
M  V30 2819 H 259.275 -0.670317 1.559 0
M  V30 2820 H 258.047 -1.84525 3.4506 0
M  V30 2821 H 257.67 -3.18503 2.37995 0
M  V30 2822 N 258.668 -1.30515 -0.883378 0
M  V30 2823 C 259.916 -1.19194 -1.63209 0
M  V30 2824 C 260.237 0.253205 -1.93349 0
M  V30 2825 O 259.507 1.17025 -1.57105 0
M  V30 2826 H 258.087 -0.438148 -0.605009 0
M  V30 2827 H 260.749 -1.63663 -1.05832 0
M  V30 2828 H 259.845 -1.75396 -2.58153 0
M  V30 2829 N 260.146 1.09593 -1.13257 0
M  V30 2830 C 261.386 1.83349 -0.903472 0
M  V30 2831 C 261.75 1.83641 0.560351 0
M  V30 2832 O 262.951 2.53037 0.906947 0
M  V30 2833 C 261.222 3.25629 -1.47311 0
M  V30 2834 S 262.781 4.16408 -1.38382 0
M  V30 2835 H 259.599 0.632014 -0.325699 0
M  V30 2836 H 262.201 1.31817 -1.44376 0
M  V30 2837 H 260.905 3.22991 -2.53189 0
M  V30 2838 H 260.436 3.82233 -0.930689 0
M  V30 2839 H 262.451 4.94884 -0.361113 0
M  V30 2840 N 261.624 0.925811 1.2754 0
M  V30 2841 C 262.872 0.564138 1.94067 0
M  V30 2842 C 263.193 -0.897188 1.73134 0
M  V30 2843 O 262.463 -1.63573 1.07799 0
M  V30 2844 H 261.043 0.205645 0.718136 0
M  V30 2845 H 263.705 1.1778 1.55287 0
M  V30 2846 H 262.801 0.76881 3.02483 0
M  V30 2847 N 263.102 -1.41638 0.69111 0
M  V30 2848 C 264.35 -2.00902 0.219758 0
M  V30 2849 C 264.671 -1.54994 -1.18329 0
M  V30 2850 O 263.941 -0.778628 -1.79762 0
M  V30 2851 H 262.521 -0.74289 0.0782558 0
M  V30 2852 H 265.183 -1.73327 0.891271 0
M  V30 2853 H 264.279 -3.11224 0.233708 0
M  V30 2854 N 264.58 -0.43555 -1.51462 0
M  V30 2855 C 265.828 0.131254 -2.01673 0
M  V30 2856 C 266.149 1.43368 -1.32177 0
M  V30 2857 O 265.419 1.90524 -0.455769 0
M  V30 2858 H 263.999 0.0514954 -0.745223 0
M  V30 2859 H 266.661 -0.577847 -1.86137 0
M  V30 2860 H 265.757 0.308446 -3.10572 0
M  V30 2861 N 266.058 1.56714 -0.166846 0
M  V30 2862 C 267.288 2.00828 0.48494 0
M  V30 2863 C 267.696 1.04612 1.57648 0
M  V30 2864 O 267.039 0.0383201 1.8366 0
M  V30 2865 C 267.101 3.4137 1.12723 0
M  V30 2866 C 266.765 4.56654 0.177886 0
M  V30 2867 C 267.762 5.16402 -0.60207 0
M  V30 2868 C 265.447 5.02244 0.0750139 0
M  V30 2869 C 267.441 6.20167 -1.47215 0
M  V30 2870 C 265.128 6.05859 -0.798649 0
M  V30 2871 C 266.126 6.64691 -1.57082 0
M  V30 2872 O 265.814 7.66297 -2.42989 0
M  V30 2873 H 265.546 0.663587 0.128953 0
M  V30 2874 H 268.1 2.03692 -0.264365 0
M  V30 2875 H 266.33 3.35406 1.92457 0
M  V30 2876 H 268.019 3.69466 1.68076 0
M  V30 2877 H 268.785 4.82065 -0.53274 0
M  V30 2878 H 264.664 4.56167 0.665812 0
M  V30 2879 H 268.208 6.66016 -2.07531 0
M  V30 2880 H 264.105 6.39621 -0.869199 0
M  V30 2881 H 264.873 7.83601 -2.36455 0
M  V30 2882 N 267.536 -0.106894 1.57237 0
M  V30 2883 C 268.469 -1.16125 1.96444 0
M  V30 2884 C 269.447 -1.3947 0.835871 0
M  V30 2885 O 270.631 -1.53425 1.09513 0
M  V30 2886 C 267.758 -2.51277 2.27107 0
M  V30 2887 C 266.804 -2.44285 3.4961 0
M  V30 2888 S 267.637 -1.87077 5.01759 0
M  V30 2889 C 268.793 -3.23877 5.35588 0
M  V30 2890 H 269.026 -0.826971 2.85567 0
M  V30 2891 H 266.559 -0.314124 1.51171 0
M  V30 2892 H 268.517 -3.29035 2.45451 0
M  V30 2893 H 267.178 -2.81879 1.38576 0
M  V30 2894 H 266.371 -3.4387 3.68469 0
M  V30 2895 H 265.973 -1.74652 3.30715 0
M  V30 2896 H 268.265 -4.20122 5.31511 0
M  V30 2897 H 269.208 -3.09833 6.36717 0
M  V30 2898 H 269.616 -3.22864 4.63054 0
M  V30 2899 N 269.014 -1.53014 -0.377408 0
M  V30 2900 C 270.242 -1.72515 -1.14219 0
M  V30 2901 C 270.657 -0.448735 -1.8339 0
M  V30 2902 O 270.014 0.577592 -1.73119 0
M  V30 2903 C 270.065 -2.8826 -2.18148 0
M  V30 2904 O 269.786 -4.10962 -1.51795 0
M  V30 2905 C 271.287 -3.19536 -3.07264 0
M  V30 2906 H 268.507 -0.577301 -0.342001 0
M  V30 2907 H 271.051 -1.99712 -0.439935 0
M  V30 2908 H 269.206 -2.63492 -2.83991 0
M  V30 2909 H 269.62 -4.75693 -2.20945 0
M  V30 2910 H 271.094 -4.03959 -3.76193 0
M  V30 2911 H 271.571 -2.34403 -3.71419 0
M  V30 2912 H 272.177 -3.46186 -2.47053 0
M  V30 2913 N 270.492 0.636531 -1.44174 0
M  V30 2914 C 271.44 1.76995 -1.50915 0
M  V30 2915 C 272.434 1.65053 -0.381295 0
M  V30 2916 O 273.64 1.71197 -0.55601 0
M  V30 2917 H 270.015 0.584247 -0.473455 0
M  V30 2918 H 271.986 1.68432 -2.4632 0
M  V30 2919 C 270.735 3.15314 -1.46534 0
M  V30 2920 H 270.058 3.25149 -2.32633 0
M  V30 2921 H 271.498 3.9453 -1.55312 0
M  V30 2922 C 269.957 3.3639 -0.185305 0
M  V30 2923 O 270.487 3.94699 0.746688 0
M  V30 2924 N 268.693 2.9046 -0.0901606 0
M  V30 2925 H 268.24 2.43193 -0.849416 0
M  V30 2926 H 268.198 3.04937 0.765553 0
M  V30 2927 N 271.97 1.30982 0.876444 0
M  V30 2928 C 272.933 1.18054 1.96459 0
M  V30 2929 C 273.933 0.109399 1.60427 0
M  V30 2930 O 275.123 0.358173 1.70478 0
M  V30 2931 C 272.255 0.810616 3.31122 0
M  V30 2932 H 273.448 2.14735 2.09354 0
M  V30 2933 H 271.001 1.145 1.06392 0
M  V30 2934 H 271.736 -0.155322 3.23928 0
M  V30 2935 H 271.521 1.58481 3.58645 0
M  V30 2936 H 273.011 0.743876 4.10921 0
M  V30 2937 N 273.449 -1.08991 1.13837 0
M  V30 2938 C 274.696 -1.81258 0.902882 0
M  V30 2939 C 275.024 -1.85936 -0.570803 0
M  V30 2940 O 274.279 -1.3267 -1.43865 0
M  V30 2941 C 274.578 -3.27042 1.44147 0
M  V30 2942 C 274.244 -3.4249 2.93276 0
M  V30 2943 C 272.906 -3.46414 3.33992 0
M  V30 2944 C 275.258 -3.4666 3.892 0
M  V30 2945 C 272.586 -3.52091 4.69307 0
M  V30 2946 C 274.938 -3.53872 5.24364 0
M  V30 2947 C 273.602 -3.56066 5.646 0
M  V30 2948 H 272.872 -0.663268 0.330388 0
M  V30 2949 H 275.519 -1.28368 1.42105 0
M  V30 2950 H 273.824 -3.82599 0.844097 0
M  V30 2951 H 275.521 -3.81499 1.23528 0
M  V30 2952 H 272.111 -3.40124 2.60794 0
M  V30 2953 H 276.295 -3.42865 3.58828 0
M  V30 2954 H 271.551 -3.52079 4.9985 0
M  V30 2955 H 275.725 -3.56043 5.98503 0
M  V30 2956 H 273.352 -3.60218 6.69438 0
M  V30 2957 N 274.927 -0.932562 -1.27047 0
M  V30 2958 C 275.859 -0.392734 -2.2581 0
M  V30 2959 C 276.872 0.479241 -1.55586 0
M  V30 2960 O 278.061 0.291078 -1.76111 0
M  V30 2961 C 275.161 0.455456 -3.35826 0
M  V30 2962 C 274.334 -0.398355 -4.35582 0
M  V30 2963 C 273.393 0.387985 -5.24768 0
M  V30 2964 O 272.419 -0.206003 -5.68827 0
M  V30 2965 N 273.621 1.68664 -5.55457 0
M  V30 2966 H 276.386 -1.24173 -2.72766 0
M  V30 2967 H 273.947 -0.800511 -1.40725 0
M  V30 2968 H 275.939 0.988692 -3.92437 0
M  V30 2969 H 274.509 1.20522 -2.88432 0
M  V30 2970 H 273.729 -1.11286 -3.78165 0
M  V30 2971 H 275.017 -0.981889 -4.99236 0
M  V30 2972 H 274.415 2.19147 -5.21528 0
M  V30 2973 H 272.972 2.1663 -6.14748 0
M  V30 2974 N 276.405 1.4127 -0.698611 0
M  V30 2975 C 277.635 2.05205 -0.239644 0
M  V30 2976 C 278.043 1.52684 1.11733 0
M  V30 2977 O 277.386 0.671222 1.70998 0
M  V30 2978 C 277.448 3.59289 -0.123126 0
M  V30 2979 C 277.112 4.34619 -1.41263 0
M  V30 2980 C 278.109 4.63701 -2.35111 0
M  V30 2981 C 275.794 4.73837 -1.66684 0
M  V30 2982 C 277.788 5.30966 -3.52639 0
M  V30 2983 C 275.475 5.40837 -2.84498 0
M  V30 2984 C 276.473 5.69329 -3.77298 0
M  V30 2985 O 276.161 6.34949 -4.93047 0
M  V30 2986 H 275.893 0.66723 -0.108537 0
M  V30 2987 H 278.447 1.81974 -0.952602 0
M  V30 2988 H 276.677 3.81272 0.645628 0
M  V30 2989 H 278.366 4.04797 0.299056 0
M  V30 2990 H 279.132 4.33882 -2.16729 0
M  V30 2991 H 275.011 4.51039 -0.953135 0
M  V30 2992 H 278.555 5.53121 -4.25091 0
M  V30 2993 H 274.452 5.70075 -3.02795 0
M  V30 2994 H 275.22 6.53445 -4.92902 0
M  V30 2995 N 277.883 0.443576 1.51229 0
M  V30 2996 C 279.129 -0.120975 2.02439 0
M  V30 2997 C 279.462 -1.41815 1.32674 0
M  V30 2998 O 278.737 -1.89373 0.443622 0
M  V30 2999 C 279.02 -0.333291 3.58554 0
M  V30 3000 C 278.873 0.982968 4.38928 0
M  V30 3001 C 280.192 -1.10028 4.26124 0
M  V30 3002 H 277.311 -0.0424923 0.735774 0
M  V30 3003 H 279.953 0.583794 1.80809 0
M  V30 3004 H 278.103 -0.933614 3.77115 0
M  V30 3005 H 279.775 1.61775 4.32003 0
M  V30 3006 H 278.018 1.58611 4.03763 0
M  V30 3007 H 278.689 0.788379 5.46341 0
M  V30 3008 H 281.165 -0.591711 4.11871 0
M  V30 3009 H 280.041 -1.21761 5.35225 0
M  V30 3010 H 280.302 -2.12996 3.87408 0
M  V30 3011 N 279.361 -1.56624 0.175154 0
M  V30 3012 C 280.293 -2.15333 -0.785128 0
M  V30 3013 C 281.306 -1.1099 -1.19101 0
M  V30 3014 O 282.495 -1.38162 -1.13019 0
M  V30 3015 C 279.595 -2.68427 -2.06882 0
M  V30 3016 C 278.768 -3.97466 -1.8259 0
M  V30 3017 C 277.827 -4.35585 -2.95215 0
M  V30 3018 O 276.853 -5.03389 -2.65684 0
M  V30 3019 N 278.055 -3.97457 -4.23094 0
M  V30 3020 H 280.82 -2.98359 -0.283187 0
M  V30 3021 H 278.381 -1.61898 -0.00749817 0
M  V30 3022 H 280.373 -2.90924 -2.81328 0
M  V30 3023 H 278.943 -1.89968 -2.48256 0
M  V30 3024 H 278.163 -3.83307 -0.920287 0
M  V30 3025 H 279.451 -4.81736 -1.63733 0
M  V30 3026 H 278.849 -3.42878 -4.49945 0
M  V30 3027 H 277.406 -4.24947 -4.9423 0
M  V30 3028 N 280.839 0.0985539 -1.57292 0
M  V30 3029 C 281.786 1.11981 -2.01814 0
M  V30 3030 C 282.756 1.39999 -0.89384 0
M  V30 3031 O 283.941 1.5152 -1.15958 0
M  V30 3032 C 281.081 2.43577 -2.44467 0
M  V30 3033 C 280.194 2.2232 -3.70402 0
M  V30 3034 C 279.329 3.4729 -4.01949 0
M  V30 3035 C 278.368 3.2128 -5.21005 0
M  V30 3036 N 277.505 4.38507 -5.48321 0
M  V30 3037 H 282.345 0.733149 -2.88841 0
M  V30 3038 H 279.882 0.350482 -1.42864 0
M  V30 3039 H 281.84 3.20373 -2.6724 0
M  V30 3040 H 280.47 2.80097 -1.60455 0
M  V30 3041 H 279.522 1.36343 -3.55126 0
M  V30 3042 H 280.834 1.99089 -4.57345 0
M  V30 3043 H 279.988 4.32495 -4.25479 0
M  V30 3044 H 278.727 3.73572 -3.13521 0
M  V30 3045 H 277.732 2.34468 -4.97298 0
M  V30 3046 H 278.957 2.96348 -6.11028 0
M  V30 3047 H 276.903 4.64871 -4.62851 0
M  V30 3048 H 276.82 4.18455 -6.29628 0
M  V30 3049 H 278.088 5.24787 -5.76385 0
M  V30 3050 N 282.317 1.53212 0.369288 0
M  V30 3051 C 283.265 1.80054 1.47253 0
M  V30 3052 C 284.259 0.669456 1.55611 0
M  V30 3053 O 285.465 0.852328 1.58541 0
M  V30 3054 H 281.84 0.570034 0.490475 0
M  V30 3055 H 283.811 2.72403 1.21817 0
M  V30 3056 C 282.56 2.00403 2.84137 0
M  V30 3057 H 281.883 2.86876 2.78464 0
M  V30 3058 H 283.323 2.23164 3.60519 0
M  V30 3059 C 281.782 0.782081 3.27697 0
M  V30 3060 O 282.312 -0.0310205 4.01688 0
M  V30 3061 N 280.518 0.606573 2.84199 0
M  V30 3062 H 280.065 1.26939 2.24152 0
M  V30 3063 H 280.023 -0.20962 3.137 0
M  V30 3064 N 283.795 -0.628877 1.44509 0
M  V30 3065 C 285.211 -0.947305 1.28446 0
M  V30 3066 C 285.411 -2.00275 0.221872 0
M  V30 3067 O 284.467 -2.49447 -0.391471 0
M  V30 3068 C 285.78 -1.40843 2.65676 0
M  V30 3069 C 287.328 -1.52379 2.73404 0
M  V30 3070 C 287.803 -2.01875 4.11109 0
M  V30 3071 N 289.294 -2.09142 4.13296 0
M  V30 3072 C 290.029 -2.48615 5.16699 0
M  V30 3073 N 289.525 -2.87209 6.30462 0
M  V30 3074 N 291.318 -2.48768 5.04054 0
M  V30 3075 H 283.469 0.0690977 2.12288 0
M  V30 3076 H 285.732 -0.0317164 0.947469 0
M  V30 3077 H 285.438 -0.707206 3.44516 0
M  V30 3078 H 285.312 -2.37902 2.92716 0
M  V30 3079 H 287.699 -2.21598 1.9488 0
M  V30 3080 H 287.78 -0.536898 2.50102 0
M  V30 3081 H 287.424 -1.3325 4.90109 0
M  V30 3082 H 287.354 -3.0144 4.31789 0
M  V30 3083 H 289.845 -1.81991 3.31191 0
M  V30 3084 H 290.158 -3.16149 7.05174 0
M  V30 3085 H 288.503 -2.84955 6.33897 0
M  V30 3086 H 291.694 -2.18009 4.14234 0
M  V30 3087 H 291.867 -2.79207 5.84763 0
M  V30 3088 N 285.273 -1.31445 -0.869486 0
M  V30 3089 C 286.521 -1.20918 -1.61936 0
M  V30 3090 C 286.842 0.232683 -1.93607 0
M  V30 3091 O 286.112 1.15352 -1.58338 0
M  V30 3092 H 284.692 -0.44454 -0.600328 0
M  V30 3093 H 287.354 -1.64776 -1.0409 0
M  V30 3094 H 286.45 -1.78124 -2.56278 0
M  V30 3095 N 286.751 1.08385 -1.14413 0
M  V30 3096 C 288 1.80153 -0.907076 0
M  V30 3097 C 288.313 1.87176 0.567851 0
M  V30 3098 O 289.519 2.55359 0.922172 0
M  V30 3099 C 287.975 3.23687 -1.57336 0
M  V30 3100 C 287.583 3.24897 -3.08457 0
M  V30 3101 C 289.327 4.00136 -1.41744 0
M  V30 3102 C 287.234 4.6302 -3.67921 0
M  V30 3103 H 286.164 0.675139 -0.335714 0
M  V30 3104 H 288.815 1.21733 -1.37307 0
M  V30 3105 H 287.197 3.82234 -1.03505 0
M  V30 3106 H 288.371 2.76055 -3.68958 0
M  V30 3107 H 286.686 2.61943 -3.2369 0
M  V30 3108 H 289.283 5.02201 -1.83572 0
M  V30 3109 H 289.626 4.14709 -0.363576 0
M  V30 3110 H 290.159 3.48058 -1.92614 0
M  V30 3111 H 286.898 4.5365 -4.73161 0
M  V30 3112 H 286.418 5.12143 -3.12201 0
M  V30 3113 H 288.097 5.31994 -3.68227 0
M  V30 3114 N 288.23 0.939286 1.26551 0
M  V30 3115 C 289.507 0.5038 1.89001 0
M  V30 3116 C 289.887 -1.01854 1.84903 0
M  V30 3117 O 289.235 -1.87773 1.30206 0
M  V30 3118 C 289.445 1.063 3.32417 0
M  V30 3119 C 290.793 1.13051 4.09273 0
M  V30 3120 O 291.817 1.01345 3.41479 0
M  V30 3121 O 290.676 1.31233 5.30509 0
M  V30 3122 H 287.77 0.163897 0.810597 0
M  V30 3123 H 290.316 1.03173 1.34735 0
M  V30 3124 H 289.088 2.10665 3.29752 0
M  V30 3125 H 288.711 0.517408 3.94219 0
M  V30 3126 N 289.708 -1.40897 0.706093 0
M  V30 3127 C 290.933 -2.05895 0.249435 0
M  V30 3128 C 291.358 -1.52823 -1.09666 0
M  V30 3129 O 290.716 -0.659589 -1.68876 0
M  V30 3130 C 290.764 -3.59872 0.22904 0
M  V30 3131 O 289.868 -4.04708 -0.792784 0
M  V30 3132 H 289.209 -0.653206 0.119241 0
M  V30 3133 H 291.739 -1.80471 0.96391 0
M  V30 3134 H 291.749 -4.07951 0.0634791 0
M  V30 3135 H 290.424 -3.97866 1.21141 0
M  V30 3136 H 289.001 -3.68111 -0.59572 0
M  V30 3137 N 291.186 -0.45159 -1.50991 0
M  V30 3138 C 292.096 0.358431 -2.31846 0
M  V30 3139 C 293.112 1.01438 -1.41373 0
M  V30 3140 O 294.288 1.00663 -1.74439 0
M  V30 3141 C 291.353 1.43704 -3.15515 0
M  V30 3142 C 290.414 0.799742 -4.21785 0
M  V30 3143 C 289.647 1.82696 -5.01456 0
M  V30 3144 O 289.87 3.05105 -4.81941 0
M  V30 3145 O 288.804 1.40958 -5.85162 0
M  V30 3146 H 292.63 -0.302032 -3.02194 0
M  V30 3147 H 290.215 -0.213825 -1.47862 0
M  V30 3148 H 292.097 2.06227 -3.67489 0
M  V30 3149 H 290.772 2.08133 -2.47916 0
M  V30 3150 H 289.679 0.136084 -3.73852 0
M  V30 3151 H 291.012 0.198718 -4.91799 0
M  V30 3152 N 292.664 1.56529 -0.183458 0
M  V30 3153 C 293.941 1.88959 0.50536 0
M  V30 3154 C 294.321 1.09523 1.80466 0
M  V30 3155 O 293.669 0.19278 2.27685 0
M  V30 3156 C 293.879 3.41162 0.73547 0
M  V30 3157 C 295.227 4.11155 1.06005 0
M  V30 3158 O 296.251 3.46548 0.823594 0
M  V30 3159 O 295.11 5.25318 1.50675 0
M  V30 3160 H 292.204 0.78441 0.261973 0
M  V30 3161 H 294.75 1.68231 -0.222802 0
M  V30 3162 H 293.522 3.90874 -0.182561 0
M  V30 3163 H 293.145 3.67543 1.51651 0
M  V30 3164 N 294.142 -0.090211 1.57342 0
M  V30 3165 C 295.105 -1.09335 2.01441 0
M  V30 3166 C 296.105 -1.32666 0.908641 0
M  V30 3167 O 297.295 -1.28697 1.174 0
M  V30 3168 C 294.427 -2.44136 2.3793 0
M  V30 3169 H 295.62 -0.713662 2.91285 0
M  V30 3170 H 293.173 -0.335404 1.52659 0
M  V30 3171 H 293.908 -2.86972 1.51055 0
M  V30 3172 H 293.693 -2.28548 3.18603 0
M  V30 3173 H 295.183 -3.16277 2.72688 0
M  V30 3174 N 295.62 -1.53406 -0.361157 0
M  V30 3175 C 296.85 -1.73465 -1.1222 0
M  V30 3176 C 297.258 -0.465486 -1.83384 0
M  V30 3177 O 296.601 0.571611 -1.7458 0
M  V30 3178 C 296.663 -2.84834 -2.19339 0
M  V30 3179 C 296.327 -4.25038 -1.67903 0
M  V30 3180 C 297.324 -5.07231 -1.14074 0
M  V30 3181 C 295.009 -4.71464 -1.73282 0
M  V30 3182 C 297.003 -6.33942 -0.663068 0
M  V30 3183 C 294.69 -5.98153 -1.25127 0
M  V30 3184 C 295.688 -6.79223 -0.717296 0
M  V30 3185 O 295.376 -8.03533 -0.242865 0
M  V30 3186 H 295.108 -0.583526 -0.341283 0
M  V30 3187 H 297.662 -2.00964 -0.424591 0
M  V30 3188 H 295.892 -2.5282 -2.92607 0
M  V30 3189 H 297.581 -2.9303 -2.80871 0
M  V30 3190 H 298.347 -4.72534 -1.09254 0
M  V30 3191 H 294.226 -4.08432 -2.13786 0
M  V30 3192 H 297.77 -6.97167 -0.245612 0
M  V30 3193 H 293.667 -6.32347 -1.29642 0
M  V30 3194 H 294.435 -8.177 -0.361786 0
M  V30 3195 N 297.098 0.621204 -1.44841 0
M  V30 3196 C 298.509 1.20298 -1.42777 0
M  V30 3197 C 298.86 1.95639 -0.148259 0
M  V30 3198 O 297.985 2.02955 0.750892 0
M  V30 3199 C 298.58 2.1882 -2.58657 0
M  V30 3200 C 297.139 2.72403 -2.59756 0
M  V30 3201 C 296.286 1.4757 -2.34773 0
M  V30 3202 H 299.237 0.411297 -1.53278 0
M  V30 3203 H 299.258 3.01607 -2.31977 0
M  V30 3204 H 298.77 1.63957 -3.51766 0
M  V30 3205 H 296.871 3.31242 -1.70615 0
M  V30 3206 H 296.984 3.17765 -3.58556 0
M  V30 3207 H 295.348 1.76051 -1.8406 0
M  V30 3208 H 296.131 0.945954 -3.3001 0
M  V30 3209 N 298.576 1.31904 0.862503 0
M  V30 3210 C 299.806 1.24817 1.64634 0
M  V30 3211 C 300.214 -0.187579 1.88268 0
M  V30 3212 O 299.557 -1.13253 1.44635 0
M  V30 3213 C 299.619 1.92996 3.03303 0
M  V30 3214 C 299.283 3.42336 3.02746 0
M  V30 3215 C 300.28 4.37956 2.80162 0
M  V30 3216 C 297.965 3.84147 3.2363 0
M  V30 3217 C 299.959 5.73361 2.78453 0
M  V30 3218 C 297.646 5.19663 3.21549 0
M  V30 3219 C 298.644 6.14081 2.98988 0
M  V30 3220 O 298.332 7.47118 2.96766 0
M  V30 3221 H 298.064 0.432222 0.519769 0
M  V30 3222 H 300.618 1.7445 1.08427 0
M  V30 3223 H 298.848 1.37922 3.61268 0
M  V30 3224 H 300.537 1.79723 3.63943 0
M  V30 3225 H 301.303 4.06981 2.63802 0
M  V30 3226 H 297.182 3.11083 3.40218 0
M  V30 3227 H 300.726 6.4703 2.60763 0
M  V30 3228 H 296.623 5.5027 3.37451 0
M  V30 3229 H 297.391 7.56382 3.12775 0
M  V30 3230 N 300.054 -1.07777 1.14986 0
M  V30 3231 C 301.3 -1.80557 0.923422 0
M  V30 3232 C 301.633 -1.86298 -0.548337 0
M  V30 3233 O 300.908 -1.34354 -1.40639 0
M  V30 3234 C 301.191 -3.25839 1.53299 0
M  V30 3235 C 301.044 -3.28269 3.07505 0
M  V30 3236 C 302.363 -4.22991 1.21518 0
M  V30 3237 H 299.482 -0.655493 0.336894 0
M  V30 3238 H 302.124 -1.26144 1.42083 0
M  V30 3239 H 300.274 -3.72306 1.10999 0
M  V30 3240 H 301.946 -2.90079 3.58681 0
M  V30 3241 H 300.189 -2.67355 3.4162 0
M  V30 3242 H 300.86 -4.30691 3.45266 0
M  V30 3243 H 303.336 -3.84894 1.581 0
M  V30 3244 H 302.212 -5.22945 1.66793 0
M  V30 3245 H 302.473 -4.41904 0.131505 0
M  V30 3246 N 301.532 -0.945985 -1.26051 0
M  V30 3247 C 302.78 -0.594941 -1.93145 0
M  V30 3248 C 303.101 0.86953 -1.7454 0
M  V30 3249 O 302.371 1.61838 -1.10387 0
M  V30 3250 H 300.951 -0.217044 -0.714773 0
M  V30 3251 H 303.613 -1.20235 -1.53393 0
M  V30 3252 H 302.709 -0.816835 -3.01221 0
M  V30 3253 N 303.011 1.40521 -0.713556 0
M  V30 3254 C 303.943 2.29191 -0.0203126 0
M  V30 3255 C 304.956 1.45723 0.725864 0
M  V30 3256 O 306.145 1.69033 0.573581 0
M  V30 3257 C 303.245 3.2395 0.995486 0
M  V30 3258 C 302.418 4.36262 0.315256 0
M  V30 3259 C 301.477 5.11474 1.23616 0
M  V30 3260 O 300.503 5.64606 0.721719 0
M  V30 3261 N 301.705 5.20638 2.56743 0
M  V30 3262 H 304.47 2.89327 -0.781652 0
M  V30 3263 H 302.031 1.51869 -0.561022 0
M  V30 3264 H 304.023 3.71137 1.61368 0
M  V30 3265 H 302.593 2.64995 1.6582 0
M  V30 3266 H 301.813 3.91228 -0.483106 0
M  V30 3267 H 303.101 5.08558 -0.157004 0
M  V30 3268 H 302.499 4.7895 3.01037 0
M  V30 3269 H 301.056 5.71339 3.13712 0
M  V30 3270 N 304.489 0.459591 1.5075 0
M  V30 3271 C 305.399 -0.34613 2.32033 0
M  V30 3272 C 306.415 -1.00686 1.41909 0
M  V30 3273 O 307.591 -0.997361 1.7497 0
M  V30 3274 C 304.656 -1.42029 3.16273 0
M  V30 3275 C 303.717 -0.777362 4.22203 0
M  V30 3276 C 302.95 -1.80034 5.02418 0
M  V30 3277 O 303.173 -3.02544 4.83553 0
M  V30 3278 O 302.107 -1.37853 5.85901 0
M  V30 3279 H 305.933 0.318054 3.0203 0
M  V30 3280 H 303.518 0.221663 1.47746 0
M  V30 3281 H 305.4 -2.04275 3.68578 0
M  V30 3282 H 304.075 -2.06815 2.49016 0
M  V30 3283 H 302.982 -0.116256 3.73919 0
M  V30 3284 H 304.315 -0.172634 4.91897 0
M  V30 3285 N 305.967 -1.56429 0.191757 0
M  V30 3286 C 306.877 -2.22541 -0.742481 0
M  V30 3287 C 307.893 -1.22342 -1.23727 0
M  V30 3288 O 309.069 -1.55069 -1.28513 0
M  V30 3289 C 306.134 -2.8692 -1.94623 0
M  V30 3290 C 305.195 -4.02378 -1.49633 0
M  V30 3291 C 304.428 -4.63678 -2.6427 0
M  V30 3292 O 304.651 -4.23895 -3.81666 0
M  V30 3293 O 303.585 -5.53202 -2.37174 0
M  V30 3294 H 307.411 -3.02977 -0.209462 0
M  V30 3295 H 304.996 -1.49353 -0.0373832 0
M  V30 3296 H 306.878 -3.27663 -2.64982 0
M  V30 3297 H 305.553 -2.09466 -2.46791 0
M  V30 3298 H 304.46 -3.66265 -0.761636 0
M  V30 3299 H 305.793 -4.81487 -1.02134 0
M  V30 3300 N 307.445 0.0818655 -1.57387 0
M  V30 3301 C 308.67 0.799946 -1.91352 0
M  V30 3302 C 309.095 1.70833 -0.787258 0
M  V30 3303 O 308.453 1.79419 0.26048 0
M  V30 3304 C 308.501 1.57812 -3.24234 0
M  V30 3305 O 307.605 2.68806 -3.12757 0
M  V30 3306 H 306.946 0.21891 -0.626877 0
M  V30 3307 H 309.476 0.0531256 -2.04531 0
M  V30 3308 H 309.486 1.95952 -3.57864 0
M  V30 3309 H 308.161 0.911548 -4.05788 0
M  V30 3310 H 306.738 2.33597 -2.90666 0
M  V30 3311 N 308.923 1.53595 0.353017 0
M  V30 3312 C 310.163 1.72094 1.10286 0
M  V30 3313 C 310.527 0.469217 1.86178 0
M  V30 3314 O 311.728 0.531083 2.63501 0
M  V30 3315 C 309.999 2.94386 2.02661 0
M  V30 3316 S 311.558 3.33651 2.84996 0
M  V30 3317 H 308.376 0.605433 0.372789 0
M  V30 3318 H 310.978 1.91722 0.38248 0
M  V30 3319 H 309.682 3.83669 1.45691 0
M  V30 3320 H 309.213 2.77197 2.79152 0
M  V30 3321 H 311.228 2.86645 4.0503 0
M  V30 3322 N 310.401 -0.613514 1.45168 0
M  V30 3323 C 311.334 -1.73809 1.47871 0
M  V30 3324 C 312.312 -1.59097 0.33568 0
M  V30 3325 O 313.496 -1.8074 0.535299 0
M  V30 3326 C 310.623 -3.11574 1.32813 0
M  V30 3327 C 309.669 -3.4489 2.50905 0
M  V30 3328 S 310.502 -3.40393 4.13392 0
M  V30 3329 C 311.658 -4.80749 4.00789 0
M  V30 3330 H 311.891 -1.71252 2.43023 0
M  V30 3331 H 309.424 -0.789658 1.32679 0
M  V30 3332 H 311.382 -3.91065 1.24812 0
M  V30 3333 H 310.043 -3.11652 0.391418 0
M  V30 3334 H 309.236 -4.45183 2.36279 0
M  V30 3335 H 308.838 -2.72901 2.55736 0
M  V30 3336 H 311.13 -5.7041 3.65567 0
M  V30 3337 H 312.073 -5.00431 5.00974 0
M  V30 3338 H 312.481 -4.56151 3.32545 0
M  V30 3339 N 311.879 -1.3236 -0.855495 0
M  V30 3340 C 313.109 -1.25688 -1.6397 0
M  V30 3341 C 313.517 0.177592 -1.88365 0
M  V30 3342 O 312.86 1.12485 -1.45234 0
M  V30 3343 C 312.922 -1.94602 -3.02275 0
M  V30 3344 C 312.586 -3.43937 -3.00926 0
M  V30 3345 C 313.583 -4.39435 -2.77835 0
M  V30 3346 C 311.268 -3.85858 -3.21588 0
M  V30 3347 C 313.262 -5.74829 -2.75409 0
M  V30 3348 C 310.949 -5.21361 -3.18789 0
M  V30 3349 C 311.947 -6.15658 -2.95727 0
M  V30 3350 O 311.635 -7.48681 -2.928 0
M  V30 3351 H 311.367 -0.434972 -0.51747 0
M  V30 3352 H 313.921 -1.75023 -1.075 0
M  V30 3353 H 312.151 -1.39836 -3.60531 0
M  V30 3354 H 313.84 -1.81651 -3.62985 0
M  V30 3355 H 314.606 -4.08374 -2.6164 0
M  V30 3356 H 310.485 -3.12883 -3.38564 0
M  V30 3357 H 314.029 -6.48404 -2.57328 0
M  V30 3358 H 309.926 -5.52052 -3.34528 0
M  V30 3359 H 310.694 -7.5803 -3.0876 0
M  V30 3360 N 313.357 1.07166 -1.15556 0
M  V30 3361 C 314.305 2.16517 -0.8499 0
M  V30 3362 C 315.299 1.68468 0.177454 0
M  V30 3363 O 316.505 1.79971 0.0323026 0
M  V30 3364 H 312.88 0.706652 -0.25719 0
M  V30 3365 H 314.851 2.39514 -1.77976 0
M  V30 3366 C 313.6 3.45855 -0.357682 0
M  V30 3367 H 312.923 3.83214 -1.13961 0
M  V30 3368 H 314.363 4.23607 -0.182489 0
M  V30 3369 C 312.822 3.24062 0.921152 0
M  V30 3370 O 313.352 3.48813 1.9923 0
M  V30 3371 N 311.558 2.77539 0.86141 0
M  V30 3372 H 311.105 2.57598 -0.0104408 0
M  V30 3373 H 311.063 2.63337 1.71758 0
M  V30 3374 N 314.835 0.952656 1.25548 0
M  V30 3375 C 316.246 0.647392 1.75116 0
M  V30 3376 C 316.597 -0.837274 1.77438 0
M  V30 3377 O 315.722 -1.65525 1.39393 0
M  V30 3378 C 316.317 1.16845 3.18014 0
M  V30 3379 C 314.876 0.913382 3.6515 0
M  V30 3380 C 314.023 1.31265 2.44264 0
M  V30 3381 H 316.974 1.12968 1.11462 0
M  V30 3382 H 316.995 0.527606 3.76824 0
M  V30 3383 H 316.507 2.24902 3.16292 0
M  V30 3384 H 314.608 -0.152316 3.72289 0
M  V30 3385 H 314.721 1.54845 4.53387 0
M  V30 3386 H 313.085 0.731028 2.43984 0
M  V30 3387 H 313.868 2.40239 2.45234 0
M  V30 3388 N 316.313 -1.40141 0.720998 0
M  V30 3389 C 317.541 -2.05096 0.272656 0
M  V30 3390 C 317.956 -1.54334 -1.0875 0
M  V30 3391 O 317.313 -0.702211 -1.6845 0
M  V30 3392 C 317.364 -3.60636 0.249835 0
M  V30 3393 O 317.085 -4.09526 1.55629 0
M  V30 3394 C 318.586 -4.42772 -0.216396 0
M  V30 3395 H 315.806 -0.659897 0.121558 0
M  V30 3396 H 318.35 -1.79449 0.980723 0
M  V30 3397 H 316.505 -3.85232 -0.409237 0
M  V30 3398 H 316.919 -5.03758 1.4604 0
M  V30 3399 H 318.393 -5.51702 -0.181212 0
M  V30 3400 H 318.87 -4.20756 -1.25941 0
M  V30 3401 H 319.476 -4.23294 0.412596 0
M  V30 3402 N 317.792 -0.46758 -1.50504 0
M  V30 3403 C 319.04 0.0884469 -2.01906 0
M  V30 3404 C 319.361 1.40532 -1.35188 0
M  V30 3405 O 318.631 1.89515 -0.496079 0
M  V30 3406 H 317.211 0.0356765 -0.746148 0
M  V30 3407 H 319.873 -0.6172 -1.84869 0
M  V30 3408 H 318.969 0.2425 -3.11156 0
M  V30 3409 N 319.27 1.56325 -0.20005 0
M  V30 3410 C 320.217 2.1932 0.718833 0
M  V30 3411 C 321.187 1.14198 1.20615 0
M  V30 3412 O 322.372 1.42469 1.26914 0
M  V30 3413 C 319.512 2.86041 1.93066 0
M  V30 3414 C 318.625 4.05702 1.48425 0
M  V30 3415 C 317.76 4.60266 2.65196 0
M  V30 3416 C 316.799 5.72273 2.17185 0
M  V30 3417 N 315.936 6.21221 3.27152 0
M  V30 3418 H 320.776 2.97486 0.17489 0
M  V30 3419 H 318.313 1.46911 0.0745794 0
M  V30 3420 H 320.271 3.22897 2.64184 0
M  V30 3421 H 318.901 2.1043 2.44783 0
M  V30 3422 H 317.953 3.74475 0.668755 0
M  V30 3423 H 319.265 4.86699 1.09204 0
M  V30 3424 H 318.419 4.99453 3.4443 0
M  V30 3425 H 317.158 3.78386 3.07693 0
M  V30 3426 H 316.163 5.3261 1.36407 0
M  V30 3427 H 317.388 6.55974 1.75713 0
M  V30 3428 H 315.334 5.42263 3.69171 0
M  V30 3429 H 315.251 6.97284 2.92116 0
M  V30 3430 H 316.519 6.65063 4.06585 0
M  V30 3431 N 320.748 -0.0735177 1.57428 0
M  V30 3432 C 321.711 -1.07192 2.02589 0
M  V30 3433 C 322.711 -1.31695 0.922661 0
M  V30 3434 O 323.901 -1.27445 1.18758 0
M  V30 3435 C 321.033 -2.41599 2.40506 0
M  V30 3436 H 322.226 -0.682727 2.92025 0
M  V30 3437 H 319.779 -0.319193 1.53006 0
M  V30 3438 H 320.514 -2.85354 1.5409 0
M  V30 3439 H 320.299 -2.25156 3.21009 0
M  V30 3440 H 321.789 -3.13367 2.76027 0
M  V30 3441 N 322.226 -1.5378 -0.344866 0
M  V30 3442 C 323.189 -1.80981 -1.40637 0
M  V30 3443 C 324.189 -0.680816 -1.45676 0
M  V30 3444 O 325.379 -0.949095 -1.46075 0
M  V30 3445 C 322.511 -1.95063 -2.79577 0
M  V30 3446 H 323.704 -2.75803 -1.17783 0
M  V30 3447 H 321.257 -1.45173 -0.579181 0
M  V30 3448 H 321.992 -1.02379 -3.07716 0
M  V30 3449 H 321.777 -2.77198 -2.77315 0
M  V30 3450 H 323.267 -2.17629 -3.56409 0
M  V30 3451 N 323.704 0.605807 -1.45491 0
M  V30 3452 C 324.651 1.7164 -1.54299 0
M  V30 3453 C 325.621 1.61486 -0.388761 0
M  V30 3454 O 326.806 1.81039 -0.602445 0
M  V30 3455 C 323.946 3.09953 -1.51734 0
M  V30 3456 C 323.059 3.309 -2.77721 0
M  V30 3457 C 322.194 4.59329 -2.66816 0
M  V30 3458 C 321.233 4.7354 -3.87848 0
M  V30 3459 N 320.37 5.9327 -3.75467 0
M  V30 3460 H 325.21 1.63449 -2.49176 0
M  V30 3461 H 322.747 0.796957 -1.23641 0
M  V30 3462 H 324.705 3.89977 -1.48235 0
M  V30 3463 H 323.335 3.17098 -0.604068 0
M  V30 3464 H 322.387 2.44639 -2.913 0
M  V30 3465 H 323.699 3.37274 -3.67488 0
M  V30 3466 H 322.853 5.4755 -2.61292 0
M  V30 3467 H 321.592 4.55355 -1.74651 0
M  V30 3468 H 320.597 3.83741 -3.93729 0
M  V30 3469 H 321.822 4.79309 -4.81082 0
M  V30 3470 H 319.768 5.90338 -2.86072 0
M  V30 3471 H 319.685 6.00811 -4.5887 0
M  V30 3472 H 320.953 6.83984 -3.73879 0
M  V30 3473 N 325.182 1.32811 0.848464 0
M  V30 3474 C 326.422 1.25046 1.61687 0
M  V30 3475 C 326.786 -0.183464 1.91121 0
M  V30 3476 O 327.987 -0.384937 2.66029 0
M  V30 3477 C 326.258 2.09201 2.89775 0
M  V30 3478 S 327.817 2.18526 3.80515 0
M  V30 3479 H 324.635 0.445023 0.554505 0
M  V30 3480 H 327.237 1.67733 1.00429 0
M  V30 3481 H 325.941 3.12433 2.66108 0
M  V30 3482 H 325.472 1.67315 3.56047 0
M  V30 3483 H 327.487 1.3393 4.77784 0
M  V30 3484 N 326.66 -1.06551 1.16123 0
M  V30 3485 C 328.076 -1.3142 0.905585 0
M  V30 3486 C 328.276 -1.96571 -0.442964 0
M  V30 3487 O 327.332 -2.23068 -1.18308 0
M  V30 3488 C 328.645 -2.19741 2.05267 0
M  V30 3489 C 330.193 -2.33165 2.08813 0
M  V30 3490 C 330.668 -3.24838 3.22868 0
M  V30 3491 N 332.159 -3.32421 3.22568 0
M  V30 3492 C 332.894 -4.0344 4.0746 0
M  V30 3493 N 332.39 -4.77003 5.02434 0
M  V30 3494 N 334.183 -3.99464 3.95456 0
M  V30 3495 H 326.334 -0.626548 2.02949 0
M  V30 3496 H 328.597 -0.338777 0.8854 0
M  V30 3497 H 328.303 -1.79142 3.02657 0
M  V30 3498 H 328.177 -3.20313 1.99198 0
M  V30 3499 H 330.564 -2.73013 1.12018 0
M  V30 3500 H 330.645 -1.3227 2.18948 0
M  V30 3501 H 330.289 -2.85708 4.19921 0
M  V30 3502 H 330.219 -4.25707 3.0997 0
M  V30 3503 H 332.71 -2.79994 2.53795 0
M  V30 3504 H 333.023 -5.28712 5.63634 0
M  V30 3505 H 331.368 -4.75992 5.06415 0
M  V30 3506 H 334.559 -3.4111 3.20564 0
M  V30 3507 H 334.732 -4.54544 4.61837 0
M  V30 3508 N 328.138 -0.959301 -1.25041 0
M  V30 3509 C 329.386 -0.615393 -1.92503 0
M  V30 3510 C 329.707 0.850969 -1.75452 0
M  V30 3511 O 328.977 1.60658 -1.12098 0
M  V30 3512 H 327.557 -0.224613 -0.712431 0
M  V30 3513 H 330.219 -1.21855 -1.5211 0
M  V30 3514 H 329.315 -0.848738 -3.00338 0
M  V30 3515 N 329.616 1.39756 -0.72842 0
M  V30 3516 C 330.846 2.04651 -0.283117 0
M  V30 3517 C 331.254 1.5502 1.08469 0
M  V30 3518 O 330.597 0.707343 1.69536 0
M  V30 3519 C 330.659 3.58947 -0.199309 0
M  V30 3520 C 330.323 4.31525 -1.5045 0
M  V30 3521 C 331.32 4.5861 -2.44894 0
M  V30 3522 C 329.005 4.70195 -1.76698 0
M  V30 3523 C 330.999 5.23366 -3.63822 0
M  V30 3524 C 328.686 5.3468 -2.95906 0
M  V30 3525 C 329.684 5.61198 -3.89289 0
M  V30 3526 O 329.372 6.24347 -5.06404 0
M  V30 3527 H 329.104 0.664777 -0.122666 0
M  V30 3528 H 331.658 1.79913 -0.990987 0
M  V30 3529 H 329.888 3.82556 0.56461 0
M  V30 3530 H 331.577 4.0534 0.213125 0
M  V30 3531 H 332.343 4.29187 -2.25883 0
M  V30 3532 H 328.222 4.48916 -1.04859 0
M  V30 3533 H 331.766 5.4398 -4.36728 0
M  V30 3534 H 327.663 5.63524 -3.14819 0
M  V30 3535 H 328.431 6.42842 -5.06652 0
M  V30 3536 N 331.094 0.475555 1.50254 0
M  V30 3537 C 332.51 0.12997 1.5907 0
M  V30 3538 C 332.71 -1.36385 1.48328 0
M  V30 3539 O 331.766 -2.13754 1.34407 0
M  V30 3540 C 333.079 0.684139 2.92814 0
M  V30 3541 C 334.627 0.647965 3.0622 0
M  V30 3542 C 335.102 1.17975 4.42545 0
M  V30 3543 N 336.593 1.13936 4.48969 0
M  V30 3544 C 337.328 1.52129 5.52851 0
M  V30 3545 N 336.824 1.97793 6.63965 0
M  V30 3546 N 338.617 1.43704 5.4342 0
M  V30 3547 H 330.768 1.44706 1.55479 0
M  V30 3548 H 333.031 0.598691 0.735033 0
M  V30 3549 H 332.737 1.73079 3.06164 0
M  V30 3550 H 332.611 0.130204 3.76975 0
M  V30 3551 H 334.998 -0.38979 2.92514 0
M  V30 3552 H 335.079 1.23876 2.23805 0
M  V30 3553 H 334.723 2.21616 4.57 0
M  V30 3554 H 334.653 0.565138 5.23559 0
M  V30 3555 H 337.144 0.804488 3.69238 0
M  V30 3556 H 337.457 2.25072 7.39299 0
M  V30 3557 H 335.802 2.01749 6.65073 0
M  V30 3558 H 338.993 1.07867 4.55502 0
M  V30 3559 H 339.166 1.73794 6.24259 0
M  V30 3560 N 332.573 -1.56217 0.208337 0
M  V30 3561 C 333.483 -2.23316 -0.718836 0
M  V30 3562 C 334.499 -1.23648 -1.22422 0
M  V30 3563 O 335.675 -1.56423 -1.26861 0
M  V30 3564 C 332.74 -2.88968 -1.91568 0
M  V30 3565 C 331.801 -4.03943 -1.45357 0
M  V30 3566 C 331.034 -4.66455 -2.59337 0
M  V30 3567 O 331.257 -4.27919 -3.77149 0
M  V30 3568 O 330.191 -5.55686 -2.31293 0
M  V30 3569 H 334.017 -3.03182 -0.177315 0
M  V30 3570 H 331.602 -1.49384 -0.0215402 0
M  V30 3571 H 333.484 -3.30455 -2.61491 0
M  V30 3572 H 332.159 -2.12071 -2.44556 0
M  V30 3573 H 331.066 -3.67052 -0.722746 0
M  V30 3574 H 332.399 -4.82543 -0.970219 0
M  V30 3575 N 334.051 0.0651679 -1.57465 0
M  V30 3576 C 335.3 0.761916 -1.86756 0
M  V30 3577 C 335.613 1.78406 -0.801925 0
M  V30 3578 O 336.819 2.53084 -0.982885 0
M  V30 3579 C 335.275 1.40603 -3.31299 0
M  V30 3580 C 334.883 0.422115 -4.46007 0
M  V30 3581 C 336.627 2.08476 -3.69781 0
M  V30 3582 C 334.534 1.07252 -5.81593 0
M  V30 3583 H 333.464 0.288308 -0.696702 0
M  V30 3584 H 336.115 0.015344 -1.83494 0
M  V30 3585 H 334.497 2.20109 -3.29193 0
M  V30 3586 H 335.671 -0.343613 -4.59517 0
M  V30 3587 H 333.986 -0.152527 -4.16121 0
M  V30 3588 H 336.583 2.57925 -4.68379 0
M  V30 3589 H 336.926 2.88712 -2.99919 0
M  V30 3590 H 337.459 1.35792 -3.73905 0
M  V30 3591 H 334.198 0.310342 -6.54765 0
M  V30 3592 H 333.718 1.80895 -5.71872 0
M  V30 3593 H 335.397 1.59043 -6.27148 0
M  V30 3594 N 335.529 1.53961 0.336706 0
M  V30 3595 C 336.94 1.62914 0.911925 0
M  V30 3596 C 337.291 0.514795 1.89326 0
M  V30 3597 O 336.416 -0.354395 2.13478 0
M  V30 3598 C 337.011 2.95304 1.66076 0
M  V30 3599 C 335.57 3.06496 2.18489 0
M  V30 3600 C 334.717 2.58403 1.00613 0
M  V30 3601 H 337.668 1.58285 0.114649 0
M  V30 3602 H 337.689 2.84727 2.5241 0
M  V30 3603 H 337.201 3.76387 0.946276 0
M  V30 3604 H 335.302 2.3006 2.93092 0
M  V30 3605 H 335.415 4.1208 2.44391 0
M  V30 3606 H 333.779 2.13977 1.38152 0
M  V30 3607 H 334.562 3.41932 0.306179 0
M  V30 3608 N 337.007 -0.598083 1.45811 0
M  V30 3609 C 337.917 -1.73632 1.57763 0
M  V30 3610 C 338.933 -1.67763 0.461676 0
M  V30 3611 O 340.109 -1.87949 0.723685 0
M  V30 3612 C 337.174 -3.10114 1.55018 0
M  V30 3613 C 336.235 -3.27364 2.77726 0
M  V30 3614 C 335.468 -4.57334 2.75102 0
M  V30 3615 O 335.691 -5.40258 1.8297 0
M  V30 3616 O 334.625 -4.77502 3.66437 0
M  V30 3617 H 338.451 -1.66498 2.53992 0
M  V30 3618 H 336.036 -0.763308 1.28429 0
M  V30 3619 H 337.918 -3.9141 1.56129 0
M  V30 3620 H 336.593 -3.17718 0.619431 0
M  V30 3621 H 335.5 -2.45619 2.82174 0
M  V30 3622 H 336.833 -3.24641 3.69958 0
M  V30 3623 N 338.485 -1.33259 -0.841409 0
M  V30 3624 C 339.733 -1.24326 -1.59334 0
M  V30 3625 C 340.054 0.191564 -1.94057 0
M  V30 3626 O 339.324 1.11967 -1.60749 0
M  V30 3627 H 337.904 -0.457174 -0.590763 0
M  V30 3628 H 340.566 -1.66947 -1.00571 0
M  V30 3629 H 339.662 -1.8352 -2.52442 0
M  V30 3630 N 339.963 1.05934 -1.16686 0
M  V30 3631 C 340.911 2.15603 -0.872817 0
M  V30 3632 C 341.905 1.68647 0.159576 0
M  V30 3633 O 343.111 1.79995 0.0132125 0
M  V30 3634 H 339.486 0.703885 -0.264671 0
M  V30 3635 H 341.457 2.37613 -1.80507 0
M  V30 3636 C 340.206 3.45457 -0.394344 0
M  V30 3637 H 339.529 3.81984 -1.18019 0
M  V30 3638 H 340.969 4.2339 -0.227408 0
M  V30 3639 C 339.428 3.25021 0.88673 0
M  V30 3640 O 339.958 3.50906 1.95519 0
M  V30 3641 N 338.164 2.78437 0.831925 0
M  V30 3642 H 337.711 2.57572 -0.0377619 0
M  V30 3643 H 337.669 2.65144 1.68956 0
M  V30 3644 N 341.441 0.965919 1.2453 0
M  V30 3645 C 342.351 0.502154 2.29163 0
M  V30 3646 C 343.367 -0.436017 1.68448 0
M  V30 3647 O 344.543 -0.309497 1.99008 0
M  V30 3648 C 341.608 -0.201956 3.46111 0
M  V30 3649 C 340.669 0.775821 4.22232 0
M  V30 3650 C 339.902 0.105217 5.33596 0
M  V30 3651 O 340.125 -1.10683 5.59558 0
M  V30 3652 O 339.059 0.796475 5.96607 0
M  V30 3653 H 342.885 1.37194 2.70946 0
M  V30 3654 H 340.47 0.732875 1.30189 0
M  V30 3655 H 342.352 -0.597564 4.17142 0
M  V30 3656 H 341.027 -1.04673 3.06309 0
M  V30 3657 H 339.934 1.22185 3.53584 0
M  V30 3658 H 341.267 1.58896 4.65846 0
M  V30 3659 N 342.919 -1.39368 0.735821 0
M  V30 3660 C 343.866 -2.30599 0.0963825 0
M  V30 3661 C 344.836 -1.49257 -0.728794 0
M  V30 3662 O 346.021 -1.77941 -0.688588 0
M  V30 3663 C 343.161 -3.35596 -0.804305 0
M  V30 3664 C 342.274 -4.31987 0.0335761 0
M  V30 3665 C 341.409 -5.24053 -0.868461 0
M  V30 3666 C 340.448 -6.12095 -0.0258776 0
M  V30 3667 N 339.585 -6.96514 -0.883893 0
M  V30 3668 H 344.425 -2.8471 0.880002 0
M  V30 3669 H 341.962 -1.40188 0.445619 0
M  V30 3670 H 343.92 -3.95062 -1.34096 0
M  V30 3671 H 342.55 -2.82938 -1.55389 0
M  V30 3672 H 341.602 -3.74133 0.68766 0
M  V30 3673 H 342.914 -4.94074 0.685036 0
M  V30 3674 H 342.068 -5.88549 -1.47293 0
M  V30 3675 H 340.807 -4.62289 -1.5537 0
M  V30 3676 H 339.812 -5.4661 0.591386 0
M  V30 3677 H 341.037 -6.75923 0.656156 0
M  V30 3678 H 338.983 -6.37318 -1.55441 0
M  V30 3679 H 338.9 -7.55448 -0.288931 0
M  V30 3680 H 340.168 -7.65439 -1.4739 0
M  V30 3681 N 344.397 -0.483516 -1.5 0
M  V30 3682 C 345.36 0.292965 -2.2732 0
M  V30 3683 C 346.36 0.909499 -1.32608 0
M  V30 3684 O 347.55 0.776745 -1.55924 0
M  V30 3685 C 344.682 1.41854 -3.09984 0
M  V30 3686 H 345.875 -0.385289 -2.97415 0
M  V30 3687 H 343.428 -0.237942 -1.54478 0
M  V30 3688 H 344.163 2.13148 -2.44414 0
M  V30 3689 H 343.948 0.982114 -3.79601 0
M  V30 3690 H 345.438 1.96597 -3.68429 0
M  V30 3691 N 345.875 1.56104 -0.216619 0
M  V30 3692 C 346.805 2.23063 0.690296 0
M  V30 3693 C 347.786 1.20072 1.20485 0
M  V30 3694 O 348.971 1.48643 1.24976 0
M  V30 3695 C 346.101 2.90672 1.90072 0
M  V30 3696 C 345.055 4.00092 1.5202 0
M  V30 3697 C 344.381 4.54972 2.80899 0
M  V30 3698 C 345.681 5.17398 0.71391 0
M  V30 3699 H 347.375 2.99109 0.132038 0
M  V30 3700 H 344.921 1.43866 0.0620664 0
M  V30 3701 H 346.874 3.36204 2.54057 0
M  V30 3702 H 345.598 2.12066 2.48386 0
M  V30 3703 H 344.257 3.55283 0.903839 0
M  V30 3704 H 343.905 3.73102 3.37348 0
M  V30 3705 H 343.605 5.28817 2.56176 0
M  V30 3706 H 345.129 5.0322 3.45836 0
M  V30 3707 H 346.543 5.59342 1.25735 0
M  V30 3708 H 344.94 5.97444 0.563951 0
M  V30 3709 H 346.01 4.84088 -0.280527 0
M  V30 3710 N 347.353 -0.0568162 1.57498 0
M  V30 3711 C 348.3 -1.06591 2.04712 0
M  V30 3712 C 349.27 -1.3758 0.930644 0
M  V30 3713 O 350.455 -1.48392 1.19935 0
M  V30 3714 C 347.595 -2.3701 2.50839 0
M  V30 3715 C 346.708 -2.12421 3.76167 0
M  V30 3716 C 345.843 -3.36511 4.11015 0
M  V30 3717 C 344.882 -3.07353 5.2934 0
M  V30 3718 N 344.019 -4.23816 5.59754 0
M  V30 3719 H 348.859 -0.65631 2.90683 0
M  V30 3720 H 346.396 -0.312481 1.43743 0
M  V30 3721 H 348.354 -3.13175 2.7564 0
M  V30 3722 H 346.984 -2.75744 1.67825 0
M  V30 3723 H 346.036 -1.2688 3.58616 0
M  V30 3724 H 347.348 -1.86894 4.62463 0
M  V30 3725 H 346.502 -4.21062 4.36797 0
M  V30 3726 H 345.241 -3.65128 3.23315 0
M  V30 3727 H 344.246 -2.212 5.03339 0
M  V30 3728 H 345.471 -2.80043 6.1867 0
M  V30 3729 H 343.417 -4.52436 4.75014 0
M  V30 3730 H 343.334 -4.01614 6.40501 0
M  V30 3731 H 344.602 -5.0932 5.90096 0
M  V30 3732 N 348.832 -1.54138 -0.328536 0
M  V30 3733 C 350.248 -1.44736 -0.672574 0
M  V30 3734 C 350.448 -0.616217 -1.91846 0
M  V30 3735 O 349.504 -0.113067 -2.52247 0
M  V30 3736 C 350.817 -2.884 -0.851217 0
M  V30 3737 C 352.365 -2.98271 -0.948877 0
M  V30 3738 C 352.84 -4.43074 -1.15973 0
M  V30 3739 N 354.331 -4.46665 -1.22658 0
M  V30 3740 C 355.066 -5.55857 -1.40751 0
M  V30 3741 N 354.562 -6.75026 -1.5592 0
M  V30 3742 N 356.355 -5.43495 -1.4342 0
M  V30 3743 H 348.506 -2.06661 0.490421 0
M  V30 3744 H 350.769 -0.934812 0.157579 0
M  V30 3745 H 350.475 -3.51699 -0.00704236 0
M  V30 3746 H 350.349 -3.34225 -1.74853 0
M  V30 3747 H 352.736 -2.35102 -1.78356 0
M  V30 3748 H 352.817 -2.55785 -0.0281435 0
M  V30 3749 H 352.461 -5.06827 -0.329915 0
M  V30 3750 H 352.391 -4.83165 -2.09426 0
M  V30 3751 H 354.882 -3.60797 -1.124 0
M  V30 3752 H 355.195 -7.54004 -1.69404 0
M  V30 3753 H 353.54 -6.77944 -1.53027 0
M  V30 3754 H 356.731 -4.49349 -1.31162 0
M  V30 3755 H 356.904 -6.28649 -1.57178 0
M  V30 3756 N 350.31 0.590341 -1.46126 0
M  V30 3757 C 351.273 1.68194 -1.55703 0
M  V30 3758 C 352.273 1.54808 -0.434868 0
M  V30 3759 O 353.463 1.59564 -0.698928 0
M  V30 3760 C 350.595 3.07575 -1.47005 0
M  V30 3761 H 351.788 1.61064 -2.52979 0
M  V30 3762 H 349.341 0.807541 -1.33823 0
M  V30 3763 H 350.076 3.20268 -0.509785 0
M  V30 3764 H 349.861 3.187 -2.28414 0
M  V30 3765 H 351.351 3.87055 -1.56776 0
M  V30 3766 N 351.788 1.33704 0.83433 0
M  V30 3767 C 353.034 1.25603 1.59222 0
M  V30 3768 C 353.367 -0.176659 1.93395 0
M  V30 3769 O 352.642 -1.11915 1.59076 0
M  V30 3770 C 352.925 2.13576 2.89926 0
M  V30 3771 C 352.778 3.65326 2.62406 0
M  V30 3772 C 354.097 2.01238 3.91397 0
M  V30 3773 H 351.216 0.457613 0.577719 0
M  V30 3774 H 353.858 1.63848 0.961972 0
M  V30 3775 H 352.008 1.8109 3.43713 0
M  V30 3776 H 353.68 4.08124 2.15017 0
M  V30 3777 H 351.923 3.8698 1.96033 0
M  V30 3778 H 352.594 4.22232 3.55562 0
M  V30 3779 H 355.07 2.29738 3.46929 0
M  V30 3780 H 353.946 2.65036 4.80673 0
M  V30 3781 H 354.207 0.985951 4.30966 0
M  V30 3782 N 353.266 -1.05314 1.17247 0
M  V30 3783 C 354.229 -2.112 0.890357 0
M  V30 3784 C 355.229 -1.60359 -0.118943 0
M  V30 3785 O 356.419 -1.73833 0.113086 0
M  V30 3786 C 353.551 -3.39266 0.333422 0
M  V30 3787 H 354.744 -2.37659 1.82916 0
M  V30 3788 H 352.297 -1.21538 0.982758 0
M  V30 3789 H 353.032 -3.18462 -0.612587 0
M  V30 3790 H 352.817 -3.77477 1.06082 0
M  V30 3791 H 354.307 -4.17315 0.154322 0
M  V30 3792 N 354.744 -0.972509 -1.24016 0
M  V30 3793 C 356.16 -0.679827 -1.44397 0
M  V30 3794 C 356.36 0.756716 -1.86751 0
M  V30 3795 O 355.416 1.53007 -2.00861 0
M  V30 3796 C 356.729 -1.66803 -2.50195 0
M  V30 3797 C 358.277 -1.68119 -2.64017 0
M  V30 3798 C 358.752 -2.65748 -3.73017 0
M  V30 3799 N 360.243 -2.64219 -3.8045 0
M  V30 3800 C 360.978 -3.36433 -4.64328 0
M  V30 3801 N 360.474 -4.1818 -5.52356 0
M  V30 3802 N 362.267 -3.25235 -4.58453 0
M  V30 3803 H 354.418 -1.90059 -0.948228 0
M  V30 3804 H 356.681 -0.818527 -0.478245 0
M  V30 3805 H 356.387 -2.69498 -2.25973 0
M  V30 3806 H 356.261 -1.4446 -3.48441 0
M  V30 3807 H 358.648 -0.661319 -2.87594 0
M  V30 3808 H 358.729 -1.94525 -1.66113 0
M  V30 3809 H 358.373 -3.67872 -3.50189 0
M  V30 3810 H 358.303 -2.36619 -4.70446 0
M  V30 3811 H 360.794 -2.04887 -3.17537 0
M  V30 3812 H 361.107 -4.70157 -6.13329 0
M  V30 3813 H 359.452 -4.22273 -5.52006 0
M  V30 3814 H 362.643 -2.60829 -3.88698 0
M  V30 3815 H 362.816 -3.81776 -5.23594 0
M  V30 3816 N 356.222 1.38976 -0.743202 0
M  V30 3817 C 357.468 2.0064 -0.295189 0
M  V30 3818 C 357.801 1.5885 1.11716 0
M  V30 3819 O 357.076 0.821181 1.76315 0
M  V30 3820 C 357.359 3.578 -0.406318 0
M  V30 3821 C 357.212 4.09586 -1.85903 0
M  V30 3822 C 358.531 4.39616 0.206439 0
M  V30 3823 H 355.65 0.728935 -0.108733 0
M  V30 3824 H 358.292 1.65067 -0.940897 0
M  V30 3825 H 356.442 3.88235 0.143419 0
M  V30 3826 H 358.114 3.89837 -2.46627 0
M  V30 3827 H 356.357 3.6284 -2.3776 0
M  V30 3828 H 357.028 5.18708 -1.888 0
M  V30 3829 H 359.504 4.15273 -0.262283 0
M  V30 3830 H 358.38 5.48812 0.0983819 0
M  V30 3831 H 358.641 4.22754 1.2935 0
M  V30 3832 N 357.7 0.491464 1.49741 0
M  V30 3833 C 358.948 -0.0563141 2.02022 0
M  V30 3834 C 359.269 -1.38363 1.37407 0
M  V30 3835 O 358.539 -1.88702 0.526166 0
M  V30 3836 H 357.119 -0.0238014 0.746621 0
M  V30 3837 H 359.781 0.646533 1.83864 0
M  V30 3838 H 358.877 -0.192967 3.11503 0
M  V30 3839 N 359.178 -1.55987 0.224894 0
M  V30 3840 C 360.589 -1.84553 -0.282345 0
M  V30 3841 C 360.94 -1.14634 -1.59227 0
M  V30 3842 O 360.065 -0.417155 -2.12341 0
M  V30 3843 C 360.66 -3.348 -0.519062 0
M  V30 3844 C 359.219 -3.63671 -0.970604 0
M  V30 3845 C 358.366 -2.77277 -0.0355261 0
M  V30 3846 H 361.317 -1.52245 0.448006 0
M  V30 3847 H 361.338 -3.55187 -1.36463 0
M  V30 3848 H 360.85 -3.8566 0.43449 0
M  V30 3849 H 358.951 -3.1827 -1.9374 0
M  V30 3850 H 359.064 -4.71631 -0.842698 0
M  V30 3851 H 357.428 -2.48846 -0.542927 0
M  V30 3852 H 358.211 -3.30937 0.913003 0
M  V30 3853 N 360.656 0.0484629 -1.57525 0
M  V30 3854 C 361.902 0.744226 -1.88651 0
M  V30 3855 C 362.235 1.76029 -0.820212 0
M  V30 3856 O 361.51 1.93782 0.166985 0
M  V30 3857 C 361.793 1.43128 -3.30434 0
M  V30 3858 C 361.646 0.43005 -4.47739 0
M  V30 3859 C 362.965 2.37031 -3.70816 0
M  V30 3860 H 360.084 0.269089 -0.68612 0
M  V30 3861 H 362.726 0.00713532 -1.89999 0
M  V30 3862 H 360.876 2.05956 -3.29415 0
M  V30 3863 H 362.548 -0.194816 -4.60888 0
M  V30 3864 H 360.791 -0.252522 -4.33064 0
M  V30 3865 H 361.462 0.948874 -5.43783 0
M  V30 3866 H 363.938 1.84263 -3.73077 0
M  V30 3867 H 362.814 2.82094 -4.70865 0
M  V30 3868 H 363.075 3.22864 -3.02012 0
M  V30 3869 N 362.134 1.5431 0.320358 0
M  V30 3870 C 363.359 1.76954 1.08175 0
M  V30 3871 C 363.784 0.518193 1.80821 0
M  V30 3872 O 363.142 -0.530411 1.73368 0
M  V30 3873 C 363.19 2.96451 2.05303 0
M  V30 3874 O 362.294 2.68221 3.13259 0
M  V30 3875 H 361.635 0.586275 0.311733 0
M  V30 3876 H 364.165 2.01342 0.363676 0
M  V30 3877 H 364.175 3.23887 2.48116 0
M  V30 3878 H 362.85 3.87196 1.51829 0
M  V30 3879 H 361.427 2.51744 2.75099 0
M  V30 3880 N 363.613 -0.582584 1.46437 0
M  V30 3881 C 364.859 -1.34278 1.51978 0
M  V30 3882 C 365.192 -1.93446 0.170973 0
M  V30 3883 O 364.467 -1.76481 -0.817608 0
M  V30 3884 C 364.75 -2.47203 2.61845 0
M  V30 3885 C 364.603 -1.93069 4.06257 0
M  V30 3886 C 365.922 -3.49247 2.67795 0
M  V30 3887 H 363.041 -0.486876 0.553282 0
M  V30 3888 H 365.683 -0.654437 1.78374 0
M  V30 3889 H 363.833 -3.0592 2.39469 0
M  V30 3890 H 365.505 -1.38808 4.3992 0
M  V30 3891 H 363.748 -1.23898 4.1573 0
M  V30 3892 H 364.419 -2.74586 4.7886 0
M  V30 3893 H 366.895 -3.00411 2.8791 0
M  V30 3894 H 365.771 -4.25719 3.46489 0
M  V30 3895 H 366.032 -4.06482 1.73852 0
M  V30 3896 N 365.091 -1.34144 -0.827227 0
M  V30 3897 C 366.054 -1.25264 -1.91942 0
M  V30 3898 C 367.054 -0.168866 -1.59911 0
M  V30 3899 O 368.244 -0.421198 -1.69031 0
M  V30 3900 C 365.376 -0.932952 -3.27885 0
M  V30 3901 H 366.569 -2.22357 -2.0124 0
M  V30 3902 H 364.122 -1.1837 -1.0207 0
M  V30 3903 H 364.857 0.0349917 -3.24281 0
M  V30 3904 H 364.642 -1.71682 -3.52516 0
M  V30 3905 H 366.132 -0.895874 -4.07877 0
M  V30 3906 N 366.569 1.04691 -1.17803 0
M  V30 3907 C 367.818 1.77176 -0.963931 0
M  V30 3908 C 368.131 1.88888 0.508015 0
M  V30 3909 O 369.337 2.58164 0.840465 0
M  V30 3910 C 367.793 3.18518 -1.67555 0
M  V30 3911 C 367.401 3.14919 -3.18637 0
M  V30 3912 C 369.145 3.95424 -1.54402 0
M  V30 3913 C 367.052 4.51081 -3.82466 0
M  V30 3914 H 365.982 0.664116 -0.357023 0
M  V30 3915 H 368.633 1.17303 -1.4111 0
M  V30 3916 H 367.015 3.78748 -1.15613 0
M  V30 3917 H 368.189 2.64178 -3.77554 0
M  V30 3918 H 366.504 2.51512 -3.31859 0
M  V30 3919 H 369.101 4.96106 -1.99456 0
M  V30 3920 H 369.444 4.13343 -0.495329 0
M  V30 3921 H 369.977 3.41754 -2.0359 0
M  V30 3922 H 366.716 4.38368 -4.87354 0
M  V30 3923 H 366.236 5.01951 -3.28337 0
M  V30 3924 H 367.915 5.2001 -3.84965 0
M  V30 3925 N 368.047 0.979072 1.23499 0
M  V30 3926 C 369.324 0.563674 1.87302 0
M  V30 3927 C 369.704 -0.959199 1.88049 0
M  V30 3928 O 369.052 -1.83535 1.36114 0
M  V30 3929 C 369.262 1.16822 3.28867 0
M  V30 3930 C 370.61 1.26014 4.0547 0
M  V30 3931 O 371.634 1.12158 3.38082 0
M  V30 3932 O 370.493 1.48044 5.26066 0
M  V30 3933 H 367.587 0.189602 0.804972 0
M  V30 3934 H 370.133 1.07407 1.31384 0
M  V30 3935 H 368.905 2.21049 3.22883 0
M  V30 3936 H 368.528 0.642564 3.92373 0
M  V30 3937 N 369.525 -1.3858 0.750561 0
M  V30 3938 C 370.488 -2.28836 0.129152 0
M  V30 3939 C 371.488 -1.47045 -0.650714 0
M  V30 3940 O 372.678 -1.6753 -0.477428 0
M  V30 3941 C 369.81 -3.30751 -0.825622 0
M  V30 3942 H 371.003 -2.85294 0.924516 0
M  V30 3943 H 368.556 -1.47489 0.517376 0
M  V30 3944 H 369.291 -2.79378 -1.64677 0
M  V30 3945 H 369.076 -3.91177 -0.268852 0
M  V30 3946 H 370.566 -3.98249 -1.2565 0
M  V30 3947 N 371.003 -0.499398 -1.49478 0
M  V30 3948 C 372.228 0.044722 -2.07352 0
M  V30 3949 C 372.653 1.30207 -1.35749 0
M  V30 3950 O 372.011 1.76516 -0.413732 0
M  V30 3951 C 372.059 0.283013 -3.59488 0
M  V30 3952 O 371.163 1.35804 -3.89398 0
M  V30 3953 H 370.504 -0.0255147 -0.66351 0
M  V30 3954 H 373.034 -0.698561 -1.92305 0
M  V30 3955 H 373.044 0.515007 -4.04737 0
M  V30 3956 H 371.719 -0.635636 -4.11014 0
M  V30 3957 H 370.296 1.11113 -3.55961 0
M  V30 3958 N 372.481 1.55866 -0.233164 0
M  V30 3959 C 373.411 2.23783 0.666599 0
M  V30 3960 C 374.392 1.21343 1.19205 0
M  V30 3961 O 375.577 1.4996 1.23392 0
M  V30 3962 C 372.707 2.92671 1.86978 0
M  V30 3963 C 371.661 4.01682 1.47768 0
M  V30 3964 C 370.987 4.57926 2.76058 0
M  V30 3965 C 372.287 5.18126 0.658993 0
M  V30 3966 H 373.981 2.99232 0.100306 0
M  V30 3967 H 371.527 1.43924 0.046804 0
M  V30 3968 H 373.48 3.3888 2.50476 0
M  V30 3969 H 372.204 2.14688 2.46123 0
M  V30 3970 H 370.863 3.56222 0.866106 0
M  V30 3971 H 370.511 3.76659 3.33372 0
M  V30 3972 H 370.211 5.31505 2.50552 0
M  V30 3973 H 371.735 5.06859 3.40479 0
M  V30 3974 H 373.149 5.60644 1.19795 0
M  V30 3975 H 371.546 5.98009 0.500552 0
M  V30 3976 H 372.616 4.83763 -0.331856 0
M  V30 3977 N 373.959 -0.0401083 1.57549 0
M  V30 3978 C 375.187 -0.745196 1.93014 0
M  V30 3979 C 375.602 -1.6948 0.831984 0
M  V30 3980 O 374.959 -1.81482 -0.192463 0
M  V30 3981 C 375.01 -1.51176 3.28372 0
M  V30 3982 O 374.731 -0.600284 4.33968 0
M  V30 3983 C 376.232 -2.315 3.78051 0
M  V30 3984 H 373.452 -0.210088 0.637263 0
M  V30 3985 H 375.996 -0.000924689 2.045 0
M  V30 3986 H 374.151 -2.20801 3.18317 0
M  V30 3987 H 374.565 -1.13669 5.12035 0
M  V30 3988 H 376.039 -2.80697 4.75303 0
M  V30 3989 H 376.516 -3.12436 3.08675 0
M  V30 3990 H 377.122 -1.66971 3.91153 0
M  V30 3991 N 375.437 -1.54477 -0.31217 0
M  V30 3992 C 376.662 -1.77526 -1.07235 0
M  V30 3993 C 377.087 -0.527775 -1.80544 0
M  V30 3994 O 376.445 0.52121 -1.73646 0
M  V30 3995 C 376.493 -2.97535 -2.03728 0
M  V30 3996 O 375.597 -2.69878 -3.11833 0
M  V30 3997 H 374.938 -0.58792 -0.30862 0
M  V30 3998 H 377.468 -2.01532 -0.352993 0
M  V30 3999 H 377.478 -3.25198 -2.46395 0
M  V30 4000 H 376.153 -3.87996 -1.49774 0
M  V30 4001 H 374.73 -2.53199 -2.7376 0
M  V30 4002 N 376.915 0.57481 -1.46744 0
M  V30 4003 C 378.162 1.33272 -1.52462 0
M  V30 4004 C 378.49 1.93669 -0.179572 0
M  V30 4005 O 377.745 1.7743 0.825664 0
M  V30 4006 C 378.044 2.476 -2.57738 0
M  V30 4007 C 377.71 2.05146 -4.01529 0
M  V30 4008 C 376.372 1.93284 -4.40676 0
M  V30 4009 C 378.724 1.72506 -4.91824 0
M  V30 4010 C 376.052 1.47049 -5.67973 0
M  V30 4011 C 378.404 1.27748 -6.19567 0
M  V30 4012 C 377.068 1.14468 -6.57612 0
M  V30 4013 H 376.338 0.487678 -0.557899 0
M  V30 4014 H 378.985 0.646456 -1.80259 0
M  V30 4015 H 377.29 3.21708 -2.23632 0
M  V30 4016 H 378.987 3.05807 -2.5939 0
M  V30 4017 H 375.577 2.15316 -3.7059 0
M  V30 4018 H 379.761 1.80552 -4.62293 0
M  V30 4019 H 375.017 1.35417 -5.96215 0
M  V30 4020 H 379.191 1.01547 -6.88957 0
M  V30 4021 H 376.818 0.78419 -7.56145 0
M  V30 4022 N 378.394 1.34581 0.820102 0
M  V30 4023 C 379.326 1.22236 1.93884 0
M  V30 4024 C 380.339 0.148776 1.62119 0
M  V30 4025 O 381.528 0.400877 1.7394 0
M  V30 4026 C 378.628 0.856542 3.27897 0
M  V30 4027 C 377.801 2.02569 3.87666 0
M  V30 4028 C 376.86 1.63782 5.00062 0
M  V30 4029 O 375.886 2.35477 5.18208 0
M  V30 4030 N 377.088 0.553611 5.77854 0
M  V30 4031 H 379.853 2.18615 2.05006 0
M  V30 4032 H 377.414 1.27573 0.99683 0
M  V30 4033 H 379.406 0.578806 4.0054 0
M  V30 4034 H 377.976 -0.0171518 3.12595 0
M  V30 4035 H 377.196 2.468 3.07382 0
M  V30 4036 H 378.484 2.80752 4.24329 0
M  V30 4037 H 377.882 -0.0423528 5.65684 0
M  V30 4038 H 376.439 0.335614 6.50935 0
M  V30 4039 N 379.872 -1.04064 1.18357 0
M  V30 4040 C 381.119 -1.77265 0.978947 0
M  V30 4041 C 381.447 -1.88189 -0.491428 0
M  V30 4042 O 380.702 -1.38653 -1.38108 0
M  V30 4043 C 381.001 -3.20634 1.57888 0
M  V30 4044 C 380.667 -3.29743 3.07539 0
M  V30 4045 C 379.329 -3.31937 3.48384 0
M  V30 4046 C 381.681 -3.29841 4.03552 0
M  V30 4047 C 379.009 -3.3187 4.83818 0
M  V30 4048 C 381.361 -3.31313 5.38901 0
M  V30 4049 C 380.025 -3.31799 5.79194 0
M  V30 4050 H 379.295 -0.648659 0.358222 0
M  V30 4051 H 381.942 -1.22225 1.47422 0
M  V30 4052 H 380.247 -3.78675 1.00561 0
M  V30 4053 H 381.944 -3.75917 1.39598 0
M  V30 4054 H 378.534 -3.28757 2.74986 0
M  V30 4055 H 382.718 -3.27337 3.73047 0
M  V30 4056 H 377.974 -3.30562 5.14333 0
M  V30 4057 H 382.148 -3.30338 6.13066 0
M  V30 4058 H 379.775 -3.315 6.84114 0
M  V30 4059 N 381.35 -0.985608 -1.22978 0
M  V30 4060 C 382.58 -0.674603 -1.95276 0
M  V30 4061 C 382.988 0.763483 -1.73111 0
M  V30 4062 O 382.331 1.52601 -1.02268 0
M  V30 4063 C 382.393 -0.891597 -3.48268 0
M  V30 4064 C 382.057 -2.31275 -3.94158 0
M  V30 4065 C 383.054 -3.29179 -4.02415 0
M  V30 4066 C 380.739 -2.64524 -4.27004 0
M  V30 4067 C 382.733 -4.58407 -4.42879 0
M  V30 4068 C 380.42 -3.93974 -4.67149 0
M  V30 4069 C 381.418 -4.90727 -4.75053 0
M  V30 4070 O 381.106 -6.17865 -5.14294 0
M  V30 4071 H 380.838 -0.249251 -0.628371 0
M  V30 4072 H 383.392 -1.32106 -1.5728 0
M  V30 4073 H 381.622 -0.187962 -3.86243 0
M  V30 4074 H 383.311 -0.576957 -4.01779 0
M  V30 4075 H 384.077 -3.04823 -3.77237 0
M  V30 4076 H 379.956 -1.89923 -4.2006 0
M  V30 4077 H 383.5 -5.33926 -4.48964 0
M  V30 4078 H 379.397 -4.18122 -4.91777 0
M  V30 4079 H 380.165 -6.21694 -5.32389 0
M  V30 4080 N 382.828 1.3818 -0.7579 0
M  V30 4081 C 384.053 2.04827 -0.325679 0
M  V30 4082 C 384.478 1.56788 1.03919 0
M  V30 4083 O 383.836 0.721811 1.66312 0
M  V30 4084 C 383.884 3.58774 -0.362447 0
M  V30 4085 O 382.988 4.07372 0.642033 0
M  V30 4086 H 382.329 0.64833 -0.143402 0
M  V30 4087 H 384.859 1.7677 -1.03023 0
M  V30 4088 H 384.869 4.07434 -0.214844 0
M  V30 4089 H 383.544 3.93096 -1.35824 0
M  V30 4090 H 382.121 3.70068 0.458688 0
M  V30 4091 N 384.306 0.507319 1.49211 0
M  V30 4092 C 385.253 -0.267728 2.29242 0
M  V30 4093 C 386.223 -0.954609 1.35928 0
M  V30 4094 O 387.408 -0.960046 1.64887 0
M  V30 4095 C 384.548 -1.32243 3.18756 0
M  V30 4096 C 383.661 -0.64669 4.27132 0
M  V30 4097 C 382.796 -1.68238 5.03855 0
M  V30 4098 C 381.835 -0.98885 6.0406 0
M  V30 4099 N 380.972 -1.96903 6.73924 0
M  V30 4100 H 385.812 0.420968 2.95012 0
M  V30 4101 H 383.349 0.219443 1.45454 0
M  V30 4102 H 385.307 -1.94599 3.69036 0
M  V30 4103 H 383.937 -1.97981 2.54958 0
M  V30 4104 H 382.989 0.0902926 3.80293 0
M  V30 4105 H 384.301 -0.101058 4.98698 0
M  V30 4106 H 383.455 -2.38081 5.58034 0
M  V30 4107 H 382.194 -2.26187 4.32077 0
M  V30 4108 H 381.199 -0.276222 5.49106 0
M  V30 4109 H 382.424 -0.415767 6.77826 0
M  V30 4110 H 380.37 -2.53803 6.04913 0
M  V30 4111 H 380.287 -1.47423 7.41487 0
M  V30 4112 H 381.555 -2.66015 7.32705 0
M  V30 4113 N 385.784 -1.5574 0.241426 0
M  V30 4114 C 387.032 -1.98417 -0.384075 0
M  V30 4115 C 387.353 -1.13078 -1.58866 0
M  V30 4116 O 386.623 -0.212312 -1.94746 0
M  V30 4117 H 385.203 -0.732813 -0.144894 0
M  V30 4118 H 387.865 -1.9193 0.338943 0
M  V30 4119 H 386.961 -3.04219 -0.696939 0
M  V30 4120 N 387.262 0.0317525 -1.57568 0
M  V30 4121 C 388.508 0.724175 -1.8943 0
M  V30 4122 C 388.841 1.75149 -0.838836 0
M  V30 4123 O 388.116 1.93948 0.146422 0
M  V30 4124 C 388.399 1.39615 -3.31933 0
M  V30 4125 C 388.252 0.382537 -4.4817 0
M  V30 4126 C 389.571 2.33084 -3.73309 0
M  V30 4127 H 386.69 0.261797 -0.688935 0
M  V30 4128 H 389.332 -0.013017 -1.89996 0
M  V30 4129 H 387.482 2.02451 -3.31581 0
M  V30 4130 H 389.154 -0.243689 -4.60656 0
M  V30 4131 H 387.397 -0.29844 -4.32772 0
M  V30 4132 H 388.068 0.891145 -5.44759 0
M  V30 4133 H 390.544 1.80295 -3.7501 0
M  V30 4134 H 389.42 2.77084 -4.73831 0
M  V30 4135 H 389.681 3.19643 -3.05419 0
M  V30 4136 N 388.74 1.54641 0.303973 0
M  V30 4137 C 389.97 1.77511 1.05705 0
M  V30 4138 C 390.378 0.533228 1.81531 0
M  V30 4139 O 389.721 -0.506423 1.76582 0
M  V30 4140 C 389.783 2.92779 2.08617 0
M  V30 4141 C 389.447 4.30977 1.52013 0
M  V30 4142 C 390.444 5.11115 0.9517 0
M  V30 4143 C 388.129 4.77571 1.55665 0
M  V30 4144 C 390.123 6.35966 0.427327 0
M  V30 4145 C 387.81 6.02384 1.02841 0
M  V30 4146 C 388.808 6.81417 0.464713 0
M  V30 4147 O 388.496 8.03881 -0.0555283 0
M  V30 4148 H 388.228 0.59579 0.319391 0
M  V30 4149 H 390.782 2.02401 0.349712 0
M  V30 4150 H 389.012 2.63506 2.83022 0
M  V30 4151 H 390.701 3.03252 2.69802 0
M  V30 4152 H 391.467 4.76264 0.916407 0
M  V30 4153 H 387.346 4.16085 1.9848 0
M  V30 4154 H 390.89 6.97599 -0.0133062 0
M  V30 4155 H 386.787 6.36723 1.06084 0
M  V30 4156 H 387.555 8.18479 0.0580522 0
M  V30 4157 N 390.218 -0.567019 1.47046 0
M  V30 4158 C 391.448 -1.34831 1.56538 0
M  V30 4159 C 391.856 -1.8802 0.21101 0
M  V30 4160 O 391.199 -1.65152 -0.804387 0
M  V30 4161 C 391.261 -2.56139 2.52256 0
M  V30 4162 C 390.925 -2.24307 3.98165 0
M  V30 4163 C 391.922 -1.82192 4.86931 0
M  V30 4164 C 389.607 -2.35968 4.43423 0
M  V30 4165 C 391.601 -1.52153 6.18973 0
M  V30 4166 C 389.288 -2.05542 5.75496 0
M  V30 4167 C 390.286 -1.63701 6.63092 0
M  V30 4168 O 389.974 -1.33657 7.92711 0
M  V30 4169 H 389.706 -0.417683 0.531523 0
M  V30 4170 H 392.26 -0.694726 1.93294 0
M  V30 4171 H 390.49 -3.24356 2.10548 0
M  V30 4172 H 392.179 -3.18214 2.51982 0
M  V30 4173 H 392.945 -1.72684 4.53217 0
M  V30 4174 H 388.824 -2.67495 3.75456 0
M  V30 4175 H 392.368 -1.19421 6.87302 0
M  V30 4176 H 388.265 -2.14679 6.08755 0
M  V30 4177 H 389.033 -1.4737 8.05124 0
M  V30 4178 N 391.696 -1.35014 -0.812953 0
M  V30 4179 C 392.973 -1.18502 -1.55617 0
M  V30 4180 C 393.353 0.238421 -2.09749 0
M  V30 4181 O 392.701 1.2411 -1.91857 0
M  V30 4182 C 392.911 -2.24783 -2.66971 0
M  V30 4183 C 394.259 -2.60268 -3.35478 0
M  V30 4184 O 395.283 -2.23648 -2.77236 0
M  V30 4185 O 394.142 -3.2321 -4.40678 0
M  V30 4186 H 391.236 -0.459984 -0.687272 0
M  V30 4187 H 393.782 -1.46677 -0.853464 0
M  V30 4188 H 392.554 -3.20284 -2.24798 0
M  V30 4189 H 392.177 -1.97841 -3.44884 0
M  V30 4190 N 393.175 1.03435 -1.18907 0
M  V30 4191 C 394.085 2.15075 -0.937015 0
M  V30 4192 C 395.101 1.73706 0.101085 0
M  V30 4193 O 396.277 2.01232 -0.0822948 0
M  V30 4194 C 393.342 3.43458 -0.473057 0
M  V30 4195 C 392.403 3.99172 -1.57989 0
M  V30 4196 C 391.636 5.21427 -1.13797 0
M  V30 4197 O 391.859 5.704 0.000725941 0
M  V30 4198 O 390.793 5.69837 -1.9383 0
M  V30 4199 H 394.619 2.39198 -1.87131 0
M  V30 4200 H 392.204 1.13506 -0.971427 0
M  V30 4201 H 394.086 4.20811 -0.222702 0
M  V30 4202 H 392.761 3.20793 0.432869 0
M  V30 4203 H 391.668 3.23178 -1.88433 0
M  V30 4204 H 393.001 4.2619 -2.46217 0
M  V30 4205 N 394.653 0.992116 1.22453 0
M  V30 4206 C 395.878 0.685644 1.95739 0
M  V30 4207 C 396.303 -0.743 1.72804 0
M  V30 4208 O 395.661 -1.50778 1.00676 0
M  V30 4209 C 395.709 0.996293 3.46564 0
M  V30 4210 O 394.813 0.0945512 4.12292 0
M  V30 4211 H 394.154 0.256694 0.612376 0
M  V30 4212 H 396.684 1.32888 1.5557 0
M  V30 4213 H 396.694 0.93781 3.97076 0
M  V30 4214 H 395.369 2.03733 3.62582 0
M  V30 4215 H 393.946 0.208451 3.72317 0
M  V30 4216 N 396.131 -1.37776 0.765217 0
M  V30 4217 C 397.371 -2.01691 0.331669 0
M  V30 4218 C 397.735 -1.59432 -1.06983 0
M  V30 4219 O 398.936 -2.15761 -1.60314 0
M  V30 4220 C 397.207 -3.54385 0.463261 0
M  V30 4221 S 398.766 -4.38652 0.114011 0
M  V30 4222 H 395.584 -0.699387 0.127979 0
M  V30 4223 H 398.186 -1.68084 0.998396 0
M  V30 4224 H 396.89 -3.82629 1.48401 0
M  V30 4225 H 396.421 -3.92783 -0.220246 0
M  V30 4226 H 398.436 -4.84021 -1.09261 0
M  V30 4227 N 397.609 -0.515225 -1.4894 0
M  V30 4228 C 398.557 0.269115 -2.31038 0
M  V30 4229 C 399.551 0.949443 -1.40292 0
M  V30 4230 O 400.757 0.87551 -1.57273 0
M  V30 4231 H 397.132 0.10565 -0.744542 0
M  V30 4232 H 399.103 -0.443096 -2.95092 0
M  V30 4233 C 397.852 1.31213 -3.21991 0
M  V30 4234 H 397.175 0.798034 -3.91754 0
M  V30 4235 H 398.615 1.83263 -3.82349 0
M  V30 4236 C 397.074 2.33791 -2.42576 0
M  V30 4237 O 397.604 3.3995 -2.14003 0
M  V30 4238 N 395.81 2.06625 -2.0434 0
M  V30 4239 H 395.357 1.20314 -2.27777 0
M  V30 4240 H 395.315 2.75483 -1.51514 0
M  V30 4241 N 399.087 1.5561 -0.249682 0
M  V30 4242 C 400.312 2.03865 0.381305 0
M  V30 4243 C 400.737 1.12769 1.50548 0
M  V30 4244 O 400.095 0.121189 1.80895 0
M  V30 4245 C 400.143 3.50101 0.863816 0
M  V30 4246 O 399.247 3.62132 1.97318 0
M  V30 4247 H 398.588 0.658827 0.0827194 0
M  V30 4248 H 401.118 2.01105 -0.376552 0
M  V30 4249 H 401.128 3.90975 1.1663 0
M  V30 4250 H 399.803 4.1588 0.0411816 0
M  V30 4251 H 398.38 3.33155 1.67517 0
M  V30 4252 N 400.565 -0.0233959 1.57583 0
M  V30 4253 C 401.842 -0.748794 1.807 0
M  V30 4254 C 402.222 -1.9327 0.849106 0
M  V30 4255 O 401.57 -2.28247 -0.107468 0
M  V30 4256 C 401.78 -1.17651 3.28571 0
M  V30 4257 C 403.128 -1.59008 3.93702 0
M  V30 4258 O 404.152 -1.27094 3.32755 0
M  V30 4259 O 403.011 -2.18264 5.01022 0
M  V30 4260 H 400.105 -0.362578 0.743281 0
M  V30 4261 H 402.651 0.000261958 1.697 0
M  V30 4262 H 401.423 -0.331603 3.89892 0
M  V30 4263 H 401.046 -1.98541 3.44481 0
M  V30 4264 N 402.043 -1.548 -0.295768 0
M  V30 4265 C 402.991 -1.86874 -1.38495 0
M  V30 4266 C 403.985 -0.742938 -1.52239 0
M  V30 4267 O 405.191 -0.926999 -1.54294 0
M  V30 4268 H 401.566 -0.592786 -0.462719 0
M  V30 4269 H 403.537 -2.77904 -1.08682 0
M  V30 4270 C 402.286 -2.13732 -2.74252 0
M  V30 4271 H 401.609 -2.99835 -2.64459 0
M  V30 4272 H 403.049 -2.4011 -3.49461 0
M  V30 4273 C 401.508 -0.937539 -3.23592 0
M  V30 4274 O 402.038 -0.160665 -4.01379 0
M  V30 4275 N 400.244 -0.741478 -2.80981 0
M  V30 4276 H 399.791 -1.37489 -2.1784 0
M  V30 4277 H 399.749 0.0597103 -3.14343 0
M  V30 4278 N 403.521 0.559213 -1.47345 0
M  V30 4279 C 404.451 1.67622 -1.62558 0
M  V30 4280 C 405.432 1.63331 -0.475087 0
M  V30 4281 O 406.617 1.80983 -0.704182 0
M  V30 4282 C 403.747 3.0626 -1.63774 0
M  V30 4283 C 402.701 3.25397 -2.7803 0
M  V30 4284 C 402.027 4.64801 -2.64318 0
M  V30 4285 C 403.327 3.10965 -4.19641 0
M  V30 4286 H 405.021 1.55146 -2.56067 0
M  V30 4287 H 402.567 0.744961 -1.23233 0
M  V30 4288 H 404.52 3.84247 -1.73008 0
M  V30 4289 H 403.244 3.1969 -0.66825 0
M  V30 4290 H 401.903 2.49817 -2.68304 0
M  V30 4291 H 401.551 4.75028 -1.65401 0
M  V30 4292 H 401.251 4.78555 -3.40968 0
M  V30 4293 H 402.775 5.44926 -2.75478 0
M  V30 4294 H 404.189 3.78772 -4.30354 0
M  V30 4295 H 402.586 3.36229 -4.97062 0
M  V30 4296 H 403.656 2.07736 -4.38148 0
M  V30 4297 N 404.999 1.35443 0.805782 0
M  V30 4298 C 405.947 1.28465 1.93906 0
M  V30 4299 C 406.941 0.17943 1.68447 0
M  V30 4300 O 408.147 0.345459 1.76654 0
M  V30 4301 H 404.522 0.399528 0.637088 0
M  V30 4302 H 406.493 2.24206 1.96912 0
M  V30 4303 C 405.242 1.07432 3.30687 0
M  V30 4304 H 404.565 1.91716 3.50835 0
M  V30 4305 H 406.005 1.06591 4.10383 0
M  V30 4306 C 404.464 -0.22179 3.36169 0
M  V30 4307 O 404.994 -1.21731 3.82811 0
M  V30 4308 N 403.2 -0.260841 2.89427 0
M  V30 4309 H 402.747 0.549884 2.51663 0
M  V30 4310 H 402.705 -1.12777 2.93477 0
M  V30 4311 N 406.477 -1.02803 1.19454 0
M  V30 4312 C 407.427 -2.0945 0.900827 0
M  V30 4313 C 408.411 -1.60335 -0.134715 0
M  V30 4314 O 409.603 -1.76857 0.0710924 0
M  V30 4315 C 406.732 -3.4044 0.442229 0
M  V30 4316 C 405.818 -3.96286 1.51056 0
M  V30 4317 N 406.209 -4.25785 2.73021 0
M  V30 4318 C 404.507 -4.24307 1.37404 0
M  V30 4319 C 405.208 -4.70654 3.41848 0
M  V30 4320 N 404.184 -4.72238 2.69243 0
M  V30 4321 H 407.986 -2.3015 1.82779 0
M  V30 4322 H 405.5 -1.20672 1.08683 0
M  V30 4323 H 407.497 -4.16354 0.21326 0
M  V30 4324 H 406.157 -3.21159 -0.478238 0
M  V30 4325 H 407.168 -4.15041 3.09776 0
M  V30 4326 H 403.845 -4.14285 0.517103 0
M  V30 4327 H 405.235 -5.02392 4.46152 0
M  V30 4328 N 407.956 -0.998596 -1.21925 0
M  V30 4329 C 408.919 -0.558679 -2.22287 0
M  V30 4330 C 409.919 0.361525 -1.56683 0
M  V30 4331 O 411.109 0.152695 -1.73529 0
M  V30 4332 C 408.241 0.18661 -3.40389 0
M  V30 4333 H 409.434 -1.4463 -2.62721 0
M  V30 4334 H 406.987 -0.786413 -1.35075 0
M  V30 4335 H 407.722 1.08996 -3.05435 0
M  V30 4336 H 407.507 -0.474188 -3.89222 0
M  V30 4337 H 408.997 0.482367 -4.14805 0
M  V30 4338 N 409.434 1.37368 -0.772513 0
M  V30 4339 C 410.68 1.99969 -0.337681 0
M  V30 4340 C 411.013 1.61184 1.08321 0
M  V30 4341 O 410.288 0.858395 1.74533 0
M  V30 4342 C 410.571 3.56858 -0.482121 0
M  V30 4343 C 410.424 4.0555 -1.94549 0
M  V30 4344 C 411.743 4.39955 0.113143 0
M  V30 4345 H 408.862 0.726464 -0.124171 0
M  V30 4346 H 411.504 1.63034 -0.975699 0
M  V30 4347 H 409.654 3.88452 0.0610361 0
M  V30 4348 H 411.326 3.84518 -2.54841 0
M  V30 4349 H 409.569 3.57715 -2.45403 0
M  V30 4350 H 410.24 5.14587 -1.9976 0
M  V30 4351 H 412.716 4.14623 -0.35031 0
M  V30 4352 H 411.592 5.48897 -0.0180514 0
M  V30 4353 H 411.853 4.25403 1.20354 0
M  V30 4354 N 410.912 0.523116 1.48665 0
M  V30 4355 C 411.842 -0.23231 2.32342 0
M  V30 4356 C 412.823 -0.941637 1.41659 0
M  V30 4357 O 414.008 -0.928751 1.70552 0
M  V30 4358 C 411.138 -1.28387 3.22698 0
M  V30 4359 C 410.092 -0.693098 4.22351 0
M  V30 4360 C 409.418 -1.8468 5.01794 0
M  V30 4361 C 410.718 0.33063 5.21252 0
M  V30 4362 H 412.412 0.466192 2.95748 0
M  V30 4363 H 409.958 0.225643 1.42221 0
M  V30 4364 H 411.911 -1.82024 3.80059 0
M  V30 4365 H 410.635 -2.01186 2.57278 0
M  V30 4366 H 409.294 -0.178299 3.66166 0
M  V30 4367 H 408.942 -2.56301 4.32804 0
M  V30 4368 H 408.642 -1.45747 5.69238 0
M  V30 4369 H 410.166 -2.38709 5.62006 0
M  V30 4370 H 411.58 -0.118407 5.73178 0
M  V30 4371 H 409.977 0.636974 5.9671 0
M  V30 4372 H 411.047 1.23883 4.68808 0
M  V30 4373 N 412.39 -1.55475 0.257931 0
M  V30 4374 C 413.353 -2.20551 -0.623706 0
M  V30 4375 C 414.353 -1.17809 -1.09443 0
M  V30 4376 O 415.543 -1.42823 -0.997362 0
M  V30 4377 C 412.675 -2.85784 -1.8585 0
M  V30 4378 H 413.868 -2.99848 -0.0557743 0
M  V30 4379 H 411.421 -1.56298 0.0084422 0
M  V30 4380 H 412.156 -2.10453 -2.46739 0
M  V30 4381 H 411.941 -3.61057 -1.52907 0
M  V30 4382 H 413.431 -3.35553 -2.48584 0
M  V30 4383 N 413.868 0.0150385 -1.57593 0
M  V30 4384 C 415.114 0.704043 -1.90187 0
M  V30 4385 C 415.447 1.74249 -0.857366 0
M  V30 4386 O 414.722 1.94092 0.125843 0
M  V30 4387 C 415.005 1.36087 -3.33395 0
M  V30 4388 C 414.858 0.334981 -4.48551 0
M  V30 4389 C 416.177 2.29112 -3.7576 0
M  V30 4390 H 413.296 0.254475 -0.691673 0
M  V30 4391 H 415.938 -0.0331678 -1.89971 0
M  V30 4392 H 414.088 1.98922 -3.3371 0
M  V30 4393 H 415.76 -0.292534 -4.60372 0
M  V30 4394 H 414.003 -0.344325 -4.32431 0
M  V30 4395 H 414.674 0.833316 -5.45674 0
M  V30 4396 H 417.15 1.76308 -3.76902 0
M  V30 4397 H 416.026 2.72043 -4.76743 0
M  V30 4398 H 416.287 3.16385 -3.08793 0
M  V30 4399 N 415.346 1.54954 0.287554 0
M  V30 4400 C 416.594 1.74528 1.01904 0
M  V30 4401 C 416.915 0.541349 1.87335 0
M  V30 4402 O 416.185 -0.444108 1.908 0
M  V30 4403 H 414.765 0.643576 0.379235 0
M  V30 4404 H 417.427 1.92333 0.315294 0
M  V30 4405 H 416.523 2.64015 1.6644 0
M  V30 4406 N 416.824 -0.551391 1.4764 0
M  V30 4407 C 418.054 -1.33163 1.57959 0
M  V30 4408 C 418.462 -1.87785 0.23094 0
M  V30 4409 O 417.805 -1.65996 -0.786825 0
M  V30 4410 C 417.867 -2.53449 2.54958 0
M  V30 4411 C 417.531 -2.20071 4.00522 0
M  V30 4412 C 418.528 -1.77017 4.88836 0
M  V30 4413 C 416.213 -2.31252 4.45901 0
M  V30 4414 C 418.207 -1.4558 6.20552 0
M  V30 4415 C 415.894 -1.99427 5.77644 0
M  V30 4416 C 416.892 -1.56659 6.64791 0
M  V30 4417 O 416.58 -1.25242 7.94084 0
M  V30 4418 H 416.312 -0.412022 0.535923 0
M  V30 4419 H 418.866 -0.674186 1.9402 0
M  V30 4420 H 417.096 -3.22104 2.13976 0
M  V30 4421 H 418.785 -3.15523 2.55343 0
M  V30 4422 H 419.551 -1.67867 4.55023 0
M  V30 4423 H 415.43 -2.63498 3.78272 0
M  V30 4424 H 418.974 -1.12125 6.8853 0
M  V30 4425 H 414.871 -2.08211 6.10998 0
M  V30 4426 H 415.639 -1.38822 8.06642 0
M  V30 4427 N 418.302 -1.35869 -0.798587 0
M  V30 4428 C 419.55 -1.29332 -1.55298 0
M  V30 4429 C 419.871 0.129729 -1.94568 0
M  V30 4430 O 419.141 1.06796 -1.6423 0
M  V30 4431 H 417.721 -0.475737 -0.57592 0
M  V30 4432 H 420.383 -1.70062 -0.952093 0
M  V30 4433 H 419.479 -1.91458 -2.46476 0
M  V30 4434 N 419.78 1.02168 -1.19998 0
M  V30 4435 C 421.029 1.75091 -1.0013 0
M  V30 4436 C 421.342 1.89923 0.467835 0
M  V30 4437 O 422.548 2.59888 0.785515 0
M  V30 4438 C 421.004 3.14892 -1.74273 0
M  V30 4439 C 420.612 3.0809 -3.25245 0
M  V30 4440 C 422.356 3.9206 -1.62755 0
M  V30 4441 C 420.263 4.42867 -3.91948 0
M  V30 4442 H 419.193 0.656394 -0.37103 0
M  V30 4443 H 421.844 1.14284 -1.43567 0
M  V30 4444 H 420.226 3.7621 -1.2362 0
M  V30 4445 H 421.4 2.5611 -3.83072 0
M  V30 4446 H 419.715 2.44416 -3.3712 0
M  V30 4447 H 422.312 4.91764 -2.09934 0
M  V30 4448 H 422.655 4.12199 -0.582894 0
M  V30 4449 H 423.188 3.37359 -2.10793 0
M  V30 4450 H 419.927 4.27931 -4.96543 0
M  V30 4451 H 419.447 4.94874 -3.3891 0
M  V30 4452 H 421.126 5.11728 -3.95909 0
M  V30 4453 N 421.258 1.00505 1.21394 0
M  V30 4454 C 422.19 0.52372 2.23136 0
M  V30 4455 C 423.203 -0.387714 1.58116 0
M  V30 4456 O 424.392 -0.187905 1.77508 0
M  V30 4457 C 421.492 -0.258885 3.3791 0
M  V30 4458 C 420.665 0.651634 4.32519 0
M  V30 4459 C 419.724 -0.0813705 5.26137 0
M  V30 4460 O 418.75 0.537295 5.66658 0
M  V30 4461 N 419.952 -1.35992 5.64346 0
M  V30 4462 H 422.717 1.39865 2.65062 0
M  V30 4463 H 420.278 0.881196 1.35818 0
M  V30 4464 H 422.27 -0.758208 3.97534 0
M  V30 4465 H 420.84 -1.035 2.94968 0
M  V30 4466 H 420.06 1.33145 3.71034 0
M  V30 4467 H 421.348 1.27129 4.92662 0
M  V30 4468 H 420.746 -1.88368 5.33417 0
M  V30 4469 H 419.303 -1.8042 6.26332 0
M  V30 4470 N 422.737 -1.36956 0.779787 0
M  V30 4471 C 423.684 -2.30175 0.169697 0
M  V30 4472 C 424.654 -1.51501 -0.68094 0
M  V30 4473 O 425.839 -1.80042 -0.631629 0
M  V30 4474 C 422.979 -3.37985 -0.697131 0
M  V30 4475 C 422.092 -4.31661 0.170992 0
M  V30 4476 C 421.227 -5.2655 -0.701298 0
M  V30 4477 C 420.266 -6.11867 0.168869 0
M  V30 4478 N 419.403 -6.98973 -0.661855 0
M  V30 4479 H 424.243 -2.81767 0.970135 0
M  V30 4480 H 421.78 -1.38699 0.489994 0
M  V30 4481 H 423.738 -3.99128 -1.2146 0
M  V30 4482 H 422.368 -2.87739 -1.46309 0
M  V30 4483 H 421.42 -3.71756 0.80634 0
M  V30 4484 H 422.732 -4.91644 0.841875 0
M  V30 4485 H 421.886 -5.92937 -1.28494 0
M  V30 4486 H 420.625 -4.66998 -1.40584 0
M  V30 4487 H 419.63 -5.44452 0.764986 0
M  V30 4488 H 420.855 -6.73493 0.870863 0
M  V30 4489 H 418.801 -6.41941 -1.35086 0
M  V30 4490 H 418.718 -7.55984 -0.0484447 0
M  V30 4491 H 419.986 -7.6974 -1.22963 0
M  V30 4492 N 424.215 -0.530993 -1.48385 0
M  V30 4493 C 425.463 0.00273189 -2.021 0
M  V30 4494 C 425.784 1.34672 -1.41027 0
M  V30 4495 O 425.054 1.8724 -0.576012 0
M  V30 4496 H 423.634 0.00399774 -0.746989 0
M  V30 4497 H 426.296 -0.695054 -1.82085 0
M  V30 4498 H 425.392 0.11031 -3.11905 0
M  V30 4499 N 425.693 1.55336 -0.266172 0
M  V30 4500 C 426.641 2.23587 0.641228 0
M  V30 4501 C 427.635 1.22986 1.16494 0
M  V30 4502 O 428.841 1.40943 1.1196 0
M  V30 4503 H 425.216 0.717452 0.225315 0
M  V30 4504 H 427.187 2.9837 0.0426561 0
M  V30 4505 C 425.936 2.96369 1.81826 0
M  V30 4506 H 425.259 3.73563 1.42445 0
M  V30 4507 H 426.699 3.47459 2.42998 0
M  V30 4508 C 425.158 2.0133 2.70125 0
M  V30 4509 O 425.688 1.55875 3.70224 0
M  V30 4510 N 423.894 1.6802 2.37102 0
M  V30 4511 H 423.441 2.05181 1.55751 0
M  V30 4512 H 423.399 1.047 2.96454 0
M  V30 4513 N 427.171 -0.0066808 1.57599 0
M  V30 4514 C 428.118 -1.00024 2.08 0
M  V30 4515 C 429.088 -1.34549 0.973943 0
M  V30 4516 O 430.273 -1.44502 1.24595 0
M  V30 4517 C 427.413 -2.2891 2.58252 0
M  V30 4518 C 426.526 -2.00346 3.82734 0
M  V30 4519 C 425.661 -3.23265 4.21513 0
M  V30 4520 C 424.7 -2.90357 5.3885 0
M  V30 4521 N 423.837 -4.05793 5.72954 0
M  V30 4522 H 428.677 -0.563499 2.92624 0
M  V30 4523 H 426.214 -0.266592 1.44664 0
M  V30 4524 H 428.172 -3.04247 2.85464 0
M  V30 4525 H 426.802 -2.70265 1.76512 0
M  V30 4526 H 425.854 -1.15406 3.62471 0
M  V30 4527 H 427.166 -1.72086 4.68175 0
M  V30 4528 H 426.32 -4.06953 4.49971 0
M  V30 4529 H 425.059 -3.54657 3.34768 0
M  V30 4530 H 424.064 -2.05075 5.10122 0
M  V30 4531 H 425.289 -2.60219 6.27266 0
M  V30 4532 H 423.235 -4.37094 4.89167 0
M  V30 4533 H 423.152 -3.81034 6.52954 0
M  V30 4534 H 424.42 -4.90289 6.06001 0
M  V30 4535 N 428.649 -1.55105 -0.279332 0
M  V30 4536 C 429.599 -1.83937 -1.34727 0
M  V30 4537 C 430.583 -0.69785 -1.44979 0
M  V30 4538 O 431.775 -0.95904 -1.48766 0
M  V30 4539 C 428.904 -2.1092 -2.70864 0
M  V30 4540 C 427.99 -3.31314 -2.64748 0
M  V30 4541 N 428.381 -4.51371 -2.2825 0
M  V30 4542 C 426.679 -3.33777 -2.95819 0
M  V30 4543 C 427.38 -5.33447 -2.31969 0
M  V30 4544 N 426.356 -4.71697 -2.7019 0
M  V30 4545 H 430.158 -2.74309 -1.05506 0
M  V30 4546 H 427.672 -1.54896 -0.487959 0
M  V30 4547 H 429.669 -2.2973 -3.47893 0
M  V30 4548 H 428.329 -1.21828 -3.00979 0
M  V30 4549 H 429.34 -4.77584 -2.00335 0
M  V30 4550 H 426.017 -2.54858 -3.30687 0
M  V30 4551 H 427.407 -6.39424 -2.06365 0
M  V30 4552 N 430.127 0.543554 -1.4793 0
M  V30 4553 C 431.373 1.29961 -1.56466 0
M  V30 4554 C 431.728 1.91024 -0.229696 0
M  V30 4555 O 431.021 1.75619 0.766072 0
M  V30 4556 C 431.215 2.42078 -2.62932 0
M  V30 4557 C 431.044 1.92003 -4.06651 0
M  V30 4558 C 429.814 1.75223 -4.73946 0
M  V30 4559 C 432.012 1.45648 -4.93245 0
M  V30 4560 N 429.994 1.19632 -6.02131 0
M  V30 4561 C 431.365 1.01914 -6.11566 0
M  V30 4562 C 433.42 1.33826 -4.79578 0
M  V30 4563 C 432.123 0.475301 -7.17728 0
M  V30 4564 C 434.149 0.808427 -5.85848 0
M  V30 4565 C 433.511 0.381081 -7.03368 0
M  V30 4566 H 429.61 0.467086 -0.62718 0
M  V30 4567 H 432.194 0.614543 -1.84747 0
M  V30 4568 H 430.365 3.08098 -2.36496 0
M  V30 4569 H 432.097 3.09096 -2.61231 0
M  V30 4570 H 428.852 1.98345 -4.30065 0
M  V30 4571 H 429.276 0.93885 -6.70458 0
M  V30 4572 H 433.918 1.65474 -3.89074 0
M  V30 4573 H 431.636 0.146472 -8.07967 0
M  V30 4574 H 435.222 0.720315 -5.77324 0
M  V30 4575 H 434.102 -0.0225344 -7.84197 0
M  V30 4576 N 431.605 1.3629 0.791371 0
M  V30 4577 C 432.854 1.29742 1.54434 0
M  V30 4578 C 433.167 -0.121729 1.95221 0
M  V30 4579 O 434.373 -0.309579 2.69729 0
M  V30 4580 C 432.829 2.27623 2.78776 0
M  V30 4581 C 432.437 3.74963 2.45166 0
M  V30 4582 C 434.181 2.30047 3.56761 0
M  V30 4583 C 432.088 4.64626 3.65891 0
M  V30 4584 H 431.018 0.482113 0.579727 0
M  V30 4585 H 433.669 1.61642 0.868565 0
M  V30 4586 H 432.051 1.88714 3.48142 0
M  V30 4587 H 433.225 4.22596 1.83709 0
M  V30 4588 H 431.54 3.75295 1.80396 0
M  V30 4589 H 434.137 2.94247 4.46456 0
M  V30 4590 H 434.48 1.30846 3.95203 0
M  V30 4591 H 435.013 2.67563 2.94372 0
M  V30 4592 H 431.752 5.64883 3.32547 0
M  V30 4593 H 431.272 4.2171 4.26521 0
M  V30 4594 H 432.951 4.80801 4.32943 0
M  V30 4595 N 433.083 -1.0153 1.20538 0
M  V30 4596 C 434.332 -1.74558 1.01057 0
M  V30 4597 C 434.645 -1.90168 -0.457756 0
M  V30 4598 O 435.851 -2.60301 -0.771722 0
M  V30 4599 C 434.307 -3.13963 1.75941 0
M  V30 4600 C 433.915 -3.06361 3.26875 0
M  V30 4601 C 435.659 -3.91191 1.64832 0
M  V30 4602 C 433.566 -4.40782 3.94291 0
M  V30 4603 H 432.496 -0.654417 0.374505 0
M  V30 4604 H 435.147 -1.13521 1.44171 0
M  V30 4605 H 433.529 -3.75549 1.25614 0
M  V30 4606 H 434.703 -2.54074 3.84425 0
M  V30 4607 H 433.018 -2.42625 3.38411 0
M  V30 4608 H 435.615 -4.90644 2.12539 0
M  V30 4609 H 435.958 -4.11884 0.604745 0
M  V30 4610 H 436.491 -3.36236 2.12579 0
M  V30 4611 H 433.23 -4.25292 4.98805 0
M  V30 4612 H 432.75 -4.9307 3.41529 0
M  V30 4613 H 434.429 -5.09621 3.98617 0
M  V30 4614 N 434.561 -1.01147 -1.20859 0
M  V30 4615 C 435.508 -0.577354 -2.23462 0
M  V30 4616 C 436.478 0.399922 -1.61214 0
M  V30 4617 O 437.663 0.300515 -1.88419 0
M  V30 4618 C 434.803 0.083372 -3.44999 0
M  V30 4619 C 433.916 -0.937856 -4.21697 0
M  V30 4620 C 433.051 -0.248717 -5.30617 0
M  V30 4621 C 432.09 -1.25705 -5.99053 0
M  V30 4622 N 431.227 -0.594939 -6.99575 0
M  V30 4623 H 436.067 -1.45695 -2.59956 0
M  V30 4624 H 433.604 -0.729428 -1.27741 0
M  V30 4625 H 435.562 0.483535 -4.14388 0
M  V30 4626 H 434.192 0.926645 -3.09214 0
M  V30 4627 H 433.244 -1.45622 -3.51423 0
M  V30 4628 H 434.556 -1.70493 -4.68757 0
M  V30 4629 H 433.71 0.207215 -6.06346 0
M  V30 4630 H 432.449 0.55071 -4.84581 0
M  V30 4631 H 431.454 -1.72343 -5.2209 0
M  V30 4632 H 432.679 -2.05767 -6.47176 0
M  V30 4633 H 430.625 0.184713 -6.5574 0
M  V30 4634 H 430.542 -1.30017 -7.44736 0
M  V30 4635 H 431.81 -0.162427 -7.79331 0
M  V30 4636 N 436.039 1.36541 -0.78704 0
M  V30 4637 C 436.987 2.31965 -0.171724 0
M  V30 4638 C 437.981 1.55689 0.667631 0
M  V30 4639 O 439.187 1.70969 0.562981 0
M  V30 4640 H 435.562 0.751101 -0.0367545 0
M  V30 4641 H 437.533 2.81428 -0.992017 0
M  V30 4642 C 436.282 3.40968 0.680904 0
M  V30 4643 H 435.605 3.99775 0.0443961 0
M  V30 4644 H 437.045 4.10063 1.07815 0
M  V30 4645 C 435.504 2.82338 1.83813 0
M  V30 4646 O 436.034 2.74311 2.93456 0
M  V30 4647 N 434.24 2.39661 1.6435 0
M  V30 4648 H 433.787 2.46389 0.751668 0
M  V30 4649 H 433.745 2.00779 2.4194 0
M  V30 4650 N 437.518 0.538854 1.48102 0
M  V30 4651 C 438.743 0.0102694 2.07397 0
M  V30 4652 C 439.168 -1.26562 1.39153 0
M  V30 4653 O 438.526 -1.75357 0.460387 0
M  V30 4654 C 438.574 -0.187602 3.60112 0
M  V30 4655 O 437.678 -1.25432 3.92862 0
M  V30 4656 H 437.019 0.0430975 0.6626 0
M  V30 4657 H 439.549 0.749301 1.90385 0
M  V30 4658 H 439.559 -0.407517 4.0596 0
M  V30 4659 H 438.234 0.744386 4.09184 0
M  V30 4660 H 436.811 -1.01636 3.58782 0
M  V30 4661 N 438.996 -1.55193 0.274407 0
M  V30 4662 C 440.242 -2.00604 -0.33608 0
M  V30 4663 C 440.597 -1.15948 -1.53538 0
M  V30 4664 O 439.89 -0.221385 -1.90317 0
M  V30 4665 C 440.084 -3.49019 -0.769458 0
M  V30 4666 C 439.913 -4.48038 0.386301 0
M  V30 4667 C 438.683 -4.97757 0.869854 0
M  V30 4668 C 440.881 -4.99558 1.22254 0
M  V30 4669 N 438.863 -5.80575 1.99515 0
M  V30 4670 C 440.234 -5.79816 2.19575 0
M  V30 4671 C 442.289 -4.81799 1.25597 0
M  V30 4672 C 440.992 -6.44208 3.19981 0
M  V30 4673 C 443.018 -5.46989 2.24848 0
M  V30 4674 C 442.38 -6.27058 3.20901 0
M  V30 4675 H 438.479 -0.777013 -0.088172 0
M  V30 4676 H 441.063 -1.90583 0.398266 0
M  V30 4677 H 439.234 -3.59383 -1.47303 0
M  V30 4678 H 440.966 -3.81263 -1.35722 0
M  V30 4679 H 437.721 -4.71464 0.449281 0
M  V30 4680 H 438.145 -6.26675 2.5614 0
M  V30 4681 H 442.787 -4.19501 0.527158 0
M  V30 4682 H 440.505 -7.05656 3.93796 0
M  V30 4683 H 444.091 -5.35189 2.28174 0
M  V30 4684 H 442.971 -6.7661 3.96445 0
M  V30 4685 N 440.474 -0.00167713 -1.576 0
M  V30 4686 C 441.722 0.681471 -1.90264 0
M  V30 4687 C 442.043 1.7422 -0.875924 0
M  V30 4688 O 441.313 1.95709 0.0864412 0
M  V30 4689 H 439.893 0.254696 -0.702239 0
M  V30 4690 H 442.555 -0.0429996 -1.94853 0
M  V30 4691 H 441.651 1.15166 -2.90075 0
M  V30 4692 N 441.952 1.55251 0.271103 0
M  V30 4693 C 442.862 1.9136 1.35714 0
M  V30 4694 C 443.878 0.811075 1.5394 0
M  V30 4695 O 445.054 1.11031 1.6803 0
M  V30 4696 C 442.119 2.1798 2.69603 0
M  V30 4697 C 441.18 3.4153 2.60107 0
M  V30 4698 C 440.413 3.66871 3.8761 0
M  V30 4699 O 440.636 2.94689 4.8838 0
M  V30 4700 O 439.57 4.60405 3.87699 0
M  V30 4701 H 443.396 2.83815 1.08088 0
M  V30 4702 H 440.981 1.41821 0.469792 0
M  V30 4703 H 442.863 2.36518 3.48765 0
M  V30 4704 H 441.538 1.28708 2.97012 0
M  V30 4705 H 440.445 3.28325 1.79314 0
M  V30 4706 H 441.778 4.31027 2.37647 0
M  V30 4707 N 443.43 -0.535701 1.48216 0
M  V30 4708 C 444.378 -1.66179 1.62749 0
M  V30 4709 C 445.372 -1.62034 0.49409 0
M  V30 4710 O 446.578 -1.6696 0.672624 0
M  V30 4711 H 442.953 -0.550244 0.512578 0
M  V30 4712 H 444.924 -1.51063 2.57337 0
M  V30 4713 C 443.673 -3.04471 1.67907 0
M  V30 4714 H 442.996 -3.08351 2.54479 0
M  V30 4715 H 444.436 -3.82894 1.82121 0
M  V30 4716 C 442.895 -3.34314 0.416596 0
M  V30 4717 O 443.425 -3.98905 -0.473014 0
M  V30 4718 N 441.631 -2.89149 0.290038 0
M  V30 4719 H 441.178 -2.36764 1.01493 0
M  V30 4720 H 441.136 -3.09486 -0.55367 0
M  V30 4721 N 444.908 -1.36708 -0.784132 0
M  V30 4722 C 446.154 -1.32433 -1.54379 0
M  V30 4723 C 446.509 0.0941816 -1.92169 0
M  V30 4724 O 445.802 1.04997 -1.60269 0
M  V30 4725 C 445.996 -2.18571 -2.82774 0
M  V30 4726 C 445.825 -3.68656 -2.57533 0
M  V30 4727 C 444.595 -4.37813 -2.52286 0
M  V30 4728 C 446.793 -4.61802 -2.2637 0
M  V30 4729 N 444.775 -5.7351 -2.18997 0
M  V30 4730 C 446.146 -5.85785 -2.03115 0
M  V30 4731 C 448.201 -4.50313 -2.12421 0
M  V30 4732 C 446.904 -6.99569 -1.67321 0
M  V30 4733 C 448.93 -5.63969 -1.78026 0
M  V30 4734 C 448.292 -6.86994 -1.55622 0
M  V30 4735 H 444.391 -0.539886 -0.565727 0
M  V30 4736 H 446.975 -1.71812 -0.915908 0
M  V30 4737 H 445.146 -1.81429 -3.43421 0
M  V30 4738 H 446.878 -2.05646 -3.48557 0
M  V30 4739 H 443.633 -3.90674 -2.67714 0
M  V30 4740 H 444.057 -6.45189 -2.05084 0
M  V30 4741 H 448.699 -3.55781 -2.28429 0
M  V30 4742 H 446.417 -7.94047 -1.5005 0
M  V30 4743 H 450.003 -5.57044 -1.67909 0
M  V30 4744 H 448.883 -7.7345 -1.294 0
M  V30 4745 N 446.386 1.0089 -1.21074 0
M  V30 4746 C 447.634 1.74262 -1.02358 0
M  V30 4747 C 447.955 1.89869 0.444393 0
M  V30 4748 O 447.225 1.44677 1.32081 0
M  V30 4749 H 445.805 0.645615 -0.375754 0
M  V30 4750 H 448.467 1.21596 -1.52317 0
M  V30 4751 H 447.563 2.74328 -1.4883 0
M  V30 4752 N 447.864 1.01787 1.20321 0
M  V30 4753 C 448.812 0.58254 2.25187 0
M  V30 4754 C 449.806 -0.379359 1.65098 0
M  V30 4755 O 451.012 -0.249142 1.78267 0
M  V30 4756 H 447.387 0.170078 0.732514 0
M  V30 4757 H 449.358 1.47788 2.59232 0
M  V30 4758 C 448.107 -0.0620885 3.47645 0
M  V30 4759 H 447.43 0.669069 3.94162 0
M  V30 4760 H 448.87 -0.329784 4.22716 0
M  V30 4761 C 447.329 -1.3053 3.10586 0
M  V30 4762 O 447.859 -2.39848 3.22236 0
M  V30 4763 N 446.065 -1.18988 2.65123 0
M  V30 4764 H 445.612 -0.300341 2.55843 0
M  V30 4765 H 445.57 -2.02267 2.40698 0
M  V30 4766 N 449.342 -1.36122 0.79427 0
M  V30 4767 C 450.289 -2.29982 0.194101 0
M  V30 4768 C 451.259 -1.52214 -0.664833 0
M  V30 4769 O 452.444 -1.80702 -0.612498 0
M  V30 4770 C 449.584 -3.38706 -0.661244 0
M  V30 4771 C 448.697 -4.31456 0.216766 0
M  V30 4772 C 447.832 -5.27265 -0.645411 0
M  V30 4773 C 446.871 -6.11653 0.233756 0
M  V30 4774 N 446.008 -6.99636 -0.587682 0
M  V30 4775 H 450.848 -2.80722 0.999965 0
M  V30 4776 H 448.385 -1.38172 0.504677 0
M  V30 4777 H 450.343 -4.00394 -1.17219 0
M  V30 4778 H 448.973 -2.89274 -1.43249 0
M  V30 4779 H 448.025 -3.7088 0.845724 0
M  V30 4780 H 449.337 -4.90724 0.893973 0
M  V30 4781 H 448.491 -5.94266 -1.22198 0
M  V30 4782 H 447.23 -4.68463 -1.35623 0
M  V30 4783 H 446.235 -5.4361 0.82269 0
M  V30 4784 H 447.46 -6.72531 0.942247 0
M  V30 4785 H 445.406 -6.43337 -1.2827 0
M  V30 4786 H 445.323 -7.55993 0.0317402 0
M  V30 4787 H 446.591 -7.71001 -1.14792 0
M  V30 4788 N 450.82 -0.546701 -1.47814 0
M  V30 4789 C 452.068 -0.0187037 -2.02091 0
M  V30 4790 C 452.389 1.33168 -1.42447 0
M  V30 4791 O 451.659 1.86619 -0.595839 0
M  V30 4792 H 450.239 -0.00392531 -0.74699 0
M  V30 4793 H 452.901 -0.714327 -1.81338 0
M  V30 4794 H 451.997 0.0772219 -3.12004 0
M  V30 4795 N 452.299 1.55045 -0.282633 0
M  V30 4796 C 453.529 2.03872 0.334635 0
M  V30 4797 C 453.937 1.16018 1.49454 0
M  V30 4798 O 453.28 0.174449 1.8287 0
M  V30 4799 C 453.342 3.48791 0.870905 0
M  V30 4800 C 453.006 4.56715 -0.161338 0
M  V30 4801 C 454.003 5.10513 -0.983466 0
M  V30 4802 C 451.688 5.01417 -0.297745 0
M  V30 4803 C 453.682 6.07538 -1.92811 0
M  V30 4804 C 451.369 5.98265 -1.24586 0
M  V30 4805 C 452.367 6.51208 -2.05954 0
M  V30 4806 O 452.055 7.46162 -2.99162 0
M  V30 4807 H 451.787 0.671324 0.0793742 0
M  V30 4808 H 454.341 2.01169 -0.41473 0
M  V30 4809 H 452.571 3.48758 1.67047 0
M  V30 4810 H 454.26 3.80916 1.40207 0
M  V30 4811 H 455.026 4.76785 -0.888856 0
M  V30 4812 H 450.905 4.59849 0.325604 0
M  V30 4813 H 454.449 6.48787 -2.56363 0
M  V30 4814 H 450.346 6.31412 -1.34126 0
M  V30 4815 H 451.114 7.63903 -2.93929 0
M  V30 4816 N 453.777 0.010035 1.57597 0
M  V30 4817 C 455.026 -0.671945 1.90178 0
M  V30 4818 C 455.339 -1.74376 0.886131 0
M  V30 4819 O 456.545 -2.48107 1.10252 0
M  V30 4820 C 455.001 -1.24636 3.3763 0
M  V30 4821 C 454.609 -0.208838 4.47513 0
M  V30 4822 C 456.353 -1.90595 3.79307 0
M  V30 4823 C 454.26 -0.793814 5.86048 0
M  V30 4824 H 453.19 -0.25474 0.709665 0
M  V30 4825 H 455.841 0.0722206 1.83358 0
M  V30 4826 H 454.223 -2.04152 3.3932 0
M  V30 4827 H 455.397 0.562463 4.57354 0
M  V30 4828 H 453.712 0.350889 4.14919 0
M  V30 4829 H 456.309 -2.35284 4.80151 0
M  V30 4830 H 456.652 -2.74074 3.13352 0
M  V30 4831 H 457.185 -1.17798 3.79958 0
M  V30 4832 H 453.924 0.00240855 6.555 0
M  V30 4833 H 453.444 -1.53404 5.79851 0
M  V30 4834 H 455.123 -1.2894 6.34022 0
M  V30 4835 N 455.255 -1.55392 -0.262866 0
M  V30 4836 C 456.185 -1.91978 -1.32917 0
M  V30 4837 C 457.166 -0.7828 -1.51017 0
M  V30 4838 O 458.351 -1.04178 -1.63892 0
M  V30 4839 C 455.481 -2.20055 -2.68687 0
M  V30 4840 C 454.435 -3.35854 -2.65304 0
M  V30 4841 C 453.761 -3.49435 -4.04721 0
M  V30 4842 C 455.061 -4.71977 -2.23685 0
M  V30 4843 H 456.755 -2.81292 -1.02544 0
M  V30 4844 H 454.301 -1.3534 -0.491846 0
M  V30 4845 H 456.254 -2.44237 -3.43404 0
M  V30 4846 H 454.978 -1.27551 -3.00663 0
M  V30 4847 H 453.637 -3.11655 -1.93045 0
M  V30 4848 H 453.285 -2.54379 -4.33936 0
M  V30 4849 H 452.985 -4.27297 -4.0335 0
M  V30 4850 H 454.509 -3.7592 -4.81161 0
M  V30 4851 H 455.923 -4.95637 -2.88127 0
M  V30 4852 H 454.32 -5.52828 -2.33456 0
M  V30 4853 H 455.39 -4.70115 -1.18827 0
M  V30 4854 N 456.733 0.527833 -1.48498 0
M  V30 4855 C 457.666 1.64892 -1.57753 0
M  V30 4856 C 458.644 1.5687 -0.427867 0
M  V30 4857 O 459.828 1.77311 -0.639764 0
M  V30 4858 C 456.955 3.03301 -1.50752 0
M  V30 4859 C 456.001 3.29675 -2.70586 0
M  V30 4860 S 456.834 3.15712 -4.32535 0
M  V30 4861 C 457.99 4.56564 -4.28136 0
M  V30 4862 H 458.223 1.56792 -2.52594 0
M  V30 4863 H 455.756 0.710959 -1.37057 0
M  V30 4864 H 457.714 3.83123 -1.474 0
M  V30 4865 H 456.375 3.08839 -0.572454 0
M  V30 4866 H 455.568 4.3065 -2.61833 0
M  V30 4867 H 455.17 2.57526 -2.71212 0
M  V30 4868 H 457.462 5.48126 -3.98201 0
M  V30 4869 H 458.405 4.70371 -5.29298 0
M  V30 4870 H 458.813 4.35987 -3.58574 0
M  V30 4871 N 458.211 1.37122 0.776871 0
M  V30 4872 C 459.174 1.32301 1.8716 0
M  V30 4873 C 460.174 0.228099 1.59174 0
M  V30 4874 O 461.364 0.483642 1.67352 0
M  V30 4875 C 458.496 1.054 3.24197 0
M  V30 4876 H 459.689 2.29673 1.92848 0
M  V30 4877 H 457.242 1.22077 0.97606 0
M  V30 4878 H 457.977 0.0853872 3.24188 0
M  V30 4879 H 457.762 1.84648 3.45901 0
M  V30 4880 H 459.252 1.04664 4.04271 0
M  V30 4881 N 459.689 -1.00246 1.21608 0
M  V30 4882 C 461.105 -1.26435 0.973975 0
M  V30 4883 C 461.305 -1.98642 -0.338143 0
M  V30 4884 O 460.361 -2.29026 -1.06317 0
M  V30 4885 C 461.674 -2.08551 2.16626 0
M  V30 4886 C 463.222 -2.21769 2.20879 0
M  V30 4887 C 463.697 -3.07267 3.39633 0
M  V30 4888 N 465.188 -3.14855 3.39736 0
M  V30 4889 C 465.923 -3.81274 4.28273 0
M  V30 4890 N 465.419 -4.497 5.27012 0
M  V30 4891 N 467.212 -3.7794 4.16074 0
M  V30 4892 H 459.363 -0.518089 2.05984 0
M  V30 4893 H 461.626 -0.291368 0.902113 0
M  V30 4894 H 461.332 -1.62847 3.11727 0
M  V30 4895 H 461.206 -3.09303 2.15897 0
M  V30 4896 H 463.593 -2.66691 1.26332 0
M  V30 4897 H 463.674 -1.20478 2.25652 0
M  V30 4898 H 463.318 -2.63047 4.34475 0
M  V30 4899 H 463.248 -4.08678 3.321 0
M  V30 4900 H 465.739 -2.66147 2.6828 0
M  V30 4901 H 466.052 -4.98092 5.90867 0
M  V30 4902 H 464.397 -4.48479 5.30935 0
M  V30 4903 H 467.588 -3.23638 3.38195 0
M  V30 4904 H 467.761 -4.29424 4.85282 0
M  V30 4905 N 461.167 -1.02423 -1.1978 0
M  V30 4906 C 462.115 -0.594474 -2.24875 0
M  V30 4907 C 463.109 0.370598 -1.65296 0
M  V30 4908 O 464.315 0.239684 -1.78397 0
M  V30 4909 H 460.69 -0.173961 -0.731602 0
M  V30 4910 H 462.661 -1.4916 -2.58445 0
M  V30 4911 C 461.41 0.0436512 -3.47673 0
M  V30 4912 H 460.733 -0.689963 -3.93801 0
M  V30 4913 H 462.173 0.307362 -4.22884 0
M  V30 4914 C 460.632 1.28881 -3.11274 0
M  V30 4915 O 461.162 2.38135 -3.23503 0
M  V30 4916 N 459.368 1.1758 -2.6575 0
M  V30 4917 H 458.915 0.286769 -2.55999 0
M  V30 4918 H 458.873 2.00988 -2.41767 0
M  V30 4919 N 462.645 1.35699 -0.801477 0
M  V30 4920 C 463.592 2.29876 -0.206294 0
M  V30 4921 C 464.562 1.52565 0.656752 0
M  V30 4922 O 465.747 1.81024 0.602906 0
M  V30 4923 C 462.887 3.39052 0.643272 0
M  V30 4924 C 462 4.31335 -0.239644 0
M  V30 4925 C 461.135 5.27599 0.61744 0
M  V30 4926 C 460.174 6.11521 -0.26619 0
M  V30 4927 N 459.311 6.99938 0.550571 0
M  V30 4928 H 464.151 2.80187 -1.01484 0
M  V30 4929 H 461.688 1.37902 -0.511997 0
M  V30 4930 H 463.646 4.0101 1.15094 0
M  V30 4931 H 462.276 2.9003 1.41713 0
M  V30 4932 H 461.328 3.70426 -0.865381 0
M  V30 4933 H 462.64 4.90243 -0.919985 0
M  V30 4934 H 461.794 5.94906 1.19045 0
M  V30 4935 H 460.533 4.69176 1.33137 0
M  V30 4936 H 459.538 5.43166 -0.851507 0
M  V30 4937 H 460.763 6.72022 -0.9779 0
M  V30 4938 H 458.709 6.44008 1.24856 0
M  V30 4939 H 458.626 7.55966 -0.071832 0
M  V30 4940 H 459.894 7.71599 1.10702 0
M  V30 4941 N 464.123 0.554532 1.47522 0
M  V30 4942 C 465.071 -0.207765 2.3167 0
M  V30 4943 C 466.065 -0.911914 1.4276 0
M  V30 4944 O 467.271 -0.833504 1.59539 0
M  V30 4945 H 463.646 -0.0858726 0.747081 0
M  V30 4946 H 465.617 0.521178 2.93813 0
M  V30 4947 C 464.366 -1.2263 3.25357 0
M  V30 4948 H 463.689 -0.693887 3.93732 0
M  V30 4949 H 465.129 -1.73062 3.87073 0
M  V30 4950 C 463.588 -2.27278 2.4869 0
M  V30 4951 O 464.118 -3.34156 2.22941 0
M  V30 4952 N 462.324 -2.01134 2.09746 0
M  V30 4953 H 461.871 -1.14232 2.30887 0
M  V30 4954 H 461.829 -2.71369 1.58765 0
M  V30 4955 N 465.601 -1.54893 0.290851 0
M  V30 4956 C 466.549 -2.24579 -0.605576 0
M  V30 4957 C 467.543 -1.24824 -1.14522 0
M  V30 4958 O 468.749 -1.42706 -1.09704 0
M  V30 4959 H 465.124 -0.720946 -0.213872 0
M  V30 4960 H 467.095 -2.984 0.0048173 0
M  V30 4961 C 465.844 -2.99224 -1.77088 0
M  V30 4962 H 465.167 -3.75782 -1.36484 0
M  V30 4963 H 466.607 -3.51281 -2.3744 0
M  V30 4964 C 465.066 -2.05602 -2.66888 0
M  V30 4965 O 465.596 -1.61745 -3.67698 0
M  V30 4966 N 463.802 -1.71771 -2.34399 0
M  V30 4967 H 463.349 -2.07633 -1.52468 0
M  V30 4968 H 463.307 -1.09403 -2.94751 0
M  V30 4969 N 467.08 -0.0183926 -1.57589 0
M  V30 4970 C 468.043 0.951986 -2.08494 0
M  V30 4971 C 469.043 1.26092 -0.997874 0
M  V30 4972 O 470.233 1.20304 -1.25987 0
M  V30 4973 C 467.365 2.27165 -2.54182 0
M  V30 4974 H 468.558 0.511307 -2.95509 0
M  V30 4975 H 466.111 0.229444 -1.54607 0
M  V30 4976 H 466.846 2.75884 -1.70465 0
M  V30 4977 H 466.631 2.06057 -3.33591 0
M  V30 4978 H 468.121 2.9674 -2.93828 0
M  V30 4979 N 468.558 1.5553 0.254621 0
M  V30 4980 C 469.798 1.7876 0.991179 0
M  V30 4981 C 470.162 0.586669 1.82817 0
M  V30 4982 O 471.363 0.697585 2.5959 0
M  V30 4983 C 469.634 3.06679 1.83529 0
M  V30 4984 S 471.193 3.511 2.632 0
M  V30 4985 H 468.011 0.627916 0.333531 0
M  V30 4986 H 470.613 1.93766 0.259778 0
M  V30 4987 H 469.317 3.92158 1.20996 0
M  V30 4988 H 468.848 2.94388 2.60958 0
M  V30 4989 H 470.863 3.11823 3.8598 0
M  V30 4990 N 470.036 -0.519951 1.48776 0
M  V30 4991 C 471.284 -1.2727 1.56993 0
M  V30 4992 C 471.605 -1.9339 0.25004 0
M  V30 4993 O 470.875 -1.81822 -0.729216 0
M  V30 4994 H 469.455 -0.472732 0.578389 0
M  V30 4995 H 472.117 -0.604234 1.85297 0
M  V30 4996 H 471.213 -2.04669 2.3562 0
M  V30 4997 N 471.514 -1.37532 -0.769588 0
M  V30 4998 C 472.763 -1.32183 -1.5235 0
M  V30 4999 C 473.076 0.0906555 -1.9539 0
M  V30 5000 O 474.282 0.266628 -2.70188 0
M  V30 5001 C 472.738 -2.32029 -2.75119 0
M  V30 5002 C 472.346 -3.78816 -2.3917 0
M  V30 5003 C 474.09 -2.35694 -3.53056 0
M  V30 5004 C 471.997 -4.70388 -3.58453 0
M  V30 5005 H 470.927 -0.491275 -0.571984 0
M  V30 5006 H 473.578 -1.63004 -0.842739 0
M  V30 5007 H 471.96 -1.94229 -3.45096 0
M  V30 5008 H 473.134 -4.25466 -1.76962 0
M  V30 5009 H 471.449 -3.78117 -1.74402 0
M  V30 5010 H 474.046 -3.01312 -4.41718 0
M  V30 5011 H 474.389 -1.37117 -3.93071 0
M  V30 5012 H 474.922 -2.72212 -2.90078 0
M  V30 5013 H 471.661 -5.70102 -3.23518 0
M  V30 5014 H 471.181 -4.28442 -4.19758 0
M  V30 5015 H 472.86 -4.87628 -4.25239 0
M  V30 5016 N 472.992 0.995999 -1.22138 0
M  V30 5017 C 473.955 2.06711 -0.990109 0
M  V30 5018 C 474.955 1.60744 0.0422978 0
M  V30 5019 O 476.145 1.73095 -0.195895 0
M  V30 5020 C 473.277 3.37288 -0.49491 0
M  V30 5021 H 474.47 2.28661 -1.94047 0
M  V30 5022 H 472.023 1.16711 -1.03963 0
M  V30 5023 H 472.758 3.21022 0.459948 0
M  V30 5024 H 472.543 3.71986 -1.23971 0
M  V30 5025 H 474.033 4.16103 -0.353253 0
M  V30 5026 N 474.47 1.03057 1.19235 0
M  V30 5027 C 475.418 0.606391 2.24557 0
M  V30 5028 C 476.412 -0.361826 1.65491 0
M  V30 5029 O 477.618 -0.23022 1.78522 0
M  V30 5030 H 473.993 0.177838 0.730669 0
M  V30 5031 H 475.964 1.50529 2.5765 0
M  V30 5032 C 474.713 -0.0252127 3.47691 0
M  V30 5033 H 474.036 0.710838 3.9343 0
M  V30 5034 H 475.476 -0.284931 4.23042 0
M  V30 5035 C 473.935 -1.27229 3.11953 0
M  V30 5036 O 474.465 -2.36416 3.24762 0
M  V30 5037 N 472.671 -1.16169 2.6637 0
M  V30 5038 H 472.218 -0.273189 2.56147 0
M  V30 5039 H 472.176 -1.99703 2.42829 0
M  V30 5040 N 475.948 -1.35272 0.808662 0
M  V30 5041 C 476.878 -2.32315 0.234981 0
M  V30 5042 C 477.859 -1.57572 -0.64071 0
M  V30 5043 O 479.044 -1.8563 -0.570551 0
M  V30 5044 C 476.174 -3.41801 -0.615601 0
M  V30 5045 C 475.128 -4.27694 0.161767 0
M  V30 5046 C 474.454 -5.28519 -0.810649 0
M  V30 5047 C 475.754 -5.04231 1.36193 0
M  V30 5048 H 477.448 -2.80543 1.04575 0
M  V30 5049 H 474.994 -1.3488 0.504315 0
M  V30 5050 H 476.947 -4.08693 -1.02702 0
M  V30 5051 H 475.671 -2.92186 -1.45928 0
M  V30 5052 H 474.33 -3.62384 0.554382 0
M  V30 5053 H 473.978 -4.75171 -1.64988 0
M  V30 5054 H 473.678 -5.8686 -0.294822 0
M  V30 5055 H 475.202 -5.98283 -1.22023 0
M  V30 5056 H 476.616 -5.64058 1.02528 0
M  V30 5057 H 475.013 -5.72077 1.81239 0
M  V30 5058 H 476.083 -4.34753 2.14751 0
M  V30 5059 N 477.426 -0.562348 -1.47226 0
M  V30 5060 C 478.389 0.172056 -2.28553 0
M  V30 5061 C 479.389 0.837928 -1.37242 0
M  V30 5062 O 480.579 0.693001 -1.59822 0
M  V30 5063 C 477.711 1.25223 -3.17068 0
M  V30 5064 H 478.904 -0.542401 -2.94954 0
M  V30 5065 H 476.457 -0.319493 -1.53 0
M  V30 5066 H 477.192 1.99892 -2.55369 0
M  V30 5067 H 476.977 0.779515 -3.84273 0
M  V30 5068 H 478.467 1.76791 -3.78332 0
M  V30 5069 N 478.904 1.54736 -0.299062 0
M  V30 5070 C 480.129 2.04975 0.316254 0
M  V30 5071 C 480.554 1.17501 1.46885 0
M  V30 5072 O 479.912 0.178678 1.80417 0
M  V30 5073 C 479.96 3.52672 0.751997 0
M  V30 5074 O 479.064 3.68226 1.85697 0
M  V30 5075 H 478.405 0.661126 0.0617175 0
M  V30 5076 H 480.935 1.99805 -0.440341 0
M  V30 5077 H 480.945 3.94488 1.04133 0
M  V30 5078 H 479.62 4.158 -0.0911482 0
M  V30 5079 H 478.197 3.38316 1.56834 0
M  V30 5080 N 480.382 0.0267497 1.57577 0
M  V30 5081 C 481.629 -0.652404 1.91703 0
M  V30 5082 C 481.957 -1.72271 0.902936 0
M  V30 5083 O 481.212 -1.955 -0.0884843 0
M  V30 5084 C 481.511 -1.30914 3.3256 0
M  V30 5085 C 481.177 -0.369441 4.49384 0
M  V30 5086 C 479.839 -0.110791 4.81072 0
M  V30 5087 C 482.191 0.275971 5.20469 0
M  V30 5088 C 479.519 0.801116 5.81205 0
M  V30 5089 C 481.871 1.17592 6.21575 0
M  V30 5090 C 480.535 1.44348 6.51705 0
M  V30 5091 H 479.805 -0.238732 0.70149 0
M  V30 5092 H 482.452 0.0880091 1.91298 0
M  V30 5093 H 480.757 -2.12425 3.29216 0
M  V30 5094 H 482.454 -1.84115 3.56234 0
M  V30 5095 H 479.044 -0.581211 4.24641 0
M  V30 5096 H 483.228 0.0892 4.9622 0
M  V30 5097 H 478.484 1.01614 6.02897 0
M  V30 5098 H 482.658 1.68223 6.75777 0
M  V30 5099 H 480.285 2.15176 7.29111 0
M  V30 5100 N 481.861 -1.55662 -0.24637 0
M  V30 5101 C 483.272 -1.67953 -0.81539 0
M  V30 5102 C 483.623 -0.624302 -1.86002 0
M  V30 5103 O 482.748 0.229328 -2.15181 0
M  V30 5104 C 483.343 -3.04484 -1.48576 0
M  V30 5105 C 481.902 -3.18713 -2.00248 0
M  V30 5106 C 481.049 -2.6383 -0.853766 0
M  V30 5107 H 484 -1.58685 -0.0221692 0
M  V30 5108 H 484.021 -2.98959 -2.3538 0
M  V30 5109 H 483.533 -3.81264 -0.725222 0
M  V30 5110 H 481.634 -2.46757 -2.79181 0
M  V30 5111 H 481.747 -4.25628 -2.1995 0
M  V30 5112 H 480.111 -2.21667 -1.25442 0
M  V30 5113 H 480.894 -3.43135 -0.106302 0
M  V30 5114 N 483.339 0.512053 -1.4905 0
M  V30 5115 C 484.286 1.6148 -1.64902 0
M  V30 5116 C 485.256 1.58687 -0.490673 0
M  V30 5117 O 486.441 1.76842 -0.71636 0
M  V30 5118 C 483.581 2.99676 -1.71139 0
M  V30 5119 C 482.694 3.12568 -2.98203 0
M  V30 5120 C 481.829 4.4143 -2.95487 0
M  V30 5121 C 480.868 4.47916 -4.17179 0
M  V30 5122 N 480.005 5.68191 -4.12437 0
M  V30 5123 H 484.845 1.47271 -2.59066 0
M  V30 5124 H 482.382 0.716713 -1.28459 0
M  V30 5125 H 484.34 3.79761 -1.72736 0
M  V30 5126 H 482.97 3.12614 -0.804508 0
M  V30 5127 H 482.022 2.25618 -3.06269 0
M  V30 5128 H 483.334 3.1322 -3.88194 0
M  V30 5129 H 482.488 5.29825 -2.95585 0
M  V30 5130 H 481.227 4.43326 -2.03256 0
M  V30 5131 H 480.232 3.57925 -4.17337 0
M  V30 5132 H 481.457 4.47744 -5.1059 0
M  V30 5133 H 479.403 5.7095 -3.23036 0
M  V30 5134 H 479.32 5.70413 -4.96151 0
M  V30 5135 H 480.588 6.58823 -4.16621 0
M  V30 5136 N 484.817 1.37938 0.762283 0
M  V30 5137 C 485.75 1.2884 1.88349 0
M  V30 5138 C 486.728 0.167084 1.61739 0
M  V30 5139 O 487.912 0.34292 1.85355 0
M  V30 5140 C 485.039 0.994257 3.23778 0
M  V30 5141 C 484.085 2.13376 3.69287 0
M  V30 5142 S 484.918 3.75439 3.81845 0
M  V30 5143 C 486.074 3.48195 5.20107 0
M  V30 5144 H 486.307 2.23736 1.95779 0
M  V30 5145 H 483.84 1.23672 0.924368 0
M  V30 5146 H 485.798 0.83138 4.01993 0
M  V30 5147 H 484.459 0.0626251 3.14038 0
M  V30 5148 H 483.652 1.88319 4.67495 0
M  V30 5149 H 483.254 2.25726 2.98201 0
M  V30 5150 H 485.546 3.0377 6.05583 0
M  V30 5151 H 486.489 4.45765 5.50181 0
M  V30 5152 H 486.897 2.82905 4.88493 0
M  V30 5153 O 486.334 -0.902626 1.33921 0
M  V30 5154 H 487.025 -1.53762 1.178 0
M  V30 END ATOM
M  V30 BEGIN BOND
M  V30 END BOND
M  V30 END CTAB
M  END
$$$$
