drugbank_target|Q54528 Aclacinomycin methylesterase RdmC (DB01806; DB04131)
 OpenBabel12092120223D

  0  0  0     0  0            999 V3000
M  V30 BEGIN CTAB
M  V30 COUNTS 4433 4491 0 0 0
M  V30 BEGIN ATOM
M  V30 1 H -0.908 1.98254 -0.117106 0
M  V30 2 N 0 1.576 0 0
M  V30 3 C 0.933 2.03868 1.02534 0
M  V30 4 C 1.911 0.928543 1.3348 0
M  V30 5 O 3.095 1.19667 1.45644 0
M  V30 6 C 0.222 2.43627 2.35294 0
M  V30 7 C -0.732 3.65373 2.2001 0
M  V30 8 S 0.101 5.13292 1.52614 0
M  V30 9 C 1.257 5.56322 2.86805 0
M  V30 10 H 1.49 2.90518 0.631377 0
M  V30 11 H -0.977 1.52953 0.210867 0
M  V30 12 H 0.981 2.67203 3.11629 0
M  V30 13 H -0.358 1.57376 2.7183 0
M  V30 14 H -1.165 3.90944 3.18086 0
M  V30 15 H -1.563 3.418 1.51819 0
M  V30 16 H 0.729 5.58782 3.83104 0
M  V30 17 H 1.672 6.56266 2.65933 0
M  V30 18 H 2.08 4.83886 2.90714 0
M  V30 19 N 1.4781 -0.272755 1.55222 0
M  V30 20 C 2.7031 -1.02683 1.80197 0
M  V30 21 C 3.1281 -1.79142 0.573551 0
M  V30 22 O 2.4861 -1.74917 -0.476849 0
M  V30 23 C 2.5341 -1.9609 3.02624 0
M  V30 24 O 1.6381 -3.04863 2.77727 0
M  V30 25 H 0.9791 -0.293557 0.595584 0
M  V30 26 H 3.5091 -0.30159 2.02365 0
M  V30 27 H 3.5191 -2.38039 3.31363 0
M  V30 28 H 2.1941 -1.39851 3.91682 0
M  V30 29 H 0.7711 -2.67228 2.60084 0
M  V30 30 N 2.9562 -1.48159 -0.537278 0
M  V30 31 C 3.8662 -1.64807 -1.6696 0
M  V30 32 C 4.8822 -0.530651 -1.65711 0
M  V30 33 O 6.0582 -0.800784 -1.84796 0
M  V30 34 C 3.1232 -1.67708 -3.03438 0
M  V30 35 C 2.1842 -2.91025 -3.156 0
M  V30 36 C 1.4172 -2.93778 -4.45567 0
M  V30 37 O 1.6402 -2.05153 -5.3223 0
M  V30 38 O 0.5742 -3.85868 -4.61941 0
M  V30 39 H 4.4002 -2.6066 -1.55853 0
M  V30 40 H 1.9852 -1.31475 -0.709549 0
M  V30 41 H 3.8672 -1.7218 -3.84619 0
M  V30 42 H 2.5422 -0.750278 -3.14885 0
M  V30 43 H 1.4492 -2.92089 -2.33741 0
M  V30 44 H 2.7822 -3.83065 -3.09066 0
M  V30 45 N 4.4343 0.785586 -1.36625 0
M  V30 46 C 5.8503 1.08419 -1.17122 0
M  V30 47 C 6.0503 2.015 0.00208491 0
M  V30 48 O 5.1063 2.43551 0.666278 0
M  V30 49 C 6.4193 1.69498 -2.48377 0
M  V30 50 C 7.9673 1.81821 -2.54775 0
M  V30 51 C 8.4423 2.46315 -3.86126 0
M  V30 52 N 9.9333 2.53779 -3.87492 0
M  V30 53 C 10.6683 3.045 -4.85868 0
M  V30 54 N 10.1643 3.55499 -5.94637 0
M  V30 55 N 11.9573 3.03247 -4.73284 0
M  V30 56 H 4.1083 0.167264 -2.1174 0
M  V30 57 H 6.3713 0.13682 -0.938075 0
M  V30 58 H 6.0773 1.08571 -3.34522 0
M  V30 59 H 5.9513 2.6896 -2.64462 0
M  V30 60 H 8.3383 2.41884 -1.69045 0
M  V30 61 H 8.4193 0.811532 -2.42586 0
M  V30 62 H 8.0633 1.86895 -4.72263 0
M  V30 63 H 7.9933 3.47561 -3.95612 0
M  V30 64 H 10.4843 2.17672 -3.08913 0
M  V30 65 H 10.7973 3.92562 -6.65669 0
M  V30 66 H 9.1423 3.5364 -5.98301 0
M  V30 67 H 12.3333 2.62696 -3.87438 0
M  V30 68 H 12.5063 3.42467 -5.50109 0
M  V30 69 N 5.9124 1.20967 1.01018 0
M  V30 70 C 7.1614 1.01796 1.74128 0
M  V30 71 C 7.4744 -0.449691 1.90361 0
M  V30 72 O 8.6804 -0.76068 2.60626 0
M  V30 73 C 7.1364 1.7727 3.13215 0
M  V30 74 C 6.7444 3.28171 3.04972 0
M  V30 75 C 8.4884 1.66489 3.90489 0
M  V30 76 C 6.3954 3.96156 4.39107 0
M  V30 77 H 5.3254 0.377276 0.652824 0
M  V30 78 H 7.9764 1.44651 1.12909 0
M  V30 79 H 6.3584 1.27205 3.75013 0
M  V30 80 H 7.5324 3.85499 2.52443 0
M  V30 81 H 5.8474 3.39437 2.41188 0
M  V30 82 H 8.4444 2.14617 4.89738 0
M  V30 83 H 8.7874 0.6222 4.11624 0
M  V30 84 H 9.3204 2.14003 3.35332 0
M  V30 85 H 6.0594 5.00604 4.23174 0
M  V30 86 H 5.5794 3.43617 4.91617 0
M  V30 87 H 7.2584 4.00774 5.07926 0
M  V30 88 N 7.3905 -1.2043 1.01659 0
M  V30 89 C 8.6365 -1.90079 0.706963 0
M  V30 90 C 8.9695 -1.78648 -0.761474 0
M  V30 91 O 8.2445 -1.17069 -1.55323 0
M  V30 92 C 8.5275 -3.41469 1.14327 0
M  V30 93 C 8.3805 -3.61833 2.67201 0
M  V30 94 C 9.6995 -4.34261 0.714529 0
M  V30 95 H 6.8185 -0.690254 0.2583 0
M  V30 96 H 9.4605 -1.41826 1.26433 0
M  V30 97 H 7.6105 -3.82696 0.669056 0
M  V30 98 H 9.2825 -3.2986 3.22475 0
M  V30 99 H 7.5255 -3.05304 3.08175 0
M  V30 100 H 8.1965 -4.67955 2.92783 0
M  V30 101 H 10.6725 -4.00682 1.12221 0
M  V30 102 H 9.5485 -5.38806 1.04784 0
M  V30 103 H 9.8095 -4.40431 -0.383799 0
M  V30 104 N 8.8686 -0.792821 -1.36206 0
M  V30 105 C 10.2796 -0.429513 -1.81692 0
M  V30 106 C 10.6306 1.04695 -1.65932 0
M  V30 107 O 9.7556 1.81256 -1.18218 0
M  V30 108 C 10.3506 -0.772831 -3.29868 0
M  V30 109 C 8.9096 -0.462307 -3.7355 0
M  V30 110 C 8.0566 -1.00569 -2.5842 0
M  V30 111 H 11.0076 -0.985672 -1.24379 0
M  V30 112 H 11.0286 -0.0651928 -3.80444 0
M  V30 113 H 10.5406 -1.84747 -3.41307 0
M  V30 114 H 8.6416 0.604158 -3.67669 0
M  V30 115 H 8.7546 -0.985299 -4.68859 0
M  V30 116 H 7.1186 -0.428734 -2.51066 0
M  V30 117 H 7.9016 -2.08616 -2.72643 0
M  V30 118 N 10.3467 1.47872 -0.545128 0
M  V30 119 C 11.5717 2.07391 -0.0190611 0
M  V30 120 C 11.9967 1.39688 1.25971 0
M  V30 121 O 11.3547 0.467816 1.7516 0
M  V30 122 C 11.4027 3.60188 0.172335 0
M  V30 123 O 10.5067 3.9339 1.23766 0
M  V30 124 H 9.8477 0.662411 -0.0459059 0
M  V30 125 H 12.3777 1.90066 -0.757365 0
M  V30 126 H 12.3877 4.06129 0.390305 0
M  V30 127 H 11.0627 4.08865 -0.761725 0
M  V30 128 H 9.6397 3.5921 1.00114 0
M  V30 129 N 11.8248 0.280983 1.55075 0
M  V30 130 C 13.0728 -0.333455 1.9933 0
M  V30 131 C 13.3938 -1.55937 1.17085 0
M  V30 132 O 12.6638 -1.94143 0.261805 0
M  V30 133 H 11.2438 -0.126197 0.736263 0
M  V30 134 H 13.9058 0.387678 1.91005 0
M  V30 135 H 13.0018 -0.619292 3.05894 0
M  V30 136 N 13.3029 -1.57598 0.00835791 0
M  V30 137 C 14.5799 -1.82172 -0.712235 0
M  V30 138 C 14.9599 -0.887873 -1.9152 0
M  V30 139 O 14.3079 0.06146 -2.28417 0
M  V30 140 C 14.5179 -3.30875 -1.11008 0
M  V30 141 C 15.8659 -3.96826 -1.51044 0
M  V30 142 O 16.8899 -3.35248 -1.20364 0
M  V30 143 O 15.7489 -5.05318 -2.08125 0
M  V30 144 H 12.8429 -0.750435 -0.347529 0
M  V30 145 H 15.3889 -1.69665 0.0344523 0
M  V30 146 H 14.1609 -3.90481 -0.252982 0
M  V30 147 H 13.7839 -3.48412 -1.9156 0
M  V30 148 N 14.781 0.264519 -1.55364 0
M  V30 149 C 16.027 0.99646 -1.76631 0
M  V30 150 C 16.36 1.85632 -0.570478 0
M  V30 151 O 15.635 1.89647 0.43175 0
M  V30 152 C 15.918 1.87187 -3.07625 0
M  V30 153 C 15.771 1.04138 -4.37579 0
M  V30 154 C 17.09 2.85749 -3.34717 0
M  V30 155 H 14.209 0.360841 -0.642622 0
M  V30 156 H 16.851 0.268218 -1.88097 0
M  V30 157 H 15.001 2.49279 -2.9798 0
M  V30 158 H 16.673 0.440517 -4.59192 0
M  V30 159 H 14.916 0.345115 -4.32425 0
M  V30 160 H 15.587 1.68729 -5.2558 0
M  V30 161 H 18.063 2.33793 -3.4421 0
M  V30 162 H 16.939 3.44136 -4.27623 0
M  V30 163 H 17.2 3.61311 -2.54768 0
M  V30 164 N 16.2591 1.48442 0.529413 0
M  V30 165 C 17.1691 1.6569 1.66084 0
M  V30 166 C 18.1851 0.539432 1.65427 0
M  V30 167 O 19.3611 0.810572 1.84368 0
M  V30 168 C 16.4261 1.69315 3.02545 0
M  V30 169 C 15.4871 2.92694 3.14052 0
M  V30 170 C 14.7201 2.96137 4.44003 0
M  V30 171 O 14.9431 2.07973 5.31134 0
M  V30 172 O 13.8771 3.88312 4.59888 0
M  V30 173 H 17.7031 2.61483 1.54469 0
M  V30 174 H 15.2881 1.3185 0.702567 0
M  V30 175 H 17.1701 1.74217 3.83701 0
M  V30 176 H 15.8451 0.766966 3.14483 0
M  V30 177 H 14.7521 2.93324 2.32189 0
M  V30 178 H 16.0851 3.84699 3.0703 0
M  V30 179 N 17.7372 -0.778329 1.37039 0
M  V30 180 C 18.6672 -1.90546 1.34962 0
M  V30 181 C 19.6482 -1.68681 0.219274 0
M  V30 182 O 20.8332 -1.89634 0.418624 0
M  V30 183 C 17.9632 -3.27734 1.14925 0
M  V30 184 C 16.9172 -3.64147 2.24902 0
M  V30 185 C 16.2432 -4.99806 1.89996 0
M  V30 186 C 17.5432 -3.71579 3.67051 0
M  V30 187 H 19.2372 -1.92541 2.29277 0
M  V30 188 H 16.7832 -0.924948 1.10366 0
M  V30 189 H 18.7362 -4.06215 1.12104 0
M  V30 190 H 17.4602 -3.26154 0.170631 0
M  V30 191 H 16.1192 -2.8797 2.26868 0
M  V30 192 H 15.7672 -4.94759 0.906796 0
M  V30 193 H 15.4672 -5.25139 2.63634 0
M  V30 194 H 16.9912 -5.80694 1.88749 0
M  V30 195 H 18.4052 -4.40227 3.67251 0
M  V30 196 H 16.8022 -4.08405 4.39688 0
M  V30 197 H 17.8722 -2.72404 4.01154 0
M  V30 198 N 19.2153 -1.21501 -1.00376 0
M  V30 199 C 20.4613 -1.04457 -1.74529 0
M  V30 200 C 20.8163 0.417386 -1.87818 0
M  V30 201 O 20.1093 1.30556 -1.40234 0
M  V30 202 C 20.3033 -1.67673 -3.15627 0
M  V30 203 C 20.1323 -3.19865 -3.16096 0
M  V30 204 C 18.9023 -3.88915 -3.22604 0
M  V30 205 C 21.1003 -4.16936 -3.01112 0
M  V30 206 N 19.0823 -5.28284 -3.12712 0
M  V30 207 C 20.4533 -5.43066 -2.99131 0
M  V30 208 C 22.5083 -4.07968 -2.85423 0
M  V30 209 C 21.2113 -6.6126 -2.83068 0
M  V30 210 C 23.2373 -5.258 -2.70718 0
M  V30 211 C 22.5993 -6.50842 -2.69414 0
M  V30 212 H 18.6983 -0.436584 -0.648782 0
M  V30 213 H 21.2823 -1.53875 -1.19293 0
M  V30 214 H 19.4533 -1.20822 -3.6913 0
M  V30 215 H 21.1853 -1.43824 -3.78281 0
M  V30 216 H 17.9403 -3.39847 -3.2985 0
M  V30 217 H 18.3643 -6.01284 -3.11105 0
M  V30 218 H 23.0063 -3.1209 -2.85236 0
M  V30 219 H 20.7243 -7.57298 -2.82002 0
M  V30 220 H 24.3103 -5.20683 -2.59577 0
M  V30 221 H 23.1903 -7.40485 -2.5817 0
M  V30 222 N 20.6934 1.19889 -1.02296 0
M  V30 223 C 21.9184 1.9393 -0.735237 0
M  V30 224 C 22.3434 1.74639 0.698782 0
M  V30 225 O 21.7014 1.04481 1.48167 0
M  V30 226 C 21.7494 3.43916 -1.08417 0
M  V30 227 O 20.8534 4.11917 -0.199446 0
M  V30 228 H 20.1944 0.605645 -0.272196 0
M  V30 229 H 22.7244 1.52137 -1.36804 0
M  V30 230 H 22.7344 3.9456 -1.03856 0
M  V30 231 H 21.4094 3.5728 -2.12894 0
M  V30 232 H 19.9864 3.71666 -0.303136 0
M  V30 233 N 22.1715 0.800033 1.35784 0
M  V30 234 C 23.4485 0.30088 1.93272 0
M  V30 235 C 23.8285 -1.20857 1.73081 0
M  V30 236 O 23.1765 -2.00502 1.09596 0
M  V30 237 C 23.3865 0.70511 3.41803 0
M  V30 238 C 24.7345 0.690871 4.18942 0
M  V30 239 O 25.7585 0.646244 3.50289 0
M  V30 240 O 24.6175 0.74332 5.41421 0
M  V30 241 H 21.7115 0.0771605 0.823393 0
M  V30 242 H 24.2575 0.88329 1.449 0
M  V30 243 H 23.0295 1.74571 3.50201 0
M  V30 244 H 22.6525 0.0971541 3.97481 0
M  V30 245 N 23.6496 -1.47581 0.552962 0
M  V30 246 C 24.9266 -1.95563 -0.0381515 0
M  V30 247 C 25.3066 -1.49552 -1.48988 0
M  V30 248 O 24.6546 -0.732414 -2.16444 0
M  V30 249 C 24.8646 -3.48848 0.102919 0
M  V30 250 C 26.2126 -4.24577 -0.0446082 0
M  V30 251 O 27.2366 -3.56187 0.0302548 0
M  V30 252 O 26.0956 -5.46116 -0.204923 0
M  V30 253 H 23.1896 -0.824321 -0.0665067 0
M  V30 254 H 25.7356 -1.58001 0.619186 0
M  V30 255 H 24.5076 -3.75129 1.11328 0
M  V30 256 H 24.1306 -3.93165 -0.592224 0
M  V30 257 N 25.1277 -0.289203 -1.54924 0
M  V30 258 C 26.3747 0.323519 -1.99899 0
M  V30 259 C 26.7027 1.54797 -1.17762 0
M  V30 260 O 25.9577 1.94237 -0.238835 0
M  V30 261 C 26.2567 0.736119 -3.49737 0
M  V30 262 C 25.9227 -0.385276 -4.49251 0
M  V30 263 C 24.5847 -0.693156 -4.76181 0
M  V30 264 C 26.9367 -1.14021 -5.08575 0
M  V30 265 C 24.2647 -1.7593 -5.59701 0
M  V30 266 C 26.6167 -2.19619 -5.93254 0
M  V30 267 C 25.2807 -2.51026 -6.185 0
M  V30 268 H 24.5507 0.118384 -0.731482 0
M  V30 269 H 27.1977 -0.405847 -1.8715 0
M  V30 270 H 25.5027 1.54539 -3.60035 0
M  V30 271 H 27.1997 1.22118 -3.81953 0
M  V30 272 H 23.7897 -0.135202 -4.28387 0
M  V30 273 H 27.9737 -0.915611 -4.87781 0
M  V30 274 H 23.2297 -2.0075 -5.77503 0
M  V30 275 H 27.4037 -2.78581 -6.38252 0
M  V30 276 H 25.0307 -3.33772 -6.83008 0
M  V30 277 N 26.6058 1.57591 -0.0167156 0
M  V30 278 C 27.8538 1.90906 0.663285 0
M  V30 279 C 28.1748 0.892509 1.73376 0
M  V30 280 O 27.4448 -0.0677623 1.95783 0
M  V30 281 H 26.0248 0.704637 0.247983 0
M  V30 282 H 28.6868 1.94803 -0.0615909 0
M  V30 283 H 27.7828 2.9116 1.12393 0
M  V30 284 N 28.0839 -0.256276 1.55502 0
M  V30 285 C 29.3609 -1.00789 1.67633 0
M  V30 286 C 29.7409 -2.03706 0.553826 0
M  V30 287 O 29.0889 -2.24145 -0.443969 0
M  V30 288 C 29.2989 -1.64968 3.07549 0
M  V30 289 C 30.6469 -2.15505 3.65845 0
M  V30 290 O 31.6709 -1.74925 3.1029 0
M  V30 291 O 30.5299 -2.89986 4.63217 0
M  V30 292 H 27.6239 -0.468553 0.681459 0
M  V30 293 H 30.1699 -0.250806 1.67836 0
M  V30 294 H 28.9419 -0.904785 3.80696 0
M  V30 295 H 28.5649 -2.47321 3.11317 0
M  V30 296 N 29.562 -1.4872 -0.521534 0
M  V30 297 C 30.973 -1.50607 -1.10337 0
M  V30 298 C 31.324 -0.280612 -1.94183 0
M  V30 299 O 30.449 0.611507 -2.0758 0
M  V30 300 C 31.044 -2.72903 -2.00772 0
M  V30 301 C 29.603 -2.77634 -2.54158 0
M  V30 302 C 28.75 -2.44241 -1.31307 0
M  V30 303 H 31.701 -1.55714 -0.306388 0
M  V30 304 H 31.722 -2.519 -2.85178 0
M  V30 305 H 31.234 -3.62077 -1.39721 0
M  V30 306 H 29.335 -1.92689 -3.18907 0
M  V30 307 H 29.448 -3.79283 -2.92714 0
M  V30 308 H 27.812 -1.95577 -1.63161 0
M  V30 309 H 28.595 -3.35666 -0.719943 0
M  V30 310 N 31.0401 0.771051 -1.3745 0
M  V30 311 C 32.0031 1.86598 -1.33093 0
M  V30 312 C 33.0031 1.59076 -0.234845 0
M  V30 313 O 34.1931 1.67145 -0.490732 0
M  V30 314 C 31.3251 3.23747 -1.06773 0
M  V30 315 H 32.5181 1.91873 -2.30488 0
M  V30 316 H 30.0711 0.970876 -1.2249 0
M  V30 317 H 30.8061 3.24148 -0.099129 0
M  V30 318 H 30.5911 3.45115 -1.86112 0
M  V30 319 H 32.0811 4.03824 -1.06377 0
M  V30 320 N 32.5182 1.22032 0.997298 0
M  V30 321 C 33.7952 0.950823 1.70935 0
M  V30 322 C 34.1752 -0.535292 2.042 0
M  V30 323 O 33.5232 -1.50217 1.72183 0
M  V30 324 C 33.7332 1.84386 2.96315 0
M  V30 325 C 35.0812 2.09732 3.69185 0
M  V30 326 O 36.1052 1.81798 3.06314 0
M  V30 327 O 34.9642 2.57018 4.82291 0
M  V30 328 H 32.0582 0.357204 0.745878 0
M  V30 329 H 34.6042 1.32997 1.05404 0
M  V30 330 H 33.3762 2.84928 2.68201 0
M  V30 331 H 32.9992 1.46602 3.69586 0
M  V30 332 N 33.9963 -1.19345 1.0293 0
M  V30 333 C 35.4073 -1.70725 0.755633 0
M  V30 334 C 35.7583 -1.82326 -0.724676 0
M  V30 335 O 34.8833 -1.49471 -1.56484 0
M  V30 336 C 35.4783 -3.10084 1.36503 0
M  V30 337 C 34.0373 -3.58723 1.13994 0
M  V30 338 C 33.1843 -2.35577 1.46283 0
M  V30 339 H 36.1353 -1.0418 1.19718 0
M  V30 340 H 36.1563 -3.72787 0.762217 0
M  V30 341 H 35.6683 -3.01609 2.44241 0
M  V30 342 H 33.7693 -3.72512 0.0807901 0
M  V30 343 H 33.8823 -4.42816 1.82894 0
M  V30 344 H 32.2463 -2.38935 0.88217 0
M  V30 345 H 33.0293 -2.29731 2.55105 0
M  V30 346 N 35.4744 -0.807222 -1.35358 0
M  V30 347 C 36.4374 -0.223665 -2.28106 0
M  V30 348 C 37.4374 0.589354 -1.4961 0
M  V30 349 O 38.6274 0.407745 -1.69361 0
M  V30 350 C 35.7594 0.688149 -3.33882 0
M  V30 351 H 36.9524 -1.04169 -2.81227 0
M  V30 352 H 34.5054 -0.577921 -1.45223 0
M  V30 353 H 35.2404 1.52984 -2.85948 0
M  V30 354 H 35.0254 0.10687 -3.91954 0
M  V30 355 H 36.5154 1.09075 -4.03104 0
M  V30 356 N 36.9525 1.47285 -0.560781 0
M  V30 357 C 37.8825 2.32857 0.173105 0
M  V30 358 C 38.8635 1.44009 0.905281 0
M  V30 359 O 40.0485 1.7286 0.885046 0
M  V30 360 C 37.1785 3.25861 1.20133 0
M  V30 361 C 36.1325 4.23978 0.585388 0
M  V30 362 C 35.4585 5.06332 1.7185 0
M  V30 363 C 36.7585 5.20242 -0.463178 0
M  V30 364 H 38.4525 2.94466 -0.541307 0
M  V30 365 H 35.9985 1.41601 -0.261764 0
M  V30 366 H 37.9515 3.84569 1.72293 0
M  V30 367 H 36.6755 2.62315 1.94573 0
M  V30 368 H 35.3345 3.66501 0.085054 0
M  V30 369 H 34.9825 4.39186 2.45203 0
M  V30 370 H 34.6825 5.72762 1.31213 0
M  V30 371 H 36.2065 5.67899 2.24329 0
M  V30 372 H 37.6205 5.73293 -0.027502 0
M  V30 373 H 36.0175 5.94896 -0.788627 0
M  V30 374 H 37.0875 4.65504 -1.35773 0
M  V30 375 N 38.4306 0.297415 1.54768 0
M  V30 376 C 39.3606 -0.573494 2.26348 0
M  V30 377 C 40.3416 -1.14085 1.26169 0
M  V30 378 O 41.5266 -1.17086 1.54934 0
M  V30 379 C 38.6566 -1.74716 3.00153 0
M  V30 380 C 37.6106 -1.31032 4.07449 0
M  V30 381 C 36.9366 -2.56887 4.68949 0
M  V30 382 C 38.2366 -0.444183 5.20408 0
M  V30 383 H 39.9306 0.0235131 2.99391 0
M  V30 384 H 37.4766 0.0127488 1.43994 0
M  V30 385 H 39.4296 -2.3625 3.48947 0
M  V30 386 H 38.1536 -2.37035 2.24682 0
M  V30 387 H 36.8126 -0.718066 3.59499 0
M  V30 388 H 36.4606 -3.17512 3.90122 0
M  V30 389 H 36.1606 -2.2836 5.41411 0
M  V30 390 H 37.6846 -3.19229 5.20505 0
M  V30 391 H 39.0986 -0.9651 5.65118 0
M  V30 392 H 37.4956 -0.252846 5.99567 0
M  V30 393 H 38.5656 0.531609 4.81977 0
M  V30 394 N 39.9087 -1.5758 0.0250728 0
M  V30 395 C 40.8387 -2.13007 -0.956575 0
M  V30 396 C 41.8197 -1.0452 -1.342 0
M  V30 397 O 43.0047 -1.32332 -1.42133 0
M  V30 398 C 40.1347 -2.65386 -2.24026 0
M  V30 399 C 39.0887 -3.78623 -1.99571 0
M  V30 400 C 38.4147 -4.17414 -3.3417 0
M  V30 401 C 39.7147 -5.04867 -1.33814 0
M  V30 402 H 41.4087 -2.9528 -0.494991 0
M  V30 403 H 38.9547 -1.42042 -0.236651 0
M  V30 404 H 40.9077 -3.02794 -2.93076 0
M  V30 405 H 39.6317 -1.80268 -2.72343 0
M  V30 406 H 38.2907 -3.41646 -1.32941 0
M  V30 407 H 37.9387 -3.29284 -3.80238 0
M  V30 408 H 37.6387 -4.93719 -3.18615 0
M  V30 409 H 39.1627 -4.57402 -4.04495 0
M  V30 410 H 40.5767 -5.39888 -1.92857 0
M  V30 411 H 38.9737 -5.86144 -1.28669 0
M  V30 412 H 40.0437 -4.83904 -0.310561 0
M  V30 413 N 41.3868 0.248026 -1.55636 0
M  V30 414 C 42.6328 0.97767 -1.77678 0
M  V30 415 C 42.9658 1.85016 -0.590135 0
M  V30 416 O 42.2408 1.90095 0.411611 0
M  V30 417 C 42.5238 1.83914 -3.09593 0
M  V30 418 C 42.3768 0.99491 -4.38659 0
M  V30 419 C 43.6958 2.82183 -3.37729 0
M  V30 420 H 40.8148 0.354005 -0.646413 0
M  V30 421 H 43.4568 0.248253 -1.88371 0
M  V30 422 H 41.6068 2.46104 -3.00608 0
M  V30 423 H 43.2788 0.391789 -4.59633 0
M  V30 424 H 41.5218 0.299231 -4.32767 0
M  V30 425 H 42.1928 1.63145 -5.2734 0
M  V30 426 H 44.6688 2.30129 -3.4667 0
M  V30 427 H 43.5448 3.39582 -4.31249 0
M  V30 428 H 43.8058 3.58588 -2.58586 0
M  V30 429 N 42.8649 1.48995 0.513639 0
M  V30 430 C 43.7979 1.59319 1.63379 0
M  V30 431 C 44.7759 0.442816 1.56454 0
M  V30 432 O 45.9599 0.656655 1.76693 0
M  V30 433 C 43.0869 1.5364 3.01848 0
M  V30 434 C 42.1329 2.7372 3.27078 0
M  V30 435 S 42.9659 4.35528 3.1157 0
M  V30 436 C 44.1219 4.32473 4.52458 0
M  V30 437 H 44.3549 2.54079 1.54374 0
M  V30 438 H 41.8879 1.3773 0.697849 0
M  V30 439 H 43.8459 1.51049 3.81699 0
M  V30 440 H 42.5069 0.601898 3.08279 0
M  V30 441 H 41.6999 2.6593 4.28132 0
M  V30 442 H 41.3019 2.73657 2.54927 0
M  V30 443 H 43.5939 4.03414 5.44301 0
M  V30 444 H 44.5369 5.33762 4.65299 0
M  V30 445 H 44.9449 3.62718 4.32546 0
M  V30 446 N 44.343 -0.763751 1.37857 0
M  V30 447 C 45.591 -1.51957 1.33243 0
M  V30 448 C 45.912 -1.94835 -0.0801709 0
M  V30 449 O 45.182 -1.66894 -1.02582 0
M  V30 450 H 43.762 -0.563626 0.49024 0
M  V30 451 H 46.424 -0.908504 1.7243 0
M  V30 452 H 45.52 -2.41523 1.97669 0
M  V30 453 N 45.8211 -1.22559 -0.990812 0
M  V30 454 C 47.0691 -1.04933 -1.72724 0
M  V30 455 C 47.3901 0.416158 -1.90508 0
M  V30 456 O 46.6601 1.29918 -1.46622 0
M  V30 457 H 45.2401 -0.385296 -0.639965 0
M  V30 458 H 47.9021 -1.54105 -1.19322 0
M  V30 459 H 46.9981 -1.52886 -2.72089 0
M  V30 460 N 47.2992 1.18797 -1.03562 0
M  V30 461 C 48.2472 2.24297 -0.615905 0
M  V30 462 C 49.2412 1.65643 0.354808 0
M  V30 463 O 50.4472 1.78618 0.22265 0
M  V30 464 H 46.8222 0.729909 -0.180934 0
M  V30 465 H 48.7932 2.5701 -1.5162 0
M  V30 466 C 47.5422 3.47698 0.0104735 0
M  V30 467 H 46.8652 3.93125 -0.727509 0
M  V30 468 H 48.3052 4.23159 0.266995 0
M  V30 469 C 46.7642 3.12489 1.25905 0
M  V30 470 O 47.2942 3.25761 2.35038 0
M  V30 471 N 45.5002 2.6686 1.15039 0
M  V30 472 H 45.0472 2.56261 0.262328 0
M  V30 473 H 45.0052 2.43674 1.98672 0
M  V30 474 N 48.7773 0.814389 1.34928 0
M  V30 475 C 49.7073 0.244827 2.32213 0
M  V30 476 C 50.6883 -0.634024 1.57842 0
M  V30 477 O 51.8733 -0.562676 1.8587 0
M  V30 478 C 49.0033 -0.601106 3.42058 0
M  V30 479 C 47.9573 0.179896 4.27622 0
M  V30 480 C 47.2833 -0.788237 5.28858 0
M  V30 481 C 48.5833 1.38329 5.03649 0
M  V30 482 H 50.2773 1.05763 2.80097 0
M  V30 483 H 47.8233 0.510029 1.34665 0
M  V30 484 H 49.7763 -1.00968 4.09125 0
M  V30 485 H 48.5003 -1.44688 2.92802 0
M  V30 486 H 47.1593 0.569739 3.62146 0
M  V30 487 H 46.8073 -1.62973 4.75866 0
M  V30 488 H 46.5073 -0.269942 5.8698 0
M  V30 489 H 48.0313 -1.19485 5.98795 0
M  V30 490 H 49.4453 1.04918 5.63618 0
M  V30 491 H 47.8423 1.83662 5.71304 0
M  V30 492 H 48.9123 2.16592 4.33839 0
M  V30 493 N 50.2554 -1.46986 0.568584 0
M  V30 494 C 51.4804 -2.07335 0.0520528 0
M  V30 495 C 51.9054 -1.41675 -1.23733 0
M  V30 496 O 51.2634 -0.495623 -1.74394 0
M  V30 497 C 51.3114 -3.60417 -0.11501 0
M  V30 498 O 50.4154 -3.95309 -1.17492 0
M  V30 499 H 49.7564 -0.661597 0.0564385 0
M  V30 500 H 52.2864 -1.88837 0.787507 0
M  V30 501 H 52.2964 -4.06698 -0.325644 0
M  V30 502 H 50.9714 -4.07601 0.826675 0
M  V30 503 H 49.5484 -3.60757 -0.943869 0
M  V30 504 N 51.7335 -0.305618 -1.54608 0
M  V30 505 C 52.6965 0.555591 -2.22364 0
M  V30 506 C 53.6965 1.05768 -1.21119 0
M  V30 507 O 54.8865 0.952972 -1.45822 0
M  V30 508 C 52.0185 1.76974 -2.91364 0
M  V30 509 H 53.2115 -0.0364572 -2.99878 0
M  V30 510 H 50.7645 -0.0565007 -1.56198 0
M  V30 511 H 51.4995 2.40151 -2.17941 0
M  V30 512 H 51.2845 1.41732 -3.65588 0
M  V30 513 H 52.7745 2.38148 -3.43038 0
M  V30 514 N 53.2116 1.57565 -0.0334293 0
M  V30 515 C 54.1416 2.13511 0.945265 0
M  V30 516 C 55.1226 1.05231 1.33643 0
M  V30 517 O 56.3076 1.33084 1.41429 0
M  V30 518 C 53.4376 2.6657 2.22616 0
M  V30 519 C 52.3916 3.79676 1.97561 0
M  V30 520 C 51.7176 4.1918 3.31952 0
M  V30 521 C 53.0176 5.0557 1.31135 0
M  V30 522 H 54.7116 2.95538 0.479325 0
M  V30 523 H 52.2576 1.42166 0.229115 0
M  V30 524 H 54.2106 3.04344 2.91466 0
M  V30 525 H 52.9346 1.8171 2.71384 0
M  V30 526 H 51.5936 3.42347 1.31127 0
M  V30 527 H 51.2416 3.31296 3.78487 0
M  V30 528 H 50.9416 4.95402 3.15992 0
M  V30 529 H 52.4656 4.59541 4.02063 0
M  V30 530 H 53.8796 5.40903 1.89992 0
M  V30 531 H 52.2766 5.86818 1.25559 0
M  V30 532 H 53.3466 4.84062 0.284894 0
M  V30 533 N 54.6897 -0.239769 1.55765 0
M  V30 534 C 55.9377 -0.964892 1.77579 0
M  V30 535 C 56.2587 -1.85582 0.598699 0
M  V30 536 O 55.5287 -1.92075 -0.385226 0
M  V30 537 H 54.1087 -0.359265 0.654933 0
M  V30 538 H 56.7707 -0.256001 1.93211 0
M  V30 539 H 55.8667 -1.58243 2.69009 0
M  V30 540 N 56.1678 -1.49265 -0.50573 0
M  V30 541 C 57.4138 -1.59723 -1.25937 0
M  V30 542 C 57.7688 -0.278236 -1.90378 0
M  V30 543 O 57.0618 0.72113 -1.77511 0
M  V30 544 C 57.2558 -2.69008 -2.35308 0
M  V30 545 C 57.0848 -4.11405 -1.81592 0
M  V30 546 C 55.8548 -4.78252 -1.63105 0
M  V30 547 C 58.0528 -4.96792 -1.33048 0
M  V30 548 N 56.0348 -6.0498 -1.04269 0
M  V30 549 C 57.4058 -6.13962 -0.863168 0
M  V30 550 C 59.4608 -4.82828 -1.21577 0
M  V30 551 C 58.1638 -7.18705 -0.292489 0
M  V30 552 C 60.1898 -5.87716 -0.65907 0
M  V30 553 C 59.5518 -7.0411 -0.201954 0
M  V30 554 H 55.6508 -0.638864 -0.450973 0
M  V30 555 H 58.2348 -1.86251 -0.567326 0
M  V30 556 H 56.4058 -2.4426 -3.01979 0
M  V30 557 H 58.1378 -2.69013 -3.02348 0
M  V30 558 H 54.8928 -4.34974 -1.87336 0
M  V30 559 H 55.3168 -6.72631 -0.767919 0
M  V30 560 H 59.9588 -3.93159 -1.55518 0
M  V30 561 H 57.6768 -8.08078 0.0591987 0
M  V30 562 H 61.2628 -5.7897 -0.573156 0
M  V30 563 H 60.1428 -7.83885 0.222101 0
M  V30 564 N 57.6459 0.756429 -1.3826 0
M  V30 565 C 59.0569 1.33359 -1.30661 0
M  V30 566 C 59.4079 1.96161 0.0388875 0
M  V30 567 O 58.5329 1.94874 0.940918 0
M  V30 568 C 59.1279 2.42477 -2.36622 0
M  V30 569 C 57.6869 2.95922 -2.3261 0
M  V30 570 C 56.8339 1.69275 -2.19639 0
M  V30 571 H 59.7849 0.55552 -1.4866 0
M  V30 572 H 59.8059 3.22345 -2.02174 0
M  V30 573 H 59.3179 1.96739 -3.34538 0
M  V30 574 H 57.4189 3.45996 -1.38267 0
M  V30 575 H 57.5319 3.50494 -3.26636 0
M  V30 576 H 55.8959 1.92793 -1.66442 0
M  V30 577 H 56.6789 1.25619 -3.19491 0
M  V30 578 N 59.124 1.23083 0.984299 0
M  V30 579 C 60.401 0.9689 1.69917 0
M  V30 580 C 60.781 -0.513604 2.04757 0
M  V30 581 O 60.129 -1.48383 1.73767 0
M  V30 582 C 60.339 1.87518 2.94343 0
M  V30 583 C 61.687 2.13636 3.6694 0
M  V30 584 O 62.711 1.85036 3.04368 0
M  V30 585 O 61.57 2.62119 4.79537 0
M  V30 586 H 58.664 0.365095 0.742048 0
M  V30 587 H 61.21 1.34107 1.03987 0
M  V30 588 H 59.982 2.87756 2.65164 0
M  V30 589 H 59.605 1.50514 3.6801 0
M  V30 590 N 60.6021 -1.18246 1.0419 0
M  V30 591 C 61.5121 -2.25574 0.644476 0
M  V30 592 C 62.5281 -1.70845 -0.329826 0
M  V30 593 O 63.7041 -2.00554 -0.184443 0
M  V30 594 C 60.7691 -3.46697 0.014877 0
M  V30 595 C 59.8301 -4.16554 1.03834 0
M  V30 596 C 59.0631 -5.31894 0.438692 0
M  V30 597 O 59.2861 -5.65385 -0.754752 0
M  V30 598 O 58.2201 -5.90459 1.168 0
M  V30 599 H 62.0461 -2.61836 1.53869 0
M  V30 600 H 59.6311 -1.25352 0.812854 0
M  V30 601 H 61.5131 -4.20062 -0.335538 0
M  V30 602 H 60.1881 -3.12255 -0.853138 0
M  V30 603 H 59.0951 -3.45251 1.44057 0
M  V30 604 H 60.4281 -4.54998 1.87716 0
M  V30 605 N 62.0802 -0.821533 -1.34494 0
M  V30 606 C 63.3272 -0.408946 -1.98328 0
M  V30 607 C 63.6552 1.02764 -1.65136 0
M  V30 608 O 62.9102 1.73026 -0.914349 0
M  V30 609 C 63.2092 -0.556512 -3.53041 0
M  V30 610 C 62.8752 -1.95861 -4.0614 0
M  V30 611 C 61.5372 -2.34217 -4.20352 0
M  V30 612 C 63.8892 -2.87523 -4.34718 0
M  V30 613 C 61.2172 -3.63572 -4.6047 0
M  V30 614 C 63.5692 -4.1634 -4.76281 0
M  V30 615 C 62.2332 -4.54675 -4.88699 0
M  V30 616 H 61.5032 -0.149644 -0.725732 0
M  V30 617 H 64.1502 -1.04521 -1.6046 0
M  V30 618 H 62.4552 0.163148 -3.9146 0
M  V30 619 H 64.1522 -0.217826 -4.00408 0
M  V30 620 H 60.7422 -1.65066 -3.95539 0
M  V30 621 H 64.9262 -2.59133 -4.23277 0
M  V30 622 H 60.1822 -3.93101 -4.68275 0
M  V30 623 H 64.3562 -4.87455 -4.97354 0
M  V30 624 H 61.9832 -5.54959 -5.19542 0
M  V30 625 N 63.5583 1.46682 -0.576371 0
M  V30 626 C 64.5213 2.28707 0.150239 0
M  V30 627 C 65.5213 1.38035 0.824794 0
M  V30 628 O 66.7113 1.60476 0.677719 0
M  V30 629 C 63.8433 3.18248 1.22192 0
M  V30 630 H 65.0363 2.94423 -0.570521 0
M  V30 631 H 62.5893 1.52688 -0.334078 0
M  V30 632 H 63.3243 2.57265 1.97447 0
M  V30 633 H 63.1093 3.85 0.742812 0
M  V30 634 H 64.5993 3.80001 1.73172 0
M  V30 635 N 65.0364 0.313813 1.54444 0
M  V30 636 C 66.4524 -0.0391619 1.59552 0
M  V30 637 C 66.6524 -1.51322 1.33056 0
M  V30 638 O 65.7084 -2.26782 1.11022 0
M  V30 639 C 67.0214 0.370302 2.98411 0
M  V30 640 C 68.5694 0.320139 3.11358 0
M  V30 641 C 69.0444 0.704617 4.52547 0
M  V30 642 N 70.5354 0.657645 4.58508 0
M  V30 643 C 71.2704 0.927453 5.6585 0
M  V30 644 N 70.7664 1.26389 6.81174 0
M  V30 645 N 72.5594 0.853662 5.5558 0
M  V30 646 H 64.7104 1.27433 1.69925 0
M  V30 647 H 66.9734 0.517511 0.794284 0
M  V30 648 H 66.6794 1.39694 3.22767 0
M  V30 649 H 66.5534 -0.269619 3.76235 0
M  V30 650 H 68.9404 -0.697275 2.86744 0
M  V30 651 H 69.0214 0.99486 2.35661 0
M  V30 652 H 68.6654 1.7199 4.77893 0
M  V30 653 H 68.5954 0.00768843 5.26599 0
M  V30 654 H 71.0864 0.409067 3.75679 0
M  V30 655 H 71.3994 1.4554 7.58972 0
M  V30 656 H 69.7444 1.30206 6.82694 0
M  V30 657 H 72.9354 0.590383 4.64362 0
M  V30 658 H 73.1084 1.0673 6.3915 0
M  V30 659 N 66.5145 -1.57545 0.0417849 0
M  V30 660 C 67.9305 -1.56467 -0.314704 0
M  V30 661 C 68.1305 -1.04859 -1.72066 0
M  V30 662 O 67.1865 -0.700983 -2.42575 0
M  V30 663 C 68.4995 -3.00317 -0.15174 0
M  V30 664 C 70.0475 -3.12201 -0.223553 0
M  V30 665 C 70.5225 -4.57913 -0.0892295 0
M  V30 666 N 72.0135 -4.6297 -0.145808 0
M  V30 667 C 72.7485 -5.73362 -0.0658459 0
M  V30 668 N 72.2445 -6.92769 0.0659282 0
M  V30 669 N 74.0375 -5.6197 -0.12075 0
M  V30 670 H 66.1885 -1.89416 0.961014 0
M  V30 671 H 68.4515 -0.871862 0.372237 0
M  V30 672 H 68.1575 -3.42073 0.817254 0
M  V30 673 H 68.0315 -3.65892 -0.916692 0
M  V30 674 H 70.4185 -2.70349 -1.18301 0
M  V30 675 H 70.4995 -2.49323 0.571994 0
M  V30 676 H 70.1435 -5.00448 0.866867 0
M  V30 677 H 70.0735 -5.18786 -0.903802 0
M  V30 678 H 72.5645 -3.7709 -0.247286 0
M  V30 679 H 72.8775 -7.72707 0.119905 0
M  V30 680 H 71.2225 -6.94927 0.100885 0
M  V30 681 H 74.4135 -4.67572 -0.222187 0
M  V30 682 H 74.5865 -6.47977 -0.0549735 0
M  V30 683 N 67.9926 0.231505 -1.5589 0
M  V30 684 C 68.9226 1.29022 -1.94617 0
M  V30 685 C 69.9036 1.4941 -0.813067 0
M  V30 686 O 71.0886 1.6176 -1.07459 0
M  V30 687 C 68.2186 2.64199 -2.25424 0
M  V30 688 C 67.1726 2.58484 -3.41131 0
M  V30 689 C 66.4986 3.97599 -3.57518 0
M  V30 690 C 67.7986 2.1413 -4.76388 0
M  V30 691 H 69.4926 0.968563 -2.83301 0
M  V30 692 H 67.0386 0.464479 -1.36303 0
M  V30 693 H 68.9916 3.38413 -2.51107 0
M  V30 694 H 67.7156 2.98032 -1.33583 0
M  V30 695 H 66.3746 1.86727 -3.15481 0
M  V30 696 H 66.0226 4.28723 -2.6307 0
M  V30 697 H 65.7226 3.94659 -4.35337 0
M  V30 698 H 67.2466 4.7349 -3.85538 0
M  V30 699 H 68.6606 2.78083 -5.01341 0
M  V30 700 H 67.0576 2.2227 -5.57419 0
M  V30 701 H 68.1276 1.09331 -4.72414 0
M  V30 702 N 69.4707 1.49531 0.497807 0
M  V30 703 C 70.4337 1.65916 1.58128 0
M  V30 704 C 71.4337 0.530825 1.51786 0
M  V30 705 O 72.6237 0.797342 1.54881 0
M  V30 706 C 69.7557 1.65951 2.9778 0
M  V30 707 H 70.9487 2.62556 1.44929 0
M  V30 708 H 68.5017 1.38611 0.722275 0
M  V30 709 H 69.2367 0.709065 3.16453 0
M  V30 710 H 69.0217 2.47897 3.03792 0
M  V30 711 H 70.5117 1.80673 3.76493 0
M  V30 712 N 70.9488 -0.749086 1.3866 0
M  V30 713 C 72.2258 -1.4992 1.25632 0
M  V30 714 C 72.6058 -2.10633 -0.140317 0
M  V30 715 O 71.9538 -1.97437 -1.15025 0
M  V30 716 C 72.1638 -2.56195 2.36992 0
M  V30 717 C 73.5118 -3.22972 2.75634 0
M  V30 718 O 74.5358 -2.66502 2.36337 0
M  V30 719 O 73.3948 -4.25122 3.43415 0
M  V30 720 H 70.4888 -0.665067 0.491544 0
M  V30 721 H 73.0348 -0.784113 1.50498 0
M  V30 722 H 71.8068 -2.09612 3.30422 0
M  V30 723 H 71.4298 -3.35279 2.13714 0
M  V30 724 N 72.4269 -1.23603 -0.977757 0
M  V30 725 C 73.6749 -1.06759 -1.71601 0
M  V30 726 C 73.9959 0.395929 -1.90938 0
M  V30 727 O 73.2659 1.28356 -1.47992 0
M  V30 728 H 71.8459 -0.392062 -0.635843 0
M  V30 729 H 74.5079 -1.55362 -1.1768 0
M  V30 730 H 73.6039 -1.55763 -2.70452 0
M  V30 731 N 73.905 1.17692 -1.04816 0
M  V30 732 C 75.153 1.87488 -0.754497 0
M  V30 733 C 75.474 1.81205 0.720407 0
M  V30 734 O 74.744 1.23544 1.52032 0
M  V30 735 H 73.324 0.694101 -0.276102 0
M  V30 736 H 75.986 1.42793 -1.32651 0
M  V30 737 H 75.082 2.93328 -1.06606 0
M  V30 738 N 75.3831 0.828654 1.34056 0
M  V30 739 C 76.3131 0.269443 2.3194 0
M  V30 740 C 77.2941 -0.617247 1.58506 0
M  V30 741 O 78.4791 -0.542931 1.86456 0
M  V30 742 C 75.6091 -0.564793 3.42677 0
M  V30 743 C 74.5631 0.225241 4.27407 0
M  V30 744 C 73.8891 -0.7321 5.29664 0
M  V30 745 C 75.1891 1.43663 5.02154 0
M  V30 746 H 76.8831 1.08728 2.7896 0
M  V30 747 H 74.4291 0.524283 1.34117 0
M  V30 748 H 76.3821 -0.966233 4.10173 0
M  V30 749 H 75.1061 -1.41574 2.9432 0
M  V30 750 H 73.7651 0.608117 3.61521 0
M  V30 751 H 73.4131 -1.57916 4.77568 0
M  V30 752 H 73.1131 -0.20767 5.87233 0
M  V30 753 H 74.6371 -1.13128 6.00029 0
M  V30 754 H 76.0511 1.1089 5.62473 0
M  V30 755 H 74.4481 1.89711 5.69324 0
M  V30 756 H 75.5181 2.21181 4.31517 0
M  V30 757 N 76.8612 -1.46375 0.584142 0
M  V30 758 C 77.8112 -2.27371 -0.169232 0
M  V30 759 C 78.7952 -1.35955 -0.860523 0
M  V30 760 O 79.9872 -1.60119 -0.754382 0
M  V30 761 C 77.1162 -3.22334 -1.18134 0
M  V30 762 C 76.2022 -4.21235 -0.492088 0
M  V30 763 N 76.5932 -5.03766 0.453129 0
M  V30 764 C 74.8912 -4.39773 -0.742652 0
M  V30 765 C 75.5922 -5.75366 0.85609 0
M  V30 766 N 74.5682 -5.43214 0.204926 0
M  V30 767 H 78.3702 -2.88572 0.557097 0
M  V30 768 H 75.8842 -1.57242 0.406042 0
M  V30 769 H 77.8812 -3.79071 -1.73525 0
M  V30 770 H 76.5412 -2.62693 -1.90847 0
M  V30 771 H 77.5522 -5.11227 0.828723 0
M  V30 772 H 74.2292 -3.91279 -1.45625 0
M  V30 773 H 75.6192 -6.5172 1.63434 0
M  V30 774 N 78.3393 -0.321999 -1.54275 0
M  V30 775 C 79.5853 0.281461 -2.00837 0
M  V30 776 C 79.9183 1.51909 -1.20985 0
M  V30 777 O 79.1933 1.923 -0.291733 0
M  V30 778 C 79.4763 0.617162 -3.54772 0
M  V30 779 C 79.3293 -0.631064 -4.45351 0
M  V30 780 C 80.6483 1.43542 -4.16033 0
M  V30 781 H 77.7673 0.100826 -0.730071 0
M  V30 782 H 80.4093 -0.438268 -1.84876 0
M  V30 783 H 78.5593 1.23034 -3.68504 0
M  V30 784 H 80.2313 -1.26934 -4.43492 0
M  V30 785 H 78.4743 -1.26025 -4.15091 0
M  V30 786 H 79.1453 -0.351735 -5.50878 0
M  V30 787 H 81.6213 0.917134 -4.05867 0
M  V30 788 H 80.4973 1.63907 -5.23856 0
M  V30 789 H 80.7583 2.43108 -3.69257 0
M  V30 790 N 79.8174 1.5752 -0.0501392 0
M  V30 791 C 81.0664 1.91827 0.623328 0
M  V30 792 C 81.3794 0.930222 1.72065 0
M  V30 793 O 82.5854 1.1653 2.4522 0
M  V30 794 C 81.0414 3.40692 1.16003 0
M  V30 795 C 80.6494 4.479 0.0948811 0
M  V30 796 C 82.3934 3.84034 1.80881 0
M  V30 797 C 80.3004 5.87879 0.644411 0
M  V30 798 H 79.2304 0.715918 0.236596 0
M  V30 799 H 81.8814 1.83115 -0.118861 0
M  V30 800 H 80.2634 3.44405 1.9545 0
M  V30 801 H 81.4374 4.55775 -0.678675 0
M  V30 802 H 79.7524 4.13892 -0.45637 0
M  V30 803 H 82.3494 4.85984 2.22988 0
M  V30 804 H 82.6924 3.20225 2.6601 0
M  V30 805 H 83.2254 3.82833 1.0809 0
M  V30 806 H 79.9644 6.55282 -0.169229 0
M  V30 807 H 79.4844 5.83567 1.38598 0
M  V30 808 H 81.1634 6.37098 1.12763 0
M  V30 809 N 81.2955 -0.223234 1.56011 0
M  V30 810 C 82.7115 -0.572856 1.48965 0
M  V30 811 C 82.9115 -1.87225 0.74492 0
M  V30 812 O 81.9675 -2.50899 0.283896 0
M  V30 813 C 83.2805 -0.653646 2.9351 0
M  V30 814 C 84.8285 -0.744386 3.0402 0
M  V30 815 C 85.3035 -0.856535 4.49919 0
M  V30 816 N 86.7945 -0.9208 4.53955 0
M  V30 817 C 87.5295 -1.02726 5.64123 0
M  V30 818 N 87.0255 -1.09777 6.84047 0
M  V30 819 N 88.8185 -1.06226 5.51971 0
M  V30 820 H 80.9695 0.629462 2.02858 0
M  V30 821 H 83.2325 0.220621 0.921971 0
M  V30 822 H 82.9385 0.231518 3.50937 0
M  V30 823 H 82.8125 -1.51781 3.45315 0
M  V30 824 H 85.1995 -1.61999 2.46658 0
M  V30 825 H 85.2805 0.14541 2.55386 0
M  V30 826 H 84.9245 0.0146069 5.07898 0
M  V30 827 H 84.8545 -1.76172 4.96257 0
M  V30 828 H 87.3455 -0.876694 3.6759 0
M  V30 829 H 87.6585 -1.17872 7.63758 0
M  V30 830 H 86.0035 -1.06693 6.86762 0
M  V30 831 H 89.1945 -1.00382 4.5721 0
M  V30 832 H 89.3675 -1.14177 6.37862 0
M  V30 833 N 82.7736 -1.49793 -0.48987 0
M  V30 834 C 84.0036 -1.6333 -1.26518 0
M  V30 835 C 84.4116 -0.308392 -1.8667 0
M  V30 836 O 83.7546 0.717512 -1.69108 0
M  V30 837 C 83.8166 -2.6522 -2.4269 0
M  V30 838 C 83.4806 -4.09279 -2.03321 0
M  V30 839 C 84.4776 -4.95738 -1.56652 0
M  V30 840 C 82.1626 -4.55082 -2.12616 0
M  V30 841 C 84.1566 -6.26041 -1.19795 0
M  V30 842 C 81.8436 -5.85396 -1.75371 0
M  V30 843 C 82.8416 -6.707 -1.29036 0
M  V30 844 O 82.5296 -7.98584 -0.92299 0
M  V30 845 H 82.2616 -0.552502 -0.389509 0
M  V30 846 H 84.8156 -1.96642 -0.593381 0
M  V30 847 H 83.0456 -2.27112 -3.12981 0
M  V30 848 H 84.7346 -2.68171 -3.04695 0
M  V30 849 H 85.5006 -4.61575 -1.48908 0
M  V30 850 H 81.3796 -3.88844 -2.47631 0
M  V30 851 H 84.9236 -6.92578 -0.835582 0
M  V30 852 H 80.8206 -6.19085 -1.82768 0
M  V30 853 H 81.5886 -8.11692 -1.05349 0
M  V30 854 N 84.2517 0.741722 -1.39055 0
M  V30 855 C 85.5287 1.49252 -1.26425 0
M  V30 856 C 85.9087 2.10705 0.129144 0
M  V30 857 O 85.2567 1.98045 1.13976 0
M  V30 858 C 85.4667 2.54934 -2.38347 0
M  V30 859 C 86.8147 3.21506 -2.77343 0
M  V30 860 O 87.8387 2.65245 -2.37747 0
M  V30 861 O 86.6977 4.23294 -3.45665 0
M  V30 862 H 83.7917 0.662451 -0.495064 0
M  V30 863 H 86.3377 0.776121 -1.50912 0
M  V30 864 H 85.1097 2.07857 -3.31529 0
M  V30 865 H 84.7327 3.34141 -2.15489 0
M  V30 866 N 85.7298 1.2412 0.971189 0
M  V30 867 C 86.6798 0.997551 2.05019 0
M  V30 868 C 87.6638 -0.0597747 1.60789 0
M  V30 869 O 88.8558 0.153516 1.76333 0
M  V30 870 C 85.9848 0.600557 3.38006 0
M  V30 871 C 85.0708 1.69377 3.88809 0
M  V30 872 N 85.4618 2.92586 4.12586 0
M  V30 873 C 83.7598 1.57048 4.17435 0
M  V30 874 C 84.4608 3.63431 4.54195 0
M  V30 875 N 83.4368 2.90979 4.59165 0
M  V30 876 H 87.2388 1.93316 2.21374 0
M  V30 877 H 84.7528 1.14194 1.1547 0
M  V30 878 H 86.7498 0.40725 4.14906 0
M  V30 879 H 85.4098 -0.327903 3.2304 0
M  V30 880 H 86.4208 3.288 4.00139 0
M  V30 881 H 83.0978 0.709798 4.11422 0
M  V30 882 H 84.4878 4.69102 4.81033 0
M  V30 883 N 87.2079 -1.17134 1.05439 0
M  V30 884 C 88.6239 -1.39454 0.776201 0
M  V30 885 C 88.8239 -1.91454 -0.628307 0
M  V30 886 O 87.8799 -2.10777 -1.39031 0
M  V30 887 C 89.1929 -2.38305 1.83388 0
M  V30 888 C 90.7409 -2.52006 1.85639 0
M  V30 889 C 91.2159 -3.54133 2.90437 0
M  V30 890 N 92.7069 -3.61653 2.89415 0
M  V30 891 C 93.4419 -4.4044 3.67152 0
M  V30 892 N 92.9379 -5.22721 4.54681 0
M  V30 893 N 94.7309 -4.35337 3.55581 0
M  V30 894 H 86.8819 -0.817134 1.96053 0
M  V30 895 H 89.1449 -0.421626 0.849079 0
M  V30 896 H 88.8509 -2.07173 2.84204 0
M  V30 897 H 88.7249 -3.37841 1.67761 0
M  V30 898 H 91.1119 -2.82447 0.85486 0
M  V30 899 H 91.1929 -1.52537 2.05344 0
M  V30 900 H 90.8369 -3.24431 3.90777 0
M  V30 901 H 90.7669 -4.53313 2.67983 0
M  V30 902 H 93.2579 -3.02909 2.25952 0
M  V30 903 H 93.5709 -5.80027 5.10674 0
M  V30 904 H 91.9159 -5.22093 4.58741 0
M  V30 905 H 95.1069 -3.70112 2.86592 0
M  V30 906 H 95.2799 -4.96494 4.1641 0
M  V30 907 N 88.686 -0.835752 -1.33615 0
M  V30 908 C 89.963 -0.352017 -1.92406 0
M  V30 909 C 90.343 1.16225 -1.76224 0
M  V30 910 O 89.691 1.97526 -1.14873 0
M  V30 911 C 89.901 -0.795485 -3.39813 0
M  V30 912 C 91.249 -0.801703 -4.16963 0
M  V30 913 O 92.273 -0.738889 -3.48452 0
M  V30 914 O 91.132 -0.886607 -5.3926 0
M  V30 915 H 88.226 -0.0989641 -0.821057 0
M  V30 916 H 90.772 -0.921397 -1.42507 0
M  V30 917 H 89.544 -1.83795 -3.45449 0
M  V30 918 H 89.167 -0.202505 -3.97084 0
M  V30 919 N 90.1641 1.46063 -0.591896 0
M  V30 920 C 91.3921 2.06717 -0.0868936 0
M  V30 921 C 91.8071 1.43916 1.22203 0
M  V30 922 O 91.1641 0.547698 1.74088 0
M  V30 923 C 91.2151 3.6142 0.0758725 0
M  V30 924 O 90.9361 4.21874 -1.18126 0
M  V30 925 C 92.4371 4.39025 0.61416 0
M  V30 926 H 89.6571 0.668162 -0.0616518 0
M  V30 927 H 92.2011 1.8755 -0.815175 0
M  V30 928 H 90.3561 3.79983 0.754413 0
M  V30 929 H 90.7701 5.14861 -1.00092 0
M  V30 930 H 92.2441 5.4783 0.677193 0
M  V30 931 H 92.7211 4.07708 1.63312 0
M  V30 932 H 93.3271 4.2529 -0.0298142 0
M  V30 933 N 91.6422 0.330177 1.54103 0
M  V30 934 C 92.8902 -0.269871 2.0029 0
M  V30 935 C 93.2112 -1.52133 1.21986 0
M  V30 936 O 92.4812 -1.93212 0.323438 0
M  V30 937 H 91.0612 -0.10271 0.739905 0
M  V30 938 H 93.7232 0.448249 1.89675 0
M  V30 939 H 92.8192 -0.52166 3.07709 0
M  V30 940 N 93.1203 -1.57491 0.0584922 0
M  V30 941 C 94.5363 -1.56792 -0.298091 0
M  V30 942 C 94.7363 -1.06679 -1.70944 0
M  V30 943 O 93.7923 -0.726672 -2.41818 0
M  V30 944 C 95.1053 -3.00461 -0.119879 0
M  V30 945 C 96.6533 -3.1242 -0.190428 0
M  V30 946 C 97.1283 -4.57982 -0.0406567 0
M  V30 947 N 98.6193 -4.63099 -0.0966958 0
M  V30 948 C 99.3543 -5.734 -0.00502943 0
M  V30 949 N 98.8503 -6.9266 0.139402 0
M  V30 950 N 100.643 -5.62067 -0.0611391 0
M  V30 951 H 92.7943 -1.88386 0.98105 0
M  V30 952 H 95.0573 -0.867865 0.381463 0
M  V30 953 H 94.7633 -3.41187 0.85349 0
M  V30 954 H 94.6373 -3.66843 -0.877833 0
M  V30 955 H 97.0243 -2.71589 -1.15427 0
M  V30 956 H 97.1053 -2.48702 0.598405 0
M  V30 957 H 96.7493 -4.995 0.919897 0
M  V30 958 H 96.6793 -5.19715 -0.848727 0
M  V30 959 H 99.1703 -3.77331 -0.207277 0
M  V30 960 H 99.4833 -7.72536 0.201855 0
M  V30 961 H 97.8283 -6.94781 0.174586 0
M  V30 962 H 101.019 -4.67782 -0.172583 0
M  V30 963 H 101.192 -6.47999 0.0137562 0
M  V30 964 N 94.5984 0.214957 -1.56127 0
M  V30 965 C 95.8234 0.95924 -1.83884 0
M  V30 966 C 96.2484 1.7689 -0.639644 0
M  V30 967 O 95.6064 1.76566 0.411601 0
M  V30 968 C 95.6544 1.84723 -3.09693 0
M  V30 969 O 94.7584 2.94346 -2.8885 0
M  V30 970 H 94.0994 0.27125 -0.606069 0
M  V30 971 H 96.6294 0.226276 -2.03345 0
M  V30 972 H 96.6394 2.25576 -3.39969 0
M  V30 973 H 95.3144 1.25218 -3.96602 0
M  V30 974 H 93.8914 2.57391 -2.69823 0
M  V30 975 N 96.0765 1.50051 0.48192 0
M  V30 976 C 97.3045 1.64237 1.25832 0
M  V30 977 C 97.7195 0.321336 1.86045 0
M  V30 978 O 97.0765 -0.695478 1.68729 0
M  V30 979 C 97.1275 2.72548 2.37487 0
M  V30 980 O 96.8485 3.99529 1.79745 0
M  V30 981 C 98.3495 2.9761 3.28547 0
M  V30 982 H 95.5695 0.55237 0.380957 0
M  V30 983 H 98.1135 1.96207 0.576467 0
M  V30 984 H 96.2685 2.43303 3.01467 0
M  V30 985 H 96.6825 4.59342 2.5319 0
M  V30 986 H 98.1565 3.77084 4.03127 0
M  V30 987 H 98.6335 2.0826 3.86684 0
M  V30 988 H 99.2395 3.28345 2.70314 0
M  V30 989 N 97.5546 -0.734337 1.39446 0
M  V30 990 C 98.7826 -1.52358 1.39981 0
M  V30 991 C 99.1976 -1.88799 -0.0054975 0
M  V30 992 O 98.5546 -1.54146 -0.976998 0
M  V30 993 C 98.6056 -2.81072 2.27333 0
M  V30 994 O 98.3266 -2.46178 3.62392 0
M  V30 995 C 99.8276 -3.75096 2.36259 0
M  V30 996 H 97.0476 -0.470806 0.478103 0
M  V30 997 H 99.5916 -0.907339 1.83269 0
M  V30 998 H 97.7466 -3.39026 1.87457 0
M  V30 999 H 98.1606 -3.28866 4.08592 0
M  V30 1000 H 99.6346 -4.62305 3.01626 0
M  V30 1001 H 100.112 -4.16892 1.38194 0
M  V30 1002 H 100.718 -3.23061 2.76608 0
M  V30 1003 N 99.0327 -1.24633 -0.964593 0
M  V30 1004 C 100.449 -1.01239 -1.2338 0
M  V30 1005 C 100.649 0.2769 -1.99588 0
M  V30 1006 O 99.7047 0.992241 -2.32187 0
M  V30 1007 C 101.018 -2.22937 -2.01791 0
M  V30 1008 C 102.566 -2.27594 -2.14872 0
M  V30 1009 C 103.041 -3.48921 -2.96678 0
M  V30 1010 N 104.532 -3.49257 -3.04259 0
M  V30 1011 C 105.267 -4.39795 -3.67924 0
M  V30 1012 N 104.763 -5.40591 -4.33281 0
M  V30 1013 N 106.556 -4.275 -3.64966 0
M  V30 1014 H 98.7067 -2.0748 -0.454502 0
M  V30 1015 H 100.97 -0.910647 -0.26349 0
M  V30 1016 H 100.676 -3.16587 -1.53184 0
M  V30 1017 H 100.55 -2.25306 -3.02518 0
M  V30 1018 H 102.937 -1.34473 -2.6268 0
M  V30 1019 H 103.018 -2.2925 -1.13482 0
M  V30 1020 H 102.662 -4.42359 -2.49562 0
M  V30 1021 H 102.592 -3.4451 -3.98272 0
M  V30 1022 H 105.083 -2.76337 -2.57771 0
M  V30 1023 H 105.396 -6.05904 -4.79687 0
M  V30 1024 H 103.741 -5.44475 -4.3194 0
M  V30 1025 H 106.932 -3.47987 -3.13086 0
M  V30 1026 H 107.105 -4.98258 -4.14298 0
M  V30 1027 N 100.511 1.16574 -1.06058 0
M  V30 1028 C 101.788 1.83048 -0.689416 0
M  V30 1029 C 102.168 1.94122 0.829443 0
M  V30 1030 O 101.516 1.48249 1.7388 0
M  V30 1031 C 101.726 3.20186 -1.38859 0
M  V30 1032 C 103.074 3.95989 -1.53226 0
M  V30 1033 O 104.098 3.29696 -1.3483 0
M  V30 1034 O 102.957 5.14813 -1.83384 0
M  V30 1035 H 100.051 0.790258 -0.243764 0
M  V30 1036 H 102.597 1.23797 -1.16071 0
M  V30 1037 H 101.369 3.07146 -2.4244 0
M  V30 1038 H 100.992 3.87112 -0.907216 0
M  V30 1039 N 101.989 0.842826 1.3317 0
M  V30 1040 C 103.236 0.440447 1.97652 0
M  V30 1041 C 103.564 -1.00123 1.6675 0
M  V30 1042 O 102.819 -1.7155 0.941761 0
M  V30 1043 C 103.118 0.612607 3.52111 0
M  V30 1044 C 102.784 2.02297 4.02972 0
M  V30 1045 C 101.446 2.40874 4.16573 0
M  V30 1046 C 103.798 2.94402 4.30089 0
M  V30 1047 C 101.126 3.70852 4.54627 0
M  V30 1048 C 103.478 4.23865 4.69597 0
M  V30 1049 C 102.142 4.62392 4.81404 0
M  V30 1050 H 101.412 0.161171 0.72326 0
M  V30 1051 H 104.059 1.07061 1.58777 0
M  V30 1052 H 102.364 -0.100849 3.9167 0
M  V30 1053 H 104.061 0.2815 4.00011 0
M  V30 1054 H 100.651 1.71338 3.92863 0
M  V30 1055 H 104.835 2.65835 4.19101 0
M  V30 1056 H 100.091 4.00501 4.61962 0
M  V30 1057 H 104.265 4.95306 4.89536 0
M  V30 1058 H 101.892 5.63154 5.10648 0
M  V30 1059 N 103.467 -1.45747 0.599634 0
M  V30 1060 C 104.43 -2.28917 -0.113835 0
M  V30 1061 C 105.43 -1.3933 -0.802729 0
M  V30 1062 O 106.62 -1.61534 -0.652103 0
M  V30 1063 C 103.752 -3.20152 -1.17114 0
M  V30 1064 H 104.945 -2.93478 0.617289 0
M  V30 1065 H 102.498 -1.52137 0.358327 0
M  V30 1066 H 103.233 -2.60374 -1.93329 0
M  V30 1067 H 103.018 -3.86133 -0.681468 0
M  V30 1068 H 104.508 -3.82708 -1.67105 0
M  V30 1069 N 104.945 -0.338344 -1.53925 0
M  V30 1070 C 105.908 0.508299 -2.23493 0
M  V30 1071 C 106.908 1.03175 -1.23335 0
M  V30 1072 O 108.098 0.921826 -1.47811 0
M  V30 1073 C 105.23 1.70754 -2.95052 0
M  V30 1074 H 106.423 -0.100058 -2.99733 0
M  V30 1075 H 103.976 -0.0896198 -1.56043 0
M  V30 1076 H 104.711 2.35474 -2.22986 0
M  V30 1077 H 104.496 1.33946 -3.68512 0
M  V30 1078 H 105.986 2.30818 -3.48013 0
M  V30 1079 N 106.423 1.57458 -0.0668435 0
M  V30 1080 C 107.373 2.0896 0.912119 0
M  V30 1081 C 108.357 0.998186 1.26195 0
M  V30 1082 O 109.549 1.26133 1.24175 0
M  V30 1083 C 106.678 2.6508 2.18145 0
M  V30 1084 C 105.764 3.81218 1.85832 0
M  V30 1085 N 106.155 4.90378 1.23948 0
M  V30 1086 C 104.453 3.9042 2.15612 0
M  V30 1087 C 105.154 5.71279 1.09616 0
M  V30 1088 N 104.13 5.19389 1.60423 0
M  V30 1089 H 107.932 2.90749 0.42924 0
M  V30 1090 H 105.446 1.6182 0.137184 0
M  V30 1091 H 107.443 3.0029 2.89192 0
M  V30 1092 H 106.103 1.84736 2.67025 0
M  V30 1093 H 107.114 5.09847 0.909731 0
M  V30 1094 H 103.791 3.21043 2.66903 0
M  V30 1095 H 105.181 6.69085 0.614425 0
M  V30 1096 N 107.901 -0.206675 1.56239 0
M  V30 1097 C 109.312 -0.772383 1.69974 0
M  V30 1098 C 109.663 -1.84353 0.671436 0
M  V30 1099 O 108.788 -2.15695 -0.174491 0
M  V30 1100 C 109.383 -1.40779 3.08167 0
M  V30 1101 C 107.942 -1.92072 3.23706 0
M  V30 1102 C 107.089 -0.786347 2.65917 0
M  V30 1103 H 110.04 0.0182223 1.5869 0
M  V30 1104 H 110.061 -2.27696 3.04852 0
M  V30 1105 H 109.573 -0.627958 3.82986 0
M  V30 1106 H 107.674 -2.7281 2.53782 0
M  V30 1107 H 107.787 -2.09046 4.31087 0
M  V30 1108 H 106.151 -1.1976 2.24788 0
M  V30 1109 H 106.934 -0.0189416 3.43295 0
M  V30 1110 N 109.379 -1.50304 -0.473955 0
M  V30 1111 C 110.609 -1.64663 -1.24778 0
M  V30 1112 C 111.017 -0.328174 -1.86332 0
M  V30 1113 O 110.36 0.699536 -1.69859 0
M  V30 1114 C 110.422 -2.6778 -2.39863 0
M  V30 1115 C 110.086 -4.11413 -1.98969 0
M  V30 1116 C 111.083 -4.97372 -1.51385 0
M  V30 1117 C 108.768 -4.57312 -2.07777 0
M  V30 1118 C 110.762 -6.27277 -1.13148 0
M  V30 1119 C 108.449 -5.87223 -1.69152 0
M  V30 1120 C 109.447 -6.72031 -1.21915 0
M  V30 1121 O 109.135 -7.99518 -0.838237 0
M  V30 1122 H 108.867 -0.556602 -0.383627 0
M  V30 1123 H 111.421 -1.9726 -0.572491 0
M  V30 1124 H 109.651 -2.30419 -3.10554 0
M  V30 1125 H 111.34 -2.71388 -3.01833 0
M  V30 1126 H 112.106 -4.63128 -1.44004 0
M  V30 1127 H 107.985 -3.91449 -2.43493 0
M  V30 1128 H 111.529 -6.93425 -0.762077 0
M  V30 1129 H 107.426 -6.20989 -1.76191 0
M  V30 1130 H 108.194 -8.12764 -0.967339 0
M  V30 1131 N 110.857 0.726932 -1.39834 0
M  V30 1132 C 112.105 1.4837 -1.37225 0
M  V30 1133 C 112.426 1.94979 0.0284857 0
M  V30 1134 O 111.696 1.69555 0.981213 0
M  V30 1135 H 110.276 0.55043 -0.505011 0
M  V30 1136 H 112.938 0.862468 -1.74778 0
M  V30 1137 H 112.034 2.36198 -2.04003 0
M  V30 1138 N 112.336 1.25143 0.95797 0
M  V30 1139 C 113.583 1.09692 1.70217 0
M  V30 1140 C 113.911 -0.362654 1.91089 0
M  V30 1141 O 113.166 -1.28386 1.47701 0
M  V30 1142 C 113.465 1.79272 3.09187 0
M  V30 1143 C 113.131 3.29196 3.08125 0
M  V30 1144 C 111.793 3.70096 3.07543 0
M  V30 1145 C 114.145 4.24995 3.0171 0
M  V30 1146 C 111.473 5.05213 2.9829 0
M  V30 1147 C 113.825 5.60132 2.93999 0
M  V30 1148 C 112.489 6.00365 2.9175 0
M  V30 1149 H 111.759 0.401393 0.622868 0
M  V30 1150 H 114.406 1.55372 1.11945 0
M  V30 1151 H 112.711 1.26014 3.70982 0
M  V30 1152 H 114.408 1.64773 3.65583 0
M  V30 1153 H 110.998 2.96651 3.09348 0
M  V30 1154 H 115.182 3.9439 3.01281 0
M  V30 1155 H 110.438 5.35569 2.94916 0
M  V30 1156 H 114.612 6.3406 2.87996 0
M  V30 1157 H 112.239 7.05023 2.84336 0
M  V30 1158 N 113.814 -1.1601 1.06675 0
M  V30 1159 C 115.062 -1.86264 0.784229 0
M  V30 1160 C 115.383 -1.82328 -0.691488 0
M  V30 1161 O 114.653 -1.25947 -1.50047 0
M  V30 1162 H 113.233 -0.689621 0.28711 0
M  V30 1163 H 115.895 -1.40664 1.34906 0
M  V30 1164 H 114.991 -2.91595 1.11259 0
M  V30 1165 N 115.292 -0.849877 -1.32721 0
M  V30 1166 C 116.202 -0.293791 -2.32753 0
M  V30 1167 C 117.218 0.585906 -1.63839 0
M  V30 1168 O 118.394 0.487413 -1.95413 0
M  V30 1169 C 115.459 0.512752 -3.42887 0
M  V30 1170 C 114.52 -0.39252 -4.27502 0
M  V30 1171 C 113.753 0.375625 -5.32377 0
M  V30 1172 O 113.976 1.60613 -5.4732 0
M  V30 1173 O 112.91 -0.256094 -6.01355 0
M  V30 1174 H 116.736 -1.12242 -2.82197 0
M  V30 1175 H 114.321 -0.612685 -1.36259 0
M  V30 1176 H 116.203 0.970704 -4.10067 0
M  V30 1177 H 114.878 1.31826 -2.95641 0
M  V30 1178 H 113.785 -0.898547 -3.63149 0
M  V30 1179 H 115.118 -1.16309 -4.7826 0
M  V30 1180 N 116.77 1.45427 -0.607355 0
M  V30 1181 C 117.7 2.3329 0.0989352 0
M  V30 1182 C 118.681 1.46816 0.859007 0
M  V30 1183 O 119.866 1.75588 0.829604 0
M  V30 1184 C 116.996 3.29518 1.09705 0
M  V30 1185 C 115.95 4.25626 0.450206 0
M  V30 1186 C 115.276 5.11542 1.55655 0
M  V30 1187 C 116.576 5.18505 -0.628455 0
M  V30 1188 H 118.27 2.92595 -0.634716 0
M  V30 1189 H 115.816 1.40696 -0.306681 0
M  V30 1190 H 117.769 3.89855 1.59971 0
M  V30 1191 H 116.493 2.68372 1.86129 0
M  V30 1192 H 115.152 3.66586 -0.0315886 0
M  V30 1193 H 114.8 4.46765 2.31107 0
M  V30 1194 H 114.5 5.76647 1.12925 0
M  V30 1195 H 116.024 5.74748 2.06148 0
M  V30 1196 H 117.438 5.72916 -0.209877 0
M  V30 1197 H 115.835 5.92085 -0.977489 0
M  V30 1198 H 116.905 4.60948 -1.50514 0
M  V30 1199 N 118.248 0.346503 1.53744 0
M  V30 1200 C 119.211 -0.496439 2.23759 0
M  V30 1201 C 120.211 -1.0252 1.2388 0
M  V30 1202 O 121.401 -0.913974 1.48297 0
M  V30 1203 C 118.533 -1.69187 2.95954 0
M  V30 1204 H 119.726 0.115952 2.99676 0
M  V30 1205 H 117.279 0.0978939 1.55993 0
M  V30 1206 H 118.014 -2.34288 2.24231 0
M  V30 1207 H 117.799 -1.31989 3.69217 0
M  V30 1208 H 119.289 -2.28969 3.49232 0
M  V30 1209 N 119.726 -1.57421 0.075193 0
M  V30 1210 C 120.689 -2.11791 -0.876203 0
M  V30 1211 C 121.689 -1.04268 -1.22412 0
M  V30 1212 O 122.879 -1.30242 -1.15684 0
M  V30 1213 C 120.011 -2.62207 -2.17854 0
M  V30 1214 H 121.204 -2.9716 -0.40444 0
M  V30 1215 H 118.757 -1.55333 -0.173557 0
M  V30 1216 H 119.492 -1.803 -2.6956 0
M  V30 1217 H 119.277 -3.40802 -1.93897 0
M  V30 1218 H 120.767 -3.04335 -2.85955 0
M  V30 1219 N 121.204 0.198386 -1.56346 0
M  V30 1220 C 122.481 0.944982 -1.71258 0
M  V30 1221 C 122.861 2.0151 -0.629048 0
M  V30 1222 O 122.209 2.25639 0.360473 0
M  V30 1223 C 122.419 1.5344 -3.1346 0
M  V30 1224 C 123.767 2.01778 -3.73591 0
M  V30 1225 O 124.791 1.63288 -3.16568 0
M  V30 1226 O 123.65 2.72594 -4.73661 0
M  V30 1227 H 120.744 0.442939 -0.69838 0
M  V30 1228 H 123.29 0.188342 -1.68652 0
M  V30 1229 H 122.062 0.762869 -3.83792 0
M  V30 1230 H 121.685 2.35596 -3.20282 0
M  V30 1231 N 122.682 1.50554 0.465978 0
M  V30 1232 C 123.645 1.69233 1.54574 0
M  V30 1233 C 124.645 0.562901 1.50626 0
M  V30 1234 O 125.835 0.830016 1.53155 0
M  V30 1235 C 122.967 1.7223 2.94193 0
M  V30 1236 H 124.16 2.65571 1.39327 0
M  V30 1237 H 121.713 1.40111 0.692711 0
M  V30 1238 H 122.448 0.77603 3.14878 0
M  V30 1239 H 122.233 2.54285 2.98466 0
M  V30 1240 H 123.723 1.88618 3.72576 0
M  V30 1241 N 124.16 -0.719506 1.40217 0
M  V30 1242 C 125.406 -1.48152 1.38488 0
M  V30 1243 C 125.739 -1.94195 -0.0141867 0
M  V30 1244 O 125.014 -1.67884 -0.982096 0
M  V30 1245 C 125.297 -2.71035 2.37091 0
M  V30 1246 C 125.15 -2.30912 3.86005 0
M  V30 1247 C 126.469 -3.73182 2.33288 0
M  V30 1248 H 123.588 -0.537395 0.504357 0
M  V30 1249 H 126.23 -0.821472 1.71324 0
M  V30 1250 H 124.38 -3.27352 2.0922 0
M  V30 1251 H 126.052 -1.80107 4.24687 0
M  V30 1252 H 124.295 -1.62958 4.02029 0
M  V30 1253 H 124.966 -3.18978 4.50508 0
M  V30 1254 H 127.442 -3.26485 2.57966 0
M  V30 1255 H 126.318 -4.56806 3.04334 0
M  V30 1256 H 126.579 -4.21202 1.34317 0
M  V30 1257 N 125.638 -1.25649 -0.95132 0
M  V30 1258 C 126.601 -1.06399 -2.03007 0
M  V30 1259 C 127.601 -0.0156794 -1.60792 0
M  V30 1260 O 128.791 -0.25817 -1.72276 0
M  V30 1261 C 125.923 -0.616184 -3.35285 0
M  V30 1262 H 127.116 -2.02164 -2.21517 0
M  V30 1263 H 124.669 -1.08103 -1.12887 0
M  V30 1264 H 125.404 0.343917 -3.22471 0
M  V30 1265 H 125.189 -1.37301 -3.67275 0
M  V30 1266 H 126.679 -0.503032 -4.14559 0
M  V30 1267 N 127.117 1.15442 -1.07289 0
M  V30 1268 C 128.363 1.86489 -0.796846 0
M  V30 1269 C 128.696 1.82078 0.675371 0
M  V30 1270 O 127.971 1.24346 1.4956 0
M  V30 1271 C 128.254 3.35626 -1.30489 0
M  V30 1272 C 128.107 3.48673 -2.84161 0
M  V30 1273 C 129.426 4.30357 -0.920907 0
M  V30 1274 H 126.545 0.677144 -0.290939 0
M  V30 1275 H 129.187 1.35633 -1.33056 0
M  V30 1276 H 127.337 3.79068 -0.850883 0
M  V30 1277 H 129.009 3.14099 -3.37846 0
M  V30 1278 H 127.252 2.90253 -3.22391 0
M  V30 1279 H 127.923 4.53453 -3.14777 0
M  V30 1280 H 130.399 3.94871 -1.3121 0
M  V30 1281 H 129.275 5.33193 -1.30372 0
M  V30 1282 H 129.536 4.4176 0.173226 0
M  V30 1283 N 128.595 0.856903 1.32268 0
M  V30 1284 C 129.525 0.31858 2.31316 0
M  V30 1285 C 130.506 -0.583487 1.59779 0
M  V30 1286 O 131.691 -0.503259 1.87566 0
M  V30 1287 C 128.821 -0.491979 3.43798 0
M  V30 1288 C 127.775 0.315849 4.26833 0
M  V30 1289 C 127.101 -0.619586 5.31098 0
M  V30 1290 C 128.401 1.54282 4.98993 0
M  V30 1291 H 130.095 1.14621 2.76591 0
M  V30 1292 H 127.641 0.552613 1.32974 0
M  V30 1293 H 129.594 -0.879012 4.1213 0
M  V30 1294 H 128.318 -1.35299 2.97257 0
M  V30 1295 H 126.977 0.684664 3.6015 0
M  V30 1296 H 126.625 -1.47751 4.8081 0
M  V30 1297 H 126.325 -0.0830621 5.87541 0
M  V30 1298 H 127.849 -1.00375 6.02293 0
M  V30 1299 H 129.263 1.22796 5.59995 0
M  V30 1300 H 127.66 2.01745 5.65172 0
M  V30 1301 H 128.73 2.30285 4.26728 0
M  V30 1302 N 130.073 -1.45103 0.615059 0
M  V30 1303 C 131.35 -1.95549 0.0448276 0
M  V30 1304 C 131.73 -1.55737 -1.4251 0
M  V30 1305 O 131.078 -0.823556 -2.13143 0
M  V30 1306 C 131.288 -3.48098 0.250785 0
M  V30 1307 C 132.636 -4.24384 0.135509 0
M  V30 1308 O 133.66 -3.55738 0.181299 0
M  V30 1309 O 132.519 -5.46493 0.0268878 0
M  V30 1310 H 129.613 -0.8264 -0.0314845 0
M  V30 1311 H 132.159 -1.55232 0.685642 0
M  V30 1312 H 130.931 -3.7007 1.27139 0
M  V30 1313 H 130.554 -3.95323 -0.424937 0
M  V30 1314 N 131.551 -0.354651 -1.53558 0
M  V30 1315 C 132.799 0.237972 -2.00694 0
M  V30 1316 C 133.12 1.50173 -1.24391 0
M  V30 1317 O 132.39 1.92673 -0.354135 0
M  V30 1318 H 130.97 0.0909256 -0.741446 0
M  V30 1319 H 133.632 -0.478368 -1.88938 0
M  V30 1320 H 132.728 0.47264 -3.085 0
M  V30 1321 N 133.029 1.57378 -0.0835403 0
M  V30 1322 C 134.275 1.95025 0.577664 0
M  V30 1323 C 134.63 0.964049 1.66505 0
M  V30 1324 O 133.923 -0.0118235 1.91596 0
M  V30 1325 C 134.117 3.37063 1.1884 0
M  V30 1326 C 133.946 4.49409 0.16171 0
M  V30 1327 C 132.716 5.04642 -0.257756 0
M  V30 1328 C 134.914 5.10722 -0.605634 0
M  V30 1329 N 132.896 6.00537 -1.27393 0
M  V30 1330 C 134.267 6.02225 -1.47395 0
M  V30 1331 C 136.322 4.93501 -0.660418 0
M  V30 1332 C 135.025 6.78355 -2.39221 0
M  V30 1333 C 137.051 5.70283 -1.56623 0
M  V30 1334 C 136.413 6.61444 -2.4222 0
M  V30 1335 H 132.512 0.760512 0.182058 0
M  V30 1336 H 135.096 1.94013 -0.163419 0
M  V30 1337 H 133.267 3.3879 1.89936 0
M  V30 1338 H 134.999 3.61917 1.81103 0
M  V30 1339 H 131.754 4.73428 0.127702 0
M  V30 1340 H 132.178 6.53184 -1.77987 0
M  V30 1341 H 136.82 4.22798 -0.0128221 0
M  V30 1342 H 134.538 7.48327 -3.05011 0
M  V30 1343 H 138.124 5.58976 -1.61361 0
M  V30 1344 H 137.004 7.1982 -3.11174 0
M  V30 1345 N 134.507 -0.190092 1.56449 0
M  V30 1346 C 135.755 -0.907908 1.80559 0
M  V30 1347 C 136.076 -1.83583 0.657438 0
M  V30 1348 O 135.346 -1.93203 -0.323924 0
M  V30 1349 H 133.926 -0.338247 0.666032 0
M  V30 1350 H 136.588 -0.194403 1.93928 0
M  V30 1351 H 135.684 -1.49604 2.73907 0
M  V30 1352 N 135.985 -1.50799 -0.457987 0
M  V30 1353 C 137.231 -1.62683 -1.21088 0
M  V30 1354 C 137.564 -0.332268 -1.91336 0
M  V30 1355 O 136.839 0.667043 -1.82704 0
M  V30 1356 C 137.122 -2.81615 -2.24422 0
M  V30 1357 C 136.975 -4.20989 -1.58392 0
M  V30 1358 C 138.294 -2.96085 -3.2561 0
M  V30 1359 H 135.413 -0.592087 -0.438864 0
M  V30 1360 H 138.055 -1.83225 -0.50286 0
M  V30 1361 H 136.205 -2.64231 -2.84806 0
M  V30 1362 H 137.877 -4.49994 -1.01504 0
M  V30 1363 H 136.12 -4.24641 -0.886704 0
M  V30 1364 H 136.791 -5.0016 -2.33547 0
M  V30 1365 H 139.267 -3.12042 -2.75262 0
M  V30 1366 H 138.143 -3.80902 -3.95228 0
M  V30 1367 H 138.404 -2.0726 -3.90507 0
M  V30 1368 N 137.463 0.71206 -1.40597 0
M  V30 1369 C 138.74 1.46536 -1.29563 0
M  V30 1370 C 139.12 2.10931 0.0844217 0
M  V30 1371 O 138.468 2.00418 1.0975 0
M  V30 1372 C 138.678 2.49821 -2.43701 0
M  V30 1373 C 140.026 3.15551 -2.841 0
M  V30 1374 O 141.05 2.60142 -2.4332 0
M  V30 1375 O 139.909 4.15867 -3.54566 0
M  V30 1376 H 137.003 0.651801 -0.509004 0
M  V30 1377 H 139.549 0.743935 -1.52524 0
M  V30 1378 H 138.321 2.00778 -3.35863 0
M  V30 1379 H 137.944 3.29495 -2.22528 0
M  V30 1380 N 138.941 1.26152 0.944643 0
M  V30 1381 C 140.357 1.03189 1.21754 0
M  V30 1382 C 140.557 -0.245112 2.00004 0
M  V30 1383 O 139.613 -0.955176 2.33736 0
M  V30 1384 C 140.926 2.26119 1.98219 0
M  V30 1385 C 142.474 2.30984 2.11224 0
M  V30 1386 C 142.949 3.53597 2.91089 0
M  V30 1387 N 144.44 3.54053 2.98664 0
M  V30 1388 C 145.175 4.45593 3.60881 0
M  V30 1389 N 144.671 5.47416 4.24626 0
M  V30 1390 N 146.464 4.33252 3.58119 0
M  V30 1391 H 138.615 2.08177 0.421437 0
M  V30 1392 H 140.878 0.914723 0.248969 0
M  V30 1393 H 140.584 3.18984 1.48128 0
M  V30 1394 H 140.458 2.3009 2.98895 0
M  V30 1395 H 142.845 1.38635 2.60508 0
M  V30 1396 H 142.926 2.31026 1.09821 0
M  V30 1397 H 142.57 4.46273 2.42493 0
M  V30 1398 H 142.5 3.50802 3.92741 0
M  V30 1399 H 144.991 2.80403 2.53343 0
M  V30 1400 H 145.304 6.13459 4.69987 0
M  V30 1401 H 143.649 5.51278 4.23223 0
M  V30 1402 H 146.84 3.52924 3.0751 0
M  V30 1403 H 147.013 5.04786 4.06319 0
M  V30 1404 N 140.419 -1.14872 1.07899 0
M  V30 1405 C 141.382 -2.17986 0.708161 0
M  V30 1406 C 142.382 -1.58775 -0.25442 0
M  V30 1407 O 143.572 -1.74166 -0.034645 0
M  V30 1408 C 140.704 -3.40871 0.0446929 0
M  V30 1409 H 141.897 -2.52306 1.62116 0
M  V30 1410 H 139.45 -1.2943 0.876218 0
M  V30 1411 H 140.185 -3.12124 -0.880281 0
M  V30 1412 H 139.97 -3.8511 0.737091 0
M  V30 1413 H 141.46 -4.17121 -0.19991 0
M  V30 1414 N 141.898 -0.863906 -1.31812 0
M  V30 1415 C 142.848 -0.286898 -2.26188 0
M  V30 1416 C 143.832 0.572577 -1.50367 0
M  V30 1417 O 145.024 0.420447 -1.71934 0
M  V30 1418 C 142.153 0.515849 -3.39402 0
M  V30 1419 C 141.239 -0.356531 -4.22599 0
M  V30 1420 N 141.63 -1.44716 -4.84656 0
M  V30 1421 C 139.928 -0.147898 -4.45755 0
M  V30 1422 C 140.629 -1.98462 -5.46798 0
M  V30 1423 N 139.605 -1.28247 -5.28255 0
M  V30 1424 H 143.407 -1.12055 -2.717 0
M  V30 1425 H 140.921 -0.711012 -1.46008 0
M  V30 1426 H 142.918 0.945701 -4.06032 0
M  V30 1427 H 141.578 1.34718 -2.95434 0
M  V30 1428 H 142.589 -1.83008 -4.84488 0
M  V30 1429 H 139.266 0.647973 -4.12441 0
M  V30 1430 H 140.656 -2.89932 -6.06126 0
M  V30 1431 N 143.376 1.44774 -0.622745 0
M  V30 1432 C 144.622 2.0242 -0.124083 0
M  V30 1433 C 144.955 1.4881 1.24777 0
M  V30 1434 O 144.23 0.668799 1.8264 0
M  V30 1435 C 144.513 3.59957 -0.101619 0
M  V30 1436 C 144.366 4.23867 -1.50521 0
M  V30 1437 C 145.685 4.36284 0.578272 0
M  V30 1438 H 142.804 0.735528 -0.0465645 0
M  V30 1439 H 145.446 1.72447 -0.797617 0
M  V30 1440 H 143.596 3.85623 0.471934 0
M  V30 1441 H 145.268 4.09336 -2.12701 0
M  V30 1442 H 143.511 3.81684 -2.06154 0
M  V30 1443 H 144.182 5.32843 -1.4416 0
M  V30 1444 H 146.658 4.16001 0.0906057 0
M  V30 1445 H 145.534 5.46004 0.563149 0
M  V30 1446 H 145.795 4.10271 1.64713 0
M  V30 1447 N 144.854 0.36279 1.53368 0
M  V30 1448 C 146.1 -0.228113 2.01513 0
M  V30 1449 C 146.433 -1.48648 1.2497 0
M  V30 1450 O 145.708 -1.91459 0.342616 0
M  V30 1451 C 145.991 -0.522884 3.56284 0
M  V30 1452 C 145.844 0.74892 4.43521 0
M  V30 1453 C 147.163 -1.32461 4.19693 0
M  V30 1454 H 144.282 -0.0814343 0.732487 0
M  V30 1455 H 146.924 0.48713 1.83649 0
M  V30 1456 H 145.074 -1.1322 3.71636 0
M  V30 1457 H 146.746 1.38648 4.39971 0
M  V30 1458 H 144.989 1.36986 4.11603 0
M  V30 1459 H 145.66 0.497667 5.49752 0
M  V30 1460 H 148.136 -0.809203 4.08156 0
M  V30 1461 H 147.012 -1.49961 5.28018 0
M  V30 1462 H 147.273 -2.33232 3.75573 0
M  V30 1463 N 146.332 -1.57332 0.0918853 0
M  V30 1464 C 147.58 -1.93853 -0.571446 0
M  V30 1465 C 147.901 -0.974212 -1.6892 0
M  V30 1466 O 147.171 -0.0257254 -1.95883 0
M  V30 1467 H 145.751 -0.715666 -0.214082 0
M  V30 1468 H 148.413 -1.94287 0.154464 0
M  V30 1469 H 147.509 -2.96191 -0.983729 0
M  V30 1470 N 147.81 0.181792 -1.56548 0
M  V30 1471 C 148.74 1.22765 -1.98623 0
M  V30 1472 C 149.721 1.46747 -0.860189 0
M  V30 1473 O 150.906 1.58259 -1.12551 0
M  V30 1474 C 148.036 2.56894 -2.33715 0
M  V30 1475 C 146.99 2.475 -3.49182 0
M  V30 1476 C 146.316 3.86023 -3.69986 0
M  V30 1477 C 147.616 1.98866 -4.82959 0
M  V30 1478 H 149.31 0.877942 -2.86239 0
M  V30 1479 H 146.856 0.42088 -1.37712 0
M  V30 1480 H 148.809 3.30253 -2.61746 0
M  V30 1481 H 147.533 2.93632 -1.42997 0
M  V30 1482 H 146.192 1.76596 -3.21262 0
M  V30 1483 H 145.84 4.20136 -2.76576 0
M  V30 1484 H 145.54 3.80609 -4.47672 0
M  V30 1485 H 147.064 4.60984 -4.00407 0
M  V30 1486 H 148.478 2.61992 -5.09934 0
M  V30 1487 H 146.875 2.04424 -5.64208 0
M  V30 1488 H 147.945 0.942465 -4.75653 0
M  V30 1489 N 149.288 1.51039 0.449983 0
M  V30 1490 C 150.513 1.6715 1.22783 0
M  V30 1491 C 150.938 0.363081 1.84563 0
M  V30 1492 O 150.296 -0.675433 1.68249 0
M  V30 1493 C 150.344 2.77985 2.29689 0
M  V30 1494 O 149.448 2.40707 3.34864 0
M  V30 1495 H 148.789 0.557746 0.360299 0
M  V30 1496 H 151.319 1.97535 0.533005 0
M  V30 1497 H 151.329 3.01693 2.74673 0
M  V30 1498 H 150.004 3.72935 1.84098 0
M  V30 1499 H 148.581 2.27523 2.95445 0
M  V30 1500 N 150.766 -0.704594 1.40972 0
M  V30 1501 C 151.699 -1.82861 1.36518 0
M  V30 1502 C 152.677 -1.6091 0.23382 0
M  V30 1503 O 153.861 -1.83778 0.419271 0
M  V30 1504 C 150.988 -3.1939 1.12729 0
M  V30 1505 C 150.034 -3.60148 2.28463 0
M  V30 1506 S 150.867 -3.65994 3.90907 0
M  V30 1507 C 152.023 -5.05264 3.69403 0
M  V30 1508 H 152.256 -1.86361 2.3164 0
M  V30 1509 H 149.789 -0.872439 1.27389 0
M  V30 1510 H 151.747 -3.98211 0.996893 0
M  V30 1511 H 150.408 -3.1351 0.192427 0
M  V30 1512 H 149.601 -4.59309 2.07489 0
M  V30 1513 H 149.203 -2.88612 2.37863 0
M  V30 1514 H 151.495 -5.92504 3.28551 0
M  V30 1515 H 152.438 -5.31278 4.68134 0
M  V30 1516 H 152.846 -4.76377 3.02862 0
M  V30 1517 N 152.244 -1.26651 -0.937939 0
M  V30 1518 C 153.492 -1.12165 -1.68118 0
M  V30 1519 C 153.813 0.334983 -1.92101 0
M  V30 1520 O 153.083 1.23583 -1.52 0
M  V30 1521 H 151.663 -0.412093 -0.623048 0
M  V30 1522 H 154.325 -1.59027 -1.12678 0
M  V30 1523 H 153.421 -1.64289 -2.6536 0
M  V30 1524 N 153.722 1.14298 -1.08507 0
M  V30 1525 C 154.685 2.17607 -0.719711 0
M  V30 1526 C 155.685 1.58907 0.245997 0
M  V30 1527 O 156.875 1.74181 0.0254081 0
M  V30 1528 C 154.007 3.40842 -0.0627695 0
M  V30 1529 H 155.2 2.51443 -1.63452 0
M  V30 1530 H 152.753 1.28963 -0.88307 0
M  V30 1531 H 153.488 3.12587 0.863716 0
M  V30 1532 H 153.273 3.84713 -0.757504 0
M  V30 1533 H 154.763 4.17221 0.177786 0
M  V30 1534 N 155.201 0.870884 1.31352 0
M  V30 1535 C 156.429 0.49677 2.00848 0
M  V30 1536 C 156.844 -0.910998 1.65367 0
M  V30 1537 O 156.201 -1.59696 0.883374 0
M  V30 1538 C 156.252 0.645308 3.55694 0
M  V30 1539 O 155.973 1.99764 3.89905 0
M  V30 1540 C 157.474 0.272326 4.42463 0
M  V30 1541 H 154.694 0.193462 0.642506 0
M  V30 1542 H 157.238 1.1723 1.67563 0
M  V30 1543 H 155.393 0.0173176 3.87396 0
M  V30 1544 H 155.807 2.00607 4.84621 0
M  V30 1545 H 157.281 0.427208 5.50344 0
M  V30 1546 H 157.758 -0.788587 4.32062 0
M  V30 1547 H 158.364 0.876054 4.1618 0
M  V30 1548 N 156.679 -1.44442 0.630414 0
M  V30 1549 C 157.928 -2.01267 0.132073 0
M  V30 1550 C 158.241 -1.50172 -1.25331 0
M  V30 1551 O 159.447 -1.9912 -1.84562 0
M  V30 1552 C 157.903 -3.59422 0.185362 0
M  V30 1553 C 157.511 -4.19514 1.57201 0
M  V30 1554 C 159.255 -4.23724 -0.256553 0
M  V30 1555 C 157.162 -5.69891 1.58045 0
M  V30 1556 H 156.092 -0.752619 0.0456092 0
M  V30 1557 H 158.743 -1.65666 0.789106 0
M  V30 1558 H 157.125 -3.92318 -0.538759 0
M  V30 1559 H 158.299 -3.98156 2.31966 0
M  V30 1560 H 156.614 -3.67496 1.95795 0
M  V30 1561 H 159.211 -5.34019 -0.269767 0
M  V30 1562 H 159.554 -3.96013 -1.28372 0
M  V30 1563 H 160.087 -3.95629 0.41505 0
M  V30 1564 H 156.826 -6.02336 2.58597 0
M  V30 1565 H 156.346 -5.93373 0.875725 0
M  V30 1566 H 158.025 -6.33515 1.31408 0
M  V30 1567 N 158.157 -0.370918 -1.53173 0
M  V30 1568 C 159.385 0.217704 -2.05751 0
M  V30 1569 C 159.8 1.42018 -1.24404 0
M  V30 1570 O 159.157 1.80245 -0.286033 0
M  V30 1571 C 159.208 0.605954 -3.56385 0
M  V30 1572 O 158.929 -0.548734 -4.3465 0
M  V30 1573 C 160.43 1.2524 -4.25241 0
M  V30 1574 H 157.65 0.0371659 -0.66997 0
M  V30 1575 H 160.194 -0.530832 -1.9749 0
M  V30 1576 H 158.349 1.3044 -3.6478 0
M  V30 1577 H 158.763 -0.23376 -5.23979 0
M  V30 1578 H 160.237 1.47458 -5.3194 0
M  V30 1579 H 160.714 2.2143 -3.79296 0
M  V30 1580 H 161.32 0.595233 -4.21114 0
M  V30 1581 N 159.635 1.57281 -0.100228 0
M  V30 1582 C 160.567 2.11342 0.886972 0
M  V30 1583 C 161.58 1.05182 1.24261 0
M  V30 1584 O 162.769 1.32613 1.19483 0
M  V30 1585 C 159.869 2.5825 2.19454 0
M  V30 1586 C 159.042 3.88302 2.01346 0
M  V30 1587 C 158.101 4.21004 3.15661 0
M  V30 1588 O 157.127 4.9014 2.89398 0
M  V30 1589 N 158.329 3.76818 4.41575 0
M  V30 1590 H 161.094 2.96668 0.425216 0
M  V30 1591 H 158.655 1.61678 0.0847334 0
M  V30 1592 H 160.647 2.7717 2.94888 0
M  V30 1593 H 159.217 1.77907 2.57037 0
M  V30 1594 H 158.437 3.7848 1.10212 0
M  V30 1595 H 159.725 4.73375 1.8653 0
M  V30 1596 H 159.123 3.2102 4.65792 0
M  V30 1597 H 157.68 4.00882 5.13942 0
M  V30 1598 N 161.113 -0.173488 1.56642 0
M  V30 1599 C 162.359 -0.891784 1.8214 0
M  V30 1600 C 162.692 -1.8199 0.677736 0
M  V30 1601 O 161.967 -1.91842 -0.320446 0
M  V30 1602 C 162.25 -1.68933 3.18015 0
M  V30 1603 C 162.103 -0.784487 4.42906 0
M  V30 1604 C 163.422 -2.65748 3.50808 0
M  V30 1605 H 160.541 -0.322761 0.662567 0
M  V30 1606 H 163.183 -0.158095 1.89341 0
M  V30 1607 H 161.333 -2.31482 3.12007 0
M  V30 1608 H 163.005 -0.172046 4.60979 0
M  V30 1609 H 161.248 -0.0924117 4.33702 0
M  V30 1610 H 161.919 -1.37799 5.34524 0
M  V30 1611 H 164.395 -2.13327 3.57255 0
M  V30 1612 H 163.271 -3.18619 4.4696 0
M  V30 1613 H 163.532 -3.45842 2.75401 0
M  V30 1614 N 162.591 -1.51276 -0.441967 0
M  V30 1615 C 163.84 -1.6295 -1.18871 0
M  V30 1616 C 164.153 -0.349312 -1.92456 0
M  V30 1617 O 165.359 -0.345355 -2.69295 0
M  V30 1618 C 163.815 -2.87759 -2.16155 0
M  V30 1619 C 163.423 -4.22764 -1.48239 0
M  V30 1620 C 165.167 -3.08788 -2.91291 0
M  V30 1621 C 163.074 -5.38728 -2.4398 0
M  V30 1622 H 162.004 -0.606913 -0.447406 0
M  V30 1623 H 164.655 -1.77739 -0.456205 0
M  V30 1624 H 163.037 -2.66593 -2.92821 0
M  V30 1625 H 164.211 -4.54293 -0.771635 0
M  V30 1626 H 162.526 -4.07575 -0.852741 0
M  V30 1627 H 165.123 -3.92599 -3.63002 0
M  V30 1628 H 165.466 -2.21679 -3.5237 0
M  V30 1629 H 165.999 -3.30272 -2.21733 0
M  V30 1630 H 162.738 -6.28082 -1.87598 0
M  V30 1631 H 162.258 -5.1158 -3.13123 0
M  V30 1632 H 163.937 -5.70489 -3.05207 0
M  V30 1633 N 164.069 0.697108 -1.41344 0
M  V30 1634 C 165.032 1.79281 -1.42797 0
M  V30 1635 C 166.032 1.57607 -0.318837 0
M  V30 1636 O 167.222 1.64309 -0.578642 0
M  V30 1637 C 164.354 3.17632 -1.23785 0
M  V30 1638 H 165.547 1.79385 -2.40335 0
M  V30 1639 H 163.1 0.904582 -1.27464 0
M  V30 1640 H 163.835 3.23167 -0.270814 0
M  V30 1641 H 163.62 3.34765 -2.04144 0
M  V30 1642 H 165.11 3.97617 -1.27633 0
M  V30 1643 N 165.547 1.27147 0.931209 0
M  V30 1644 C 166.477 1.12081 2.04842 0
M  V30 1645 C 167.458 0.0232364 1.70084 0
M  V30 1646 O 168.643 0.197085 1.93197 0
M  V30 1647 C 165.773 0.76354 3.38803 0
M  V30 1648 C 164.727 1.81396 3.87659 0
M  V30 1649 C 164.053 1.31075 5.18385 0
M  V30 1650 C 165.353 3.21739 4.11438 0
M  V30 1651 H 167.047 2.05537 2.17703 0
M  V30 1652 H 164.593 0.989603 1.04608 0
M  V30 1653 H 166.546 0.644982 4.16435 0
M  V30 1654 H 165.27 -0.206727 3.25945 0
M  V30 1655 H 163.929 1.92136 3.12217 0
M  V30 1656 H 163.577 0.330037 5.01916 0
M  V30 1657 H 163.277 2.013 5.52044 0
M  V30 1658 H 164.801 1.20506 5.98591 0
M  V30 1659 H 166.215 3.14019 4.79651 0
M  V30 1660 H 164.612 3.89644 4.56397 0
M  V30 1661 H 165.682 3.67054 3.16859 0
M  V30 1662 N 167.025 -1.13721 1.09112 0
M  V30 1663 C 168.302 -1.81155 0.737706 0
M  V30 1664 C 168.682 -1.96253 -0.777683 0
M  V30 1665 O 168.03 -1.52807 -1.69889 0
M  V30 1666 C 168.24 -3.16392 1.47299 0
M  V30 1667 C 169.588 -3.91787 1.63671 0
M  V30 1668 O 170.612 -3.26005 1.43524 0
M  V30 1669 O 169.471 -5.0977 1.96969 0
M  V30 1670 H 166.565 -0.783518 0.26463 0
M  V30 1671 H 169.111 -1.20676 1.19312 0
M  V30 1672 H 167.883 -3.0061 2.50498 0
M  V30 1673 H 167.506 -3.8457 1.00953 0
M  V30 1674 N 168.503 -0.877838 -1.30888 0
M  V30 1675 C 169.453 -0.310872 -2.25871 0
M  V30 1676 C 170.437 0.556596 -1.50966 0
M  V30 1677 O 171.629 0.402187 -1.7237 0
M  V30 1678 C 168.758 0.479821 -3.3993 0
M  V30 1679 C 167.844 -0.401333 -4.22197 0
M  V30 1680 N 168.235 -1.49848 -4.83093 0
M  V30 1681 C 166.533 -0.195167 -4.45573 0
M  V30 1682 C 167.234 -2.0425 -5.44662 0
M  V30 1683 N 166.21 -1.33843 -5.26865 0
M  V30 1684 H 170.012 -1.1493 -2.70496 0
M  V30 1685 H 167.526 -0.726458 -1.45246 0
M  V30 1686 H 169.523 0.902582 -4.07012 0
M  V30 1687 H 168.183 1.31577 -2.96846 0
M  V30 1688 H 169.194 -1.88137 -4.82519 0
M  V30 1689 H 165.871 0.604192 -4.13105 0
M  V30 1690 H 167.261 -2.96345 -6.03017 0
M  V30 1691 N 169.982 1.44106 -0.638065 0
M  V30 1692 C 170.932 2.27843 0.0847285 0
M  V30 1693 C 171.916 1.39055 0.809471 0
M  V30 1694 O 173.108 1.62808 0.694435 0
M  V30 1695 C 170.237 3.26497 1.06089 0
M  V30 1696 C 169.323 4.22772 0.33541 0
M  V30 1697 N 169.714 5.01737 -0.639787 0
M  V30 1698 C 168.012 4.42227 0.578921 0
M  V30 1699 C 168.713 5.71792 -1.06904 0
M  V30 1700 N 167.689 5.42079 -0.406395 0
M  V30 1701 H 171.491 2.86305 -0.663814 0
M  V30 1702 H 169.005 1.55627 -0.464122 0
M  V30 1703 H 171.002 3.8525 1.59337 0
M  V30 1704 H 169.662 2.69595 1.80966 0
M  V30 1705 H 170.673 5.07799 -1.01789 0
M  V30 1706 H 167.35 3.96415 1.31003 0
M  V30 1707 H 168.74 6.45205 -1.8751 0
M  V30 1708 N 171.46 0.379036 1.52974 0
M  V30 1709 C 172.737 -0.263479 1.93817 0
M  V30 1710 C 173.117 -1.65244 1.31368 0
M  V30 1711 O 172.465 -2.23448 0.477856 0
M  V30 1712 C 172.675 -0.300166 3.47707 0
M  V30 1713 C 174.023 -0.534061 4.21228 0
M  V30 1714 O 175.047 -0.38081 3.54159 0
M  V30 1715 O 173.906 -0.833501 5.40106 0
M  V30 1716 H 171 -0.161149 0.811147 0
M  V30 1717 H 173.546 0.432798 1.64088 0
M  V30 1718 H 172.318 0.673138 3.85467 0
M  V30 1719 H 171.941 -1.04179 3.83709 0
M  V30 1720 N 172.938 -1.57226 0.108567 0
M  V30 1721 C 174.354 -1.5766 -0.248058 0
M  V30 1722 C 174.554 -1.12063 -1.67464 0
M  V30 1723 O 173.61 -0.803236 -2.39383 0
M  V30 1724 C 174.923 -3.0069 -0.0242287 0
M  V30 1725 C 176.471 -3.12868 -0.0909372 0
M  V30 1726 C 176.946 -4.57879 0.105067 0
M  V30 1727 N 178.437 -4.63172 0.0506846 0
M  V30 1728 C 179.172 -5.73126 0.177396 0
M  V30 1729 N 178.668 -6.91866 0.359696 0
M  V30 1730 N 180.461 -5.61977 0.117709 0
M  V30 1731 H 172.612 -1.85169 1.04049 0
M  V30 1732 H 174.875 -0.85529 0.40888 0
M  V30 1733 H 174.581 -3.38299 0.961604 0
M  V30 1734 H 174.455 -3.6945 -0.76068 0
M  V30 1735 H 176.842 -2.75124 -1.06729 0
M  V30 1736 H 176.923 -2.46672 0.677225 0
M  V30 1737 H 176.567 -4.96321 1.07834 0
M  V30 1738 H 176.497 -5.22153 -0.682954 0
M  V30 1739 H 178.988 -3.778 -0.0871266 0
M  V30 1740 H 179.301 -7.71503 0.447529 0
M  V30 1741 H 177.646 -6.93874 0.395536 0
M  V30 1742 H 180.837 -4.68094 -0.0236741 0
M  V30 1743 H 181.01 -6.47627 0.219905 0
M  V30 1744 N 174.416 0.165178 -1.56732 0
M  V30 1745 C 175.346 1.20651 -1.99914 0
M  V30 1746 C 176.327 1.45827 -0.875705 0
M  V30 1747 O 177.512 1.57057 -1.14223 0
M  V30 1748 C 174.642 2.54401 -2.36427 0
M  V30 1749 C 173.596 2.43782 -3.51787 0
M  V30 1750 C 172.922 3.82078 -3.7406 0
M  V30 1751 C 174.222 1.93732 -4.85041 0
M  V30 1752 H 175.916 0.847534 -2.87154 0
M  V30 1753 H 173.462 0.40625 -1.38151 0
M  V30 1754 H 175.415 3.27458 -2.65234 0
M  V30 1755 H 174.139 2.92098 -1.46103 0
M  V30 1756 H 172.798 1.73178 -3.23117 0
M  V30 1757 H 172.446 4.17179 -2.81017 0
M  V30 1758 H 172.146 3.7584 -4.51684 0
M  V30 1759 H 173.67 4.56712 -4.05274 0
M  V30 1760 H 175.084 2.56569 -5.12684 0
M  V30 1761 H 173.481 1.98428 -5.66345 0
M  V30 1762 H 174.551 0.891962 -4.76626 0
M  V30 1763 N 175.894 1.51508 0.433938 0
M  V30 1764 C 177.119 1.68443 1.21003 0
M  V30 1765 C 177.544 0.382636 1.84167 0
M  V30 1766 O 176.902 -0.65755 1.68956 0
M  V30 1767 C 176.95 2.80405 2.26727 0
M  V30 1768 O 176.054 2.44245 3.32292 0
M  V30 1769 H 175.395 0.561536 0.354363 0
M  V30 1770 H 177.925 1.9809 0.512024 0
M  V30 1771 H 177.935 3.0459 2.71457 0
M  V30 1772 H 176.61 3.74867 1.80132 0
M  V30 1773 H 175.187 2.30644 2.93015 0
M  V30 1774 N 177.372 -0.689602 1.41712 0
M  V30 1775 C 178.597 -1.48329 1.44959 0
M  V30 1776 C 179.022 -1.8801 0.0581283 0
M  V30 1777 O 178.38 -1.55026 -0.940035 0
M  V30 1778 C 178.428 -2.71835 2.36935 0
M  V30 1779 O 177.532 -3.69549 1.8305 0
M  V30 1780 H 176.873 -0.446199 0.491734 0
M  V30 1781 H 179.403 -0.847127 1.86239 0
M  V30 1782 H 179.413 -3.20076 2.53013 0
M  V30 1783 H 178.088 -2.42291 3.38035 0
M  V30 1784 H 176.665 -3.2851 1.76452 0
M  V30 1785 N 178.85 -1.27639 -0.924453 0
M  V30 1786 C 179.78 -1.13166 -2.04244 0
M  V30 1787 C 180.761 -0.032256 -1.70069 0
M  V30 1788 O 181.946 -0.207328 -1.9309 0
M  V30 1789 C 179.076 -0.781496 -3.38393 0
M  V30 1790 C 178.03 -1.83449 -3.86692 0
M  V30 1791 C 177.356 -1.33822 -5.17683 0
M  V30 1792 C 178.656 -3.23917 -4.09726 0
M  V30 1793 H 180.35 -2.06689 -2.1661 0
M  V30 1794 H 177.896 -0.995136 -1.04082 0
M  V30 1795 H 179.849 -0.667057 -4.16087 0
M  V30 1796 H 178.573 0.189439 -3.2605 0
M  V30 1797 H 177.232 -1.93789 -3.11193 0
M  V30 1798 H 176.88 -0.35665 -5.01734 0
M  V30 1799 H 176.58 -2.04224 -5.50968 0
M  V30 1800 H 178.104 -1.23679 -5.97943 0
M  V30 1801 H 179.518 -3.16559 -4.77978 0
M  V30 1802 H 177.915 -3.92059 -4.54324 0
M  V30 1803 H 178.985 -3.68729 -3.14908 0
M  V30 1804 N 180.328 1.1314 -1.09713 0
M  V30 1805 C 181.556 1.88321 -0.856898 0
M  V30 1806 C 181.971 1.79276 0.592073 0
M  V30 1807 O 181.328 1.16142 1.40774 0
M  V30 1808 C 181.379 3.37812 -1.28706 0
M  V30 1809 O 181.1 3.46627 -2.67921 0
M  V30 1810 C 182.601 4.29952 -1.07964 0
M  V30 1811 H 179.821 0.596094 -0.308079 0
M  V30 1812 H 182.365 1.43205 -1.45988 0
M  V30 1813 H 180.52 3.805 -0.727912 0
M  V30 1814 H 180.934 4.39579 -2.8613 0
M  V30 1815 H 182.408 5.33159 -1.42986 0
M  V30 1816 H 182.885 4.39196 -0.0176577 0
M  V30 1817 H 183.491 3.93036 -1.62489 0
M  V30 1818 N 181.806 0.884767 1.30421 0
M  V30 1819 C 182.739 0.295999 2.26272 0
M  V30 1820 C 183.717 -0.58332 1.51777 0
M  V30 1821 O 184.901 -0.53346 1.80794 0
M  V30 1822 C 182.028 -0.57944 3.33707 0
M  V30 1823 C 181.074 0.230525 4.25877 0
M  V30 1824 S 181.907 1.61867 5.1045 0
M  V30 1825 C 183.063 0.749756 6.21393 0
M  V30 1826 H 183.296 1.10848 2.75862 0
M  V30 1827 H 180.829 0.684178 1.38414 0
M  V30 1828 H 182.787 -1.07879 3.96071 0
M  V30 1829 H 181.448 -1.36601 2.82841 0
M  V30 1830 H 180.641 -0.437542 5.02097 0
M  V30 1831 H 180.243 0.662493 3.68086 0
M  V30 1832 H 182.535 -0.0333547 6.77492 0
M  V30 1833 H 183.478 1.48356 6.92384 0
M  V30 1834 H 183.886 0.310751 5.63644 0
M  V30 1835 N 183.284 -1.43765 0.645699 0
M  V30 1836 C 184.214 -2.33471 -0.0370477 0
M  V30 1837 C 185.195 -1.49042 -0.819779 0
M  V30 1838 O 186.38 -1.77726 -0.782758 0
M  V30 1839 C 183.51 -3.32311 -1.0093 0
M  V30 1840 C 182.464 -4.2667 -0.337201 0
M  V30 1841 C 181.79 -5.1549 -1.42037 0
M  V30 1842 C 183.09 -5.16657 0.765706 0
M  V30 1843 H 184.784 -2.90809 0.712069 0
M  V30 1844 H 182.33 -1.39834 0.343876 0
M  V30 1845 H 184.283 -3.9396 -1.49578 0
M  V30 1846 H 183.007 -2.73213 -1.78948 0
M  V30 1847 H 181.666 -3.66374 0.128771 0
M  V30 1848 H 181.314 -4.52735 -2.1918 0
M  V30 1849 H 181.014 -5.79438 -0.975966 0
M  V30 1850 H 182.538 -5.80012 -1.90838 0
M  V30 1851 H 183.952 -5.72158 0.361702 0
M  V30 1852 H 182.349 -5.89286 1.13413 0
M  V30 1853 H 183.419 -4.56796 1.62683 0
M  V30 1854 N 184.763 -0.387143 -1.52771 0
M  V30 1855 C 185.693 0.440551 -2.29306 0
M  V30 1856 C 186.674 1.06535 -1.32606 0
M  V30 1857 O 187.859 1.07853 -1.61497 0
M  V30 1858 C 184.989 1.56919 -3.09829 0
M  V30 1859 C 183.943 1.07054 -4.14395 0
M  V30 1860 C 183.269 2.29109 -4.83129 0
M  V30 1861 C 184.569 0.140015 -5.22112 0
M  V30 1862 H 186.263 -0.198026 -2.98744 0
M  V30 1863 H 183.809 -0.09668 -1.43675 0
M  V30 1864 H 185.762 2.15503 -3.62128 0
M  V30 1865 H 184.486 2.23532 -2.3812 0
M  V30 1866 H 183.145 0.507247 -3.63074 0
M  V30 1867 H 182.793 2.94227 -4.0797 0
M  V30 1868 H 182.493 1.96406 -5.53804 0
M  V30 1869 H 184.017 2.88339 -5.38231 0
M  V30 1870 H 185.431 0.633978 -5.69784 0
M  V30 1871 H 183.828 -0.0971485 -6.00021 0
M  V30 1872 H 184.898 -0.811711 -4.78058 0
M  V30 1873 N 186.241 1.57166 -0.116904 0
M  V30 1874 C 187.489 1.94737 0.540533 0
M  V30 1875 C 187.81 1.00096 1.67349 0
M  V30 1876 O 187.08 0.0568854 1.95817 0
M  V30 1877 H 185.66 0.718981 0.202669 0
M  V30 1878 H 188.322 1.94017 -0.185353 0
M  V30 1879 H 187.418 2.97719 0.936483 0
M  V30 1880 N 187.719 -0.156864 1.56817 0
M  V30 1881 C 188.967 -0.869404 1.82444 0
M  V30 1882 C 189.288 -1.82147 0.69623 0
M  V30 1883 O 188.558 -1.93847 -0.28287 0
M  V30 1884 H 187.138 -0.324043 0.673056 0
M  V30 1885 H 189.8 -0.153224 1.94297 0
M  V30 1886 H 188.896 -1.43761 2.77019 0
M  V30 1887 N 189.197 -1.51736 -0.425897 0
M  V30 1888 C 190.445 -1.64644 -1.17204 0
M  V30 1889 C 190.766 -0.370486 -1.91448 0
M  V30 1890 O 190.036 0.614088 -1.86026 0
M  V30 1891 H 188.616 -0.606819 -0.435638 0
M  V30 1892 H 191.278 -1.88713 -0.487177 0
M  V30 1893 H 190.374 -2.47958 -1.89534 0
M  V30 1894 N 190.675 0.682077 -1.42076 0
M  V30 1895 C 191.605 1.80796 -1.47767 0
M  V30 1896 C 192.586 1.6677 -0.334954 0
M  V30 1897 O 193.771 1.863 -0.548264 0
M  V30 1898 C 190.901 3.19038 -1.37229 0
M  V30 1899 C 189.855 3.47789 -2.49453 0
M  V30 1900 C 189.181 4.8553 -2.23975 0
M  V30 1901 C 190.481 3.45411 -3.91776 0
M  V30 1902 H 192.175 1.7629 -2.41997 0
M  V30 1903 H 189.721 0.846721 -1.16476 0
M  V30 1904 H 191.674 3.97528 -1.39821 0
M  V30 1905 H 190.398 3.24204 -0.394907 0
M  V30 1906 H 189.057 2.71657 -2.46166 0
M  V30 1907 H 188.705 4.87337 -1.24547 0
M  V30 1908 H 188.405 5.0573 -2.99184 0
M  V30 1909 H 189.929 5.66312 -2.28304 0
M  V30 1910 H 191.343 4.13882 -3.96705 0
M  V30 1911 H 189.74 3.77145 -4.66778 0
M  V30 1912 H 190.81 2.44122 -4.18966 0
M  V30 1913 N 192.153 1.28127 0.917671 0
M  V30 1914 C 193.43 1.05761 1.64542 0
M  V30 1915 C 193.81 -0.404344 2.07191 0
M  V30 1916 O 193.158 -1.38963 1.81388 0
M  V30 1917 C 193.368 2.02857 2.83989 0
M  V30 1918 C 194.716 2.32786 3.551 0
M  V30 1919 O 195.74 2.0091 2.94132 0
M  V30 1920 O 194.599 2.87169 4.64969 0
M  V30 1921 H 191.693 0.403916 0.721652 0
M  V30 1922 H 194.239 1.39431 0.967322 0
M  V30 1923 H 193.011 3.01407 2.49538 0
M  V30 1924 H 192.634 1.69809 3.59514 0
M  V30 1925 N 193.631 -1.12557 1.10312 0
M  V30 1926 C 194.88 -1.83395 0.839588 0
M  V30 1927 C 195.193 -1.84939 -0.636929 0
M  V30 1928 O 196.399 -2.51761 -1.01631 0
M  V30 1929 C 194.855 -3.29303 1.45215 0
M  V30 1930 C 194.463 -3.36122 2.96186 0
M  V30 1931 C 196.207 -4.05121 1.26796 0
M  V30 1932 C 194.114 -4.76357 3.50483 0
M  V30 1933 H 193.044 -0.687133 0.310425 0
M  V30 1934 H 195.695 -1.26746 1.32694 0
M  V30 1935 H 194.077 -3.85812 0.892469 0
M  V30 1936 H 195.251 -2.89559 3.58458 0
M  V30 1937 H 193.566 -2.73776 3.13745 0
M  V30 1938 H 196.163 -5.08668 1.64806 0
M  V30 1939 H 196.506 -4.15773 0.209409 0
M  V30 1940 H 197.039 -3.54967 1.79563 0
M  V30 1941 H 193.778 -4.70899 4.55998 0
M  V30 1942 H 193.298 -5.23377 2.92978 0
M  V30 1943 H 194.977 -5.45294 3.48228 0
M  V30 1944 N 195.109 -0.891671 -1.2995 0
M  V30 1945 C 196.386 -0.433307 -1.9074 0
M  V30 1946 C 196.766 1.08646 -1.80995 0
M  V30 1947 O 196.114 1.92476 -1.23147 0
M  V30 1948 C 196.324 -0.938895 -3.36134 0
M  V30 1949 C 197.672 -0.977829 -4.13187 0
M  V30 1950 O 198.696 -0.886015 -3.45005 0
M  V30 1951 O 197.555 -1.11453 -5.35015 0
M  V30 1952 H 194.649 -0.133699 -0.816121 0
M  V30 1953 H 197.195 -0.981011 -1.38471 0
M  V30 1954 H 195.967 -1.98281 -3.37343 0
M  V30 1955 H 195.59 -0.37074 -3.95868 0
M  V30 1956 N 196.587 1.43421 -0.653314 0
M  V30 1957 C 197.834 2.01812 -0.166745 0
M  V30 1958 C 198.162 1.51535 1.21931 0
M  V30 1959 O 197.417 0.698975 1.82792 0
M  V30 1960 C 197.716 3.57176 -0.126623 0
M  V30 1961 C 197.382 4.26798 -1.45444 0
M  V30 1962 C 196.044 4.45534 -1.81805 0
M  V30 1963 C 198.396 4.66225 -2.32989 0
M  V30 1964 C 195.724 5.00961 -3.05377 0
M  V30 1965 C 198.076 5.23021 -3.55853 0
M  V30 1966 C 196.74 5.39973 -3.9241 0
M  V30 1967 H 196.01 0.738484 -0.0610162 0
M  V30 1968 H 198.657 1.71896 -0.84404 0
M  V30 1969 H 196.962 3.86634 0.634123 0
M  V30 1970 H 198.659 4.00112 0.266723 0
M  V30 1971 H 195.249 4.12561 -1.16153 0
M  V30 1972 H 199.433 4.51443 -2.06187 0
M  V30 1973 H 194.689 5.12271 -3.3375 0
M  V30 1974 H 198.863 5.52518 -4.23907 0
M  V30 1975 H 196.49 5.82687 -4.88242 0
M  V30 1976 N 198.065 0.39524 1.52563 0
M  V30 1977 C 199.342 -0.242908 1.94086 0
M  V30 1978 C 199.722 -1.63841 1.33114 0
M  V30 1979 O 199.07 -2.22928 0.501529 0
M  V30 1980 C 199.28 -0.26327 3.48006 0
M  V30 1981 C 200.628 -0.489354 4.21771 0
M  V30 1982 O 201.652 -0.343226 3.54543 0
M  V30 1983 O 200.511 -0.776169 5.4096 0
M  V30 1984 H 197.605 -0.152536 0.812811 0
M  V30 1985 H 200.151 0.450178 1.6362 0
M  V30 1986 H 198.923 0.713985 3.84731 0
M  V30 1987 H 198.546 -1.00103 3.84792 0
M  V30 1988 N 199.544 -1.57102 0.125237 0
M  V30 1989 C 200.507 -2.14471 -0.80838 0
M  V30 1990 C 201.507 -1.0811 -1.19033 0
M  V30 1991 O 202.697 -1.33856 -1.11482 0
M  V30 1992 C 199.829 -2.69005 -2.09402 0
M  V30 1993 H 201.022 -2.98297 -0.309696 0
M  V30 1994 H 198.575 -1.55807 -0.124051 0
M  V30 1995 H 199.31 -1.88785 -2.63687 0
M  V30 1996 H 199.095 -3.46799 -1.82957 0
M  V30 1997 H 200.585 -3.13278 -2.76128 0
M  V30 1998 N 201.022 0.148545 -1.56898 0
M  V30 1999 C 201.97 1.20265 -1.99096 0
M  V30 2000 C 202.964 1.44559 -0.883123 0
M  V30 2001 O 204.17 1.4487 -1.0683 0
M  V30 2002 H 200.545 0.404786 -0.63376 0
M  V30 2003 H 202.516 0.82004 -2.86911 0
M  V30 2004 C 201.265 2.52886 -2.3863 0
M  V30 2005 H 200.588 2.35021 -3.23427 0
M  V30 2006 H 202.028 3.25274 -2.7198 0
M  V30 2007 C 200.487 3.13315 -1.23837 0
M  V30 2008 O 201.017 3.98077 -0.538268 0
M  V30 2009 N 199.223 2.72742 -1.00301 0
M  V30 2010 H 198.77 2.03912 -1.5741 0
M  V30 2011 H 198.728 3.13507 -0.236838 0
M  V30 2012 N 202.5 1.5196 0.417844 0
M  V30 2013 C 203.749 1.6482 1.16264 0
M  V30 2014 C 204.062 0.379886 1.91876 0
M  V30 2015 O 205.268 0.388154 2.68711 0
M  V30 2016 C 203.724 2.91161 2.1155 0
M  V30 2017 C 203.332 4.25068 1.41495 0
M  V30 2018 C 205.076 3.13383 2.86341 0
M  V30 2019 C 202.983 5.42541 2.35379 0
M  V30 2020 H 201.913 0.613954 0.437694 0
M  V30 2021 H 204.564 1.78442 0.427871 0
M  V30 2022 H 202.946 2.71218 2.88543 0
M  V30 2023 H 204.12 4.55463 0.699263 0
M  V30 2024 H 202.435 4.0888 0.787792 0
M  V30 2025 H 205.032 3.98324 3.5671 0
M  V30 2026 H 205.375 2.27256 3.48798 0
M  V30 2027 H 205.908 3.33757 2.1645 0
M  V30 2028 H 202.647 6.30987 1.77582 0
M  V30 2029 H 202.167 5.16497 3.04945 0
M  V30 2030 H 203.846 5.75272 2.96093 0
M  V30 2031 N 203.978 -0.674533 1.42435 0
M  V30 2032 C 204.888 -1.81751 1.48337 0
M  V30 2033 C 205.904 -1.69975 0.372099 0
M  V30 2034 O 207.08 -1.91521 0.62304 0
M  V30 2035 C 204.145 -3.17895 1.38361 0
M  V30 2036 C 203.206 -3.41625 2.59982 0
M  V30 2037 C 202.439 -4.71274 2.50473 0
M  V30 2038 O 202.662 -5.49197 1.54075 0
M  V30 2039 O 201.596 -4.96254 3.4061 0
M  V30 2040 H 205.422 -1.79728 2.44809 0
M  V30 2041 H 203.007 -0.830312 1.24202 0
M  V30 2042 H 204.889 -3.99136 1.35161 0
M  V30 2043 H 203.564 -3.20555 0.450144 0
M  V30 2044 H 202.471 -2.60231 2.68757 0
M  V30 2045 H 203.804 -3.43796 3.52229 0
M  V30 2046 N 205.456 -1.28612 -0.910864 0
M  V30 2047 C 206.872 -1.06381 -1.18976 0
M  V30 2048 C 207.072 0.191998 -2.00583 0
M  V30 2049 O 206.128 0.892869 -2.36187 0
M  V30 2050 C 207.441 -2.31295 -1.92154 0
M  V30 2051 C 208.989 -2.36503 -2.05025 0
M  V30 2052 C 209.464 -3.61191 -2.81612 0
M  V30 2053 N 210.955 -3.61847 -2.89172 0
M  V30 2054 C 211.69 -4.55004 -3.4894 0
M  V30 2055 N 211.186 -5.58482 -4.09963 0
M  V30 2056 N 212.979 -4.42594 -3.46506 0
M  V30 2057 H 205.13 -2.09221 -0.366094 0
M  V30 2058 H 207.393 -0.921003 -0.224629 0
M  V30 2059 H 207.099 -3.228 -1.39618 0
M  V30 2060 H 206.973 -2.37934 -2.9269 0
M  V30 2061 H 209.36 -1.45494 -2.5674 0
M  V30 2062 H 209.441 -2.33857 -1.03657 0
M  V30 2063 H 209.085 -4.52545 -2.30576 0
M  V30 2064 H 209.015 -3.61092 -3.83302 0
M  V30 2065 H 211.506 -2.87022 -2.45819 0
M  V30 2066 H 211.819 -6.25704 -4.53557 0
M  V30 2067 H 210.164 -5.62305 -4.08459 0
M  V30 2068 H 213.355 -3.60953 -2.98045 0
M  V30 2069 H 213.528 -5.15381 -3.92793 0
M  V30 2070 N 206.934 1.1197 -1.10907 0
M  V30 2071 C 208.18 1.8386 -0.855773 0
M  V30 2072 C 208.513 1.84134 0.617103 0
M  V30 2073 O 207.788 1.29041 1.45529 0
M  V30 2074 C 208.071 3.31305 -1.411 0
M  V30 2075 C 207.924 3.39456 -2.9511 0
M  V30 2076 C 209.243 4.2721 -1.05736 0
M  V30 2077 H 206.362 0.667545 -0.312334 0
M  V30 2078 H 209.004 1.31331 -1.37303 0
M  V30 2079 H 207.154 3.76169 -0.97105 0
M  V30 2080 H 208.826 3.03191 -3.47668 0
M  V30 2081 H 207.069 2.79849 -3.31462 0
M  V30 2082 H 207.74 4.43209 -3.29044 0
M  V30 2083 H 210.216 3.90497 -1.43706 0
M  V30 2084 H 209.092 5.28775 -1.47269 0
M  V30 2085 H 209.353 4.42088 0.0325958 0
M  V30 2086 N 208.412 0.89855 1.29475 0
M  V30 2087 C 209.345 0.319981 2.25945 0
M  V30 2088 C 210.323 -0.567189 1.52387 0
M  V30 2089 O 211.507 -0.514254 1.8135 0
M  V30 2090 C 208.634 -0.544013 3.34303 0
M  V30 2091 C 207.68 0.275682 4.25608 0
M  V30 2092 S 208.513 1.67272 5.08704 0
M  V30 2093 C 209.669 0.815621 6.20563 0
M  V30 2094 H 209.902 1.13767 2.74671 0
M  V30 2095 H 207.435 0.69882 1.3768 0
M  V30 2096 H 209.393 -1.03673 3.97193 0
M  V30 2097 H 208.054 -1.33593 2.84274 0
M  V30 2098 H 207.247 -0.384263 5.02533 0
M  V30 2099 H 206.849 0.701496 3.67362 0
M  V30 2100 H 209.141 0.0385042 6.77489 0
M  V30 2101 H 210.084 1.55691 6.90772 0
M  V30 2102 H 210.492 0.370516 5.63283 0
M  V30 2103 N 209.89 -1.43072 0.660911 0
M  V30 2104 C 211.306 -1.56169 0.329173 0
M  V30 2105 C 211.506 -1.64317 -1.16629 0
M  V30 2106 O 210.562 -1.60245 -1.95135 0
M  V30 2107 C 211.875 -2.81873 1.04729 0
M  V30 2108 C 213.423 -2.95627 1.02828 0
M  V30 2109 C 213.898 -4.24174 1.72744 0
M  V30 2110 N 215.389 -4.31055 1.69545 0
M  V30 2111 C 216.124 -5.29304 2.20511 0
M  V30 2112 N 215.62 -6.33786 2.79799 0
M  V30 2113 N 217.413 -5.21008 2.10966 0
M  V30 2114 H 209.564 -1.36027 1.63127 0
M  V30 2115 H 211.827 -0.653823 0.686454 0
M  V30 2116 H 211.533 -2.81942 2.10242 0
M  V30 2117 H 211.407 -3.72338 0.603702 0
M  V30 2118 H 213.794 -2.95094 -0.0184742 0
M  V30 2119 H 213.875 -2.06431 1.51063 0
M  V30 2120 H 213.519 -4.25467 2.7738 0
M  V30 2121 H 213.449 -5.1228 1.2197 0
M  V30 2122 H 215.94 -3.56174 1.26288 0
M  V30 2123 H 216.253 -7.05086 3.16344 0
M  V30 2124 H 214.598 -6.34387 2.83863 0
M  V30 2125 H 217.789 -4.38301 1.64347 0
M  V30 2126 H 217.962 -5.97416 2.50993 0
M  V30 2127 N 211.368 -0.403325 -1.52352 0
M  V30 2128 C 212.616 0.174003 -2.0135 0
M  V30 2129 C 212.937 1.46139 -1.29106 0
M  V30 2130 O 212.207 1.91448 -0.415253 0
M  V30 2131 H 210.787 0.0672911 -0.743963 0
M  V30 2132 H 213.449 -0.538235 -1.87321 0
M  V30 2133 H 212.545 0.374254 -3.09848 0
M  V30 2134 N 212.846 1.57033 -0.133567 0
M  V30 2135 C 213.756 2.19632 0.824564 0
M  V30 2136 C 214.772 1.17666 1.28182 0
M  V30 2137 O 215.948 1.50193 1.3418 0
M  V30 2138 C 213.013 2.79499 2.05137 0
M  V30 2139 C 212.074 3.96548 1.64464 0
M  V30 2140 C 211.307 4.5355 2.81297 0
M  V30 2141 O 211.53 4.09438 3.97136 0
M  V30 2142 O 210.464 5.44018 2.57542 0
M  V30 2143 H 214.29 3.01991 0.321766 0
M  V30 2144 H 211.875 1.49112 0.0927889 0
M  V30 2145 H 213.757 3.17602 2.7696 0
M  V30 2146 H 212.432 2.00162 2.54395 0
M  V30 2147 H 211.339 3.63186 0.897048 0
M  V30 2148 H 212.672 4.77364 1.19934 0
M  V30 2149 N 214.325 -0.140222 1.56975 0
M  V30 2150 C 215.736 -0.699596 1.73097 0
M  V30 2151 C 216.087 -1.8134 0.749022 0
M  V30 2152 O 215.212 -2.16241 -0.0828503 0
M  V30 2153 C 215.807 -1.27582 3.1386 0
M  V30 2154 C 214.366 -1.78169 3.31561 0
M  V30 2155 C 213.513 -0.672855 2.69013 0
M  V30 2156 H 216.464 0.0855115 1.58469 0
M  V30 2157 H 216.485 -2.14561 3.14235 0
M  V30 2158 H 215.997 -0.464955 3.85305 0
M  V30 2159 H 214.098 -2.61801 2.65124 0
M  V30 2160 H 214.211 -1.90574 4.39566 0
M  V30 2161 H 212.575 -1.10118 2.29665 0
M  V30 2162 H 213.358 0.126679 3.43066 0
M  V30 2163 N 215.803 -1.52179 -0.40978 0
M  V30 2164 C 217.031 -1.70054 -1.17853 0
M  V30 2165 C 217.446 -0.409735 -1.843 0
M  V30 2166 O 216.803 0.614183 -1.71855 0
M  V30 2167 C 216.854 -2.83568 -2.24213 0
M  V30 2168 O 216.575 -4.0765 -1.60478 0
M  V30 2169 C 218.076 -3.12947 -3.13973 0
M  V30 2170 H 215.296 -0.569917 -0.354169 0
M  V30 2171 H 217.84 -1.98734 -0.482198 0
M  V30 2172 H 215.995 -2.57409 -2.89516 0
M  V30 2173 H 216.409 -4.70899 -2.30986 0
M  V30 2174 H 217.883 -3.95889 -3.84677 0
M  V30 2175 H 218.36 -2.26472 -3.76307 0
M  V30 2176 H 218.966 -3.40868 -2.5434 0
M  V30 2177 N 217.281 0.66697 -1.42791 0
M  V30 2178 C 218.211 1.79218 -1.49677 0
M  V30 2179 C 219.192 1.66405 -0.352623 0
M  V30 2180 O 220.377 1.85708 -0.567993 0
M  V30 2181 C 217.507 3.17565 -1.40605 0
M  V30 2182 C 216.461 3.45124 -2.53127 0
M  V30 2183 C 215.787 4.83127 -2.29112 0
M  V30 2184 C 217.087 3.41236 -3.95418 0
M  V30 2185 H 218.781 1.73713 -2.43853 0
M  V30 2186 H 216.327 0.83432 -1.17367 0
M  V30 2187 H 218.28 3.96022 -1.44029 0
M  V30 2188 H 217.004 3.23767 -0.429271 0
M  V30 2189 H 215.663 2.69031 -2.49034 0
M  V30 2190 H 215.311 4.85988 -1.29709 0
M  V30 2191 H 215.011 5.02528 -3.04531 0
M  V30 2192 H 216.535 5.63859 -2.34297 0
M  V30 2193 H 217.949 4.09651 -4.01073 0
M  V30 2194 H 216.346 3.72173 -4.70752 0
M  V30 2195 H 217.416 2.39665 -4.21532 0
M  V30 2196 N 218.759 1.29093 0.90403 0
M  V30 2197 C 220.036 1.075 1.63411 0
M  V30 2198 C 220.416 -0.382346 2.07609 0
M  V30 2199 O 219.764 -1.37031 1.82851 0
M  V30 2200 C 219.974 2.05858 2.81822 0
M  V30 2201 C 221.322 2.36539 3.52611 0
M  V30 2202 O 222.346 2.04019 2.91984 0
M  V30 2203 O 221.205 2.92085 4.61897 0
M  V30 2204 H 218.299 0.411547 0.717327 0
M  V30 2205 H 220.845 1.40449 0.952479 0
M  V30 2206 H 219.617 3.04037 2.46327 0
M  V30 2207 H 219.24 1.73613 3.57693 0
M  V30 2208 N 220.237 -1.11381 1.11499 0
M  V30 2209 C 221.485 -1.8277 0.862524 0
M  V30 2210 C 221.806 -1.85097 -0.613534 0
M  V30 2211 O 221.076 -1.32198 -1.4457 0
M  V30 2212 H 219.656 -0.676823 0.316101 0
M  V30 2213 H 222.318 -1.34816 1.4075 0
M  V30 2214 H 221.414 -2.86614 1.23527 0
M  V30 2215 N 221.715 -0.905404 -1.28997 0
M  V30 2216 C 222.645 -0.404212 -2.29975 0
M  V30 2217 C 223.626 0.523784 -1.61835 0
M  V30 2218 O 224.811 0.433298 -1.89304 0
M  V30 2219 C 221.941 0.364042 -3.45387 0
M  V30 2220 C 220.895 -0.474048 -4.25367 0
M  V30 2221 C 220.221 0.422045 -5.33032 0
M  V30 2222 C 221.521 -1.72696 -4.92923 0
M  V30 2223 H 223.215 -1.24807 -2.72146 0
M  V30 2224 H 220.761 -0.601585 -1.30832 0
M  V30 2225 H 222.714 0.725447 -4.15109 0
M  V30 2226 H 221.438 1.24174 -3.02074 0
M  V30 2227 H 220.097 -0.81786 -3.57361 0
M  V30 2228 H 219.745 1.29804 -4.85963 0
M  V30 2229 H 219.445 -0.135057 -5.87445 0
M  V30 2230 H 220.969 0.779517 -6.05604 0
M  V30 2231 H 222.383 -1.43495 -5.55051 0
M  V30 2232 H 220.78 -2.22582 -5.57295 0
M  V30 2233 H 221.85 -2.45964 -4.17887 0
M  V30 2234 N 223.193 1.4272 -0.668489 0
M  V30 2235 C 224.604 1.84793 -0.266151 0
M  V30 2236 C 224.955 1.55959 1.19043 0
M  V30 2237 O 224.08 1.01622 1.91055 0
M  V30 2238 C 224.675 3.35436 -0.476271 0
M  V30 2239 C 223.234 3.76182 -0.128113 0
M  V30 2240 C 222.381 2.66344 -0.771777 0
M  V30 2241 H 225.332 1.32656 -0.871098 0
M  V30 2242 H 225.353 3.79515 0.273561 0
M  V30 2243 H 224.865 3.5639 -1.53647 0
M  V30 2244 H 222.966 3.60836 0.928891 0
M  V30 2245 H 223.079 4.75766 -0.564231 0
M  V30 2246 H 221.443 2.53885 -0.203652 0
M  V30 2247 H 222.226 2.90123 -1.83531 0
M  V30 2248 N 224.671 0.411399 1.52136 0
M  V30 2249 C 225.919 -0.163322 2.01439 0
M  V30 2250 C 226.24 -1.45453 1.29879 0
M  V30 2251 O 225.51 -1.91225 0.4254 0
M  V30 2252 H 224.09 -0.0633447 0.744309 0
M  V30 2253 H 226.752 0.548161 1.87033 0
M  V30 2254 H 225.848 -0.357817 3.10042 0
M  V30 2255 N 226.149 -1.5696 0.141893 0
M  V30 2256 C 227.56 -1.82797 -0.379776 0
M  V30 2257 C 227.911 -1.06033 -1.6508 0
M  V30 2258 O 227.036 -0.304011 -2.14254 0
M  V30 2259 C 227.631 -3.31578 -0.695802 0
M  V30 2260 C 226.19 -3.58014 -1.16201 0
M  V30 2261 C 225.337 -2.76699 -0.182455 0
M  V30 2262 H 228.288 -1.54406 0.366675 0
M  V30 2263 H 228.309 -3.47454 -1.55099 0
M  V30 2264 H 227.821 -3.87421 0.229449 0
M  V30 2265 H 225.922 -3.07553 -2.10338 0
M  V30 2266 H 226.035 -4.66501 -1.09151 0
M  V30 2267 H 224.399 -2.45618 -0.674072 0
M  V30 2268 H 225.182 -3.35311 0.736297 0
M  V30 2269 N 227.627 0.131896 -1.57047 0
M  V30 2270 C 228.559 1.1878 -1.9602 0
M  V30 2271 C 229.572 1.38363 -0.857875 0
M  V30 2272 O 230.761 1.37666 -1.13623 0
M  V30 2273 C 227.861 2.55008 -2.23213 0
M  V30 2274 C 227.034 2.56201 -3.54513 0
M  V30 2275 C 226.093 3.7408 -3.70069 0
M  V30 2276 O 225.119 3.58258 -4.42312 0
M  V30 2277 N 226.321 4.92137 -3.07866 0
M  V30 2278 H 229.086 0.85639 -2.87204 0
M  V30 2279 H 226.647 0.321309 -1.5868 0
M  V30 2280 H 228.639 3.32404 -2.30846 0
M  V30 2281 H 227.209 2.80382 -1.3822 0
M  V30 2282 H 226.429 1.64613 -3.58185 0
M  V30 2283 H 227.717 2.54043 -4.4084 0
M  V30 2284 H 227.115 5.07895 -2.49116 0
M  V30 2285 H 225.672 5.67254 -3.21039 0
M  V30 2286 N 229.106 1.52395 0.401703 0
M  V30 2287 C 230.038 1.72505 1.50912 0
M  V30 2288 C 231.051 0.605468 1.51122 0
M  V30 2289 O 232.24 0.880828 1.55254 0
M  V30 2290 C 229.34 1.75711 2.89791 0
M  V30 2291 C 228.513 3.04824 3.1369 0
M  V30 2292 C 227.572 2.99743 4.32482 0
M  V30 2293 O 226.598 3.73635 4.29402 0
M  V30 2294 N 227.8 2.18047 5.37992 0
M  V30 2295 H 230.565 2.68049 1.34052 0
M  V30 2296 H 228.126 1.50724 0.591084 0
M  V30 2297 H 230.118 1.69834 3.6734 0
M  V30 2298 H 228.688 0.876092 3.00072 0
M  V30 2299 H 227.908 3.2429 2.24119 0
M  V30 2300 H 229.196 3.90221 3.26504 0
M  V30 2301 H 228.594 1.57456 5.43345 0
M  V30 2302 H 227.151 2.18021 6.14256 0
M  V30 2303 N 230.584 -0.659388 1.43143 0
M  V30 2304 C 231.995 -1.24041 1.39537 0
M  V30 2305 C 232.346 -1.95963 0.0963364 0
M  V30 2306 O 231.471 -2.00892 -0.804438 0
M  V30 2307 C 232.066 -2.25601 2.52764 0
M  V30 2308 C 230.625 -2.79195 2.52443 0
M  V30 2309 C 229.772 -1.53743 2.30778 0
M  V30 2310 H 232.723 -0.451792 1.52133 0
M  V30 2311 H 232.744 -3.07651 2.23899 0
M  V30 2312 H 232.256 -1.73226 3.47296 0
M  V30 2313 H 230.357 -3.35649 1.61773 0
M  V30 2314 H 230.47 -3.2716 3.50004 0
M  V30 2315 H 228.834 -1.80869 1.79328 0
M  V30 2316 H 229.617 -1.03312 3.27386 0
M  V30 2317 N 232.062 -1.29571 -0.897171 0
M  V30 2318 C 233.309 -1.17689 -1.6479 0
M  V30 2319 C 233.637 0.27107 -1.92602 0
M  V30 2320 O 232.892 1.21193 -1.53658 0
M  V30 2321 C 233.191 -1.9382 -3.00281 0
M  V30 2322 C 232.857 -3.43522 -2.92068 0
M  V30 2323 C 231.519 -3.84348 -2.89535 0
M  V30 2324 C 233.871 -4.38906 -2.81089 0
M  V30 2325 C 231.199 -5.18869 -2.73846 0
M  V30 2326 C 233.551 -5.73521 -2.66939 0
M  V30 2327 C 232.215 -6.13601 -2.62774 0
M  V30 2328 H 231.485 -0.430654 -0.603008 0
M  V30 2329 H 234.132 -1.60536 -1.04404 0
M  V30 2330 H 232.437 -1.4357 -3.64547 0
M  V30 2331 H 234.134 -1.82028 -3.57305 0
M  V30 2332 H 230.724 -3.11072 -2.94842 0
M  V30 2333 H 234.908 -4.08315 -2.82121 0
M  V30 2334 H 230.164 -5.4903 -2.69027 0
M  V30 2335 H 234.338 -6.47078 -2.57416 0
M  V30 2336 H 231.965 -7.17786 -2.50375 0
M  V30 2337 N 233.54 1.10788 -1.12088 0
M  V30 2338 C 234.47 2.19083 -0.807755 0
M  V30 2339 C 235.451 1.6858 0.226859 0
M  V30 2340 O 236.636 1.93997 0.0888475 0
M  V30 2341 C 233.766 3.46344 -0.257576 0
M  V30 2342 C 232.72 4.101 -1.22483 0
M  V30 2343 C 232.046 5.32016 -0.535052 0
M  V30 2344 C 233.346 4.54236 -2.57811 0
M  V30 2345 H 235.04 2.45534 -1.71328 0
M  V30 2346 H 232.586 1.1801 -0.825205 0
M  V30 2347 H 234.539 4.21392 -0.0262679 0
M  V30 2348 H 233.263 3.19373 0.683278 0
M  V30 2349 H 231.922 3.37054 -1.44189 0
M  V30 2350 H 231.57 5.01319 0.410827 0
M  V30 2351 H 231.27 5.75625 -1.18024 0
M  V30 2352 H 232.794 6.09799 -0.312695 0
M  V30 2353 H 234.208 5.20575 -2.40155 0
M  V30 2354 H 232.605 5.08682 -3.18375 0
M  V30 2355 H 233.675 3.6734 -3.16528 0
M  V30 2356 N 235.018 0.912232 1.28515 0
M  V30 2357 C 236.295 0.463597 1.90027 0
M  V30 2358 C 236.675 -1.05753 1.82701 0
M  V30 2359 O 236.023 -1.90492 1.26194 0
M  V30 2360 C 236.233 0.992253 3.34597 0
M  V30 2361 C 237.581 1.04344 4.11579 0
M  V30 2362 O 238.605 0.94079 3.43551 0
M  V30 2363 O 237.464 1.1995 5.33174 0
M  V30 2364 H 234.558 0.146666 0.813891 0
M  V30 2365 H 237.104 1.00292 1.36893 0
M  V30 2366 H 235.876 2.03623 3.34146 0
M  V30 2367 H 235.499 0.433672 3.95228 0
M  V30 2368 N 236.496 -1.42363 0.676048 0
M  V30 2369 C 237.459 -2.29199 0.00766941 0
M  V30 2370 C 238.459 -1.43389 -0.727745 0
M  V30 2371 O 239.649 -1.64764 -0.56556 0
M  V30 2372 C 236.781 -3.2591 -0.999785 0
M  V30 2373 H 237.974 -2.89794 0.771988 0
M  V30 2374 H 235.527 -1.50024 0.438468 0
M  V30 2375 H 236.262 -2.70256 -1.79255 0
M  V30 2376 H 236.047 -3.89202 -0.475829 0
M  V30 2377 H 237.537 -3.91028 -1.46583 0
M  V30 2378 N 237.974 -0.419461 -1.51915 0
M  V30 2379 C 238.904 0.391813 -2.30189 0
M  V30 2380 C 239.885 1.03699 -1.34836 0
M  V30 2381 O 241.07 1.04403 -1.63748 0
M  V30 2382 C 238.2 1.50312 -3.13087 0
M  V30 2383 C 237.154 0.9824 -4.16573 0
M  V30 2384 C 236.48 2.18809 -4.8788 0
M  V30 2385 C 237.78 0.0292356 -5.22292 0
M  V30 2386 H 239.474 -0.26135 -2.98257 0
M  V30 2387 H 237.02 -0.127134 -1.43438 0
M  V30 2388 H 238.973 2.07773 -3.66617 0
M  V30 2389 H 237.697 2.18431 -2.42807 0
M  V30 2390 H 236.356 0.430119 -3.64068 0
M  V30 2391 H 236.004 2.85507 -4.14119 0
M  V30 2392 H 235.704 1.84615 -5.57845 0
M  V30 2393 H 237.228 2.76858 -5.44226 0
M  V30 2394 H 238.642 0.512976 -5.71 0
M  V30 2395 H 237.039 -0.2244 -5.9968 0
M  V30 2396 H 238.109 -0.912931 -4.76228 0
M  V30 2397 N 239.452 1.56882 -0.150215 0
M  V30 2398 C 240.415 2.1573 0.774157 0
M  V30 2399 C 241.415 1.0999 1.17298 0
M  V30 2400 O 242.605 1.35613 1.09338 0
M  V30 2401 C 239.737 2.72302 2.05096 0
M  V30 2402 H 240.93 2.98752 0.262201 0
M  V30 2403 H 238.483 1.55985 0.099248 0
M  V30 2404 H 239.218 1.92956 2.6065 0
M  V30 2405 H 239.003 3.49665 1.77416 0
M  V30 2406 H 240.493 3.17632 2.71109 0
M  V30 2407 N 240.93 -0.123565 1.57115 0
M  V30 2408 C 241.86 -1.15309 2.03042 0
M  V30 2409 C 242.841 -1.43454 0.914061 0
M  V30 2410 O 244.026 -1.53973 1.18347 0
M  V30 2411 C 241.156 -2.48043 2.43089 0
M  V30 2412 C 240.11 -2.3437 3.58127 0
M  V30 2413 C 239.436 -3.72026 3.84059 0
M  V30 2414 C 240.736 -1.80804 4.90007 0
M  V30 2415 H 242.43 -0.771102 2.893 0
M  V30 2416 H 239.976 -0.369479 1.39179 0
M  V30 2417 H 241.929 -3.20311 2.73823 0
M  V30 2418 H 240.653 -2.88122 1.53796 0
M  V30 2419 H 239.312 -1.64551 3.27595 0
M  V30 2420 H 238.96 -4.09582 2.91979 0
M  V30 2421 H 238.66 -3.63732 4.6149 0
M  V30 2422 H 240.184 -4.45806 4.1724 0
M  V30 2423 H 241.598 -2.42886 5.19307 0
M  V30 2424 H 239.995 -1.83343 5.71407 0
M  V30 2425 H 241.065 -0.76528 4.78823 0
M  V30 2426 N 242.408 -1.52605 -0.393616 0
M  V30 2427 C 243.341 -1.71798 -1.50202 0
M  V30 2428 C 244.319 -0.565743 -1.52441 0
M  V30 2429 O 245.503 -0.794987 -1.70916 0
M  V30 2430 C 242.63 -1.7714 -2.88685 0
M  V30 2431 C 241.676 -2.98845 -3.04292 0
M  V30 2432 S 242.509 -4.58909 -2.75976 0
M  V30 2433 C 243.665 -4.6706 -4.1666 0
M  V30 2434 H 243.898 -2.65542 -1.33696 0
M  V30 2435 H 241.431 -1.42839 -0.586195 0
M  V30 2436 H 243.389 -1.80903 -3.68489 0
M  V30 2437 H 242.05 -0.844969 -3.02521 0
M  V30 2438 H 241.243 -2.99111 -4.05646 0
M  V30 2439 H 240.845 -2.9305 -2.32374 0
M  V30 2440 H 243.137 -4.45391 -5.10523 0
M  V30 2441 H 244.08 -5.6905 -4.21412 0
M  V30 2442 H 244.488 -3.95944 -4.02354 0
M  V30 2443 N 243.887 0.651787 -1.4349 0
M  V30 2444 C 244.835 1.78586 -1.49029 0
M  V30 2445 C 245.829 1.65448 -0.363767 0
M  V30 2446 O 247.035 1.71777 -0.537821 0
M  V30 2447 H 243.41 0.589236 -0.467231 0
M  V30 2448 H 245.381 1.71035 -2.44519 0
M  V30 2449 C 244.13 3.16851 -1.43181 0
M  V30 2450 H 243.453 3.27598 -2.29171 0
M  V30 2451 H 244.893 3.96156 -1.51118 0
M  V30 2452 C 243.352 3.36568 -0.149616 0
M  V30 2453 O 243.882 3.93885 0.788509 0
M  V30 2454 N 242.088 2.90539 -0.0593484 0
M  V30 2455 H 241.635 2.4408 -0.823575 0
M  V30 2456 H 241.593 3.04108 0.797853 0
M  V30 2457 N 245.365 1.30045 0.890287 0
M  V30 2458 C 246.297 1.11786 2.00091 0
M  V30 2459 C 247.31 0.0626307 1.62679 0
M  V30 2460 O 248.499 0.308112 1.75821 0
M  V30 2461 C 245.599 0.681527 3.31977 0
M  V30 2462 C 244.772 1.81735 3.97858 0
M  V30 2463 C 243.831 1.37045 5.08041 0
M  V30 2464 O 242.857 2.07677 5.29961 0
M  V30 2465 N 244.059 0.246525 5.79976 0
M  V30 2466 H 246.824 2.07441 2.16306 0
M  V30 2467 H 244.385 1.2211 1.06305 0
M  V30 2468 H 246.377 0.365675 4.03045 0
M  V30 2469 H 244.947 -0.182828 3.12065 0
M  V30 2470 H 244.167 2.30159 3.20032 0
M  V30 2471 H 245.455 2.57865 4.38615 0
M  V30 2472 H 244.853 -0.34215 5.64664 0
M  V30 2473 H 243.41 -0.00990438 6.51799 0
M  V30 2474 N 246.843 -1.10192 1.12674 0
M  V30 2475 C 248.254 -1.63707 0.897604 0
M  V30 2476 C 248.605 -1.87812 -0.567546 0
M  V30 2477 O 247.73 -1.62196 -1.43253 0
M  V30 2478 C 248.325 -2.974 1.62292 0
M  V30 2479 C 246.884 -3.47772 1.43986 0
M  V30 2480 C 246.031 -2.22332 1.65722 0
M  V30 2481 H 248.982 -0.936587 1.28116 0
M  V30 2482 H 249.003 -3.64986 1.07541 0
M  V30 2483 H 248.515 -2.79824 2.68924 0
M  V30 2484 H 246.616 -3.70487 0.396206 0
M  V30 2485 H 246.729 -4.25723 2.19765 0
M  V30 2486 H 245.093 -2.30599 1.08149 0
M  V30 2487 H 245.876 -2.07285 2.73657 0
M  V30 2488 N 248.321 -0.919034 -1.28029 0
M  V30 2489 C 249.284 -0.416182 -2.2539 0
M  V30 2490 C 250.284 0.460438 -1.54067 0
M  V30 2491 O 251.474 0.262744 -1.72207 0
M  V30 2492 C 248.606 0.402707 -3.38513 0
M  V30 2493 H 249.799 -1.27629 -2.71387 0
M  V30 2494 H 247.352 -0.698919 -1.39803 0
M  V30 2495 H 248.087 1.282 -2.97885 0
M  V30 2496 H 247.872 -0.225698 -3.9145 0
M  V30 2497 H 249.362 0.745191 -4.10897 0
M  V30 2498 N 249.799 1.42003 -0.683588 0
M  V30 2499 C 250.709 2.34597 -0.0109075 0
M  V30 2500 C 251.725 1.55576 0.779245 0
M  V30 2501 O 252.901 1.88107 0.719555 0
M  V30 2502 C 249.966 3.34199 0.922588 0
M  V30 2503 C 249.027 4.29115 0.125984 0
M  V30 2504 C 248.26 5.23959 1.01502 0
M  V30 2505 O 248.483 5.23952 2.25456 0
M  V30 2506 O 247.417 6.00053 0.47111 0
M  V30 2507 H 251.243 2.93675 -0.773853 0
M  V30 2508 H 248.828 1.42654 -0.443861 0
M  V30 2509 H 250.71 3.95365 1.45823 0
M  V30 2510 H 249.385 2.77582 1.66523 0
M  V30 2511 H 248.292 3.71335 -0.453969 0
M  V30 2512 H 249.625 4.88798 -0.577736 0
M  V30 2513 N 251.277 0.427512 1.51691 0
M  V30 2514 C 252.525 -0.141948 2.01601 0
M  V30 2515 C 252.846 -1.44067 1.31414 0
M  V30 2516 O 252.116 -1.90763 0.445658 0
M  V30 2517 H 250.696 -0.0554468 0.744939 0
M  V30 2518 H 253.358 0.567968 1.86441 0
M  V30 2519 H 252.454 -0.324913 3.10404 0
M  V30 2520 N 252.755 -1.56801 0.158532 0
M  V30 2521 C 254.171 -1.5837 -0.197774 0
M  V30 2522 C 254.371 -1.17334 -1.63814 0
M  V30 2523 O 253.427 -0.878988 -2.36707 0
M  V30 2524 C 254.74 -3.00615 0.0714459 0
M  V30 2525 C 256.288 -3.12999 0.00864533 0
M  V30 2526 C 256.763 -4.57313 0.250685 0
M  V30 2527 N 258.254 -4.62777 0.198014 0
M  V30 2528 C 258.989 -5.72271 0.359642 0
M  V30 2529 N 258.485 -6.90371 0.579625 0
M  V30 2530 N 260.278 -5.61318 0.296438 0
M  V30 2531 H 252.429 -1.81765 1.09887 0
M  V30 2532 H 254.692 -0.841849 0.435884 0
M  V30 2533 H 254.398 -3.35068 1.06874 0
M  V30 2534 H 254.272 -3.71683 -0.642757 0
M  V30 2535 H 256.659 -2.7838 -0.979217 0
M  V30 2536 H 256.74 -2.44393 0.755359 0
M  V30 2537 H 256.384 -4.92639 1.2357 0
M  V30 2538 H 256.314 -5.24061 -0.516489 0
M  V30 2539 H 258.805 -3.77885 0.0331115 0
M  V30 2540 H 259.118 -7.69689 0.69275 0
M  V30 2541 H 257.463 -6.92264 0.616087 0
M  V30 2542 H 260.654 -4.67932 0.125258 0
M  V30 2543 H 260.827 -6.46599 0.425831 0
M  V30 2544 N 254.233 0.115231 -1.57178 0
M  V30 2545 C 255.196 1.12526 -1.99676 0
M  V30 2546 C 256.196 1.34095 -0.88742 0
M  V30 2547 O 257.386 1.30548 -1.15337 0
M  V30 2548 C 254.518 2.4789 -2.34015 0
M  V30 2549 H 255.711 0.759912 -2.90113 0
M  V30 2550 H 253.264 0.359648 -1.52106 0
M  V30 2551 H 253.999 2.89339 -1.4647 0
M  V30 2552 H 253.784 2.33588 -3.14927 0
M  V30 2553 H 255.274 3.20575 -2.67622 0
M  V30 2554 N 255.711 1.52812 0.385517 0
M  V30 2555 C 256.674 1.77188 1.45386 0
M  V30 2556 C 257.674 0.641953 1.4743 0
M  V30 2557 O 258.864 0.910033 1.4854 0
M  V30 2558 C 255.996 1.87582 2.8465 0
M  V30 2559 H 257.189 2.72583 1.25054 0
M  V30 2560 H 254.742 1.43586 0.617467 0
M  V30 2561 H 255.477 0.941849 3.10322 0
M  V30 2562 H 255.262 2.69748 2.84567 0
M  V30 2563 H 256.752 2.08102 3.62054 0
M  V30 2564 N 257.189 -0.644168 1.43834 0
M  V30 2565 C 258.099 -1.78563 1.52159 0
M  V30 2566 C 259.115 -1.69147 0.408069 0
M  V30 2567 O 260.291 -1.90156 0.663524 0
M  V30 2568 C 257.356 -3.14888 1.45073 0
M  V30 2569 C 256.417 -3.36034 2.6717 0
M  V30 2570 C 255.65 -4.65855 2.60413 0
M  V30 2571 O 255.873 -5.45805 1.65689 0
M  V30 2572 O 254.807 -4.88918 3.5106 0
M  V30 2573 H 258.633 -1.74494 2.48567 0
M  V30 2574 H 256.218 -0.80378 1.25935 0
M  V30 2575 H 258.1 -3.96179 1.43597 0
M  V30 2576 H 256.775 -3.19528 0.518037 0
M  V30 2577 H 255.682 -2.54472 2.74217 0
M  V30 2578 H 257.015 -3.36247 3.59442 0
M  V30 2579 N 258.668 -1.30515 -0.883378 0
M  V30 2580 C 259.914 -1.19607 -1.63774 0
M  V30 2581 C 260.247 0.248314 -1.92606 0
M  V30 2582 O 259.522 1.17742 -1.54813 0
M  V30 2583 C 259.805 -2.02669 -2.97653 0
M  V30 2584 C 259.658 -3.55335 -2.75784 0
M  V30 2585 C 260.977 -1.86573 -3.98596 0
M  V30 2586 H 258.096 -0.435856 -0.594305 0
M  V30 2587 H 260.738 -1.60165 -1.02212 0
M  V30 2588 H 258.888 -1.68208 -3.50197 0
M  V30 2589 H 260.56 -3.99863 -2.30016 0
M  V30 2590 H 258.803 -3.79438 -2.1026 0
M  V30 2591 H 259.474 -4.08745 -3.70988 0
M  V30 2592 H 261.95 -2.16703 -3.55217 0
M  V30 2593 H 260.826 -2.47014 -4.90179 0
M  V30 2594 H 261.087 -0.825321 -4.34328 0
M  V30 2595 N 260.146 1.09593 -1.13257 0
M  V30 2596 C 261.109 2.14359 -0.811358 0
M  V30 2597 C 262.109 1.59808 0.178377 0
M  V30 2598 O 263.299 1.74132 -0.0484911 0
M  V30 2599 C 260.431 3.40269 -0.207276 0
M  V30 2600 H 261.624 2.44284 -1.73969 0
M  V30 2601 H 259.177 1.25102 -0.936973 0
M  V30 2602 H 259.912 3.15969 0.73036 0
M  V30 2603 H 259.697 3.81154 -0.919992 0
M  V30 2604 H 261.187 4.176 0.000667944 0
M  V30 2605 N 261.624 0.925811 1.2754 0
M  V30 2606 C 262.571 0.422045 2.26908 0
M  V30 2607 C 263.541 -0.510029 1.58076 0
M  V30 2608 O 264.726 -0.429599 1.85901 0
M  V30 2609 C 261.866 -0.320837 3.43605 0
M  V30 2610 C 260.979 0.64513 4.27156 0
M  V30 2611 C 260.114 -0.117405 5.3107 0
M  V30 2612 C 259.153 0.841391 6.0629 0
M  V30 2613 N 258.29 0.111604 7.02011 0
M  V30 2614 H 263.13 1.27441 2.69375 0
M  V30 2615 H 260.667 0.639697 1.32462 0
M  V30 2616 H 262.625 -0.76785 4.10073 0
M  V30 2617 H 261.255 -1.13745 3.02096 0
M  V30 2618 H 260.307 1.21067 3.6062 0
M  V30 2619 H 261.619 1.37797 4.79389 0
M  V30 2620 H 260.773 -0.624422 6.03478 0
M  V30 2621 H 259.512 -0.883219 4.79636 0
M  V30 2622 H 258.517 1.35967 5.32722 0
M  V30 2623 H 259.742 1.60696 6.59813 0
M  V30 2624 H 257.688 -0.635999 6.5291 0
M  V30 2625 H 257.605 0.784044 7.51923 0
M  V30 2626 H 258.873 -0.374823 7.78598 0
M  V30 2627 N 263.102 -1.41638 0.69111 0
M  V30 2628 C 264.518 -1.55435 0.362224 0
M  V30 2629 C 264.718 -1.66754 -1.13117 0
M  V30 2630 O 263.774 -1.64348 -1.91692 0
M  V30 2631 C 265.087 -2.79588 1.10684 0
M  V30 2632 C 266.635 -2.9338 1.09075 0
M  V30 2633 C 267.11 -4.20414 1.81703 0
M  V30 2634 N 268.601 -4.27362 1.7865 0
M  V30 2635 C 269.336 -5.24507 2.31689 0
M  V30 2636 N 268.832 -6.27708 2.93179 0
M  V30 2637 N 270.625 -5.16416 2.2197 0
M  V30 2638 H 262.776 -1.32536 1.65976 0
M  V30 2639 H 265.039 -0.639115 0.700168 0
M  V30 2640 H 264.745 -2.77419 2.16175 0
M  V30 2641 H 264.619 -3.70973 0.682545 0
M  V30 2642 H 267.006 -2.95067 0.0441238 0
M  V30 2643 H 267.087 -2.0318 1.55407 0
M  V30 2644 H 266.731 -4.19488 2.86343 0
M  V30 2645 H 266.661 -5.09578 1.32808 0
M  V30 2646 H 269.152 -3.53415 1.33815 0
M  V30 2647 H 269.465 -6.98217 3.31229 0
M  V30 2648 H 267.81 -6.28223 2.97255 0
M  V30 2649 H 271.001 -4.34716 1.73607 0
M  V30 2650 H 271.174 -5.91958 2.63609 0
M  V30 2651 N 264.58 -0.43555 -1.51462 0
M  V30 2652 C 265.826 0.131709 -2.02372 0
M  V30 2653 C 266.159 1.42516 -1.3192 0
M  V30 2654 O 265.434 1.89606 -0.433573 0
M  V30 2655 C 265.717 0.352301 -3.58373 0
M  V30 2656 C 265.57 -0.959676 -4.39443 0
M  V30 2657 C 266.889 1.12286 -4.25535 0
M  V30 2658 H 264.008 0.0463936 -0.735538 0
M  V30 2659 H 266.65 -0.574197 -1.81116 0
M  V30 2660 H 264.8 0.9536 -3.76615 0
M  V30 2661 H 266.472 -1.59482 -4.32855 0
M  V30 2662 H 264.715 -1.56468 -4.04599 0
M  V30 2663 H 265.386 -0.759394 -5.46752 0
M  V30 2664 H 267.862 0.613545 -4.11552 0
M  V30 2665 H 266.738 1.24598 -5.34571 0
M  V30 2666 H 266.999 2.15048 -3.86273 0
M  V30 2667 N 266.058 1.56714 -0.166846 0
M  V30 2668 C 267.283 2.01557 0.488833 0
M  V30 2669 C 267.708 1.0463 1.56314 0
M  V30 2670 O 267.066 0.0251304 1.81283 0
M  V30 2671 C 267.114 3.4503 1.04818 0
M  V30 2672 O 266.218 3.51163 2.16236 0
M  V30 2673 H 265.559 0.653516 0.117526 0
M  V30 2674 H 268.089 2.02818 -0.269421 0
M  V30 2675 H 268.099 3.84243 1.37191 0
M  V30 2676 H 266.774 4.15077 0.261572 0
M  V30 2677 H 265.351 3.23807 1.84942 0
M  V30 2678 N 267.536 -0.106894 1.57237 0
M  V30 2679 C 268.483 -1.13049 2.01217 0
M  V30 2680 C 269.453 -1.40471 0.886403 0
M  V30 2681 O 270.638 -1.52133 1.15153 0
M  V30 2682 C 267.778 -2.4487 2.43172 0
M  V30 2683 C 266.891 -2.24281 3.69218 0
M  V30 2684 C 266.026 -3.49417 4.00101 0
M  V30 2685 C 265.065 -3.24038 5.19294 0
M  V30 2686 N 264.202 -4.41409 5.45988 0
M  V30 2687 H 269.042 -0.748456 2.88448 0
M  V30 2688 H 266.579 -0.358054 1.42676 0
M  V30 2689 H 268.537 -3.21786 2.65537 0
M  V30 2690 H 267.167 -2.80944 1.58967 0
M  V30 2691 H 266.219 -1.38224 3.54398 0
M  V30 2692 H 267.531 -2.01512 4.56283 0
M  V30 2693 H 266.685 -4.34746 4.2318 0
M  V30 2694 H 265.424 -3.75229 3.11535 0
M  V30 2695 H 264.429 -2.37102 4.96047 0
M  V30 2696 H 265.654 -2.99584 6.09447 0
M  V30 2697 H 263.6 -4.67319 4.60379 0
M  V30 2698 H 263.517 -4.21788 6.274 0
M  V30 2699 H 264.785 -5.27836 5.73593 0
M  V30 2700 N 269.014 -1.53014 -0.377408 0
M  V30 2701 C 270.26 -1.69821 -1.11948 0
M  V30 2702 C 270.615 -0.438581 -1.87335 0
M  V30 2703 O 269.908 0.568094 -1.82984 0
M  V30 2704 C 270.102 -2.87982 -2.11663 0
M  V30 2705 C 269.931 -4.25315 -1.46072 0
M  V30 2706 C 268.701 -4.90354 -1.21986 0
M  V30 2707 C 270.899 -5.06281 -0.904664 0
M  V30 2708 N 268.881 -6.11641 -0.526215 0
M  V30 2709 C 270.252 -6.19069 -0.339726 0
M  V30 2710 C 272.307 -4.91395 -0.8022 0
M  V30 2711 C 271.01 -7.18598 0.317669 0
M  V30 2712 C 273.036 -5.91187 -0.158606 0
M  V30 2713 C 272.398 -7.03289 0.39551 0
M  V30 2714 H 268.497 -0.674785 -0.395207 0
M  V30 2715 H 271.081 -1.90389 -0.407437 0
M  V30 2716 H 269.252 -2.68974 -2.80192 0
M  V30 2717 H 270.984 -2.93669 -2.78461 0
M  V30 2718 H 267.739 -4.49286 -1.49798 0
M  V30 2719 H 268.163 -6.76719 -0.195098 0
M  V30 2720 H 272.805 -4.04925 -1.21639 0
M  V30 2721 H 270.523 -8.04669 0.743836 0
M  V30 2722 H 274.109 -5.81744 -0.0804138 0
M  V30 2723 H 272.989 -7.79183 0.885648 0
M  V30 2724 N 270.492 0.636531 -1.44174 0
M  V30 2725 C 271.908 0.954104 -1.27941 0
M  V30 2726 C 272.108 2.0039 -0.211248 0
M  V30 2727 O 271.164 2.49236 0.404695 0
M  V30 2728 C 272.477 1.4225 -2.64925 0
M  V30 2729 C 274.025 1.53827 -2.72592 0
M  V30 2730 C 274.5 2.04053 -4.10032 0
M  V30 2731 N 275.991 2.11331 -4.12182 0
M  V30 2732 C 276.726 2.51352 -5.15374 0
M  V30 2733 N 276.222 2.90549 -6.2893 0
M  V30 2734 N 278.015 2.51438 -5.02728 0
M  V30 2735 H 270.166 -0.0578386 -2.12321 0
M  V30 2736 H 272.429 0.0367406 -0.947288 0
M  V30 2737 H 272.135 0.725466 -3.44136 0
M  V30 2738 H 272.009 2.39451 -2.9145 0
M  V30 2739 H 274.396 2.22628 -1.93702 0
M  V30 2740 H 274.477 0.550154 -2.49814 0
M  V30 2741 H 274.121 1.35848 -4.89395 0
M  V30 2742 H 274.051 3.03726 -4.30184 0
M  V30 2743 H 276.542 1.83745 -3.30222 0
M  V30 2744 H 276.855 3.19884 -7.03487 0
M  V30 2745 H 275.2 2.88313 -6.32377 0
M  V30 2746 H 278.391 2.20203 -4.13072 0
M  V30 2747 H 278.564 2.82304 -5.83274 0
M  V30 2748 N 271.97 1.30982 0.876444 0
M  V30 2749 C 273.219 1.19658 1.62373 0
M  V30 2750 C 273.532 -0.245636 1.94052 0
M  V30 2751 O 274.738 -0.48049 2.67214 0
M  V30 2752 C 273.194 2.09433 2.92687 0
M  V30 2753 C 272.802 3.58613 2.68516 0
M  V30 2754 C 274.546 2.06893 3.70669 0
M  V30 2755 C 272.453 4.40416 3.94699 0
M  V30 2756 H 271.383 0.444268 0.609214 0
M  V30 2757 H 274.034 1.55791 0.969605 0
M  V30 2758 H 272.416 1.66191 3.59439 0
M  V30 2759 H 273.59 4.10058 2.10212 0
M  V30 2760 H 271.905 3.63063 2.03898 0
M  V30 2761 H 274.502 2.65258 4.64265 0
M  V30 2762 H 274.845 1.05448 4.02724 0
M  V30 2763 H 275.378 2.48301 3.10792 0
M  V30 2764 H 272.117 5.42591 3.67798 0
M  V30 2765 H 271.637 3.93731 4.52477 0
M  V30 2766 H 273.316 4.52294 4.62644 0
M  V30 2767 N 273.449 -1.08991 1.13837 0
M  V30 2768 C 274.379 -2.17771 0.842507 0
M  V30 2769 C 275.36 -1.6892 -0.20001 0
M  V30 2770 O 276.545 -1.94113 -0.0579731 0
M  V30 2771 C 273.675 -3.4589 0.312644 0
M  V30 2772 C 272.629 -4.08099 1.28992 0
M  V30 2773 C 271.955 -5.31098 0.619623 0
M  V30 2774 C 273.255 -4.50077 2.65005 0
M  V30 2775 H 274.949 -2.42777 1.75213 0
M  V30 2776 H 272.495 -1.16682 0.843875 0
M  V30 2777 H 274.448 -4.21297 0.0933043 0
M  V30 2778 H 273.172 -3.20419 -0.632382 0
M  V30 2779 H 271.831 -3.34717 1.49533 0
M  V30 2780 H 271.479 -5.0191 -0.33102 0
M  V30 2781 H 271.179 -5.73674 1.27167 0
M  V30 2782 H 272.703 -6.09224 0.409669 0
M  V30 2783 H 274.117 -5.16688 2.48407 0
M  V30 2784 H 272.514 -5.03553 3.26427 0
M  V30 2785 H 273.584 -3.62257 3.22332 0
M  V30 2786 N 274.927 -0.932562 -1.27047 0
M  V30 2787 C 276.152 -0.591474 -1.98787 0
M  V30 2788 C 276.577 0.824601 -1.69062 0
M  V30 2789 O 275.935 1.5541 -0.933677 0
M  V30 2790 C 275.983 -0.829808 -3.50922 0
M  V30 2791 O 275.087 0.102266 -4.12273 0
M  V30 2792 H 274.428 -0.227185 -0.623926 0
M  V30 2793 H 276.958 -1.25314 -1.61733 0
M  V30 2794 H 276.968 -0.747292 -4.01098 0
M  V30 2795 H 275.643 -1.86201 -3.7189 0
M  V30 2796 H 274.22 -0.0305761 -3.72887 0
M  V30 2797 N 276.405 1.4127 -0.698611 0
M  V30 2798 C 277.653 2.00782 -0.230409 0
M  V30 2799 C 277.974 1.5562 1.17505 0
M  V30 2800 O 277.244 0.78815 1.79346 0
M  V30 2801 H 275.824 0.742464 -0.0821944 0
M  V30 2802 H 278.486 1.72852 -0.90045 0
M  V30 2803 H 277.582 3.11095 -0.25021 0
M  V30 2804 N 277.883 0.443576 1.51229 0
M  V30 2805 C 279.111 -0.11929 2.06556 0
M  V30 2806 C 279.526 -1.35921 1.31038 0
M  V30 2807 O 278.883 -1.78675 0.371704 0
M  V30 2808 C 278.934 -0.435228 3.5887 0
M  V30 2809 O 278.655 0.755486 4.31537 0
M  V30 2810 C 280.156 -1.04808 4.30732 0
M  V30 2811 H 277.376 -0.0051584 0.67098 0
M  V30 2812 H 279.92 0.624453 1.94733 0
M  V30 2813 H 278.075 -1.12887 3.70588 0
M  V30 2814 H 278.489 0.483491 5.22267 0
M  V30 2815 H 279.963 -1.2191 5.3837 0
M  V30 2816 H 280.44 -2.03081 3.89429 0
M  V30 2817 H 281.046 -0.393637 4.23474 0
M  V30 2818 N 279.361 -1.56624 0.175154 0
M  V30 2819 C 280.609 -1.96609 -0.467885 0
M  V30 2820 C 280.93 -1.06238 -1.63519 0
M  V30 2821 O 280.2 -0.129523 -1.95471 0
M  V30 2822 H 278.78 -0.726008 -0.175845 0
M  V30 2823 H 281.442 -1.93195 0.257234 0
M  V30 2824 H 280.538 -3.00989 -0.825342 0
M  V30 2825 N 280.839 0.0985539 -1.57292 0
M  V30 2826 C 282.085 0.803867 -1.86188 0
M  V30 2827 C 282.418 1.78549 -0.763794 0
M  V30 2828 O 281.693 1.93153 0.22855 0
M  V30 2829 C 281.976 1.53568 -3.25713 0
M  V30 2830 C 281.829 0.572277 -4.46145 0
M  V30 2831 C 283.148 2.48708 -3.63087 0
M  V30 2832 H 280.267 0.290781 -0.677211 0
M  V30 2833 H 282.909 0.0675783 -1.8988 0
M  V30 2834 H 281.059 2.16332 -3.22696 0
M  V30 2835 H 282.731 -0.0480894 -4.61275 0
M  V30 2836 H 280.974 -0.114618 -4.33649 0
M  V30 2837 H 281.645 1.12139 -5.40489 0
M  V30 2838 H 284.121 1.96039 -3.67026 0
M  V30 2839 H 282.997 2.96932 -4.61652 0
M  V30 2840 H 283.258 3.32309 -2.91588 0
M  V30 2841 N 282.317 1.53212 0.369288 0
M  V30 2842 C 283.728 1.60943 0.946276 0
M  V30 2843 C 284.079 0.47452 1.90375 0
M  V30 2844 O 283.204 -0.399597 2.12679 0
M  V30 2845 C 283.799 2.91715 1.72302 0
M  V30 2846 C 282.358 3.01792 2.24941 0
M  V30 2847 C 281.505 2.56211 1.06072 0
M  V30 2848 H 284.456 1.58007 0.148198 0
M  V30 2849 H 284.477 2.79309 2.58393 0
M  V30 2850 H 283.989 3.74295 1.0259 0
M  V30 2851 H 282.09 2.23791 2.97906 0
M  V30 2852 H 282.203 4.06803 2.53077 0
M  V30 2853 H 280.567 2.10998 1.4266 0
M  V30 2854 H 281.35 3.41206 0.378639 0
M  V30 2855 N 283.795 -0.628877 1.44509 0
M  V30 2856 C 285.042 -1.38839 1.47411 0
M  V30 2857 C 285.37 -1.94202 0.10757 0
M  V30 2858 O 284.625 -1.74243 -0.890947 0
M  V30 2859 C 284.924 -2.56995 2.48371 0
M  V30 2860 C 284.59 -2.19908 3.93639 0
M  V30 2861 C 283.252 -2.09506 4.33198 0
M  V30 2862 C 285.604 -1.9064 4.85083 0
M  V30 2863 C 282.932 -1.68028 5.62124 0
M  V30 2864 C 285.284 -1.50655 6.14399 0
M  V30 2865 C 283.948 -1.38796 6.5291 0
M  V30 2866 H 283.218 -0.508048 0.539414 0
M  V30 2867 H 285.865 -0.712913 1.77735 0
M  V30 2868 H 284.17 -3.29786 2.11538 0
M  V30 2869 H 285.867 -3.15223 2.47861 0
M  V30 2870 H 282.457 -2.28922 3.62343 0
M  V30 2871 H 286.641 -1.97585 4.55273 0
M  V30 2872 H 281.897 -1.57452 5.90778 0
M  V30 2873 H 286.071 -1.27048 6.84713 0
M  V30 2874 H 283.698 -1.06429 7.52713 0
M  V30 2875 N 285.273 -1.31445 -0.869486 0
M  V30 2876 C 286.55 -1.11795 -1.60503 0
M  V30 2877 C 286.93 0.327168 -2.08549 0
M  V30 2878 O 286.278 1.32135 -1.8642 0
M  V30 2879 C 286.488 -2.13258 -2.76265 0
M  V30 2880 C 287.836 -2.45805 -3.46215 0
M  V30 2881 O 288.86 -2.11688 -2.86473 0
M  V30 2882 O 287.719 -3.04228 -4.5399 0
M  V30 2883 H 284.813 -0.430421 -0.706163 0
M  V30 2884 H 287.359 -1.42925 -0.914907 0
M  V30 2885 H 286.131 -3.10461 -2.3818 0
M  V30 2886 H 285.754 -1.83035 -3.52964 0
M  V30 2887 N 286.751 1.08385 -1.14413 0
M  V30 2888 C 288.028 1.77429 -0.823297 0
M  V30 2889 C 288.408 1.9974 0.683163 0
M  V30 2890 O 287.756 1.60739 1.62405 0
M  V30 2891 C 287.966 3.09004 -1.62227 0
M  V30 2892 C 289.314 3.83532 -1.82177 0
M  V30 2893 O 290.338 3.18786 -1.58915 0
M  V30 2894 O 289.197 4.99792 -2.21067 0
M  V30 2895 H 286.291 0.769999 -0.301712 0
M  V30 2896 H 288.837 1.14846 -1.24934 0
M  V30 2897 H 287.609 2.88316 -2.64555 0
M  V30 2898 H 287.232 3.79316 -1.19187 0
M  V30 2899 N 288.23 0.939286 1.26551 0
M  V30 2900 C 289.193 0.451987 2.24699 0
M  V30 2901 C 290.193 -0.435869 1.5478 0
M  V30 2902 O 291.383 -0.235314 1.72603 0
M  V30 2903 C 288.515 -0.348801 3.39111 0
M  V30 2904 H 289.708 1.3193 2.69322 0
M  V30 2905 H 287.261 0.721072 1.38673 0
M  V30 2906 H 287.996 -1.23444 2.99887 0
M  V30 2907 H 287.781 0.287945 3.91041 0
M  V30 2908 H 289.271 -0.679726 4.12031 0
M  V30 2909 N 289.708 -1.40897 0.706093 0
M  V30 2910 C 290.618 -2.3455 0.0482286 0
M  V30 2911 C 291.634 -1.56796 -0.754396 0
M  V30 2912 O 292.81 -1.89228 -0.689538 0
M  V30 2913 C 289.875 -3.35625 -0.869303 0
M  V30 2914 C 288.936 -4.29261 -0.0576994 0
M  V30 2915 C 288.169 -5.25508 -0.931531 0
M  V30 2916 O 288.392 -5.27472 -2.17092 0
M  V30 2917 O 287.326 -6.00727 -0.375587 0
M  V30 2918 H 291.152 -2.92407 0.820476 0
M  V30 2919 H 288.737 -1.4193 0.4665 0
M  V30 2920 H 290.619 -3.97635 -1.39514 0
M  V30 2921 H 289.294 -2.80196 -1.62086 0
M  V30 2922 H 288.201 -3.70566 0.512988 0
M  V30 2923 H 289.534 -4.87817 0.655426 0
M  V30 2924 N 291.186 -0.45159 -1.50991 0
M  V30 2925 C 292.416 0.108177 -2.06317 0
M  V30 2926 C 292.824 1.35774 -1.31765 0
M  V30 2927 O 292.167 1.79838 -0.374694 0
M  V30 2928 C 292.229 0.481659 -3.56259 0
M  V30 2929 C 291.893 -0.663114 -4.52163 0
M  V30 2930 C 292.89 -1.53947 -4.96585 0
M  V30 2931 C 290.575 -0.8479 -4.95092 0
M  V30 2932 C 292.569 -2.58518 -5.82621 0
M  V30 2933 C 290.256 -1.89686 -5.80915 0
M  V30 2934 C 291.254 -2.76388 -6.24579 0
M  V30 2935 O 290.942 -3.79482 -7.08695 0
M  V30 2936 H 290.674 0.00499183 -0.675982 0
M  V30 2937 H 293.228 -0.633659 -1.95381 0
M  V30 2938 H 291.458 1.27641 -3.65027 0
M  V30 2939 H 293.147 0.974233 -3.94035 0
M  V30 2940 H 293.913 -1.4083 -4.64103 0
M  V30 2941 H 289.792 -0.18258 -4.60638 0
M  V30 2942 H 293.336 -3.26224 -6.16623 0
M  V30 2943 H 289.233 -2.02817 -6.12809 0
M  V30 2944 H 290.001 -3.76234 -7.26905 0
M  V30 2945 N 292.664 1.56529 -0.183458 0
M  V30 2946 C 293.627 2.17324 0.728223 0
M  V30 2947 C 294.627 1.12453 1.14939 0
M  V30 2948 O 295.817 1.37902 1.06437 0
M  V30 2949 C 292.949 2.76591 1.99274 0
M  V30 2950 H 294.142 2.99241 0.198772 0
M  V30 2951 H 291.695 1.5616 0.0661391 0
M  V30 2952 H 292.43 1.98441 2.56499 0
M  V30 2953 H 292.215 3.5335 1.69959 0
M  V30 2954 H 293.705 3.23311 2.6431 0
M  V30 2955 N 294.142 -0.090211 1.57342 0
M  V30 2956 C 295.558 -0.444547 1.53284 0
M  V30 2957 C 295.758 -1.80238 0.900914 0
M  V30 2958 O 294.814 -2.4759 0.495513 0
M  V30 2959 C 296.127 -0.402543 2.97993 0
M  V30 2960 C 297.675 -0.48405 3.09234 0
M  V30 2961 C 298.15 -0.472144 4.5556 0
M  V30 2962 N 299.641 -0.532757 4.60126 0
M  V30 2963 C 300.376 -0.545462 5.708 0
M  V30 2964 N 299.872 -0.514082 6.9089 0
M  V30 2965 N 301.665 -0.59064 5.58988 0
M  V30 2966 H 293.816 0.799121 1.96794 0
M  V30 2967 H 296.079 0.297965 0.899956 0
M  V30 2968 H 295.785 0.528106 3.47712 0
M  V30 2969 H 295.659 -1.21969 3.56936 0
M  V30 2970 H 298.046 -1.40512 2.595 0
M  V30 2971 H 298.127 0.361328 2.53235 0
M  V30 2972 H 297.771 0.445 5.05947 0
M  V30 2973 H 297.701 -1.3348 5.09402 0
M  V30 2974 H 300.192 -0.562006 3.73698 0
M  V30 2975 H 300.505 -0.527195 7.71 0
M  V30 2976 H 298.85 -0.481054 6.93333 0
M  V30 2977 H 302.041 -0.61272 4.64073 0
M  V30 2978 H 302.214 -0.597073 6.45243 0
M  V30 2979 N 295.62 -1.53406 -0.361157 0
M  V30 2980 C 296.866 -1.70999 -1.1014 0
M  V30 2981 C 297.221 -0.458425 -1.86859 0
M  V30 2982 O 296.514 0.548654 -1.83577 0
M  V30 2983 C 296.708 -2.90211 -2.08596 0
M  V30 2984 C 296.537 -4.26841 -1.41553 0
M  V30 2985 C 295.307 -4.91621 -1.16778 0
M  V30 2986 C 297.505 -5.07212 -0.850915 0
M  V30 2987 N 295.487 -6.12164 -0.461312 0
M  V30 2988 C 296.858 -6.19394 -0.274046 0
M  V30 2989 C 298.913 -4.92218 -0.750036 0
M  V30 2990 C 297.616 -7.18221 0.393868 0
M  V30 2991 C 299.642 -5.91322 -0.095894 0
M  V30 2992 C 299.004 -7.0283 0.470081 0
M  V30 2993 H 295.103 -0.678939 -0.388028 0
M  V30 2994 H 297.687 -1.90811 -0.38722 0
M  V30 2995 H 295.858 -2.71931 -2.77323 0
M  V30 2996 H 297.59 -2.96606 -2.7533 0
M  V30 2997 H 294.345 -4.50849 -1.45024 0
M  V30 2998 H 294.769 -6.76888 -0.123312 0
M  V30 2999 H 299.411 -4.06192 -1.17337 0
M  V30 3000 H 297.129 -8.03835 0.82914 0
M  V30 3001 H 300.715 -5.81797 -0.0187075 0
M  V30 3002 H 299.595 -7.782 0.968241 0
M  V30 3003 N 297.098 0.621204 -1.44841 0
M  V30 3004 C 298.008 1.7612 -1.5498 0
M  V30 3005 C 299.024 1.68477 -0.434927 0
M  V30 3006 O 300.2 1.89076 -0.693693 0
M  V30 3007 C 297.265 3.1254 -1.50065 0
M  V30 3008 C 296.326 3.31741 -2.72482 0
M  V30 3009 C 295.559 4.61653 -2.67792 0
M  V30 3010 O 295.782 5.431 -1.74352 0
M  V30 3011 O 294.716 4.83271 -3.58794 0
M  V30 3012 H 298.542 1.70518 -2.51311 0
M  V30 3013 H 296.127 0.783643 -1.27198 0
M  V30 3014 H 298.009 3.93844 -1.49882 0
M  V30 3015 H 296.684 3.18663 -0.568806 0
M  V30 3016 H 295.591 2.50077 -2.7823 0
M  V30 3017 H 296.924 3.30486 -3.64746 0
M  V30 3018 N 298.576 1.31904 0.862503 0
M  V30 3019 C 299.486 1.22161 2.00285 0
M  V30 3020 C 300.502 0.136785 1.73462 0
M  V30 3021 O 301.678 0.355994 1.98229 0
M  V30 3022 C 298.743 0.937093 3.33796 0
M  V30 3023 C 297.804 2.10957 3.73893 0
M  V30 3024 C 297.037 1.83853 5.01033 0
M  V30 3025 O 297.26 0.777274 5.65079 0
M  V30 3026 O 296.194 2.69741 5.38074 0
M  V30 3027 H 300.02 2.18008 2.11439 0
M  V30 3028 H 297.605 1.11716 0.991957 0
M  V30 3029 H 299.487 0.794583 4.13841 0
M  V30 3030 H 298.162 0.00871894 3.23699 0
M  V30 3031 H 297.069 2.30752 2.94456 0
M  V30 3032 H 298.402 3.02046 3.88625 0
M  V30 3033 N 300.054 -1.07777 1.14986 0
M  V30 3034 C 301.47 -1.32373 0.891596 0
M  V30 3035 C 301.67 -1.9609 -0.463788 0
M  V30 3036 O 300.726 -2.21801 -1.20667 0
M  V30 3037 C 302.039 -2.21905 2.02925 0
M  V30 3038 C 303.587 -2.35367 2.06329 0
M  V30 3039 C 304.062 -3.28245 3.19405 0
M  V30 3040 N 305.553 -3.35824 3.19024 0
M  V30 3041 C 306.288 -4.07739 4.03158 0
M  V30 3042 N 305.784 -4.82306 4.97346 0
M  V30 3043 N 307.577 -4.03635 3.91197 0
M  V30 3044 H 299.728 -0.648039 2.02273 0
M  V30 3045 H 301.991 -0.348149 0.881757 0
M  V30 3046 H 301.697 -1.82342 3.0074 0
M  V30 3047 H 301.571 -3.22407 1.95789 0
M  V30 3048 H 303.958 -2.74186 1.09116 0
M  V30 3049 H 304.039 -1.34585 2.17533 0
M  V30 3050 H 303.683 -2.90146 4.16867 0
M  V30 3051 H 303.613 -4.28971 3.05437 0
M  V30 3052 H 306.104 -2.8267 2.50811 0
M  V30 3053 H 306.417 -5.34661 5.57994 0
M  V30 3054 H 304.762 -4.81337 5.01338 0
M  V30 3055 H 307.953 -3.44491 3.16928 0
M  V30 3056 H 308.126 -4.59417 4.5699 0
M  V30 3057 N 301.532 -0.945985 -1.26051 0
M  V30 3058 C 302.495 -0.463897 -2.24456 0
M  V30 3059 C 303.495 0.427655 -1.55009 0
M  V30 3060 O 304.685 0.226157 -1.72726 0
M  V30 3061 C 301.817 0.330812 -3.39291 0
M  V30 3062 H 303.01 -1.33357 -2.68619 0
M  V30 3063 H 300.563 -0.728416 -1.38289 0
M  V30 3064 H 301.298 1.21852 -3.00537 0
M  V30 3065 H 301.083 -0.308679 -3.90883 0
M  V30 3066 H 302.573 0.657865 -4.12386 0
M  V30 3067 N 303.011 1.40521 -0.713556 0
M  V30 3068 C 304.26 2.00155 -0.249192 0
M  V30 3069 C 304.573 1.57224 1.16362 0
M  V30 3070 O 305.779 2.09542 1.72639 0
M  V30 3071 C 304.235 3.5773 -0.3946 0
M  V30 3072 C 303.843 4.09635 -1.81392 0
M  V30 3073 C 305.587 4.24499 0.00907364 0
M  V30 3074 C 303.494 5.59707 -1.91003 0
M  V30 3075 H 302.424 0.74868 -0.0894114 0
M  V30 3076 H 305.075 1.60784 -0.884352 0
M  V30 3077 H 303.457 3.94792 0.30911 0
M  V30 3078 H 304.631 3.83955 -2.54785 0
M  V30 3079 H 302.946 3.55456 -2.16888 0
M  V30 3080 H 305.543 5.34683 -0.0420404 0
M  V30 3081 H 305.886 4.02824 1.05065 0
M  V30 3082 H 306.419 3.92536 -0.645007 0
M  V30 3083 H 303.158 5.86234 -2.93275 0
M  V30 3084 H 302.678 5.87258 -1.22019 0
M  V30 3085 H 304.357 6.24776 -1.6812 0
M  V30 3086 N 304.489 0.459591 1.5075 0
M  V30 3087 C 305.766 -0.160371 1.94941 0
M  V30 3088 C 306.146 -1.58048 1.39943 0
M  V30 3089 O 305.494 -2.206 0.595629 0
M  V30 3090 C 305.704 -0.115432 3.48809 0
M  V30 3091 C 307.052 -0.310026 4.23467 0
M  V30 3092 O 308.076 -0.192543 3.55679 0
M  V30 3093 O 306.935 -0.546031 5.43765 0
M  V30 3094 H 304.029 -0.117925 0.818549 0
M  V30 3095 H 306.575 0.519169 1.61563 0
M  V30 3096 H 305.347 0.87652 3.81357 0
M  V30 3097 H 304.97 -0.836928 3.88692 0
M  V30 3098 N 305.967 -1.56429 0.191757 0
M  V30 3099 C 306.917 -2.15548 -0.743184 0
M  V30 3100 C 307.901 -1.09531 -1.17863 0
M  V30 3101 O 309.093 -1.35602 -1.13759 0
M  V30 3102 C 306.222 -2.81577 -1.96391 0
M  V30 3103 C 305.308 -3.9478 -1.54951 0
M  V30 3104 N 305.699 -4.98677 -0.845876 0
M  V30 3105 C 303.997 -4.06319 -1.83905 0
M  V30 3106 C 304.698 -5.78183 -0.638724 0
M  V30 3107 N 303.674 -5.30495 -1.18643 0
M  V30 3108 H 307.476 -2.9324 -0.196839 0
M  V30 3109 H 304.99 -1.62398 -0.0081603 0
M  V30 3110 H 306.987 -3.22321 -2.64415 0
M  V30 3111 H 305.647 -2.05371 -2.51501 0
M  V30 3112 H 306.658 -5.15464 -0.501704 0
M  V30 3113 H 303.335 -3.41238 -2.40548 0
M  V30 3114 H 304.725 -6.71851 -0.0807929 0
M  V30 3115 N 307.445 0.0818655 -1.57387 0
M  V30 3116 C 308.408 1.08265 -2.02018 0
M  V30 3117 C 309.408 1.32183 -0.915664 0
M  V30 3118 O 310.598 1.28073 -1.18081 0
M  V30 3119 C 307.73 2.42871 -2.39221 0
M  V30 3120 H 308.923 0.698204 -2.91659 0
M  V30 3121 H 306.476 0.327303 -1.52835 0
M  V30 3122 H 307.211 2.86167 -1.52575 0
M  V30 3123 H 306.996 2.26855 -3.19811 0
M  V30 3124 H 308.486 3.14826 -2.74362 0
M  V30 3125 N 308.923 1.53595 0.353017 0
M  V30 3126 C 310.171 1.70049 1.09215 0
M  V30 3127 C 310.492 0.461406 1.89463 0
M  V30 3128 O 309.762 -0.524633 1.88744 0
M  V30 3129 H 308.342 0.626912 0.40619 0
M  V30 3130 H 311.004 1.90822 0.396585 0
M  V30 3131 H 310.1 2.56718 1.77488 0
M  V30 3132 N 310.401 -0.613514 1.45168 0
M  V30 3133 C 311.649 -1.36997 1.48581 0
M  V30 3134 C 311.97 -1.94589 0.126545 0
M  V30 3135 O 311.24 -1.76816 -0.843372 0
M  V30 3136 H 309.82 -0.508558 0.547154 0
M  V30 3137 H 312.482 -0.720853 1.81079 0
M  V30 3138 H 311.578 -2.1924 2.22127 0
M  V30 3139 N 311.879 -1.3236 -0.855495 0
M  V30 3140 C 313.125 -1.23054 -1.612 0
M  V30 3141 C 313.458 0.207404 -1.93089 0
M  V30 3142 O 312.733 1.14432 -1.57275 0
M  V30 3143 C 313.016 -2.08937 -2.93287 0
M  V30 3144 C 312.869 -3.61105 -2.68185 0
M  V30 3145 C 314.188 -1.94986 -3.94549 0
M  V30 3146 H 311.307 -0.448364 -0.584926 0
M  V30 3147 H 313.949 -1.62297 -0.987917 0
M  V30 3148 H 312.099 -1.75599 -3.46551 0
M  V30 3149 H 313.771 -4.04652 -2.21483 0
M  V30 3150 H 312.014 -3.83813 -2.02164 0
M  V30 3151 H 312.685 -4.16522 -3.62234 0
M  V30 3152 H 315.161 -2.24189 -3.5054 0
M  V30 3153 H 314.037 -2.57356 -4.84829 0
M  V30 3154 H 314.298 -0.917263 -4.3248 0
M  V30 3155 N 313.357 1.07166 -1.15556 0
M  V30 3156 C 314.287 2.16403 -0.877046 0
M  V30 3157 C 315.268 1.69217 0.173111 0
M  V30 3158 O 316.453 1.94181 0.027084 0
M  V30 3159 C 313.583 3.45349 -0.367632 0
M  V30 3160 C 312.537 4.05995 -1.35468 0
M  V30 3161 C 311.863 5.30045 -0.704038 0
M  V30 3162 C 313.163 4.45804 -2.72132 0
M  V30 3163 H 314.857 2.39959 -1.79053 0
M  V30 3164 H 312.403 1.15325 -0.862331 0
M  V30 3165 H 314.356 4.21095 -0.160317 0
M  V30 3166 H 313.08 3.21385 0.581326 0
M  V30 3167 H 311.739 3.32296 -1.54839 0
M  V30 3168 H 311.387 5.02373 0.251128 0
M  V30 3169 H 311.087 5.71579 -1.36277 0
M  V30 3170 H 312.611 6.08495 -0.50654 0
M  V30 3171 H 314.025 5.12671 -2.56595 0
M  V30 3172 H 312.422 4.98296 -3.34397 0
M  V30 3173 H 313.492 3.57083 -3.28054 0
M  V30 3174 N 314.835 0.952656 1.25548 0
M  V30 3175 C 315.798 0.475794 2.24207 0
M  V30 3176 C 316.798 -0.419428 1.55234 0
M  V30 3177 O 317.988 -0.216994 1.72843 0
M  V30 3178 C 315.12 -0.312814 3.39462 0
M  V30 3179 H 316.313 1.34779 2.67908 0
M  V30 3180 H 313.866 0.735739 1.37901 0
M  V30 3181 H 314.601 -1.20257 3.01179 0
M  V30 3182 H 314.386 0.329404 3.90714 0
M  V30 3183 H 315.876 -0.635986 4.12729 0
M  V30 3184 N 316.313 -1.40141 0.720998 0
M  V30 3185 C 317.223 -2.34486 0.0731031 0
M  V30 3186 C 318.239 -1.57587 -0.737723 0
M  V30 3187 O 319.415 -1.89949 -0.669429 0
M  V30 3188 C 316.48 -3.36528 -0.833656 0
M  V30 3189 C 315.541 -4.29298 -0.0121673 0
M  V30 3190 C 314.774 -5.26466 -0.875742 0
M  V30 3191 O 314.997 -5.29745 -2.11485 0
M  V30 3192 O 313.931 -6.01092 -0.31185 0
M  V30 3193 H 317.757 -2.9152 0.851444 0
M  V30 3194 H 315.342 -1.41427 0.481527 0
M  V30 3195 H 317.224 -3.99093 -1.35289 0
M  V30 3196 H 315.899 -2.81899 -1.59105 0
M  V30 3197 H 314.806 -3.70001 0.552262 0
M  V30 3198 H 316.139 -4.87094 0.707129 0
M  V30 3199 N 317.792 -0.46758 -1.50504 0
M  V30 3200 C 319.203 -0.0116166 -1.86696 0
M  V30 3201 C 319.554 1.39202 -1.38265 0
M  V30 3202 O 318.679 2.0313 -0.746132 0
M  V30 3203 C 319.274 -0.0143044 -3.38797 0
M  V30 3204 C 317.833 0.386175 -3.74414 0
M  V30 3205 C 316.98 -0.401287 -2.74381 0
M  V30 3206 H 319.931 -0.682022 -1.43297 0
M  V30 3207 H 319.952 0.788641 -3.72237 0
M  V30 3208 H 319.464 -1.03602 -3.74016 0
M  V30 3209 H 317.565 1.41237 -3.44794 0
M  V30 3210 H 317.678 0.0899596 -4.79016 0
M  V30 3211 H 316.042 0.144536 -2.5429 0
M  V30 3212 H 316.825 -1.42244 -3.12444 0
M  V30 3213 N 319.27 1.56325 -0.20005 0
M  V30 3214 C 320.5 2.01811 0.442232 0
M  V30 3215 C 320.908 1.07932 1.55394 0
M  V30 3216 O 320.251 0.0772685 1.83537 0
M  V30 3217 C 320.313 3.43685 1.05457 0
M  V30 3218 C 319.977 4.56928 0.0809833 0
M  V30 3219 C 320.974 5.15009 -0.711471 0
M  V30 3220 C 318.659 5.0229 -0.0315364 0
M  V30 3221 C 320.653 6.16904 -1.60336 0
M  V30 3222 C 318.34 6.04028 -0.926981 0
M  V30 3223 C 319.338 6.6121 -1.71146 0
M  V30 3224 O 319.026 7.60971 -2.59189 0
M  V30 3225 H 318.758 0.666173 0.114848 0
M  V30 3226 H 321.312 2.03085 -0.307511 0
M  V30 3227 H 319.542 3.39413 1.85299 0
M  V30 3228 H 321.231 3.72948 1.60201 0
M  V30 3229 H 321.997 4.80827 -0.634873 0
M  V30 3230 H 317.876 4.57476 0.568902 0
M  V30 3231 H 321.42 6.61464 -2.21611 0
M  V30 3232 H 317.317 6.37634 -1.00468 0
M  V30 3233 H 318.085 7.7841 -2.53023 0
M  V30 3234 N 320.748 -0.0735177 1.57428 0
M  V30 3235 C 321.711 -1.07192 2.02589 0
M  V30 3236 C 322.711 -1.31695 0.922661 0
M  V30 3237 O 323.901 -1.27445 1.18758 0
M  V30 3238 C 321.033 -2.41599 2.40506 0
M  V30 3239 H 322.226 -0.682727 2.92025 0
M  V30 3240 H 319.779 -0.319193 1.53006 0
M  V30 3241 H 320.514 -2.85354 1.5409 0
M  V30 3242 H 320.299 -2.25156 3.21009 0
M  V30 3243 H 321.789 -3.13367 2.76027 0
M  V30 3244 N 322.226 -1.5378 -0.344866 0
M  V30 3245 C 323.176 -1.78057 -1.42407 0
M  V30 3246 C 324.16 -0.635732 -1.47808 0
M  V30 3247 O 325.352 -0.89508 -1.527 0
M  V30 3248 C 322.481 -1.99242 -2.79566 0
M  V30 3249 C 321.567 -3.19787 -2.78562 0
M  V30 3250 N 321.958 -4.41284 -2.47189 0
M  V30 3251 C 320.256 -3.2093 -3.0971 0
M  V30 3252 C 320.957 -5.23128 -2.54385 0
M  V30 3253 N 319.933 -4.59813 -2.89953 0
M  V30 3254 H 323.735 -2.69588 -1.17046 0
M  V30 3255 H 321.249 -1.52687 -0.553217 0
M  V30 3256 H 323.246 -2.14768 -3.57324 0
M  V30 3257 H 321.906 -1.08953 -3.05875 0
M  V30 3258 H 322.917 -4.68657 -2.20411 0
M  V30 3259 H 319.594 -2.40603 -3.41199 0
M  V30 3260 H 320.984 -6.30096 -2.333 0
M  V30 3261 N 323.704 0.605807 -1.45491 0
M  V30 3262 C 324.934 1.38934 -1.52908 0
M  V30 3263 C 325.342 1.88513 -0.161086 0
M  V30 3264 O 324.685 1.62962 0.847891 0
M  V30 3265 C 324.747 2.62737 -2.45376 0
M  V30 3266 C 324.411 2.34785 -3.92078 0
M  V30 3267 C 325.408 1.95038 -4.8193 0
M  V30 3268 C 323.093 2.47642 -4.37011 0
M  V30 3269 C 325.087 1.68511 -6.14722 0
M  V30 3270 C 322.774 2.20728 -5.69844 0
M  V30 3271 C 323.772 1.81225 -6.58519 0
M  V30 3272 O 323.46 1.54627 -7.88889 0
M  V30 3273 H 323.192 0.431629 -0.520262 0
M  V30 3274 H 325.746 0.74573 -1.91384 0
M  V30 3275 H 323.976 3.29824 -2.01874 0
M  V30 3276 H 325.665 3.24783 -2.43456 0
M  V30 3277 H 326.431 1.84639 -4.48479 0
M  V30 3278 H 322.31 2.77356 -3.68232 0
M  V30 3279 H 325.854 1.37602 -6.83894 0
M  V30 3280 H 321.751 2.30744 -6.02849 0
M  V30 3281 H 322.519 1.68665 -8.00933 0
M  V30 3282 N 325.182 1.32811 0.848464 0
M  V30 3283 C 326.407 1.26882 1.6406 0
M  V30 3284 C 326.832 -0.15913 1.87426 0
M  V30 3285 O 326.19 -1.11258 1.43148 0
M  V30 3286 C 326.238 2.03997 2.97351 0
M  V30 3287 O 325.342 1.39201 3.88197 0
M  V30 3288 H 324.683 0.436982 0.499943 0
M  V30 3289 H 327.213 1.75224 1.0563 0
M  V30 3290 H 327.223 2.14403 3.47124 0
M  V30 3291 H 325.898 3.0783 2.79666 0
M  V30 3292 H 324.475 1.37381 3.46671 0
M  V30 3293 N 326.66 -1.06551 1.16123 0
M  V30 3294 C 327.59 -2.15935 0.88851 0
M  V30 3295 C 328.571 -1.69306 -0.164135 0
M  V30 3296 O 329.756 -1.94193 -0.0167857 0
M  V30 3297 C 326.886 -3.45149 0.385942 0
M  V30 3298 C 325.84 -4.05271 1.3762 0
M  V30 3299 C 325.166 -5.29664 0.732137 0
M  V30 3300 C 326.466 -4.44355 2.74493 0
M  V30 3301 H 328.16 -2.39006 1.80323 0
M  V30 3302 H 325.706 -1.14866 0.868435 0
M  V30 3303 H 327.659 -4.21004 0.182647 0
M  V30 3304 H 326.383 -3.21689 -0.564274 0
M  V30 3305 H 325.042 -3.3147 1.56599 0
M  V30 3306 H 324.69 -5.02499 -0.224483 0
M  V30 3307 H 324.39 -5.70848 1.39307 0
M  V30 3308 H 325.914 -6.08218 0.538802 0
M  V30 3309 H 327.328 -5.11303 2.59311 0
M  V30 3310 H 325.725 -4.96515 3.37035 0
M  V30 3311 H 326.795 -3.55339 3.29943 0
M  V30 3312 N 328.138 -0.959301 -1.25041 0
M  V30 3313 C 329.366 -0.633949 -1.96948 0
M  V30 3314 C 329.781 0.794916 -1.7125 0
M  V30 3315 O 329.138 1.53231 -0.991287 0
M  V30 3316 C 329.189 -0.888805 -3.50403 0
M  V30 3317 O 328.91 -2.26149 -3.75218 0
M  V30 3318 C 330.411 -0.576482 -4.39536 0
M  V30 3319 H 327.631 -0.237263 -0.627652 0
M  V30 3320 H 330.175 -1.28495 -1.59089 0
M  V30 3321 H 328.33 -0.284145 -3.86357 0
M  V30 3322 H 328.744 -2.33514 -4.6965 0
M  V30 3323 H 330.218 -0.805314 -5.46094 0
M  V30 3324 H 330.695 0.489075 -4.36468 0
M  V30 3325 H 331.301 -1.16067 -4.09156 0
M  V30 3326 N 329.616 1.39756 -0.72842 0
M  V30 3327 C 330.546 2.33289 -0.0991354 0
M  V30 3328 C 331.527 1.53568 0.731489 0
M  V30 3329 O 332.712 1.81987 0.677807 0
M  V30 3330 C 329.842 3.3763 0.813834 0
M  V30 3331 C 328.796 4.2791 0.0878663 0
M  V30 3332 C 328.122 5.22894 1.11741 0
M  V30 3333 C 329.422 5.11314 -1.06563 0
M  V30 3334 H 331.116 2.86163 -0.880408 0
M  V30 3335 H 328.662 1.37591 -0.424819 0
M  V30 3336 H 330.615 4.0201 1.26355 0
M  V30 3337 H 329.339 2.83181 1.62715 0
M  V30 3338 H 327.998 3.65 -0.342159 0
M  V30 3339 H 327.646 4.64744 1.92412 0
M  V30 3340 H 327.346 5.84143 0.636477 0
M  V30 3341 H 328.87 5.90151 1.56697 0
M  V30 3342 H 330.284 5.69076 -0.694671 0
M  V30 3343 H 328.681 5.81671 -1.47577 0
M  V30 3344 H 329.751 4.46534 -1.89038 0
M  V30 3345 N 331.094 0.475555 1.50254 0
M  V30 3346 C 332.505 0.0215174 1.86688 0
M  V30 3347 C 332.856 -1.38467 1.39001 0
M  V30 3348 O 331.981 -2.02732 0.756894 0
M  V30 3349 C 332.576 0.0322715 3.38785 0
M  V30 3350 C 331.135 -0.366314 3.74613 0
M  V30 3351 C 330.282 0.415832 2.74164 0
M  V30 3352 H 333.233 0.689612 1.42934 0
M  V30 3353 H 333.254 -0.76889 3.7265 0
M  V30 3354 H 332.766 1.05584 3.73462 0
M  V30 3355 H 330.867 -1.39406 3.45538 0
M  V30 3356 H 330.98 -0.064555 4.79057 0
M  V30 3357 H 329.344 -0.131048 2.54363 0
M  V30 3358 H 330.127 1.43899 3.11686 0
M  V30 3359 N 332.573 -1.56217 0.208337 0
M  V30 3360 C 333.984 -1.84243 -0.301904 0
M  V30 3361 C 334.335 -1.12939 -1.60434 0
M  V30 3362 O 333.46 -0.39461 -2.12772 0
M  V30 3363 C 334.055 -3.34231 -0.554543 0
M  V30 3364 C 332.614 -3.62621 -1.00912 0
M  V30 3365 C 331.761 -2.77224 -0.064933 0
M  V30 3366 H 334.712 -1.52712 0.431833 0
M  V30 3367 H 334.733 -3.5372 -1.40223 0
M  V30 3368 H 334.245 -3.86099 0.393561 0
M  V30 3369 H 332.346 -3.16197 -1.97104 0
M  V30 3370 H 332.459 -4.7071 -0.892674 0
M  V30 3371 H 330.823 -2.48256 -0.56929 0
M  V30 3372 H 331.606 -3.31887 0.877851 0
M  V30 3373 N 334.051 0.0651679 -1.57465 0
M  V30 3374 C 335.462 0.616213 -1.76238 0
M  V30 3375 C 335.813 1.7756 -0.834689 0
M  V30 3376 O 334.938 2.1639 -0.0204156 0
M  V30 3377 C 335.533 1.12462 -3.1959 0
M  V30 3378 C 334.092 1.62147 -3.39684 0
M  V30 3379 C 333.239 0.543739 -2.71917 0
M  V30 3380 H 336.19 -0.161022 -1.57881 0
M  V30 3381 H 336.211 1.99324 -3.24114 0
M  V30 3382 H 335.723 0.280592 -3.87084 0
M  V30 3383 H 333.824 2.48854 -2.77313 0
M  V30 3384 H 333.937 1.69385 -4.48158 0
M  V30 3385 H 332.301 0.990352 -2.34657 0
M  V30 3386 H 333.084 -0.290216 -3.42071 0
M  V30 3387 N 335.529 1.53961 0.336706 0
M  V30 3388 C 336.754 1.75797 1.10046 0
M  V30 3389 C 337.179 0.498985 1.81361 0
M  V30 3390 O 336.537 -0.548769 1.72795 0
M  V30 3391 C 336.585 2.94257 2.08436 0
M  V30 3392 O 335.689 2.64883 3.16087 0
M  V30 3393 H 335.03 0.582936 0.317934 0
M  V30 3394 H 337.56 2.00945 0.38501 0
M  V30 3395 H 337.57 3.21237 2.51537 0
M  V30 3396 H 336.245 3.85564 1.55927 0
M  V30 3397 H 334.822 2.48812 2.77753 0
M  V30 3398 N 337.007 -0.598083 1.45811 0
M  V30 3399 C 338.423 -0.919847 1.30426 0
M  V30 3400 C 338.623 -1.99759 0.264303 0
M  V30 3401 O 337.679 -2.50221 -0.338472 0
M  V30 3402 C 338.992 -1.35176 2.68603 0
M  V30 3403 C 340.54 -1.46546 2.76574 0
M  V30 3404 C 341.015 -1.9311 4.15298 0
M  V30 3405 N 342.506 -2.00328 4.1764 0
M  V30 3406 C 343.241 -2.37599 5.21856 0
M  V30 3407 N 342.737 -2.73771 6.36413 0
M  V30 3408 N 344.53 -2.38021 5.09218 0
M  V30 3409 H 336.681 0.114111 2.12093 0
M  V30 3410 H 338.944 -0.0116121 0.947929 0
M  V30 3411 H 338.65 -0.633969 3.45939 0
M  V30 3412 H 338.524 -2.3164 2.97696 0
M  V30 3413 H 340.911 -2.17415 1.99537 0
M  V30 3414 H 340.992 -0.483727 2.51185 0
M  V30 3415 H 340.636 -1.22824 4.92825 0
M  V30 3416 H 340.566 -2.92213 4.38086 0
M  V30 3417 H 343.057 -1.74925 3.34977 0
M  V30 3418 H 343.37 -3.0112 7.11721 0
M  V30 3419 H 341.715 -2.71445 6.39799 0
M  V30 3420 H 344.906 -2.09174 4.18765 0
M  V30 3421 H 345.079 -2.66741 5.90554 0
M  V30 3422 N 338.485 -1.33259 -0.841409 0
M  V30 3423 C 339.448 -1.23221 -1.9326 0
M  V30 3424 C 340.448 -0.151895 -1.60081 0
M  V30 3425 O 341.638 -0.403246 -1.69468 0
M  V30 3426 C 338.77 -0.898123 -3.28856 0
M  V30 3427 H 339.963 -2.2021 -2.03587 0
M  V30 3428 H 337.516 -1.17281 -1.03319 0
M  V30 3429 H 338.251 0.0693841 -3.24226 0
M  V30 3430 H 338.036 -1.67934 -3.54317 0
M  V30 3431 H 339.526 -0.852563 -4.08805 0
M  V30 3432 N 339.963 1.05934 -1.16686 0
M  V30 3433 C 340.926 2.11669 -0.879144 0
M  V30 3434 C 341.926 1.60294 0.127445 0
M  V30 3435 O 343.116 1.7389 -0.103865 0
M  V30 3436 C 340.248 3.39438 -0.315425 0
M  V30 3437 H 341.441 2.38626 -1.81653 0
M  V30 3438 H 338.994 1.22058 -0.976299 0
M  V30 3439 H 339.729 3.18132 0.629468 0
M  V30 3440 H 339.514 3.78034 -1.04079 0
M  V30 3441 H 341.004 4.17391 -0.132189 0
M  V30 3442 N 341.441 0.965919 1.2453 0
M  V30 3443 C 342.351 0.502154 2.29163 0
M  V30 3444 C 343.367 -0.436017 1.68448 0
M  V30 3445 O 344.543 -0.309497 1.99008 0
M  V30 3446 C 341.608 -0.201956 3.46111 0
M  V30 3447 C 340.669 0.775821 4.22232 0
M  V30 3448 C 339.902 0.105217 5.33596 0
M  V30 3449 O 340.125 -1.10683 5.59558 0
M  V30 3450 O 339.059 0.796475 5.96607 0
M  V30 3451 H 342.885 1.37194 2.70946 0
M  V30 3452 H 340.47 0.732875 1.30189 0
M  V30 3453 H 342.352 -0.597564 4.17142 0
M  V30 3454 H 341.027 -1.04673 3.06309 0
M  V30 3455 H 339.934 1.22185 3.53584 0
M  V30 3456 H 341.267 1.58896 4.65846 0
M  V30 3457 N 342.919 -1.39368 0.735821 0
M  V30 3458 C 343.849 -2.33234 0.111506 0
M  V30 3459 C 344.83 -1.53954 -0.723334 0
M  V30 3460 O 346.015 -1.82344 -0.668147 0
M  V30 3461 C 343.145 -3.38057 -0.795917 0
M  V30 3462 C 342.099 -4.2795 -0.065172 0
M  V30 3463 C 341.425 -5.23479 -1.08967 0
M  V30 3464 C 342.725 -5.10741 1.09273 0
M  V30 3465 H 344.419 -2.85692 0.895571 0
M  V30 3466 H 341.965 -1.37364 0.432109 0
M  V30 3467 H 343.918 -4.02675 -1.24221 0
M  V30 3468 H 342.642 -2.8404 -1.61211 0
M  V30 3469 H 341.301 -3.64813 0.361511 0
M  V30 3470 H 340.949 -4.65758 -1.89944 0
M  V30 3471 H 340.649 -5.84472 -0.605489 0
M  V30 3472 H 342.173 -5.90974 -1.53565 0
M  V30 3473 H 343.587 -5.68699 0.724841 0
M  V30 3474 H 341.984 -5.8088 1.50659 0
M  V30 3475 H 343.054 -4.45525 1.91404 0
M  V30 3476 N 344.397 -0.483516 -1.5 0
M  V30 3477 C 345.813 -0.138404 -1.58999 0
M  V30 3478 C 346.013 1.35597 -1.4905 0
M  V30 3479 O 345.069 2.13039 -1.35539 0
M  V30 3480 C 346.382 -0.699658 -2.92447 0
M  V30 3481 C 347.93 -0.664195 -3.05872 0
M  V30 3482 C 348.405 -1.20321 -4.41913 0
M  V30 3483 N 349.896 -1.16315 -4.48358 0
M  V30 3484 C 350.631 -1.55058 -5.52037 0
M  V30 3485 N 350.127 -2.01311 -6.62907 0
M  V30 3486 N 351.92 -1.46584 -5.42651 0
M  V30 3487 H 344.071 -1.45529 -1.5471 0
M  V30 3488 H 346.334 -0.60258 -0.731848 0
M  V30 3489 H 346.04 -1.747 -3.05242 0
M  V30 3490 H 345.914 -0.150194 -3.76901 0
M  V30 3491 H 348.301 0.374272 -2.92717 0
M  V30 3492 H 348.382 -1.25061 -2.23144 0
M  V30 3493 H 348.026 -2.24037 -4.55818 0
M  V30 3494 H 347.956 -0.592896 -5.23252 0
M  V30 3495 H 350.447 -0.824058 -3.68806 0
M  V30 3496 H 350.76 -2.2899 -7.38095 0
M  V30 3497 H 349.105 -2.05273 -6.63994 0
M  V30 3498 H 352.296 -1.10281 -4.54924 0
M  V30 3499 H 352.469 -1.77103 -6.23329 0
M  V30 3500 N 345.875 1.56104 -0.216619 0
M  V30 3501 C 346.785 2.23694 0.706982 0
M  V30 3502 C 347.801 1.24295 1.21765 0
M  V30 3503 O 348.977 1.57094 1.2603 0
M  V30 3504 C 346.042 2.8998 1.90033 0
M  V30 3505 C 345.103 4.04708 1.43213 0
M  V30 3506 C 344.336 4.67824 2.56859 0
M  V30 3507 O 344.559 4.29913 3.74874 0
M  V30 3508 O 343.493 5.56905 2.28343 0
M  V30 3509 H 347.319 3.03272 0.161235 0
M  V30 3510 H 344.904 1.49394 0.0136177 0
M  V30 3511 H 346.786 3.31837 2.59735 0
M  V30 3512 H 345.461 2.13365 2.43428 0
M  V30 3513 H 344.368 3.6743 0.70327 0
M  V30 3514 H 345.701 4.83051 0.944615 0
M  V30 3515 N 347.353 -0.0568162 1.57498 0
M  V30 3516 C 348.599 -0.75422 1.88253 0
M  V30 3517 C 348.932 -1.76461 0.810865 0
M  V30 3518 O 348.207 -1.93691 -0.177259 0
M  V30 3519 C 348.49 -1.44878 3.2967 0
M  V30 3520 C 348.343 -0.453789 4.47505 0
M  V30 3521 C 349.662 -2.38994 3.69554 0
M  V30 3522 H 346.781 -0.272724 0.684683 0
M  V30 3523 H 349.423 -0.0172113 1.89992 0
M  V30 3524 H 347.573 -2.077 3.28318 0
M  V30 3525 H 349.245 0.170371 4.60985 0
M  V30 3526 H 347.488 0.229552 4.33192 0
M  V30 3527 H 348.159 -0.977699 5.43273 0
M  V30 3528 H 350.635 -1.86239 3.72095 0
M  V30 3529 H 349.511 -2.84587 4.69363 0
M  V30 3530 H 349.772 -3.24461 3.00296 0
M  V30 3531 N 348.832 -1.54138 -0.328536 0
M  V30 3532 C 350.06 -1.76062 -1.08673 0
M  V30 3533 C 350.475 -0.506852 -1.81869 0
M  V30 3534 O 349.832 0.522223 -1.74869 0
M  V30 3535 C 349.883 -2.95054 -2.08866 0
M  V30 3536 O 349.604 -4.15583 -1.38644 0
M  V30 3537 C 351.105 -3.2915 -2.96943 0
M  V30 3538 H 348.325 -0.587889 -0.323461 0
M  V30 3539 H 350.869 -2.0101 -0.376175 0
M  V30 3540 H 349.024 -2.72394 -2.75464 0
M  V30 3541 H 349.438 -4.82481 -2.05699 0
M  V30 3542 H 350.912 -4.15723 -3.63151 0
M  V30 3543 H 351.389 -2.461 -3.63774 0
M  V30 3544 H 351.995 -3.53871 -2.35914 0
M  V30 3545 N 350.31 0.590341 -1.46126 0
M  V30 3546 C 351.556 1.35082 -1.51264 0
M  V30 3547 C 351.889 1.93534 -0.160711 0
M  V30 3548 O 351.164 1.76045 0.826956 0
M  V30 3549 C 351.447 2.48588 -2.6053 0
M  V30 3550 C 351.3 1.95221 -4.05227 0
M  V30 3551 C 352.619 3.50662 -2.6594 0
M  V30 3552 H 349.738 0.489803 -0.550692 0
M  V30 3553 H 352.38 0.663887 -1.78024 0
M  V30 3554 H 350.53 3.07186 -2.37843 0
M  V30 3555 H 352.202 1.41139 -4.39178 0
M  V30 3556 H 350.445 1.26101 -4.15068 0
M  V30 3557 H 351.116 2.77121 -4.77397 0
M  V30 3558 H 353.592 3.01934 -2.86313 0
M  V30 3559 H 352.468 4.27551 -3.44226 0
M  V30 3560 H 352.729 4.07399 -1.71694 0
M  V30 3561 N 351.788 1.33704 0.83433 0
M  V30 3562 C 353.199 1.22813 1.4062 0
M  V30 3563 C 353.55 -0.151107 1.95617 0
M  V30 3564 O 352.675 -1.05092 1.89168 0
M  V30 3565 C 353.27 2.22355 2.55624 0
M  V30 3566 C 351.829 2.1529 3.08751 0
M  V30 3567 C 350.976 2.09589 1.8157 0
M  V30 3568 H 353.927 1.45236 0.639702 0
M  V30 3569 H 353.948 1.83391 3.33389 0
M  V30 3570 H 353.46 3.22728 2.15566 0
M  V30 3571 H 351.561 1.18235 3.53343 0
M  V30 3572 H 351.674 3.06038 3.68616 0
M  V30 3573 H 350.038 1.55134 2.02004 0
M  V30 3574 H 350.821 3.11777 1.43701 0
M  V30 3575 N 353.266 -1.05314 1.17247 0
M  V30 3576 C 354.494 -1.81971 0.984593 0
M  V30 3577 C 354.909 -1.82929 -0.467166 0
M  V30 3578 O 354.266 -1.25564 -1.32438 0
M  V30 3579 C 354.317 -3.28143 1.51672 0
M  V30 3580 O 354.038 -3.27347 2.91163 0
M  V30 3581 C 355.539 -4.21493 1.37326 0
M  V30 3582 H 352.759 -0.573455 0.348411 0
M  V30 3583 H 355.303 -1.32808 1.55506 0
M  V30 3584 H 353.458 -3.74582 0.988302 0
M  V30 3585 H 353.872 -4.18824 3.15732 0
M  V30 3586 H 355.346 -5.22043 1.79375 0
M  V30 3587 H 355.823 -4.38031 0.320169 0
M  V30 3588 H 356.429 -3.80909 1.89178 0
M  V30 3589 N 354.744 -0.972509 -1.24016 0
M  V30 3590 C 355.674 -0.525548 -2.27509 0
M  V30 3591 C 356.655 0.437262 -1.64384 0
M  V30 3592 O 357.84 0.332343 -1.91335 0
M  V30 3593 C 354.97 0.180448 -3.46831 0
M  V30 3594 C 353.924 -0.698859 -4.22256 0
M  V30 3595 C 353.25 0.138903 -5.3452 0
M  V30 3596 C 354.55 -1.98582 -4.83076 0
M  V30 3597 H 356.244 -1.39058 -2.65148 0
M  V30 3598 H 353.79 -0.67009 -1.27459 0
M  V30 3599 H 355.743 0.504387 -4.18371 0
M  V30 3600 H 354.467 1.07987 -3.08231 0
M  V30 3601 H 353.126 -1.00614 -3.52523 0
M  V30 3602 H 352.774 1.03862 -4.9216 0
M  V30 3603 H 352.474 -0.446259 -5.85903 0
M  V30 3604 H 353.998 0.457404 -6.08884 0
M  V30 3605 H 355.412 -1.72715 -5.46665 0
M  V30 3606 H 353.809 -2.5181 -5.44713 0
M  V30 3607 H 354.879 -2.67769 -4.04262 0
M  V30 3608 N 356.222 1.38976 -0.743202 0
M  V30 3609 C 357.468 2.0064 -0.295189 0
M  V30 3610 C 357.801 1.5885 1.11716 0
M  V30 3611 O 357.076 0.821181 1.76315 0
M  V30 3612 C 357.359 3.578 -0.406318 0
M  V30 3613 C 357.212 4.09586 -1.85903 0
M  V30 3614 C 358.531 4.39616 0.206439 0
M  V30 3615 H 355.65 0.728935 -0.108733 0
M  V30 3616 H 358.292 1.65067 -0.940897 0
M  V30 3617 H 356.442 3.88235 0.143419 0
M  V30 3618 H 358.114 3.89837 -2.46627 0
M  V30 3619 H 356.357 3.6284 -2.3776 0
M  V30 3620 H 357.028 5.18708 -1.888 0
M  V30 3621 H 359.504 4.15273 -0.262283 0
M  V30 3622 H 358.38 5.48812 0.0983819 0
M  V30 3623 H 358.641 4.22754 1.2935 0
M  V30 3624 N 357.7 0.491464 1.49741 0
M  V30 3625 C 358.949 -0.0582189 2.01616 0
M  V30 3626 C 359.262 -1.38927 1.3769 0
M  V30 3627 O 360.468 -2.02509 1.80838 0
M  V30 3628 C 358.924 -0.154235 3.59569 0
M  V30 3629 C 358.532 1.1696 4.32463 0
M  V30 3630 C 360.276 -0.65479 4.1942 0
M  V30 3631 C 358.183 1.03627 5.8225 0
M  V30 3632 H 357.113 -0.0255317 0.753568 0
M  V30 3633 H 359.764 0.629445 1.72367 0
M  V30 3634 H 358.146 -0.906138 3.85493 0
M  V30 3635 H 359.32 1.93405 4.18248 0
M  V30 3636 H 357.635 1.60285 3.84315 0
M  V30 3637 H 360.232 -0.771903 5.29099 0
M  V30 3638 H 360.575 -1.65127 3.8215 0
M  V30 3639 H 361.108 0.040304 3.9778 0
M  V30 3640 H 357.847 2.00672 6.24028 0
M  V30 3641 H 357.367 0.312546 5.98985 0
M  V30 3642 H 359.046 0.711114 6.4308 0
M  V30 3643 N 359.178 -1.55987 0.224894 0
M  V30 3644 C 360.11 -2.17722 -0.716224 0
M  V30 3645 C 361.123 -1.14723 -1.15509 0
M  V30 3646 O 362.312 -1.41688 -1.08567 0
M  V30 3647 C 359.412 -2.74873 -1.98238 0
M  V30 3648 C 358.585 -4.03074 -1.69853 0
M  V30 3649 C 357.644 -4.44757 -2.81208 0
M  V30 3650 O 356.67 -5.11587 -2.49534 0
M  V30 3651 N 357.872 -4.10716 -4.10235 0
M  V30 3652 H 360.637 -2.99109 -0.188123 0
M  V30 3653 H 358.198 -1.6184 0.0440123 0
M  V30 3654 H 360.19 -2.99727 -2.7193 0
M  V30 3655 H 358.76 -1.9777 -2.42086 0
M  V30 3656 H 357.98 -3.86041 -0.797875 0
M  V30 3657 H 359.268 -4.86701 -1.48324 0
M  V30 3658 H 358.666 -3.57019 -4.38809 0
M  V30 3659 H 357.223 -4.40455 -4.80461 0
M  V30 3660 N 360.656 0.0484629 -1.57525 0
M  V30 3661 C 361.619 1.03956 -2.04269 0
M  V30 3662 C 362.619 1.30211 -0.943496 0
M  V30 3663 O 363.809 1.25539 -1.20771 0
M  V30 3664 C 360.941 2.37742 -2.44319 0
M  V30 3665 H 362.134 0.636182 -2.93075 0
M  V30 3666 H 359.687 0.294811 -1.53494 0
M  V30 3667 H 360.422 2.82866 -1.5861 0
M  V30 3668 H 360.207 2.20021 -3.24551 0
M  V30 3669 H 361.697 3.08936 -2.80978 0
M  V30 3670 N 362.134 1.5431 0.320358 0
M  V30 3671 C 363.044 1.86946 1.41734 0
M  V30 3672 C 364.06 0.761689 1.56443 0
M  V30 3673 O 365.236 1.05629 1.71477 0
M  V30 3674 C 362.301 2.09293 2.76401 0
M  V30 3675 C 361.362 3.33082 2.70841 0
M  V30 3676 C 360.595 3.54353 3.99086 0
M  V30 3677 O 360.818 2.79002 4.97508 0
M  V30 3678 O 359.752 4.47838 4.0215 0
M  V30 3679 H 363.578 2.80232 1.17062 0
M  V30 3680 H 361.163 1.40255 0.514673 0
M  V30 3681 H 363.045 2.25303 3.56113 0
M  V30 3682 H 361.72 1.19194 3.00956 0
M  V30 3683 H 360.627 3.22454 1.89668 0
M  V30 3684 H 361.96 4.23249 2.5124 0
M  V30 3685 N 363.613 -0.582584 1.46437 0
M  V30 3686 C 364.563 -1.68654 1.53426 0
M  V30 3687 C 365.547 -1.55971 0.395194 0
M  V30 3688 O 366.739 -1.64884 0.643612 0
M  V30 3689 C 363.868 -3.07439 1.52762 0
M  V30 3690 C 362.954 -3.25418 2.71963 0
M  V30 3691 N 363.345 -3.13556 3.96883 0
M  V30 3692 C 361.643 -3.56357 2.68189 0
M  V30 3693 C 362.344 -3.33543 4.76575 0
M  V30 3694 N 361.32 -3.58704 4.08451 0
M  V30 3695 H 365.122 -1.58014 2.47808 0
M  V30 3696 H 362.636 -0.786617 1.42078 0
M  V30 3697 H 364.633 -3.86671 1.55857 0
M  V30 3698 H 363.293 -3.1921 0.594573 0
M  V30 3699 H 364.304 -2.9142 4.28129 0
M  V30 3700 H 360.981 -3.74812 1.83908 0
M  V30 3701 H 362.371 -3.29555 5.85528 0
M  V30 3702 N 365.091 -1.34144 -0.827227 0
M  V30 3703 C 366.368 -1.16844 -1.56865 0
M  V30 3704 C 366.748 0.260654 -2.09485 0
M  V30 3705 O 366.096 1.26138 -1.9053 0
M  V30 3706 C 366.306 -2.21939 -2.6934 0
M  V30 3707 C 367.654 -2.56695 -3.3822 0
M  V30 3708 O 368.678 -2.20695 -2.79593 0
M  V30 3709 O 367.537 -3.18518 -4.44082 0
M  V30 3710 H 364.631 -0.452669 -0.692112 0
M  V30 3711 H 367.177 -1.45763 -0.868973 0
M  V30 3712 H 365.949 -3.17882 -2.28182 0
M  V30 3713 H 365.572 -1.94172 -3.46962 0
M  V30 3714 N 366.569 1.04691 -1.17803 0
M  V30 3715 C 367.98 1.59238 -0.974689 0
M  V30 3716 C 368.331 1.90306 0.477292 0
M  V30 3717 O 367.456 1.68846 1.35352 0
M  V30 3718 C 368.051 2.89318 -1.76296 0
M  V30 3719 C 366.61 3.40506 -1.60414 0
M  V30 3720 C 365.757 2.14172 -1.76141 0
M  V30 3721 H 368.708 0.874395 -1.32439 0
M  V30 3722 H 368.729 3.5944 -1.24833 0
M  V30 3723 H 368.241 2.66675 -2.81968 0
M  V30 3724 H 366.342 3.68175 -0.572519 0
M  V30 3725 H 366.455 4.14753 -2.39827 0
M  V30 3726 H 364.819 2.25176 -1.19028 0
M  V30 3727 H 365.602 1.93992 -2.83235 0
M  V30 3728 N 368.047 0.979072 1.23499 0
M  V30 3729 C 369.296 0.642751 1.91185 0
M  V30 3730 C 369.609 -0.827253 1.77245 0
M  V30 3731 O 370.815 -1.27458 2.39722 0
M  V30 3732 C 369.271 1.09901 3.42709 0
M  V30 3733 C 368.879 2.59327 3.65313 0
M  V30 3734 C 370.623 0.836371 4.16179 0
M  V30 3735 C 368.53 2.98627 5.10467 0
M  V30 3736 H 367.46 0.236698 0.715884 0
M  V30 3737 H 370.111 1.1868 1.39955 0
M  V30 3738 H 368.493 0.48319 3.93041 0
M  V30 3739 H 369.667 3.26136 3.25533 0
M  V30 3740 H 367.982 2.83323 3.05151 0
M  V30 3741 H 370.579 1.10586 5.23139 0
M  V30 3742 H 370.922 -0.227509 4.15678 0
M  V30 3743 H 371.455 1.41371 3.71832 0
M  V30 3744 H 368.194 4.04133 5.16098 0
M  V30 3745 H 367.714 2.3651 5.51201 0
M  V30 3746 H 369.393 2.89159 5.78788 0
M  V30 3747 N 369.525 -1.3858 0.750561 0
M  V30 3748 C 370.488 -2.28836 0.129152 0
M  V30 3749 C 371.488 -1.47045 -0.650714 0
M  V30 3750 O 372.678 -1.6753 -0.477428 0
M  V30 3751 C 369.81 -3.30751 -0.825622 0
M  V30 3752 H 371.003 -2.85294 0.924516 0
M  V30 3753 H 368.556 -1.47489 0.517376 0
M  V30 3754 H 369.291 -2.79378 -1.64677 0
M  V30 3755 H 369.076 -3.91177 -0.268852 0
M  V30 3756 H 370.566 -3.98249 -1.2565 0
M  V30 3757 N 371.003 -0.499398 -1.49478 0
M  V30 3758 C 372.414 -0.051215 -1.8663 0
M  V30 3759 C 372.765 1.36238 -1.41186 0
M  V30 3760 O 371.89 2.01502 -0.789051 0
M  V30 3761 C 372.485 -0.0861651 -3.3869 0
M  V30 3762 C 371.044 0.30667 -3.75149 0
M  V30 3763 C 370.191 -0.459397 -2.73468 0
M  V30 3764 H 373.142 -0.712264 -1.41818 0
M  V30 3765 H 373.163 0.709507 -3.73826 0
M  V30 3766 H 372.675 -1.11512 -3.71735 0
M  V30 3767 H 370.776 1.33892 -3.47712 0
M  V30 3768 H 370.889 -0.0116669 -4.79099 0
M  V30 3769 H 369.253 0.0905645 -2.54539 0
M  V30 3770 H 370.036 -1.4884 -3.09357 0
M  V30 3771 N 372.481 1.55866 -0.233164 0
M  V30 3772 C 373.444 2.1953 0.658715 0
M  V30 3773 C 374.444 1.16053 1.11303 0
M  V30 3774 O 375.634 1.41218 1.01996 0
M  V30 3775 C 372.766 2.82791 1.90373 0
M  V30 3776 H 373.959 2.99721 0.10347 0
M  V30 3777 H 371.512 1.56291 0.0164245 0
M  V30 3778 H 372.247 2.06501 2.50056 0
M  V30 3779 H 372.032 3.58578 1.58632 0
M  V30 3780 H 373.522 3.31556 2.53891 0
M  V30 3781 N 373.959 -0.0401083 1.57549 0
M  V30 3782 C 375.37 -0.588097 1.77196 0
M  V30 3783 C 375.721 -1.76209 0.862832 0
M  V30 3784 O 374.846 -2.16331 0.0548389 0
M  V30 3785 C 375.441 -1.07363 3.21339 0
M  V30 3786 C 374 -1.56723 3.42221 0
M  V30 3787 C 373.147 -0.50041 2.72747 0
M  V30 3788 H 376.098 0.186119 1.57605 0
M  V30 3789 H 376.119 -1.94143 3.27244 0
M  V30 3790 H 375.631 -0.218975 3.87482 0
M  V30 3791 H 373.732 -2.4441 2.81237 0
M  V30 3792 H 373.845 -1.62234 4.50796 0
M  V30 3793 H 372.209 -0.952894 2.36203 0
M  V30 3794 H 372.992 0.344599 3.41566 0
M  V30 3795 N 375.437 -1.54477 -0.31217 0
M  V30 3796 C 376.387 -1.81037 -1.38598 0
M  V30 3797 C 377.371 -0.666941 -1.46426 0
M  V30 3798 O 378.563 -0.927269 -1.50767 0
M  V30 3799 C 375.692 -2.05127 -2.75277 0
M  V30 3800 C 374.778 -3.25624 -2.71716 0
M  V30 3801 N 375.169 -4.46428 -2.37773 0
M  V30 3802 C 373.467 -3.27427 -3.02833 0
M  V30 3803 C 374.168 -5.28406 -2.43232 0
M  V30 3804 N 373.144 -4.6586 -2.80135 0
M  V30 3805 H 376.946 -2.7201 -1.11301 0
M  V30 3806 H 374.46 -1.53826 -0.520705 0
M  V30 3807 H 376.457 -2.22299 -3.52688 0
M  V30 3808 H 375.117 -1.15416 -3.03495 0
M  V30 3809 H 376.128 -4.73227 -2.1042 0
M  V30 3810 H 372.805 -2.47786 -3.36018 0
M  V30 3811 H 374.195 -6.34903 -2.19882 0
M  V30 3812 N 376.915 0.57481 -1.46744 0
M  V30 3813 C 378.163 1.33009 -1.52161 0
M  V30 3814 C 378.484 1.94185 -0.178092 0
M  V30 3815 O 377.754 1.7899 0.796196 0
M  V30 3816 H 376.334 0.493873 -0.560445 0
M  V30 3817 H 378.996 0.672589 -1.82927 0
M  V30 3818 H 378.092 2.13273 -2.27862 0
M  V30 3819 N 378.394 1.34581 0.820102 0
M  V30 3820 C 379.341 1.2639 1.93117 0
M  V30 3821 C 380.311 0.138554 1.65521 0
M  V30 3822 O 381.496 0.320004 1.88097 0
M  V30 3823 C 378.636 1.02812 3.29429 0
M  V30 3824 C 377.749 2.24146 3.693 0
M  V30 3825 C 376.884 1.93829 4.94574 0
M  V30 3826 C 375.923 3.1129 5.27034 0
M  V30 3827 N 375.06 2.80838 6.43486 0
M  V30 3828 H 379.9 2.21408 1.99455 0
M  V30 3829 H 377.437 1.10077 0.975784 0
M  V30 3830 H 379.395 0.871788 4.0799 0
M  V30 3831 H 378.025 0.114612 3.22596 0
M  V30 3832 H 377.077 2.50691 2.86109 0
M  V30 3833 H 378.389 3.11899 3.89257 0
M  V30 3834 H 377.543 1.74948 5.80929 0
M  V30 3835 H 376.282 1.03341 4.76626 0
M  V30 3836 H 375.287 3.30764 4.39175 0
M  V30 3837 H 376.512 4.02561 5.4692 0
M  V30 3838 H 374.458 1.92929 6.26988 0
M  V30 3839 H 374.375 3.62123 6.63629 0
M  V30 3840 H 375.643 2.65467 7.32903 0
M  V30 3841 N 379.872 -1.04064 1.18357 0
M  V30 3842 C 380.822 -2.10393 0.878561 0
M  V30 3843 C 381.806 -1.60183 -0.151713 0
M  V30 3844 O 382.998 -1.76923 0.0523303 0
M  V30 3845 C 380.127 -3.4089 0.406096 0
M  V30 3846 C 379.213 -3.97866 1.46844 0
M  V30 3847 N 379.604 -4.28657 2.68489 0
M  V30 3848 C 377.902 -4.2574 1.32896 0
M  V30 3849 C 378.603 -4.74253 3.36836 0
M  V30 3850 N 377.579 -4.75068 2.64219 0
M  V30 3851 H 381.381 -2.32076 1.80327 0
M  V30 3852 H 378.895 -1.21818 1.07397 0
M  V30 3853 H 380.892 -4.16557 0.169088 0
M  V30 3854 H 379.552 -3.20633 -0.512275 0
M  V30 3855 H 380.563 -4.18304 3.05356 0
M  V30 3856 H 377.24 -4.1481 0.473134 0
M  V30 3857 H 378.63 -5.07096 4.40798 0
M  V30 3858 N 381.35 -0.985608 -1.22978 0
M  V30 3859 C 382.28 -0.549649 -2.26939 0
M  V30 3860 C 383.261 0.419803 -1.64838 0
M  V30 3861 O 384.446 0.31203 -1.91677 0
M  V30 3862 C 381.576 0.143652 -3.47003 0
M  V30 3863 C 380.53 -0.743606 -4.21491 0
M  V30 3864 C 379.856 0.0822027 -5.34637 0
M  V30 3865 C 381.156 -2.03694 -4.80943 0
M  V30 3866 H 382.85 -1.41862 -2.63658 0
M  V30 3867 H 380.396 -0.683571 -1.26741 0
M  V30 3868 H 382.349 0.459985 -4.18882 0
M  V30 3869 H 381.073 1.04711 -3.09359 0
M  V30 3870 H 379.732 -1.04347 -3.51436 0
M  V30 3871 H 379.38 0.986359 -4.93234 0
M  V30 3872 H 379.08 -0.508377 -5.85397 0
M  V30 3873 H 380.604 0.392797 -6.09335 0
M  V30 3874 H 382.018 -1.78504 -5.44802 0
M  V30 3875 H 380.415 -2.57573 -5.42011 0
M  V30 3876 H 381.485 -2.72042 -4.01399 0
M  V30 3877 N 382.828 1.3818 -0.7579 0
M  V30 3878 C 383.791 2.28764 -0.141286 0
M  V30 3879 C 384.791 1.47388 0.642907 0
M  V30 3880 O 385.981 1.67781 0.468536 0
M  V30 3881 C 383.113 3.31184 0.808069 0
M  V30 3882 H 384.306 2.848 -0.939633 0
M  V30 3883 H 381.859 1.47212 -0.525191 0
M  V30 3884 H 382.594 2.80247 1.63193 0
M  V30 3885 H 382.379 3.91314 0.248104 0
M  V30 3886 H 383.869 3.98909 1.23536 0
M  V30 3887 N 384.306 0.507319 1.49211 0
M  V30 3888 C 385.554 -0.0348839 2.0207 0
M  V30 3889 C 385.875 -1.36898 1.38866 0
M  V30 3890 O 385.145 -1.88133 0.546151 0
M  V30 3891 H 383.725 -0.0158812 0.746831 0
M  V30 3892 H 386.387 0.665998 1.83168 0
M  V30 3893 H 385.483 -0.159917 3.1169 0
M  V30 3894 N 385.784 -1.5574 0.241426 0
M  V30 3895 C 386.714 -2.24133 -0.654722 0
M  V30 3896 C 387.695 -1.21974 -1.1856 0
M  V30 3897 O 388.88 -1.50612 -1.22595 0
M  V30 3898 C 386.01 -2.93659 -1.85423 0
M  V30 3899 C 384.964 -4.0246 -1.45636 0
M  V30 3900 C 384.29 -4.59383 -2.73626 0
M  V30 3901 C 385.59 -5.18468 -0.631506 0
M  V30 3902 H 387.284 -2.99281 -0.0844353 0
M  V30 3903 H 384.83 -1.43947 -0.0391707 0
M  V30 3904 H 386.783 -3.40203 -2.48676 0
M  V30 3905 H 385.507 -2.15991 -2.44981 0
M  V30 3906 H 384.166 -3.56676 -0.847202 0
M  V30 3907 H 383.814 -3.78422 -3.3137 0
M  V30 3908 H 383.514 -5.32826 -2.4773 0
M  V30 3909 H 385.038 -5.08658 -3.37786 0
M  V30 3910 H 386.452 -5.61272 -1.1682 0
M  V30 3911 H 384.849 -5.98266 -0.468831 0
M  V30 3912 H 385.919 -4.8358 0.357506 0
M  V30 3913 N 387.262 0.0317525 -1.57568 0
M  V30 3914 C 388.511 0.722131 -1.8833 0
M  V30 3915 C 388.824 1.76664 -0.839587 0
M  V30 3916 O 390.03 2.50942 -1.03635 0
M  V30 3917 C 388.486 1.33544 -3.34207 0
M  V30 3918 C 388.094 0.327415 -4.46802 0
M  V30 3919 C 389.838 2.00585 -3.7412 0
M  V30 3920 C 387.745 0.948915 -5.83738 0
M  V30 3921 H 386.675 0.273466 -0.702661 0
M  V30 3922 H 389.326 -0.0235811 -1.83485 0
M  V30 3923 H 387.708 2.13077 -3.33788 0
M  V30 3924 H 388.882 -0.441006 -4.58685 0
M  V30 3925 H 387.197 -0.240758 -4.15703 0
M  V30 3926 H 389.794 2.47932 -4.73744 0
M  V30 3927 H 390.137 2.82285 -3.05975 0
M  V30 3928 H 390.67 1.27831 -3.76702 0
M  V30 3929 H 387.409 0.171387 -6.55276 0
M  V30 3930 H 386.929 1.68724 -5.7558 0
M  V30 3931 H 388.608 1.45705 -6.3038 0
M  V30 3932 N 388.74 1.54641 0.303973 0
M  V30 3933 C 390.151 1.64811 0.877163 0
M  V30 3934 C 390.502 0.554838 1.88191 0
M  V30 3935 O 389.627 -0.309033 2.14182 0
M  V30 3936 C 390.222 2.9876 1.59775 0
M  V30 3937 C 388.781 3.11061 2.11938 0
M  V30 3938 C 387.928 2.60479 0.951097 0
M  V30 3939 H 390.879 1.58493 0.0810486 0
M  V30 3940 H 390.9 2.90017 2.46314 0
M  V30 3941 H 390.412 3.7831 0.866226 0
M  V30 3942 H 388.513 2.36225 2.88146 0
M  V30 3943 H 388.626 4.17171 2.35595 0
M  V30 3944 H 386.99 2.16859 1.33583 0
M  V30 3945 H 387.773 3.42504 0.233581 0
M  V30 3946 N 390.218 -0.567019 1.47046 0
M  V30 3947 C 391.446 -1.35027 1.56765 0
M  V30 3948 C 391.861 -1.8758 0.214316 0
M  V30 3949 O 391.218 -1.64471 -0.790919 0
M  V30 3950 C 391.269 -2.52698 2.58507 0
M  V30 3951 O 390.99 -2.0232 3.88585 0
M  V30 3952 C 392.491 -3.45043 2.78316 0
M  V30 3953 H 389.711 -0.41195 0.529658 0
M  V30 3954 H 392.255 -0.687832 1.92585 0
M  V30 3955 H 390.41 -3.149 2.25648 0
M  V30 3956 H 390.824 -2.79068 4.44096 0
M  V30 3957 H 392.298 -4.2405 3.53391 0
M  V30 3958 H 392.775 -3.97971 1.85784 0
M  V30 3959 H 393.381 -2.88665 3.12334 0
M  V30 3960 N 391.696 -1.35014 -0.812953 0
M  V30 3961 C 392.659 -1.27292 -1.90602 0
M  V30 3962 C 393.659 -0.185817 -1.59723 0
M  V30 3963 O 394.849 -0.439102 -1.68575 0
M  V30 3964 C 391.981 -0.967676 -3.26877 0
M  V30 3965 H 393.174 -2.24479 -1.9887 0
M  V30 3966 H 390.727 -1.19446 -1.00808 0
M  V30 3967 H 391.462 0.0005954 -3.243 0
M  V30 3968 H 391.247 -1.75412 -3.50675 0
M  V30 3969 H 392.737 -0.939085 -4.06904 0
M  V30 3970 N 393.175 1.03435 -1.18907 0
M  V30 3971 C 394.591 1.28973 -0.940111 0
M  V30 3972 C 394.791 1.97676 0.390691 0
M  V30 3973 O 393.847 2.26127 1.12352 0
M  V30 3974 C 395.16 2.14221 -2.11021 0
M  V30 3975 C 396.708 2.27547 -2.14922 0
M  V30 3976 C 397.183 3.16164 -3.31367 0
M  V30 3977 N 398.674 3.23752 -3.31269 0
M  V30 3978 C 399.409 3.92495 -4.18014 0
M  V30 3979 N 398.905 4.63515 -5.14904 0
M  V30 3980 N 400.698 3.88838 -4.05908 0
M  V30 3981 H 392.849 0.57252 -2.04538 0
M  V30 3982 H 395.112 0.315184 -0.894071 0
M  V30 3983 H 394.818 1.71054 -3.073 0
M  V30 3984 H 394.692 3.14919 -2.0762 0
M  V30 3985 H 397.079 2.69947 -1.19217 0
M  V30 3986 H 397.16 1.26418 -2.22378 0
M  V30 3987 H 396.804 2.74474 -4.27348 0
M  V30 3988 H 396.734 4.17339 -3.21148 0
M  V30 3989 H 399.225 2.73167 -2.61129 0
M  V30 3990 H 399.538 5.13583 -5.77453 0
M  V30 3991 H 397.883 4.62398 -5.18857 0
M  V30 3992 H 401.074 3.32491 -3.29495 0
M  V30 3993 H 401.247 4.4214 -4.73726 0
M  V30 3994 N 394.653 0.992116 1.22453 0
M  V30 3995 C 395.583 0.561677 2.26644 0
M  V30 3996 C 396.564 -0.411055 1.65059 0
M  V30 3997 O 397.749 -0.301861 1.9184 0
M  V30 3998 C 394.879 -0.125247 3.47074 0
M  V30 3999 C 393.833 0.765948 4.21091 0
M  V30 4000 C 393.159 -0.0538484 5.34673 0
M  V30 4001 C 394.459 2.06242 4.79856 0
M  V30 4002 H 396.153 1.43259 2.62902 0
M  V30 4003 H 393.699 0.690283 1.26377 0
M  V30 4004 H 395.652 -0.437764 4.1912 0
M  V30 4005 H 394.376 -1.03069 3.0991 0
M  V30 4006 H 393.035 1.0621 3.50878 0
M  V30 4007 H 392.683 -0.960188 4.9375 0
M  V30 4008 H 392.383 0.539415 5.85119 0
M  V30 4009 H 393.907 -0.360477 6.09535 0
M  V30 4010 H 395.321 1.8139 5.43848 0
M  V30 4011 H 393.718 2.60444 5.40638 0
M  V30 4012 H 394.788 2.74167 3.99951 0
M  V30 4013 N 396.131 -1.37776 0.765217 0
M  V30 4014 C 397.094 -2.28686 0.153416 0
M  V30 4015 C 398.094 -1.47727 -0.635081 0
M  V30 4016 O 399.284 -1.68027 -0.459632 0
M  V30 4017 C 396.416 -3.31608 -0.790495 0
M  V30 4018 H 397.609 -2.84297 0.954723 0
M  V30 4019 H 395.162 -1.46932 0.53299 0
M  V30 4020 H 395.897 -2.81109 -1.61705 0
M  V30 4021 H 395.682 -3.9144 -0.227348 0
M  V30 4022 H 397.172 -3.99559 -1.21419 0
M  V30 4023 N 397.609 -0.515225 -1.4894 0
M  V30 4024 C 398.519 0.259774 -2.33157 0
M  V30 4025 C 399.535 0.953501 -1.45548 0
M  V30 4026 O 400.711 0.931735 -1.78552 0
M  V30 4027 C 397.776 1.30193 -3.21326 0
M  V30 4028 C 396.837 0.620129 -4.24797 0
M  V30 4029 C 396.07 1.61263 -5.08753 0
M  V30 4030 O 396.293 2.84389 -4.94448 0
M  V30 4031 O 395.227 1.16013 -5.90614 0
M  V30 4032 H 399.053 -0.429932 -3.00641 0
M  V30 4033 H 396.638 -0.276346 -1.46822 0
M  V30 4034 H 398.52 1.90455 -3.75905 0
M  V30 4035 H 397.195 1.97431 -2.56521 0
M  V30 4036 H 396.102 -0.0226019 -3.74093 0
M  V30 4037 H 397.435 -0.0100493 -4.92199 0
M  V30 4038 N 399.087 1.5561 -0.249682 0
M  V30 4039 C 400.336 1.98187 0.37479 0
M  V30 4040 C 400.649 1.14111 1.58865 0
M  V30 4041 O 401.855 1.46714 2.28445 0
M  V30 4042 C 400.311 3.52661 0.718192 0
M  V30 4043 C 399.919 4.45481 -0.474428 0
M  V30 4044 C 401.663 4.03888 1.3067 0
M  V30 4045 C 399.57 5.91303 -0.107026 0
M  V30 4046 H 398.5 0.740159 0.143808 0
M  V30 4047 H 401.151 1.80125 -0.350336 0
M  V30 4048 H 399.533 3.66429 1.50152 0
M  V30 4049 H 400.707 4.43473 -1.25172 0
M  V30 4050 H 399.022 4.04751 -0.978052 0
M  V30 4051 H 401.619 5.10358 1.59496 0
M  V30 4052 H 401.962 3.51401 2.23211 0
M  V30 4053 H 402.495 3.93457 0.586211 0
M  V30 4054 H 399.234 6.47833 -0.999642 0
M  V30 4055 H 398.754 5.9644 0.634013 0
M  V30 4056 H 400.433 6.46258 0.309807 0
M  V30 4057 N 400.565 -0.0233959 1.57583 0
M  V30 4058 C 401.976 -0.56927 1.77809 0
M  V30 4059 C 402.327 -1.75284 0.881472 0
M  V30 4060 O 401.452 -2.1626 0.0777805 0
M  V30 4061 C 402.047 -1.03949 3.22459 0
M  V30 4062 C 400.606 -1.53084 3.43864 0
M  V30 4063 C 399.753 -0.471454 2.73263 0
M  V30 4064 H 402.704 0.202825 1.57399 0
M  V30 4065 H 402.725 -1.90661 3.29285 0
M  V30 4066 H 402.237 -0.177865 3.87692 0
M  V30 4067 H 400.338 -2.41414 2.83814 0
M  V30 4068 H 400.451 -1.57443 4.52491 0
M  V30 4069 H 398.815 -0.927788 2.37201 0
M  V30 4070 H 399.598 0.380808 3.41181 0
M  V30 4071 N 402.043 -1.548 -0.295768 0
M  V30 4072 C 403.291 -1.73985 -1.02828 0
M  V30 4073 C 403.612 -0.531406 -1.87619 0
M  V30 4074 O 402.882 0.454221 -1.90561 0
M  V30 4075 H 401.462 -0.641556 -0.382642 0
M  V30 4076 H 404.124 -1.92163 -0.325489 0
M  V30 4077 H 403.22 -2.63129 -1.67838 0
M  V30 4078 N 403.521 0.559213 -1.47345 0
M  V30 4079 C 404.454 1.68201 -1.5422 0
M  V30 4080 C 405.432 1.57742 -0.394497 0
M  V30 4081 O 406.616 1.78628 -0.60201 0
M  V30 4082 C 403.743 3.0643 -1.44285 0
M  V30 4083 C 402.789 3.3534 -2.63532 0
M  V30 4084 S 403.622 3.24816 -4.25741 0
M  V30 4085 C 404.778 4.65542 -4.18355 0
M  V30 4086 H 405.011 1.62114 -2.49211 0
M  V30 4087 H 402.544 0.739871 -1.35519 0
M  V30 4088 H 404.502 3.86164 -1.3924 0
M  V30 4089 H 403.163 3.09984 -0.506816 0
M  V30 4090 H 402.356 4.36107 -2.52639 0
M  V30 4091 H 401.958 2.63221 -2.65689 0
M  V30 4092 H 404.25 5.56449 -3.86485 0
M  V30 4093 H 405.193 4.81493 -5.19202 0
M  V30 4094 H 405.601 4.43495 -3.49246 0
M  V30 4095 N 404.999 1.35443 0.805782 0
M  V30 4096 C 406.247 1.28507 1.55982 0
M  V30 4097 C 406.568 -0.140046 1.94496 0
M  V30 4098 O 405.838 -1.07666 1.63661 0
M  V30 4099 H 404.418 0.472676 0.578434 0
M  V30 4100 H 407.08 1.69555 0.961098 0
M  V30 4101 H 406.176 1.90148 2.47488 0
M  V30 4102 N 406.477 -1.02803 1.19454 0
M  V30 4103 C 407.427 -2.0945 0.900827 0
M  V30 4104 C 408.411 -1.60335 -0.134715 0
M  V30 4105 O 409.603 -1.76857 0.0710924 0
M  V30 4106 C 406.732 -3.4044 0.442229 0
M  V30 4107 C 405.818 -3.96286 1.51056 0
M  V30 4108 N 406.209 -4.25785 2.73021 0
M  V30 4109 C 404.507 -4.24307 1.37404 0
M  V30 4110 C 405.208 -4.70654 3.41848 0
M  V30 4111 N 404.184 -4.72238 2.69243 0
M  V30 4112 H 407.986 -2.3015 1.82779 0
M  V30 4113 H 405.5 -1.20672 1.08683 0
M  V30 4114 H 407.497 -4.16354 0.21326 0
M  V30 4115 H 406.157 -3.21159 -0.478238 0
M  V30 4116 H 407.168 -4.15041 3.09776 0
M  V30 4117 H 403.845 -4.14285 0.517103 0
M  V30 4118 H 405.235 -5.02392 4.46152 0
M  V30 4119 N 407.956 -0.998596 -1.21925 0
M  V30 4120 C 408.919 -0.558679 -2.22287 0
M  V30 4121 C 409.919 0.361525 -1.56683 0
M  V30 4122 O 411.109 0.152695 -1.73529 0
M  V30 4123 C 408.241 0.18661 -3.40389 0
M  V30 4124 H 409.434 -1.4463 -2.62721 0
M  V30 4125 H 406.987 -0.786413 -1.35075 0
M  V30 4126 H 407.722 1.08996 -3.05435 0
M  V30 4127 H 407.507 -0.474188 -3.89222 0
M  V30 4128 H 408.997 0.482367 -4.14805 0
M  V30 4129 N 409.434 1.37368 -0.772513 0
M  V30 4130 C 410.364 2.32856 -0.173304 0
M  V30 4131 C 411.345 1.55818 0.682262 0
M  V30 4132 O 412.53 1.84052 0.619566 0
M  V30 4133 C 409.66 3.40048 0.706007 0
M  V30 4134 C 408.614 4.27973 -0.0483144 0
M  V30 4135 C 407.94 5.26184 0.950491 0
M  V30 4136 C 409.24 5.07665 -1.22776 0
M  V30 4137 H 410.934 2.83217 -0.971002 0
M  V30 4138 H 408.48 1.3617 -0.468377 0
M  V30 4139 H 410.433 4.05827 1.13501 0
M  V30 4140 H 409.157 2.88214 1.53623 0
M  V30 4141 H 407.816 3.63726 -0.458107 0
M  V30 4142 H 407.464 4.7063 1.77529 0
M  V30 4143 H 407.164 5.85872 0.450314 0
M  V30 4144 H 408.688 5.94838 1.37842 0
M  V30 4145 H 410.102 5.66578 -0.875366 0
M  V30 4146 H 408.499 5.76681 -1.66007 0
M  V30 4147 H 409.569 4.40294 -2.03149 0
M  V30 4148 N 410.912 0.523116 1.48665 0
M  V30 4149 C 412.323 0.0808997 1.86525 0
M  V30 4150 C 412.674 -1.33975 1.43336 0
M  V30 4151 O 411.799 -2.00221 0.821009 0
M  V30 4152 C 412.394 0.140037 3.3851 0
M  V30 4153 C 410.953 -0.246948 3.75589 0
M  V30 4154 C 410.1 0.502845 2.72703 0
M  V30 4155 H 413.051 0.734736 1.40667 0
M  V30 4156 H 413.072 -0.649945 3.74908 0
M  V30 4157 H 412.584 1.17412 3.69914 0
M  V30 4158 H 410.685 -1.28343 3.49798 0
M  V30 4159 H 410.798 0.0878859 4.79019 0
M  V30 4160 H 409.162 -0.0500581 2.54651 0
M  V30 4161 H 409.945 1.53743 3.0695 0
M  V30 4162 N 412.39 -1.55475 0.257931 0
M  V30 4163 C 413.615 -2.04064 -0.370488 0
M  V30 4164 C 414.04 -1.13565 -1.49948 0
M  V30 4165 O 413.398 -0.130781 -1.80828 0
M  V30 4166 C 413.446 -3.50554 -0.845237 0
M  V30 4167 O 412.55 -3.63173 -1.95394 0
M  V30 4168 H 411.891 -0.659257 -0.0792243 0
M  V30 4169 H 414.421 -2.00903 0.387212 0
M  V30 4170 H 414.431 -3.91588 -1.14555 0
M  V30 4171 H 413.106 -4.15896 -0.0191259 0
M  V30 4172 H 411.683 -3.34039 -1.65748 0
M  V30 4173 N 413.868 0.0150385 -1.57593 0
M  V30 4174 C 415.093 0.718067 -1.94573 0
M  V30 4175 C 415.518 1.6734 -0.859005 0
M  V30 4176 O 414.876 1.80362 0.184147 0
M  V30 4177 C 414.924 1.43918 -3.30636 0
M  V30 4178 O 414.028 2.55299 -3.23876 0
M  V30 4179 H 413.369 0.192125 -0.635597 0
M  V30 4180 H 415.899 -0.0336708 -2.04572 0
M  V30 4181 H 415.909 1.80598 -3.65853 0
M  V30 4182 H 414.584 0.738619 -4.09289 0
M  V30 4183 H 413.161 2.21058 -3.00312 0
M  V30 4184 N 415.346 1.54954 0.287554 0
M  V30 4185 C 416.592 1.75132 1.02257 0
M  V30 4186 C 416.925 0.542858 1.86458 0
M  V30 4187 O 416.2 -0.459856 1.88986 0
M  V30 4188 C 416.483 3.04812 1.91733 0
M  V30 4189 C 416.336 4.35985 1.10622 0
M  V30 4190 C 417.655 3.30438 2.90687 0
M  V30 4191 H 414.774 0.637194 0.370341 0
M  V30 4192 H 417.416 1.87678 0.296111 0
M  V30 4193 H 415.566 2.94247 2.53675 0
M  V30 4194 H 417.238 4.58487 0.508636 0
M  V30 4195 H 415.481 4.31865 0.409271 0
M  V30 4196 H 416.152 5.23017 1.76513 0
M  V30 4197 H 418.628 3.40701 2.38877 0
M  V30 4198 H 417.504 4.22467 3.50447 0
M  V30 4199 H 417.765 2.49377 3.65053 0
M  V30 4200 N 416.824 -0.551391 1.4764 0
M  V30 4201 C 417.774 -1.65362 1.56969 0
M  V30 4202 C 418.758 -1.55098 0.428189 0
M  V30 4203 O 419.95 -1.63481 0.678441 0
M  V30 4204 C 417.079 -3.04129 1.59249 0
M  V30 4205 C 416.165 -3.19576 2.78804 0
M  V30 4206 N 416.556 -3.05067 4.03445 0
M  V30 4207 C 414.854 -3.50588 2.75688 0
M  V30 4208 C 415.555 -3.2336 4.83543 0
M  V30 4209 N 414.531 -3.4996 4.15968 0
M  V30 4210 H 418.333 -1.52722 2.51104 0
M  V30 4211 H 415.847 -0.756303 1.43714 0
M  V30 4212 H 417.844 -3.83278 1.64024 0
M  V30 4213 H 416.504 -3.17877 0.662148 0
M  V30 4214 H 417.515 -2.82273 4.34215 0
M  V30 4215 H 414.192 -3.70827 1.91817 0
M  V30 4216 H 415.582 -3.17061 5.92387 0
M  V30 4217 N 418.302 -1.35869 -0.798587 0
M  V30 4218 C 419.55 -1.29332 -1.55298 0
M  V30 4219 C 419.871 0.129729 -1.94568 0
M  V30 4220 O 419.141 1.06796 -1.6423 0
M  V30 4221 H 417.721 -0.475737 -0.57592 0
M  V30 4222 H 420.383 -1.70062 -0.952093 0
M  V30 4223 H 419.479 -1.91458 -2.46476 0
M  V30 4224 N 419.78 1.02168 -1.19998 0
M  V30 4225 C 421.191 1.57135 -1.00825 0
M  V30 4226 C 421.542 1.91276 0.436818 0
M  V30 4227 O 420.667 1.71679 1.3174 0
M  V30 4228 C 421.262 2.85514 -1.82393 0
M  V30 4229 C 419.821 3.37027 -1.67601 0
M  V30 4230 C 418.968 2.10388 -1.80644 0
M  V30 4231 H 421.919 0.846106 -1.34264 0
M  V30 4232 H 421.94 3.56711 -1.32429 0
M  V30 4233 H 421.452 2.60634 -2.87561 0
M  V30 4234 H 419.553 3.66878 -0.650485 0
M  V30 4235 H 419.666 4.09572 -2.4857 0
M  V30 4236 H 418.03 2.22601 -1.23778 0
M  V30 4237 H 418.813 1.8794 -2.87286 0
M  V30 4238 N 421.258 1.00505 1.21394 0
M  V30 4239 C 422.188 0.585684 2.26035 0
M  V30 4240 C 423.169 -0.393525 1.65485 0
M  V30 4241 O 424.354 -0.281497 1.92149 0
M  V30 4242 C 421.484 -0.0884283 3.47187 0
M  V30 4243 C 420.438 0.810567 4.20254 0
M  V30 4244 C 419.764 0.00286382 5.347 0
M  V30 4245 C 421.064 2.1132 4.77641 0
M  V30 4246 H 422.758 1.46039 2.61368 0
M  V30 4247 H 420.304 0.703648 1.25638 0
M  V30 4248 H 422.257 -0.393286 4.19561 0
M  V30 4249 H 420.981 -0.997766 3.10986 0
M  V30 4250 H 419.64 1.09925 3.49731 0
M  V30 4251 H 419.288 -0.907765 4.94741 0
M  V30 4252 H 418.988 0.601444 5.84514 0
M  V30 4253 H 420.512 -0.295808 6.09883 0
M  V30 4254 H 421.926 1.87148 5.41893 0
M  V30 4255 H 420.323 2.66164 5.37845 0
M  V30 4256 H 421.393 2.78393 3.9702 0
M  V30 4257 N 422.737 -1.36956 0.779787 0
M  V30 4258 C 423.7 -2.2851 0.177662 0
M  V30 4259 C 424.7 -1.48393 -0.619377 0
M  V30 4260 O 425.89 -1.68505 -0.441785 0
M  V30 4261 C 423.022 -3.32428 -0.755279 0
M  V30 4262 H 424.215 -2.83269 0.984823 0
M  V30 4263 H 421.768 -1.46358 0.548544 0
M  V30 4264 H 422.503 -2.82808 -1.58714 0
M  V30 4265 H 422.288 -3.91659 -0.185817 0
M  V30 4266 H 423.778 -4.00824 -1.17174 0
M  V30 4267 N 424.215 -0.530993 -1.48385 0
M  V30 4268 C 425.125 0.23503 -2.3342 0
M  V30 4269 C 426.141 0.93801 -1.46552 0
M  V30 4270 O 427.317 0.912745 -1.7953 0
M  V30 4271 C 424.382 1.26778 -3.22689 0
M  V30 4272 C 423.443 0.575038 -4.25431 0
M  V30 4273 C 422.676 1.55858 -5.10435 0
M  V30 4274 O 422.899 2.79129 -4.97437 0
M  V30 4275 O 421.833 1.09742 -5.91811 0
M  V30 4276 H 425.659 -0.461794 -3.00169 0
M  V30 4277 H 423.244 -0.291903 -1.46521 0
M  V30 4278 H 425.126 1.86457 -3.77904 0
M  V30 4279 H 423.801 1.94699 -2.586 0
M  V30 4280 H 422.708 -0.0622782 -3.74048 0
M  V30 4281 H 424.041 -0.062253 -4.92161 0
M  V30 4282 N 425.693 1.55336 -0.266172 0
M  V30 4283 C 426.939 1.99692 0.353681 0
M  V30 4284 C 427.272 1.1543 1.56172 0
M  V30 4285 O 426.547 0.222218 1.93226 0
M  V30 4286 C 426.83 3.52316 0.74466 0
M  V30 4287 C 426.683 4.47337 -0.470101 0
M  V30 4288 C 428.002 4.10588 1.58447 0
M  V30 4289 H 425.121 0.725961 0.12708 0
M  V30 4290 H 427.763 1.86336 -0.371333 0
M  V30 4291 H 425.913 3.63829 1.36239 0
M  V30 4292 H 427.585 4.4778 -1.10864 0
M  V30 4293 H 425.828 4.19364 -1.10978 0
M  V30 4294 H 426.499 5.51788 -0.15291 0
M  V30 4295 H 428.975 4.02297 1.06286 0
M  V30 4296 H 427.851 5.17607 1.82686 0
M  V30 4297 H 428.112 3.60253 2.56262 0
M  V30 4298 N 427.171 -0.0066808 1.57599 0
M  V30 4299 C 428.42 -0.692078 1.89455 0
M  V30 4300 C 428.733 -1.75306 0.867586 0
M  V30 4301 O 429.939 -2.49262 1.07614 0
M  V30 4302 C 428.395 -1.2821 3.36289 0
M  V30 4303 C 428.003 -0.256291 4.47266 0
M  V30 4304 C 429.747 -1.94608 3.77264 0
M  V30 4305 C 427.654 -0.855927 5.85173 0
M  V30 4306 H 426.584 -0.262252 0.706923 0
M  V30 4307 H 429.235 0.052769 1.83424 0
M  V30 4308 H 427.617 -2.0774 3.37135 0
M  V30 4309 H 428.791 0.513923 4.57925 0
M  V30 4310 H 427.106 0.306862 4.15268 0
M  V30 4311 H 429.703 -2.40364 4.77629 0
M  V30 4312 H 430.046 -2.77382 3.10427 0
M  V30 4313 H 430.579 -1.21822 3.78688 0
M  V30 4314 H 427.318 -0.0671161 6.55466 0
M  V30 4315 H 426.838 -1.59546 5.78191 0
M  V30 4316 H 428.517 -1.35658 6.32618 0
M  V30 4317 N 428.649 -1.55105 -0.279332 0
M  V30 4318 C 429.579 -1.90557 -1.34945 0
M  V30 4319 C 430.56 -0.766738 -1.51839 0
M  V30 4320 O 431.745 -1.02434 -1.64988 0
M  V30 4321 C 428.875 -2.17193 -2.71006 0
M  V30 4322 C 427.829 -3.33021 -2.68851 0
M  V30 4323 C 427.155 -3.45123 -4.08405 0
M  V30 4324 C 428.455 -4.69578 -2.28678 0
M  V30 4325 H 430.149 -2.80188 -1.05522 0
M  V30 4326 H 427.695 -1.34811 -0.506173 0
M  V30 4327 H 429.648 -2.40581 -3.45975 0
M  V30 4328 H 428.372 -1.24355 -3.01999 0
M  V30 4329 H 427.031 -3.0959 -1.9634 0
M  V30 4330 H 426.679 -2.49762 -4.3661 0
M  V30 4331 H 426.379 -4.22995 -4.07859 0
M  V30 4332 H 427.903 -3.70796 -4.85121 0
M  V30 4333 H 429.317 -4.92553 -2.93368 0
M  V30 4334 H 427.714 -5.5032 -2.39306 0
M  V30 4335 H 428.784 -4.68828 -1.23807 0
M  V30 4336 N 430.127 0.543554 -1.4793 0
M  V30 4337 C 431.09 1.63156 -1.60975 0
M  V30 4338 C 432.09 1.53346 -0.483899 0
M  V30 4339 O 433.28 1.5726 -0.749339 0
M  V30 4340 C 430.412 3.02743 -1.56716 0
M  V30 4341 H 431.605 1.52934 -2.57975 0
M  V30 4342 H 429.158 0.764557 -1.36324 0
M  V30 4343 H 429.893 3.18484 -0.611418 0
M  V30 4344 H 429.678 3.11272 -2.38438 0
M  V30 4345 H 431.168 3.81871 -1.6901 0
M  V30 4346 N 431.605 1.3629 0.791371 0
M  V30 4347 C 432.555 1.26988 1.89362 0
M  V30 4348 C 433.539 0.161795 1.60084 0
M  V30 4349 O 434.731 0.394426 1.72549 0
M  V30 4350 C 431.86 1.05944 3.26544 0
M  V30 4351 C 430.946 2.21211 3.61838 0
M  V30 4352 N 431.337 3.46518 3.68455 0
M  V30 4353 C 429.635 2.12933 3.91887 0
M  V30 4354 C 430.336 4.2241 3.99931 0
M  V30 4355 N 429.312 3.51329 4.14812 0
M  V30 4356 H 433.114 2.21908 1.92702 0
M  V30 4357 H 430.628 1.28982 0.986787 0
M  V30 4358 H 432.625 0.973666 4.05371 0
M  V30 4359 H 431.285 0.119223 3.24481 0
M  V30 4360 H 432.296 3.80677 3.51148 0
M  V30 4361 H 428.973 1.26855 3.97761 0
M  V30 4362 H 430.363 5.30767 4.1199 0
M  V30 4363 N 433.083 -1.0153 1.20538 0
M  V30 4364 C 434.311 -1.78746 1.04199 0
M  V30 4365 C 434.726 -1.84323 -0.408733 0
M  V30 4366 O 434.083 -1.29714 -1.28377 0
M  V30 4367 C 434.134 -3.23152 1.62035 0
M  V30 4368 O 433.855 -3.17918 3.0143 0
M  V30 4369 C 435.356 -4.16911 1.50666 0
M  V30 4370 H 432.576 -0.56208 0.366479 0
M  V30 4371 H 435.12 -1.27794 1.59653 0
M  V30 4372 H 433.275 -3.71248 1.10697 0
M  V30 4373 H 433.689 -4.08567 3.28897 0
M  V30 4374 H 435.163 -5.16072 1.95892 0
M  V30 4375 H 435.64 -4.36791 0.459363 0
M  V30 4376 H 436.246 -3.74698 2.01201 0
M  V30 4377 N 434.561 -1.01147 -1.20859 0
M  V30 4378 C 435.977 -0.725422 -1.42161 0
M  V30 4379 C 436.177 0.696919 -1.89064 0
M  V30 4380 O 435.233 1.46539 -2.05627 0
M  V30 4381 C 436.546 -1.74678 -2.44761 0
M  V30 4382 C 438.094 -1.76433 -2.58535 0
M  V30 4383 C 438.569 -2.77481 -3.64374 0
M  V30 4384 N 440.06 -2.76189 -3.71852 0
M  V30 4385 C 440.795 -3.51035 -4.53389 0
M  V30 4386 N 440.291 -4.35541 -5.38773 0
M  V30 4387 N 442.084 -3.39655 -4.47873 0
M  V30 4388 H 434.235 -1.92979 -0.887282 0
M  V30 4389 H 436.498 -0.833327 -0.451962 0
M  V30 4390 H 436.204 -2.76551 -2.17285 0
M  V30 4391 H 436.078 -1.55472 -3.43669 0
M  V30 4392 H 438.465 -0.75248 -2.85345 0
M  V30 4393 H 438.546 -1.99712 -1.5984 0
M  V30 4394 H 438.19 -3.78827 -3.38308 0
M  V30 4395 H 438.12 -2.51466 -4.6268 0
M  V30 4396 H 440.611 -2.14885 -3.10858 0
M  V30 4397 H 440.924 -4.89432 -5.98061 0
M  V30 4398 H 439.269 -4.39621 -5.38292 0
M  V30 4399 H 442.46 -2.73063 -3.80203 0
M  V30 4400 H 442.633 -3.9824 -5.11184 0
M  V30 4401 N 436.039 1.36541 -0.78704 0
M  V30 4402 C 437.264 2.0409 -0.369053 0
M  V30 4403 C 437.689 1.58957 1.00569 0
M  V30 4404 O 437.047 0.756926 1.64743 0
M  V30 4405 C 437.095 3.57924 -0.438466 0
M  V30 4406 O 436.199 4.08642 0.555479 0
M  V30 4407 H 435.54 0.645142 -0.157122 0
M  V30 4408 H 438.07 1.74545 -1.06749 0
M  V30 4409 H 438.08 4.06887 -0.301218 0
M  V30 4410 H 436.755 3.90127 -1.44132 0
M  V30 4411 H 435.332 3.70958 0.380088 0
M  V30 4412 N 437.518 0.538854 1.48102 0
M  V30 4413 C 438.481 -0.208395 2.28251 0
M  V30 4414 C 439.481 -0.859656 1.35892 0
M  V30 4415 O 440.671 -0.71834 1.58699 0
M  V30 4416 C 437.803 -1.30252 3.15035 0
M  V30 4417 H 438.996 0.495407 2.9578 0
M  V30 4418 H 436.549 0.295112 1.53489 0
M  V30 4419 H 437.284 -2.0393 2.52157 0
M  V30 4420 H 437.069 -0.840551 3.82985 0
M  V30 4421 H 438.559 -1.82787 3.75471 0
M  V30 4422 N 438.996 -1.55193 0.274407 0
M  V30 4423 C 439.959 -2.212 -0.600279 0
M  V30 4424 C 440.959 -1.18963 -1.08187 0
M  V30 4425 O 442.149 -1.43873 -0.982158 0
M  V30 4426 C 439.281 -2.87739 -1.82809 0
M  V30 4427 H 440.474 -2.9989 -0.0239682 0
M  V30 4428 H 438.027 -1.5628 0.0250192 0
M  V30 4429 H 438.762 -2.13058 -2.44493 0
M  V30 4430 H 438.547 -3.62658 -1.49069 0
M  V30 4431 H 440.037 -3.38171 -2.45011 0
M  V30 4432 O 440.513 -0.140013 -1.60892 0
M  V30 4433 H 441.204 0.455152 -1.88277 0
M  V30 END ATOM
M  V30 BEGIN BOND
M  V30 END BOND
M  V30 END CTAB
M  END
$$$$
