drugbank_drug|DB05685 Fibrinogen beta chain (15-42) human
 OpenBabel12092119133D

456459  0  0  0  0  0  0  0  0999 V2000
   -0.9080    1.9825   -0.1171 H   0  0  0  0  0 15  0  0  0  0  0  0
    0.0000    1.5760    0.0000 N   0  0  0  0  0 15  0  0  0  0  0  0
    0.9330    2.0387    1.0253 C   0  0  0  0  0 15  0  0  0  0  0  0
    1.9110    0.9285    1.3348 C   0  0  0  0  0 15  0  0  0  0  0  0
    3.0950    1.1967    1.4564 O   0  0  0  0  0 15  0  0  0  0  0  0
    0.2220    2.4363    2.3529 C   0  0  0  0  0 15  0  0  0  0  0  0
   -0.7320    3.6537    2.2001 C   0  0  0  0  0 15  0  0  0  0  0  0
    0.1010    5.1329    1.5261 S   0  0  0  0  0 15  0  0  0  0  0  0
    1.2570    5.5632    2.8680 C   0  0  0  0  0 15  0  0  0  0  0  0
    1.4900    2.9052    0.6314 H   0  0  0  0  0 15  0  0  0  0  0  0
   -0.9770    1.5295    0.2109 H   0  0  0  0  0 15  0  0  0  0  0  0
    0.9810    2.6720    3.1163 H   0  0  0  0  0 15  0  0  0  0  0  0
   -0.3580    1.5738    2.7183 H   0  0  0  0  0 15  0  0  0  0  0  0
   -1.1650    3.9094    3.1809 H   0  0  0  0  0 15  0  0  0  0  0  0
   -1.5630    3.4180    1.5182 H   0  0  0  0  0 15  0  0  0  0  0  0
    0.7290    5.5878    3.8310 H   0  0  0  0  0 15  0  0  0  0  0  0
    1.6720    6.5627    2.6593 H   0  0  0  0  0 15  0  0  0  0  0  0
    2.0800    4.8389    2.9071 H   0  0  0  0  0 15  0  0  0  0  0  0
    1.4781   -0.2728    1.5522 N   0  0  0  0  0 15  0  0  0  0  0  0
    2.4251   -1.3372    1.8812 C   0  0  0  0  0 15  0  0  0  0  0  0
    3.3951   -1.4907    0.7327 C   0  0  0  0  0 15  0  0  0  0  0  0
    4.5801   -1.6347    0.9840 O   0  0  0  0  0 15  0  0  0  0  0  0
    1.7201   -2.6924    2.1588 C   0  0  0  0  0 15  0  0  0  0  0  0
    0.8331   -2.6211    3.4340 C   0  0  0  0  0 15  0  0  0  0  0  0
   -0.0319   -3.8981    3.6086 C   0  0  0  0  0 15  0  0  0  0  0  0
   -0.9929   -3.7719    4.8207 C   0  0  0  0  0 15  0  0  0  0  0  0
   -1.8559   -4.9673    4.9619 N   0  0  0  0  0 15  0  0  0  0  0  0
    2.9841   -1.0496    2.7890 H   0  0  0  0  0 15  0  0  0  0  0  0
    0.5211   -0.5071    1.3808 H   0  0  0  0  0 15  0  0  0  0  0  0
    2.4791   -3.4809    2.2998 H   0  0  0  0  0 15  0  0  0  0  0  0
    1.1091   -2.9619    1.2833 H   0  0  0  0  0 15  0  0  0  0  0  0
    0.1611   -1.7497    3.3777 H   0  0  0  0  0 15  0  0  0  0  0  0
    1.4731   -2.4868    4.3239 H   0  0  0  0  0 15  0  0  0  0  0  0
    0.6271   -4.7710    3.7478 H   0  0  0  0  0 15  0  0  0  0  0  0
   -0.6339   -4.0610    2.7006 H   0  0  0  0  0 15  0  0  0  0  0  0
   -1.6289   -2.8828    4.6816 H   0  0  0  0  0 15  0  0  0  0  0  0
   -0.4039   -3.6242    5.7431 H   0  0  0  0  0 15  0  0  0  0  0  0
   -2.4579   -5.1343    4.0832 H   0  0  0  0  0 15  0  0  0  0  0  0
   -2.5409   -4.8584    5.7922 H   0  0  0  0  0 15  0  0  0  0  0  0
   -1.2729   -5.8559    5.1449 H   0  0  0  0  0 15  0  0  0  0  0  0
    2.9562   -1.4816   -0.5373 N   0  0  0  0  0 15  0  0  0  0  0  0
    3.9062   -1.5854   -1.6386 C   0  0  0  0  0 15  0  0  0  0  0  0
    4.8902   -0.4430   -1.5468 C   0  0  0  0  0 15  0  0  0  0  0  0
    6.0822   -0.6940   -1.6283 O   0  0  0  0  0 15  0  0  0  0  0  0
    3.2112   -1.6214   -3.0260 C   0  0  0  0  0 15  0  0  0  0  0  0
    2.2972   -2.8184   -3.1690 C   0  0  0  0  0 15  0  0  0  0  0  0
    2.6882   -4.0634   -3.0120 N   0  0  0  0  0 15  0  0  0  0  0  0
    0.9862   -2.7902   -3.4794 C   0  0  0  0  0 15  0  0  0  0  0  0
    1.6872   -4.8661   -3.1873 C   0  0  0  0  0 15  0  0  0  0  0  0
    0.6632   -4.1929   -3.4597 N   0  0  0  0  0 15  0  0  0  0  0  0
    4.4652   -2.5255   -1.5032 H   0  0  0  0  0 15  0  0  0  0  0  0
    1.9792   -1.4443   -0.7426 H   0  0  0  0  0 15  0  0  0  0  0  0
    3.9762   -1.6767   -3.8170 H   0  0  0  0  0 15  0  0  0  0  0  0
    2.6362   -0.6925   -3.1723 H   0  0  0  0  0 15  0  0  0  0  0  0
    3.6472   -4.3689   -2.7812 H   0  0  0  0  0 15  0  0  0  0  0  0
    0.3242   -1.9535   -3.6898 H   0  0  0  0  0 15  0  0  0  0  0  0
    1.7142   -5.9539   -3.1139 H   0  0  0  0  0 15  0  0  0  0  0  0
    4.4343    0.7856   -1.3662 N   0  0  0  0  0 15  0  0  0  0  0  0
    5.3643    1.9126   -1.3395 C   0  0  0  0  0 15  0  0  0  0  0  0
    6.3453    1.6879   -0.2103 C   0  0  0  0  0 15  0  0  0  0  0  0
    7.5303    1.8985   -0.4086 O   0  0  0  0  0 15  0  0  0  0  0  0
    4.6603    3.2834   -1.1319 C   0  0  0  0  0 15  0  0  0  0  0  0
    3.6143    3.6533   -2.2297 C   0  0  0  0  0 15  0  0  0  0  0  0
    2.9403    5.0081   -1.8734 C   0  0  0  0  0 15  0  0  0  0  0  0
    4.2403    3.7352   -3.6508 C   0  0  0  0  0 15  0  0  0  0  0  0
    5.9343    1.9375   -2.2825 H   0  0  0  0  0 15  0  0  0  0  0  0
    3.4803    0.9308   -1.0987 H   0  0  0  0  0 15  0  0  0  0  0  0
    5.4333    4.0680   -1.0995 H   0  0  0  0  0 15  0  0  0  0  0  0
    4.1573    3.2624   -0.1533 H   0  0  0  0  0 15  0  0  0  0  0  0
    2.8163    2.8917   -2.2534 H   0  0  0  0  0 15  0  0  0  0  0  0
    2.4643    4.9523   -0.8805 H   0  0  0  0  0 15  0  0  0  0  0  0
    2.1643    5.2653   -2.6085 H   0  0  0  0  0 15  0  0  0  0  0  0
    3.6883    5.8169   -1.8567 H   0  0  0  0  0 15  0  0  0  0  0  0
    5.1023    4.4217   -3.6491 H   0  0  0  0  0 15  0  0  0  0  0  0
    3.4993    4.1073   -4.3752 H   0  0  0  0  0 15  0  0  0  0  0  0
    4.5693    2.7453   -3.9970 H   0  0  0  0  0 15  0  0  0  0  0  0
    5.9124    1.2097    1.0102 N   0  0  0  0  0 15  0  0  0  0  0  0
    6.8424    0.9883    2.1155 C   0  0  0  0  0 15  0  0  0  0  0  0
    7.8234   -0.0850    1.6989 C   0  0  0  0  0 15  0  0  0  0  0  0
    9.0084    0.0738    1.9406 O   0  0  0  0  0 15  0  0  0  0  0  0
    6.1384    0.5465    3.4297 C   0  0  0  0  0 15  0  0  0  0  0  0
    5.0924    1.5637    3.9841 C   0  0  0  0  0 15  0  0  0  0  0  0
    4.4184    0.9784    5.2567 C   0  0  0  0  0 15  0  0  0  0  0  0
    5.7184    2.9492    4.3107 C   0  0  0  0  0 15  0  0  0  0  0  0
    7.4124    1.9128    2.3033 H   0  0  0  0  0 15  0  0  0  0  0  0
    4.9584    0.9211    1.1069 H   0  0  0  0  0 15  0  0  0  0  0  0
    6.9114    0.3788    4.1969 H   0  0  0  0  0 15  0  0  0  0  0  0
    5.6354   -0.4136    3.2397 H   0  0  0  0  0 15  0  0  0  0  0  0
    4.2944    1.7189    3.2380 H   0  0  0  0  0 15  0  0  0  0  0  0
    3.9424    0.0102    5.0300 H   0  0  0  0  0 15  0  0  0  0  0  0
    3.6424    1.6578    5.6373 H   0  0  0  0  0 15  0  0  0  0  0  0
    5.1664    0.8219    6.0504 H   0  0  0  0  0 15  0  0  0  0  0  0
    6.5804    2.8288    4.9865 H   0  0  0  0  0 15  0  0  0  0  0  0
    4.9774    3.5983    4.8025 H   0  0  0  0  0 15  0  0  0  0  0  0
    6.0474    3.4616    3.3956 H   0  0  0  0  0 15  0  0  0  0  0  0
    7.3905   -1.2043    1.0166 N   0  0  0  0  0 15  0  0  0  0  0  0
    8.3205   -2.2547    0.6072 C   0  0  0  0  0 15  0  0  0  0  0  0
    9.3015   -1.6585   -0.3777 C   0  0  0  0  0 15  0  0  0  0  0  0
   10.4865   -1.9241   -0.2631 O   0  0  0  0  0 15  0  0  0  0  0  0
    7.6165   -3.4726   -0.0553 C   0  0  0  0  0 15  0  0  0  0  0  0
    6.5705   -4.1946    0.8506 C   0  0  0  0  0 15  0  0  0  0  0  0
    5.8965   -5.3467    0.0539 C   0  0  0  0  0 15  0  0  0  0  0  0
    7.1965   -4.7560    2.1587 C   0  0  0  0  0 15  0  0  0  0  0  0
    8.8905   -2.5996    1.4853 H   0  0  0  0  0 15  0  0  0  0  0  0
    6.4365   -1.2496    0.7156 H   0  0  0  0  0 15  0  0  0  0  0  0
    8.3895   -4.1992   -0.3532 H   0  0  0  0  0 15  0  0  0  0  0  0
    7.1135   -3.1192   -0.9680 H   0  0  0  0  0 15  0  0  0  0  0  0
    5.7725   -3.4867    1.1326 H   0  0  0  0  0 15  0  0  0  0  0  0
    5.4205   -4.9558   -0.8605 H   0  0  0  0  0 15  0  0  0  0  0  0
    5.1205   -5.8391    0.6572 H   0  0  0  0  0 15  0  0  0  0  0  0
    6.6445   -6.1014   -0.2376 H   0  0  0  0  0 15  0  0  0  0  0  0
    8.0585   -5.4008    1.9231 H   0  0  0  0  0 15  0  0  0  0  0  0
    6.4555   -5.3528    2.7128 H   0  0  0  0  0 15  0  0  0  0  0  0
    7.5255   -3.9435    2.8217 H   0  0  0  0  0 15  0  0  0  0  0  0
    8.8686   -0.7928   -1.3621 N   0  0  0  0  0 15  0  0  0  0  0  0
    9.7986   -0.2079   -2.3257 C   0  0  0  0  0 15  0  0  0  0  0  0
   10.7796    0.6591   -1.5681 C   0  0  0  0  0 15  0  0  0  0  0  0
   11.9646    0.5922   -1.8495 O   0  0  0  0  0 15  0  0  0  0  0  0
    9.0946    0.6554   -3.4106 C   0  0  0  0  0 15  0  0  0  0  0  0
    8.0486   -0.1118   -4.2785 C   0  0  0  0  0 15  0  0  0  0  0  0
    7.3746    0.8723   -5.2754 C   0  0  0  0  0 15  0  0  0  0  0  0
    8.6746   -1.3030   -5.0579 C   0  0  0  0  0 15  0  0  0  0  0  0
   10.3686   -1.0129   -2.8174 H   0  0  0  0  0 15  0  0  0  0  0  0
    7.9146   -0.4885   -1.3546 H   0  0  0  0  0 15  0  0  0  0  0  0
    9.8676    1.0746   -4.0747 H   0  0  0  0  0 15  0  0  0  0  0  0
    8.5916    1.4933   -2.9046 H   0  0  0  0  0 15  0  0  0  0  0  0
    7.2506   -0.5121   -3.6301 H   0  0  0  0  0 15  0  0  0  0  0  0
    6.8986    1.7052   -4.7321 H   0  0  0  0  0 15  0  0  0  0  0  0
    6.5986    0.3633   -5.8648 H   0  0  0  0  0 15  0  0  0  0  0  0
    8.1226    1.2900   -5.9682 H   0  0  0  0  0 15  0  0  0  0  0  0
    9.5366   -0.9594   -5.6522 H   0  0  0  0  0 15  0  0  0  0  0  0
    7.9336   -1.7455   -5.7415 H   0  0  0  0  0 15  0  0  0  0  0  0
    9.0036   -2.0966   -4.3723 H   0  0  0  0  0 15  0  0  0  0  0  0
   10.3467    1.4787   -0.5451 N   0  0  0  0  0 15  0  0  0  0  0  0
   11.2767    2.3266    0.1978 C   0  0  0  0  0 15  0  0  0  0  0  0
   12.2577    1.4304    0.9205 C   0  0  0  0  0 15  0  0  0  0  0  0
   13.4427    1.7191    0.9033 O   0  0  0  0  0 15  0  0  0  0  0  0
   10.5727    3.2457    1.2358 C   0  0  0  0  0 15  0  0  0  0  0  0
    9.5267    4.2333    0.6303 C   0  0  0  0  0 15  0  0  0  0  0  0
    8.8527    5.0448    1.7721 C   0  0  0  0  0 15  0  0  0  0  0  0
   10.1527    5.2070   -0.4080 C   0  0  0  0  0 15  0  0  0  0  0  0
   11.8467    2.9502   -0.5100 H   0  0  0  0  0 15  0  0  0  0  0  0
    9.3927    1.4187   -0.2467 H   0  0  0  0  0 15  0  0  0  0  0  0
   11.3457    3.8272    1.7636 H   0  0  0  0  0 15  0  0  0  0  0  0
   10.0697    2.6024    1.9734 H   0  0  0  0  0 15  0  0  0  0  0  0
    8.7287    3.6639    0.1239 H   0  0  0  0  0 15  0  0  0  0  0  0
    8.3767    4.3656    2.4985 H   0  0  0  0  0 15  0  0  0  0  0  0
    8.0767    5.7134    1.3728 H   0  0  0  0  0 15  0  0  0  0  0  0
    9.6007    5.6549    2.3034 H   0  0  0  0  0 15  0  0  0  0  0  0
   11.0147    5.7329    0.0333 H   0  0  0  0  0 15  0  0  0  0  0  0
    9.4117    5.9570   -0.7255 H   0  0  0  0  0 15  0  0  0  0  0  0
   10.4817    4.6692   -1.3083 H   0  0  0  0  0 15  0  0  0  0  0  0
   11.8248    0.2810    1.5507 N   0  0  0  0  0 15  0  0  0  0  0  0
   12.7548   -0.5975    2.2573 C   0  0  0  0  0 15  0  0  0  0  0  0
   13.7358   -1.1542    1.2495 C   0  0  0  0  0 15  0  0  0  0  0  0
   14.9208   -1.1872    1.5368 O   0  0  0  0  0 15  0  0  0  0  0  0
   12.0508   -1.7789    2.9828 C   0  0  0  0  0 15  0  0  0  0  0  0
   11.0048   -1.3535    4.0604 C   0  0  0  0  0 15  0  0  0  0  0  0
   10.3308   -2.6185    4.6620 C   0  0  0  0  0 15  0  0  0  0  0  0
   11.6308   -0.4994    5.1991 C   0  0  0  0  0 15  0  0  0  0  0  0
   13.3248   -0.0082    2.9940 H   0  0  0  0  0 15  0  0  0  0  0  0
   10.8708   -0.0025    1.4400 H   0  0  0  0  0 15  0  0  0  0  0  0
   12.8238   -2.3994    3.4642 H   0  0  0  0  0 15  0  0  0  0  0  0
   11.5478   -2.3940    2.2216 H   0  0  0  0  0 15  0  0  0  0  0  0
   10.2068   -0.7562    3.5872 H   0  0  0  0  0 15  0  0  0  0  0  0
    9.8548   -3.2163    3.8673 H   0  0  0  0  0 15  0  0  0  0  0  0
    9.5548   -2.3409    5.3896 H   0  0  0  0  0 15  0  0  0  0  0  0
   11.0788   -3.2473    5.1709 H   0  0  0  0  0 15  0  0  0  0  0  0
   12.4928   -1.0250    5.6406 H   0  0  0  0  0 15  0  0  0  0  0  0
   10.8898   -0.3164    5.9927 H   0  0  0  0  0 15  0  0  0  0  0  0
   11.9598    0.4805    4.8251 H   0  0  0  0  0 15  0  0  0  0  0  0
   13.3029   -1.5760    0.0084 N   0  0  0  0  0 15  0  0  0  0  0  0
   14.5429   -1.9279   -0.6791 C   0  0  0  0  0 15  0  0  0  0  0  0
   14.9069   -0.8834   -1.7047 C   0  0  0  0  0 15  0  0  0  0  0  0
   16.1079   -1.1208   -2.4432 O   0  0  0  0  0 15  0  0  0  0  0  0
   14.3789   -3.3299   -1.2981 C   0  0  0  0  0 15  0  0  0  0  0  0
   15.9379   -3.9008   -2.0095 S   0  0  0  0  0 15  0  0  0  0  0  0
   12.7559   -0.6748   -0.2241 H   0  0  0  0  0 15  0  0  0  0  0  0
   15.3579   -1.9538    0.0670 H   0  0  0  0  0 15  0  0  0  0  0  0
   14.0619   -4.0685   -0.5389 H   0  0  0  0  0 15  0  0  0  0  0  0
   13.5929   -3.3379   -2.0820 H   0  0  0  0  0 15  0  0  0  0  0  0
   15.6079   -3.7183   -3.2856 H   0  0  0  0  0 15  0  0  0  0  0  0
   14.7810    0.2645   -1.5536 N   0  0  0  0  0 15  0  0  0  0  0  0
   16.0270    0.9965   -1.7663 C   0  0  0  0  0 15  0  0  0  0  0  0
   16.3600    1.8563   -0.5705 C   0  0  0  0  0 15  0  0  0  0  0  0
   15.6350    1.8965    0.4317 O   0  0  0  0  0 15  0  0  0  0  0  0
   15.9180    1.8719   -3.0762 C   0  0  0  0  0 15  0  0  0  0  0  0
   15.7710    1.0414   -4.3758 C   0  0  0  0  0 15  0  0  0  0  0  0
   17.0900    2.8575   -3.3472 C   0  0  0  0  0 15  0  0  0  0  0  0
   14.2090    0.3608   -0.6426 H   0  0  0  0  0 15  0  0  0  0  0  0
   16.8510    0.2682   -1.8810 H   0  0  0  0  0 15  0  0  0  0  0  0
   15.0010    2.4928   -2.9798 H   0  0  0  0  0 15  0  0  0  0  0  0
   16.6730    0.4405   -4.5919 H   0  0  0  0  0 15  0  0  0  0  0  0
   14.9160    0.3451   -4.3243 H   0  0  0  0  0 15  0  0  0  0  0  0
   15.5870    1.6873   -5.2558 H   0  0  0  0  0 15  0  0  0  0  0  0
   18.0630    2.3379   -3.4421 H   0  0  0  0  0 15  0  0  0  0  0  0
   16.9390    3.4414   -4.2762 H   0  0  0  0  0 15  0  0  0  0  0  0
   17.2000    3.6131   -2.5477 H   0  0  0  0  0 15  0  0  0  0  0  0
   16.2591    1.4844    0.5294 N   0  0  0  0  0 15  0  0  0  0  0  0
   17.5061    1.5649    1.2852 C   0  0  0  0  0 15  0  0  0  0  0  0
   17.8341    0.2390    1.9303 C   0  0  0  0  0 15  0  0  0  0  0  0
   17.0891   -0.7707    1.7988 O   0  0  0  0  0 15  0  0  0  0  0  0
   17.3881    2.6523    2.3956 C   0  0  0  0  0 15  0  0  0  0  0  0
   17.0541    4.0765    1.9270 C   0  0  0  0  0 15  0  0  0  0  0  0
   15.7161    4.4641    1.7964 C   0  0  0  0  0 15  0  0  0  0  0  0
   18.0681    4.9690    1.5730 C   0  0  0  0  0 15  0  0  0  0  0  0
   15.3961    5.7223    1.2951 C   0  0  0  0  0 15  0  0  0  0  0  0
   17.7481    6.2320    1.0864 C   0  0  0  0  0 15  0  0  0  0  0  0
   16.4121    6.6082    0.9419 C   0  0  0  0  0 15  0  0  0  0  0  0
   15.6821    0.5726    0.4703 H   0  0  0  0  0 15  0  0  0  0  0  0
   18.3291    1.8216    0.5907 H   0  0  0  0  0 15  0  0  0  0  0  0
   16.6341    2.3342    3.1468 H   0  0  0  0  0 15  0  0  0  0  0  0
   18.3311    2.6867    2.9769 H   0  0  0  0  0 15  0  0  0  0  0  0
   14.9211    3.7704    2.0382 H   0  0  0  0  0 15  0  0  0  0  0  0
   19.1051    4.6763    1.6625 H   0  0  0  0  0 15  0  0  0  0  0  0
   14.3611    6.0010    1.1702 H   0  0  0  0  0 15  0  0  0  0  0  0
   18.5351    6.9175    0.8031 H   0  0  0  0  0 15  0  0  0  0  0  0
   16.1621    7.5820    0.5513 H   0  0  0  0  0 15  0  0  0  0  0  0
   17.7372   -0.7783    1.3704 N   0  0  0  0  0 15  0  0  0  0  0  0
   18.6672   -1.9055    1.3496 C   0  0  0  0  0 15  0  0  0  0  0  0
   19.6482   -1.6868    0.2193 C   0  0  0  0  0 15  0  0  0  0  0  0
   20.8332   -1.8963    0.4186 O   0  0  0  0  0 15  0  0  0  0  0  0
   17.9632   -3.2773    1.1493 C   0  0  0  0  0 15  0  0  0  0  0  0
   16.9172   -3.6415    2.2490 C   0  0  0  0  0 15  0  0  0  0  0  0
   16.2432   -4.9981    1.9000 C   0  0  0  0  0 15  0  0  0  0  0  0
   17.5432   -3.7158    3.6705 C   0  0  0  0  0 15  0  0  0  0  0  0
   19.2372   -1.9254    2.2928 H   0  0  0  0  0 15  0  0  0  0  0  0
   16.7832   -0.9249    1.1037 H   0  0  0  0  0 15  0  0  0  0  0  0
   18.7362   -4.0622    1.1210 H   0  0  0  0  0 15  0  0  0  0  0  0
   17.4602   -3.2615    0.1706 H   0  0  0  0  0 15  0  0  0  0  0  0
   16.1192   -2.8797    2.2687 H   0  0  0  0  0 15  0  0  0  0  0  0
   15.7672   -4.9476    0.9068 H   0  0  0  0  0 15  0  0  0  0  0  0
   15.4672   -5.2514    2.6363 H   0  0  0  0  0 15  0  0  0  0  0  0
   16.9912   -5.8069    1.8875 H   0  0  0  0  0 15  0  0  0  0  0  0
   18.4052   -4.4023    3.6725 H   0  0  0  0  0 15  0  0  0  0  0  0
   16.8022   -4.0840    4.3969 H   0  0  0  0  0 15  0  0  0  0  0  0
   17.8722   -2.7240    4.0115 H   0  0  0  0  0 15  0  0  0  0  0  0
   19.2153   -1.2150   -1.0038 N   0  0  0  0  0 15  0  0  0  0  0  0
   20.4613   -1.0345   -1.7443 C   0  0  0  0  0 15  0  0  0  0  0  0
   20.7943    0.4308   -1.8936 C   0  0  0  0  0 15  0  0  0  0  0  0
   20.0693    1.3196   -1.4289 O   0  0  0  0  0 15  0  0  0  0  0  0
   20.3523   -1.7338   -3.1562 C   0  0  0  0  0 15  0  0  0  0  0  0
   20.2053   -3.2743   -3.0840 C   0  0  0  0  0 15  0  0  0  0  0  0
   21.5243   -1.4773   -4.1456 C   0  0  0  0  0 15  0  0  0  0  0  0
   18.6433   -0.3772   -0.6331 H   0  0  0  0  0 15  0  0  0  0  0  0
   21.2853   -1.4969   -1.1701 H   0  0  0  0  0 15  0  0  0  0  0  0
   19.4353   -1.3406   -3.6464 H   0  0  0  0  0 15  0  0  0  0  0  0
   21.1073   -3.7612   -2.6708 H   0  0  0  0  0 15  0  0  0  0  0  0
   19.3503   -3.5767   -2.4547 H   0  0  0  0  0 15  0  0  0  0  0  0
   20.0213   -3.7152   -4.0826 H   0  0  0  0  0 15  0  0  0  0  0  0
   22.4973   -1.8186   -3.7425 H   0  0  0  0  0 15  0  0  0  0  0  0
   21.3733   -1.9917   -5.1149 H   0  0  0  0  0 15  0  0  0  0  0  0
   21.6343   -0.4076   -4.4022 H   0  0  0  0  0 15  0  0  0  0  0  0
   20.6934    1.1989   -1.0230 N   0  0  0  0  0 15  0  0  0  0  0  0
   21.6404    2.2290   -0.5987 C   0  0  0  0  0 15  0  0  0  0  0  0
   22.6104    1.6159    0.3845 C   0  0  0  0  0 15  0  0  0  0  0  0
   23.7954    1.8870    0.2825 O   0  0  0  0  0 15  0  0  0  0  0  0
   20.9354    3.4506    0.0504 C   0  0  0  0  0 15  0  0  0  0  0  0
   20.0484    4.2078   -0.9781 C   0  0  0  0  0 15  0  0  0  0  0  0
   19.1834    5.3036   -0.2993 C   0  0  0  0  0 15  0  0  0  0  0  0
   18.2224    5.9783   -1.3142 C   0  0  0  0  0 15  0  0  0  0  0  0
   17.3594    6.9898   -0.6617 N   0  0  0  0  0 15  0  0  0  0  0  0
   22.1994    2.5855   -1.4817 H   0  0  0  0  0 15  0  0  0  0  0  0
   19.7364    1.2704   -0.7416 H   0  0  0  0  0 15  0  0  0  0  0  0
   21.6944    4.1483    0.4440 H   0  0  0  0  0 15  0  0  0  0  0  0
   20.3244    3.1008    0.8971 H   0  0  0  0  0 15  0  0  0  0  0  0
   19.3764    3.5002   -1.4897 H   0  0  0  0  0 15  0  0  0  0  0  0
   20.6884    4.6711   -1.7496 H   0  0  0  0  0 15  0  0  0  0  0  0
   19.8424    6.0652    0.1493 H   0  0  0  0  0 15  0  0  0  0  0  0
   18.5814    4.8508    0.5044 H   0  0  0  0  0 15  0  0  0  0  0  0
   17.5864    5.2042   -1.7732 H   0  0  0  0  0 15  0  0  0  0  0  0
   18.8114    6.4518   -2.1193 H   0  0  0  0  0 15  0  0  0  0  0  0
   16.7574    6.5589    0.1221 H   0  0  0  0  0 15  0  0  0  0  0  0
   16.6744    7.4346   -1.3712 H   0  0  0  0  0 15  0  0  0  0  0  0
   17.9424    7.7914   -0.2368 H   0  0  0  0  0 15  0  0  0  0  0  0
   22.1715    0.8000    1.3578 N   0  0  0  0  0 15  0  0  0  0  0  0
   23.3965    0.3885    2.0373 C   0  0  0  0  0 15  0  0  0  0  0  0
   23.8215   -0.9905    1.5991 C   0  0  0  0  0 15  0  0  0  0  0  0
   23.1795   -1.6401    0.7726 O   0  0  0  0  0 15  0  0  0  0  0  0
   23.2275    0.4726    3.5749 C   0  0  0  0  0 15  0  0  0  0  0  0
   22.3315   -0.5165    4.0915 O   0  0  0  0  0 15  0  0  0  0  0  0
   21.6725    0.1633    0.6436 H   0  0  0  0  0 15  0  0  0  0  0  0
   24.2025    1.0841    1.7352 H   0  0  0  0  0 15  0  0  0  0  0  0
   24.2125    0.3400    4.0658 H   0  0  0  0  0 15  0  0  0  0  0  0
   22.8875    1.4785    3.8873 H   0  0  0  0  0 15  0  0  0  0  0  0
   21.4645   -0.3447    3.7130 H   0  0  0  0  0 15  0  0  0  0  0  0
   23.6496   -1.4758    0.5530 N   0  0  0  0  0 15  0  0  0  0  0  0
   24.5816   -2.2800   -0.2345 C   0  0  0  0  0 15  0  0  0  0  0  0
   25.5946   -1.3675   -0.8833 C   0  0  0  0  0 15  0  0  0  0  0  0
   26.7836   -1.6161   -0.7579 O   0  0  0  0  0 15  0  0  0  0  0  0
   23.8836   -3.1088   -1.3494 C   0  0  0  0  0 15  0  0  0  0  0  0
   23.0566   -4.3006   -0.7982 C   0  0  0  0  0 15  0  0  0  0  0  0
   22.1156   -4.9457   -1.7969 C   0  0  0  0  0 15  0  0  0  0  0  0
   21.1416   -5.5309   -1.3447 O   0  0  0  0  0 15  0  0  0  0  0  0
   22.3436   -4.8888   -3.1301 N   0  0  0  0  0 15  0  0  0  0  0  0
   25.1086   -2.9622    0.4553 H   0  0  0  0  0 15  0  0  0  0  0  0
   22.6696   -1.5716    0.3888 H   0  0  0  0  0 15  0  0  0  0  0  0
   24.6616   -3.5090   -2.0162 H   0  0  0  0  0 15  0  0  0  0  0  0
   23.2316   -2.4492   -1.9424 H   0  0  0  0  0 15  0  0  0  0  0  0
   22.4516   -3.9417    0.0453 H   0  0  0  0  0 15  0  0  0  0  0  0
   23.7396   -5.0715   -0.4092 H   0  0  0  0  0 15  0  0  0  0  0  0
   23.1376   -4.4253   -3.5240 H   0  0  0  0  0 15  0  0  0  0  0  0
   21.6946   -5.3293   -3.7527 H   0  0  0  0  0 15  0  0  0  0  0  0
   25.1277   -0.2892   -1.5492 N   0  0  0  0  0 15  0  0  0  0  0  0
   26.3757    0.3229   -1.9950 C   0  0  0  0  0 15  0  0  0  0  0  0
   26.6967    1.5531   -1.1791 C   0  0  0  0  0 15  0  0  0  0  0  0
   25.9667    1.9400   -0.2721 O   0  0  0  0  0 15  0  0  0  0  0  0
   24.5467    0.1223   -0.7369 H   0  0  0  0  0 15  0  0  0  0  0  0
   27.2087   -0.3978   -1.9080 H   0  0  0  0  0 15  0  0  0  0  0  0
   26.3047    0.6031   -3.0622 H   0  0  0  0  0 15  0  0  0  0  0  0
   26.6058    1.5759   -0.0167 N   0  0  0  0  0 15  0  0  0  0  0  0
   27.8518    1.9157    0.6656 C   0  0  0  0  0 15  0  0  0  0  0  0
   28.1848    0.8923    1.7249 C   0  0  0  0  0 15  0  0  0  0  0  0
   27.4598   -0.0867    1.9431 O   0  0  0  0  0 15  0  0  0  0  0  0
   27.7428    3.3607    1.2934 C   0  0  0  0  0 15  0  0  0  0  0  0
   27.5958    4.4913    0.2445 C   0  0  0  0  0 15  0  0  0  0  0  0
   28.9148    3.8030    2.2149 C   0  0  0  0  0 15  0  0  0  0  0  0
   26.0338    0.6967    0.2405 H   0  0  0  0  0 15  0  0  0  0  0  0
   28.6758    1.8987   -0.0714 H   0  0  0  0  0 15  0  0  0  0  0  0
   26.8258    3.3765    1.9216 H   0  0  0  0  0 15  0  0  0  0  0  0
   28.4978    4.5969   -0.3852 H   0  0  0  0  0 15  0  0  0  0  0  0
   26.7408    4.3165   -0.4314 H   0  0  0  0  0 15  0  0  0  0  0  0
   27.4118    5.4724    0.7232 H   0  0  0  0  0 15  0  0  0  0  0  0
   29.8878    3.8038    1.6868 H   0  0  0  0  0 15  0  0  0  0  0  0
   28.7638    4.8213    2.6238 H   0  0  0  0  0 15  0  0  0  0  0  0
   29.0248    3.1510    3.1010 H   0  0  0  0  0 15  0  0  0  0  0  0
   28.0839   -0.2563    1.5550 N   0  0  0  0  0 15  0  0  0  0  0  0
   29.0319   -1.3369    1.9034 C   0  0  0  0  0 15  0  0  0  0  0  0
   30.0259   -1.5030    0.7814 C   0  0  0  0  0 15  0  0  0  0  0  0
   31.2319   -1.5189    0.9660 O   0  0  0  0  0 15  0  0  0  0  0  0
   27.6069   -0.4475    0.6044 H   0  0  0  0  0 15  0  0  0  0  0  0
   29.5779   -1.0157    2.8058 H   0  0  0  0  0 15  0  0  0  0  0  0
   28.3269   -2.6872    2.2064 C   0  0  0  0  0 15  0  0  0  0  0  0
   27.6499   -2.5674    3.0647 H   0  0  0  0  0 15  0  0  0  0  0  0
   29.0899   -3.4324    2.4893 H   0  0  0  0  0 15  0  0  0  0  0  0
   27.5489   -3.2110    1.0196 C   0  0  0  0  0 15  0  0  0  0  0  0
   28.0789   -4.0084    0.2628 O   0  0  0  0  0 15  0  0  0  0  0  0
   26.2849   -2.7900    0.8127 N   0  0  0  0  0 15  0  0  0  0  0  0
   25.8319   -2.1427    1.4299 H   0  0  0  0  0 15  0  0  0  0  0  0
   25.7899   -3.1439    0.0203 H   0  0  0  0  0 15  0  0  0  0  0  0
   29.5620   -1.4872   -0.5215 N   0  0  0  0  0 15  0  0  0  0  0  0
   30.8390   -1.4766   -1.2828 C   0  0  0  0  0 15  0  0  0  0  0  0
   31.2190   -0.1929   -2.1022 C   0  0  0  0  0 15  0  0  0  0  0  0
   30.5670    0.8252   -2.1308 O   0  0  0  0  0 15  0  0  0  0  0  0
   30.7770   -2.7436   -2.1571 C   0  0  0  0  0 15  0  0  0  0  0  0
   32.1250   -3.2303   -2.7557 C   0  0  0  0  0 15  0  0  0  0  0  0
   33.1490   -2.7533   -2.2599 O   0  0  0  0  0 15  0  0  0  0  0  0
   32.0080   -4.0604   -3.6578 O   0  0  0  0  0 15  0  0  0  0  0  0
   29.1020   -0.5901   -0.5794 H   0  0  0  0  0 15  0  0  0  0  0  0
   31.6480   -1.6096   -0.5375 H   0  0  0  0  0 15  0  0  0  0  0  0
   30.4200   -3.5929   -1.5500 H   0  0  0  0  0 15  0  0  0  0  0  0
   30.0430   -2.6382   -2.9747 H   0  0  0  0  0 15  0  0  0  0  0  0
   31.0401    0.7711   -1.3745 N   0  0  0  0  0 15  0  0  0  0  0  0
   31.9881    1.9057   -1.3336 C   0  0  0  0  0 15  0  0  0  0  0  0
   32.9821    1.6794   -0.2222 C   0  0  0  0  0 15  0  0  0  0  0  0
   34.1881    1.7572   -0.3903 O   0  0  0  0  0 15  0  0  0  0  0  0
   30.5631    0.6267   -0.4156 H   0  0  0  0  0 15  0  0  0  0  0  0
   32.5341    1.9114   -2.2914 H   0  0  0  0  0 15  0  0  0  0  0  0
   31.2831    3.2785   -1.1581 C   0  0  0  0  0 15  0  0  0  0  0  0
   30.6061    3.4584   -2.0058 H   0  0  0  0  0 15  0  0  0  0  0  0
   32.0461    4.0754   -1.1700 H   0  0  0  0  0 15  0  0  0  0  0  0
   30.5051    3.3662    0.1362 C   0  0  0  0  0 15  0  0  0  0  0  0
   31.0351    3.8579    1.1195 O   0  0  0  0  0 15  0  0  0  0  0  0
   29.2411    2.9000    0.1871 N   0  0  0  0  0 15  0  0  0  0  0  0
   28.7881    2.5018   -0.6138 H   0  0  0  0  0 15  0  0  0  0  0  0
   28.7461    2.9625    1.0527 H   0  0  0  0  0 15  0  0  0  0  0  0
   32.5182    1.2203    0.9973 N   0  0  0  0  0 15  0  0  0  0  0  0
   33.4282    1.0027    2.1209 C   0  0  0  0  0 15  0  0  0  0  0  0
   34.4442   -0.0476    1.7393 C   0  0  0  0  0 15  0  0  0  0  0  0
   35.6202    0.1441    2.0088 O   0  0  0  0  0 15  0  0  0  0  0  0
   32.6852    0.5784    3.4184 C   0  0  0  0  0 15  0  0  0  0  0  0
   31.7462    1.7019    3.9412 C   0  0  0  0  0 15  0  0  0  0  0  0
   30.9792    1.2978    5.1768 C   0  0  0  0  0 15  0  0  0  0  0  0
   31.2022    0.1747    5.7013 O   0  0  0  0  0 15  0  0  0  0  0  0
   30.1362    2.1126    5.6361 O   0  0  0  0  0 15  0  0  0  0  0  0
   33.9622    1.9440    2.3333 H   0  0  0  0  0 15  0  0  0  0  0  0
   31.5472    1.0059    1.1047 H   0  0  0  0  0 15  0  0  0  0  0  0
   33.4292    0.3520    4.1993 H   0  0  0  0  0 15  0  0  0  0  0  0
   32.1042   -0.3340    3.2197 H   0  0  0  0  0 15  0  0  0  0  0  0
   31.0112    1.9828    3.1723 H   0  0  0  0  0 15  0  0  0  0  0  0
   32.3442    2.5921    4.1842 H   0  0  0  0  0 15  0  0  0  0  0  0
   33.9963   -1.1934    1.0293 N   0  0  0  0  0 15  0  0  0  0  0  0
   34.9063   -2.2624    0.6205 C   0  0  0  0  0 15  0  0  0  0  0  0
   35.9223   -1.7049   -0.3479 C   0  0  0  0  0 15  0  0  0  0  0  0
   37.0983   -2.0035   -0.2057 O   0  0  0  0  0 15  0  0  0  0  0  0
   34.1633   -3.4669   -0.0219 C   0  0  0  0  0 15  0  0  0  0  0  0
   33.2243   -4.1763    0.9941 C   0  0  0  0  0 15  0  0  0  0  0  0
   32.4573   -5.3233    0.3823 C   0  0  0  0  0 15  0  0  0  0  0  0
   32.6803   -5.6455   -0.8147 O   0  0  0  0  0 15  0  0  0  0  0  0
   31.6143   -5.9166    1.1053 O   0  0  0  0  0 15  0  0  0  0  0  0
   35.4403   -2.6345    1.5108 H   0  0  0  0  0 15  0  0  0  0  0  0
   33.0253   -1.2621    0.7995 H   0  0  0  0  0 15  0  0  0  0  0  0
   34.9073   -4.1968   -0.3801 H   0  0  0  0  0 15  0  0  0  0  0  0
   33.5823   -3.1133   -0.8862 H   0  0  0  0  0 15  0  0  0  0  0  0
   32.4893   -3.4676    1.4039 H   0  0  0  0  0 15  0  0  0  0  0  0
   33.8223   -4.5696    1.8288 H   0  0  0  0  0 15  0  0  0  0  0  0
   35.4744   -0.8072   -1.3536 N   0  0  0  0  0 15  0  0  0  0  0  0
   36.7224   -0.3871   -1.9836 C   0  0  0  0  0 15  0  0  0  0  0  0
   37.0434    1.0494   -1.6435 C   0  0  0  0  0 15  0  0  0  0  0  0
   36.3134    1.7261   -0.9263 O   0  0  0  0  0 15  0  0  0  0  0  0
   34.8934   -0.1402   -0.7337 H   0  0  0  0  0 15  0  0  0  0  0  0
   37.5554   -1.0332   -1.6526 H   0  0  0  0  0 15  0  0  0  0  0  0
   36.6514   -0.4934   -3.0818 H   0  0  0  0  0 15  0  0  0  0  0  0
   36.9525    1.4729   -0.5608 N   0  0  0  0  0 15  0  0  0  0  0  0
   38.1995    2.0246   -0.0381 C   0  0  0  0  0 15  0  0  0  0  0  0
   38.5275    1.4347    1.3132 C   0  0  0  0  0 15  0  0  0  0  0  0
   37.7825    0.5813    1.8687 O   0  0  0  0  0 15  0  0  0  0  0  0
   38.0815    3.5726    0.1008 C   0  0  0  0  0 15  0  0  0  0  0  0
   37.7475    4.3518   -1.1801 C   0  0  0  0  0 15  0  0  0  0  0  0
   36.4095    4.5619   -1.5310 C   0  0  0  0  0 15  0  0  0  0  0  0
   38.7615    4.8010   -2.0287 C   0  0  0  0  0 15  0  0  0  0  0  0
   36.0895    5.1937   -2.7290 C   0  0  0  0  0 15  0  0  0  0  0  0
   38.4415    5.4459   -3.2187 C   0  0  0  0  0 15  0  0  0  0  0  0
   37.1055    5.6384   -3.5728 C   0  0  0  0  0 15  0  0  0  0  0  0
   36.3755    0.7409   -0.0139 H   0  0  0  0  0 15  0  0  0  0  0  0
   39.0225    1.7692   -0.7330 H   0  0  0  0  0 15  0  0  0  0  0  0
   37.3275    3.8182    0.8787 H   0  0  0  0  0 15  0  0  0  0  0  0
   39.0245    3.9761    0.5206 H   0  0  0  0  0 15  0  0  0  0  0  0
   35.6145    4.1911   -0.8968 H   0  0  0  0  0 15  0  0  0  0  0  0
   39.7985    4.6364   -1.7706 H   0  0  0  0  0 15  0  0  0  0  0  0
   35.0545    5.3246   -3.0050 H   0  0  0  0  0 15  0  0  0  0  0  0
   39.2285    5.7836   -3.8791 H   0  0  0  0  0 15  0  0  0  0  0  0
   36.8555    6.1256   -4.5020 H   0  0  0  0  0 15  0  0  0  0  0  0
   38.4306    0.2974    1.5477 N   0  0  0  0  0 15  0  0  0  0  0  0
   39.6776   -0.3129    2.0007 C   0  0  0  0  0 15  0  0  0  0  0  0
   40.0056   -1.5417    1.1858 C   0  0  0  0  0 15  0  0  0  0  0  0
   39.2606   -1.9411    0.2491 O   0  0  0  0  0 15  0  0  0  0  0  0
   39.5596   -0.7176    3.5012 C   0  0  0  0  0 15  0  0  0  0  0  0
   39.2256    0.4091    4.4904 C   0  0  0  0  0 15  0  0  0  0  0  0
   37.8876    0.7184    4.7581 C   0  0  0  0  0 15  0  0  0  0  0  0
   40.2396    1.1672    5.0796 C   0  0  0  0  0 15  0  0  0  0  0  0
   37.5676    1.7890    5.5876 C   0  0  0  0  0 15  0  0  0  0  0  0
   39.9196    2.2276    5.9208 C   0  0  0  0  0 15  0  0  0  0  0  0
   38.5836    2.5430    6.1716 C   0  0  0  0  0 15  0  0  0  0  0  0
   37.8536   -0.1145    0.7321 H   0  0  0  0  0 15  0  0  0  0  0  0
   40.5006    0.4158    1.8693 H   0  0  0  0  0 15  0  0  0  0  0  0
   38.8056   -1.5263    3.6085 H   0  0  0  0  0 15  0  0  0  0  0  0
   40.5026   -1.2009    3.8260 H   0  0  0  0  0 15  0  0  0  0  0  0
   37.0926    0.1579    4.2831 H   0  0  0  0  0 15  0  0  0  0  0  0
   41.2766    0.9415    4.8729 H   0  0  0  0  0 15  0  0  0  0  0  0
   36.5326    2.0381    5.7643 H   0  0  0  0  0 15  0  0  0  0  0  0
   40.7066    2.8196    6.3677 H   0  0  0  0  0 15  0  0  0  0  0  0
   38.3336    3.3739    6.8123 H   0  0  0  0  0 15  0  0  0  0  0  0
   39.9087   -1.5758    0.0251 N   0  0  0  0  0 15  0  0  0  0  0  0
   41.1337   -1.9634   -0.6683 C   0  0  0  0  0 15  0  0  0  0  0  0
   41.5587   -0.9013   -1.6510 C   0  0  0  0  0 15  0  0  0  0  0  0
   40.9167    0.1382   -1.8077 O   0  0  0  0  0 15  0  0  0  0  0  0
   40.9647   -3.3419   -1.3546 C   0  0  0  0  0 15  0  0  0  0  0  0
   40.0687   -3.3027   -2.4697 O   0  0  0  0  0 15  0  0  0  0  0  0
   39.4097   -0.6403   -0.1759 H   0  0  0  0  0 15  0  0  0  0  0  0
   41.9397   -2.0442    0.0857 H   0  0  0  0  0 15  0  0  0  0  0  0
   41.9497   -3.7033   -1.7123 H   0  0  0  0  0 15  0  0  0  0  0  0
   40.6247   -4.1104   -0.6342 H   0  0  0  0  0 15  0  0  0  0  0  0
   39.2017   -3.0584   -2.1334 H   0  0  0  0  0 15  0  0  0  0  0  0
   41.4257    0.1167   -1.6108 O   0  0  0  0  0 15  0  0  0  0  0  0
   42.1167    0.7477   -1.7869 H   0  0  0  0  0 15  0  0  0  0  0  0
M  END
$$$$
