drugbank_target|P04036 4-hydroxy-tetrahydrodipicolinate reductase (DB03363; DB04267)
 OpenBabel12092120033D

  0  0  0     0  0            999 V3000
M  V30 BEGIN CTAB
M  V30 COUNTS 4019 4046 0 0 0
M  V30 BEGIN ATOM
M  V30 1 H -0.908 1.98254 -0.117106 0
M  V30 2 N 0 1.576 0 0
M  V30 3 C 0.933 2.03868 1.02534 0
M  V30 4 C 1.911 0.928543 1.3348 0
M  V30 5 O 3.095 1.19667 1.45644 0
M  V30 6 C 0.222 2.43627 2.35294 0
M  V30 7 C -0.732 3.65373 2.2001 0
M  V30 8 S 0.101 5.13292 1.52614 0
M  V30 9 C 1.257 5.56322 2.86805 0
M  V30 10 H 1.49 2.90518 0.631377 0
M  V30 11 H -0.977 1.52953 0.210867 0
M  V30 12 H 0.981 2.67203 3.11629 0
M  V30 13 H -0.358 1.57376 2.7183 0
M  V30 14 H -1.165 3.90944 3.18086 0
M  V30 15 H -1.563 3.418 1.51819 0
M  V30 16 H 0.729 5.58782 3.83104 0
M  V30 17 H 1.672 6.56266 2.65933 0
M  V30 18 H 2.08 4.83886 2.90714 0
M  V30 19 N 1.4781 -0.272755 1.55222 0
M  V30 20 C 2.4281 -1.33946 1.84506 0
M  V30 21 C 3.4121 -1.44682 0.70399 0
M  V30 22 O 4.6041 -1.48358 0.965338 0
M  V30 23 C 1.7331 -2.69968 2.12067 0
M  V30 24 C 0.8191 -2.63341 3.32434 0
M  V30 25 N 1.2101 -2.26335 4.52334 0
M  V30 26 C -0.4919 -2.94402 3.35028 0
M  V30 27 C 0.2091 -2.29705 5.34425 0
M  V30 28 N -0.8149 -2.68188 4.72838 0
M  V30 29 H 2.9871 -1.04343 2.74754 0
M  V30 30 H 0.5011 -0.481389 1.55101 0
M  V30 31 H 2.4981 -3.46916 2.31202 0
M  V30 32 H 1.1581 -3.00459 1.23103 0
M  V30 33 H 2.1691 -1.98309 4.78429 0
M  V30 34 H -1.1539 -3.29603 2.56257 0
M  V30 35 H 0.2361 -2.03653 6.40293 0
M  V30 36 N 2.9562 -1.48159 -0.537278 0
M  V30 37 C 4.2332 -1.46291 -1.29839 0
M  V30 38 C 4.6132 -0.170613 -2.10409 0
M  V30 39 O 3.9612 0.847746 -2.12192 0
M  V30 40 C 4.1712 -2.72055 -2.18603 0
M  V30 41 C 5.5192 -3.20087 -2.7898 0
M  V30 42 O 6.5432 -2.72921 -2.28894 0
M  V30 43 O 5.4022 -4.02138 -3.70064 0
M  V30 44 H 2.4962 -0.583906 -0.585647 0
M  V30 45 H 5.0422 -1.60384 -0.554534 0
M  V30 46 H 3.8142 -3.57628 -1.58801 0
M  V30 47 H 3.4372 -2.60646 -3.00249 0
M  V30 48 N 4.4343 0.785586 -1.36625 0
M  V30 49 C 5.3973 1.87999 -1.31107 0
M  V30 50 C 6.3973 1.59316 -0.217959 0
M  V30 51 O 7.5873 1.67656 -0.472977 0
M  V30 52 C 4.7193 3.24861 -1.03334 0
M  V30 53 H 5.9123 1.94307 -2.2844 0
M  V30 54 H 3.4653 0.983813 -1.21453 0
M  V30 55 H 4.2003 3.24235 -0.0647432 0
M  V30 56 H 3.9853 3.4707 -1.82441 0
M  V30 57 H 5.4753 4.04929 -1.02088 0
M  V30 58 N 5.9124 1.20967 1.01018 0
M  V30 59 C 6.8604 0.961223 2.1181 0
M  V30 60 C 7.8544 -0.0897034 1.69162 0
M  V30 61 O 9.0604 0.0612271 1.79896 0
M  V30 62 H 5.4354 0.29355 0.692338 0
M  V30 63 H 7.4064 1.90178 2.29946 0
M  V30 64 C 6.1554 0.536854 3.4353 0
M  V30 65 H 5.4784 1.33713 3.76777 0
M  V30 66 H 6.9184 0.402286 4.22087 0
M  V30 67 C 5.3774 -0.751574 3.2841 0
M  V30 68 O 5.9074 -1.80841 3.58691 0
M  V30 69 N 4.1134 -0.716079 2.81639 0
M  V30 70 H 3.6604 0.144236 2.57196 0
M  V30 71 H 3.6184 -1.57847 2.71904 0
M  V30 72 N 7.3905 -1.2043 1.01659 0
M  V30 73 C 8.6395 -1.89118 0.701237 0
M  V30 74 C 8.9525 -1.79705 -0.772358 0
M  V30 75 O 10.1585 -2.43528 -1.20026 0
M  V30 76 C 8.6145 -3.39168 1.20388 0
M  V30 77 C 8.2225 -3.57166 2.70438 0
M  V30 78 C 9.9665 -4.1341 0.963953 0
M  V30 79 C 7.8735 -5.01042 3.14183 0
M  V30 80 H 6.8035 -0.708267 0.2586 0
M  V30 81 H 9.4545 -1.36239 1.22927 0
M  V30 82 H 7.8365 -3.91369 0.603824 0
M  V30 83 H 9.0105 -3.15351 3.35992 0
M  V30 84 H 7.3255 -2.96294 2.92572 0
M  V30 85 H 9.9225 -5.19491 1.26621 0
M  V30 86 H 10.2655 -4.16181 -0.099578 0
M  V30 87 H 10.7985 -3.67309 1.52738 0
M  V30 88 H 7.5375 -5.03426 4.19812 0
M  V30 89 H 7.0575 -5.43668 2.53348 0
M  V30 90 H 8.7365 -5.69623 3.0682 0
M  V30 91 N 8.8686 -0.792821 -1.36206 0
M  V30 92 C 10.2846 -0.474903 -1.52371 0
M  V30 93 C 10.4846 1.00622 -1.74578 0
M  V30 94 O 9.5406 1.79162 -1.77924 0
M  V30 95 C 10.8536 -1.3083 -2.70747 0
M  V30 96 C 12.4016 -1.30234 -2.84619 0
M  V30 97 C 12.8766 -2.11956 -4.06004 0
M  V30 98 N 14.3676 -2.09419 -4.13156 0
M  V30 99 C 15.1026 -2.69419 -5.06163 0
M  V30 100 N 14.5986 -3.3829 -6.04592 0
M  V30 101 N 16.3916 -2.59134 -4.98804 0
M  V30 102 H 8.5426 -1.75222 -1.20046 0
M  V30 103 H 10.8056 -0.745024 -0.586211 0
M  V30 104 H 10.5116 -2.35881 -2.6087 0
M  V30 105 H 10.3856 -0.95196 -3.6499 0
M  V30 106 H 12.7726 -0.259748 -2.93955 0
M  V30 107 H 12.8536 -1.69847 -1.91274 0
M  V30 108 H 12.4976 -3.16248 -3.97429 0
M  V30 109 H 12.4276 -1.69711 -4.98503 0
M  V30 110 H 14.9186 -1.59297 -3.42685 0
M  V30 111 H 15.2316 -3.81394 -6.7213 0
M  V30 112 H 13.5766 -3.42393 -6.04807 0
M  V30 113 H 16.7676 -2.04927 -4.20859 0
M  V30 114 H 16.9406 -3.06185 -5.711 0
M  V30 115 N 10.3467 1.47872 -0.545128 0
M  V30 116 C 11.5927 2.02793 -0.0166104 0
M  V30 117 C 11.9257 1.41987 1.32489 0
M  V30 118 O 11.2007 0.571045 1.85928 0
M  V30 119 C 11.4837 3.59989 0.0893294 0
M  V30 120 C 11.3367 4.3125 -1.27841 0
M  V30 121 C 12.6557 4.32606 0.808724 0
M  V30 122 H 9.7747 0.736962 -0.00751035 0
M  V30 123 H 12.4167 1.76433 -0.705085 0
M  V30 124 H 10.5667 3.82579 0.675681 0
M  V30 125 H 12.2387 4.20035 -1.90704 0
M  V30 126 H 10.4817 3.92076 -1.85632 0
M  V30 127 H 11.1527 5.39736 -1.15713 0
M  V30 128 H 13.6287 4.14936 0.310992 0
M  V30 129 H 12.5047 5.42251 0.851782 0
M  V30 130 H 12.7657 4.00963 1.86229 0
M  V30 131 N 11.8248 0.280983 1.55075 0
M  V30 132 C 12.7878 -0.590896 2.21452 0
M  V30 133 C 13.7878 -1.07682 1.19421 0
M  V30 134 O 14.9778 -0.97605 1.44288 0
M  V30 135 C 12.1098 -1.81587 2.88511 0
M  V30 136 H 13.3028 -0.0112554 2.99898 0
M  V30 137 H 10.8558 0.0316438 1.56268 0
M  V30 138 H 11.5908 -2.43587 2.14093 0
M  V30 139 H 11.3758 -1.4753 3.63287 0
M  V30 140 H 12.8658 -2.43575 3.39206 0
M  V30 141 N 13.3029 -1.57598 0.00835791 0
M  V30 142 C 14.5519 -1.90107 -0.673968 0
M  V30 143 C 14.8649 -0.884275 -1.7447 0
M  V30 144 O 16.0709 -1.09987 -2.48224 0
M  V30 145 C 14.5269 -3.37497 -1.24995 0
M  V30 146 C 14.1349 -4.47491 -0.2136 0
M  V30 147 C 15.8789 -3.79104 -1.90999 0
M  V30 148 C 13.7859 -5.85963 -0.80005 0
M  V30 149 H 12.7159 -0.709393 -0.255495 0
M  V30 150 H 15.3669 -1.83365 0.0702693 0
M  V30 151 H 13.7489 -3.39102 -2.04513 0
M  V30 152 H 14.9229 -4.57414 0.557596 0
M  V30 153 H 13.2379 -4.14956 0.346474 0
M  V30 154 H 15.8349 -4.79901 -2.35795 0
M  V30 155 H 16.1779 -3.1306 -2.74407 0
M  V30 156 H 16.7109 -3.79833 -1.18203 0
M  V30 157 H 13.4499 -6.555 -0.00456708 0
M  V30 158 H 12.9699 -5.79687 -1.54021 0
M  V30 159 H 14.6489 -6.33884 -1.29615 0
M  V30 160 N 14.781 0.264519 -1.55364 0
M  V30 161 C 15.744 1.31046 -1.88042 0
M  V30 162 C 16.744 1.41943 -0.755569 0
M  V30 163 O 17.934 1.40947 -1.02369 0
M  V30 164 C 15.066 2.69067 -2.09323 0
M  V30 165 H 16.259 1.03297 -2.81549 0
M  V30 166 H 13.812 0.502989 -1.47986 0
M  V30 167 H 14.547 3.01982 -1.18226 0
M  V30 168 H 14.332 2.62542 -2.91229 0
M  V30 169 H 15.822 3.44623 -2.35848 0
M  V30 170 N 16.2591 1.48442 0.529413 0
M  V30 171 C 17.5071 1.56179 1.28267 0
M  V30 172 C 17.8281 0.237721 1.93546 0
M  V30 173 O 17.0981 -0.740779 1.81354 0
M  V30 174 H 15.6781 0.575367 0.476405 0
M  V30 175 H 18.3401 1.84909 0.61602 0
M  V30 176 H 17.4361 2.34312 2.06165 0
M  V30 177 N 17.7372 -0.778329 1.37039 0
M  V30 178 C 18.7002 -1.87301 1.32102 0
M  V30 179 C 19.7002 -1.59198 0.226405 0
M  V30 180 O 20.8902 -1.67403 0.481861 0
M  V30 181 C 18.0222 -3.24309 1.05055 0
M  V30 182 H 19.2152 -1.93093 2.29467 0
M  V30 183 H 16.7682 -0.977358 1.21973 0
M  V30 184 H 17.5032 -3.24196 0.0819373 0
M  V30 185 H 17.2882 -3.46098 1.84279 0
M  V30 186 H 18.7782 -4.04382 1.04234 0
M  V30 187 N 19.2153 -1.21501 -1.00376 0
M  V30 188 C 20.4633 -1.03095 -1.73827 0
M  V30 189 C 20.7843 0.436341 -1.90055 0
M  V30 190 O 20.0543 1.31466 -1.45236 0
M  V30 191 H 18.6343 -0.378487 -0.644016 0
M  V30 192 H 21.2963 -1.52831 -1.20949 0
M  V30 193 H 20.3923 -1.49991 -2.73695 0
M  V30 194 N 20.6934 1.19889 -1.02296 0
M  V30 195 C 21.9414 1.89046 -0.714558 0
M  V30 196 C 22.2624 1.79636 0.758681 0
M  V30 197 O 21.5324 1.20292 1.54618 0
M  V30 198 H 20.1124 0.699802 -0.261317 0
M  V30 199 H 22.7744 1.45574 -1.29592 0
M  V30 200 H 21.8704 2.95524 -1.0036 0
M  V30 201 N 22.1715 0.800033 1.35784 0
M  V30 202 C 23.5875 0.482977 1.52117 0
M  V30 203 C 23.7875 -0.996948 1.75109 0
M  V30 204 O 22.8435 -1.78216 1.78872 0
M  V30 205 C 24.1565 1.32264 2.70049 0
M  V30 206 C 25.7045 1.31742 2.83924 0
M  V30 207 C 26.1795 2.14106 4.04874 0
M  V30 208 N 27.6705 2.11607 4.12039 0
M  V30 209 C 28.4055 2.72099 5.04727 0
M  V30 210 N 27.9015 3.41492 6.02789 0
M  V30 211 N 29.6945 2.61776 4.97423 0
M  V30 212 H 21.8455 1.75856 1.19115 0
M  V30 213 H 24.1085 0.748122 0.582252 0
M  V30 214 H 23.8145 2.37261 2.59616 0
M  V30 215 H 23.6885 0.971303 3.6448 0
M  V30 216 H 26.0755 0.275333 2.93813 0
M  V30 217 H 26.1565 1.70859 1.9037 0
M  V30 218 H 25.8005 3.18351 3.95746 0
M  V30 219 H 25.7305 1.72353 4.97596 0
M  V30 220 H 28.2215 1.61112 3.41835 0
M  V30 221 H 28.5345 3.84953 6.70098 0
M  V30 222 H 26.8795 3.45596 6.02983 0
M  V30 223 H 30.0705 2.07157 4.19766 0
M  V30 224 H 30.2435 3.0921 5.69468 0
M  V30 225 N 23.6496 -1.47581 0.552962 0
M  V30 226 C 24.5826 -2.26883 -0.244857 0
M  V30 227 C 25.5606 -1.33784 -0.924147 0
M  V30 228 O 26.7446 -1.6316 -0.943981 0
M  V30 229 C 23.8716 -3.10695 -1.34856 0
M  V30 230 C 22.9176 -4.19339 -0.778268 0
M  V30 231 S 23.7506 -5.34207 0.37184 0
M  V30 232 C 24.9066 -6.21584 -0.733779 0
M  V30 233 H 25.1396 -2.94202 0.428087 0
M  V30 234 H 22.6726 -1.50628 0.339197 0
M  V30 235 H 24.6306 -3.59555 -1.98066 0
M  V30 236 H 23.2916 -2.42746 -1.99332 0
M  V30 237 H 22.4846 -4.77695 -1.60696 0
M  V30 238 H 22.0866 -3.73338 -0.222422 0
M  V30 239 H 24.3786 -6.57676 -1.62692 0
M  V30 240 H 25.3216 -7.07851 -0.187668 0
M  V30 241 H 25.7296 -5.55125 -1.02454 0
M  V30 242 N 25.1277 -0.289203 -1.54924 0
M  V30 243 C 26.3757 0.322879 -1.99504 0
M  V30 244 C 26.6967 1.55313 -1.1791 0
M  V30 245 O 25.9667 1.94001 -0.272097 0
M  V30 246 H 24.5467 0.122291 -0.736922 0
M  V30 247 H 27.2087 -0.397802 -1.90797 0
M  V30 248 H 26.3047 0.603061 -3.06218 0
M  V30 249 N 26.6058 1.57591 -0.0167156 0
M  V30 250 C 28.0218 1.55946 0.339557 0
M  V30 251 C 28.2218 1.02109 1.73713 0
M  V30 252 O 27.2778 0.662303 2.43659 0
M  V30 253 C 28.5908 3.00037 0.199499 0
M  V30 254 C 30.1388 3.11805 0.273193 0
M  V30 255 C 30.6138 4.57713 0.162068 0
M  V30 256 N 32.1048 4.6268 0.219444 0
M  V30 257 C 32.8398 5.73185 0.157054 0
M  V30 258 N 32.3358 6.92786 0.0442936 0
M  V30 259 N 34.1288 5.61707 0.21014 0
M  V30 260 H 26.2798 1.90921 -0.930758 0
M  V30 261 H 28.5428 0.877674 -0.358319 0
M  V30 262 H 28.2488 3.4333 -0.76273 0
M  V30 263 H 28.1228 3.64387 0.974786 0
M  V30 264 H 30.5098 2.68433 1.22587 0
M  V30 265 H 30.5908 2.50201 -0.532256 0
M  V30 266 H 30.2348 5.01763 -0.78714 0
M  V30 267 H 30.1648 5.17283 0.986222 0
M  V30 268 H 32.6558 3.76649 0.307246 0
M  V30 269 H 32.9688 7.728 0.00304069 0
M  V30 270 H 31.3138 6.94999 0.00968457 0
M  V30 271 H 34.5048 4.6716 0.296546 0
M  V30 272 H 34.6778 6.47807 0.158054 0
M  V30 273 N 28.0839 -0.256276 1.55502 0
M  V30 274 C 29.0159 -1.33981 1.85962 0
M  V30 275 C 30.0289 -1.44743 0.745212 0
M  V30 276 O 31.2179 -1.4626 1.02324 0
M  V30 277 C 28.3179 -2.7194 2.02242 0
M  V30 278 C 27.4909 -2.83562 3.33033 0
M  V30 279 C 26.5499 -4.02304 3.39172 0
M  V30 280 O 25.5759 -3.92273 4.12444 0
M  V30 281 N 26.7779 -5.15045 2.67784 0
M  V30 282 H 29.5429 -1.08191 2.7949 0
M  V30 283 H 27.1039 -0.446388 1.55624 0
M  V30 284 H 29.0959 -3.49697 2.03701 0
M  V30 285 H 27.6659 -2.90479 1.15502 0
M  V30 286 H 26.8859 -1.92555 3.43971 0
M  V30 287 H 28.1739 -2.88271 4.19258 0
M  V30 288 H 27.5719 -5.26085 2.07968 0
M  V30 289 H 26.1289 -5.90972 2.74947 0
M  V30 290 N 29.562 -1.4872 -0.521534 0
M  V30 291 C 30.492 -1.66771 -1.63431 0
M  V30 292 C 31.473 -0.516499 -1.62069 0
M  V30 293 O 32.658 -0.750013 -1.79132 0
M  V30 294 C 29.788 -1.71515 -3.01993 0
M  V30 295 C 28.742 -2.86222 -3.18216 0
M  V30 296 C 28.068 -2.76061 -4.57924 0
M  V30 297 C 29.368 -4.27419 -3.00184 0
M  V30 298 H 31.062 -2.59932 -1.48579 0
M  V30 299 H 28.608 -1.25089 -0.713358 0
M  V30 300 H 30.561 -1.82731 -3.7972 0
M  V30 301 H 29.285 -0.749393 -3.17886 0
M  V30 302 H 27.944 -2.74575 -2.42908 0
M  V30 303 H 27.592 -1.77437 -4.70665 0
M  V30 304 H 27.292 -3.53037 -4.69722 0
M  V30 305 H 28.816 -2.89256 -5.37739 0
M  V30 306 H 30.23 -4.39855 -3.67697 0
M  V30 307 H 28.627 -5.05458 -3.2347 0
M  V30 308 H 29.697 -4.43293 -1.96518 0
M  V30 309 N 31.0401 0.771051 -1.3745 0
M  V30 310 C 32.2891 1.52491 -1.3202 0
M  V30 311 C 32.6021 1.9538 0.0927347 0
M  V30 312 O 33.8081 2.70159 0.269503 0
M  V30 313 C 32.2641 2.75366 -2.31736 0
M  V30 314 C 31.8721 2.39573 -3.78562 0
M  V30 315 C 33.6161 3.53307 -2.35318 0
M  V30 316 C 31.5231 3.58954 -4.70007 0
M  V30 317 H 30.4531 0.572506 -0.490666 0
M  V30 318 H 33.1041 0.844474 -1.62914 0
M  V30 319 H 31.4861 3.45303 -1.93861 0
M  V30 320 H 32.6601 1.77415 -4.25277 0
M  V30 321 H 30.9751 1.74805 -3.77932 0
M  V30 322 H 33.5721 4.42039 -3.00842 0
M  V30 323 H 33.9151 3.93217 -1.36698 0
M  V30 324 H 34.4481 2.90367 -2.71904 0
M  V30 325 H 31.1871 3.24125 -5.69757 0
M  V30 326 H 30.7071 4.20214 -4.27996 0
M  V30 327 H 32.3861 4.25758 -4.87175 0
M  V30 328 N 32.5182 1.22032 0.997298 0
M  V30 329 C 33.4502 0.944263 2.08845 0
M  V30 330 C 34.4632 -0.0754663 1.62625 0
M  V30 331 O 35.6522 0.157994 1.77799 0
M  V30 332 C 32.7522 0.397723 3.36558 0
M  V30 333 C 31.9252 1.47362 4.11829 0
M  V30 334 C 30.9842 0.934951 5.17827 0
M  V30 335 O 30.0102 1.62016 5.45655 0
M  V30 336 N 31.2122 -0.245895 5.79979 0
M  V30 337 H 33.9772 1.88363 2.33109 0
M  V30 338 H 31.5382 1.12661 1.16272 0
M  V30 339 H 33.5302 0.0227771 4.04694 0
M  V30 340 H 32.1002 -0.446646 3.09393 0
M  V30 341 H 31.3202 2.02208 3.38386 0
M  V30 342 H 32.6082 2.19764 4.58891 0
M  V30 343 H 32.0062 -0.819475 5.59733 0
M  V30 344 H 30.5632 -0.562272 6.4937 0
M  V30 345 N 33.9963 -1.19345 1.0293 0
M  V30 346 C 34.9593 -2.20793 0.615069 0
M  V30 347 C 35.9593 -1.57553 -0.321533 0
M  V30 348 O 37.1493 -1.73862 -0.108483 0
M  V30 349 C 34.2813 -3.40754 -0.0999222 0
M  V30 350 H 35.4743 -2.58955 1.51269 0
M  V30 351 H 33.0273 -1.3303 0.820534 0
M  V30 352 H 33.7623 -3.0811 -1.01187 0
M  V30 353 H 33.5473 -3.87889 0.57309 0
M  V30 354 H 35.0373 -4.15898 -0.376645 0
M  V30 355 N 35.4744 -0.807222 -1.35358 0
M  V30 356 C 36.4374 -0.223665 -2.28106 0
M  V30 357 C 37.4374 0.589354 -1.4961 0
M  V30 358 O 38.6274 0.407745 -1.69361 0
M  V30 359 C 35.7594 0.688149 -3.33882 0
M  V30 360 H 36.9524 -1.04169 -2.81227 0
M  V30 361 H 34.5054 -0.577921 -1.45223 0
M  V30 362 H 35.2404 1.52984 -2.85948 0
M  V30 363 H 35.0254 0.10687 -3.91954 0
M  V30 364 H 36.5154 1.09075 -4.03104 0
M  V30 365 N 36.9525 1.47285 -0.560781 0
M  V30 366 C 37.8825 2.32857 0.173105 0
M  V30 367 C 38.8635 1.44009 0.905281 0
M  V30 368 O 40.0485 1.7286 0.885046 0
M  V30 369 C 37.1785 3.25861 1.20133 0
M  V30 370 C 36.1325 4.23978 0.585388 0
M  V30 371 C 35.4585 5.06332 1.7185 0
M  V30 372 C 36.7585 5.20242 -0.463178 0
M  V30 373 H 38.4525 2.94466 -0.541307 0
M  V30 374 H 35.9985 1.41601 -0.261764 0
M  V30 375 H 37.9515 3.84569 1.72293 0
M  V30 376 H 36.6755 2.62315 1.94573 0
M  V30 377 H 35.3345 3.66501 0.085054 0
M  V30 378 H 34.9825 4.39186 2.45203 0
M  V30 379 H 34.6825 5.72762 1.31213 0
M  V30 380 H 36.2065 5.67899 2.24329 0
M  V30 381 H 37.6205 5.73293 -0.027502 0
M  V30 382 H 36.0175 5.94896 -0.788627 0
M  V30 383 H 37.0875 4.65504 -1.35773 0
M  V30 384 N 38.4306 0.297415 1.54768 0
M  V30 385 C 39.3936 -0.567375 2.22066 0
M  V30 386 C 40.3936 -1.06409 1.20556 0
M  V30 387 O 41.5836 -0.960691 1.45315 0
M  V30 388 C 38.7156 -1.78517 2.90421 0
M  V30 389 H 39.9086 0.0205534 2.99893 0
M  V30 390 H 37.4616 0.0482163 1.56226 0
M  V30 391 H 38.1966 -2.41303 2.16664 0
M  V30 392 H 37.9816 -1.43669 3.64831 0
M  V30 393 H 39.4716 -2.39964 3.41771 0
M  V30 394 N 39.9087 -1.5758 0.0250728 0
M  V30 395 C 40.8387 -2.13007 -0.956575 0
M  V30 396 C 41.8197 -1.0452 -1.342 0
M  V30 397 O 43.0047 -1.32332 -1.42133 0
M  V30 398 C 40.1347 -2.65386 -2.24026 0
M  V30 399 C 39.0887 -3.78623 -1.99571 0
M  V30 400 C 38.4147 -4.17414 -3.3417 0
M  V30 401 C 39.7147 -5.04867 -1.33814 0
M  V30 402 H 41.4087 -2.9528 -0.494991 0
M  V30 403 H 38.9547 -1.42042 -0.236651 0
M  V30 404 H 40.9077 -3.02794 -2.93076 0
M  V30 405 H 39.6317 -1.80268 -2.72343 0
M  V30 406 H 38.2907 -3.41646 -1.32941 0
M  V30 407 H 37.9387 -3.29284 -3.80238 0
M  V30 408 H 37.6387 -4.93719 -3.18615 0
M  V30 409 H 39.1627 -4.57402 -4.04495 0
M  V30 410 H 40.5767 -5.39888 -1.92857 0
M  V30 411 H 38.9737 -5.86144 -1.28669 0
M  V30 412 H 40.0437 -4.83904 -0.310561 0
M  V30 413 N 41.3868 0.248026 -1.55636 0
M  V30 414 C 42.2968 1.32859 -1.93354 0
M  V30 415 C 43.3128 1.52719 -0.833838 0
M  V30 416 O 44.4888 1.66363 -1.13513 0
M  V30 417 C 41.5538 2.66337 -2.21958 0
M  V30 418 C 40.6148 2.55008 -3.45354 0
M  V30 419 C 39.8478 3.82121 -3.72584 0
M  V30 420 O 40.0708 4.83951 -3.01907 0
M  V30 421 O 39.0048 3.80822 -4.6611 0
M  V30 422 H 42.8308 1.03862 -2.85388 0
M  V30 423 H 40.4158 0.448686 -1.42503 0
M  V30 424 H 42.2978 3.45216 -2.4167 0
M  V30 425 H 40.9728 2.95068 -1.33103 0
M  V30 426 H 39.8798 1.7442 -3.30951 0
M  V30 427 H 41.2128 2.31222 -4.34508 0
M  V30 428 N 42.8649 1.48995 0.513639 0
M  V30 429 C 44.1129 1.57531 1.26604 0
M  V30 430 C 44.4339 0.258236 1.93283 0
M  V30 431 O 43.7039 -0.721502 1.8213 0
M  V30 432 H 42.2839 0.580387 0.470276 0
M  V30 433 H 44.9459 1.85552 0.596373 0
M  V30 434 H 44.0419 2.36486 2.03669 0
M  V30 435 N 44.343 -0.763751 1.37857 0
M  V30 436 C 45.589 -1.52483 1.33704 0
M  V30 437 C 45.922 -1.94051 -0.0759612 0
M  V30 438 O 45.197 -1.64675 -1.03501 0
M  V30 439 C 45.48 -2.78441 2.28348 0
M  V30 440 C 45.333 -2.43075 3.78463 0
M  V30 441 C 46.652 -3.80415 2.21298 0
M  V30 442 H 43.771 -0.553169 0.487005 0
M  V30 443 H 46.413 -0.875562 1.68624 0
M  V30 444 H 44.563 -3.33842 1.987 0
M  V30 445 H 46.235 -1.93527 4.18742 0
M  V30 446 H 44.478 -1.75666 3.96641 0
M  V30 447 H 45.149 -3.33149 4.40132 0
M  V30 448 H 47.625 -3.34527 2.47449 0
M  V30 449 H 46.501 -4.66257 2.89647 0
M  V30 450 H 46.762 -4.25262 1.20849 0
M  V30 451 N 45.8211 -1.22559 -0.990812 0
M  V30 452 C 46.7531 -0.955325 -2.08342 0
M  V30 453 C 47.7661 0.0668408 -1.62663 0
M  V30 454 O 48.9551 -0.167421 -1.77713 0
M  V30 455 C 46.0551 -0.415566 -3.36342 0
M  V30 456 C 45.2281 -1.49544 -4.11042 0
M  V30 457 C 44.2871 -0.962399 -5.17324 0
M  V30 458 O 43.3131 -1.64907 -5.44788 0
M  V30 459 N 44.5151 0.215134 -5.80101 0
M  V30 460 H 47.2801 -1.89596 -2.32106 0
M  V30 461 H 44.8411 -1.13276 -1.15673 0
M  V30 462 H 46.8331 -0.0442386 -4.04676 0
M  V30 463 H 45.4031 0.430232 -3.09625 0
M  V30 464 H 44.6231 -2.04 -3.37309 0
M  V30 465 H 45.9111 -2.22195 -4.57719 0
M  V30 466 H 45.3091 0.789779 -5.6016 0
M  V30 467 H 43.8661 0.527826 -6.49659 0
M  V30 468 N 47.2992 1.18797 -1.03562 0
M  V30 469 C 48.2292 2.24472 -0.643019 0
M  V30 470 C 49.2102 1.66433 0.351283 0
M  V30 471 O 50.3952 1.92803 0.232505 0
M  V30 472 C 47.5252 3.473 4.24935e-05 0
M  V30 473 C 46.4792 4.18055 -0.917257 0
M  V30 474 C 45.8052 5.34519 -0.138941 0
M  V30 475 C 47.1052 4.72109 -2.23407 0
M  V30 476 H 48.7992 2.57566 -1.52643 0
M  V30 477 H 46.3452 1.23806 -0.735394 0
M  V30 478 H 48.2982 4.20426 0.286383 0
M  V30 479 H 47.0222 3.13424 0.918299 0
M  V30 480 H 45.6812 3.46821 -1.1879 0
M  V30 481 H 45.3292 4.96891 0.781562 0
M  V30 482 H 45.0292 5.82794 -0.750005 0
M  V30 483 H 46.5532 6.10438 0.1405 0
M  V30 484 H 47.9672 5.36955 -2.00879 0
M  V30 485 H 46.3642 5.30897 -2.79765 0
M  V30 486 H 47.4342 3.89807 -2.88407 0
M  V30 487 N 48.7773 0.814389 1.34928 0
M  V30 488 C 50.0253 0.397636 1.9815 0
M  V30 489 C 50.3463 -1.04069 1.64908 0
M  V30 490 O 49.6163 -1.72121 0.93548 0
M  V30 491 H 48.1963 0.144043 0.732981 0
M  V30 492 H 50.8583 1.04195 1.6471 0
M  V30 493 H 49.9543 0.509688 3.0791 0
M  V30 494 N 50.2554 -1.46986 0.568584 0
M  V30 495 C 51.2184 -2.28624 -0.162366 0
M  V30 496 C 52.2184 -1.37596 -0.832103 0
M  V30 497 O 53.4084 -1.60115 -0.68622 0
M  V30 498 C 50.5404 -3.17596 -1.23878 0
M  V30 499 H 51.7334 -2.94722 0.554899 0
M  V30 500 H 49.2864 -1.52863 0.325976 0
M  V30 501 H 50.0214 -2.56214 -1.98808 0
M  V30 502 H 49.8064 -3.846 -0.763219 0
M  V30 503 H 51.2964 -3.79078 -1.75185 0
M  V30 504 N 51.7335 -0.305618 -1.54608 0
M  V30 505 C 52.6965 0.555591 -2.22364 0
M  V30 506 C 53.6965 1.05768 -1.21119 0
M  V30 507 O 54.8865 0.952972 -1.45822 0
M  V30 508 C 52.0185 1.76974 -2.91364 0
M  V30 509 H 53.2115 -0.0364572 -2.99878 0
M  V30 510 H 50.7645 -0.0565007 -1.56198 0
M  V30 511 H 51.4995 2.40151 -2.17941 0
M  V30 512 H 51.2845 1.41732 -3.65588 0
M  V30 513 H 52.7745 2.38148 -3.43038 0
M  V30 514 N 53.2116 1.57565 -0.0334293 0
M  V30 515 C 54.1416 2.13511 0.945265 0
M  V30 516 C 55.1226 1.05231 1.33643 0
M  V30 517 O 56.3076 1.33084 1.41429 0
M  V30 518 C 53.4376 2.6657 2.22616 0
M  V30 519 C 52.3916 3.79676 1.97561 0
M  V30 520 C 51.7176 4.1918 3.31952 0
M  V30 521 C 53.0176 5.0557 1.31135 0
M  V30 522 H 54.7116 2.95538 0.479325 0
M  V30 523 H 52.2576 1.42166 0.229115 0
M  V30 524 H 54.2106 3.04344 2.91466 0
M  V30 525 H 52.9346 1.8171 2.71384 0
M  V30 526 H 51.5936 3.42347 1.31127 0
M  V30 527 H 51.2416 3.31296 3.78487 0
M  V30 528 H 50.9416 4.95402 3.15992 0
M  V30 529 H 52.4656 4.59541 4.02063 0
M  V30 530 H 53.8796 5.40903 1.89992 0
M  V30 531 H 52.2766 5.86818 1.25559 0
M  V30 532 H 53.3466 4.84062 0.284894 0
M  V30 533 N 54.6897 -0.239769 1.55765 0
M  V30 534 C 55.5997 -1.31831 1.94056 0
M  V30 535 C 56.6157 -1.52275 0.841925 0
M  V30 536 O 57.7917 -1.65759 1.14394 0
M  V30 537 C 54.8567 -2.65156 2.23368 0
M  V30 538 C 53.9177 -2.53173 3.46701 0
M  V30 539 C 53.1507 -3.8014 3.74606 0
M  V30 540 O 53.3737 -4.82343 3.04469 0
M  V30 541 O 52.3077 -3.78344 4.68123 0
M  V30 542 H 56.1337 -1.02347 2.85935 0
M  V30 543 H 53.7187 -0.441123 1.42739 0
M  V30 544 H 55.6007 -3.43929 2.43497 0
M  V30 545 H 54.2757 -2.94358 1.34666 0
M  V30 546 H 53.1827 -1.72662 3.31871 0
M  V30 547 H 54.5157 -2.28915 4.35728 0
M  V30 548 N 56.1678 -1.49265 -0.50573 0
M  V30 549 C 57.5838 -1.35923 -0.836486 0
M  V30 550 C 57.7838 -0.388704 -1.97715 0
M  V30 551 O 56.8398 0.181336 -2.51848 0
M  V30 552 C 58.1528 -2.76531 -1.18115 0
M  V30 553 C 59.7008 -2.85197 -1.28964 0
M  V30 554 C 60.1758 -4.26561 -1.66761 0
M  V30 555 N 61.6668 -4.2935 -1.73819 0
M  V30 556 C 62.4018 -5.35693 -2.045 0
M  V30 557 N 61.8978 -6.52287 -2.33438 0
M  V30 558 N 63.6908 -5.23105 -2.05711 0
M  V30 559 H 55.8418 -2.10965 0.246519 0
M  V30 560 H 58.1048 -0.9468 0.0476887 0
M  V30 561 H 57.8108 -3.49226 -0.416398 0
M  V30 562 H 57.6848 -3.11599 -2.1257 0
M  V30 563 H 60.0718 -2.12742 -2.04511 0
M  V30 564 H 60.1528 -2.53718 -0.325704 0
M  V30 565 H 59.7968 -4.99541 -0.917656 0
M  V30 566 H 59.7268 -4.55502 -2.64246 0
M  V30 567 H 62.2178 -3.4526 -1.53635 0
M  V30 568 H 62.5308 -7.29158 -2.56024 0
M  V30 569 H 60.8758 -6.55521 -2.30905 0
M  V30 570 H 64.0668 -4.31026 -1.82577 0
M  V30 571 H 64.2398 -6.06078 -2.29289 0
M  V30 572 N 57.6459 0.756429 -1.3826 0
M  V30 573 C 58.5559 1.9009 -1.37488 0
M  V30 574 C 59.5719 1.71855 -0.272366 0
M  V30 575 O 60.7479 1.94827 -0.510318 0
M  V30 576 C 57.8129 3.25421 -1.19592 0
M  V30 577 C 56.8739 3.56202 -2.39622 0
M  V30 578 C 56.1069 4.85075 -2.2257 0
M  V30 579 O 56.3299 5.57246 -1.21793 0
M  V30 580 O 55.2639 5.15269 -3.11098 0
M  V30 581 H 59.0899 1.93695 -2.33914 0
M  V30 582 H 56.6749 0.901313 -1.1915 0
M  V30 583 H 58.5569 4.06337 -1.11661 0
M  V30 584 H 57.2319 3.22634 -0.262486 0
M  V30 585 H 56.1389 2.75458 -2.53128 0
M  V30 586 H 57.4719 3.63747 -3.31586 0
M  V30 587 N 59.124 1.23083 0.984299 0
M  V30 588 C 60.372 1.05848 1.72165 0
M  V30 589 C 60.693 -0.406049 1.90726 0
M  V30 590 O 59.963 -1.29139 1.47309 0
M  V30 591 H 58.543 0.388685 0.637913 0
M  V30 592 H 61.205 1.54736 1.18503 0
M  V30 593 H 60.301 1.54327 2.71274 0
M  V30 594 N 60.6021 -1.18246 1.0419 0
M  V30 595 C 61.8271 -1.92736 0.765996 0
M  V30 596 C 62.2521 -1.75728 -0.67091 0
M  V30 597 O 61.6101 -1.06825 -1.46486 0
M  V30 598 C 61.6581 -3.42148 1.13875 0
M  V30 599 O 60.7621 -4.11548 0.264954 0
M  V30 600 H 60.1031 -0.601238 0.281797 0
M  V30 601 H 62.6331 -1.49942 1.39207 0
M  V30 602 H 62.6431 -3.92858 1.1012 0
M  V30 603 H 61.3181 -3.53848 2.18551 0
M  V30 604 H 59.8951 -3.71137 0.362226 0
M  V30 605 N 62.0802 -0.821533 -1.34494 0
M  V30 606 C 63.3052 -0.420873 -2.03085 0
M  V30 607 C 63.7302 0.964915 -1.61465 0
M  V30 608 O 63.0882 1.62763 -0.798607 0
M  V30 609 C 63.1362 -0.529414 -3.56693 0
M  V30 610 O 62.2402 0.451302 -4.09923 0
M  V30 611 H 61.5812 -0.173489 -0.640935 0
M  V30 612 H 64.1112 -1.11157 -1.71771 0
M  V30 613 H 64.1212 -0.404671 -4.05988 0
M  V30 614 H 62.7962 -1.54014 -3.86332 0
M  V30 615 H 61.3732 0.285558 -3.71805 0
M  V30 616 N 63.5583 1.46682 -0.576371 0
M  V30 617 C 64.4883 2.33028 0.148397 0
M  V30 618 C 65.4693 1.44961 0.889956 0
M  V30 619 O 66.6543 1.73789 0.866662 0
M  V30 620 C 63.7843 3.27117 1.1667 0
M  V30 621 C 62.7383 4.24575 0.540386 0
M  V30 622 C 62.0643 5.08126 1.6647 0
M  V30 623 C 63.3643 5.19722 -0.518331 0
M  V30 624 H 65.0583 2.93875 -0.572509 0
M  V30 625 H 62.6043 1.41315 -0.276768 0
M  V30 626 H 64.5573 3.86374 1.68204 0
M  V30 627 H 63.2813 2.64364 1.9178 0
M  V30 628 H 61.9403 3.66571 0.0461769 0
M  V30 629 H 61.5883 4.41762 2.40531 0
M  V30 630 H 61.2883 5.74122 1.25131 0
M  V30 631 H 62.8123 5.70246 2.18293 0
M  V30 632 H 64.2263 5.73232 -0.0883058 0
M  V30 633 H 62.6233 5.94026 -0.851679 0
M  V30 634 H 63.6933 4.64037 -1.40703 0
M  V30 635 N 65.0364 0.313813 1.54444 0
M  V30 636 C 65.9664 -0.549454 2.26943 0
M  V30 637 C 66.9474 -1.12741 1.27372 0
M  V30 638 O 68.1324 -1.15436 1.56167 0
M  V30 639 C 65.2624 -1.71523 3.01989 0
M  V30 640 C 64.2164 -1.26703 4.08816 0
M  V30 641 C 63.5424 -2.51898 4.71647 0
M  V30 642 C 64.8424 -0.388962 5.2085 0
M  V30 643 H 66.5364 0.0552661 2.99349 0
M  V30 644 H 64.0824 0.0280207 1.43973 0
M  V30 645 H 66.0354 -2.32535 3.51433 0
M  V30 646 H 64.7594 -2.34639 2.27183 0
M  V30 647 H 63.4184 -0.679896 3.6024 0
M  V30 648 H 63.0664 -3.13356 3.93468 0
M  V30 649 H 62.7664 -2.22605 5.43802 0
M  V30 650 H 64.2904 -3.1369 5.23861 0
M  V30 651 H 65.7044 -0.905107 5.6611 0
M  V30 652 H 64.1014 -0.18924 5.99802 0
M  V30 653 H 65.1714 0.582699 4.81386 0
M  V30 654 N 66.5145 -1.57545 0.0417849 0
M  V30 655 C 67.7625 -1.91937 -0.632829 0
M  V30 656 C 68.0835 -0.919978 -1.71934 0
M  V30 657 O 67.3535 0.0366064 -1.95866 0
M  V30 658 H 65.9335 -0.708493 -0.236742 0
M  V30 659 H 68.5955 -1.9468 0.0925745 0
M  V30 660 H 67.6915 -2.92912 -1.07746 0
M  V30 661 N 67.9926 0.231505 -1.5589 0
M  V30 662 C 69.2176 0.978689 -1.82856 0
M  V30 663 C 69.6426 1.77559 -0.620846 0
M  V30 664 O 69.0006 1.76119 0.430305 0
M  V30 665 C 69.0486 1.87997 -3.07716 0
M  V30 666 O 68.1526 2.97393 -2.85712 0
M  V30 667 H 67.4936 0.277663 -0.603158 0
M  V30 668 H 70.0236 0.24783 -2.03093 0
M  V30 669 H 70.0336 2.2917 -3.37558 0
M  V30 670 H 68.7086 1.29417 -3.95252 0
M  V30 671 H 67.2856 2.60238 -2.67078 0
M  V30 672 N 69.4707 1.49531 0.497807 0
M  V30 673 C 70.7477 1.49682 1.25915 0
M  V30 674 C 71.1277 0.226339 2.09883 0
M  V30 675 O 70.4757 -0.791189 2.14365 0
M  V30 676 C 70.6857 2.77755 2.11313 0
M  V30 677 C 72.0337 3.27371 2.70395 0
M  V30 678 O 73.0577 2.78894 2.21578 0
M  V30 679 O 71.9167 4.11808 3.59272 0
M  V30 680 H 69.0107 0.599228 0.56996 0
M  V30 681 H 71.5567 1.61798 0.511816 0
M  V30 682 H 70.3287 3.61713 1.49264 0
M  V30 683 H 69.9517 2.68515 2.93233 0
M  V30 684 N 70.9488 -0.749086 1.3866 0
M  V30 685 C 71.9118 -1.84457 1.36045 0
M  V30 686 C 72.9118 -1.58682 0.260122 0
M  V30 687 O 74.1018 -1.66343 0.517261 0
M  V30 688 C 71.2338 -3.22008 1.11911 0
M  V30 689 H 72.4268 -1.88182 2.33512 0
M  V30 690 H 69.9798 -0.951266 1.24019 0
M  V30 691 H 70.7148 -3.2395 0.150686 0
M  V30 692 H 70.4998 -3.42111 1.91579 0
M  V30 693 H 71.9898 -4.0208 1.12788 0
M  V30 694 N 72.4269 -1.23603 -0.977757 0
M  V30 695 C 73.6749 -1.06759 -1.71601 0
M  V30 696 C 73.9959 0.395929 -1.90938 0
M  V30 697 O 73.2659 1.28356 -1.47992 0
M  V30 698 H 71.8459 -0.392062 -0.635843 0
M  V30 699 H 74.5079 -1.55362 -1.1768 0
M  V30 700 H 73.6039 -1.55763 -2.70452 0
M  V30 701 N 73.905 1.17692 -1.04816 0
M  V30 702 C 74.815 2.25229 -0.65643 0
M  V30 703 C 75.831 1.71018 0.320761 0
M  V30 704 O 77.007 2.00649 0.173805 0
M  V30 705 C 74.072 3.46684 -0.0332629 0
M  V30 706 C 73.133 4.15997 -1.06042 0
M  V30 707 C 72.366 5.31654 -0.466893 0
M  V30 708 O 72.589 5.65777 0.724758 0
M  V30 709 O 71.523 5.89831 -1.1993 0
M  V30 710 H 75.349 2.61016 -1.55255 0
M  V30 711 H 72.934 1.24919 -0.81949 0
M  V30 712 H 74.816 4.20234 0.313256 0
M  V30 713 H 73.491 3.12703 0.836566 0
M  V30 714 H 72.398 3.44482 -1.45886 0
M  V30 715 H 73.731 4.53996 -1.90127 0
M  V30 716 N 75.3831 0.828654 1.34056 0
M  V30 717 C 76.3131 0.269443 2.3194 0
M  V30 718 C 77.2941 -0.617247 1.58506 0
M  V30 719 O 78.4791 -0.542931 1.86456 0
M  V30 720 C 75.6091 -0.564793 3.42677 0
M  V30 721 C 74.5631 0.225241 4.27407 0
M  V30 722 C 73.8891 -0.7321 5.29664 0
M  V30 723 C 75.1891 1.43663 5.02154 0
M  V30 724 H 76.8831 1.08728 2.7896 0
M  V30 725 H 74.4291 0.524283 1.34117 0
M  V30 726 H 76.3821 -0.966233 4.10173 0
M  V30 727 H 75.1061 -1.41574 2.9432 0
M  V30 728 H 73.7651 0.608117 3.61521 0
M  V30 729 H 73.4131 -1.57916 4.77568 0
M  V30 730 H 73.1131 -0.20767 5.87233 0
M  V30 731 H 74.6371 -1.13128 6.00029 0
M  V30 732 H 76.0511 1.1089 5.62473 0
M  V30 733 H 74.4481 1.89711 5.69324 0
M  V30 734 H 75.5181 2.21181 4.31517 0
M  V30 735 N 76.8612 -1.46375 0.584142 0
M  V30 736 C 77.8242 -2.28784 -0.138108 0
M  V30 737 C 78.8242 -1.38471 -0.817462 0
M  V30 738 O 80.0142 -1.60833 -0.669199 0
M  V30 739 C 77.1462 -3.18892 -1.20503 0
M  V30 740 H 78.3392 -2.94117 0.586127 0
M  V30 741 H 75.8922 -1.52509 0.342171 0
M  V30 742 H 76.6272 -2.58309 -1.96079 0
M  V30 743 H 76.4122 -3.85388 -0.722384 0
M  V30 744 H 77.9022 -3.80914 -1.71155 0
M  V30 745 N 78.3393 -0.321999 -1.54275 0
M  V30 746 C 79.5873 0.280489 -2.00144 0
M  V30 747 C 79.9083 1.52777 -1.21178 0
M  V30 748 O 79.1783 1.9338 -0.313187 0
M  V30 749 H 77.7583 0.106632 -0.73935 0
M  V30 750 H 80.4203 -0.438184 -1.8991 0
M  V30 751 H 79.5163 0.537972 -3.07428 0
M  V30 752 N 79.8174 1.5752 -0.0501392 0
M  V30 753 C 80.7804 2.1037 0.909786 0
M  V30 754 C 81.7804 1.02308 1.24056 0
M  V30 755 O 82.9704 1.28385 1.17741 0
M  V30 756 C 80.1024 2.58708 2.21998 0
M  V30 757 H 81.2954 2.96479 0.451665 0
M  V30 758 H 78.8484 1.55038 0.198248 0
M  V30 759 H 79.5834 1.75989 2.72394 0
M  V30 760 H 79.3684 3.37675 1.99295 0
M  V30 761 H 80.8584 2.99747 2.9076 0
M  V30 762 N 81.2955 -0.223234 1.56011 0
M  V30 763 C 82.5435 -0.946003 1.78592 0
M  V30 764 C 82.8645 -1.84936 0.618349 0
M  V30 765 O 82.1345 -1.92473 -0.364833 0
M  V30 766 H 80.7145 -0.352298 0.658707 0
M  V30 767 H 83.3765 -0.235494 1.93472 0
M  V30 768 H 82.4725 -1.55381 2.70672 0
M  V30 769 N 82.7736 -1.49793 -0.48987 0
M  V30 770 C 83.7206 -1.67281 -1.59014 0
M  V30 771 C 84.6906 -0.514177 -1.57941 0
M  V30 772 O 85.8756 -0.742533 -1.75759 0
M  V30 773 C 83.0156 -1.75569 -2.97102 0
M  V30 774 C 82.1286 -3.0281 -3.08107 0
M  V30 775 C 81.2636 -3.02008 -4.36995 0
M  V30 776 C 80.3026 -4.23782 -4.41673 0
M  V30 777 N 79.4396 -4.20826 -5.62005 0
M  V30 778 H 84.2796 -2.61224 -1.43409 0
M  V30 779 H 81.8166 -1.29508 -0.697565 0
M  V30 780 H 83.7746 -1.78354 -3.77155 0
M  V30 781 H 82.4046 -0.850827 -3.11385 0
M  V30 782 H 81.4566 -3.09584 -2.21047 0
M  V30 783 H 82.7686 -3.92801 -3.07423 0
M  V30 784 H 81.9226 -3.03418 -5.25378 0
M  V30 785 H 80.6616 -2.09815 -4.4026 0
M  V30 786 H 79.6666 -4.22604 -3.5169 0
M  V30 787 H 80.8916 -5.17181 -4.40115 0
M  V30 788 H 78.8376 -3.31476 -5.66091 0
M  V30 789 H 78.7546 -5.04564 -5.62984 0
M  V30 790 H 80.0226 -4.26355 -6.52565 0
M  V30 791 N 84.2517 0.741722 -1.39055 0
M  V30 792 C 85.4797 1.53098 -1.39171 0
M  V30 793 C 85.8947 1.88794 0.0155099 0
M  V30 794 O 85.2517 1.53626 0.985159 0
M  V30 795 C 85.3027 2.82274 -2.2584 0
M  V30 796 O 85.0237 2.48097 -3.61081 0
M  V30 797 C 86.5247 3.76343 -2.34266 0
M  V30 798 H 83.7447 0.473335 -0.4756 0
M  V30 799 H 86.2887 0.917045 -1.82785 0
M  V30 800 H 84.4437 3.40015 -1.85656 0
M  V30 801 H 84.8577 3.31029 -4.06842 0
M  V30 802 H 86.3317 4.63898 -2.9917 0
M  V30 803 H 86.8087 4.17619 -1.35982 0
M  V30 804 H 87.4147 3.24523 -2.74891 0
M  V30 805 N 85.7298 1.2412 0.971189 0
M  V30 806 C 86.9778 1.07668 1.71032 0
M  V30 807 C 87.2988 -0.385797 1.91146 0
M  V30 808 O 86.5688 -1.27569 1.4867 0
M  V30 809 H 85.1488 0.395429 0.633755 0
M  V30 810 H 87.8108 1.55984 1.16855 0
M  V30 811 H 86.9068 1.57195 2.69622 0
M  V30 812 N 87.2079 -1.17134 1.05439 0
M  V30 813 C 88.4539 -1.87733 0.767077 0
M  V30 814 C 88.7869 -1.8098 -0.704253 0
M  V30 815 O 88.0619 -1.21951 -1.5152 0
M  V30 816 C 88.3449 -3.37659 1.25133 0
M  V30 817 C 88.1979 -3.53149 2.78578 0
M  V30 818 C 89.5169 -4.31768 0.852324 0
M  V30 819 H 86.6359 -0.681687 0.280129 0
M  V30 820 H 89.2779 -1.37732 1.30881 0
M  V30 821 H 87.4279 -3.80373 0.790469 0
M  V30 822 H 89.0999 -3.19434 3.32806 0
M  V30 823 H 87.3429 -2.95345 3.17732 0
M  V30 824 H 88.0139 -4.58403 3.07523 0
M  V30 825 H 90.4899 -3.96909 1.24911 0
M  V30 826 H 89.3659 -5.35199 1.21873 0
M  V30 827 H 89.6269 -4.41429 -0.243485 0
M  V30 828 N 88.686 -0.835752 -1.33615 0
M  V30 829 C 89.914 -0.443344 -2.02094 0
M  V30 830 C 90.329 0.954522 -1.62894 0
M  V30 831 O 89.686 1.61982 -0.840723 0
M  V30 832 C 89.737 -0.550775 -3.5728 0
M  V30 833 O 89.458 -1.89356 -3.95065 0
M  V30 834 C 90.959 -0.154919 -4.43029 0
M  V30 835 H 88.179 -0.176359 -0.647409 0
M  V30 836 H 90.723 -1.12746 -1.70612 0
M  V30 837 H 88.878 0.0853997 -3.87306 0
M  V30 838 H 89.292 -1.87687 -4.89769 0
M  V30 839 H 90.766 -0.281144 -5.51284 0
M  V30 840 H 91.243 0.902863 -4.2982 0
M  V30 841 H 91.849 -0.765404 -4.18356 0
M  V30 842 N 90.1641 1.46063 -0.591896 0
M  V30 843 C 91.4101 2.02638 -0.0811191 0
M  V30 844 C 91.7431 1.4613 1.27905 0
M  V30 845 O 91.0181 0.629908 1.84017 0
M  V30 846 C 91.3011 3.60091 -0.0252436 0
M  V30 847 C 91.1541 4.26965 -1.41496 0
M  V30 848 C 92.4731 4.3496 0.670685 0
M  V30 849 H 89.5921 0.73635 -0.0309524 0
M  V30 850 H 92.2341 1.741 -0.760859 0
M  V30 851 H 90.3841 3.84535 0.553624 0
M  V30 852 H 92.0561 4.13756 -2.0397 0
M  V30 853 H 90.2991 3.85971 -1.98011 0
M  V30 854 H 90.9701 5.35781 -1.32825 0
M  V30 855 H 93.4461 4.15716 0.178825 0
M  V30 856 H 92.3221 5.44686 0.678837 0
M  V30 857 H 92.5831 4.06685 1.73379 0
M  V30 858 N 91.6422 0.330177 1.54103 0
M  V30 859 C 92.5742 -0.566902 2.22079 0
M  V30 860 C 93.5872 -1.07462 1.22294 0
M  V30 861 O 94.7762 -0.987065 1.48726 0
M  V30 862 C 91.8762 -1.79138 2.87685 0
M  V30 863 C 91.0492 -1.42123 4.13666 0
M  V30 864 C 90.1082 -2.50394 4.62806 0
M  V30 865 O 89.1342 -2.14261 5.27334 0
M  V30 866 N 90.3362 -3.81433 4.37595 0
M  V30 867 H 93.1012 0.0151844 2.99696 0
M  V30 868 H 90.6622 0.153681 1.61169 0
M  V30 869 H 92.6542 -2.50975 3.1748 0
M  V30 870 H 91.2242 -2.28115 2.13734 0
M  V30 871 H 90.4442 -0.534201 3.90564 0
M  V30 872 H 91.7322 -1.14971 4.9564 0
M  V30 873 H 91.1302 -4.13584 3.8596 0
M  V30 874 H 89.6872 -4.4948 4.72029 0
M  V30 875 N 93.1203 -1.57491 0.0584922 0
M  V30 876 C 94.3453 -1.97711 -0.62652 0
M  V30 877 C 94.7703 -0.936132 -1.63151 0
M  V30 878 O 94.1283 0.099811 -1.81025 0
M  V30 879 C 94.1763 -3.36989 -1.28338 0
M  V30 880 O 93.2803 -3.35433 -2.39913 0
M  V30 881 H 92.6213 -0.643868 -0.162266 0
M  V30 882 H 95.1513 -2.04193 0.129064 0
M  V30 883 H 95.1613 -3.73879 -1.63335 0
M  V30 884 H 93.8363 -4.12289 -0.546889 0
M  V30 885 H 92.4133 -3.10298 -2.06809 0
M  V30 886 N 94.5984 0.214957 -1.56127 0
M  V30 887 C 95.8234 0.95924 -1.83884 0
M  V30 888 C 96.2484 1.7689 -0.639644 0
M  V30 889 O 95.6064 1.76566 0.411601 0
M  V30 890 C 95.6544 1.84723 -3.09693 0
M  V30 891 O 94.7584 2.94346 -2.8885 0
M  V30 892 H 94.0994 0.27125 -0.606069 0
M  V30 893 H 96.6294 0.226276 -2.03345 0
M  V30 894 H 96.6394 2.25576 -3.39969 0
M  V30 895 H 95.3144 1.25218 -3.96602 0
M  V30 896 H 93.8914 2.57391 -2.69823 0
M  V30 897 N 96.0765 1.50051 0.48192 0
M  V30 898 C 97.0065 1.71046 1.58951 0
M  V30 899 C 97.9875 0.559288 1.60642 0
M  V30 900 O 99.1725 0.797243 1.77081 0
M  V30 901 C 96.3025 1.79462 2.97339 0
M  V30 902 C 95.2565 2.94558 3.10515 0
M  V30 903 C 94.5825 2.88105 4.50444 0
M  V30 904 C 95.8825 4.35227 2.88747 0
M  V30 905 H 97.5765 2.6378 1.41635 0
M  V30 906 H 95.1225 1.26936 0.679942 0
M  V30 907 H 97.0755 1.92734 3.74742 0
M  V30 908 H 95.7995 0.833412 3.15788 0
M  V30 909 H 94.4585 2.80918 2.35543 0
M  V30 910 H 94.1065 1.89853 4.65795 0
M  V30 911 H 93.8065 3.65366 4.60197 0
M  V30 912 H 95.3305 3.03412 5.29881 0
M  V30 913 H 96.7445 4.49449 3.55905 0
M  V30 914 H 95.1415 5.13856 3.09955 0
M  V30 915 H 96.2115 4.48347 1.84696 0
M  V30 916 N 97.5546 -0.734337 1.39446 0
M  V30 917 C 98.8316 -1.48579 1.27215 0
M  V30 918 C 99.2116 -2.1077 -0.117968 0
M  V30 919 O 98.5596 -1.98646 -1.12924 0
M  V30 920 C 98.7696 -2.53667 2.39696 0
M  V30 921 C 100.118 -3.20031 2.79044 0
M  V30 922 O 101.142 -2.6398 2.39151 0
M  V30 923 O 100.001 -4.21455 3.47905 0
M  V30 924 H 97.0946 -0.659816 0.49857 0
M  V30 925 H 99.6406 -0.768106 1.51322 0
M  V30 926 H 98.4126 -2.06096 3.32626 0
M  V30 927 H 98.0356 -3.32994 2.17258 0
M  V30 928 N 99.0327 -1.24633 -0.964593 0
M  V30 929 C 99.9957 -1.0424 -2.04124 0
M  V30 930 C 100.996 0.00137563 -1.608 0
M  V30 931 O 102.186 -0.239883 -1.7254 0
M  V30 932 C 99.3177 -0.580588 -3.3592 0
M  V30 933 H 100.511 -1.99803 -2.23649 0
M  V30 934 H 98.0637 -1.06899 -1.14027 0
M  V30 935 H 98.7987 0.3781 -3.22088 0
M  V30 936 H 98.5837 -1.33398 -3.6871 0
M  V30 937 H 100.074 -0.459034 -4.15069 0
M  V30 938 N 100.511 1.16574 -1.06058 0
M  V30 939 C 101.757 1.87324 -0.777022 0
M  V30 940 C 102.09 1.81351 0.694645 0
M  V30 941 O 101.365 1.22753 1.50871 0
M  V30 942 C 101.648 3.36991 -1.26922 0
M  V30 943 C 101.501 3.51667 -2.80447 0
M  V30 944 C 102.82 4.3131 -0.87521 0
M  V30 945 H 99.9388 0.680191 -0.28374 0
M  V30 946 H 102.581 1.37036 -1.3161 0
M  V30 947 H 100.731 3.79949 -0.81063 0
M  V30 948 H 102.403 3.17664 -3.34495 0
M  V30 949 H 100.646 2.93656 -3.19294 0
M  V30 950 H 101.317 4.56766 -3.0995 0
M  V30 951 H 103.793 3.9624 -1.27014 0
M  V30 952 H 102.669 5.34545 -1.2471 0
M  V30 953 H 102.93 4.41552 0.220071 0
M  V30 954 N 101.989 0.842826 1.3317 0
M  V30 955 C 102.936 0.276885 2.29133 0
M  V30 956 C 103.906 -0.609527 1.54512 0
M  V30 957 O 105.091 -0.546955 1.82792 0
M  V30 958 C 102.231 -0.538707 3.40869 0
M  V30 959 C 101.344 0.372169 4.30394 0
M  V30 960 C 100.479 -0.454908 5.29249 0
M  V30 961 C 99.5179 0.45411 6.10413 0
M  V30 962 N 98.6549 -0.335075 7.013 0
M  V30 963 H 103.495 1.10052 2.76934 0
M  V30 964 H 101.032 0.554161 1.36262 0
M  V30 965 H 102.99 -1.02709 4.0436 0
M  V30 966 H 101.62 -1.32727 2.9425 0
M  V30 967 H 100.672 0.97888 3.6759 0
M  V30 968 H 101.984 1.0703 4.87182 0
M  V30 969 H 101.138 -1.00695 5.98285 0
M  V30 970 H 99.8769 -1.18646 4.73048 0
M  V30 971 H 98.8819 1.01813 5.40291 0
M  V30 972 H 100.107 1.18409 6.68697 0
M  V30 973 H 98.0529 -1.04994 6.47543 0
M  V30 974 H 97.9699 0.304262 7.55387 0
M  V30 975 H 99.2379 -0.869224 7.74638 0
M  V30 976 N 103.467 -1.45747 0.599634 0
M  V30 977 C 104.744 -1.95585 0.0240846 0
M  V30 978 C 105.124 -1.54217 -1.44154 0
M  V30 979 O 104.472 -0.800903 -2.14004 0
M  V30 980 C 104.682 -3.48344 0.21385 0
M  V30 981 C 106.03 -4.24504 0.0904902 0
M  V30 982 O 107.054 -3.55911 0.143558 0
M  V30 983 O 105.913 -5.46491 -0.0310766 0
M  V30 984 H 103.007 -0.82602 -0.0402478 0
M  V30 985 H 105.553 -1.55951 0.669139 0
M  V30 986 H 104.325 -3.71397 1.23206 0
M  V30 987 H 103.948 -3.9485 -0.466842 0
M  V30 988 N 104.945 -0.338344 -1.53925 0
M  V30 989 C 106.222 0.314774 -1.93051 0
M  V30 990 C 106.602 1.68669 -1.26941 0
M  V30 991 O 105.95 2.24636 -0.418445 0
M  V30 992 C 106.16 0.392249 -3.46789 0
M  V30 993 C 107.508 0.645554 -4.19664 0
M  V30 994 O 108.532 0.474575 -3.53024 0
M  V30 995 O 107.391 0.976408 -5.37707 0
M  V30 996 H 104.485 0.182598 -0.80659 0
M  V30 997 H 107.031 -0.389141 -1.65178 0
M  V30 998 H 105.803 -0.570702 -3.87116 0
M  V30 999 H 105.426 1.14316 -3.80812 0
M  V30 1000 N 106.423 1.57458 -0.0668435 0
M  V30 1001 C 107.67 1.93301 0.603406 0
M  V30 1002 C 107.998 0.946486 1.69917 0
M  V30 1003 O 107.253 -0.0387021 1.95662 0
M  V30 1004 C 107.552 3.35784 1.22409 0
M  V30 1005 C 107.218 4.50179 0.254955 0
M  V30 1006 C 105.88 4.81199 -0.0116746 0
M  V30 1007 C 108.232 5.19598 -0.408338 0
M  V30 1008 C 105.56 5.78978 -0.94877 0
M  V30 1009 C 107.912 6.18381 -1.33372 0
M  V30 1010 C 106.576 6.47821 -1.60887 0
M  V30 1011 H 105.846 0.707338 0.220802 0
M  V30 1012 H 108.493 1.91012 -0.136665 0
M  V30 1013 H 106.798 3.34515 2.03978 0
M  V30 1014 H 108.495 3.60804 1.74989 0
M  V30 1015 H 105.085 4.25983 0.472954 0
M  V30 1016 H 109.269 4.95832 -0.215456 0
M  V30 1017 H 104.525 6.00115 -1.16925 0
M  V30 1018 H 108.699 6.71277 -1.85367 0
M  V30 1019 H 106.326 7.23399 -2.33661 0
M  V30 1020 N 107.901 -0.206675 1.56239 0
M  V30 1021 C 109.178 -0.954051 1.70755 0
M  V30 1022 C 109.558 -2.01841 0.618353 0
M  V30 1023 O 108.906 -2.25444 -0.372434 0
M  V30 1024 C 109.116 -1.551 3.12642 0
M  V30 1025 C 110.464 -2.03757 3.72516 0
M  V30 1026 O 111.488 -1.64965 3.15698 0
M  V30 1027 O 110.347 -2.75103 4.72208 0
M  V30 1028 H 107.441 -0.446636 0.696021 0
M  V30 1029 H 109.987 -0.197283 1.68549 0
M  V30 1030 H 108.759 -0.783212 3.83382 0
M  V30 1031 H 108.382 -2.37291 3.19028 0
M  V30 1032 N 109.379 -1.50304 -0.473955 0
M  V30 1033 C 110.625 -1.61389 -1.22806 0
M  V30 1034 C 110.958 -0.311955 -1.91678 0
M  V30 1035 O 110.233 0.686384 -1.81986 0
M  V30 1036 C 110.516 -2.79219 -2.27396 0
M  V30 1037 C 110.369 -4.19286 -1.62848 0
M  V30 1038 C 111.688 -2.92614 -3.28732 0
M  V30 1039 H 108.807 -0.587399 -0.445119 0
M  V30 1040 H 111.449 -1.82681 -0.522265 0
M  V30 1041 H 109.599 -2.61195 -2.87592 0
M  V30 1042 H 111.271 -4.48892 -1.06271 0
M  V30 1043 H 109.514 -4.23677 -0.931693 0
M  V30 1044 H 110.185 -4.97655 -2.38838 0
M  V30 1045 H 112.661 -3.09105 -2.78556 0
M  V30 1046 H 111.537 -3.76688 -3.99246 0
M  V30 1047 H 111.798 -2.03107 -3.92683 0
M  V30 1048 N 110.857 0.726932 -1.39834 0
M  V30 1049 C 112.104 1.48664 -1.37496 0
M  V30 1050 C 112.432 1.94482 0.0264678 0
M  V30 1051 O 111.687 1.67692 1.00886 0
M  V30 1052 C 111.986 2.73495 -2.30077 0
M  V30 1053 C 111.652 2.46502 -3.77555 0
M  V30 1054 C 110.314 2.3885 -4.17737 0
M  V30 1055 C 112.666 2.23604 -4.70798 0
M  V30 1056 C 109.994 2.06352 -5.49214 0
M  V30 1057 C 112.346 1.92622 -6.02561 0
M  V30 1058 C 111.01 1.83444 -6.41798 0
M  V30 1059 H 110.28 0.544001 -0.503135 0
M  V30 1060 H 112.927 0.833657 -1.72402 0
M  V30 1061 H 111.232 3.43575 -1.88317 0
M  V30 1062 H 112.929 3.31549 -2.25558 0
M  V30 1063 H 109.519 2.5334 -3.45712 0
M  V30 1064 H 113.703 2.28479 -4.40581 0
M  V30 1065 H 108.959 1.97776 -5.78528 0
M  V30 1066 H 113.133 1.73914 -6.74334 0
M  V30 1067 H 110.76 1.58029 -7.43593 0
M  V30 1068 N 112.336 1.25143 0.95797 0
M  V30 1069 C 113.585 1.0909 1.69654 0
M  V30 1070 C 113.898 -0.368548 1.92097 0
M  V30 1071 O 115.104 -0.649455 2.63618 0
M  V30 1072 C 113.56 1.90395 3.05414 0
M  V30 1073 C 113.168 3.4081 2.90779 0
M  V30 1074 C 114.912 1.82901 3.83076 0
M  V30 1075 C 112.819 4.14423 4.21909 0
M  V30 1076 H 111.749 0.404625 0.636235 0
M  V30 1077 H 114.4 1.4931 1.06672 0
M  V30 1078 H 112.782 1.42996 3.69281 0
M  V30 1079 H 113.956 3.95859 2.35865 0
M  V30 1080 H 112.271 3.49361 2.26575 0
M  V30 1081 H 114.868 2.35196 4.80195 0
M  V30 1082 H 115.211 0.796224 4.08615 0
M  V30 1083 H 115.744 2.28033 3.25954 0
M  V30 1084 H 112.483 5.18102 4.01561 0
M  V30 1085 H 112.003 3.64159 4.76601 0
M  V30 1086 H 113.682 4.21956 4.90471 0
M  V30 1087 N 113.814 -1.1601 1.06675 0
M  V30 1088 C 115.091 -1.82679 0.699114 0
M  V30 1089 C 115.471 -1.94559 -0.819137 0
M  V30 1090 O 114.819 -1.49169 -1.73092 0
M  V30 1091 C 115.029 -3.19445 1.40555 0
M  V30 1092 C 116.377 -3.95171 1.55323 0
M  V30 1093 O 117.401 -3.28976 1.36577 0
M  V30 1094 O 116.26 -5.13833 1.86112 0
M  V30 1095 H 113.354 -0.788954 0.247951 0
M  V30 1096 H 115.9 -1.23179 1.16726 0
M  V30 1097 H 114.672 -3.05856 2.44065 0
M  V30 1098 H 114.295 -3.86625 0.927733 0
M  V30 1099 N 115.292 -0.849877 -1.32721 0
M  V30 1100 C 116.539 -0.450923 -1.97416 0
M  V30 1101 C 116.867 0.992376 -1.67279 0
M  V30 1102 O 116.122 1.71048 -0.950845 0
M  V30 1103 C 116.421 -0.631272 -3.51781 0
M  V30 1104 C 116.087 -2.04432 -4.01894 0
M  V30 1105 C 114.749 -2.4308 -4.1529 0
M  V30 1106 C 117.101 -2.96679 -4.28522 0
M  V30 1107 C 114.429 -3.73257 -4.52654 0
M  V30 1108 C 116.781 -4.26349 -4.67343 0
M  V30 1109 C 115.445 -4.64939 -4.78945 0
M  V30 1110 H 114.715 -0.165004 -0.722395 0
M  V30 1111 H 117.362 -1.07901 -1.58207 0
M  V30 1112 H 115.667 0.0800767 -3.91718 0
M  V30 1113 H 117.364 -0.302709 -3.99856 0
M  V30 1114 H 113.954 -1.73419 -3.91949 0
M  V30 1115 H 118.138 -2.68054 -4.17685 0
M  V30 1116 H 113.394 -4.02946 -4.59831 0
M  V30 1117 H 117.568 -4.97895 -4.86902 0
M  V30 1118 H 115.195 -5.65855 -5.07654 0
M  V30 1119 N 116.77 1.45427 -0.607355 0
M  V30 1120 C 117.998 2.06614 -0.108814 0
M  V30 1121 C 118.413 1.45204 1.2067 0
M  V30 1122 O 117.77 0.566132 1.73497 0
M  V30 1123 C 117.821 3.61481 0.0375347 0
M  V30 1124 O 117.542 4.20598 -1.22593 0
M  V30 1125 C 119.043 4.39652 0.567561 0
M  V30 1126 H 116.263 0.66747 -0.0687351 0
M  V30 1127 H 118.807 1.86675 -0.835022 0
M  V30 1128 H 116.962 3.80762 0.714068 0
M  V30 1129 H 117.376 5.1377 -1.05547 0
M  V30 1130 H 118.85 5.48518 0.61905 0
M  V30 1131 H 119.327 4.09417 1.58978 0
M  V30 1132 H 119.933 4.25234 -0.0749202 0
M  V30 1133 N 118.248 0.346503 1.53744 0
M  V30 1134 C 119.664 -0.00530975 1.59599 0
M  V30 1135 C 119.864 -1.48465 1.36236 0
M  V30 1136 O 118.92 -2.24376 1.15808 0
M  V30 1137 C 120.233 0.433516 2.97559 0
M  V30 1138 C 121.781 0.386111 3.10609 0
M  V30 1139 C 122.256 0.800451 4.50951 0
M  V30 1140 N 123.747 0.754753 4.5701 0
M  V30 1141 C 124.482 1.04727 5.63755 0
M  V30 1142 N 123.978 1.4081 6.7834 0
M  V30 1143 N 125.771 0.971316 5.53644 0
M  V30 1144 H 117.922 1.31009 1.67184 0
M  V30 1145 H 120.185 0.534242 0.783128 0
M  V30 1146 H 119.891 1.46509 3.19731 0
M  V30 1147 H 119.765 -0.189753 3.76722 0
M  V30 1148 H 122.152 -0.636295 2.88158 0
M  V30 1149 H 122.233 1.04462 2.33498 0
M  V30 1150 H 121.877 1.82088 4.74137 0
M  V30 1151 H 121.807 0.119386 5.26465 0
M  V30 1152 H 124.298 0.488662 3.74727 0
M  V30 1153 H 124.611 1.61607 7.55714 0
M  V30 1154 H 122.956 1.44657 6.79779 0
M  V30 1155 H 126.147 0.688748 4.63005 0
M  V30 1156 H 126.32 1.20263 6.36742 0
M  V30 1157 N 119.726 -1.57421 0.075193 0
M  V30 1158 C 121.137 -1.81021 -0.456964 0
M  V30 1159 C 121.488 -0.98936 -1.69429 0
M  V30 1160 O 120.613 -0.212865 -2.15351 0
M  V30 1161 C 121.208 -3.28329 -0.83581 0
M  V30 1162 C 119.767 -3.52764 -1.31281 0
M  V30 1163 C 118.914 -2.75676 -0.299648 0
M  V30 1164 H 121.865 -1.55822 0.300856 0
M  V30 1165 H 121.886 -3.40564 -1.69696 0
M  V30 1166 H 121.398 -3.88046 0.0649238 0
M  V30 1167 H 119.499 -2.98355 -2.23193 0
M  V30 1168 H 119.612 -4.61451 -1.28839 0
M  V30 1169 H 117.976 -2.42538 -0.777641 0
M  V30 1170 H 118.759 -3.38132 0.593417 0
M  V30 1171 N 121.204 0.198386 -1.56346 0
M  V30 1172 C 122.114 1.2664 -1.97483 0
M  V30 1173 C 123.13 1.49989 -0.882002 0
M  V30 1174 O 124.306 1.62668 -1.18748 0
M  V30 1175 C 121.371 2.59141 -2.30319 0
M  V30 1176 C 120.432 2.43892 -3.53292 0
M  V30 1177 C 119.665 3.70074 -3.84553 0
M  V30 1178 O 119.888 4.74101 -3.1715 0
M  V30 1179 O 118.822 3.658 -4.7799 0
M  V30 1180 H 122.648 0.947304 -2.88548 0
M  V30 1181 H 120.233 0.403123 -1.43859 0
M  V30 1182 H 122.115 3.37352 -2.5253 0
M  V30 1183 H 120.79 2.90684 -1.42423 0
M  V30 1184 H 119.697 1.63803 -3.36332 0
M  V30 1185 H 121.03 2.17282 -4.41644 0
M  V30 1186 N 122.682 1.50554 0.465978 0
M  V30 1187 C 123.93 1.61479 1.21528 0
M  V30 1188 C 124.251 0.319596 1.92363 0
M  V30 1189 O 123.521 -0.663194 1.84333 0
M  V30 1190 H 122.101 0.595055 0.451573 0
M  V30 1191 H 124.763 1.87355 0.53704 0
M  V30 1192 H 123.859 2.42846 1.96042 0
M  V30 1193 N 124.16 -0.719506 1.40217 0
M  V30 1194 C 125.388 -1.50864 1.41589 0
M  V30 1195 C 125.803 -1.88794 0.0145275 0
M  V30 1196 O 125.16 -1.55174 -0.960594 0
M  V30 1197 C 125.211 -2.78646 2.30302 0
M  V30 1198 O 124.932 -2.42321 3.64983 0
M  V30 1199 C 126.433 -3.72569 2.40224 0
M  V30 1200 H 123.653 -0.465709 0.48307 0
M  V30 1201 H 126.197 -0.88785 1.84221 0
M  V30 1202 H 124.352 -3.37019 1.91042 0
M  V30 1203 H 124.766 -3.24514 4.12057 0
M  V30 1204 H 126.24 -4.5908 3.06512 0
M  V30 1205 H 126.717 -4.15403 1.42608 0
M  V30 1206 H 127.323 -3.20109 2.80019 0
M  V30 1207 N 125.638 -1.25649 -0.95132 0
M  V30 1208 C 126.568 -1.08808 -2.06599 0
M  V30 1209 C 127.549 0.00382547 -1.701 0
M  V30 1210 O 128.734 -0.166325 -1.93486 0
M  V30 1211 C 125.864 -0.709542 -3.39975 0
M  V30 1212 C 124.818 -1.75206 -3.90496 0
M  V30 1213 C 124.144 -1.22811 -5.20405 0
M  V30 1214 C 125.444 -3.15153 -4.16504 0
M  V30 1215 H 127.138 -2.02048 -2.20946 0
M  V30 1216 H 124.684 -0.972835 -1.06169 0
M  V30 1217 H 126.637 -0.578649 -4.17408 0
M  V30 1218 H 125.361 0.258556 -3.25575 0
M  V30 1219 H 124.02 -1.87145 -3.15234 0
M  V30 1220 H 123.668 -0.250145 -5.02378 0
M  V30 1221 H 123.368 -1.92492 -5.55176 0
M  V30 1222 H 124.892 -1.10968 -6.00432 0
M  V30 1223 H 126.306 -3.06349 -4.84586 0
M  V30 1224 H 124.703 -3.82333 -4.62538 0
M  V30 1225 H 125.773 -3.61966 -3.22658 0
M  V30 1226 N 127.117 1.15442 -1.07289 0
M  V30 1227 C 128.065 2.22225 -0.686952 0
M  V30 1228 C 129.059 1.66688 0.30193 0
M  V30 1229 O 130.265 1.79236 0.165712 0
M  V30 1230 H 126.64 0.723783 -0.204064 0
M  V30 1231 H 128.611 2.52056 -1.5972 0
M  V30 1232 C 127.36 3.47556 -0.100149 0
M  V30 1233 H 126.683 3.90612 -0.852211 0
M  V30 1234 H 128.123 4.23794 0.132235 0
M  V30 1235 C 126.582 3.16337 1.159 0
M  V30 1236 O 127.112 3.33074 2.24555 0
M  V30 1237 N 125.318 2.70385 1.06491 0
M  V30 1238 H 124.865 2.56966 0.180668 0
M  V30 1239 H 124.823 2.49871 1.90819 0
M  V30 1240 N 128.595 0.856903 1.32268 0
M  V30 1241 C 129.545 0.274899 2.26337 0
M  V30 1242 C 130.529 -0.580543 1.50062 0
M  V30 1243 O 131.721 -0.429559 1.71708 0
M  V30 1244 C 128.85 -0.533841 3.39124 0
M  V30 1245 C 127.936 0.334114 4.22782 0
M  V30 1246 N 128.327 1.42143 4.85416 0
M  V30 1247 C 126.625 0.124256 4.45827 0
M  V30 1248 C 127.326 1.95559 5.47843 0
M  V30 1249 N 126.302 1.25444 5.28928 0
M  V30 1250 H 130.104 1.10612 2.72291 0
M  V30 1251 H 127.618 0.703258 1.46383 0
M  V30 1252 H 129.615 -0.96722 4.05525 0
M  V30 1253 H 128.275 -1.36283 2.94715 0
M  V30 1254 H 129.286 1.80436 4.85451 0
M  V30 1255 H 125.963 -0.669837 4.12092 0
M  V30 1256 H 127.353 2.86714 6.07655 0
M  V30 1257 N 130.073 -1.45103 0.615059 0
M  V30 1258 C 131.003 -2.33339 -0.0865619 0
M  V30 1259 C 131.984 -1.4727 -0.851209 0
M  V30 1260 O 133.169 -1.76026 -0.820281 0
M  V30 1261 C 130.299 -3.30095 -1.07956 0
M  V30 1262 C 129.253 -4.25858 -0.427628 0
M  V30 1263 C 128.579 -5.12361 -1.5294 0
M  V30 1264 C 129.879 -5.18165 0.655944 0
M  V30 1265 H 131.573 -2.92254 0.650224 0
M  V30 1266 H 129.119 -1.40532 0.314138 0
M  V30 1267 H 131.072 -3.90698 -1.57901 0
M  V30 1268 H 129.796 -2.69355 -1.84703 0
M  V30 1269 H 128.455 -3.66564 0.0510292 0
M  V30 1270 H 128.103 -4.47984 -2.28734 0
M  V30 1271 H 127.803 -5.77238 -1.09865 0
M  V30 1272 H 129.327 -5.75833 -2.03098 0
M  V30 1273 H 130.741 -5.72796 0.240257 0
M  V30 1274 H 129.138 -5.91559 1.00888 0
M  V30 1275 H 130.208 -4.60144 1.52957 0
M  V30 1276 N 131.551 -0.354651 -1.53558 0
M  V30 1277 C 132.514 0.484566 -2.24019 0
M  V30 1278 C 133.514 1.01861 -1.24422 0
M  V30 1279 O 134.704 0.906097 -1.4878 0
M  V30 1280 C 131.836 1.67615 -2.96847 0
M  V30 1281 H 133.029 -0.131843 -2.9961 0
M  V30 1282 H 130.582 -0.106165 -1.55939 0
M  V30 1283 H 131.317 2.33095 -2.25471 0
M  V30 1284 H 131.102 1.30029 -3.69912 0
M  V30 1285 H 132.592 2.27114 -3.50441 0
M  V30 1286 N 133.029 1.57378 -0.0835403 0
M  V30 1287 C 134.276 1.9393 0.58287 0
M  V30 1288 C 134.604 0.964455 1.68904 0
M  V30 1289 O 133.859 -0.0179474 1.95692 0
M  V30 1290 C 134.158 3.37063 1.1884 0
M  V30 1291 C 133.824 4.50424 0.207194 0
M  V30 1292 C 132.486 4.81159 -0.0627115 0
M  V30 1293 C 134.838 5.19136 -0.463426 0
M  V30 1294 C 132.166 5.77939 -1.01012 0
M  V30 1295 C 134.518 6.16931 -1.39924 0
M  V30 1296 C 133.182 6.46078 -1.67749 0
M  V30 1297 H 132.452 0.70964 0.213287 0
M  V30 1298 H 135.099 1.90856 -0.156916 0
M  V30 1299 H 133.404 3.3666 2.00418 0
M  V30 1300 H 135.101 3.6264 1.71153 0
M  V30 1301 H 131.691 4.2646 0.427747 0
M  V30 1302 H 135.875 4.95576 -0.268034 0
M  V30 1303 H 131.131 5.98842 -1.23283 0
M  V30 1304 H 135.305 6.69273 -1.92476 0
M  V30 1305 H 132.932 7.2088 -2.41321 0
M  V30 1306 N 134.507 -0.190092 1.56449 0
M  V30 1307 C 135.747 -0.916414 1.82705 0
M  V30 1308 C 136.111 -1.80235 0.661763 0
M  V30 1309 O 137.312 -2.56484 0.80433 0
M  V30 1310 C 135.583 -1.70691 3.14005 0
M  V30 1311 S 137.142 -2.48457 3.61683 0
M  V30 1312 H 133.96 -0.307281 0.64117 0
M  V30 1313 H 136.562 -0.179433 1.94675 0
M  V30 1314 H 135.266 -1.04677 3.96826 0
M  V30 1315 H 134.797 -2.48562 3.04927 0
M  V30 1316 H 136.812 -3.72756 3.27517 0
M  V30 1317 N 135.985 -1.50799 -0.457987 0
M  V30 1318 C 137.401 -1.38515 -0.792819 0
M  V30 1319 C 137.601 -0.451409 -1.96379 0
M  V30 1320 O 136.657 0.10112 -2.52297 0
M  V30 1321 C 137.97 -2.80149 -1.09258 0
M  V30 1322 C 139.518 -2.89156 -1.19825 0
M  V30 1323 C 139.993 -4.31651 -1.53106 0
M  V30 1324 N 141.484 -4.34662 -1.60072 0
M  V30 1325 C 142.219 -5.41928 -1.87354 0
M  V30 1326 N 141.715 -6.59384 -2.12568 0
M  V30 1327 N 143.508 -5.29385 -1.88965 0
M  V30 1328 H 135.659 -2.10073 0.313511 0
M  V30 1329 H 137.922 -0.944803 0.0777862 0
M  V30 1330 H 137.628 -3.50374 -0.305084 0
M  V30 1331 H 137.502 -3.18204 -2.02549 0
M  V30 1332 H 139.889 -2.19141 -1.97639 0
M  V30 1333 H 139.97 -2.54626 -0.244821 0
M  V30 1334 H 139.614 -5.02208 -0.758266 0
M  V30 1335 H 139.544 -4.63678 -2.49621 0
M  V30 1336 H 142.035 -3.49973 -1.42573 0
M  V30 1337 H 142.348 -7.36934 -2.32696 0
M  V30 1338 H 140.693 -6.62535 -2.09933 0
M  V30 1339 H 143.884 -4.36616 -1.68772 0
M  V30 1340 H 144.057 -6.13066 -2.09891 0
M  V30 1341 N 137.463 0.71206 -1.40597 0
M  V30 1342 C 138.395 1.83704 -1.37061 0
M  V30 1343 C 139.408 1.60453 -0.275426 0
M  V30 1344 O 140.597 1.70262 -0.53602 0
M  V30 1345 C 137.697 3.20172 -1.11099 0
M  V30 1346 C 136.87 3.7059 -2.3234 0
M  V30 1347 C 135.929 4.85681 -2.02485 0
M  V30 1348 O 134.955 4.9815 -2.75382 0
M  V30 1349 N 136.157 5.71735 -1.00497 0
M  V30 1350 H 138.922 1.87235 -2.34016 0
M  V30 1351 H 136.483 0.893739 -1.34996 0
M  V30 1352 H 138.475 3.94768 -0.891064 0
M  V30 1353 H 137.045 3.11767 -0.227989 0
M  V30 1354 H 136.265 2.87085 -2.7014 0
M  V30 1355 H 137.553 4.01011 -3.13157 0
M  V30 1356 H 136.951 5.64275 -0.401298 0
M  V30 1357 H 135.508 6.463 -0.844942 0
M  V30 1358 N 138.941 1.26152 0.944643 0
M  V30 1359 C 139.891 1.04081 2.02857 0
M  V30 1360 C 140.875 -0.0256555 1.6088 0
M  V30 1361 O 142.067 0.190884 1.75968 0
M  V30 1362 C 139.196 0.672118 3.36656 0
M  V30 1363 C 138.282 1.77586 3.85128 0
M  V30 1364 N 138.673 3.01272 4.06287 0
M  V30 1365 C 136.971 1.65867 4.1401 0
M  V30 1366 C 137.672 3.72983 4.46384 0
M  V30 1367 N 136.648 3.00653 4.52889 0
M  V30 1368 H 140.45 1.97968 2.17223 0
M  V30 1369 H 137.964 1.16618 1.13022 0
M  V30 1370 H 139.961 0.495166 4.13949 0
M  V30 1371 H 138.621 -0.259307 3.23663 0
M  V30 1372 H 139.632 3.37213 3.93075 0
M  V30 1373 H 136.309 0.796907 4.09824 0
M  V30 1374 H 137.699 4.792 4.70975 0
M  V30 1375 N 140.419 -1.14872 1.07899 0
M  V30 1376 C 141.667 -1.85422 0.803941 0
M  V30 1377 C 141.988 -1.83051 -0.67211 0
M  V30 1378 O 141.258 -1.27532 -1.48703 0
M  V30 1379 H 139.838 -0.686537 0.294408 0
M  V30 1380 H 142.5 -1.39226 1.3639 0
M  V30 1381 H 141.596 -2.90399 1.14346 0
M  V30 1382 N 141.898 -0.863906 -1.31812 0
M  V30 1383 C 142.845 -0.313303 -2.28664 0
M  V30 1384 C 143.815 0.584868 -1.55462 0
M  V30 1385 O 145 0.517805 -1.83639 0
M  V30 1386 C 142.14 0.48441 -3.41683 0
M  V30 1387 C 141.253 -0.440594 -4.29747 0
M  V30 1388 C 140.388 0.370652 -5.29905 0
M  V30 1389 C 139.427 -0.551164 -6.09613 0
M  V30 1390 N 138.564 0.223462 -7.01744 0
M  V30 1391 H 143.404 -1.14444 -2.75148 0
M  V30 1392 H 140.941 -0.575769 -1.35364 0
M  V30 1393 H 142.899 0.962627 -4.05943 0
M  V30 1394 H 141.529 1.28029 -2.96325 0
M  V30 1395 H 140.581 -1.03724 -3.65986 0
M  V30 1396 H 141.893 -1.14767 -4.85417 0
M  V30 1397 H 141.047 0.911638 -5.99812 0
M  V30 1398 H 139.786 1.11105 -4.74876 0
M  V30 1399 H 138.791 -1.10396 -5.38603 0
M  V30 1400 H 140.016 -1.29032 -6.66729 0
M  V30 1401 H 137.962 0.946787 -6.49132 0
M  V30 1402 H 137.879 -0.424399 -7.54808 0
M  V30 1403 H 139.147 0.745876 -7.75923 0
M  V30 1404 N 143.376 1.44774 -0.622745 0
M  V30 1405 C 144.624 2.01721 -0.123655 0
M  V30 1406 C 144.945 1.49172 1.25589 0
M  V30 1407 O 144.215 0.691974 1.83272 0
M  V30 1408 H 142.795 0.745777 -0.0427225 0
M  V30 1409 H 145.457 1.77382 -0.807559 0
M  V30 1410 H 144.553 3.11984 -0.0849534 0
M  V30 1411 N 144.854 0.36279 1.53368 0
M  V30 1412 C 145.787 -0.528507 2.21996 0
M  V30 1413 C 146.765 -1.0852 1.21087 0
M  V30 1414 O 147.949 -1.14186 1.4998 0
M  V30 1415 C 145.076 -1.72893 2.91249 0
M  V30 1416 C 144.122 -1.29994 4.06207 0
M  V30 1417 S 144.955 -0.303575 5.34639 0
M  V30 1418 C 146.111 -1.51039 6.07403 0
M  V30 1419 H 146.344 0.0543423 2.9725 0
M  V30 1420 H 143.877 0.146889 1.537 0
M  V30 1421 H 145.835 -2.41751 3.31763 0
M  V30 1422 H 144.496 -2.28303 2.15724 0
M  V30 1423 H 143.689 -2.19549 4.53667 0
M  V30 1424 H 143.291 -0.690608 3.67569 0
M  V30 1425 H 145.583 -2.44186 6.31965 0
M  V30 1426 H 146.526 -1.07721 6.99858 0
M  V30 1427 H 146.934 -1.71518 5.37812 0
M  V30 1428 N 146.332 -1.57332 0.0918853 0
M  V30 1429 C 147.578 -1.94524 -0.573425 0
M  V30 1430 C 147.911 -0.973578 -1.68033 0
M  V30 1431 O 147.186 -0.00609226 -1.94499 0
M  V30 1432 C 147.469 -3.41858 -1.13161 0
M  V30 1433 C 147.322 -4.4979 -0.0299747 0
M  V30 1434 C 148.641 -3.90435 -2.03098 0
M  V30 1435 H 145.76 -0.70734 -0.206975 0
M  V30 1436 H 148.402 -1.89309 0.161942 0
M  V30 1437 H 146.552 -3.46433 -1.7583 0
M  V30 1438 H 148.224 -4.57327 0.604112 0
M  V30 1439 H 146.467 -4.291 0.636833 0
M  V30 1440 H 147.138 -5.50069 -0.461287 0
M  V30 1441 H 149.614 -3.87992 -1.50338 0
M  V30 1442 H 148.49 -4.94097 -2.39081 0
M  V30 1443 H 148.751 -3.29541 -2.94712 0
M  V30 1444 N 147.81 0.181792 -1.56548 0
M  V30 1445 C 149.059 0.898348 -1.8059 0
M  V30 1446 C 149.372 1.83862 -0.667379 0
M  V30 1447 O 150.578 2.59678 -0.792446 0
M  V30 1448 C 149.034 1.64791 -3.19956 0
M  V30 1449 C 148.642 0.751789 -4.41647 0
M  V30 1450 C 150.386 2.35331 -3.53298 0
M  V30 1451 C 148.293 1.50098 -5.72035 0
M  V30 1452 H 147.223 0.339194 -0.673397 0
M  V30 1453 H 149.874 0.151413 -1.82874 0
M  V30 1454 H 148.256 2.43921 -3.11959 0
M  V30 1455 H 149.43 -0.0018076 -4.608 0
M  V30 1456 H 147.745 0.156562 -4.16106 0
M  V30 1457 H 150.342 2.91958 -4.47956 0
M  V30 1458 H 150.685 3.10164 -2.77676 0
M  V30 1459 H 151.218 1.63154 -3.62803 0
M  V30 1460 H 147.957 0.795175 -6.50659 0
M  V30 1461 H 147.477 2.22817 -5.56878 0
M  V30 1462 H 149.156 2.05125 -6.13622 0
M  V30 1463 N 149.288 1.51039 0.449983 0
M  V30 1464 C 150.536 1.62759 1.19808 0
M  V30 1465 C 150.857 0.339981 1.92013 0
M  V30 1466 O 150.127 -0.643606 1.85026 0
M  V30 1467 H 148.707 0.599811 0.445237 0
M  V30 1468 H 151.369 1.87914 0.517138 0
M  V30 1469 H 150.465 2.44911 1.93455 0
M  V30 1470 N 150.766 -0.704594 1.40972 0
M  V30 1471 C 151.994 -1.49354 1.43182 0
M  V30 1472 C 152.409 -1.88768 0.0345508 0
M  V30 1473 O 151.766 -1.56184 -0.944081 0
M  V30 1474 C 151.817 -2.76187 2.33244 0
M  V30 1475 O 151.538 -2.38436 3.67532 0
M  V30 1476 C 153.039 -3.7 2.44162 0
M  V30 1477 H 150.259 -0.460559 0.487982 0
M  V30 1478 H 152.803 -0.868261 1.85153 0
M  V30 1479 H 150.958 -3.34974 1.94606 0
M  V30 1480 H 151.372 -3.20126 4.15475 0
M  V30 1481 H 152.846 -4.55803 3.11364 0
M  V30 1482 H 153.323 -4.13867 1.47006 0
M  V30 1483 H 153.929 -3.17121 2.83398 0
M  V30 1484 N 152.244 -1.26651 -0.937939 0
M  V30 1485 C 153.472 -1.15173 -1.7188 0
M  V30 1486 C 153.887 0.292668 -1.86518 0
M  V30 1487 O 153.244 1.20014 -1.37488 0
M  V30 1488 C 153.295 -1.81925 -3.12387 0
M  V30 1489 O 153.016 -3.2072 -2.98446 0
M  V30 1490 C 154.517 -1.76442 -4.06673 0
M  V30 1491 H 151.737 -0.400911 -0.538063 0
M  V30 1492 H 154.281 -1.67332 -1.1756 0
M  V30 1493 H 152.436 -1.33696 -3.63599 0
M  V30 1494 H 152.85 -3.53802 -3.872 0
M  V30 1495 H 154.324 -2.27781 -5.02812 0
M  V30 1496 H 154.801 -0.731608 -4.33064 0
M  V30 1497 H 155.407 -2.24238 -3.61382 0
M  V30 1498 N 153.722 1.14298 -1.08507 0
M  V30 1499 C 154.97 1.84993 -0.813763 0
M  V30 1500 C 155.291 1.83405 0.662393 0
M  V30 1501 O 154.561 1.28319 1.48024 0
M  V30 1502 H 153.141 0.684966 -0.298045 0
M  V30 1503 H 155.803 1.385 -1.37126 0
M  V30 1504 H 154.899 2.89788 -1.15884 0
M  V30 1505 N 155.201 0.870884 1.31352 0
M  V30 1506 C 156.448 0.482273 1.96673 0
M  V30 1507 C 156.776 -0.965638 1.68836 0
M  V30 1508 O 156.031 -1.69514 0.977937 0
M  V30 1509 C 156.33 0.687157 3.50732 0
M  V30 1510 C 155.996 2.108 3.9859 0
M  V30 1511 C 154.658 2.49656 4.1137 0
M  V30 1512 C 157.01 3.03459 4.23748 0
M  V30 1513 C 154.338 3.80412 4.46659 0
M  V30 1514 C 156.69 4.3373 4.60501 0
M  V30 1515 C 155.354 4.725 4.71487 0
M  V30 1516 H 154.624 0.176476 0.719679 0
M  V30 1517 H 157.271 1.10405 1.56471 0
M  V30 1518 H 155.576 -0.0177476 3.91796 0
M  V30 1519 H 157.273 0.366284 3.99324 0
M  V30 1520 H 153.863 1.79633 3.8914 0
M  V30 1521 H 158.047 2.74665 4.13368 0
M  V30 1522 H 153.303 4.1021 4.53362 0
M  V30 1523 H 157.477 5.05578 4.78919 0
M  V30 1524 H 155.104 5.73859 4.98588 0
M  V30 1525 N 156.679 -1.44442 0.630414 0
M  V30 1526 C 157.956 -1.9549 0.0655657 0
M  V30 1527 C 158.336 -1.5724 -1.40851 0
M  V30 1528 O 157.684 -0.846116 -2.12257 0
M  V30 1529 C 157.894 -3.47812 0.287691 0
M  V30 1530 C 159.242 -4.24216 0.180513 0
M  V30 1531 O 160.266 -3.55526 0.219019 0
M  V30 1532 O 159.125 -5.46434 0.0848493 0
M  V30 1533 H 156.219 -0.826688 -0.0227177 0
M  V30 1534 H 158.765 -1.54496 0.702068 0
M  V30 1535 H 157.537 -3.687 1.31056 0
M  V30 1536 H 157.16 -3.95751 -0.382984 0
M  V30 1537 N 158.157 -0.370918 -1.53173 0
M  V30 1538 C 159.067 0.480823 -2.2962 0
M  V30 1539 C 160.083 1.08789 -1.35798 0
M  V30 1540 O 161.259 1.09768 -1.68858 0
M  V30 1541 C 158.324 1.60227 -3.07454 0
M  V30 1542 C 157.385 1.0222 -4.16953 0
M  V30 1543 C 156.618 2.0902 -4.91066 0
M  V30 1544 O 156.841 3.30222 -4.65091 0
M  V30 1545 O 155.775 1.71778 -5.76867 0
M  V30 1546 H 159.601 -0.141421 -3.03371 0
M  V30 1547 H 157.186 -0.135146 -1.48787 0
M  V30 1548 H 159.068 2.25417 -3.56041 0
M  V30 1549 H 157.743 2.20982 -2.36535 0
M  V30 1550 H 156.65 0.334064 -3.72605 0
M  V30 1551 H 157.983 0.459131 -4.90054 0
M  V30 1552 N 159.635 1.57281 -0.100228 0
M  V30 1553 C 160.598 2.13158 0.842398 0
M  V30 1554 C 161.598 1.06202 1.20738 0
M  V30 1555 O 162.788 1.32066 1.13597 0
M  V30 1556 C 159.92 2.65639 2.13655 0
M  V30 1557 H 161.113 2.97766 0.357114 0
M  V30 1558 H 158.666 1.5559 0.148823 0
M  V30 1559 H 159.401 1.84566 2.66657 0
M  V30 1560 H 159.186 3.43844 1.88451 0
M  V30 1561 H 160.676 3.08846 2.81077 0
M  V30 1562 N 161.113 -0.173488 1.56642 0
M  V30 1563 C 162.361 -0.888706 1.81512 0
M  V30 1564 C 162.682 -1.82875 0.676872 0
M  V30 1565 O 161.952 -1.93536 -0.303414 0
M  V30 1566 H 160.532 -0.331164 0.669582 0
M  V30 1567 H 163.194 -0.173823 1.94123 0
M  V30 1568 H 162.29 -1.46691 2.75478 0
M  V30 1569 N 162.591 -1.51276 -0.441967 0
M  V30 1570 C 163.538 -1.72256 -1.53612 0
M  V30 1571 C 164.508 -0.564164 -1.56225 0
M  V30 1572 O 165.693 -0.798074 -1.73307 0
M  V30 1573 C 162.833 -1.84932 -2.91366 0
M  V30 1574 C 161.946 -3.12459 -2.98317 0
M  V30 1575 C 161.081 -3.15758 -4.27166 0
M  V30 1576 C 160.12 -4.37619 -4.27967 0
M  V30 1577 N 159.257 -4.38493 -5.48333 0
M  V30 1578 H 164.097 -2.65654 -1.35026 0
M  V30 1579 H 161.634 -1.31662 -0.656009 0
M  V30 1580 H 163.592 -1.90263 -3.7129 0
M  V30 1581 H 162.222 -0.949461 -3.08521 0
M  V30 1582 H 161.274 -3.1646 -2.11086 0
M  V30 1583 H 162.586 -4.02382 -2.94771 0
M  V30 1584 H 161.74 -3.19979 -5.15459 0
M  V30 1585 H 160.479 -2.23715 -4.33362 0
M  V30 1586 H 159.484 -4.33579 -3.38067 0
M  V30 1587 H 160.709 -5.30921 -4.23438 0
M  V30 1588 H 158.655 -3.49318 -5.55259 0
M  V30 1589 H 158.572 -5.22219 -5.46647 0
M  V30 1590 H 159.84 -4.469 -6.38671 0
M  V30 1591 N 164.069 0.697108 -1.41344 0
M  V30 1592 C 165.001 1.8224 -1.39001 0
M  V30 1593 C 166.014 1.60152 -0.292428 0
M  V30 1594 O 167.203 1.69684 -0.554048 0
M  V30 1595 C 164.303 3.18976 -1.14489 0
M  V30 1596 C 163.476 3.68105 -2.36258 0
M  V30 1597 C 162.535 4.83506 -2.07625 0
M  V30 1598 O 161.561 4.95201 -2.8065 0
M  V30 1599 N 162.763 5.70637 -1.06555 0
M  V30 1600 H 165.528 1.84742 -2.35988 0
M  V30 1601 H 163.089 0.87937 -1.35936 0
M  V30 1602 H 165.081 3.93801 -0.932885 0
M  V30 1603 H 163.651 3.11508 -0.261043 0
M  V30 1604 H 162.871 2.84204 -2.7317 0
M  V30 1605 H 164.159 3.97667 -3.17393 0
M  V30 1606 H 163.557 5.63817 -0.461125 0
M  V30 1607 H 162.114 6.45368 -0.913444 0
M  V30 1608 N 165.547 1.27147 0.931209 0
M  V30 1609 C 166.51 1.09615 2.01289 0
M  V30 1610 C 167.51 0.0412581 1.60747 0
M  V30 1611 O 168.7 0.285545 1.71844 0
M  V30 1612 C 165.832 0.669447 3.34262 0
M  V30 1613 H 167.025 2.05662 2.18273 0
M  V30 1614 H 164.578 1.09885 1.11153 0
M  V30 1615 H 165.313 -0.292572 3.22978 0
M  V30 1616 H 165.098 1.43127 3.65044 0
M  V30 1617 H 166.588 0.568921 4.13706 0
M  V30 1618 N 167.025 -1.13721 1.09112 0
M  V30 1619 C 168.274 -1.84275 0.82009 0
M  V30 1620 C 168.587 -1.84253 -0.656509 0
M  V30 1621 O 169.793 -2.50668 -1.04296 0
M  V30 1622 C 168.249 -3.30825 1.41714 0
M  V30 1623 C 167.857 -3.39244 2.92605 0
M  V30 1624 C 169.601 -4.06443 1.22492 0
M  V30 1625 C 167.508 -4.80047 3.45411 0
M  V30 1626 H 166.438 -0.690387 0.30312 0
M  V30 1627 H 169.089 -1.28146 1.31343 0
M  V30 1628 H 167.471 -3.86737 0.851498 0
M  V30 1629 H 168.645 -2.93344 3.55367 0
M  V30 1630 H 166.96 -2.77088 3.10823 0
M  V30 1631 H 169.557 -5.10387 1.59402 0
M  V30 1632 H 169.9 -4.15972 0.165299 0
M  V30 1633 H 170.433 -3.56852 1.75788 0
M  V30 1634 H 167.172 -4.75709 4.50978 0
M  V30 1635 H 166.692 -5.26455 2.87411 0
M  V30 1636 H 168.371 -5.48957 3.42425 0
M  V30 1637 N 168.503 -0.877838 -1.30888 0
M  V30 1638 C 169.919 -0.570844 -1.49042 0
M  V30 1639 C 170.119 0.893159 -1.80624 0
M  V30 1640 O 169.175 1.67485 -1.88958 0
M  V30 1641 C 170.488 -1.47784 -2.61878 0
M  V30 1642 C 172.036 -1.48071 -2.75761 0
M  V30 1643 C 172.511 -2.37347 -3.91702 0
M  V30 1644 N 174.002 -2.35271 -3.99001 0
M  V30 1645 C 174.737 -3.01063 -4.88004 0
M  V30 1646 N 174.233 -3.76055 -5.81854 0
M  V30 1647 N 176.026 -2.90332 -4.81315 0
M  V30 1648 H 168.177 -1.82502 -1.0866 0
M  V30 1649 H 170.44 -0.780797 -0.537644 0
M  V30 1650 H 170.146 -2.51993 -2.45341 0
M  V30 1651 H 170.02 -1.18215 -3.58197 0
M  V30 1652 H 172.407 -0.446166 -2.91708 0
M  V30 1653 H 172.488 -1.81668 -1.80085 0
M  V30 1654 H 172.132 -3.40883 -3.76512 0
M  V30 1655 H 172.062 -2.01071 -4.86701 0
M  V30 1656 H 174.553 -1.80768 -3.3186 0
M  V30 1657 H 174.866 -4.23366 -6.46514 0
M  V30 1658 H 173.211 -3.80163 -5.81808 0
M  V30 1659 H 176.402 -2.31278 -4.06974 0
M  V30 1660 H 176.575 -3.41885 -5.50471 0
M  V30 1661 N 169.982 1.44106 -0.638065 0
M  V30 1662 C 171.259 1.95453 -0.0759321 0
M  V30 1663 C 171.639 1.57984 1.40015 0
M  V30 1664 O 170.987 0.857361 2.11806 0
M  V30 1665 C 171.197 3.47655 -0.306132 0
M  V30 1666 C 172.545 4.24114 -0.203008 0
M  V30 1667 O 173.569 3.55405 -0.237871 0
M  V30 1668 O 172.428 5.46381 -0.113827 0
M  V30 1669 H 169.522 0.826797 0.0183332 0
M  V30 1670 H 172.068 1.54122 -0.710251 0
M  V30 1671 H 170.84 3.68 -1.3301 0
M  V30 1672 H 170.463 3.95949 0.361991 0
M  V30 1673 N 171.46 0.379036 1.52974 0
M  V30 1674 C 172.423 -0.448865 2.24762 0
M  V30 1675 C 173.423 -0.998689 1.26027 0
M  V30 1676 O 174.613 -0.882313 1.50203 0
M  V30 1677 C 171.745 -1.62872 2.99476 0
M  V30 1678 H 172.938 0.179491 2.99362 0
M  V30 1679 H 170.491 0.13096 1.5575 0
M  V30 1680 H 171.226 -2.29479 2.29151 0
M  V30 1681 H 171.011 -1.24128 3.71934 0
M  V30 1682 H 172.501 -2.2151 3.5401 0
M  V30 1683 N 172.938 -1.57226 0.108567 0
M  V30 1684 C 173.901 -2.13602 -0.831082 0
M  V30 1685 C 174.901 -1.06841 -1.20173 0
M  V30 1686 O 176.091 -1.32666 -1.12895 0
M  V30 1687 C 173.223 -2.66769 -2.12243 0
M  V30 1688 H 174.416 -2.97951 -0.341317 0
M  V30 1689 H 171.969 -1.55667 -0.14057 0
M  V30 1690 H 172.704 -1.85977 -2.65675 0
M  V30 1691 H 172.489 -3.44839 -1.86625 0
M  V30 1692 H 173.979 -3.10332 -2.79435 0
M  V30 1693 N 174.416 0.165178 -1.56732 0
M  V30 1694 C 175.379 1.18822 -1.95995 0
M  V30 1695 C 176.379 1.3685 -0.84431 0
M  V30 1696 O 177.569 1.34152 -1.11126 0
M  V30 1697 C 174.701 2.5521 -2.26011 0
M  V30 1698 H 175.894 0.851825 -2.87548 0
M  V30 1699 H 173.447 0.407857 -1.50885 0
M  V30 1700 H 174.182 2.93852 -1.37191 0
M  V30 1701 H 173.967 2.43489 -3.07336 0
M  V30 1702 H 175.457 3.28927 -2.57288 0
M  V30 1703 N 175.894 1.51508 0.433938 0
M  V30 1704 C 177.171 1.54888 1.19453 0
M  V30 1705 C 177.551 0.315154 2.08734 0
M  V30 1706 O 176.899 -0.699558 2.17528 0
M  V30 1707 C 177.109 2.86467 1.99342 0
M  V30 1708 C 178.457 3.38545 2.56267 0
M  V30 1709 O 179.481 2.88041 2.0955 0
M  V30 1710 O 178.34 4.26675 3.41483 0
M  V30 1711 H 175.434 0.622863 0.544032 0
M  V30 1712 H 177.98 1.63823 0.442732 0
M  V30 1713 H 176.752 3.67718 1.33788 0
M  V30 1714 H 176.375 2.8071 2.8158 0
M  V30 1715 N 177.372 -0.689602 1.41712 0
M  V30 1716 C 178.621 -1.44534 1.40686 0
M  V30 1717 C 178.934 -1.95588 0.0213352 0
M  V30 1718 O 180.14 -2.71271 -0.111534 0
M  V30 1719 C 178.596 -2.61387 2.47396 0
M  V30 1720 C 178.204 -2.17094 3.91885 0
M  V30 1721 C 179.948 -3.38986 2.55517 0
M  V30 1722 C 177.855 -3.3094 4.90135 0
M  V30 1723 H 176.785 -0.542925 0.52321 0
M  V30 1724 H 179.436 -0.748054 1.6756 0
M  V30 1725 H 177.818 -3.33412 2.13664 0
M  V30 1726 H 178.992 -1.52318 4.34897 0
M  V30 1727 H 177.307 -1.52473 3.8748 0
M  V30 1728 H 179.904 -4.23747 3.26102 0
M  V30 1729 H 180.247 -3.84578 1.59391 0
M  V30 1730 H 180.78 -2.74021 2.8837 0
M  V30 1731 H 177.519 -2.90355 5.87685 0
M  V30 1732 H 177.039 -3.94546 4.51767 0
M  V30 1733 H 178.718 -3.9663 5.11169 0
M  V30 1734 N 178.85 -1.27639 -0.924453 0
M  V30 1735 C 179.813 -1.10681 -2.00705 0
M  V30 1736 C 180.813 -0.0497823 -1.60723 0
M  V30 1737 O 182.003 -0.294654 -1.7169 0
M  V30 1738 C 179.135 -0.687164 -3.33902 0
M  V30 1739 H 180.328 -2.06817 -2.17179 0
M  V30 1740 H 177.881 -1.10473 -1.10569 0
M  V30 1741 H 178.616 0.275439 -3.23128 0
M  V30 1742 H 178.401 -1.45061 -3.6428 0
M  V30 1743 H 179.891 -0.590853 -4.13399 0
M  V30 1744 N 180.328 1.1314 -1.09713 0
M  V30 1745 C 181.577 1.83838 -0.829851 0
M  V30 1746 C 181.89 1.84599 0.646728 0
M  V30 1747 O 183.096 2.51218 1.02965 0
M  V30 1748 C 181.552 3.30069 -1.43466 0
M  V30 1749 C 181.16 3.37688 -2.94399 0
M  V30 1750 C 182.904 4.05788 -1.24645 0
M  V30 1751 C 180.811 4.78209 -3.47952 0
M  V30 1752 H 179.741 0.68877 -0.306777 0
M  V30 1753 H 182.392 1.27448 -1.3202 0
M  V30 1754 H 180.774 3.8628 -0.871996 0
M  V30 1755 H 181.948 2.91456 -3.56918 0
M  V30 1756 H 180.263 2.75436 -3.12289 0
M  V30 1757 H 182.86 5.09535 -1.62107 0
M  V30 1758 H 183.203 4.15878 -0.187357 0
M  V30 1759 H 183.736 3.55915 -1.77678 0
M  V30 1760 H 180.475 4.73311 -4.53495 0
M  V30 1761 H 179.995 5.24924 -2.90198 0
M  V30 1762 H 181.674 5.47133 -3.45332 0
M  V30 1763 N 181.806 0.884767 1.30421 0
M  V30 1764 C 183.052 0.503851 1.96441 0
M  V30 1765 C 183.385 -0.944518 1.69684 0
M  V30 1766 O 182.66 -1.66737 1.00145 0
M  V30 1767 C 182.943 0.779085 3.51571 0
M  V30 1768 C 182.796 2.27807 3.87846 0
M  V30 1769 C 184.115 0.255452 4.39358 0
M  V30 1770 H 181.234 0.184533 0.713524 0
M  V30 1771 H 183.876 1.10872 1.54297 0
M  V30 1772 H 182.026 0.264274 3.876 0
M  V30 1773 H 183.698 2.86127 3.61841 0
M  V30 1774 H 181.941 2.74479 3.35922 0
M  V30 1775 H 182.612 2.42125 4.96064 0
M  V30 1776 H 185.088 0.696079 4.10236 0
M  V30 1777 H 183.964 0.477361 5.4682 0
M  V30 1778 H 184.225 -0.843293 4.33983 0
M  V30 1779 N 183.284 -1.43765 0.645699 0
M  V30 1780 C 184.531 -2.01898 0.15604 0
M  V30 1781 C 184.859 -1.50887 -1.22733 0
M  V30 1782 O 184.114 -0.689271 -1.8316 0
M  V30 1783 C 184.413 -3.57238 0.107679 0
M  V30 1784 C 184.079 -4.27564 1.43178 0
M  V30 1785 C 182.741 -4.46492 1.7944 0
M  V30 1786 C 185.093 -4.67454 2.30513 0
M  V30 1787 C 182.421 -5.02573 3.02716 0
M  V30 1788 C 184.773 -5.24901 3.53074 0
M  V30 1789 C 183.437 -5.42046 3.89541 0
M  V30 1790 H 182.707 -0.738797 0.057099 0
M  V30 1791 H 185.354 -1.72341 0.834912 0
M  V30 1792 H 183.659 -3.86293 -0.654618 0
M  V30 1793 H 185.356 -3.99965 -0.287938 0
M  V30 1794 H 181.946 -4.13171 1.13963 0
M  V30 1795 H 186.13 -4.5253 2.0379 0
M  V30 1796 H 181.386 -5.14033 3.31028 0
M  V30 1797 H 185.56 -5.54758 4.20971 0
M  V30 1798 H 183.187 -5.85268 4.85145 0
M  V30 1799 N 184.763 -0.387143 -1.52771 0
M  V30 1800 C 185.726 0.436939 -2.24997 0
M  V30 1801 C 186.726 0.991991 -1.26555 0
M  V30 1802 O 187.916 0.874335 -1.50669 0
M  V30 1803 C 185.048 1.61281 -3.00335 0
M  V30 1804 H 186.241 -0.195365 -2.99263 0
M  V30 1805 H 183.794 -0.139218 -1.55679 0
M  V30 1806 H 184.529 2.2826 -2.30364 0
M  V30 1807 H 184.314 1.22154 -3.72587 0
M  V30 1808 H 185.804 2.19629 -3.5518 0
M  V30 1809 N 186.241 1.57166 -0.116904 0
M  V30 1810 C 187.204 2.14039 0.819742 0
M  V30 1811 C 188.204 1.07477 1.19605 0
M  V30 1812 O 189.394 1.33263 1.1219 0
M  V30 1813 C 186.526 2.67891 2.10826 0
M  V30 1814 H 187.719 2.98128 0.325511 0
M  V30 1815 H 185.272 1.55739 0.132312 0
M  V30 1816 H 186.007 1.87384 2.64685 0
M  V30 1817 H 185.792 3.45823 1.84793 0
M  V30 1818 H 187.282 3.11809 2.77785 0
M  V30 1819 N 187.719 -0.156864 1.56817 0
M  V30 1820 C 188.667 -1.21319 1.98455 0
M  V30 1821 C 189.661 -1.45025 0.875444 0
M  V30 1822 O 190.867 -1.45435 1.0606 0
M  V30 1823 H 187.242 -0.408142 0.631605 0
M  V30 1824 H 189.213 -0.835244 2.86472 0
M  V30 1825 C 187.962 -2.54148 2.37285 0
M  V30 1826 H 187.285 -2.36733 3.22176 0
M  V30 1827 H 188.725 -3.26712 2.70251 0
M  V30 1828 C 187.184 -3.13967 1.22173 0
M  V30 1829 O 187.714 -3.98357 0.517149 0
M  V30 1830 N 185.92 -2.7327 0.988536 0
M  V30 1831 H 185.467 -2.04744 1.56326 0
M  V30 1832 H 185.425 -3.13628 0.220209 0
M  V30 1833 N 189.197 -1.51736 -0.425897 0
M  V30 1834 C 190.444 -1.6497 -1.17436 0
M  V30 1835 C 190.772 -0.371445 -1.9092 0
M  V30 1836 O 190.027 0.644963 -1.84767 0
M  V30 1837 C 190.326 -2.81103 -2.20717 0
M  V30 1838 C 189.992 -4.19954 -1.64162 0
M  V30 1839 C 188.654 -4.57725 -1.48462 0
M  V30 1840 C 191.006 -5.06552 -1.22696 0
M  V30 1841 C 188.334 -5.79789 -0.897873 0
M  V30 1842 C 190.686 -6.29205 -0.654464 0
M  V30 1843 C 189.35 -6.6574 -0.484456 0
M  V30 1844 H 188.62 -0.603668 -0.429727 0
M  V30 1845 H 191.267 -1.85798 -0.463829 0
M  V30 1846 H 189.572 -2.54542 -2.97852 0
M  V30 1847 H 191.269 -2.8854 -2.78471 0
M  V30 1848 H 187.859 -3.90181 -1.77361 0
M  V30 1849 H 192.043 -4.77968 -1.33642 0
M  V30 1850 H 187.299 -6.06733 -0.75402 0
M  V30 1851 H 191.473 -6.95643 -0.324694 0
M  V30 1852 H 189.1 -7.60195 -0.0276833 0
M  V30 1853 N 190.675 0.682077 -1.42076 0
M  V30 1854 C 191.9 1.47558 -1.45744 0
M  V30 1855 C 192.325 1.87977 -0.0680981 0
M  V30 1856 O 191.683 1.55522 0.9318 0
M  V30 1857 C 191.731 2.70575 -2.38373 0
M  V30 1858 O 190.835 3.68573 -1.85007 0
M  V30 1859 H 190.176 0.443585 -0.494093 0
M  V30 1860 H 192.706 0.837238 -1.86686 0
M  V30 1861 H 192.716 3.18729 -2.54707 0
M  V30 1862 H 191.391 2.40495 -3.39315 0
M  V30 1863 H 189.968 3.2757 -1.78192 0
M  V30 1864 N 192.153 1.28127 0.917671 0
M  V30 1865 C 193.399 1.15223 1.66888 0
M  V30 1866 C 193.732 -0.299293 1.9188 0
M  V30 1867 O 193.007 -1.21805 1.51637 0
M  V30 1868 C 193.29 1.94706 3.02922 0
M  V30 1869 C 193.143 3.47898 2.85109 0
M  V30 1870 C 194.462 1.75939 4.03402 0
M  V30 1871 H 191.581 0.419946 0.605652 0
M  V30 1872 H 194.223 1.57398 1.06423 0
M  V30 1873 H 192.373 1.58864 3.54534 0
M  V30 1874 H 194.045 3.93624 2.40537 0
M  V30 1875 H 192.288 3.7373 2.20246 0
M  V30 1876 H 192.959 3.98765 3.81694 0
M  V30 1877 H 195.435 2.07209 3.60837 0
M  V30 1878 H 194.311 2.33931 4.96556 0
M  V30 1879 H 194.572 0.709877 4.36364 0
M  V30 1880 N 193.631 -1.12557 1.10312 0
M  V30 1881 C 194.879 -1.83675 0.843091 0
M  V30 1882 C 195.2 -1.84435 -0.633131 0
M  V30 1883 O 194.47 -1.30657 -1.45964 0
M  V30 1884 H 193.05 -0.680138 0.308904 0
M  V30 1885 H 195.712 -1.36301 1.39313 0
M  V30 1886 H 194.808 -2.87908 1.2048 0
M  V30 1887 N 195.109 -0.891671 -1.2995 0
M  V30 1888 C 196.355 -0.514261 -1.96171 0
M  V30 1889 C 196.688 0.935506 -1.70182 0
M  V30 1890 O 195.963 1.66204 -1.01028 0
M  V30 1891 C 196.246 -0.797719 -3.51153 0
M  V30 1892 C 196.099 -2.2986 -3.86632 0
M  V30 1893 C 197.418 -0.278749 -4.39216 0
M  V30 1894 H 194.537 -0.188314 -0.712535 0
M  V30 1895 H 197.179 -1.11689 -1.53706 0
M  V30 1896 H 195.329 -0.284826 -3.87455 0
M  V30 1897 H 197.001 -2.88042 -3.60319 0
M  V30 1898 H 195.244 -2.76257 -3.34462 0
M  V30 1899 H 195.915 -2.44753 -4.94773 0
M  V30 1900 H 198.391 -0.717825 -4.09862 0
M  V30 1901 H 197.267 -0.506353 -5.46559 0
M  V30 1902 H 197.528 0.820266 -4.34424 0
M  V30 1903 N 196.587 1.43421 -0.653314 0
M  V30 1904 C 197.535 2.32546 0.0501531 0
M  V30 1905 C 198.529 1.48617 0.812985 0
M  V30 1906 O 199.735 1.64825 0.723375 0
M  V30 1907 H 196.11 0.751185 0.0350032 0
M  V30 1908 H 198.081 2.89602 -0.719261 0
M  V30 1909 C 196.83 3.32925 1.00279 0
M  V30 1910 H 196.153 3.97532 0.425236 0
M  V30 1911 H 197.593 3.9792 1.46409 0
M  V30 1912 C 196.052 2.63532 2.09886 0
M  V30 1913 O 196.582 2.45092 3.18265 0
M  V30 1914 N 194.788 2.22905 1.86445 0
M  V30 1915 H 194.335 2.38103 0.98309 0
M  V30 1916 H 194.293 1.76805 2.59976 0
M  V30 1917 N 198.065 0.39524 1.52563 0
M  V30 1918 C 199.311 -0.185318 2.01952 0
M  V30 1919 C 199.644 -1.45964 1.28095 0
M  V30 1920 O 198.919 -1.90689 0.38315 0
M  V30 1921 C 199.202 -0.447193 3.57312 0
M  V30 1922 C 199.055 0.842828 4.41833 0
M  V30 1923 C 200.374 -1.23529 4.22408 0
M  V30 1924 H 197.493 -0.0658788 0.73405 0
M  V30 1925 H 200.135 0.525975 1.82575 0
M  V30 1926 H 198.285 -1.05312 3.73954 0
M  V30 1927 H 199.957 1.4795 4.36931 0
M  V30 1928 H 198.2 1.45686 4.08605 0
M  V30 1929 H 198.871 0.614165 5.48573 0
M  V30 1930 H 201.347 -0.722445 4.0978 0
M  V30 1931 H 200.223 -1.38727 5.3108 0
M  V30 1932 H 200.484 -2.25213 3.80436 0
M  V30 1933 N 199.544 -1.57102 0.125237 0
M  V30 1934 C 200.477 -2.11371 -0.860094 0
M  V30 1935 C 201.455 -1.03168 -1.25679 0
M  V30 1936 O 202.639 -1.30862 -1.35674 0
M  V30 1937 C 199.766 -2.61555 -2.1519 0
M  V30 1938 C 198.812 -3.81701 -1.9028 0
M  V30 1939 S 199.645 -5.23797 -1.11343 0
M  V30 1940 C 200.801 -5.77353 -2.41689 0
M  V30 1941 H 201.034 -2.94617 -0.39852 0
M  V30 1942 H 198.567 -1.54145 -0.0886555 0
M  V30 1943 H 200.525 -2.91122 -2.89411 0
M  V30 1944 H 199.186 -1.78479 -2.58465 0
M  V30 1945 H 198.379 -4.14985 -2.86014 0
M  V30 1946 H 197.981 -3.52783 -1.24178 0
M  V30 1947 H 200.273 -5.87458 -3.37489 0
M  V30 1948 H 201.216 -6.75323 -2.12942 0
M  V30 1949 H 201.624 -5.05457 -2.51342 0
M  V30 1950 N 201.022 0.148545 -1.56898 0
M  V30 1951 C 201.952 1.18524 -2.01182 0
M  V30 1952 C 202.933 1.4489 -0.891123 0
M  V30 1953 O 204.118 1.55836 -1.15882 0
M  V30 1954 C 201.248 2.51879 -2.39112 0
M  V30 1955 C 200.202 2.40038 -3.54353 0
M  V30 1956 C 199.528 3.78089 -3.78091 0
M  V30 1957 C 200.828 1.88577 -4.87069 0
M  V30 1958 H 202.522 0.817029 -2.88036 0
M  V30 1959 H 200.068 0.391575 -1.38574 0
M  V30 1960 H 202.021 3.24627 -2.68692 0
M  V30 1961 H 200.745 2.90532 -1.49193 0
M  V30 1962 H 199.404 1.69742 -3.24936 0
M  V30 1963 H 199.052 4.14175 -2.85426 0
M  V30 1964 H 198.752 3.71028 -4.55645 0
M  V30 1965 H 200.276 4.52387 -4.10095 0
M  V30 1966 H 201.69 2.51117 -5.15377 0
M  V30 1967 H 200.087 1.9241 -5.68417 0
M  V30 1968 H 201.157 0.84136 -4.77545 0
M  V30 1969 N 202.5 1.5196 0.417844 0
M  V30 1970 C 203.447 1.74678 1.50852 0
M  V30 1971 C 204.417 0.588947 1.55308 0
M  V30 1972 O 205.602 0.825544 1.72016 0
M  V30 1973 C 202.742 1.89544 2.88387 0
M  V30 1974 C 201.855 3.17166 2.93309 0
M  V30 1975 C 200.99 3.22513 4.22088 0
M  V30 1976 C 200.029 4.44372 4.20951 0
M  V30 1977 N 199.166 4.47161 5.41287 0
M  V30 1978 H 204.006 2.67768 1.30783 0
M  V30 1979 H 201.543 1.32689 0.63498 0
M  V30 1980 H 203.501 1.96146 3.68216 0
M  V30 1981 H 202.131 0.998424 3.06971 0
M  V30 1982 H 201.183 3.19778 2.06024 0
M  V30 1983 H 202.495 4.07021 2.88332 0
M  V30 1984 H 201.649 3.28139 5.10303 0
M  V30 1985 H 200.388 2.30581 4.29748 0
M  V30 1986 H 199.393 4.38902 3.31127 0
M  V30 1987 H 200.618 5.3759 4.14938 0
M  V30 1988 H 198.564 3.58108 5.49632 0
M  V30 1989 H 198.481 5.3085 5.3827 0
M  V30 1990 H 199.749 4.57005 6.3148 0
M  V30 1991 N 203.978 -0.674533 1.42435 0
M  V30 1992 C 204.908 -1.80009 1.48724 0
M  V30 1993 C 205.889 -1.6659 0.343793 0
M  V30 1994 O 207.074 -1.86007 0.558137 0
M  V30 1995 C 204.204 -3.18306 1.38919 0
M  V30 1996 C 203.158 -3.46461 2.51294 0
M  V30 1997 C 202.484 -4.84335 2.26547 0
M  V30 1998 C 203.784 -3.43328 3.93603 0
M  V30 1999 H 205.478 -1.75004 2.42928 0
M  V30 2000 H 203.024 -0.840533 1.16923 0
M  V30 2001 H 204.977 -3.9678 1.41927 0
M  V30 2002 H 203.701 -3.2399 0.412094 0
M  V30 2003 H 202.36 -2.70348 2.47604 0
M  V30 2004 H 202.008 -4.86669 1.2713 0
M  V30 2005 H 201.708 -5.04136 3.01861 0
M  V30 2006 H 203.232 -5.65094 2.31304 0
M  V30 2007 H 204.646 -4.11772 3.98894 0
M  V30 2008 H 203.043 -3.74664 4.68771 0
M  V30 2009 H 204.113 -2.41897 4.20255 0
M  V30 2010 N 205.456 -1.28612 -0.910864 0
M  V30 2011 C 206.386 -1.15326 -2.03032 0
M  V30 2012 C 207.367 -0.0502924 -1.70026 0
M  V30 2013 O 208.552 -0.227797 -1.92859 0
M  V30 2014 C 205.682 -0.817343 -3.37545 0
M  V30 2015 C 204.636 -1.8754 -3.84724 0
M  V30 2016 C 203.962 -1.39305 -5.16235 0
M  V30 2017 C 205.262 -3.28244 -4.06267 0
M  V30 2018 H 206.956 -2.08975 -2.14406 0
M  V30 2019 H 204.502 -1.00612 -1.03021 0
M  V30 2020 H 206.455 -0.711151 -4.15356 0
M  V30 2021 H 205.179 0.154846 -3.26233 0
M  V30 2022 H 203.838 -1.97079 -3.09121 0
M  V30 2023 H 203.486 -0.409846 -5.01328 0
M  V30 2024 H 203.186 -2.10057 -5.48771 0
M  V30 2025 H 204.71 -1.30014 -5.96598 0
M  V30 2026 H 206.124 -3.21611 -4.74594 0
M  V30 2027 H 204.521 -3.96855 -4.5014 0
M  V30 2028 H 205.591 -3.72048 -3.10979 0
M  V30 2029 N 206.934 1.1197 -1.10907 0
M  V30 2030 C 207.844 2.21433 -0.774896 0
M  V30 2031 C 208.86 1.72478 0.229657 0
M  V30 2032 O 210.036 2.01288 0.0672008 0
M  V30 2033 C 207.101 3.4602 -0.216986 0
M  V30 2034 C 206.162 4.09791 -1.27944 0
M  V30 2035 C 205.395 5.28431 -0.748055 0
M  V30 2036 O 205.618 5.68823 0.423833 0
M  V30 2037 O 204.552 5.82644 -1.51027 0
M  V30 2038 H 208.378 2.5242 -1.68873 0
M  V30 2039 H 205.963 1.20399 -0.884555 0
M  V30 2040 H 207.845 4.21304 0.090059 0
M  V30 2041 H 206.52 3.16698 0.669633 0
M  V30 2042 H 205.427 3.36265 -1.63941 0
M  V30 2043 H 206.76 4.4328 -2.13925 0
M  V30 2044 N 208.412 0.89855 1.29475 0
M  V30 2045 C 209.359 0.373819 2.27753 0
M  V30 2046 C 210.329 -0.543444 1.56958 0
M  V30 2047 O 211.514 -0.468934 1.84948 0
M  V30 2048 C 208.654 -0.393648 3.42848 0
M  V30 2049 C 207.767 0.554379 4.28428 0
M  V30 2050 C 206.902 -0.230026 5.30702 0
M  V30 2051 C 205.941 0.712599 6.07938 0
M  V30 2052 N 205.078 -0.0373283 7.0209 0
M  V30 2053 H 209.918 1.21699 2.72017 0
M  V30 2054 H 207.455 0.611456 1.33789 0
M  V30 2055 H 209.413 -0.85466 4.08352 0
M  V30 2056 H 208.043 -1.20128 2.99615 0
M  V30 2057 H 207.095 1.13391 3.63107 0
M  V30 2058 H 208.407 1.27597 4.82204 0
M  V30 2059 H 207.561 -0.752288 6.02018 0
M  V30 2060 H 206.3 -0.984758 4.77654 0
M  V30 2061 H 205.305 1.24637 5.35486 0
M  V30 2062 H 206.53 1.46664 6.63074 0
M  V30 2063 H 204.476 -0.774348 6.51414 0
M  V30 2064 H 204.393 0.624374 7.53417 0
M  V30 2065 H 205.661 -0.539891 7.77628 0
M  V30 2066 N 209.89 -1.43072 0.660911 0
M  V30 2067 C 210.853 -2.29194 -0.0166406 0
M  V30 2068 C 211.853 -1.42609 -0.742912 0
M  V30 2069 O 213.043 -1.64155 -0.583004 0
M  V30 2070 C 210.175 -3.24831 -1.0343 0
M  V30 2071 H 211.368 -2.90596 0.741208 0
M  V30 2072 H 208.921 -1.5048 0.422532 0
M  V30 2073 H 209.656 -2.68339 -1.82111 0
M  V30 2074 H 209.441 -3.88676 -0.517082 0
M  V30 2075 H 210.931 -3.89451 -1.50723 0
M  V30 2076 N 211.368 -0.403325 -1.52352 0
M  V30 2077 C 212.331 0.413051 -2.25447 0
M  V30 2078 C 213.331 0.978513 -1.276 0
M  V30 2079 O 214.521 0.858305 -1.51587 0
M  V30 2080 C 211.653 1.58087 -3.02029 0
M  V30 2081 H 212.846 -0.227094 -2.99039 0
M  V30 2082 H 210.399 -0.155722 -1.55522 0
M  V30 2083 H 211.134 2.25804 -2.32772 0
M  V30 2084 H 210.919 1.18195 -3.73861 0
M  V30 2085 H 212.409 2.1585 -3.57489 0
M  V30 2086 N 212.846 1.57033 -0.133567 0
M  V30 2087 C 213.793 2.16074 0.811208 0
M  V30 2088 C 214.763 1.08979 1.2535 0
M  V30 2089 O 215.948 1.36958 1.32843 0
M  V30 2090 C 213.088 2.77595 2.05024 0
M  V30 2091 C 212.201 3.99042 1.65498 0
M  V30 2092 C 211.336 4.48603 2.84479 0
M  V30 2093 C 210.375 5.62547 2.41262 0
M  V30 2094 N 209.512 6.06787 3.53206 0
M  V30 2095 H 214.352 2.96477 0.300906 0
M  V30 2096 H 211.889 1.46462 0.136822 0
M  V30 2097 H 213.847 3.11402 2.77642 0
M  V30 2098 H 212.477 1.99859 2.53488 0
M  V30 2099 H 211.529 3.71302 0.826981 0
M  V30 2100 H 212.841 4.81629 1.29748 0
M  V30 2101 H 211.995 4.84395 3.65303 0
M  V30 2102 H 210.734 3.64995 3.23465 0
M  V30 2103 H 209.739 5.26345 1.58874 0
M  V30 2104 H 210.964 6.47931 2.03377 0
M  V30 2105 H 208.91 5.26117 3.91838 0
M  V30 2106 H 208.827 6.84266 3.21427 0
M  V30 2107 H 210.095 6.4722 4.34427 0
M  V30 2108 N 214.325 -0.140222 1.56975 0
M  V30 2109 C 215.571 -0.852949 1.83991 0
M  V30 2110 C 215.904 -1.80512 0.716187 0
M  V30 2111 O 215.179 -1.92479 -0.279681 0
M  V30 2112 C 215.462 -1.6215 3.21527 0
M  V30 2113 C 215.315 -0.690363 4.4447 0
M  V30 2114 C 216.634 -2.58247 3.56366 0
M  V30 2115 H 213.753 -0.308634 0.669264 0
M  V30 2116 H 216.395 -0.117898 1.89634 0
M  V30 2117 H 214.545 -2.24812 3.16847 0
M  V30 2118 H 216.217 -0.0742264 4.6124 0
M  V30 2119 H 214.46 -0.000396433 4.338 0
M  V30 2120 H 215.131 -1.2643 5.37326 0
M  V30 2121 H 217.607 -2.05701 3.61699 0
M  V30 2122 H 216.483 -3.09067 4.53617 0
M  V30 2123 H 216.744 -3.39923 2.82674 0
M  V30 2124 N 215.803 -1.52179 -0.40978 0
M  V30 2125 C 216.736 -1.70196 -1.52015 0
M  V30 2126 C 217.714 -0.549542 -1.53032 0
M  V30 2127 O 218.898 -0.776815 -1.71749 0
M  V30 2128 C 216.025 -1.74069 -2.90547 0
M  V30 2129 C 215.071 -2.95601 -3.07445 0
M  V30 2130 S 215.904 -4.55956 -2.80827 0
M  V30 2131 C 217.06 -4.62614 -4.21591 0
M  V30 2132 H 217.293 -2.64109 -1.36504 0
M  V30 2133 H 214.826 -1.4221 -0.601312 0
M  V30 2134 H 216.784 -1.76985 -3.70387 0
M  V30 2135 H 215.445 -0.812835 -3.034 0
M  V30 2136 H 214.638 -2.94791 -4.08796 0
M  V30 2137 H 214.24 -2.90569 -2.35469 0
M  V30 2138 H 216.532 -4.39951 -5.15218 0
M  V30 2139 H 217.475 -5.64548 -4.27424 0
M  V30 2140 H 217.883 -3.91654 -4.06531 0
M  V30 2141 N 217.281 0.66697 -1.42791 0
M  V30 2142 C 218.529 1.42417 -1.43394 0
M  V30 2143 C 218.85 1.94925 -0.0542373 0
M  V30 2144 O 218.12 1.73564 0.908415 0
M  V30 2145 H 216.7 0.528515 -0.527902 0
M  V30 2146 H 219.362 0.787562 -1.78279 0
M  V30 2147 H 218.458 2.27333 -2.13837 0
M  V30 2148 N 218.759 1.29093 0.90403 0
M  V30 2149 C 220.036 1.075 1.63411 0
M  V30 2150 C 220.416 -0.382346 2.07609 0
M  V30 2151 O 219.764 -1.37031 1.82851 0
M  V30 2152 C 219.974 2.05858 2.81822 0
M  V30 2153 C 221.322 2.36539 3.52611 0
M  V30 2154 O 222.346 2.04019 2.91984 0
M  V30 2155 O 221.205 2.92085 4.61897 0
M  V30 2156 H 218.299 0.411547 0.717327 0
M  V30 2157 H 220.845 1.40449 0.952479 0
M  V30 2158 H 219.617 3.04037 2.46327 0
M  V30 2159 H 219.24 1.73613 3.57693 0
M  V30 2160 N 220.237 -1.11381 1.11499 0
M  V30 2161 C 221.467 -1.86663 0.885464 0
M  V30 2162 C 221.875 -1.80464 -0.568281 0
M  V30 2163 O 221.218 -1.18445 -1.40415 0
M  V30 2164 C 221.28 -3.36337 1.26956 0
M  V30 2165 C 220.944 -3.66304 2.73259 0
M  V30 2166 C 221.941 -3.63733 3.71476 0
M  V30 2167 C 219.626 -3.9529 3.09921 0
M  V30 2168 C 221.62 -3.89725 5.04374 0
M  V30 2169 C 219.307 -4.20941 4.43004 0
M  V30 2170 C 220.305 -4.18147 5.40039 0
M  V30 2171 O 219.993 -4.43153 6.70724 0
M  V30 2172 H 219.725 -0.597114 0.316908 0
M  V30 2173 H 222.279 -1.41782 1.48617 0
M  V30 2174 H 220.509 -3.81826 0.611999 0
M  V30 2175 H 222.198 -3.92986 1.01573 0
M  V30 2176 H 222.964 -3.41389 3.44498 0
M  V30 2177 H 218.843 -3.966 2.35009 0
M  V30 2178 H 222.387 -3.8746 5.80104 0
M  V30 2179 H 218.284 -4.42761 4.69716 0
M  V30 2180 H 219.052 -4.60717 6.76522 0
M  V30 2181 N 221.715 -0.905404 -1.28997 0
M  V30 2182 C 222.943 -0.549846 -1.9946 0
M  V30 2183 C 223.358 0.866834 -1.67724 0
M  V30 2184 O 222.715 1.57298 -0.925404 0
M  V30 2185 C 222.766 -0.739387 -3.53858 0
M  V30 2186 O 222.487 -2.10031 -3.84472 0
M  V30 2187 C 223.988 -0.389541 -4.41585 0
M  V30 2188 H 221.208 -0.210429 -0.637151 0
M  V30 2189 H 223.752 -1.21632 -1.64396 0
M  V30 2190 H 221.907 -0.120023 -3.87214 0
M  V30 2191 H 222.321 -2.13385 -4.79132 0
M  V30 2192 H 223.795 -0.572972 -5.49018 0
M  V30 2193 H 224.272 0.673756 -4.34001 0
M  V30 2194 H 224.878 -0.986089 -4.1371 0
M  V30 2195 N 223.193 1.4272 -0.668489 0
M  V30 2196 C 224.47 1.95248 -0.117373 0
M  V30 2197 C 224.85 1.60919 1.36632 0
M  V30 2198 O 224.198 0.902095 2.09939 0
M  V30 2199 C 224.408 3.46927 -0.379806 0
M  V30 2200 C 225.756 4.23588 -0.292923 0
M  V30 2201 O 226.78 3.5482 -0.313204 0
M  V30 2202 O 225.639 5.46017 -0.229697 0
M  V30 2203 H 222.733 0.827 0.00079152 0
M  V30 2204 H 225.279 1.52581 -0.742783 0
M  V30 2205 H 224.051 3.65096 -1.40786 0
M  V30 2206 H 223.674 3.96627 0.277923 0
M  V30 2207 N 224.671 0.411399 1.52136 0
M  V30 2208 C 225.92 -0.165009 2.01024 0
M  V30 2209 C 226.233 -1.4603 1.30133 0
M  V30 2210 O 227.439 -2.1181 1.69849 0
M  V30 2211 C 225.895 -0.344618 3.58246 0
M  V30 2212 C 225.503 0.938716 4.38055 0
M  V30 2213 C 227.247 -0.876195 4.15359 0
M  V30 2214 C 225.154 0.726172 5.86925 0
M  V30 2215 H 224.084 -0.0654407 0.751155 0
M  V30 2216 H 226.735 0.537192 1.75461 0
M  V30 2217 H 225.117 -1.10921 3.80148 0
M  V30 2218 H 226.291 1.70963 4.27912 0
M  V30 2219 H 224.606 1.39688 3.92271 0
M  V30 2220 H 227.203 -1.05128 5.24263 0
M  V30 2221 H 227.546 -1.85152 3.7286 0
M  V30 2222 H 228.079 -0.170607 3.97434 0
M  V30 2223 H 224.818 1.67312 6.33788 0
M  V30 2224 H 224.338 -0.00540283 5.998 0
M  V30 2225 H 226.017 0.369231 6.45946 0
M  V30 2226 N 226.149 -1.5696 0.141893 0
M  V30 2227 C 227.059 -2.20066 -0.812905 0
M  V30 2228 C 228.075 -1.18344 -1.27557 0
M  V30 2229 O 229.251 -1.50902 -1.33381 0
M  V30 2230 C 226.316 -2.80583 -2.03652 0
M  V30 2231 C 225.377 -3.97414 -1.62359 0
M  V30 2232 C 224.61 -4.55036 -2.78887 0
M  V30 2233 O 224.833 -4.11538 -3.94959 0
M  V30 2234 O 223.767 -5.45376 -2.54653 0
M  V30 2235 H 227.593 -3.02157 -0.305746 0
M  V30 2236 H 225.178 -1.49159 -0.0848799 0
M  V30 2237 H 227.06 -3.19067 -2.75272 0
M  V30 2238 H 225.735 -2.01508 -2.5333 0
M  V30 2239 H 224.642 -3.63656 -0.877775 0
M  V30 2240 H 225.975 -4.77994 -1.17401 0
M  V30 2241 N 227.627 0.131896 -1.57047 0
M  V30 2242 C 228.876 0.84044 -1.83356 0
M  V30 2243 C 229.189 1.81646 -0.725535 0
M  V30 2244 O 230.395 2.57025 -0.874659 0
M  V30 2245 C 228.851 1.54528 -3.25037 0
M  V30 2246 C 228.459 0.610902 -4.43815 0
M  V30 2247 C 230.203 2.23972 -3.60606 0
M  V30 2248 C 228.11 1.31823 -5.76521 0
M  V30 2249 H 227.04 0.317599 -0.683847 0
M  V30 2250 H 229.691 0.0931561 -1.83263 0
M  V30 2251 H 228.073 2.33873 -3.19561 0
M  V30 2252 H 229.247 -0.148407 -4.60561 0
M  V30 2253 H 227.562 0.0241016 -4.16393 0
M  V30 2254 H 230.159 2.77558 -4.57018 0
M  V30 2255 H 230.502 3.01173 -2.87403 0
M  V30 2256 H 231.035 1.51529 -3.6781 0
M  V30 2257 H 227.774 0.587771 -6.52859 0
M  V30 2258 H 227.294 2.04987 -5.63685 0
M  V30 2259 H 228.973 1.855 -6.19838 0
M  V30 2260 N 229.106 1.52395 0.401703 0
M  V30 2261 C 230.355 1.66044 1.14509 0
M  V30 2262 C 230.668 0.400216 1.91462 0
M  V30 2263 O 231.874 0.416632 2.68284 0
M  V30 2264 C 230.33 2.93388 2.0845 0
M  V30 2265 C 229.938 4.26545 1.36978 0
M  V30 2266 C 231.682 3.16402 2.83001 0
M  V30 2267 C 229.589 5.45007 2.29611 0
M  V30 2268 H 228.519 0.618562 0.431158 0
M  V30 2269 H 231.17 1.78886 0.40892 0
M  V30 2270 H 229.552 2.74263 2.8565 0
M  V30 2271 H 230.726 4.56179 0.650916 0
M  V30 2272 H 229.041 4.09692 0.74438 0
M  V30 2273 H 231.638 4.02085 3.52465 0
M  V30 2274 H 231.981 2.30943 3.46368 0
M  V30 2275 H 232.514 3.36034 2.12898 0
M  V30 2276 H 229.253 6.32835 1.70879 0
M  V30 2277 H 228.773 5.19702 2.9945 0
M  V30 2278 H 230.452 5.7838 2.89974 0
M  V30 2279 N 230.584 -0.659388 1.43143 0
M  V30 2280 C 231.494 -1.80167 1.50256 0
M  V30 2281 C 232.51 -1.69571 0.390106 0
M  V30 2282 O 233.686 -1.90849 0.643319 0
M  V30 2283 C 230.751 -3.16409 1.41725 0
M  V30 2284 C 229.812 -3.38848 2.63591 0
M  V30 2285 C 229.045 -4.68591 2.55458 0
M  V30 2286 O 229.268 -5.47532 1.59891 0
M  V30 2287 O 228.202 -4.92614 3.45854 0
M  V30 2288 H 232.028 -1.77121 2.46702 0
M  V30 2289 H 229.613 -0.817092 1.25076 0
M  V30 2290 H 231.495 -3.9768 1.39387 0
M  V30 2291 H 230.17 -3.20059 0.484118 0
M  V30 2292 H 229.077 -2.57366 2.71502 0
M  V30 2293 H 230.41 -3.4004 3.55856 0
M  V30 2294 N 232.062 -1.29571 -0.897171 0
M  V30 2295 C 233.025 -1.14913 -1.98312 0
M  V30 2296 C 234.025 -0.0838629 -1.60581 0
M  V30 2297 O 235.215 -0.331006 -1.71026 0
M  V30 2298 C 232.347 -0.757835 -3.3237 0
M  V30 2299 H 233.54 -2.11377 -2.12743 0
M  V30 2300 H 231.093 -1.12793 -1.08201 0
M  V30 2301 H 231.828 0.206837 -3.2364 0
M  V30 2302 H 231.613 -1.52755 -3.61121 0
M  V30 2303 H 233.103 -0.678408 -4.12053 0
M  V30 2304 N 233.54 1.10788 -1.12088 0
M  V30 2305 C 234.49 2.15158 -0.754401 0
M  V30 2306 C 235.474 1.59026 0.244846 0
M  V30 2307 O 236.666 1.76927 0.0509097 0
M  V30 2308 C 233.795 3.42677 -0.206657 0
M  V30 2309 C 232.881 4.05751 -1.23398 0
M  V30 2310 N 233.272 4.43582 -2.43041 0
M  V30 2311 C 231.57 4.32764 -1.07848 0
M  V30 2312 C 232.271 4.93085 -3.08613 0
M  V30 2313 N 231.247 4.89664 -2.36072 0
M  V30 2314 H 235.049 2.42195 -1.6649 0
M  V30 2315 H 232.563 1.27872 -1.00112 0
M  V30 2316 H 234.56 4.16834 0.0740646 0
M  V30 2317 H 233.22 3.17101 0.698342 0
M  V30 2318 H 234.231 4.35395 -2.80449 0
M  V30 2319 H 230.908 4.16863 -0.230483 0
M  V30 2320 H 232.298 5.31933 -4.10483 0
M  V30 2321 N 235.018 0.912232 1.28515 0
M  V30 2322 C 235.968 0.370649 2.24967 0
M  V30 2323 C 236.952 -0.516375 1.52389 0
M  V30 2324 O 238.144 -0.356345 1.73376 0
M  V30 2325 C 235.273 -0.389526 3.41083 0
M  V30 2326 C 234.359 0.51313 4.20984 0
M  V30 2327 N 234.75 1.62604 4.78951 0
M  V30 2328 C 233.048 0.313235 4.44899 0
M  V30 2329 C 233.749 2.18619 5.39055 0
M  V30 2330 N 232.725 1.47765 5.23132 0
M  V30 2331 H 236.527 1.22061 2.67354 0
M  V30 2332 H 234.041 0.764712 1.43269 0
M  V30 2333 H 236.038 -0.794353 4.09262 0
M  V30 2334 H 234.698 -1.2366 3.0023 0
M  V30 2335 H 235.709 2.00864 4.77362 0
M  V30 2336 H 232.386 -0.494452 4.14562 0
M  V30 2337 H 233.776 3.12228 5.94948 0
M  V30 2338 N 236.496 -1.42363 0.676048 0
M  V30 2339 C 237.912 -1.55811 0.345718 0
M  V30 2340 C 238.112 -1.65544 -1.14879 0
M  V30 2341 O 237.168 -1.62306 -1.93424 0
M  V30 2342 C 238.481 -2.80746 1.07713 0
M  V30 2343 C 240.029 -2.9452 1.05958 0
M  V30 2344 C 240.504 -4.22318 1.77233 0
M  V30 2345 N 241.995 -4.29233 1.74108 0
M  V30 2346 C 242.73 -5.26935 2.26113 0
M  V30 2347 N 242.226 -6.30783 2.86505 0
M  V30 2348 N 244.019 -5.18741 2.1648 0
M  V30 2349 H 236.17 -1.34289 1.6456 0
M  V30 2350 H 238.433 -0.646506 0.69335 0
M  V30 2351 H 238.139 -2.79696 2.13221 0
M  V30 2352 H 238.013 -3.71676 0.64316 0
M  V30 2353 H 240.4 -2.95097 0.0128255 0
M  V30 2354 H 240.481 -2.04817 1.53244 0
M  V30 2355 H 240.125 -4.22502 2.81877 0
M  V30 2356 H 240.055 -5.10958 1.27396 0
M  V30 2357 H 242.546 -3.54814 1.30059 0
M  V30 2358 H 242.859 -7.01691 3.23805 0
M  V30 2359 H 241.204 -6.31341 2.90575 0
M  V30 2360 H 244.395 -4.36533 1.68987 0
M  V30 2361 H 244.568 -5.94721 2.57316 0
M  V30 2362 N 237.974 -0.419461 -1.51915 0
M  V30 2363 C 238.924 0.418496 -2.24126 0
M  V30 2364 C 239.908 1.00495 -1.25656 0
M  V30 2365 O 241.1 0.926058 -1.50842 0
M  V30 2366 C 238.229 1.52899 -3.07371 0
M  V30 2367 C 237.315 0.952797 -4.13258 0
M  V30 2368 N 237.706 0.104175 -5.05693 0
M  V30 2369 C 236.004 1.22224 -4.28926 0
M  V30 2370 C 236.705 -0.21752 -5.81293 0
M  V30 2371 N 235.681 0.394293 -5.42168 0
M  V30 2372 H 239.483 -0.236048 -2.92951 0
M  V30 2373 H 236.997 -0.230481 -1.60756 0
M  V30 2374 H 238.994 2.14199 -3.57665 0
M  V30 2375 H 237.654 2.18605 -2.40088 0
M  V30 2376 H 238.665 -0.260924 -5.17242 0
M  V30 2377 H 235.342 1.87812 -3.72871 0
M  V30 2378 H 236.732 -0.906992 -6.6575 0
M  V30 2379 N 239.452 1.56882 -0.150215 0
M  V30 2380 C 240.399 2.16922 0.788244 0
M  V30 2381 C 241.369 1.10303 1.24187 0
M  V30 2382 O 242.554 1.38359 1.31383 0
M  V30 2383 C 239.694 2.79754 2.02068 0
M  V30 2384 C 238.807 4.00775 1.61257 0
M  V30 2385 C 237.942 4.51595 2.79705 0
M  V30 2386 C 236.981 5.65074 2.35282 0
M  V30 2387 N 236.118 6.10499 3.4675 0
M  V30 2388 H 240.958 2.96779 0.269444 0
M  V30 2389 H 238.495 1.46599 0.12128 0
M  V30 2390 H 240.453 3.14329 2.74323 0
M  V30 2391 H 239.083 2.02536 2.51354 0
M  V30 2392 H 238.135 3.72158 0.787553 0
M  V30 2393 H 239.447 4.82978 1.24633 0
M  V30 2394 H 238.601 4.88242 3.60145 0
M  V30 2395 H 237.34 3.68406 3.19576 0
M  V30 2396 H 236.345 5.28 1.53283 0
M  V30 2397 H 237.57 6.50052 1.96493 0
M  V30 2398 H 235.516 5.30243 3.86236 0
M  V30 2399 H 235.433 6.87637 3.14152 0
M  V30 2400 H 236.701 6.51791 4.27537 0
M  V30 2401 N 240.93 -0.123565 1.57115 0
M  V30 2402 C 242.176 -0.833386 1.84885 0
M  V30 2403 C 242.509 -1.79742 0.735292 0
M  V30 2404 O 241.784 -1.92764 -0.25925 0
M  V30 2405 C 242.067 -1.5873 3.23228 0
M  V30 2406 C 241.92 -0.643183 4.45178 0
M  V30 2407 C 243.239 -2.54453 3.59085 0
M  V30 2408 H 240.358 -0.301518 0.6725 0
M  V30 2409 H 243 -0.097778 1.89748 0
M  V30 2410 H 241.15 -2.21438 3.19214 0
M  V30 2411 H 242.822 -0.0253015 4.61293 0
M  V30 2412 H 241.065 0.0456139 4.33776 0
M  V30 2413 H 241.736 -1.20724 5.38637 0
M  V30 2414 H 244.212 -2.01853 3.63861 0
M  V30 2415 H 243.088 -3.04238 4.5687 0
M  V30 2416 H 243.349 -3.36906 2.86264 0
M  V30 2417 N 242.408 -1.52605 -0.393616 0
M  V30 2418 C 243.685 -1.58001 -1.15304 0
M  V30 2419 C 244.065 -0.370385 -2.07825 0
M  V30 2420 O 243.413 0.641638 -2.19306 0
M  V30 2421 C 243.623 -2.91652 -1.91677 0
M  V30 2422 C 244.971 -3.4522 -2.47201 0
M  V30 2423 O 245.995 -2.93495 -2.01839 0
M  V30 2424 O 244.854 -4.35579 -3.3005 0
M  V30 2425 H 241.948 -0.637068 -0.527327 0
M  V30 2426 H 244.494 -1.64939 -0.399141 0
M  V30 2427 H 243.266 -3.71136 -1.23992 0
M  V30 2428 H 242.889 -2.88077 -2.74039 0
M  V30 2429 N 243.887 0.651787 -1.4349 0
M  V30 2430 C 244.85 1.74647 -1.48429 0
M  V30 2431 C 245.85 1.56513 -0.368817 0
M  V30 2432 O 247.04 1.62385 -0.630623 0
M  V30 2433 C 244.172 3.13533 -1.33827 0
M  V30 2434 H 245.365 1.71649 -2.4592 0
M  V30 2435 H 242.918 0.863573 -1.30277 0
M  V30 2436 H 243.653 3.22142 -0.37349 0
M  V30 2437 H 243.438 3.28101 -2.14691 0
M  V30 2438 H 244.928 3.93356 -1.40218 0
M  V30 2439 N 245.365 1.30045 0.890287 0
M  V30 2440 C 246.776 1.16738 1.45702 0
M  V30 2441 C 247.127 -0.233939 1.948 0
M  V30 2442 O 246.252 -1.13021 1.84541 0
M  V30 2443 C 246.847 2.11313 2.64825 0
M  V30 2444 C 245.406 2.02001 3.17604 0
M  V30 2445 C 244.553 2.01699 1.90296 0
M  V30 2446 H 247.504 1.42392 0.700726 0
M  V30 2447 H 247.525 1.69086 3.40867 0
M  V30 2448 H 247.037 3.13294 2.2906 0
M  V30 2449 H 245.138 1.03142 3.5804 0
M  V30 2450 H 245.251 2.90128 3.81264 0
M  V30 2451 H 243.615 1.46427 2.08402 0
M  V30 2452 H 244.398 3.05402 1.56795 0
M  V30 2453 N 246.843 -1.10192 1.12674 0
M  V30 2454 C 248.068 -1.86523 0.906853 0
M  V30 2455 C 248.493 -1.80221 -0.538711 0
M  V30 2456 O 247.851 -1.17396 -1.38158 0
M  V30 2457 C 247.899 -3.32758 1.3894 0
M  V30 2458 O 247.003 -4.08449 0.5695 0
M  V30 2459 H 246.344 -0.578678 0.325619 0
M  V30 2460 H 248.874 -1.39203 1.49946 0
M  V30 2461 H 248.884 -3.83608 1.38958 0
M  V30 2462 H 247.559 -3.36661 2.44197 0
M  V30 2463 H 246.136 -3.67427 0.636528 0
M  V30 2464 N 248.321 -0.919034 -1.28029 0
M  V30 2465 C 249.569 -0.553838 -1.94363 0
M  V30 2466 C 249.89 0.906357 -1.72656 0
M  V30 2467 O 249.16 1.64143 -1.0693 0
M  V30 2468 H 247.74 -0.201834 -0.719216 0
M  V30 2469 H 250.402 -1.16954 -1.55909 0
M  V30 2470 H 249.498 -0.752758 -3.02886 0
M  V30 2471 N 249.799 1.42003 -0.683588 0
M  V30 2472 C 251.027 2.05746 -0.218182 0
M  V30 2473 C 251.442 1.51396 1.12804 0
M  V30 2474 O 250.799 0.657303 1.70252 0
M  V30 2475 C 250.85 3.61171 -0.154131 0
M  V30 2476 O 250.571 4.13508 -1.44716 0
M  V30 2477 C 252.072 4.42042 0.333713 0
M  V30 2478 H 249.292 0.662888 -0.10402 0
M  V30 2479 H 251.836 1.81987 -0.9328 0
M  V30 2480 H 249.991 3.84012 0.511231 0
M  V30 2481 H 250.405 5.07453 -1.32632 0
M  V30 2482 H 251.879 5.51028 0.327423 0
M  V30 2483 H 252.356 4.17269 1.37053 0
M  V30 2484 H 252.962 4.24239 -0.300222 0
M  V30 2485 N 251.277 0.427512 1.51691 0
M  V30 2486 C 252.24 -0.377132 2.26076 0
M  V30 2487 C 253.24 -0.958089 1.29141 0
M  V30 2488 O 254.43 -0.83408 1.52934 0
M  V30 2489 C 251.562 -1.53262 3.04506 0
M  V30 2490 H 252.755 0.27464 2.9864 0
M  V30 2491 H 250.308 0.180445 1.55255 0
M  V30 2492 H 251.043 -2.22072 2.36335 0
M  V30 2493 H 250.828 -1.12232 3.75694 0
M  V30 2494 H 252.318 -2.10135 3.60878 0
M  V30 2495 N 252.755 -1.56801 0.158532 0
M  V30 2496 C 253.685 -2.20347 -0.772609 0
M  V30 2497 C 254.666 -1.15518 -1.24859 0
M  V30 2498 O 255.851 -1.43902 -1.30406 0
M  V30 2499 C 252.981 -2.83417 -2.00729 0
M  V30 2500 C 251.935 -3.94174 -1.66765 0
M  V30 2501 C 251.261 -4.44233 -2.97592 0
M  V30 2502 C 252.561 -5.14392 -0.905447 0
M  V30 2503 H 254.255 -2.98413 -0.242959 0
M  V30 2504 H 251.801 -1.43537 -0.115419 0
M  V30 2505 H 253.754 -3.26543 -2.6636 0
M  V30 2506 H 252.478 -2.02701 -2.56086 0
M  V30 2507 H 251.137 -3.51684 -1.03508 0
M  V30 2508 H 250.785 -3.60325 -3.50963 0
M  V30 2509 H 250.485 -5.18945 -2.75626 0
M  V30 2510 H 252.009 -4.90037 -3.64274 0
M  V30 2511 H 253.423 -5.5429 -1.46408 0
M  V30 2512 H 251.82 -5.9494 -0.7853 0
M  V30 2513 H 252.89 -4.84795 0.100668 0
M  V30 2514 N 254.233 0.115231 -1.57178 0
M  V30 2515 C 255.196 1.12526 -1.99676 0
M  V30 2516 C 256.196 1.34095 -0.88742 0
M  V30 2517 O 257.386 1.30548 -1.15337 0
M  V30 2518 C 254.518 2.4789 -2.34015 0
M  V30 2519 H 255.711 0.759912 -2.90113 0
M  V30 2520 H 253.264 0.359648 -1.52106 0
M  V30 2521 H 253.999 2.89339 -1.4647 0
M  V30 2522 H 253.784 2.33588 -3.14927 0
M  V30 2523 H 255.274 3.20575 -2.67622 0
M  V30 2524 N 255.711 1.52812 0.385517 0
M  V30 2525 C 256.644 1.72592 1.49289 0
M  V30 2526 C 257.622 0.573819 1.52138 0
M  V30 2527 O 258.806 0.80404 1.70492 0
M  V30 2528 C 255.933 1.78669 2.87741 0
M  V30 2529 C 254.979 3.00455 3.02703 0
M  V30 2530 S 255.812 4.60366 2.73538 0
M  V30 2531 C 256.968 4.69263 4.14177 0
M  V30 2532 H 257.201 2.66248 1.32285 0
M  V30 2533 H 254.734 1.43148 0.578611 0
M  V30 2534 H 256.692 1.82855 3.67524 0
M  V30 2535 H 255.353 0.861 3.02069 0
M  V30 2536 H 254.546 3.01258 4.04054 0
M  V30 2537 H 254.148 2.94278 2.30817 0
M  V30 2538 H 256.44 4.48092 5.08153 0
M  V30 2539 H 257.383 5.71276 4.18388 0
M  V30 2540 H 257.791 3.98072 4.00249 0
M  V30 2541 N 257.189 -0.644168 1.43834 0
M  V30 2542 C 258.437 -1.40117 1.45642 0
M  V30 2543 C 258.758 -1.94814 0.0852413 0
M  V30 2544 O 258.028 -1.74988 -0.880688 0
M  V30 2545 H 256.608 -0.52005 0.536243 0
M  V30 2546 H 259.27 -0.7591 1.7951 0
M  V30 2547 H 258.366 -2.23902 2.17427 0
M  V30 2548 N 258.668 -1.30515 -0.883378 0
M  V30 2549 C 259.578 -1.18959 -2.02203 0
M  V30 2550 C 260.594 -0.109172 -1.73657 0
M  V30 2551 O 261.77 -0.324413 -1.9877 0
M  V30 2552 C 258.835 -0.883871 -3.35244 0
M  V30 2553 C 257.896 -2.04982 -3.77201 0
M  V30 2554 C 257.129 -1.75859 -5.03894 0
M  V30 2555 O 257.352 -0.687276 -5.66244 0
M  V30 2556 O 256.286 -2.61146 -5.42297 0
M  V30 2557 H 260.112 -2.14616 -2.1488 0
M  V30 2558 H 257.697 -1.10124 -1.0096 0
M  V30 2559 H 259.579 -0.728644 -4.15053 0
M  V30 2560 H 258.254 0.0427798 -3.23672 0
M  V30 2561 H 257.161 -2.26038 -2.9809 0
M  V30 2562 H 258.494 -2.95825 -3.93381 0
M  V30 2563 N 260.146 1.09593 -1.13257 0
M  V30 2564 C 261.109 2.14359 -0.811358 0
M  V30 2565 C 262.109 1.59808 0.178377 0
M  V30 2566 O 263.299 1.74132 -0.0484911 0
M  V30 2567 C 260.431 3.40269 -0.207276 0
M  V30 2568 H 261.624 2.44284 -1.73969 0
M  V30 2569 H 259.177 1.25102 -0.936973 0
M  V30 2570 H 259.912 3.15969 0.73036 0
M  V30 2571 H 259.697 3.81154 -0.919992 0
M  V30 2572 H 261.187 4.176 0.000667944 0
M  V30 2573 N 261.624 0.925811 1.2754 0
M  V30 2574 C 262.873 0.561084 1.93739 0
M  V30 2575 C 263.186 -0.901685 1.73577 0
M  V30 2576 O 264.392 -1.37511 2.34101 0
M  V30 2577 C 262.848 0.952668 3.47062 0
M  V30 2578 C 262.456 2.43599 3.75983 0
M  V30 2579 C 264.2 0.659103 4.19352 0
M  V30 2580 C 262.107 2.76707 5.22673 0
M  V30 2581 H 261.037 0.206122 0.725279 0
M  V30 2582 H 263.688 1.12637 1.44863 0
M  V30 2583 H 262.07 0.316053 3.94737 0
M  V30 2584 H 263.244 3.12035 3.39073 0
M  V30 2585 H 261.559 2.70125 3.16893 0
M  V30 2586 H 264.156 0.882985 5.27359 0
M  V30 2587 H 264.499 -0.403607 4.14339 0
M  V30 2588 H 265.032 1.25473 3.77494 0
M  V30 2589 H 261.771 3.8188 5.32774 0
M  V30 2590 H 261.291 2.12919 5.60737 0
M  V30 2591 H 262.97 2.6435 5.90532 0
M  V30 2592 N 263.102 -1.41638 0.69111 0
M  V30 2593 C 264.065 -2.29178 0.0319786 0
M  V30 2594 C 265.065 -1.44153 -0.712496 0
M  V30 2595 O 266.255 -1.65354 -0.548053 0
M  V30 2596 C 263.387 -3.26952 -0.965161 0
M  V30 2597 H 264.58 -2.88959 0.802681 0
M  V30 2598 H 262.133 -1.4955 0.454356 0
M  V30 2599 H 262.868 -2.72142 -1.76378 0
M  V30 2600 H 262.653 -3.89685 -0.434522 0
M  V30 2601 H 264.143 -3.92561 -1.42428 0
M  V30 2602 N 264.58 -0.43555 -1.51462 0
M  V30 2603 C 265.53 0.394701 -2.24558 0
M  V30 2604 C 266.514 0.99157 -1.26715 0
M  V30 2605 O 267.706 0.910007 -1.51815 0
M  V30 2606 C 264.835 1.4963 -3.08975 0
M  V30 2607 C 263.921 0.908912 -4.14246 0
M  V30 2608 N 264.312 0.0505335 -5.05775 0
M  V30 2609 C 262.61 1.17668 -4.30198 0
M  V30 2610 C 263.311 -0.279161 -5.8103 0
M  V30 2611 N 262.287 0.336767 -5.42556 0
M  V30 2612 H 266.089 -0.267106 -2.92684 0
M  V30 2613 H 263.603 -0.247518 -1.60503 0
M  V30 2614 H 265.6 2.10394 -3.59917 0
M  V30 2615 H 264.26 2.16046 -2.42393 0
M  V30 2616 H 265.271 -0.31577 -5.16936 0
M  V30 2617 H 261.948 1.83847 -3.74842 0
M  V30 2618 H 263.338 -0.977553 -6.64751 0
M  V30 2619 N 266.058 1.56714 -0.166846 0
M  V30 2620 C 267.021 2.16539 0.751232 0
M  V30 2621 C 268.021 1.11228 1.16125 0
M  V30 2622 O 269.211 1.36765 1.07894 0
M  V30 2623 C 266.343 2.74462 2.02196 0
M  V30 2624 H 267.536 2.99013 0.230499 0
M  V30 2625 H 265.089 1.56081 0.0826982 0
M  V30 2626 H 265.824 1.95709 2.58589 0
M  V30 2627 H 265.609 3.51527 1.73698 0
M  V30 2628 H 267.099 3.20489 2.67725 0
M  V30 2629 N 267.536 -0.106894 1.57237 0
M  V30 2630 C 268.466 -1.13148 2.04254 0
M  V30 2631 C 269.447 -1.42476 0.929224 0
M  V30 2632 O 270.632 -1.52709 1.19973 0
M  V30 2633 C 267.762 -2.4545 2.45706 0
M  V30 2634 C 266.716 -2.30558 3.60592 0
M  V30 2635 C 266.042 -3.67931 3.87983 0
M  V30 2636 C 267.342 -1.75597 4.91897 0
M  V30 2637 H 269.036 -0.740374 2.90101 0
M  V30 2638 H 266.582 -0.354696 1.39563 0
M  V30 2639 H 268.535 -3.17389 2.77205 0
M  V30 2640 H 267.259 -2.86475 1.56843 0
M  V30 2641 H 265.918 -1.61067 3.29322 0
M  V30 2642 H 265.566 -4.06462 2.96306 0
M  V30 2643 H 265.266 -3.58817 4.65322 0
M  V30 2644 H 266.79 -4.41356 4.21945 0
M  V30 2645 H 268.204 -2.37364 5.21854 0
M  V30 2646 H 266.601 -1.77272 5.73319 0
M  V30 2647 H 267.671 -0.714451 4.79608 0
M  V30 2648 N 269.014 -1.53014 -0.377408 0
M  V30 2649 C 270.291 -1.59215 -1.13622 0
M  V30 2650 C 270.671 -0.392407 -2.07421 0
M  V30 2651 O 270.019 0.618342 -2.19975 0
M  V30 2652 C 270.229 -2.93669 -1.88573 0
M  V30 2653 C 271.577 -3.47822 -2.43526 0
M  V30 2654 O 272.601 -2.9562 -1.98715 0
M  V30 2655 O 271.46 -4.39055 -3.25412 0
M  V30 2656 H 268.554 -0.642625 -0.52054 0
M  V30 2657 H 271.1 -1.65353 -0.381625 0
M  V30 2658 H 269.872 -3.7243 -1.20048 0
M  V30 2659 H 269.495 -2.90968 -2.70968 0
M  V30 2660 N 270.492 0.636531 -1.44174 0
M  V30 2661 C 271.439 1.74875 -1.50624 0
M  V30 2662 C 272.409 1.62275 -0.35442 0
M  V30 2663 O 273.594 1.82276 -0.563908 0
M  V30 2664 C 270.734 3.13102 -1.45125 0
M  V30 2665 C 269.847 3.36717 -2.7064 0
M  V30 2666 C 268.982 4.64885 -2.57013 0
M  V30 2667 C 268.021 4.8166 -3.77717 0
M  V30 2668 N 267.158 6.01101 -3.62798 0
M  V30 2669 H 271.998 1.68697 -2.45653 0
M  V30 2670 H 269.535 0.823004 -1.21922 0
M  V30 2671 H 271.493 3.93034 -1.39929 0
M  V30 2672 H 270.123 3.18308 -0.536671 0
M  V30 2673 H 269.175 2.50763 -2.86046 0
M  V30 2674 H 270.487 3.44993 -3.60252 0
M  V30 2675 H 269.641 5.52969 -2.49619 0
M  V30 2676 H 268.38 4.58957 -1.64953 0
M  V30 2677 H 267.385 3.92007 -3.85501 0
M  V30 2678 H 268.61 4.89406 -4.70807 0
M  V30 2679 H 266.556 5.96273 -2.73486 0
M  V30 2680 H 266.473 6.10409 -4.46023 0
M  V30 2681 H 267.741 6.91761 -3.59286 0
M  V30 2682 N 271.97 1.30982 0.876444 0
M  V30 2683 C 273.247 1.10942 1.61094 0
M  V30 2684 C 273.627 -0.338223 2.08373 0
M  V30 2685 O 272.975 -1.33122 1.85717 0
M  V30 2686 C 273.185 2.11789 2.77392 0
M  V30 2687 C 274.533 2.43965 3.47514 0
M  V30 2688 O 275.557 2.10166 2.87591 0
M  V30 2689 O 274.416 3.01817 4.55597 0
M  V30 2690 H 271.51 0.42667 0.708436 0
M  V30 2691 H 274.056 1.42438 0.922474 0
M  V30 2692 H 272.828 3.09194 2.39823 0
M  V30 2693 H 272.451 1.81161 3.5393 0
M  V30 2694 N 273.449 -1.08991 1.13837 0
M  V30 2695 C 274.379 -2.17771 0.842507 0
M  V30 2696 C 275.36 -1.6892 -0.20001 0
M  V30 2697 O 276.545 -1.94113 -0.0579731 0
M  V30 2698 C 273.675 -3.4589 0.312644 0
M  V30 2699 C 272.629 -4.08099 1.28992 0
M  V30 2700 C 271.955 -5.31098 0.619623 0
M  V30 2701 C 273.255 -4.50077 2.65005 0
M  V30 2702 H 274.949 -2.42777 1.75213 0
M  V30 2703 H 272.495 -1.16682 0.843875 0
M  V30 2704 H 274.448 -4.21297 0.0933043 0
M  V30 2705 H 273.172 -3.20419 -0.632382 0
M  V30 2706 H 271.831 -3.34717 1.49533 0
M  V30 2707 H 271.479 -5.0191 -0.33102 0
M  V30 2708 H 271.179 -5.73674 1.27167 0
M  V30 2709 H 272.703 -6.09224 0.409669 0
M  V30 2710 H 274.117 -5.16688 2.48407 0
M  V30 2711 H 272.514 -5.03553 3.26427 0
M  V30 2712 H 273.584 -3.62257 3.22332 0
M  V30 2713 N 274.927 -0.932562 -1.27047 0
M  V30 2714 C 275.874 -0.434072 -2.26681 0
M  V30 2715 C 276.844 0.501639 -1.58344 0
M  V30 2716 O 278.029 0.419734 -1.86126 0
M  V30 2717 C 275.169 0.30261 -3.43771 0
M  V30 2718 C 274.282 -0.667774 -4.26808 0
M  V30 2719 C 273.417 0.0892393 -5.31125 0
M  V30 2720 C 272.456 -0.873532 -6.05835 0
M  V30 2721 N 271.593 -0.148832 -7.01942 0
M  V30 2722 H 276.433 -1.28868 -2.68695 0
M  V30 2723 H 273.97 -0.646713 -1.32121 0
M  V30 2724 H 275.928 0.746092 -4.10474 0
M  V30 2725 H 274.558 1.12142 -3.02695 0
M  V30 2726 H 273.61 -1.22978 -3.59973 0
M  V30 2727 H 274.922 -1.40337 -4.78651 0
M  V30 2728 H 274.076 0.592409 -6.03801 0
M  V30 2729 H 272.815 0.85777 -4.80097 0
M  V30 2730 H 271.82 -1.38791 -5.31994 0
M  V30 2731 H 273.045 -1.64193 -6.58952 0
M  V30 2732 H 270.991 0.601365 -6.53238 0
M  V30 2733 H 270.908 -0.82391 -7.51497 0
M  V30 2734 H 272.176 0.333527 -7.78786 0
M  V30 2735 N 276.405 1.4127 -0.698611 0
M  V30 2736 C 277.682 1.94955 -0.158762 0
M  V30 2737 C 278.062 1.63781 1.33188 0
M  V30 2738 O 277.41 0.946423 2.07979 0
M  V30 2739 C 277.62 3.46044 -0.453309 0
M  V30 2740 C 278.968 4.22872 -0.382707 0
M  V30 2741 O 279.992 3.54076 -0.388396 0
M  V30 2742 O 278.851 5.45407 -0.345463 0
M  V30 2743 H 275.945 0.82683 -0.0167505 0
M  V30 2744 H 278.491 1.50971 -0.77498 0
M  V30 2745 H 277.263 3.62028 -1.48498 0
M  V30 2746 H 276.886 3.97128 0.19373 0
M  V30 2747 N 277.883 0.443576 1.51229 0
M  V30 2748 C 279.123 -0.119889 2.04048 0
M  V30 2749 C 279.487 -1.39418 1.32009 0
M  V30 2750 O 280.688 -2.03829 1.75235 0
M  V30 2751 C 278.959 -0.327233 3.55899 0
M  V30 2752 S 280.518 -0.853208 4.30425 0
M  V30 2753 H 277.336 -0.028921 0.710412 0
M  V30 2754 H 279.938 0.604413 1.85922 0
M  V30 2755 H 278.642 0.606445 4.05895 0
M  V30 2756 H 278.173 -1.07844 3.7833 0
M  V30 2757 H 280.188 -2.13005 4.48155 0
M  V30 2758 N 279.361 -1.56624 0.175154 0
M  V30 2759 C 280.324 -2.16934 -0.739738 0
M  V30 2760 C 281.324 -1.11842 -1.15533 0
M  V30 2761 O 282.514 -1.37335 -1.07167 0
M  V30 2762 C 279.646 -2.75531 -2.00738 0
M  V30 2763 H 280.839 -2.99131 -0.214639 0
M  V30 2764 H 278.392 -1.56123 -0.0744197 0
M  V30 2765 H 279.127 -1.97078 -2.57548 0
M  V30 2766 H 278.912 -3.52444 -1.71831 0
M  V30 2767 H 280.402 -3.21904 -2.66021 0
M  V30 2768 N 280.839 0.0985539 -1.57292 0
M  V30 2769 C 282.085 0.803867 -1.86188 0
M  V30 2770 C 282.418 1.78549 -0.763794 0
M  V30 2771 O 281.693 1.93153 0.22855 0
M  V30 2772 C 281.976 1.53568 -3.25713 0
M  V30 2773 C 281.829 0.572277 -4.46145 0
M  V30 2774 C 283.148 2.48708 -3.63087 0
M  V30 2775 H 280.267 0.290781 -0.677211 0
M  V30 2776 H 282.909 0.0675783 -1.8988 0
M  V30 2777 H 281.059 2.16332 -3.22696 0
M  V30 2778 H 282.731 -0.0480894 -4.61275 0
M  V30 2779 H 280.974 -0.114618 -4.33649 0
M  V30 2780 H 281.645 1.12139 -5.40489 0
M  V30 2781 H 284.121 1.96039 -3.67026 0
M  V30 2782 H 282.997 2.96932 -4.61652 0
M  V30 2783 H 283.258 3.32309 -2.91588 0
M  V30 2784 N 282.317 1.53212 0.369288 0
M  V30 2785 C 283.547 1.72868 1.13139 0
M  V30 2786 C 283.955 0.455754 1.83629 0
M  V30 2787 O 283.298 -0.580861 1.74275 0
M  V30 2788 C 283.36 2.83667 2.20847 0
M  V30 2789 C 283.024 4.24142 1.70155 0
M  V30 2790 C 284.021 5.06619 1.16763 0
M  V30 2791 C 281.706 4.70539 1.7578 0
M  V30 2792 C 283.7 6.33581 0.696678 0
M  V30 2793 C 281.387 5.97481 1.28297 0
M  V30 2794 C 282.385 6.78833 0.753307 0
M  V30 2795 O 282.073 8.03393 0.285475 0
M  V30 2796 H 281.805 0.581707 0.344373 0
M  V30 2797 H 284.359 2.00736 0.435243 0
M  V30 2798 H 282.589 2.51265 2.93944 0
M  V30 2799 H 284.278 2.91536 2.82421 0
M  V30 2800 H 285.044 4.71948 1.11758 0
M  V30 2801 H 280.923 4.07293 2.15949 0
M  V30 2802 H 284.467 6.97027 0.282581 0
M  V30 2803 H 280.364 6.31651 1.32994 0
M  V30 2804 H 281.132 8.17497 0.405145 0
M  V30 2805 N 283.795 -0.628877 1.44509 0
M  V30 2806 C 285.02 -1.42048 1.5112 0
M  V30 2807 C 285.445 -1.87594 0.137818 0
M  V30 2808 O 284.803 -1.58873 -0.873437 0
M  V30 2809 C 284.851 -2.61541 2.48251 0
M  V30 2810 O 283.955 -3.61453 1.98559 0
M  V30 2811 H 283.296 -0.424942 0.510216 0
M  V30 2812 H 285.826 -0.767374 1.89664 0
M  V30 2813 H 285.836 -3.09057 2.66361 0
M  V30 2814 H 284.511 -2.27736 3.48007 0
M  V30 2815 H 283.088 -3.20731 1.90227 0
M  V30 2816 N 285.273 -1.31445 -0.869486 0
M  V30 2817 C 286.689 -1.10113 -1.15531 0
M  V30 2818 C 286.889 0.128087 -2.01092 0
M  V30 2819 O 285.945 0.817276 -2.38908 0
M  V30 2820 C 287.258 -2.37291 -1.84698 0
M  V30 2821 C 288.806 -2.42906 -1.97397 0
M  V30 2822 C 289.281 -3.69967 -2.69979 0
M  V30 2823 N 290.772 -3.70864 -2.77514 0
M  V30 2824 C 291.507 -4.65875 -3.34287 0
M  V30 2825 N 291.003 -5.71242 -3.91988 0
M  V30 2826 N 292.796 -4.53394 -3.3225 0
M  V30 2827 H 284.947 -2.1028 -0.299347 0
M  V30 2828 H 287.21 -0.927683 -0.195214 0
M  V30 2829 H 286.916 -3.27078 -1.29278 0
M  V30 2830 H 286.79 -2.47125 -2.84972 0
M  V30 2831 H 289.177 -1.53588 -2.51982 0
M  V30 2832 H 289.258 -2.37036 -0.961643 0
M  V30 2833 H 288.902 -4.59652 -2.16062 0
M  V30 2834 H 288.832 -3.73103 -3.7162 0
M  V30 2835 H 291.323 -2.94697 -2.36563 0
M  V30 2836 H 291.636 -6.39817 -4.33421 0
M  V30 2837 H 289.981 -5.75015 -3.90362 0
M  V30 2838 H 293.172 -3.70252 -2.8641 0
M  V30 2839 H 293.345 -5.27617 -3.76197 0
M  V30 2840 N 286.751 1.08385 -1.14413 0
M  V30 2841 C 287.661 2.18856 -0.844951 0
M  V30 2842 C 288.677 1.73121 0.174668 0
M  V30 2843 O 289.853 2.014 0.00312857 0
M  V30 2844 C 286.918 3.45155 -0.32696 0
M  V30 2845 C 285.979 4.05513 -1.40916 0
M  V30 2846 C 285.212 5.25784 -0.915793 0
M  V30 2847 O 285.435 5.69884 0.242651 0
M  V30 2848 O 284.369 5.77545 -1.69487 0
M  V30 2849 H 288.195 2.46919 -1.76818 0
M  V30 2850 H 285.78 1.17524 -0.922411 0
M  V30 2851 H 287.662 4.21377 -0.0440211 0
M  V30 2852 H 286.337 3.18668 0.568539 0
M  V30 2853 H 285.244 3.30879 -1.74556 0
M  V30 2854 H 286.577 4.3625 -2.27919 0
M  V30 2855 N 288.23 0.939286 1.26551 0
M  V30 2856 C 289.478 0.58469 1.93457 0
M  V30 2857 C 289.799 -0.878774 1.74076 0
M  V30 2858 O 289.069 -1.62421 1.09528 0
M  V30 2859 H 287.649 0.21325 0.715914 0
M  V30 2860 H 290.311 1.1942 1.54029 0
M  V30 2861 H 289.407 0.800849 3.0165 0
M  V30 2862 N 289.708 -1.40897 0.706093 0
M  V30 2863 C 290.658 -2.27987 0.0240746 0
M  V30 2864 C 291.642 -1.42759 -0.742204 0
M  V30 2865 O 292.834 -1.65936 -0.615966 0
M  V30 2866 C 289.963 -3.31186 -0.903907 0
M  V30 2867 C 289.049 -4.2389 -0.133318 0
M  V30 2868 N 289.44 -4.98113 0.878444 0
M  V30 2869 C 287.738 -4.44485 -0.367269 0
M  V30 2870 C 288.439 -5.6604 1.34064 0
M  V30 2871 N 287.415 -5.39522 0.664565 0
M  V30 2872 H 291.217 -2.82812 0.799658 0
M  V30 2873 H 288.731 -1.53235 0.537845 0
M  V30 2874 H 290.728 -3.92413 -1.40775 0
M  V30 2875 H 289.388 -2.77922 -1.67897 0
M  V30 2876 H 290.399 -5.02364 1.25901 0
M  V30 2877 H 287.076 -4.02213 -1.1194 0
M  V30 2878 H 288.466 -6.35524 2.1808 0
M  V30 2879 N 291.186 -0.45159 -1.50991 0
M  V30 2880 C 292.414 0.108334 -2.06616 0
M  V30 2881 C 292.829 1.35224 -1.31757 0
M  V30 2882 O 292.186 1.78475 -0.381174 0
M  V30 2883 C 292.237 0.41619 -3.59096 0
M  V30 2884 O 291.958 -0.778361 -4.3113 0
M  V30 2885 C 293.459 1.02523 -4.31282 0
M  V30 2886 H 290.679 0.00159995 -0.670998 0
M  V30 2887 H 293.223 -0.634771 -1.94399 0
M  V30 2888 H 291.378 1.10921 -3.71181 0
M  V30 2889 H 291.792 -0.511181 -5.22003 0
M  V30 2890 H 293.266 1.19053 -5.39009 0
M  V30 2891 H 293.743 2.01013 -3.905 0
M  V30 2892 H 294.349 0.371173 -4.23677 0
M  V30 2893 N 292.664 1.56529 -0.183458 0
M  V30 2894 C 293.912 1.96855 0.457452 0
M  V30 2895 C 294.233 1.07104 1.62953 0
M  V30 2896 O 293.503 0.139887 1.954 0
M  V30 2897 H 292.083 0.72693 0.171992 0
M  V30 2898 H 294.745 1.93056 -0.267476 0
M  V30 2899 H 293.841 3.01423 0.809368 0
M  V30 2900 N 294.142 -0.090211 1.57342 0
M  V30 2901 C 295.052 -1.12735 2.05738 0
M  V30 2902 C 296.068 -1.43557 0.983231 0
M  V30 2903 O 297.244 -1.54101 1.29672 0
M  V30 2904 C 294.309 -2.42659 2.47624 0
M  V30 2905 C 293.37 -2.18975 3.69254 0
M  V30 2906 C 292.603 -3.42704 4.09133 0
M  V30 2907 O 292.826 -4.51127 3.49057 0
M  V30 2908 O 291.76 -3.32003 5.02053 0
M  V30 2909 H 295.586 -0.746279 2.94388 0
M  V30 2910 H 293.171 -0.303064 1.46294 0
M  V30 2911 H 295.053 -3.19155 2.7517 0
M  V30 2912 H 293.728 -2.80182 1.62109 0
M  V30 2913 H 292.635 -1.40244 3.46818 0
M  V30 2914 H 293.968 -1.86342 4.55563 0
M  V30 2915 N 295.62 -1.53406 -0.361157 0
M  V30 2916 C 297.036 -1.43277 -0.703124 0
M  V30 2917 C 297.236 -0.575384 -1.9311 0
M  V30 2918 O 296.292 -0.0595362 -2.5243 0
M  V30 2919 C 297.605 -2.8653 -0.9122 0
M  V30 2920 C 299.153 -2.96191 -1.01193 0
M  V30 2921 C 299.628 -4.40514 -1.25345 0
M  V30 2922 N 301.119 -4.43962 -1.32105 0
M  V30 2923 C 301.854 -5.52746 -1.5251 0
M  V30 2924 N 301.35 -6.71567 -1.70203 0
M  V30 2925 N 303.143 -5.40331 -1.54916 0
M  V30 2926 H 295.294 -2.07654 0.446475 0
M  V30 2927 H 297.557 -0.937944 0.137715 0
M  V30 2928 H 297.263 -3.51605 -0.0816414 0
M  V30 2929 H 297.137 -3.30441 -1.81903 0
M  V30 2930 H 299.524 -2.31266 -1.83303 0
M  V30 2931 H 299.605 -2.55667 -0.0823929 0
M  V30 2932 H 299.249 -5.06014 -0.437346 0
M  V30 2933 H 299.179 -4.78614 -2.19627 0
M  V30 2934 H 301.67 -3.58332 -1.20028 0
M  V30 2935 H 301.983 -7.50241 -1.85359 0
M  V30 2936 H 300.328 -6.74545 -1.67373 0
M  V30 2937 H 303.519 -4.46465 -1.40663 0
M  V30 2938 H 303.692 -6.25173 -1.70477 0
M  V30 2939 N 297.098 0.621204 -1.44841 0
M  V30 2940 C 298.344 1.3826 -1.48365 0
M  V30 2941 C 298.677 1.93831 -0.119624 0
M  V30 2942 O 297.952 1.74251 0.864111 0
M  V30 2943 C 298.235 2.54058 -2.55199 0
M  V30 2944 C 298.088 2.03772 -4.00995 0
M  V30 2945 C 299.407 3.56225 -2.58442 0
M  V30 2946 H 296.526 0.501374 -0.540179 0
M  V30 2947 H 299.168 0.7015 -1.76576 0
M  V30 2948 H 297.318 3.12162 -2.31274 0
M  V30 2949 H 298.99 1.50423 -4.36086 0
M  V30 2950 H 297.233 1.34876 -4.12299 0
M  V30 2951 H 297.904 2.87185 -4.71411 0
M  V30 2952 H 300.38 3.07939 -2.79844 0
M  V30 2953 H 299.256 4.34756 -3.3508 0
M  V30 2954 H 299.517 4.10949 -1.63013 0
M  V30 2955 N 298.576 1.31904 0.862503 0
M  V30 2956 C 299.987 1.19803 1.43193 0
M  V30 2957 C 300.338 -0.192567 1.95253 0
M  V30 2958 O 299.463 -1.09081 1.86896 0
M  V30 2959 C 300.058 2.16883 2.60283 0
M  V30 2960 C 298.617 2.08692 3.13248 0
M  V30 2961 C 297.764 2.05691 1.85975 0
M  V30 2962 H 300.715 1.43846 0.670365 0
M  V30 2963 H 300.736 1.76278 3.37204 0
M  V30 2964 H 300.248 3.18083 2.22363 0
M  V30 2965 H 298.349 1.10713 3.55771 0
M  V30 2966 H 298.462 2.9815 3.75025 0
M  V30 2967 H 296.826 1.50814 2.05249 0
M  V30 2968 H 297.609 3.08659 1.50282 0
M  V30 2969 N 300.054 -1.07777 1.14986 0
M  V30 2970 C 301.302 -1.79934 0.920235 0
M  V30 2971 C 301.623 -1.86955 -0.554336 0
M  V30 2972 O 300.893 -1.36731 -1.40291 0
M  V30 2973 H 299.473 -0.666424 0.337473 0
M  V30 2974 H 302.135 -1.3027 1.44968 0
M  V30 2975 H 301.231 -2.82539 1.32583 0
M  V30 2976 N 301.532 -0.945985 -1.26051 0
M  V30 2977 C 302.76 -0.613025 -1.9761 0
M  V30 2978 C 303.175 0.813035 -1.70397 0
M  V30 2979 O 302.532 1.54274 -0.974979 0
M  V30 2980 C 302.583 -0.85159 -3.51326 0
M  V30 2981 O 302.304 -2.22157 -3.77595 0
M  V30 2982 C 303.805 -0.529831 -4.40122 0
M  V30 2983 H 301.025 -0.230593 -0.630133 0
M  V30 2984 H 303.569 -1.268 -1.60443 0
M  V30 2985 H 301.724 -0.243151 -3.86636 0
M  V30 2986 H 302.138 -2.2852 -4.721 0
M  V30 2987 H 303.612 -0.747348 -5.46917 0
M  V30 2988 H 304.089 0.535341 -4.35925 0
M  V30 2989 H 304.695 -1.11721 -4.10364 0
M  V30 2990 N 303.011 1.40521 -0.713556 0
M  V30 2991 C 304.26 2.00155 -0.249192 0
M  V30 2992 C 304.573 1.57224 1.16362 0
M  V30 2993 O 305.779 2.09542 1.72639 0
M  V30 2994 C 304.235 3.5773 -0.3946 0
M  V30 2995 C 303.843 4.09635 -1.81392 0
M  V30 2996 C 305.587 4.24499 0.00907364 0
M  V30 2997 C 303.494 5.59707 -1.91003 0
M  V30 2998 H 302.424 0.74868 -0.0894114 0
M  V30 2999 H 305.075 1.60784 -0.884352 0
M  V30 3000 H 303.457 3.94792 0.30911 0
M  V30 3001 H 304.631 3.83955 -2.54785 0
M  V30 3002 H 302.946 3.55456 -2.16888 0
M  V30 3003 H 305.543 5.34683 -0.0420404 0
M  V30 3004 H 305.886 4.02824 1.05065 0
M  V30 3005 H 306.419 3.92536 -0.645007 0
M  V30 3006 H 303.158 5.86234 -2.93275 0
M  V30 3007 H 302.678 5.87258 -1.22019 0
M  V30 3008 H 304.357 6.24776 -1.6812 0
M  V30 3009 N 304.489 0.459591 1.5075 0
M  V30 3010 C 305.737 -0.0991532 2.01857 0
M  V30 3011 C 306.058 -1.41247 1.34441 0
M  V30 3012 O 305.328 -1.89775 0.486022 0
M  V30 3013 H 303.908 -0.039633 0.745948 0
M  V30 3014 H 306.57 0.607387 1.85194 0
M  V30 3015 H 305.666 -0.258998 3.11023 0
M  V30 3016 N 305.967 -1.56429 0.191757 0
M  V30 3017 C 307.214 -1.97485 -0.447891 0
M  V30 3018 C 307.542 -1.07852 -1.61859 0
M  V30 3019 O 306.797 -0.116903 -1.95351 0
M  V30 3020 C 307.096 -3.44449 -0.953384 0
M  V30 3021 C 306.762 -4.50781 0.103586 0
M  V30 3022 C 305.424 -4.79584 0.394023 0
M  V30 3023 C 307.776 -5.1471 0.819946 0
M  V30 3024 C 305.104 -5.69607 1.40585 0
M  V30 3025 C 307.456 -6.05827 1.8209 0
M  V30 3026 C 306.12 -6.32987 2.11857 0
M  V30 3027 H 305.39 -0.722648 -0.163895 0
M  V30 3028 H 308.037 -1.89322 0.28802 0
M  V30 3029 H 306.342 -3.49666 -1.76751 0
M  V30 3030 H 308.039 -3.73569 -1.45765 0
M  V30 3031 H 304.629 -4.28394 -0.132951 0
M  V30 3032 H 308.813 -4.92552 0.608789 0
M  V30 3033 H 304.069 -5.88926 1.64243 0
M  V30 3034 H 308.243 -6.54424 2.38123 0
M  V30 3035 H 305.87 -7.02544 2.90407 0
M  V30 3036 N 307.445 0.0818655 -1.57387 0
M  V30 3037 C 308.408 1.08265 -2.02018 0
M  V30 3038 C 309.408 1.32183 -0.915664 0
M  V30 3039 O 310.598 1.28073 -1.18081 0
M  V30 3040 C 307.73 2.42871 -2.39221 0
M  V30 3041 H 308.923 0.698204 -2.91659 0
M  V30 3042 H 306.476 0.327303 -1.52835 0
M  V30 3043 H 307.211 2.86167 -1.52575 0
M  V30 3044 H 306.996 2.26855 -3.19811 0
M  V30 3045 H 308.486 3.14826 -2.74362 0
M  V30 3046 N 308.923 1.53595 0.353017 0
M  V30 3047 C 310.151 1.74311 1.1146 0
M  V30 3048 C 310.566 0.477854 1.82653 0
M  V30 3049 O 309.923 -0.549977 1.74016 0
M  V30 3050 C 309.974 2.91694 2.13534 0
M  V30 3051 O 309.695 4.13325 1.45238 0
M  V30 3052 C 311.196 3.24384 3.02142 0
M  V30 3053 H 308.416 0.582669 0.332773 0
M  V30 3054 H 310.96 2.00386 0.408107 0
M  V30 3055 H 309.115 2.67977 2.79763 0
M  V30 3056 H 309.529 4.79148 2.13349 0
M  V30 3057 H 311.003 4.09893 3.69718 0
M  V30 3058 H 311.48 2.40282 3.67643 0
M  V30 3059 H 312.086 3.50073 2.41514 0
M  V30 3060 N 310.401 -0.613514 1.45168 0
M  V30 3061 C 311.647 -1.37471 1.49096 0
M  V30 3062 C 311.98 -1.93765 0.129901 0
M  V30 3063 O 311.255 -1.74707 -0.854858 0
M  V30 3064 C 311.538 -2.52701 2.56542 0
M  V30 3065 C 311.391 -2.01643 4.0207 0
M  V30 3066 C 312.71 -3.54849 2.60327 0
M  V30 3067 H 309.829 -0.498502 0.54283 0
M  V30 3068 H 312.471 -0.692125 1.76945 0
M  V30 3069 H 310.621 -3.10931 2.32926 0
M  V30 3070 H 312.293 -1.48108 4.36877 0
M  V30 3071 H 310.536 -1.32688 4.13009 0
M  V30 3072 H 311.207 -2.84681 4.72928 0
M  V30 3073 H 313.683 -3.0645 2.81474 0
M  V30 3074 H 312.559 -4.32973 3.37381 0
M  V30 3075 H 312.82 -4.10079 1.6519 0
M  V30 3076 N 311.879 -1.3236 -0.855495 0
M  V30 3077 C 313.295 -1.11332 -1.14356 0
M  V30 3078 C 313.495 0.106751 -2.01217 0
M  V30 3079 O 312.551 0.791891 -2.39761 0
M  V30 3080 C 313.864 -2.39237 -1.82171 0
M  V30 3081 C 315.412 -2.44986 -1.9481 0
M  V30 3082 C 315.887 -3.7281 -2.66039 0
M  V30 3083 N 317.378 -3.73787 -2.73565 0
M  V30 3084 C 318.113 -4.69394 -3.29327 0
M  V30 3085 N 317.609 -5.75367 -3.85907 0
M  V30 3086 N 319.402 -4.56893 -3.27423 0
M  V30 3087 H 311.553 -2.10586 -0.277027 0
M  V30 3088 H 313.816 -0.929701 -0.185364 0
M  V30 3089 H 313.522 -3.28431 -1.25802 0
M  V30 3090 H 313.396 -2.50134 -2.82335 0
M  V30 3091 H 315.783 -1.56252 -2.50338 0
M  V30 3092 H 315.864 -2.38043 -0.936448 0
M  V30 3093 H 315.508 -4.61918 -2.11174 0
M  V30 3094 H 315.438 -3.77024 -3.67642 0
M  V30 3095 H 317.929 -2.97189 -2.33424 0
M  V30 3096 H 318.242 -6.44378 -4.26611 0
M  V30 3097 H 316.587 -5.79123 -3.84242 0
M  V30 3098 H 319.778 -3.73269 -2.82467 0
M  V30 3099 H 319.951 -5.31577 -3.7058 0
M  V30 3100 N 313.357 1.07166 -1.15556 0
M  V30 3101 C 314.32 2.12589 -0.856644 0
M  V30 3102 C 315.32 1.6015 0.14444 0
M  V30 3103 O 316.51 1.7399 -0.0854163 0
M  V30 3104 C 313.642 3.39753 -0.279405 0
M  V30 3105 H 314.835 2.40539 -1.79112 0
M  V30 3106 H 312.388 1.23086 -0.963298 0
M  V30 3107 H 313.123 3.17447 0.663174 0
M  V30 3108 H 312.908 3.79117 -1.00063 0
M  V30 3109 H 314.398 4.17507 -0.0879113 0
M  V30 3110 N 314.835 0.952656 1.25548 0
M  V30 3111 C 316.083 0.605176 1.92826 0
M  V30 3112 C 316.404 -0.860261 1.74999 0
M  V30 3113 O 315.674 -1.6125 1.11244 0
M  V30 3114 H 314.254 0.220832 0.713612 0
M  V30 3115 H 316.916 1.21047 1.52754 0
M  V30 3116 H 316.012 0.832798 3.00784 0
M  V30 3117 N 316.313 -1.40141 0.720998 0
M  V30 3118 C 317.59 -1.94677 0.189757 0
M  V30 3119 C 317.97 -1.65879 -1.30566 0
M  V30 3120 O 317.318 -0.979391 -2.06447 0
M  V30 3121 C 317.528 -3.45279 0.508304 0
M  V30 3122 C 318.876 -4.22209 0.449934 0
M  V30 3123 O 319.9 -3.53413 0.444677 0
M  V30 3124 O 318.759 -5.44788 0.432189 0
M  V30 3125 H 315.853 -0.826459 0.0299026 0
M  V30 3126 H 318.399 -1.49719 0.7989 0
M  V30 3127 H 317.171 -3.59619 1.54239 0
M  V30 3128 H 316.794 -3.97386 -0.130525 0
M  V30 3129 N 317.792 -0.46758 -1.50504 0
M  V30 3130 C 319.041 0.0902868 -2.01498 0
M  V30 3131 C 319.354 1.411 -1.35463 0
M  V30 3132 O 320.56 2.0536 -1.77594 0
M  V30 3133 C 319.016 0.21142 -3.59278 0
M  V30 3134 C 318.624 -1.10065 -4.34269 0
M  V30 3135 C 320.368 0.721433 -4.18325 0
M  V30 3136 C 318.275 -0.943505 -5.83825 0
M  V30 3137 H 317.205 0.037517 -0.753066 0
M  V30 3138 H 319.856 -0.601943 -1.73346 0
M  V30 3139 H 318.238 0.967352 -3.84003 0
M  V30 3140 H 319.412 -1.86726 -4.21272 0
M  V30 3141 H 317.727 -1.5415 -3.86816 0
M  V30 3142 H 320.324 0.85598 -5.27804 0
M  V30 3143 H 320.667 1.71186 -3.79475 0
M  V30 3144 H 321.2 0.0229843 -3.97793 0
M  V30 3145 H 317.939 -1.90719 -6.27141 0
M  V30 3146 H 317.459 -0.217213 -5.99407 0
M  V30 3147 H 319.138 -0.608715 -6.4413 0
M  V30 3148 N 319.27 1.56325 -0.20005 0
M  V30 3149 C 320.516 1.98012 0.438059 0
M  V30 3150 C 320.849 1.08702 1.60927 0
M  V30 3151 O 320.124 0.140064 1.93995 0
M  V30 3152 C 320.407 3.48841 0.893419 0
M  V30 3153 C 320.26 4.48928 -0.279947 0
M  V30 3154 C 321.579 4.03498 1.75719 0
M  V30 3155 H 318.698 0.719918 0.157757 0
M  V30 3156 H 321.34 1.87743 -0.291968 0
M  V30 3157 H 319.49 3.57723 1.51547 0
M  V30 3158 H 321.162 4.52079 -0.91772 0
M  V30 3159 H 319.405 4.23694 -0.930919 0
M  V30 3160 H 320.076 5.5194 0.0812601 0
M  V30 3161 H 322.552 3.97427 1.23253 0
M  V30 3162 H 321.428 5.09393 2.04476 0
M  V30 3163 H 321.689 3.4906 2.71311 0
M  V30 3164 N 320.748 -0.0735177 1.57428 0
M  V30 3165 C 321.996 -0.771472 1.86796 0
M  V30 3166 C 322.317 -1.78201 0.791804 0
M  V30 3167 O 321.587 -1.95074 -0.179718 0
M  V30 3168 H 320.167 -0.28791 0.689287 0
M  V30 3169 H 322.829 -0.0500161 1.94836 0
M  V30 3170 H 321.925 -1.28874 2.8425 0
M  V30 3171 N 322.226 -1.5378 -0.344866 0
M  V30 3172 C 323.136 -1.84667 -1.4469 0
M  V30 3173 C 324.152 -0.736704 -1.57635 0
M  V30 3174 O 325.328 -1.02888 -1.73136 0
M  V30 3175 C 322.393 -2.04869 -2.79696 0
M  V30 3176 C 321.454 -3.28731 -2.76106 0
M  V30 3177 C 320.687 -3.4796 -4.04673 0
M  V30 3178 O 320.91 -2.71052 -5.01883 0
M  V30 3179 O 319.844 -4.41383 -4.09224 0
M  V30 3180 H 323.67 -2.78334 -1.21506 0
M  V30 3181 H 321.255 -1.39418 -0.536921 0
M  V30 3182 H 323.137 -2.19609 -3.59652 0
M  V30 3183 H 321.812 -1.14391 -3.02814 0
M  V30 3184 H 320.719 -3.19396 -1.94774 0
M  V30 3185 H 322.052 -4.19198 -2.57941 0
M  V30 3186 N 323.704 0.605807 -1.45491 0
M  V30 3187 C 324.654 1.71074 -1.50724 0
M  V30 3188 C 325.638 1.5658 -0.37033 0
M  V30 3189 O 326.83 1.65887 -0.617299 0
M  V30 3190 C 323.959 3.0983 -1.47852 0
M  V30 3191 C 323.045 3.29704 -2.66751 0
M  V30 3192 N 323.436 3.19831 -3.91844 0
M  V30 3193 C 321.734 3.60579 -2.62486 0
M  V30 3194 C 322.435 3.41083 -4.71208 0
M  V30 3195 N 321.411 3.65157 -4.02693 0
M  V30 3196 H 325.213 1.61937 -2.45263 0
M  V30 3197 H 322.727 0.80912 -1.40808 0
M  V30 3198 H 324.724 3.89101 -1.49686 0
M  V30 3199 H 323.384 3.20115 -0.543714 0
M  V30 3200 H 324.395 2.98194 -4.23439 0
M  V30 3201 H 321.072 3.7769 -1.77922 0
M  V30 3202 H 322.462 3.38828 -5.80211 0
M  V30 3203 N 325.182 1.32811 0.848464 0
M  V30 3204 C 326.41 1.26739 1.63538 0
M  V30 3205 C 326.825 -0.163484 1.88091 0
M  V30 3206 O 326.182 -1.10258 1.45429 0
M  V30 3207 C 326.233 2.03013 2.99112 0
M  V30 3208 O 325.954 3.40518 2.75643 0
M  V30 3209 C 327.455 2.04038 3.93552 0
M  V30 3210 H 324.675 0.437024 0.509167 0
M  V30 3211 H 327.219 1.75033 1.05753 0
M  V30 3212 H 325.374 1.58426 3.53525 0
M  V30 3213 H 325.788 3.79635 3.61908 0
M  V30 3214 H 327.262 2.61877 4.85926 0
M  V30 3215 H 327.739 1.0282 4.26995 0
M  V30 3216 H 328.345 2.486 3.45077 0
M  V30 3217 N 326.66 -1.06551 1.16123 0
M  V30 3218 C 327.623 -2.12132 0.867906 0
M  V30 3219 C 328.623 -1.60224 -0.135944 0
M  V30 3220 O 329.813 -1.73943 0.0946422 0
M  V30 3221 C 326.945 -3.396 0.297419 0
M  V30 3222 H 328.138 -2.39586 1.80385 0
M  V30 3223 H 325.691 -1.22574 0.969812 0
M  V30 3224 H 326.426 -3.17794 -0.64633 0
M  V30 3225 H 326.211 -3.78581 1.02073 0
M  V30 3226 H 327.701 -4.17455 0.110052 0
M  V30 3227 N 328.138 -0.959301 -1.25041 0
M  V30 3228 C 329.071 -0.427418 -2.24161 0
M  V30 3229 C 330.049 0.493837 -1.54919 0
M  V30 3230 O 331.233 0.427144 -1.83597 0
M  V30 3231 C 328.36 0.383893 -3.36517 0
M  V30 3232 C 327.406 -0.478431 -4.23808 0
M  V30 3233 S 328.239 -1.91353 -5.00144 0
M  V30 3234 C 329.395 -1.11077 -6.15965 0
M  V30 3235 H 329.628 -1.26743 -2.6893 0
M  V30 3236 H 327.161 -0.763714 -1.34189 0
M  V30 3237 H 329.119 0.846039 -4.01687 0
M  V30 3238 H 327.78 1.19878 -2.90324 0
M  V30 3239 H 326.973 0.14406 -5.03794 0
M  V30 3240 H 326.575 -0.87597 -3.63597 0
M  V30 3241 H 328.867 -0.361699 -6.76534 0
M  V30 3242 H 329.81 -1.88472 -6.82557 0
M  V30 3243 H 330.218 -0.638843 -5.60873 0
M  V30 3244 N 329.616 1.39756 -0.72842 0
M  V30 3245 C 330.863 2.00645 -0.273487 0
M  V30 3246 C 331.191 1.57786 1.13727 0
M  V30 3247 O 330.446 0.794886 1.7883 0
M  V30 3248 C 330.745 3.56002 -0.315776 0
M  V30 3249 C 330.411 4.18489 -1.67863 0
M  V30 3250 C 329.073 4.3527 -2.05166 0
M  V30 3251 C 331.425 4.53219 -2.57375 0
M  V30 3252 C 328.753 4.84069 -3.31503 0
M  V30 3253 C 331.105 5.03423 -3.83077 0
M  V30 3254 C 329.769 5.18413 -4.20481 0
M  V30 3255 H 329.039 0.734211 -0.100076 0
M  V30 3256 H 331.686 1.6718 -0.933972 0
M  V30 3257 H 329.991 3.89452 0.428285 0
M  V30 3258 H 331.688 4.00963 0.0542575 0
M  V30 3259 H 328.278 4.05824 -1.37858 0
M  V30 3260 H 332.462 4.39878 -2.29827 0
M  V30 3261 H 327.718 4.93859 -3.60435 0
M  V30 3262 H 331.892 5.2927 -4.52599 0
M  V30 3263 H 329.519 5.55987 -5.18443 0
M  V30 3264 N 331.094 0.475555 1.50254 0
M  V30 3265 C 332.057 -0.305016 2.27161 0
M  V30 3266 C 333.057 -0.916519 1.32123 0
M  V30 3267 O 334.247 -0.785003 1.5551 0
M  V30 3268 C 331.379 -1.43496 3.09227 0
M  V30 3269 H 332.572 0.369511 2.97615 0
M  V30 3270 H 330.125 0.229747 1.54602 0
M  V30 3271 H 330.86 -2.14441 2.43281 0
M  V30 3272 H 330.645 -1.00223 3.79075 0
M  V30 3273 H 332.135 -1.98548 3.67381 0
M  V30 3274 N 332.573 -1.56217 0.208337 0
M  V30 3275 C 333.85 -1.89739 -0.475234 0
M  V30 3276 C 334.23 -1.1238 -1.78701 0
M  V30 3277 O 333.578 -0.228979 -2.2735 0
M  V30 3278 C 333.788 -3.42289 -0.681101 0
M  V30 3279 C 335.136 -4.12789 -0.994507 0
M  V30 3280 O 336.16 -3.47814 -0.768357 0
M  V30 3281 O 335.019 -5.27649 -1.42299 0
M  V30 3282 H 332.113 -0.788478 -0.249461 0
M  V30 3283 H 334.659 -1.67855 0.249538 0
M  V30 3284 H 333.431 -3.90534 0.244722 0
M  V30 3285 H 333.054 -3.69909 -1.45785 0
M  V30 3286 N 334.051 0.0651679 -1.57465 0
M  V30 3287 C 335.3 0.761916 -1.86756 0
M  V30 3288 C 335.613 1.78406 -0.801925 0
M  V30 3289 O 336.819 2.53084 -0.982885 0
M  V30 3290 C 335.275 1.40603 -3.31299 0
M  V30 3291 C 334.883 0.422115 -4.46007 0
M  V30 3292 C 336.627 2.08476 -3.69781 0
M  V30 3293 C 334.534 1.07252 -5.81593 0
M  V30 3294 H 333.464 0.288308 -0.696702 0
M  V30 3295 H 336.115 0.015344 -1.83494 0
M  V30 3296 H 334.497 2.20109 -3.29193 0
M  V30 3297 H 335.671 -0.343613 -4.59517 0
M  V30 3298 H 333.986 -0.152527 -4.16121 0
M  V30 3299 H 336.583 2.57925 -4.68379 0
M  V30 3300 H 336.926 2.88712 -2.99919 0
M  V30 3301 H 337.459 1.35792 -3.73905 0
M  V30 3302 H 334.198 0.310342 -6.54765 0
M  V30 3303 H 333.718 1.80895 -5.71872 0
M  V30 3304 H 335.397 1.59043 -6.27148 0
M  V30 3305 N 335.529 1.53961 0.336706 0
M  V30 3306 C 336.777 1.71197 1.07405 0
M  V30 3307 C 337.098 0.481475 1.88962 0
M  V30 3308 O 336.368 -0.504585 1.8929 0
M  V30 3309 H 334.948 0.631185 0.399517 0
M  V30 3310 H 337.61 1.91232 0.376323 0
M  V30 3311 H 336.706 2.58587 1.74755 0
M  V30 3312 N 337.007 -0.598083 1.45811 0
M  V30 3313 C 337.917 -1.73632 1.57763 0
M  V30 3314 C 338.933 -1.67763 0.461676 0
M  V30 3315 O 340.109 -1.87949 0.723685 0
M  V30 3316 C 337.174 -3.10114 1.55018 0
M  V30 3317 C 336.235 -3.27364 2.77726 0
M  V30 3318 C 335.468 -4.57334 2.75102 0
M  V30 3319 O 335.691 -5.40258 1.8297 0
M  V30 3320 O 334.625 -4.77502 3.66437 0
M  V30 3321 H 338.451 -1.66498 2.53992 0
M  V30 3322 H 336.036 -0.763308 1.28429 0
M  V30 3323 H 337.918 -3.9141 1.56129 0
M  V30 3324 H 336.593 -3.17718 0.619431 0
M  V30 3325 H 335.5 -2.45619 2.82174 0
M  V30 3326 H 336.833 -3.24641 3.69958 0
M  V30 3327 N 338.485 -1.33259 -0.841409 0
M  V30 3328 C 339.901 -1.12538 -1.13169 0
M  V30 3329 C 340.101 0.0854037 -2.01319 0
M  V30 3330 O 339.157 0.766417 -2.40587 0
M  V30 3331 C 340.47 -2.41156 -1.79623 0
M  V30 3332 C 342.018 -2.47038 -1.922 0
M  V30 3333 C 342.493 -3.7561 -2.6207 0
M  V30 3334 N 343.984 -3.76667 -2.69585 0
M  V30 3335 C 344.719 -4.72861 -3.2433 0
M  V30 3336 N 344.215 -5.79428 -3.79783 0
M  V30 3337 N 346.008 -4.6034 -3.22558 0
M  V30 3338 H 338.159 -2.10868 -0.254676 0
M  V30 3339 H 340.422 -0.931615 -0.175493 0
M  V30 3340 H 340.128 -3.29747 -1.22311 0
M  V30 3341 H 340.002 -2.53114 -2.79666 0
M  V30 3342 H 342.389 -1.58898 -2.48667 0
M  V30 3343 H 342.47 -2.39022 -0.911148 0
M  V30 3344 H 342.114 -4.64131 -2.06263 0
M  V30 3345 H 342.044 -3.80902 -3.63622 0
M  V30 3346 H 344.535 -2.99648 -2.30259 0
M  V30 3347 H 344.848 -6.48867 -4.19752 0
M  V30 3348 H 343.193 -5.83166 -3.78078 0
M  V30 3349 H 346.384 -3.76244 -2.78492 0
M  V30 3350 H 346.557 -5.35478 -3.64921 0
M  V30 3351 N 339.963 1.05934 -1.16686 0
M  V30 3352 C 340.893 2.1546 -0.899949 0
M  V30 3353 C 341.874 1.69391 0.155154 0
M  V30 3354 O 343.059 1.94199 0.00648693 0
M  V30 3355 C 340.189 3.44939 -0.404241 0
M  V30 3356 C 339.143 4.04536 -1.39767 0
M  V30 3357 C 338.469 5.29268 -0.760216 0
M  V30 3358 C 339.769 4.42893 -2.76845 0
M  V30 3359 H 341.463 2.38046 -1.81588 0
M  V30 3360 H 339.009 1.14404 -0.874514 0
M  V30 3361 H 340.962 4.20901 -0.204971 0
M  V30 3362 H 339.686 3.21983 0.547206 0
M  V30 3363 H 338.345 3.30635 -1.58355 0
M  V30 3364 H 337.993 5.02611 0.197831 0
M  V30 3365 H 337.693 5.70101 -1.42332 0
M  V30 3366 H 339.217 6.07924 -0.57105 0
M  V30 3367 H 340.631 5.09921 -2.62019 0
M  V30 3368 H 339.028 4.94721 -3.39663 0
M  V30 3369 H 340.098 3.53584 -3.31823 0
M  V30 3370 N 341.441 0.965919 1.2453 0
M  V30 3371 C 342.351 0.502154 2.29163 0
M  V30 3372 C 343.367 -0.436017 1.68448 0
M  V30 3373 O 344.543 -0.309497 1.99008 0
M  V30 3374 C 341.608 -0.201956 3.46111 0
M  V30 3375 C 340.669 0.775821 4.22232 0
M  V30 3376 C 339.902 0.105217 5.33596 0
M  V30 3377 O 340.125 -1.10683 5.59558 0
M  V30 3378 O 339.059 0.796475 5.96607 0
M  V30 3379 H 342.885 1.37194 2.70946 0
M  V30 3380 H 340.47 0.732875 1.30189 0
M  V30 3381 H 342.352 -0.597564 4.17142 0
M  V30 3382 H 341.027 -1.04673 3.06309 0
M  V30 3383 H 339.934 1.22185 3.53584 0
M  V30 3384 H 341.267 1.58896 4.65846 0
M  V30 3385 N 342.919 -1.39368 0.735821 0
M  V30 3386 C 344.168 -1.99733 0.281004 0
M  V30 3387 C 344.481 -1.59055 -1.13846 0
M  V30 3388 O 345.687 -2.12262 -1.69284 0
M  V30 3389 C 344.143 -3.57057 0.451462 0
M  V30 3390 C 343.751 -4.06697 1.87886 0
M  V30 3391 C 345.495 -4.2446 0.0584616 0
M  V30 3392 C 343.402 -5.56598 1.99883 0
M  V30 3393 H 342.332 -0.747163 0.101311 0
M  V30 3394 H 344.983 -1.59357 0.909819 0
M  V30 3395 H 343.365 -3.95234 -0.246263 0
M  V30 3396 H 344.539 -3.79853 2.60861 0
M  V30 3397 H 342.854 -3.5196 2.22515 0
M  V30 3398 H 345.451 -5.34549 0.127099 0
M  V30 3399 H 345.794 -4.04444 -0.986433 0
M  V30 3400 H 346.327 -3.9146 0.707374 0
M  V30 3401 H 343.066 -5.81494 3.02564 0
M  V30 3402 H 342.586 -5.85242 1.31346 0
M  V30 3403 H 344.265 -6.22022 1.78039 0
M  V30 3404 N 344.397 -0.483516 -1.5 0
M  V30 3405 C 345.625 0.0644831 -2.06799 0
M  V30 3406 C 346.04 1.32399 -1.34596 0
M  V30 3407 O 345.397 1.77626 -0.418946 0
M  V30 3408 C 345.448 0.339927 -3.59898 0
M  V30 3409 O 345.169 -0.869635 -4.29382 0
M  V30 3410 C 346.67 0.933515 -4.33359 0
M  V30 3411 H 343.89 -0.0126333 -0.670881 0
M  V30 3412 H 346.434 -0.675864 -1.93009 0
M  V30 3413 H 344.589 1.03022 -3.7345 0
M  V30 3414 H 345.003 -0.62179 -5.20801 0
M  V30 3415 H 346.477 1.07593 -5.41413 0
M  V30 3416 H 346.954 1.92685 -3.94676 0
M  V30 3417 H 347.56 0.281221 -4.24369 0
M  V30 3418 N 345.875 1.56104 -0.216619 0
M  V30 3419 C 346.825 2.16703 0.708798 0
M  V30 3420 C 347.809 1.11392 1.16106 0
M  V30 3421 O 349.001 1.37395 1.11587 0
M  V30 3422 C 346.13 2.84666 1.91886 0
M  V30 3423 C 345.216 3.97195 1.48651 0
M  V30 3424 N 345.607 4.99959 0.766434 0
M  V30 3425 C 343.905 4.09193 1.77418 0
M  V30 3426 C 344.606 5.79126 0.546659 0
M  V30 3427 N 343.582 5.32315 1.10188 0
M  V30 3428 H 347.384 2.93516 0.150162 0
M  V30 3429 H 344.898 1.6239 -0.0176768 0
M  V30 3430 H 346.895 3.26486 2.59253 0
M  V30 3431 H 345.555 2.09347 2.48202 0
M  V30 3432 H 346.566 5.16197 0.419634 0
M  V30 3433 H 343.243 3.45021 2.35088 0
M  V30 3434 H 344.633 6.71895 -0.026103 0
M  V30 3435 N 347.353 -0.0568162 1.57498 0
M  V30 3436 C 348.3 -1.06591 2.04712 0
M  V30 3437 C 349.27 -1.3758 0.930644 0
M  V30 3438 O 350.455 -1.48392 1.19935 0
M  V30 3439 C 347.595 -2.3701 2.50839 0
M  V30 3440 C 346.708 -2.12421 3.76167 0
M  V30 3441 C 345.843 -3.36511 4.11015 0
M  V30 3442 C 344.882 -3.07353 5.2934 0
M  V30 3443 N 344.019 -4.23816 5.59754 0
M  V30 3444 H 348.859 -0.65631 2.90683 0
M  V30 3445 H 346.396 -0.312481 1.43743 0
M  V30 3446 H 348.354 -3.13175 2.7564 0
M  V30 3447 H 346.984 -2.75744 1.67825 0
M  V30 3448 H 346.036 -1.2688 3.58616 0
M  V30 3449 H 347.348 -1.86894 4.62463 0
M  V30 3450 H 346.502 -4.21062 4.36797 0
M  V30 3451 H 345.241 -3.65128 3.23315 0
M  V30 3452 H 344.246 -2.212 5.03339 0
M  V30 3453 H 345.471 -2.80043 6.1867 0
M  V30 3454 H 343.417 -4.52436 4.75014 0
M  V30 3455 H 343.334 -4.01614 6.40501 0
M  V30 3456 H 344.602 -5.0932 5.90096 0
M  V30 3457 N 348.832 -1.54138 -0.328536 0
M  V30 3458 C 349.795 -1.82462 -1.38709 0
M  V30 3459 C 350.795 -0.696229 -1.44946 0
M  V30 3460 O 351.985 -0.964535 -1.4506 0
M  V30 3461 C 349.117 -1.98018 -2.77492 0
M  V30 3462 H 350.31 -2.77037 -1.14851 0
M  V30 3463 H 347.863 -1.45779 -0.563751 0
M  V30 3464 H 348.598 -1.05637 -3.06613 0
M  V30 3465 H 348.383 -2.80124 -2.74359 0
M  V30 3466 H 349.873 -2.21396 -3.54081 0
M  V30 3467 N 350.31 0.590341 -1.46126 0
M  V30 3468 C 351.535 1.37991 -1.54833 0
M  V30 3469 C 351.96 1.87163 -0.187506 0
M  V30 3470 O 351.318 1.61133 0.831008 0
M  V30 3471 C 351.366 2.54867 -2.55098 0
M  V30 3472 O 350.47 3.56061 -2.08073 0
M  V30 3473 H 349.811 0.411265 -0.521303 0
M  V30 3474 H 352.341 0.716819 -1.91632 0
M  V30 3475 H 352.351 3.01886 -2.74461 0
M  V30 3476 H 351.026 2.18429 -3.53923 0
M  V30 3477 H 349.603 3.15574 -1.98664 0
M  V30 3478 N 351.788 1.33704 0.83433 0
M  V30 3479 C 353.013 1.28615 1.62705 0
M  V30 3480 C 353.438 -0.139242 1.87584 0
M  V30 3481 O 352.796 -1.09734 1.4432 0
M  V30 3482 C 352.844 2.07139 2.95171 0
M  V30 3483 O 351.948 1.4331 3.86699 0
M  V30 3484 H 351.289 0.44226 0.49528 0
M  V30 3485 H 353.819 1.76335 1.03766 0
M  V30 3486 H 353.829 2.18073 3.44831 0
M  V30 3487 H 352.504 3.10779 2.76386 0
M  V30 3488 H 351.081 1.4105 3.45195 0
M  V30 3489 N 353.266 -1.05314 1.17247 0
M  V30 3490 C 354.682 -1.30452 0.919473 0
M  V30 3491 C 354.882 -1.9703 -0.42209 0
M  V30 3492 O 353.938 -2.24311 -1.15935 0
M  V30 3493 C 355.251 -2.17551 2.07586 0
M  V30 3494 C 356.799 -2.30937 2.11275 0
M  V30 3495 C 357.274 -3.21396 3.26296 0
M  V30 3496 N 358.765 -3.28981 3.26076 0
M  V30 3497 C 359.5 -3.99095 4.11716 0
M  V30 3498 N 358.996 -4.71648 5.07465 0
M  V30 3499 N 360.789 -3.95247 3.9967 0
M  V30 3500 H 352.94 -0.604988 2.03602 0
M  V30 3501 H 355.203 -0.329368 0.888944 0
M  V30 3502 H 354.909 -1.75921 3.0454 0
M  V30 3503 H 354.783 -3.18182 2.02584 0
M  V30 3504 H 357.17 -2.71809 1.14907 0
M  V30 3505 H 357.251 -1.2994 2.20339 0
M  V30 3506 H 356.895 -2.81238 4.22927 0
M  V30 3507 H 356.825 -4.22395 3.14467 0
M  V30 3508 H 359.316 -2.77286 2.5675 0
M  V30 3509 H 359.629 -5.22705 5.6921 0
M  V30 3510 H 357.974 -4.70594 5.11435 0
M  V30 3511 H 361.165 -3.37691 3.24164 0
M  V30 3512 H 361.338 -4.4962 4.66632 0
M  V30 3513 N 354.744 -0.972509 -1.24016 0
M  V30 3514 C 355.677 -0.45117 -2.23696 0
M  V30 3515 C 356.655 0.477378 -1.55434 0
M  V30 3516 O 357.839 0.407647 -1.84039 0
M  V30 3517 C 354.966 0.34818 -3.36906 0
M  V30 3518 C 354.012 -0.523355 -4.23277 0
M  V30 3519 S 354.845 -1.96647 -4.98087 0
M  V30 3520 C 356.001 -1.17604 -6.14752 0
M  V30 3521 H 356.234 -1.29588 -2.67571 0
M  V30 3522 H 353.767 -0.777903 -1.33372 0
M  V30 3523 H 355.725 0.803387 -4.02562 0
M  V30 3524 H 354.386 1.16792 -2.91579 0
M  V30 3525 H 353.579 0.0906181 -5.03919 0
M  V30 3526 H 353.181 -0.914485 -3.62647 0
M  V30 3527 H 355.473 -0.433434 -6.76112 0
M  V30 3528 H 356.416 -1.95701 -6.8052 0
M  V30 3529 H 356.824 -0.698295 -5.60164 0
M  V30 3530 N 356.222 1.38976 -0.743202 0
M  V30 3531 C 357.45 2.04636 -0.30525 0
M  V30 3532 C 357.865 1.56044 1.06281 0
M  V30 3533 O 357.222 0.728921 1.67311 0
M  V30 3534 C 357.273 3.60193 -0.307177 0
M  V30 3535 O 356.994 4.06998 -1.62124 0
M  V30 3536 C 358.495 4.4306 0.145928 0
M  V30 3537 H 355.715 0.65788 -0.132041 0
M  V30 3538 H 358.259 1.77866 -1.00915 0
M  V30 3539 H 356.414 3.85835 0.347898 0
M  V30 3540 H 356.828 5.01371 -1.54036 0
M  V30 3541 H 358.302 5.51921 0.0934183 0
M  V30 3542 H 358.779 4.22706 1.19231 0
M  V30 3543 H 359.385 4.22584 -0.479886 0
M  V30 3544 N 357.7 0.491464 1.49741 0
M  V30 3545 C 358.947 -0.0564256 2.02421 0
M  V30 3546 C 359.275 -1.37872 1.37192 0
M  V30 3547 O 358.53 -1.89375 0.493508 0
M  V30 3548 C 358.829 -0.267329 3.56399 0
M  V30 3549 C 358.495 0.975775 4.40215 0
M  V30 3550 C 357.157 1.31655 4.62839 0
M  V30 3551 C 359.509 1.80251 4.89039 0
M  V30 3552 C 356.837 2.48375 5.31532 0
M  V30 3553 C 359.189 2.96116 5.59015 0
M  V30 3554 C 357.853 3.30585 5.79888 0
M  V30 3555 H 357.123 -0.0206476 0.740712 0
M  V30 3556 H 359.77 0.649686 1.80143 0
M  V30 3557 H 358.075 -1.05588 3.77304 0
M  V30 3558 H 359.772 -0.705549 3.94744 0
M  V30 3559 H 356.362 0.700315 4.2284 0
M  V30 3560 H 360.546 1.55239 4.71396 0
M  V30 3561 H 355.802 2.7533 5.45897 0
M  V30 3562 H 359.976 3.60509 5.95824 0
M  V30 3563 H 357.603 4.21132 6.32892 0
M  V30 3564 N 359.178 -1.55987 0.224894 0
M  V30 3565 C 360.141 -2.19178 -0.670348 0
M  V30 3566 C 361.141 -1.15461 -1.11917 0
M  V30 3567 O 362.331 -1.40675 -1.02743 0
M  V30 3568 C 359.463 -2.81777 -1.9187 0
M  V30 3569 H 360.656 -2.99662 -0.119364 0
M  V30 3570 H 358.209 -1.5628 -0.0247128 0
M  V30 3571 H 358.944 -2.05172 -2.51147 0
M  V30 3572 H 358.729 -3.57732 -1.60531 0
M  V30 3573 H 360.219 -3.30205 -2.55645 0
M  V30 3574 N 360.656 0.0484629 -1.57525 0
M  V30 3575 C 361.604 1.07359 -2.06341 0
M  V30 3576 C 362.598 1.3865 -0.973269 0
M  V30 3577 O 363.804 1.37783 -1.15827 0
M  V30 3578 H 360.179 0.363662 -0.65822 0
M  V30 3579 H 362.15 0.635916 -2.91545 0
M  V30 3580 C 360.899 2.37198 -2.54229 0
M  V30 3581 H 360.222 2.13977 -3.37719 0
M  V30 3582 H 361.662 3.07319 -2.92115 0
M  V30 3583 C 360.121 3.04805 -1.43511 0
M  V30 3584 O 360.651 3.93848 -0.79034 0
M  V30 3585 N 358.857 2.65811 -1.17444 0
M  V30 3586 H 358.404 1.93488 -1.70059 0
M  V30 3587 H 358.362 3.11366 -0.435737 0
M  V30 3588 N 362.134 1.5431 0.320358 0
M  V30 3589 C 363.382 1.72327 1.05583 0
M  V30 3590 C 363.703 0.50149 1.88441 0
M  V30 3591 O 362.973 -0.48448 1.89815 0
M  V30 3592 H 361.553 0.635387 0.3928 0
M  V30 3593 H 364.215 1.91621 0.356019 0
M  V30 3594 H 363.311 2.60426 1.72003 0
M  V30 3595 N 363.613 -0.582584 1.46437 0
M  V30 3596 C 364.576 -1.67366 1.56592 0
M  V30 3597 C 365.576 -1.54575 0.443072 0
M  V30 3598 O 366.766 -1.59191 0.707381 0
M  V30 3599 C 363.898 -3.06791 1.48634 0
M  V30 3600 H 365.091 -1.5972 2.5383 0
M  V30 3601 H 362.644 -0.800432 1.34249 0
M  V30 3602 H 363.379 -3.19993 0.526763 0
M  V30 3603 H 363.164 -3.17484 2.30101 0
M  V30 3604 H 364.654 -3.86218 1.58826 0
M  V30 3605 N 365.091 -1.34144 -0.827227 0
M  V30 3606 C 366.337 -1.26446 -1.58554 0
M  V30 3607 C 366.67 0.1664 -1.93486 0
M  V30 3608 O 365.945 1.1107 -1.59667 0
M  V30 3609 C 366.228 -2.15111 -2.8879 0
M  V30 3610 C 366.081 -3.66712 -2.60465 0
M  V30 3611 C 367.4 -2.03311 -3.90324 0
M  V30 3612 H 364.519 -0.46067 -0.575284 0
M  V30 3613 H 367.161 -1.64356 -0.953269 0
M  V30 3614 H 365.311 -1.8291 -3.42748 0
M  V30 3615 H 366.983 -4.09259 -2.1285 0
M  V30 3616 H 365.226 -3.88014 -1.93978 0
M  V30 3617 H 365.897 -4.24112 -3.53317 0
M  V30 3618 H 368.373 -2.31574 -3.45706 0
M  V30 3619 H 367.249 -2.67582 -4.79261 0
M  V30 3620 H 367.51 -1.00879 -4.30437 0
M  V30 3621 N 366.569 1.04691 -1.17803 0
M  V30 3622 C 367.985 1.29963 -0.926379 0
M  V30 3623 C 368.185 1.97251 0.411635 0
M  V30 3624 O 367.241 2.24922 1.14744 0
M  V30 3625 C 368.554 2.16447 -2.08737 0
M  V30 3626 C 370.102 2.29814 -2.12496 0
M  V30 3627 C 370.577 3.19661 -3.27995 0
M  V30 3628 N 372.068 3.27247 -3.27816 0
M  V30 3629 C 372.803 3.96906 -4.13827 0
M  V30 3630 N 372.299 4.6895 -5.09959 0
M  V30 3631 N 374.092 3.93122 -4.01761 0
M  V30 3632 H 366.243 0.594182 -2.0392 0
M  V30 3633 H 368.506 0.324649 -0.890678 0
M  V30 3634 H 368.212 1.74304 -3.05469 0
M  V30 3635 H 368.086 3.17103 -2.04268 0
M  V30 3636 H 370.473 2.71196 -1.16347 0
M  V30 3637 H 370.554 1.2877 -2.21025 0
M  V30 3638 H 370.198 2.78991 -4.24413 0
M  V30 3639 H 370.128 4.20722 -3.16703 0
M  V30 3640 H 372.619 2.75921 -2.58217 0
M  V30 3641 H 372.932 5.19679 -5.71974 0
M  V30 3642 H 371.277 4.67875 -5.13924 0
M  V30 3643 H 374.468 3.35967 -3.2595 0
M  V30 3644 H 374.641 4.47139 -4.6901 0
M  V30 3645 N 368.047 0.979072 1.23499 0
M  V30 3646 C 369.272 0.664845 1.96455 0
M  V30 3647 C 369.697 -0.761287 1.72006 0
M  V30 3648 O 369.055 -1.51837 0.990713 0
M  V30 3649 C 369.103 0.959479 3.47601 0
M  V30 3650 O 368.207 0.0508168 4.12369 0
M  V30 3651 H 367.548 0.250185 0.615064 0
M  V30 3652 H 370.078 1.31231 1.5697 0
M  V30 3653 H 370.088 0.895642 3.98048 0
M  V30 3654 H 368.763 1.99876 3.64723 0
M  V30 3655 H 367.34 0.16895 3.72517 0
M  V30 3656 N 369.525 -1.3858 0.750561 0
M  V30 3657 C 370.488 -2.28836 0.129152 0
M  V30 3658 C 371.488 -1.47045 -0.650714 0
M  V30 3659 O 372.678 -1.6753 -0.477428 0
M  V30 3660 C 369.81 -3.30751 -0.825622 0
M  V30 3661 H 371.003 -2.85294 0.924516 0
M  V30 3662 H 368.556 -1.47489 0.517376 0
M  V30 3663 H 369.291 -2.79378 -1.64677 0
M  V30 3664 H 369.076 -3.91177 -0.268852 0
M  V30 3665 H 370.566 -3.98249 -1.2565 0
M  V30 3666 N 371.003 -0.499398 -1.49478 0
M  V30 3667 C 371.933 0.269244 -2.31943 0
M  V30 3668 C 372.914 0.964054 -1.40143 0
M  V30 3669 O 374.099 0.955767 -1.69052 0
M  V30 3670 C 371.229 1.33504 -3.20615 0
M  V30 3671 C 370.183 0.760202 -4.21195 0
M  V30 3672 C 369.509 1.9264 -4.98792 0
M  V30 3673 C 370.809 -0.247661 -5.21712 0
M  V30 3674 H 372.503 -0.419082 -2.96452 0
M  V30 3675 H 370.049 -0.202988 -1.42562 0
M  V30 3676 H 372.002 1.88048 -3.77115 0
M  V30 3677 H 370.726 2.05253 -2.54045 0
M  V30 3678 H 369.385 0.23653 -3.65836 0
M  V30 3679 H 369.033 2.63154 -4.28671 0
M  V30 3680 H 368.733 1.54785 -5.66847 0
M  V30 3681 H 370.257 2.4762 -5.58137 0
M  V30 3682 H 371.671 0.209579 -5.72917 0
M  V30 3683 H 370.068 -0.541962 -5.97648 0
M  V30 3684 H 371.138 -1.16409 -4.7072 0
M  V30 3685 N 372.481 1.55866 -0.233164 0
M  V30 3686 C 373.727 1.99643 0.389148 0
M  V30 3687 C 374.082 1.11836 1.56558 0
M  V30 3688 O 373.375 0.170848 1.90837 0
M  V30 3689 C 373.569 3.46856 0.861724 0
M  V30 3690 C 373.398 4.48904 -0.267376 0
M  V30 3691 C 372.168 4.99888 -0.737577 0
M  V30 3692 C 374.366 5.02624 -1.08966 0
M  V30 3693 N 372.348 5.8566 -1.84052 0
M  V30 3694 C 373.719 5.85434 -2.04125 0
M  V30 3695 C 375.774 4.84959 -1.12779 0
M  V30 3696 C 374.477 6.52466 -3.02789 0
M  V30 3697 C 376.503 5.52759 -2.10266 0
M  V30 3698 C 375.865 6.35346 -3.04162 0
M  V30 3699 H 371.964 0.774402 0.108742 0
M  V30 3700 H 374.548 1.91572 -0.347596 0
M  V30 3701 H 372.719 3.55352 1.5678 0
M  V30 3702 H 374.451 3.77531 1.45783 0
M  V30 3703 H 371.206 4.7249 -0.324122 0
M  V30 3704 H 371.63 6.33246 -2.39434 0
M  V30 3705 H 376.272 4.20751 -0.415749 0
M  V30 3706 H 373.99 7.15849 -3.74948 0
M  V30 3707 H 377.576 5.41051 -2.13905 0
M  V30 3708 H 376.456 6.86883 -3.78366 0
M  V30 3709 N 373.959 -0.0401083 1.57549 0
M  V30 3710 C 374.889 -1.04384 2.08869 0
M  V30 3711 C 375.87 -1.38407 0.988817 0
M  V30 3712 O 377.055 -1.47483 1.26342 0
M  V30 3713 C 374.185 -2.34808 2.55895 0
M  V30 3714 C 373.139 -2.15057 3.70047 0
M  V30 3715 C 372.465 -3.51145 4.03239 0
M  V30 3716 C 373.765 -1.54576 4.98902 0
M  V30 3717 H 375.459 -0.616666 2.92981 0
M  V30 3718 H 373.005 -0.295184 1.40942 0
M  V30 3719 H 374.958 -3.05346 2.90417 0
M  V30 3720 H 373.682 -2.79565 1.68853 0
M  V30 3721 H 372.341 -1.46954 3.35857 0
M  V30 3722 H 371.989 -3.93529 3.13279 0
M  V30 3723 H 371.689 -3.38758 4.80122 0
M  V30 3724 H 373.213 -4.23062 4.40285 0
M  V30 3725 H 374.627 -2.15017 5.31451 0
M  V30 3726 H 373.024 -1.52796 5.80322 0
M  V30 3727 H 374.094 -0.51039 4.82206 0
M  V30 3728 N 375.437 -1.54477 -0.31217 0
M  V30 3729 C 376.662 -1.77526 -1.07235 0
M  V30 3730 C 377.087 -0.527775 -1.80544 0
M  V30 3731 O 376.445 0.52121 -1.73646 0
M  V30 3732 C 376.493 -2.97535 -2.03728 0
M  V30 3733 O 375.597 -2.69878 -3.11833 0
M  V30 3734 H 374.938 -0.58792 -0.30862 0
M  V30 3735 H 377.468 -2.01532 -0.352993 0
M  V30 3736 H 377.478 -3.25198 -2.46395 0
M  V30 3737 H 376.153 -3.87996 -1.49774 0
M  V30 3738 H 374.73 -2.53199 -2.7376 0
M  V30 3739 N 376.915 0.57481 -1.46744 0
M  V30 3740 C 378.163 1.33009 -1.52161 0
M  V30 3741 C 378.484 1.94185 -0.178092 0
M  V30 3742 O 377.754 1.7899 0.796196 0
M  V30 3743 H 376.334 0.493873 -0.560445 0
M  V30 3744 H 378.996 0.672589 -1.82927 0
M  V30 3745 H 378.092 2.13273 -2.27862 0
M  V30 3746 N 378.394 1.34581 0.820102 0
M  V30 3747 C 379.341 1.2639 1.93117 0
M  V30 3748 C 380.311 0.138554 1.65521 0
M  V30 3749 O 381.496 0.320004 1.88097 0
M  V30 3750 C 378.636 1.02812 3.29429 0
M  V30 3751 C 377.749 2.24146 3.693 0
M  V30 3752 C 376.884 1.93829 4.94574 0
M  V30 3753 C 375.923 3.1129 5.27034 0
M  V30 3754 N 375.06 2.80838 6.43486 0
M  V30 3755 H 379.9 2.21408 1.99455 0
M  V30 3756 H 377.437 1.10077 0.975784 0
M  V30 3757 H 379.395 0.871788 4.0799 0
M  V30 3758 H 378.025 0.114612 3.22596 0
M  V30 3759 H 377.077 2.50691 2.86109 0
M  V30 3760 H 378.389 3.11899 3.89257 0
M  V30 3761 H 377.543 1.74948 5.80929 0
M  V30 3762 H 376.282 1.03341 4.76626 0
M  V30 3763 H 375.287 3.30764 4.39175 0
M  V30 3764 H 376.512 4.02561 5.4692 0
M  V30 3765 H 374.458 1.92929 6.26988 0
M  V30 3766 H 374.375 3.62123 6.63629 0
M  V30 3767 H 375.643 2.65467 7.32903 0
M  V30 3768 N 379.872 -1.04064 1.18357 0
M  V30 3769 C 380.782 -2.15569 0.925596 0
M  V30 3770 C 381.798 -1.7365 -0.110295 0
M  V30 3771 O 382.974 -2.01273 0.0716218 0
M  V30 3772 C 380.039 -3.43704 0.454836 0
M  V30 3773 C 379.1 -4.00004 1.55869 0
M  V30 3774 C 378.333 -5.22023 1.1103 0
M  V30 3775 O 378.556 -5.70392 -0.0309756 0
M  V30 3776 O 377.49 -5.70856 1.90805 0
M  V30 3777 H 381.316 -2.40187 1.8586 0
M  V30 3778 H 378.901 -1.1402 0.965394 0
M  V30 3779 H 380.783 -4.20923 0.200382 0
M  V30 3780 H 379.458 -3.20559 -0.449876 0
M  V30 3781 H 378.365 -3.24172 1.86716 0
M  V30 3782 H 379.698 -4.2749 2.43953 0
M  V30 3783 N 381.35 -0.985608 -1.22978 0
M  V30 3784 C 382.575 -0.675254 -1.961 0
M  V30 3785 C 383 0.752154 -1.72407 0
M  V30 3786 O 382.358 1.5131 -0.998751 0
M  V30 3787 C 382.406 -0.977899 -3.47087 0
M  V30 3788 O 381.51 -0.072685 -4.12336 0
M  V30 3789 H 380.851 -0.253443 -0.613728 0
M  V30 3790 H 383.381 -1.32061 -1.56272 0
M  V30 3791 H 383.391 -0.916739 -3.97567 0
M  V30 3792 H 382.066 -2.01807 -3.63657 0
M  V30 3793 H 380.643 -0.188703 -3.72422 0
M  V30 3794 N 382.828 1.3818 -0.7579 0
M  V30 3795 C 384.076 1.99624 -0.315361 0
M  V30 3796 C 384.397 1.60464 1.10799 0
M  V30 3797 O 383.667 0.863507 1.75842 0
M  V30 3798 H 382.247 0.73831 -0.113611 0
M  V30 3799 H 384.909 1.68878 -0.972952 0
M  V30 3800 H 384.005 3.09754 -0.381931 0
M  V30 3801 N 384.306 0.507319 1.49211 0
M  V30 3802 C 385.236 -0.256939 2.32082 0
M  V30 3803 C 386.217 -0.956609 1.40652 0
M  V30 3804 O 387.402 -0.946788 1.69557 0
M  V30 3805 C 384.532 -1.31802 3.21318 0
M  V30 3806 C 383.486 -0.737855 4.21592 0
M  V30 3807 C 382.812 -1.89992 4.99807 0
M  V30 3808 C 384.112 0.275325 5.21574 0
M  V30 3809 H 385.806 0.434798 2.96226 0
M  V30 3810 H 383.352 0.210546 1.42452 0
M  V30 3811 H 385.305 -1.86045 3.78107 0
M  V30 3812 H 384.029 -2.03903 2.5513 0
M  V30 3813 H 382.688 -0.217126 3.65956 0
M  V30 3814 H 382.336 -2.60877 4.30061 0
M  V30 3815 H 382.036 -1.51777 5.6766 0
M  V30 3816 H 383.56 -2.44657 5.59442 0
M  V30 3817 H 384.974 -0.179193 5.7302 0
M  V30 3818 H 383.371 0.573649 5.97352 0
M  V30 3819 H 384.441 1.18903 4.70096 0
M  V30 3820 N 385.784 -1.5574 0.241426 0
M  V30 3821 C 387.031 -1.9881 -0.384836 0
M  V30 3822 C 387.359 -1.12947 -1.58346 0
M  V30 3823 O 386.614 -0.178993 -1.9488 0
M  V30 3824 C 386.913 -3.47308 -0.843317 0
M  V30 3825 C 386.579 -4.50223 0.246946 0
M  V30 3826 C 385.241 -4.78088 0.546399 0
M  V30 3827 C 387.593 -5.11841 0.983282 0
M  V30 3828 C 384.921 -5.64846 1.58636 0
M  V30 3829 C 387.273 -5.99727 2.01272 0
M  V30 3830 C 385.937 -6.25927 2.31888 0
M  V30 3831 H 385.207 -0.727496 -0.140821 0
M  V30 3832 H 387.854 -1.8831 0.348106 0
M  V30 3833 H 386.159 -3.55112 -1.65537 0
M  V30 3834 H 387.856 -3.78017 -1.33806 0
M  V30 3835 H 384.446 -4.286 0.00340639 0
M  V30 3836 H 388.63 -4.90366 0.765182 0
M  V30 3837 H 383.886 -5.83403 1.82896 0
M  V30 3838 H 388.06 -6.46517 2.58823 0
M  V30 3839 H 385.687 -6.92949 3.12611 0
M  V30 3840 N 387.262 0.0317525 -1.57568 0
M  V30 3841 C 388.539 0.758366 -1.803 0
M  V30 3842 C 388.919 1.93718 -0.838845 0
M  V30 3843 O 388.267 2.28187 0.119571 0
M  V30 3844 C 388.477 1.19392 -3.27943 0
M  V30 3845 C 389.825 1.61094 -3.92854 0
M  V30 3846 O 390.849 1.28857 -3.32076 0
M  V30 3847 O 389.708 2.20918 -4.99858 0
M  V30 3848 H 386.802 0.366514 -0.741348 0
M  V30 3849 H 389.348 0.00873765 -1.69698 0
M  V30 3850 H 388.12 0.352275 -3.89711 0
M  V30 3851 H 387.743 2.00365 -3.43424 0
M  V30 3852 N 388.74 1.54641 0.303973 0
M  V30 3853 C 389.673 1.80263 1.3993 0
M  V30 3854 C 390.651 0.653657 1.48883 0
M  V30 3855 O 391.835 0.893284 1.6599 0
M  V30 3856 C 388.962 1.9367 2.77866 0
M  V30 3857 C 388.008 3.16078 2.86351 0
M  V30 3858 S 388.841 4.74219 2.4875 0
M  V30 3859 C 389.997 4.90558 3.88721 0
M  V30 3860 H 390.23 2.72886 1.17986 0
M  V30 3861 H 387.763 1.46014 0.501918 0
M  V30 3862 H 389.721 2.0208 3.57315 0
M  V30 3863 H 388.382 1.01991 2.9708 0
M  V30 3864 H 387.575 3.22252 3.87517 0
M  V30 3865 H 387.177 3.06099 2.14893 0
M  V30 3866 H 389.469 4.74398 4.83687 0
M  V30 3867 H 390.412 5.92651 3.87518 0
M  V30 3868 H 390.82 4.18728 3.78585 0
M  V30 3869 N 390.218 -0.567019 1.47046 0
M  V30 3870 C 391.634 -0.891975 1.32348 0
M  V30 3871 C 391.834 -1.99154 0.306616 0
M  V30 3872 O 390.89 -2.50883 -0.28532 0
M  V30 3873 C 392.203 -1.29449 2.7141 0
M  V30 3874 C 393.751 -1.40646 2.79621 0
M  V30 3875 C 394.226 -1.84257 4.19301 0
M  V30 3876 N 395.717 -1.91424 4.21795 0
M  V30 3877 C 396.452 -2.26476 5.26779 0
M  V30 3878 N 395.948 -2.60211 6.42077 0
M  V30 3879 N 397.741 -2.27166 5.14152 0
M  V30 3880 H 389.892 0.159074 2.11803 0
M  V30 3881 H 392.155 0.00849752 0.947962 0
M  V30 3882 H 391.861 -0.560448 3.47206 0
M  V30 3883 H 391.735 -2.25273 3.02542 0
M  V30 3884 H 394.122 -2.13133 2.04104 0
M  V30 3885 H 394.203 -0.430339 2.52154 0
M  V30 3886 H 393.847 -1.12343 4.95319 0
M  V30 3887 H 393.777 -2.82855 4.44185 0
M  V30 3888 H 396.268 -1.6778 3.38612 0
M  V30 3889 H 396.581 -2.85956 7.17948 0
M  V30 3890 H 394.926 -2.57813 6.45413 0
M  V30 3891 H 398.117 -2.00244 4.23107 0
M  V30 3892 H 398.29 -2.54154 5.96079 0
M  V30 3893 N 391.696 -1.35014 -0.812953 0
M  V30 3894 C 392.973 -1.18502 -1.55617 0
M  V30 3895 C 393.353 0.238421 -2.09749 0
M  V30 3896 O 392.701 1.2411 -1.91857 0
M  V30 3897 C 392.911 -2.24783 -2.66971 0
M  V30 3898 C 394.259 -2.60268 -3.35478 0
M  V30 3899 O 395.283 -2.23648 -2.77236 0
M  V30 3900 O 394.142 -3.2321 -4.40678 0
M  V30 3901 H 391.236 -0.459984 -0.687272 0
M  V30 3902 H 393.782 -1.46677 -0.853464 0
M  V30 3903 H 392.554 -3.20284 -2.24798 0
M  V30 3904 H 392.177 -1.97841 -3.44884 0
M  V30 3905 N 393.175 1.03435 -1.18907 0
M  V30 3906 C 394.421 1.77005 -0.989798 0
M  V30 3907 C 394.754 1.88205 0.478816 0
M  V30 3908 O 394.029 1.39481 1.35556 0
M  V30 3909 C 394.312 3.19925 -1.65287 0
M  V30 3910 C 394.165 3.1663 -3.19477 0
M  V30 3911 C 395.484 4.18189 -1.37134 0
M  V30 3912 H 392.603 0.642538 -0.360991 0
M  V30 3913 H 395.245 1.20784 -1.46667 0
M  V30 3914 H 393.395 3.67929 -1.24741 0
M  V30 3915 H 395.067 2.76567 -3.692 0
M  V30 3916 H 393.31 2.54491 -3.51307 0
M  V30 3917 H 393.981 4.1758 -3.61013 0
M  V30 3918 H 396.457 3.78761 -1.72276 0
M  V30 3919 H 395.333 5.16394 -1.86087 0
M  V30 3920 H 395.594 4.41112 -0.295424 0
M  V30 3921 N 394.653 0.992116 1.22453 0
M  V30 3922 C 395.583 0.561677 2.26644 0
M  V30 3923 C 396.564 -0.411055 1.65059 0
M  V30 3924 O 397.749 -0.301861 1.9184 0
M  V30 3925 C 394.879 -0.125247 3.47074 0
M  V30 3926 C 393.833 0.765948 4.21091 0
M  V30 3927 C 393.159 -0.0538484 5.34673 0
M  V30 3928 C 394.459 2.06242 4.79856 0
M  V30 3929 H 396.153 1.43259 2.62902 0
M  V30 3930 H 393.699 0.690283 1.26377 0
M  V30 3931 H 395.652 -0.437764 4.1912 0
M  V30 3932 H 394.376 -1.03069 3.0991 0
M  V30 3933 H 393.035 1.0621 3.50878 0
M  V30 3934 H 392.683 -0.960188 4.9375 0
M  V30 3935 H 392.383 0.539415 5.85119 0
M  V30 3936 H 393.907 -0.360477 6.09535 0
M  V30 3937 H 395.321 1.8139 5.43848 0
M  V30 3938 H 393.718 2.60444 5.40638 0
M  V30 3939 H 394.788 2.74167 3.99951 0
M  V30 3940 N 396.131 -1.37776 0.765217 0
M  V30 3941 C 397.408 -1.93975 0.251596 0
M  V30 3942 C 397.788 -1.69949 -1.25222 0
M  V30 3943 O 397.136 -1.04457 -2.03226 0
M  V30 3944 C 397.346 -3.43487 0.617895 0
M  V30 3945 C 398.694 -4.20564 0.584029 0
M  V30 3946 O 399.718 -3.5182 0.556888 0
M  V30 3947 O 398.577 -5.43138 0.605291 0
M  V30 3948 H 395.671 -0.82509 0.0561806 0
M  V30 3949 H 398.217 -1.47101 0.846128 0
M  V30 3950 H 396.989 -3.5453 1.65602 0
M  V30 3951 H 396.612 -3.976 -0.00403411 0
M  V30 3952 N 397.609 -0.515225 -1.4894 0
M  V30 3953 C 398.539 0.244628 -2.32215 0
M  V30 3954 C 399.52 0.949136 -1.41157 0
M  V30 3955 O 400.705 0.937783 -1.70057 0
M  V30 3956 C 397.835 1.30096 -3.22013 0
M  V30 3957 C 396.789 0.715486 -4.21977 0
M  V30 3958 C 396.115 1.87339 -5.00808 0
M  V30 3959 C 397.415 -0.302982 -5.2142 0
M  V30 3960 H 399.109 -0.450501 -2.95991 0
M  V30 3961 H 396.655 -0.218098 -1.42339 0
M  V30 3962 H 398.608 1.84037 -3.79089 0
M  V30 3963 H 397.332 2.02547 -2.56207 0
M  V30 3964 H 395.991 0.197715 -3.66066 0
M  V30 3965 H 395.639 2.58592 -4.31438 0
M  V30 3966 H 395.339 1.48764 -5.68457 0
M  V30 3967 H 396.863 2.41686 -5.60732 0
M  V30 3968 H 398.277 0.148802 -5.73107 0
M  V30 3969 H 396.674 -0.60532 -5.97039 0
M  V30 3970 H 397.744 -1.21395 -4.69459 0
M  V30 3971 N 399.087 1.5561 -0.249682 0
M  V30 3972 C 400.035 2.22894 0.664906 0
M  V30 3973 C 401.029 1.21743 1.17792 0
M  V30 3974 O 402.235 1.39748 1.13449 0
M  V30 3975 H 398.61 0.715022 0.232912 0
M  V30 3976 H 400.581 2.98307 0.0742998 0
M  V30 3977 C 399.33 2.94424 1.84959 0
M  V30 3978 H 398.653 3.72031 1.46399 0
M  V30 3979 H 400.093 3.44862 2.4667 0
M  V30 3980 C 398.552 1.98454 2.72245 0
M  V30 3981 O 399.082 1.51939 3.71857 0
M  V30 3982 N 397.288 1.65496 2.38871 0
M  V30 3983 H 396.835 2.03517 1.57919 0
M  V30 3984 H 396.793 1.0155 2.97548 0
M  V30 3985 N 400.565 -0.0233959 1.57583 0
M  V30 3986 C 401.513 -1.04063 2.08023 0
M  V30 3987 C 402.507 -1.37084 0.995204 0
M  V30 3988 O 403.713 -1.35923 1.18004 0
M  V30 3989 H 400.088 -0.353144 0.663922 0
M  V30 3990 H 402.059 -0.589453 2.9252 0
M  V30 3991 C 400.808 -2.33123 2.57971 0
M  V30 3992 H 400.131 -2.08577 3.4108 0
M  V30 3993 H 401.571 -3.02632 2.96967 0
M  V30 3994 C 400.03 -3.02483 1.48342 0
M  V30 3995 O 400.56 -3.92541 0.852898 0
M  V30 3996 N 398.766 -2.63909 1.21658 0
M  V30 3997 H 398.313 -1.90758 1.73116 0
M  V30 3998 H 398.271 -3.10633 0.485218 0
M  V30 3999 N 402.043 -1.548 -0.295768 0
M  V30 4000 C 402.973 -1.89115 -1.36959 0
M  V30 4001 C 403.954 -0.75059 -1.52644 0
M  V30 4002 O 405.139 -1.00678 -1.66065 0
M  V30 4003 C 402.269 -2.14307 -2.73295 0
M  V30 4004 C 401.223 -3.30151 -2.72368 0
M  V30 4005 C 400.549 -3.40772 -4.12042 0
M  V30 4006 C 401.849 -4.67126 -2.33646 0
M  V30 4007 H 403.543 -2.79053 -1.08488 0
M  V30 4008 H 401.089 -1.34266 -0.520443 0
M  V30 4009 H 403.042 -2.36898 -3.48507 0
M  V30 4010 H 401.766 -1.21145 -3.03301 0
M  V30 4011 H 400.425 -3.0749 -1.99613 0
M  V30 4012 H 400.073 -2.45117 -4.39234 0
M  V30 4013 H 399.773 -4.18645 -4.12322 0
M  V30 4014 H 401.297 -3.6563 -4.89027 0
M  V30 4015 H 402.711 -4.89414 -2.98575 0
M  V30 4016 H 401.108 -5.47751 -2.45129 0
M  V30 4017 H 402.178 -4.67489 -1.28772 0
M  V30 4018 O 403.56 0.441645 -1.55344 0
M  V30 4019 H 404.251 1.0953 -1.59759 0
M  V30 END ATOM
M  V30 BEGIN BOND
M  V30 END BOND
M  V30 END CTAB
M  END
$$$$
